drugbank_target|Q8IEN3 Carbamoyl phosphate synthetase (DB11638)
 OpenBabel12092121113D

  0  0  0     0  0            999 V3000
M  V30 BEGIN CTAB
M  V30 COUNTS 38010 38351 0 0 0
M  V30 BEGIN ATOM
M  V30 1 H -0.908 1.98254 -0.117106 0
M  V30 2 N 0 1.576 0 0
M  V30 3 C 0.933 2.03868 1.02534 0
M  V30 4 C 1.911 0.928543 1.3348 0
M  V30 5 O 3.095 1.19667 1.45644 0
M  V30 6 C 0.222 2.43627 2.35294 0
M  V30 7 C -0.732 3.65373 2.2001 0
M  V30 8 S 0.101 5.13292 1.52614 0
M  V30 9 C 1.257 5.56322 2.86805 0
M  V30 10 H 1.49 2.90518 0.631377 0
M  V30 11 H -0.977 1.52953 0.210867 0
M  V30 12 H 0.981 2.67203 3.11629 0
M  V30 13 H -0.358 1.57376 2.7183 0
M  V30 14 H -1.165 3.90944 3.18086 0
M  V30 15 H -1.563 3.418 1.51819 0
M  V30 16 H 0.729 5.58782 3.83104 0
M  V30 17 H 1.672 6.56266 2.65933 0
M  V30 18 H 2.08 4.83886 2.90714 0
M  V30 19 N 1.4781 -0.272755 1.55222 0
M  V30 20 C 2.7061 -1.02255 1.79865 0
M  V30 21 C 3.1211 -1.79924 0.572088 0
M  V30 22 O 2.4781 -1.76638 -0.458842 0
M  V30 23 C 2.5291 -1.98094 3.02392 0
M  V30 24 O 2.2501 -1.23572 4.20311 0
M  V30 25 C 3.7511 -2.84884 3.39641 0
M  V30 26 H 0.9711 -0.302057 0.599168 0
M  V30 27 H 3.5151 -0.303465 2.02236 0
M  V30 28 H 1.6701 -2.65465 2.82147 0
M  V30 29 H 2.0841 -1.88172 4.89583 0
M  V30 30 H 3.5581 -3.47927 4.28545 0
M  V30 31 H 4.0351 -3.54665 2.59055 0
M  V30 32 H 4.6411 -2.23003 3.62146 0
M  V30 33 N 2.9562 -1.48159 -0.537278 0
M  V30 34 C 4.1812 -1.59707 -1.32319 0
M  V30 35 C 4.6062 -0.254859 -1.86365 0
M  V30 36 O 3.9642 0.772378 -1.64024 0
M  V30 37 C 4.0122 -2.6412 -2.45505 0
M  V30 38 O 3.1162 -2.20774 -3.48328 0
M  V30 39 H 2.4572 -0.535791 -0.392204 0
M  V30 40 H 4.9872 -1.94092 -0.647268 0
M  V30 41 H 4.9972 -2.85166 -2.91795 0
M  V30 42 H 3.6722 -3.61567 -2.05528 0
M  V30 43 H 2.2492 -2.09911 -3.08207 0
M  V30 44 N 4.4343 0.785586 -1.36625 0
M  V30 45 C 5.3443 1.92964 -1.33425 0
M  V30 46 C 6.3603 1.72394 -0.235851 0
M  V30 47 O 7.5363 1.95866 -0.468878 0
M  V30 48 C 4.6013 3.27884 -1.12662 0
M  V30 49 C 3.6623 3.61204 -2.32013 0
M  V30 50 C 2.8953 4.89687 -2.12231 0
M  V30 51 O 3.1183 5.59704 -1.09945 0
M  V30 52 O 2.0523 5.21752 -3.00098 0
M  V30 53 H 5.8783 1.98613 -2.29753 0
M  V30 54 H 3.4633 0.926384 -1.17211 0
M  V30 55 H 5.3453 4.08614 -1.03016 0
M  V30 56 H 4.0203 3.23118 -0.193991 0
M  V30 57 H 2.9273 2.80765 -2.47228 0
M  V30 58 H 4.2603 3.70698 -3.23796 0
M  V30 59 N 5.9124 1.20967 1.01018 0
M  V30 60 C 7.1594 1.02374 1.74716 0
M  V30 61 C 7.4874 -0.443375 1.89379 0
M  V30 62 O 6.7424 -1.34535 1.42123 0
M  V30 63 C 7.0414 1.65997 3.16512 0
M  V30 64 C 6.7074 3.15831 3.2181 0
M  V30 65 C 5.3694 3.56719 3.22963 0
M  V30 66 C 7.7214 4.11816 3.19464 0
M  V30 67 C 5.0494 4.92107 3.19449 0
M  V30 68 C 7.4014 5.47158 3.17491 0
M  V30 69 C 6.0654 5.87451 3.16951 0
M  V30 70 H 5.3354 0.374614 0.639332 0
M  V30 71 H 7.9824 1.50485 1.18434 0
M  V30 72 H 6.2874 1.10166 3.75993 0
M  V30 73 H 7.9844 1.49119 3.72242 0
M  V30 74 H 4.5744 2.83263 3.21652 0
M  V30 75 H 8.7584 3.81257 3.17737 0
M  V30 76 H 4.0144 5.22579 3.17366 0
M  V30 77 H 8.1884 6.21274 3.14629 0
M  V30 78 H 5.8154 6.92329 3.13983 0
M  V30 79 N 7.3905 -1.2043 1.01659 0
M  V30 80 C 8.6365 -1.90356 0.716674 0
M  V30 81 C 8.9915 -1.77367 -0.745557 0
M  V30 82 O 8.2845 -1.1471 -1.53467 0
M  V30 83 C 8.4785 -3.40464 1.08714 0
M  V30 84 C 8.3075 -3.6806 2.58384 0
M  V30 85 C 7.0775 -3.86775 3.25167 0
M  V30 86 C 9.2755 -3.70623 3.56572 0
M  V30 87 N 7.2575 -4.01889 4.64067 0
M  V30 88 C 8.6285 -3.91161 4.81034 0
M  V30 89 C 10.6835 -3.53586 3.50544 0
M  V30 90 C 9.3865 -3.96428 6.00198 0
M  V30 91 C 11.4125 -3.60125 4.6911 0
M  V30 92 C 10.7745 -3.81135 5.92381 0
M  V30 93 H 6.8735 -0.716226 0.313918 0
M  V30 94 H 9.4575 -1.44815 1.30141 0
M  V30 95 H 7.6285 -3.84757 0.530745 0
M  V30 96 H 9.3605 -3.97863 0.740763 0
M  V30 97 H 6.1155 -3.85156 2.75594 0
M  V30 98 H 6.5395 -4.13323 5.36184 0
M  V30 99 H 11.1815 -3.36308 2.56235 0
M  V30 100 H 8.8995 -4.12502 6.94887 0
M  V30 101 H 12.4855 -3.4825 4.66062 0
M  V30 102 H 11.3655 -3.86054 6.82592 0
M  V30 103 N 8.8686 -0.792821 -1.36206 0
M  V30 104 C 10.2796 -0.429513 -1.81692 0
M  V30 105 C 10.6306 1.04695 -1.65932 0
M  V30 106 O 9.7556 1.81256 -1.18218 0
M  V30 107 C 10.3506 -0.772831 -3.29868 0
M  V30 108 C 8.9096 -0.462307 -3.7355 0
M  V30 109 C 8.0566 -1.00569 -2.5842 0
M  V30 110 H 11.0076 -0.985672 -1.24379 0
M  V30 111 H 11.0286 -0.0651928 -3.80444 0
M  V30 112 H 10.5406 -1.84747 -3.41307 0
M  V30 113 H 8.6416 0.604158 -3.67669 0
M  V30 114 H 8.7546 -0.985299 -4.68859 0
M  V30 115 H 7.1186 -0.428734 -2.51066 0
M  V30 116 H 7.9016 -2.08616 -2.72643 0
M  V30 117 N 10.3467 1.47872 -0.545128 0
M  V30 118 C 11.6237 1.9554 0.0485222 0
M  V30 119 C 12.0037 1.4876 1.49779 0
M  V30 120 O 11.3517 0.720925 2.16829 0
M  V30 121 C 11.5617 3.48898 -0.084417 0
M  V30 122 C 12.9097 4.24547 0.0671239 0
M  V30 123 O 13.9337 3.56198 -0.0113649 0
M  V30 124 O 12.7927 5.45999 0.233882 0
M  V30 125 H 9.8867 0.823957 0.0708773 0
M  V30 126 H 12.4327 1.58327 -0.610798 0
M  V30 127 H 11.2047 3.75714 -1.09337 0
M  V30 128 H 10.8277 3.92845 0.613066 0
M  V30 129 N 11.8248 0.280983 1.55075 0
M  V30 130 C 12.7548 -0.597469 2.25727 0
M  V30 131 C 13.7358 -1.15417 1.24952 0
M  V30 132 O 14.9208 -1.18722 1.53684 0
M  V30 133 C 12.0508 -1.7789 2.98283 0
M  V30 134 C 11.0048 -1.35347 4.06036 0
M  V30 135 C 10.3308 -2.61846 4.66198 0
M  V30 136 C 11.6308 -0.499354 5.19907 0
M  V30 137 H 13.3248 -0.00824265 2.99399 0
M  V30 138 H 10.8708 -0.0025244 1.44 0
M  V30 139 H 12.8238 -2.39937 3.46422 0
M  V30 140 H 11.5478 -2.39405 2.22155 0
M  V30 141 H 10.2068 -0.756156 3.58717 0
M  V30 142 H 9.8548 -3.21632 3.86732 0
M  V30 143 H 9.5548 -2.3409 5.38958 0
M  V30 144 H 11.0788 -3.24732 5.1709 0
M  V30 145 H 12.4928 -1.02498 5.64063 0
M  V30 146 H 10.8898 -0.316424 5.99265 0
M  V30 147 H 11.9598 0.480459 4.82514 0
M  V30 148 N 13.3029 -1.57598 0.00835791 0
M  V30 149 C 14.5799 -1.82172 -0.712235 0
M  V30 150 C 14.9599 -0.887873 -1.9152 0
M  V30 151 O 14.3079 0.06146 -2.28417 0
M  V30 152 C 14.5179 -3.30875 -1.11008 0
M  V30 153 C 15.8659 -3.96826 -1.51044 0
M  V30 154 O 16.8899 -3.35248 -1.20364 0
M  V30 155 O 15.7489 -5.05318 -2.08125 0
M  V30 156 H 12.8429 -0.750435 -0.347529 0
M  V30 157 H 15.3889 -1.69665 0.0344523 0
M  V30 158 H 14.1609 -3.90481 -0.252982 0
M  V30 159 H 13.7839 -3.48412 -1.9156 0
M  V30 160 N 14.781 0.264519 -1.55364 0
M  V30 161 C 16.028 0.994986 -1.7637 0
M  V30 162 C 16.356 1.85976 -0.5695 0
M  V30 163 O 15.611 1.90509 0.44776 0
M  V30 164 C 15.91 1.9004 -3.02687 0
M  V30 165 C 15.576 1.19243 -4.34847 0
M  V30 166 C 14.238 0.996709 -4.70764 0
M  V30 167 C 16.59 0.689296 -5.16622 0
M  V30 168 C 13.918 0.285261 -5.86006 0
M  V30 169 C 16.27 -0.00860079 -6.32599 0
M  V30 170 C 14.934 -0.215963 -6.67151 0
M  V30 171 H 14.204 0.364091 -0.645383 0
M  V30 172 H 16.851 0.266543 -1.89636 0
M  V30 173 H 15.156 2.69533 -2.84357 0
M  V30 174 H 16.853 2.46695 -3.16137 0
M  V30 175 H 13.443 1.3549 -4.06621 0
M  V30 176 H 17.627 0.828108 -4.89342 0
M  V30 177 H 12.883 0.113961 -6.11294 0
M  V30 178 H 17.057 -0.406186 -6.95214 0
M  V30 179 H 14.684 -0.769217 -7.56298 0
M  V30 180 N 16.2591 1.48442 0.529413 0
M  V30 181 C 17.2061 1.63007 1.63394 0
M  V30 182 C 18.1761 0.47212 1.59249 0
M  V30 183 O 19.3611 0.695673 1.77666 0
M  V30 184 C 16.5011 1.6763 3.01653 0
M  V30 185 C 15.6141 2.94535 3.16027 0
M  V30 186 C 14.7491 2.90316 4.44849 0
M  V30 187 C 13.7881 4.11923 4.52754 0
M  V30 188 N 12.9251 4.05777 5.72965 0
M  V30 189 H 17.7651 2.5733 1.50285 0
M  V30 190 H 15.3021 1.27613 0.731656 0
M  V30 191 H 17.2601 1.68292 3.81751 0
M  V30 192 H 15.8901 0.76797 3.13532 0
M  V30 193 H 14.9421 3.03615 2.29177 0
M  V30 194 H 16.2541 3.84512 3.17729 0
M  V30 195 H 15.4081 2.89382 5.33238 0
M  V30 196 H 14.1471 1.98068 4.45668 0
M  V30 197 H 13.1521 4.13131 3.62771 0
M  V30 198 H 14.3771 5.0533 4.53672 0
M  V30 199 H 12.3231 3.16351 5.74681 0
M  V30 200 H 12.2401 4.8946 5.76164 0
M  V30 201 H 13.5081 4.08904 6.6364 0
M  V30 202 N 17.7372 -0.778329 1.37039 0
M  V30 203 C 18.9652 -1.56734 1.35063 0
M  V30 204 C 19.3802 -1.88686 -0.0655597 0
M  V30 205 O 18.7372 -1.5096 -1.02554 0
M  V30 206 C 18.7882 -2.88163 2.18276 0
M  V30 207 O 18.5092 -2.57583 3.54376 0
M  V30 208 C 20.0102 -3.82422 2.24206 0
M  V30 209 H 17.2302 -0.485778 0.462883 0
M  V30 210 H 19.7742 -0.965185 1.8029 0
M  V30 211 H 17.9292 -3.44818 1.76576 0
M  V30 212 H 18.3432 -3.41699 3.97922 0
M  V30 213 H 19.8172 -4.71667 2.86765 0
M  V30 214 H 20.2942 -4.21078 1.24861 0
M  V30 215 H 20.9002 -3.31697 2.6619 0
M  V30 216 N 19.2153 -1.21501 -1.00376 0
M  V30 217 C 20.4613 -1.03452 -1.74429 0
M  V30 218 C 20.7943 0.430764 -1.89362 0
M  V30 219 O 20.0693 1.31962 -1.42886 0
M  V30 220 C 20.3523 -1.73375 -3.15615 0
M  V30 221 C 20.2053 -3.27431 -3.08397 0
M  V30 222 C 21.5243 -1.47732 -4.14564 0
M  V30 223 H 18.6433 -0.377226 -0.633143 0
M  V30 224 H 21.2853 -1.49693 -1.17013 0
M  V30 225 H 19.4353 -1.34064 -3.64636 0
M  V30 226 H 21.1073 -3.76119 -2.67081 0
M  V30 227 H 19.3503 -3.5767 -2.45468 0
M  V30 228 H 20.0213 -3.71524 -4.08258 0
M  V30 229 H 22.4973 -1.8186 -3.74254 0
M  V30 230 H 21.3733 -1.99169 -5.11491 0
M  V30 231 H 21.6343 -0.407589 -4.40217 0
M  V30 232 N 20.6934 1.19889 -1.02296 0
M  V30 233 C 21.9414 1.89046 -0.714558 0
M  V30 234 C 22.2624 1.79636 0.758681 0
M  V30 235 O 21.5324 1.20292 1.54618 0
M  V30 236 H 20.1124 0.699802 -0.261317 0
M  V30 237 H 22.7744 1.45574 -1.29592 0
M  V30 238 H 21.8704 2.95524 -1.0036 0
M  V30 239 N 22.1715 0.800033 1.35784 0
M  V30 240 C 23.5875 0.482977 1.52117 0
M  V30 241 C 23.7875 -0.996948 1.75109 0
M  V30 242 O 22.8435 -1.78216 1.78872 0
M  V30 243 C 24.1565 1.32264 2.70049 0
M  V30 244 C 25.7045 1.31742 2.83924 0
M  V30 245 C 26.1795 2.14106 4.04874 0
M  V30 246 N 27.6705 2.11607 4.12039 0
M  V30 247 C 28.4055 2.72099 5.04727 0
M  V30 248 N 27.9015 3.41492 6.02789 0
M  V30 249 N 29.6945 2.61776 4.97423 0
M  V30 250 H 21.8455 1.75856 1.19115 0
M  V30 251 H 24.1085 0.748122 0.582252 0
M  V30 252 H 23.8145 2.37261 2.59616 0
M  V30 253 H 23.6885 0.971303 3.6448 0
M  V30 254 H 26.0755 0.275333 2.93813 0
M  V30 255 H 26.1565 1.70859 1.9037 0
M  V30 256 H 25.8005 3.18351 3.95746 0
M  V30 257 H 25.7305 1.72353 4.97596 0
M  V30 258 H 28.2215 1.61112 3.41835 0
M  V30 259 H 28.5345 3.84953 6.70098 0
M  V30 260 H 26.8795 3.45596 6.02983 0
M  V30 261 H 30.0705 2.07157 4.19766 0
M  V30 262 H 30.2435 3.0921 5.69468 0
M  V30 263 N 23.6496 -1.47581 0.552962 0
M  V30 264 C 24.5796 -2.32762 -0.185451 0
M  V30 265 C 25.5606 -1.43527 -0.912905 0
M  V30 266 O 26.7456 -1.72388 -0.894201 0
M  V30 267 C 23.8756 -3.25219 -1.21859 0
M  V30 268 C 22.8296 -4.23661 -0.607864 0
M  V30 269 C 22.1556 -5.05413 -1.74533 0
M  V30 270 C 23.4556 -5.20481 0.435582 0
M  V30 271 H 25.1496 -2.94749 0.525684 0
M  V30 272 H 22.6956 -1.41738 0.254251 0
M  V30 273 H 24.6486 -3.8365 -1.7433 0
M  V30 274 H 23.3726 -2.61279 -1.95961 0
M  V30 275 H 22.0316 -3.66451 -0.104489 0
M  V30 276 H 21.6796 -4.3788 -2.47529 0
M  V30 277 H 21.3796 -5.72059 -1.34249 0
M  V30 278 H 22.9036 -5.66701 -2.27338 0
M  V30 279 H 24.3176 -5.733 -0.00290157 0
M  V30 280 H 22.7146 -5.95305 0.757067 0
M  V30 281 H 23.7846 -4.66217 1.33303 0
M  V30 282 N 25.1277 -0.289203 -1.54924 0
M  V30 283 C 26.3767 0.324231 -1.99077 0
M  V30 284 C 26.6897 1.5591 -1.18117 0
M  V30 285 O 27.8957 2.24637 -1.52481 0
M  V30 286 C 26.3517 0.628209 -3.54375 0
M  V30 287 C 25.9597 -0.587647 -4.44129 0
M  V30 288 C 27.7037 1.20349 -4.07083 0
M  V30 289 C 25.6107 -0.257475 -5.90839 0
M  V30 290 H 24.5407 0.124924 -0.743579 0
M  V30 291 H 27.1917 -0.396063 -1.79175 0
M  V30 292 H 25.5737 1.40778 -3.70132 0
M  V30 293 H 26.7477 -1.36418 -4.40144 0
M  V30 294 H 25.0627 -1.08074 -4.0213 0
M  V30 295 H 27.6597 1.46456 -5.14252 0
M  V30 296 H 28.0027 2.14195 -3.56968 0
M  V30 297 H 28.5357 0.485889 -3.94821 0
M  V30 298 H 25.2747 -1.16419 -6.45079 0
M  V30 299 H 24.7947 0.482018 -5.9786 0
M  V30 300 H 26.4737 0.145238 -6.46837 0
M  V30 301 N 26.6058 1.57591 -0.0167156 0
M  V30 302 C 27.5358 2.12496 0.967858 0
M  V30 303 C 28.5168 1.03807 1.34752 0
M  V30 304 O 29.7018 1.31577 1.42833 0
M  V30 305 C 26.8318 2.64194 2.25431 0
M  V30 306 C 25.7858 3.77559 2.01576 0
M  V30 307 C 25.1118 4.15636 3.36379 0
M  V30 308 C 26.4118 5.04151 1.36489 0
M  V30 309 H 28.1058 2.95013 0.510643 0
M  V30 310 H 25.6518 1.41915 0.244181 0
M  V30 311 H 27.6048 3.01236 2.94678 0
M  V30 312 H 26.3288 1.78821 2.73296 0
M  V30 313 H 24.9878 3.40937 1.34751 0
M  V30 314 H 24.6358 3.27263 3.81979 0
M  V30 315 H 24.3358 4.92022 3.21229 0
M  V30 316 H 25.8598 4.5525 4.06915 0
M  V30 317 H 27.2738 5.38857 1.95718 0
M  V30 318 H 25.6708 5.85453 1.31776 0
M  V30 319 H 26.7408 4.83733 0.336219 0
M  V30 320 N 28.0839 -0.256276 1.55502 0
M  V30 321 C 28.9939 -1.33882 1.92647 0
M  V30 322 C 30.0099 -1.53159 0.825727 0
M  V30 323 O 31.1859 -1.66963 1.12629 0
M  V30 324 C 28.2509 -2.6751 2.20543 0
M  V30 325 C 27.3119 -2.56836 3.43997 0
M  V30 326 C 26.5449 -3.84092 3.70553 0
M  V30 327 O 26.7679 -4.85545 2.99336 0
M  V30 328 O 25.7019 -3.83288 4.64084 0
M  V30 329 H 29.5279 -1.05374 2.84833 0
M  V30 330 H 27.1129 -0.456237 1.42263 0
M  V30 331 H 28.9949 -3.46492 2.39835 0
M  V30 332 H 27.6699 -2.9577 1.31536 0
M  V30 333 H 26.5769 -1.76172 3.30021 0
M  V30 334 H 27.9099 -2.33523 4.33275 0
M  V30 335 N 29.562 -1.4872 -0.521534 0
M  V30 336 C 30.839 -1.4766 -1.2828 0
M  V30 337 C 31.219 -0.19292 -2.10217 0
M  V30 338 O 30.567 0.825193 -2.13079 0
M  V30 339 C 30.777 -2.74358 -2.15705 0
M  V30 340 C 32.125 -3.23028 -2.75569 0
M  V30 341 O 33.149 -2.75333 -2.25987 0
M  V30 342 O 32.008 -4.0604 -3.65778 0
M  V30 343 H 29.102 -0.590085 -0.579421 0
M  V30 344 H 31.648 -1.60963 -0.537492 0
M  V30 345 H 30.42 -3.59292 -1.54999 0
M  V30 346 H 30.043 -2.63816 -2.97467 0
M  V30 347 N 31.0401 0.771051 -1.3745 0
M  V30 348 C 32.2881 1.52661 -1.32435 0
M  V30 349 C 32.6091 1.9479 0.0905024 0
M  V30 350 O 31.8791 1.66348 1.03466 0
M  V30 351 H 30.4591 0.566218 -0.487244 0
M  V30 352 H 33.1211 0.917636 -1.71946 0
M  V30 353 H 32.2171 2.42568 -1.96385 0
M  V30 354 N 32.5182 1.22032 0.997298 0
M  V30 355 C 33.4662 0.983634 2.10778 0
M  V30 356 C 34.4602 -0.0717564 1.69248 0
M  V30 357 O 35.6662 0.080304 1.79821 0
M  V30 358 H 32.0412 0.300877 0.689186 0
M  V30 359 H 34.0122 1.92606 2.27916 0
M  V30 360 C 32.7612 0.57326 3.42942 0
M  V30 361 H 32.0842 1.37702 3.75338 0
M  V30 362 H 33.5242 0.447031 4.21637 0
M  V30 363 C 31.9832 -0.7167 3.29188 0
M  V30 364 O 32.5132 -1.77027 3.60589 0
M  V30 365 N 30.7192 -0.686167 2.82383 0
M  V30 366 H 30.2662 0.171507 2.57028 0
M  V30 367 H 30.2242 -1.54955 2.73562 0
M  V30 368 N 33.9963 -1.19345 1.0293 0
M  V30 369 C 34.9063 -2.26245 0.620515 0
M  V30 370 C 35.9223 -1.70486 -0.347928 0
M  V30 371 O 37.0983 -2.00347 -0.205704 0
M  V30 372 C 34.1633 -3.46693 -0.0218957 0
M  V30 373 C 33.2243 -4.17632 0.994102 0
M  V30 374 C 32.4573 -5.32329 0.382253 0
M  V30 375 O 32.6803 -5.64552 -0.814676 0
M  V30 376 O 31.6143 -5.91664 1.10531 0
M  V30 377 H 35.4403 -2.63453 1.51083 0
M  V30 378 H 33.0253 -1.26207 0.799513 0
M  V30 379 H 34.9073 -4.19683 -0.380072 0
M  V30 380 H 33.5823 -3.11333 -0.886209 0
M  V30 381 H 32.4893 -3.4676 1.40387 0
M  V30 382 H 33.8223 -4.56964 1.8288 0
M  V30 383 N 35.4744 -0.807222 -1.35358 0
M  V30 384 C 36.7214 -0.387888 -1.9875 0
M  V30 385 C 37.0494 1.04509 -1.64037 0
M  V30 386 O 36.3044 1.73986 -0.895946 0
M  V30 387 C 36.6034 -0.519036 -3.53611 0
M  V30 388 C 36.2694 -1.91542 -4.08194 0
M  V30 389 C 34.9314 -2.29745 -4.22813 0
M  V30 390 C 37.2834 -2.82896 -4.37744 0
M  V30 391 C 34.6114 -3.58668 -4.643 0
M  V30 392 C 36.9634 -4.11265 -4.8067 0
M  V30 393 C 35.6274 -4.49466 -4.93494 0
M  V30 394 H 34.8974 -0.141938 -0.727279 0
M  V30 395 H 37.5444 -1.02814 -1.6156 0
M  V30 396 H 35.8494 0.204658 -3.91265 0
M  V30 397 H 37.5464 -0.175345 -4.00616 0
M  V30 398 H 34.1364 -1.60862 -3.97268 0
M  V30 399 H 38.3204 -2.54629 -4.26002 0
M  V30 400 H 33.5764 -3.88113 -4.72418 0
M  V30 401 H 37.7504 -4.82153 -5.02496 0
M  V30 402 H 35.3774 -5.49418 -5.25399 0
M  V30 403 N 36.9525 1.47285 -0.560781 0
M  V30 404 C 38.1985 2.02764 -0.0381184 0
M  V30 405 C 38.5315 1.43384 1.30976 0
M  V30 406 O 37.8065 0.590733 1.85312 0
M  V30 407 C 38.0895 3.60064 0.0511427 0
M  V30 408 C 37.9425 4.2987 -1.32408 0
M  V30 409 C 39.2615 4.33439 0.762795 0
M  V30 410 H 36.3805 0.736841 -0.0153264 0
M  V30 411 H 39.0225 1.75675 -0.723759 0
M  V30 412 H 37.1725 3.83274 0.635065 0
M  V30 413 H 38.8445 4.17989 -1.95148 0
M  V30 414 H 37.0875 3.90085 -1.8978 0
M  V30 415 H 37.7585 5.38478 -1.21431 0
M  V30 416 H 40.2345 4.15243 0.266965 0
M  V30 417 H 39.1105 5.43124 0.794221 0
M  V30 418 H 39.3715 4.02915 1.81966 0
M  V30 419 N 38.4306 0.297415 1.54768 0
M  V30 420 C 39.6786 -0.312295 1.99673 0
M  V30 421 C 39.9996 -1.54686 1.18732 0
M  V30 422 O 39.2696 -1.93854 0.282382 0
M  V30 423 H 37.8496 -0.118381 0.73756 0
M  V30 424 H 40.5116 0.407915 1.90583 0
M  V30 425 H 39.6076 -0.586813 3.06534 0
M  V30 426 N 39.9087 -1.5758 0.0250728 0
M  V30 427 C 41.1387 -1.95646 -0.663783 0
M  V30 428 C 41.5467 -0.899935 -1.66427 0
M  V30 429 O 40.8897 0.127191 -1.83259 0
M  V30 430 C 40.9517 -3.29835 -1.43 0
M  V30 431 C 40.6157 -4.53197 -0.588305 0
M  V30 432 C 41.6127 -5.19726 0.13469 0
M  V30 433 C 39.2977 -4.99529 -0.526897 0
M  V30 434 C 41.2917 -6.30902 0.90781 0
M  V30 435 C 38.9787 -6.10589 0.24993 0
M  V30 436 C 39.9767 -6.76134 0.965994 0
M  V30 437 O 39.6647 -7.85062 1.7301 0
M  V30 438 H 39.3967 -0.649282 -0.188174 0
M  V30 439 H 41.9507 -2.05245 0.0799006 0
M  V30 440 H 40.1807 -3.16716 -2.21873 0
M  V30 441 H 41.8697 -3.52833 -2.00658 0
M  V30 442 H 42.6357 -4.84904 0.0965562 0
M  V30 443 H 38.5147 -4.48319 -1.07381 0
M  V30 444 H 42.0587 -6.81995 1.46724 0
M  V30 445 H 37.9557 -6.44849 0.289795 0
M  V30 446 H 38.7237 -8.01708 1.64944 0
M  V30 447 N 41.3868 0.248026 -1.55636 0
M  V30 448 C 42.6118 0.998028 -1.81808 0
M  V30 449 C 43.0368 1.78207 -0.601979 0
M  V30 450 O 42.3948 1.75653 0.448961 0
M  V30 451 C 42.4428 1.9125 -3.05705 0
M  V30 452 O 41.5468 3.00406 -2.82542 0
M  V30 453 H 40.8878 0.284045 -0.600179 0
M  V30 454 H 43.4178 0.269357 -2.02819 0
M  V30 455 H 43.4278 2.32737 -3.35108 0
M  V30 456 H 42.1028 1.33602 -3.93857 0
M  V30 457 H 40.6798 2.63056 -2.64303 0
M  V30 458 N 42.8649 1.48995 0.513639 0
M  V30 459 C 44.1109 1.58076 1.27042 0
M  V30 460 C 44.4439 0.261026 1.92438 0
M  V30 461 O 43.7189 -0.734393 1.80103 0
M  V30 462 C 44.0019 2.73091 2.34719 0
M  V30 463 C 43.8549 4.14821 1.73907 0
M  V30 464 C 45.1739 2.83796 3.36375 0
M  V30 465 H 42.2929 0.575391 0.460536 0
M  V30 466 H 44.9349 1.81232 0.570516 0
M  V30 467 H 43.0849 2.53479 2.94416 0
M  V30 468 H 44.7569 4.45917 1.18135 0
M  V30 469 H 42.9999 4.21058 1.0437 0
M  V30 470 H 43.6709 4.91147 2.51949 0
M  V30 471 H 46.1469 3.01611 2.86653 0
M  V30 472 H 45.0229 3.65971 4.09093 0
M  V30 473 H 45.2839 1.92624 3.9793 0
M  V30 474 N 44.343 -0.763751 1.37857 0
M  V30 475 C 45.591 -1.51957 1.33243 0
M  V30 476 C 45.912 -1.94835 -0.0801709 0
M  V30 477 O 45.182 -1.66894 -1.02582 0
M  V30 478 H 43.762 -0.563626 0.49024 0
M  V30 479 H 46.424 -0.908504 1.7243 0
M  V30 480 H 45.52 -2.41523 1.97669 0
M  V30 481 N 45.8211 -1.22559 -0.990812 0
M  V30 482 C 47.0511 -1.07623 -1.76355 0
M  V30 483 C 47.4591 0.37601 -1.85426 0
M  V30 484 O 46.8021 1.27228 -1.32509 0
M  V30 485 C 46.8641 -1.61507 -3.21179 0
M  V30 486 C 46.5281 -3.10146 -3.35646 0
M  V30 487 C 47.5251 -4.07553 -3.22796 0
M  V30 488 C 45.2101 -3.49644 -3.60631 0
M  V30 489 C 47.2041 -5.42442 -3.34716 0
M  V30 490 C 44.8911 -4.84682 -3.72192 0
M  V30 491 C 45.8891 -5.8089 -3.59243 0
M  V30 492 O 45.5771 -7.13476 -3.70415 0
M  V30 493 H 45.3091 -0.377745 -0.560611 0
M  V30 494 H 47.8631 -1.62658 -1.25425 0
M  V30 495 H 46.0931 -1.00881 -3.73309 0
M  V30 496 H 47.7821 -1.42202 -3.80175 0
M  V30 497 H 48.5481 -3.78381 -3.03403 0
M  V30 498 H 44.4271 -2.75282 -3.69785 0
M  V30 499 H 47.9711 -6.17518 -3.24526 0
M  V30 500 H 43.8681 -5.13534 -3.91092 0
M  V30 501 H 44.6361 -7.21083 -3.87275 0
M  V30 502 N 47.2992 1.18797 -1.03562 0
M  V30 503 C 48.2092 2.25913 -0.632505 0
M  V30 504 C 49.2252 1.70668 0.338882 0
M  V30 505 O 50.4012 2.00453 0.195076 0
M  V30 506 C 47.4662 3.467 0.00350942 0
M  V30 507 C 46.5272 4.17098 -1.01624 0
M  V30 508 C 45.7602 5.32119 -0.410478 0
M  V30 509 O 45.9832 5.64976 0.784725 0
M  V30 510 O 44.9172 5.9107 -1.13667 0
M  V30 511 H 48.7432 2.62648 -1.52478 0
M  V30 512 H 46.3282 1.25781 -0.806195 0
M  V30 513 H 48.2102 4.19878 0.35781 0
M  V30 514 H 46.8852 3.11798 0.869686 0
M  V30 515 H 45.7922 3.4601 -1.42224 0
M  V30 516 H 47.1252 4.55987 -1.85301 0
M  V30 517 N 48.7773 0.814389 1.34928 0
M  V30 518 C 50.0253 0.397636 1.9815 0
M  V30 519 C 50.3463 -1.04069 1.64908 0
M  V30 520 O 49.6163 -1.72121 0.93548 0
M  V30 521 H 48.1963 0.144043 0.732981 0
M  V30 522 H 50.8583 1.04195 1.6471 0
M  V30 523 H 49.9543 0.509688 3.0791 0
M  V30 524 N 50.2554 -1.46986 0.568584 0
M  V30 525 C 51.4954 -2.04336 0.0512999 0
M  V30 526 C 51.8594 -1.43214 -1.27881 0
M  V30 527 O 53.0604 -1.91679 -1.88448 0
M  V30 528 C 51.3314 -3.57389 -0.0282328 0
M  V30 529 S 52.8904 -4.36056 -0.489991 0
M  V30 530 H 49.7084 -0.71034 0.0306349 0
M  V30 531 H 52.3104 -1.80212 0.757891 0
M  V30 532 H 51.0144 -3.99395 0.944011 0
M  V30 533 H 50.5454 -3.86028 -0.75803 0
M  V30 534 H 52.5604 -4.6441 -1.74752 0
M  V30 535 N 51.7335 -0.305618 -1.54608 0
M  V30 536 C 52.6805 0.568421 -2.23691 0
M  V30 537 C 53.6505 1.12592 -1.22116 0
M  V30 538 O 54.8355 1.16959 -1.50749 0
M  V30 539 C 51.9755 1.7322 -2.98477 0
M  V30 540 C 51.0885 1.20566 -4.14835 0
M  V30 541 C 50.2235 2.33368 -4.77193 0
M  V30 542 C 49.2625 1.7787 -5.85686 0
M  V30 543 N 48.3995 2.84263 -6.4198 0
M  V30 544 H 53.2395 -0.0272867 -2.97988 0
M  V30 545 H 50.7765 -0.0252363 -1.47078 0
M  V30 546 H 52.7345 2.41675 -3.40072 0
M  V30 547 H 51.3645 2.29947 -2.26548 0
M  V30 548 H 50.4165 0.413223 -3.78149 0
M  V30 549 H 51.7285 0.759417 -4.92985 0
M  V30 550 H 50.8825 3.09761 -5.21664 0
M  V30 551 H 49.6215 2.8132 -3.98385 0
M  V30 552 H 48.6265 0.99968 -5.40635 0
M  V30 553 H 49.8515 1.30816 -6.66381 0
M  V30 554 H 47.7975 3.31541 -5.66053 0
M  V30 555 H 47.7145 2.44149 -7.15491 0
M  V30 556 H 48.9825 3.6054 -6.91109 0
M  V30 557 N 53.2116 1.57565 -0.0334293 0
M  V30 558 C 54.4596 1.91598 0.642999 0
M  V30 559 C 54.7806 0.910847 1.7242 0
M  V30 560 O 54.0506 -0.0469931 1.95844 0
M  V30 561 H 52.6306 0.707228 0.240496 0
M  V30 562 H 55.2926 1.94726 -0.0822488 0
M  V30 563 H 54.3886 2.92336 1.09298 0
M  V30 564 N 54.6897 -0.239769 1.55765 0
M  V30 565 C 55.6377 -1.31668 1.91745 0
M  V30 566 C 56.6317 -1.49462 0.797338 0
M  V30 567 O 57.8377 -1.50852 0.982021 0
M  V30 568 H 54.2127 -0.441048 0.609082 0
M  V30 569 H 56.1837 -0.985923 2.81642 0
M  V30 570 C 54.9327 -2.66368 2.2348 0
M  V30 571 H 54.2557 -2.53478 3.09175 0
M  V30 572 H 55.6957 -3.40578 2.52553 0
M  V30 573 C 54.1547 -3.20002 1.05359 0
M  V30 574 O 54.6847 -4.00538 0.305261 0
M  V30 575 N 52.8907 -2.78126 0.842292 0
M  V30 576 H 52.4377 -2.12742 1.45253 0
M  V30 577 H 52.3957 -3.14354 0.053652 0
M  V30 578 N 56.1678 -1.49265 -0.50573 0
M  V30 579 C 57.1158 -1.66065 -1.62866 0
M  V30 580 C 58.1098 -0.526636 -1.61006 0
M  V30 581 O 59.3158 -0.706126 -1.65571 0
M  V30 582 H 55.6908 -0.52356 -0.539805 0
M  V30 583 H 57.6618 -2.60329 -1.45848 0
M  V30 584 C 56.4108 -1.74008 -3.01026 0
M  V30 585 H 55.7338 -2.6064 -3.03161 0
M  V30 586 H 57.1738 -1.89798 -3.79147 0
M  V30 587 C 55.6328 -0.483868 -3.33407 0
M  V30 588 O 56.1628 0.392548 -3.99777 0
M  V30 589 N 54.3688 -0.348236 -2.88506 0
M  V30 590 H 53.9158 -1.06242 -2.34671 0
M  V30 591 H 53.8738 0.491204 -3.10539 0
M  V30 592 N 57.6459 0.756429 -1.3826 0
M  V30 593 C 58.8709 1.55077 -1.37717 0
M  V30 594 C 59.2959 1.88073 0.03164 0
M  V30 595 O 58.6539 1.50364 1.01293 0
M  V30 596 C 58.7019 2.8283 -2.23695 0
M  V30 597 O 57.8059 3.77862 -1.6521 0
M  V30 598 H 57.1469 0.469152 -0.469885 0
M  V30 599 H 59.6769 0.935019 -1.81985 0
M  V30 600 H 59.6869 3.31783 -2.37453 0
M  V30 601 H 58.3619 2.58144 -3.2609 0
M  V30 602 H 56.9389 3.36555 -1.60578 0
M  V30 603 N 59.124 1.23083 0.984299 0
M  V30 604 C 60.373 1.05466 1.71929 0
M  V30 605 C 60.686 -0.409211 1.91272 0
M  V30 606 O 61.892 -0.705226 2.62181 0
M  V30 607 C 60.348 1.83874 3.09384 0
M  V30 608 C 59.956 3.34566 2.97943 0
M  V30 609 C 61.7 1.74734 3.8687 0
M  V30 610 C 59.607 4.05381 4.30605 0
M  V30 611 H 58.537 0.391039 0.644674 0
M  V30 612 H 61.188 1.47013 1.09815 0
M  V30 613 H 59.57 1.35131 3.72231 0
M  V30 614 H 60.744 3.90767 2.44209 0
M  V30 615 H 59.059 3.44476 2.33934 0
M  V30 616 H 61.656 2.24957 4.85076 0
M  V30 617 H 61.999 0.709372 4.10212 0
M  V30 618 H 62.532 2.21067 3.30717 0
M  V30 619 H 59.271 5.09467 4.1246 0
M  V30 620 H 58.791 3.53967 4.84218 0
M  V30 621 H 60.47 4.11458 4.99311 0
M  V30 622 N 60.6021 -1.18246 1.0419 0
M  V30 623 C 61.8271 -1.92736 0.765996 0
M  V30 624 C 62.2521 -1.75728 -0.67091 0
M  V30 625 O 61.6101 -1.06825 -1.46486 0
M  V30 626 C 61.6581 -3.42148 1.13875 0
M  V30 627 O 60.7621 -4.11548 0.264954 0
M  V30 628 H 60.1031 -0.601238 0.281797 0
M  V30 629 H 62.6331 -1.49942 1.39207 0
M  V30 630 H 62.6431 -3.92858 1.1012 0
M  V30 631 H 61.3181 -3.53848 2.18551 0
M  V30 632 H 59.8951 -3.71137 0.362226 0
M  V30 633 N 62.0802 -0.821533 -1.34494 0
M  V30 634 C 63.3202 -0.414785 -2.00147 0
M  V30 635 C 63.6842 1.00299 -1.6372 0
M  V30 636 O 64.8852 1.51255 -2.22206 0
M  V30 637 C 63.1562 -0.609403 -3.52166 0
M  V30 638 S 64.7152 -0.295297 -4.37805 0
M  V30 639 H 61.5332 -0.15679 -0.693497 0
M  V30 640 H 64.1352 -1.06705 -1.63812 0
M  V30 641 H 62.8392 -1.64096 -3.76166 0
M  V30 642 H 62.3702 0.0576414 -3.93358 0
M  V30 643 H 64.3852 0.891531 -4.88125 0
M  V30 644 N 63.5583 1.46682 -0.576371 0
M  V30 645 C 64.5083 2.27278 0.181288 0
M  V30 646 C 65.4923 1.35497 0.867721 0
M  V30 647 O 66.6843 1.59717 0.762863 0
M  V30 648 C 63.8133 3.21703 1.19841 0
M  V30 649 C 62.8993 4.20969 0.51442 0
M  V30 650 N 63.2903 5.03999 -0.426407 0
M  V30 651 C 61.5883 4.39373 0.765963 0
M  V30 652 C 62.2893 5.75812 -0.825565 0
M  V30 653 N 61.2653 5.43315 -0.176116 0
M  V30 654 H 65.0673 2.88863 -0.541785 0
M  V30 655 H 62.5813 1.57455 -0.397697 0
M  V30 656 H 64.5783 3.78145 1.75533 0
M  V30 657 H 63.2383 2.61677 1.92238 0
M  V30 658 H 64.2493 5.11659 -0.8016 0
M  V30 659 H 60.9263 3.90502 1.47698 0
M  V30 660 H 62.3163 6.52577 -1.59976 0
M  V30 661 N 65.0364 0.313813 1.54444 0
M  V30 662 C 65.9834 -0.55655 2.23989 0
M  V30 663 C 66.9534 -1.11943 1.22711 0
M  V30 664 O 68.1384 -1.16158 1.51367 0
M  V30 665 C 65.2784 -1.71635 2.99392 0
M  V30 666 C 64.3914 -1.18364 4.15468 0
M  V30 667 C 63.5264 -2.30834 4.78424 0
M  V30 668 C 62.5654 -1.74762 5.86622 0
M  V30 669 N 61.7024 -2.80855 6.43479 0
M  V30 670 H 66.5424 0.0430893 2.97969 0
M  V30 671 H 64.0794 0.0330359 1.47063 0
M  V30 672 H 66.0374 -2.39868 3.41349 0
M  V30 673 H 64.6674 -2.28742 2.27765 0
M  V30 674 H 63.7194 -0.393163 3.78363 0
M  V30 675 H 65.0314 -0.733262 4.93381 0
M  V30 676 H 64.1854 -3.0699 5.23299 0
M  V30 677 H 62.9244 -2.79204 3.99871 0
M  V30 678 H 61.9294 -0.970995 5.41158 0
M  V30 679 H 63.1544 -1.2728 6.67066 0
M  V30 680 H 61.1004 -3.28535 5.67804 0
M  V30 681 H 61.0174 -2.40351 7.16776 0
M  V30 682 H 62.2854 -3.5687 6.93011 0
M  V30 683 N 66.5145 -1.57545 0.0417849 0
M  V30 684 C 67.4245 -2.14451 -0.951213 0
M  V30 685 C 68.4405 -1.09992 -1.34825 0
M  V30 686 O 69.6165 -1.42114 -1.42708 0
M  V30 687 C 66.6815 -2.67063 -2.21084 0
M  V30 688 C 65.7425 -3.86284 -1.87304 0
M  V30 689 C 64.9755 -4.36378 -3.07261 0
M  V30 690 O 65.1985 -3.85587 -4.20332 0
M  V30 691 O 64.1325 -5.28077 -2.88822 0
M  V30 692 H 67.9585 -2.99601 -0.497287 0
M  V30 693 H 65.5435 -1.48317 -0.179567 0
M  V30 694 H 67.4255 -3.00914 -2.95006 0
M  V30 695 H 66.1005 -1.84989 -2.65633 0
M  V30 696 H 65.0075 -3.57338 -1.10727 0
M  V30 697 H 66.3405 -4.6956 -1.47562 0
M  V30 698 N 67.9926 0.231505 -1.5589 0
M  V30 699 C 69.2226 0.973092 -1.82248 0
M  V30 700 C 69.6306 1.78845 -0.617328 0
M  V30 701 O 68.9736 1.78752 0.423499 0
M  V30 702 C 69.0356 1.94732 -3.02192 0
M  V30 703 C 68.6996 1.31743 -4.37599 0
M  V30 704 C 69.6966 0.712238 -5.14998 0
M  V30 705 C 67.3816 1.33218 -4.84312 0
M  V30 706 C 69.3756 0.130195 -6.37267 0
M  V30 707 C 67.0626 0.746286 -6.06526 0
M  V30 708 C 68.0606 0.146337 -6.82843 0
M  V30 709 O 67.7486 -0.430465 -8.02747 0
M  V30 710 H 67.4806 0.29125 -0.61004 0
M  V30 711 H 70.0346 0.254915 -2.03812 0
M  V30 712 H 68.2646 2.70422 -2.76422 0
M  V30 713 H 69.9536 2.55362 -3.15508 0
M  V30 714 H 70.7196 0.69324 -4.8002 0
M  V30 715 H 66.5986 1.78854 -4.24891 0
M  V30 716 H 70.1426 -0.33871 -6.96777 0
M  V30 717 H 66.0396 0.762663 -6.40979 0
M  V30 718 H 66.8076 -0.323818 -8.17859 0
M  V30 719 N 69.4707 1.49531 0.497807 0
M  V30 720 C 70.8867 1.36365 0.829266 0
M  V30 721 C 71.0867 0.399184 1.97506 0
M  V30 722 O 70.1427 -0.167977 2.51941 0
M  V30 723 C 71.4557 2.77153 1.16647 0
M  V30 724 C 73.0037 2.85877 1.27449 0
M  V30 725 C 73.4787 4.2744 1.64497 0
M  V30 726 N 74.9697 4.30265 1.7154 0
M  V30 727 C 75.7047 5.3677 2.01656 0
M  V30 728 N 75.2007 6.53516 2.29976 0
M  V30 729 N 76.9937 5.24189 2.02934 0
M  V30 730 H 69.1447 2.10831 -0.257703 0
M  V30 731 H 71.4077 0.946534 -0.0527091 0
M  V30 732 H 71.1137 3.49442 0.397872 0
M  V30 733 H 70.9877 3.12722 2.10915 0
M  V30 734 H 73.3747 2.13824 2.0338 0
M  V30 735 H 73.4557 2.53887 0.312244 0
M  V30 736 H 73.0997 5.00021 0.891151 0
M  V30 737 H 73.0297 4.56896 2.61827 0
M  V30 738 H 75.5207 3.4607 1.51802 0
M  V30 739 H 75.8337 7.30506 2.52153 0
M  V30 740 H 74.1787 6.56737 2.27425 0
M  V30 741 H 77.3697 4.31988 1.80289 0
M  V30 742 H 77.5427 6.07286 2.26071 0
M  V30 743 N 70.9488 -0.749086 1.3866 0
M  V30 744 C 71.8968 -1.88428 1.36373 0
M  V30 745 C 72.8908 -1.67561 0.248929 0
M  V30 746 O 74.0968 -1.75074 0.41821 0
M  V30 747 H 70.4718 -0.620023 0.42553 0
M  V30 748 H 72.4428 -1.87473 2.32156 0
M  V30 749 C 71.1918 -3.25961 1.21014 0
M  V30 750 H 70.5148 -3.42607 2.06059 0
M  V30 751 H 71.9548 -4.05625 1.23469 0
M  V30 752 C 70.4138 -3.36799 -0.0825941 0
M  V30 753 O 70.9438 -3.87517 -1.05797 0
M  V30 754 N 69.1498 -2.90258 -0.140939 0
M  V30 755 H 68.6968 -2.49174 0.653477 0
M  V30 756 H 68.6548 -2.97889 -1.00545 0
M  V30 757 N 72.4269 -1.23603 -0.977757 0
M  V30 758 C 73.6759 -1.06377 -1.71368 0
M  V30 759 C 73.9889 0.399062 -1.91486 0
M  V30 760 O 75.1949 0.691312 -2.62551 0
M  V30 761 C 73.6509 -1.85512 -3.08404 0
M  V30 762 C 73.2589 -3.36141 -2.96164 0
M  V30 763 C 75.0029 -1.76783 -3.85938 0
M  V30 764 C 72.9099 -4.07659 -4.28449 0
M  V30 765 H 71.8399 -0.394452 -0.642591 0
M  V30 766 H 74.4909 -1.47594 -1.09034 0
M  V30 767 H 72.8729 -1.37103 -3.71509 0
M  V30 768 H 74.0469 -3.92056 -2.42133 0
M  V30 769 H 72.3619 -3.45712 -2.32104 0
M  V30 770 H 74.9589 -2.27526 -4.83876 0
M  V30 771 H 75.3019 -0.731116 -4.0983 0
M  V30 772 H 75.8349 -2.22818 -3.2954 0
M  V30 773 H 72.5739 -5.11648 -4.09752 0
M  V30 774 H 72.0939 -3.5653 -4.82334 0
M  V30 775 H 73.7729 -4.141 -4.97122 0
M  V30 776 N 73.905 1.17692 -1.04816 0
M  V30 777 C 75.154 1.87192 -0.751132 0
M  V30 778 C 75.467 1.8169 0.724441 0
M  V30 779 O 76.673 2.46625 1.13527 0
M  V30 780 C 75.129 3.35857 -1.29338 0
M  V30 781 C 74.737 3.4987 -2.79812 0
M  V30 782 C 76.481 4.10709 -1.07322 0
M  V30 783 C 74.388 4.92536 -3.27356 0
M  V30 784 H 73.318 0.701162 -0.277288 0
M  V30 785 H 75.969 1.32932 -1.26496 0
M  V30 786 H 74.351 3.89631 -0.707376 0
M  V30 787 H 75.525 3.06332 -3.44235 0
M  V30 788 H 73.84 2.88433 -3.00325 0
M  V30 789 H 76.437 5.15952 -1.4035 0
M  V30 790 H 76.78 4.16299 -0.0108001 0
M  V30 791 H 77.313 3.6313 -1.62423 0
M  V30 792 H 74.052 4.92119 -4.33012 0
M  V30 793 H 73.572 5.3676 -2.67673 0
M  V30 794 H 75.251 5.61288 -3.21815 0
M  V30 795 N 75.3831 0.828654 1.34056 0
M  V30 796 C 76.3311 0.242973 2.31327 0
M  V30 797 C 77.3251 -0.61944 1.57668 0
M  V30 798 O 78.5311 -0.51014 1.7262 0
M  V30 799 H 74.9061 0.059834 0.749616 0
M  V30 800 H 76.8771 1.07809 2.78244 0
M  V30 801 C 75.6261 -0.575733 3.429 0
M  V30 802 H 74.9491 0.0785582 3.99723 0
M  V30 803 H 76.3891 -0.951547 4.13185 0
M  V30 804 C 74.8481 -1.75044 2.87856 0
M  V30 805 O 75.3781 -2.84882 2.83205 0
M  V30 806 N 73.5841 -1.56903 2.44602 0
M  V30 807 H 73.1311 -0.675547 2.48584 0
M  V30 808 H 73.0891 -2.35652 2.08124 0
M  V30 809 N 76.8612 -1.46375 0.584142 0
M  V30 810 C 77.8092 -2.32042 -0.161047 0
M  V30 811 C 78.8032 -1.44569 -0.882966 0
M  V30 812 O 80.0092 -1.61186 -0.801191 0
M  V30 813 H 76.3842 -0.748659 -0.0708033 0
M  V30 814 H 78.3552 -2.92704 0.580269 0
M  V30 815 C 77.1042 -3.27762 -1.1605 0
M  V30 816 H 76.4272 -3.95051 -0.614419 0
M  V30 817 H 77.8672 -3.90481 -1.65228 0
M  V30 818 C 76.3262 -2.53218 -2.22221 0
M  V30 819 O 76.8562 -2.29628 -3.29597 0
M  V30 820 N 75.0622 -2.13756 -1.96868 0
M  V30 821 H 74.6092 -2.33142 -1.09557 0
M  V30 822 H 74.5672 -1.642 -2.68115 0
M  V30 823 N 78.3393 -0.321999 -1.54275 0
M  V30 824 C 79.6163 0.335232 -1.92706 0
M  V30 825 C 79.9963 1.70006 -1.25145 0
M  V30 826 O 79.3443 2.25067 -0.394596 0
M  V30 827 C 79.5543 0.429008 -3.46353 0
M  V30 828 C 80.9023 0.690029 -4.18956 0
M  V30 829 O 81.9263 0.511992 -3.52501 0
M  V30 830 O 80.7853 1.03338 -5.36641 0
M  V30 831 H 77.8793 0.191143 -0.804608 0
M  V30 832 H 80.4253 -0.3716 -1.65581 0
M  V30 833 H 79.1973 -0.529611 -3.87699 0
M  V30 834 H 78.8203 1.18348 -3.79578 0
M  V30 835 N 79.8174 1.5752 -0.0501392 0
M  V30 836 C 80.7654 2.12651 0.942459 0
M  V30 837 C 81.7594 1.05807 1.32292 0
M  V30 838 O 82.9654 1.24217 1.3027 0
M  V30 839 H 79.3404 0.679673 0.321789 0
M  V30 840 H 81.3114 2.94951 0.452356 0
M  V30 841 C 80.0604 2.68565 2.20836 0
M  V30 842 H 79.3834 3.50439 1.92439 0
M  V30 843 H 80.8234 3.10761 2.8845 0
M  V30 844 C 79.2824 1.62291 2.95234 0
M  V30 845 O 79.8124 1.03508 3.88135 0
M  V30 846 N 78.0184 1.33836 2.57946 0
M  V30 847 H 77.5654 1.81826 1.82475 0
M  V30 848 H 77.5234 0.629595 3.08032 0
M  V30 849 N 81.2955 -0.223234 1.56011 0
M  V30 850 C 82.5205 -0.968978 1.83373 0
M  V30 851 C 82.9455 -1.77227 0.630254 0
M  V30 852 O 82.3035 -1.76345 -0.420959 0
M  V30 853 C 82.3515 -1.86363 3.08709 0
M  V30 854 O 81.4555 -2.95873 2.87285 0
M  V30 855 H 80.7965 -0.274461 0.604622 0
M  V30 856 H 83.3265 -0.237056 2.03222 0
M  V30 857 H 83.3365 -2.27376 3.38768 0
M  V30 858 H 82.0115 -1.27319 3.95933 0
M  V30 859 H 80.5885 -2.58818 2.68454 0
M  V30 860 N 82.7736 -1.49793 -0.48987 0
M  V30 861 C 83.7206 -1.67281 -1.59014 0
M  V30 862 C 84.6906 -0.514177 -1.57941 0
M  V30 863 O 85.8756 -0.742533 -1.75759 0
M  V30 864 C 83.0156 -1.75569 -2.97102 0
M  V30 865 C 82.1286 -3.0281 -3.08107 0
M  V30 866 C 81.2636 -3.02008 -4.36995 0
M  V30 867 C 80.3026 -4.23782 -4.41673 0
M  V30 868 N 79.4396 -4.20826 -5.62005 0
M  V30 869 H 84.2796 -2.61224 -1.43409 0
M  V30 870 H 81.8166 -1.29508 -0.697565 0
M  V30 871 H 83.7746 -1.78354 -3.77155 0
M  V30 872 H 82.4046 -0.850827 -3.11385 0
M  V30 873 H 81.4566 -3.09584 -2.21047 0
M  V30 874 H 82.7686 -3.92801 -3.07423 0
M  V30 875 H 81.9226 -3.03418 -5.25378 0
M  V30 876 H 80.6616 -2.09815 -4.4026 0
M  V30 877 H 79.6666 -4.22604 -3.5169 0
M  V30 878 H 80.8916 -5.17181 -4.40115 0
M  V30 879 H 78.8376 -3.31476 -5.66091 0
M  V30 880 H 78.7546 -5.04564 -5.62984 0
M  V30 881 H 80.0226 -4.26355 -6.52565 0
M  V30 882 N 84.2517 0.741722 -1.39055 0
M  V30 883 C 85.1997 1.87702 -1.3737 0
M  V30 884 C 86.1937 1.67427 -0.257812 0
M  V30 885 O 87.3997 1.7485 -0.427489 0
M  V30 886 H 83.7747 0.617757 -0.428812 0
M  V30 887 H 85.7457 1.86239 -2.33147 0
M  V30 888 C 84.4947 3.25315 -1.22741 0
M  V30 889 H 83.8177 3.41509 -2.07873 0
M  V30 890 H 85.2577 4.04964 -1.25618 0
M  V30 891 C 83.7167 3.36838 0.0647316 0
M  V30 892 O 84.2467 3.88073 1.03741 0
M  V30 893 N 82.4527 2.90329 0.125544 0
M  V30 894 H 81.9997 2.48823 -0.666682 0
M  V30 895 H 81.9577 2.98418 0.989639 0
M  V30 896 N 85.7298 1.2412 0.971189 0
M  V30 897 C 86.9548 1.10667 1.75407 0
M  V30 898 C 87.3798 -0.337048 1.85056 0
M  V30 899 O 86.7378 -1.24396 1.31892 0
M  V30 900 C 86.7858 1.74726 3.15441 0
M  V30 901 O 85.8898 1.01566 3.99697 0
M  V30 902 H 85.2308 0.387341 0.539317 0
M  V30 903 H 87.7608 1.64358 1.2185 0
M  V30 904 H 87.7708 1.80341 3.6598 0
M  V30 905 H 86.4458 2.79773 3.07734 0
M  V30 906 H 85.0228 1.03713 3.58187 0
M  V30 907 N 87.2079 -1.17134 1.05439 0
M  V30 908 C 88.1559 -2.23289 0.651511 0
M  V30 909 C 89.1499 -1.66186 -0.328411 0
M  V30 910 O 90.3559 -1.78949 -0.194206 0
M  V30 911 H 86.7309 -0.726938 0.192523 0
M  V30 912 H 88.7019 -2.54565 1.55689 0
M  V30 913 C 87.4509 -3.47671 0.0448436 0
M  V30 914 H 86.7739 -3.91918 0.78996 0
M  V30 915 H 88.2139 -4.2353 -0.19964 0
M  V30 916 C 86.6729 -3.14453 -1.20918 0
M  V30 917 O 87.2029 -3.29459 -2.29825 0
M  V30 918 N 85.4089 -2.68657 -1.10779 0
M  V30 919 H 84.9559 -2.56646 -0.221526 0
M  V30 920 H 84.9139 -2.46804 -1.9477 0
M  V30 921 N 88.686 -0.835752 -1.33615 0
M  V30 922 C 89.634 -0.255238 -2.31195 0
M  V30 923 C 90.628 0.61107 -1.57995 0
M  V30 924 O 91.834 0.500979 -1.72888 0
M  V30 925 H 88.209 -0.0638085 -0.749288 0
M  V30 926 H 90.18 -1.09283 -2.77669 0
M  V30 927 C 88.929 0.55754 -3.43201 0
M  V30 928 H 88.252 -0.0997553 -3.99676 0
M  V30 929 H 89.692 0.929622 -4.13683 0
M  V30 930 C 88.151 1.73515 -2.88781 0
M  V30 931 O 88.681 2.83376 -2.84712 0
M  V30 932 N 86.887 1.55603 -2.4543 0
M  V30 933 H 86.434 0.662354 -2.48939 0
M  V30 934 H 86.392 2.34545 -2.09371 0
M  V30 935 N 90.1641 1.46063 -0.591896 0
M  V30 936 C 91.3891 2.07226 -0.0850314 0
M  V30 937 C 91.8141 1.43625 1.21463 0
M  V30 938 O 91.1721 0.523305 1.73583 0
M  V30 939 C 91.2201 3.60554 0.0576567 0
M  V30 940 O 90.3241 3.97128 1.11188 0
M  V30 941 H 89.6651 0.660615 -0.0669568 0
M  V30 942 H 92.1951 1.8756 -0.81745 0
M  V30 943 H 92.2051 4.07165 0.2609 0
M  V30 944 H 90.8801 4.06235 -0.891416 0
M  V30 945 H 89.4571 3.62213 0.886356 0
M  V30 946 N 91.6422 0.330177 1.54103 0
M  V30 947 C 92.8892 -0.270405 2.00686 0
M  V30 948 C 93.2172 -1.51621 1.21825 0
M  V30 949 O 92.4722 -1.93536 0.29025 0
M  V30 950 C 92.7712 -0.643134 3.51566 0
M  V30 951 C 92.4372 0.504251 4.48072 0
M  V30 952 C 91.0992 0.819163 4.74176 0
M  V30 953 C 93.4512 1.27465 5.05373 0
M  V30 954 C 90.7792 1.90708 5.5484 0
M  V30 955 C 93.1312 2.35271 5.87223 0
M  V30 956 C 91.7952 2.67336 6.11627 0
M  V30 957 H 91.0652 -0.0989482 0.734364 0
M  V30 958 H 93.7122 0.455324 1.86008 0
M  V30 959 H 92.0172 -1.44938 3.64006 0
M  V30 960 H 93.7142 -1.11949 3.85056 0
M  V30 961 H 90.3042 0.248733 4.27878 0
M  V30 962 H 94.4882 1.04462 4.85182 0
M  V30 963 H 89.7442 2.15991 5.71977 0
M  V30 964 H 93.9182 2.95405 6.30641 0
M  V30 965 H 91.5452 3.51763 6.73919 0
M  V30 966 N 93.1203 -1.57491 0.0584922 0
M  V30 967 C 94.3603 -1.94851 -0.617458 0
M  V30 968 C 94.7243 -0.937165 -1.67575 0
M  V30 969 O 95.9253 -1.19795 -2.40629 0
M  V30 970 C 94.1963 -3.36955 -1.19147 0
M  V30 971 S 95.7553 -3.96277 -1.8844 0
M  V30 972 H 92.5733 -0.681539 -0.202547 0
M  V30 973 H 95.1753 -1.95073 0.129176 0
M  V30 974 H 93.8793 -4.08355 -0.409215 0
M  V30 975 H 93.4103 -3.40245 -1.97476 0
M  V30 976 H 95.4253 -3.82099 -3.16568 0
M  V30 977 N 94.5984 0.214957 -1.56127 0
M  V30 978 C 95.5464 1.28601 -1.93816 0
M  V30 979 C 96.5404 1.48175 -0.821016 0
M  V30 980 O 97.7464 1.49271 -1.0059 0
M  V30 981 H 94.1214 0.431302 -0.616022 0
M  V30 982 H 96.0924 0.940991 -2.83175 0
M  V30 983 C 94.8414 2.62779 -2.27689 0
M  V30 984 H 94.1644 2.48527 -3.13168 0
M  V30 985 H 95.6044 3.36517 -2.57939 0
M  V30 986 C 94.0634 3.18285 -1.10436 0
M  V30 987 O 94.5934 4.00002 -0.368945 0
M  V30 988 N 92.7994 2.7675 -0.886433 0
M  V30 989 H 92.3464 2.10404 -1.48619 0
M  V30 990 H 92.3044 3.14229 -0.103656 0
M  V30 991 N 96.0765 1.50051 0.48192 0
M  V30 992 C 97.0245 1.68635 1.60203 0
M  V30 993 C 98.0185 0.552184 1.60148 0
M  V30 994 O 99.2245 0.732377 1.64427 0
M  V30 995 H 95.5995 0.532081 0.531407 0
M  V30 996 H 97.5705 2.62616 1.41688 0
M  V30 997 C 96.3195 1.78775 2.9822 0
M  V30 998 H 95.6425 2.6543 2.98976 0
M  V30 999 H 97.0825 1.95806 3.7608 0
M  V30 1000 C 95.5415 0.536849 3.32595 0
M  V30 1001 O 96.0715 -0.328897 4.00351 0
M  V30 1002 N 94.2775 0.394091 2.87915 0
M  V30 1003 H 93.8245 1.09962 2.32951 0
M  V30 1004 H 93.7825 -0.441737 3.11281 0
M  V30 1005 N 97.5546 -0.734337 1.39446 0
M  V30 1006 C 98.4646 -1.87879 1.40495 0
M  V30 1007 C 99.4806 -1.714 0.299672 0
M  V30 1008 O 100.657 -1.93991 0.541249 0
M  V30 1009 C 97.7216 -3.23477 1.24754 0
M  V30 1010 C 96.7826 -3.52344 2.45259 0
M  V30 1011 C 96.0156 -4.81473 2.30259 0
M  V30 1012 O 96.2386 -5.55237 1.30643 0
M  V30 1013 O 95.1726 -5.10254 3.19256 0
M  V30 1014 H 98.9986 -1.89949 2.36966 0
M  V30 1015 H 96.5836 -0.882243 1.20569 0
M  V30 1016 H 98.4656 -4.04509 1.18111 0
M  V30 1017 H 97.1406 -3.22176 0.313781 0
M  V30 1018 H 96.0476 -2.71396 2.57478 0
M  V30 1019 H 97.3806 -3.58426 3.37331 0
M  V30 1020 N 99.0327 -1.24633 -0.964593 0
M  V30 1021 C 99.9427 -1.05859 -2.09359 0
M  V30 1022 C 100.959 0.00148855 -1.74 0
M  V30 1023 O 102.135 -0.197346 -2.00431 0
M  V30 1024 C 99.1997 -0.668879 -3.40187 0
M  V30 1025 C 98.2607 -1.80578 -3.89474 0
M  V30 1026 C 97.4937 -1.43457 -5.14058 0
M  V30 1027 O 97.7167 -0.325775 -5.69469 0
M  V30 1028 O 96.6507 -2.2613 -5.57807 0
M  V30 1029 H 100.477 -2.00516 -2.28094 0
M  V30 1030 H 98.0617 -1.03481 -1.0776 0
M  V30 1031 H 99.9437 -0.463211 -4.18846 0
M  V30 1032 H 98.6187 0.248536 -3.22744 0
M  V30 1033 H 97.5257 -2.06623 -3.11862 0
M  V30 1034 H 98.8587 -2.70208 -4.11398 0
M  V30 1035 N 100.511 1.16574 -1.06058 0
M  V30 1036 C 101.459 2.22941 -0.663343 0
M  V30 1037 C 102.453 1.66358 0.319593 0
M  V30 1038 O 103.659 1.7905 0.184713 0
M  V30 1039 H 100.034 0.725907 -0.196376 0
M  V30 1040 H 102.005 2.53736 -1.57037 0
M  V30 1041 C 100.754 3.47642 -0.0632808 0
M  V30 1042 H 100.077 3.91493 -0.810733 0
M  V30 1043 H 101.517 4.2363 0.177177 0
M  V30 1044 C 99.9758 3.1509 1.19248 0
M  V30 1045 O 100.506 3.30673 2.28075 0
M  V30 1046 N 98.7118 2.6924 1.09353 0
M  V30 1047 H 98.2588 2.5676 0.207912 0
M  V30 1048 H 98.2168 2.47833 1.93458 0
M  V30 1049 N 101.989 0.842826 1.3317 0
M  V30 1050 C 102.937 0.267495 2.31057 0
M  V30 1051 C 103.931 -0.602682 1.58316 0
M  V30 1052 O 105.137 -0.491803 1.73151 0
M  V30 1053 H 101.512 0.0677813 0.748939 0
M  V30 1054 H 103.483 1.10754 2.77085 0
M  V30 1055 C 102.232 -0.539331 3.43492 0
M  V30 1056 H 101.555 0.12095 3.99617 0
M  V30 1057 H 102.995 -0.90767 4.14171 0
M  V30 1058 C 101.454 -1.71981 2.89697 0
M  V30 1059 O 101.984 -2.81862 2.86211 0
M  V30 1060 N 100.19 -1.54299 2.46252 0
M  V30 1061 H 99.7369 -0.649143 2.49287 0
M  V30 1062 H 99.6949 -2.33431 2.10612 0
M  V30 1063 N 103.467 -1.45747 0.599634 0
M  V30 1064 C 104.397 -2.33235 -0.111306 0
M  V30 1065 C 105.378 -1.46359 -0.866781 0
M  V30 1066 O 106.563 -1.75146 -0.838904 0
M  V30 1067 C 103.693 -3.28932 -1.11451 0
M  V30 1068 C 102.647 -4.25381 -0.472772 0
M  V30 1069 C 101.973 -5.1071 -1.58365 0
M  V30 1070 C 103.273 -5.18831 0.600948 0
M  V30 1071 H 104.967 -2.92927 0.61919 0
M  V30 1072 H 102.513 -1.40857 0.299215 0
M  V30 1073 H 104.466 -3.89002 -1.62036 0
M  V30 1074 H 103.19 -2.67381 -1.8755 0
M  V30 1075 H 101.849 -3.66598 0.0121472 0
M  V30 1076 H 101.497 -4.45533 -2.33473 0
M  V30 1077 H 101.197 -5.7604 -1.15982 0
M  V30 1078 H 102.721 -5.73647 -2.09194 0
M  V30 1079 H 104.135 -5.73019 0.179491 0
M  V30 1080 H 102.532 -5.92595 0.946076 0
M  V30 1081 H 103.602 -4.6174 1.48068 0
M  V30 1082 N 104.945 -0.338344 -1.53925 0
M  V30 1083 C 105.892 0.520845 -2.24846 0
M  V30 1084 C 106.862 1.09976 -1.24477 0
M  V30 1085 O 108.047 1.13735 -1.53196 0
M  V30 1086 C 105.187 1.6685 -3.02084 0
M  V30 1087 C 104.3 1.11739 -4.17299 0
M  V30 1088 C 103.435 2.23193 -4.82036 0
M  V30 1089 C 102.474 1.65407 -5.89328 0
M  V30 1090 N 101.611 2.70582 -6.47866 0
M  V30 1091 H 106.451 -0.0904881 -2.97863 0
M  V30 1092 H 103.988 -0.0564282 -1.46992 0
M  V30 1093 H 105.946 2.34407 -3.45122 0
M  V30 1094 H 104.576 2.2509 -2.31375 0
M  V30 1095 H 103.628 0.332919 -3.7894 0
M  V30 1096 H 104.94 0.654677 -4.94485 0
M  V30 1097 H 104.094 2.98626 -5.28117 0
M  V30 1098 H 102.833 2.72807 -4.04262 0
M  V30 1099 H 101.838 0.884779 -5.42634 0
M  V30 1100 H 103.063 1.16652 -6.69006 0
M  V30 1101 H 101.009 3.1946 -5.72959 0
M  V30 1102 H 100.926 2.28917 -7.20509 0
M  V30 1103 H 102.194 3.45799 -6.98601 0
M  V30 1104 N 106.423 1.57458 -0.0668435 0
M  V30 1105 C 107.7 1.8469 0.644132 0
M  V30 1106 C 108.08 0.958343 1.88093 0
M  V30 1107 O 107.428 0.0233579 2.28488 0
M  V30 1108 C 107.638 3.34767 0.986509 0
M  V30 1109 C 108.986 4.02159 1.36212 0
M  V30 1110 O 110.01 3.39484 1.07839 0
M  V30 1111 O 108.869 5.12694 1.89227 0
M  V30 1112 H 105.963 0.762816 0.319437 0
M  V30 1113 H 108.509 1.6942 -0.0973986 0
M  V30 1114 H 107.281 3.91151 0.107883 0
M  V30 1115 H 106.904 3.55281 1.78497 0
M  V30 1116 N 107.901 -0.206675 1.56239 0
M  V30 1117 C 109.178 -0.954051 1.70755 0
M  V30 1118 C 109.558 -2.01841 0.618353 0
M  V30 1119 O 108.906 -2.25444 -0.372434 0
M  V30 1120 C 109.116 -1.551 3.12642 0
M  V30 1121 C 110.464 -2.03757 3.72516 0
M  V30 1122 O 111.488 -1.64965 3.15698 0
M  V30 1123 O 110.347 -2.75103 4.72208 0
M  V30 1124 H 107.441 -0.446636 0.696021 0
M  V30 1125 H 109.987 -0.197283 1.68549 0
M  V30 1126 H 108.759 -0.783212 3.83382 0
M  V30 1127 H 108.382 -2.37291 3.19028 0
M  V30 1128 N 109.379 -1.50304 -0.473955 0
M  V30 1129 C 110.309 -1.71886 -1.58042 0
M  V30 1130 C 111.29 -0.567799 -1.60344 0
M  V30 1131 O 112.475 -0.806623 -1.76656 0
M  V30 1132 C 109.605 -1.81036 -2.96384 0
M  V30 1133 C 108.559 -2.962 -3.08949 0
M  V30 1134 C 107.885 -2.9049 -4.48909 0
M  V30 1135 C 109.185 -4.36752 -2.86434 0
M  V30 1136 H 110.879 -2.64527 -1.40234 0
M  V30 1137 H 108.425 -1.27295 -0.673201 0
M  V30 1138 H 110.378 -1.94719 -3.73714 0
M  V30 1139 H 109.102 -0.850147 -3.15341 0
M  V30 1140 H 107.761 -2.82164 -2.3405 0
M  V30 1141 H 107.409 -1.92321 -4.64781 0
M  V30 1142 H 107.109 -3.67802 -4.58253 0
M  V30 1143 H 108.633 -3.06218 -5.28264 0
M  V30 1144 H 110.047 -4.5133 -3.53517 0
M  V30 1145 H 108.444 -5.15493 -3.07225 0
M  V30 1146 H 109.514 -4.49321 -1.82316 0
M  V30 1147 N 110.857 0.726932 -1.39834 0
M  V30 1148 C 111.787 1.85405 -1.41941 0
M  V30 1149 C 112.768 1.67751 -0.281728 0
M  V30 1150 O 113.953 1.8795 -0.488717 0
M  V30 1151 C 111.083 3.23243 -1.2701 0
M  V30 1152 C 110.037 3.55549 -2.38262 0
M  V30 1153 C 109.363 4.9241 -2.08415 0
M  V30 1154 C 110.663 3.577 -3.80589 0
M  V30 1155 H 112.357 1.83899 -2.36266 0
M  V30 1156 H 109.903 0.883349 -1.13723 0
M  V30 1157 H 111.856 4.01775 -1.27103 0
M  V30 1158 H 110.58 3.25296 -0.291564 0
M  V30 1159 H 109.239 2.79351 -2.37399 0
M  V30 1160 H 108.887 4.91052 -1.0898 0
M  V30 1161 H 108.587 5.14992 -2.82943 0
M  V30 1162 H 110.111 5.73289 -2.10171 0
M  V30 1163 H 111.525 4.26293 -3.83337 0
M  V30 1164 H 109.922 3.91804 -4.54543 0
M  V30 1165 H 110.992 2.57328 -4.10987 0
M  V30 1166 N 112.336 1.25143 0.95797 0
M  V30 1167 C 113.566 1.12261 1.73439 0
M  V30 1168 C 113.974 -0.326715 1.86358 0
M  V30 1169 O 113.317 -1.2367 1.35836 0
M  V30 1170 C 113.379 1.69966 3.16784 0
M  V30 1171 C 113.043 3.18936 3.27305 0
M  V30 1172 C 114.04 4.15968 3.11877 0
M  V30 1173 C 111.725 3.59083 3.51234 0
M  V30 1174 C 113.719 5.51126 3.20217 0
M  V30 1175 C 111.406 4.9438 3.5921 0
M  V30 1176 C 112.404 5.90211 3.43716 0
M  V30 1177 O 112.092 7.23046 3.51368 0
M  V30 1178 H 111.824 0.392476 0.550399 0
M  V30 1179 H 114.378 1.65927 1.21068 0
M  V30 1180 H 112.608 1.10744 3.70503 0
M  V30 1181 H 114.297 1.52232 3.76272 0
M  V30 1182 H 115.063 3.86292 2.93264 0
M  V30 1183 H 110.942 2.84989 3.62356 0
M  V30 1184 H 114.486 6.25905 3.0804 0
M  V30 1185 H 110.383 5.23723 3.77339 0
M  V30 1186 H 111.151 7.31097 3.6802 0
M  V30 1187 N 113.814 -1.1601 1.06675 0
M  V30 1188 C 114.761 -2.20525 0.680967 0
M  V30 1189 C 115.731 -1.62904 -0.324283 0
M  V30 1190 O 116.916 -1.89615 -0.212294 0
M  V30 1191 C 114.056 -3.45013 0.0776551 0
M  V30 1192 C 113.169 -4.16863 1.13355 0
M  V30 1193 C 112.304 -5.2888 0.49597 0
M  V30 1194 C 111.343 -5.92537 1.53513 0
M  V30 1195 N 110.48 -6.96038 0.920631 0
M  V30 1196 H 115.32 -2.52876 1.57663 0
M  V30 1197 H 112.857 -1.24199 0.788223 0
M  V30 1198 H 114.815 -4.16193 -0.289704 0
M  V30 1199 H 113.445 -3.132 -0.781393 0
M  V30 1200 H 112.497 -3.44248 1.61857 0
M  V30 1201 H 113.809 -4.60294 1.92174 0
M  V30 1202 H 112.963 -6.06653 0.0758604 0
M  V30 1203 H 111.702 -4.86622 -0.324062 0
M  V30 1204 H 110.707 -5.13482 1.9651 0
M  V30 1205 H 111.932 -6.36873 2.35733 0
M  V30 1206 H 109.878 -6.55888 0.12138 0
M  V30 1207 H 109.795 -7.3786 1.64616 0
M  V30 1208 H 111.063 -7.77725 0.525795 0
M  V30 1209 N 115.292 -0.849877 -1.32721 0
M  V30 1210 C 116.24 -0.279745 -2.30912 0
M  V30 1211 C 117.234 0.594278 -1.58634 0
M  V30 1212 O 118.44 0.482613 -1.73409 0
M  V30 1213 H 114.815 -0.0717521 -0.748569 0
M  V30 1214 H 116.786 -1.12222 -2.76494 0
M  V30 1215 C 115.535 0.521108 -3.43773 0
M  V30 1216 H 114.858 -0.142141 -3.99547 0
M  V30 1217 H 116.298 0.885693 -4.14646 0
M  V30 1218 C 114.757 1.70442 -2.90605 0
M  V30 1219 O 115.287 2.8034 -2.87702 0
M  V30 1220 N 113.493 1.52991 -2.47067 0
M  V30 1221 H 113.04 0.635914 -2.49628 0
M  V30 1222 H 112.998 2.32311 -2.11847 0
M  V30 1223 N 116.77 1.45427 -0.607355 0
M  V30 1224 C 117.995 2.07124 -0.107006 0
M  V30 1225 C 118.42 1.44906 1.19933 0
M  V30 1226 O 117.778 0.541687 1.73019 0
M  V30 1227 C 117.826 3.60595 0.0194119 0
M  V30 1228 O 116.93 3.98285 1.0697 0
M  V30 1229 H 116.271 0.659868 -0.0739597 0
M  V30 1230 H 118.801 1.86683 -0.837297 0
M  V30 1231 H 118.811 4.07419 0.2177 0
M  V30 1232 H 117.486 4.05266 -0.934453 0
M  V30 1233 H 116.063 3.63133 0.847889 0
M  V30 1234 N 118.248 0.346503 1.53744 0
M  V30 1235 C 119.664 -0.00530975 1.59599 0
M  V30 1236 C 119.864 -1.48465 1.36236 0
M  V30 1237 O 118.92 -2.24376 1.15808 0
M  V30 1238 C 120.233 0.433516 2.97559 0
M  V30 1239 C 121.781 0.386111 3.10609 0
M  V30 1240 C 122.256 0.800451 4.50951 0
M  V30 1241 N 123.747 0.754753 4.5701 0
M  V30 1242 C 124.482 1.04727 5.63755 0
M  V30 1243 N 123.978 1.4081 6.7834 0
M  V30 1244 N 125.771 0.971316 5.53644 0
M  V30 1245 H 117.922 1.31009 1.67184 0
M  V30 1246 H 120.185 0.534242 0.783128 0
M  V30 1247 H 119.891 1.46509 3.19731 0
M  V30 1248 H 119.765 -0.189753 3.76722 0
M  V30 1249 H 122.152 -0.636295 2.88158 0
M  V30 1250 H 122.233 1.04462 2.33498 0
M  V30 1251 H 121.877 1.82088 4.74137 0
M  V30 1252 H 121.807 0.119386 5.26465 0
M  V30 1253 H 124.298 0.488662 3.74727 0
M  V30 1254 H 124.611 1.61607 7.55714 0
M  V30 1255 H 122.956 1.44657 6.79779 0
M  V30 1256 H 126.147 0.688748 4.63005 0
M  V30 1257 H 126.32 1.20263 6.36742 0
M  V30 1258 N 119.726 -1.57421 0.075193 0
M  V30 1259 C 120.656 -2.15942 -0.888324 0
M  V30 1260 C 121.637 -1.08737 -1.30806 0
M  V30 1261 O 122.822 -1.36787 -1.37851 0
M  V30 1262 C 119.952 -2.72379 -2.1547 0
M  V30 1263 C 118.906 -3.8478 -1.87425 0
M  V30 1264 C 118.232 -4.27834 -3.20721 0
M  V30 1265 C 119.532 -5.08869 -1.17684 0
M  V30 1266 H 121.226 -2.96705 -0.400799 0
M  V30 1267 H 118.772 -1.42723 -0.191342 0
M  V30 1268 H 120.725 -3.11965 -2.83295 0
M  V30 1269 H 119.449 -1.88841 -2.6647 0
M  V30 1270 H 118.108 -3.45703 -1.22004 0
M  V30 1271 H 117.756 -3.41214 -3.6957 0
M  V30 1272 H 117.456 -5.03605 -3.02746 0
M  V30 1273 H 118.98 -4.70039 -3.89738 0
M  V30 1274 H 120.394 -5.4575 -1.75584 0
M  V30 1275 H 118.791 -5.8994 -1.09956 0
M  V30 1276 H 119.861 -4.84648 -0.156453 0
M  V30 1277 N 121.204 0.198386 -1.56346 0
M  V30 1278 C 122.114 1.2664 -1.97483 0
M  V30 1279 C 123.13 1.49989 -0.882002 0
M  V30 1280 O 124.306 1.62668 -1.18748 0
M  V30 1281 C 121.371 2.59141 -2.30319 0
M  V30 1282 C 120.432 2.43892 -3.53292 0
M  V30 1283 C 119.665 3.70074 -3.84553 0
M  V30 1284 O 119.888 4.74101 -3.1715 0
M  V30 1285 O 118.822 3.658 -4.7799 0
M  V30 1286 H 122.648 0.947304 -2.88548 0
M  V30 1287 H 120.233 0.403123 -1.43859 0
M  V30 1288 H 122.115 3.37352 -2.5253 0
M  V30 1289 H 120.79 2.90684 -1.42423 0
M  V30 1290 H 119.697 1.63803 -3.36332 0
M  V30 1291 H 121.03 2.17282 -4.41644 0
M  V30 1292 N 122.682 1.50554 0.465978 0
M  V30 1293 C 123.63 1.70324 1.58406 0
M  V30 1294 C 124.624 0.569139 1.59553 0
M  V30 1295 O 125.83 0.749776 1.63641 0
M  V30 1296 H 122.205 0.537688 0.525734 0
M  V30 1297 H 124.176 2.64104 1.38894 0
M  V30 1298 C 122.925 1.81928 2.96307 0
M  V30 1299 H 122.248 2.68586 2.96144 0
M  V30 1300 H 123.688 1.99784 3.73982 0
M  V30 1301 C 122.147 0.572095 3.32007 0
M  V30 1302 O 122.677 -0.286416 4.00678 0
M  V30 1303 N 120.883 0.424606 2.87481 0
M  V30 1304 H 120.43 1.12427 2.31771 0
M  V30 1305 H 120.388 -0.408697 3.11732 0
M  V30 1306 N 124.16 -0.719506 1.40217 0
M  V30 1307 C 125.07 -1.86378 1.42479 0
M  V30 1308 C 126.086 -1.71073 0.317834 0
M  V30 1309 O 127.262 -1.93406 0.561794 0
M  V30 1310 C 124.327 -3.22136 1.28178 0
M  V30 1311 C 123.388 -3.49723 2.48982 0
M  V30 1312 C 122.621 -4.79004 2.35353 0
M  V30 1313 O 122.844 -5.53821 1.36524 0
M  V30 1314 O 121.778 -5.06839 3.2465 0
M  V30 1315 H 125.604 -1.87425 2.38968 0
M  V30 1316 H 123.189 -0.869405 1.21498 0
M  V30 1317 H 125.071 -4.03234 1.22395 0
M  V30 1318 H 123.746 -3.21825 0.347934 0
M  V30 1319 H 122.653 -2.6865 2.60342 0
M  V30 1320 H 123.986 -3.54828 3.41113 0
M  V30 1321 N 125.638 -1.25649 -0.95132 0
M  V30 1322 C 126.915 -1.01361 -1.67288 0
M  V30 1323 C 127.295 0.459135 -2.06046 0
M  V30 1324 O 126.643 1.43723 -1.7764 0
M  V30 1325 C 126.853 -1.95256 -2.89268 0
M  V30 1326 C 128.201 -2.23289 -3.61147 0
M  V30 1327 O 129.225 -1.93041 -2.99355 0
M  V30 1328 O 128.084 -2.74741 -4.72419 0
M  V30 1329 H 125.178 -0.38464 -0.732107 0
M  V30 1330 H 127.724 -1.36817 -1.00395 0
M  V30 1331 H 126.496 -2.94685 -2.57442 0
M  V30 1332 H 126.119 -1.60218 -3.6389 0
M  V30 1333 N 127.117 1.15442 -1.07289 0
M  V30 1334 C 128.364 1.86213 -0.795668 0
M  V30 1335 C 128.692 1.82291 0.678238 0
M  V30 1336 O 127.947 1.24057 1.51355 0
M  V30 1337 C 128.246 3.3489 -1.24834 0
M  V30 1338 C 127.912 3.59007 -2.72809 0
M  V30 1339 C 126.574 3.65298 -3.13227 0
M  V30 1340 C 128.926 3.68762 -3.68326 0
M  V30 1341 C 126.254 3.78854 -4.4798 0
M  V30 1342 C 128.606 3.83842 -5.0284 0
M  V30 1343 C 127.27 3.88378 -5.4288 0
M  V30 1344 H 126.54 0.681403 -0.291155 0
M  V30 1345 H 129.187 1.36435 -1.34379 0
M  V30 1346 H 127.492 3.8687 -0.619595 0
M  V30 1347 H 129.189 3.88052 -1.01076 0
M  V30 1348 H 125.779 3.5475 -2.40521 0
M  V30 1349 H 129.963 3.63202 -3.38227 0
M  V30 1350 H 125.219 3.80623 -4.78472 0
M  V30 1351 H 129.393 3.90332 -5.76727 0
M  V30 1352 H 127.02 3.98635 -6.47298 0
M  V30 1353 N 128.595 0.856903 1.32268 0
M  V30 1354 C 129.844 0.457599 1.96441 0
M  V30 1355 C 130.157 -0.992426 1.68553 0
M  V30 1356 O 131.363 -1.49727 2.26482 0
M  V30 1357 C 129.819 0.767358 3.51624 0
M  V30 1358 C 129.427 2.23326 3.88367 0
M  V30 1359 C 131.171 0.435887 4.22256 0
M  V30 1360 C 129.078 2.48613 5.36606 0
M  V30 1361 H 128.008 0.167387 0.735185 0
M  V30 1362 H 130.659 1.048 1.5063 0
M  V30 1363 H 129.041 0.106367 3.95857 0
M  V30 1364 H 130.215 2.93623 3.55137 0
M  V30 1365 H 128.53 2.52948 3.30766 0
M  V30 1366 H 131.127 0.602202 5.31298 0
M  V30 1367 H 131.47 -0.622672 4.11617 0
M  V30 1368 H 132.003 1.05286 3.83614 0
M  V30 1369 H 128.742 3.53101 5.52268 0
M  V30 1370 H 128.262 1.82896 5.71235 0
M  V30 1371 H 129.941 2.32676 6.03714 0
M  V30 1372 N 130.073 -1.45103 0.615059 0
M  V30 1373 C 131.319 -2.02483 0.113347 0
M  V30 1374 C 131.652 -1.48146 -1.25564 0
M  V30 1375 O 130.927 -0.659104 -1.82992 0
M  V30 1376 C 131.21 -3.60005 0.0825278 0
M  V30 1377 C 131.063 -4.2466 1.48271 0
M  V30 1378 C 132.382 -4.35972 -0.601401 0
M  V30 1379 H 129.501 -0.735764 0.0426632 0
M  V30 1380 H 132.143 -1.72868 0.788461 0
M  V30 1381 H 130.293 -3.85367 -0.492378 0
M  V30 1382 H 131.965 -4.10458 2.10527 0
M  V30 1383 H 130.208 -3.82772 2.04127 0
M  V30 1384 H 130.879 -5.336 1.41332 0
M  V30 1385 H 133.355 -4.15947 -0.112666 0
M  V30 1386 H 132.231 -5.45697 -0.592097 0
M  V30 1387 H 132.492 -4.09391 -1.66887 0
M  V30 1388 N 131.551 -0.354651 -1.53558 0
M  V30 1389 C 132.779 0.239515 -2.05509 0
M  V30 1390 C 133.194 1.4333 -1.2289 0
M  V30 1391 O 132.551 1.80538 -0.266899 0
M  V30 1392 C 132.602 0.643719 -3.55723 0
M  V30 1393 O 132.323 -0.502602 -4.35207 0
M  V30 1394 C 133.824 1.29743 -4.23889 0
M  V30 1395 H 131.044 0.0442697 -0.669538 0
M  V30 1396 H 133.588 -0.509856 -1.98042 0
M  V30 1397 H 131.743 1.34302 -3.63376 0
M  V30 1398 H 132.157 -0.178172 -5.24197 0
M  V30 1399 H 133.631 1.53091 -5.30346 0
M  V30 1400 H 134.108 2.25441 -3.76926 0
M  V30 1401 H 134.714 0.639865 -4.20459 0
M  V30 1402 N 133.029 1.57378 -0.0835403 0
M  V30 1403 C 134.277 1.93547 0.581718 0
M  V30 1404 C 134.598 0.96524 1.69435 0
M  V30 1405 O 133.868 0.0153369 1.95894 0
M  V30 1406 H 132.448 0.714521 0.217874 0
M  V30 1407 H 135.11 1.94366 -0.144158 0
M  V30 1408 H 134.206 2.95665 0.999423 0
M  V30 1409 N 134.507 -0.190092 1.56449 0
M  V30 1410 C 135.417 -1.25591 1.98152 0
M  V30 1411 C 136.433 -1.49519 0.889944 0
M  V30 1412 O 137.609 -1.62036 1.19609 0
M  V30 1413 C 134.674 -2.57916 2.3169 0
M  V30 1414 C 133.735 -2.42015 3.5458 0
M  V30 1415 C 132.968 -3.6803 3.8651 0
M  V30 1416 O 133.191 -4.72413 3.1966 0
M  V30 1417 O 132.125 -3.6326 4.79923 0
M  V30 1418 H 135.951 -0.931988 2.89046 0
M  V30 1419 H 133.536 -0.395488 1.4407 0
M  V30 1420 H 135.418 -3.36008 2.54316 0
M  V30 1421 H 134.093 -2.89925 1.43963 0
M  V30 1422 H 133 -1.62017 3.37196 0
M  V30 1423 H 134.333 -2.14937 4.4279 0
M  V30 1424 N 135.985 -1.50799 -0.457987 0
M  V30 1425 C 137.231 -1.62683 -1.21088 0
M  V30 1426 C 137.564 -0.332268 -1.91336 0
M  V30 1427 O 136.839 0.667043 -1.82704 0
M  V30 1428 C 137.122 -2.81615 -2.24422 0
M  V30 1429 C 136.975 -4.20989 -1.58392 0
M  V30 1430 C 138.294 -2.96085 -3.2561 0
M  V30 1431 H 135.413 -0.592087 -0.438864 0
M  V30 1432 H 138.055 -1.83225 -0.50286 0
M  V30 1433 H 136.205 -2.64231 -2.84806 0
M  V30 1434 H 137.877 -4.49994 -1.01504 0
M  V30 1435 H 136.12 -4.24641 -0.886704 0
M  V30 1436 H 136.791 -5.0016 -2.33547 0
M  V30 1437 H 139.267 -3.12042 -2.75262 0
M  V30 1438 H 138.143 -3.80902 -3.95228 0
M  V30 1439 H 138.404 -2.0726 -3.90507 0
M  V30 1440 N 137.463 0.71206 -1.40597 0
M  V30 1441 C 138.712 1.46754 -1.38369 0
M  V30 1442 C 139.025 1.95598 0.0097839 0
M  V30 1443 O 140.231 2.71059 0.154677 0
M  V30 1444 C 138.687 2.65289 -2.43207 0
M  V30 1445 C 138.295 2.23301 -3.88382 0
M  V30 1446 C 140.039 3.43008 -2.50091 0
M  V30 1447 C 137.946 3.38696 -4.84808 0
M  V30 1448 H 136.876 0.55118 -0.514506 0
M  V30 1449 H 139.527 0.774616 -1.66349 0
M  V30 1450 H 137.909 3.36769 -2.08332 0
M  V30 1451 H 139.083 1.59218 -4.32419 0
M  V30 1452 H 137.398 1.58618 -3.85006 0
M  V30 1453 H 139.995 4.28881 -3.1932 0
M  V30 1454 H 140.338 3.87065 -1.53253 0
M  V30 1455 H 140.871 2.78574 -2.83974 0
M  V30 1456 H 137.61 2.99668 -5.82992 0
M  V30 1457 H 137.13 4.01683 -4.45433 0
M  V30 1458 H 138.809 4.04712 -5.04794 0
M  V30 1459 N 138.941 1.26152 0.944643 0
M  V30 1460 C 140.188 1.11492 1.69044 0
M  V30 1461 C 140.516 -0.342366 1.91463 0
M  V30 1462 O 139.771 -1.26812 1.49054 0
M  V30 1463 C 140.07 1.82541 3.07268 0
M  V30 1464 C 139.736 3.32445 3.04616 0
M  V30 1465 C 138.398 3.73337 3.036 0
M  V30 1466 C 140.75 4.28171 2.97185 0
M  V30 1467 C 138.078 5.08348 2.92915 0
M  V30 1468 C 140.43 5.63218 2.88041 0
M  V30 1469 C 139.094 6.03426 2.85366 0
M  V30 1470 H 138.364 0.407977 0.618576 0
M  V30 1471 H 141.011 1.56551 1.10291 0
M  V30 1472 H 139.316 1.29941 3.69625 0
M  V30 1473 H 141.013 1.68642 3.63815 0
M  V30 1474 H 137.603 2.99915 3.06185 0
M  V30 1475 H 141.787 3.97563 2.97081 0
M  V30 1476 H 137.043 5.38667 2.89219 0
M  V30 1477 H 141.217 6.37078 2.81254 0
M  V30 1478 H 138.844 7.07999 2.76842 0
M  V30 1479 N 140.419 -1.14872 1.07899 0
M  V30 1480 C 141.367 -2.21857 0.698727 0
M  V30 1481 C 142.361 -1.66845 -0.293086 0
M  V30 1482 O 143.567 -1.79321 -0.156204 0
M  V30 1483 H 139.942 -0.722691 0.207899 0
M  V30 1484 H 141.913 -2.51205 1.61054 0
M  V30 1485 C 140.662 -3.47498 0.11858 0
M  V30 1486 H 139.985 -3.90154 0.872914 0
M  V30 1487 H 141.425 -4.23858 -0.109759 0
M  V30 1488 C 139.884 -3.16947 -1.1422 0
M  V30 1489 O 140.414 -3.3426 -2.22785 0
M  V30 1490 N 138.62 -2.70946 -1.05055 0
M  V30 1491 H 138.167 -2.57058 -0.167038 0
M  V30 1492 H 138.125 -2.50879 -1.89491 0
M  V30 1493 N 141.898 -0.863906 -1.31812 0
M  V30 1494 C 143.126 -0.486111 -2.01108 0
M  V30 1495 C 143.541 0.919755 -1.64882 0
M  V30 1496 O 142.898 1.60162 -0.874893 0
M  V30 1497 C 142.949 -0.626435 -3.56031 0
M  V30 1498 O 142.67 -1.97693 -3.90959 0
M  V30 1499 C 144.171 -0.248857 -4.42601 0
M  V30 1500 H 141.391 -0.190052 -0.643523 0
M  V30 1501 H 143.935 -1.1634 -1.68182 0
M  V30 1502 H 142.09 0.00322717 -3.874 0
M  V30 1503 H 142.504 -1.98034 -4.85678 0
M  V30 1504 H 143.978 -0.398016 -5.50563 0
M  V30 1505 H 144.455 0.811489 -4.31638 0
M  V30 1506 H 145.061 -0.853971 -4.16638 0
M  V30 1507 N 143.376 1.44774 -0.622745 0
M  V30 1508 C 144.339 2.29069 0.0774015 0
M  V30 1509 C 145.339 1.4059 0.780461 0
M  V30 1510 O 146.529 1.62551 0.626322 0
M  V30 1511 C 143.661 3.21974 1.12006 0
M  V30 1512 H 144.854 2.92459 -0.663901 0
M  V30 1513 H 142.407 1.51548 -0.382486 0
M  V30 1514 H 143.142 2.63417 1.89162 0
M  V30 1515 H 142.927 3.87168 0.619951 0
M  V30 1516 H 144.417 3.85318 1.60995 0
M  V30 1517 N 144.854 0.36279 1.53368 0
M  V30 1518 C 145.787 -0.528507 2.21996 0
M  V30 1519 C 146.765 -1.0852 1.21087 0
M  V30 1520 O 147.949 -1.14186 1.4998 0
M  V30 1521 C 145.076 -1.72893 2.91249 0
M  V30 1522 C 144.122 -1.29994 4.06207 0
M  V30 1523 S 144.955 -0.303575 5.34639 0
M  V30 1524 C 146.111 -1.51039 6.07403 0
M  V30 1525 H 146.344 0.0543423 2.9725 0
M  V30 1526 H 143.877 0.146889 1.537 0
M  V30 1527 H 145.835 -2.41751 3.31763 0
M  V30 1528 H 144.496 -2.28303 2.15724 0
M  V30 1529 H 143.689 -2.19549 4.53667 0
M  V30 1530 H 143.291 -0.690608 3.67569 0
M  V30 1531 H 145.583 -2.44186 6.31965 0
M  V30 1532 H 146.526 -1.07721 6.99858 0
M  V30 1533 H 146.934 -1.71518 5.37812 0
M  V30 1534 N 146.332 -1.57332 0.0918853 0
M  V30 1535 C 147.578 -1.94524 -0.573425 0
M  V30 1536 C 147.911 -0.973578 -1.68033 0
M  V30 1537 O 147.186 -0.00609226 -1.94499 0
M  V30 1538 C 147.469 -3.41858 -1.13161 0
M  V30 1539 C 147.322 -4.4979 -0.0299747 0
M  V30 1540 C 148.641 -3.90435 -2.03098 0
M  V30 1541 H 145.76 -0.70734 -0.206975 0
M  V30 1542 H 148.402 -1.89309 0.161942 0
M  V30 1543 H 146.552 -3.46433 -1.7583 0
M  V30 1544 H 148.224 -4.57327 0.604112 0
M  V30 1545 H 146.467 -4.291 0.636833 0
M  V30 1546 H 147.138 -5.50069 -0.461287 0
M  V30 1547 H 149.614 -3.87992 -1.50338 0
M  V30 1548 H 148.49 -4.94097 -2.39081 0
M  V30 1549 H 148.751 -3.29541 -2.94712 0
M  V30 1550 N 147.81 0.181792 -1.56548 0
M  V30 1551 C 149.058 0.89832 -1.81038 0
M  V30 1552 C 149.379 1.83232 -0.667164 0
M  V30 1553 O 148.649 1.93372 0.313673 0
M  V30 1554 H 147.229 0.33471 -0.667816 0
M  V30 1555 H 149.891 0.184116 -1.94028 0
M  V30 1556 H 148.987 1.4815 -2.74696 0
M  V30 1557 N 149.288 1.51039 0.449983 0
M  V30 1558 C 150.518 1.66627 1.22143 0
M  V30 1559 C 150.926 0.357776 1.85786 0
M  V30 1560 O 150.269 -0.672424 1.70951 0
M  V30 1561 C 150.331 2.71562 2.35573 0
M  V30 1562 C 149.995 4.14526 1.92399 0
M  V30 1563 C 150.992 4.99717 1.43453 0
M  V30 1564 C 148.677 4.60559 2.00475 0
M  V30 1565 C 150.671 6.28998 1.03155 0
M  V30 1566 C 148.358 5.8984 1.59788 0
M  V30 1567 C 149.356 6.73886 1.11208 0
M  V30 1568 O 149.044 8.0075 0.710935 0
M  V30 1569 H 148.776 0.562635 0.374724 0
M  V30 1570 H 151.33 1.98146 0.541036 0
M  V30 1571 H 149.56 2.3533 3.06849 0
M  V30 1572 H 151.249 2.76156 2.97478 0
M  V30 1573 H 152.015 4.65361 1.36618 0
M  V30 1574 H 147.894 3.95273 2.37235 0
M  V30 1575 H 151.438 6.9455 0.651663 0
M  V30 1576 H 147.335 6.23713 1.66289 0
M  V30 1577 H 148.103 8.142 0.837913 0
M  V30 1578 N 150.766 -0.704594 1.40972 0
M  V30 1579 C 152.177 -1.28418 1.3552 0
M  V30 1580 C 152.528 -1.96171 0.0339434 0
M  V30 1581 O 151.653 -1.98231 -0.867944 0
M  V30 1582 C 152.248 -2.33528 2.45459 0
M  V30 1583 C 150.807 -2.87085 2.43433 0
M  V30 1584 C 149.954 -1.61007 2.2577 0
M  V30 1585 H 152.905 -0.499963 1.50619 0
M  V30 1586 H 152.926 -3.14619 2.13998 0
M  V30 1587 H 152.438 -1.84187 3.41609 0
M  V30 1588 H 150.539 -3.40626 1.51013 0
M  V30 1589 H 150.652 -3.3813 3.39419 0
M  V30 1590 H 149.016 -1.86482 1.73483 0
M  V30 1591 H 149.799 -1.13675 3.23933 0
M  V30 1592 N 152.244 -1.26651 -0.937939 0
M  V30 1593 C 153.154 -1.10276 -2.07066 0
M  V30 1594 C 154.17 -0.0354197 -1.73964 0
M  V30 1595 O 155.346 -0.239816 -1.99967 0
M  V30 1596 C 152.411 -0.740887 -3.38691 0
M  V30 1597 C 151.472 -1.88799 -3.85556 0
M  V30 1598 C 150.705 -1.54329 -5.10899 0
M  V30 1599 O 150.928 -0.446494 -5.6865 0
M  V30 1600 O 149.862 -2.37911 -5.52885 0
M  V30 1601 H 153.688 -2.05309 -2.23789 0
M  V30 1602 H 151.273 -1.05743 -1.0554 0
M  V30 1603 H 153.155 -0.55195 -4.1777 0
M  V30 1604 H 151.83 0.180022 -3.23199 0
M  V30 1605 H 150.737 -2.13191 -3.07409 0
M  V30 1606 H 152.07 -2.78874 -4.05574 0
M  V30 1607 N 153.722 1.14298 -1.08507 0
M  V30 1608 C 154.685 2.17607 -0.719711 0
M  V30 1609 C 155.685 1.58907 0.245997 0
M  V30 1610 O 156.875 1.74181 0.0254081 0
M  V30 1611 C 154.007 3.40842 -0.0627695 0
M  V30 1612 H 155.2 2.51443 -1.63452 0
M  V30 1613 H 152.753 1.28963 -0.88307 0
M  V30 1614 H 153.488 3.12587 0.863716 0
M  V30 1615 H 153.273 3.84713 -0.757504 0
M  V30 1616 H 154.763 4.17221 0.177786 0
M  V30 1617 N 155.201 0.870884 1.31352 0
M  V30 1618 C 156.131 0.343096 2.30966 0
M  V30 1619 C 157.112 -0.566507 1.60389 0
M  V30 1620 O 158.297 -0.483336 1.88089 0
M  V30 1621 C 155.427 -0.455487 3.443 0
M  V30 1622 C 154.381 0.361103 4.26474 0
M  V30 1623 C 153.707 -0.563221 5.31725 0
M  V30 1624 C 155.007 1.59566 4.97329 0
M  V30 1625 H 156.701 1.17548 2.75359 0
M  V30 1626 H 154.247 0.566686 1.32381 0
M  V30 1627 H 156.2 -0.83525 4.13039 0
M  V30 1628 H 154.924 -1.32139 2.98675 0
M  V30 1629 H 153.583 0.722825 3.59403 0
M  V30 1630 H 153.231 -1.42643 4.82351 0
M  V30 1631 H 152.931 -0.0207409 5.87596 0
M  V30 1632 H 154.455 -0.939808 6.03324 0
M  V30 1633 H 155.869 1.28728 5.58661 0
M  V30 1634 H 154.266 2.07728 5.63 0
M  V30 1635 H 155.336 2.34798 4.24262 0
M  V30 1636 N 156.679 -1.44442 0.630414 0
M  V30 1637 C 157.907 -2.06414 0.141671 0
M  V30 1638 C 158.322 -1.47105 -1.18345 0
M  V30 1639 O 157.679 -0.593662 -1.72574 0
M  V30 1640 C 157.73 -3.61494 0.0199784 0
M  V30 1641 O 157.451 -4.18594 1.29269 0
M  V30 1642 C 158.952 -4.40499 -0.497544 0
M  V30 1643 H 156.172 -0.666292 0.0793452 0
M  V30 1644 H 158.716 -1.85323 0.864614 0
M  V30 1645 H 156.871 -3.8185 -0.653402 0
M  V30 1646 H 157.285 -5.12026 1.13707 0
M  V30 1647 H 158.759 -5.49433 -0.531708 0
M  V30 1648 H 159.236 -4.11895 -1.52445 0
M  V30 1649 H 159.842 -4.25061 0.142562 0
M  V30 1650 N 158.157 -0.370918 -1.53173 0
M  V30 1651 C 159.434 0.273754 -1.93675 0
M  V30 1652 C 159.814 1.65938 -1.3049 0
M  V30 1653 O 159.162 2.23698 -0.465999 0
M  V30 1654 C 159.372 0.318602 -3.47543 0
M  V30 1655 C 160.72 0.556392 -4.20939 0
M  V30 1656 O 161.744 0.399587 -3.53952 0
M  V30 1657 O 160.603 0.862133 -5.39657 0
M  V30 1658 H 157.697 0.165448 -0.810281 0
M  V30 1659 H 160.243 -0.42409 -1.64315 0
M  V30 1660 H 159.015 -0.652687 -3.85818 0
M  V30 1661 H 158.638 1.06212 -3.83151 0
M  V30 1662 N 159.635 1.57281 -0.100228 0
M  V30 1663 C 161.046 1.81725 0.428107 0
M  V30 1664 C 161.397 1.01619 1.67833 0
M  V30 1665 O 160.522 0.247098 2.14985 0
M  V30 1666 C 161.117 3.29617 0.78347 0
M  V30 1667 C 159.676 3.54808 1.25653 0
M  V30 1668 C 158.823 2.76118 0.255752 0
M  V30 1669 H 161.774 1.55324 -0.325608 0
M  V30 1670 H 161.795 3.4322 1.64256 0
M  V30 1671 H 161.307 3.87893 -0.12665 0
M  V30 1672 H 159.408 3.01868 2.18418 0
M  V30 1673 H 159.521 4.63443 1.21482 0
M  V30 1674 H 157.885 2.43745 0.738956 0
M  V30 1675 H 158.668 3.37145 -0.647136 0
M  V30 1676 N 161.113 -0.173488 1.56642 0
M  V30 1677 C 162.338 -0.910149 1.86363 0
M  V30 1678 C 162.763 -1.75132 0.686318 0
M  V30 1679 O 162.121 -1.77595 -0.364643 0
M  V30 1680 C 162.169 -1.76447 3.14482 0
M  V30 1681 O 161.273 -2.86584 2.96553 0
M  V30 1682 H 160.614 -0.255086 0.613047 0
M  V30 1683 H 163.144 -0.172283 2.03873 0
M  V30 1684 H 163.154 -2.16483 3.45831 0
M  V30 1685 H 161.829 -1.14658 3.99783 0
M  V30 1686 H 160.406 -2.50146 2.76553 0
M  V30 1687 N 162.591 -1.51276 -0.441967 0
M  V30 1688 C 163.821 -1.67273 -1.21257 0
M  V30 1689 C 164.229 -0.367624 -1.85594 0
M  V30 1690 O 163.572 0.663349 -1.71305 0
M  V30 1691 C 163.634 -2.72807 -2.34129 0
M  V30 1692 C 163.298 -4.1554 -1.90198 0
M  V30 1693 C 164.295 -5.00471 -1.40801 0
M  V30 1694 C 161.98 -4.61616 -1.9803 0
M  V30 1695 C 163.974 -6.29536 -0.998174 0
M  V30 1696 C 161.661 -5.90679 -1.56658 0
M  V30 1697 C 162.659 -6.74466 -1.07633 0
M  V30 1698 O 162.347 -8.01116 -0.668459 0
M  V30 1699 H 162.079 -0.564614 -0.371734 0
M  V30 1700 H 164.633 -1.9843 -0.530521 0
M  V30 1701 H 162.863 -2.36954 -3.05597 0
M  V30 1702 H 164.552 -2.77729 -2.96009 0
M  V30 1703 H 165.318 -4.66079 -1.34148 0
M  V30 1704 H 161.197 -3.96526 -2.35135 0
M  V30 1705 H 164.741 -6.94885 -0.61482 0
M  V30 1706 H 160.638 -6.24586 -1.62979 0
M  V30 1707 H 161.406 -8.14633 -0.794722 0
M  V30 1708 N 164.069 0.697108 -1.41344 0
M  V30 1709 C 165.316 1.45714 -1.40619 0
M  V30 1710 C 165.644 1.94494 -0.0147907 0
M  V30 1711 O 164.899 1.69794 0.973066 0
M  V30 1712 C 165.198 2.68553 -2.35826 0
M  V30 1713 C 164.864 2.38438 -3.82698 0
M  V30 1714 C 163.526 2.29936 -4.22709 0
M  V30 1715 C 165.878 2.13567 -4.75435 0
M  V30 1716 C 163.206 1.94656 -5.53467 0
M  V30 1717 C 165.558 1.79797 -6.06511 0
M  V30 1718 C 164.222 1.69789 -6.45545 0
M  V30 1719 H 163.492 0.533206 -0.51456 0
M  V30 1720 H 166.139 0.796901 -1.74131 0
M  V30 1721 H 164.444 3.39503 -1.95563 0
M  V30 1722 H 166.141 3.2669 -2.32539 0
M  V30 1723 H 162.731 2.4595 -3.51008 0
M  V30 1724 H 166.915 2.19082 -4.45328 0
M  V30 1725 H 162.171 1.8546 -5.82593 0
M  V30 1726 H 166.345 1.59572 -6.77872 0
M  V30 1727 H 163.972 1.4222 -7.46778 0
M  V30 1728 N 165.547 1.27147 0.931209 0
M  V30 1729 C 166.795 1.13055 1.6752 0
M  V30 1730 C 167.116 -0.324791 1.92276 0
M  V30 1731 O 166.386 -1.22775 1.52654 0
M  V30 1732 H 164.966 0.415391 0.620854 0
M  V30 1733 H 167.628 1.59623 1.11833 0
M  V30 1734 H 166.724 1.65694 2.64485 0
M  V30 1735 N 167.025 -1.13721 1.09112 0
M  V30 1736 C 167.957 -2.1871 0.685467 0
M  V30 1737 C 168.97 -1.60527 -0.271068 0
M  V30 1738 O 170.159 -1.78407 -0.0576148 0
M  V30 1739 C 167.259 -3.38898 -0.0111255 0
M  V30 1740 C 166.432 -4.26597 0.966131 0
M  V30 1741 C 165.491 -5.25324 0.303539 0
M  V30 1742 O 164.517 -5.61213 0.950177 0
M  V30 1743 N 165.719 -5.72779 -0.943651 0
M  V30 1744 H 168.484 -2.54126 1.58871 0
M  V30 1745 H 166.045 -1.29012 0.978143 0
M  V30 1746 H 168.037 -4.02014 -0.465517 0
M  V30 1747 H 166.607 -3.01747 -0.816565 0
M  V30 1748 H 165.827 -3.60306 1.59917 0
M  V30 1749 H 167.115 -4.82048 1.6281 0
M  V30 1750 H 166.513 -5.45762 -1.48862 0
M  V30 1751 H 165.07 -6.37847 -1.34142 0
M  V30 1752 N 168.503 -0.877838 -1.30888 0
M  V30 1753 C 169.752 -0.488793 -1.95688 0
M  V30 1754 C 170.065 0.965485 -1.70111 0
M  V30 1755 O 171.271 1.46104 -2.28836 0
M  V30 1756 C 169.727 -0.823201 -3.50359 0
M  V30 1757 C 169.335 -2.29477 -3.84765 0
M  V30 1758 C 171.079 -0.503009 -4.21509 0
M  V30 1759 C 168.986 -2.57118 -5.32583 0
M  V30 1760 H 167.916 -0.179062 -0.732429 0
M  V30 1761 H 170.567 -1.07183 -1.48943 0
M  V30 1762 H 168.949 -0.169331 -3.95638 0
M  V30 1763 H 170.123 -2.99236 -3.5042 0
M  V30 1764 H 168.438 -2.58178 -3.267 0
M  V30 1765 H 171.035 -0.68665 -5.30273 0
M  V30 1766 H 171.378 0.557109 -4.12555 0
M  V30 1767 H 171.911 -1.11376 -3.8189 0
M  V30 1768 H 168.65 -3.61843 -5.4658 0
M  V30 1769 H 168.17 -1.91961 -5.68253 0
M  V30 1770 H 169.849 -2.42251 -5.99936 0
M  V30 1771 N 169.982 1.44106 -0.638065 0
M  V30 1772 C 170.912 2.33448 0.0494287 0
M  V30 1773 C 171.893 1.48606 0.827672 0
M  V30 1774 O 173.078 1.77308 0.792173 0
M  V30 1775 C 170.208 3.31771 1.02691 0
M  V30 1776 C 169.162 4.26485 0.359823 0
M  V30 1777 C 168.488 5.14729 1.44769 0
M  V30 1778 C 169.788 5.17056 -0.738296 0
M  V30 1779 H 171.482 2.91183 -0.696636 0
M  V30 1780 H 169.028 1.40014 -0.336456 0
M  V30 1781 H 170.981 3.93161 1.51666 0
M  V30 1782 H 169.705 2.7226 1.80395 0
M  V30 1783 H 168.364 3.66437 -0.10934 0
M  V30 1784 H 168.012 4.51566 2.21578 0
M  V30 1785 H 167.712 5.78913 1.00668 0
M  V30 1786 H 169.236 5.78991 1.93911 0
M  V30 1787 H 170.65 5.72342 -0.331354 0
M  V30 1788 H 169.047 5.89879 -1.10286 0
M  V30 1789 H 170.117 4.57652 -1.60258 0
M  V30 1790 N 171.46 0.379036 1.52974 0
M  V30 1791 C 172.706 -0.206727 2.01744 0
M  V30 1792 C 173.039 -1.47314 1.26539 0
M  V30 1793 O 172.314 -1.91084 0.362903 0
M  V30 1794 C 172.597 -0.485066 3.56818 0
M  V30 1795 C 172.45 0.795919 4.42702 0
M  V30 1796 C 173.769 -1.28003 4.21074 0
M  V30 1797 H 170.888 -0.0736607 0.73331 0
M  V30 1798 H 173.53 0.506581 1.83122 0
M  V30 1799 H 171.68 -1.09272 3.72816 0
M  V30 1800 H 173.352 1.43307 4.38476 0
M  V30 1801 H 171.595 1.41344 4.10127 0
M  V30 1802 H 172.266 0.555947 5.49193 0
M  V30 1803 H 174.742 -0.765867 4.08991 0
M  V30 1804 H 173.618 -1.44352 5.29579 0
M  V30 1805 H 173.879 -2.29236 3.78026 0
M  V30 1806 N 172.938 -1.57226 0.108567 0
M  V30 1807 C 173.868 -2.17778 -0.84232 0
M  V30 1808 C 174.849 -1.11487 -1.2847 0
M  V30 1809 O 176.034 -1.39681 -1.34918 0
M  V30 1810 C 173.164 -2.76888 -2.09644 0
M  V30 1811 C 172.118 -3.88669 -1.79221 0
M  V30 1812 C 171.444 -4.34541 -3.11574 0
M  V30 1813 C 172.744 -5.11251 -1.06864 0
M  V30 1814 H 174.438 -2.97489 -0.337774 0
M  V30 1815 H 171.984 -1.43097 -0.161025 0
M  V30 1816 H 173.937 -3.17904 -2.76614 0
M  V30 1817 H 172.661 -1.94451 -2.62405 0
M  V30 1818 H 171.32 -3.48213 -1.14644 0
M  V30 1819 H 170.968 -3.48977 -3.62249 0
M  V30 1820 H 170.668 -5.09914 -2.91996 0
M  V30 1821 H 172.192 -4.782 -3.7968 0
M  V30 1822 H 173.606 -5.49352 -1.63968 0
M  V30 1823 H 172.003 -5.9214 -0.974178 0
M  V30 1824 H 173.073 -4.8487 -0.0536168 0
M  V30 1825 N 174.416 0.165178 -1.56732 0
M  V30 1826 C 175.644 0.896218 -1.86482 0
M  V30 1827 C 176.059 1.75555 -0.694675 0
M  V30 1828 O 175.416 1.79379 0.33607 0
M  V30 1829 C 175.467 1.76792 -3.1532 0
M  V30 1830 O 175.188 0.943239 -4.27825 0
M  V30 1831 C 176.689 2.6081 -3.58459 0
M  V30 1832 H 173.909 0.260064 -0.618553 0
M  V30 1833 H 176.453 0.163428 -2.03846 0
M  V30 1834 H 174.608 2.45398 -2.99764 0
M  V30 1835 H 175.022 1.53998 -5.01383 0
M  V30 1836 H 176.496 3.17579 -4.51495 0
M  V30 1837 H 176.973 3.35977 -2.82872 0
M  V30 1838 H 177.579 1.97526 -3.76648 0
M  V30 1839 N 175.894 1.51508 0.433938 0
M  V30 1840 C 177.141 1.64345 1.18309 0
M  V30 1841 C 177.469 0.361315 1.91115 0
M  V30 1842 O 176.724 -0.654753 1.84422 0
M  V30 1843 C 177.023 2.79928 2.22205 0
M  V30 1844 C 176.689 4.19078 1.66387 0
M  V30 1845 C 175.351 4.56932 1.50887 0
M  V30 1846 C 177.703 5.05894 1.25381 0
M  V30 1847 C 175.031 5.79305 0.928608 0
M  V30 1848 C 177.383 6.2885 0.687823 0
M  V30 1849 C 176.047 6.65473 0.519755 0
M  V30 1850 H 175.317 0.601381 0.432923 0
M  V30 1851 H 177.964 1.85549 0.473676 0
M  V30 1852 H 176.269 2.52959 2.99197 0
M  V30 1853 H 177.966 2.87059 2.79997 0
M  V30 1854 H 174.556 3.89234 1.79428 0
M  V30 1855 H 178.74 4.77253 1.36175 0
M  V30 1856 H 173.996 6.06324 0.786186 0
M  V30 1857 H 178.17 6.95461 0.361581 0
M  V30 1858 H 175.797 7.6017 0.0679979 0
M  V30 1859 N 177.372 -0.689602 1.41712 0
M  V30 1860 C 178.783 -1.26973 1.36875 0
M  V30 1861 C 179.134 -1.96124 0.054748 0
M  V30 1862 O 178.259 -1.99141 -0.84687 0
M  V30 1863 C 178.854 -2.30912 2.47922 0
M  V30 1864 C 177.413 -2.84486 2.46464 0
M  V30 1865 C 176.56 -1.58603 2.27465 0
M  V30 1866 H 179.511 -0.48396 1.51141 0
M  V30 1867 H 179.532 -3.12331 2.17323 0
M  V30 1868 H 179.044 -1.80554 3.43543 0
M  V30 1869 H 177.145 -3.39005 1.54617 0
M  V30 1870 H 177.258 -3.34511 3.42986 0
M  V30 1871 H 175.622 -1.84632 1.75451 0
M  V30 1872 H 176.405 -1.10233 3.25121 0
M  V30 1873 N 178.85 -1.27639 -0.924453 0
M  V30 1874 C 180.075 -1.17101 -1.71179 0
M  V30 1875 C 180.5 0.268134 -1.86179 0
M  V30 1876 O 179.858 1.19415 -1.36418 0
M  V30 1877 C 179.906 -1.86313 -3.08739 0
M  V30 1878 O 179.01 -1.16331 -3.95652 0
M  V30 1879 H 178.351 -0.407091 -0.524569 0
M  V30 1880 H 180.881 -1.68767 -1.15666 0
M  V30 1881 H 180.891 -1.938 -3.59034 0
M  V30 1882 H 179.566 -2.91001 -2.97138 0
M  V30 1883 H 178.143 -1.16935 -3.54091 0
M  V30 1884 N 180.328 1.1314 -1.09713 0
M  V30 1885 C 181.577 1.83838 -0.829851 0
M  V30 1886 C 181.89 1.84599 0.646728 0
M  V30 1887 O 183.096 2.51218 1.02965 0
M  V30 1888 C 181.552 3.30069 -1.43466 0
M  V30 1889 C 181.16 3.37688 -2.94399 0
M  V30 1890 C 182.904 4.05788 -1.24645 0
M  V30 1891 C 180.811 4.78209 -3.47952 0
M  V30 1892 H 179.741 0.68877 -0.306777 0
M  V30 1893 H 182.392 1.27448 -1.3202 0
M  V30 1894 H 180.774 3.8628 -0.871996 0
M  V30 1895 H 181.948 2.91456 -3.56918 0
M  V30 1896 H 180.263 2.75436 -3.12289 0
M  V30 1897 H 182.86 5.09535 -1.62107 0
M  V30 1898 H 183.203 4.15878 -0.187357 0
M  V30 1899 H 183.736 3.55915 -1.77678 0
M  V30 1900 H 180.475 4.73311 -4.53495 0
M  V30 1901 H 179.995 5.24924 -2.90198 0
M  V30 1902 H 181.674 5.47133 -3.45332 0
M  V30 1903 N 181.806 0.884767 1.30421 0
M  V30 1904 C 183.054 0.502112 1.95763 0
M  V30 1905 C 183.375 -0.951815 1.70192 0
M  V30 1906 O 182.645 -1.6692 1.0254 0
M  V30 1907 H 181.225 0.182694 0.724315 0
M  V30 1908 H 183.887 1.1278 1.58955 0
M  V30 1909 H 182.983 0.672188 3.04775 0
M  V30 1910 N 183.284 -1.43765 0.645699 0
M  V30 1911 C 184.232 -2.32516 -0.0624849 0
M  V30 1912 C 185.226 -1.48183 -0.820855 0
M  V30 1913 O 186.432 -1.64439 -0.732106 0
M  V30 1914 H 182.807 -0.750989 -0.0389864 0
M  V30 1915 H 184.778 -2.89979 0.703892 0
M  V30 1916 C 183.527 -3.32389 -1.02044 0
M  V30 1917 H 182.85 -3.97301 -0.446312 0
M  V30 1918 H 184.29 -3.97138 -1.48517 0
M  V30 1919 C 182.749 -2.62416 -2.11281 0
M  V30 1920 O 183.279 -2.434 -3.19561 0
M  V30 1921 N 181.485 -2.21913 -1.87624 0
M  V30 1922 H 181.032 -2.37578 -0.995703 0
M  V30 1923 H 180.99 -1.75424 -2.6091 0
M  V30 1924 N 184.763 -0.387143 -1.52771 0
M  V30 1925 C 185.993 0.195585 -2.05672 0
M  V30 1926 C 186.401 1.41241 -1.25887 0
M  V30 1927 O 185.744 1.81265 -0.298081 0
M  V30 1928 C 185.806 0.632327 -3.53895 0
M  V30 1929 C 185.47 -0.470739 -4.54569 0
M  V30 1930 C 186.467 -1.32746 -5.02667 0
M  V30 1931 C 184.152 -0.637151 -4.98243 0
M  V30 1932 C 186.146 -2.33574 -5.93061 0
M  V30 1933 C 183.833 -1.64877 -5.88438 0
M  V30 1934 C 184.831 -2.49649 -6.35739 0
M  V30 1935 O 184.519 -3.49082 -7.24153 0
M  V30 1936 H 184.251 0.033658 -0.675162 0
M  V30 1937 H 186.805 -0.550221 -1.97893 0
M  V30 1938 H 185.035 1.43008 -3.59285 0
M  V30 1939 H 186.724 1.14048 -3.89548 0
M  V30 1940 H 187.49 -1.21019 -4.69659 0
M  V30 1941 H 183.369 0.0129567 -4.60998 0
M  V30 1942 H 186.913 -2.99777 -6.29904 0
M  V30 1943 H 182.81 -1.76643 -6.2086 0
M  V30 1944 H 183.578 -3.45065 -7.42208 0
M  V30 1945 N 186.241 1.57166 -0.116904 0
M  V30 1946 C 187.489 1.94737 0.540533 0
M  V30 1947 C 187.81 1.00096 1.67349 0
M  V30 1948 O 187.08 0.0568854 1.95817 0
M  V30 1949 H 185.66 0.718981 0.202669 0
M  V30 1950 H 188.322 1.94017 -0.185353 0
M  V30 1951 H 187.418 2.97719 0.936483 0
M  V30 1952 N 187.719 -0.156864 1.56817 0
M  V30 1953 C 188.968 -0.869504 1.81996 0
M  V30 1954 C 189.281 -1.82777 0.696545 0
M  V30 1955 O 190.487 -2.58384 0.833658 0
M  V30 1956 C 188.943 -1.59679 3.22538 0
M  V30 1957 C 188.551 -0.681431 4.42787 0
M  V30 1958 C 190.295 -2.2968 3.56997 0
M  V30 1959 C 188.202 -1.40978 5.74351 0
M  V30 1960 H 187.132 -0.328438 0.678708 0
M  V30 1961 H 189.783 -0.1223 1.83092 0
M  V30 1962 H 188.165 -2.38927 3.158 0
M  V30 1963 H 189.339 0.0751166 4.60739 0
M  V30 1964 H 187.654 -0.0903431 4.16302 0
M  V30 1965 H 190.251 -2.84794 4.52544 0
M  V30 1966 H 190.594 -3.05707 2.82576 0
M  V30 1967 H 191.127 -1.57361 3.65352 0
M  V30 1968 H 187.866 -0.691561 6.51842 0
M  V30 1969 H 187.386 -2.13929 5.60352 0
M  V30 1970 H 189.065 -1.95337 6.16808 0
M  V30 1971 N 189.197 -1.51736 -0.425897 0
M  V30 1972 C 190.107 -1.76738 -1.54275 0
M  V30 1973 C 191.123 -0.65211 -1.61318 0
M  V30 1974 O 192.299 -0.935654 -1.78346 0
M  V30 1975 C 189.364 -1.89755 -2.90162 0
M  V30 1976 C 188.425 -3.13633 -2.93143 0
M  V30 1977 C 187.658 -3.2602 -4.22548 0
M  V30 1978 O 187.881 -2.44067 -5.15546 0
M  V30 1979 O 186.815 -4.19071 -4.32046 0
M  V30 1980 H 190.641 -2.71502 -1.36089 0
M  V30 1981 H 188.226 -1.36376 -0.610069 0
M  V30 1982 H 190.108 -2.00236 -3.70788 0
M  V30 1983 H 188.783 -0.981785 -3.08452 0
M  V30 1984 H 187.69 -3.08622 -2.11431 0
M  V30 1985 H 189.023 -4.04936 -2.798 0
M  V30 1986 N 190.675 0.682077 -1.42076 0
M  V30 1987 C 191.622 1.79578 -1.44984 0
M  V30 1988 C 192.592 1.6332 -0.302614 0
M  V30 1989 O 193.777 1.83978 -0.505633 0
M  V30 1990 C 190.917 3.1756 -1.35091 0
M  V30 1991 C 190.03 3.45156 -2.59791 0
M  V30 1992 C 189.165 4.72826 -2.42093 0
M  V30 1993 C 188.204 4.93433 -3.62202 0
M  V30 1994 N 187.341 6.12338 -3.43491 0
M  V30 1995 H 192.181 1.76427 -2.40161 0
M  V30 1996 H 189.718 0.861376 -1.19242 0
M  V30 1997 H 191.676 3.97287 -1.27354 0
M  V30 1998 H 190.306 3.19854 -0.435133 0
M  V30 1999 H 189.358 2.59736 -2.77923 0
M  V30 2000 H 190.67 3.5628 -3.49094 0
M  V30 2001 H 189.824 5.60631 -2.319 0
M  V30 2002 H 188.563 4.63973 -1.50268 0
M  V30 2003 H 187.568 4.04073 -3.72834 0
M  V30 2004 H 188.793 5.04136 -4.54998 0
M  V30 2005 H 186.739 6.04672 -2.54377 0
M  V30 2006 H 186.656 6.2429 -4.26377 0
M  V30 2007 H 187.924 7.02841 -3.37097 0
M  V30 2008 N 192.153 1.28127 0.917671 0
M  V30 2009 C 193.399 1.15223 1.66888 0
M  V30 2010 C 193.732 -0.299293 1.9188 0
M  V30 2011 O 193.007 -1.21805 1.51637 0
M  V30 2012 C 193.29 1.94706 3.02922 0
M  V30 2013 C 193.143 3.47898 2.85109 0
M  V30 2014 C 194.462 1.75939 4.03402 0
M  V30 2015 H 191.581 0.419946 0.605652 0
M  V30 2016 H 194.223 1.57398 1.06423 0
M  V30 2017 H 192.373 1.58864 3.54534 0
M  V30 2018 H 194.045 3.93624 2.40537 0
M  V30 2019 H 192.288 3.7373 2.20246 0
M  V30 2020 H 192.959 3.98765 3.81694 0
M  V30 2021 H 195.435 2.07209 3.60837 0
M  V30 2022 H 194.311 2.33931 4.96556 0
M  V30 2023 H 194.572 0.709877 4.36364 0
M  V30 2024 N 193.631 -1.12557 1.10312 0
M  V30 2025 C 194.578 -2.18247 0.750781 0
M  V30 2026 C 195.548 -1.63853 -0.272293 0
M  V30 2027 O 196.733 -1.90195 -0.151862 0
M  V30 2028 C 193.873 -3.44591 0.187379 0
M  V30 2029 C 192.986 -4.13046 1.2656 0
M  V30 2030 C 192.121 -5.27034 0.663978 0
M  V30 2031 C 191.16 -5.87353 1.72287 0
M  V30 2032 N 190.297 -6.92757 1.1416 0
M  V30 2033 H 195.137 -2.47732 1.65628 0
M  V30 2034 H 192.674 -1.21629 0.827337 0
M  V30 2035 H 194.632 -4.16904 -0.157148 0
M  V30 2036 H 193.262 -3.15527 -0.681355 0
M  V30 2037 H 192.314 -3.38924 1.72727 0
M  V30 2038 H 193.626 -4.53947 2.06721 0
M  V30 2039 H 192.78 -6.06104 0.268824 0
M  V30 2040 H 191.519 -4.87407 -0.169082 0
M  V30 2041 H 190.524 -5.06971 2.12746 0
M  V30 2042 H 191.749 -6.29051 2.55875 0
M  V30 2043 H 189.695 -6.5517 0.329984 0
M  V30 2044 H 189.612 -7.3225 1.88007 0
M  V30 2045 H 190.88 -7.75658 0.772956 0
M  V30 2046 N 195.109 -0.891671 -1.2995 0
M  V30 2047 C 196.059 -0.334811 -2.25528 0
M  V30 2048 C 197.043 0.540553 -1.51548 0
M  V30 2049 O 198.235 0.383882 -1.72787 0
M  V30 2050 C 195.364 0.44374 -3.4042 0
M  V30 2051 C 194.45 -0.44609 -4.21747 0
M  V30 2052 N 194.841 -1.54963 -4.81477 0
M  V30 2053 C 193.139 -0.242415 -4.45341 0
M  V30 2054 C 193.84 -2.10015 -5.42465 0
M  V30 2055 N 192.816 -1.39423 -5.25416 0
M  V30 2056 H 196.618 -1.17792 -2.69262 0
M  V30 2057 H 194.132 -0.741822 -1.44467 0
M  V30 2058 H 196.129 0.859362 -4.07947 0
M  V30 2059 H 194.789 1.28421 -2.98225 0
M  V30 2060 H 195.8 -1.93244 -4.80497 0
M  V30 2061 H 192.477 0.560342 -4.13723 0
M  V30 2062 H 193.867 -3.02724 -5.9984 0
M  V30 2063 N 196.587 1.43421 -0.653314 0
M  V30 2064 C 197.864 1.95361 -0.0966581 0
M  V30 2065 C 198.244 1.59461 1.38331 0
M  V30 2066 O 197.592 0.879777 2.10884 0
M  V30 2067 C 197.802 3.47311 -0.342988 0
M  V30 2068 C 199.15 4.23875 -0.24798 0
M  V30 2069 O 200.174 3.55133 -0.275553 0
M  V30 2070 O 199.033 5.4623 -0.171771 0
M  V30 2071 H 196.127 0.826945 0.00956291 0
M  V30 2072 H 198.673 1.5336 -0.726558 0
M  V30 2073 H 197.445 3.66569 -1.36906 0
M  V30 2074 H 197.068 3.9631 0.319975 0
M  V30 2075 N 198.065 0.39524 1.52563 0
M  V30 2076 C 198.975 -0.444232 2.30356 0
M  V30 2077 C 199.991 -1.06615 1.37511 0
M  V30 2078 O 201.167 -1.07067 1.70583 0
M  V30 2079 C 198.232 -1.55315 3.09964 0
M  V30 2080 C 197.293 -0.955734 4.18526 0
M  V30 2081 C 196.526 -2.01181 4.9433 0
M  V30 2082 O 196.749 -3.22781 4.70285 0
M  V30 2083 O 195.683 -1.62579 5.79527 0
M  V30 2084 H 199.509 0.189667 3.03107 0
M  V30 2085 H 197.094 0.1588 1.48554 0
M  V30 2086 H 198.976 -2.19724 3.59582 0
M  V30 2087 H 197.651 -2.17191 2.4002 0
M  V30 2088 H 196.558 -0.274743 3.7309 0
M  V30 2089 H 197.891 -0.381109 4.90722 0
M  V30 2090 N 199.544 -1.57102 0.125237 0
M  V30 2091 C 200.772 -1.99761 -0.538797 0
M  V30 2092 C 201.187 -1.00503 -1.59827 0
M  V30 2093 O 200.544 0.00119474 -1.825 0
M  V30 2094 C 200.595 -3.42408 -1.15927 0
M  V30 2095 O 200.316 -4.37869 -0.142143 0
M  V30 2096 C 201.817 -4.00232 -1.90602 0
M  V30 2097 H 199.037 -0.655772 -0.14214 0
M  V30 2098 H 201.581 -2.03383 0.213413 0
M  V30 2099 H 199.736 -3.39706 -1.86223 0
M  V30 2100 H 200.15 -5.21128 -0.593775 0
M  V30 2101 H 201.624 -5.02105 -2.29335 0
M  V30 2102 H 202.101 -3.39721 -2.78363 0
M  V30 2103 H 202.707 -4.06499 -1.25055 0
M  V30 2104 N 201.022 0.148545 -1.56898 0
M  V30 2105 C 202.269 0.861418 -1.83264 0
M  V30 2106 C 202.597 1.81239 -0.705883 0
M  V30 2107 O 201.852 1.93305 0.305212 0
M  V30 2108 C 202.151 1.67064 -3.1595 0
M  V30 2109 C 201.817 0.866591 -4.42494 0
M  V30 2110 C 200.479 0.644762 -4.76861 0
M  V30 2111 C 202.831 0.30418 -5.20312 0
M  V30 2112 C 200.159 -0.15021 -5.86508 0
M  V30 2113 C 202.511 -0.477824 -6.30793 0
M  V30 2114 C 201.175 -0.710244 -6.63711 0
M  V30 2115 H 200.445 0.315215 -0.670612 0
M  V30 2116 H 203.092 0.125142 -1.91091 0
M  V30 2117 H 201.397 2.47698 -3.03567 0
M  V30 2118 H 203.094 2.22566 -3.33565 0
M  V30 2119 H 199.684 1.04955 -4.15551 0
M  V30 2120 H 203.868 0.462844 -4.94137 0
M  V30 2121 H 199.124 -0.339796 -6.10455 0
M  V30 2122 H 203.298 -0.92076 -6.90286 0
M  V30 2123 H 200.925 -1.3281 -7.48509 0
M  V30 2124 N 202.5 1.5196 0.417844 0
M  V30 2125 C 203.748 1.65263 1.16329 0
M  V30 2126 C 204.069 0.380634 1.91249 0
M  V30 2127 O 203.339 -0.604214 1.86349 0
M  V30 2128 H 201.919 0.60912 0.432414 0
M  V30 2129 H 204.581 1.88969 0.477162 0
M  V30 2130 H 203.677 2.4896 1.88217 0
M  V30 2131 N 203.978 -0.674533 1.42435 0
M  V30 2132 C 204.908 -1.80009 1.48724 0
M  V30 2133 C 205.889 -1.6659 0.343793 0
M  V30 2134 O 207.074 -1.86007 0.558137 0
M  V30 2135 C 204.204 -3.18306 1.38919 0
M  V30 2136 C 203.158 -3.46461 2.51294 0
M  V30 2137 C 202.484 -4.84335 2.26547 0
M  V30 2138 C 203.784 -3.43328 3.93603 0
M  V30 2139 H 205.478 -1.75004 2.42928 0
M  V30 2140 H 203.024 -0.840533 1.16923 0
M  V30 2141 H 204.977 -3.9678 1.41927 0
M  V30 2142 H 203.701 -3.2399 0.412094 0
M  V30 2143 H 202.36 -2.70348 2.47604 0
M  V30 2144 H 202.008 -4.86669 1.2713 0
M  V30 2145 H 201.708 -5.04136 3.01861 0
M  V30 2146 H 203.232 -5.65094 2.31304 0
M  V30 2147 H 204.646 -4.11772 3.98894 0
M  V30 2148 H 203.043 -3.74664 4.68771 0
M  V30 2149 H 204.113 -2.41897 4.20255 0
M  V30 2150 N 205.456 -1.28612 -0.910864 0
M  V30 2151 C 206.702 -1.16106 -1.66274 0
M  V30 2152 C 207.035 0.289113 -1.92036 0
M  V30 2153 O 206.31 1.21 -1.52281 0
M  V30 2154 C 206.593 -1.96309 -3.01885 0
M  V30 2155 C 206.446 -3.49405 -2.8326 0
M  V30 2156 C 207.765 -1.78076 -4.02463 0
M  V30 2157 H 204.884 -0.423152 -0.603417 0
M  V30 2158 H 207.526 -1.57961 -1.05586 0
M  V30 2159 H 205.676 -1.60742 -3.53687 0
M  V30 2160 H 207.348 -3.94894 -2.38446 0
M  V30 2161 H 205.591 -3.74893 -2.18261 0
M  V30 2162 H 206.262 -4.00784 -3.79574 0
M  V30 2163 H 208.738 -2.0912 -3.59733 0
M  V30 2164 H 207.614 -2.36561 -4.95308 0
M  V30 2165 H 207.875 -0.733008 -4.35981 0
M  V30 2166 N 206.934 1.1197 -1.10907 0
M  V30 2167 C 207.866 2.17592 -0.720175 0
M  V30 2168 C 208.879 1.60938 0.245495 0
M  V30 2169 O 210.068 1.78476 0.0292245 0
M  V30 2170 C 207.168 3.38873 -0.0427917 0
M  V30 2171 C 206.341 4.25006 -1.03388 0
M  V30 2172 C 205.4 5.24774 -0.387075 0
M  V30 2173 O 204.426 5.59631 -1.03934 0
M  V30 2174 N 205.628 5.74208 0.852407 0
M  V30 2175 H 208.393 2.51567 -1.62893 0
M  V30 2176 H 205.954 1.27439 -0.998543 0
M  V30 2177 H 207.946 4.02703 0.401501 0
M  V30 2178 H 206.516 3.03007 0.768456 0
M  V30 2179 H 205.736 3.57716 -1.65629 0
M  V30 2180 H 207.024 4.79397 -1.70458 0
M  V30 2181 H 206.422 5.48062 1.40161 0
M  V30 2182 H 204.979 6.39901 1.23977 0
M  V30 2183 N 208.412 0.89855 1.29475 0
M  V30 2184 C 209.36 0.365253 2.29714 0
M  V30 2185 C 210.354 -0.534993 1.6073 0
M  V30 2186 O 211.56 -0.417921 1.75081 0
M  V30 2187 H 207.935 0.0994853 0.74539 0
M  V30 2188 H 209.906 1.22406 2.72138 0
M  V30 2189 C 208.655 -0.393159 3.4547 0
M  V30 2190 H 207.978 0.290332 3.98744 0
M  V30 2191 H 209.418 -0.731189 4.17648 0
M  V30 2192 C 207.877 -1.59539 2.9673 0
M  V30 2193 O 208.407 -2.69469 2.97908 0
M  V30 2194 N 206.613 -1.43716 2.52575 0
M  V30 2195 H 206.16 -0.542828 2.51816 0
M  V30 2196 H 206.118 -2.24288 2.20323 0
M  V30 2197 N 209.89 -1.43072 0.660911 0
M  V30 2198 C 211.137 -2.01721 0.177445 0
M  V30 2199 C 211.465 -1.5218 -1.21126 0
M  V30 2200 O 210.72 -0.708659 -1.82419 0
M  V30 2201 C 211.019 -3.57103 0.145563 0
M  V30 2202 C 210.685 -4.26021 1.47705 0
M  V30 2203 C 209.347 -4.44563 1.84165 0
M  V30 2204 C 211.699 -4.64983 2.35458 0
M  V30 2205 C 209.027 -4.99334 3.0803 0
M  V30 2206 C 211.379 -5.21127 3.58622 0
M  V30 2207 C 210.043 -5.37884 3.95268 0
M  V30 2208 H 209.313 -0.73815 0.0649317 0
M  V30 2209 H 211.96 -1.71446 0.853144 0
M  V30 2210 H 210.265 -3.86965 -0.61361 0
M  V30 2211 H 211.962 -4.00248 -0.2455 0
M  V30 2212 H 208.552 -4.11939 1.18339 0
M  V30 2213 H 212.736 -4.50343 2.08579 0
M  V30 2214 H 207.992 -5.10493 3.36462 0
M  V30 2215 H 212.166 -5.50262 4.26831 0
M  V30 2216 H 209.793 -5.80089 4.91325 0
M  V30 2217 N 211.368 -0.403325 -1.52352 0
M  V30 2218 C 212.278 0.432009 -2.30588 0
M  V30 2219 C 213.294 1.05884 -1.38075 0
M  V30 2220 O 214.47 1.06161 -1.71148 0
M  V30 2221 C 211.535 1.53669 -3.10784 0
M  V30 2222 C 210.596 0.933525 -4.19027 0
M  V30 2223 C 209.829 1.98557 -4.9539 0
M  V30 2224 O 210.052 3.20283 -4.71991 0
M  V30 2225 O 208.986 1.59504 -5.80381 0
M  V30 2226 H 212.812 -0.205739 -3.03002 0
M  V30 2227 H 210.397 -0.166675 -1.48467 0
M  V30 2228 H 212.279 2.17814 -3.60742 0
M  V30 2229 H 210.954 2.15915 -2.41169 0
M  V30 2230 H 209.861 0.254954 -3.7323 0
M  V30 2231 H 211.194 0.35508 -4.90918 0
M  V30 2232 N 212.846 1.57033 -0.133567 0
M  V30 2233 C 214.071 2.00475 0.531477 0
M  V30 2234 C 214.496 1.01291 1.58499 0
M  V30 2235 O 213.854 -0.0133279 1.81295 0
M  V30 2236 C 213.902 3.42729 1.12113 0
M  V30 2237 O 213.006 3.46498 2.23636 0
M  V30 2238 H 212.347 0.650876 0.131362 0
M  V30 2239 H 214.877 2.03344 -0.22634 0
M  V30 2240 H 214.887 3.81246 1.4531 0
M  V30 2241 H 213.562 4.14428 0.349557 0
M  V30 2242 H 212.139 3.19811 1.91769 0
M  V30 2243 N 214.325 -0.140222 1.56975 0
M  V30 2244 C 215.273 -1.19207 1.99731 0
M  V30 2245 C 216.267 -1.44089 0.890777 0
M  V30 2246 O 217.473 -1.44301 1.07597 0
M  V30 2247 H 213.848 -0.40142 0.635898 0
M  V30 2248 H 215.819 -0.804813 2.87342 0
M  V30 2249 C 214.568 -2.51617 2.39967 0
M  V30 2250 H 213.891 -2.33303 3.24669 0
M  V30 2251 H 215.331 -3.23827 2.73701 0
M  V30 2252 C 213.79 -3.12654 1.25496 0
M  V30 2253 O 214.32 -3.97786 0.559371 0
M  V30 2254 N 212.526 -2.72206 1.01746 0
M  V30 2255 H 212.073 -2.03074 1.58489 0
M  V30 2256 H 212.031 -3.13377 0.253461 0
M  V30 2257 N 215.803 -1.52179 -0.40978 0
M  V30 2258 C 216.75 -1.75475 -1.49924 0
M  V30 2259 C 217.72 -0.597175 -1.54994 0
M  V30 2260 O 218.905 -0.834655 -1.71575 0
M  V30 2261 C 216.045 -1.9107 -2.87378 0
M  V30 2262 C 215.158 -3.18717 -2.91622 0
M  V30 2263 C 214.293 -3.24747 -4.20372 0
M  V30 2264 C 213.332 -4.46598 -4.18588 0
M  V30 2265 N 212.469 -4.50025 -5.38908 0
M  V30 2266 H 217.309 -2.68458 -1.29361 0
M  V30 2267 H 214.846 -1.33024 -0.627934 0
M  V30 2268 H 216.804 -1.98096 -3.6717 0
M  V30 2269 H 215.434 -1.01469 -3.06437 0
M  V30 2270 H 214.486 -3.20866 -2.04326 0
M  V30 2271 H 215.798 -4.08544 -2.86169 0
M  V30 2272 H 214.952 -3.30841 -5.08556 0
M  V30 2273 H 213.691 -2.32857 -4.28519 0
M  V30 2274 H 212.696 -4.40652 -3.28794 0
M  V30 2275 H 213.921 -5.39783 -4.12081 0
M  V30 2276 H 211.867 -3.61017 -5.47725 0
M  V30 2277 H 211.784 -5.33697 -5.35447 0
M  V30 2278 H 213.052 -4.60347 -6.29048 0
M  V30 2279 N 217.281 0.66697 -1.42791 0
M  V30 2280 C 218.53 1.42278 -1.42968 0
M  V30 2281 C 218.843 1.9553 -0.0524489 0
M  V30 2282 O 220.049 2.71414 0.068363 0
M  V30 2283 C 218.505 2.57418 -2.51524 0
M  V30 2284 C 218.113 2.10832 -3.9529 0
M  V30 2285 C 219.857 3.34878 -2.60877 0
M  V30 2286 C 217.764 3.23101 -4.95338 0
M  V30 2287 H 216.694 0.534533 -0.531781 0
M  V30 2288 H 219.345 0.721302 -1.68729 0
M  V30 2289 H 217.727 3.29971 -2.18941 0
M  V30 2290 H 218.901 1.4538 -4.37266 0
M  V30 2291 H 217.216 1.46289 -3.89857 0
M  V30 2292 H 219.813 4.18505 -3.32802 0
M  V30 2293 H 220.156 3.81993 -1.6549 0
M  V30 2294 H 220.689 2.69398 -2.92693 0
M  V30 2295 H 217.428 2.80969 -5.9223 0
M  V30 2296 H 216.948 3.87309 -4.57987 0
M  V30 2297 H 218.627 3.88447 -5.17415 0
M  V30 2298 N 218.759 1.29093 0.90403 0
M  V30 2299 C 219.691 1.09658 2.01266 0
M  V30 2300 C 220.704 0.0453729 1.62737 0
M  V30 2301 O 221.893 0.289446 1.76138 0
M  V30 2302 C 218.993 0.646278 3.32681 0
M  V30 2303 C 218.166 1.77505 3.99763 0
M  V30 2304 C 217.225 1.31649 5.09465 0
M  V30 2305 O 216.251 2.02045 5.32134 0
M  V30 2306 N 217.453 0.184997 5.80205 0
M  V30 2307 H 220.218 2.05135 2.18494 0
M  V30 2308 H 217.779 1.20975 1.07594 0
M  V30 2309 H 219.771 0.322906 4.0341 0
M  V30 2310 H 218.341 -0.215916 3.11853 0
M  V30 2311 H 217.561 2.26752 3.22455 0
M  V30 2312 H 218.849 2.53198 4.41325 0
M  V30 2313 H 218.247 -0.402021 5.6427 0
M  V30 2314 H 216.804 -0.0790358 6.51752 0
M  V30 2315 N 220.237 -1.11381 1.11499 0
M  V30 2316 C 221.483 -1.83403 0.865512 0
M  V30 2317 C 221.816 -1.84459 -0.607329 0
M  V30 2318 O 221.091 -1.29811 -1.44842 0
M  V30 2319 C 221.374 -3.30552 1.42855 0
M  V30 2320 C 221.227 -3.37886 2.96906 0
M  V30 2321 C 222.546 -4.26643 1.08 0
M  V30 2322 H 219.665 -0.665879 0.31587 0
M  V30 2323 H 222.307 -1.30601 1.37998 0
M  V30 2324 H 220.457 -3.75648 0.990985 0
M  V30 2325 H 222.129 -3.01343 3.49271 0
M  V30 2326 H 220.372 -2.78088 3.32941 0
M  V30 2327 H 221.043 -4.41458 3.31389 0
M  V30 2328 H 223.519 -3.89729 1.45775 0
M  V30 2329 H 222.395 -5.27986 1.50072 0
M  V30 2330 H 222.656 -4.42099 -0.00915037 0
M  V30 2331 N 221.715 -0.905404 -1.28997 0
M  V30 2332 C 222.647 -0.344748 -2.26592 0
M  V30 2333 C 223.66 0.512135 -1.54535 0
M  V30 2334 O 224.849 0.328368 -1.75454 0
M  V30 2335 C 221.949 0.526587 -3.34784 0
M  V30 2336 C 221.122 -0.305871 -4.36329 0
M  V30 2337 C 220.181 0.499209 -5.23827 0
M  V30 2338 O 219.207 -0.0853004 -5.69136 0
M  V30 2339 N 220.409 1.80408 -5.51755 0
M  V30 2340 H 223.174 -1.18359 -2.75338 0
M  V30 2341 H 220.735 -0.770481 -1.42391 0
M  V30 2342 H 222.727 1.07171 -3.90252 0
M  V30 2343 H 221.297 1.26613 -2.85811 0
M  V30 2344 H 220.517 -1.0324 -3.80441 0
M  V30 2345 H 221.805 -0.875773 -5.01206 0
M  V30 2346 H 221.203 2.3016 -5.16762 0
M  V30 2347 H 219.76 2.29621 -6.10014 0
M  V30 2348 N 223.193 1.4272 -0.668489 0
M  V30 2349 C 224.441 2.01226 -0.187769 0
M  V30 2350 C 224.762 1.53092 1.2078 0
M  V30 2351 O 224.032 0.74993 1.80977 0
M  V30 2352 H 222.612 0.744041 -0.0664272 0
M  V30 2353 H 225.274 1.74723 -0.863583 0
M  V30 2354 H 224.37 3.11556 -0.184166 0
M  V30 2355 N 224.671 0.411399 1.52136 0
M  V30 2356 C 225.601 -0.404015 2.29978 0
M  V30 2357 C 226.582 -1.04412 1.34284 0
M  V30 2358 O 227.767 -1.0527 1.63192 0
M  V30 2359 C 224.897 -1.5197 3.12286 0
M  V30 2360 C 223.851 -1.00448 4.16046 0
M  V30 2361 C 223.177 -2.21393 4.86712 0
M  V30 2362 C 224.477 -0.0569336 5.22269 0
M  V30 2363 H 226.171 0.245529 2.98392 0
M  V30 2364 H 223.717 0.119525 1.43503 0
M  V30 2365 H 225.67 -2.09715 3.6551 0
M  V30 2366 H 224.394 -2.19716 2.41646 0
M  V30 2367 H 223.053 -0.449421 3.63835 0
M  V30 2368 H 222.701 -2.87699 4.12599 0
M  V30 2369 H 222.401 -1.87571 5.56858 0
M  V30 2370 H 223.925 -2.7974 5.4275 0
M  V30 2371 H 225.339 -0.54325 5.7072 0
M  V30 2372 H 223.736 0.192594 5.99791 0
M  V30 2373 H 224.806 0.887663 4.76706 0
M  V30 2374 N 226.149 -1.5696 0.141893 0
M  V30 2375 C 227.395 -1.9625 -0.511248 0
M  V30 2376 C 227.728 -1.02654 -1.64851 0
M  V30 2377 O 227.003 -0.0679676 -1.94381 0
M  V30 2378 C 227.286 -3.45285 -1.02227 0
M  V30 2379 C 227.139 -4.49658 0.113138 0
M  V30 2380 C 228.458 -3.96698 -1.90574 0
M  V30 2381 H 225.577 -0.713567 -0.184367 0
M  V30 2382 H 228.219 -1.88698 0.222087 0
M  V30 2383 H 226.369 -3.51852 -1.64719 0
M  V30 2384 H 228.041 -4.55174 0.749302 0
M  V30 2385 H 226.284 -4.26857 0.773026 0
M  V30 2386 H 226.955 -5.51258 -0.286053 0
M  V30 2387 H 229.431 -3.92578 -1.37918 0
M  V30 2388 H 228.307 -5.01453 -2.2324 0
M  V30 2389 H 228.568 -3.3875 -2.84079 0
M  V30 2390 N 227.627 0.131896 -1.57047 0
M  V30 2391 C 228.876 0.84044 -1.83356 0
M  V30 2392 C 229.189 1.81646 -0.725535 0
M  V30 2393 O 230.395 2.57025 -0.874659 0
M  V30 2394 C 228.851 1.54528 -3.25037 0
M  V30 2395 C 228.459 0.610902 -4.43815 0
M  V30 2396 C 230.203 2.23972 -3.60606 0
M  V30 2397 C 228.11 1.31823 -5.76521 0
M  V30 2398 H 227.04 0.317599 -0.683847 0
M  V30 2399 H 229.691 0.0931561 -1.83263 0
M  V30 2400 H 228.073 2.33873 -3.19561 0
M  V30 2401 H 229.247 -0.148407 -4.60561 0
M  V30 2402 H 227.562 0.0241016 -4.16393 0
M  V30 2403 H 230.159 2.77558 -4.57018 0
M  V30 2404 H 230.502 3.01173 -2.87403 0
M  V30 2405 H 231.035 1.51529 -3.6781 0
M  V30 2406 H 227.774 0.587771 -6.52859 0
M  V30 2407 H 227.294 2.04987 -5.63685 0
M  V30 2408 H 228.973 1.855 -6.19838 0
M  V30 2409 N 229.106 1.52395 0.401703 0
M  V30 2410 C 230.346 1.68498 1.15705 0
M  V30 2411 C 230.71 0.409748 1.87577 0
M  V30 2412 O 231.911 0.446983 2.65058 0
M  V30 2413 C 230.182 2.87789 2.11924 0
M  V30 2414 S 231.741 3.24415 2.95466 0
M  V30 2415 H 228.559 0.593267 0.391862 0
M  V30 2416 H 231.161 1.90408 0.443282 0
M  V30 2417 H 229.865 3.7884 1.57824 0
M  V30 2418 H 229.396 2.68175 2.87829 0
M  V30 2419 H 231.411 2.73614 4.13944 0
M  V30 2420 N 230.584 -0.659388 1.43143 0
M  V30 2421 C 231.494 -1.80167 1.50256 0
M  V30 2422 C 232.51 -1.69571 0.390106 0
M  V30 2423 O 233.686 -1.90849 0.643319 0
M  V30 2424 C 230.751 -3.16409 1.41725 0
M  V30 2425 C 229.812 -3.38848 2.63591 0
M  V30 2426 C 229.045 -4.68591 2.55458 0
M  V30 2427 O 229.268 -5.47532 1.59891 0
M  V30 2428 O 228.202 -4.92614 3.45854 0
M  V30 2429 H 232.028 -1.77121 2.46702 0
M  V30 2430 H 229.613 -0.817092 1.25076 0
M  V30 2431 H 231.495 -3.9768 1.39387 0
M  V30 2432 H 230.17 -3.20059 0.484118 0
M  V30 2433 H 229.077 -2.57366 2.71502 0
M  V30 2434 H 230.41 -3.4004 3.55856 0
M  V30 2435 N 232.062 -1.29571 -0.897171 0
M  V30 2436 C 233.292 -1.20408 -1.67886 0
M  V30 2437 C 233.7 0.237429 -1.87704 0
M  V30 2438 O 233.043 1.17048 -1.41582 0
M  V30 2439 C 233.105 -1.84887 -3.08314 0
M  V30 2440 C 232.769 -3.34189 -3.11716 0
M  V30 2441 C 233.766 -4.30374 -2.91675 0
M  V30 2442 C 231.451 -3.75431 -3.33701 0
M  V30 2443 C 233.445 -5.65776 -2.93557 0
M  V30 2444 C 231.132 -5.10955 -3.35214 0
M  V30 2445 C 232.13 -6.05938 -3.15164 0
M  V30 2446 O 231.818 -7.38987 -3.1647 0
M  V30 2447 H 231.55 -0.418289 -0.531046 0
M  V30 2448 H 234.104 -1.71514 -1.13014 0
M  V30 2449 H 232.334 -1.28295 -3.64798 0
M  V30 2450 H 234.023 -1.70011 -3.6858 0
M  V30 2451 H 234.789 -3.99844 -2.74499 0
M  V30 2452 H 230.668 -3.01953 -3.48347 0
M  V30 2453 H 234.212 -6.39889 -2.77826 0
M  V30 2454 H 230.109 -5.4113 -3.51922 0
M  V30 2455 H 230.877 -7.47823 -3.3272 0
M  V30 2456 N 233.54 1.10788 -1.12088 0
M  V30 2457 C 234.765 1.87002 -0.896949 0
M  V30 2458 C 235.19 1.79933 0.548261 0
M  V30 2459 O 234.548 1.16662 1.38779 0
M  V30 2460 C 234.596 3.3349 -1.37174 0
M  V30 2461 O 233.7 4.08745 -0.547831 0
M  V30 2462 H 233.041 0.580397 -0.322545 0
M  V30 2463 H 235.571 1.39996 -1.49206 0
M  V30 2464 H 235.581 3.84339 -1.36922 0
M  V30 2465 H 234.256 3.37951 -2.42408 0
M  V30 2466 H 232.833 3.6776 -0.617034 0
M  V30 2467 N 235.018 0.912232 1.28515 0
M  V30 2468 C 235.965 0.397954 2.27343 0
M  V30 2469 C 236.935 -0.526766 1.57526 0
M  V30 2470 O 238.12 -0.449292 1.85435 0
M  V30 2471 C 235.26 -0.357263 3.43246 0
M  V30 2472 C 234.373 0.599788 4.27816 0
M  V30 2473 C 233.508 -0.173725 5.30916 0
M  V30 2474 C 232.547 0.777039 6.07148 0
M  V30 2475 N 231.684 0.0371398 7.0209 0
M  V30 2476 H 236.524 1.24577 2.70711 0
M  V30 2477 H 234.061 0.625612 1.33133 0
M  V30 2478 H 236.019 -0.8113 4.09236 0
M  V30 2479 H 234.649 -1.16943 3.00872 0
M  V30 2480 H 233.701 1.17235 3.61884 0
M  V30 2481 H 235.013 1.32704 4.80823 0
M  V30 2482 H 234.167 -0.688394 6.02782 0
M  V30 2483 H 232.906 -0.934041 4.78672 0
M  V30 2484 H 231.911 1.3031 5.34134 0
M  V30 2485 H 233.136 1.53689 6.61481 0
M  V30 2486 H 231.082 -0.705213 6.52198 0
M  V30 2487 H 230.999 0.704249 7.52713 0
M  V30 2488 H 232.267 -0.457383 7.78157 0
M  V30 2489 N 236.496 -1.42363 0.676048 0
M  V30 2490 C 237.428 -2.29164 -0.0404605 0
M  V30 2491 C 238.441 -1.43747 -0.764245 0
M  V30 2492 O 239.63 -1.67453 -0.618195 0
M  V30 2493 C 236.73 -3.21196 -1.08103 0
M  V30 2494 C 235.903 -4.35273 -0.430812 0
M  V30 2495 C 234.962 -5.08017 -1.37133 0
M  V30 2496 O 233.988 -5.62494 -0.87116 0
M  V30 2497 N 235.19 -5.13647 -2.70456 0
M  V30 2498 H 237.955 -2.91298 0.704667 0
M  V30 2499 H 235.516 -1.53303 0.520559 0
M  V30 2500 H 237.508 -3.66728 -1.71152 0
M  V30 2501 H 236.078 -2.60505 -1.72788 0
M  V30 2502 H 235.298 -3.92372 0.379209 0
M  V30 2503 H 236.586 -5.08795 0.0221132 0
M  V30 2504 H 235.984 -4.708 -3.1363 0
M  V30 2505 H 234.541 -5.62821 -3.28749 0
M  V30 2506 N 237.974 -0.419461 -1.51915 0
M  V30 2507 C 239.199 0.154572 -2.06823 0
M  V30 2508 C 239.624 1.3722 -1.28656 0
M  V30 2509 O 238.982 1.78461 -0.319583 0
M  V30 2510 C 239.03 0.473172 -3.57482 0
M  V30 2511 O 238.134 1.56255 -3.81652 0
M  V30 2512 H 237.475 0.0096924 -0.663929 0
M  V30 2513 H 240.005 -0.595642 -1.95738 0
M  V30 2514 H 240.015 0.728825 -4.01438 0
M  V30 2515 H 238.69 -0.416873 -4.13805 0
M  V30 2516 H 237.267 1.29825 -3.49571 0
M  V30 2517 N 239.452 1.56882 -0.150215 0
M  V30 2518 C 240.682 2.00302 0.506213 0
M  V30 2519 C 241.09 1.02934 1.58749 0
M  V30 2520 O 240.433 0.0188384 1.8369 0
M  V30 2521 C 240.495 3.40156 1.16337 0
M  V30 2522 C 240.159 4.56439 0.226311 0
M  V30 2523 C 241.156 5.17012 -0.547265 0
M  V30 2524 C 238.841 5.02136 0.128279 0
M  V30 2525 C 240.835 6.21693 -1.40629 0
M  V30 2526 C 238.522 6.06672 -0.734345 0
M  V30 2527 C 239.52 6.6632 -1.50023 0
M  V30 2528 O 239.208 7.68831 -2.34848 0
M  V30 2529 H 238.94 0.662182 0.135984 0
M  V30 2530 H 241.494 2.03961 -0.242746 0
M  V30 2531 H 239.724 3.33346 1.96004 0
M  V30 2532 H 241.413 3.67663 1.71985 0
M  V30 2533 H 242.179 4.82603 -0.48158 0
M  V30 2534 H 238.058 4.55435 0.714157 0
M  V30 2535 H 241.602 6.68179 -2.00455 0
M  V30 2536 H 237.499 6.40507 -0.801309 0
M  V30 2537 H 238.267 7.86065 -2.28131 0
M  V30 2538 N 240.93 -0.123565 1.57115 0
M  V30 2539 C 241.88 -1.1575 1.96433 0
M  V30 2540 C 242.864 -1.37313 0.838686 0
M  V30 2541 O 244.056 -1.38482 1.10235 0
M  V30 2542 C 241.185 -2.48526 2.36833 0
M  V30 2543 C 240.271 -2.30457 3.5602 0
M  V30 2544 N 240.662 -1.8219 4.71848 0
M  V30 2545 C 238.96 -2.61129 3.61563 0
M  V30 2546 C 239.661 -1.77721 5.53886 0
M  V30 2547 N 238.637 -2.21899 4.96248 0
M  V30 2548 H 242.439 -0.776797 2.83449 0
M  V30 2549 H 239.953 -0.331364 1.58983 0
M  V30 2550 H 241.95 -3.233 2.63216 0
M  V30 2551 H 240.61 -2.87358 1.5118 0
M  V30 2552 H 241.621 -1.51805 4.95152 0
M  V30 2553 H 238.298 -3.03678 2.86507 0
M  V30 2554 H 239.688 -1.41697 6.56789 0
M  V30 2555 N 242.408 -1.52605 -0.393616 0
M  V30 2556 C 243.638 -1.71046 -1.15874 0
M  V30 2557 C 244.046 -0.426483 -1.84331 0
M  V30 2558 O 243.389 0.608513 -1.73329 0
M  V30 2559 C 243.451 -2.80118 -2.25332 0
M  V30 2560 C 243.115 -4.21381 -1.76881 0
M  V30 2561 C 244.112 -5.04697 -1.24808 0
M  V30 2562 C 241.797 -4.67683 -1.83244 0
M  V30 2563 C 243.791 -6.32393 -0.797387 0
M  V30 2564 C 241.478 -5.95364 -1.37787 0
M  V30 2565 C 242.476 -6.77549 -0.861208 0
M  V30 2566 O 242.164 -8.02837 -0.413252 0
M  V30 2567 H 241.896 -0.576155 -0.353583 0
M  V30 2568 H 244.45 -2.00018 -0.467123 0
M  V30 2569 H 242.68 -2.46557 -2.97904 0
M  V30 2570 H 244.369 -2.87006 -2.87023 0
M  V30 2571 H 245.135 -4.70111 -1.19252 0
M  V30 2572 H 241.014 -4.03805 -2.22401 0
M  V30 2573 H 244.558 -6.9649 -0.393437 0
M  V30 2574 H 240.455 -6.29455 -1.43026 0
M  V30 2575 H 241.223 -8.16749 -0.53515 0
M  V30 2576 N 243.887 0.651787 -1.4349 0
M  V30 2577 C 244.835 1.78586 -1.49029 0
M  V30 2578 C 245.829 1.65448 -0.363767 0
M  V30 2579 O 247.035 1.71777 -0.537821 0
M  V30 2580 H 243.41 0.589236 -0.467231 0
M  V30 2581 H 245.381 1.71035 -2.44519 0
M  V30 2582 C 244.13 3.16851 -1.43181 0
M  V30 2583 H 243.453 3.27598 -2.29171 0
M  V30 2584 H 244.893 3.96156 -1.51118 0
M  V30 2585 C 243.352 3.36568 -0.149616 0
M  V30 2586 O 243.882 3.93885 0.788509 0
M  V30 2587 N 242.088 2.90539 -0.0593484 0
M  V30 2588 H 241.635 2.4408 -0.823575 0
M  V30 2589 H 241.593 3.04108 0.797853 0
M  V30 2590 N 245.365 1.30045 0.890287 0
M  V30 2591 C 246.59 1.21598 1.68014 0
M  V30 2592 C 247.015 -0.218678 1.86825 0
M  V30 2593 O 246.373 -1.15756 1.39536 0
M  V30 2594 C 246.421 1.94434 3.03691 0
M  V30 2595 O 245.525 1.2678 3.92429 0
M  V30 2596 H 244.866 0.420856 0.513592 0
M  V30 2597 H 247.396 1.71775 1.11151 0
M  V30 2598 H 247.406 2.03251 3.5377 0
M  V30 2599 H 246.081 2.98777 2.89318 0
M  V30 2600 H 244.658 1.26282 3.50866 0
M  V30 2601 N 246.843 -1.10192 1.12674 0
M  V30 2602 C 248.073 -1.85713 0.905213 0
M  V30 2603 C 248.481 -1.81056 -0.549108 0
M  V30 2604 O 247.824 -1.19927 -1.39151 0
M  V30 2605 C 247.886 -3.34972 1.30516 0
M  V30 2606 C 247.55 -3.63385 2.77129 0
M  V30 2607 C 248.547 -3.59772 3.75313 0
M  V30 2608 C 246.232 -3.91981 3.14096 0
M  V30 2609 C 248.226 -3.84354 5.08479 0
M  V30 2610 C 245.913 -4.16218 4.47443 0
M  V30 2611 C 246.911 -4.12395 5.44444 0
M  V30 2612 O 246.599 -4.36014 6.75387 0
M  V30 2613 H 246.331 -0.593719 0.323223 0
M  V30 2614 H 248.885 -1.40198 1.50112 0
M  V30 2615 H 247.115 -3.81156 0.652463 0
M  V30 2616 H 248.804 -3.91886 1.05736 0
M  V30 2617 H 249.57 -3.37716 3.48099 0
M  V30 2618 H 245.449 -3.94085 2.39202 0
M  V30 2619 H 248.993 -3.81285 5.84181 0
M  V30 2620 H 244.89 -4.37754 4.74386 0
M  V30 2621 H 245.658 -4.53516 6.8137 0
M  V30 2622 N 248.321 -0.919034 -1.28029 0
M  V30 2623 C 249.57 -0.550802 -1.94034 0
M  V30 2624 C 249.883 0.910877 -1.73096 0
M  V30 2625 O 251.089 1.3875 -2.33368 0
M  V30 2626 C 249.545 -0.934249 -3.47563 0
M  V30 2627 C 249.153 -2.41602 -3.7727 0
M  V30 2628 C 250.897 -0.636854 -4.19696 0
M  V30 2629 C 248.804 -2.73932 -5.24133 0
M  V30 2630 H 247.734 -0.202273 -0.726362 0
M  V30 2631 H 250.385 -1.11867 -1.45458 0
M  V30 2632 H 248.767 -0.295115 -3.94899 0
M  V30 2633 H 249.941 -3.10233 -3.40723 0
M  V30 2634 H 248.256 -2.68441 -3.18321 0
M  V30 2635 H 250.853 -0.855005 -5.2782 0
M  V30 2636 H 251.196 0.425575 -4.14119 0
M  V30 2637 H 251.729 -1.23469 -3.78154 0
M  V30 2638 H 248.468 -3.79049 -5.34792 0
M  V30 2639 H 247.988 -2.09942 -5.61858 0
M  V30 2640 H 249.667 -2.61215 -5.91925 0
M  V30 2641 N 249.799 1.42003 -0.683588 0
M  V30 2642 C 251.027 2.05746 -0.218182 0
M  V30 2643 C 251.442 1.51396 1.12804 0
M  V30 2644 O 250.799 0.657303 1.70252 0
M  V30 2645 C 250.85 3.61171 -0.154131 0
M  V30 2646 O 250.571 4.13508 -1.44716 0
M  V30 2647 C 252.072 4.42042 0.333713 0
M  V30 2648 H 249.292 0.662888 -0.10402 0
M  V30 2649 H 251.836 1.81987 -0.9328 0
M  V30 2650 H 249.991 3.84012 0.511231 0
M  V30 2651 H 250.405 5.07453 -1.32632 0
M  V30 2652 H 251.879 5.51028 0.327423 0
M  V30 2653 H 252.356 4.17269 1.37053 0
M  V30 2654 H 252.962 4.24239 -0.300222 0
M  V30 2655 N 251.277 0.427512 1.51691 0
M  V30 2656 C 252.207 -0.3796 2.30394 0
M  V30 2657 C 253.188 -1.02982 1.35384 0
M  V30 2658 O 254.373 -1.03534 1.643 0
M  V30 2659 C 251.503 -1.48649 3.1388 0
M  V30 2660 C 250.457 -0.960294 4.17088 0
M  V30 2661 C 249.783 -2.16219 4.89033 0
M  V30 2662 C 251.083 -0.00153679 5.223 0
M  V30 2663 H 252.777 0.277164 2.98114 0
M  V30 2664 H 250.323 0.134739 1.43368 0
M  V30 2665 H 252.276 -2.05826 3.67714 0
M  V30 2666 H 251 -2.1714 2.43962 0
M  V30 2667 H 249.659 -0.410806 3.64291 0
M  V30 2668 H 249.307 -2.83307 4.15628 0
M  V30 2669 H 249.007 -1.81654 5.58816 0
M  V30 2670 H 250.531 -2.73968 5.45687 0
M  V30 2671 H 251.945 -0.482687 5.71264 0
M  V30 2672 H 250.342 0.256199 5.99553 0
M  V30 2673 H 251.412 0.938174 4.75738 0
M  V30 2674 N 252.755 -1.56801 0.158532 0
M  V30 2675 C 253.98 -2.01295 -0.499516 0
M  V30 2676 C 254.405 -1.03799 -1.56867 0
M  V30 2677 O 253.763 -0.0155162 -1.81293 0
M  V30 2678 C 253.811 -3.44469 -1.06647 0
M  V30 2679 O 252.915 -3.50012 -2.18095 0
M  V30 2680 H 252.256 -0.652884 -0.12099 0
M  V30 2681 H 254.786 -2.02958 0.258661 0
M  V30 2682 H 254.796 -3.8351 -1.39227 0
M  V30 2683 H 253.471 -4.14932 -0.283581 0
M  V30 2684 H 252.048 -3.22822 -1.86656 0
M  V30 2685 N 254.233 0.115231 -1.57178 0
M  V30 2686 C 255.143 1.15994 -2.03918 0
M  V30 2687 C 256.159 1.45103 -0.960268 0
M  V30 2688 O 257.335 1.56144 -1.27204 0
M  V30 2689 C 254.4 2.46568 -2.43732 0
M  V30 2690 C 253.461 2.24822 -3.65723 0
M  V30 2691 C 252.694 3.4917 -4.03629 0
M  V30 2692 O 252.917 4.56623 -3.41835 0
M  V30 2693 O 251.851 3.39949 -4.96708 0
M  V30 2694 H 255.677 0.793019 -2.93164 0
M  V30 2695 H 253.262 0.3263 -1.45793 0
M  V30 2696 H 255.144 3.23492 -2.70057 0
M  V30 2697 H 253.819 2.82726 -1.57631 0
M  V30 2698 H 252.726 1.45744 -3.44542 0
M  V30 2699 H 254.059 1.93566 -4.52541 0
M  V30 2700 N 255.711 1.52812 0.385517 0
M  V30 2701 C 256.957 1.69225 1.12847 0
M  V30 2702 C 257.312 0.42864 1.87564 0
M  V30 2703 O 256.605 -0.57779 1.8268 0
M  V30 2704 C 256.799 2.86856 2.13187 0
M  V30 2705 C 256.628 4.24535 1.48325 0
M  V30 2706 C 255.398 4.89701 1.24585 0
M  V30 2707 C 257.596 5.05794 0.931501 0
M  V30 2708 N 255.578 6.11353 0.558644 0
M  V30 2709 C 256.949 6.1888 0.372552 0
M  V30 2710 C 259.004 4.90963 0.828248 0
M  V30 2711 C 257.707 7.18757 -0.279556 0
M  V30 2712 C 259.733 5.91095 0.189956 0
M  V30 2713 C 259.095 7.03489 -0.358207 0
M  V30 2714 H 255.194 0.67268 0.39878 0
M  V30 2715 H 257.778 1.9017 0.417528 0
M  V30 2716 H 255.949 2.67484 2.81614 0
M  V30 2717 H 257.681 2.92188 2.80014 0
M  V30 2718 H 254.436 4.48485 1.52178 0
M  V30 2719 H 254.86 6.76606 0.230983 0
M  V30 2720 H 259.502 4.04274 1.23784 0
M  V30 2721 H 257.22 8.05052 -0.701152 0
M  V30 2722 H 260.806 5.81694 0.111264 0
M  V30 2723 H 259.686 7.79642 -0.844314 0
M  V30 2724 N 257.189 -0.644168 1.43834 0
M  V30 2725 C 258.119 -1.76814 1.52509 0
M  V30 2726 C 259.1 -1.65823 0.379052 0
M  V30 2727 O 260.285 -1.84781 0.597466 0
M  V30 2728 C 257.415 -3.15288 1.4564 0
M  V30 2729 C 256.369 -3.41053 2.58586 0
M  V30 2730 C 255.695 -4.79421 2.36769 0
M  V30 2731 C 256.995 -3.34902 4.00797 0
M  V30 2732 H 258.689 -1.69812 2.46586 0
M  V30 2733 H 256.235 -0.815542 1.1868 0
M  V30 2734 H 258.188 -3.93681 1.50311 0
M  V30 2735 H 256.912 -3.23043 0.480725 0
M  V30 2736 H 255.571 -2.65035 2.53282 0
M  V30 2737 H 255.219 -4.83863 1.37424 0
M  V30 2738 H 254.919 -4.9762 3.12487 0
M  V30 2739 H 256.443 -5.6006 2.43238 0
M  V30 2740 H 257.857 -4.03218 4.07539 0
M  V30 2741 H 256.254 -3.64637 4.76613 0
M  V30 2742 H 257.324 -2.32928 4.25291 0
M  V30 2743 N 258.668 -1.30515 -0.883378 0
M  V30 2744 C 259.615 -1.17032 -1.98927 0
M  V30 2745 C 260.585 -0.0594241 -1.65994 0
M  V30 2746 O 261.77 -0.229895 -1.8941 0
M  V30 2747 C 258.91 -0.869777 -3.33959 0
M  V30 2748 C 258.023 -2.06271 -3.79574 0
M  V30 2749 C 257.158 -1.70011 -5.03259 0
M  V30 2750 C 256.197 -2.8579 -5.41286 0
M  V30 2751 N 255.334 -2.49816 -6.56153 0
M  V30 2752 H 260.174 -2.1164 -2.09792 0
M  V30 2753 H 257.711 -1.05296 -1.02719 0
M  V30 2754 H 259.669 -0.676138 -4.11685 0
M  V30 2755 H 258.299 0.0394332 -3.22776 0
M  V30 2756 H 257.351 -2.36755 -2.97744 0
M  V30 2757 H 258.663 -2.92971 -4.03694 0
M  V30 2758 H 257.817 -1.47032 -5.88614 0
M  V30 2759 H 256.556 -0.804829 -4.81013 0
M  V30 2760 H 255.561 -3.09434 -4.54456 0
M  V30 2761 H 256.786 -3.76008 -5.65504 0
M  V30 2762 H 254.732 -1.62795 -6.35479 0
M  V30 2763 H 254.649 -3.30048 -6.8015 0
M  V30 2764 H 255.917 -2.30197 -7.44735 0
M  V30 2765 N 260.146 1.09593 -1.13257 0
M  V30 2766 C 261.395 1.81105 -0.887917 0
M  V30 2767 C 261.708 1.86563 0.587672 0
M  V30 2768 O 262.914 2.54367 0.949204 0
M  V30 2769 C 261.37 3.25338 -1.53895 0
M  V30 2770 C 260.978 3.28151 -3.04994 0
M  V30 2771 C 262.722 4.01617 -1.37492 0
M  V30 2772 C 260.629 4.66897 -3.6299 0
M  V30 2773 H 259.559 0.678661 -0.328534 0
M  V30 2774 H 262.21 1.23183 -1.36008 0
M  V30 2775 H 260.592 3.8331 -0.994446 0
M  V30 2776 H 261.766 2.79953 -3.66009 0
M  V30 2777 H 260.081 2.65361 -3.20893 0
M  V30 2778 H 262.678 5.04119 -1.78235 0
M  V30 2779 H 263.021 4.15072 -0.31957 0
M  V30 2780 H 263.554 3.50082 -1.88912 0
M  V30 2781 H 260.293 4.58643 -4.68323 0
M  V30 2782 H 259.813 5.15426 -3.06752 0
M  V30 2783 H 261.492 5.3587 -3.62563 0
M  V30 2784 N 261.624 0.925811 1.2754 0
M  V30 2785 C 262.854 0.580666 1.98272 0
M  V30 2786 C 263.262 -0.845207 1.69272 0
M  V30 2787 O 262.605 -1.57306 0.948707 0
M  V30 2788 C 262.667 0.724418 3.52126 0
M  V30 2789 C 262.331 2.12206 4.04744 0
M  V30 2790 C 263.328 3.09604 4.17662 0
M  V30 2791 C 261.013 2.4385 4.39138 0
M  V30 2792 C 263.007 4.36755 4.64246 0
M  V30 2793 C 260.694 3.71237 4.85414 0
M  V30 2794 C 261.692 4.67503 4.97926 0
M  V30 2795 O 261.38 5.92624 5.43187 0
M  V30 2796 H 261.112 0.218987 0.639547 0
M  V30 2797 H 263.666 1.24452 1.63404 0
M  V30 2798 H 261.896 0.0034663 3.867 0
M  V30 2799 H 263.585 0.384607 4.04074 0
M  V30 2800 H 264.351 2.86478 3.91351 0
M  V30 2801 H 260.23 1.69665 4.28643 0
M  V30 2802 H 263.774 5.11898 4.73927 0
M  V30 2803 H 259.671 3.94182 5.11166 0
M  V30 2804 H 260.439 5.95585 5.61445 0
M  V30 2805 N 263.102 -1.41638 0.69111 0
M  V30 2806 C 264.049 -2.30789 0.0229705 0
M  V30 2807 C 265.019 -1.46863 -0.775911 0
M  V30 2808 O 266.204 -1.75661 -0.74485 0
M  V30 2809 C 263.344 -3.32868 -0.910666 0
M  V30 2810 C 262.457 -4.31875 -0.103874 0
M  V30 2811 C 261.592 -5.21024 -1.03475 0
M  V30 2812 C 260.631 -6.11702 -0.220598 0
M  V30 2813 N 259.768 -6.93349 -1.10504 0
M  V30 2814 H 264.608 -2.87366 0.788978 0
M  V30 2815 H 262.145 -1.41535 0.400794 0
M  V30 2816 H 264.103 -3.90596 -1.46597 0
M  V30 2817 H 262.733 -2.77851 -1.64312 0
M  V30 2818 H 261.785 -3.76131 0.568285 0
M  V30 2819 H 263.097 -4.96003 0.527504 0
M  V30 2820 H 262.251 -5.83565 -1.65943 0
M  V30 2821 H 260.99 -4.57112 -1.69999 0
M  V30 2822 H 259.995 -5.48215 0.417187 0
M  V30 2823 H 261.22 -6.77668 0.440784 0
M  V30 2824 H 259.166 -6.3205 -1.75638 0
M  V30 2825 H 259.083 -7.54146 -0.529125 0
M  V30 2826 H 260.351 -7.60362 -1.71667 0
M  V30 2827 N 264.58 -0.43555 -1.51462 0
M  V30 2828 C 265.829 0.133007 -2.01261 0
M  V30 2829 C 266.142 1.43942 -1.32439 0
M  V30 2830 O 267.348 2.09081 -1.73198 0
M  V30 2831 C 265.804 0.287581 -3.58749 0
M  V30 2832 C 265.412 -1.00829 -4.36506 0
M  V30 2833 C 267.156 0.810004 -4.167 0
M  V30 2834 C 265.063 -0.819454 -5.85695 0
M  V30 2835 H 263.993 0.0534822 -0.752101 0
M  V30 2836 H 266.644 -0.565038 -1.74584 0
M  V30 2837 H 265.026 1.04859 -3.81865 0
M  V30 2838 H 266.2 -1.77749 -4.25138 0
M  V30 2839 H 264.515 -1.45911 -3.89999 0
M  V30 2840 H 267.112 0.967743 -5.2587 0
M  V30 2841 H 267.455 1.79196 -3.75758 0
M  V30 2842 H 267.988 0.107357 -3.97655 0
M  V30 2843 H 264.727 -1.77374 -6.31046 0
M  V30 2844 H 264.247 -0.0900208 -5.99732 0
M  V30 2845 H 265.926 -0.471949 -6.45276 0
M  V30 2846 N 266.058 1.56714 -0.166846 0
M  V30 2847 C 267.469 1.83378 0.350646 0
M  V30 2848 C 267.82 1.08646 1.63372 0
M  V30 2849 O 266.945 0.338058 2.13743 0
M  V30 2850 C 267.54 3.32643 0.642963 0
M  V30 2851 C 266.099 3.59818 1.10491 0
M  V30 2852 C 265.246 2.76954 0.138411 0
M  V30 2853 H 268.197 1.53803 -0.391193 0
M  V30 2854 H 268.218 3.49878 1.49551 0
M  V30 2855 H 267.73 3.87007 -0.291055 0
M  V30 2856 H 265.831 3.1086 2.05418 0
M  V30 2857 H 265.944 4.68178 1.01716 0
M  V30 2858 H 264.308 2.4666 0.634911 0
M  V30 2859 H 265.091 3.34097 -0.789549 0
M  V30 2860 N 267.536 -0.106894 1.57237 0
M  V30 2861 C 268.776 -0.818277 1.87306 0
M  V30 2862 C 269.14 -1.76474 0.756371 0
M  V30 2863 O 270.341 -2.5186 0.939155 0
M  V30 2864 C 268.612 -1.53806 3.22612 0
M  V30 2865 S 270.171 -2.28935 3.74345 0
M  V30 2866 H 266.989 -0.272862 0.656557 0
M  V30 2867 H 269.591 -0.075988 1.95352 0
M  V30 2868 H 268.295 -0.834951 4.01817 0
M  V30 2869 H 267.826 -2.32049 3.17674 0
M  V30 2870 H 269.841 -3.54871 3.46815 0
M  V30 2871 N 269.014 -1.53014 -0.377408 0
M  V30 2872 C 270.263 -1.67845 -1.11853 0
M  V30 2873 C 270.576 -0.430625 -1.90801 0
M  V30 2874 O 271.782 -0.459261 -2.67587 0
M  V30 2875 C 270.238 -2.96668 -2.03756 0
M  V30 2876 C 269.846 -4.28671 -1.30175 0
M  V30 2877 C 271.59 -3.20865 -2.77932 0
M  V30 2878 C 269.497 -5.48591 -2.20911 0
M  V30 2879 H 268.427 -0.625343 -0.421263 0
M  V30 2880 H 271.078 -1.79514 -0.380409 0
M  V30 2881 H 269.46 -2.78773 -2.8125 0
M  V30 2882 H 270.634 -4.57157 -0.578259 0
M  V30 2883 H 268.949 -4.10825 -0.679108 0
M  V30 2884 H 271.546 -4.07642 -3.46024 0
M  V30 2885 H 271.889 -2.36424 -3.4265 0
M  V30 2886 H 272.422 -3.39379 -2.07525 0
M  V30 2887 H 269.161 -6.35474 -1.6079 0
M  V30 2888 H 268.681 -5.244 -2.91144 0
M  V30 2889 H 270.36 -5.8292 -2.80736 0
M  V30 2890 N 270.492 0.636531 -1.44174 0
M  V30 2891 C 271.74 1.39343 -1.46383 0
M  V30 2892 C 272.061 1.94766 -0.0955715 0
M  V30 2893 O 271.331 1.75452 0.871395 0
M  V30 2894 H 269.911 0.517199 -0.538994 0
M  V30 2895 H 272.573 0.74957 -1.7991 0
M  V30 2896 H 271.669 2.22746 -2.18611 0
M  V30 2897 N 271.97 1.30982 0.876444 0
M  V30 2898 C 273.218 1.20058 1.62575 0
M  V30 2899 C 273.539 -0.242947 1.93481 0
M  V30 2900 O 272.809 -1.1619 1.57724 0
M  V30 2901 H 271.389 0.44135 0.602677 0
M  V30 2902 H 274.051 1.64222 1.04962 0
M  V30 2903 H 273.147 1.76762 2.57219 0
M  V30 2904 N 273.449 -1.08991 1.13837 0
M  V30 2905 C 274.698 -1.80631 0.897509 0
M  V30 2906 C 275.011 -1.86872 -0.57777 0
M  V30 2907 O 276.217 -2.54866 -0.935701 0
M  V30 2908 C 274.673 -3.24517 1.55618 0
M  V30 2909 C 274.281 -3.26529 3.0673 0
M  V30 2910 C 276.025 -4.00882 1.3962 0
M  V30 2911 C 273.932 -4.64965 3.65461 0
M  V30 2912 H 272.862 -0.67691 0.332129 0
M  V30 2913 H 275.513 -1.2246 1.3666 0
M  V30 2914 H 273.895 -3.82778 1.01476 0
M  V30 2915 H 275.069 -2.78008 3.67489 0
M  V30 2916 H 273.384 -2.63656 3.22296 0
M  V30 2917 H 275.981 -5.03167 1.80906 0
M  V30 2918 H 276.324 -4.14896 0.341578 0
M  V30 2919 H 276.857 -3.49075 1.90766 0
M  V30 2920 H 273.596 -4.56153 4.70749 0
M  V30 2921 H 273.116 -5.13792 3.09481 0
M  V30 2922 H 274.795 -5.3394 3.654 0
M  V30 2923 N 274.927 -0.932562 -1.27047 0
M  V30 2924 C 276.204 -0.49377 -1.89265 0
M  V30 2925 C 276.584 1.02833 -1.8436 0
M  V30 2926 O 275.932 1.88461 -1.29209 0
M  V30 2927 C 276.142 -1.04536 -3.32976 0
M  V30 2928 C 277.49 -1.10879 -4.09867 0
M  V30 2929 O 278.514 -0.995327 -3.42011 0
M  V30 2930 O 277.373 -1.28417 -5.31198 0
M  V30 2931 H 274.467 -0.159596 -0.811454 0
M  V30 2932 H 277.013 -1.02457 -1.3528 0
M  V30 2933 H 275.785 -2.08913 -3.30864 0
M  V30 2934 H 275.408 -0.496494 -3.94488 0
M  V30 2935 N 276.405 1.4127 -0.698611 0
M  V30 2936 C 277.633 2.05503 -0.239992 0
M  V30 2937 C 278.048 1.52584 1.11191 0
M  V30 2938 O 277.405 0.675323 1.69545 0
M  V30 2939 C 277.456 3.60987 -0.192429 0
M  V30 2940 O 277.177 4.1195 -1.49094 0
M  V30 2941 C 278.678 4.42371 0.28681 0
M  V30 2942 H 275.898 0.661748 -0.111045 0
M  V30 2943 H 278.442 1.80987 -0.95205 0
M  V30 2944 H 276.597 3.84533 0.470472 0
M  V30 2945 H 277.011 5.06018 -1.38007 0
M  V30 2946 H 278.485 5.51344 0.26896 0
M  V30 2947 H 278.962 4.18699 1.32619 0
M  V30 2948 H 279.568 4.23897 -0.345201 0
M  V30 2949 N 277.883 0.443576 1.51229 0
M  V30 2950 C 279.299 0.0962001 1.5931 0
M  V30 2951 C 279.499 -1.39501 1.45402 0
M  V30 2952 O 278.555 -2.16557 1.29843 0
M  V30 2953 C 279.868 0.621875 2.94199 0
M  V30 2954 C 281.416 0.582865 3.07525 0
M  V30 2955 C 281.891 1.08562 4.44948 0
M  V30 2956 N 283.382 1.04387 4.51284 0
M  V30 2957 C 284.117 1.40368 5.55954 0
M  V30 2958 N 283.613 1.83664 6.68011 0
M  V30 2959 N 285.406 1.32145 5.46346 0
M  V30 2960 H 277.557 1.41376 1.58514 0
M  V30 2961 H 279.82 0.582965 0.747567 0
M  V30 2962 H 279.526 1.66546 3.09767 0
M  V30 2963 H 279.4 0.0502125 3.77167 0
M  V30 2964 H 281.787 -0.451749 2.91622 0
M  V30 2965 H 281.868 1.191 2.26382 0
M  V30 2966 H 281.512 2.11873 4.61598 0
M  V30 2967 H 281.442 0.453956 5.2464 0
M  V30 2968 H 283.933 0.725986 3.70861 0
M  V30 2969 H 284.246 2.0934 7.43906 0
M  V30 2970 H 282.591 1.87596 6.69203 0
M  V30 2971 H 285.782 0.981808 4.57688 0
M  V30 2972 H 285.955 1.60514 6.27805 0
M  V30 2973 N 279.361 -1.56624 0.175154 0
M  V30 2974 C 280.324 -2.16934 -0.739738 0
M  V30 2975 C 281.324 -1.11842 -1.15533 0
M  V30 2976 O 282.514 -1.37335 -1.07167 0
M  V30 2977 C 279.646 -2.75531 -2.00738 0
M  V30 2978 H 280.839 -2.99131 -0.214639 0
M  V30 2979 H 278.392 -1.56123 -0.0744197 0
M  V30 2980 H 279.127 -1.97078 -2.57548 0
M  V30 2981 H 278.912 -3.52444 -1.71831 0
M  V30 2982 H 280.402 -3.21904 -2.66021 0
M  V30 2983 N 280.839 0.0985539 -1.57292 0
M  V30 2984 C 281.769 1.12064 -2.04851 0
M  V30 2985 C 282.75 1.41981 -0.936767 0
M  V30 2986 O 283.935 1.52071 -1.20781 0
M  V30 2987 C 281.065 2.44144 -2.47004 0
M  V30 2988 C 280.019 2.28643 -3.6181 0
M  V30 2989 C 279.345 3.65869 -3.89929 0
M  V30 2990 C 280.645 1.72986 -4.92822 0
M  V30 2991 H 282.339 0.724979 -2.9049 0
M  V30 2992 H 279.885 0.34729 -1.39749 0
M  V30 2993 H 281.838 3.15914 -2.78884 0
M  V30 2994 H 280.562 2.85639 -1.5836 0
M  V30 2995 H 279.221 1.59318 -3.30172 0
M  V30 2996 H 278.869 4.04885 -2.98458 0
M  V30 2997 H 278.569 3.56344 -4.67218 0
M  V30 2998 H 280.093 4.39112 -4.2428 0
M  V30 2999 H 281.507 2.34593 -5.23105 0
M  V30 3000 H 279.904 1.74229 -5.74251 0
M  V30 3001 H 280.974 0.689007 -4.7998 0
M  V30 3002 N 282.317 1.53212 0.369288 0
M  V30 3003 C 283.545 1.73119 1.13303 0
M  V30 3004 C 283.96 0.458455 1.83149 0
M  V30 3005 O 283.317 -0.568403 1.73423 0
M  V30 3006 C 283.368 2.89413 2.16616 0
M  V30 3007 O 283.089 4.11761 1.49614 0
M  V30 3008 C 284.59 3.21161 3.05566 0
M  V30 3009 H 281.81 0.579107 0.338934 0
M  V30 3010 H 284.354 1.99942 0.429338 0
M  V30 3011 H 282.509 2.64994 2.82589 0
M  V30 3012 H 282.923 4.76858 2.18419 0
M  V30 3013 H 284.397 4.05949 3.74045 0
M  V30 3014 H 284.874 2.36369 3.70171 0
M  V30 3015 H 285.48 3.47492 2.45213 0
M  V30 3016 N 283.795 -0.628877 1.44509 0
M  V30 3017 C 284.742 -1.74074 1.51549 0
M  V30 3018 C 285.712 -1.62084 0.363021 0
M  V30 3019 O 286.897 -1.81975 0.573567 0
M  V30 3020 C 284.037 -3.12328 1.46784 0
M  V30 3021 C 283.15 -3.35277 2.72422 0
M  V30 3022 C 282.285 -4.63515 2.59475 0
M  V30 3023 C 281.324 -4.7965 3.80266 0
M  V30 3024 N 280.461 -5.99168 3.65981 0
M  V30 3025 H 285.301 -1.67392 2.46544 0
M  V30 3026 H 282.838 -0.816527 1.22357 0
M  V30 3027 H 284.796 -3.92286 1.42012 0
M  V30 3028 H 283.426 -3.18018 0.553544 0
M  V30 3029 H 282.478 -2.49242 2.87372 0
M  V30 3030 H 283.79 -3.43078 3.62076 0
M  V30 3031 H 282.944 -5.51638 2.52548 0
M  V30 3032 H 281.683 -4.58076 1.67384 0
M  V30 3033 H 280.688 -3.89957 3.87574 0
M  V30 3034 H 281.913 -4.86902 4.73395 0
M  V30 3035 H 279.859 -5.94814 2.76644 0
M  V30 3036 H 279.776 -6.08035 4.49254 0
M  V30 3037 H 281.044 -6.89846 3.6295 0
M  V30 3038 N 285.273 -1.31445 -0.869486 0
M  V30 3039 C 286.203 -1.21727 -1.99261 0
M  V30 3040 C 287.184 -0.104359 -1.6978 0
M  V30 3041 O 288.369 -0.289038 -1.92037 0
M  V30 3042 C 285.499 -0.924317 -3.34774 0
M  V30 3043 C 284.453 -1.99685 -3.78563 0
M  V30 3044 C 283.779 -1.55658 -5.11541 0
M  V30 3045 C 285.079 -3.41003 -3.95619 0
M  V30 3046 H 286.773 -2.1569 -2.07649 0
M  V30 3047 H 284.319 -1.03839 -0.997675 0
M  V30 3048 H 286.272 -0.842934 -4.12883 0
M  V30 3049 H 284.996 0.0509793 -3.2656 0
M  V30 3050 H 283.655 -2.06813 -3.02694 0
M  V30 3051 H 283.303 -0.569132 -4.9977 0
M  V30 3052 H 283.003 -2.27409 -5.41811 0
M  V30 3053 H 284.527 -1.48928 -5.92159 0
M  V30 3054 H 285.941 -3.36547 -4.64122 0
M  V30 3055 H 284.338 -4.10975 -4.37286 0
M  V30 3056 H 285.408 -3.81754 -2.98985 0
M  V30 3057 N 286.751 1.08385 -1.14413 0
M  V30 3058 C 287.681 2.17321 -0.854044 0
M  V30 3059 C 288.662 1.69024 0.191049 0
M  V30 3060 O 289.847 1.94141 0.0476779 0
M  V30 3061 C 286.977 3.45719 -0.330983 0
M  V30 3062 C 285.931 4.07409 -1.31155 0
M  V30 3063 C 285.257 5.30762 -0.64778 0
M  V30 3064 C 286.557 4.48665 -2.67388 0
M  V30 3065 H 288.251 2.41845 -1.76498 0
M  V30 3066 H 285.797 1.16233 -0.850051 0
M  V30 3067 H 287.75 4.21241 -0.115645 0
M  V30 3068 H 286.474 3.2075 0.615381 0
M  V30 3069 H 285.133 3.33919 -1.51306 0
M  V30 3070 H 284.781 5.02078 0.304398 0
M  V30 3071 H 284.481 5.72992 -1.30207 0
M  V30 3072 H 286.005 6.08998 -0.441972 0
M  V30 3073 H 287.419 5.15364 -2.51143 0
M  V30 3074 H 285.816 5.01814 -3.29093 0
M  V30 3075 H 286.886 3.60543 -3.24248 0
M  V30 3076 N 288.23 0.939286 1.26551 0
M  V30 3077 C 289.646 0.641304 1.46149 0
M  V30 3078 C 289.846 -0.805964 1.84679 0
M  V30 3079 O 288.902 -1.58278 1.96734 0
M  V30 3080 C 290.215 1.6011 2.54529 0
M  V30 3081 C 291.763 1.6106 2.68382 0
M  V30 3082 C 292.238 2.55765 3.79932 0
M  V30 3083 N 293.729 2.5404 3.87322 0
M  V30 3084 C 294.464 3.24004 4.73085 0
M  V30 3085 N 293.96 4.03388 5.63249 0
M  V30 3086 N 295.753 3.12965 4.66914 0
M  V30 3087 H 287.904 1.87478 0.998285 0
M  V30 3088 H 290.167 0.805559 0.499779 0
M  V30 3089 H 289.873 2.63412 2.33039 0
M  V30 3090 H 289.747 1.35171 3.52149 0
M  V30 3091 H 292.134 0.584835 2.89247 0
M  V30 3092 H 292.215 1.90053 1.71212 0
M  V30 3093 H 291.859 3.58458 3.5982 0
M  V30 3094 H 291.789 2.24063 4.76554 0
M  V30 3095 H 294.28 1.96396 3.22858 0
M  V30 3096 H 294.593 4.5373 6.25579 0
M  V30 3097 H 292.938 4.07489 5.63008 0
M  V30 3098 H 296.129 2.50432 3.95476 0
M  V30 3099 H 296.302 3.67759 5.33533 0
M  V30 3100 N 289.708 -1.40897 0.706093 0
M  V30 3101 C 290.618 -2.3455 0.0482286 0
M  V30 3102 C 291.634 -1.56796 -0.754396 0
M  V30 3103 O 292.81 -1.89228 -0.689538 0
M  V30 3104 C 289.875 -3.35625 -0.869303 0
M  V30 3105 C 288.936 -4.29261 -0.0576994 0
M  V30 3106 C 288.169 -5.25508 -0.931531 0
M  V30 3107 O 288.392 -5.27472 -2.17092 0
M  V30 3108 O 287.326 -6.00727 -0.375587 0
M  V30 3109 H 291.152 -2.92407 0.820476 0
M  V30 3110 H 288.737 -1.4193 0.4665 0
M  V30 3111 H 290.619 -3.97635 -1.39514 0
M  V30 3112 H 289.294 -2.80196 -1.62086 0
M  V30 3113 H 288.201 -3.70566 0.512988 0
M  V30 3114 H 289.534 -4.87817 0.655426 0
M  V30 3115 N 291.186 -0.45159 -1.50991 0
M  V30 3116 C 292.133 0.352625 -2.2809 0
M  V30 3117 C 293.103 1.0044 -1.32291 0
M  V30 3118 O 294.288 1.02058 -1.6121 0
M  V30 3119 C 291.428 1.43983 -3.13629 0
M  V30 3120 C 290.541 0.804772 -4.24438 0
M  V30 3121 C 289.676 1.86822 -4.97263 0
M  V30 3122 C 288.715 1.21236 -5.99973 0
M  V30 3123 N 287.852 2.2178 -6.66152 0
M  V30 3124 H 292.692 -0.311186 -2.96371 0
M  V30 3125 H 290.229 -0.165308 -1.46168 0
M  V30 3126 H 292.187 2.08161 -3.61559 0
M  V30 3127 H 290.817 2.07307 -2.47434 0
M  V30 3128 H 289.869 0.0509129 -3.80366 0
M  V30 3129 H 291.181 0.286076 -4.97979 0
M  V30 3130 H 290.335 2.58628 -5.48813 0
M  V30 3131 H 289.074 2.42068 -4.23385 0
M  V30 3132 H 288.079 0.479828 -5.47702 0
M  V30 3133 H 289.304 0.667051 -6.75816 0
M  V30 3134 H 287.25 2.76079 -5.95077 0
M  V30 3135 H 287.167 1.74841 -7.35504 0
M  V30 3136 H 288.435 2.93026 -7.22327 0
M  V30 3137 N 292.664 1.56529 -0.183458 0
M  V30 3138 C 293.912 1.96855 0.457452 0
M  V30 3139 C 294.233 1.07104 1.62953 0
M  V30 3140 O 293.503 0.139887 1.954 0
M  V30 3141 H 292.083 0.72693 0.171992 0
M  V30 3142 H 294.745 1.93056 -0.267476 0
M  V30 3143 H 293.841 3.01423 0.809368 0
M  V30 3144 N 294.142 -0.090211 1.57342 0
M  V30 3145 C 295.367 -0.810082 1.90925 0
M  V30 3146 C 295.792 -1.71248 0.778187 0
M  V30 3147 O 295.15 -1.79278 -0.269991 0
M  V30 3148 C 295.198 -1.59529 3.23393 0
M  V30 3149 O 294.302 -2.70461 3.11327 0
M  V30 3150 H 293.643 -0.222231 0.625707 0
M  V30 3151 H 296.173 -0.0639716 2.045 0
M  V30 3152 H 296.183 -1.97847 3.5682 0
M  V30 3153 H 294.858 -0.933055 4.05299 0
M  V30 3154 H 293.435 -2.35135 2.89423 0
M  V30 3155 N 295.62 -1.53406 -0.361157 0
M  V30 3156 C 296.553 -1.74946 -1.46524 0
M  V30 3157 C 297.531 -0.59795 -1.51206 0
M  V30 3158 O 298.715 -0.831062 -1.69191 0
M  V30 3159 C 295.842 -1.83224 -2.84863 0
M  V30 3160 C 294.888 -3.05233 -2.97885 0
M  V30 3161 S 295.721 -4.6466 -2.66179 0
M  V30 3162 C 296.877 -4.75793 -4.06659 0
M  V30 3163 H 297.11 -2.68319 -1.28033 0
M  V30 3164 H 294.643 -1.44051 -0.555764 0
M  V30 3165 H 296.601 -1.88679 -3.64569 0
M  V30 3166 H 295.262 -0.908948 -3.00661 0
M  V30 3167 H 294.455 -3.07648 -3.9921 0
M  V30 3168 H 294.057 -2.97913 -2.26106 0
M  V30 3169 H 296.349 -4.5612 -5.0096 0
M  V30 3170 H 297.292 -5.7786 -4.09247 0
M  V30 3171 H 297.7 -4.04389 -3.93865 0
M  V30 3172 N 297.098 0.621204 -1.44841 0
M  V30 3173 C 298.028 1.74366 -1.55303 0
M  V30 3174 C 299.009 1.65199 -0.405385 0
M  V30 3175 O 300.194 1.83807 -0.626787 0
M  V30 3176 C 297.324 3.12931 -1.50637 0
M  V30 3177 C 296.278 3.36896 -2.63979 0
M  V30 3178 C 295.604 4.75594 -2.44366 0
M  V30 3179 C 296.904 3.28483 -4.06074 0
M  V30 3180 H 298.598 1.65867 -2.49256 0
M  V30 3181 H 296.144 0.796558 -1.19962 0
M  V30 3182 H 298.097 3.9124 -1.56555 0
M  V30 3183 H 296.821 3.22237 -0.532057 0
M  V30 3184 H 295.48 2.60972 -2.57467 0
M  V30 3185 H 295.128 4.81616 -1.45105 0
M  V30 3186 H 294.828 4.92586 -3.20364 0
M  V30 3187 H 296.352 5.5612 -2.52117 0
M  V30 3188 H 297.766 3.96684 -4.13902 0
M  V30 3189 H 296.163 3.57008 -4.82354 0
M  V30 3190 H 297.233 2.26133 -4.28943 0
M  V30 3191 N 298.576 1.31904 0.862503 0
M  V30 3192 C 299.824 1.21776 1.61292 0
M  V30 3193 C 300.145 -0.222413 1.93727 0
M  V30 3194 O 299.415 -1.1451 1.58947 0
M  V30 3195 H 297.995 0.447717 0.597962 0
M  V30 3196 H 300.657 1.65326 1.03215 0
M  V30 3197 H 299.753 1.7948 2.5533 0
M  V30 3198 N 300.054 -1.07777 1.14986 0
M  V30 3199 C 301.001 -2.14867 0.842672 0
M  V30 3200 C 301.971 -1.6486 -0.202552 0
M  V30 3201 O 303.156 -1.90668 -0.0710568 0
M  V30 3202 C 300.296 -3.43486 0.333363 0
M  V30 3203 C 299.409 -4.07306 1.43965 0
M  V30 3204 C 298.544 -5.23744 0.886914 0
M  V30 3205 C 297.583 -5.79517 1.97043 0
M  V30 3206 N 296.72 -6.87291 1.4344 0
M  V30 3207 H 301.56 -2.40485 1.75986 0
M  V30 3208 H 299.097 -1.1801 0.878179 0
M  V30 3209 H 301.055 -4.17195 0.0198163 0
M  V30 3210 H 299.685 -3.18133 -0.546916 0
M  V30 3211 H 298.737 -3.31293 1.86946 0
M  V30 3212 H 300.049 -4.44771 2.25788 0
M  V30 3213 H 299.203 -6.04419 0.525651 0
M  V30 3214 H 297.942 -4.87685 0.0377957 0
M  V30 3215 H 296.947 -4.97491 2.34057 0
M  V30 3216 H 298.172 -6.17632 2.82325 0
M  V30 3217 H 296.118 -6.5318 0.607567 0
M  V30 3218 H 296.035 -7.23617 2.18895 0
M  V30 3219 H 297.303 -7.71682 1.10124 0
M  V30 3220 N 301.532 -0.945985 -1.26051 0
M  V30 3221 C 302.781 -0.591836 -1.92822 0
M  V30 3222 C 303.094 0.873956 -1.7499 0
M  V30 3223 O 304.3 1.33769 -2.36259 0
M  V30 3224 C 302.756 -1.00776 -3.45503 0
M  V30 3225 C 302.364 -2.4955 -3.7206 0
M  V30 3226 C 304.108 -0.725735 -4.1825 0
M  V30 3227 C 302.015 -2.84988 -5.18205 0
M  V30 3228 H 300.945 -0.217635 -0.721908 0
M  V30 3229 H 303.596 -1.14927 -1.43052 0
M  V30 3230 H 301.978 -0.378812 -3.94184 0
M  V30 3231 H 303.152 -3.1739 -3.34066 0
M  V30 3232 H 301.467 -2.75133 -3.12555 0
M  V30 3233 H 304.064 -0.966771 -5.25887 0
M  V30 3234 H 304.407 0.337639 -4.14929 0
M  V30 3235 H 304.94 -1.31463 -3.7545 0
M  V30 3236 H 301.679 -3.90307 -5.26631 0
M  V30 3237 H 301.199 -2.21813 -5.57278 0
M  V30 3238 H 302.878 -2.73712 -5.86252 0
M  V30 3239 N 303.011 1.40521 -0.713556 0
M  V30 3240 C 304.257 2.01221 -0.252564 0
M  V30 3241 C 304.59 1.56444 1.1506 0
M  V30 3242 O 303.865 0.783597 1.78017 0
M  V30 3243 C 304.148 3.58582 -0.330332 0
M  V30 3244 C 304.001 4.13437 -1.77173 0
M  V30 3245 C 305.32 4.39079 0.299641 0
M  V30 3246 H 302.439 0.731077 -0.0932471 0
M  V30 3247 H 305.081 1.67026 -0.905673 0
M  V30 3248 H 303.231 3.87844 0.225737 0
M  V30 3249 H 304.903 3.9498 -2.38303 0
M  V30 3250 H 303.146 3.67801 -2.3001 0
M  V30 3251 H 303.817 5.22597 -1.77755 0
M  V30 3252 H 306.293 4.15735 -0.174139 0
M  V30 3253 H 305.169 5.4848 0.214771 0
M  V30 3254 H 305.43 4.19915 1.38288 0
M  V30 3255 N 304.489 0.459591 1.5075 0
M  V30 3256 C 305.738 -0.100971 2.01447 0
M  V30 3257 C 306.051 -1.41816 1.34713 0
M  V30 3258 O 307.257 -2.06299 1.76502 0
M  V30 3259 C 305.713 -0.23047 3.59161 0
M  V30 3260 C 305.321 1.0776 4.34847 0
M  V30 3261 C 307.065 -0.743608 4.17936 0
M  V30 3262 C 304.972 0.91253 5.84317 0
M  V30 3263 H 303.902 -0.0415102 0.752856 0
M  V30 3264 H 306.553 0.592742 1.73663 0
M  V30 3265 H 304.935 -0.987703 3.83485 0
M  V30 3266 H 306.109 1.8449 4.22256 0
M  V30 3267 H 304.424 1.52097 3.87628 0
M  V30 3268 H 307.021 -0.883959 5.27343 0
M  V30 3269 H 307.364 -1.73196 3.78562 0
M  V30 3270 H 307.897 -0.04408 3.97776 0
M  V30 3271 H 304.636 1.87391 6.28144 0
M  V30 3272 H 304.156 0.185422 5.99513 0
M  V30 3273 H 305.835 0.574547 6.44444 0
M  V30 3274 N 305.967 -1.56429 0.191757 0
M  V30 3275 C 307.197 -2.01574 -0.452928 0
M  V30 3276 C 307.605 -1.07107 -1.55964 0
M  V30 3277 O 306.948 -0.067534 -1.83576 0
M  V30 3278 C 307.01 -3.43121 -1.07278 0
M  V30 3279 C 306.674 -4.56879 -0.105214 0
M  V30 3280 C 307.671 -5.15379 0.684149 0
M  V30 3281 C 305.356 -5.023 0.00489824 0
M  V30 3282 C 307.35 -6.17746 1.57062 0
M  V30 3283 C 305.037 -6.04511 0.894935 0
M  V30 3284 C 306.035 -6.62108 1.67637 0
M  V30 3285 O 305.723 -7.62335 2.55149 0
M  V30 3286 H 305.455 -0.665554 -0.118379 0
M  V30 3287 H 308.009 -2.03245 0.296737 0
M  V30 3288 H 306.239 -3.38425 -1.87097 0
M  V30 3289 H 307.928 -3.72093 -1.62177 0
M  V30 3290 H 308.694 -4.81157 0.609365 0
M  V30 3291 H 304.573 -4.57168 -0.593156 0
M  V30 3292 H 308.117 -6.6263 2.181 0
M  V30 3293 H 304.014 -6.38157 0.970847 0
M  V30 3294 H 304.782 -7.79741 2.48892 0
M  V30 3295 N 307.445 0.0818655 -1.57387 0
M  V30 3296 C 308.392 1.09834 -2.0299 0
M  V30 3297 C 309.362 1.39043 -0.908639 0
M  V30 3298 O 310.547 1.50282 -1.17559 0
M  V30 3299 C 307.687 2.40971 -2.47037 0
M  V30 3300 C 306.8 2.18379 -3.7274 0
M  V30 3301 C 305.935 3.43008 -4.0561 0
M  V30 3302 C 304.974 3.15736 -5.24383 0
M  V30 3303 N 304.111 4.32667 -5.52941 0
M  V30 3304 H 308.951 0.702472 -2.89602 0
M  V30 3305 H 306.488 0.33531 -1.43227 0
M  V30 3306 H 308.446 3.1752 -2.70623 0
M  V30 3307 H 307.076 2.78379 -1.63417 0
M  V30 3308 H 306.128 1.32569 -3.56552 0
M  V30 3309 H 307.44 1.94227 -4.59431 0
M  V30 3310 H 306.594 4.27958 -4.30043 0
M  V30 3311 H 305.333 3.70225 -3.17466 0
M  V30 3312 H 304.338 2.2918 -4.99757 0
M  V30 3313 H 305.563 2.8985 -6.14136 0
M  V30 3314 H 303.509 4.59935 -4.67756 0
M  V30 3315 H 303.426 4.11753 -6.34031 0
M  V30 3316 H 304.694 5.18644 -5.81918 0
M  V30 3317 N 308.923 1.53595 0.353017 0
M  V30 3318 C 309.871 1.81605 1.45335 0
M  V30 3319 C 310.865 0.685923 1.54892 0
M  V30 3320 O 312.071 0.869095 1.57628 0
M  V30 3321 H 308.446 0.575204 0.484401 0
M  V30 3322 H 310.417 2.73679 1.18921 0
M  V30 3323 C 309.166 2.03406 2.81995 0
M  V30 3324 H 308.489 2.89814 2.75405 0
M  V30 3325 H 309.929 2.26975 3.58132 0
M  V30 3326 C 308.388 0.816794 3.26849 0
M  V30 3327 O 308.918 0.0115856 4.01698 0
M  V30 3328 N 307.124 0.636682 2.8354 0
M  V30 3329 H 306.671 1.2931 2.22793 0
M  V30 3330 H 306.629 -0.176336 3.13905 0
M  V30 3331 N 310.401 -0.613514 1.45168 0
M  V30 3332 C 311.817 -0.933629 1.29443 0
M  V30 3333 C 312.017 -2.00028 0.243101 0
M  V30 3334 O 311.073 -2.49848 -0.364992 0
M  V30 3335 C 312.386 -1.38018 2.67155 0
M  V30 3336 C 313.934 -1.49471 2.75004 0
M  V30 3337 C 314.409 -1.97503 4.13227 0
M  V30 3338 N 315.9 -2.04746 4.15491 0
M  V30 3339 C 316.635 -2.43121 5.19307 0
M  V30 3340 N 316.131 -2.80506 6.33473 0
M  V30 3341 N 317.924 -2.43408 5.06664 0
M  V30 3342 H 310.075 0.0916097 2.12202 0
M  V30 3343 H 312.338 -0.0216655 0.947752 0
M  V30 3344 H 312.044 -0.670625 3.45247 0
M  V30 3345 H 311.918 -2.34784 2.95222 0
M  V30 3346 H 314.305 -2.19519 1.9722 0
M  V30 3347 H 314.386 -0.510342 2.50657 0
M  V30 3348 H 314.03 -1.28045 4.91495 0
M  V30 3349 H 313.96 -2.96843 4.34962 0
M  V30 3350 H 316.451 -1.78468 3.33103 0
M  V30 3351 H 316.764 -3.08652 7.08487 0
M  V30 3352 H 315.109 -2.78216 6.36884 0
M  V30 3353 H 318.3 -2.13604 4.16523 0
M  V30 3354 H 318.473 -2.72989 5.87691 0
M  V30 3355 N 311.879 -1.3236 -0.855495 0
M  V30 3356 C 312.811 -1.17052 -1.97057 0
M  V30 3357 C 313.824 -0.10574 -1.62456 0
M  V30 3358 O 315.013 -0.354619 -1.74942 0
M  V30 3359 C 312.113 -0.769305 -3.30053 0
M  V30 3360 C 311.286 -1.9222 -3.929 0
M  V30 3361 C 310.345 -1.50466 -5.04228 0
M  V30 3362 O 309.371 -2.21655 -5.24269 0
M  V30 3363 N 310.573 -0.400209 -5.79119 0
M  V30 3364 H 313.338 -2.13103 -2.1073 0
M  V30 3365 H 310.899 -1.24885 -1.0303 0
M  V30 3366 H 312.891 -0.472407 -4.01933 0
M  V30 3367 H 311.461 0.100025 -3.1244 0
M  V30 3368 H 310.681 -2.38563 -3.13817 0
M  V30 3369 H 311.969 -2.69403 -4.31624 0
M  V30 3370 H 311.367 0.192319 -5.65373 0
M  V30 3371 H 309.924 -0.162912 -6.51596 0
M  V30 3372 N 313.357 1.07166 -1.15556 0
M  V30 3373 C 314.307 2.12649 -0.82247 0
M  V30 3374 C 315.291 1.59725 0.194129 0
M  V30 3375 O 316.483 1.76999 -0.00540402 0
M  V30 3376 C 313.612 3.41847 -0.315572 0
M  V30 3377 C 312.698 4.0162 -1.36244 0
M  V30 3378 N 313.089 4.35625 -2.5703 0
M  V30 3379 C 311.387 4.29114 -1.21562 0
M  V30 3380 C 312.088 4.83017 -3.24144 0
M  V30 3381 N 311.064 4.81906 -2.51531 0
M  V30 3382 H 314.866 2.36776 -1.74111 0
M  V30 3383 H 312.38 1.24622 -1.0413 0
M  V30 3384 H 314.377 4.16859 -0.0585855 0
M  V30 3385 H 313.037 3.19163 0.597105 0
M  V30 3386 H 314.048 4.26253 -2.94158 0
M  V30 3387 H 310.725 4.15919 -0.362988 0
M  V30 3388 H 312.115 5.18605 -4.27198 0
M  V30 3389 N 314.835 0.952656 1.25548 0
M  V30 3390 C 316.084 0.602053 1.92505 0
M  V30 3391 C 316.397 -0.864663 1.75451 0
M  V30 3392 O 317.603 -1.32514 2.36965 0
M  V30 3393 C 316.059 1.02607 3.44963 0
M  V30 3394 C 315.667 2.51519 3.70732 0
M  V30 3395 C 317.411 0.747905 4.1786 0
M  V30 3396 C 315.318 2.87732 5.16686 0
M  V30 3397 H 314.248 0.22146 0.720744 0
M  V30 3398 H 316.899 1.15684 1.42441 0
M  V30 3399 H 315.281 0.399712 3.93978 0
M  V30 3400 H 316.455 3.19157 3.32378 0
M  V30 3401 H 314.77 2.76786 3.11092 0
M  V30 3402 H 317.367 0.994647 5.25367 0
M  V30 3403 H 317.71 -0.315629 4.15102 0
M  V30 3404 H 318.243 1.33452 3.74747 0
M  V30 3405 H 314.982 3.93095 5.24554 0
M  V30 3406 H 314.502 2.24765 5.56094 0
M  V30 3407 H 316.181 2.76817 5.84792 0
M  V30 3408 N 316.313 -1.40141 0.720998 0
M  V30 3409 C 317.261 -2.3252 0.0608547 0
M  V30 3410 C 318.255 -1.52326 -0.741152 0
M  V30 3411 O 319.461 -1.68089 -0.643911 0
M  V30 3412 H 315.836 -0.751999 0.000876664 0
M  V30 3413 H 317.807 -2.8584 0.856614 0
M  V30 3414 C 316.556 -3.37331 -0.842809 0
M  V30 3415 H 315.879 -3.99108 -0.235084 0
M  V30 3416 H 317.319 -4.04452 -1.27257 0
M  V30 3417 C 315.778 -2.73246 -1.97074 0
M  V30 3418 O 316.308 -2.59998 -3.06209 0
M  V30 3419 N 314.514 -2.31547 -1.75597 0
M  V30 3420 H 314.061 -2.42522 -0.868368 0
M  V30 3421 H 314.019 -1.89007 -2.51244 0
M  V30 3422 N 317.792 -0.46758 -1.50504 0
M  V30 3423 C 318.739 0.328413 -2.28452 0
M  V30 3424 C 319.709 0.990313 -1.33349 0
M  V30 3425 O 320.894 1.00343 -1.62284 0
M  V30 3426 C 318.034 1.40648 -3.15138 0
M  V30 3427 C 317.147 0.759709 -4.25267 0
M  V30 3428 C 316.282 1.81537 -4.99217 0
M  V30 3429 C 315.321 1.14866 -6.01226 0
M  V30 3430 N 314.458 2.14702 -6.68467 0
M  V30 3431 H 319.298 -0.342603 -2.96024 0
M  V30 3432 H 316.835 -0.180801 -1.45985 0
M  V30 3433 H 318.793 2.04315 -3.63746 0
M  V30 3434 H 317.423 2.04671 -2.49619 0
M  V30 3435 H 316.475 0.0105671 -3.80399 0
M  V30 3436 H 317.787 0.233243 -4.98254 0
M  V30 3437 H 316.941 2.52793 -5.51526 0
M  V30 3438 H 315.68 2.37564 -4.25928 0
M  V30 3439 H 314.685 0.42171 -5.4818 0
M  V30 3440 H 315.91 0.595334 -6.76485 0
M  V30 3441 H 313.856 2.69752 -5.97972 0
M  V30 3442 H 313.773 1.6703 -7.37317 0
M  V30 3443 H 315.041 2.85348 -7.25394 0
M  V30 3444 N 319.27 1.56325 -0.20005 0
M  V30 3445 C 320.2 2.22318 0.713916 0
M  V30 3446 C 321.181 1.18788 1.21752 0
M  V30 3447 O 322.366 1.47309 1.26545 0
M  V30 3448 C 319.496 2.88639 1.93144 0
M  V30 3449 C 318.45 3.98457 1.56255 0
M  V30 3450 C 317.776 4.51967 2.85709 0
M  V30 3451 C 319.076 5.16612 0.768747 0
M  V30 3452 H 320.77 2.98952 0.163755 0
M  V30 3453 H 318.316 1.43792 0.0773219 0
M  V30 3454 H 320.269 3.33491 2.57608 0
M  V30 3455 H 318.993 2.09419 2.50621 0
M  V30 3456 H 317.652 3.54305 0.941471 0
M  V30 3457 H 317.3 3.69503 3.41287 0
M  V30 3458 H 317 5.26071 2.6177 0
M  V30 3459 H 318.524 4.99523 3.51154 0
M  V30 3460 H 319.938 5.57977 1.3166 0
M  V30 3461 H 318.335 5.96812 0.627286 0
M  V30 3462 H 319.405 4.84358 -0.229168 0
M  V30 3463 N 320.748 -0.0735177 1.57428 0
M  V30 3464 C 321.978 -0.78483 1.91112 0
M  V30 3465 C 322.386 -1.71729 0.7941 0
M  V30 3466 O 321.729 -1.82105 -0.241542 0
M  V30 3467 C 321.791 -1.63346 3.20247 0
M  V30 3468 C 321.455 -0.870557 4.48632 0
M  V30 3469 C 322.452 -0.19058 5.19551 0
M  V30 3470 C 320.137 -0.838242 4.95256 0
M  V30 3471 C 322.131 0.511503 6.35344 0
M  V30 3472 C 319.818 -0.132386 6.10957 0
M  V30 3473 C 320.816 0.541288 6.80852 0
M  V30 3474 O 320.504 1.23578 7.94345 0
M  V30 3475 H 320.236 -0.228408 0.636244 0
M  V30 3476 H 322.79 -0.0486039 2.05342 0
M  V30 3477 H 321.02 -2.41245 3.02222 0
M  V30 3478 H 322.709 -2.22329 3.39595 0
M  V30 3479 H 323.475 -0.206864 4.84559 0
M  V30 3480 H 319.354 -1.35206 4.40727 0
M  V30 3481 H 322.898 1.03789 6.89836 0
M  V30 3482 H 318.795 -0.114023 6.45399 0
M  V30 3483 H 319.563 1.14487 8.10454 0
M  V30 3484 N 322.226 -1.5378 -0.344866 0
M  V30 3485 C 323.173 -1.81676 -1.42346 0
M  V30 3486 C 324.143 -0.662376 -1.52321 0
M  V30 3487 O 325.328 -0.906675 -1.67881 0
M  V30 3488 C 322.468 -2.03087 -2.79015 0
M  V30 3489 C 321.581 -3.30799 -2.77842 0
M  V30 3490 C 320.716 -3.42285 -4.0622 0
M  V30 3491 C 319.755 -4.6395 -3.9927 0
M  V30 3492 N 318.892 -4.72477 -5.19336 0
M  V30 3493 H 323.732 -2.73703 -1.17858 0
M  V30 3494 H 321.269 -1.35568 -0.570949 0
M  V30 3495 H 323.227 -2.1349 -3.58438 0
M  V30 3496 H 321.857 -1.14375 -3.01858 0
M  V30 3497 H 320.909 -3.29244 -1.90533 0
M  V30 3498 H 322.221 -4.20314 -2.68584 0
M  V30 3499 H 321.375 -3.52113 -4.94066 0
M  V30 3500 H 320.114 -2.50823 -4.18258 0
M  V30 3501 H 319.119 -4.54201 -3.09809 0
M  V30 3502 H 320.344 -5.56775 -3.88817 0
M  V30 3503 H 318.29 -3.83924 -5.3192 0
M  V30 3504 H 318.207 -5.55927 -5.12329 0
M  V30 3505 H 319.475 -4.86613 -6.08957 0
M  V30 3506 N 323.704 0.605807 -1.45491 0
M  V30 3507 C 324.614 1.74466 -1.56839 0
M  V30 3508 C 325.63 1.68006 -0.452772 0
M  V30 3509 O 326.806 1.8833 -0.713708 0
M  V30 3510 C 323.871 3.10931 -1.53371 0
M  V30 3511 C 322.932 3.28832 -2.75986 0
M  V30 3512 C 322.165 4.58787 -2.72673 0
M  V30 3513 O 322.388 5.4122 -1.80102 0
M  V30 3514 O 321.322 4.79438 -3.63899 0
M  V30 3515 H 325.148 1.67843 -2.53106 0
M  V30 3516 H 322.733 0.770108 -1.28022 0
M  V30 3517 H 324.615 3.92233 -1.54051 0
M  V30 3518 H 323.29 3.18042 -0.602572 0
M  V30 3519 H 322.197 2.47112 -2.80867 0
M  V30 3520 H 323.53 3.26599 -3.68231 0
M  V30 3521 N 325.182 1.32811 0.848464 0
M  V30 3522 C 326.431 1.23075 1.59798 0
M  V30 3523 C 326.744 -0.204419 1.94529 0
M  V30 3524 O 327.95 -0.423701 2.68173 0
M  V30 3525 C 326.406 2.15594 2.88179 0
M  V30 3526 C 326.014 3.64228 2.60849 0
M  V30 3527 C 327.758 2.14709 3.66197 0
M  V30 3528 C 325.665 4.48689 3.85269 0
M  V30 3529 H 324.595 0.457091 0.599653 0
M  V30 3530 H 327.246 1.57813 0.936342 0
M  V30 3531 H 325.628 1.73778 3.55833 0
M  V30 3532 H 326.802 4.14424 2.01467 0
M  V30 3533 H 325.117 3.67306 1.96151 0
M  V30 3534 H 327.714 2.75046 4.58534 0
M  V30 3535 H 328.057 1.13966 4.00397 0
M  V30 3536 H 328.59 2.54837 3.05455 0
M  V30 3537 H 325.329 5.5027 3.56207 0
M  V30 3538 H 324.849 4.03241 4.44024 0
M  V30 3539 H 326.528 4.62006 4.52946 0
M  V30 3540 N 326.66 -1.06551 1.16123 0
M  V30 3541 C 327.608 -2.16063 0.861371 0
M  V30 3542 C 328.602 -1.6856 -0.168517 0
M  V30 3543 O 329.808 -1.79986 -0.0227579 0
M  V30 3544 H 326.183 -0.705278 0.260934 0
M  V30 3545 H 328.154 -2.38567 1.79244 0
M  V30 3546 C 326.903 -3.45661 0.376018 0
M  V30 3547 H 326.226 -3.82604 1.15992 0
M  V30 3548 H 327.666 -4.23504 0.204951 0
M  V30 3549 C 326.125 -3.24546 -0.903954 0
M  V30 3550 O 326.655 -3.49865 -1.97377 0
M  V30 3551 N 324.861 -2.77992 -0.846679 0
M  V30 3552 H 324.408 -2.57589 0.0241017 0
M  V30 3553 H 324.366 -2.64244 -1.70359 0
M  V30 3554 N 328.138 -0.959301 -1.25041 0
M  V30 3555 C 329.068 -0.501388 -2.28053 0
M  V30 3556 C 330.049 0.454673 -1.63911 0
M  V30 3557 O 331.234 0.352618 -1.90972 0
M  V30 3558 C 328.364 0.217224 -3.4662 0
M  V30 3559 C 327.318 -0.654034 -4.22973 0
M  V30 3560 C 326.644 0.195589 -5.34342 0
M  V30 3561 C 327.944 -1.93447 -4.85155 0
M  V30 3562 H 329.638 -1.36238 -2.66608 0
M  V30 3563 H 327.184 -0.656534 -1.28163 0
M  V30 3564 H 329.137 0.548732 -4.17812 0
M  V30 3565 H 327.861 1.1125 -3.07068 0
M  V30 3566 H 326.52 -0.968693 -3.5357 0
M  V30 3567 H 326.168 1.09076 -4.91031 0
M  V30 3568 H 325.868 -0.384091 -5.86343 0
M  V30 3569 H 327.392 0.521958 -6.08365 0
M  V30 3570 H 328.806 -1.66908 -5.48466 0
M  V30 3571 H 327.203 -2.46018 -5.47353 0
M  V30 3572 H 328.273 -2.63466 -4.07079 0
M  V30 3573 N 329.616 1.39756 -0.72842 0
M  V30 3574 C 330.863 2.00645 -0.273487 0
M  V30 3575 C 331.191 1.57786 1.13727 0
M  V30 3576 O 330.446 0.794886 1.7883 0
M  V30 3577 C 330.745 3.56002 -0.315776 0
M  V30 3578 C 330.411 4.18489 -1.67863 0
M  V30 3579 C 329.073 4.3527 -2.05166 0
M  V30 3580 C 331.425 4.53219 -2.57375 0
M  V30 3581 C 328.753 4.84069 -3.31503 0
M  V30 3582 C 331.105 5.03423 -3.83077 0
M  V30 3583 C 329.769 5.18413 -4.20481 0
M  V30 3584 H 329.039 0.734211 -0.100076 0
M  V30 3585 H 331.686 1.6718 -0.933972 0
M  V30 3586 H 329.991 3.89452 0.428285 0
M  V30 3587 H 331.688 4.00963 0.0542575 0
M  V30 3588 H 328.278 4.05824 -1.37858 0
M  V30 3589 H 332.462 4.39878 -2.29827 0
M  V30 3590 H 327.718 4.93859 -3.60435 0
M  V30 3591 H 331.892 5.2927 -4.52599 0
M  V30 3592 H 329.519 5.55987 -5.18443 0
M  V30 3593 N 331.094 0.475555 1.50254 0
M  V30 3594 C 332.371 -0.139685 1.95101 0
M  V30 3595 C 332.751 -1.56555 1.41611 0
M  V30 3596 O 332.099 -2.19956 0.618993 0
M  V30 3597 C 332.309 -0.0784298 3.48912 0
M  V30 3598 C 333.657 -0.265095 4.23772 0
M  V30 3599 O 334.681 -0.154808 3.55863 0
M  V30 3600 O 333.54 -0.488327 5.44314 0
M  V30 3601 H 330.634 -0.109236 0.819754 0
M  V30 3602 H 333.18 0.536276 1.61004 0
M  V30 3603 H 331.952 0.916918 3.80405 0
M  V30 3604 H 331.575 -0.795655 3.89558 0
M  V30 3605 N 332.573 -1.56217 0.208337 0
M  V30 3606 C 333.984 -1.84243 -0.301904 0
M  V30 3607 C 334.335 -1.12939 -1.60434 0
M  V30 3608 O 333.46 -0.39461 -2.12772 0
M  V30 3609 C 334.055 -3.34231 -0.554543 0
M  V30 3610 C 332.614 -3.62621 -1.00912 0
M  V30 3611 C 331.761 -2.77224 -0.064933 0
M  V30 3612 H 334.712 -1.52712 0.431833 0
M  V30 3613 H 334.733 -3.5372 -1.40223 0
M  V30 3614 H 334.245 -3.86099 0.393561 0
M  V30 3615 H 332.346 -3.16197 -1.97104 0
M  V30 3616 H 332.459 -4.7071 -0.892674 0
M  V30 3617 H 330.823 -2.48256 -0.56929 0
M  V30 3618 H 331.606 -3.31887 0.877851 0
M  V30 3619 N 334.051 0.0651679 -1.57465 0
M  V30 3620 C 335.299 0.761555 -1.87202 0
M  V30 3621 C 335.62 1.77778 -0.801243 0
M  V30 3622 O 334.89 1.95166 0.16937 0
M  V30 3623 H 333.47 0.284251 -0.690804 0
M  V30 3624 H 336.132 0.0396827 -1.9486 0
M  V30 3625 H 335.228 1.27365 -2.84929 0
M  V30 3626 N 335.529 1.53961 0.336706 0
M  V30 3627 C 336.477 1.83136 1.43401 0
M  V30 3628 C 337.471 0.702313 1.54156 0
M  V30 3629 O 338.677 0.885765 1.56698 0
M  V30 3630 H 335.052 0.580309 0.478273 0
M  V30 3631 H 337.023 2.74925 1.16012 0
M  V30 3632 C 335.772 2.06385 2.79822 0
M  V30 3633 H 335.095 2.92718 2.72316 0
M  V30 3634 H 336.535 2.30761 3.55704 0
M  V30 3635 C 334.994 0.851414 3.25964 0
M  V30 3636 O 335.524 0.0541904 4.01663 0
M  V30 3637 N 333.73 0.66672 2.82848 0
M  V30 3638 H 333.277 1.31665 2.21409 0
M  V30 3639 H 333.235 -0.143032 3.14074 0
M  V30 3640 N 337.007 -0.598083 1.45811 0
M  V30 3641 C 338.256 -1.35295 1.49594 0
M  V30 3642 C 338.569 -1.95057 0.145679 0
M  V30 3643 O 339.775 -2.71431 0.0612099 0
M  V30 3644 C 338.231 -2.45124 2.63519 0
M  V30 3645 C 337.839 -1.91732 4.04899 0
M  V30 3646 C 339.583 -3.2205 2.76558 0
M  V30 3647 C 337.49 -2.991 5.1019 0
M  V30 3648 H 336.42 -0.508552 0.556679 0
M  V30 3649 H 339.071 -0.639977 1.71978 0
M  V30 3650 H 337.453 -3.19149 2.34435 0
M  V30 3651 H 338.627 -1.24352 4.43704 0
M  V30 3652 H 336.942 -1.27522 3.96393 0
M  V30 3653 H 339.539 -4.0215 3.52391 0
M  V30 3654 H 339.882 -3.73663 1.83526 0
M  V30 3655 H 340.415 -2.55127 3.05213 0
M  V30 3656 H 337.154 -2.52393 6.04961 0
M  V30 3657 H 336.674 -3.65017 4.75944 0
M  V30 3658 H 338.353 -3.63318 5.35359 0
M  V30 3659 N 338.485 -1.33259 -0.841409 0
M  V30 3660 C 339.762 -1.15174 -1.58096 0
M  V30 3661 C 340.142 0.282858 -2.09196 0
M  V30 3662 O 339.49 1.28151 -1.89181 0
M  V30 3663 C 339.7 -2.1907 -2.71679 0
M  V30 3664 C 341.048 -2.53093 -3.40924 0
M  V30 3665 O 342.072 -2.17717 -2.81918 0
M  V30 3666 O 340.931 -3.1379 -4.47435 0
M  V30 3667 H 338.025 -0.445303 -0.696875 0
M  V30 3668 H 340.571 -1.44833 -0.884385 0
M  V30 3669 H 339.343 -3.15443 -2.31541 0
M  V30 3670 H 338.966 -1.90481 -3.49002 0
M  V30 3671 N 339.963 1.05934 -1.16686 0
M  V30 3672 C 341.191 1.8249 -0.974929 0
M  V30 3673 C 341.606 1.82679 0.476861 0
M  V30 3674 O 340.963 1.2486 1.33103 0
M  V30 3675 C 341.014 3.28943 -1.49929 0
M  V30 3676 O 340.735 3.28886 -2.89423 0
M  V30 3677 C 342.236 4.22215 -1.35089 0
M  V30 3678 H 339.456 0.575295 -0.345365 0
M  V30 3679 H 342 1.33631 -1.548 0
M  V30 3680 H 340.155 3.751 -0.968423 0
M  V30 3681 H 340.569 4.20493 -3.13506 0
M  V30 3682 H 342.043 5.22987 -1.76603 0
M  V30 3683 H 342.52 4.38195 -0.296935 0
M  V30 3684 H 343.126 3.81907 -1.87155 0
M  V30 3685 N 341.441 0.965919 1.2453 0
M  V30 3686 C 342.371 0.513476 2.27784 0
M  V30 3687 C 343.352 -0.445974 1.6415 0
M  V30 3688 O 344.537 -0.342485 1.91156 0
M  V30 3689 C 341.667 -0.198839 3.4673 0
M  V30 3690 C 340.621 0.676456 4.2262 0
M  V30 3691 C 339.947 -0.167248 5.34438 0
M  V30 3692 C 341.247 1.96017 4.84123 0
M  V30 3693 H 342.941 1.3765 2.65881 0
M  V30 3694 H 340.487 0.663321 1.27813 0
M  V30 3695 H 342.44 -0.526567 4.18097 0
M  V30 3696 H 341.164 -1.0962 3.07654 0
M  V30 3697 H 339.823 0.98743 3.53052 0
M  V30 3698 H 339.471 -1.0647 4.91603 0
M  V30 3699 H 339.171 0.415181 5.86131 0
M  V30 3700 H 340.695 -0.489688 6.08633 0
M  V30 3701 H 342.109 1.69814 5.47573 0
M  V30 3702 H 340.506 2.48918 5.4604 0
M  V30 3703 H 341.576 2.65622 4.05676 0
M  V30 3704 N 342.919 -1.39368 0.735821 0
M  V30 3705 C 343.866 -2.30599 0.0963825 0
M  V30 3706 C 344.836 -1.49257 -0.728794 0
M  V30 3707 O 346.021 -1.77941 -0.688588 0
M  V30 3708 C 343.161 -3.35596 -0.804305 0
M  V30 3709 C 342.274 -4.31987 0.0335761 0
M  V30 3710 C 341.409 -5.24053 -0.868461 0
M  V30 3711 C 340.448 -6.12095 -0.0258776 0
M  V30 3712 N 339.585 -6.96514 -0.883893 0
M  V30 3713 H 344.425 -2.8471 0.880002 0
M  V30 3714 H 341.962 -1.40188 0.445619 0
M  V30 3715 H 343.92 -3.95062 -1.34096 0
M  V30 3716 H 342.55 -2.82938 -1.55389 0
M  V30 3717 H 341.602 -3.74133 0.68766 0
M  V30 3718 H 342.914 -4.94074 0.685036 0
M  V30 3719 H 342.068 -5.88549 -1.47293 0
M  V30 3720 H 340.807 -4.62289 -1.5537 0
M  V30 3721 H 339.812 -5.4661 0.591386 0
M  V30 3722 H 341.037 -6.75923 0.656156 0
M  V30 3723 H 338.983 -6.37318 -1.55441 0
M  V30 3724 H 338.9 -7.55448 -0.288931 0
M  V30 3725 H 340.168 -7.65439 -1.4739 0
M  V30 3726 N 344.397 -0.483516 -1.5 0
M  V30 3727 C 345.627 0.0643896 -2.065 0
M  V30 3728 C 346.035 1.32949 -1.34615 0
M  V30 3729 O 345.378 1.79003 -0.412756 0
M  V30 3730 C 345.44 0.405983 -3.572 0
M  V30 3731 C 345.104 -0.758875 -4.50655 0
M  V30 3732 C 346.101 -1.64445 -4.93208 0
M  V30 3733 C 343.786 -0.952725 -4.93182 0
M  V30 3734 C 345.78 -2.70818 -5.77006 0
M  V30 3735 C 343.467 -2.01966 -5.76761 0
M  V30 3736 C 344.465 -2.89574 -6.18576 0
M  V30 3737 O 344.153 -3.94429 -7.00486 0
M  V30 3738 H 343.885 -0.00934786 -0.675935 0
M  V30 3739 H 346.439 -0.674959 -1.93993 0
M  V30 3740 H 344.669 1.19869 -3.67652 0
M  V30 3741 H 346.358 0.890433 -3.96013 0
M  V30 3742 H 347.124 -1.50643 -4.61012 0
M  V30 3743 H 343.003 -0.280247 -4.60147 0
M  V30 3744 H 346.547 -3.3923 -6.09565 0
M  V30 3745 H 342.444 -2.1577 -6.0837 0
M  V30 3746 H 343.212 -3.91568 -7.1876 0
M  V30 3747 N 345.875 1.56104 -0.216619 0
M  V30 3748 C 347.121 1.98466 0.417033 0
M  V30 3749 C 347.454 1.10403 1.59765 0
M  V30 3750 O 346.729 0.160632 1.93836 0
M  V30 3751 C 347.012 3.49769 0.85637 0
M  V30 3752 C 346.865 4.48606 -0.327546 0
M  V30 3753 C 348.184 4.05339 1.7143 0
M  V30 3754 H 345.303 0.721551 0.150112 0
M  V30 3755 H 347.945 1.87423 -0.311864 0
M  V30 3756 H 346.095 3.5931 1.47745 0
M  V30 3757 H 347.767 4.5108 -0.965618 0
M  V30 3758 H 346.01 4.22682 -0.975805 0
M  V30 3759 H 346.681 5.51995 0.0227149 0
M  V30 3760 H 349.157 3.98712 1.19031 0
M  V30 3761 H 348.033 5.11533 1.99061 0
M  V30 3762 H 348.294 3.51918 2.67593 0
M  V30 3763 N 347.353 -0.0568162 1.57498 0
M  V30 3764 C 348.593 -0.758273 1.89815 0
M  V30 3765 C 348.957 -1.73978 0.812132 0
M  V30 3766 O 350.158 -2.48744 1.01881 0
M  V30 3767 C 348.429 -1.43465 3.27342 0
M  V30 3768 S 349.988 -2.1691 3.81439 0
M  V30 3769 H 346.806 -0.251836 0.664906 0
M  V30 3770 H 349.408 -0.0137997 1.95495 0
M  V30 3771 H 348.112 -0.706693 4.0427 0
M  V30 3772 H 347.643 -2.21825 3.24896 0
M  V30 3773 H 349.658 -3.43658 3.5793 0
M  V30 3774 N 348.832 -1.54138 -0.328536 0
M  V30 3775 C 349.78 -1.83894 -1.42428 0
M  V30 3776 C 350.774 -0.710478 -1.53781 0
M  V30 3777 O 351.98 -0.894062 -1.56226 0
M  V30 3778 H 348.355 -0.582837 -0.475189 0
M  V30 3779 H 350.326 -2.75537 -1.14552 0
M  V30 3780 C 349.075 -2.07866 -2.78724 0
M  V30 3781 H 348.398 -2.94158 -2.7076 0
M  V30 3782 H 349.838 -2.32644 -3.54476 0
M  V30 3783 C 348.297 -0.868689 -3.25508 0
M  V30 3784 O 348.827 -0.0754908 -4.01629 0
M  V30 3785 N 347.033 -0.681711 -2.82491 0
M  V30 3786 H 346.58 -1.32838 -2.20708 0
M  V30 3787 H 346.538 0.126374 -3.14146 0
M  V30 3788 N 350.31 0.590341 -1.46126 0
M  V30 3789 C 351.26 1.69466 -1.5253 0
M  V30 3790 C 352.244 1.56179 -0.386917 0
M  V30 3791 O 353.436 1.65223 -0.634858 0
M  V30 3792 C 350.565 3.08245 -1.5113 0
M  V30 3793 C 349.651 3.26856 -2.70233 0
M  V30 3794 N 350.042 3.15657 -3.95214 0
M  V30 3795 C 348.34 3.57775 -2.66296 0
M  V30 3796 C 349.041 3.36066 -4.74799 0
M  V30 3797 N 348.017 3.60865 -4.06543 0
M  V30 3798 H 351.819 1.59326 -2.46966 0
M  V30 3799 H 349.333 0.79414 -1.41659 0
M  V30 3800 H 351.33 3.87492 -1.53804 0
M  V30 3801 H 349.99 3.19521 -0.577636 0
M  V30 3802 H 351.001 2.93686 -4.26578 0
M  V30 3803 H 347.678 3.75782 -1.81918 0
M  V30 3804 H 349.068 3.32655 -5.83772 0
M  V30 3805 N 351.788 1.33704 0.83433 0
M  V30 3806 C 353.035 1.25417 1.58987 0
M  V30 3807 C 353.363 -0.178869 1.93676 0
M  V30 3808 O 352.618 -1.13723 1.59265 0
M  V30 3809 C 352.917 2.07926 2.90692 0
M  V30 3810 C 352.583 3.57066 2.75345 0
M  V30 3811 C 351.245 3.97724 2.70867 0
M  V30 3812 C 353.597 4.51817 2.59828 0
M  V30 3813 C 350.925 5.31344 2.48778 0
M  V30 3814 C 353.277 5.85604 2.39272 0
M  V30 3815 C 351.941 6.25439 2.33199 0
M  V30 3816 H 351.211 0.458934 0.581774 0
M  V30 3817 H 353.858 1.65335 0.966261 0
M  V30 3818 H 352.163 1.608 3.57282 0
M  V30 3819 H 353.86 1.98868 3.48213 0
M  V30 3820 H 350.45 3.24785 2.79665 0
M  V30 3821 H 354.634 4.21311 2.62319 0
M  V30 3822 H 349.89 5.61241 2.42526 0
M  V30 3823 H 354.064 6.58623 2.2625 0
M  V30 3824 H 351.691 7.28914 2.15843 0
M  V30 3825 N 353.266 -1.05314 1.17247 0
M  V30 3826 C 354.515 -1.77685 0.954521 0
M  V30 3827 C 354.828 -1.88616 -0.518025 0
M  V30 3828 O 356.034 -2.57714 -0.854144 0
M  V30 3829 C 354.49 -3.19402 1.65863 0
M  V30 3830 C 354.098 -3.16605 3.16963 0
M  V30 3831 C 355.842 -3.96237 1.52303 0
M  V30 3832 C 353.749 -4.53103 3.80068 0
M  V30 3833 H 352.679 -0.666 0.353496 0
M  V30 3834 H 355.33 -1.1805 1.40486 0
M  V30 3835 H 353.712 -3.79355 1.13602 0
M  V30 3836 H 354.886 -2.66176 3.76148 0
M  V30 3837 H 353.201 -2.53268 3.30521 0
M  V30 3838 H 355.798 -4.97157 1.96822 0
M  V30 3839 H 356.141 -4.136 0.473401 0
M  V30 3840 H 356.674 -3.42829 2.01775 0
M  V30 3841 H 353.413 -4.40946 4.85023 0
M  V30 3842 H 352.933 -5.03686 3.2567 0
M  V30 3843 H 354.612 -5.22045 3.82202 0
M  V30 3844 N 354.744 -0.972509 -1.24016 0
M  V30 3845 C 356.16 -0.679827 -1.44397 0
M  V30 3846 C 356.36 0.756716 -1.86751 0
M  V30 3847 O 355.416 1.53007 -2.00861 0
M  V30 3848 C 356.729 -1.66803 -2.50195 0
M  V30 3849 C 358.277 -1.68119 -2.64017 0
M  V30 3850 C 358.752 -2.65748 -3.73017 0
M  V30 3851 N 360.243 -2.64219 -3.8045 0
M  V30 3852 C 360.978 -3.36433 -4.64328 0
M  V30 3853 N 360.474 -4.1818 -5.52356 0
M  V30 3854 N 362.267 -3.25235 -4.58453 0
M  V30 3855 H 354.418 -1.90059 -0.948228 0
M  V30 3856 H 356.681 -0.818527 -0.478245 0
M  V30 3857 H 356.387 -2.69498 -2.25973 0
M  V30 3858 H 356.261 -1.4446 -3.48441 0
M  V30 3859 H 358.648 -0.661319 -2.87594 0
M  V30 3860 H 358.729 -1.94525 -1.66113 0
M  V30 3861 H 358.373 -3.67872 -3.50189 0
M  V30 3862 H 358.303 -2.36619 -4.70446 0
M  V30 3863 H 360.794 -2.04887 -3.17537 0
M  V30 3864 H 361.107 -4.70157 -6.13329 0
M  V30 3865 H 359.452 -4.22273 -5.52006 0
M  V30 3866 H 362.643 -2.60829 -3.88698 0
M  V30 3867 H 362.816 -3.81776 -5.23594 0
M  V30 3868 N 356.222 1.38976 -0.743202 0
M  V30 3869 C 357.468 2.0064 -0.295189 0
M  V30 3870 C 357.801 1.5885 1.11716 0
M  V30 3871 O 357.076 0.821181 1.76315 0
M  V30 3872 C 357.359 3.578 -0.406318 0
M  V30 3873 C 357.212 4.09586 -1.85903 0
M  V30 3874 C 358.531 4.39616 0.206439 0
M  V30 3875 H 355.65 0.728935 -0.108733 0
M  V30 3876 H 358.292 1.65067 -0.940897 0
M  V30 3877 H 356.442 3.88235 0.143419 0
M  V30 3878 H 358.114 3.89837 -2.46627 0
M  V30 3879 H 356.357 3.6284 -2.3776 0
M  V30 3880 H 357.028 5.18708 -1.888 0
M  V30 3881 H 359.504 4.15273 -0.262283 0
M  V30 3882 H 358.38 5.48812 0.0983819 0
M  V30 3883 H 358.641 4.22754 1.2935 0
M  V30 3884 N 357.7 0.491464 1.49741 0
M  V30 3885 C 358.949 -0.0582189 2.01616 0
M  V30 3886 C 359.262 -1.38927 1.3769 0
M  V30 3887 O 360.468 -2.02509 1.80838 0
M  V30 3888 C 358.924 -0.154235 3.59569 0
M  V30 3889 C 358.532 1.1696 4.32463 0
M  V30 3890 C 360.276 -0.65479 4.1942 0
M  V30 3891 C 358.183 1.03627 5.8225 0
M  V30 3892 H 357.113 -0.0255317 0.753568 0
M  V30 3893 H 359.764 0.629445 1.72367 0
M  V30 3894 H 358.146 -0.906138 3.85493 0
M  V30 3895 H 359.32 1.93405 4.18248 0
M  V30 3896 H 357.635 1.60285 3.84315 0
M  V30 3897 H 360.232 -0.771903 5.29099 0
M  V30 3898 H 360.575 -1.65127 3.8215 0
M  V30 3899 H 361.108 0.040304 3.9778 0
M  V30 3900 H 357.847 2.00672 6.24028 0
M  V30 3901 H 357.367 0.312546 5.98985 0
M  V30 3902 H 359.046 0.711114 6.4308 0
M  V30 3903 N 359.178 -1.55987 0.224894 0
M  V30 3904 C 360.125 -2.20436 -0.68385 0
M  V30 3905 C 361.095 -1.16102 -1.18783 0
M  V30 3906 O 362.28 -1.4447 -1.24632 0
M  V30 3907 C 359.42 -2.89076 -1.88491 0
M  V30 3908 C 358.533 -4.08012 -1.41951 0
M  V30 3909 C 357.668 -4.64426 -2.5784 0
M  V30 3910 C 356.707 -5.75656 -2.08053 0
M  V30 3911 N 355.844 -6.26347 -3.17227 0
M  V30 3912 H 360.684 -2.97727 -0.12754 0
M  V30 3913 H 358.221 -1.47011 -0.0511978 0
M  V30 3914 H 360.179 -3.27059 -2.59014 0
M  V30 3915 H 358.809 -2.14298 -2.41405 0
M  V30 3916 H 357.861 -3.75492 -0.609095 0
M  V30 3917 H 359.173 -4.88375 -1.01447 0
M  V30 3918 H 358.327 -5.04869 -3.3644 0
M  V30 3919 H 357.066 -3.83233 -3.01635 0
M  V30 3920 H 356.071 -5.34712 -1.27916 0
M  V30 3921 H 357.296 -6.58686 -1.65255 0
M  V30 3922 H 355.242 -5.48067 -3.60497 0
M  V30 3923 H 355.159 -7.01843 -2.80986 0
M  V30 3924 H 356.427 -6.71447 -3.95953 0
M  V30 3925 N 360.656 0.0484629 -1.57525 0
M  V30 3926 C 361.586 1.0549 -2.08313 0
M  V30 3927 C 362.567 1.38929 -0.981463 0
M  V30 3928 O 363.752 1.48151 -1.25558 0
M  V30 3929 C 360.882 2.36162 -2.54646 0
M  V30 3930 C 359.836 2.17016 -3.68901 0
M  V30 3931 C 359.162 3.53278 -4.01371 0
M  V30 3932 C 360.462 1.57219 -4.98076 0
M  V30 3933 H 362.156 0.632195 -2.92649 0
M  V30 3934 H 359.702 0.302654 -1.40784 0
M  V30 3935 H 361.655 3.06882 -2.88793 0
M  V30 3936 H 360.379 2.80456 -1.67368 0
M  V30 3937 H 359.038 1.48733 -3.35073 0
M  V30 3938 H 358.686 3.95185 -3.11188 0
M  V30 3939 H 358.386 3.41299 -4.78318 0
M  V30 3940 H 359.91 4.25391 -4.38035 0
M  V30 3941 H 361.324 2.17832 -5.30304 0
M  V30 3942 H 359.721 1.55871 -5.79503 0
M  V30 3943 H 360.791 0.535956 -4.81929 0
M  V30 3944 N 362.134 1.5431 0.320358 0
M  V30 3945 C 363.082 1.84647 1.4145 0
M  V30 3946 C 364.076 0.718624 1.53402 0
M  V30 3947 O 365.282 0.902335 1.5575 0
M  V30 3948 H 361.657 0.585349 0.472091 0
M  V30 3949 H 363.628 2.7614 1.13089 0
M  V30 3950 C 362.377 2.09341 2.77617 0
M  V30 3951 H 361.7 2.9559 2.69196 0
M  V30 3952 H 363.14 2.3452 3.53237 0
M  V30 3953 C 361.599 0.885939 3.25043 0
M  V30 3954 O 362.129 0.0967891 4.01583 0
M  V30 3955 N 360.335 0.696682 2.82125 0
M  V30 3956 H 359.882 1.34006 2.2 0
M  V30 3957 H 359.84 -0.109712 3.14209 0
M  V30 3958 N 363.613 -0.582584 1.46437 0
M  V30 3959 C 364.561 -1.71272 1.5738 0
M  V30 3960 C 365.555 -1.63524 0.44229 0
M  V30 3961 O 366.761 -1.69016 0.619166 0
M  V30 3962 H 363.136 -0.566273 0.494813 0
M  V30 3963 H 365.107 -1.59174 2.52401 0
M  V30 3964 C 363.856 -3.09658 1.58136 0
M  V30 3965 H 363.179 -3.16291 2.44541 0
M  V30 3966 H 364.619 -3.88494 1.69847 0
M  V30 3967 C 363.078 -3.3547 0.310026 0
M  V30 3968 O 363.608 -3.97199 -0.599683 0
M  V30 3969 N 361.814 -2.89925 0.197901 0
M  V30 3970 H 361.361 -2.39873 0.93909 0
M  V30 3971 H 361.319 -3.07568 -0.65185 0
M  V30 3972 N 365.091 -1.34144 -0.827227 0
M  V30 3973 C 366.34 -1.25602 -1.5782 0
M  V30 3974 C 366.653 0.173445 -1.94829 0
M  V30 3975 O 367.859 0.380984 -2.68814 0
M  V30 3976 C 366.315 -2.20151 -2.84713 0
M  V30 3977 C 365.923 -3.68331 -2.55021 0
M  V30 3978 C 367.667 -2.20508 -3.62735 0
M  V30 3979 C 365.574 -4.54762 -3.78082 0
M  V30 3980 H 364.504 -0.466573 -0.592306 0
M  V30 3981 H 367.155 -1.59283 -0.911116 0
M  V30 3982 H 365.537 -1.79417 -3.53023 0
M  V30 3983 H 366.711 -4.17577 -1.94849 0
M  V30 3984 H 365.026 -3.7038 -1.90283 0
M  V30 3985 H 367.623 -2.82306 -4.54101 0
M  V30 3986 H 367.966 -1.20322 -3.98533 0
M  V30 3987 H 368.499 -2.59664 -3.01362 0
M  V30 3988 H 365.238 -5.55867 -3.47407 0
M  V30 3989 H 364.758 -4.10254 -4.37552 0
M  V30 3990 H 366.437 -4.69153 -4.45538 0
M  V30 3991 N 366.569 1.04691 -1.17803 0
M  V30 3992 C 367.797 1.81446 -0.99423 0
M  V30 3993 C 368.212 1.83174 0.457459 0
M  V30 3994 O 367.569 1.26265 1.31771 0
M  V30 3995 C 367.62 3.27334 -1.5341 0
M  V30 3996 O 367.341 3.25798 -2.92895 0
M  V30 3997 C 368.842 4.20759 -1.39559 0
M  V30 3998 H 366.062 0.571599 -0.351447 0
M  V30 3999 H 368.606 1.31982 -1.56208 0
M  V30 4000 H 366.761 3.74052 -1.00815 0
M  V30 4001 H 367.175 4.17144 -3.17949 0
M  V30 4002 H 368.649 5.21084 -1.82141 0
M  V30 4003 H 369.126 4.37856 -0.343394 0
M  V30 4004 H 369.732 3.79901 -1.91195 0
M  V30 4005 N 368.047 0.979072 1.23499 0
M  V30 4006 C 369.277 0.664237 1.95631 0
M  V30 4007 C 369.685 -0.772653 1.72704 0
M  V30 4008 O 369.028 -1.53141 1.01457 0
M  V30 4009 C 369.09 0.873115 3.48736 0
M  V30 4010 C 368.754 2.29182 3.95379 0
M  V30 4011 C 369.751 3.2704 4.04155 0
M  V30 4012 C 367.436 2.62256 4.28401 0
M  V30 4013 C 369.43 4.56052 4.45304 0
M  V30 4014 C 367.117 3.91491 4.69231 0
M  V30 4015 C 368.115 4.88201 4.77649 0
M  V30 4016 O 367.803 6.15129 5.17563 0
M  V30 4017 H 367.535 0.245915 0.629684 0
M  V30 4018 H 370.089 1.3127 1.57979 0
M  V30 4019 H 368.319 0.167476 3.86337 0
M  V30 4020 H 370.008 0.555642 4.02079 0
M  V30 4021 H 370.774 3.02819 3.78848 0
M  V30 4022 H 366.653 1.87692 4.21061 0
M  V30 4023 H 370.197 5.31538 4.51789 0
M  V30 4024 H 366.094 4.15508 4.93987 0
M  V30 4025 H 366.862 6.18862 5.35679 0
M  V30 4026 N 369.525 -1.3858 0.750561 0
M  V30 4027 C 370.473 -2.32339 0.110162 0
M  V30 4028 C 371.467 -1.53864 -0.708674 0
M  V30 4029 O 372.673 -1.69417 -0.608112 0
M  V30 4030 H 369.048 -0.751812 0.0168275 0
M  V30 4031 H 371.019 -2.83959 0.917053 0
M  V30 4032 C 369.768 -3.39043 -0.771067 0
M  V30 4033 H 369.091 -3.99517 -0.150374 0
M  V30 4034 H 370.531 -4.07061 -1.1865 0
M  V30 4035 C 368.99 -2.77365 -1.91234 0
M  V30 4036 O 369.52 -2.66434 -3.00626 0
M  V30 4037 N 367.726 -2.35219 -1.70646 0
M  V30 4038 H 367.273 -2.4431 -0.81673 0
M  V30 4039 H 367.231 -1.94294 -2.47178 0
M  V30 4040 N 371.003 -0.499398 -1.49478 0
M  V30 4041 C 372.233 0.0424839 -2.06556 0
M  V30 4042 C 372.641 1.31514 -1.36018 0
M  V30 4043 O 371.984 1.78555 -0.431718 0
M  V30 4044 C 372.046 0.368074 -3.57611 0
M  V30 4045 C 371.71 -0.806631 -4.49825 0
M  V30 4046 C 372.707 -1.69667 -4.91436 0
M  V30 4047 C 370.392 -1.00498 -4.92144 0
M  V30 4048 C 372.386 -2.76923 -5.74101 0
M  V30 4049 C 370.073 -2.08072 -5.74586 0
M  V30 4050 C 371.071 -2.96119 -6.15469 0
M  V30 4051 O 370.759 -4.01836 -6.96264 0
M  V30 4052 H 370.491 -0.0165165 -0.675798 0
M  V30 4053 H 373.045 -0.695497 -1.93267 0
M  V30 4054 H 371.275 1.15963 -3.68903 0
M  V30 4055 H 372.964 0.848381 -3.96935 0
M  V30 4056 H 373.73 -1.55524 -4.59388 0
M  V30 4057 H 369.609 -0.329036 -4.59824 0
M  V30 4058 H 373.153 -3.45676 -6.05932 0
M  V30 4059 H 369.05 -2.22211 -6.06047 0
M  V30 4060 H 369.818 -3.9917 -7.14567 0
M  V30 4061 N 372.481 1.55866 -0.233164 0
M  V30 4062 C 373.428 2.20796 0.67215 0
M  V30 4063 C 374.398 1.16731 1.18166 0
M  V30 4064 O 375.583 1.45129 1.23864 0
M  V30 4065 C 372.723 2.90072 1.86955 0
M  V30 4066 C 371.836 4.08759 1.39786 0
M  V30 4067 C 370.971 4.65787 2.55374 0
M  V30 4068 C 370.01 5.76752 2.04998 0
M  V30 4069 N 369.147 6.28021 3.13901 0
M  V30 4070 H 373.987 2.9779 0.111749 0
M  V30 4071 H 371.524 1.47036 0.0434007 0
M  V30 4072 H 373.482 3.28428 2.57276 0
M  V30 4073 H 372.112 2.15575 2.40265 0
M  V30 4074 H 371.164 3.7581 0.589173 0
M  V30 4075 H 372.476 4.88906 0.98856 0
M  V30 4076 H 371.63 5.06646 3.33758 0
M  V30 4077 H 370.369 3.84828 2.99598 0
M  V30 4078 H 369.374 5.35383 1.25079 0
M  V30 4079 H 370.599 6.59553 1.61759 0
M  V30 4080 H 368.545 5.49971 3.57586 0
M  V30 4081 H 368.462 7.03323 2.7726 0
M  V30 4082 H 369.73 6.73538 3.92386 0
M  V30 4083 N 373.959 -0.0401083 1.57549 0
M  V30 4084 C 374.907 -1.06264 2.06908 0
M  V30 4085 C 375.901 -1.38132 0.980608 0
M  V30 4086 O 377.107 -1.37167 1.16556 0
M  V30 4087 H 373.482 -0.360166 0.660139 0
M  V30 4088 H 375.453 -0.620445 2.91878 0
M  V30 4089 C 374.202 -2.35846 2.55483 0
M  V30 4090 H 373.525 -2.12183 3.38849 0
M  V30 4091 H 374.965 -3.05765 2.93741 0
M  V30 4092 C 373.424 -3.0404 1.45126 0
M  V30 4093 O 373.954 -3.93424 0.811216 0
M  V30 4094 N 372.16 -2.65184 1.18852 0
M  V30 4095 H 371.707 -1.92584 1.71083 0
M  V30 4096 H 371.665 -3.1113 0.452244 0
M  V30 4097 N 375.437 -1.54477 -0.31217 0
M  V30 4098 C 376.384 -1.84655 -1.38461 0
M  V30 4099 C 377.354 -0.694536 -1.50882 0
M  V30 4100 O 378.539 -0.942081 -1.6592 0
M  V30 4101 C 375.679 -2.0896 -2.74645 0
M  V30 4102 C 374.792 -3.36618 -2.70763 0
M  V30 4103 C 373.927 -3.50824 -3.98868 0
M  V30 4104 C 372.966 -4.72315 -3.89339 0
M  V30 4105 N 372.103 -4.83387 -5.09197 0
M  V30 4106 H 376.943 -2.76142 -1.12026 0
M  V30 4107 H 374.48 -1.36748 -0.542065 0
M  V30 4108 H 376.438 -2.21045 -3.53829 0
M  V30 4109 H 375.068 -1.20752 -2.99364 0
M  V30 4110 H 374.12 -3.33211 -1.83506 0
M  V30 4111 H 375.432 -4.25917 -2.59608 0
M  V30 4112 H 374.586 -3.62513 -4.86486 0
M  V30 4113 H 373.325 -2.59638 -4.12843 0
M  V30 4114 H 372.33 -4.6067 -3.00105 0
M  V30 4115 H 373.555 -5.64897 -3.76919 0
M  V30 4116 H 371.501 -3.9512 -5.23657 0
M  V30 4117 H 371.418 -5.66669 -5.00422 0
M  V30 4118 H 372.686 -4.9942 -5.98498 0
M  V30 4119 N 376.915 0.57481 -1.46744 0
M  V30 4120 C 377.825 1.711 -1.60505 0
M  V30 4121 C 378.841 1.67008 -0.488307 0
M  V30 4122 O 380.017 1.86774 -0.753495 0
M  V30 4123 C 377.082 3.07608 -1.59932 0
M  V30 4124 C 376.143 3.22904 -2.82898 0
M  V30 4125 C 375.376 4.529 -2.82343 0
M  V30 4126 O 375.599 5.37278 -1.91542 0
M  V30 4127 O 374.533 4.71611 -3.73987 0
M  V30 4128 H 378.359 1.62436 -2.56609 0
M  V30 4129 H 375.944 0.742779 -1.29627 0
M  V30 4130 H 377.826 3.88877 -1.62336 0
M  V30 4131 H 376.501 3.16692 -0.669898 0
M  V30 4132 H 375.408 2.41099 -2.86046 0
M  V30 4133 H 376.741 3.18715 -3.75076 0
M  V30 4134 N 378.394 1.34581 0.820102 0
M  V30 4135 C 379.304 1.28471 1.96297 0
M  V30 4136 C 380.32 0.191902 1.72939 0
M  V30 4137 O 381.496 0.418879 1.96996 0
M  V30 4138 C 378.561 1.04281 3.30645 0
M  V30 4139 C 377.622 2.22745 3.66992 0
M  V30 4140 C 376.855 1.997 4.9493 0
M  V30 4141 O 377.078 0.956656 5.6232 0
M  V30 4142 O 376.012 2.86723 5.2922 0
M  V30 4143 H 379.838 2.24624 2.04396 0
M  V30 4144 H 377.423 1.14816 0.955913 0
M  V30 4145 H 379.305 0.925841 4.11104 0
M  V30 4146 H 377.98 0.111697 3.23507 0
M  V30 4147 H 376.887 2.40003 2.86966 0
M  V30 4148 H 378.22 3.14257 3.78819 0
M  V30 4149 N 379.872 -1.04064 1.18357 0
M  V30 4150 C 381.119 -1.77265 0.978947 0
M  V30 4151 C 381.447 -1.88189 -0.491428 0
M  V30 4152 O 380.702 -1.38653 -1.38108 0
M  V30 4153 C 381.001 -3.20634 1.57888 0
M  V30 4154 C 380.667 -3.29743 3.07539 0
M  V30 4155 C 379.329 -3.31937 3.48384 0
M  V30 4156 C 381.681 -3.29841 4.03552 0
M  V30 4157 C 379.009 -3.3187 4.83818 0
M  V30 4158 C 381.361 -3.31313 5.38901 0
M  V30 4159 C 380.025 -3.31799 5.79194 0
M  V30 4160 H 379.295 -0.648659 0.358222 0
M  V30 4161 H 381.942 -1.22225 1.47422 0
M  V30 4162 H 380.247 -3.78675 1.00561 0
M  V30 4163 H 381.944 -3.75917 1.39598 0
M  V30 4164 H 378.534 -3.28757 2.74986 0
M  V30 4165 H 382.718 -3.27337 3.73047 0
M  V30 4166 H 377.974 -3.30562 5.14333 0
M  V30 4167 H 382.148 -3.30338 6.13066 0
M  V30 4168 H 379.775 -3.315 6.84114 0
M  V30 4169 N 381.35 -0.985608 -1.22978 0
M  V30 4170 C 382.298 -0.522631 -2.26652 0
M  V30 4171 C 383.292 0.422998 -1.64034 0
M  V30 4172 O 384.498 0.296319 -1.77544 0
M  V30 4173 H 380.873 -0.150597 -0.736766 0
M  V30 4174 H 382.844 -1.40863 -2.63059 0
M  V30 4175 C 381.593 0.154238 -3.47358 0
M  V30 4176 H 380.916 -0.564329 -3.95797 0
M  V30 4177 H 382.356 0.441744 -4.21693 0
M  V30 4178 C 380.815 1.38719 -3.07016 0
M  V30 4179 O 381.345 2.48307 -3.15764 0
M  V30 4180 N 379.551 1.25975 -2.61875 0
M  V30 4181 H 379.098 0.368068 -2.54957 0
M  V30 4182 H 379.056 2.08578 -2.3525 0
M  V30 4183 N 382.828 1.3818 -0.7579 0
M  V30 4184 C 384.058 2.04004 -0.326463 0
M  V30 4185 C 384.466 1.57286 1.05156 0
M  V30 4186 O 383.809 0.743144 1.67997 0
M  V30 4187 C 383.871 3.58444 -0.275402 0
M  V30 4188 C 383.535 4.28237 -1.59569 0
M  V30 4189 C 384.532 4.53312 -2.54566 0
M  V30 4190 C 382.217 4.66341 -1.86631 0
M  V30 4191 C 384.211 5.15531 -3.74842 0
M  V30 4192 C 381.898 5.28283 -3.0718 0
M  V30 4193 C 382.896 5.52814 -4.01106 0
M  V30 4194 O 382.584 6.13465 -5.19534 0
M  V30 4195 H 382.316 0.662026 -0.136739 0
M  V30 4196 H 384.87 1.7777 -1.02893 0
M  V30 4197 H 383.1 3.83667 0.483337 0
M  V30 4198 H 384.789 4.05701 0.127099 0
M  V30 4199 H 385.555 4.24299 -2.34936 0
M  V30 4200 H 381.434 4.46591 -1.14358 0
M  V30 4201 H 384.978 5.34594 -4.48168 0
M  V30 4202 H 380.875 5.56719 -3.26702 0
M  V30 4203 H 381.643 6.31951 -5.20173 0
M  V30 4204 N 384.306 0.507319 1.49211 0
M  V30 4205 C 385.534 -0.0315749 2.06876 0
M  V30 4206 C 385.949 -1.30241 1.36685 0
M  V30 4207 O 385.306 -1.76937 0.447152 0
M  V30 4208 C 385.357 -0.282627 3.60393 0
M  V30 4209 O 385.078 0.937835 4.27944 0
M  V30 4210 C 386.579 -0.864453 4.3479 0
M  V30 4211 H 383.799 0.0233048 0.670595 0
M  V30 4212 H 386.343 0.706484 1.91909 0
M  V30 4213 H 384.498 -0.97068 3.75042 0
M  V30 4214 H 384.912 0.704567 5.19746 0
M  V30 4215 H 386.386 -0.989664 5.43056 0
M  V30 4216 H 386.863 -1.86382 3.97692 0
M  V30 4217 H 387.469 -0.213672 4.24763 0
M  V30 4218 N 385.784 -1.5574 0.241426 0
M  V30 4219 C 386.732 -2.22538 -0.676718 0
M  V30 4220 C 387.726 -1.21117 -1.18436 0
M  V30 4221 O 388.932 -1.39144 -1.14188 0
M  V30 4222 H 385.307 -0.713776 -0.236701 0
M  V30 4223 H 387.278 -2.98264 -0.0901187 0
M  V30 4224 C 386.027 -2.93439 -1.86518 0
M  V30 4225 H 385.35 -3.7125 -1.4837 0
M  V30 4226 H 386.79 -3.43549 -2.48495 0
M  V30 4227 C 385.249 -1.97008 -2.73294 0
M  V30 4228 O 385.779 -1.49965 -3.72657 0
M  V30 4229 N 383.985 -1.64227 -2.39745 0
M  V30 4230 H 383.532 -2.02677 -1.58996 0
M  V30 4231 H 383.49 -0.999708 -2.98083 0
M  V30 4232 N 387.262 0.0317525 -1.57568 0
M  V30 4233 C 388.172 1.05021 -2.0978 0
M  V30 4234 C 389.188 1.39809 -1.03583 0
M  V30 4235 O 390.364 1.49182 -1.35302 0
M  V30 4236 C 387.429 2.33301 -2.56459 0
M  V30 4237 C 386.49 2.0512 -3.77127 0
M  V30 4238 C 385.723 3.27283 -4.2157 0
M  V30 4239 O 385.946 4.37861 -3.65559 0
M  V30 4240 O 384.88 3.13141 -5.14029 0
M  V30 4241 H 388.706 0.636505 -2.96955 0
M  V30 4242 H 386.291 0.248559 -1.47318 0
M  V30 4243 H 388.173 3.08722 -2.86825 0
M  V30 4244 H 386.848 2.73973 -1.72397 0
M  V30 4245 H 385.755 1.27276 -3.51784 0
M  V30 4246 H 387.088 1.69305 -4.62165 0
M  V30 4247 N 388.74 1.54641 0.303973 0
M  V30 4248 C 389.673 1.80263 1.3993 0
M  V30 4249 C 390.651 0.653657 1.48883 0
M  V30 4250 O 391.835 0.893284 1.6599 0
M  V30 4251 C 388.962 1.9367 2.77866 0
M  V30 4252 C 388.008 3.16078 2.86351 0
M  V30 4253 S 388.841 4.74219 2.4875 0
M  V30 4254 C 389.997 4.90558 3.88721 0
M  V30 4255 H 390.23 2.72886 1.17986 0
M  V30 4256 H 387.763 1.46014 0.501918 0
M  V30 4257 H 389.721 2.0208 3.57315 0
M  V30 4258 H 388.382 1.01991 2.9708 0
M  V30 4259 H 387.575 3.22252 3.87517 0
M  V30 4260 H 387.177 3.06099 2.14893 0
M  V30 4261 H 389.469 4.74398 4.83687 0
M  V30 4262 H 390.412 5.92651 3.87518 0
M  V30 4263 H 390.82 4.18728 3.78585 0
M  V30 4264 N 390.218 -0.567019 1.47046 0
M  V30 4265 C 391.467 -1.32091 1.5243 0
M  V30 4266 C 391.78 -1.94704 0.187021 0
M  V30 4267 O 392.986 -2.7124 0.118771 0
M  V30 4268 C 391.442 -2.39479 2.68659 0
M  V30 4269 C 391.05 -1.831 4.08874 0
M  V30 4270 C 392.794 -3.16111 2.83327 0
M  V30 4271 C 390.701 -2.8821 5.16419 0
M  V30 4272 H 389.631 -0.496629 0.56734 0
M  V30 4273 H 392.282 -0.603354 1.73297 0
M  V30 4274 H 390.664 -3.14105 2.41152 0
M  V30 4275 H 391.838 -1.14913 4.46242 0
M  V30 4276 H 390.153 -1.19085 3.99008 0
M  V30 4277 H 392.75 -3.94585 3.60842 0
M  V30 4278 H 393.093 -3.69686 1.91411 0
M  V30 4279 H 393.626 -2.48595 3.10556 0
M  V30 4280 H 390.365 -2.39504 6.10179 0
M  V30 4281 H 389.885 -3.54839 4.8358 0
M  V30 4282 H 391.564 -3.51881 5.42945 0
M  V30 4283 N 391.696 -1.35014 -0.812953 0
M  V30 4284 C 392.924 -1.31031 -1.6012 0
M  V30 4285 C 393.339 0.113558 -1.88458 0
M  V30 4286 O 392.696 1.06363 -1.48301 0
M  V30 4287 C 392.747 -2.10872 -2.93624 0
M  V30 4288 O 392.468 -3.47706 -2.66518 0
M  V30 4289 C 393.969 -2.14401 -3.88004 0
M  V30 4290 H 391.189 -0.45037 -0.497401 0
M  V30 4291 H 393.733 -1.77775 -1.01076 0
M  V30 4292 H 391.888 -1.67744 -3.492 0
M  V30 4293 H 392.302 -3.89097 -3.51715 0
M  V30 4294 H 393.776 -2.74669 -4.78812 0
M  V30 4295 H 394.253 -1.14105 -4.24119 0
M  V30 4296 H 394.859 -2.57662 -3.38364 0
M  V30 4297 N 393.175 1.03435 -1.18907 0
M  V30 4298 C 394.123 2.13703 -0.918353 0
M  V30 4299 C 395.117 1.68947 0.123767 0
M  V30 4300 O 396.323 1.79983 -0.0249701 0
M  V30 4301 H 392.698 0.698112 -0.279542 0
M  V30 4302 H 394.669 2.33731 -1.85506 0
M  V30 4303 C 393.418 3.44542 -0.467532 0
M  V30 4304 H 392.741 3.79394 -1.26095 0
M  V30 4305 H 394.181 4.22812 -0.317164 0
M  V30 4306 C 392.64 3.26829 0.817588 0
M  V30 4307 O 393.17 3.54975 1.88031 0
M  V30 4308 N 391.376 2.80139 0.772677 0
M  V30 4309 H 390.923 2.57434 -0.0923883 0
M  V30 4310 H 390.881 2.68668 1.63294 0
M  V30 4311 N 394.653 0.992116 1.22453 0
M  V30 4312 C 395.93 0.583508 1.86694 0
M  V30 4313 C 396.31 -0.9392 1.89056 0
M  V30 4314 O 395.658 -1.82081 1.38053 0
M  V30 4315 C 395.868 1.20304 3.2761 0
M  V30 4316 C 397.216 1.30308 4.0411 0
M  V30 4317 O 398.24 1.15737 3.36873 0
M  V30 4318 O 397.099 1.53615 5.24466 0
M  V30 4319 H 394.193 0.198129 0.802916 0
M  V30 4320 H 396.739 1.08794 1.30238 0
M  V30 4321 H 395.511 2.24461 3.2052 0
M  V30 4322 H 395.134 0.684144 3.9167 0
M  V30 4323 N 396.131 -1.37776 0.765217 0
M  V30 4324 C 397.356 -2.04651 0.336537 0
M  V30 4325 C 397.781 -1.57337 -1.03086 0
M  V30 4326 O 397.139 -0.730621 -1.65927 0
M  V30 4327 C 397.187 -3.58577 0.381468 0
M  V30 4328 O 396.291 -4.07706 -0.62042 0
M  V30 4329 H 395.632 -0.64756 0.146838 0
M  V30 4330 H 398.162 -1.76221 1.03959 0
M  V30 4331 H 398.172 -4.07314 0.236448 0
M  V30 4332 H 396.847 -3.9237 1.37907 0
M  V30 4333 H 395.424 -3.70306 -0.439056 0
M  V30 4334 N 397.609 -0.515225 -1.4894 0
M  V30 4335 C 398.834 0.022727 -2.07388 0
M  V30 4336 C 399.259 1.2876 -1.37122 0
M  V30 4337 O 398.617 1.76067 -0.432431 0
M  V30 4338 C 398.665 0.244869 -3.59768 0
M  V30 4339 O 397.769 1.31667 -3.90817 0
M  V30 4340 H 397.11 -0.0325506 -0.663202 0
M  V30 4341 H 399.64 -0.718918 -1.91553 0
M  V30 4342 H 399.65 0.47205 -4.0526 0
M  V30 4343 H 398.325 -0.679194 -4.10317 0
M  V30 4344 H 396.902 1.07331 -3.5712 0
M  V30 4345 N 399.087 1.5561 -0.249682 0
M  V30 4346 C 400.02 2.17537 0.689408 0
M  V30 4347 C 400.998 1.12829 1.17083 0
M  V30 4348 O 402.182 1.41229 1.24846 0
M  V30 4349 C 399.309 2.77828 1.93725 0
M  V30 4350 C 398.355 3.95615 1.59346 0
M  V30 4351 S 399.188 5.30988 0.69367 0
M  V30 4352 C 400.344 5.94734 1.95046 0
M  V30 4353 H 400.577 2.96852 0.163142 0
M  V30 4354 H 398.11 1.54362 -0.0341166 0
M  V30 4355 H 400.068 3.13199 2.65361 0
M  V30 4356 H 398.729 1.98454 2.43465 0
M  V30 4357 H 397.922 4.364 2.52132 0
M  V30 4358 H 397.524 3.61535 0.957512 0
M  V30 4359 H 399.816 6.12419 2.89739 0
M  V30 4360 H 400.759 6.90109 1.58604 0
M  V30 4361 H 401.167 5.23832 2.10381 0
M  V30 4362 N 400.565 -0.0233959 1.57583 0
M  V30 4363 C 401.475 -1.03907 2.10334 0
M  V30 4364 C 402.491 -1.39257 1.04323 0
M  V30 4365 O 403.667 -1.48462 1.36091 0
M  V30 4366 C 400.732 -2.31938 2.57693 0
M  V30 4367 C 399.793 -2.03117 3.78209 0
M  V30 4368 C 399.026 -3.25043 4.233 0
M  V30 4369 O 399.249 -4.35916 3.67876 0
M  V30 4370 O 398.183 -3.10411 5.15683 0
M  V30 4371 H 402.009 -0.620748 2.97288 0
M  V30 4372 H 399.594 -0.240743 1.47448 0
M  V30 4373 H 401.476 -3.07196 2.88458 0
M  V30 4374 H 400.151 -2.73055 1.73847 0
M  V30 4375 H 399.058 -1.25408 3.52454 0
M  V30 4376 H 400.391 -1.66852 4.63056 0
M  V30 4377 N 402.043 -1.548 -0.295768 0
M  V30 4378 C 403.32 -1.65014 -1.05023 0
M  V30 4379 C 403.7 -0.501805 -2.05049 0
M  V30 4380 O 403.048 0.500869 -2.22943 0
M  V30 4381 C 403.258 -3.03252 -1.72741 0
M  V30 4382 C 404.606 -3.60242 -2.24746 0
M  V30 4383 O 405.63 -3.05737 -1.82765 0
M  V30 4384 O 404.489 -4.55687 -3.01681 0
M  V30 4385 H 401.583 -0.669314 -0.485744 0
M  V30 4386 H 404.129 -1.67144 -0.293438 0
M  V30 4387 H 402.901 -3.7827 -1.00138 0
M  V30 4388 H 402.524 -3.04922 -2.55163 0
M  V30 4389 N 403.521 0.559213 -1.47345 0
M  V30 4390 C 404.471 1.66192 -1.5609 0
M  V30 4391 C 405.455 1.55323 -0.419957 0
M  V30 4392 O 406.647 1.63839 -0.669762 0
M  V30 4393 C 403.776 3.0497 -1.57634 0
M  V30 4394 C 402.862 3.2105 -2.77106 0
M  V30 4395 N 403.253 3.07203 -4.01821 0
M  V30 4396 C 401.551 3.52046 -2.73825 0
M  V30 4397 C 402.252 3.25919 -4.81821 0
M  V30 4398 N 401.228 3.52161 -4.14106 0
M  V30 4399 H 405.03 1.54052 -2.5029 0
M  V30 4400 H 402.544 0.763914 -1.43311 0
M  V30 4401 H 404.541 3.84142 -1.61989 0
M  V30 4402 H 403.201 3.18224 -0.645281 0
M  V30 4403 H 404.212 2.84572 -4.32711 0
M  V30 4404 H 400.889 3.71839 -1.89848 0
M  V30 4405 H 402.279 3.20198 -5.90697 0
M  V30 4406 N 404.999 1.35443 0.805782 0
M  V30 4407 C 406.276 1.19325 1.54987 0
M  V30 4408 C 406.656 -0.227294 2.09873 0
M  V30 4409 O 406.004 -1.2309 1.92512 0
M  V30 4410 C 406.214 2.26196 2.65775 0
M  V30 4411 C 407.562 2.62043 3.34094 0
M  V30 4412 O 408.586 2.25115 2.76046 0
M  V30 4413 O 407.445 3.25542 4.38958 0
M  V30 4414 H 404.539 0.463623 0.684823 0
M  V30 4415 H 407.085 1.47127 0.845674 0
M  V30 4416 H 405.857 3.21471 2.23096 0
M  V30 4417 H 405.48 1.99667 3.43829 0
M  V30 4418 N 406.477 -1.02803 1.19454 0
M  V30 4419 C 407.425 -2.13213 0.929673 0
M  V30 4420 C 408.419 -1.69011 -0.114806 0
M  V30 4421 O 409.625 -1.79967 0.0345147 0
M  V30 4422 H 406 -0.69662 0.28324 0
M  V30 4423 H 407.971 -2.32744 1.86743 0
M  V30 4424 C 406.72 -3.4429 0.485797 0
M  V30 4425 H 406.043 -3.7872 1.28105 0
M  V30 4426 H 407.483 -4.22638 0.339582 0
M  V30 4427 C 405.942 -3.27258 -0.800244 0
M  V30 4428 O 406.472 -3.55967 -1.86146 0
M  V30 4429 N 404.678 -2.80545 -0.75781 0
M  V30 4430 H 404.225 -2.57382 0.106039 0
M  V30 4431 H 404.183 -2.6953 -1.61867 0
M  V30 4432 N 407.956 -0.998596 -1.21925 0
M  V30 4433 C 408.866 -0.562736 -2.27751 0
M  V30 4434 C 409.882 0.391203 -1.69545 0
M  V30 4435 O 411.058 0.256625 -1.99758 0
M  V30 4436 C 408.123 0.11012 -3.46525 0
M  V30 4437 C 407.184 -0.887495 -4.20026 0
M  V30 4438 C 406.417 -0.246654 -5.3313 0
M  V30 4439 O 406.64 0.958088 -5.62296 0
M  V30 4440 O 405.574 -0.954374 -5.94286 0
M  V30 4441 H 409.4 -1.44329 -2.67213 0
M  V30 4442 H 406.985 -0.767135 -1.28201 0
M  V30 4443 H 408.867 0.486756 -4.18579 0
M  V30 4444 H 407.542 0.965154 -3.08976 0
M  V30 4445 H 406.449 -1.31517 -3.5022 0
M  V30 4446 H 407.782 -1.71191 -4.6147 0
M  V30 4447 N 409.434 1.37368 -0.772513 0
M  V30 4448 C 410.683 1.98918 -0.333861 0
M  V30 4449 C 410.996 1.62017 1.09589 0
M  V30 4450 O 412.202 2.16676 1.63596 0
M  V30 4451 C 410.658 3.55735 -0.545971 0
M  V30 4452 C 410.266 4.01573 -1.98603 0
M  V30 4453 C 412.01 4.24156 -0.170979 0
M  V30 4454 C 409.917 5.51102 -2.1457 0
M  V30 4455 H 408.847 0.744214 -0.121085 0
M  V30 4456 H 411.498 1.56888 -0.95175 0
M  V30 4457 H 409.88 3.95748 0.141387 0
M  V30 4458 H 411.054 3.72803 -2.7084 0
M  V30 4459 H 409.369 3.45937 -2.31769 0
M  V30 4460 H 411.966 5.34024 -0.26878 0
M  V30 4461 H 412.309 4.06917 0.878855 0
M  V30 4462 H 412.842 3.89447 -0.810914 0
M  V30 4463 H 409.581 5.73268 -3.17875 0
M  V30 4464 H 409.101 5.81554 -1.46817 0
M  V30 4465 H 410.78 6.17083 -1.94468 0
M  V30 4466 N 410.912 0.523116 1.48665 0
M  V30 4467 C 411.86 -0.256859 2.31177 0
M  V30 4468 C 412.854 -0.94199 1.40794 0
M  V30 4469 O 414.06 -0.867157 1.57735 0
M  V30 4470 H 410.435 -0.1017 0.745091 0
M  V30 4471 H 412.406 0.458739 2.94853 0
M  V30 4472 C 411.155 -1.29503 3.22683 0
M  V30 4473 H 410.478 -0.777248 3.92172 0
M  V30 4474 H 411.918 -1.81233 3.83315 0
M  V30 4475 C 410.377 -2.32501 2.43813 0
M  V30 4476 O 410.907 -3.3881 2.15803 0
M  V30 4477 N 409.113 -2.05538 2.05432 0
M  V30 4478 H 408.66 -1.19104 2.28412 0
M  V30 4479 H 408.618 -2.74676 1.52973 0
M  V30 4480 N 412.39 -1.55475 0.257931 0
M  V30 4481 C 413.638 -1.98813 -0.363009 0
M  V30 4482 C 413.959 -1.14757 -1.57657 0
M  V30 4483 O 413.229 -0.232956 -1.9451 0
M  V30 4484 H 411.809 -0.734308 -0.137113 0
M  V30 4485 H 414.471 -1.9156 0.359281 0
M  V30 4486 H 413.567 -3.04941 -0.664634 0
M  V30 4487 N 413.868 0.0150385 -1.57593 0
M  V30 4488 C 415.093 0.718067 -1.94573 0
M  V30 4489 C 415.518 1.6734 -0.859005 0
M  V30 4490 O 414.876 1.80362 0.184147 0
M  V30 4491 C 414.924 1.43918 -3.30636 0
M  V30 4492 O 414.028 2.55299 -3.23876 0
M  V30 4493 H 413.369 0.192125 -0.635597 0
M  V30 4494 H 415.899 -0.0336708 -2.04572 0
M  V30 4495 H 415.909 1.80598 -3.65853 0
M  V30 4496 H 414.584 0.738619 -4.09289 0
M  V30 4497 H 413.161 2.21058 -3.00312 0
M  V30 4498 N 415.346 1.54954 0.287554 0
M  V30 4499 C 416.595 1.74081 1.01877 0
M  V30 4500 C 416.908 0.541135 1.87966 0
M  V30 4501 O 418.114 0.614491 2.64455 0
M  V30 4502 C 416.57 3.08042 1.86113 0
M  V30 4503 C 416.178 4.35531 1.04961 0
M  V30 4504 C 417.922 3.36523 2.58752 0
M  V30 4505 C 415.829 5.60538 1.88551 0
M  V30 4506 H 414.759 0.64884 0.384087 0
M  V30 4507 H 417.41 1.81426 0.275101 0
M  V30 4508 H 415.792 2.94696 2.64519 0
M  V30 4509 H 416.966 4.59751 0.31074 0
M  V30 4510 H 415.281 4.14085 0.43843 0
M  V30 4511 H 417.878 4.27122 3.21668 0
M  V30 4512 H 418.221 2.56 3.28283 0
M  V30 4513 H 418.754 3.50901 1.87386 0
M  V30 4514 H 415.493 6.43767 1.23466 0
M  V30 4515 H 415.013 5.40483 2.60074 0
M  V30 4516 H 416.692 5.98297 2.46273 0
M  V30 4517 N 416.824 -0.551391 1.4764 0
M  V30 4518 C 418.049 -1.33837 1.58437 0
M  V30 4519 C 418.474 -1.866 0.237063 0
M  V30 4520 O 417.832 -1.6328 -0.787994 0
M  V30 4521 C 417.88 -2.48014 2.61766 0
M  V30 4522 O 416.984 -3.50419 2.1744 0
M  V30 4523 H 416.325 -0.397299 0.532024 0
M  V30 4524 H 418.855 -0.665759 1.93465 0
M  V30 4525 H 418.865 -2.94503 2.82369 0
M  V30 4526 H 417.54 -2.08969 3.5959 0
M  V30 4527 H 416.117 -3.10196 2.06961 0
M  V30 4528 N 418.302 -1.35869 -0.798587 0
M  V30 4529 C 419.25 -1.29491 -1.93222 0
M  V30 4530 C 420.244 -0.18836 -1.6835 0
M  V30 4531 O 421.45 -0.354822 -1.76468 0
M  V30 4532 H 417.825 -0.402901 -0.63496 0
M  V30 4533 H 419.796 -2.25247 -1.9572 0
M  V30 4534 C 418.545 -1.09184 -3.30112 0
M  V30 4535 H 417.868 -1.93574 -3.49813 0
M  V30 4536 H 419.308 -1.08766 -4.09812 0
M  V30 4537 C 417.767 0.203959 -3.36282 0
M  V30 4538 O 418.297 1.19699 -3.83451 0
M  V30 4539 N 416.503 0.245488 -2.89561 0
M  V30 4540 H 416.05 -0.563223 -2.51367 0
M  V30 4541 H 416.008 1.11219 -2.94071 0
M  V30 4542 N 419.78 1.02168 -1.19998 0
M  V30 4543 C 421.027 1.75685 -1.00702 0
M  V30 4544 C 421.355 1.88947 0.461426 0
M  V30 4545 O 420.61 1.40832 1.35885 0
M  V30 4546 C 420.909 3.18081 -1.62969 0
M  V30 4547 C 420.575 3.24809 -3.12746 0
M  V30 4548 C 419.237 3.26352 -3.53621 0
M  V30 4549 C 421.589 3.23379 -4.08749 0
M  V30 4550 C 418.917 3.2413 -4.89036 0
M  V30 4551 C 421.269 3.22698 -5.44104 0
M  V30 4552 C 419.933 3.22542 -5.84399 0
M  V30 4553 H 419.203 0.642877 -0.368496 0
M  V30 4554 H 421.85 1.19865 -1.49348 0
M  V30 4555 H 420.155 3.77027 -1.06573 0
M  V30 4556 H 421.852 3.73648 -1.45561 0
M  V30 4557 H 418.442 3.2434 -2.80181 0
M  V30 4558 H 422.626 3.21361 -3.78207 0
M  V30 4559 H 417.882 3.22338 -5.19527 0
M  V30 4560 H 422.056 3.20543 -6.18244 0
M  V30 4561 H 419.683 3.20575 -6.89301 0
M  V30 4562 N 421.258 1.00505 1.21394 0
M  V30 4563 C 422.206 0.558623 2.25792 0
M  V30 4564 C 423.2 -0.396848 1.64686 0
M  V30 4565 O 424.406 -0.268035 1.77993 0
M  V30 4566 H 420.781 0.1623 0.734277 0
M  V30 4567 H 422.752 1.4503 2.60785 0
M  V30 4568 C 421.501 -0.0989574 3.47559 0
M  V30 4569 H 420.824 0.627225 3.94849 0
M  V30 4570 H 422.264 -0.3746 4.22342 0
M  V30 4571 C 420.723 -1.33817 3.09184 0
M  V30 4572 O 421.253 -2.43252 3.19674 0
M  V30 4573 N 419.459 -1.21793 2.63846 0
M  V30 4574 H 419.006 -0.32746 2.5551 0
M  V30 4575 H 418.964 -2.04809 2.38539 0
M  V30 4576 N 422.737 -1.36956 0.779787 0
M  V30 4577 C 423.685 -2.32053 0.15942 0
M  V30 4578 C 424.679 -1.55333 -0.675878 0
M  V30 4579 O 425.885 -1.70668 -0.57204 0
M  V30 4580 H 422.26 -0.751286 0.0327707 0
M  V30 4581 H 424.231 -2.8195 0.977078 0
M  V30 4582 C 422.98 -3.40602 -0.698977 0
M  V30 4583 H 422.303 -3.99746 -0.0655966 0
M  V30 4584 H 423.743 -4.09486 -1.09989 0
M  V30 4585 C 422.202 -2.81359 -1.85307 0
M  V30 4586 O 422.732 -2.72751 -2.94906 0
M  V30 4587 N 420.938 -2.38786 -1.65619 0
M  V30 4588 H 420.485 -2.45987 -0.764725 0
M  V30 4589 H 420.443 -1.99493 -2.43002 0
M  V30 4590 N 424.215 -0.530993 -1.48385 0
M  V30 4591 C 425.455 0.000718982 -2.044 0
M  V30 4592 C 425.819 1.31485 -1.39913 0
M  V30 4593 O 427.02 1.93265 -1.86821 0
M  V30 4594 C 425.291 0.119177 -3.57201 0
M  V30 4595 S 426.85 0.600806 -4.34667 0
M  V30 4596 H 423.668 -0.0125473 -0.710889 0
M  V30 4597 H 426.27 -0.711783 -1.82082 0
M  V30 4598 H 424.974 -0.842061 -4.01668 0
M  V30 4599 H 424.505 0.856026 -3.83974 0
M  V30 4600 H 426.52 1.86514 -4.59812 0
M  V30 4601 N 425.693 1.55336 -0.266172 0
M  V30 4602 C 427.104 1.85236 0.233315 0
M  V30 4603 C 427.455 1.18816 1.56132 0
M  V30 4604 O 426.58 0.473307 2.11161 0
M  V30 4605 C 427.175 3.36059 0.430113 0
M  V30 4606 C 425.734 3.66116 0.873842 0
M  V30 4607 C 424.881 2.77274 -0.0380016 0
M  V30 4608 H 427.832 1.51004 -0.488214 0
M  V30 4609 H 427.853 3.58681 1.26998 0
M  V30 4610 H 427.365 3.84373 -0.536588 0
M  V30 4611 H 425.466 3.23295 1.85233 0
M  V30 4612 H 425.579 4.73699 0.717358 0
M  V30 4613 H 423.943 2.50198 0.476759 0
M  V30 4614 H 424.726 3.284 -1.00042 0
M  V30 4615 N 427.171 -0.0066808 1.57599 0
M  V30 4616 C 428.396 -0.707738 1.94951 0
M  V30 4617 C 428.821 -1.66882 0.867868 0
M  V30 4618 O 428.179 -1.80457 -0.17458 0
M  V30 4619 C 428.227 -1.42162 3.31394 0
M  V30 4620 O 427.331 -2.53578 3.25226 0
M  V30 4621 H 426.672 -0.188752 0.636607 0
M  V30 4622 H 429.202 0.0445193 2.04552 0
M  V30 4623 H 429.212 -1.78655 3.66806 0
M  V30 4624 H 427.887 -0.716903 4.09675 0
M  V30 4625 H 426.464 -2.19463 3.01481 0
M  V30 4626 N 428.649 -1.55105 -0.279332 0
M  V30 4627 C 429.898 -1.74618 -1.00952 0
M  V30 4628 C 430.211 -0.551096 -1.87676 0
M  V30 4629 O 431.417 -0.628507 -2.64125 0
M  V30 4630 C 429.873 -3.09025 -1.84476 0
M  V30 4631 C 429.481 -4.36081 -1.0265 0
M  V30 4632 C 431.225 -3.37891 -2.56963 0
M  V30 4633 C 429.132 -5.6153 -1.85576 0
M  V30 4634 H 428.062 -0.650868 -0.38064 0
M  V30 4635 H 430.713 -1.81569 -0.265475 0
M  V30 4636 H 429.095 -2.96095 -2.62952 0
M  V30 4637 H 430.269 -4.59909 -0.286354 0
M  V30 4638 H 428.584 -4.14312 -0.416464 0
M  V30 4639 H 431.181 -4.28822 -3.19399 0
M  V30 4640 H 431.524 -2.57737 -3.26921 0
M  V30 4641 H 432.057 -3.5189 -1.85522 0
M  V30 4642 H 428.796 -6.44413 -1.2005 0
M  V30 4643 H 428.316 -5.41854 -2.57204 0
M  V30 4644 H 429.995 -5.99594 -2.43096 0
M  V30 4645 N 430.127 0.543554 -1.4793 0
M  V30 4646 C 431.352 1.32995 -1.59145 0
M  V30 4647 C 431.777 1.86472 -0.246956 0
M  V30 4648 O 431.135 1.63696 0.779324 0
M  V30 4649 C 431.183 2.46623 -2.63077 0
M  V30 4650 O 430.287 3.49261 -2.19295 0
M  V30 4651 H 429.628 0.394472 -0.534124 0
M  V30 4652 H 432.158 0.655489 -1.93816 0
M  V30 4653 H 432.168 2.93001 -2.83926 0
M  V30 4654 H 430.843 2.07059 -3.60693 0
M  V30 4655 H 429.42 3.09094 -2.08603 0
M  V30 4656 N 431.605 1.3629 0.791371 0
M  V30 4657 C 432.83 1.33726 1.58531 0
M  V30 4658 C 433.255 -0.0794933 1.87932 0
M  V30 4659 O 432.613 -1.05087 1.47738 0
M  V30 4660 C 432.661 2.16425 2.88431 0
M  V30 4661 O 431.765 1.5554 3.81944 0
M  V30 4662 H 431.106 0.457793 0.480959 0
M  V30 4663 H 433.636 1.79547 0.981031 0
M  V30 4664 H 433.646 2.28933 3.37718 0
M  V30 4665 H 432.321 3.19415 2.66359 0
M  V30 4666 H 430.898 1.51961 3.40532 0
M  V30 4667 N 433.083 -1.0153 1.20538 0
M  V30 4668 C 434.33 -1.75149 1.01633 0
M  V30 4669 C 434.658 -1.89189 -0.451399 0
M  V30 4670 O 433.913 -1.41551 -1.35136 0
M  V30 4671 C 434.212 -3.17213 1.64654 0
M  V30 4672 C 433.878 -3.23146 3.14464 0
M  V30 4673 C 432.54 -3.24472 3.55347 0
M  V30 4674 C 434.892 -3.21207 4.10458 0
M  V30 4675 C 432.22 -3.21532 4.90748 0
M  V30 4676 C 434.572 -3.19808 5.45807 0
M  V30 4677 C 433.236 -3.19439 5.86102 0
M  V30 4678 H 432.506 -0.640914 0.3719 0
M  V30 4679 H 435.153 -1.19071 1.49981 0
M  V30 4680 H 433.458 -3.76457 1.08571 0
M  V30 4681 H 435.155 -3.72871 1.4754 0
M  V30 4682 H 431.745 -3.2285 2.81897 0
M  V30 4683 H 435.929 -3.19351 3.79906 0
M  V30 4684 H 431.185 -3.19578 5.21229 0
M  V30 4685 H 435.359 -3.1726 6.19935 0
M  V30 4686 H 432.986 -3.16915 6.90991 0
M  V30 4687 N 434.561 -1.01147 -1.20859 0
M  V30 4688 C 435.838 -0.613136 -1.85742 0
M  V30 4689 C 436.218 0.909004 -1.90526 0
M  V30 4690 O 435.566 1.79862 -1.40932 0
M  V30 4691 C 435.776 -1.255 -3.25654 0
M  V30 4692 C 437.124 -1.3672 -4.01986 0
M  V30 4693 O 438.148 -1.21082 -3.34989 0
M  V30 4694 O 437.007 -1.6194 -5.21956 0
M  V30 4695 H 434.101 -0.210878 -0.799662 0
M  V30 4696 H 436.647 -1.10853 -1.2849 0
M  V30 4697 H 435.419 -2.29532 -3.16908 0
M  V30 4698 H 435.042 -0.746369 -3.90532 0
M  V30 4699 N 436.039 1.36541 -0.78704 0
M  V30 4700 C 436.986 2.30082 -0.181901 0
M  V30 4701 C 437.956 1.5186 0.672896 0
M  V30 4702 O 439.141 1.80374 0.622072 0
M  V30 4703 C 436.281 3.3835 0.679197 0
M  V30 4704 C 435.394 4.31565 -0.193882 0
M  V30 4705 C 434.529 5.26915 0.673364 0
M  V30 4706 C 433.568 6.11769 -0.201315 0
M  V30 4707 N 432.705 6.99315 0.624777 0
M  V30 4708 H 437.545 2.81248 -0.985064 0
M  V30 4709 H 435.082 1.38437 -0.497342 0
M  V30 4710 H 437.04 3.99767 1.19341 0
M  V30 4711 H 435.67 2.8851 1.44781 0
M  V30 4712 H 434.722 3.71323 -0.826044 0
M  V30 4713 H 436.034 4.91191 -0.867937 0
M  V30 4714 H 435.188 5.9361 1.25348 0
M  V30 4715 H 433.927 4.67737 1.38105 0
M  V30 4716 H 432.932 5.44039 -0.793849 0
M  V30 4717 H 434.157 6.73022 -0.906568 0
M  V30 4718 H 432.103 6.42648 1.3168 0
M  V30 4719 H 432.02 7.56 0.00835237 0
M  V30 4720 H 433.288 7.70382 1.18879 0
M  V30 4721 N 437.518 0.538854 1.48102 0
M  V30 4722 C 438.743 0.0102694 2.07397 0
M  V30 4723 C 439.168 -1.26562 1.39153 0
M  V30 4724 O 438.526 -1.75357 0.460387 0
M  V30 4725 C 438.574 -0.187602 3.60112 0
M  V30 4726 O 437.678 -1.25432 3.92862 0
M  V30 4727 H 437.019 0.0430975 0.6626 0
M  V30 4728 H 439.549 0.749301 1.90385 0
M  V30 4729 H 439.559 -0.407517 4.0596 0
M  V30 4730 H 438.234 0.744386 4.09184 0
M  V30 4731 H 436.811 -1.01636 3.58782 0
M  V30 4732 N 438.996 -1.55193 0.274407 0
M  V30 4733 C 439.906 -2.26164 -0.623473 0
M  V30 4734 C 440.922 -1.28729 -1.17068 0
M  V30 4735 O 442.098 -1.61663 -1.20112 0
M  V30 4736 C 439.163 -2.96833 -1.7914 0
M  V30 4737 C 438.224 -4.09745 -1.28093 0
M  V30 4738 C 437.457 -4.77034 -2.3932 0
M  V30 4739 O 437.68 -4.4353 -3.5866 0
M  V30 4740 O 436.614 -5.64996 -2.07516 0
M  V30 4741 H 440.44 -3.03661 -0.0485661 0
M  V30 4742 H 438.025 -1.49341 0.0418382 0
M  V30 4743 H 439.907 -3.41248 -2.4724 0
M  V30 4744 H 438.582 -2.22253 -2.35341 0
M  V30 4745 H 437.489 -3.69787 -0.566416 0
M  V30 4746 H 438.822 -4.86224 -0.764683 0
M  V30 4747 N 440.474 -0.00167713 -1.576 0
M  V30 4748 C 441.699 0.69739 -1.95323 0
M  V30 4749 C 442.124 1.6642 -0.876706 0
M  V30 4750 O 441.482 1.80548 0.165007 0
M  V30 4751 C 441.53 1.40403 -3.32144 0
M  V30 4752 O 440.634 2.5185 -3.26566 0
M  V30 4753 H 439.975 0.185373 -0.637599 0
M  V30 4754 H 442.505 -0.0553665 -2.04525 0
M  V30 4755 H 442.515 1.76707 -3.67748 0
M  V30 4756 H 441.19 0.695167 -4.10049 0
M  V30 4757 H 439.767 2.17861 -3.0264 0
M  V30 4758 N 441.952 1.55251 0.271103 0
M  V30 4759 C 442.899 1.88261 1.33516 0
M  V30 4760 C 443.869 0.734296 1.48988 0
M  V30 4761 O 445.054 0.985741 1.63364 0
M  V30 4762 C 442.194 2.16168 2.69008 0
M  V30 4763 C 441.307 3.43678 2.61743 0
M  V30 4764 C 440.442 3.61276 3.89427 0
M  V30 4765 C 439.481 4.82472 3.7668 0
M  V30 4766 N 438.618 4.96717 4.96202 0
M  V30 4767 H 443.458 2.79015 1.04665 0
M  V30 4768 H 440.995 1.38137 0.505618 0
M  V30 4769 H 442.953 2.30349 3.47844 0
M  V30 4770 H 441.583 1.28646 2.96057 0
M  V30 4771 H 440.635 3.37959 1.74607 0
M  V30 4772 H 441.947 4.3265 2.48224 0
M  V30 4773 H 441.101 3.75284 4.76704 0
M  V30 4774 H 439.84 2.70492 4.05814 0
M  V30 4775 H 438.845 4.68465 2.87786 0
M  V30 4776 H 440.07 5.74692 3.61809 0
M  V30 4777 H 438.016 4.08865 5.12997 0
M  V30 4778 H 437.933 5.79738 4.85222 0
M  V30 4779 H 439.201 5.15113 5.85046 0
M  V30 4780 N 443.43 -0.535701 1.48216 0
M  V30 4781 C 444.378 -1.66179 1.62749 0
M  V30 4782 C 445.372 -1.62034 0.49409 0
M  V30 4783 O 446.578 -1.6696 0.672624 0
M  V30 4784 H 442.953 -0.550244 0.512578 0
M  V30 4785 H 444.924 -1.51063 2.57337 0
M  V30 4786 C 443.673 -3.04471 1.67907 0
M  V30 4787 H 442.996 -3.08351 2.54479 0
M  V30 4788 H 444.436 -3.82894 1.82121 0
M  V30 4789 C 442.895 -3.34314 0.416596 0
M  V30 4790 O 443.425 -3.98905 -0.473014 0
M  V30 4791 N 441.631 -2.89149 0.290038 0
M  V30 4792 H 441.178 -2.36764 1.01493 0
M  V30 4793 H 441.136 -3.09486 -0.55367 0
M  V30 4794 N 444.908 -1.36708 -0.784132 0
M  V30 4795 C 446.154 -1.31426 -1.54451 0
M  V30 4796 C 446.487 0.10476 -1.93917 0
M  V30 4797 O 445.762 1.05934 -1.6312 0
M  V30 4798 C 446.045 -2.24189 -2.818 0
M  V30 4799 C 445.898 -3.74813 -2.48667 0
M  V30 4800 C 447.217 -2.15626 -3.83658 0
M  V30 4801 H 444.336 -0.478739 -0.560337 0
M  V30 4802 H 446.978 -1.67305 -0.900498 0
M  V30 4803 H 445.128 -1.93722 -3.36755 0
M  V30 4804 H 446.8 -4.15823 -1.99722 0
M  V30 4805 H 445.043 -3.93989 -1.81535 0
M  V30 4806 H 445.714 -4.35138 -3.39646 0
M  V30 4807 H 448.19 -2.42456 -3.38163 0
M  V30 4808 H 447.066 -2.82694 -4.70506 0
M  V30 4809 H 447.327 -1.14522 -4.27009 0
M  V30 4810 N 446.386 1.0089 -1.21074 0
M  V30 4811 C 447.635 1.74019 -1.01981 0
M  V30 4812 C 447.948 1.90408 0.447665 0
M  V30 4813 O 449.154 2.60707 0.757906 0
M  V30 4814 C 447.61 3.13026 -1.77603 0
M  V30 4815 C 447.218 3.04623 -3.28495 0
M  V30 4816 C 448.962 3.90312 -1.66904 0
M  V30 4817 C 446.869 4.38685 -3.96623 0
M  V30 4818 H 445.799 0.652422 -0.377971 0
M  V30 4819 H 448.45 1.12755 -1.44771 0
M  V30 4820 H 446.832 3.74878 -1.27604 0
M  V30 4821 H 448.006 2.52032 -3.85767 0
M  V30 4822 H 446.321 2.40827 -3.39693 0
M  V30 4823 H 448.918 4.8951 -2.15138 0
M  V30 4824 H 449.261 4.11558 -0.62658 0
M  V30 4825 H 449.794 3.35104 -2.14359 0
M  V30 4826 H 446.533 4.22641 -5.01054 0
M  V30 4827 H 446.053 4.91252 -3.4414 0
M  V30 4828 H 447.732 5.075 -4.01314 0
M  V30 4829 N 447.864 1.01787 1.20321 0
M  V30 4830 C 448.812 0.58254 2.25187 0
M  V30 4831 C 449.806 -0.379359 1.65098 0
M  V30 4832 O 451.012 -0.249142 1.78267 0
M  V30 4833 H 447.387 0.170078 0.732514 0
M  V30 4834 H 449.358 1.47788 2.59232 0
M  V30 4835 C 448.107 -0.0620885 3.47645 0
M  V30 4836 H 447.43 0.669069 3.94162 0
M  V30 4837 H 448.87 -0.329784 4.22716 0
M  V30 4838 C 447.329 -1.3053 3.10586 0
M  V30 4839 O 447.859 -2.39848 3.22236 0
M  V30 4840 N 446.065 -1.18988 2.65123 0
M  V30 4841 H 445.612 -0.300341 2.55843 0
M  V30 4842 H 445.57 -2.02267 2.40698 0
M  V30 4843 N 449.342 -1.36122 0.79427 0
M  V30 4844 C 450.292 -2.27373 0.169017 0
M  V30 4845 C 451.276 -1.4719 -0.649913 0
M  V30 4846 O 452.468 -1.69518 -0.50919 0
M  V30 4847 C 449.597 -3.36264 -0.691455 0
M  V30 4848 C 448.683 -4.2388 0.13653 0
M  V30 4849 N 449.074 -4.91519 1.19345 0
M  V30 4850 C 447.372 -4.45921 -0.0838499 0
M  V30 4851 C 448.073 -5.56369 1.6979 0
M  V30 4852 N 447.049 -5.34204 1.00634 0
M  V30 4853 H 450.851 -2.77154 0.977897 0
M  V30 4854 H 448.365 -1.49504 0.634208 0
M  V30 4855 H 450.362 -4.00572 -1.15534 0
M  V30 4856 H 449.022 -2.88037 -1.49883 0
M  V30 4857 H 450.033 -4.9334 1.57594 0
M  V30 4858 H 446.71 -4.08518 -0.861341 0
M  V30 4859 H 448.1 -6.20368 2.58055 0
M  V30 4860 N 450.82 -0.546701 -1.47814 0
M  V30 4861 C 452.048 -0.0232857 -2.06887 0
M  V30 4862 C 452.463 1.26571 -1.4009 0
M  V30 4863 O 451.82 1.7569 -0.493906 0
M  V30 4864 C 451.871 0.186975 -3.61016 0
M  V30 4865 O 451.592 -1.05097 -4.25307 0
M  V30 4866 C 453.093 0.748872 -4.36929 0
M  V30 4867 H 450.313 -0.0410763 -0.669742 0
M  V30 4868 H 452.857 -0.757117 -1.89968 0
M  V30 4869 H 451.012 0.870903 -3.77484 0
M  V30 4870 H 451.426 -0.842121 -5.17695 0
M  V30 4871 H 452.9 0.845334 -5.45489 0
M  V30 4872 H 453.377 1.75772 -4.02493 0
M  V30 4873 H 453.983 0.100979 -4.2518 0
M  V30 4874 N 452.299 1.55045 -0.282633 0
M  V30 4875 C 453.229 2.2579 0.595066 0
M  V30 4876 C 454.21 1.25074 1.15284 0
M  V30 4877 O 455.395 1.5381 1.18559 0
M  V30 4878 C 452.525 2.98472 1.77572 0
M  V30 4879 C 451.479 4.0618 1.34914 0
M  V30 4880 C 450.805 4.66477 2.6135 0
M  V30 4881 C 452.105 5.1996 0.493821 0
M  V30 4882 H 453.799 2.994 0.00505653 0
M  V30 4883 H 451.345 1.44 0.000992001 0
M  V30 4884 H 453.298 3.46677 2.39568 0
M  V30 4885 H 452.022 2.2241 2.39168 0
M  V30 4886 H 450.681 3.58797 0.752338 0
M  V30 4887 H 450.329 3.87074 3.2122 0
M  V30 4888 H 450.029 5.39207 2.33516 0
M  V30 4889 H 451.553 5.17435 3.24181 0
M  V30 4890 H 452.967 5.64172 1.01898 0
M  V30 4891 H 451.364 5.99299 0.310047 0
M  V30 4892 H 452.434 4.82462 -0.485593 0
M  V30 4893 N 453.777 0.010035 1.57597 0
M  V30 4894 C 454.707 -0.976857 2.12084 0
M  V30 4895 C 455.688 -1.35191 1.03235 0
M  V30 4896 O 456.873 -1.43389 1.3097 0
M  V30 4897 C 454.003 -2.26548 2.63236 0
M  V30 4898 C 452.957 -2.03175 3.76701 0
M  V30 4899 C 452.283 -3.38138 4.14206 0
M  V30 4900 C 453.583 -1.38625 5.03568 0
M  V30 4901 H 455.277 -0.523145 2.94794 0
M  V30 4902 H 452.823 -0.250195 1.4181 0
M  V30 4903 H 454.776 -2.95952 2.99984 0
M  V30 4904 H 453.5 -2.74051 1.77661 0
M  V30 4905 H 452.159 -1.36195 3.40362 0
M  V30 4906 H 451.807 -3.83363 3.25641 0
M  V30 4907 H 451.507 -3.23312 4.90656 0
M  V30 4908 H 453.031 -4.08841 4.53521 0
M  V30 4909 H 454.445 -1.98 5.38023 0
M  V30 4910 H 452.842 -1.34256 5.84889 0
M  V30 4911 H 453.912 -0.356722 4.83586 0
M  V30 4912 N 455.255 -1.55392 -0.262866 0
M  V30 4913 C 456.671 -1.47459 -0.610582 0
M  V30 4914 C 456.871 -0.697031 -1.8906 0
M  V30 4915 O 455.927 -0.219952 -2.5154 0
M  V30 4916 C 457.24 -2.91751 -0.728131 0
M  V30 4917 C 458.788 -3.02027 -0.821517 0
M  V30 4918 C 459.263 -4.47594 -0.97076 0
M  V30 4919 N 460.754 -4.51465 -1.03603 0
M  V30 4920 C 461.489 -5.61326 -1.17049 0
M  V30 4921 N 460.985 -6.81032 -1.2715 0
M  V30 4922 N 462.778 -5.49089 -1.20239 0
M  V30 4923 H 454.929 -2.04395 0.577632 0
M  V30 4924 H 457.192 -0.927287 0.197086 0
M  V30 4925 H 456.898 -3.51413 0.142132 0
M  V30 4926 H 456.772 -3.4134 -1.6052 0
M  V30 4927 H 459.159 -2.42456 -1.68224 0
M  V30 4928 H 459.24 -2.55674 0.0803688 0
M  V30 4929 H 458.884 -5.07771 -0.114655 0
M  V30 4930 H 458.814 -4.91613 -1.88745 0
M  V30 4931 H 461.305 -3.6524 -0.96996 0
M  V30 4932 H 461.618 -7.60511 -1.37271 0
M  V30 4933 H 459.963 -6.83824 -1.24136 0
M  V30 4934 H 463.154 -4.54507 -1.11985 0
M  V30 4935 H 463.327 -6.34749 -1.30373 0
M  V30 4936 N 456.733 0.527833 -1.48498 0
M  V30 4937 C 458.01 1.28905 -1.47115 0
M  V30 4938 C 458.39 2.10297 -0.184007 0
M  V30 4939 O 457.738 2.12728 0.834218 0
M  V30 4940 C 457.948 2.16866 -2.73441 0
M  V30 4941 C 459.296 2.76936 -3.21857 0
M  V30 4942 O 460.32 2.27152 -2.74373 0
M  V30 4943 O 459.179 3.67496 -4.04486 0
M  V30 4944 H 456.273 0.581918 -0.587623 0
M  V30 4945 H 458.819 0.544311 -1.60734 0
M  V30 4946 H 457.591 1.56521 -3.58632 0
M  V30 4947 H 457.214 2.98583 -2.62553 0
M  V30 4948 N 458.211 1.37122 0.776871 0
M  V30 4949 C 459.158 1.3247 1.88998 0
M  V30 4950 C 460.128 0.191143 1.64997 0
M  V30 4951 O 461.313 0.379683 1.86984 0
M  V30 4952 C 458.453 1.13241 3.25992 0
M  V30 4953 C 457.566 2.35782 3.61982 0
M  V30 4954 C 456.701 2.09465 4.88158 0
M  V30 4955 C 455.74 3.279 5.16864 0
M  V30 4956 N 454.877 3.01167 6.34226 0
M  V30 4957 H 459.717 2.27642 1.9231 0
M  V30 4958 H 457.254 1.13125 0.94027 0
M  V30 4959 H 459.212 1.00115 4.0501 0
M  V30 4960 H 457.842 0.217186 3.22069 0
M  V30 4961 H 456.894 2.59666 2.77989 0
M  V30 4962 H 458.206 3.24125 3.79137 0
M  V30 4963 H 457.36 1.93341 5.75069 0
M  V30 4964 H 456.099 1.18452 4.73097 0
M  V30 4965 H 455.104 3.44569 4.2843 0
M  V30 4966 H 456.329 4.19757 5.33836 0
M  V30 4967 H 454.275 2.12779 6.20533 0
M  V30 4968 H 454.192 3.83052 6.51772 0
M  V30 4969 H 455.46 2.88649 7.24087 0
M  V30 4970 N 459.689 -1.00246 1.21608 0
M  V30 4971 C 460.622 -2.08794 0.920892 0
M  V30 4972 C 461.6 -1.62059 -0.132552 0
M  V30 4973 O 462.784 -1.885 -0.0030366 0
M  V30 4974 C 459.911 -3.36525 0.383226 0
M  V30 4975 C 458.957 -4.02172 1.41987 0
M  V30 4976 S 459.79 -4.44256 2.98994 0
M  V30 4977 C 460.946 -5.7517 2.4684 0
M  V30 4978 H 461.179 -2.33511 1.8401 0
M  V30 4979 H 458.712 -1.13562 1.04609 0
M  V30 4980 H 460.67 -4.10423 0.0795871 0
M  V30 4981 H 459.331 -3.09854 -0.514711 0
M  V30 4982 H 458.524 -4.94114 0.993335 0
M  V30 4983 H 458.126 -3.34559 1.67171 0
M  V30 4984 H 460.418 -6.51042 1.87484 0
M  V30 4985 H 461.361 -6.22638 3.37235 0
M  V30 4986 H 461.769 -5.32112 1.88461 0
M  V30 4987 N 461.167 -1.02423 -1.1978 0
M  V30 4988 C 462.115 -0.594474 -2.24875 0
M  V30 4989 C 463.109 0.370598 -1.65296 0
M  V30 4990 O 464.315 0.239684 -1.78397 0
M  V30 4991 H 460.69 -0.173961 -0.731602 0
M  V30 4992 H 462.661 -1.4916 -2.58445 0
M  V30 4993 C 461.41 0.0436512 -3.47673 0
M  V30 4994 H 460.733 -0.689963 -3.93801 0
M  V30 4995 H 462.173 0.307362 -4.22884 0
M  V30 4996 C 460.632 1.28881 -3.11274 0
M  V30 4997 O 461.162 2.38135 -3.23503 0
M  V30 4998 N 459.368 1.1758 -2.6575 0
M  V30 4999 H 458.915 0.286769 -2.55999 0
M  V30 5000 H 458.873 2.00988 -2.41767 0
M  V30 5001 N 462.645 1.35699 -0.801477 0
M  V30 5002 C 463.575 2.32436 -0.222658 0
M  V30 5003 C 464.556 1.5723 0.649057 0
M  V30 5004 O 465.741 1.85324 0.580387 0
M  V30 5005 C 462.871 3.41469 0.633719 0
M  V30 5006 C 461.825 4.27774 -0.139083 0
M  V30 5007 C 461.151 5.28082 0.838666 0
M  V30 5008 C 462.451 5.04946 -1.33517 0
M  V30 5009 H 464.145 2.81094 -1.03086 0
M  V30 5010 H 461.691 1.35146 -0.497155 0
M  V30 5011 H 463.644 4.08143 1.04868 0
M  V30 5012 H 462.368 2.91408 1.47475 0
M  V30 5013 H 461.027 3.62673 -0.535156 0
M  V30 5014 H 460.675 4.7429 1.67506 0
M  V30 5015 H 460.375 5.86695 0.32594 0
M  V30 5016 H 461.899 5.97628 1.25194 0
M  V30 5017 H 463.313 5.64593 -0.995349 0
M  V30 5018 H 461.71 5.7303 -1.78202 0
M  V30 5019 H 462.78 4.35886 -2.12442 0
M  V30 5020 N 464.123 0.554532 1.47522 0
M  V30 5021 C 465.372 0.0273458 2.01681 0
M  V30 5022 C 465.685 -1.32962 1.43459 0
M  V30 5023 O 466.891 -1.94657 1.89265 0
M  V30 5024 C 465.347 -0.00159057 3.599 0
M  V30 5025 C 464.955 1.35197 4.27113 0
M  V30 5026 C 466.699 -0.476311 4.21819 0
M  V30 5027 C 464.606 1.28229 5.77331 0
M  V30 5028 H 463.536 0.00645269 0.753972 0
M  V30 5029 H 466.187 0.701985 1.69542 0
M  V30 5030 H 464.569 -0.741821 3.8899 0
M  V30 5031 H 465.743 2.1097 4.09668 0
M  V30 5032 H 464.058 1.76441 3.77171 0
M  V30 5033 H 466.655 -0.5468 5.31897 0
M  V30 5034 H 466.998 -1.4877 3.8881 0
M  V30 5035 H 467.531 0.20898 3.97251 0
M  V30 5036 H 464.27 2.26959 6.14955 0
M  V30 5037 H 463.79 0.566314 5.97121 0
M  V30 5038 H 465.469 0.983226 6.39485 0
M  V30 5039 N 465.601 -1.54893 0.290851 0
M  V30 5040 C 466.829 -2.04343 -0.324288 0
M  V30 5041 C 467.244 -1.16859 -1.48289 0
M  V30 5042 O 466.601 -0.192018 -1.81487 0
M  V30 5043 C 466.652 -3.52756 -0.79026 0
M  V30 5044 O 466.373 -4.36913 0.322213 0
M  V30 5045 C 467.874 -4.18161 -1.4716 0
M  V30 5046 H 465.094 -0.667135 -0.0719173 0
M  V30 5047 H 467.638 -1.99981 0.427529 0
M  V30 5048 H 465.793 -3.57511 -1.49213 0
M  V30 5049 H 466.207 -5.24486 -0.0387372 0
M  V30 5050 H 467.681 -5.23562 -1.7489 0
M  V30 5051 H 468.158 -3.67282 -2.40834 0
M  V30 5052 H 468.764 -4.17454 -0.813178 0
M  V30 5053 N 467.08 -0.0183926 -1.57589 0
M  V30 5054 C 468.305 0.676634 -1.96052 0
M  V30 5055 C 468.73 1.6548 -0.894307 0
M  V30 5056 O 468.088 1.80712 0.145849 0
M  V30 5057 C 468.136 1.36872 -3.33614 0
M  V30 5058 O 467.24 2.48372 -3.29219 0
M  V30 5059 H 466.581 0.1786 -0.63953 0
M  V30 5060 H 469.111 -0.077056 -2.04455 0
M  V30 5061 H 469.121 1.72797 -3.69601 0
M  V30 5062 H 467.796 0.651636 -4.10763 0
M  V30 5063 H 466.373 2.14639 -3.04934 0
M  V30 5064 N 468.558 1.5553 0.254621 0
M  V30 5065 C 469.783 1.81383 1.00573 0
M  V30 5066 C 470.208 0.594419 1.78461 0
M  V30 5067 O 469.566 -0.456403 1.75461 0
M  V30 5068 C 469.614 3.04892 1.92545 0
M  V30 5069 O 468.718 2.81266 3.01601 0
M  V30 5070 H 468.059 0.598969 0.286587 0
M  V30 5071 H 470.589 2.02703 0.277952 0
M  V30 5072 H 470.599 3.34119 2.34155 0
M  V30 5073 H 469.274 3.93287 1.3527 0
M  V30 5074 H 467.851 2.63185 2.64174 0
M  V30 5075 N 470.036 -0.519951 1.48776 0
M  V30 5076 C 470.946 -1.65025 1.66745 0
M  V30 5077 C 471.962 -1.6508 0.549954 0
M  V30 5078 O 473.138 -1.83848 0.822295 0
M  V30 5079 C 470.203 -3.0146 1.71238 0
M  V30 5080 C 469.264 -3.12182 2.94688 0
M  V30 5081 C 468.497 -4.42109 2.98958 0
M  V30 5082 O 468.72 -5.29799 2.1135 0
M  V30 5083 O 467.654 -4.57406 3.91233 0
M  V30 5084 H 471.48 -1.52801 2.62461 0
M  V30 5085 H 469.065 -0.694157 1.32294 0
M  V30 5086 H 470.947 -3.82584 1.76657 0
M  V30 5087 H 469.622 -3.13988 0.786975 0
M  V30 5088 H 468.529 -2.30316 2.94797 0
M  V30 5089 H 469.862 -3.04574 3.86646 0
M  V30 5090 N 471.514 -1.37532 -0.769588 0
M  V30 5091 C 472.424 -1.35668 -1.91393 0
M  V30 5092 C 473.44 -0.255954 -1.72107 0
M  V30 5093 O 474.616 -0.491704 -1.95305 0
M  V30 5094 C 471.681 -1.16481 -3.26547 0
M  V30 5095 C 470.742 -2.36212 -3.58472 0
M  V30 5096 C 469.975 -2.17932 -4.87177 0
M  V30 5097 O 470.198 -1.1647 -5.58382 0
M  V30 5098 O 469.132 -3.06167 -5.18214 0
M  V30 5099 H 472.958 -2.32055 -1.95918 0
M  V30 5100 H 470.543 -1.18284 -0.912641 0
M  V30 5101 H 472.425 -1.07778 -4.07384 0
M  V30 5102 H 471.1 -0.231687 -3.2287 0
M  V30 5103 H 470.007 -2.50488 -2.77861 0
M  V30 5104 H 471.34 -3.281 -3.66894 0
M  V30 5105 N 472.992 0.995999 -1.22138 0
M  V30 5106 C 474.222 1.76809 -1.06874 0
M  V30 5107 C 474.63 1.85265 0.383866 0
M  V30 5108 O 473.973 1.31969 1.27789 0
M  V30 5109 C 474.035 3.2186 -1.60144 0
M  V30 5110 C 473.699 3.36958 -3.0872 0
M  V30 5111 C 474.696 3.2452 -4.0618 0
M  V30 5112 C 472.381 3.62109 -3.48112 0
M  V30 5113 C 474.375 3.37013 -5.41019 0
M  V30 5114 C 472.062 3.74243 -4.831 0
M  V30 5115 C 473.06 3.61702 -5.79362 0
M  V30 5116 O 472.748 3.73436 -7.119 0
M  V30 5117 H 472.48 0.562207 -0.375365 0
M  V30 5118 H 475.034 1.26113 -1.62125 0
M  V30 5119 H 473.264 3.73734 -0.992981 0
M  V30 5120 H 474.953 3.80775 -1.40589 0
M  V30 5121 H 475.719 3.05004 -3.77091 0
M  V30 5122 H 471.598 3.70949 -2.73712 0
M  V30 5123 H 475.142 3.27141 -6.16137 0
M  V30 5124 H 471.039 3.93266 -5.11872 0
M  V30 5125 H 471.807 3.90328 -7.19435 0
M  V30 5126 N 474.47 1.03057 1.19235 0
M  V30 5127 C 475.4 0.633497 2.24742 0
M  V30 5128 C 476.381 -0.358335 1.66283 0
M  V30 5129 O 477.566 -0.240676 1.92703 0
M  V30 5130 C 474.696 -0.0147648 3.47297 0
M  V30 5131 C 473.65 0.899527 4.18441 0
M  V30 5132 C 472.976 0.116281 5.34574 0
M  V30 5133 C 474.276 2.21404 4.73051 0
M  V30 5134 H 475.97 1.5155 2.58211 0
M  V30 5135 H 473.516 0.73014 1.24117 0
M  V30 5136 H 475.469 -0.304202 4.20301 0
M  V30 5137 H 474.193 -0.931577 3.13032 0
M  V30 5138 H 472.852 1.17319 3.47321 0
M  V30 5139 H 472.5 -0.802619 4.96555 0
M  V30 5140 H 472.2 0.725293 5.83107 0
M  V30 5141 H 473.724 -0.166376 6.10373 0
M  V30 5142 H 475.138 1.98601 5.37802 0
M  V30 5143 H 473.535 2.77512 5.32078 0
M  V30 5144 H 474.605 2.86752 3.91026 0
M  V30 5145 N 475.948 -1.35272 0.808662 0
M  V30 5146 C 476.895 -2.29764 0.218482 0
M  V30 5147 C 477.865 -1.52911 -0.648652 0
M  V30 5148 O 479.05 -1.81341 -0.593297 0
M  V30 5149 C 476.19 -3.39388 -0.625282 0
M  V30 5150 C 475.303 -4.31202 0.262516 0
M  V30 5151 C 474.438 -5.27919 -0.589451 0
M  V30 5152 C 473.477 -6.11371 0.298617 0
M  V30 5153 N 472.614 -7.0022 -0.513443 0
M  V30 5154 H 477.454 -2.79645 1.02968 0
M  V30 5155 H 474.991 -1.37629 0.519303 0
M  V30 5156 H 476.949 -4.01615 -1.12966 0
M  V30 5157 H 475.579 -2.90777 -1.40173 0
M  V30 5158 H 474.631 -3.69962 0.885013 0
M  V30 5159 H 475.943 -4.89748 0.945971 0
M  V30 5160 H 475.097 -5.95529 -1.15888 0
M  V30 5161 H 473.836 -4.69875 -1.30647 0
M  V30 5162 H 472.841 -5.42707 0.880301 0
M  V30 5163 H 474.066 -6.71494 1.01352 0
M  V30 5164 H 472.012 -6.44662 -1.21439 0
M  V30 5165 H 471.929 -7.55917 0.111922 0
M  V30 5166 H 473.197 -7.72175 -1.06608 0
M  V30 5167 N 477.426 -0.562348 -1.47226 0
M  V30 5168 C 478.703 0.0256985 -1.95583 0
M  V30 5169 C 479.083 1.48032 -1.50498 0
M  V30 5170 O 478.431 2.15973 -0.746181 0
M  V30 5171 C 478.641 -0.125129 -3.48776 0
M  V30 5172 C 479.989 0.0175728 -4.24596 0
M  V30 5173 O 481.013 -0.0529341 -3.56161 0
M  V30 5174 O 479.872 0.170145 -5.46235 0
M  V30 5175 H 476.966 0.0612565 -0.824728 0
M  V30 5176 H 479.512 -0.629233 -1.57603 0
M  V30 5177 H 478.284 -1.13715 -3.74412 0
M  V30 5178 H 477.907 0.567178 -3.93534 0
M  V30 5179 N 478.904 1.54736 -0.299062 0
M  V30 5180 C 479.834 2.26409 0.571085 0
M  V30 5181 C 480.815 1.2629 1.13951 0
M  V30 5182 O 482 1.55059 1.16921 0
M  V30 5183 C 479.13 3.00338 1.74396 0
M  V30 5184 C 478.084 4.07588 1.30599 0
M  V30 5185 C 477.41 4.69222 2.56387 0
M  V30 5186 C 478.71 5.20455 0.438645 0
M  V30 5187 H 480.404 2.99388 -0.0266991 0
M  V30 5188 H 477.95 1.43993 -0.0142812 0
M  V30 5189 H 479.903 3.49198 2.35878 0
M  V30 5190 H 478.627 2.24934 2.36796 0
M  V30 5191 H 477.286 3.59575 0.71424 0
M  V30 5192 H 476.934 3.9046 3.17097 0
M  V30 5193 H 476.634 5.41653 2.27784 0
M  V30 5194 H 478.158 5.20844 3.18675 0
M  V30 5195 H 479.572 5.65221 0.959085 0
M  V30 5196 H 477.969 5.99594 0.246466 0
M  V30 5197 H 479.039 4.8192 -0.536738 0
M  V30 5198 N 480.382 0.0267497 1.57577 0
M  V30 5199 C 481.332 -0.965003 2.06571 0
M  V30 5200 C 482.316 -1.28694 0.965746 0
M  V30 5201 O 483.508 -1.27345 1.22932 0
M  V30 5202 C 480.637 -2.24821 2.59443 0
M  V30 5203 C 479.723 -1.95474 3.76365 0
M  V30 5204 N 480.114 -1.36387 4.87065 0
M  V30 5205 C 478.412 -2.25478 3.84806 0
M  V30 5206 C 479.113 -1.24119 5.68304 0
M  V30 5207 N 478.089 -1.7359 5.15138 0
M  V30 5208 H 481.891 -0.503095 2.89562 0
M  V30 5209 H 479.405 -0.178322 1.61418 0
M  V30 5210 H 481.402 -2.9674 2.92833 0
M  V30 5211 H 480.062 -2.7164 1.77881 0
M  V30 5212 H 481.073 -1.03919 5.07367 0
M  V30 5213 H 477.75 -2.74987 3.14147 0
M  V30 5214 H 479.14 -0.784504 6.67304 0
M  V30 5215 N 481.861 -1.55662 -0.24637 0
M  V30 5216 C 482.809 -1.91186 -1.3248 0
M  V30 5217 C 483.803 -0.790996 -1.49799 0
M  V30 5218 O 485.009 -0.975617 -1.51267 0
M  V30 5219 H 481.384 -0.607207 -0.443626 0
M  V30 5220 H 483.355 -2.81221 -0.997853 0
M  V30 5221 C 482.104 -2.22349 -2.67313 0
M  V30 5222 H 481.427 -3.08097 -2.54786 0
M  V30 5223 H 482.867 -2.51107 -3.41645 0
M  V30 5224 C 481.326 -1.04001 -3.20446 0
M  V30 5225 O 481.856 -0.28828 -4.00664 0
M  V30 5226 N 480.062 -0.830494 -2.7848 0
M  V30 5227 H 479.609 -1.4435 -2.13356 0
M  V30 5228 H 479.567 -0.0403258 -3.14374 0
M  V30 5229 N 483.339 0.512053 -1.4905 0
M  V30 5230 C 484.579 1.27715 -1.59588 0
M  V30 5231 C 484.943 1.90071 -0.271502 0
M  V30 5232 O 486.144 2.67616 -0.251987 0
M  V30 5233 C 484.415 2.32399 -2.71524 0
M  V30 5234 S 485.974 3.18396 -3.01943 0
M  V30 5235 H 482.792 0.43419 -0.563027 0
M  V30 5236 H 485.394 0.581315 -1.86657 0
M  V30 5237 H 484.098 1.85101 -3.66287 0
M  V30 5238 H 483.629 3.06667 -2.46412 0
M  V30 5239 H 485.644 4.32842 -2.42616 0
M  V30 5240 N 484.817 1.37938 0.762283 0
M  V30 5241 C 485.765 1.34569 1.89721 0
M  V30 5242 C 486.759 0.232929 1.67791 0
M  V30 5243 O 487.965 0.401485 1.75465 0
M  V30 5244 H 484.34 0.419594 0.624055 0
M  V30 5245 H 486.311 2.30357 1.8968 0
M  V30 5246 C 485.06 1.17898 3.27101 0
M  V30 5247 H 484.383 2.02781 3.44558 0
M  V30 5248 H 485.823 1.19593 4.06784 0
M  V30 5249 C 484.282 -0.114728 3.36705 0
M  V30 5250 O 484.812 -1.0949 3.8649 0
M  V30 5251 N 483.018 -0.16863 2.9011 0
M  V30 5252 H 482.565 0.62967 2.49786 0
M  V30 5253 H 482.523 -1.03383 2.96916 0
M  V30 5254 N 486.295 -0.989507 1.22664 0
M  V30 5255 C 487.542 -1.72953 1.05325 0
M  V30 5256 C 487.87 -1.90104 -0.411168 0
M  V30 5257 O 487.125 -1.44386 -1.32103 0
M  V30 5258 C 487.424 -3.13649 1.71345 0
M  V30 5259 C 487.09 -3.16403 3.21248 0
M  V30 5260 C 485.752 -3.16862 3.62149 0
M  V30 5261 C 488.104 -3.12428 4.17179 0
M  V30 5262 C 485.432 -3.11051 4.97458 0
M  V30 5263 C 487.784 -3.08159 5.52468 0
M  V30 5264 C 486.448 -3.06935 5.92746 0
M  V30 5265 H 485.718 -0.632881 0.385412 0
M  V30 5266 H 488.365 -1.15863 1.52473 0
M  V30 5267 H 486.67 -3.74069 1.16532 0
M  V30 5268 H 488.367 -3.69658 1.55416 0
M  V30 5269 H 484.957 -3.16798 2.88682 0
M  V30 5270 H 489.141 -3.11221 3.86595 0
M  V30 5271 H 484.397 -3.0845 5.27891 0
M  V30 5272 H 488.571 -3.04039 6.26525 0
M  V30 5273 H 486.198 -3.02186 6.97558 0
M  V30 5274 N 487.773 -1.03688 -1.18687 0
M  V30 5275 C 488.998 -0.757819 -1.93059 0
M  V30 5276 C 489.423 0.678353 -1.75442 0
M  V30 5277 O 488.781 1.46938 -1.06203 0
M  V30 5278 C 488.829 -1.12423 -3.42627 0
M  V30 5279 O 487.933 -0.247505 -4.11657 0
M  V30 5280 H 487.274 -0.279245 -0.602427 0
M  V30 5281 H 489.804 -1.3857 -1.5053 0
M  V30 5282 H 489.814 -1.08454 -3.93322 0
M  V30 5283 H 488.489 -2.17049 -3.54771 0
M  V30 5284 H 487.066 -0.34649 -3.71287 0
M  V30 5285 N 489.251 1.34841 -0.815825 0
M  V30 5286 C 490.199 2.31549 -0.220888 0
M  V30 5287 C 491.193 1.5707 0.634457 0
M  V30 5288 O 492.399 1.72125 0.526589 0
M  V30 5289 H 488.774 0.750153 -0.0526782 0
M  V30 5290 H 490.745 2.7926 -1.05149 0
M  V30 5291 C 489.494 3.42335 0.608427 0
M  V30 5292 H 488.817 3.9978 -0.0404121 0
M  V30 5293 H 490.257 4.12258 0.990931 0
M  V30 5294 C 488.716 2.86173 1.77782 0
M  V30 5295 O 489.246 2.80474 2.87571 0
M  V30 5296 N 487.452 2.43093 1.59229 0
M  V30 5297 H 486.999 2.47928 0.699237 0
M  V30 5298 H 486.957 2.05866 2.37627 0
M  V30 5299 N 490.729 0.570148 1.46925 0
M  V30 5300 C 491.954 0.0542592 2.07329 0
M  V30 5301 C 492.379 -1.23582 1.41806 0
M  V30 5302 O 491.737 -1.74341 0.497479 0
M  V30 5303 C 491.785 -0.111175 3.60429 0
M  V30 5304 O 490.889 -1.17071 3.95434 0
M  V30 5305 H 490.23 0.0571425 0.661537 0
M  V30 5306 H 492.76 0.789516 1.88753 0
M  V30 5307 H 492.77 -0.321315 4.06733 0
M  V30 5308 H 491.445 0.831012 4.07513 0
M  V30 5309 H 490.022 -0.940029 3.60857 0
M  V30 5310 N 492.207 -1.54576 0.307264 0
M  V30 5311 C 493.432 -2.05139 -0.305379 0
M  V30 5312 C 493.857 -1.18278 -1.46259 0
M  V30 5313 O 493.215 -0.188243 -1.8032 0
M  V30 5314 C 493.263 -3.53066 -0.733283 0
M  V30 5315 O 492.367 -3.69206 -1.83741 0
M  V30 5316 H 491.708 -0.661444 -0.0582105 0
M  V30 5317 H 494.238 -1.99569 0.450931 0
M  V30 5318 H 494.248 -3.95034 -1.02039 0
M  V30 5319 H 492.923 -4.15746 0.113198 0
M  V30 5320 H 491.5 -3.39143 -1.55037 0
M  V30 5321 N 493.685 -0.035106 -1.57561 0
M  V30 5322 C 494.962 0.681212 -1.83354 0
M  V30 5323 C 495.342 1.89986 -0.920252 0
M  V30 5324 O 494.69 2.28489 0.0226815 0
M  V30 5325 C 494.9 1.05376 -3.32712 0
M  V30 5326 C 496.248 1.44286 -3.99333 0
M  V30 5327 O 497.272 1.14656 -3.37242 0
M  V30 5328 O 496.131 1.99518 -5.08778 0
M  V30 5329 H 493.225 0.334741 -0.756226 0
M  V30 5330 H 495.771 -0.0632448 -1.69582 0
M  V30 5331 H 494.543 0.186668 -3.90854 0
M  V30 5332 H 494.166 1.85619 -3.51613 0
M  V30 5333 N 495.163 1.55791 0.238111 0
M  V30 5334 C 496.11 1.9105 1.29493 0
M  V30 5335 C 497.08 0.765733 1.47397 0
M  V30 5336 O 498.265 1.02017 1.61236 0
M  V30 5337 C 495.405 2.21826 2.64362 0
M  V30 5338 C 494.518 3.49153 2.54394 0
M  V30 5339 C 493.653 3.69455 3.81676 0
M  V30 5340 C 492.692 4.90353 3.66361 0
M  V30 5341 N 491.829 5.07131 4.85554 0
M  V30 5342 H 496.669 2.81172 0.987233 0
M  V30 5343 H 494.206 1.39179 0.476203 0
M  V30 5344 H 496.164 2.37675 3.4288 0
M  V30 5345 H 494.794 1.34897 2.93262 0
M  V30 5346 H 493.846 3.41587 1.67399 0
M  V30 5347 H 495.158 4.37818 2.38991 0
M  V30 5348 H 494.312 3.85311 4.68636 0
M  V30 5349 H 493.051 2.7904 3.99985 0
M  V30 5350 H 492.056 4.74464 2.77784 0
M  V30 5351 H 493.281 5.82237 3.49538 0
M  V30 5352 H 491.227 4.19654 5.04209 0
M  V30 5353 H 491.144 5.89899 4.72816 0
M  V30 5354 H 492.412 5.27407 5.73988 0
M  V30 5355 N 496.642 -0.504142 1.49319 0
M  V30 5356 C 497.59 -1.62689 1.66238 0
M  V30 5357 C 498.584 -1.6095 0.528349 0
M  V30 5358 O 499.79 -1.65496 0.707887 0
M  V30 5359 H 496.165 -0.539247 0.524134 0
M  V30 5360 H 498.136 -1.45571 2.60484 0
M  V30 5361 C 496.885 -3.00841 1.74328 0
M  V30 5362 H 496.208 -3.02884 2.60963 0
M  V30 5363 H 497.648 -3.78945 1.90202 0
M  V30 5364 C 496.107 -3.33355 0.487416 0
M  V30 5365 O 496.637 -3.99819 -0.388294 0
M  V30 5366 N 494.843 -2.88469 0.351306 0
M  V30 5367 H 494.39 -2.34557 1.06492 0
M  V30 5368 H 494.348 -3.10591 -0.487899 0
M  V30 5369 N 498.12 -1.38341 -0.754957 0
M  V30 5370 C 499.397 -1.24995 -1.50451 0
M  V30 5371 C 499.777 0.149244 -2.10572 0
M  V30 5372 O 499.125 1.15861 -1.96948 0
M  V30 5373 C 499.335 -2.35904 -2.57197 0
M  V30 5374 C 500.683 -2.74262 -3.24138 0
M  V30 5375 O 501.707 -2.35205 -2.67501 0
M  V30 5376 O 500.566 -3.4161 -4.26574 0
M  V30 5377 H 497.66 -0.48872 -0.667144 0
M  V30 5378 H 500.206 -1.50165 -0.790486 0
M  V30 5379 H 498.978 -3.2953 -2.11011 0
M  V30 5380 H 498.601 -2.12291 -3.36182 0
M  V30 5381 N 499.598 0.982988 -1.23187 0
M  V30 5382 C 500.823 1.76455 -1.08988 0
M  V30 5383 C 501.248 1.84726 0.354691 0
M  V30 5384 O 500.606 1.30699 1.25649 0
M  V30 5385 C 500.654 3.17094 -1.71708 0
M  V30 5386 O 499.758 4.00648 -0.977477 0
M  V30 5387 H 499.099 0.542988 -0.382177 0
M  V30 5388 H 501.629 1.23413 -1.63188 0
M  V30 5389 H 501.639 3.67684 -1.76841 0
M  V30 5390 H 500.314 3.10389 -2.76823 0
M  V30 5391 H 498.891 3.59161 -1.0029 0
M  V30 5392 N 501.076 1.04316 1.18135 0
M  V30 5393 C 502.323 0.74802 1.88178 0
M  V30 5394 C 502.651 -0.72441 1.80506 0
M  V30 5395 O 501.906 -1.54463 1.20165 0
M  V30 5396 C 502.205 1.16271 3.37958 0
M  V30 5397 C 501.871 2.63585 3.65833 0
M  V30 5398 C 500.533 3.03829 3.73151 0
M  V30 5399 C 502.885 3.58822 3.78016 0
M  V30 5400 C 500.213 4.38194 3.90132 0
M  V30 5401 C 502.565 4.92909 3.96514 0
M  V30 5402 C 501.229 5.3282 4.02068 0
M  V30 5403 H 500.499 0.27372 0.688592 0
M  V30 5404 H 503.146 1.30863 1.39811 0
M  V30 5405 H 501.451 0.520938 3.88321 0
M  V30 5406 H 503.148 0.911672 3.90499 0
M  V30 5407 H 499.738 2.31414 3.60757 0
M  V30 5408 H 503.922 3.28875 3.71692 0
M  V30 5409 H 499.178 4.68631 3.92677 0
M  V30 5410 H 503.352 5.66606 4.04883 0
M  V30 5411 H 500.979 6.36943 4.14979 0
M  V30 5412 N 502.554 -1.34406 0.822964 0
M  V30 5413 C 503.801 -1.98284 0.411057 0
M  V30 5414 C 504.129 -1.65245 -1.02588 0
M  V30 5415 O 503.384 -0.91619 -1.72929 0
M  V30 5416 C 503.683 -3.52981 0.560268 0
M  V30 5417 C 503.349 -4.05931 1.96293 0
M  V30 5418 C 502.011 -4.20103 2.34664 0
M  V30 5419 C 504.363 -4.34412 2.87985 0
M  V30 5420 C 501.691 -4.60082 3.64062 0
M  V30 5421 C 504.043 -4.75838 4.16847 0
M  V30 5422 C 502.707 -4.88215 4.55195 0
M  V30 5423 H 501.977 -0.725573 0.150416 0
M  V30 5424 H 504.624 -1.60349 1.04692 0
M  V30 5425 H 502.929 -3.91477 -0.158982 0
M  V30 5426 H 504.626 -4.00385 0.222087 0
M  V30 5427 H 501.216 -3.95363 1.65487 0
M  V30 5428 H 505.4 -4.23001 2.59584 0
M  V30 5429 H 500.656 -4.67856 3.93599 0
M  V30 5430 H 504.83 -4.96834 4.87984 0
M  V30 5431 H 502.457 -5.18952 5.55512 0
M  V30 5432 N 504.032 -0.577932 -1.46621 0
M  V30 5433 C 504.979 0.158048 -2.30258 0
M  V30 5434 C 505.949 0.888669 -1.40328 0
M  V30 5435 O 507.134 0.880283 -1.6928 0
M  V30 5436 C 504.274 1.16884 -3.24703 0
M  V30 5437 C 503.387 0.442163 -4.29731 0
M  V30 5438 C 502.522 1.44007 -5.11308 0
M  V30 5439 C 501.561 0.69952 -6.0809 0
M  V30 5440 N 500.698 1.64525 -6.82551 0
M  V30 5441 H 505.538 -0.561242 -2.92667 0
M  V30 5442 H 503.075 -0.288591 -1.44241 0
M  V30 5443 H 505.033 1.7677 -3.779 0
M  V30 5444 H 503.663 1.85591 -2.64113 0
M  V30 5445 H 502.715 -0.271632 -3.79429 0
M  V30 5446 H 504.027 -0.136992 -4.98612 0
M  V30 5447 H 503.181 2.11186 -5.68758 0
M  V30 5448 H 501.92 2.05315 -4.42377 0
M  V30 5449 H 500.925 0.0139217 -5.49798 0
M  V30 5450 H 502.15 0.091894 -6.79038 0
M  V30 5451 H 500.096 2.24653 -6.16334 0
M  V30 5452 H 500.013 1.11878 -7.47676 0
M  V30 5453 H 501.281 2.30754 -7.44562 0
M  V30 5454 N 505.51 1.54411 -0.315457 0
M  V30 5455 C 506.44 2.27002 0.547039 0
M  V30 5456 C 507.421 1.27492 1.12605 0
M  V30 5457 O 508.606 1.5629 1.15269 0
M  V30 5458 C 505.736 3.02171 1.71201 0
M  V30 5459 C 504.69 4.0895 1.26268 0
M  V30 5460 C 504.016 4.71915 2.51396 0
M  V30 5461 C 505.316 5.20891 0.383419 0
M  V30 5462 H 507.01 2.99343 -0.0584517 0
M  V30 5463 H 504.556 1.4397 -0.0295527 0
M  V30 5464 H 506.509 3.51681 2.32161 0
M  V30 5465 H 505.233 2.27433 2.34397 0
M  V30 5466 H 503.892 3.60312 0.676062 0
M  V30 5467 H 503.54 3.93801 3.12937 0
M  V30 5468 H 503.24 5.44039 2.22026 0
M  V30 5469 H 504.764 5.24195 3.13133 0
M  V30 5470 H 506.178 5.66206 0.899082 0
M  V30 5471 H 504.575 5.99821 0.182857 0
M  V30 5472 H 505.645 4.81324 -0.587821 0
M  V30 5473 N 506.988 0.0434614 1.5754 0
M  V30 5474 C 508.218 -0.640905 1.96408 0
M  V30 5475 C 508.626 -1.65365 0.919297 0
M  V30 5476 O 507.969 -1.83395 -0.105795 0
M  V30 5477 C 508.031 -1.39141 3.31482 0
M  V30 5478 C 507.695 -0.535375 4.53853 0
M  V30 5479 C 508.692 0.195335 5.19533 0
M  V30 5480 C 506.377 -0.468564 5.0011 0
M  V30 5481 C 508.371 0.981377 6.298 0
M  V30 5482 C 506.058 0.321171 6.10255 0
M  V30 5483 C 507.056 1.04484 6.74961 0
M  V30 5484 O 506.744 1.8216 7.8299 0
M  V30 5485 H 506.476 -0.180584 0.651433 0
M  V30 5486 H 509.03 0.103848 2.05137 0
M  V30 5487 H 507.26 -2.18162 3.19284 0
M  V30 5488 H 508.949 -1.96526 3.55151 0
M  V30 5489 H 509.715 0.15314 4.84758 0
M  V30 5490 H 505.594 -1.02142 4.49542 0
M  V30 5491 H 509.138 1.54674 6.80237 0
M  V30 5492 H 505.035 0.365032 6.44467 0
M  V30 5493 H 505.803 1.74289 7.99728 0
M  V30 5494 N 508.466 -1.55915 -0.229846 0
M  V30 5495 C 509.714 -1.7819 -0.953565 0
M  V30 5496 C 510.035 -0.610504 -1.85197 0
M  V30 5497 O 509.305 0.372988 -1.92316 0
M  V30 5498 H 507.885 -0.657208 -0.355087 0
M  V30 5499 H 510.547 -1.9337 -0.243693 0
M  V30 5500 H 509.643 -2.70011 -1.56527 0
M  V30 5501 N 509.944 0.496216 -1.49584 0
M  V30 5502 C 511.193 1.24668 -1.58558 0
M  V30 5503 C 511.506 1.9359 -0.279703 0
M  V30 5504 O 512.712 2.70365 -0.248048 0
M  V30 5505 C 511.168 2.26388 -2.79779 0
M  V30 5506 C 510.776 1.63384 -4.17145 0
M  V30 5507 C 512.52 3.02233 -2.98086 0
M  V30 5508 C 510.427 2.63243 -5.29582 0
M  V30 5509 H 509.357 0.468995 -0.590389 0
M  V30 5510 H 512.008 0.519985 -1.75978 0
M  V30 5511 H 510.39 3.02241 -2.55863 0
M  V30 5512 H 511.564 0.93491 -4.51216 0
M  V30 5513 H 509.879 0.999121 -4.04236 0
M  V30 5514 H 512.476 3.76919 -3.79257 0
M  V30 5515 H 512.819 3.60132 -2.08831 0
M  V30 5516 H 513.352 2.33495 -3.22063 0
M  V30 5517 H 510.091 2.10119 -6.20911 0
M  V30 5518 H 509.611 3.31363 -4.99959 0
M  V30 5519 H 511.29 3.25575 -5.59115 0
M  V30 5520 N 511.423 1.38739 0.74761 0
M  V30 5521 C 512.663 1.36695 1.51966 0
M  V30 5522 C 513.027 -0.0411889 1.91956 0
M  V30 5523 O 514.228 -0.186543 2.68152 0
M  V30 5524 C 512.499 2.30119 2.73459 0
M  V30 5525 S 514.058 2.4615 3.63257 0
M  V30 5526 H 510.876 0.484929 0.519966 0
M  V30 5527 H 513.478 1.7472 0.877104 0
M  V30 5528 H 512.182 3.31312 2.422 0
M  V30 5529 H 511.713 1.93265 3.42655 0
M  V30 5530 H 513.728 1.69001 4.66533 0
M  V30 5531 N 512.901 -0.976442 1.23707 0
M  V30 5532 C 513.811 -2.10359 1.03856 0
M  V30 5533 C 514.827 -1.73991 -0.0180919 0
M  V30 5534 O 516.003 -2.0061 0.178211 0
M  V30 5535 C 513.068 -3.40809 0.636387 0
M  V30 5536 C 512.129 -3.91179 1.76854 0
M  V30 5537 C 511.362 -5.15404 1.38546 0
M  V30 5538 O 511.585 -5.69754 0.27142 0
M  V30 5539 O 510.519 -5.5994 2.20797 0
M  V30 5540 H 514.345 -2.29997 1.98331 0
M  V30 5541 H 511.93 -1.08742 1.02448 0
M  V30 5542 H 513.812 -4.19269 0.423223 0
M  V30 5543 H 512.487 -3.22493 -0.279322 0
M  V30 5544 H 511.394 -3.13819 2.03638 0
M  V30 5545 H 512.727 -4.13958 2.6627 0
M  V30 5546 N 514.379 -1.04941 -1.1758 0
M  V30 5547 C 515.609 -0.777166 -1.91425 0
M  V30 5548 C 516.017 0.670647 -1.76915 0
M  V30 5549 O 515.36 1.46965 -1.10213 0
M  V30 5550 C 515.422 -1.07495 -3.43052 0
M  V30 5551 C 515.086 -2.51844 -3.81345 0
M  V30 5552 C 516.083 -3.50047 -3.844 0
M  V30 5553 C 513.768 -2.86787 -4.12382 0
M  V30 5554 C 515.762 -4.81239 -4.17957 0
M  V30 5555 C 513.449 -4.18182 -4.45608 0
M  V30 5556 C 514.447 -5.15219 -4.48373 0
M  V30 5557 O 514.135 -6.44258 -4.80819 0
M  V30 5558 H 513.867 -0.282209 -0.614275 0
M  V30 5559 H 516.421 -1.40258 -1.50056 0
M  V30 5560 H 514.651 -0.392437 -3.84704 0
M  V30 5561 H 516.34 -0.78912 -3.98155 0
M  V30 5562 H 517.106 -3.24391 -3.60548 0
M  V30 5563 H 512.985 -2.11922 -4.09402 0
M  V30 5564 H 516.529 -5.56974 -4.2003 0
M  V30 5565 H 512.426 -4.43602 -4.68922 0
M  V30 5566 H 513.194 -6.49041 -4.98686 0
M  V30 5567 N 515.857 1.33968 -0.830081 0
M  V30 5568 C 517.134 1.92554 -0.343858 0
M  V30 5569 C 517.514 1.7573 1.16971 0
M  V30 5570 O 516.862 1.14035 1.98011 0
M  V30 5571 C 517.072 3.40147 -0.781073 0
M  V30 5572 C 518.42 4.17299 -0.78402 0
M  V30 5573 O 519.444 3.48762 -0.724112 0
M  V30 5574 O 518.303 5.39631 -0.863739 0
M  V30 5575 H 515.397 0.821469 -0.0954827 0
M  V30 5576 H 517.943 1.42897 -0.915348 0
M  V30 5577 H 516.715 3.46225 -1.82329 0
M  V30 5578 H 516.338 3.97166 -0.18567 0
M  V30 5579 N 517.335 0.585699 1.46312 0
M  V30 5580 C 518.282 -0.145835 2.30339 0
M  V30 5581 C 519.252 -0.881215 1.40797 0
M  V30 5582 O 520.437 -0.871293 1.69744 0
M  V30 5583 C 517.577 -1.15161 3.25318 0
M  V30 5584 C 516.69 -0.419367 4.2996 0
M  V30 5585 C 515.825 -1.41293 5.12064 0
M  V30 5586 C 514.864 -0.667261 6.08452 0
M  V30 5587 N 514.001 -1.60903 6.83414 0
M  V30 5588 H 518.841 0.576755 2.92365 0
M  V30 5589 H 516.378 0.296237 1.44086 0
M  V30 5590 H 518.336 -1.74763 3.78832 0
M  V30 5591 H 516.966 -1.84188 2.65094 0
M  V30 5592 H 516.018 0.291751 3.7928 0
M  V30 5593 H 517.33 0.163433 4.98532 0
M  V30 5594 H 516.484 -2.08167 5.6987 0
M  V30 5595 H 515.223 -2.02966 4.43459 0
M  V30 5596 H 514.228 0.0152356 5.49798 0
M  V30 5597 H 515.453 -0.0558817 6.79077 0
M  V30 5598 H 513.399 -2.21381 6.17516 0
M  V30 5599 H 513.316 -1.07911 7.48259 0
M  V30 5600 H 514.584 -2.26802 7.45775 0
M  V30 5601 N 518.813 -1.54241 0.323641 0
M  V30 5602 C 520.043 -2.04687 -0.280464 0
M  V30 5603 C 520.451 -1.19939 -1.46326 0
M  V30 5604 O 519.794 -0.222872 -1.82343 0
M  V30 5605 C 519.856 -3.50978 -0.778123 0
M  V30 5606 C 519.52 -4.56127 0.282371 0
M  V30 5607 C 520.517 -5.07726 1.11847 0
M  V30 5608 C 518.202 -5.00451 0.430582 0
M  V30 5609 C 520.196 -6.02212 2.08851 0
M  V30 5610 C 517.883 -5.94752 1.40404 0
M  V30 5611 C 518.881 -6.45519 2.23147 0
M  V30 5612 O 518.569 -7.37968 3.1884 0
M  V30 5613 H 518.301 -0.673192 -0.0615473 0
M  V30 5614 H 520.855 -1.99999 0.467921 0
M  V30 5615 H 519.085 -3.53064 -1.57742 0
M  V30 5616 H 520.774 -3.84499 -1.30058 0
M  V30 5617 H 521.54 -4.74261 1.01496 0
M  V30 5618 H 517.419 -4.6055 -0.203569 0
M  V30 5619 H 520.963 -6.41761 2.73474 0
M  V30 5620 H 516.86 -6.27633 1.5082 0
M  V30 5621 H 517.628 -7.55841 3.14079 0
M  V30 5622 N 520.291 -0.0518155 -1.57515 0
M  V30 5623 C 521.221 0.920283 -2.146 0
M  V30 5624 C 522.202 1.32406 -1.06783 0
M  V30 5625 O 523.387 1.39866 -1.34726 0
M  V30 5626 C 520.517 2.1949 -2.6915 0
M  V30 5627 C 519.471 1.93116 -3.81956 0
M  V30 5628 C 518.797 3.27037 -4.23026 0
M  V30 5629 C 520.097 1.25225 -5.07066 0
M  V30 5630 H 521.791 0.444801 -2.96077 0
M  V30 5631 H 519.337 0.212508 -1.42423 0
M  V30 5632 H 521.29 2.87894 -3.07725 0
M  V30 5633 H 520.014 2.69244 -1.84865 0
M  V30 5634 H 518.673 1.27123 -3.43854 0
M  V30 5635 H 518.321 3.74595 -3.3569 0
M  V30 5636 H 518.021 3.10189 -4.99056 0
M  V30 5637 H 519.545 3.96673 -4.64202 0
M  V30 5638 H 520.959 1.83666 -5.43083 0
M  V30 5639 H 519.356 1.18702 -5.88243 0
M  V30 5640 H 520.426 0.228382 -4.84362 0
M  V30 5641 N 521.769 1.56035 0.221574 0
M  V30 5642 C 523.018 1.78245 0.944016 0
M  V30 5643 C 523.331 0.620371 1.85501 0
M  V30 5644 O 524.537 0.726103 2.6161 0
M  V30 5645 C 522.993 3.15659 1.7288 0
M  V30 5646 C 522.601 4.39591 0.863942 0
M  V30 5647 C 524.345 3.47195 2.44246 0
M  V30 5648 C 522.252 5.6803 1.64607 0
M  V30 5649 H 521.182 0.664547 0.356222 0
M  V30 5650 H 523.833 1.8243 0.197904 0
M  V30 5651 H 522.215 3.0565 2.51781 0
M  V30 5652 H 523.389 4.60655 0.115464 0
M  V30 5653 H 521.704 4.15572 0.262407 0
M  V30 5654 H 524.301 4.40381 3.03263 0
M  V30 5655 H 524.644 2.69693 3.1713 0
M  V30 5656 H 525.177 3.58533 1.72334 0
M  V30 5657 H 521.916 6.48425 0.960507 0
M  V30 5658 H 521.436 5.51027 2.36917 0
M  V30 5659 H 523.115 6.08203 2.20675 0
M  V30 5660 N 523.247 -0.488276 1.49845 0
M  V30 5661 C 524.524 -1.24959 1.50481 0
M  V30 5662 C 524.904 -2.09735 0.239698 0
M  V30 5663 O 524.252 -2.14865 -0.777524 0
M  V30 5664 C 524.462 -2.0954 2.79095 0
M  V30 5665 C 525.81 -2.68305 3.29086 0
M  V30 5666 O 526.834 -2.19797 2.80299 0
M  V30 5667 O 525.693 -3.56643 4.14087 0
M  V30 5668 H 522.787 -0.566133 0.602845 0
M  V30 5669 H 525.333 -0.501504 1.6212 0
M  V30 5670 H 524.105 -1.46958 3.62656 0
M  V30 5671 H 523.728 -2.91517 2.70377 0
M  V30 5672 N 524.725 -1.39134 -0.740242 0
M  V30 5673 C 525.655 -1.40165 -1.86751 0
M  V30 5674 C 526.636 -0.265708 -1.68012 0
M  V30 5675 O 527.821 -0.47076 -1.88408 0
M  V30 5676 C 524.951 -1.2392 -3.2444 0
M  V30 5677 C 523.905 -2.34858 -3.57807 0
M  V30 5678 C 523.231 -2.03707 -4.94376 0
M  V30 5679 C 524.531 -3.77159 -3.61315 0
M  V30 5680 H 526.225 -2.345 -1.86145 0
M  V30 5681 H 523.771 -1.12875 -0.89416 0
M  V30 5682 H 525.724 -1.23263 -4.02969 0
M  V30 5683 H 524.448 -0.26051 -3.25559 0
M  V30 5684 H 523.107 -2.34723 -2.81604 0
M  V30 5685 H 522.755 -1.04289 -4.9207 0
M  V30 5686 H 522.455 -2.78016 -5.17669 0
M  V30 5687 H 523.979 -2.04691 -5.75268 0
M  V30 5688 H 525.393 -3.79252 -4.29931 0
M  V30 5689 H 523.79 -4.50784 -3.96124 0
M  V30 5690 H 524.86 -4.08513 -2.61238 0
M  V30 5691 N 526.204 0.969867 -1.24223 0
M  V30 5692 C 527.114 2.09806 -1.0497 0
M  V30 5693 C 528.13 1.73998 0.00886455 0
M  V30 5694 O 529.306 2.00513 -0.188848 0
M  V30 5695 C 526.371 3.40467 -0.654452 0
M  V30 5696 C 525.432 3.90236 -1.78926 0
M  V30 5697 C 524.665 5.14662 -1.41277 0
M  V30 5698 O 524.888 5.69602 -0.301632 0
M  V30 5699 O 523.822 5.58761 -2.23763 0
M  V30 5700 H 527.648 2.28942 -1.99548 0
M  V30 5701 H 525.233 1.08197 -1.03023 0
M  V30 5702 H 527.115 4.19039 -0.445452 0
M  V30 5703 H 525.79 3.22636 0.262216 0
M  V30 5704 H 524.697 3.12735 -2.05299 0
M  V30 5705 H 526.03 4.1254 -2.68462 0
M  V30 5706 N 527.682 1.05563 1.17022 0
M  V30 5707 C 528.592 0.670758 2.24807 0
M  V30 5708 C 529.608 -0.309865 1.71219 0
M  V30 5709 O 530.784 -0.161025 2.00755 0
M  V30 5710 C 527.849 0.055337 3.46656 0
M  V30 5711 C 526.91 1.08688 4.15314 0
M  V30 5712 C 526.143 0.500736 5.31346 0
M  V30 5713 O 526.366 -0.688718 5.66227 0
M  V30 5714 O 525.3 1.23683 5.89055 0
M  V30 5715 H 529.126 1.56914 2.60023 0
M  V30 5716 H 526.711 0.827428 1.24395 0
M  V30 5717 H 528.593 -0.286492 4.20425 0
M  V30 5718 H 527.268 -0.816638 3.13229 0
M  V30 5719 H 526.175 1.48077 3.43546 0
M  V30 5720 H 527.508 1.93014 4.52777 0
M  V30 5721 N 529.16 -1.33526 0.837174 0
M  V30 5722 C 530.108 -2.31168 0.257698 0
M  V30 5723 C 531.102 -1.5806 -0.609388 0
M  V30 5724 O 532.308 -1.72941 -0.499139 0
M  V30 5725 H 528.683 -0.74922 0.0646058 0
M  V30 5726 H 530.654 -2.77552 1.09578 0
M  V30 5727 C 529.403 -3.4326 -0.553887 0
M  V30 5728 H 528.726 -3.99665 0.104008 0
M  V30 5729 H 530.166 -4.13782 -0.925219 0
M  V30 5730 C 528.625 -2.88965 -1.73207 0
M  V30 5731 O 529.155 -2.85013 -2.83073 0
M  V30 5732 N 527.361 -2.45596 -1.55342 0
M  V30 5733 H 526.908 -2.49009 -0.659705 0
M  V30 5734 H 526.866 -2.0962 -2.34322 0
M  V30 5735 N 530.638 -0.59345 -1.46 0
M  V30 5736 C 531.601 0.123538 -2.28867 0
M  V30 5737 C 532.601 0.808628 -1.38989 0
M  V30 5738 O 533.791 0.658945 -1.61256 0
M  V30 5739 C 530.923 1.1847 -3.19653 0
M  V30 5740 H 532.116 -0.604843 -2.93737 0
M  V30 5741 H 529.669 -0.351875 -1.52288 0
M  V30 5742 H 530.404 1.94431 -2.59552 0
M  V30 5743 H 530.189 0.69783 -3.8584 0
M  V30 5744 H 531.679 1.68726 -3.81997 0
M  V30 5745 N 532.116 1.54067 -0.331816 0
M  V30 5746 C 533.341 2.05599 0.272705 0
M  V30 5747 C 533.766 1.2059 1.44359 0
M  V30 5748 O 533.124 0.216907 1.79998 0
M  V30 5749 C 533.172 3.54188 0.677021 0
M  V30 5750 O 532.276 3.72082 1.77844 0
M  V30 5751 H 531.617 0.662286 0.0476801 0
M  V30 5752 H 534.147 1.98826 -0.482624 0
M  V30 5753 H 534.157 3.96608 0.957415 0
M  V30 5754 H 532.832 4.15513 -0.179325 0
M  V30 5755 H 531.409 3.41566 1.49622 0
M  V30 5756 N 533.594 0.0601682 1.57485 0
M  V30 5757 C 534.841 -0.611594 1.93043 0
M  V30 5758 C 535.169 -1.70317 0.939274 0
M  V30 5759 O 534.424 -1.95644 -0.046996 0
M  V30 5760 C 534.723 -1.23831 3.35262 0
M  V30 5761 C 534.389 -0.274037 4.50066 0
M  V30 5762 C 533.051 -0.00872394 4.81199 0
M  V30 5763 C 535.403 0.386308 5.19766 0
M  V30 5764 C 532.731 0.924218 5.79375 0
M  V30 5765 C 535.083 1.3075 6.1894 0
M  V30 5766 C 533.747 1.58139 6.48497 0
M  V30 5767 H 533.017 -0.223798 0.706396 0
M  V30 5768 H 535.664 0.128566 1.91068 0
M  V30 5769 H 533.969 -2.05394 3.33647 0
M  V30 5770 H 535.666 -1.76517 3.60059 0
M  V30 5771 H 532.256 -0.491008 4.25778 0
M  V30 5772 H 536.44 0.194436 4.95919 0
M  V30 5773 H 531.696 1.1438 6.00606 0
M  V30 5774 H 535.87 1.82519 6.72056 0
M  V30 5775 H 533.497 2.30593 7.24383 0
M  V30 5776 N 535.072 -1.5615 -0.213296 0
M  V30 5777 C 536.022 -1.89485 -1.26804 0
M  V30 5778 C 537.006 -0.758713 -1.41889 0
M  V30 5779 O 538.198 -1.02127 -1.44565 0
M  V30 5780 C 535.327 -2.22219 -2.61675 0
M  V30 5781 C 534.413 -3.42245 -2.50458 0
M  V30 5782 N 534.804 -4.60645 -2.089 0
M  V30 5783 C 533.102 -3.46023 -2.81397 0
M  V30 5784 C 533.803 -5.42805 -2.09135 0
M  V30 5785 N 532.779 -4.82732 -2.49941 0
M  V30 5786 H 536.581 -2.78537 -0.937771 0
M  V30 5787 H 534.095 -1.56826 -0.421824 0
M  V30 5788 H 536.092 -2.44278 -3.37837 0
M  V30 5789 H 534.752 -1.34484 -2.95541 0
M  V30 5790 H 535.763 -4.85651 -1.79899 0
M  V30 5791 H 532.44 -2.68654 -3.1958 0
M  V30 5792 H 533.83 -6.47601 -1.79059 0
M  V30 5793 N 536.55 0.480323 -1.50102 0
M  V30 5794 C 537.78 1.25475 -1.64133 0
M  V30 5795 C 538.188 1.8647 -0.320272 0
M  V30 5796 O 537.531 1.69561 0.70673 0
M  V30 5797 C 537.593 2.40996 -2.6676 0
M  V30 5798 C 537.257 2.00711 -4.10565 0
M  V30 5799 C 538.254 1.53492 -4.96725 0
M  V30 5800 C 535.939 2.09714 -4.56427 0
M  V30 5801 C 537.933 1.15806 -6.26792 0
M  V30 5802 C 535.62 1.7164 -5.86501 0
M  V30 5803 C 536.618 1.24763 -6.71508 0
M  V30 5804 O 536.306 0.872122 -7.99155 0
M  V30 5805 H 536.038 0.385983 -0.554971 0
M  V30 5806 H 538.592 0.580848 -1.97016 0
M  V30 5807 H 536.822 3.11528 -2.291 0
M  V30 5808 H 538.511 3.02981 -2.70106 0
M  V30 5809 H 539.277 1.45966 -4.62514 0
M  V30 5810 H 535.156 2.4515 -3.90413 0
M  V30 5811 H 538.7 0.791465 -6.93096 0
M  V30 5812 H 534.597 1.78822 -6.20236 0
M  V30 5813 H 535.365 1.00178 -8.12346 0
M  V30 5814 N 538.028 1.39524 0.732853 0
M  V30 5815 C 538.976 1.38563 1.86824 0
M  V30 5816 C 539.97 0.268467 1.67259 0
M  V30 5817 O 541.176 0.438613 1.74574 0
M  V30 5818 H 537.551 0.432737 0.615014 0
M  V30 5819 H 539.522 2.34328 1.84751 0
M  V30 5820 C 538.271 1.2481 3.24527 0
M  V30 5821 H 537.594 2.10044 3.40179 0
M  V30 5822 H 539.034 1.28194 4.04156 0
M  V30 5823 C 537.493 -0.0432825 3.36872 0
M  V30 5824 O 538.023 -1.01268 3.88726 0
M  V30 5825 N 536.229 -0.107055 2.90403 0
M  V30 5826 H 535.776 0.682512 2.48394 0
M  V30 5827 H 535.734 -0.970618 2.99042 0
M  V30 5828 N 539.506 -0.963266 1.24736 0
M  V30 5829 C 540.454 -2.07985 1.04139 0
M  V30 5830 C 541.448 -1.69381 -0.0250556 0
M  V30 5831 O 542.654 -1.79531 0.129863 0
M  V30 5832 H 539.029 -0.680627 0.319768 0
M  V30 5833 H 541 -2.22517 1.98818 0
M  V30 5834 C 539.749 -3.4123 0.667615 0
M  V30 5835 H 539.072 -3.71397 1.48 0
M  V30 5836 H 540.512 -4.20244 0.563136 0
M  V30 5837 C 538.971 -3.3104 -0.625647 0
M  V30 5838 O 539.501 -3.65334 -1.67016 0
M  V30 5839 N 537.707 -2.84168 -0.608033 0
M  V30 5840 H 537.254 -2.56458 0.242323 0
M  V30 5841 H 537.212 -2.77732 -1.47352 0
M  V30 5842 N 540.985 -1.06182 -1.16461 0
M  V30 5843 C 542.231 -0.779015 -1.87241 0
M  V30 5844 C 542.564 0.692715 -1.81425 0
M  V30 5845 O 541.839 1.5074 -1.22913 0
M  V30 5846 C 542.122 -1.2728 -3.36856 0
M  V30 5847 C 541.975 -2.80821 -3.51368 0
M  V30 5848 C 543.294 -0.879799 -4.31216 0
M  V30 5849 H 540.413 -0.284464 -0.679889 0
M  V30 5850 H 543.055 -1.31755 -1.36896 0
M  V30 5851 H 541.205 -0.814673 -3.79862 0
M  V30 5852 H 542.877 -3.34833 -3.17308 0
M  V30 5853 H 541.12 -3.19606 -2.93316 0
M  V30 5854 H 541.791 -3.10435 -4.56436 0
M  V30 5855 H 544.267 -1.27436 -3.96105 0
M  V30 5856 H 543.143 -1.25278 -5.34412 0
M  V30 5857 H 543.404 0.215372 -4.41575 0
M  V30 5858 N 542.463 1.3308 -0.844243 0
M  V30 5859 C 543.74 1.92178 -0.364261 0
M  V30 5860 C 544.12 1.76961 1.15101 0
M  V30 5861 O 543.468 1.16128 1.9679 0
M  V30 5862 C 543.678 3.393 -0.817106 0
M  V30 5863 C 545.026 4.16444 -0.828236 0
M  V30 5864 O 546.05 3.47975 -0.761062 0
M  V30 5865 O 544.909 5.38685 -0.920926 0
M  V30 5866 H 542.003 0.820411 -0.10419 0
M  V30 5867 H 544.549 1.41918 -0.930453 0
M  V30 5868 H 543.321 3.44272 -1.85991 0
M  V30 5869 H 542.944 3.96947 -0.227785 0
M  V30 5870 N 543.941 0.601185 1.45683 0
M  V30 5871 C 544.851 -0.123395 2.34275 0
M  V30 5872 C 545.867 -0.86702 1.5086 0
M  V30 5873 O 547.043 -0.826049 1.8368 0
M  V30 5874 C 544.108 -1.11237 3.2837 0
M  V30 5875 C 543.169 -0.371405 4.2769 0
M  V30 5876 C 542.402 -1.31327 5.1729 0
M  V30 5877 O 542.625 -2.55078 5.10188 0
M  V30 5878 O 541.559 -0.813811 5.96373 0
M  V30 5879 H 545.385 0.604483 2.97623 0
M  V30 5880 H 542.97 0.361477 1.44961 0
M  V30 5881 H 544.852 -1.68214 3.8637 0
M  V30 5882 H 543.527 -1.82139 2.67595 0
M  V30 5883 H 542.434 0.24067 3.73325 0
M  V30 5884 H 543.767 0.296998 4.91303 0
M  V30 5885 N 545.419 -1.53889 0.339982 0
M  V30 5886 C 546.649 -2.04973 -0.258738 0
M  V30 5887 C 547.057 -1.21485 -1.45045 0
M  V30 5888 O 546.4 -0.2422 -1.82096 0
M  V30 5889 C 546.462 -3.51783 -0.740853 0
M  V30 5890 C 546.126 -4.55802 0.330734 0
M  V30 5891 C 547.123 -5.06512 1.17226 0
M  V30 5892 C 544.808 -4.99966 0.483637 0
M  V30 5893 C 546.802 -5.99963 2.15227 0
M  V30 5894 C 544.489 -5.93229 1.46704 0
M  V30 5895 C 545.487 -6.43115 2.29981 0
M  V30 5896 O 545.175 -7.34545 3.26649 0
M  V30 5897 H 544.907 -0.673807 -0.0544037 0
M  V30 5898 H 547.461 -1.99492 0.489107 0
M  V30 5899 H 545.691 -3.54717 -1.53988 0
M  V30 5900 H 547.38 -3.85857 -1.25973 0
M  V30 5901 H 548.146 -4.73158 1.0652 0
M  V30 5902 H 544.025 -4.6074 -0.15471 0
M  V30 5903 H 547.569 -6.38825 2.80265 0
M  V30 5904 H 543.466 -6.25998 1.57468 0
M  V30 5905 H 544.234 -7.52468 3.22078 0
M  V30 5906 N 546.897 -0.0685191 -1.57451 0
M  V30 5907 C 548.145 0.60016 -1.92983 0
M  V30 5908 C 548.466 1.70348 -0.949028 0
M  V30 5909 O 547.736 1.959 0.00335647 0
M  V30 5910 H 546.316 0.224682 -0.712409 0
M  V30 5911 H 548.978 -0.125605 -1.94495 0
M  V30 5912 H 548.074 1.02759 -2.94698 0
M  V30 5913 N 548.375 1.56261 0.205012 0
M  V30 5914 C 549.605 1.83874 0.942018 0
M  V30 5915 C 550.013 0.647595 1.77772 0
M  V30 5916 O 549.356 -0.393098 1.79445 0
M  V30 5917 C 549.418 3.05453 1.89575 0
M  V30 5918 C 549.082 4.39772 1.24296 0
M  V30 5919 C 550.079 5.16133 0.624724 0
M  V30 5920 C 547.764 4.86504 1.24978 0
M  V30 5921 C 549.758 6.37396 0.0220117 0
M  V30 5922 C 547.445 6.07705 0.643232 0
M  V30 5923 C 548.443 6.82993 0.0304164 0
M  V30 5924 O 548.131 8.019 -0.566654 0
M  V30 5925 H 547.863 0.614896 0.280854 0
M  V30 5926 H 550.417 2.04215 0.220285 0
M  V30 5927 H 548.647 2.80972 2.65691 0
M  V30 5928 H 550.336 3.19797 2.4997 0
M  V30 5929 H 551.102 4.81127 0.611666 0
M  V30 5930 H 546.981 4.27865 1.71616 0
M  V30 5931 H 550.525 6.96102 -0.456926 0
M  V30 5932 H 546.422 6.42181 0.653759 0
M  V30 5933 H 547.19 8.17192 -0.462588 0
M  V30 5934 N 549.853 -0.472356 1.50355 0
M  V30 5935 C 551.083 -1.24603 1.64796 0
M  V30 5936 C 551.491 -1.86297 0.330156 0
M  V30 5937 O 550.834 -1.69934 -0.697728 0
M  V30 5938 C 550.896 -2.39578 2.68035 0
M  V30 5939 C 550.56 -1.98531 4.11624 0
M  V30 5940 C 551.557 -1.50856 4.97532 0
M  V30 5941 C 549.242 -2.0729 4.57532 0
M  V30 5942 C 551.236 -1.12481 6.27397 0
M  V30 5943 C 548.923 -1.68527 5.87403 0
M  V30 5944 C 549.921 -1.212 6.7216 0
M  V30 5945 O 549.609 -0.829728 7.99607 0
M  V30 5946 H 549.341 -0.383035 0.55701 0
M  V30 5947 H 551.895 -0.570392 1.97321 0
M  V30 5948 H 550.125 -3.10309 2.30749 0
M  V30 5949 H 551.814 -3.01544 2.71709 0
M  V30 5950 H 552.58 -1.43511 4.63281 0
M  V30 5951 H 548.459 -2.43076 3.91708 0
M  V30 5952 H 552.003 -0.754698 6.93506 0
M  V30 5953 H 547.9 -1.7553 6.21176 0
M  V30 5954 H 548.668 -0.958689 8.12866 0
M  V30 5955 N 551.331 -1.39911 -0.725443 0
M  V30 5956 C 552.608 -1.28158 -1.47766 0
M  V30 5957 C 552.988 0.104545 -2.10841 0
M  V30 5958 O 552.336 1.11657 -1.99361 0
M  V30 5959 C 552.546 -2.41306 -2.52135 0
M  V30 5960 C 553.894 -2.81076 -3.18247 0
M  V30 5961 O 554.918 -2.40827 -2.62452 0
M  V30 5962 O 553.777 -3.50581 -4.19231 0
M  V30 5963 H 550.871 -0.502761 -0.656628 0
M  V30 5964 H 553.417 -1.51808 -0.758456 0
M  V30 5965 H 552.189 -3.33932 -2.03974 0
M  V30 5966 H 551.812 -2.19374 -3.31603 0
M  V30 5967 N 552.809 0.956637 -1.25245 0
M  V30 5968 C 554.055 1.70352 -1.10036 0
M  V30 5969 C 554.388 1.90869 0.358156 0
M  V30 5970 O 553.663 1.47819 1.26411 0
M  V30 5971 C 553.946 3.08766 -1.85298 0
M  V30 5972 C 553.799 2.95672 -3.38966 0
M  V30 5973 C 555.118 4.08622 -1.63451 0
M  V30 5974 H 552.237 0.618279 -0.401123 0
M  V30 5975 H 554.879 1.11212 -1.54051 0
M  V30 5976 H 553.029 3.59252 -1.47887 0
M  V30 5977 H 554.701 2.52527 -3.86041 0
M  V30 5978 H 552.944 2.31634 -3.6678 0
M  V30 5979 H 553.615 3.93776 -3.86839 0
M  V30 5980 H 556.091 3.67038 -1.96015 0
M  V30 5981 H 554.967 5.03514 -2.18551 0
M  V30 5982 H 555.228 4.3834 -0.575357 0
M  V30 5983 N 554.287 1.06798 1.15896 0
M  V30 5984 C 555.235 0.677525 2.22514 0
M  V30 5985 C 556.229 -0.308994 1.66558 0
M  V30 5986 O 557.435 -0.173308 1.79164 0
M  V30 5987 H 553.81 0.200994 0.724642 0
M  V30 5988 H 555.781 1.5865 2.52731 0
M  V30 5989 C 554.53 0.0854153 3.47595 0
M  V30 5990 H 553.853 0.835645 3.90969 0
M  V30 5991 H 555.293 -0.150199 4.23734 0
M  V30 5992 C 553.752 -1.1724 3.15843 0
M  V30 5993 O 554.282 -2.25965 3.32119 0
M  V30 5994 N 552.488 -1.07636 2.69931 0
M  V30 5995 H 552.035 -0.191559 2.56887 0
M  V30 5996 H 551.993 -1.91876 2.4906 0
M  V30 5997 N 555.766 -1.3263 0.851289 0
M  V30 5998 C 556.713 -2.28952 0.291469 0
M  V30 5999 C 557.683 -1.54897 -0.599676 0
M  V30 6000 O 558.868 -1.83137 -0.535305 0
M  V30 6001 C 556.008 -3.41206 -0.516992 0
M  V30 6002 C 555.121 -4.30148 0.399566 0
M  V30 6003 C 554.256 -5.29527 -0.4212 0
M  V30 6004 C 553.295 -6.10112 0.492969 0
M  V30 6005 N 552.432 -7.01499 -0.290414 0
M  V30 6006 H 557.272 -2.76228 1.11813 0
M  V30 6007 H 554.809 -1.35907 0.562826 0
M  V30 6008 H 556.767 -4.05005 -1.00132 0
M  V30 6009 H 555.397 -2.9509 -1.30851 0
M  V30 6010 H 554.449 -3.66959 1.00227 0
M  V30 6011 H 555.761 -4.8649 1.1013 0
M  V30 6012 H 554.915 -5.98914 -0.968832 0
M  V30 6013 H 553.654 -4.73794 -1.15632 0
M  V30 6014 H 552.659 -5.39632 1.05251 0
M  V30 6015 H 553.884 -6.6793 1.22664 0
M  V30 6016 H 551.83 -6.48199 -1.00868 0
M  V30 6017 H 551.747 -7.55178 0.352354 0
M  V30 6018 H 553.015 -7.75176 -0.819882 0
M  V30 6019 N 557.244 -0.608902 -1.45362 0
M  V30 6020 C 558.192 0.121639 -2.32282 0
M  V30 6021 C 559.186 0.858301 -1.46046 0
M  V30 6022 O 560.392 0.773718 -1.62523 0
M  V30 6023 H 556.767 0.058086 -0.749753 0
M  V30 6024 H 558.738 -0.629866 -2.91677 0
M  V30 6025 C 557.487 1.1047 -3.29684 0
M  V30 6026 H 556.81 0.547278 -3.96036 0
M  V30 6027 H 558.25 1.58576 -3.9323 0
M  V30 6028 C 556.709 2.17891 -2.56954 0
M  V30 6029 O 557.239 3.25652 -2.35189 0
M  V30 6030 N 555.445 1.93211 -2.17066 0
M  V30 6031 H 554.992 1.05584 -2.34967 0
M  V30 6032 H 554.95 2.6529 -1.68727 0
M  V30 6033 N 558.722 1.53707 -0.348139 0
M  V30 6034 C 559.95 2.05406 0.248224 0
M  V30 6035 C 560.365 1.22282 1.43849 0
M  V30 6036 O 559.722 0.259244 1.80649 0
M  V30 6037 C 559.773 3.55446 0.658793 0
M  V30 6038 O 559.494 4.35417 -0.484149 0
M  V30 6039 C 560.995 4.23335 1.31539 0
M  V30 6040 H 558.215 0.669344 0.0471075 0
M  V30 6041 H 560.759 1.98257 -0.501456 0
M  V30 6042 H 558.914 3.62803 1.35841 0
M  V30 6043 H 559.328 5.24268 -0.155949 0
M  V30 6044 H 560.802 5.29692 1.55338 0
M  V30 6045 H 561.279 3.75967 2.27036 0
M  V30 6046 H 561.885 4.20184 0.657683 0
M  V30 6047 N 560.2 0.0768682 1.57412 0
M  V30 6048 C 561.148 -0.906229 2.1422 0
M  V30 6049 C 562.142 -1.30477 1.08037 0
M  V30 6050 O 563.348 -1.28143 1.2641 0
M  V30 6051 H 559.723 -0.310207 0.685037 0
M  V30 6052 H 561.694 -0.402228 2.95677 0
M  V30 6053 C 560.443 -2.16245 2.72274 0
M  V30 6054 H 559.766 -1.86463 3.53655 0
M  V30 6055 H 561.206 -2.83134 3.15613 0
M  V30 6056 C 559.665 -2.92437 1.67279 0
M  V30 6057 O 560.195 -3.86322 1.10081 0
M  V30 6058 N 558.401 -2.55637 1.38195 0
M  V30 6059 H 557.948 -1.79363 1.84897 0
M  V30 6060 H 557.906 -3.06919 0.681787 0
M  V30 6061 N 561.678 -1.56367 -0.196722 0
M  V30 6062 C 562.927 -1.79724 -0.915539 0
M  V30 6063 C 563.24 -0.649804 -1.84491 0
M  V30 6064 O 564.446 -0.767631 -2.60422 0
M  V30 6065 C 562.902 -3.18369 -1.67836 0
M  V30 6066 C 562.51 -4.4091 -0.793897 0
M  V30 6067 C 564.254 -3.51037 -2.38691 0
M  V30 6068 C 562.161 -5.70577 -1.55549 0
M  V30 6069 H 561.091 -0.67013 -0.345604 0
M  V30 6070 H 563.742 -1.82721 -0.168856 0
M  V30 6071 H 562.124 -3.09617 -2.46887 0
M  V30 6072 H 563.298 -4.60781 -0.042163 0
M  V30 6073 H 561.613 -4.15937 -0.19626 0
M  V30 6074 H 564.21 -4.4515 -2.96219 0
M  V30 6075 H 564.553 -2.74704 -3.12799 0
M  V30 6076 H 565.086 -3.61229 -1.66608 0
M  V30 6077 H 561.825 -6.49871 -0.857226 0
M  V30 6078 H 561.345 -5.54726 -2.2812 0
M  V30 6079 H 563.024 -6.11637 -2.10971 0
M  V30 6080 N 563.156 0.464375 -1.50603 0
M  V30 6081 C 564.086 1.56944 -1.72889 0
M  V30 6082 C 565.067 1.59979 -0.577997 0
M  V30 6083 O 566.252 1.76138 -0.817855 0
M  V30 6084 C 563.382 2.95225 -1.8292 0
M  V30 6085 C 562.336 3.07056 -2.98162 0
M  V30 6086 C 561.662 4.47051 -2.93343 0
M  V30 6087 C 562.962 2.83648 -4.38567 0
M  V30 6088 H 564.656 1.38547 -2.65415 0
M  V30 6089 H 562.202 0.665082 -1.27721 0
M  V30 6090 H 564.155 3.72467 -1.97095 0
M  V30 6091 H 562.879 3.14793 -0.870209 0
M  V30 6092 H 561.538 2.32248 -2.83648 0
M  V30 6093 H 561.186 4.63547 -1.95276 0
M  V30 6094 H 560.886 4.55902 -3.70712 0
M  V30 6095 H 562.41 5.26304 -3.09575 0
M  V30 6096 H 563.824 3.50636 -4.53572 0
M  V30 6097 H 562.221 3.03937 -5.17438 0
M  V30 6098 H 563.291 1.79451 -4.50472 0
M  V30 6099 N 564.634 1.40294 0.718013 0
M  V30 6100 C 565.859 1.41941 1.5122 0
M  V30 6101 C 566.284 0.0202371 1.88089 0
M  V30 6102 O 565.642 -0.971078 1.53101 0
M  V30 6103 C 565.69 2.3141 2.76554 0
M  V30 6104 O 564.794 1.75567 3.73162 0
M  V30 6105 H 564.135 0.482644 0.456016 0
M  V30 6106 H 566.665 1.84494 0.884478 0
M  V30 6107 H 566.675 2.46513 3.25108 0
M  V30 6108 H 565.35 3.33085 2.49053 0
M  V30 6109 H 563.927 1.69798 3.31999 0
M  V30 6110 N 566.112 -0.949982 1.2575 0
M  V30 6111 C 567.06 -2.06869 1.06339 0
M  V30 6112 C 568.054 -1.69399 -0.00708901 0
M  V30 6113 O 569.26 -1.79383 0.148897 0
M  V30 6114 H 565.635 -0.677197 0.326969 0
M  V30 6115 H 567.606 -2.20396 2.01167 0
M  V30 6116 C 566.355 -3.40503 0.703769 0
M  V30 6117 H 565.678 -3.69807 1.51931 0
M  V30 6118 H 567.118 -4.19623 0.607677 0
M  V30 6119 C 565.577 -3.31685 -0.5905 0
M  V30 6120 O 566.107 -3.67085 -1.63131 0
M  V30 6121 N 564.313 -2.84797 -0.577859 0
M  V30 6122 H 563.86 -2.56186 0.26951 0
M  V30 6123 H 563.818 -2.79279 -1.44398 0
M  V30 6124 N 567.59 -1.07411 -1.15328 0
M  V30 6125 C 568.538 -0.689316 -2.22151 0
M  V30 6126 C 569.532 0.300156 -1.6672 0
M  V30 6127 O 570.738 0.163804 -1.79253 0
M  V30 6128 H 567.113 -0.204834 -0.723566 0
M  V30 6129 H 569.084 -1.59988 -2.51886 0
M  V30 6130 C 567.833 -0.103848 -3.47545 0
M  V30 6131 H 567.156 -0.856367 -3.90521 0
M  V30 6132 H 568.596 0.127725 -4.23808 0
M  V30 6133 C 567.055 1.15563 -3.1646 0
M  V30 6134 O 567.585 2.242 -3.33312 0
M  V30 6135 N 565.791 1.06203 -2.70498 0
M  V30 6136 H 565.338 0.177933 -2.56985 0
M  V30 6137 H 565.296 1.90553 -2.50074 0
M  V30 6138 N 569.068 1.32177 -0.85831 0
M  V30 6139 C 570.015 2.28794 -0.303607 0
M  V30 6140 C 570.985 1.55213 0.591453 0
M  V30 6141 O 572.17 1.83418 0.525585 0
M  V30 6142 C 569.31 3.41475 0.49889 0
M  V30 6143 C 568.423 4.2993 -0.422373 0
M  V30 6144 C 567.558 5.29743 0.393111 0
M  V30 6145 C 566.597 6.09842 -0.525317 0
M  V30 6146 N 565.734 7.01643 0.253208 0
M  V30 6147 H 570.574 2.75631 -1.13276 0
M  V30 6148 H 568.111 1.35606 -0.570026 0
M  V30 6149 H 570.069 4.05531 0.979826 0
M  V30 6150 H 568.699 2.95779 1.29284 0
M  V30 6151 H 567.751 3.66422 -1.02171 0
M  V30 6152 H 569.063 4.85899 -1.12709 0
M  V30 6153 H 568.217 5.9942 0.937056 0
M  V30 6154 H 566.956 4.744 1.13117 0
M  V30 6155 H 565.961 5.39066 -1.08112 0
M  V30 6156 H 567.186 6.6727 -1.26205 0
M  V30 6157 H 565.132 6.48725 0.974295 0
M  V30 6158 H 565.049 7.54981 -0.392398 0
M  V30 6159 H 566.317 7.756 0.778761 0
M  V30 6160 N 570.547 0.616602 1.45037 0
M  V30 6161 C 571.796 0.112861 2.01384 0
M  V30 6162 C 572.109 -1.26758 1.48969 0
M  V30 6163 O 573.315 -1.86454 1.9735 0
M  V30 6164 C 571.771 0.151057 3.59583 0
M  V30 6165 C 571.379 1.53191 4.20995 0
M  V30 6166 C 573.123 -0.296974 4.2346 0
M  V30 6167 C 571.03 1.526 5.71373 0
M  V30 6168 H 569.96 0.0384254 0.75302 0
M  V30 6169 H 572.611 0.773262 1.66412 0
M  V30 6170 H 570.993 -0.57617 3.91786 0
M  V30 6171 H 572.167 2.28156 4.00352 0
M  V30 6172 H 570.482 1.92279 3.69348 0
M  V30 6173 H 573.079 -0.320712 5.33737 0
M  V30 6174 H 573.422 -1.32145 3.9477 0
M  V30 6175 H 573.955 0.377279 3.96007 0
M  V30 6176 H 570.694 2.52837 6.04776 0
M  V30 6177 H 570.214 0.819064 5.94181 0
M  V30 6178 H 571.893 1.25357 6.3474 0
M  V30 6179 N 572.025 -1.5352 0.356285 0
M  V30 6180 C 572.935 -2.29151 -0.502712 0
M  V30 6181 C 573.951 -1.34753 -1.1008 0
M  V30 6182 O 575.127 -1.67803 -1.11374 0
M  V30 6183 C 572.192 -3.05911 -1.63154 0
M  V30 6184 C 571.253 -4.15958 -1.06194 0
M  V30 6185 C 570.486 -4.8905 -2.13696 0
M  V30 6186 O 570.709 -4.61919 -3.34645 0
M  V30 6187 O 569.643 -5.75202 -1.77275 0
M  V30 6188 H 573.469 -3.03492 0.112466 0
M  V30 6189 H 571.054 -1.4891 0.120942 0
M  V30 6190 H 572.936 -3.53874 -2.28804 0
M  V30 6191 H 571.611 -2.34415 -2.23229 0
M  V30 6192 H 570.518 -3.7227 -0.369603 0
M  V30 6193 H 571.851 -4.89593 -0.505872 0
M  V30 6194 N 573.503 -0.0852151 -1.57369 0
M  V30 6195 C 574.435 0.907099 -2.10486 0
M  V30 6196 C 575.448 1.25259 -1.03991 0
M  V30 6197 O 576.637 1.20743 -1.31467 0
M  V30 6198 C 573.737 2.21908 -2.56145 0
M  V30 6199 C 572.91 2.05042 -3.86363 0
M  V30 6200 C 571.969 3.19664 -4.17973 0
M  V30 6201 O 570.995 2.94062 -4.87356 0
M  V30 6202 N 572.197 4.45151 -3.72587 0
M  V30 6203 H 574.962 0.453505 -2.96249 0
M  V30 6204 H 572.523 0.100157 -1.6159 0
M  V30 6205 H 574.515 2.97519 -2.74343 0
M  V30 6206 H 573.085 2.58723 -1.75446 0
M  V30 6207 H 572.305 1.13819 -3.77411 0
M  V30 6208 H 573.593 1.91039 -4.71574 0
M  V30 6209 H 572.991 4.68834 -3.16561 0
M  V30 6210 H 571.548 5.17744 -3.9596 0
M  V30 6211 N 574.981 1.5647 0.188427 0
M  V30 6212 C 575.929 1.95971 1.25293 0
M  V30 6213 C 576.923 0.846047 1.4676 0
M  V30 6214 O 578.129 1.03109 1.47542 0
M  V30 6215 H 574.504 0.623253 0.420784 0
M  V30 6216 H 576.475 2.84731 0.892792 0
M  V30 6217 C 575.224 2.32116 2.58877 0
M  V30 6218 H 574.547 3.17341 2.43176 0
M  V30 6219 H 575.987 2.63613 3.3209 0
M  V30 6220 C 574.446 1.15823 3.16365 0
M  V30 6221 O 574.976 0.436785 3.99318 0
M  V30 6222 N 573.182 0.933278 2.75206 0
M  V30 6223 H 572.729 1.52169 2.07852 0
M  V30 6224 H 572.687 0.156976 3.14008 0
M  V30 6225 N 576.459 -0.456382 1.50847 0
M  V30 6226 C 577.407 -1.57318 1.71329 0
M  V30 6227 C 578.401 -1.59187 0.579287 0
M  V30 6228 O 579.607 -1.6316 0.76018 0
M  V30 6229 H 575.982 -0.5223 0.541024 0
M  V30 6230 H 577.953 -1.3721 2.64983 0
M  V30 6231 C 576.702 -2.95142 1.83811 0
M  V30 6232 H 576.025 -2.94428 2.70467 0
M  V30 6233 H 577.465 -3.72702 2.02161 0
M  V30 6234 C 575.924 -3.31636 0.593224 0
M  V30 6235 O 576.454 -4.00852 -0.260898 0
M  V30 6236 N 574.66 -2.87205 0.442902 0
M  V30 6237 H 574.207 -2.31051 1.13901 0
M  V30 6238 H 574.165 -3.11986 -0.38884 0
M  V30 6239 N 577.937 -1.40673 -0.710563 0
M  V30 6240 C 578.885 -1.41517 -1.84596 0
M  V30 6241 C 579.879 -0.295043 -1.66811 0
M  V30 6242 O 581.085 -0.466331 -1.73854 0
M  V30 6243 H 577.46 -0.442467 -0.608052 0
M  V30 6244 H 579.431 -2.37238 -1.80999 0
M  V30 6245 C 578.18 -1.29957 -3.225 0
M  V30 6246 H 577.503 -2.15429 -3.36794 0
M  V30 6247 H 578.943 -1.34608 -4.02066 0
M  V30 6248 C 577.402 -0.0103164 -3.36898 0
M  V30 6249 O 577.932 0.950707 -3.90288 0
M  V30 6250 N 576.138 0.0608409 -2.90536 0
M  V30 6251 H 575.685 -0.721943 -2.47277 0
M  V30 6252 H 575.643 0.92292 -3.00549 0
M  V30 6253 N 579.415 0.9433 -1.26252 0
M  V30 6254 C 580.363 2.06302 -1.07434 0
M  V30 6255 C 581.357 1.694 -0.00189471 0
M  V30 6256 O 582.563 1.79302 -0.158408 0
M  V30 6257 H 578.938 0.675453 -0.330556 0
M  V30 6258 H 580.909 2.19326 -2.02333 0
M  V30 6259 C 579.658 3.40125 -0.721817 0
M  V30 6260 H 578.981 3.68996 -1.5389 0
M  V30 6261 H 580.421 4.19295 -0.629922 0
M  V30 6262 C 578.88 3.31993 0.572902 0
M  V30 6263 O 579.41 3.67945 1.61182 0
M  V30 6264 N 577.616 2.85099 0.562748 0
M  V30 6265 H 577.163 2.5604 -0.283092 0
M  V30 6266 H 577.121 2.80041 1.42915 0
M  V30 6267 N 580.893 1.08022 1.14757 0
M  V30 6268 C 581.803 0.718292 2.23333 0
M  V30 6269 C 582.819 -0.273477 1.71837 0
M  V30 6270 O 583.995 -0.118406 2.01052 0
M  V30 6271 C 581.06 0.128855 3.4646 0
M  V30 6272 C 580.121 1.17473 4.12915 0
M  V30 6273 C 579.354 0.61333 5.30164 0
M  V30 6274 O 579.577 -0.568458 5.6756 0
M  V30 6275 O 578.511 1.3615 5.86299 0
M  V30 6276 H 582.337 1.62394 2.56636 0
M  V30 6277 H 579.922 0.853628 1.22611 0
M  V30 6278 H 581.804 -0.197249 4.20938 0
M  V30 6279 H 580.479 -0.750014 3.14891 0
M  V30 6280 H 579.386 1.5533 3.40328 0
M  V30 6281 H 580.719 2.02574 4.48581 0
M  V30 6282 N 582.371 -1.3172 0.865308 0
M  V30 6283 C 583.319 -2.30569 0.306674 0
M  V30 6284 C 584.313 -1.59317 -0.575724 0
M  V30 6285 O 585.519 -1.73961 -0.462343 0
M  V30 6286 H 581.894 -0.747681 0.0804834 0
M  V30 6287 H 583.865 -2.75165 1.15441 0
M  V30 6288 C 582.614 -3.44358 -0.480952 0
M  V30 6289 H 581.937 -3.99354 0.18876 0
M  V30 6290 H 583.377 -4.15652 -0.837241 0
M  V30 6291 C 581.836 -2.92574 -1.67039 0
M  V30 6292 O 582.366 -2.90954 -2.76964 0
M  V30 6293 N 580.572 -2.48835 -1.50097 0
M  V30 6294 H 580.119 -2.50353 -0.606738 0
M  V30 6295 H 580.077 -2.14543 -2.29823 0
M  V30 6296 N 583.85 -0.624285 -1.44708 0
M  V30 6297 C 584.798 0.0969952 -2.32398 0
M  V30 6298 C 585.792 0.842762 -1.46949 0
M  V30 6299 O 586.998 0.756436 -1.63334 0
M  V30 6300 H 583.373 0.0501306 -0.750327 0
M  V30 6301 H 585.344 -0.660767 -2.90992 0
M  V30 6302 C 584.093 1.06967 -3.30837 0
M  V30 6303 H 583.416 0.505242 -3.96595 0
M  V30 6304 H 584.856 1.54397 -3.94889 0
M  V30 6305 C 583.315 2.15153 -2.5925 0
M  V30 6306 O 583.845 3.23139 -2.3863 0
M  V30 6307 N 582.051 1.90898 -2.19103 0
M  V30 6308 H 581.598 1.03086 -2.36074 0
M  V30 6309 H 581.556 2.63485 -1.71531 0
M  V30 6310 N 585.328 1.53329 -0.364422 0
M  V30 6311 C 586.275 2.25698 0.482607 0
M  V30 6312 C 587.245 1.26325 1.07848 0
M  V30 6313 O 588.43 1.55104 1.11119 0
M  V30 6314 C 585.57 3.04873 1.61699 0
M  V30 6315 C 584.683 4.19135 1.0464 0
M  V30 6316 C 583.818 4.85754 2.14979 0
M  V30 6317 C 582.857 5.9205 1.5538 0
M  V30 6318 N 581.994 6.52365 2.59547 0
M  V30 6319 H 586.834 2.97666 -0.141032 0
M  V30 6320 H 584.371 1.46875 -0.0813692 0
M  V30 6321 H 586.329 3.49051 2.28516 0
M  V30 6322 H 584.959 2.35162 2.2113 0
M  V30 6323 H 584.011 3.79451 0.268553 0
M  V30 6324 H 585.323 4.95525 0.570653 0
M  V30 6325 H 584.477 5.3311 2.89619 0
M  V30 6326 H 583.216 4.08834 2.65906 0
M  V30 6327 H 582.221 5.44058 0.792549 0
M  V30 6328 H 583.446 6.7089 1.0528 0
M  V30 6329 H 581.392 5.78298 3.09689 0
M  V30 6330 H 581.309 7.2429 2.16655 0
M  V30 6331 H 582.577 7.0437 3.33892 0
M  V30 6332 N 586.806 0.0935595 1.57322 0
M  V30 6333 C 587.754 -0.883457 2.15169 0
M  V30 6334 C 588.748 -1.29324 1.09415 0
M  V30 6335 O 589.954 -1.26795 1.27762 0
M  V30 6336 H 586.329 -0.302923 0.688289 0
M  V30 6337 H 588.3 -0.370845 2.96087 0
M  V30 6338 C 587.049 -2.13345 2.74552 0
M  V30 6339 H 586.372 -1.82702 3.55612 0
M  V30 6340 H 587.812 -2.7977 3.18598 0
M  V30 6341 C 586.271 -2.90646 1.70371 0
M  V30 6342 O 586.801 -3.85133 1.14173 0
M  V30 6343 N 585.007 -2.54157 1.40899 0
M  V30 6344 H 584.554 -1.77391 1.86789 0
M  V30 6345 H 584.512 -3.06178 0.714301 0
M  V30 6346 N 588.284 -1.56567 -0.180126 0
M  V30 6347 C 589.232 -1.96632 -1.24251 0
M  V30 6348 C 590.226 -0.853818 -1.46309 0
M  V30 6349 O 591.432 -1.0389 -1.46993 0
M  V30 6350 H 587.807 -0.625476 -0.417473 0
M  V30 6351 H 589.778 -2.85201 -0.877679 0
M  V30 6352 C 588.527 -2.33486 -2.57642 0
M  V30 6353 H 587.85 -3.18626 -2.4149 0
M  V30 6354 H 589.29 -2.65371 -3.30688 0
M  V30 6355 C 587.749 -1.17499 -3.15746 0
M  V30 6356 O 588.279 -0.457956 -3.99081 0
M  V30 6357 N 586.485 -0.94786 -2.74707 0
M  V30 6358 H 586.032 -1.53269 -2.07042 0
M  V30 6359 H 585.99 -0.173626 -3.1392 0
M  V30 6360 N 589.762 0.448376 -1.51087 0
M  V30 6361 C 590.709 1.54341 -1.71603 0
M  V30 6362 C 591.679 1.56463 -0.557536 0
M  V30 6363 O 592.864 1.73644 -0.79072 0
M  V30 6364 C 590.004 2.92148 -1.83695 0
M  V30 6365 C 589.117 2.99639 -3.11192 0
M  V30 6366 C 588.252 4.285 -3.13944 0
M  V30 6367 C 587.291 4.29819 -4.35801 0
M  V30 6368 N 586.428 5.50186 -4.36164 0
M  V30 6369 H 591.268 1.36151 -2.65079 0
M  V30 6370 H 588.805 0.661585 -1.31383 0
M  V30 6371 H 590.763 3.72093 -1.88687 0
M  V30 6372 H 589.393 3.0892 -0.936374 0
M  V30 6373 H 588.445 2.12425 -3.15562 0
M  V30 6374 H 589.757 2.96474 -4.01129 0
M  V30 6375 H 588.911 5.16811 -3.17791 0
M  V30 6376 H 587.65 4.34307 -2.21876 0
M  V30 6377 H 586.655 3.39902 -4.32142 0
M  V30 6378 H 587.88 4.25685 -5.29121 0
M  V30 6379 H 585.826 5.56735 -3.46961 0
M  V30 6380 H 585.743 5.48856 -5.19897 0
M  V30 6381 H 587.011 6.40559 -4.44189 0
M  V30 6382 N 591.24 1.41047 0.703093 0
M  V30 6383 C 592.188 1.42494 1.83843 0
M  V30 6384 C 593.182 0.303885 1.66652 0
M  V30 6385 O 594.388 0.475544 1.73605 0
M  V30 6386 H 590.763 0.445685 0.605697 0
M  V30 6387 H 592.734 2.38194 1.79739 0
M  V30 6388 C 591.483 1.31666 3.21807 0
M  V30 6389 H 590.806 2.17212 3.35647 0
M  V30 6390 H 592.246 1.36738 4.01346 0
M  V30 6391 C 590.705 0.0281828 3.36888 0
M  V30 6392 O 591.235 -0.929995 3.90786 0
M  V30 6393 N 589.441 -0.0454322 2.90564 0
M  V30 6394 H 588.988 0.735046 2.4689 0
M  V30 6395 H 588.946 -0.906968 3.01034 0
M  V30 6396 N 592.718 -0.936591 1.26751 0
M  V30 6397 C 593.666 -2.0573 1.08527 0
M  V30 6398 C 594.66 -1.69397 0.0108784 0
M  V30 6399 O 595.866 -1.79215 0.167915 0
M  V30 6400 H 592.241 -0.673691 0.334133 0
M  V30 6401 H 594.212 -2.1825 2.03493 0
M  V30 6402 C 592.961 -3.39738 0.739845 0
M  V30 6403 H 592.284 -3.68174 1.55845 0
M  V30 6404 H 593.724 -4.18955 0.652149 0
M  V30 6405 C 592.183 -3.32292 -0.555288 0
M  V30 6406 O 592.713 -3.68794 -1.59229 0
M  V30 6407 N 590.919 -2.85394 -0.54762 0
M  V30 6408 H 590.466 -2.55886 0.296667 0
M  V30 6409 H 590.424 -2.80795 -1.41427 0
M  V30 6410 N 594.196 -1.08629 -1.14182 0
M  V30 6411 C 595.144 -0.71284 -2.21408 0
M  V30 6412 C 596.138 0.282457 -1.67029 0
M  V30 6413 O 597.344 0.144783 -1.79417 0
M  V30 6414 H 593.719 -0.212497 -0.721352 0
M  V30 6415 H 595.69 -1.6265 -2.50175 0
M  V30 6416 C 594.439 -0.140704 -3.47415 0
M  V30 6417 H 593.762 -0.897739 -3.8959 0
M  V30 6418 H 595.202 0.0827677 -4.23919 0
M  V30 6419 C 593.661 1.122 -3.17668 0
M  V30 6420 O 594.191 2.20652 -3.35672 0
M  V30 6421 N 592.397 1.03328 -2.71609 0
M  V30 6422 H 591.944 0.150666 -2.57159 0
M  V30 6423 H 591.902 1.8789 -2.52081 0
M  V30 6424 N 595.674 1.31259 -0.872281 0
M  V30 6425 C 596.622 2.30404 -0.318897 0
M  V30 6426 C 597.616 1.5962 0.567267 0
M  V30 6427 O 598.822 1.74204 0.453111 0
M  V30 6428 H 595.197 0.747243 -0.0844474 0
M  V30 6429 H 597.168 2.74549 -1.16899 0
M  V30 6430 C 595.917 3.44608 0.462683 0
M  V30 6431 H 595.24 3.99248 -0.209936 0
M  V30 6432 H 596.68 4.1609 0.815187 0
M  V30 6433 C 595.139 2.93456 1.65485 0
M  V30 6434 O 595.669 2.92418 2.75417 0
M  V30 6435 N 593.875 2.49628 1.48776 0
M  V30 6436 H 593.422 2.50671 0.593452 0
M  V30 6437 H 593.38 2.15759 2.28682 0
M  V30 6438 N 597.152 0.631951 1.44375 0
M  V30 6439 C 598.1 -0.0846693 2.32446 0
M  V30 6440 C 599.094 -0.834957 1.47393 0
M  V30 6441 O 600.3 -0.747764 1.63733 0
M  V30 6442 H 596.675 -0.0461508 0.750583 0
M  V30 6443 H 598.646 0.67619 2.90638 0
M  V30 6444 C 597.395 -1.05211 3.314 0
M  V30 6445 H 596.718 -0.484203 3.96857 0
M  V30 6446 H 598.158 -1.523 3.95703 0
M  V30 6447 C 596.617 -2.13776 2.60387 0
M  V30 6448 O 597.147 -3.21869 2.4034 0
M  V30 6449 N 595.353 -1.89733 2.20113 0
M  V30 6450 H 594.9 -1.01833 2.36618 0
M  V30 6451 H 594.858 -2.62572 1.72926 0
M  V30 6452 N 598.631 -1.53133 0.372548 0
M  V30 6453 C 599.541 -2.29671 -0.478379 0
M  V30 6454 C 600.557 -1.35913 -1.08644 0
M  V30 6455 O 601.733 -1.68975 -1.09588 0
M  V30 6456 C 598.798 -3.07625 -1.599 0
M  V30 6457 C 597.859 -4.17061 -1.01776 0
M  V30 6458 C 597.092 -4.91289 -2.08497 0
M  V30 6459 O 597.315 -4.65442 -3.29727 0
M  V30 6460 O 596.249 -5.7705 -1.71164 0
M  V30 6461 H 600.075 -3.03355 0.144649 0
M  V30 6462 H 597.66 -1.48773 0.136729 0
M  V30 6463 H 599.542 -3.56281 -2.25038 0
M  V30 6464 H 598.217 -2.3677 -2.2073 0
M  V30 6465 H 597.124 -3.72641 -0.330098 0
M  V30 6466 H 598.457 -4.90102 -0.453915 0
M  V30 6467 N 600.109 -0.101901 -1.5727 0
M  V30 6468 C 601.355 0.561027 -1.94885 0
M  V30 6469 C 601.688 1.6741 -0.984258 0
M  V30 6470 O 600.963 1.94491 -0.0184767 0
M  V30 6471 C 601.246 1.10982 -3.42571 0
M  V30 6472 C 601.099 0.00133418 -4.498 0
M  V30 6473 C 602.418 2.00608 -3.9172 0
M  V30 6474 H 599.537 0.202467 -0.708644 0
M  V30 6475 H 602.179 -0.173992 -1.89202 0
M  V30 6476 H 600.329 1.73621 -3.47546 0
M  V30 6477 H 602.001 -0.63322 -4.56933 0
M  V30 6478 H 600.244 -0.664143 -4.28686 0
M  V30 6479 H 600.915 0.426253 -5.50352 0
M  V30 6480 H 603.391 1.47864 -3.88941 0
M  V30 6481 H 602.267 2.3593 -4.95609 0
M  V30 6482 H 602.528 2.92608 -3.3141 0
M  V30 6483 N 601.587 1.56661 0.17182 0
M  V30 6484 C 602.864 1.72838 0.915778 0
M  V30 6485 C 603.244 0.66316 2.00413 0
M  V30 6486 O 602.592 -0.322123 2.26218 0
M  V30 6487 C 602.802 3.16019 1.48097 0
M  V30 6488 C 604.15 3.76962 1.95408 0
M  V30 6489 O 605.174 3.19294 1.57892 0
M  V30 6490 O 604.033 4.78219 2.64516 0
M  V30 6491 H 601.127 0.705797 0.431021 0
M  V30 6492 H 603.673 1.68947 0.159689 0
M  V30 6493 H 602.445 3.85031 0.697618 0
M  V30 6494 H 602.068 3.24234 2.30126 0
M  V30 6495 N 603.065 -0.440357 1.51323 0
M  V30 6496 C 604.295 -1.21079 1.67402 0
M  V30 6497 C 604.703 -1.85555 0.369599 0
M  V30 6498 O 604.046 -1.71375 -0.661525 0
M  V30 6499 C 604.108 -2.33839 2.73056 0
M  V30 6500 C 603.772 -1.89755 4.15743 0
M  V30 6501 C 604.769 -1.40268 5.0062 0
M  V30 6502 C 602.454 -1.97539 4.61826 0
M  V30 6503 C 604.448 -0.991474 6.29642 0
M  V30 6504 C 602.135 -1.56029 5.90845 0
M  V30 6505 C 603.133 -1.06915 6.7458 0
M  V30 6506 O 602.821 -0.659933 8.01187 0
M  V30 6507 H 602.553 -0.371133 0.56501 0
M  V30 6508 H 605.107 -0.528409 1.98487 0
M  V30 6509 H 603.337 -3.05345 2.37279 0
M  V30 6510 H 605.026 -2.95713 2.78044 0
M  V30 6511 H 605.792 -1.33652 4.66221 0
M  V30 6512 H 601.671 -2.34713 3.96776 0
M  V30 6513 H 605.215 -0.607425 6.9495 0
M  V30 6514 H 601.112 -1.62315 6.24759 0
M  V30 6515 H 601.88 -0.786052 8.14717 0
M  V30 6516 N 604.543 -1.41418 -0.695603 0
M  V30 6517 C 605.792 -1.40073 -1.4513 0
M  V30 6518 C 606.105 -0.0130439 -1.95596 0
M  V30 6519 O 607.311 0.123032 -2.71221 0
M  V30 6520 C 605.767 -2.46286 -2.62433 0
M  V30 6521 C 605.375 -3.90962 -2.18753 0
M  V30 6522 C 607.119 -2.54077 -3.40066 0
M  V30 6523 C 605.026 -4.88728 -3.33015 0
M  V30 6524 H 603.956 -0.520903 -0.545138 0
M  V30 6525 H 606.607 -1.67242 -0.75515 0
M  V30 6526 H 604.989 -2.12248 -3.34315 0
M  V30 6527 H 606.163 -4.34248 -1.54161 0
M  V30 6528 H 604.478 -3.86831 -1.54114 0
M  V30 6529 H 607.075 -3.24303 -4.25125 0
M  V30 6530 H 607.418 -1.5776 -3.8525 0
M  V30 6531 H 607.951 -2.87206 -2.75241 0
M  V30 6532 H 604.69 -5.86449 -2.92844 0
M  V30 6533 H 604.21 -4.50091 -3.96457 0
M  V30 6534 H 605.889 -5.09483 -3.98793 0
M  V30 6535 N 606.021 0.929856 -1.27246 0
M  V30 6536 C 606.968 2.03017 -1.09785 0
M  V30 6537 C 607.938 1.661 0.000456744 0
M  V30 6538 O 609.123 1.90116 -0.161462 0
M  V30 6539 C 606.263 3.36878 -0.748816 0
M  V30 6540 C 605.376 3.86763 -1.92453 0
M  V30 6541 C 604.511 5.09061 -1.51758 0
M  V30 6542 C 603.55 5.51237 -2.66091 0
M  V30 6543 N 602.687 6.64732 -2.25999 0
M  V30 6544 H 607.527 2.17285 -2.03939 0
M  V30 6545 H 605.064 1.06448 -1.01524 0
M  V30 6546 H 607.022 4.13855 -0.527283 0
M  V30 6547 H 605.652 3.22424 0.155771 0
M  V30 6548 H 604.704 3.06086 -2.25867 0
M  V30 6549 H 606.016 4.13994 -2.78227 0
M  V30 6550 H 605.17 5.93532 -1.25716 0
M  V30 6551 H 603.909 4.83602 -0.630896 0
M  V30 6552 H 602.914 4.65316 -2.92849 0
M  V30 6553 H 604.139 5.78692 -3.55377 0
M  V30 6554 H 602.085 6.40935 -1.3978 0
M  V30 6555 H 602.002 6.91607 -3.05313 0
M  V30 6556 H 603.27 7.52549 -2.03199 0
M  V30 6557 N 607.499 1.09233 1.13605 0
M  V30 6558 C 608.446 0.729921 2.18954 0
M  V30 6559 C 609.416 -0.287916 1.63586 0
M  V30 6560 O 610.601 -0.170003 1.90041 0
M  V30 6561 C 607.741 0.154489 3.44754 0
M  V30 6562 C 606.854 1.22613 4.14234 0
M  V30 6563 C 605.989 0.613657 5.27644 0
M  V30 6564 C 605.028 1.66674 5.8897 0
M  V30 6565 N 604.165 1.07545 6.93814 0
M  V30 6566 H 609.005 1.63257 2.49302 0
M  V30 6567 H 606.542 0.815693 1.22413 0
M  V30 6568 H 608.5 -0.196923 4.16735 0
M  V30 6569 H 607.13 -0.711433 3.14863 0
M  V30 6570 H 606.182 1.69485 3.40557 0
M  V30 6571 H 607.494 2.0238 4.55899 0
M  V30 6572 H 606.648 0.210976 6.06333 0
M  V30 6573 H 605.387 -0.215584 4.87223 0
M  V30 6574 H 604.392 2.07899 5.08978 0
M  V30 6575 H 605.617 2.49861 6.31464 0
M  V30 6576 H 603.563 0.267451 6.55455 0
M  V30 6577 H 603.48 1.81011 7.3401 0
M  V30 6578 H 604.748 0.698906 7.7636 0
M  V30 6579 N 608.977 -1.30795 0.87923 0
M  V30 6580 C 610.254 -1.91145 0.415086 0
M  V30 6581 C 610.634 -1.7995 -1.10368 0
M  V30 6582 O 609.982 -1.21305 -1.93642 0
M  V30 6583 C 610.192 -3.37014 0.906778 0
M  V30 6584 C 611.54 -4.14101 0.938358 0
M  V30 6585 O 612.564 -3.45834 0.853053 0
M  V30 6586 O 611.423 -5.36054 1.06342 0
M  V30 6587 H 608.517 -0.81736 0.125905 0
M  V30 6588 H 611.063 -1.39401 0.967753 0
M  V30 6589 H 609.835 -3.3922 1.95053 0
M  V30 6590 H 609.458 -3.96204 0.332948 0
M  V30 6591 N 610.455 -0.639598 -1.44038 0
M  V30 6592 C 611.365 0.0612377 -2.3452 0
M  V30 6593 C 612.381 0.826717 -1.53106 0
M  V30 6594 O 613.557 0.777059 -1.85806 0
M  V30 6595 C 610.622 1.02492 -3.31204 0
M  V30 6596 C 609.683 0.25788 -4.28525 0
M  V30 6597 C 608.916 1.17566 -5.2059 0
M  V30 6598 O 609.139 2.41461 -5.16771 0
M  V30 6599 O 608.073 0.655407 -5.98321 0
M  V30 6600 H 611.899 -0.68318 -2.95916 0
M  V30 6601 H 609.484 -0.399784 -1.43952 0
M  V30 6602 H 611.366 1.57911 -3.90694 0
M  V30 6603 H 610.041 1.7498 -2.7233 0
M  V30 6604 H 608.948 -0.339566 -3.72556 0
M  V30 6605 H 610.281 -0.427154 -4.90343 0
M  V30 6606 N 611.933 1.52934 -0.380664 0
M  V30 6607 C 613.21 1.93845 0.261417 0
M  V30 6608 C 613.59 1.31544 1.65104 0
M  V30 6609 O 612.938 0.480234 2.23397 0
M  V30 6610 C 613.148 3.47739 0.296466 0
M  V30 6611 C 614.496 4.21284 0.529578 0
M  V30 6612 O 615.52 3.54199 0.377041 0
M  V30 6613 O 614.379 5.40195 0.827753 0
M  V30 6614 H 611.473 0.811318 0.160285 0
M  V30 6615 H 614.019 1.64042 -0.434544 0
M  V30 6616 H 612.791 3.85395 -0.67724 0
M  V30 6617 H 612.414 3.8382 1.0377 0
M  V30 6618 N 613.412 0.11024 1.57214 0
M  V30 6619 C 614.36 -0.860586 2.16094 0
M  V30 6620 C 615.354 -1.28156 1.1078 0
M  V30 6621 O 616.56 -1.25433 1.29099 0
M  V30 6622 H 612.935 -0.295606 0.691463 0
M  V30 6623 H 614.906 -0.33942 2.96463 0
M  V30 6624 C 613.655 -2.10421 2.768 0
M  V30 6625 H 612.978 -1.7892 3.5753 0
M  V30 6626 H 614.418 -2.76375 3.21547 0
M  V30 6627 C 612.877 -2.88823 1.73444 0
M  V30 6628 O 613.407 -3.839 1.18251 0
M  V30 6629 N 611.613 -2.52649 1.43586 0
M  V30 6630 H 611.16 -1.754 1.8866 0
M  V30 6631 H 611.118 -3.05403 0.746735 0
M  V30 6632 N 614.89 -1.56749 -0.16351 0
M  V30 6633 C 615.838 -1.97939 -1.22159 0
M  V30 6634 C 616.832 -0.869288 -1.45395 0
M  V30 6635 O 618.038 -1.05443 -1.45883 0
M  V30 6636 H 614.413 -0.629869 -0.410815 0
M  V30 6637 H 616.384 -2.86115 -0.847381 0
M  V30 6638 C 615.133 -2.36206 -2.55151 0
M  V30 6639 H 614.456 -3.2117 -2.38097 0
M  V30 6640 H 615.896 -2.68863 -3.27854 0
M  V30 6641 C 614.355 -1.20841 -3.14482 0
M  V30 6642 O 614.885 -0.500258 -3.98573 0
M  V30 6643 N 613.091 -0.976943 -2.73686 0
M  V30 6644 H 612.638 -1.55457 -2.05404 0
M  V30 6645 H 612.596 -0.206912 -3.13718 0
M  V30 6646 N 616.368 0.432326 -1.51554 0
M  V30 6647 C 617.614 1.18309 -1.64714 0
M  V30 6648 C 617.947 1.90745 -0.364696 0
M  V30 6649 O 617.222 1.8381 0.635936 0
M  V30 6650 C 617.505 2.1961 -2.85383 0
M  V30 6651 C 617.358 1.51223 -4.23617 0
M  V30 6652 C 618.677 3.20538 -3.01569 0
M  V30 6653 H 615.796 0.428751 -0.599451 0
M  V30 6654 H 618.438 0.471689 -1.84052 0
M  V30 6655 H 616.588 2.8028 -2.69027 0
M  V30 6656 H 618.26 0.938516 -4.51652 0
M  V30 6657 H 616.503 0.814501 -4.26085 0
M  V30 6658 H 617.174 2.25024 -5.04052 0
M  V30 6659 H 619.65 2.69926 -3.16669 0
M  V30 6660 H 618.526 3.88706 -3.87555 0
M  V30 6661 H 618.787 3.86933 -2.13859 0
M  V30 6662 N 617.846 1.41785 0.688094 0
M  V30 6663 C 618.794 1.44436 1.82321 0
M  V30 6664 C 619.788 0.321544 1.6632 0
M  V30 6665 O 620.994 0.493931 1.73091 0
M  V30 6666 H 617.369 0.452084 0.600936 0
M  V30 6667 H 619.34 2.40087 1.77202 0
M  V30 6668 C 618.089 1.35071 3.20392 0
M  V30 6669 H 617.412 2.2076 3.33324 0
M  V30 6670 H 618.852 1.40988 3.99873 0
M  V30 6671 C 617.311 0.0639127 3.36839 0
M  V30 6672 O 617.841 -0.888495 3.91751 0
M  V30 6673 N 616.047 -0.0146114 2.90596 0
M  V30 6674 H 615.594 0.761191 2.46097 0
M  V30 6675 H 615.552 -0.874988 3.01979 0
M  V30 6676 N 619.324 -0.923095 1.27737 0
M  V30 6677 C 620.549 -1.71054 1.17283 0
M  V30 6678 C 620.974 -1.86208 -0.266153 0
M  V30 6679 O 620.332 -1.36545 -1.1927 0
M  V30 6680 C 620.38 -3.0854 1.86642 0
M  V30 6681 O 619.484 -3.95528 1.16752 0
M  V30 6682 H 618.825 -0.524136 0.407649 0
M  V30 6683 H 621.355 -1.15487 1.6889 0
M  V30 6684 H 621.365 -3.58828 1.94182 0
M  V30 6685 H 620.04 -2.96828 2.91317 0
M  V30 6686 H 618.617 -3.53967 1.17312 0
M  V30 6687 N 620.802 -1.09834 -1.13024 0
M  V30 6688 C 621.749 -0.741522 -2.18564 0
M  V30 6689 C 622.719 0.279236 -1.63736 0
M  V30 6690 O 623.904 0.159923 -1.90129 0
M  V30 6691 C 621.044 -0.17277 -3.44667 0
M  V30 6692 C 620.157 -1.24808 -4.13578 0
M  V30 6693 C 619.292 -0.641631 -5.27311 0
M  V30 6694 C 618.331 -1.69795 -5.88078 0
M  V30 6695 N 617.468 -1.11223 -6.93234 0
M  V30 6696 H 622.308 -1.64576 -2.48432 0
M  V30 6697 H 619.845 -0.822174 -1.21978 0
M  V30 6698 H 621.803 0.17482 -4.16834 0
M  V30 6699 H 620.433 0.694725 -3.15235 0
M  V30 6700 H 619.485 -1.71288 -3.39653 0
M  V30 6701 H 620.797 -2.04795 -4.54819 0
M  V30 6702 H 619.951 -0.243128 -6.06213 0
M  V30 6703 H 618.69 0.189742 -4.87331 0
M  V30 6704 H 617.695 -2.10595 -5.07868 0
M  V30 6705 H 618.92 -2.53206 -6.3013 0
M  V30 6706 H 616.866 -0.302208 -6.55304 0
M  V30 6707 H 616.783 -1.84901 -7.3304 0
M  V30 6708 H 618.051 -0.740068 -7.75979 0
M  V30 6709 N 622.28 1.30327 -0.886154 0
M  V30 6710 C 623.526 1.96388 -0.505941 0
M  V30 6711 C 623.859 1.69784 0.942712 0
M  V30 6712 O 623.134 1.00322 1.6663 0
M  V30 6713 C 623.417 3.51488 -0.782826 0
M  V30 6714 C 623.27 3.87603 -2.28219 0
M  V30 6715 C 624.589 4.39331 -0.260128 0
M  V30 6716 H 621.708 0.713327 -0.185292 0
M  V30 6717 H 624.35 1.54178 -1.11036 0
M  V30 6718 H 622.5 3.87572 -0.268399 0
M  V30 6719 H 624.172 3.61537 -2.86512 0
M  V30 6720 H 622.415 3.3563 -2.74837 0
M  V30 6721 H 623.086 4.95806 -2.42653 0
M  V30 6722 H 625.562 4.10162 -0.700444 0
M  V30 6723 H 624.438 5.46769 -0.483179 0
M  V30 6724 H 624.699 4.34072 0.838674 0
M  V30 6725 N 623.758 0.647228 1.43697 0
M  V30 6726 C 625.005 0.158188 2.01881 0
M  V30 6727 C 625.333 -1.22573 1.51017 0
M  V30 6728 O 624.588 -1.83086 0.69122 0
M  V30 6729 C 624.887 0.111481 3.57226 0
M  V30 6730 C 624.553 1.43633 4.27411 0
M  V30 6731 C 623.215 1.79915 4.463 0
M  V30 6732 C 625.567 2.31011 4.67208 0
M  V30 6733 C 622.895 3.03251 5.02251 0
M  V30 6734 C 625.247 3.53633 5.24525 0
M  V30 6735 C 623.911 3.90118 5.41631 0
M  V30 6736 H 623.181 0.0578851 0.738736 0
M  V30 6737 H 625.828 0.836746 1.72252 0
M  V30 6738 H 624.133 -0.650507 3.86362 0
M  V30 6739 H 625.83 -0.283682 3.99995 0
M  V30 6740 H 622.42 1.14403 4.1305 0
M  V30 6741 H 626.604 2.04272 4.52313 0
M  V30 6742 H 621.86 3.31575 5.13681 0
M  V30 6743 H 626.034 4.21561 5.5431 0
M  V30 6744 H 623.661 4.85768 5.84751 0
M  V30 6745 N 625.236 -1.5273 0.388769 0
M  V30 6746 C 626.466 -2.05693 -0.193397 0
M  V30 6747 C 626.874 -1.26038 -1.41107 0
M  V30 6748 O 626.217 -0.30001 -1.81234 0
M  V30 6749 C 626.279 -3.53962 -0.628561 0
M  V30 6750 C 625.943 -4.54519 0.475576 0
M  V30 6751 C 626.94 -5.02526 1.33281 0
M  V30 6752 C 624.625 -4.98174 0.642453 0
M  V30 6753 C 626.619 -5.92812 2.34205 0
M  V30 6754 C 624.306 -5.88262 1.65503 0
M  V30 6755 C 625.304 -6.35473 2.50325 0
M  V30 6756 O 624.992 -7.23781 3.49852 0
M  V30 6757 H 624.724 -0.675197 -0.0329395 0
M  V30 6758 H 627.278 -1.97835 0.552326 0
M  V30 6759 H 625.508 -3.59437 -1.42625 0
M  V30 6760 H 627.197 -3.89669 -1.13633 0
M  V30 6761 H 627.963 -4.6953 1.21519 0
M  V30 6762 H 623.842 -4.60999 -0.00805093 0
M  V30 6763 H 627.386 -6.29585 3.00447 0
M  V30 6764 H 623.283 -6.20672 1.77304 0
M  V30 6765 H 624.051 -7.4184 3.45855 0
M  V30 6766 N 626.714 -0.118576 -1.57153 0
M  V30 6767 C 627.939 0.550582 -1.99958 0
M  V30 6768 C 628.364 1.59458 -0.997736 0
M  V30 6769 O 627.722 1.81274 0.0306269 0
M  V30 6770 C 627.77 1.15379 -3.41643 0
M  V30 6771 O 626.874 2.26932 -3.44348 0
M  V30 6772 H 626.215 0.137567 -0.649593 0
M  V30 6773 H 628.745 -0.206926 -2.03551 0
M  V30 6774 H 628.755 1.48942 -3.79843 0
M  V30 6775 H 627.43 0.389087 -4.14076 0
M  V30 6776 H 626.007 1.94812 -3.17967 0
M  V30 6777 N 628.193 1.56834 0.155195 0
M  V30 6778 C 629.125 1.94235 1.21677 0
M  V30 6779 C 630.138 0.83724 1.39621 0
M  V30 6780 O 631.327 1.11567 1.39338 0
M  V30 6781 C 628.427 2.19402 2.58294 0
M  V30 6782 C 627.6 3.50671 2.61436 0
M  V30 6783 C 626.659 3.64475 3.79532 0
M  V30 6784 O 625.685 4.36945 3.64784 0
M  V30 6785 N 626.887 3.00526 4.96653 0
M  V30 6786 H 629.652 2.85901 0.898932 0
M  V30 6787 H 627.213 1.58185 0.34483 0
M  V30 6788 H 629.205 2.25886 3.35794 0
M  V30 6789 H 627.775 1.34042 2.82403 0
M  V30 6790 H 626.995 3.55702 1.69912 0
M  V30 6791 H 628.283 4.3702 2.60559 0
M  V30 6792 H 627.681 2.41549 5.11538 0
M  V30 6793 H 626.238 3.12583 5.71958 0
M  V30 6794 N 629.671 -0.424282 1.51781 0
M  V30 6795 C 630.901 -1.19297 1.68677 0
M  V30 6796 C 631.309 -1.85152 0.389258 0
M  V30 6797 O 630.652 -1.72067 -0.643311 0
M  V30 6798 C 630.714 -2.30929 2.75521 0
M  V30 6799 C 630.378 -1.85335 4.17732 0
M  V30 6800 C 631.375 -1.34951 5.0208 0
M  V30 6801 C 629.06 -1.92629 4.63896 0
M  V30 6802 C 631.054 -0.924636 6.30658 0
M  V30 6803 C 628.741 -1.49754 5.92467 0
M  V30 6804 C 629.739 -0.997543 6.75676 0
M  V30 6805 O 629.427 -0.57492 8.01842 0
M  V30 6806 H 629.159 -0.36512 0.568914 0
M  V30 6807 H 631.713 -0.507327 1.99036 0
M  V30 6808 H 629.943 -3.02811 2.40505 0
M  V30 6809 H 631.632 -2.92748 2.81165 0
M  V30 6810 H 632.398 -1.287 4.67612 0
M  V30 6811 H 628.277 -2.30491 3.99243 0
M  V30 6812 H 631.821 -0.533682 6.95556 0
M  V30 6813 H 627.718 -1.55679 6.26446 0
M  V30 6814 H 628.486 -0.699597 8.15505 0
M  V30 6815 N 631.149 -1.42148 -0.680565 0
M  V30 6816 C 632.097 -1.45401 -1.81552 0
M  V30 6817 C 633.091 -0.33036 -1.66147 0
M  V30 6818 O 634.297 -0.503103 -1.72826 0
M  V30 6819 H 630.672 -0.455265 -0.59853 0
M  V30 6820 H 632.643 -2.41024 -1.75926 0
M  V30 6821 C 631.392 -1.36769 -3.19671 0
M  V30 6822 H 630.715 -2.22525 -3.32149 0
M  V30 6823 H 632.155 -1.43106 -3.9912 0
M  V30 6824 C 630.614 -0.0817752 -3.36801 0
M  V30 6825 O 631.144 0.867707 -3.92216 0
M  V30 6826 N 629.35 -0.000799811 -2.906 0
M  V30 6827 H 628.897 -0.774231 -2.4569 0
M  V30 6828 H 628.855 0.858961 -3.02439 0
M  V30 6829 N 632.627 0.916307 -1.28225 0
M  V30 6830 C 633.575 2.03977 -1.11786 0
M  V30 6831 C 634.569 1.69358 -0.0378265 0
M  V30 6832 O 635.775 1.78925 -0.196405 0
M  V30 6833 H 632.15 0.66829 -0.344809 0
M  V30 6834 H 634.121 2.14985 -2.06939 0
M  V30 6835 C 632.87 3.38518 -0.7938 0
M  V30 6836 H 632.193 3.65649 -1.61682 0
M  V30 6837 H 633.633 4.17864 -0.718719 0
M  V30 6838 C 632.092 3.33134 0.502353 0
M  V30 6839 O 632.622 3.71281 1.53341 0
M  V30 6840 N 630.828 2.86229 0.502147 0
M  V30 6841 H 630.375 2.55382 -0.337338 0
M  V30 6842 H 630.333 2.83009 1.36942 0
M  V30 6843 N 634.105 1.10431 1.1244 0
M  V30 6844 C 635.053 0.747974 2.20246 0
M  V30 6845 C 636.047 -0.255848 1.67457 0
M  V30 6846 O 637.253 -0.116221 1.79624 0
M  V30 6847 H 633.628 0.223946 0.71788 0
M  V30 6848 H 635.599 1.6661 2.47556 0
M  V30 6849 C 634.348 0.195957 3.47147 0
M  V30 6850 H 633.671 0.959606 3.88113 0
M  V30 6851 H 635.111 -0.0153154 4.23997 0
M  V30 6852 C 633.57 -1.07132 3.19413 0
M  V30 6853 O 634.1 -2.15284 3.3914 0
M  V30 6854 N 632.306 -0.98994 2.73219 0
M  V30 6855 H 631.853 -0.109736 2.57366 0
M  V30 6856 H 631.811 -1.83856 2.55038 0
M  V30 6857 N 635.583 -1.29855 0.893053 0
M  V30 6858 C 636.546 -2.26183 0.370687 0
M  V30 6859 C 637.546 -1.53108 -0.491385 0
M  V30 6860 O 638.736 -1.71643 -0.297386 0
M  V30 6861 C 635.868 -3.37633 -0.470827 0
M  V30 6862 H 637.061 -2.73903 1.22135 0
M  V30 6863 H 634.614 -1.41183 0.67061 0
M  V30 6864 H 635.349 -2.95241 -1.34175 0
M  V30 6865 H 635.134 -3.91825 0.146784 0
M  V30 6866 H 636.624 -4.09313 -0.827825 0
M  V30 6867 N 637.061 -0.65484 -1.43351 0
M  V30 6868 C 638.472 -0.248506 -1.85039 0
M  V30 6869 C 638.823 1.20526 -1.54816 0
M  V30 6870 O 637.948 1.92016 -0.99794 0
M  V30 6871 C 638.543 -0.444241 -3.35875 0
M  V30 6872 C 637.102 -0.0922108 -3.76287 0
M  V30 6873 C 636.249 -0.746327 -2.67068 0
M  V30 6874 H 639.2 -0.8584 -1.33481 0
M  V30 6875 H 639.221 0.309762 -3.79237 0
M  V30 6876 H 638.733 -1.50239 -3.5784 0
M  V30 6877 H 636.834 0.96328 -3.59933 0
M  V30 6878 H 636.947 -0.518807 -4.76283 0
M  V30 6879 H 635.311 -0.179416 -2.54067 0
M  V30 6880 H 636.094 -1.80754 -2.91861 0
M  V30 6881 N 638.539 1.52521 -0.396863 0
M  V30 6882 C 639.487 2.28217 0.44943 0
M  V30 6883 C 640.481 1.32416 1.05652 0
M  V30 6884 O 641.687 1.49925 0.996124 0
M  V30 6885 H 638.062 0.733966 0.1637 0
M  V30 6886 H 640.033 2.97658 -0.210367 0
M  V30 6887 C 638.782 3.10713 1.56054 0
M  V30 6888 H 638.105 3.84291 1.10273 0
M  V30 6889 H 639.545 3.66803 2.12677 0
M  V30 6890 C 638.004 2.23499 2.52091 0
M  V30 6891 O 638.534 1.8669 3.55682 0
M  V30 6892 N 636.74 1.8751 2.2201 0
M  V30 6893 H 636.287 2.17643 1.37802 0
M  V30 6894 H 636.245 1.29448 2.86514 0
M  V30 6895 N 640.017 0.126909 1.57088 0
M  V30 6896 C 640.965 -0.837618 2.16995 0
M  V30 6897 C 641.959 -1.26974 1.12133 0
M  V30 6898 O 643.165 -1.24056 1.30423 0
M  V30 6899 H 639.54 -0.288256 0.694559 0
M  V30 6900 H 641.511 -0.307957 2.96807 0
M  V30 6901 C 640.26 -2.07474 2.79016 0
M  V30 6902 H 639.583 -1.75117 3.59408 0
M  V30 6903 H 641.023 -2.72949 3.24461 0
M  V30 6904 C 639.482 -2.86967 1.76498 0
M  V30 6905 O 640.012 -3.82625 1.22316 0
M  V30 6906 N 638.218 -2.51111 1.46258 0
M  V30 6907 H 637.765 -1.73389 1.90509 0
M  V30 6908 H 637.723 -3.04594 0.779085 0
M  V30 6909 N 641.495 -1.56914 -0.146875 0
M  V30 6910 C 642.405 -2.0154 -1.20079 0
M  V30 6911 C 643.421 -0.930838 -1.47008 0
M  V30 6912 O 644.597 -1.24032 -1.58676 0
M  V30 6913 C 641.662 -2.38715 -2.51428 0
M  V30 6914 C 640.723 -3.6112 -2.32145 0
M  V30 6915 C 639.956 -3.96512 -3.57231 0
M  V30 6916 O 640.179 -3.32566 -4.63418 0
M  V30 6917 O 639.113 -4.89758 -3.49887 0
M  V30 6918 H 642.939 -2.91506 -0.851924 0
M  V30 6919 H 640.524 -1.45106 -0.355607 0
M  V30 6920 H 642.406 -2.63485 -3.28867 0
M  V30 6921 H 641.081 -1.51903 -2.85845 0
M  V30 6922 H 639.988 -3.41536 -1.52656 0
M  V30 6923 H 641.321 -4.48549 -2.02644 0
M  V30 6924 N 642.974 0.416227 -1.52004 0
M  V30 6925 C 643.924 1.50558 -1.7122 0
M  V30 6926 C 644.908 1.50613 -0.56609 0
M  V30 6927 O 646.1 1.56709 -0.822874 0
M  V30 6928 C 643.229 2.88556 -1.85984 0
M  V30 6929 C 642.315 2.93177 -3.06445 0
M  V30 6930 N 642.706 2.67505 -4.29272 0
M  V30 6931 C 641.004 3.24343 -3.06133 0
M  V30 6932 C 641.705 2.78511 -5.10692 0
M  V30 6933 N 640.681 3.11087 -4.45787 0
M  V30 6934 H 644.483 1.29494 -2.63834 0
M  V30 6935 H 641.997 0.62384 -1.4994 0
M  V30 6936 H 643.994 3.66954 -1.97865 0
M  V30 6937 H 642.654 3.10624 -0.945654 0
M  V30 6938 H 643.665 2.42033 -4.57865 0
M  V30 6939 H 640.342 3.52051 -2.24425 0
M  V30 6940 H 641.732 2.62438 -6.18527 0
M  V30 6941 N 644.452 1.42507 0.673017 0
M  V30 6942 C 645.68 1.46473 1.46128 0
M  V30 6943 C 646.095 0.0765912 1.88645 0
M  V30 6944 O 645.452 -0.909057 1.58248 0
M  V30 6945 C 645.503 2.39339 2.70923 0
M  V30 6946 O 645.224 3.72752 2.3019 0
M  V30 6947 C 646.725 2.52343 3.64469 0
M  V30 6948 H 643.945 0.49812 0.449575 0
M  V30 6949 H 646.489 1.87041 0.826802 0
M  V30 6950 H 644.644 2.02019 3.30556 0
M  V30 6951 H 645.058 4.22503 3.10791 0
M  V30 6952 H 646.532 3.2144 4.48754 0
M  V30 6953 H 647.009 1.56189 4.1049 0
M  V30 6954 H 647.615 2.90392 3.10729 0
M  V30 6955 N 645.93 -0.909495 1.28709 0
M  V30 6956 C 646.84 -2.04558 1.14861 0
M  V30 6957 C 647.856 -1.73842 0.0741621 0
M  V30 6958 O 649.032 -1.99383 0.2843 0
M  V30 6959 C 646.097 -3.36957 0.816148 0
M  V30 6960 C 645.158 -3.81255 1.97341 0
M  V30 6961 C 644.391 -5.07335 1.65671 0
M  V30 6962 O 644.614 -5.67514 0.573053 0
M  V30 6963 O 643.548 -5.47449 2.50167 0
M  V30 6964 H 647.374 -2.19161 2.10243 0
M  V30 6965 H 644.959 -1.03159 1.08068 0
M  V30 6966 H 646.841 -4.16436 0.644873 0
M  V30 6967 H 645.516 -3.2352 -0.107983 0
M  V30 6968 H 644.423 -3.02584 2.19986 0
M  V30 6969 H 645.756 -3.99261 2.87839 0
M  V30 6970 N 647.408 -1.11026 -1.11852 0
M  V30 6971 C 648.655 -0.85646 -1.83497 0
M  V30 6972 C 648.983 0.617938 -1.84423 0
M  V30 6973 O 648.238 1.47194 -1.28966 0
M  V30 6974 C 648.537 -1.35777 -3.30604 0
M  V30 6975 C 648.203 -2.84465 -3.49843 0
M  V30 6976 C 646.865 -3.25068 -3.54802 0
M  V30 6977 C 649.217 -3.80251 -3.56453 0
M  V30 6978 C 646.545 -4.60194 -3.63921 0
M  V30 6979 C 648.897 -5.15188 -3.67102 0
M  V30 6980 C 647.561 -5.55356 -3.70319 0
M  V30 6981 H 646.831 -0.313401 -0.671462 0
M  V30 6982 H 649.478 -1.38792 -1.31943 0
M  V30 6983 H 647.783 -0.746455 -3.84624 0
M  V30 6984 H 649.48 -1.13779 -3.8452 0
M  V30 6985 H 646.07 -2.52054 -3.46651 0
M  V30 6986 H 650.254 -3.49986 -3.51886 0
M  V30 6987 H 645.51 -4.90728 -3.64686 0
M  V30 6988 H 649.684 -5.89248 -3.71159 0
M  V30 6989 H 647.311 -6.60054 -3.77138 0
M  V30 6990 N 648.886 1.2938 -0.899927 0
M  V30 6991 C 649.834 2.29675 -0.367698 0
M  V30 6992 C 650.828 1.60787 0.533282 0
M  V30 6993 O 652.034 1.75126 0.416058 0
M  V30 6994 H 648.409 0.745284 -0.100279 0
M  V30 6995 H 650.38 2.72008 -1.22696 0
M  V30 6996 C 649.129 3.45512 0.389483 0
M  V30 6997 H 648.452 3.98713 -0.294575 0
M  V30 6998 H 649.892 4.17725 0.726744 0
M  V30 6999 C 648.351 2.969 1.59223 0
M  V30 7000 O 648.881 2.98195 2.69152 0
M  V30 7001 N 647.087 2.52728 1.43447 0
M  V30 7002 H 646.634 2.51873 0.540148 0
M  V30 7003 H 646.592 2.20561 2.24054 0
M  V30 7004 N 650.364 0.662433 1.43002 0
M  V30 7005 C 651.294 -0.00979809 2.33498 0
M  V30 7006 C 652.275 -0.802329 1.49989 0
M  V30 7007 O 653.46 -0.761964 1.78627 0
M  V30 7008 C 650.59 -0.970446 3.33466 0
M  V30 7009 C 649.544 -0.287383 4.27034 0
M  V30 7010 C 648.87 -1.36012 5.17112 0
M  V30 7011 C 650.17 0.82595 5.15728 0
M  V30 7012 H 651.864 0.745959 2.89958 0
M  V30 7013 H 649.41 0.360172 1.39423 0
M  V30 7014 H 651.363 -1.44971 3.95679 0
M  V30 7015 H 650.087 -1.75748 2.75282 0
M  V30 7016 H 648.746 0.17152 3.66199 0
M  V30 7017 H 648.394 -2.13882 4.55262 0
M  V30 7018 H 648.094 -0.908276 5.80538 0
M  V30 7019 H 649.618 -1.84056 5.82199 0
M  V30 7020 H 651.032 0.42845 5.71697 0
M  V30 7021 H 649.429 1.20282 5.87922 0
M  V30 7022 H 650.499 1.68003 4.54866 0
M  V30 7023 N 651.842 -1.52309 0.404946 0
M  V30 7024 C 652.79 -2.28452 -0.437321 0
M  V30 7025 C 653.784 -1.32975 -1.04948 0
M  V30 7026 O 654.99 -1.50451 -0.988159 0
M  V30 7027 H 651.365 -0.734824 -0.159805 0
M  V30 7028 H 653.336 -2.97542 0.22615 0
M  V30 7029 C 652.085 -3.11536 -1.54404 0
M  V30 7030 H 651.408 -3.84871 -1.08233 0
M  V30 7031 H 652.848 -3.67926 -2.10729 0
M  V30 7032 C 651.307 -2.24833 -2.50902 0
M  V30 7033 O 651.837 -1.88574 -3.54687 0
M  V30 7034 N 650.043 -1.88685 -2.21012 0
M  V30 7035 H 649.59 -2.18371 -1.36646 0
M  V30 7036 H 649.548 -1.30966 -2.85824 0
M  V30 7037 N 653.32 -0.135238 -1.57019 0
M  V30 7038 C 654.268 0.826099 -2.17436 0
M  V30 7039 C 655.262 1.26378 -1.12805 0
M  V30 7040 O 656.468 1.23363 -1.31079 0
M  V30 7041 H 652.843 0.284568 -0.696078 0
M  V30 7042 H 654.814 0.292212 -2.96966 0
M  V30 7043 C 653.563 2.05991 -2.80112 0
M  V30 7044 H 652.886 1.73209 -3.60331 0
M  V30 7045 H 654.326 2.71225 -3.25903 0
M  V30 7046 C 652.785 2.86027 -1.78017 0
M  V30 7047 O 653.315 3.81971 -1.24344 0
M  V30 7048 N 651.521 2.50332 -1.47588 0
M  V30 7049 H 651.068 1.72377 -1.91426 0
M  V30 7050 H 651.026 3.04177 -0.795228 0
M  V30 7051 N 654.798 1.5699 0.138552 0
M  V30 7052 C 656.075 1.74741 0.87891 0
M  V30 7053 C 656.455 0.705522 1.98961 0
M  V30 7054 O 655.803 -0.274066 2.2685 0
M  V30 7055 C 656.013 3.1909 1.4136 0
M  V30 7056 C 657.361 3.81023 1.87368 0
M  V30 7057 O 658.385 3.22571 1.51084 0
M  V30 7058 O 657.244 4.83722 2.54312 0
M  V30 7059 H 654.338 0.714781 0.415953 0
M  V30 7060 H 656.884 1.69248 0.123817 0
M  V30 7061 H 655.656 3.86424 0.61579 0
M  V30 7062 H 655.279 3.29043 2.23196 0
M  V30 7063 N 656.276 -0.40816 1.52223 0
M  V30 7064 C 657.506 -1.17501 1.69932 0
M  V30 7065 C 657.914 -1.84729 0.408874 0
M  V30 7066 O 657.257 -1.7274 -0.625025 0
M  V30 7067 C 657.319 -2.27994 2.77955 0
M  V30 7068 C 656.983 -1.80894 4.19674 0
M  V30 7069 C 657.98 -1.29618 5.03483 0
M  V30 7070 C 655.665 -1.87698 4.65913 0
M  V30 7071 C 657.659 -0.857695 6.31603 0
M  V30 7072 C 655.346 -1.43461 5.94022 0
M  V30 7073 C 656.344 -0.925822 6.76696 0
M  V30 7074 O 656.032 -0.489841 8.02406 0
M  V30 7075 H 655.764 -0.359065 0.572755 0
M  V30 7076 H 658.318 -0.486188 1.99563 0
M  V30 7077 H 656.548 -3.00243 2.43703 0
M  V30 7078 H 658.237 -2.89749 2.84254 0
M  V30 7079 H 659.003 -1.23733 4.68951 0
M  V30 7080 H 654.882 -2.26244 4.01665 0
M  V30 7081 H 658.426 -0.459879 6.96083 0
M  V30 7082 H 654.323 -1.49026 6.28062 0
M  V30 7083 H 655.091 -0.613062 8.16201 0
M  V30 7084 N 657.755 -1.42862 -0.66545 0
M  V30 7085 C 658.98 -1.47456 -1.45848 0
M  V30 7086 C 659.405 -0.0900312 -1.87884 0
M  V30 7087 O 658.763 0.913587 -1.56599 0
M  V30 7088 C 658.811 -2.41514 -2.67774 0
M  V30 7089 O 657.915 -1.89296 -3.66389 0
M  V30 7090 H 657.256 -0.499236 -0.437789 0
M  V30 7091 H 659.786 -1.8765 -0.815394 0
M  V30 7092 H 659.796 -2.58409 -3.15735 0
M  V30 7093 H 658.471 -3.42099 -2.36519 0
M  V30 7094 H 657.048 -1.82003 -3.25468 0
M  V30 7095 N 659.233 0.902656 -1.29189 0
M  V30 7096 C 660.461 1.68639 -1.19869 0
M  V30 7097 C 660.876 1.87254 0.241121 0
M  V30 7098 O 660.233 1.40745 1.16177 0
M  V30 7099 C 660.284 3.07251 -1.90471 0
M  V30 7100 O 660.005 2.89488 -3.28829 0
M  V30 7101 C 661.506 4.01653 -1.8759 0
M  V30 7102 H 658.726 0.526802 -0.415596 0
M  V30 7103 H 661.27 1.12901 -1.7051 0
M  V30 7104 H 659.425 3.59774 -1.43672 0
M  V30 7105 H 659.839 3.77296 -3.64346 0
M  V30 7106 H 661.313 4.96339 -2.4156 0
M  V30 7107 H 661.79 4.30881 -0.850756 0
M  V30 7108 H 662.396 3.55061 -2.34119 0
M  V30 7109 N 660.711 1.11618 1.11262 0
M  V30 7110 C 661.941 0.88745 1.86569 0
M  V30 7111 C 662.349 -0.56636 1.80524 0
M  V30 7112 O 661.692 -1.40289 1.18594 0
M  V30 7113 C 661.754 1.27313 3.36202 0
M  V30 7114 C 661.418 2.73649 3.66013 0
M  V30 7115 C 662.415 3.71863 3.63337 0
M  V30 7116 C 660.1 3.10342 3.9496 0
M  V30 7117 C 662.094 5.04788 3.89188 0
M  V30 7118 C 659.781 4.43451 4.20469 0
M  V30 7119 C 660.779 5.40484 4.17572 0
M  V30 7120 O 660.467 6.71195 4.42439 0
M  V30 7121 H 660.199 0.317543 0.596777 0
M  V30 7122 H 662.753 1.48768 1.41624 0
M  V30 7123 H 660.983 0.616062 3.81761 0
M  V30 7124 H 662.672 1.01991 3.92877 0
M  V30 7125 H 663.438 3.44861 3.41022 0
M  V30 7126 H 659.317 2.35431 3.9635 0
M  V30 7127 H 662.861 5.80516 3.86842 0
M  V30 7128 H 658.758 4.70187 4.42261 0
M  V30 7129 H 659.526 6.77012 4.59997 0
M  V30 7130 N 662.189 -1.289 0.906776 0
M  V30 7131 C 663.438 -1.9455 0.532262 0
M  V30 7132 C 663.751 -1.72219 -0.927353 0
M  V30 7133 O 664.957 -2.32033 -1.40971 0
M  V30 7134 C 663.413 -3.48438 0.901041 0
M  V30 7135 C 663.021 -3.79558 2.37991 0
M  V30 7136 C 664.765 -4.20284 0.596777 0
M  V30 7137 C 662.672 -5.26723 2.68918 0
M  V30 7138 H 661.602 -0.728259 0.195333 0
M  V30 7139 H 664.253 -1.46519 1.10474 0
M  V30 7140 H 662.635 -3.95162 0.257419 0
M  V30 7141 H 663.809 -3.43668 3.06967 0
M  V30 7142 H 662.124 -3.20868 2.65391 0
M  V30 7143 H 664.721 -5.28612 0.8046 0
M  V30 7144 H 665.064 -4.13694 -0.465072 0
M  V30 7145 H 665.597 -3.79315 1.19855 0
M  V30 7146 H 662.336 -5.38384 3.73928 0
M  V30 7147 H 661.856 -5.63836 2.04571 0
M  V30 7148 H 663.535 -5.94391 2.55555 0
M  V30 7149 N 663.667 -0.670007 -1.42649 0
M  V30 7150 C 665.083 -0.33911 -1.55956 0
M  V30 7151 C 665.283 1.1558 -1.65056 0
M  V30 7152 O 664.339 1.94111 -1.61485 0
M  V30 7153 C 665.652 -1.06522 -2.812 0
M  V30 7154 C 667.2 -1.04708 -2.94966 0
M  V30 7155 C 667.675 -1.75442 -4.23065 0
M  V30 7156 N 669.166 -1.72286 -4.29967 0
M  V30 7157 C 669.901 -2.23877 -5.27889 0
M  V30 7158 N 669.397 -2.83829 -6.31991 0
M  V30 7159 N 671.19 -2.14279 -5.19654 0
M  V30 7160 H 663.341 -1.6399 -1.34986 0
M  V30 7161 H 665.604 -0.690603 -0.649439 0
M  V30 7162 H 665.31 -2.12033 -2.80597 0
M  V30 7163 H 665.184 -0.627398 -3.71946 0
M  V30 7164 H 667.571 -0.000315966 -2.951 0
M  V30 7165 H 667.652 -1.52374 -2.05465 0
M  V30 7166 H 667.296 -2.80084 -4.23693 0
M  V30 7167 H 667.226 -1.25229 -5.11493 0
M  V30 7168 H 669.717 -1.28554 -3.55362 0
M  V30 7169 H 670.03 -3.20827 -7.03057 0
M  V30 7170 H 668.375 -2.87896 -6.32567 0
M  V30 7171 H 671.566 -1.67135 -4.37245 0
M  V30 7172 H 671.739 -2.54792 -5.95806 0
M  V30 7173 N 665.145 1.52092 -0.413018 0
M  V30 7174 C 666.092 2.27119 0.410558 0
M  V30 7175 C 667.062 1.29692 1.03774 0
M  V30 7176 O 668.247 1.58561 1.06128 0
M  V30 7177 C 665.387 3.09863 1.51918 0
M  V30 7178 C 664.5 4.22252 0.912528 0
M  V30 7179 C 663.635 4.92348 1.99417 0
M  V30 7180 C 662.674 5.96694 1.36466 0
M  V30 7181 N 661.811 6.60292 2.38661 0
M  V30 7182 H 666.651 2.97067 -0.235661 0
M  V30 7183 H 664.188 1.46542 -0.128055 0
M  V30 7184 H 666.146 3.56144 2.17295 0
M  V30 7185 H 664.776 2.42078 2.13537 0
M  V30 7186 H 663.828 3.80113 0.147697 0
M  V30 7187 H 665.14 4.9709 0.412717 0
M  V30 7188 H 664.294 5.42054 2.72512 0
M  V30 7189 H 663.033 4.17087 2.52764 0
M  V30 7190 H 662.038 5.46304 0.61906 0
M  V30 7191 H 663.263 6.73899 0.838827 0
M  V30 7192 H 661.209 5.87858 2.91134 0
M  V30 7193 H 661.126 7.30816 1.93503 0
M  V30 7194 H 662.394 7.14635 3.11314 0
M  V30 7195 N 666.623 0.143563 1.56945 0
M  V30 7196 C 667.57 -0.797433 2.16586 0
M  V30 7197 C 668.54 -1.24654 1.09775 0
M  V30 7198 O 669.725 -1.31968 1.37801 0
M  V30 7199 C 666.865 -2.03253 2.78895 0
M  V30 7200 C 665.978 -1.62954 4.00087 0
M  V30 7201 C 665.113 -2.81617 4.50406 0
M  V30 7202 C 664.152 -2.37675 5.64072 0
M  V30 7203 N 663.289 -3.49335 6.09023 0
M  V30 7204 H 668.129 -0.282023 2.96662 0
M  V30 7205 H 665.666 -0.127494 1.46546 0
M  V30 7206 H 667.624 -2.75653 3.13163 0
M  V30 7207 H 666.254 -2.52211 2.01469 0
M  V30 7208 H 665.306 -0.803322 3.71821 0
M  V30 7209 H 666.618 -1.26679 4.82446 0
M  V30 7210 H 665.772 -3.62212 4.86711 0
M  V30 7211 H 664.511 -3.21134 3.67048 0
M  V30 7212 H 663.516 -1.55519 5.27346 0
M  V30 7213 H 664.741 -1.99247 6.49213 0
M  V30 7214 H 662.687 -3.8848 5.28601 0
M  V30 7215 H 662.604 -3.17064 6.86299 0
M  V30 7216 H 663.872 -4.30297 6.49973 0
M  V30 7217 N 668.101 -1.57061 -0.130224 0
M  V30 7218 C 669.034 -1.94698 -1.19029 0
M  V30 7219 C 670.012 -0.815074 -1.40696 0
M  V30 7220 O 671.196 -1.07223 -1.55034 0
M  V30 7221 C 668.323 -2.23352 -2.5462 0
M  V30 7222 C 667.369 -3.45945 -2.49448 0
M  V30 7223 S 668.202 -4.98927 -1.94505 0
M  V30 7224 C 669.358 -5.30721 -3.31792 0
M  V30 7225 H 669.591 -2.84308 -0.869272 0
M  V30 7226 H 667.124 -1.50688 -0.336531 0
M  V30 7227 H 669.082 -2.40539 -3.32643 0
M  V30 7228 H 667.743 -1.34376 -2.83905 0
M  V30 7229 H 666.936 -3.63324 -3.49302 0
M  V30 7230 H 666.538 -3.28086 -1.79543 0
M  V30 7231 H 668.83 -5.25215 -4.27966 0
M  V30 7232 H 669.773 -6.32048 -3.19251 0
M  V30 7233 H 670.181 -4.5821 -3.29703 0
M  V30 7234 N 669.579 0.400081 -1.52437 0
M  V30 7235 C 670.526 1.48803 -1.76426 0
M  V30 7236 C 671.496 1.5461 -0.607032 0
M  V30 7237 O 672.681 1.71041 -0.845563 0
M  V30 7238 C 669.821 2.86156 -1.92896 0
M  V30 7239 C 668.934 2.89587 -3.20567 0
M  V30 7240 C 668.069 4.18296 -3.27417 0
M  V30 7241 C 667.108 4.15736 -4.49255 0
M  V30 7242 N 666.245 5.36032 -4.53447 0
M  V30 7243 H 671.085 1.27649 -2.69276 0
M  V30 7244 H 668.622 0.619451 -1.33421 0
M  V30 7245 H 670.58 3.65901 -2.00429 0
M  V30 7246 H 669.21 3.05785 -1.03418 0
M  V30 7247 H 668.262 2.02278 -3.22161 0
M  V30 7248 H 669.574 2.83562 -4.10358 0
M  V30 7249 H 668.728 5.06439 -3.34072 0
M  V30 7250 H 667.467 4.27028 -2.35581 0
M  V30 7251 H 666.472 3.25982 -4.42737 0
M  V30 7252 H 667.697 4.08636 -5.42396 0
M  V30 7253 H 665.643 5.45415 -3.64498 0
M  V30 7254 H 665.56 5.32038 -5.37096 0
M  V30 7255 H 666.828 6.26104 -4.64343 0
M  V30 7256 N 671.057 1.43213 0.657864 0
M  V30 7257 C 672.005 1.48271 1.79216 0
M  V30 7258 C 672.999 0.35675 1.65601 0
M  V30 7259 O 674.205 0.530535 1.72004 0
M  V30 7260 H 670.58 0.464729 0.591211 0
M  V30 7261 H 672.551 2.43792 1.7207 0
M  V30 7262 C 671.3 1.41837 3.17455 0
M  V30 7263 H 670.623 2.27781 3.28567 0
M  V30 7264 H 672.063 1.49438 3.96793 0
M  V30 7265 C 670.522 0.135347 3.36628 0
M  V30 7266 O 671.052 -0.805199 3.93547 0
M  V30 7267 N 669.258 0.0470316 2.90562 0
M  V30 7268 H 668.805 0.813221 2.44427 0
M  V30 7269 H 668.763 -0.810737 3.03767 0
M  V30 7270 N 672.536 -0.895792 1.29666 0
M  V30 7271 C 673.446 -2.03329 1.17024 0
M  V30 7272 C 674.462 -1.73753 0.0925962 0
M  V30 7273 O 675.638 -1.99071 0.305431 0
M  V30 7274 C 672.703 -3.36072 0.851841 0
M  V30 7275 C 671.764 -3.7914 2.01373 0
M  V30 7276 C 670.997 -5.05549 1.71043 0
M  V30 7277 O 671.22 -5.66874 0.633213 0
M  V30 7278 O 670.154 -5.44764 2.5596 0
M  V30 7279 H 673.98 -2.16918 2.12556 0
M  V30 7280 H 671.565 -1.02007 1.09156 0
M  V30 7281 H 673.447 -4.15729 0.689006 0
M  V30 7282 H 672.122 -3.23616 -0.0736634 0
M  V30 7283 H 671.029 -3.00233 2.23183 0
M  V30 7284 H 672.362 -3.96186 2.92058 0
M  V30 7285 N 674.014 -1.12206 -1.10668 0
M  V30 7286 C 674.924 -0.800686 -2.20513 0
M  V30 7287 C 675.94 0.209512 -1.72734 0
M  V30 7288 O 677.116 0.043705 -2.01353 0
M  V30 7289 C 674.181 -0.257353 -3.45744 0
M  V30 7290 C 673.242 -1.32718 -4.0827 0
M  V30 7291 C 672.475 -0.809674 -5.27522 0
M  V30 7292 O 672.698 0.35742 -5.69279 0
M  V30 7293 O 671.632 -1.57816 -5.80842 0
M  V30 7294 H 675.458 -1.71807 -2.50432 0
M  V30 7295 H 673.043 -0.898546 -1.19359 0
M  V30 7296 H 674.925 0.0408849 -4.2138 0
M  V30 7297 H 673.6 0.632627 -3.17458 0
M  V30 7298 H 672.507 -1.67855 -3.34329 0
M  V30 7299 H 673.84 -2.19083 -4.40753 0
M  V30 7300 N 675.492 1.28418 -0.913599 0
M  V30 7301 C 676.739 1.94981 -0.546674 0
M  V30 7302 C 677.067 1.7192 0.909606 0
M  V30 7303 O 676.322 1.03314 1.66207 0
M  V30 7304 C 676.621 3.48283 -0.802099 0
M  V30 7305 C 676.287 3.91444 -2.2379 0
M  V30 7306 C 674.949 4.02939 -2.63046 0
M  V30 7307 C 677.301 4.13542 -3.17227 0
M  V30 7308 C 674.629 4.3391 -3.94891 0
M  V30 7309 C 676.981 4.45992 -4.48636 0
M  V30 7310 C 675.645 4.55698 -4.87746 0
M  V30 7311 H 674.915 0.713487 -0.200042 0
M  V30 7312 H 677.562 1.52756 -1.15489 0
M  V30 7313 H 675.867 3.91643 -0.111076 0
M  V30 7314 H 677.564 3.97903 -0.497375 0
M  V30 7315 H 674.154 3.83024 -1.9233 0
M  V30 7316 H 678.338 4.04114 -2.88107 0
M  V30 7317 H 673.594 4.39631 -4.24894 0
M  V30 7318 H 677.768 4.62038 -5.21051 0
M  V30 7319 H 675.395 4.79451 -5.89942 0
M  V30 7320 N 676.97 0.677563 1.42291 0
M  V30 7321 C 677.9 0.014968 2.33495 0
M  V30 7322 C 678.881 -0.786376 1.50831 0
M  V30 7323 O 680.066 -0.742975 1.79426 0
M  V30 7324 C 677.196 -0.935023 3.34477 0
M  V30 7325 C 676.15 -0.242074 4.27315 0
M  V30 7326 C 675.476 -1.30519 5.18526 0
M  V30 7327 C 676.776 0.880604 5.14823 0
M  V30 7328 H 678.47 0.776671 2.89151 0
M  V30 7329 H 676.016 0.37494 1.39033 0
M  V30 7330 H 677.969 -1.40766 3.97194 0
M  V30 7331 H 676.693 -1.72818 2.77131 0
M  V30 7332 H 675.352 0.210351 3.65996 0
M  V30 7333 H 675 -2.09041 4.57505 0
M  V30 7334 H 674.7 -0.846652 5.81468 0
M  V30 7335 H 676.224 -1.7787 5.84119 0
M  V30 7336 H 677.638 0.489062 5.7121 0
M  V30 7337 H 676.035 1.26511 5.86613 0
M  V30 7338 H 677.105 1.72818 4.53059 0
M  V30 7339 N 678.448 -1.51871 0.421078 0
M  V30 7340 C 679.396 -2.28903 -0.413066 0
M  V30 7341 C 680.39 -1.3408 -1.03532 0
M  V30 7342 O 681.596 -1.5149 -0.972146 0
M  V30 7343 H 677.971 -0.736478 -0.152003 0
M  V30 7344 H 679.942 -2.97285 0.257695 0
M  V30 7345 C 678.691 -3.13156 -1.51091 0
M  V30 7346 H 678.014 -3.85997 -1.04145 0
M  V30 7347 H 679.454 -3.7014 -2.06814 0
M  V30 7348 C 677.913 -2.27482 -2.48503 0
M  V30 7349 O 678.443 -1.92325 -3.52667 0
M  V30 7350 N 676.649 -1.91019 -2.18998 0
M  V30 7351 H 676.196 -2.19808 -1.34322 0
M  V30 7352 H 676.154 -1.3399 -2.84419 0
M  V30 7353 N 679.926 -0.151884 -1.56866 0
M  V30 7354 C 680.856 0.781943 -2.20018 0
M  V30 7355 C 681.837 1.25347 -1.14987 0
M  V30 7356 O 683.022 1.31015 -1.43348 0
M  V30 7357 C 680.152 2.01928 -2.82564 0
M  V30 7358 C 679.106 1.68434 -3.93464 0
M  V30 7359 C 678.432 2.99472 -4.42968 0
M  V30 7360 C 679.732 0.927244 -5.14003 0
M  V30 7361 H 681.426 0.255607 -2.98307 0
M  V30 7362 H 678.972 0.121502 -1.43486 0
M  V30 7363 H 680.925 2.67741 -3.25411 0
M  V30 7364 H 679.649 2.56943 -2.01614 0
M  V30 7365 H 678.308 1.04998 -3.51242 0
M  V30 7366 H 677.956 3.52488 -3.58834 0
M  V30 7367 H 677.656 2.77823 -5.17772 0
M  V30 7368 H 679.18 3.66348 -4.88489 0
M  V30 7369 H 680.594 1.48756 -5.53665 0
M  V30 7370 H 678.991 0.810513 -5.94601 0
M  V30 7371 H 680.061 -0.0801163 -4.84834 0
M  V30 7372 N 681.404 1.57128 0.121893 0
M  V30 7373 C 682.65 1.84974 0.831418 0
M  V30 7374 C 682.983 0.737204 1.79663 0
M  V30 7375 O 682.258 -0.257199 1.92792 0
M  V30 7376 C 682.541 3.23397 1.58386 0
M  V30 7377 C 682.394 4.45246 0.638445 0
M  V30 7378 C 683.713 3.59355 2.54071 0
M  V30 7379 H 680.832 0.67282 0.300803 0
M  V30 7380 H 683.474 1.89759 0.0957587 0
M  V30 7381 H 681.624 3.19449 2.21098 0
M  V30 7382 H 683.296 4.61295 0.0203925 0
M  V30 7383 H 681.539 4.33771 -0.05023 0
M  V30 7384 H 682.21 5.38765 1.20151 0
M  V30 7385 H 684.686 3.64075 2.01465 0
M  V30 7386 H 683.562 4.57193 3.03752 0
M  V30 7387 H 683.823 2.86622 3.36601 0
M  V30 7388 N 682.882 -0.391992 1.52647 0
M  V30 7389 C 683.83 -1.4991 1.77848 0
M  V30 7390 C 684.824 -1.56587 0.646282 0
M  V30 7391 O 686.03 -1.59789 0.828698 0
M  V30 7392 H 682.405 -0.498883 0.56269 0
M  V30 7393 H 684.376 -1.25847 2.70564 0
M  V30 7394 C 683.125 -2.87081 1.96163 0
M  V30 7395 H 682.448 -2.82692 2.82711 0
M  V30 7396 H 683.888 -3.63792 2.17787 0
M  V30 7397 C 682.347 -3.28822 0.733348 0
M  V30 7398 O 682.877 -4.01598 -0.0906481 0
M  V30 7399 N 681.083 -2.85068 0.564317 0
M  V30 7400 H 680.63 -2.26012 1.23598 0
M  V30 7401 H 680.588 -3.13355 -0.256166 0
M  V30 7402 N 684.36 -1.4356 -0.65026 0
M  V30 7403 C 685.307 -1.48948 -1.76304 0
M  V30 7404 C 686.277 -0.338919 -1.62605 0
M  V30 7405 O 687.462 -0.54649 -1.82806 0
M  V30 7406 C 684.602 -1.42131 -3.14472 0
M  V30 7407 C 683.715 -2.67415 -3.39284 0
M  V30 7408 C 682.85 -2.52565 -4.67316 0
M  V30 7409 C 681.889 -3.73103 -4.85243 0
M  V30 7410 N 681.026 -3.57046 -6.04535 0
M  V30 7411 H 685.866 -2.44032 -1.71034 0
M  V30 7412 H 683.403 -1.21131 -0.834601 0
M  V30 7413 H 685.361 -1.36172 -3.94351 0
M  V30 7414 H 683.991 -0.506273 -3.18805 0
M  V30 7415 H 683.043 -2.8364 -2.53481 0
M  V30 7416 H 684.355 -3.56943 -3.48415 0
M  V30 7417 H 683.509 -2.44331 -5.55326 0
M  V30 7418 H 682.248 -1.60566 -4.60511 0
M  V30 7419 H 681.253 -3.81743 -3.95667 0
M  V30 7420 H 682.478 -4.66115 -4.93876 0
M  V30 7421 H 680.424 -2.67783 -5.98856 0
M  V30 7422 H 680.341 -4.40178 -6.14638 0
M  V30 7423 H 681.609 -3.52669 -6.95158 0
M  V30 7424 N 685.838 0.888903 -1.30139 0
M  V30 7425 C 687.254 1.17153 -1.08385 0
M  V30 7426 C 687.454 2.0088 0.157925 0
M  V30 7427 O 686.51 2.37668 0.852652 0
M  V30 7428 C 687.823 1.882 -2.34523 0
M  V30 7429 C 689.371 2.00981 -2.39949 0
M  V30 7430 C 689.846 2.75441 -3.65918 0
M  V30 7431 N 691.337 2.82989 -3.66704 0
M  V30 7432 C 692.072 3.41167 -4.60861 0
M  V30 7433 N 691.568 4.00425 -5.6536 0
M  V30 7434 N 693.361 3.38944 -4.48412 0
M  V30 7435 H 685.512 0.33053 -2.09812 0
M  V30 7436 H 687.775 0.208964 -0.924683 0
M  V30 7437 H 687.481 1.34119 -3.25123 0
M  V30 7438 H 687.355 2.88609 -2.42868 0
M  V30 7439 H 689.742 2.54234 -1.4983 0
M  V30 7440 H 689.823 0.996725 -2.35582 0
M  V30 7441 H 689.467 2.22861 -4.56394 0
M  V30 7442 H 689.397 3.77118 -3.67546 0
M  V30 7443 H 691.888 2.40912 -2.91153 0
M  V30 7444 H 692.201 4.42871 -6.33313 0
M  V30 7445 H 690.546 3.98856 -5.69157 0
M  V30 7446 H 693.737 2.91875 -3.6596 0
M  V30 7447 H 693.91 3.83989 -5.21974 0
M  V30 7448 N 687.317 1.12792 1.10072 0
M  V30 7449 C 688.264 0.79921 2.16521 0
M  V30 7450 C 689.234 -0.235726 1.64419 0
M  V30 7451 O 690.419 -0.109457 1.90486 0
M  V30 7452 C 687.559 0.264091 3.44088 0
M  V30 7453 C 686.672 1.35729 4.10124 0
M  V30 7454 C 685.807 0.781212 5.25424 0
M  V30 7455 C 684.846 1.85327 5.8337 0
M  V30 7456 N 683.983 1.29564 6.90042 0
M  V30 7457 H 688.823 1.71105 2.43981 0
M  V30 7458 H 686.36 0.854225 1.19756 0
M  V30 7459 H 688.318 -0.0642423 4.17151 0
M  V30 7460 H 686.948 -0.610901 3.16967 0
M  V30 7461 H 686 1.80234 3.34993 0
M  V30 7462 H 687.312 2.16782 4.4923 0
M  V30 7463 H 686.466 0.403769 6.05355 0
M  V30 7464 H 685.205 -0.0604686 4.87663 0
M  V30 7465 H 684.21 2.23986 5.02106 0
M  V30 7466 H 685.435 2.69824 6.23195 0
M  V30 7467 H 683.381 0.475844 6.54272 0
M  V30 7468 H 683.298 2.04271 7.2788 0
M  V30 7469 H 684.566 0.945545 7.73744 0
M  V30 7470 N 688.795 -1.27931 0.920396 0
M  V30 7471 C 690.041 -1.94977 0.557832 0
M  V30 7472 C 690.374 -1.72224 -0.897365 0
M  V30 7473 O 689.649 -1.04705 -1.63912 0
M  V30 7474 C 689.932 -3.49289 0.875741 0
M  V30 7475 C 689.785 -3.81416 2.38416 0
M  V30 7476 C 691.104 -4.38486 0.376517 0
M  V30 7477 H 688.223 -0.708164 0.20414 0
M  V30 7478 H 690.865 -1.5118 1.15085 0
M  V30 7479 H 689.015 -3.86724 0.371062 0
M  V30 7480 H 690.687 -3.53813 2.95997 0
M  V30 7481 H 688.93 -3.28225 2.83639 0
M  V30 7482 H 689.601 -4.89198 2.55713 0
M  V30 7483 H 692.077 -4.08161 0.808945 0
M  V30 7484 H 690.953 -5.45296 0.627976 0
M  V30 7485 H 691.214 -4.36143 -0.723293 0
M  V30 7486 N 690.273 -0.685099 -1.4193 0
M  V30 7487 C 691.55 -0.140152 -1.95097 0
M  V30 7488 C 691.93 1.34745 -1.62502 0
M  V30 7489 O 691.278 2.08872 -0.926534 0
M  V30 7490 C 691.488 -0.420268 -3.4646 0
M  V30 7491 C 692.836 -0.342338 -4.23218 0
M  V30 7492 O 693.86 -0.354592 -3.54431 0
M  V30 7493 O 692.719 -0.293404 -5.45712 0
M  V30 7494 H 689.813 -0.00885998 -0.826953 0
M  V30 7495 H 692.359 -0.760539 -1.51703 0
M  V30 7496 H 691.131 -1.45037 -3.63428 0
M  V30 7497 H 690.754 0.231616 -3.96925 0
M  V30 7498 N 691.751 1.51645 -0.429126 0
M  V30 7499 C 692.701 2.24388 0.404217 0
M  V30 7500 C 693.685 1.26294 0.996933 0
M  V30 7501 O 694.877 1.51428 0.916434 0
M  V30 7502 C 692.006 3.08338 1.50938 0
M  V30 7503 C 691.092 4.13857 0.926464 0
M  V30 7504 N 691.483 5.05749 0.0719732 0
M  V30 7505 C 689.781 4.29695 1.19491 0
M  V30 7506 C 690.482 5.81143 -0.254528 0
M  V30 7507 N 689.458 5.42408 0.359763 0
M  V30 7508 H 693.26 2.92794 -0.254697 0
M  V30 7509 H 690.774 1.60606 -0.240712 0
M  V30 7510 H 692.771 3.59022 2.11918 0
M  V30 7511 H 691.431 2.41475 2.17072 0
M  V30 7512 H 692.442 5.17066 -0.293854 0
M  V30 7513 H 689.119 3.74059 1.85434 0
M  V30 7514 H 690.509 6.65159 -0.949365 0
M  V30 7515 N 693.229 0.160201 1.56784 0
M  V30 7516 C 694.176 -0.774416 2.1742 0
M  V30 7517 C 695.146 -1.23483 1.11091 0
M  V30 7518 O 696.331 -1.30499 1.39193 0
M  V30 7519 C 693.471 -2.00283 2.81035 0
M  V30 7520 C 692.584 -1.58701 4.01793 0
M  V30 7521 C 691.719 -2.76824 4.53367 0
M  V30 7522 C 690.758 -2.31679 5.66561 0
M  V30 7523 N 689.895 -3.42856 6.12694 0
M  V30 7524 H 694.735 -0.250542 2.96945 0
M  V30 7525 H 692.272 -0.111943 1.46673 0
M  V30 7526 H 694.23 -2.72316 3.16069 0
M  V30 7527 H 692.86 -2.5006 2.04132 0
M  V30 7528 H 691.912 -0.76384 3.72652 0
M  V30 7529 H 693.224 -1.21555 4.83762 0
M  V30 7530 H 692.378 -3.57029 4.90525 0
M  V30 7531 H 691.117 -3.17223 3.70433 0
M  V30 7532 H 690.122 -1.49917 5.28966 0
M  V30 7533 H 691.347 -1.9235 6.5129 0
M  V30 7534 H 689.293 -3.82852 5.32692 0
M  V30 7535 H 689.21 -3.09767 6.89624 0
M  V30 7536 H 690.478 -4.23379 6.545 0
M  V30 7537 N 694.707 -1.5719 -0.113559 0
M  V30 7538 C 695.617 -2.04041 -1.15777 0
M  V30 7539 C 696.633 -0.961812 -1.45001 0
M  V30 7540 O 697.809 -1.2737 -1.56009 0
M  V30 7541 C 694.874 -2.43994 -2.46308 0
M  V30 7542 C 693.935 -3.65962 -2.24433 0
M  V30 7543 C 693.168 -4.04 -3.4874 0
M  V30 7544 O 693.391 -3.42321 -4.56259 0
M  V30 7545 O 692.325 -4.97069 -3.3942 0
M  V30 7546 H 696.151 -2.93248 -0.789899 0
M  V30 7547 H 693.736 -1.45828 -0.324748 0
M  V30 7548 H 695.618 -2.70401 -3.23204 0
M  V30 7549 H 694.293 -1.57932 -2.82558 0
M  V30 7550 H 693.2 -3.44697 -1.45377 0
M  V30 7551 H 694.533 -4.52746 -1.93084 0
M  V30 7552 N 696.185 0.383891 -1.52853 0
M  V30 7553 C 697.132 1.46924 -1.77995 0
M  V30 7554 C 698.102 1.53958 -0.623396 0
M  V30 7555 O 699.287 1.70134 -0.863657 0
M  V30 7556 C 696.427 2.84093 -1.95921 0
M  V30 7557 C 695.54 2.86171 -3.23621 0
M  V30 7558 C 694.675 4.14799 -3.31836 0
M  V30 7559 C 693.714 4.10948 -4.53639 0
M  V30 7560 N 692.851 5.31192 -4.59107 0
M  V30 7561 H 697.691 1.24786 -2.70615 0
M  V30 7562 H 695.228 0.605265 -1.34071 0
M  V30 7563 H 697.186 3.63755 -2.04299 0
M  V30 7564 H 695.816 3.04671 -1.06656 0
M  V30 7565 H 694.868 1.9885 -3.24288 0
M  V30 7566 H 696.18 2.79194 -4.13343 0
M  V30 7567 H 695.334 5.02867 -3.39425 0
M  V30 7568 H 694.073 4.24505 -2.40097 0
M  V30 7569 H 693.078 3.21268 -4.46169 0
M  V30 7570 H 694.303 4.0286 -5.467 0
M  V30 7571 H 692.249 5.41518 -3.70262 0
M  V30 7572 H 692.166 5.26311 -5.42708 0
M  V30 7573 H 693.434 6.21143 -4.70958 0
M  V30 7574 N 697.663 1.43903 0.642637 0
M  V30 7575 C 698.912 1.45362 1.39831 0
M  V30 7576 C 699.225 0.0856289 1.95412 0
M  V30 7577 O 700.431 -0.0222856 2.71491 0
M  V30 7578 C 698.887 2.55857 2.53111 0
M  V30 7579 C 698.495 3.98811 2.04092 0
M  V30 7580 C 700.239 2.66524 3.30402 0
M  V30 7581 C 698.146 5.00751 3.14647 0
M  V30 7582 H 697.076 0.540777 0.52543 0
M  V30 7583 H 699.727 1.69929 0.692559 0
M  V30 7584 H 698.109 2.2451 3.26207 0
M  V30 7585 H 699.283 4.3967 1.37938 0
M  V30 7586 H 697.598 3.92284 1.39651 0
M  V30 7587 H 700.195 3.39858 4.12796 0
M  V30 7588 H 700.538 1.71949 3.79129 0
M  V30 7589 H 701.071 2.97224 2.64392 0
M  V30 7590 H 697.81 5.96914 2.70876 0
M  V30 7591 H 697.33 4.64495 3.79479 0
M  V30 7592 H 699.009 5.23933 3.79609 0
M  V30 7593 N 699.141 -0.881989 1.30609 0
M  V30 7594 C 700.39 -1.62878 1.18969 0
M  V30 7595 C 700.703 -1.93946 -0.253859 0
M  V30 7596 O 701.909 -2.67008 -0.491813 0
M  V30 7597 C 700.365 -2.93573 2.0819 0
M  V30 7598 C 699.973 -2.70034 3.57471 0
M  V30 7599 C 701.717 -3.71543 2.0532 0
M  V30 7600 C 699.624 -3.96563 4.38739 0
M  V30 7601 H 698.554 -0.611092 0.441682 0
M  V30 7602 H 701.205 -0.976201 1.55379 0
M  V30 7603 H 699.587 -3.6014 1.64666 0
M  V30 7604 H 700.761 -2.11949 4.09163 0
M  V30 7605 H 699.076 -2.05435 3.62195 0
M  V30 7606 H 701.673 -4.65386 2.63288 0
M  V30 7607 H 702.016 -4.03167 1.03739 0
M  V30 7608 H 702.549 -3.11842 2.46981 0
M  V30 7609 H 699.288 -3.70095 5.41027 0
M  V30 7610 H 698.808 -4.54142 3.9181 0
M  V30 7611 H 700.487 -4.64557 4.50329 0
M  V30 7612 N 700.619 -1.13374 -1.09472 0
M  V30 7613 C 701.865 -0.896516 -1.81908 0
M  V30 7614 C 702.198 0.575933 -1.85463 0
M  V30 7615 O 701.473 1.42618 -1.32251 0
M  V30 7616 C 701.756 -1.48445 -3.28079 0
M  V30 7617 C 701.609 -3.02598 -3.32798 0
M  V30 7618 C 702.928 -1.15226 -4.24748 0
M  V30 7619 H 700.047 -0.327127 -0.660422 0
M  V30 7620 H 702.689 -1.40195 -1.2824 0
M  V30 7621 H 700.839 -1.0546 -3.73912 0
M  V30 7622 H 702.511 -3.54335 -2.95372 0
M  V30 7623 H 700.754 -3.37613 -2.72397 0
M  V30 7624 H 701.425 -3.38835 -4.3577 0
M  V30 7625 H 703.901 -1.52369 -3.87199 0
M  V30 7626 H 702.777 -1.59012 -5.25363 0
M  V30 7627 H 703.038 -0.0658891 -4.42051 0
M  V30 7628 N 702.098 1.27442 -0.927168 0
M  V30 7629 C 703.347 1.93679 -0.563146 0
M  V30 7630 C 703.66 1.73673 0.899837 0
M  V30 7631 O 704.866 2.34247 1.37262 0
M  V30 7632 C 703.322 3.46961 -0.95636 0
M  V30 7633 C 702.93 3.75724 -2.43999 0
M  V30 7634 C 704.674 4.19282 -0.663565 0
M  V30 7635 C 702.581 5.22378 -2.77263 0
M  V30 7636 H 701.511 0.725059 -0.206894 0
M  V30 7637 H 704.162 1.44743 -1.12791 0
M  V30 7638 H 702.544 3.94703 -0.320254 0
M  V30 7639 H 703.718 3.38741 -3.12396 0
M  V30 7640 H 702.033 3.16605 -2.70463 0
M  V30 7641 H 704.63 5.27265 -0.888596 0
M  V30 7642 H 704.973 4.14382 0.399198 0
M  V30 7643 H 705.506 3.7736 -1.25875 0
M  V30 7644 H 702.245 5.32367 -3.82446 0
M  V30 7645 H 701.765 5.6051 -2.13516 0
M  V30 7646 H 703.444 5.9025 -2.64979 0
M  V30 7647 N 703.576 0.692616 1.41565 0
M  V30 7648 C 704.822 0.222664 2.01574 0
M  V30 7649 C 705.155 -1.1737 1.54719 0
M  V30 7650 O 704.43 -1.79161 0.757084 0
M  V30 7651 C 704.713 0.277064 3.59033 0
M  V30 7652 C 704.566 1.71016 4.16021 0
M  V30 7653 C 705.885 -0.36479 4.38586 0
M  V30 7654 H 703.004 0.0823839 0.732381 0
M  V30 7655 H 705.646 0.880778 1.68352 0
M  V30 7656 H 703.796 -0.283288 3.87466 0
M  V30 7657 H 705.468 2.32413 3.98475 0
M  V30 7658 H 703.711 2.24525 3.71175 0
M  V30 7659 H 704.382 1.69978 5.25178 0
M  V30 7660 H 706.858 0.112404 4.15948 0
M  V30 7661 H 705.734 -0.296169 5.481 0
M  V30 7662 H 705.995 -1.44506 4.17816 0
M  V30 7663 N 705.054 -1.51416 0.437162 0
M  V30 7664 C 706.331 -1.94682 -0.189292 0
M  V30 7665 C 706.711 -1.37581 -1.60108 0
M  V30 7666 O 706.059 -0.562815 -2.2146 0
M  V30 7667 C 706.269 -3.48599 -0.167201 0
M  V30 7668 C 707.617 -4.2296 -0.372856 0
M  V30 7669 O 708.641 -3.55354 -0.245323 0
M  V30 7670 O 707.5 -5.42895 -0.626693 0
M  V30 7671 H 704.594 -0.816708 -0.130063 0
M  V30 7672 H 707.14 -1.62316 0.495128 0
M  V30 7673 H 705.912 -3.82616 0.81981 0
M  V30 7674 H 705.535 -3.87406 -0.894537 0
M  V30 7675 N 706.532 -0.168513 -1.56696 0
M  V30 7676 C 707.772 0.479648 -1.98693 0
M  V30 7677 C 708.136 1.60609 -1.05209 0
M  V30 7678 O 709.337 2.3166 -1.36334 0
M  V30 7679 C 707.608 0.952852 -3.44464 0
M  V30 7680 S 709.167 1.60259 -4.08488 0
M  V30 7681 H 705.985 0.154377 -0.694038 0
M  V30 7682 H 708.587 -0.265312 -1.93691 0
M  V30 7683 H 707.291 0.12257 -4.10217 0
M  V30 7684 H 706.822 1.73192 -3.53225 0
M  V30 7685 H 708.837 2.89065 -4.03307 0
M  V30 7686 N 708.01 1.57248 0.105221 0
M  V30 7687 C 709.258 1.85204 0.808951 0
M  V30 7688 C 709.579 0.75574 1.7976 0
M  V30 7689 O 708.849 -0.218984 1.94672 0
M  V30 7690 H 707.429 0.683346 0.301739 0
M  V30 7691 H 710.091 1.94695 0.0892605 0
M  V30 7692 H 709.187 2.81595 1.34575 0
M  V30 7693 N 709.488 -0.375779 1.53054 0
M  V30 7694 C 710.737 -1.11674 1.67964 0
M  V30 7695 C 711.05 -1.90755 0.432655 0
M  V30 7696 O 712.256 -2.67538 0.462109 0
M  V30 7697 C 710.712 -2.0344 2.96884 0
M  V30 7698 C 710.32 -1.29719 4.28809 0
M  V30 7699 C 712.064 -2.7759 3.2116 0
M  V30 7700 C 709.971 -2.20327 5.48826 0
M  V30 7701 H 708.901 -0.420597 0.625791 0
M  V30 7702 H 711.552 -0.378499 1.79554 0
M  V30 7703 H 709.934 -2.80953 2.79072 0
M  V30 7704 H 711.108 -0.573394 4.57219 0
M  V30 7705 H 709.423 -0.674735 4.10897 0
M  V30 7706 H 712.02 -3.4559 4.0801 0
M  V30 7707 H 712.363 -3.42399 2.36789 0
M  V30 7708 H 712.896 -2.07164 3.396 0
M  V30 7709 H 709.635 -1.60113 6.35645 0
M  V30 7710 H 709.155 -2.90585 5.2471 0
M  V30 7711 H 710.834 -2.80116 5.83219 0
M  V30 7712 N 710.966 -1.44241 -0.634997 0
M  V30 7713 C 711.913 -1.5081 -1.74714 0
M  V30 7714 C 712.883 -0.356147 -1.62237 0
M  V30 7715 O 714.068 -0.565848 -1.82216 0
M  V30 7716 C 711.208 -1.45458 -3.12947 0
M  V30 7717 C 710.321 -2.70998 -3.36428 0
M  V30 7718 C 709.456 -2.57507 -4.64611 0
M  V30 7719 C 708.495 -3.78229 -4.81258 0
M  V30 7720 N 707.632 -3.63438 -6.00714 0
M  V30 7721 H 712.472 -2.45832 -1.68436 0
M  V30 7722 H 710.009 -1.2201 -0.821706 0
M  V30 7723 H 711.967 -1.40347 -3.92885 0
M  V30 7724 H 710.597 -0.540058 -3.1825 0
M  V30 7725 H 709.649 -2.86312 -2.50458 0
M  V30 7726 H 710.961 -3.60619 -3.44609 0
M  V30 7727 H 710.115 -2.50207 -5.52703 0
M  V30 7728 H 708.854 -1.65441 -4.58782 0
M  V30 7729 H 707.859 -3.85918 -3.91596 0
M  V30 7730 H 709.084 -4.71327 -4.88904 0
M  V30 7731 H 707.03 -2.7412 -5.95982 0
M  V30 7732 H 706.947 -4.46672 -6.09934 0
M  V30 7733 H 708.215 -3.60022 -6.91378 0
M  V30 7734 N 712.444 0.87505 -1.31075 0
M  V30 7735 C 713.392 2.00317 -1.18219 0
M  V30 7736 C 714.386 1.69152 -0.0916872 0
M  V30 7737 O 715.592 1.7821 -0.253229 0
M  V30 7738 H 711.967 0.656981 -0.365895 0
M  V30 7739 H 713.938 2.08293 -2.13674 0
M  V30 7740 C 712.687 3.35821 -0.901095 0
M  V30 7741 H 712.01 3.6032 -1.73233 0
M  V30 7742 H 713.45 4.15366 -0.851295 0
M  V30 7743 C 711.909 3.34563 0.396114 0
M  V30 7744 O 712.439 3.75971 1.41452 0
M  V30 7745 N 710.645 2.87681 0.410832 0
M  V30 7746 H 710.192 2.54179 -0.418415 0
M  V30 7747 H 710.15 2.87223 1.27869 0
M  V30 7748 N 713.922 1.13953 1.08869 0
M  V30 7749 C 715.147 0.928559 1.85452 0
M  V30 7750 C 715.572 -0.517642 1.80837 0
M  V30 7751 O 714.93 -1.36779 1.19001 0
M  V30 7752 C 714.978 1.42814 3.31114 0
M  V30 7753 O 714.082 0.617129 4.07756 0
M  V30 7754 H 713.423 0.33235 0.574839 0
M  V30 7755 H 715.953 1.5156 1.37443 0
M  V30 7756 H 715.963 1.43425 3.8196 0
M  V30 7757 H 714.638 2.48109 3.33788 0
M  V30 7758 H 713.215 0.679365 3.66659 0
M  V30 7759 N 715.4 -1.26948 0.933913 0
M  V30 7760 C 716.649 -1.93378 0.573409 0
M  V30 7761 C 716.962 -1.74148 -0.890614 0
M  V30 7762 O 718.168 -2.34971 -1.36017 0
M  V30 7763 C 716.624 -3.46449 0.974747 0
M  V30 7764 C 716.232 -3.74425 2.45988 0
M  V30 7765 C 717.976 -4.18924 0.685791 0
M  V30 7766 C 715.883 -5.209 2.8003 0
M  V30 7767 H 714.813 -0.723952 0.210736 0
M  V30 7768 H 717.464 -1.44143 1.13557 0
M  V30 7769 H 715.846 -3.94528 0.341181 0
M  V30 7770 H 717.02 -3.37079 3.14188 0
M  V30 7771 H 715.335 -3.15167 2.72138 0
M  V30 7772 H 717.932 -5.26786 0.916546 0
M  V30 7773 H 718.275 -4.14587 -0.377217 0
M  V30 7774 H 718.808 -3.76687 1.27874 0
M  V30 7775 H 715.547 -5.30332 3.85264 0
M  V30 7776 H 715.067 -5.59369 2.16485 0
M  V30 7777 H 716.746 -5.88837 2.68105 0
M  V30 7778 N 716.879 -0.700114 -1.41195 0
M  V30 7779 C 718.128 -0.230082 -2.00383 0
M  V30 7780 C 718.441 1.17857 -1.56106 0
M  V30 7781 O 719.647 1.74631 -2.07885 0
M  V30 7782 C 718.103 -0.360447 -3.5809 0
M  V30 7783 C 717.711 -1.77475 -4.11347 0
M  V30 7784 C 719.455 0.0495799 -4.24471 0
M  V30 7785 C 717.362 -1.85653 -5.61504 0
M  V30 7786 H 716.292 -0.0822633 -0.749499 0
M  V30 7787 H 718.943 -0.868969 -1.6162 0
M  V30 7788 H 717.325 0.346768 -3.94479 0
M  V30 7789 H 718.499 -2.51109 -3.86369 0
M  V30 7790 H 716.814 -2.13486 -3.57509 0
M  V30 7791 H 719.411 0.00898219 -5.34699 0
M  V30 7792 H 719.754 1.08904 -4.01803 0
M  V30 7793 H 720.287 -0.607521 -3.93134 0
M  V30 7794 H 717.026 -2.87667 -5.89006 0
M  V30 7795 H 716.546 -1.1641 -5.88395 0
M  V30 7796 H 718.225 -1.62151 -6.26351 0
M  V30 7797 N 718.357 1.51182 -0.445186 0
M  V30 7798 C 719.304 2.27939 0.362291 0
M  V30 7799 C 720.274 1.31864 1.01 0
M  V30 7800 O 721.459 1.60776 1.02741 0
M  V30 7801 C 718.599 3.13016 1.45311 0
M  V30 7802 C 717.712 4.24093 0.822757 0
M  V30 7803 C 716.847 4.96467 1.88928 0
M  V30 7804 C 715.886 5.99454 1.23778 0
M  V30 7805 N 715.023 6.65206 2.24602 0
M  V30 7806 H 719.863 2.965 -0.29862 0
M  V30 7807 H 717.4 1.46237 -0.15911 0
M  V30 7808 H 719.358 3.60673 2.09692 0
M  V30 7809 H 717.988 2.46553 2.08354 0
M  V30 7810 H 717.04 3.80341 0.0670364 0
M  V30 7811 H 718.352 4.97853 0.307184 0
M  V30 7812 H 717.506 5.47712 2.60953 0
M  V30 7813 H 716.245 4.22355 2.4386 0
M  V30 7814 H 715.25 5.47494 0.503042 0
M  V30 7815 H 716.475 6.75527 0.695694 0
M  V30 7816 H 714.421 5.93901 2.78599 0
M  V30 7817 H 714.338 7.34756 1.77958 0
M  V30 7818 H 715.606 7.21078 2.96085 0
M  V30 7819 N 719.835 0.176821 1.56605 0
M  V30 7820 C 720.783 -0.768159 2.1955 0
M  V30 7821 C 721.777 -1.23343 1.16116 0
M  V30 7822 O 722.983 -1.19844 1.34303 0
M  V30 7823 H 719.358 -0.266013 0.703378 0
M  V30 7824 H 721.329 -0.213374 2.97636 0
M  V30 7825 C 720.078 -1.98492 2.85475 0
M  V30 7826 H 719.401 -1.63595 3.64797 0
M  V30 7827 H 720.841 -2.62489 3.3298 0
M  V30 7828 C 719.3 -2.81207 1.85538 0
M  V30 7829 O 719.83 -3.7854 1.34427 0
M  V30 7830 N 718.036 -2.46331 1.54173 0
M  V30 7831 H 717.583 -1.67241 1.95929 0
M  V30 7832 H 717.541 -3.01961 0.875595 0
M  V30 7833 N 721.313 -1.57302 -0.09688 0
M  V30 7834 C 722.243 -2.0497 -1.11846 0
M  V30 7835 C 723.224 -0.938278 -1.41882 0
M  V30 7836 O 724.409 -1.20943 -1.51942 0
M  V30 7837 C 721.539 -2.47264 -2.43881 0
M  V30 7838 C 720.493 -3.62053 -2.28257 0
M  V30 7839 C 719.819 -3.90318 -3.65453 0
M  V30 7840 C 721.119 -4.93005 -1.72461 0
M  V30 7841 H 722.813 -2.90567 -0.721888 0
M  V30 7842 H 720.359 -1.39786 -0.345803 0
M  V30 7843 H 722.312 -2.7922 -3.15617 0
M  V30 7844 H 721.036 -1.58664 -2.8547 0
M  V30 7845 H 719.695 -3.30341 -1.58967 0
M  V30 7846 H 719.343 -2.98889 -4.04567 0
M  V30 7847 H 719.043 -4.67597 -3.55846 0
M  V30 7848 H 720.567 -4.24747 -4.3866 0
M  V30 7849 H 721.981 -5.23354 -2.34036 0
M  V30 7850 H 720.378 -5.74436 -1.73618 0
M  V30 7851 H 721.448 -4.80053 -0.683898 0
M  V30 7852 N 722.791 0.367657 -1.53252 0
M  V30 7853 C 724.04 1.10782 -1.68554 0
M  V30 7854 C 724.353 1.90523 -0.442765 0
M  V30 7855 O 725.559 2.6729 -0.47629 0
M  V30 7856 C 724.015 2.01863 -2.97959 0
M  V30 7857 C 723.623 1.27443 -4.29491 0
M  V30 7858 C 725.367 2.75883 -3.22628 0
M  V30 7859 C 723.274 2.17414 -5.49987 0
M  V30 7860 H 722.204 0.417272 -0.628013 0
M  V30 7861 H 724.855 0.368971 -1.79752 0
M  V30 7862 H 723.237 2.7947 -2.80558 0
M  V30 7863 H 724.411 0.549138 -4.57516 0
M  V30 7864 H 722.726 0.652935 -4.11249 0
M  V30 7865 H 725.323 3.43421 -4.09837 0
M  V30 7866 H 725.666 3.41138 -2.38601 0
M  V30 7867 H 726.199 2.0536 -3.40693 0
M  V30 7868 H 722.938 1.5674 -6.36485 0
M  V30 7869 H 722.458 2.87799 -5.26243 0
M  V30 7870 H 724.137 2.77019 -5.84696 0
M  V30 7871 N 724.269 1.44576 0.627338 0
M  V30 7872 C 725.685 1.28546 0.945938 0
M  V30 7873 C 725.885 0.224003 2.00251 0
M  V30 7874 O 724.941 -0.388817 2.49488 0
M  V30 7875 C 726.254 2.65825 1.40561 0
M  V30 7876 C 727.802 2.73566 1.52088 0
M  V30 7877 C 728.277 4.11323 2.01438 0
M  V30 7878 N 729.768 4.13519 2.08702 0
M  V30 7879 C 730.503 5.16964 2.48065 0
M  V30 7880 N 729.999 6.30768 2.86538 0
M  V30 7881 N 731.792 5.04319 2.48232 0
M  V30 7882 H 723.943 2.1228 -0.0713567 0
M  V30 7883 H 726.206 0.947503 0.0307081 0
M  V30 7884 H 725.912 3.44591 0.703539 0
M  V30 7885 H 725.786 2.92969 2.37591 0
M  V30 7886 H 728.173 1.95116 2.21391 0
M  V30 7887 H 728.254 2.50159 0.534237 0
M  V30 7888 H 727.898 4.9025 1.32729 0
M  V30 7889 H 727.828 4.32109 3.0098 0
M  V30 7890 H 730.319 3.31385 1.81638 0
M  V30 7891 H 730.632 7.0551 3.15398 0
M  V30 7892 H 728.977 6.342 2.84281 0
M  V30 7893 H 732.168 4.14465 2.17569 0
M  V30 7894 H 732.341 5.85059 2.78585 0
M  V30 7895 N 725.747 -0.868086 1.31537 0
M  V30 7896 C 726.697 -1.96321 1.1594 0
M  V30 7897 C 727.681 -1.60748 0.0698962 0
M  V30 7898 O 728.873 -1.74524 0.295011 0
M  V30 7899 C 726.002 -3.32073 0.870789 0
M  V30 7900 C 725.088 -3.73907 2.00136 0
M  V30 7901 N 725.479 -3.87685 3.24859 0
M  V30 7902 C 723.777 -4.03433 1.90152 0
M  V30 7903 C 724.478 -4.23454 3.98825 0
M  V30 7904 N 723.454 -4.34242 3.27009 0
M  V30 7905 H 727.256 -2.05088 2.10514 0
M  V30 7906 H 724.77 -1.059 1.23122 0
M  V30 7907 H 726.767 -4.10279 0.740034 0
M  V30 7908 H 725.427 -3.24631 -0.0667068 0
M  V30 7909 H 726.438 -3.72363 3.59953 0
M  V30 7910 H 723.115 -4.0437 1.03879 0
M  V30 7911 H 724.505 -4.41696 5.06314 0
M  V30 7912 N 727.225 -1.14528 -1.08264 0
M  V30 7913 C 728.473 -0.912599 -1.80322 0
M  V30 7914 C 728.794 0.562256 -1.86718 0
M  V30 7915 O 728.064 1.40869 -1.36135 0
M  V30 7916 H 726.644 -0.334645 -0.667849 0
M  V30 7917 H 729.306 -1.44415 -1.30883 0
M  V30 7918 H 728.402 -1.31384 -2.83098 0
M  V30 7919 N 728.703 1.26451 -0.940633 0
M  V30 7920 C 729.636 2.24771 -0.394094 0
M  V30 7921 C 730.614 1.54169 0.516781 0
M  V30 7922 O 731.798 1.82942 0.454352 0
M  V30 7923 C 728.925 3.3591 0.433807 0
M  V30 7924 C 727.971 4.24472 -0.415464 0
M  V30 7925 S 728.804 5.0293 -1.83907 0
M  V30 7926 C 729.96 6.17546 -1.01921 0
M  V30 7927 H 730.193 2.70782 -1.22737 0
M  V30 7928 H 727.726 1.35308 -0.743709 0
M  V30 7929 H 729.684 4.00387 0.905576 0
M  V30 7930 H 728.345 2.88512 1.24175 0
M  V30 7931 H 727.538 5.03525 0.218833 0
M  V30 7932 H 727.14 3.64857 -0.821897 0
M  V30 7933 H 729.432 6.76996 -0.261227 0
M  V30 7934 H 730.375 6.8528 -1.78318 0
M  V30 7935 H 730.783 5.6176 -0.555511 0
M  V30 7936 N 730.181 0.707592 1.40822 0
M  V30 7937 C 731.458 0.171172 1.9485 0
M  V30 7938 C 731.838 -1.32143 1.64625 0
M  V30 7939 O 731.186 -2.07372 0.959647 0
M  V30 7940 C 731.396 0.475334 3.45748 0
M  V30 7941 C 732.744 0.409625 4.22619 0
M  V30 7942 O 733.768 0.410934 3.53822 0
M  V30 7943 O 732.627 0.380185 5.45176 0
M  V30 7944 H 729.721 0.022015 0.826707 0
M  V30 7945 H 732.267 0.784577 1.50474 0
M  V30 7946 H 731.039 1.50801 3.61075 0
M  V30 7947 H 730.662 -0.168439 3.97243 0
M  V30 7948 N 731.66 -1.50943 0.453197 0
M  V30 7949 C 732.59 -2.31005 -0.34044 0
M  V30 7950 C 733.571 -1.37112 -1.00669 0
M  V30 7951 O 734.756 -1.66033 -1.0073 0
M  V30 7952 C 731.886 -3.16358 -1.433 0
M  V30 7953 C 730.84 -4.18658 -0.889363 0
M  V30 7954 C 730.166 -4.92633 -2.07887 0
M  V30 7955 C 731.466 -5.22227 0.0871142 0
M  V30 7956 H 733.16 -2.97601 0.327723 0
M  V30 7957 H 730.706 -1.43119 0.159054 0
M  V30 7958 H 732.659 -3.71155 -1.99555 0
M  V30 7959 H 731.383 -2.47613 -2.12968 0
M  V30 7960 H 730.042 -3.64936 -0.348915 0
M  V30 7961 H 729.69 -4.20376 -2.76211 0
M  V30 7962 H 729.39 -5.61819 -1.72143 0
M  V30 7963 H 730.914 -5.50258 -2.64666 0
M  V30 7964 H 732.328 -5.72001 -0.385656 0
M  V30 7965 H 730.725 -5.99032 0.357926 0
M  V30 7966 H 731.795 -4.74077 1.01879 0
M  V30 7967 N 733.138 -0.185124 -1.56509 0
M  V30 7968 C 734.549 0.329221 -1.83774 0
M  V30 7969 C 734.9 1.62093 -1.10545 0
M  V30 7970 O 734.025 2.13334 -0.36298 0
M  V30 7971 C 734.62 0.604099 -3.33371 0
M  V30 7972 C 733.179 1.06284 -3.61083 0
M  V30 7973 C 732.326 0.10608 -2.77097 0
M  V30 7974 H 735.277 -0.409116 -1.53336 0
M  V30 7975 H 735.298 1.45458 -3.51599 0
M  V30 7976 H 734.81 -0.336201 -3.86641 0
M  V30 7977 H 732.911 2.01777 -3.13236 0
M  V30 7978 H 733.024 0.962453 -4.69333 0
M  V30 7979 H 731.388 0.606082 -2.47384 0
M  V30 7980 H 732.171 -0.828486 -3.33153 0
M  V30 7981 N 734.616 1.57351 0.0885366 0
M  V30 7982 C 735.546 2.05561 1.10757 0
M  V30 7983 C 736.527 0.945789 1.41382 0
M  V30 7984 O 737.712 1.21747 1.51299 0
M  V30 7985 C 734.842 2.48554 2.42566 0
M  V30 7986 C 733.796 3.63259 2.26334 0
M  V30 7987 C 733.122 3.9225 3.63378 0
M  V30 7988 C 734.422 4.93913 1.69844 0
M  V30 7989 H 736.116 2.90946 0.706468 0
M  V30 7990 H 733.662 1.39968 0.338385 0
M  V30 7991 H 735.615 2.8089 3.14132 0
M  V30 7992 H 734.339 1.60176 2.84625 0
M  V30 7993 H 732.998 3.31179 1.57213 0
M  V30 7994 H 732.646 3.0103 4.02976 0
M  V30 7995 H 732.346 4.69478 3.53362 0
M  V30 7996 H 733.87 4.27067 4.36401 0
M  V30 7997 H 735.284 5.24588 2.31258 0
M  V30 7998 H 733.681 5.75349 1.70569 0
M  V30 7999 H 734.751 4.80409 0.65843 0
M  V30 8000 N 736.094 -0.359525 1.53444 0
M  V30 8001 C 737.322 -1.12198 1.73837 0
M  V30 8002 C 737.737 -1.82854 0.470107 0
M  V30 8003 O 737.094 -1.73781 -0.557349 0
M  V30 8004 C 737.145 -2.14769 2.90786 0
M  V30 8005 O 736.866 -1.46989 4.12706 0
M  V30 8006 C 738.367 -3.03514 3.231 0
M  V30 8007 H 735.587 -0.33524 0.581253 0
M  V30 8008 H 738.131 -0.416598 2.00212 0
M  V30 8009 H 736.286 -2.80896 2.66788 0
M  V30 8010 H 736.7 -2.15378 4.78239 0
M  V30 8011 H 738.174 -3.71453 4.08322 0
M  V30 8012 H 738.651 -3.68658 2.38721 0
M  V30 8013 H 739.257 -2.42996 3.49046 0
M  V30 8014 N 737.572 -1.44907 -0.619662 0
M  V30 8015 C 738.802 -1.51575 -1.40387 0
M  V30 8016 C 739.21 -0.14309 -1.88658 0
M  V30 8017 O 738.553 0.863403 -1.62145 0
M  V30 8018 C 738.615 -2.42858 -2.65067 0
M  V30 8019 C 738.279 -3.8982 -2.38515 0
M  V30 8020 C 739.276 -4.80047 -1.99627 0
M  V30 8021 C 736.961 -4.34628 -2.51801 0
M  V30 8022 C 738.955 -6.13086 -1.74369 0
M  V30 8023 C 736.642 -5.67712 -2.26156 0
M  V30 8024 C 737.64 -6.56759 -1.875 0
M  V30 8025 O 737.328 -7.87377 -1.62148 0
M  V30 8026 H 737.06 -0.51612 -0.436573 0
M  V30 8027 H 739.614 -1.90664 -0.763959 0
M  V30 8028 H 737.844 -1.98717 -3.31735 0
M  V30 8029 H 739.533 -2.40346 -3.27091 0
M  V30 8030 H 740.299 -4.46697 -1.8891 0
M  V30 8031 H 736.178 -3.65568 -2.80857 0
M  V30 8032 H 739.722 -6.8255 -1.44122 0
M  V30 8033 H 735.619 -6.0062 -2.36486 0
M  V30 8034 H 736.387 -7.99288 -1.763 0
M  V30 8035 N 739.05 0.861098 -1.31996 0
M  V30 8036 C 740.299 1.60965 -1.21545 0
M  V30 8037 C 740.612 1.94325 0.222972 0
M  V30 8038 O 741.818 2.67757 0.449272 0
M  V30 8039 C 740.274 2.90223 -2.12834 0
M  V30 8040 C 739.882 2.64313 -3.61722 0
M  V30 8041 C 741.626 3.68229 -2.11205 0
M  V30 8042 C 739.533 3.89532 -4.44993 0
M  V30 8043 H 738.463 0.603988 -0.451348 0
M  V30 8044 H 741.114 0.951358 -1.56912 0
M  V30 8045 H 739.496 3.57475 -1.70375 0
M  V30 8046 H 740.67 2.05413 -4.12483 0
M  V30 8047 H 738.985 1.99647 -3.65418 0
M  V30 8048 H 741.582 4.61138 -2.70658 0
M  V30 8049 H 741.925 4.01466 -1.1014 0
M  V30 8050 H 742.458 3.07873 -2.51911 0
M  V30 8051 H 739.197 3.61441 -5.46846 0
M  V30 8052 H 738.717 4.47851 -3.98985 0
M  V30 8053 H 740.396 4.57334 -4.57663 0
M  V30 8054 N 740.528 1.15101 1.07655 0
M  V30 8055 C 741.777 0.918528 1.79572 0
M  V30 8056 C 742.09 -0.555922 1.87534 0
M  V30 8057 O 743.296 -0.905893 2.55941 0
M  V30 8058 C 741.752 1.59394 3.22679 0
M  V30 8059 C 741.36 3.1052 3.22927 0
M  V30 8060 C 743.104 1.44289 3.99225 0
M  V30 8061 C 741.011 3.70862 4.60668 0
M  V30 8062 H 739.941 0.340006 0.672987 0
M  V30 8063 H 742.592 1.38079 1.20857 0
M  V30 8064 H 740.974 1.05936 3.81567 0
M  V30 8065 H 742.148 3.70708 2.737 0
M  V30 8066 H 740.463 3.25351 2.59876 0
M  V30 8067 H 743.06 1.86766 5.01022 0
M  V30 8068 H 743.403 0.389975 4.14469 0
M  V30 8069 H 743.936 1.94826 3.46825 0
M  V30 8070 H 740.675 4.7604 4.50628 0
M  V30 8071 H 740.195 3.15456 5.10145 0
M  V30 8072 H 741.874 3.71607 5.29639 0
M  V30 8073 N 742.006 -1.2595 0.947325 0
M  V30 8074 C 743.252 -1.9375 0.599064 0
M  V30 8075 C 743.585 -1.74088 -0.860632 0
M  V30 8076 O 742.86 -1.08158 -1.61654 0
M  V30 8077 C 743.143 -3.47353 0.949634 0
M  V30 8078 C 742.996 -3.76273 2.46452 0
M  V30 8079 C 744.315 -4.37589 0.469442 0
M  V30 8080 H 741.434 -0.703674 0.219115 0
M  V30 8081 H 744.076 -1.48705 1.18266 0
M  V30 8082 H 742.226 -3.8585 0.453008 0
M  V30 8083 H 743.898 -3.47455 3.03435 0
M  V30 8084 H 742.141 -3.22135 2.90537 0
M  V30 8085 H 742.812 -4.83664 2.66032 0
M  V30 8086 H 745.288 -4.06353 0.89534 0
M  V30 8087 H 744.164 -5.43841 0.7435 0
M  V30 8088 H 744.425 -4.37579 -0.630618 0
M  V30 8089 N 743.484 -0.715051 -1.40445 0
M  V30 8090 C 744.895 -0.326763 -1.83818 0
M  V30 8091 C 745.246 1.13851 -1.59789 0
M  V30 8092 O 744.371 1.87611 -1.07848 0
M  V30 8093 C 744.966 -0.586297 -3.33688 0
M  V30 8094 C 743.525 -0.251724 -3.75557 0
M  V30 8095 C 742.672 -0.858928 -2.63662 0
M  V30 8096 H 745.623 -0.914241 -1.2972 0
M  V30 8097 H 745.644 0.148636 -3.8021 0
M  V30 8098 H 745.156 -1.65281 -3.51146 0
M  V30 8099 H 743.257 0.809754 -3.63695 0
M  V30 8100 H 743.37 -0.720348 -4.73654 0
M  V30 8101 H 741.734 -0.287013 -2.53078 0
M  V30 8102 H 742.517 -1.9297 -2.83932 0
M  V30 8103 N 744.962 1.50701 -0.461195 0
M  V30 8104 C 746.192 2.06381 0.0950376 0
M  V30 8105 C 746.6 1.32627 1.34933 0
M  V30 8106 O 745.943 0.386137 1.79596 0
M  V30 8107 C 746.005 3.56558 0.458965 0
M  V30 8108 C 745.669 4.51732 -0.691891 0
M  V30 8109 C 746.666 4.95594 -1.57105 0
M  V30 8110 C 744.351 4.94542 -0.879407 0
M  V30 8111 C 746.345 5.80963 -2.62223 0
M  V30 8112 C 744.032 5.79695 -1.93382 0
M  V30 8113 C 745.03 6.22806 -2.80359 0
M  V30 8114 O 744.718 7.06265 -3.83986 0
M  V30 8115 H 744.45 0.676 0.000687488 0
M  V30 8116 H 747.004 1.94974 -0.646087 0
M  V30 8117 H 745.234 3.65832 1.25314 0
M  V30 8118 H 746.923 3.94647 0.949124 0
M  V30 8119 H 747.689 4.63197 -1.43783 0
M  V30 8120 H 743.568 4.60513 -0.211907 0
M  V30 8121 H 747.112 6.14533 -3.30143 0
M  V30 8122 H 743.009 6.11506 -2.06715 0
M  V30 8123 H 743.777 7.24494 -3.80855 0
M  V30 8124 N 746.441 0.193421 1.56409 0
M  V30 8125 C 747.671 -0.450783 2.01622 0
M  V30 8126 C 748.079 -1.5585 1.07273 0
M  V30 8127 O 747.422 -1.83569 0.0694875 0
M  V30 8128 C 747.484 -1.06913 3.43235 0
M  V30 8129 C 747.148 -0.100352 4.5689 0
M  V30 8130 C 748.145 0.689633 5.15306 0
M  V30 8131 C 745.83 0.0102436 5.02299 0
M  V30 8132 C 747.824 1.5772 6.17579 0
M  V30 8133 C 745.511 0.901368 6.04416 0
M  V30 8134 C 746.509 1.68341 6.61929 0
M  V30 8135 O 746.197 2.5596 7.62063 0
M  V30 8136 H 745.929 -0.117671 0.66568 0
M  V30 8137 H 748.483 0.2989 2.03214 0
M  V30 8138 H 746.713 -1.86736 3.38624 0
M  V30 8139 H 748.402 -1.61781 3.72266 0
M  V30 8140 H 749.168 0.614485 4.81092 0
M  V30 8141 H 745.047 -0.58829 4.57231 0
M  V30 8142 H 748.591 2.18805 6.62397 0
M  V30 8143 H 744.488 0.977637 6.38054 0
M  V30 8144 H 745.256 2.49721 7.79475 0
M  V30 8145 N 747.919 -1.57396 -0.0801906 0
M  V30 8146 C 749.149 -1.90778 -0.792924 0
M  V30 8147 C 749.557 -0.786814 -1.72064 0
M  V30 8148 O 748.9 0.249259 -1.82001 0
M  V30 8149 C 748.962 -3.19552 -1.64702 0
M  V30 8150 C 748.626 -4.48259 -0.889567 0
M  V30 8151 C 749.623 -5.19465 -0.212602 0
M  V30 8152 C 747.308 -4.94896 -0.859229 0
M  V30 8153 C 749.302 -6.35555 0.484566 0
M  V30 8154 C 746.989 -6.10895 -0.158284 0
M  V30 8155 C 747.987 -6.81075 0.512421 0
M  V30 8156 O 747.675 -7.94862 1.20209 0
M  V30 8157 H 747.407 -0.63527 -0.231103 0
M  V30 8158 H 749.961 -2.0532 -0.0573081 0
M  V30 8159 H 748.191 -3.01196 -2.42524 0
M  V30 8160 H 749.88 -3.38649 -2.23767 0
M  V30 8161 H 750.646 -4.84467 -0.227403 0
M  V30 8162 H 746.525 -4.4015 -1.37073 0
M  V30 8163 H 750.069 -6.9027 1.00864 0
M  V30 8164 H 745.966 -6.45345 -0.141381 0
M  V30 8165 H 746.734 -8.10932 1.11051 0
M  V30 8166 N 749.397 0.351382 -1.53633 0
M  V30 8167 C 750.345 1.45142 -1.8176 0
M  V30 8168 C 751.339 1.54819 -0.687571 0
M  V30 8169 O 752.545 1.57536 -0.870772 0
M  V30 8170 H 748.92 0.483789 -0.575719 0
M  V30 8171 H 750.891 1.1863 -2.73806 0
M  V30 8172 C 749.64 2.81779 -2.03706 0
M  V30 8173 H 748.963 2.75097 -2.90107 0
M  V30 8174 H 750.403 3.5789 -2.27356 0
M  V30 8175 C 748.862 3.26762 -0.820271 0
M  V30 8176 O 749.392 4.01697 -0.0158603 0
M  V30 8177 N 747.598 2.83472 -0.639699 0
M  V30 8178 H 747.145 2.22655 -1.29547 0
M  V30 8179 H 747.103 3.13924 0.172995 0
M  V30 8180 N 750.875 1.45233 0.611969 0
M  V30 8181 C 752.122 1.49021 1.37109 0
M  V30 8182 C 752.45 0.130227 1.94064 0
M  V30 8183 O 751.705 -0.870551 1.75271 0
M  V30 8184 C 752.004 2.51353 2.54079 0
M  V30 8185 C 751.67 3.96178 2.15299 0
M  V30 8186 C 750.332 4.35614 2.04436 0
M  V30 8187 C 752.684 4.87275 1.84966 0
M  V30 8188 C 750.012 5.64047 1.61456 0
M  V30 8189 C 752.364 6.16115 1.43474 0
M  V30 8190 C 751.028 6.54486 1.31167 0
M  V30 8191 H 750.298 0.545307 0.501719 0
M  V30 8192 H 752.945 1.78555 0.692122 0
M  V30 8193 H 751.25 2.15372 3.27295 0
M  V30 8194 H 752.947 2.51523 3.12309 0
M  V30 8195 H 749.537 3.6499 2.24678 0
M  V30 8196 H 753.721 4.57548 1.92258 0
M  V30 8197 H 748.977 5.92575 1.50547 0
M  V30 8198 H 753.151 6.86149 1.19048 0
M  V30 8199 H 750.778 7.53904 0.97637 0
M  V30 8200 N 752.353 -0.854086 1.3245 0
M  V30 8201 C 753.301 -1.98411 1.21391 0
M  V30 8202 C 754.295 -1.68984 0.118586 0
M  V30 8203 O 755.501 -1.77784 0.281549 0
M  V30 8204 H 751.876 -0.651077 0.376301 0
M  V30 8205 H 753.847 -2.04867 2.16961 0
M  V30 8206 C 752.596 -3.34345 0.954407 0
M  V30 8207 H 751.919 -3.57518 1.78944 0
M  V30 8208 H 753.359 -4.13959 0.917269 0
M  V30 8209 C 751.818 -3.35151 -0.342838 0
M  V30 8210 O 752.348 -3.78174 -1.35452 0
M  V30 8211 N 750.554 -2.88298 -0.365012 0
M  V30 8212 H 750.101 -2.53481 0.4588 0
M  V30 8213 H 750.059 -2.8922 -1.23284 0
M  V30 8214 N 753.831 -1.1567 -1.07043 0
M  V30 8215 C 754.781 -0.824733 -2.12561 0
M  V30 8216 C 755.765 0.19243 -1.59745 0
M  V30 8217 O 756.957 -0.00728759 -1.76998 0
M  V30 8218 C 754.086 -0.31921 -3.41813 0
M  V30 8219 C 753.172 -1.36671 -4.01475 0
M  V30 8220 N 753.563 -2.57493 -4.35351 0
M  V30 8221 C 751.861 -1.22018 -4.28984 0
M  V30 8222 C 752.562 -3.24658 -4.82672 0
M  V30 8223 N 751.538 -2.52043 -4.81638 0
M  V30 8224 H 755.34 -1.74363 -2.3659 0
M  V30 8225 H 752.854 -1.04262 -1.24511 0
M  V30 8226 H 754.851 -0.0630216 -4.16852 0
M  V30 8227 H 753.511 0.593708 -3.19226 0
M  V30 8228 H 754.522 -2.94612 -4.25939 0
M  V30 8229 H 751.199 -0.367414 -4.1588 0
M  V30 8230 H 752.589 -4.2775 -5.1815 0
M  V30 8231 N 755.309 1.25446 -0.953992 0
M  V30 8232 C 756.558 1.92441 -0.604101 0
M  V30 8233 C 756.871 1.75543 0.862796 0
M  V30 8234 O 758.077 2.37106 1.32262 0
M  V30 8235 C 756.533 3.44854 -1.02974 0
M  V30 8236 C 756.141 3.70464 -2.51914 0
M  V30 8237 C 757.885 4.1778 -0.752352 0
M  V30 8238 C 755.792 5.1638 -2.88281 0
M  V30 8239 H 754.722 0.720508 -0.222227 0
M  V30 8240 H 757.373 1.42318 -1.15836 0
M  V30 8241 H 755.755 3.93935 -0.403904 0
M  V30 8242 H 756.929 3.32038 -3.19511 0
M  V30 8243 H 755.244 3.10797 -2.77117 0
M  V30 8244 H 757.841 5.25261 -1.00024 0
M  V30 8245 H 758.184 4.15135 0.311212 0
M  V30 8246 H 758.717 3.74605 -1.33851 0
M  V30 8247 H 755.456 5.24135 -3.93653 0
M  V30 8248 H 754.976 5.55855 -2.25357 0
M  V30 8249 H 756.655 5.84497 -2.77439 0
M  V30 8250 N 756.787 0.722489 1.40064 0
M  V30 8251 C 758.064 0.191829 1.94657 0
M  V30 8252 C 758.444 -1.30389 1.66018 0
M  V30 8253 O 757.792 -2.06342 0.981588 0
M  V30 8254 C 758.002 0.511978 3.45224 0
M  V30 8255 C 759.35 0.454426 4.22161 0
M  V30 8256 O 760.374 0.448438 3.53366 0
M  V30 8257 O 759.233 0.437986 5.44742 0
M  V30 8258 H 756.327 0.0307821 0.826427 0
M  V30 8259 H 758.873 0.800493 1.49634 0
M  V30 8260 H 757.645 1.54622 3.59455 0
M  V30 8261 H 757.268 -0.126296 3.97399 0
M  V30 8262 N 758.265 -1.50454 0.469181 0
M  V30 8263 C 759.495 -2.06429 -0.0840913 0
M  V30 8264 C 759.903 -1.3334 -1.34227 0
M  V30 8265 O 759.246 -0.395656 -1.79389 0
M  V30 8266 C 759.308 -3.56797 -0.440049 0
M  V30 8267 C 758.972 -4.51359 0.715838 0
M  V30 8268 C 759.969 -4.94754 1.59732 0
M  V30 8269 C 757.654 -4.94069 0.905621 0
M  V30 8270 C 759.648 -5.79564 2.653 0
M  V30 8271 C 757.335 -5.78662 1.96453 0
M  V30 8272 C 758.333 -6.21311 2.83658 0
M  V30 8273 O 758.021 -7.04218 3.87727 0
M  V30 8274 H 757.753 -0.675994 0.00289751 0
M  V30 8275 H 760.307 -1.94629 0.656417 0
M  V30 8276 H 758.537 -3.66492 -1.23372 0
M  V30 8277 H 760.226 -3.95145 -0.928181 0
M  V30 8278 H 760.992 -4.62428 1.46237 0
M  V30 8279 H 756.871 -4.60394 0.236326 0
M  V30 8280 H 760.415 -6.12774 3.33398 0
M  V30 8281 H 756.312 -6.10401 2.09955 0
M  V30 8282 H 757.08 -7.22464 3.84692 0
M  V30 8283 N 759.743 -0.201713 -1.56304 0
M  V30 8284 C 761.02 0.483273 -1.89536 0
M  V30 8285 C 761.4 1.79176 -1.11621 0
M  V30 8286 O 760.748 2.27445 -0.219339 0
M  V30 8287 C 760.958 0.695604 -3.41998 0
M  V30 8288 C 762.306 1.012 -4.12364 0
M  V30 8289 O 763.33 0.783094 -3.47485 0
M  V30 8290 O 762.189 1.44534 -5.27041 0
M  V30 8291 H 759.283 0.252801 -0.787414 0
M  V30 8292 H 761.829 -0.24242 -1.6796 0
M  V30 8293 H 760.601 -0.228165 -3.90634 0
M  V30 8294 H 760.224 1.47351 -3.69288 0
M  V30 8295 N 761.222 1.57436 0.0718424 0
M  V30 8296 C 762.185 2.02703 1.06977 0
M  V30 8297 C 763.185 0.924062 1.31597 0
M  V30 8298 O 764.375 1.18894 1.27318 0
M  V30 8299 C 761.507 2.40763 2.41342 0
M  V30 8300 H 762.7 2.92098 0.679619 0
M  V30 8301 H 760.253 1.5304 0.317565 0
M  V30 8302 H 760.988 1.54394 2.8519 0
M  V30 8303 H 760.773 3.21249 2.24814 0
M  V30 8304 H 762.263 2.76361 3.13073 0
M  V30 8305 N 762.7 -0.34323 1.53817 0
M  V30 8306 C 763.946 -1.08504 1.71332 0
M  V30 8307 C 764.279 -1.88294 0.475285 0
M  V30 8308 O 763.554 -1.87205 -0.527688 0
M  V30 8309 C 763.837 -2.02597 2.97702 0
M  V30 8310 C 763.69 -1.26268 4.31713 0
M  V30 8311 C 765.009 -3.0241 3.19744 0
M  V30 8312 H 762.128 -0.393072 0.623429 0
M  V30 8313 H 764.77 -0.363579 1.86489 0
M  V30 8314 H 762.92 -2.64118 2.8491 0
M  V30 8315 H 764.592 -0.673594 4.56356 0
M  V30 8316 H 762.835 -0.564696 4.30109 0
M  V30 8317 H 763.506 -1.95253 5.16314 0
M  V30 8318 H 765.982 -2.51004 3.31868 0
M  V30 8319 H 764.858 -3.65449 4.09558 0
M  V30 8320 H 765.119 -3.73806 2.36054 0
M  V30 8321 N 764.178 -1.45556 -0.604258 0
M  V30 8322 C 765.108 -1.57327 -1.72541 0
M  V30 8323 C 766.089 -0.424637 -1.64714 0
M  V30 8324 O 767.274 -0.648196 -1.83063 0
M  V30 8325 C 764.404 -1.54279 -3.11152 0
M  V30 8326 C 763.358 -2.67893 -3.33792 0
M  V30 8327 C 762.684 -2.499 -4.72709 0
M  V30 8328 C 763.984 -4.0988 -3.23722 0
M  V30 8329 H 765.678 -2.51175 -1.62947 0
M  V30 8330 H 763.224 -1.20884 -0.782504 0
M  V30 8331 H 765.177 -1.6111 -3.89386 0
M  V30 8332 H 763.901 -0.569627 -3.21594 0
M  V30 8333 H 762.56 -2.60495 -2.57949 0
M  V30 8334 H 762.208 -1.50715 -4.79889 0
M  V30 8335 H 761.908 -3.26091 -4.88813 0
M  V30 8336 H 763.432 -2.5859 -5.5314 0
M  V30 8337 H 764.846 -4.18503 -3.91826 0
M  V30 8338 H 763.243 -4.86487 -3.51355 0
M  V30 8339 H 764.313 -4.31553 -2.21111 0
M  V30 8340 N 765.656 0.84705 -1.32902 0
M  V30 8341 C 766.586 1.97166 -1.25091 0
M  V30 8342 C 767.567 1.69578 -0.133161 0
M  V30 8343 O 768.752 1.91519 -0.321591 0
M  V30 8344 C 765.882 3.33157 -0.981006 0
M  V30 8345 C 764.836 3.75119 -2.06082 0
M  V30 8346 C 764.162 5.08826 -1.64318 0
M  V30 8347 C 765.462 3.89774 -3.47669 0
M  V30 8348 H 767.156 2.03958 -2.19184 0
M  V30 8349 H 764.702 0.979907 -1.05517 0
M  V30 8350 H 766.655 4.11393 -0.912891 0
M  V30 8351 H 765.379 3.266 -0.00445559 0
M  V30 8352 H 764.038 2.9914 -2.11921 0
M  V30 8353 H 763.686 4.98732 -0.653876 0
M  V30 8354 H 763.386 5.37873 -2.36572 0
M  V30 8355 H 764.91 5.89546 -1.58958 0
M  V30 8356 H 766.324 4.58343 -3.44376 0
M  V30 8357 H 764.721 4.30248 -4.18338 0
M  V30 8358 H 765.791 2.92463 -3.86773 0
M  V30 8359 N 767.134 1.16236 1.06428 0
M  V30 8360 C 768.359 0.967688 1.83441 0
M  V30 8361 C 768.784 -0.479167 1.81894 0
M  V30 8362 O 768.142 -1.34224 1.21875 0
M  V30 8363 C 768.19 1.49806 3.2801 0
M  V30 8364 O 767.294 0.703481 4.06356 0
M  V30 8365 H 766.635 0.344468 0.56766 0
M  V30 8366 H 769.165 1.54442 1.34197 0
M  V30 8367 H 769.175 1.51495 3.78831 0
M  V30 8368 H 767.85 2.55133 3.2845 0
M  V30 8369 H 766.427 0.756986 3.65136 0
M  V30 8370 N 768.612 -1.24939 0.960631 0
M  V30 8371 C 769.56 -2.27659 0.47686 0
M  V30 8372 C 770.554 -1.63148 -0.455961 0
M  V30 8373 O 771.76 -1.76911 -0.332029 0
M  V30 8374 H 768.135 -0.739651 0.135723 0
M  V30 8375 H 770.106 -2.65844 1.35534 0
M  V30 8376 C 768.855 -3.46976 -0.224191 0
M  V30 8377 H 768.178 -3.96854 0.484471 0
M  V30 8378 H 769.618 -4.20717 -0.526615 0
M  V30 8379 C 768.077 -3.04159 -1.44876 0
M  V30 8380 O 768.607 -3.10697 -2.54618 0
M  V30 8381 N 766.813 -2.59284 -1.31226 0
M  V30 8382 H 766.36 -2.54164 -0.419361 0
M  V30 8383 H 766.318 -2.31 -2.13275 0
M  V30 8384 N 770.09 -0.729906 -1.39679 0
M  V30 8385 C 771.338 -0.275077 -2.00219 0
M  V30 8386 C 771.659 1.1401 -1.58199 0
M  V30 8387 O 770.929 1.77546 -0.827904 0
M  V30 8388 H 769.509 -0.0987127 -0.740449 0
M  V30 8389 H 772.171 -0.93873 -1.70804 0
M  V30 8390 H 771.267 -0.319446 -3.10461 0
M  V30 8391 N 771.568 1.50203 -0.477153 0
M  V30 8392 C 772.979 1.86685 -0.0235041 0
M  V30 8393 C 773.33 1.39148 1.38319 0
M  V30 8394 O 772.455 0.759051 2.02651 0
M  V30 8395 C 773.05 3.38781 -0.0358767 0
M  V30 8396 C 771.609 3.74652 0.362327 0
M  V30 8397 C 770.756 2.7412 -0.41875 0
M  V30 8398 H 773.707 1.4286 -0.691133 0
M  V30 8399 H 773.728 3.72732 0.764924 0
M  V30 8400 H 773.24 3.73349 -1.05981 0
M  V30 8401 H 771.341 3.45686 1.39039 0
M  V30 8402 H 771.454 4.79063 0.059457 0
M  V30 8403 H 769.818 2.54376 0.128341 0
M  V30 8404 H 770.601 3.11532 -1.44231 0
M  V30 8405 N 773.046 0.209999 1.56195 0
M  V30 8406 C 774.294 -0.423974 1.97603 0
M  V30 8407 C 774.615 -1.61112 1.09854 0
M  V30 8408 O 773.885 -1.95134 0.173032 0
M  V30 8409 H 772.465 -0.159629 0.729745 0
M  V30 8410 H 775.127 0.300205 1.92574 0
M  V30 8411 H 774.223 -0.75809 3.02753 0
M  V30 8412 N 774.524 -1.57472 -0.0634922 0
M  V30 8413 C 775.801 -1.78736 -0.794538 0
M  V30 8414 C 776.181 -0.799645 -1.95369 0
M  V30 8415 O 775.529 0.165521 -2.279 0
M  V30 8416 C 775.739 -3.25471 -1.25975 0
M  V30 8417 C 777.087 -3.89528 -1.68976 0
M  V30 8418 O 778.111 -3.29412 -1.35521 0
M  V30 8419 O 776.97 -4.95305 -2.30944 0
M  V30 8420 H 774.064 -0.733813 -0.381376 0
M  V30 8421 H 776.61 -1.69646 -0.0429258 0
M  V30 8422 H 775.382 -3.88922 -0.430721 0
M  V30 8423 H 775.005 -3.39317 -2.07243 0
M  V30 8424 N 776.003 0.335068 -1.53997 0
M  V30 8425 C 777.414 0.910191 -1.6301 0
M  V30 8426 C 777.765 1.89271 -0.516809 0
M  V30 8427 O 776.89 2.13516 0.352123 0
M  V30 8428 C 777.485 1.65761 -2.9548 0
M  V30 8429 C 776.044 2.18163 -3.06728 0
M  V30 8430 C 775.191 1.00338 -2.5851 0
M  V30 8431 H 778.142 0.112965 -1.58297 0
M  V30 8432 H 778.163 2.52107 -2.84995 0
M  V30 8433 H 777.675 0.94227 -3.76488 0
M  V30 8434 H 775.776 2.92847 -2.30372 0
M  V30 8435 H 775.889 2.43952 -4.1234 0
M  V30 8436 H 774.253 1.37925 -2.14124 0
M  V30 8437 H 775.036 0.30254 -3.41964 0
M  V30 8438 N 777.481 1.45874 0.596531 0
M  V30 8439 C 778.428 1.55389 1.70655 0
M  V30 8440 C 779.398 0.399036 1.61236 0
M  V30 8441 O 780.583 0.61396 1.80652 0
M  V30 8442 C 777.723 1.53705 3.0898 0
M  V30 8443 C 776.836 2.79823 3.29125 0
M  V30 8444 C 775.971 2.69735 4.5762 0
M  V30 8445 C 775.01 3.90856 4.71061 0
M  V30 8446 N 774.147 3.79237 5.90867 0
M  V30 8447 H 778.987 2.50211 1.61859 0
M  V30 8448 H 776.524 1.24146 0.789069 0
M  V30 8449 H 778.482 1.50715 3.89026 0
M  V30 8450 H 777.112 0.624247 3.16706 0
M  V30 8451 H 776.164 2.92852 2.42779 0
M  V30 8452 H 777.476 3.69628 3.34927 0
M  V30 8453 H 776.63 2.64773 5.45875 0
M  V30 8454 H 775.369 1.77547 4.54234 0
M  V30 8455 H 774.374 3.96164 3.81227 0
M  V30 8456 H 775.599 4.84124 4.76236 0
M  V30 8457 H 773.545 2.89825 5.88504 0
M  V30 8458 H 773.462 4.62686 5.97877 0
M  V30 8459 H 774.73 3.78227 6.8159 0
M  V30 8460 N 778.959 -0.83999 1.33349 0
M  V30 8461 C 779.906 -1.94972 1.23509 0
M  V30 8462 C 780.876 -1.65709 0.113967 0
M  V30 8463 O 782.061 -1.88552 0.292045 0
M  V30 8464 C 779.201 -3.30919 0.979105 0
M  V30 8465 C 778.314 -3.72587 2.18639 0
M  V30 8466 C 777.449 -4.97397 1.86465 0
M  V30 8467 C 776.488 -5.31597 3.03432 0
M  V30 8468 N 775.625 -6.47584 2.71254 0
M  V30 8469 H 780.465 -2.0272 2.18423 0
M  V30 8470 H 778.002 -0.992017 1.08616 0
M  V30 8471 H 779.96 -4.09239 0.811126 0
M  V30 8472 H 778.59 -3.22731 0.0667099 0
M  V30 8473 H 777.642 -2.89799 2.46416 0
M  V30 8474 H 778.954 -3.93844 3.06086 0
M  V30 8475 H 778.108 -5.83462 1.66305 0
M  V30 8476 H 776.847 -4.78107 0.96254 0
M  V30 8477 H 775.852 -4.44037 3.24208 0
M  V30 8478 H 777.077 -5.52836 3.94397 0
M  V30 8479 H 775.023 -6.29783 1.836 0
M  V30 8480 H 774.94 -6.68931 3.52231 0
M  V30 8481 H 776.208 -7.36764 2.54558 0
M  V30 8482 N 780.437 -1.16799 -1.0581 0
M  V30 8483 C 781.677 -0.963264 -1.80279 0
M  V30 8484 C 782.041 0.499671 -1.85384 0
M  V30 8485 O 783.242 0.823264 -2.55882 0
M  V30 8486 C 781.513 -1.57938 -3.20609 0
M  V30 8487 S 783.072 -1.51997 -4.11634 0
M  V30 8488 H 779.89 -0.346302 -0.620964 0
M  V30 8489 H 782.492 -1.48632 -1.26999 0
M  V30 8490 H 781.196 -2.63672 -3.14492 0
M  V30 8491 H 780.727 -1.05586 -3.78966 0
M  V30 8492 H 782.742 -0.523625 -4.93429 0
M  V30 8493 N 781.915 1.24427 -0.967243 0
M  V30 8494 C 783.192 1.87831 -0.545776 0
M  V30 8495 C 783.572 1.87126 0.977099 0
M  V30 8496 O 782.92 1.34357 1.84826 0
M  V30 8497 C 783.13 3.29967 -1.13679 0
M  V30 8498 C 784.478 4.06654 -1.22139 0
M  V30 8499 O 785.502 3.39136 -1.08926 0
M  V30 8500 O 784.361 5.27455 -1.43017 0
M  V30 8501 H 781.455 0.806745 -0.181912 0
M  V30 8502 H 784.001 1.32403 -1.06148 0
M  V30 8503 H 782.773 3.24977 -2.17958 0
M  V30 8504 H 782.396 3.92969 -0.605093 0
M  V30 8505 N 783.393 0.737304 1.3929 0
M  V30 8506 C 784.64 0.286257 2.00467 0
M  V30 8507 C 784.968 -1.1272 1.58507 0
M  V30 8508 O 784.223 -1.7832 0.806257 0
M  V30 8509 C 784.522 0.338438 3.55794 0
M  V30 8510 C 784.188 1.70524 4.17411 0
M  V30 8511 C 782.85 2.07934 4.33955 0
M  V30 8512 C 785.202 2.60256 4.51571 0
M  V30 8513 C 782.53 3.34578 4.81948 0
M  V30 8514 C 784.882 3.86275 5.00974 0
M  V30 8515 C 783.546 4.23774 5.15725 0
M  V30 8516 H 782.816 0.104749 0.733559 0
M  V30 8517 H 785.463 0.944598 1.66582 0
M  V30 8518 H 783.768 -0.403478 3.89717 0
M  V30 8519 H 785.465 -0.0287255 4.0099 0
M  V30 8520 H 782.055 1.40439 4.04938 0
M  V30 8521 H 786.239 2.32624 4.38406 0
M  V30 8522 H 781.495 3.63572 4.91554 0
M  V30 8523 H 785.669 4.5596 5.26378 0
M  V30 8524 H 783.296 5.21972 5.52674 0
M  V30 8525 N 784.871 -1.49948 0.485112 0
M  V30 8526 C 785.801 -2.31675 -0.291364 0
M  V30 8527 C 786.782 -1.39216 -0.977383 0
M  V30 8528 O 787.967 -1.68133 -0.971855 0
M  V30 8529 C 785.097 -3.19326 -1.36558 0
M  V30 8530 C 784.051 -4.2045 -0.800359 0
M  V30 8531 C 783.377 -4.96931 -1.97391 0
M  V30 8532 C 784.677 -5.21925 0.197867 0
M  V30 8533 H 786.371 -2.96839 0.390775 0
M  V30 8534 H 783.917 -1.42749 0.189375 0
M  V30 8535 H 785.87 -3.75304 -1.91638 0
M  V30 8536 H 784.594 -2.52074 -2.07668 0
M  V30 8537 H 783.253 -3.65594 -0.271428 0
M  V30 8538 H 782.901 -4.26141 -2.67232 0
M  V30 8539 H 782.601 -5.65344 -1.60187 0
M  V30 8540 H 784.125 -5.55749 -2.52935 0
M  V30 8541 H 785.539 -5.72691 -0.264239 0
M  V30 8542 H 783.936 -5.98138 0.484908 0
M  V30 8543 H 785.006 -4.71809 1.11912 0
M  V30 8544 N 786.349 -0.21828 -1.56081 0
M  V30 8545 C 787.598 0.414644 -1.97392 0
M  V30 8546 C 787.911 1.61132 -1.10887 0
M  V30 8547 O 789.117 2.31355 -1.42082 0
M  V30 8548 C 787.573 0.789099 -3.51143 0
M  V30 8549 C 787.181 -0.384578 -4.46346 0
M  V30 8550 C 788.925 1.38781 -4.01173 0
M  V30 8551 C 786.832 0.0121288 -5.91399 0
M  V30 8552 H 785.762 0.158691 -0.737111 0
M  V30 8553 H 788.413 -0.313974 -1.80794 0
M  V30 8554 H 786.795 1.57505 -3.6333 0
M  V30 8555 H 787.969 -1.16212 -4.45905 0
M  V30 8556 H 786.284 -0.896306 -4.06639 0
M  V30 8557 H 788.881 1.69746 -5.07041 0
M  V30 8558 H 789.224 2.30245 -3.46833 0
M  V30 8559 H 789.757 0.665364 -3.92196 0
M  V30 8560 H 786.496 -0.868917 -6.49715 0
M  V30 8561 H 786.016 0.754053 -5.95041 0
M  V30 8562 H 787.695 0.439949 -6.45502 0
M  V30 8563 N 787.827 1.57504 0.0551401 0
M  V30 8564 C 788.774 2.04825 1.06373 0
M  V30 8565 C 789.744 0.932108 1.37481 0
M  V30 8566 O 790.929 1.20093 1.48265 0
M  V30 8567 C 788.069 2.51091 2.36743 0
M  V30 8568 C 787.182 3.76392 2.12021 0
M  V30 8569 C 786.317 4.11373 3.36074 0
M  V30 8570 C 785.356 5.29666 3.0679 0
M  V30 8571 N 784.493 5.60205 4.2322 0
M  V30 8572 H 789.333 2.90753 0.653216 0
M  V30 8573 H 786.87 1.43776 0.310951 0
M  V30 8574 H 788.828 2.75973 3.12881 0
M  V30 8575 H 787.458 1.68118 2.75565 0
M  V30 8576 H 786.51 3.58751 1.26498 0
M  V30 8577 H 787.822 4.62662 1.86401 0
M  V30 8578 H 786.976 4.37245 4.20597 0
M  V30 8579 H 785.715 3.23704 3.64784 0
M  V30 8580 H 784.72 5.03574 2.20664 0
M  V30 8581 H 785.945 6.18968 2.79385 0
M  V30 8582 H 783.891 4.75495 4.5193 0
M  V30 8583 H 783.808 6.40928 4.00933 0
M  V30 8584 H 785.076 5.90637 5.08692 0
M  V30 8585 N 789.305 -0.326896 1.54172 0
M  V30 8586 C 790.253 -1.42232 1.84046 0
M  V30 8587 C 791.247 -1.53705 0.712115 0
M  V30 8588 O 792.453 -1.56131 0.895724 0
M  V30 8589 H 788.828 -0.474568 0.583343 0
M  V30 8590 H 790.799 -1.14259 2.75658 0
M  V30 8591 C 789.548 -2.78502 2.08163 0
M  V30 8592 H 788.871 -2.70447 2.94446 0
M  V30 8593 H 790.311 -3.54228 2.33021 0
M  V30 8594 C 788.77 -3.25415 0.872152 0
M  V30 8595 O 789.3 -4.01621 0.0797648 0
M  V30 8596 N 787.506 -2.82418 0.684716 0
M  V30 8597 H 787.053 -2.20566 1.33072 0
M  V30 8598 H 787.011 -3.14159 -0.123031 0
M  V30 8599 N 790.784 -1.46188 -0.588786 0
M  V30 8600 C 791.714 -1.59148 -1.70863 0
M  V30 8601 C 792.695 -0.442083 -1.64255 0
M  V30 8602 O 793.88 -0.667575 -1.82365 0
M  V30 8603 C 791.01 -1.5757 -3.09498 0
M  V30 8604 C 789.964 -2.71418 -3.30932 0
M  V30 8605 C 789.29 -2.549 -4.70032 0
M  V30 8606 C 790.59 -4.1329 -3.19356 0
M  V30 8607 H 792.284 -2.52889 -1.60274 0
M  V30 8608 H 789.83 -1.21707 -0.769638 0
M  V30 8609 H 791.783 -1.65231 -3.87655 0
M  V30 8610 H 790.507 -0.603705 -3.20972 0
M  V30 8611 H 789.166 -2.63216 -2.55172 0
M  V30 8612 H 788.814 -1.55797 -4.78264 0
M  V30 8613 H 788.514 -3.31257 -4.85327 0
M  V30 8614 H 790.038 -2.64443 -5.50366 0
M  V30 8615 H 791.452 -4.22636 -3.87365 0
M  V30 8616 H 789.849 -4.90187 -3.46175 0
M  V30 8617 H 790.919 -4.33874 -2.16522 0
M  V30 8618 N 792.262 0.832906 -1.33792 0
M  V30 8619 C 793.209 1.94314 -1.24541 0
M  V30 8620 C 794.179 1.65646 -0.122753 0
M  V30 8621 O 795.364 1.88394 -0.30204 0
M  V30 8622 C 792.504 3.30395 -0.996641 0
M  V30 8623 C 791.617 3.71422 -2.20612 0
M  V30 8624 C 790.752 4.96401 -1.89101 0
M  V30 8625 C 789.791 5.2998 -3.06247 0
M  V30 8626 N 788.928 6.46137 -2.74685 0
M  V30 8627 H 793.768 2.01559 -2.19495 0
M  V30 8628 H 791.305 0.986243 -1.09141 0
M  V30 8629 H 793.263 4.08803 -0.832817 0
M  V30 8630 H 791.893 3.22691 -0.0838242 0
M  V30 8631 H 790.945 2.88488 -2.47949 0
M  V30 8632 H 792.257 3.92215 -3.0817 0
M  V30 8633 H 791.411 5.82572 -1.69396 0
M  V30 8634 H 790.15 4.7759 -0.987882 0
M  V30 8635 H 789.155 4.42312 -3.26559 0
M  V30 8636 H 790.38 5.50737 -3.97323 0
M  V30 8637 H 788.326 6.28801 -1.86938 0
M  V30 8638 H 788.243 6.67054 -3.55774 0
M  V30 8639 H 789.511 7.35403 -2.58461 0
M  V30 8640 N 793.74 1.17359 1.05189 0
M  V30 8641 C 795.017 0.871914 1.75091 0
M  V30 8642 C 795.397 -0.627821 2.01548 0
M  V30 8643 O 794.745 -1.5791 1.65156 0
M  V30 8644 C 794.955 1.70687 3.04413 0
M  V30 8645 C 796.303 1.92684 3.78362 0
M  V30 8646 O 797.327 1.67645 3.14282 0
M  V30 8647 O 796.186 2.34765 4.93505 0
M  V30 8648 H 793.28 0.322831 0.761386 0
M  V30 8649 H 795.826 1.28054 1.11357 0
M  V30 8650 H 794.598 2.72405 2.80911 0
M  V30 8651 H 794.221 1.29602 3.75884 0
M  V30 8652 N 795.218 -1.23913 0.973828 0
M  V30 8653 C 796.443 -1.96735 0.656511 0
M  V30 8654 C 796.868 -1.71682 -0.768571 0
M  V30 8655 O 796.226 -0.984267 -1.52256 0
M  V30 8656 C 796.274 -3.48004 0.944735 0
M  V30 8657 O 795.378 -4.12387 0.0333357 0
M  V30 8658 H 794.719 -0.616119 0.247575 0
M  V30 8659 H 797.249 -1.57525 1.30564 0
M  V30 8660 H 797.259 -3.98424 0.87876 0
M  V30 8661 H 795.934 -3.65567 1.98328 0
M  V30 8662 H 794.511 -3.72585 0.153157 0
M  V30 8663 N 796.696 -0.74468 -1.38897 0
M  V30 8664 C 797.626 -0.126355 -2.33158 0
M  V30 8665 C 798.607 0.713517 -1.54412 0
M  V30 8666 O 799.792 0.656523 -1.82766 0
M  V30 8667 C 796.922 0.774375 -3.38557 0
M  V30 8668 C 795.876 0.0379214 -4.27983 0
M  V30 8669 C 795.202 1.05631 -5.24162 0
M  V30 8670 C 796.502 -1.12523 -5.10035 0
M  V30 8671 H 798.196 -0.913744 -2.85116 0
M  V30 8672 H 795.742 -0.440847 -1.37086 0
M  V30 8673 H 797.695 1.21655 -4.03458 0
M  V30 8674 H 796.419 1.59399 -2.85061 0
M  V30 8675 H 795.078 -0.384733 -3.64576 0
M  V30 8676 H 794.726 1.86975 -4.66958 0
M  V30 8677 H 794.426 0.568261 -5.84846 0
M  V30 8678 H 795.95 1.49799 -5.9194 0
M  V30 8679 H 797.364 -0.761037 -5.68226 0
M  V30 8680 H 795.761 -1.54355 -5.79909 0
M  V30 8681 H 796.831 -1.94237 -4.44297 0
M  V30 8682 N 798.174 1.49689 -0.493057 0
M  V30 8683 C 799.402 2.06836 0.0513141 0
M  V30 8684 C 799.817 1.35436 1.31539 0
M  V30 8685 O 799.174 0.430248 1.77356 0
M  V30 8686 C 799.225 3.60107 0.317003 0
M  V30 8687 O 798.946 4.2882 -0.896957 0
M  V30 8688 C 800.447 4.33945 0.905902 0
M  V30 8689 H 797.667 0.670787 -0.0169048 0
M  V30 8690 H 800.211 1.92574 -0.688139 0
M  V30 8691 H 798.366 3.74099 1.00642 0
M  V30 8692 H 798.78 5.20395 -0.654939 0
M  V30 8693 H 800.254 5.42087 1.04144 0
M  V30 8694 H 800.731 3.95895 1.90168 0
M  V30 8695 H 801.337 4.2454 0.254195 0
M  V30 8696 N 799.652 0.226554 1.55963 0
M  V30 8697 C 800.599 -0.681504 2.20509 0
M  V30 8698 C 801.569 -1.1866 1.16229 0
M  V30 8699 O 802.754 -1.24478 1.44602 0
M  V30 8700 C 799.894 -1.88183 2.89277 0
M  V30 8701 C 799.007 -1.41517 4.08163 0
M  V30 8702 C 798.142 -2.57346 4.647 0
M  V30 8703 C 797.181 -2.07441 5.75877 0
M  V30 8704 N 796.318 -3.16561 6.26685 0
M  V30 8705 H 801.158 -0.124372 2.9774 0
M  V30 8706 H 798.695 -0.0496333 1.47016 0
M  V30 8707 H 800.653 -2.58666 3.27335 0
M  V30 8708 H 799.283 -2.41177 2.14555 0
M  V30 8709 H 798.335 -0.605099 3.75557 0
M  V30 8710 H 799.647 -1.00928 4.88482 0
M  V30 8711 H 798.801 -3.35903 5.05227 0
M  V30 8712 H 797.54 -3.01227 3.83554 0
M  V30 8713 H 796.545 -1.27347 5.34848 0
M  V30 8714 H 797.77 -1.64554 6.58862 0
M  V30 8715 H 795.716 -3.59914 5.48451 0
M  V30 8716 H 795.633 -2.80239 7.02141 0
M  V30 8717 H 796.901 -3.95238 6.71868 0
M  V30 8718 N 801.13 -1.57531 -0.0467866 0
M  V30 8719 C 802.078 -2.06455 -1.0714 0
M  V30 8720 C 803.072 -0.974744 -1.38546 0
M  V30 8721 O 804.278 -1.15974 -1.37659 0
M  V30 8722 H 800.653 -0.658607 -0.362962 0
M  V30 8723 H 802.624 -2.91613 -0.632813 0
M  V30 8724 C 801.373 -2.54481 -2.36927 0
M  V30 8725 H 800.696 -3.37946 -2.13617 0
M  V30 8726 H 802.136 -2.92442 -3.07007 0
M  V30 8727 C 800.595 -1.43836 -3.04652 0
M  V30 8728 O 801.125 -0.794531 -3.93764 0
M  V30 8729 N 799.331 -1.17727 -2.65686 0
M  V30 8730 H 798.878 -1.70265 -1.93307 0
M  V30 8731 H 798.836 -0.439051 -3.11319 0
M  V30 8732 N 802.608 0.318715 -1.54344 0
M  V30 8733 C 803.555 1.39242 -1.84066 0
M  V30 8734 C 804.525 1.51175 -0.688134 0
M  V30 8735 O 805.71 1.66318 -0.935039 0
M  V30 8736 C 802.85 2.75528 -2.07794 0
M  V30 8737 C 801.963 2.72187 -3.35467 0
M  V30 8738 C 801.098 4.00352 -3.4913 0
M  V30 8739 C 800.137 3.91338 -4.7066 0
M  V30 8740 N 799.274 5.11242 -4.81224 0
M  V30 8741 H 804.114 1.13196 -2.75664 0
M  V30 8742 H 801.651 0.547857 -1.36517 0
M  V30 8743 H 803.609 3.54763 -2.19543 0
M  V30 8744 H 802.239 2.99873 -1.19482 0
M  V30 8745 H 801.291 1.84917 -3.3243 0
M  V30 8746 H 802.603 2.61411 -4.24812 0
M  V30 8747 H 801.757 4.88019 -3.60448 0
M  V30 8748 H 800.496 4.1394 -2.57886 0
M  V30 8749 H 799.501 3.02055 -4.59394 0
M  V30 8750 H 800.726 3.7931 -5.63294 0
M  V30 8751 H 798.672 5.25327 -3.92897 0
M  V30 8752 H 798.589 5.0282 -5.64543 0
M  V30 8753 H 799.857 6.0061 -4.96879 0
M  V30 8754 N 804.086 1.46499 0.581025 0
M  V30 8755 C 805.335 1.51162 1.3354 0
M  V30 8756 C 805.648 0.168433 1.94873 0
M  V30 8757 O 806.854 0.092883 2.71341 0
M  V30 8758 C 805.31 2.66362 2.42032 0
M  V30 8759 C 804.918 4.07109 1.86994 0
M  V30 8760 C 806.662 2.80297 3.188 0
M  V30 8761 C 804.569 5.13645 2.93125 0
M  V30 8762 H 803.499 0.562576 0.502021 0
M  V30 8763 H 806.15 1.72713 0.619863 0
M  V30 8764 H 804.532 2.38143 3.16392 0
M  V30 8765 H 805.706 4.45125 1.19166 0
M  V30 8766 H 804.021 3.97854 1.22887 0
M  V30 8767 H 806.618 3.5706 3.9801 0
M  V30 8768 H 806.961 1.87875 3.71495 0
M  V30 8769 H 807.494 3.0817 2.51547 0
M  V30 8770 H 804.233 6.07866 2.45315 0
M  V30 8771 H 803.753 4.80172 3.59437 0
M  V30 8772 H 805.432 5.39562 3.57046 0
M  V30 8773 N 805.565 -0.825799 1.34232 0
M  V30 8774 C 806.814 -1.57686 1.2577 0
M  V30 8775 C 807.127 -1.94848 -0.171372 0
M  V30 8776 O 808.333 -2.68854 -0.378123 0
M  V30 8777 C 806.789 -2.84478 2.20454 0
M  V30 8778 C 806.397 -2.54629 3.68603 0
M  V30 8779 C 808.141 -3.625 2.20893 0
M  V30 8780 C 806.048 -3.77597 4.55164 0
M  V30 8781 H 804.978 -0.591809 0.467203 0
M  V30 8782 H 807.629 -0.909421 1.59379 0
M  V30 8783 H 806.011 -3.52832 1.79793 0
M  V30 8784 H 807.185 -1.94404 4.17784 0
M  V30 8785 H 805.5 -1.89888 3.70582 0
M  V30 8786 H 808.097 -4.538 2.82789 0
M  V30 8787 H 808.44 -3.98404 1.20746 0
M  V30 8788 H 808.973 -3.01086 2.59985 0
M  V30 8789 H 805.712 -3.46815 5.56237 0
M  V30 8790 H 805.232 -4.37116 4.10719 0
M  V30 8791 H 806.911 -4.45039 4.69627 0
M  V30 8792 N 807.043 -1.17915 -1.04565 0
M  V30 8793 C 808.29 -0.971424 -1.77678 0
M  V30 8794 C 808.618 0.499401 -1.87979 0
M  V30 8795 O 807.873 1.38695 -1.38066 0
M  V30 8796 C 808.172 -1.56528 -3.213 0
M  V30 8797 C 807.838 -3.06138 -3.31044 0
M  V30 8798 C 806.5 -3.46974 -3.33411 0
M  V30 8799 C 808.852 -4.02151 -3.31548 0
M  V30 8800 C 806.18 -4.82406 -3.33918 0
M  V30 8801 C 808.532 -5.37492 -3.33595 0
M  V30 8802 C 807.196 -5.77782 -3.34251 0
M  V30 8803 H 806.466 -0.355469 -0.650171 0
M  V30 8804 H 809.113 -1.46902 -1.22849 0
M  V30 8805 H 807.418 -0.98955 -3.79098 0
M  V30 8806 H 809.115 -1.38003 -3.76505 0
M  V30 8807 H 805.705 -2.73589 -3.29919 0
M  V30 8808 H 809.889 -3.71656 -3.28916 0
M  V30 8809 H 805.145 -5.12927 -3.3274 0
M  V30 8810 H 809.319 -6.1166 -3.32934 0
M  V30 8811 H 806.946 -6.82702 -3.34397 0
M  V30 8812 N 808.521 1.23394 -0.980386 0
M  V30 8813 C 809.769 1.91431 -0.647978 0
M  V30 8814 C 810.09 1.76871 0.821066 0
M  V30 8815 O 809.36 1.14808 1.58732 0
M  V30 8816 H 807.94 0.708516 -0.236673 0
M  V30 8817 H 810.602 1.50019 -1.2442 0
M  V30 8818 H 809.698 2.98854 -0.899592 0
M  V30 8819 N 809.999 0.752036 1.385 0
M  V30 8820 C 811.248 0.304294 1.99391 0
M  V30 8821 C 811.561 -1.11982 1.60373 0
M  V30 8822 O 812.767 -1.66795 2.14223 0
M  V30 8823 C 811.223 0.493101 3.56506 0
M  V30 8824 C 810.831 1.9262 4.04477 0
M  V30 8825 C 812.575 0.107994 4.24363 0
M  V30 8826 C 810.482 2.06365 5.54227 0
M  V30 8827 H 809.412 0.110024 0.745929 0
M  V30 8828 H 812.063 0.928355 1.58284 0
M  V30 8829 H 810.445 -0.20012 3.95494 0
M  V30 8830 H 811.619 2.65276 3.76783 0
M  V30 8831 H 809.934 2.26608 3.49339 0
M  V30 8832 H 812.531 0.189474 5.34364 0
M  V30 8833 H 812.874 -0.939165 4.05568 0
M  V30 8834 H 813.407 0.753011 3.90608 0
M  V30 8835 H 810.146 3.0933 5.77923 0
M  V30 8836 H 809.666 1.38167 5.83669 0
M  V30 8837 H 811.345 1.85286 6.19902 0
M  V30 8838 N 811.477 -1.49425 0.500989 0
M  V30 8839 C 812.717 -2.04357 -0.0419004 0
M  V30 8840 C 813.081 -1.37236 -1.34277 0
M  V30 8841 O 814.282 -1.82889 -1.9699 0
M  V30 8842 C 812.553 -3.56889 -0.19112 0
M  V30 8843 S 814.112 -4.33369 -0.688259 0
M  V30 8844 H 810.93 -0.710998 -0.00177796 0
M  V30 8845 H 813.532 -1.83479 0.674953 0
M  V30 8846 H 812.236 -4.03283 0.760964 0
M  V30 8847 H 811.767 -3.82171 -0.933214 0
M  V30 8848 H 813.782 -4.55961 -1.9574 0
M  V30 8849 N 812.955 -0.234822 -1.55841 0
M  V30 8850 C 813.885 0.664217 -2.23854 0
M  V30 8851 C 814.866 1.19076 -1.2147 0
M  V30 8852 O 816.051 1.23232 -1.50091 0
M  V30 8853 C 813.181 1.86666 -2.9287 0
M  V30 8854 C 812.135 1.47341 -4.01839 0
M  V30 8855 C 811.461 2.75571 -4.58219 0
M  V30 8856 C 812.761 0.653479 -5.18196 0
M  V30 8857 H 814.455 0.0971213 -2.99242 0
M  V30 8858 H 812.001 0.0452724 -1.43929 0
M  V30 8859 H 813.954 2.50116 -3.39146 0
M  V30 8860 H 812.678 2.45894 -2.1495 0
M  V30 8861 H 811.337 0.862314 -3.56314 0
M  V30 8862 H 810.985 3.32971 -3.77014 0
M  V30 8863 H 810.685 2.49987 -5.31771 0
M  V30 8864 H 812.209 3.39939 -5.07221 0
M  V30 8865 H 813.623 1.19198 -5.60771 0
M  V30 8866 H 812.02 0.494188 -5.98062 0
M  V30 8867 H 813.09 -0.337004 -4.83728 0
M  V30 8868 N 814.433 1.57553 0.0384317 0
M  V30 8869 C 815.681 1.88468 0.729672 0
M  V30 8870 C 816.002 0.831302 1.76393 0
M  V30 8871 O 815.272 -0.13622 1.95426 0
M  V30 8872 H 813.852 0.695529 0.272485 0
M  V30 8873 H 816.514 1.94899 0.0066032 0
M  V30 8874 H 815.61 2.8705 1.22511 0
M  V30 8875 N 815.911 -0.310526 1.54511 0
M  V30 8876 C 816.859 -1.40272 1.85544 0
M  V30 8877 C 817.853 -1.52941 0.728377 0
M  V30 8878 O 819.059 -1.55172 0.912234 0
M  V30 8879 H 815.434 -0.468355 0.588343 0
M  V30 8880 H 817.405 -1.11329 2.76855 0
M  V30 8881 C 816.154 -2.76279 2.11105 0
M  V30 8882 H 815.477 -2.67308 2.97298 0
M  V30 8883 H 816.917 -3.51736 2.36765 0
M  V30 8884 C 815.376 -3.24472 0.906618 0
M  V30 8885 O 815.906 -4.01514 0.122358 0
M  V30 8886 N 814.112 -2.81676 0.714632 0
M  V30 8887 H 813.659 -2.19143 1.35404 0
M  V30 8888 H 813.617 -3.14272 -0.089703 0
M  V30 8889 N 817.389 -1.46805 -0.573248 0
M  V30 8890 C 818.321 -1.54127 -1.6964 0
M  V30 8891 C 819.334 -0.428778 -1.57052 0
M  V30 8892 O 820.523 -0.697612 -1.64303 0
M  V30 8893 C 817.623 -1.41438 -3.07975 0
M  V30 8894 C 816.796 -2.66974 -3.46474 0
M  V30 8895 C 815.855 -2.48349 -4.63906 0
M  V30 8896 O 814.881 -3.22109 -4.69292 0
M  V30 8897 N 816.083 -1.55129 -5.59388 0
M  V30 8898 H 818.848 -2.50971 -1.6381 0
M  V30 8899 H 816.409 -1.42981 -0.759479 0
M  V30 8900 H 818.401 -1.26737 -3.84343 0
M  V30 8901 H 816.971 -0.527388 -3.08119 0
M  V30 8902 H 816.191 -2.9655 -2.59715 0
M  V30 8903 H 817.479 -3.50347 -3.68964 0
M  V30 8904 H 816.877 -0.94324 -5.57781 0
M  V30 8905 H 815.434 -1.46387 -6.35149 0
M  V30 8906 N 818.867 0.818669 -1.34668 0
M  V30 8907 C 819.797 1.94468 -1.29245 0
M  V30 8908 C 820.778 1.69257 -0.169101 0
M  V30 8909 O 821.963 1.90794 -0.362143 0
M  V30 8910 C 819.093 3.31001 -1.05145 0
M  V30 8911 C 818.047 3.70663 -2.13992 0
M  V30 8912 C 817.373 5.05226 -1.75074 0
M  V30 8913 C 818.673 3.82312 -3.55858 0
M  V30 8914 H 820.367 1.99263 -2.2346 0
M  V30 8915 H 817.913 0.957304 -1.07572 0
M  V30 8916 H 819.866 4.09364 -0.999949 0
M  V30 8917 H 818.59 3.26517 -0.0737312 0
M  V30 8918 H 817.249 2.94578 -2.18219 0
M  V30 8919 H 816.897 4.97233 -0.759518 0
M  V30 8920 H 816.597 5.32734 -2.47928 0
M  V30 8921 H 818.121 5.86042 -1.71427 0
M  V30 8922 H 819.535 4.50935 -3.5402 0
M  V30 8923 H 817.932 4.21278 -4.2737 0
M  V30 8924 H 819.002 2.84193 -3.9289 0
M  V30 8925 N 820.346 1.18468 1.03938 0
M  V30 8926 C 821.276 0.936389 2.13902 0
M  V30 8927 C 822.257 -0.126381 1.6963 0
M  V30 8928 O 823.442 0.0264757 1.94182 0
M  V30 8929 C 820.572 0.462729 3.44204 0
M  V30 8930 C 819.526 1.46613 4.02105 0
M  V30 8931 C 818.852 0.84994 5.27902 0
M  V30 8932 C 820.152 2.84323 4.3813 0
M  V30 8933 H 821.846 1.85602 2.3493 0
M  V30 8934 H 819.392 0.893806 1.12903 0
M  V30 8935 H 821.345 0.276382 4.20493 0
M  V30 8936 H 820.069 -0.492477 3.22866 0
M  V30 8937 H 818.728 1.63944 3.27899 0
M  V30 8938 H 818.376 -0.112493 5.02874 0
M  V30 8939 H 818.076 1.51988 5.67603 0
M  V30 8940 H 819.6 0.674152 6.06867 0
M  V30 8941 H 821.014 2.70636 5.054 0
M  V30 8942 H 819.411 3.48012 4.88884 0
M  V30 8943 H 820.481 3.37776 3.47901 0
M  V30 8944 N 821.824 -1.22873 0.986916 0
M  V30 8945 C 823.072 -1.91084 0.658121 0
M  V30 8946 C 823.393 -1.77304 -0.811675 0
M  V30 8947 O 822.663 -1.15649 -1.58121 0
M  V30 8948 H 821.243 -0.707251 0.240427 0
M  V30 8949 H 823.905 -1.49357 1.25213 0
M  V30 8950 H 823.001 -2.98373 0.915428 0
M  V30 8951 N 823.302 -0.75937 -1.38099 0
M  V30 8952 C 824.551 -0.314864 -1.99227 0
M  V30 8953 C 824.864 1.1113 -1.60964 0
M  V30 8954 O 826.07 1.65657 -2.15105 0
M  V30 8955 C 824.526 -0.512001 -3.56239 0
M  V30 8956 C 824.134 -1.94762 -4.0345 0
M  V30 8957 C 825.878 -0.130497 -4.24299 0
M  V30 8958 C 823.785 -2.09301 -5.53125 0
M  V30 8959 H 822.715 -0.113978 -0.745335 0
M  V30 8960 H 825.366 -0.936736 -1.57789 0
M  V30 8961 H 823.748 0.179144 -3.95595 0
M  V30 8962 H 824.922 -2.67271 -3.75371 0
M  V30 8963 H 823.237 -2.28457 -3.48133 0
M  V30 8964 H 825.834 -0.21781 -5.34256 0
M  V30 8965 H 826.177 0.917644 -4.0606 0
M  V30 8966 H 826.71 -0.773716 -3.90203 0
M  V30 8967 H 823.449 -3.1239 -5.76275 0
M  V30 8968 H 822.969 -1.41261 -5.82928 0
M  V30 8969 H 824.648 -1.88571 -6.1891 0
M  V30 8970 N 824.78 1.49157 -0.508906 0
M  V30 8971 C 826.005 2.07376 0.0315182 0
M  V30 8972 C 826.43 1.36575 1.2934 0
M  V30 8973 O 825.788 0.424963 1.76249 0
M  V30 8974 C 825.836 3.59661 0.260118 0
M  V30 8975 O 824.94 3.90255 1.33322 0
M  V30 8976 H 824.281 0.663334 -0.029739 0
M  V30 8977 H 826.811 1.91857 -0.710791 0
M  V30 8978 H 826.821 4.05056 0.489225 0
M  V30 8979 H 825.496 4.10601 -0.661794 0
M  V30 8980 H 824.073 3.56661 1.08844 0
M  V30 8981 N 826.258 0.243083 1.55714 0
M  V30 8982 C 827.188 -0.652336 2.24203 0
M  V30 8983 C 828.169 -1.1843 1.221 0
M  V30 8984 O 829.354 -1.22435 1.50743 0
M  V30 8985 C 826.484 -1.85111 2.93856 0
M  V30 8986 C 825.438 -1.45208 4.02615 0
M  V30 8987 C 824.764 -2.73137 4.59674 0
M  V30 8988 C 826.064 -0.625988 5.18535 0
M  V30 8989 H 827.758 -0.0812504 2.9929 0
M  V30 8990 H 825.304 -0.0376388 1.43951 0
M  V30 8991 H 827.257 -2.48314 3.40468 0
M  V30 8992 H 825.981 -2.44751 2.16251 0
M  V30 8993 H 824.64 -0.843406 3.56766 0
M  V30 8994 H 824.288 -3.30967 3.78774 0
M  V30 8995 H 823.988 -2.47163 5.33089 0
M  V30 8996 H 825.512 -3.37245 5.09017 0
M  V30 8997 H 826.926 -1.16223 5.61396 0
M  V30 8998 H 825.323 -0.462465 5.98315 0
M  V30 8999 H 826.393 0.362652 4.83542 0
M  V30 9000 N 827.736 -1.57571 -0.0300757 0
M  V30 9001 C 828.984 -1.88852 -0.719666 0
M  V30 9002 C 829.305 -0.840645 -1.75949 0
M  V30 9003 O 828.575 0.125854 -1.95495 0
M  V30 9004 H 827.155 -0.696965 -0.268792 0
M  V30 9005 H 829.817 -1.949 0.00373285 0
M  V30 9006 H 828.913 -2.87695 -1.20987 0
M  V30 9007 N 829.214 0.302327 -1.54673 0
M  V30 9008 C 830.454 1.04568 -1.75627 0
M  V30 9009 C 830.818 1.84535 -0.530175 0
M  V30 9010 O 832.019 2.61613 -0.61743 0
M  V30 9011 C 830.29 1.92873 -3.0089 0
M  V30 9012 S 831.849 2.73872 -3.4284 0
M  V30 9013 H 828.667 0.352682 -0.617362 0
M  V30 9014 H 831.269 0.319239 -1.92876 0
M  V30 9015 H 829.973 1.32998 -3.88252 0
M  V30 9016 H 829.504 2.69887 -2.86225 0
M  V30 9017 H 831.519 3.95386 -2.99807 0
M  V30 9018 N 830.692 1.47107 0.565454 0
M  V30 9019 C 831.969 1.43787 1.32607 0
M  V30 9020 C 832.349 0.130428 2.10697 0
M  V30 9021 O 831.697 -0.888086 2.10536 0
M  V30 9022 C 831.907 2.67833 2.23755 0
M  V30 9023 C 833.255 3.14704 2.85037 0
M  V30 9024 O 834.279 2.68503 2.34061 0
M  V30 9025 O 833.138 3.95002 3.77671 0
M  V30 9026 H 830.232 0.572623 0.596684 0
M  V30 9027 H 832.778 1.59296 0.58504 0
M  V30 9028 H 831.55 3.54532 1.65597 0
M  V30 9029 H 831.173 2.54869 3.05168 0
M  V30 9030 N 832.17 -0.811516 1.35101 0
M  V30 9031 C 833.398 -1.59981 1.31201 0
M  V30 9032 C 833.813 -1.8847 -0.111552 0
M  V30 9033 O 833.17 -1.48414 -1.06205 0
M  V30 9034 C 833.221 -2.934 2.11184 0
M  V30 9035 O 832.942 -2.66148 3.4799 0
M  V30 9036 C 834.443 -3.87776 2.14813 0
M  V30 9037 H 831.663 -0.496921 0.450899 0
M  V30 9038 H 834.207 -1.00886 1.77883 0
M  V30 9039 H 832.362 -3.49022 1.68115 0
M  V30 9040 H 832.776 -3.51301 3.89471 0
M  V30 9041 H 834.25 -4.7852 2.75178 0
M  V30 9042 H 834.727 -4.23997 1.14556 0
M  V30 9043 H 835.333 -3.3809 2.58022 0
M  V30 9044 N 833.648 -1.19017 -1.03309 0
M  V30 9045 C 834.878 -1.01387 -1.80012 0
M  V30 9046 C 835.286 0.440655 -1.83997 0
M  V30 9047 O 834.629 1.31786 -1.27977 0
M  V30 9048 C 834.691 -1.50171 -3.26633 0
M  V30 9049 C 834.355 -2.98213 -3.46292 0
M  V30 9050 C 835.352 -3.96009 -3.36857 0
M  V30 9051 C 833.037 -3.36812 -3.72643 0
M  V30 9052 C 835.031 -5.30399 -3.5349 0
M  V30 9053 C 832.718 -4.71363 -3.88922 0
M  V30 9054 C 833.716 -5.67966 -3.79347 0
M  V30 9055 O 833.404 -7.00079 -3.95151 0
M  V30 9056 H 833.136 -0.357899 -0.573484 0
M  V30 9057 H 835.69 -1.58171 -1.31039 0
M  V30 9058 H 833.92 -0.877586 -3.7661 0
M  V30 9059 H 835.609 -1.28814 -3.84918 0
M  V30 9060 H 836.375 -3.67534 -3.16455 0
M  V30 9061 H 832.254 -2.62175 -3.7919 0
M  V30 9062 H 835.798 -6.05786 -3.45933 0
M  V30 9063 H 831.695 -4.99536 -4.0882 0
M  V30 9064 H 832.463 -7.07092 -4.12266 0
M  V30 9065 N 835.127 1.22348 -0.993418 0
M  V30 9066 C 836.074 2.24294 -0.544118 0
M  V30 9067 C 837.044 1.60602 0.42381 0
M  V30 9068 O 838.229 1.87952 0.328453 0
M  V30 9069 C 835.369 3.44837 0.134578 0
M  V30 9070 C 834.482 4.23043 -0.875151 0
M  V30 9071 C 833.617 5.30928 -0.169919 0
M  V30 9072 C 832.656 6.00853 -1.16798 0
M  V30 9073 N 831.793 7.00381 -0.491021 0
M  V30 9074 H 836.633 2.6209 -1.4182 0
M  V30 9075 H 834.17 1.2881 -0.710384 0
M  V30 9076 H 836.128 4.13625 0.544998 0
M  V30 9077 H 834.758 3.07804 0.972446 0
M  V30 9078 H 833.81 3.53546 -1.40389 0
M  V30 9079 H 835.122 4.71237 -1.63516 0
M  V30 9080 H 834.276 6.05972 0.297205 0
M  V30 9081 H 833.015 4.8371 0.622586 0
M  V30 9082 H 832.02 5.24591 -1.64573 0
M  V30 9083 H 833.245 6.50159 -1.96137 0
M  V30 9084 H 831.191 6.55393 0.282037 0
M  V30 9085 H 831.108 7.46584 -1.18947 0
M  V30 9086 H 832.376 7.79486 -0.0467169 0
M  V30 9087 N 836.605 0.766683 1.37694 0
M  V30 9088 C 837.538 0.0959288 2.27998 0
M  V30 9089 C 838.516 -0.714493 1.46061 0
M  V30 9090 O 839.7 -0.690337 1.75404 0
M  V30 9091 C 836.827 -0.87057 3.27321 0
M  V30 9092 C 835.873 -0.144771 4.26254 0
M  V30 9093 S 836.706 1.16365 5.22704 0
M  V30 9094 C 837.862 0.200564 6.25579 0
M  V30 9095 H 838.095 0.861666 2.84539 0
M  V30 9096 H 835.628 0.559845 1.43893 0
M  V30 9097 H 837.586 -1.42282 3.85053 0
M  V30 9098 H 836.247 -1.60938 2.69737 0
M  V30 9099 H 835.44 -0.877259 4.96307 0
M  V30 9100 H 835.042 0.33633 3.72485 0
M  V30 9101 H 837.334 -0.628833 6.74575 0
M  V30 9102 H 838.277 0.869117 7.02746 0
M  V30 9103 H 838.685 -0.185972 5.64194 0
M  V30 9104 N 838.083 -1.48885 0.516809 0
M  V30 9105 C 839.03 -2.29408 -0.253125 0
M  V30 9106 C 840 -1.36533 -0.945935 0
M  V30 9107 O 841.185 -1.65495 -0.949527 0
M  V30 9108 C 838.325 -3.19592 -1.30211 0
M  V30 9109 C 837.438 -4.27535 -0.61948 0
M  V30 9110 C 836.573 -5.04916 -1.65026 0
M  V30 9111 C 835.612 -6.04677 -0.950368 0
M  V30 9112 N 834.749 -6.75164 -1.92608 0
M  V30 9113 H 839.589 -2.94738 0.439744 0
M  V30 9114 H 837.126 -1.45311 0.2287 0
M  V30 9115 H 839.084 -3.70267 -1.92245 0
M  V30 9116 H 837.714 -2.56213 -1.96353 0
M  V30 9117 H 836.766 -3.80228 0.114505 0
M  V30 9118 H 838.078 -4.98752 -0.0693016 0
M  V30 9119 H 837.232 -5.59539 -2.34523 0
M  V30 9120 H 835.971 -4.33508 -2.23432 0
M  V30 9121 H 834.976 -5.4927 -0.241252 0
M  V30 9122 H 836.201 -6.78077 -0.372599 0
M  V30 9123 H 834.147 -6.06517 -2.49946 0
M  V30 9124 H 834.064 -7.4241 -1.42699 0
M  V30 9125 H 835.332 -7.34384 -2.61345 0
M  V30 9126 N 839.561 -0.251338 -1.55583 0
M  V30 9127 C 840.791 0.375642 -2.03156 0
M  V30 9128 C 841.199 1.51761 -1.12983 0
M  V30 9129 O 840.542 1.83184 -0.13757 0
M  V30 9130 C 840.604 0.941001 -3.46966 0
M  V30 9131 C 840.268 -0.0692886 -4.56947 0
M  V30 9132 C 841.265 -0.88041 -5.12391 0
M  V30 9133 C 838.95 -0.196661 -5.01915 0
M  V30 9134 C 840.944 -1.80532 -6.11299 0
M  V30 9135 C 838.631 -1.12507 -6.00654 0
M  V30 9136 C 839.629 -1.92792 -6.55225 0
M  V30 9137 O 839.317 -2.84067 -7.52038 0
M  V30 9138 H 839.049 0.0928836 -0.669588 0
M  V30 9139 H 841.603 -0.374115 -2.01964 0
M  V30 9140 H 839.833 1.7404 -3.45322 0
M  V30 9141 H 841.522 1.47853 -3.78014 0
M  V30 9142 H 842.288 -0.792615 -4.78479 0
M  V30 9143 H 838.167 0.418187 -4.59099 0
M  V30 9144 H 841.711 -2.43239 -6.5382 0
M  V30 9145 H 837.608 -1.21377 -6.33986 0
M  V30 9146 H 838.376 -2.78479 -7.6967 0
M  V30 9147 N 841.039 1.57585 0.0217189 0
M  V30 9148 C 842.287 1.89231 0.709641 0
M  V30 9149 C 842.608 0.849964 1.75501 0
M  V30 9150 O 841.878 -0.115485 1.95559 0
M  V30 9151 H 840.458 0.69838 0.265092 0
M  V30 9152 H 843.12 1.94895 -0.0140688 0
M  V30 9153 H 842.216 2.88333 1.19459 0
M  V30 9154 N 842.517 -0.29412 1.54831 0
M  V30 9155 C 843.465 -1.38296 1.87021 0
M  V30 9156 C 844.459 -1.5216 0.744557 0
M  V30 9157 O 845.665 -1.54196 0.92864 0
M  V30 9158 H 842.04 -0.462088 0.593278 0
M  V30 9159 H 844.011 -1.08386 2.7802 0
M  V30 9160 C 842.76 -2.74024 2.14023 0
M  V30 9161 H 842.083 -2.6414 3.00117 0
M  V30 9162 H 843.523 -3.49205 2.40482 0
M  V30 9163 C 841.982 -3.23492 0.940982 0
M  V30 9164 O 842.512 -4.01361 0.164937 0
M  V30 9165 N 840.718 -2.80902 0.744467 0
M  V30 9166 H 840.265 -2.17694 1.37721 0
M  V30 9167 H 840.223 -3.14349 -0.0563652 0
M  V30 9168 N 843.995 -1.47404 -0.557645 0
M  V30 9169 C 845.411 -1.32913 -0.88353 0
M  V30 9170 C 845.611 -0.31929 -1.98954 0
M  V30 9171 O 844.667 0.26934 -2.51059 0
M  V30 9172 C 845.98 -2.72229 -1.27718 0
M  V30 9173 C 847.528 -2.8051 -1.38863 0
M  V30 9174 C 848.003 -4.20466 -1.81583 0
M  V30 9175 N 849.494 -4.23005 -1.88735 0
M  V30 9176 C 850.229 -5.2821 -2.23118 0
M  V30 9177 N 849.725 -6.4372 -2.56117 0
M  V30 9178 N 851.518 -5.15588 -2.23888 0
M  V30 9179 H 843.669 -2.11698 0.172557 0
M  V30 9180 H 845.932 -0.947889 0.0145334 0
M  V30 9181 H 845.638 -3.47556 -0.538329 0
M  V30 9182 H 845.512 -3.03971 -2.23342 0
M  V30 9183 H 847.899 -2.05457 -2.11829 0
M  V30 9184 H 847.98 -2.52423 -0.414274 0
M  V30 9185 H 847.624 -4.96025 -1.09187 0
M  V30 9186 H 847.554 -4.45977 -2.80021 0
M  V30 9187 H 850.045 -3.39674 -1.65621 0
M  V30 9188 H 850.358 -7.19754 -2.81378 0
M  V30 9189 H 848.703 -6.47041 -2.53698 0
M  V30 9190 H 851.894 -4.24374 -1.97546 0
M  V30 9191 H 852.067 -5.97685 -2.50353 0
M  V30 9192 N 845.473 0.80434 -1.35529 0
M  V30 9193 C 846.721 1.55845 -1.28673 0
M  V30 9194 C 847.042 1.94511 0.137976 0
M  V30 9195 O 846.312 1.63775 1.07492 0
M  V30 9196 H 844.892 0.577931 -0.473291 0
M  V30 9197 H 847.554 0.959293 -1.69657 0
M  V30 9198 H 846.65 2.47285 -1.90411 0
M  V30 9199 N 846.951 1.19563 1.02676 0
M  V30 9200 C 848.197 1.00105 1.76371 0
M  V30 9201 C 848.53 -0.466823 1.88506 0
M  V30 9202 O 847.805 -1.34665 1.40341 0
M  V30 9203 C 848.088 1.67321 3.18866 0
M  V30 9204 C 847.941 3.21486 3.1459 0
M  V30 9205 C 849.26 1.39794 4.17308 0
M  V30 9206 H 846.379 0.365075 0.640226 0
M  V30 9207 H 849.021 1.47433 1.19848 0
M  V30 9208 H 847.171 1.27081 3.67128 0
M  V30 9209 H 848.843 3.70953 2.7421 0
M  V30 9210 H 847.086 3.5292 2.52249 0
M  V30 9211 H 847.757 3.63665 4.15273 0
M  V30 9212 H 850.233 1.74685 3.77657 0
M  V30 9213 H 849.109 1.89371 5.15199 0
M  V30 9214 H 849.37 0.323505 4.40915 0
M  V30 9215 N 848.429 -1.21819 0.999893 0
M  V30 9216 C 849.377 -2.26027 0.549047 0
M  V30 9217 C 850.371 -1.64516 -0.403826 0
M  V30 9218 O 851.577 -1.77878 -0.275578 0
M  V30 9219 H 847.952 -0.734958 0.159185 0
M  V30 9220 H 849.923 -2.61398 1.43923 0
M  V30 9221 C 848.672 -3.47514 -0.11369 0
M  V30 9222 H 847.995 -3.95112 0.610482 0
M  V30 9223 H 849.435 -4.22179 -0.3925 0
M  V30 9224 C 847.894 -3.08614 -1.35126 0
M  V30 9225 O 848.424 -3.1864 -2.44605 0
M  V30 9226 N 846.63 -2.63327 -1.22911 0
M  V30 9227 H 846.177 -2.55369 -0.338288 0
M  V30 9228 H 846.135 -2.37668 -2.05818 0
M  V30 9229 N 849.908 -0.773975 -1.37286 0
M  V30 9230 C 850.84 -0.119938 -2.28886 0
M  V30 9231 C 851.853 0.661822 -1.48741 0
M  V30 9232 O 853.042 0.499548 -1.71367 0
M  V30 9233 C 850.142 0.853703 -3.27971 0
M  V30 9234 C 849.315 0.125286 -4.37221 0
M  V30 9235 C 848.374 1.01261 -5.16365 0
M  V30 9236 O 847.4 0.475565 -5.6721 0
M  V30 9237 N 848.602 2.33864 -5.31308 0
M  V30 9238 H 851.367 -0.906702 -2.85655 0
M  V30 9239 H 848.928 -0.626519 -1.49286 0
M  V30 9240 H 850.92 1.4508 -3.77801 0
M  V30 9241 H 849.49 1.54142 -2.71954 0
M  V30 9242 H 848.71 -0.652742 -3.88758 0
M  V30 9243 H 849.998 -0.377959 -5.07394 0
M  V30 9244 H 849.396 2.79929 -4.91585 0
M  V30 9245 H 847.953 2.88575 -5.84438 0
M  V30 9246 N 851.386 1.48609 -0.524698 0
M  V30 9247 C 852.797 1.86516 -0.0828846 0
M  V30 9248 C 853.148 1.43478 1.33822 0
M  V30 9249 O 852.273 0.823139 2.00133 0
M  V30 9250 C 852.868 3.38495 -0.143639 0
M  V30 9251 C 851.427 3.75615 0.242951 0
M  V30 9252 C 850.574 2.72649 -0.505747 0
M  V30 9253 H 853.525 1.40589 -0.736233 0
M  V30 9254 H 853.546 3.74977 0.645955 0
M  V30 9255 H 853.058 3.69789 -1.17805 0
M  V30 9256 H 851.159 3.49935 1.27971 0
M  V30 9257 H 851.272 4.7901 -0.0929834 0
M  V30 9258 H 849.636 2.54656 0.0473482 0
M  V30 9259 H 850.419 3.06786 -1.54069 0
M  V30 9260 N 852.864 0.259585 1.55447 0
M  V30 9261 C 854.11 -0.362143 1.9954 0
M  V30 9262 C 854.443 -1.5666 1.14767 0
M  V30 9263 O 853.718 -1.93319 0.214025 0
M  V30 9264 C 854.001 -0.759588 3.51998 0
M  V30 9265 C 853.854 0.451134 4.47532 0
M  V30 9266 C 855.173 -1.60186 4.09913 0
M  V30 9267 H 852.292 -0.130157 0.725416 0
M  V30 9268 H 854.934 0.363431 1.86492 0
M  V30 9269 H 853.084 -1.3778 3.63248 0
M  V30 9270 H 854.756 1.08965 4.48246 0
M  V30 9271 H 852.999 1.092 4.19831 0
M  V30 9272 H 853.67 0.129518 5.51848 0
M  V30 9273 H 856.146 -1.0799 4.01842 0
M  V30 9274 H 855.022 -1.84879 5.16828 0
M  V30 9275 H 855.283 -2.57787 3.59163 0
M  V30 9276 N 854.342 -1.57594 -0.0133615 0
M  V30 9277 C 855.591 -1.8916 -0.700103 0
M  V30 9278 C 855.904 -0.860147 -1.75673 0
M  V30 9279 O 857.11 -1.06556 -2.49716 0
M  V30 9280 C 855.566 -3.35742 -1.29635 0
M  V30 9281 C 855.174 -4.47154 -0.275249 0
M  V30 9282 C 856.918 -3.76436 -1.96205 0
M  V30 9283 C 854.825 -5.84805 -0.880726 0
M  V30 9284 H 853.755 -0.705805 -0.265247 0
M  V30 9285 H 856.406 -1.83445 0.044993 0
M  V30 9286 H 854.788 -3.36252 -2.09167 0
M  V30 9287 H 855.962 -4.58139 0.494506 0
M  V30 9288 H 854.277 -4.15394 0.289256 0
M  V30 9289 H 856.874 -4.76606 -2.42386 0
M  V30 9290 H 857.217 -3.09249 -2.78695 0
M  V30 9291 H 857.75 -3.78168 -1.23426 0
M  V30 9292 H 854.489 -6.55431 -0.0949013 0
M  V30 9293 H 854.009 -5.7751 -1.61995 0
M  V30 9294 H 855.688 -6.32038 -1.38338 0
M  V30 9295 N 855.82 0.285905 -1.54985 0
M  V30 9296 C 856.752 1.37505 -1.83371 0
M  V30 9297 C 857.765 1.46138 -0.717454 0
M  V30 9298 O 858.954 1.48186 -0.995142 0
M  V30 9299 C 856.054 2.7575 -1.97016 0
M  V30 9300 C 855.227 2.89866 -3.27561 0
M  V30 9301 C 854.286 4.08704 -3.31433 0
M  V30 9302 O 853.312 4.00073 -4.04883 0
M  V30 9303 N 854.514 5.20062 -2.57907 0
M  V30 9304 H 857.279 1.13505 -2.77375 0
M  V30 9305 H 854.84 0.476006 -1.54744 0
M  V30 9306 H 856.832 3.5352 -1.96991 0
M  V30 9307 H 855.402 2.9263 -1.09938 0
M  V30 9308 H 854.622 1.99085 -3.40234 0
M  V30 9309 H 855.91 2.96219 -4.13681 0
M  V30 9310 H 855.308 5.29958 -1.97891 0
M  V30 9311 H 853.865 5.96111 -2.63619 0
M  V30 9312 N 857.298 1.47698 0.54982 0
M  V30 9313 C 858.228 1.63622 1.66583 0
M  V30 9314 C 859.209 0.485477 1.63025 0
M  V30 9315 O 860.394 0.715692 1.80531 0
M  V30 9316 C 857.524 1.65721 3.05211 0
M  V30 9317 C 856.478 2.80097 3.2362 0
M  V30 9318 C 855.804 2.67272 4.63109 0
M  V30 9319 C 857.104 4.21612 3.08286 0
M  V30 9320 H 858.798 2.57049 1.53512 0
M  V30 9321 H 856.344 1.23705 0.737099 0
M  V30 9322 H 858.297 1.75451 3.83138 0
M  V30 9323 H 857.021 0.688593 3.19258 0
M  V30 9324 H 855.68 2.69889 2.48104 0
M  V30 9325 H 855.328 1.68422 4.73965 0
M  V30 9326 H 855.028 3.44008 4.76374 0
M  V30 9327 H 856.552 2.78942 5.43161 0
M  V30 9328 H 857.966 4.32758 3.76024 0
M  V30 9329 H 856.363 4.99193 3.33057 0
M  V30 9330 H 857.433 4.39462 2.04942 0
M  V30 9331 N 858.776 -0.797141 1.35954 0
M  V30 9332 C 860.022 -1.55698 1.29946 0
M  V30 9333 C 860.355 -1.93808 -0.123259 0
M  V30 9334 O 859.63 -1.62102 -1.07486 0
M  V30 9335 C 859.913 -2.83926 2.2149 0
M  V30 9336 C 859.766 -2.52232 3.72423 0
M  V30 9337 C 861.085 -3.85698 2.11955 0
M  V30 9338 H 858.204 -0.56488 0.47337 0
M  V30 9339 H 860.846 -0.916421 1.66438 0
M  V30 9340 H 858.996 -3.38588 1.905 0
M  V30 9341 H 860.668 -2.0368 4.13899 0
M  V30 9342 H 858.911 -1.85286 3.92239 0
M  V30 9343 H 859.582 -3.43782 4.31877 0
M  V30 9344 H 862.058 -3.40462 2.39218 0
M  V30 9345 H 860.934 -4.73182 2.78191 0
M  V30 9346 H 861.195 -4.28083 1.10442 0
M  V30 9347 N 860.254 -1.20106 -1.0204 0
M  V30 9348 C 861.531 -0.918029 -1.72718 0
M  V30 9349 C 861.911 0.574163 -2.03142 0
M  V30 9350 O 861.259 1.53476 -1.69285 0
M  V30 9351 C 861.469 -1.78698 -2.9978 0
M  V30 9352 C 862.817 -2.02648 -3.7312 0
M  V30 9353 O 863.841 -1.75919 -3.09727 0
M  V30 9354 O 862.7 -2.47767 -4.87107 0
M  V30 9355 H 859.794 -0.342904 -0.752559 0
M  V30 9356 H 862.34 -1.30961 -1.07923 0
M  V30 9357 H 861.112 -2.79757 -2.7359 0
M  V30 9358 H 860.735 -1.39522 -3.72316 0
M  V30 9359 N 861.732 1.21287 -1.00634 0
M  V30 9360 C 862.68 2.25733 -0.561026 0
M  V30 9361 C 863.674 1.64728 0.395095 0
M  V30 9362 O 864.88 1.78022 0.266141 0
M  V30 9363 H 861.255 0.734104 -0.163081 0
M  V30 9364 H 863.226 2.60631 -1.45307 0
M  V30 9365 C 861.975 3.47569 0.0952587 0
M  V30 9366 H 861.298 3.94782 -0.631427 0
M  V30 9367 H 862.738 4.22382 0.370105 0
M  V30 9368 C 861.197 3.09326 1.33488 0
M  V30 9369 O 861.727 3.19933 2.42912 0
M  V30 9370 N 859.933 2.63976 1.21512 0
M  V30 9371 H 859.48 2.55545 0.324741 0
M  V30 9372 H 859.438 2.38757 2.04555 0
M  V30 9373 N 863.21 0.781244 1.36873 0
M  V30 9374 C 864.459 0.34652 1.98701 0
M  V30 9375 C 864.772 -1.08555 1.62712 0
M  V30 9376 O 865.978 -1.62213 2.17713 0
M  V30 9377 C 864.434 0.568611 3.5538 0
M  V30 9378 C 864.042 2.01156 4.003 0
M  V30 9379 C 865.786 0.197983 4.24038 0
M  V30 9380 C 863.693 2.18074 5.49725 0
M  V30 9381 H 862.623 0.125821 0.743428 0
M  V30 9382 H 865.274 0.961721 1.56279 0
M  V30 9383 H 863.656 -0.116185 3.9583 0
M  V30 9384 H 864.83 2.73209 3.71071 0
M  V30 9385 H 863.145 2.33967 3.44454 0
M  V30 9386 H 865.742 0.302778 5.33842 0
M  V30 9387 H 866.085 -0.852927 4.07469 0
M  V30 9388 H 866.618 0.835696 3.88923 0
M  V30 9389 H 863.357 3.21519 5.71232 0
M  V30 9390 H 862.877 1.50517 5.80607 0
M  V30 9391 H 864.556 1.98393 6.15832 0
M  V30 9392 N 864.689 -1.48329 0.532571 0
M  V30 9393 C 865.929 -2.044 0.00145618 0
M  V30 9394 C 866.293 -1.40053 -1.31336 0
M  V30 9395 O 867.494 -1.87026 -1.93066 0
M  V30 9396 C 865.765 -3.57214 -0.115376 0
M  V30 9397 S 867.324 -4.34731 -0.59618 0
M  V30 9398 H 864.142 -0.710876 0.0133038 0
M  V30 9399 H 866.744 -1.82006 0.71372 0
M  V30 9400 H 865.448 -4.01579 0.846335 0
M  V30 9401 H 864.979 -3.84065 -0.85194 0
M  V30 9402 H 866.994 -4.6001 -1.86025 0
M  V30 9403 N 866.167 -0.267825 -1.55308 0
M  V30 9404 C 867.397 0.354073 -2.03543 0
M  V30 9405 C 867.805 1.50554 -1.14586 0
M  V30 9406 O 867.148 1.83028 -0.156991 0
M  V30 9407 C 867.21 0.904148 -3.47945 0
M  V30 9408 C 866.874 -0.11775 -4.56848 0
M  V30 9409 C 867.871 -0.934707 -5.11429 0
M  V30 9410 C 865.556 -0.249885 -5.01678 0
M  V30 9411 C 867.55 -1.87005 -6.0935 0
M  V30 9412 C 865.237 -1.18872 -5.99427 0
M  V30 9413 C 866.235 -1.99731 -6.53144 0
M  V30 9414 O 865.923 -2.92028 -7.48983 0
M  V30 9415 H 865.655 0.0857765 -0.670536 0
M  V30 9416 H 868.209 -0.395515 -2.01556 0
M  V30 9417 H 866.439 1.70368 -3.47148 0
M  V30 9418 H 868.128 1.43835 -3.79561 0
M  V30 9419 H 868.894 -0.84332 -4.77612 0
M  V30 9420 H 864.773 0.369469 -4.59517 0
M  V30 9421 H 868.317 -2.5016 -6.51203 0
M  V30 9422 H 864.214 -1.28095 -6.32663 0
M  V30 9423 H 864.982 -2.86627 -7.66673 0
M  V30 9424 N 867.645 1.57599 0.00500368 0
M  V30 9425 C 868.894 1.89528 0.690061 0
M  V30 9426 C 869.207 0.869451 1.75214 0
M  V30 9427 O 870.413 1.07879 2.49147 0
M  V30 9428 C 868.869 3.36425 1.27852 0
M  V30 9429 C 868.477 4.47293 0.251531 0
M  V30 9430 C 870.221 3.77471 1.94206 0
M  V30 9431 C 868.128 5.85264 0.8497 0
M  V30 9432 H 867.058 0.707201 0.2615 0
M  V30 9433 H 869.709 1.83418 -0.0547209 0
M  V30 9434 H 868.091 3.37356 2.07381 0
M  V30 9435 H 869.265 4.5787 -0.518796 0
M  V30 9436 H 867.58 4.15235 -0.311281 0
M  V30 9437 H 870.177 4.77884 2.39855 0
M  V30 9438 H 870.52 3.10722 2.77051 0
M  V30 9439 H 871.053 3.78817 1.21419 0
M  V30 9440 H 867.792 6.55472 0.0601408 0
M  V30 9441 H 867.312 5.78361 1.5893 0
M  V30 9442 H 868.991 6.32762 1.34984 0
M  V30 9443 N 869.123 -0.277682 1.55134 0
M  V30 9444 C 870.351 -1.02826 1.7954 0
M  V30 9445 C 870.766 -1.80105 0.566373 0
M  V30 9446 O 870.123 -1.76491 -0.464448 0
M  V30 9447 C 870.174 -1.99053 3.01762 0
M  V30 9448 O 869.895 -1.24906 4.19917 0
M  V30 9449 C 871.396 -2.85961 3.38735 0
M  V30 9450 H 868.616 -0.303958 0.598206 0
M  V30 9451 H 871.16 -0.309884 2.02138 0
M  V30 9452 H 869.315 -2.66359 2.81303 0
M  V30 9453 H 869.729 -1.89725 4.88983 0
M  V30 9454 H 871.203 -3.49286 4.27438 0
M  V30 9455 H 871.68 -3.55486 2.57928 0
M  V30 9456 H 872.286 -2.24152 3.61436 0
M  V30 9457 N 870.601 -1.47988 -0.541979 0
M  V30 9458 C 871.826 -1.59286 -1.32826 0
M  V30 9459 C 872.251 -0.24894 -1.86445 0
M  V30 9460 O 871.609 0.777581 -1.63778 0
M  V30 9461 C 871.657 -2.6334 -2.46343 0
M  V30 9462 O 870.761 -2.19667 -3.49028 0
M  V30 9463 H 870.102 -0.534543 -0.393903 0
M  V30 9464 H 872.632 -1.93885 -0.653427 0
M  V30 9465 H 872.642 -2.84238 -2.92699 0
M  V30 9466 H 871.317 -3.60913 -2.06675 0
M  V30 9467 H 869.894 -2.08932 -3.08872 0
M  V30 9468 N 872.079 0.78992 -1.36375 0
M  V30 9469 C 873.011 1.91113 -1.26524 0
M  V30 9470 C 874.024 1.61747 -0.184851 0
M  V30 9471 O 875.213 1.73004 -0.439524 0
M  V30 9472 C 872.313 3.25908 -0.92937 0
M  V30 9473 C 871.486 3.83057 -2.11154 0
M  V30 9474 C 870.545 4.96289 -1.74881 0
M  V30 9475 O 869.571 5.12834 -2.46962 0
M  V30 9476 N 870.773 5.76478 -0.682193 0
M  V30 9477 H 873.538 2.00085 -2.23128 0
M  V30 9478 H 871.099 0.968165 -1.29762 0
M  V30 9479 H 873.091 3.99151 -0.667884 0
M  V30 9480 H 871.661 3.12556 -0.0524843 0
M  V30 9481 H 870.881 3.01808 -2.53586 0
M  V30 9482 H 872.169 4.1797 -2.90135 0
M  V30 9483 H 871.567 5.65638 -0.0836661 0
M  V30 9484 H 870.124 6.50026 -0.480529 0
M  V30 9485 N 873.557 1.20646 1.01402 0
M  V30 9486 C 874.505 0.954493 2.12114 0
M  V30 9487 C 875.499 -0.0950737 1.69133 0
M  V30 9488 O 876.705 0.0555153 1.79914 0
M  V30 9489 H 873.08 0.29135 0.693267 0
M  V30 9490 H 875.051 1.89447 2.30548 0
M  V30 9491 C 873.8 0.525944 3.43699 0
M  V30 9492 H 873.123 1.32516 3.772 0
M  V30 9493 H 874.563 0.388883 4.22213 0
M  V30 9494 C 873.022 -0.761997 3.28169 0
M  V30 9495 O 873.552 -1.81979 3.58115 0
M  V30 9496 N 871.758 -0.725017 2.8141 0
M  V30 9497 H 871.305 0.13607 2.5724 0
M  V30 9498 H 871.263 -1.5871 2.71401 0
M  V30 9499 N 875.035 -1.20752 1.01276 0
M  V30 9500 C 875.985 -2.21252 0.550602 0
M  V30 9501 C 876.969 -1.56052 -0.391985 0
M  V30 9502 O 878.161 -1.75682 -0.215575 0
M  V30 9503 C 875.29 -3.43112 -0.113601 0
M  V30 9504 C 874.376 -4.15485 0.850465 0
M  V30 9505 N 874.767 -4.64301 2.00643 0
M  V30 9506 C 873.065 -4.40932 0.670476 0
M  V30 9507 C 873.766 -5.197 2.61317 0
M  V30 9508 N 872.742 -5.09534 1.8941 0
M  V30 9509 H 876.544 -2.56657 1.43194 0
M  V30 9510 H 874.058 -1.36646 0.877597 0
M  V30 9511 H 876.055 -4.1433 -0.462211 0
M  V30 9512 H 874.715 -3.09213 -0.990825 0
M  V30 9513 H 875.726 -4.59637 2.38651 0
M  V30 9514 H 872.403 -4.17197 -0.159016 0
M  V30 9515 H 873.793 -5.67873 3.59123 0
M  V30 9516 N 876.513 -0.788492 -1.36457 0
M  V30 9517 C 877.761 -0.359749 -1.98872 0
M  V30 9518 C 878.082 1.07197 -1.62892 0
M  V30 9519 O 877.352 1.73875 -0.902463 0
M  V30 9520 H 875.932 -0.130029 -0.735596 0
M  V30 9521 H 878.594 -1.01033 -1.66668 0
M  V30 9522 H 877.69 -0.450835 -3.08827 0
M  V30 9523 N 877.991 1.48044 -0.54043 0
M  V30 9524 C 879.221 2.06595 -0.0144943 0
M  V30 9525 C 879.629 1.39593 1.27713 0
M  V30 9526 O 878.972 0.480794 1.77297 0
M  V30 9527 C 879.034 3.5849 0.269316 0
M  V30 9528 C 878.698 4.47429 -0.930372 0
M  V30 9529 C 879.695 4.8657 -1.83155 0
M  V30 9530 C 877.38 4.89185 -1.14032 0
M  V30 9531 C 879.374 5.66246 -2.92649 0
M  V30 9532 C 877.061 5.6863 -2.23838 0
M  V30 9533 C 878.059 6.07069 -3.12979 0
M  V30 9534 O 877.747 6.84917 -4.20884 0
M  V30 9535 H 877.479 0.675086 -0.0351467 0
M  V30 9536 H 880.033 1.91275 -0.74853 0
M  V30 9537 H 878.263 3.71961 1.05745 0
M  V30 9538 H 879.952 3.99124 0.738595 0
M  V30 9539 H 880.718 4.54924 -1.68134 0
M  V30 9540 H 876.597 4.58742 -0.455717 0
M  V30 9541 H 880.141 5.96169 -3.62254 0
M  V30 9542 H 876.038 5.99688 -2.38839 0
M  V30 9543 H 876.806 7.03287 -4.18723 0
M  V30 9544 N 879.47 0.276058 1.55163 0
M  V30 9545 C 880.71 -0.341634 2.01525 0
M  V30 9546 C 881.074 -1.52979 1.16023 0
M  V30 9547 O 882.275 -2.21718 1.51968 0
M  V30 9548 C 880.546 -0.713294 3.5021 0
M  V30 9549 S 882.105 -1.31739 4.18558 0
M  V30 9550 H 878.923 -0.1062 0.703024 0
M  V30 9551 H 881.525 0.398112 1.91404 0
M  V30 9552 H 880.229 0.160311 4.10087 0
M  V30 9553 H 879.76 -1.48448 3.64317 0
M  V30 9554 H 881.775 -2.60595 4.22261 0
M  V30 9555 N 880.948 -1.576 0.00335426 0
M  V30 9556 C 881.878 -2.11668 -0.985839 0
M  V30 9557 C 882.859 -1.02661 -1.35627 0
M  V30 9558 O 884.044 -1.30361 -1.43943 0
M  V30 9559 C 881.174 -2.62273 -2.27662 0
M  V30 9560 C 880.128 -3.75837 -2.0477 0
M  V30 9561 C 879.454 -4.12769 -3.39891 0
M  V30 9562 C 880.754 -5.02975 -1.40759 0
M  V30 9563 H 882.448 -2.9457 -0.535637 0
M  V30 9564 H 879.994 -1.41702 -0.256204 0
M  V30 9565 H 881.947 -2.98727 -2.97221 0
M  V30 9566 H 880.671 -1.76498 -2.74802 0
M  V30 9567 H 879.33 -3.39782 -1.37636 0
M  V30 9568 H 878.978 -3.24013 -3.8474 0
M  V30 9569 H 878.678 -4.89281 -3.25389 0
M  V30 9570 H 880.202 -4.51784 -4.1076 0
M  V30 9571 H 881.616 -5.37179 -2.00279 0
M  V30 9572 H 880.013 -5.84315 -1.36734 0
M  V30 9573 H 881.083 -4.83431 -0.377218 0
M  V30 9574 N 882.426 0.269451 -1.5528 0
M  V30 9575 C 883.373 1.33316 -1.88403 0
M  V30 9576 C 884.343 1.48909 -0.735881 0
M  V30 9577 O 885.528 1.63259 -0.987479 0
M  V30 9578 C 882.668 2.68778 -2.16454 0
M  V30 9579 C 881.781 2.61377 -3.43956 0
M  V30 9580 C 880.916 3.89042 -3.6169 0
M  V30 9581 C 879.955 3.76166 -4.82872 0
M  V30 9582 N 879.092 4.95673 -4.97245 0
M  V30 9583 H 883.932 1.04368 -2.79126 0
M  V30 9584 H 881.469 0.504147 -1.38191 0
M  V30 9585 H 883.427 3.47599 -2.30719 0
M  V30 9586 H 882.057 2.9592 -1.28961 0
M  V30 9587 H 881.109 1.74247 -3.38145 0
M  V30 9588 H 882.421 2.47764 -4.32914 0
M  V30 9589 H 881.575 4.76304 -3.75791 0
M  V30 9590 H 880.314 4.05526 -2.70924 0
M  V30 9591 H 879.319 2.87287 -4.68771 0
M  V30 9592 H 880.544 3.61198 -5.75077 0
M  V30 9593 H 878.49 5.12561 -4.09411 0
M  V30 9594 H 878.407 4.84605 -5.80254 0
M  V30 9595 H 879.675 5.84498 -5.15735 0
M  V30 9596 N 883.904 1.48273 0.534124 0
M  V30 9597 C 884.851 1.62487 1.6391 0
M  V30 9598 C 885.821 0.467062 1.59398 0
M  V30 9599 O 887.006 0.690029 1.77885 0
M  V30 9600 C 884.146 1.66671 3.02183 0
M  V30 9601 C 883.259 2.9353 3.16961 0
M  V30 9602 C 882.394 2.88902 4.45768 0
M  V30 9603 C 881.433 4.10483 4.54059 0
M  V30 9604 N 880.57 4.03956 5.74251 0
M  V30 9605 H 885.41 2.56851 1.51101 0
M  V30 9606 H 882.947 1.27381 0.735704 0
M  V30 9607 H 884.905 1.67079 3.82283 0
M  V30 9608 H 883.535 0.758011 3.13774 0
M  V30 9609 H 882.587 3.02886 2.3014 0
M  V30 9610 H 883.899 3.83501 3.18949 0
M  V30 9611 H 883.053 2.87688 5.34154 0
M  V30 9612 H 881.792 1.96652 4.46295 0
M  V30 9613 H 880.797 4.11977 3.64081 0
M  V30 9614 H 882.022 5.03887 4.55274 0
M  V30 9615 H 879.968 3.14525 5.75682 0
M  V30 9616 H 879.885 4.87628 5.77715 0
M  V30 9617 H 881.153 4.06795 6.64935 0
M  V30 9618 N 885.382 -0.782676 1.36792 0
M  V30 9619 C 886.329 -1.89558 1.31667 0
M  V30 9620 C 887.299 -1.65076 0.184147 0
M  V30 9621 O 888.484 -1.87143 0.371753 0
M  V30 9622 C 885.624 -3.26469 1.11858 0
M  V30 9623 C 884.737 -3.62978 2.34245 0
M  V30 9624 C 883.872 -4.89041 2.07394 0
M  V30 9625 C 882.911 -5.18249 3.25706 0
M  V30 9626 N 882.048 -6.35497 2.98476 0
M  V30 9627 H 886.888 -1.93274 2.26824 0
M  V30 9628 H 884.425 -0.945057 1.12726 0
M  V30 9629 H 886.383 -4.05431 0.983968 0
M  V30 9630 H 885.013 -3.22158 0.203531 0
M  V30 9631 H 884.065 -2.79087 2.58485 0
M  V30 9632 H 885.377 -3.80507 3.22514 0
M  V30 9633 H 884.531 -5.75883 1.90901 0
M  V30 9634 H 883.27 -4.73594 1.16446 0
M  V30 9635 H 882.275 -4.29887 3.4275 0
M  V30 9636 H 883.5 -5.35611 4.1749 0
M  V30 9637 H 881.446 -6.21429 2.10146 0
M  V30 9638 H 881.363 -6.5339 3.80286 0
M  V30 9639 H 882.631 -7.25304 2.85577 0
M  V30 9640 N 886.86 -1.21182 -1.00761 0
M  V30 9641 C 888.085 -1.05411 -1.78615 0
M  V30 9642 C 888.51 0.391837 -1.83973 0
M  V30 9643 O 887.868 1.28256 -1.28141 0
M  V30 9644 C 887.916 -1.65285 -3.20489 0
M  V30 9645 O 887.02 -0.896558 -4.02536 0
M  V30 9646 H 886.361 -0.37116 -0.550578 0
M  V30 9647 H 888.891 -1.60669 -1.26676 0
M  V30 9648 H 888.901 -1.69397 -3.71172 0
M  V30 9649 H 887.576 -2.70514 -3.15904 0
M  V30 9650 H 886.153 -0.930335 -3.61108 0
M  V30 9651 N 888.338 1.20213 -1.01915 0
M  V30 9652 C 889.587 1.88968 -0.705261 0
M  V30 9653 C 889.9 1.79869 0.768531 0
M  V30 9654 O 891.106 2.43783 1.19508 0
M  V30 9655 C 889.562 3.38911 -1.21109 0
M  V30 9656 C 889.17 3.5659 -2.71197 0
M  V30 9657 C 890.914 4.13204 -0.97275 0
M  V30 9658 C 888.821 5.00372 -3.15248 0
M  V30 9659 H 887.751 0.707715 -0.260107 0
M  V30 9660 H 890.402 1.35977 -1.23217 0
M  V30 9661 H 888.784 3.9124 -0.612152 0
M  V30 9662 H 889.958 3.14635 -3.36662 0
M  V30 9663 H 888.273 2.95671 -2.93202 0
M  V30 9664 H 890.87 5.19221 -1.27726 0
M  V30 9665 H 891.213 4.16201 0.09072 0
M  V30 9666 H 891.746 3.66983 -1.5352 0
M  V30 9667 H 888.485 5.02532 -4.20882 0
M  V30 9668 H 888.005 5.43127 -2.54505 0
M  V30 9669 H 889.684 5.68969 -3.08032 0
M  V30 9670 N 889.816 0.795718 1.36037 0
M  V30 9671 C 890.746 0.212803 2.32528 0
M  V30 9672 C 891.727 -0.655716 1.56953 0
M  V30 9673 O 892.912 -0.588238 1.85077 0
M  V30 9674 C 890.042 -0.648189 3.41198 0
M  V30 9675 C 888.996 0.120948 4.27829 0
M  V30 9676 C 888.322 -0.861044 5.27722 0
M  V30 9677 C 889.622 1.31375 5.05508 0
M  V30 9678 H 891.316 1.01893 2.81528 0
M  V30 9679 H 888.862 0.491422 1.35355 0
M  V30 9680 H 890.815 -1.06597 4.07695 0
M  V30 9681 H 889.539 -1.48709 2.9078 0
M  V30 9682 H 888.198 0.519777 3.62897 0
M  V30 9683 H 887.846 -1.69515 4.73575 0
M  V30 9684 H 887.546 -0.350808 5.86552 0
M  V30 9685 H 889.07 -1.27726 5.97092 0
M  V30 9686 H 890.484 0.971406 5.6501 0
M  V30 9687 H 888.881 1.75772 5.73781 0
M  V30 9688 H 889.951 2.10593 4.36782 0
M  V30 9689 N 891.294 -1.47756 0.548274 0
M  V30 9690 C 892.241 -2.29893 -0.204408 0
M  V30 9691 C 893.211 -1.38509 -0.916761 0
M  V30 9692 O 894.396 -1.67472 -0.91421 0
M  V30 9693 C 891.536 -3.22282 -1.23403 0
M  V30 9694 C 890.649 -4.28753 -0.528654 0
M  V30 9695 C 889.784 -5.08303 -1.54279 0
M  V30 9696 C 888.823 -6.06557 -0.821893 0
M  V30 9697 N 887.96 -6.79098 -1.78243 0
M  V30 9698 H 892.8 -2.93739 0.502163 0
M  V30 9699 H 890.337 -1.44793 0.259471 0
M  V30 9700 H 892.295 -3.74262 -1.84348 0
M  V30 9701 H 890.925 -2.6032 -1.90875 0
M  V30 9702 H 889.977 -3.79899 0.195132 0
M  V30 9703 H 891.289 -4.98787 0.0365066 0
M  V30 9704 H 890.443 -5.64388 -2.22602 0
M  V30 9705 H 889.182 -4.3815 -2.14186 0
M  V30 9706 H 888.187 -5.49659 -0.12469 0
M  V30 9707 H 889.412 -6.78715 -0.228685 0
M  V30 9708 H 887.358 -6.11682 -2.37025 0
M  V30 9709 H 887.275 -7.4527 -1.26919 0
M  V30 9710 H 888.543 -7.39762 -2.45709 0
M  V30 9711 N 892.772 -0.284283 -1.55015 0
M  V30 9712 C 894.188 0.069603 -1.59448 0
M  V30 9713 C 894.388 1.53833 -1.30144 0
M  V30 9714 O 893.444 2.2886 -1.06674 0
M  V30 9715 C 894.757 -0.313287 -2.99064 0
M  V30 9716 C 896.305 -0.260662 -3.11913 0
M  V30 9717 C 896.78 -0.618127 -4.5381 0
M  V30 9718 N 898.271 -0.570026 -4.59679 0
M  V30 9719 C 899.006 -0.8193 -5.67517 0
M  V30 9720 N 898.502 -1.13367 -6.83462 0
M  V30 9721 N 900.295 -0.747482 -5.57108 0
M  V30 9722 H 892.446 -1.24167 -1.72326 0
M  V30 9723 H 894.709 -0.502259 -0.804015 0
M  V30 9724 H 894.415 -1.33509 -3.25374 0
M  V30 9725 H 894.289 0.341369 -3.75652 0
M  V30 9726 H 896.676 0.751869 -2.85361 0
M  V30 9727 H 896.757 -0.949706 -2.37517 0
M  V30 9728 H 896.401 -1.62839 -4.81088 0
M  V30 9729 H 896.331 0.092807 -5.26518 0
M  V30 9730 H 898.822 -0.3373 -3.76392 0
M  V30 9731 H 899.135 -1.3103 -7.61611 0
M  V30 9732 H 897.48 -1.17154 -6.85055 0
M  V30 9733 H 900.671 -0.501658 -4.65404 0
M  V30 9734 H 900.844 -0.945128 -6.4107 0
M  V30 9735 N 894.251 1.57596 -0.0117121 0
M  V30 9736 C 895.198 2.09153 0.975897 0
M  V30 9737 C 896.168 0.989579 1.33404 0
M  V30 9738 O 897.353 1.26273 1.43038 0
M  V30 9739 C 894.493 2.60906 2.2588 0
M  V30 9740 C 893.606 3.85046 1.95866 0
M  V30 9741 C 892.741 4.25257 3.18323 0
M  V30 9742 C 891.78 5.42202 2.84049 0
M  V30 9743 N 890.917 5.77651 3.99079 0
M  V30 9744 H 895.757 2.93261 0.52931 0
M  V30 9745 H 893.294 1.44965 0.249691 0
M  V30 9746 H 895.252 2.88995 3.00895 0
M  V30 9747 H 893.882 1.79654 2.68187 0
M  V30 9748 H 892.934 3.63794 1.11168 0
M  V30 9749 H 894.246 4.70151 1.66611 0
M  V30 9750 H 893.4 4.5469 4.01674 0
M  V30 9751 H 892.139 3.38884 3.50726 0
M  V30 9752 H 891.144 5.1248 1.99107 0
M  V30 9753 H 892.369 6.3026 2.52881 0
M  V30 9754 H 890.315 4.94235 4.31356 0
M  V30 9755 H 890.232 6.57356 3.73388 0
M  V30 9756 H 891.5 6.11681 4.83183 0
M  V30 9757 N 895.729 -0.261212 1.5542 0
M  V30 9758 C 896.639 -1.34493 1.92221 0
M  V30 9759 C 897.655 -1.53421 0.82086 0
M  V30 9760 O 898.831 -1.6732 1.12099 0
M  V30 9761 C 895.896 -2.68209 2.19692 0
M  V30 9762 C 894.957 -2.57927 3.43179 0
M  V30 9763 C 894.19 -3.85266 3.69331 0
M  V30 9764 O 894.413 -4.86493 2.97793 0
M  V30 9765 O 893.347 -3.8476 4.62865 0
M  V30 9766 H 897.173 -1.06278 2.84497 0
M  V30 9767 H 894.758 -0.460752 1.42118 0
M  V30 9768 H 896.64 -3.47252 2.38734 0
M  V30 9769 H 895.315 -2.96186 1.30597 0
M  V30 9770 H 894.222 -1.77219 3.2946 0
M  V30 9771 H 895.555 -2.34898 4.32532 0
M  V30 9772 N 897.207 -1.48554 -0.526253 0
M  V30 9773 C 898.137 -1.66252 -1.63959 0
M  V30 9774 C 899.118 -0.511351 -1.62232 0
M  V30 9775 O 900.303 -0.744322 -1.7937 0
M  V30 9776 C 897.433 -1.70556 -3.02536 0
M  V30 9777 C 896.387 -2.8521 -3.19123 0
M  V30 9778 C 895.713 -2.74606 -4.58798 0
M  V30 9779 C 897.013 -4.26463 -3.0154 0
M  V30 9780 H 898.707 -2.59459 -1.49404 0
M  V30 9781 H 896.253 -1.24862 -0.717326 0
M  V30 9782 H 898.206 -1.81524 -3.80298 0
M  V30 9783 H 896.93 -0.739297 -3.18123 0
M  V30 9784 H 895.589 -2.73802 -2.43779 0
M  V30 9785 H 895.237 -1.75941 -4.71226 0
M  V30 9786 H 894.937 -3.51544 -4.70841 0
M  V30 9787 H 896.461 -2.87548 -5.38655 0
M  V30 9788 H 897.875 -4.38685 -3.69091 0
M  V30 9789 H 896.272 -5.04428 -3.25073 0
M  V30 9790 H 897.342 -4.42667 -1.97925 0
M  V30 9791 N 898.685 0.775411 -1.37205 0
M  V30 9792 C 899.648 1.8702 -1.325 0
M  V30 9793 C 900.648 1.5915 -0.229793 0
M  V30 9794 O 901.838 1.673 -0.485423 0
M  V30 9795 C 898.97 3.24085 -1.05745 0
M  V30 9796 H 900.163 1.92604 -2.29878 0
M  V30 9797 H 897.716 0.97476 -1.22181 0
M  V30 9798 H 898.451 3.24178 -0.0888371 0
M  V30 9799 H 898.236 3.45705 -1.85016 0
M  V30 9800 H 899.726 4.0416 -1.05094 0
M  V30 9801 N 900.163 1.21714 1.00117 0
M  V30 9802 C 901.412 1.03087 1.73367 0
M  V30 9803 C 901.725 -0.435532 1.90689 0
M  V30 9804 O 902.931 -0.741291 2.61184 0
M  V30 9805 C 901.387 1.79593 3.11888 0
M  V30 9806 C 900.995 3.30428 3.02525 0
M  V30 9807 C 902.739 1.69386 3.89241 0
M  V30 9808 C 900.646 3.99408 4.3615 0
M  V30 9809 H 899.576 0.382117 0.650002 0
M  V30 9810 H 902.227 1.45486 1.11831 0
M  V30 9811 H 900.609 1.29988 3.74058 0
M  V30 9812 H 901.783 3.87364 2.49571 0
M  V30 9813 H 900.098 3.4122 2.38659 0
M  V30 9814 H 902.695 2.18251 4.8813 0
M  V30 9815 H 903.038 0.652773 4.1115 0
M  V30 9816 H 903.571 2.16489 3.33733 0
M  V30 9817 H 900.31 5.03735 4.19442 0
M  V30 9818 H 899.83 3.47261 4.8905 0
M  V30 9819 H 901.509 4.04537 5.04934 0
M  V30 9820 N 901.641 -1.19671 1.02551 0
M  V30 9821 C 902.866 -1.93774 0.739363 0
M  V30 9822 C 903.291 -1.74787 -0.695064 0
M  V30 9823 O 902.649 -1.04796 -1.47944 0
M  V30 9824 C 902.697 -3.43684 1.09149 0
M  V30 9825 O 901.801 -4.11874 0.208213 0
M  V30 9826 H 901.142 -0.605064 0.273484 0
M  V30 9827 H 903.672 -1.51846 1.37128 0
M  V30 9828 H 903.682 -3.94339 1.04695 0
M  V30 9829 H 902.357 -3.56826 2.13654 0
M  V30 9830 H 900.934 -3.716 0.311045 0
M  V30 9831 N 903.119 -0.802921 -1.35613 0
M  V30 9832 C 904.349 -0.393359 -2.02821 0
M  V30 9833 C 904.757 0.999282 -1.60658 0
M  V30 9834 O 904.1 1.65463 -0.797977 0
M  V30 9835 C 904.162 -0.393102 -3.57344 0
M  V30 9836 C 903.826 -1.73563 -4.22759 0
M  V30 9837 C 904.823 -2.69333 -4.44698 0
M  V30 9838 C 902.508 -2.01863 -4.59953 0
M  V30 9839 C 904.502 -3.91589 -5.02928 0
M  V30 9840 C 902.189 -3.24383 -5.17898 0
M  V30 9841 C 903.187 -4.19064 -5.39328 0
M  V30 9842 O 902.875 -5.39422 -5.96053 0
M  V30 9843 H 902.607 -0.158431 -0.657172 0
M  V30 9844 H 905.161 -1.08682 -1.74291 0
M  V30 9845 H 903.391 0.356934 -3.85049 0
M  V30 9846 H 905.08 -0.00635596 -4.059 0
M  V30 9847 H 905.846 -2.48759 -4.16346 0
M  V30 9848 H 901.725 -1.28979 -4.42589 0
M  V30 9849 H 905.269 -4.65502 -5.1957 0
M  V30 9850 H 901.166 -3.44829 -5.45677 0
M  V30 9851 H 901.934 -5.40669 -6.14507 0
M  V30 9852 N 904.597 1.47463 -0.556102 0
M  V30 9853 C 905.846 2.01678 -0.029492 0
M  V30 9854 C 906.159 1.436 1.32809 0
M  V30 9855 O 907.365 1.89472 1.94455 0
M  V30 9856 C 905.821 3.599 -0.00223937 0
M  V30 9857 C 905.429 4.26969 -1.35651 0
M  V30 9858 C 907.173 4.2187 0.471822 0
M  V30 9859 C 905.08 5.77194 -1.28843 0
M  V30 9860 H 904.01 0.753965 -0.00725504 0
M  V30 9861 H 906.661 1.69467 -0.703789 0
M  V30 9862 H 905.043 3.89068 0.737682 0
M  V30 9863 H 906.217 4.09444 -2.11406 0
M  V30 9864 H 904.532 3.76983 -1.76842 0
M  V30 9865 H 907.129 5.31955 0.541139 0
M  V30 9866 H 907.472 3.88968 1.48356 0
M  V30 9867 H 908.005 3.97228 -0.213207 0
M  V30 9868 H 904.744 6.14713 -2.27613 0
M  V30 9869 H 904.264 5.9706 -0.572668 0
M  V30 9870 H 905.943 6.3938 -0.990031 0
M  V30 9871 N 906.075 0.2925 1.54862 0
M  V30 9872 C 907.023 -0.603186 2.24643 0
M  V30 9873 C 908.017 -1.1439 1.24946 0
M  V30 9874 O 909.223 -1.09552 1.42823 0
M  V30 9875 H 905.598 -0.213105 0.721173 0
M  V30 9876 H 907.569 0.00799278 2.98399 0
M  V30 9877 C 906.318 -1.76769 2.99413 0
M  V30 9878 H 905.641 -1.36084 3.75927 0
M  V30 9879 H 907.081 -2.37066 3.51533 0
M  V30 9880 C 905.54 -2.66669 2.05886 0
M  V30 9881 O 906.07 -3.67525 1.62136 0
M  V30 9882 N 904.276 -2.34216 1.7202 0
M  V30 9883 H 903.823 -1.52246 2.07795 0
M  V30 9884 H 903.781 -2.94635 1.09717 0
M  V30 9885 N 907.553 -1.57587 0.0200696 0
M  V30 9886 C 908.516 -2.08595 -0.949767 0
M  V30 9887 C 909.516 -0.999215 -1.25985 0
M  V30 9888 O 910.706 -1.26115 -1.2017 0
M  V30 9889 C 907.838 -2.54424 -2.26895 0
M  V30 9890 H 909.031 -2.95563 -0.508161 0
M  V30 9891 H 906.584 -1.54631 -0.227798 0
M  V30 9892 H 907.319 -1.70758 -2.75703 0
M  V30 9893 H 907.104 -3.3381 -2.05702 0
M  V30 9894 H 908.594 -2.94144 -2.96427 0
M  V30 9895 N 909.032 0.252966 -1.55557 0
M  V30 9896 C 909.98 1.33289 -1.90622 0
M  V30 9897 C 910.974 1.50133 -0.784638 0
M  V30 9898 O 912.18 1.51679 -0.969196 0
M  V30 9899 H 908.555 0.446196 -0.605321 0
M  V30 9900 H 910.526 1.00977 -2.80796 0
M  V30 9901 C 909.275 2.68254 -2.21213 0
M  V30 9902 H 908.598 2.5609 -3.07014 0
M  V30 9903 H 910.038 3.42707 -2.49656 0
M  V30 9904 C 908.497 3.20884 -1.02642 0
M  V30 9905 O 909.027 4.00783 -0.271292 0
M  V30 9906 N 907.233 2.7883 -0.818682 0
M  V30 9907 H 906.78 2.13966 -1.43444 0
M  V30 9908 H 906.738 3.14388 -0.0269989 0
M  V30 9909 N 910.51 1.48831 0.518367 0
M  V30 9910 C 911.787 1.47933 1.27966 0
M  V30 9911 C 912.167 0.197393 2.10175 0
M  V30 9912 O 911.515 -0.820656 2.13255 0
M  V30 9913 C 911.725 2.74816 2.15121 0
M  V30 9914 C 913.073 3.23613 2.74881 0
M  V30 9915 O 914.097 2.75814 2.254 0
M  V30 9916 O 912.956 4.06818 3.64913 0
M  V30 9917 H 910.05 0.591316 0.578164 0
M  V30 9918 H 912.596 1.61077 0.534065 0
M  V30 9919 H 911.368 3.59621 1.54234 0
M  V30 9920 H 910.991 2.64449 2.96905 0
M  V30 9921 N 911.988 -0.768124 1.37614 0
M  V30 9922 C 912.935 -1.88151 1.33671 0
M  V30 9923 C 913.905 -1.64871 0.201645 0
M  V30 9924 O 915.09 -1.86739 0.391582 0
M  V30 9925 C 912.23 -3.25264 1.15314 0
M  V30 9926 C 911.343 -3.60473 2.38082 0
M  V30 9927 C 910.478 -4.86814 2.12569 0
M  V30 9928 C 909.517 -5.14765 3.31184 0
M  V30 9929 N 908.654 -6.32295 3.052 0
M  V30 9930 H 913.494 -1.90857 2.28862 0
M  V30 9931 H 911.031 -0.933048 1.13722 0
M  V30 9932 H 912.989 -4.04364 1.02691 0
M  V30 9933 H 911.619 -3.21924 0.237689 0
M  V30 9934 H 910.671 -2.7633 2.61431 0
M  V30 9935 H 911.983 -3.77065 3.26532 0
M  V30 9936 H 911.137 -5.73826 1.96999 0
M  V30 9937 H 909.876 -4.72333 1.21462 0
M  V30 9938 H 908.881 -4.26227 3.4729 0
M  V30 9939 H 910.106 -5.31153 4.23147 0
M  V30 9940 H 908.052 -6.19166 2.16726 0
M  V30 9941 H 907.969 -6.4932 3.87195 0
M  V30 9942 H 909.237 -7.22234 2.93254 0
M  V30 9943 N 913.466 -1.22244 -0.994698 0
M  V30 9944 C 914.691 -1.07299 -1.77487 0
M  V30 9945 C 915.116 0.372302 -1.84379 0
M  V30 9946 O 914.474 1.2689 -1.29494 0
M  V30 9947 C 914.522 -1.68675 -3.18718 0
M  V30 9948 O 913.626 -0.939202 -4.01563 0
M  V30 9949 H 912.967 -0.376979 -0.546611 0
M  V30 9950 H 915.497 -1.62003 -1.24965 0
M  V30 9951 H 915.507 -1.73324 -3.69354 0
M  V30 9952 H 914.182 -2.73849 -3.13017 0
M  V30 9953 H 912.759 -0.968583 -3.60101 0
M  V30 9954 N 914.944 1.19125 -1.03184 0
M  V30 9955 C 916.193 1.8821 -0.725264 0
M  V30 9956 C 916.506 1.80674 0.749411 0
M  V30 9957 O 917.712 2.45037 1.16915 0
M  V30 9958 C 916.168 3.37607 -1.24697 0
M  V30 9959 C 915.776 3.53693 -2.74964 0
M  V30 9960 C 917.52 4.12149 -1.01652 0
M  V30 9961 C 915.427 4.97001 -3.20538 0
M  V30 9962 H 914.357 0.704916 -0.267599 0
M  V30 9963 H 917.008 1.34663 -1.24652 0
M  V30 9964 H 915.39 3.90569 -0.653614 0
M  V30 9965 H 916.564 3.11046 -3.39981 0
M  V30 9966 H 914.879 2.92544 -2.96322 0
M  V30 9967 H 917.476 5.17837 -1.33226 0
M  V30 9968 H 917.819 4.16274 0.0465712 0
M  V30 9969 H 918.352 3.65334 -1.57403 0
M  V30 9970 H 915.091 4.9804 -4.26189 0
M  V30 9971 H 914.611 5.40398 -2.60251 0
M  V30 9972 H 916.29 5.65669 -3.14049 0
M  V30 9973 N 916.422 0.810101 1.35185 0
M  V30 9974 C 917.332 0.224565 2.33523 0
M  V30 9975 C 918.348 -0.634287 1.62027 0
M  V30 9976 O 919.524 -0.545211 1.9388 0
M  V30 9977 C 916.589 -0.614319 3.41214 0
M  V30 9978 C 915.65 0.265435 4.28479 0
M  V30 9979 C 914.883 -0.533506 5.31027 0
M  V30 9980 O 915.106 -1.7679 5.42311 0
M  V30 9981 O 914.04 0.0774573 6.0185 0
M  V30 9982 H 917.866 1.03815 2.85405 0
M  V30 9983 H 915.451 0.571964 1.38018 0
M  V30 9984 H 917.333 -1.09201 4.07005 0
M  V30 9985 H 916.008 -1.40545 2.91597 0
M  V30 9986 H 914.915 0.790343 3.65656 0
M  V30 9987 H 916.248 1.0206 4.81503 0
M  V30 9988 N 917.9 -1.47166 0.563914 0
M  V30 9989 C 919.148 -2.02056 0.0422873 0
M  V30 9990 C 919.469 -1.43992 -1.31497 0
M  V30 9991 O 918.739 -0.617578 -1.85911 0
M  V30 9992 H 917.319 -0.746893 0.0126427 0
M  V30 9993 H 919.981 -1.80492 0.735441 0
M  V30 9994 H 919.077 -3.12073 -0.0408044 0
M  V30 9995 N 919.378 -0.300708 -1.54705 0
M  V30 9996 C 920.627 0.309428 -1.99312 0
M  V30 9997 C 920.94 1.55027 -1.19272 0
M  V30 9998 O 922.146 2.23498 -1.54146 0
M  V30 9999 C 920.602 0.601856 -3.54832 0
M  V30 10000 C 920.21 -0.620636 -4.4368 0
M  V30 10001 C 921.954 1.1732 -4.07966 0
M  V30 10002 C 919.861 -0.301376 -5.90632 0
M  V30 10003 H 918.791 0.119395 -0.744487 0
M  V30 10004 H 921.442 -0.409368 -1.78875 0
M  V30 10005 H 919.824 1.38024 -3.71168 0
M  V30 10006 H 920.998 -1.39685 -4.39118 0
M  V30 10007 H 919.313 -1.1106 -4.01316 0
M  V30 10008 H 921.91 1.42631 -5.15326 0
M  V30 10009 H 922.253 2.11537 -3.5855 0
M  V30 10010 H 922.786 0.456534 -3.95172 0
M  V30 10011 H 919.525 -1.21209 -6.44196 0
M  V30 10012 H 919.045 0.437574 -5.98202 0
M  V30 10013 H 920.724 0.097164 -6.46927 0
M  V30 10014 N 920.856 1.57574 -0.0284266 0
M  V30 10015 C 922.081 1.96479 0.664137 0
M  V30 10016 C 922.506 0.904826 1.64908 0
M  V30 10017 O 921.864 -0.134339 1.80802 0
M  V30 10018 C 921.912 3.34479 1.34745 0
M  V30 10019 O 921.016 3.30794 2.46271 0
M  V30 10020 H 920.357 0.640654 0.174524 0
M  V30 10021 H 922.887 2.04402 -0.0900729 0
M  V30 10022 H 922.897 3.70694 1.7044 0
M  V30 10023 H 921.572 4.1117 0.625468 0
M  V30 10024 H 920.149 3.06294 2.12693 0
M  V30 10025 N 922.334 -0.244713 1.55689 0
M  V30 10026 C 923.284 -1.30596 1.86892 0
M  V30 10027 C 924.268 -1.43388 0.729972 0
M  V30 10028 O 925.46 -1.46593 0.99194 0
M  V30 10029 C 922.589 -2.66099 2.16902 0
M  V30 10030 C 921.675 -2.57302 3.37129 0
M  V30 10031 N 922.066 -2.18139 4.56343 0
M  V30 10032 C 920.364 -2.88311 3.40283 0
M  V30 10033 C 921.065 -2.20028 5.38482 0
M  V30 10034 N 920.041 -2.59616 4.77599 0
M  V30 10035 H 923.843 -0.993699 2.76591 0
M  V30 10036 H 921.357 -0.453334 1.55944 0
M  V30 10037 H 923.354 -3.4269 2.37422 0
M  V30 10038 H 922.014 -2.9819 1.28502 0
M  V30 10039 H 923.025 -1.89647 4.81928 0
M  V30 10040 H 919.702 -3.24928 2.62161 0
M  V30 10041 H 921.092 -1.9207 6.43862 0
M  V30 10042 N 923.813 -1.49104 -0.510467 0
M  V30 10043 C 924.76 -1.65074 -1.61305 0
M  V30 10044 C 925.73 -0.492362 -1.58635 0
M  V30 10045 O 926.915 -0.718241 -1.76765 0
M  V30 10046 C 924.055 -1.71457 -2.99493 0
M  V30 10047 C 923.168 -2.98536 -3.12251 0
M  V30 10048 C 922.303 -2.95957 -4.41116 0
M  V30 10049 C 921.342 -4.17655 -4.47471 0
M  V30 10050 N 920.479 -4.13041 -5.67751 0
M  V30 10051 H 925.319 -2.59222 -1.46996 0
M  V30 10052 H 922.856 -1.28535 -0.715346 0
M  V30 10053 H 924.814 -1.7314 -3.79577 0
M  V30 10054 H 923.444 -0.807834 -3.12528 0
M  V30 10055 H 922.496 -3.06509 -2.25292 0
M  V30 10056 H 923.808 -3.88527 -3.12807 0
M  V30 10057 H 922.962 -2.96149 -5.2951 0
M  V30 10058 H 921.701 -2.03728 -4.4311 0
M  V30 10059 H 920.706 -4.17717 -3.57481 0
M  V30 10060 H 921.931 -5.11066 -4.472 0
M  V30 10061 H 919.877 -3.23643 -5.70606 0
M  V30 10062 H 919.794 -4.96757 -5.69884 0
M  V30 10063 H 921.062 -4.17322 -6.58379 0
M  V30 10064 N 925.291 0.760815 -1.38019 0
M  V30 10065 C 926.239 1.89578 -1.34771 0
M  V30 10066 C 927.233 1.67766 -0.234714 0
M  V30 10067 O 928.439 1.75423 -0.403352 0
M  V30 10068 H 924.814 0.623608 -0.420258 0
M  V30 10069 H 926.785 1.89434 -2.30558 0
M  V30 10070 C 925.534 3.26976 -1.18246 0
M  V30 10071 H 924.857 3.44342 -2.03147 0
M  V30 10072 H 926.297 4.06657 -1.20026 0
M  V30 10073 C 924.756 3.36717 0.111145 0
M  V30 10074 O 925.286 3.86607 1.09079 0
M  V30 10075 N 923.492 2.90128 0.165542 0
M  V30 10076 H 923.039 2.49719 -0.632328 0
M  V30 10077 H 922.997 2.97026 1.03067 0
M  V30 10078 N 926.769 1.22769 0.988202 0
M  V30 10079 C 928.017 1.05301 1.725 0
M  V30 10080 C 928.338 -0.412103 1.90596 0
M  V30 10081 O 927.608 -1.29606 1.46898 0
M  V30 10082 H 926.188 0.386658 0.639144 0
M  V30 10083 H 928.85 1.54359 1.18993 0
M  V30 10084 H 927.946 1.53465 2.71763 0
M  V30 10085 N 928.247 -1.18576 1.03814 0
M  V30 10086 C 929.663 -1.4051 0.756909 0
M  V30 10087 C 929.863 -1.9057 -0.654631 0
M  V30 10088 O 928.919 -2.0884 -1.41922 0
M  V30 10089 C 930.232 -2.4081 1.80087 0
M  V30 10090 C 931.78 -2.54541 1.82148 0
M  V30 10091 C 932.255 -3.58102 2.85529 0
M  V30 10092 N 933.746 -3.65607 2.84404 0
M  V30 10093 C 934.481 -4.45458 3.61047 0
M  V30 10094 N 933.977 -5.28937 4.47434 0
M  V30 10095 N 935.77 -4.40196 3.49548 0
M  V30 10096 H 927.921 -0.844075 1.94908 0
M  V30 10097 H 930.184 -0.433287 0.843188 0
M  V30 10098 H 929.89 -2.1107 2.81322 0
M  V30 10099 H 929.764 -3.4012 1.63089 0
M  V30 10100 H 932.151 -2.83598 0.815855 0
M  V30 10101 H 932.232 -1.55352 2.03223 0
M  V30 10102 H 931.876 -3.29786 3.86269 0
M  V30 10103 H 931.806 -4.56963 2.6171 0
M  V30 10104 H 934.297 -3.05994 2.21756 0
M  V30 10105 H 934.61 -5.8701 5.02632 0
M  V30 10106 H 932.955 -5.28366 4.51503 0
M  V30 10107 H 936.146 -3.74026 2.81464 0
M  V30 10108 H 936.319 -5.02186 4.09528 0
M  V30 10109 N 929.725 -0.817259 -1.34754 0
M  V30 10110 C 930.972 -0.402648 -1.98457 0
M  V30 10111 C 931.3 1.03287 -1.64809 0
M  V30 10112 O 930.555 1.73316 -0.908851 0
M  V30 10113 C 930.854 -0.5453 -3.53216 0
M  V30 10114 C 930.52 -1.9457 -4.06759 0
M  V30 10115 C 929.182 -2.32881 -4.21094 0
M  V30 10116 C 931.534 -2.86141 -4.35629 0
M  V30 10117 C 928.862 -3.62108 -4.61622 0
M  V30 10118 C 931.214 -4.14826 -4.776 0
M  V30 10119 C 929.878 -4.53121 -4.9014 0
M  V30 10120 H 929.148 -0.147339 -0.726204 0
M  V30 10121 H 931.795 -1.04011 -1.60791 0
M  V30 10122 H 930.1 0.175576 -3.91406 0
M  V30 10123 H 931.797 -0.205112 -4.00475 0
M  V30 10124 H 928.387 -1.6381 -3.96061 0
M  V30 10125 H 932.571 -2.57788 -4.24098 0
M  V30 10126 H 927.827 -3.91613 -4.69521 0
M  V30 10127 H 932.001 -4.85874 -4.98899 0
M  V30 10128 H 929.628 -5.53307 -5.21302 0
M  V30 10129 N 931.203 1.46865 -0.571711 0
M  V30 10130 C 932.433 2.06518 -0.0583129 0
M  V30 10131 C 932.841 1.4227 1.24723 0
M  V30 10132 O 932.184 0.518293 1.76237 0
M  V30 10133 C 932.246 3.5898 0.193214 0
M  V30 10134 C 931.91 4.45355 -1.02507 0
M  V30 10135 C 932.907 4.82575 -1.93435 0
M  V30 10136 C 930.592 4.86656 -1.24382 0
M  V30 10137 C 932.586 5.59912 -3.04595 0
M  V30 10138 C 930.273 5.63754 -2.35849 0
M  V30 10139 C 931.271 6.00294 -3.25785 0
M  V30 10140 O 930.959 6.75836 -4.35318 0
M  V30 10141 H 930.691 0.674188 -0.0494584 0
M  V30 10142 H 933.245 1.89644 -0.788934 0
M  V30 10143 H 931.475 3.7412 0.978319 0
M  V30 10144 H 933.164 4.006 0.653769 0
M  V30 10145 H 933.93 4.51256 -1.77745 0
M  V30 10146 H 929.809 4.57672 -0.55292 0
M  V30 10147 H 933.353 5.88351 -3.74818 0
M  V30 10148 H 929.25 5.94487 -2.51506 0
M  V30 10149 H 930.018 6.94247 -4.33547 0
M  V30 10150 N 932.681 0.308908 1.54543 0
M  V30 10151 C 933.906 -0.303196 2.05172 0
M  V30 10152 C 934.331 -1.46133 1.18434 0
M  V30 10153 O 933.689 -1.803 0.190162 0
M  V30 10154 C 933.737 -0.729526 3.53143 0
M  V30 10155 O 932.841 -1.83348 3.69401 0
M  V30 10156 H 932.182 -0.0575066 0.661505 0
M  V30 10157 H 934.712 0.453055 1.99521 0
M  V30 10158 H 934.722 -1.01619 3.95143 0
M  V30 10159 H 933.397 0.117622 4.15734 0
M  V30 10160 H 931.974 -1.54676 3.39308 0
M  V30 10161 N 934.159 -1.57557 0.0367827 0
M  V30 10162 C 935.405 -1.92399 -0.641133 0
M  V30 10163 C 935.738 -0.914191 -1.71336 0
M  V30 10164 O 935.013 0.0619616 -1.94401 0
M  V30 10165 C 935.296 -3.37689 -1.25052 0
M  V30 10166 C 935.149 -4.4941 -0.187326 0
M  V30 10167 C 936.468 -3.8309 -2.16634 0
M  V30 10168 H 933.587 -0.699666 -0.231597 0
M  V30 10169 H 936.229 -1.89759 0.0956083 0
M  V30 10170 H 934.379 -3.40069 -1.87843 0
M  V30 10171 H 936.051 -4.59161 0.443736 0
M  V30 10172 H 934.294 -4.31065 0.486313 0
M  V30 10173 H 934.965 -5.48119 -0.653459 0
M  V30 10174 H 937.441 -3.82494 -1.63821 0
M  V30 10175 H 936.317 -4.85429 -2.56222 0
M  V30 10176 H 936.578 -3.19028 -3.06062 0
M  V30 10177 N 935.637 0.236453 -1.55816 0
M  V30 10178 C 936.569 1.31602 -1.87653 0
M  V30 10179 C 937.582 1.43782 -0.763584 0
M  V30 10180 O 938.771 1.44945 -1.04178 0
M  V30 10181 C 935.871 2.69342 -2.05689 0
M  V30 10182 C 935.044 2.79298 -3.36617 0
M  V30 10183 C 934.103 3.97952 -3.44268 0
M  V30 10184 O 933.129 3.86989 -4.17406 0
M  V30 10185 N 934.331 5.11594 -2.74321 0
M  V30 10186 H 937.096 1.04623 -2.80845 0
M  V30 10187 H 934.657 0.426534 -1.5618 0
M  V30 10188 H 936.649 3.47074 -2.08138 0
M  V30 10189 H 935.219 2.88984 -1.19192 0
M  V30 10190 H 934.439 1.8816 -3.46395 0
M  V30 10191 H 935.727 2.82908 -4.22895 0
M  V30 10192 H 935.125 5.23394 -2.14651 0
M  V30 10193 H 933.682 5.87422 -2.8245 0
M  V30 10194 N 937.115 1.49373 0.502552 0
M  V30 10195 C 938.362 1.58781 1.25678 0
M  V30 10196 C 938.69 0.273819 1.92563 0
M  V30 10197 O 937.945 -0.738141 1.81246 0
M  V30 10198 C 938.244 2.69508 2.34735 0
M  V30 10199 C 937.91 4.11057 1.85318 0
M  V30 10200 C 936.572 4.49578 1.7156 0
M  V30 10201 C 938.924 4.99653 1.48312 0
M  V30 10202 C 936.252 5.74469 1.19172 0
M  V30 10203 C 938.604 6.2506 0.97377 0
M  V30 10204 C 937.268 6.62412 0.822573 0
M  V30 10205 H 936.538 0.581021 0.459887 0
M  V30 10206 H 939.185 1.83197 0.557767 0
M  V30 10207 H 937.49 2.39057 3.10418 0
M  V30 10208 H 939.187 2.73997 2.92791 0
M  V30 10209 H 935.777 3.80651 1.96985 0
M  V30 10210 H 939.961 4.70549 1.57789 0
M  V30 10211 H 935.217 6.0211 1.06176 0
M  V30 10212 H 939.391 6.93089 0.678233 0
M  V30 10213 H 937.018 7.59069 0.414453 0
M  V30 10214 N 938.594 -0.753485 1.38421 0
M  V30 10215 C 939.544 -1.85788 1.32162 0
M  V30 10216 C 940.528 -1.59577 0.20588 0
M  V30 10217 O 941.72 -1.71396 0.44186 0
M  V30 10218 C 938.849 -3.23498 1.14909 0
M  V30 10219 C 937.935 -3.556 2.31105 0
M  V30 10220 N 938.326 -3.58759 3.56547 0
M  V30 10221 C 936.624 -3.85866 2.23659 0
M  V30 10222 C 937.325 -3.8813 4.33278 0
M  V30 10223 N 936.301 -4.04966 3.62635 0
M  V30 10224 H 940.103 -1.86509 2.27138 0
M  V30 10225 H 937.617 -0.950843 1.31654 0
M  V30 10226 H 939.614 -4.02531 1.08509 0
M  V30 10227 H 938.274 -3.24029 0.20866 0
M  V30 10228 H 939.285 -3.40517 3.90216 0
M  V30 10229 H 935.962 -3.94112 1.37776 0
M  V30 10230 H 937.352 -3.97197 5.41926 0
M  V30 10231 N 940.072 -1.23292 -0.981677 0
M  V30 10232 C 941.483 -1.05936 -1.53735 0
M  V30 10233 C 941.834 0.373695 -1.92608 0
M  V30 10234 O 940.959 1.26024 -1.75917 0
M  V30 10235 C 941.554 -1.91682 -2.79363 0
M  V30 10236 C 940.113 -1.78591 -3.31334 0
M  V30 10237 C 939.26 -1.87463 -2.04335 0
M  V30 10238 H 942.211 -1.36973 -0.801505 0
M  V30 10239 H 942.232 -1.44085 -3.52164 0
M  V30 10240 H 941.744 -2.95975 -2.51039 0
M  V30 10241 H 939.845 -0.770755 -3.64541 0
M  V30 10242 H 939.958 -2.61902 -4.01179 0
M  V30 10243 H 938.322 -1.3103 -2.18411 0
M  V30 10244 H 939.105 -2.9331 -1.78394 0
M  V30 10245 N 941.55 1.18024 -1.04442 0
M  V30 10246 C 942.46 2.25436 -0.649276 0
M  V30 10247 C 943.476 1.70915 0.326189 0
M  V30 10248 O 944.652 2.00592 0.180174 0
M  V30 10249 C 941.717 3.46693 -0.0222558 0
M  V30 10250 C 940.778 4.16332 -1.0472 0
M  V30 10251 C 940.011 5.31799 -0.450011 0
M  V30 10252 O 940.234 5.65544 0.742717 0
M  V30 10253 O 939.168 5.90209 -1.18056 0
M  V30 10254 H 942.994 2.61508 -1.54426 0
M  V30 10255 H 940.579 1.25178 -0.81552 0
M  V30 10256 H 942.461 4.20132 0.326597 0
M  V30 10257 H 941.136 3.12436 0.84649 0
M  V30 10258 H 940.043 3.44944 -1.44792 0
M  V30 10259 H 941.376 4.54598 -1.88684 0
M  V30 10260 N 943.028 0.824394 1.34319 0
M  V30 10261 C 944.276 0.41235 1.97849 0
M  V30 10262 C 944.597 -1.02841 1.65677 0
M  V30 10263 O 943.867 -1.71421 0.948245 0
M  V30 10264 H 942.447 0.149486 0.73189 0
M  V30 10265 H 945.109 1.05416 1.63931 0
M  V30 10266 H 944.205 0.532557 3.07523 0
M  V30 10267 N 944.506 -1.46559 0.579492 0
M  V30 10268 C 945.454 -2.3199 -0.168413 0
M  V30 10269 C 946.448 -1.44288 -0.887551 0
M  V30 10270 O 947.654 -1.60931 -0.806305 0
M  V30 10271 H 944.029 -0.748431 -0.0731799 0
M  V30 10272 H 946 -2.92886 0.570973 0
M  V30 10273 C 944.749 -3.27392 -1.1709 0
M  V30 10274 H 944.072 -3.94853 -0.626958 0
M  V30 10275 H 945.512 -3.89955 -1.66467 0
M  V30 10276 C 943.971 -2.52511 -2.23024 0
M  V30 10277 O 944.501 -2.2858 -3.30324 0
M  V30 10278 N 942.707 -2.1313 -1.97545 0
M  V30 10279 H 942.254 -2.32793 -1.10297 0
M  V30 10280 H 942.212 -1.63348 -2.68635 0
M  V30 10281 N 945.984 -0.3171 -1.54377 0
M  V30 10282 C 946.932 0.567371 -2.25574 0
M  V30 10283 C 947.926 1.12387 -1.2675 0
M  V30 10284 O 949.132 1.07266 -1.44548 0
M  V30 10285 H 945.507 0.201605 -0.724472 0
M  V30 10286 H 947.478 -0.0554644 -2.98348 0
M  V30 10287 C 946.227 1.71984 -3.02187 0
M  V30 10288 H 945.55 1.30086 -3.78044 0
M  V30 10289 H 946.99 2.31443 -3.5526 0
M  V30 10290 C 945.449 2.6336 -2.10103 0
M  V30 10291 O 945.979 3.64899 -1.67962 0
M  V30 10292 N 944.185 2.3145 -1.75725 0
M  V30 10293 H 943.732 1.48921 -2.10191 0
M  V30 10294 H 943.69 2.92852 -1.14391 0
M  V30 10295 N 947.462 1.57535 -0.0451378 0
M  V30 10296 C 948.71 1.92071 0.628743 0
M  V30 10297 C 949.031 0.923635 1.71738 0
M  V30 10298 O 948.301 -0.0324376 1.95873 0
M  V30 10299 H 946.881 0.708995 0.235233 0
M  V30 10300 H 949.543 1.9466 -0.0967177 0
M  V30 10301 H 948.639 2.9314 1.07123 0
M  V30 10302 N 948.94 -0.228186 1.55939 0
M  V30 10303 C 950.351 -0.795734 1.68893 0
M  V30 10304 C 950.702 -1.85261 0.645967 0
M  V30 10305 O 949.827 -2.15434 -0.2042 0
M  V30 10306 C 950.422 -1.45013 3.06197 0
M  V30 10307 C 948.981 -1.96514 3.21028 0
M  V30 10308 C 948.128 -0.822918 2.64808 0
M  V30 10309 H 951.079 -0.0036485 1.587 0
M  V30 10310 H 951.1 -2.31875 3.01685 0
M  V30 10311 H 950.612 -0.680678 3.82084 0
M  V30 10312 H 948.713 -2.76282 2.49998 0
M  V30 10313 H 948.826 -2.14967 4.28166 0
M  V30 10314 H 947.19 -1.22846 2.23116 0
M  V30 10315 H 947.973 -0.0662493 3.43236 0
M  V30 10316 N 950.418 -1.49637 -0.494624 0
M  V30 10317 C 951.328 -1.69522 -1.62172 0
M  V30 10318 C 952.344 -0.577894 -1.64123 0
M  V30 10319 O 953.52 -0.853382 -1.82426 0
M  V30 10320 C 950.585 -1.7633 -2.9851 0
M  V30 10321 C 949.646 -2.99944 -3.07135 0
M  V30 10322 C 948.879 -3.06419 -4.36971 0
M  V30 10323 O 949.102 -2.20312 -5.26136 0
M  V30 10324 O 948.036 -3.9894 -4.507 0
M  V30 10325 H 951.862 -2.65017 -1.48324 0
M  V30 10326 H 949.447 -1.33454 -0.671603 0
M  V30 10327 H 951.329 -1.83125 -3.7953 0
M  V30 10328 H 950.004 -0.840155 -3.12607 0
M  V30 10329 H 948.911 -2.98664 -2.2528 0
M  V30 10330 H 950.244 -3.9176 -2.97968 0
M  V30 10331 N 951.896 0.746133 -1.38819 0
M  V30 10332 C 953.173 1.49652 -1.25951 0
M  V30 10333 C 953.553 2.10663 0.135833 0
M  V30 10334 O 952.901 1.97682 1.14604 0
M  V30 10335 C 953.111 2.5569 -2.37537 0
M  V30 10336 C 954.459 3.22385 -2.76321 0
M  V30 10337 O 955.483 2.65998 -2.36904 0
M  V30 10338 O 954.342 4.2439 -3.44319 0
M  V30 10339 H 951.436 0.664019 -0.492958 0
M  V30 10340 H 953.982 0.780908 -1.50665 0
M  V30 10341 H 952.754 2.08908 -3.30867 0
M  V30 10342 H 952.377 3.34823 -2.14427 0
M  V30 10343 N 953.375 1.23811 0.975125 0
M  V30 10344 C 954.603 1.10019 1.75224 0
M  V30 10345 C 955.018 -0.34791 1.85567 0
M  V30 10346 O 954.375 -1.24043 1.33864 0
M  V30 10347 C 954.426 1.72572 3.1765 0
M  V30 10348 O 954.147 3.11719 3.07836 0
M  V30 10349 C 955.648 1.64292 4.11732 0
M  V30 10350 H 952.868 0.38476 0.549728 0
M  V30 10351 H 955.412 1.63768 1.22476 0
M  V30 10352 H 953.567 1.22843 3.67408 0
M  V30 10353 H 953.981 3.42152 3.97533 0
M  V30 10354 H 955.455 2.12754 5.09352 0
M  V30 10355 H 955.932 0.602722 4.35045 0
M  V30 10356 H 956.538 2.13411 3.6788 0
M  V30 10357 N 954.853 -1.17469 1.05066 0
M  V30 10358 C 956.078 -1.92162 0.780298 0
M  V30 10359 C 956.503 -1.76222 -0.657832 0
M  V30 10360 O 955.861 -1.0791 -1.45688 0
M  V30 10361 C 955.909 -3.41292 1.16414 0
M  V30 10362 O 955.013 -4.1134 0.295531 0
M  V30 10363 H 954.354 -0.599127 0.286257 0
M  V30 10364 H 956.884 -1.48903 1.40318 0
M  V30 10365 H 956.894 -3.92029 1.13036 0
M  V30 10366 H 955.569 -3.52214 2.21175 0
M  V30 10367 H 954.146 -3.70857 0.389797 0
M  V30 10368 N 956.331 -0.831506 -1.3388 0
M  V30 10369 C 957.578 -0.423674 -1.98018 0
M  V30 10370 C 957.906 1.01533 -1.65895 0
M  V30 10371 O 957.161 1.72342 -0.927183 0
M  V30 10372 C 957.46 -0.582733 -3.52617 0
M  V30 10373 C 957.126 -1.98874 -4.04673 0
M  V30 10374 C 955.788 -2.37334 -4.186 0
M  V30 10375 C 958.14 -2.90745 -4.3257 0
M  V30 10376 C 955.468 -3.66984 -4.57755 0
M  V30 10377 C 957.82 -4.19868 -4.73174 0
M  V30 10378 C 956.484 -4.58294 -4.85307 0
M  V30 10379 H 955.754 -0.155033 -0.7246 0
M  V30 10380 H 958.401 -1.05711 -1.59679 0
M  V30 10381 H 956.706 0.134052 -3.91571 0
M  V30 10382 H 958.403 -0.247576 -4.00235 0
M  V30 10383 H 954.993 -1.68001 -3.94301 0
M  V30 10384 H 959.177 -2.62272 -4.2134 0
M  V30 10385 H 954.433 -3.9657 -4.65341 0
M  V30 10386 H 958.607 -4.91138 -4.93717 0
M  V30 10387 H 956.234 -5.58805 -5.15404 0
M  V30 10388 N 957.809 1.4625 -0.587256 0
M  V30 10389 C 958.739 2.33132 0.131076 0
M  V30 10390 C 959.72 1.45619 0.879158 0
M  V30 10391 O 960.905 1.74428 0.853723 0
M  V30 10392 C 958.035 3.27975 1.14236 0
M  V30 10393 C 956.989 4.24965 0.508819 0
M  V30 10394 C 956.315 5.09349 1.62689 0
M  V30 10395 C 957.615 5.19322 -0.55694 0
M  V30 10396 H 959.309 2.93442 -0.594333 0
M  V30 10397 H 956.855 1.41106 -0.287263 0
M  V30 10398 H 958.808 3.87614 1.65328 0
M  V30 10399 H 957.532 2.65781 1.8981 0
M  V30 10400 H 956.191 3.66595 0.0189337 0
M  V30 10401 H 955.839 4.43537 2.37242 0
M  V30 10402 H 955.539 5.75036 1.20861 0
M  V30 10403 H 957.063 5.71852 2.14049 0
M  V30 10404 H 958.477 5.73151 -0.130903 0
M  V30 10405 H 956.874 5.93376 -0.895801 0
M  V30 10406 H 957.944 4.62979 -1.44148 0
M  V30 10407 N 959.287 0.325282 1.54207 0
M  V30 10408 C 960.534 -0.276775 2.006 0
M  V30 10409 C 960.862 -1.52007 1.21343 0
M  V30 10410 O 960.117 -1.93627 0.284104 0
M  V30 10411 C 960.416 -0.654292 3.5136 0
M  V30 10412 C 960.082 0.490023 4.48229 0
M  V30 10413 C 958.744 0.804104 4.74434 0
M  V30 10414 C 961.096 1.2586 5.05775 0
M  V30 10415 C 958.424 1.88945 5.55443 0
M  V30 10416 C 960.776 2.33405 5.87967 0
M  V30 10417 C 959.44 2.65393 6.12473 0
M  V30 10418 H 958.71 -0.101279 0.734046 0
M  V30 10419 H 961.357 0.449416 1.86152 0
M  V30 10420 H 959.662 -1.46093 3.63544 0
M  V30 10421 H 961.359 -1.13171 3.84699 0
M  V30 10422 H 957.949 0.235147 4.27954 0
M  V30 10423 H 962.133 1.02921 4.85511 0
M  V30 10424 H 957.389 2.14174 5.7266 0
M  V30 10425 H 961.563 2.93402 6.31576 0
M  V30 10426 H 959.19 3.49622 6.75032 0
M  V30 10427 N 960.765 -1.57509 0.0534917 0
M  V30 10428 C 961.712 -2.11667 -0.920101 0
M  V30 10429 C 962.682 -1.0246 -1.30733 0
M  V30 10430 O 963.867 -1.30021 -1.39639 0
M  V30 10431 C 961.007 -2.66803 -2.18883 0
M  V30 10432 C 960.12 -3.90104 -1.85588 0
M  V30 10433 C 959.255 -4.33547 -3.06937 0
M  V30 10434 C 958.294 -5.49542 -2.69573 0
M  V30 10435 N 957.431 -5.88029 -3.83623 0
M  V30 10436 H 962.271 -2.94562 -0.451371 0
M  V30 10437 H 959.808 -1.45576 -0.211168 0
M  V30 10438 H 961.766 -2.96871 -2.93127 0
M  V30 10439 H 960.396 -1.86702 -2.63329 0
M  V30 10440 H 959.448 -3.66613 -1.01484 0
M  V30 10441 H 960.76 -4.74404 -1.54087 0
M  V30 10442 H 959.914 -4.6518 -3.89477 0
M  V30 10443 H 958.653 -3.48064 -3.41618 0
M  V30 10444 H 957.658 -5.17579 -1.8545 0
M  V30 10445 H 958.883 -6.36743 -2.36082 0
M  V30 10446 H 956.829 -5.05498 -4.181 0
M  V30 10447 H 956.746 -6.67025 -3.55828 0
M  V30 10448 H 958.014 -6.24277 -4.66796 0
M  V30 10449 N 962.243 0.219913 -1.56058 0
M  V30 10450 C 963.191 1.29215 -1.93407 0
M  V30 10451 C 964.185 1.48434 -0.816307 0
M  V30 10452 O 965.391 1.49589 -1.00115 0
M  V30 10453 H 961.766 0.433256 -0.614649 0
M  V30 10454 H 963.737 0.949977 -2.82875 0
M  V30 10455 C 962.486 2.63501 -2.26854 0
M  V30 10456 H 961.809 2.4952 -3.12377 0
M  V30 10457 H 963.249 3.37334 -2.56869 0
M  V30 10458 C 961.708 3.18634 -1.09425 0
M  V30 10459 O 962.238 4.00117 -0.356243 0
M  V30 10460 N 960.444 2.7703 -0.877642 0
M  V30 10461 H 959.991 2.10875 -1.47951 0
M  V30 10462 H 959.949 3.1426 -0.0936792 0
M  V30 10463 N 963.721 1.49897 0.486681 0
M  V30 10464 C 964.968 1.60105 1.23986 0
M  V30 10465 C 965.296 0.294228 1.92262 0
M  V30 10466 O 964.551 -0.718876 1.82018 0
M  V30 10467 C 964.85 2.71982 2.31863 0
M  V30 10468 C 964.516 4.13 1.80948 0
M  V30 10469 C 963.178 4.51373 1.66782 0
M  V30 10470 C 965.53 5.01198 1.43004 0
M  V30 10471 C 962.858 5.75701 1.13072 0
M  V30 10472 C 965.21 6.26058 0.90742 0
M  V30 10473 C 963.874 6.63247 0.752269 0
M  V30 10474 H 963.144 0.585866 0.453698 0
M  V30 10475 H 965.791 1.83778 0.538305 0
M  V30 10476 H 964.096 2.42336 3.07865 0
M  V30 10477 H 965.793 2.77087 2.89869 0
M  V30 10478 H 962.383 3.82718 1.92937 0
M  V30 10479 H 966.567 4.72196 1.52789 0
M  V30 10480 H 961.823 6.03202 0.997842 0
M  V30 10481 H 965.997 6.9377 0.604684 0
M  V30 10482 H 963.624 7.59466 0.33392 0
M  V30 10483 N 965.199 -0.738761 1.39212 0
M  V30 10484 C 966.129 -1.86602 1.40364 0
M  V30 10485 C 967.11 -1.67984 0.267495 0
M  V30 10486 O 968.295 -1.88358 0.472765 0
M  V30 10487 C 965.425 -3.24308 1.24265 0
M  V30 10488 C 964.379 -3.57557 2.35239 0
M  V30 10489 C 963.705 -4.94159 2.04233 0
M  V30 10490 C 965.005 -3.60914 3.77543 0
M  V30 10491 H 966.699 -1.85896 2.34698 0
M  V30 10492 H 964.245 -0.892959 1.1297 0
M  V30 10493 H 966.198 -4.02838 1.23692 0
M  V30 10494 H 964.922 -3.25531 0.263974 0
M  V30 10495 H 963.581 -2.81354 2.35022 0
M  V30 10496 H 963.229 -4.91959 1.04813 0
M  V30 10497 H 962.929 -5.17373 2.78567 0
M  V30 10498 H 964.453 -5.7505 2.05303 0
M  V30 10499 H 965.867 -4.29528 3.79709 0
M  V30 10500 H 964.264 -3.95644 4.51205 0
M  V30 10501 H 965.334 -2.60803 4.08791 0
M  V30 10502 N 966.677 -1.24326 -0.968545 0
M  V30 10503 C 967.607 -1.05951 -2.08079 0
M  V30 10504 C 968.588 0.0272666 -1.70078 0
M  V30 10505 O 969.773 -0.139644 -1.93697 0
M  V30 10506 C 966.903 -0.662623 -3.4092 0
M  V30 10507 C 965.857 -1.69807 -3.92873 0
M  V30 10508 C 965.183 -1.15628 -5.22048 0
M  V30 10509 C 966.483 -3.09383 -4.20808 0
M  V30 10510 H 968.177 -1.98984 -2.23709 0
M  V30 10511 H 965.723 -0.958112 -1.075 0
M  V30 10512 H 967.676 -0.521071 -4.18166 0
M  V30 10513 H 966.4 0.303399 -3.25188 0
M  V30 10514 H 965.059 -1.82783 -3.17783 0
M  V30 10515 H 964.707 -0.180888 -5.02675 0
M  V30 10516 H 964.407 -1.84822 -5.57776 0
M  V30 10517 H 965.931 -1.02683 -6.01904 0
M  V30 10518 H 967.345 -2.99642 -4.88761 0
M  V30 10519 H 965.742 -3.75923 -4.67763 0
M  V30 10520 H 966.812 -3.57486 -3.27616 0
M  V30 10521 N 968.156 1.1691 -1.05688 0
M  V30 10522 C 969.433 1.83266 -0.683601 0
M  V30 10523 C 969.813 1.93858 0.835602 0
M  V30 10524 O 969.161 1.47696 1.7435 0
M  V30 10525 C 969.371 3.20625 -1.37842 0
M  V30 10526 C 970.719 3.96473 -1.51967 0
M  V30 10527 O 971.743 3.30122 -1.33783 0
M  V30 10528 O 970.602 5.15393 -1.81749 0
M  V30 10529 H 967.696 0.791028 -0.241254 0
M  V30 10530 H 970.242 1.24165 -1.15677 0
M  V30 10531 H 969.014 3.07914 -2.41463 0
M  V30 10532 H 968.637 3.87398 -0.894921 0
M  V30 10533 N 969.634 0.838594 1.33437 0
M  V30 10534 C 970.883 0.430484 1.97053 0
M  V30 10535 C 971.196 -1.01556 1.6717 0
M  V30 10536 O 972.402 -1.52834 2.24397 0
M  V30 10537 C 970.858 0.718828 3.52648 0
M  V30 10538 C 970.466 2.17953 3.91408 0
M  V30 10539 C 972.21 0.377654 4.22817 0
M  V30 10540 C 970.117 2.41194 5.39981 0
M  V30 10541 H 969.047 0.157239 0.737422 0
M  V30 10542 H 971.698 1.02714 1.5206 0
M  V30 10543 H 970.08 0.0518042 3.95966 0
M  V30 10544 H 971.254 2.88701 3.59149 0
M  V30 10545 H 969.569 2.48366 3.34221 0
M  V30 10546 H 972.166 0.528926 5.32077 0
M  V30 10547 H 972.509 -0.679338 4.1072 0
M  V30 10548 H 973.042 0.999899 3.85028 0
M  V30 10549 H 969.781 3.45457 5.57081 0
M  V30 10550 H 969.301 1.75007 5.73701 0
M  V30 10551 H 970.98 2.24334 6.06863 0
M  V30 10552 N 971.112 -1.45937 0.595003 0
M  V30 10553 C 972.359 -2.0232 0.0853053 0
M  V30 10554 C 972.687 -1.465 -1.27937 0
M  V30 10555 O 971.942 -0.624767 -1.85459 0
M  V30 10556 C 972.241 -3.57396 -0.0173747 0
M  V30 10557 C 971.907 -4.32311 1.28131 0
M  V30 10558 C 970.569 -4.52496 1.63708 0
M  V30 10559 C 972.921 -4.75233 2.14017 0
M  V30 10560 C 970.249 -5.12857 2.84947 0
M  V30 10561 C 972.601 -5.36933 3.34493 0
M  V30 10562 C 971.265 -5.55343 3.70338 0
M  V30 10563 H 970.535 -0.740342 0.0312154 0
M  V30 10564 H 973.182 -1.75157 0.774103 0
M  V30 10565 H 971.487 -3.83766 -0.789371 0
M  V30 10566 H 973.184 -3.98713 -0.427699 0
M  V30 10567 H 969.774 -4.16905 0.994374 0
M  V30 10568 H 973.958 -4.59383 1.87833 0
M  V30 10569 H 969.214 -5.253 3.12841 0
M  V30 10570 H 973.388 -5.69147 4.01304 0
M  V30 10571 H 971.015 -6.01883 4.64371 0
M  V30 10572 N 972.59 -0.333456 -1.54032 0
M  V30 10573 C 973.538 0.543414 -2.26163 0
M  V30 10574 C 974.532 1.11037 -1.27934 0
M  V30 10575 O 975.738 1.05727 -1.45677 0
M  V30 10576 H 972.113 0.19391 -0.726569 0
M  V30 10577 H 974.084 -0.0871052 -2.98273 0
M  V30 10578 C 972.833 1.68769 -3.03994 0
M  V30 10579 H 972.156 1.26069 -3.79403 0
M  V30 10580 H 973.596 2.27662 -3.57695 0
M  V30 10581 C 972.055 2.61117 -2.12884 0
M  V30 10582 O 972.585 3.63097 -1.71823 0
M  V30 10583 N 970.791 2.29573 -1.7817 0
M  V30 10584 H 970.338 1.46684 -2.11759 0
M  V30 10585 H 970.296 2.91622 -1.1749 0
M  V30 10586 N 974.068 1.57479 -0.061844 0
M  V30 10587 C 975.015 2.12152 0.908862 0
M  V30 10588 C 975.985 1.03152 1.30188 0
M  V30 10589 O 977.17 1.3076 1.38948 0
M  V30 10590 C 974.31 2.6796 2.17465 0
M  V30 10591 C 973.423 3.91083 1.83517 0
M  V30 10592 C 972.558 4.35169 3.04633 0
M  V30 10593 C 971.597 5.50964 2.66655 0
M  V30 10594 N 970.734 5.90055 3.80499 0
M  V30 10595 H 975.574 2.94797 0.435743 0
M  V30 10596 H 973.111 1.45686 0.203445 0
M  V30 10597 H 975.069 2.98421 2.91548 0
M  V30 10598 H 973.699 1.88096 2.62335 0
M  V30 10599 H 972.751 3.67146 0.995381 0
M  V30 10600 H 974.063 4.75214 1.51569 0
M  V30 10601 H 973.217 4.67239 3.87005 0
M  V30 10602 H 971.956 3.49871 3.39767 0
M  V30 10603 H 970.961 5.18556 1.82703 0
M  V30 10604 H 972.186 6.37986 2.32702 0
M  V30 10605 H 970.132 5.07708 4.15414 0
M  V30 10606 H 970.049 6.68903 3.52285 0
M  V30 10607 H 971.317 6.26744 4.63479 0
M  V30 10608 N 975.546 -0.211634 1.56173 0
M  V30 10609 C 976.493 -1.26231 1.93221 0
M  V30 10610 C 977.463 -1.46076 0.790641 0
M  V30 10611 O 978.648 -1.59482 1.04739 0
M  V30 10612 C 975.788 -2.60559 2.26281 0
M  V30 10613 C 974.901 -2.48431 3.5342 0
M  V30 10614 C 974.036 -3.7535 3.7588 0
M  V30 10615 C 973.075 -3.57985 4.96501 0
M  V30 10616 N 972.212 -4.76877 5.15299 0
M  V30 10617 H 977.052 -0.939367 2.82807 0
M  V30 10618 H 974.589 -0.452511 1.39967 0
M  V30 10619 H 976.547 -3.38796 2.43461 0
M  V30 10620 H 975.177 -2.9093 1.39855 0
M  V30 10621 H 974.229 -1.61577 3.44379 0
M  V30 10622 H 975.541 -2.31526 4.41811 0
M  V30 10623 H 974.695 -4.62029 3.9321 0
M  V30 10624 H 973.434 -3.95191 2.85788 0
M  V30 10625 H 972.439 -2.69691 4.79111 0
M  V30 10626 H 973.664 -3.39605 5.88086 0
M  V30 10627 H 971.61 -4.97013 4.28152 0
M  V30 10628 H 971.527 -4.62735 5.9784 0
M  V30 10629 H 972.795 -5.64954 5.37073 0
M  V30 10630 N 977.024 -1.50153 -0.478725 0
M  V30 10631 C 977.971 -1.68458 -1.57767 0
M  V30 10632 C 978.941 -0.5259 -1.57555 0
M  V30 10633 O 980.126 -0.755574 -1.75202 0
M  V30 10634 C 977.266 -1.77772 -2.95789 0
M  V30 10635 C 976.379 -3.05092 -3.05848 0
M  V30 10636 C 975.514 -3.05247 -4.34739 0
M  V30 10637 C 974.553 -4.27053 -4.38512 0
M  V30 10638 N 973.69 -4.24991 -5.58862 0
M  V30 10639 H 978.53 -2.62282 -1.41464 0
M  V30 10640 H 976.067 -1.30023 -0.687921 0
M  V30 10641 H 978.025 -1.81152 -3.75819 0
M  V30 10642 H 976.655 -0.873944 -3.10744 0
M  V30 10643 H 975.707 -3.11219 -2.1874 0
M  V30 10644 H 977.019 -3.95075 -3.04495 0
M  V30 10645 H 976.173 -3.07314 -5.23109 0
M  V30 10646 H 974.912 -2.13081 -4.38689 0
M  V30 10647 H 973.917 -4.25206 -3.4854 0
M  V30 10648 H 975.142 -5.20437 -4.36259 0
M  V30 10649 H 973.088 -3.35674 -5.63612 0
M  V30 10650 H 973.005 -5.08734 -5.59219 0
M  V30 10651 H 974.273 -4.31193 -6.49379 0
M  V30 10652 N 978.502 0.731368 -1.39602 0
M  V30 10653 C 979.434 1.85575 -1.34516 0
M  V30 10654 C 980.447 1.60818 -0.253287 0
M  V30 10655 O 981.636 1.70984 -0.512505 0
M  V30 10656 C 978.736 3.21673 -1.06676 0
M  V30 10657 C 977.909 3.73757 -2.27211 0
M  V30 10658 C 976.968 4.88426 -1.95773 0
M  V30 10659 O 975.994 5.01898 -2.68491 0
M  V30 10660 N 977.196 5.73065 -0.926083 0
M  V30 10661 H 979.961 1.90442 -2.31413 0
M  V30 10662 H 977.522 0.912258 -1.33752 0
M  V30 10663 H 979.514 3.95959 -0.836577 0
M  V30 10664 H 978.084 3.12052 -0.185003 0
M  V30 10665 H 977.304 2.90781 -2.66158 0
M  V30 10666 H 978.592 4.05289 -3.07601 0
M  V30 10667 H 977.99 5.64774 -0.323497 0
M  V30 10668 H 976.547 6.47403 -0.755795 0
M  V30 10669 N 979.98 1.24838 0.961938 0
M  V30 10670 C 981.21 1.11709 1.73795 0
M  V30 10671 C 981.618 -0.33263 1.86253 0
M  V30 10672 O 980.961 -1.24101 1.35443 0
M  V30 10673 C 981.023 1.68959 3.17322 0
M  V30 10674 C 980.687 3.17895 3.28316 0
M  V30 10675 C 981.684 4.14975 3.13196 0
M  V30 10676 C 979.369 3.57966 3.52372 0
M  V30 10677 C 981.363 5.50107 3.21965 0
M  V30 10678 C 979.05 4.93237 3.60778 0
M  V30 10679 C 980.048 5.89116 3.45588 0
M  V30 10680 O 979.736 7.21927 3.53662 0
M  V30 10681 H 979.468 0.390726 0.551642 0
M  V30 10682 H 982.022 1.65541 1.21594 0
M  V30 10683 H 980.252 1.09567 3.70853 0
M  V30 10684 H 981.941 1.51036 3.76753 0
M  V30 10685 H 982.707 3.85359 2.94489 0
M  V30 10686 H 978.586 2.83837 3.63259 0
M  V30 10687 H 982.13 6.24924 3.10025 0
M  V30 10688 H 978.027 5.22522 3.79 0
M  V30 10689 H 978.795 7.29925 3.7034 0
M  V30 10690 N 981.458 -1.16348 1.06306 0
M  V30 10691 C 982.874 -1.38873 0.786543 0
M  V30 10692 C 983.074 -1.91915 -0.614061 0
M  V30 10693 O 982.13 -2.11804 -1.3746 0
M  V30 10694 C 983.443 -2.36936 1.85154 0
M  V30 10695 C 984.991 -2.5062 1.87506 0
M  V30 10696 C 985.466 -3.51965 2.9306 0
M  V30 10697 N 986.957 -3.59492 2.92095 0
M  V30 10698 C 987.692 -4.37699 3.70415 0
M  V30 10699 N 987.188 -5.19327 4.58553 0
M  V30 10700 N 988.981 -4.32683 3.58806 0
M  V30 10701 H 981.132 -0.802542 1.96655 0
M  V30 10702 H 983.395 -0.415304 0.852189 0
M  V30 10703 H 983.101 -2.05056 2.85736 0
M  V30 10704 H 982.975 -3.36585 1.70267 0
M  V30 10705 H 985.362 -2.81804 0.875827 0
M  V30 10706 H 985.443 -1.51006 2.06472 0
M  V30 10707 H 985.087 -3.21518 3.93177 0
M  V30 10708 H 985.017 -4.51309 2.71344 0
M  V30 10709 H 987.508 -3.01222 2.28197 0
M  V30 10710 H 987.821 -5.76216 5.1497 0
M  V30 10711 H 986.166 -5.1867 4.62608 0
M  V30 10712 H 989.357 -3.67971 2.89335 0
M  V30 10713 H 989.53 -4.93386 4.20088 0
M  V30 10714 N 982.937 -0.845659 -1.3299 0
M  V30 10715 C 983.847 -0.2864 -2.32845 0
M  V30 10716 C 984.863 0.591105 -1.63652 0
M  V30 10717 O 986.039 0.493615 -1.95257 0
M  V30 10718 C 983.104 0.523636 -3.42723 0
M  V30 10719 C 982.165 -0.378945 -4.27624 0
M  V30 10720 C 981.398 0.392526 -5.32255 0
M  V30 10721 O 981.621 1.6235 -5.46808 0
M  V30 10722 O 980.555 -0.237 -6.01433 0
M  V30 10723 H 984.381 -1.11346 -2.82552 0
M  V30 10724 H 981.966 -0.608356 -1.36453 0
M  V30 10725 H 983.848 0.983718 -4.09757 0
M  V30 10726 H 982.523 1.32764 -2.95221 0
M  V30 10727 H 981.43 -0.887012 -3.63432 0
M  V30 10728 H 982.763 -1.1479 -4.78627 0
M  V30 10729 N 984.415 1.45619 -0.602734 0
M  V30 10730 C 985.645 2.06348 -0.102105 0
M  V30 10731 C 986.053 1.44884 1.21677 0
M  V30 10732 O 985.396 0.555559 1.75098 0
M  V30 10733 C 985.458 3.59309 0.117026 0
M  V30 10734 C 985.122 4.43081 -1.11931 0
M  V30 10735 C 986.119 4.78364 -2.03627 0
M  V30 10736 C 983.804 4.83908 -1.34677 0
M  V30 10737 C 985.798 5.53325 -3.16403 0
M  V30 10738 C 983.485 5.58624 -2.47754 0
M  V30 10739 C 984.483 5.93249 -3.38445 0
M  V30 10740 O 984.171 6.6645 -4.49555 0
M  V30 10741 H 983.903 0.672988 -0.0637478 0
M  V30 10742 H 986.457 1.87928 -0.828983 0
M  V30 10743 H 984.687 3.76111 0.898742 0
M  V30 10744 H 986.376 4.01897 0.568649 0
M  V30 10745 H 987.142 4.47384 -1.87277 0
M  V30 10746 H 983.021 4.56396 -0.649875 0
M  V30 10747 H 986.565 5.80268 -3.87214 0
M  V30 10748 H 982.462 5.89019 -2.64059 0
M  V30 10749 H 983.23 6.84895 -4.48175 0
M  V30 10750 N 985.893 0.34162 1.53853 0
M  V30 10751 C 986.823 -0.508431 2.27897 0
M  V30 10752 C 987.804 -1.10425 1.29384 0
M  V30 10753 O 988.989 -1.126 1.58224 0
M  V30 10754 C 986.119 -1.66048 3.05034 0
M  V30 10755 C 985.073 -1.19309 4.11035 0
M  V30 10756 C 984.399 -2.4335 4.76114 0
M  V30 10757 C 985.699 -0.294952 5.21467 0
M  V30 10758 H 987.393 0.109251 2.99201 0
M  V30 10759 H 984.939 0.0539847 1.43899 0
M  V30 10760 H 986.892 -2.26158 3.5557 0
M  V30 10761 H 985.616 -2.30503 2.31379 0
M  V30 10762 H 984.275 -0.614809 3.61408 0
M  V30 10763 H 983.923 -3.06208 3.99056 0
M  V30 10764 H 983.623 -2.1276 5.47729 0
M  V30 10765 H 985.147 -3.0419 5.29434 0
M  V30 10766 H 986.561 -0.80285 5.67651 0
M  V30 10767 H 984.958 -0.0810221 6.00045 0
M  V30 10768 H 986.028 0.669433 4.80257 0
M  V30 10769 N 987.371 -1.57444 0.0701946 0
M  V30 10770 C 988.619 -1.93047 -0.598106 0
M  V30 10771 C 988.94 -0.950841 -1.70247 0
M  V30 10772 O 988.21 0.00127177 -1.959 0
M  V30 10773 H 986.79 -0.712648 -0.223924 0
M  V30 10774 H 989.452 -1.94481 0.127674 0
M  V30 10775 H 988.548 -2.94807 -1.02445 0
M  V30 10776 N 988.849 0.203349 -1.56283 0
M  V30 10777 C 990.079 0.940061 -1.83974 0
M  V30 10778 C 990.487 1.77703 -0.649486 0
M  V30 10779 O 989.83 1.79487 0.391189 0
M  V30 10780 C 989.892 1.89249 -3.05655 0
M  V30 10781 C 989.556 1.23828 -4.39904 0
M  V30 10782 C 990.553 0.619231 -5.16199 0
M  V30 10783 C 988.238 1.2446 -4.86636 0
M  V30 10784 C 990.232 0.0152287 -6.37398 0
M  V30 10785 C 987.919 0.636764 -6.07773 0
M  V30 10786 C 988.917 0.0231481 -6.82996 0
M  V30 10787 O 988.605 -0.575187 -8.0184 0
M  V30 10788 H 988.337 0.280199 -0.615194 0
M  V30 10789 H 990.891 0.218111 -2.04239 0
M  V30 10790 H 989.121 2.65392 -2.81254 0
M  V30 10791 H 990.81 2.4963 -3.20062 0
M  V30 10792 H 991.576 0.606545 -4.81192 0
M  V30 10793 H 987.455 1.71161 -4.28048 0
M  V30 10794 H 990.999 -0.464333 -6.96053 0
M  V30 10795 H 986.896 0.646924 -6.4225 0
M  V30 10796 H 987.664 -0.471284 -8.17142 0
M  V30 10797 N 990.327 1.50405 0.470755 0
M  V30 10798 C 991.275 1.6982 1.58946 0
M  V30 10799 C 992.269 0.56407 1.59733 0
M  V30 10800 O 993.475 0.744576 1.63878 0
M  V30 10801 H 989.85 0.536016 0.527438 0
M  V30 10802 H 991.821 2.63662 1.39732 0
M  V30 10803 C 990.57 1.80986 2.96883 0
M  V30 10804 H 989.893 2.67645 2.96996 0
M  V30 10805 H 991.333 1.98596 3.74614 0
M  V30 10806 C 989.792 0.561551 3.32187 0
M  V30 10807 O 990.322 -0.299136 4.00585 0
M  V30 10808 N 988.528 0.415476 2.87615 0
M  V30 10809 H 988.075 1.11691 2.32127 0
M  V30 10810 H 988.033 -0.418592 3.11601 0
M  V30 10811 N 991.805 -0.723954 1.39988 0
M  V30 10812 C 993.054 -1.47922 1.3712 0
M  V30 10813 C 993.367 -1.95582 -0.0263665 0
M  V30 10814 O 994.573 -2.70918 -0.177652 0
M  V30 10815 C 993.029 -2.67342 2.40949 0
M  V30 10816 C 992.637 -2.26586 3.86475 0
M  V30 10817 C 994.381 -3.45116 2.47174 0
M  V30 10818 C 992.288 -3.42794 4.81919 0
M  V30 10819 H 991.218 -0.555522 0.509815 0
M  V30 10820 H 993.869 -0.788692 1.65686 0
M  V30 10821 H 992.251 -3.38524 2.0547 0
M  V30 10822 H 993.425 -1.62878 4.31054 0
M  V30 10823 H 991.74 -1.61876 3.83647 0
M  V30 10824 H 994.337 -4.31573 3.15672 0
M  V30 10825 H 994.68 -3.8835 1.49966 0
M  V30 10826 H 995.213 -2.80971 2.81602 0
M  V30 10827 H 991.952 -3.046 5.8043 0
M  V30 10828 H 991.472 -4.05445 4.42012 0
M  V30 10829 H 993.151 -4.08977 5.01345 0
M  V30 10830 N 993.283 -1.25346 -0.955304 0
M  V30 10831 C 994.532 -1.0945 -1.69421 0
M  V30 10832 C 994.845 0.364459 -1.92175 0
M  V30 10833 O 996.051 0.643843 -2.63755 0
M  V30 10834 C 994.507 -1.91045 -3.05008 0
M  V30 10835 C 994.115 -3.41428 -2.90053 0
M  V30 10836 C 995.859 -1.83716 -3.82686 0
M  V30 10837 C 993.766 -4.1532 -4.21026 0
M  V30 10838 H 992.696 -0.405978 -0.635372 0
M  V30 10839 H 995.347 -1.49536 -1.06354 0
M  V30 10840 H 993.729 -1.43781 -3.68975 0
M  V30 10841 H 994.903 -3.9636 -2.35022 0
M  V30 10842 H 993.218 -3.49842 -2.25831 0
M  V30 10843 H 995.815 -2.36217 -4.79693 0
M  V30 10844 H 996.158 -0.804919 -4.08444 0
M  V30 10845 H 996.691 -2.28726 -3.25468 0
M  V30 10846 H 993.43 -5.18955 -4.00457 0
M  V30 10847 H 992.95 -3.65172 -4.75825 0
M  V30 10848 H 994.629 -4.22999 -4.89572 0
M  V30 10849 N 994.761 1.15782 -1.06922 0
M  V30 10850 C 995.991 1.90079 -0.809545 0
M  V30 10851 C 996.399 1.78028 0.640523 0
M  V30 10852 O 995.742 1.12692 1.45073 0
M  V30 10853 C 995.804 3.41179 -1.13302 0
M  V30 10854 C 995.468 3.77015 -2.5828 0
M  V30 10855 C 996.465 3.78403 -3.56521 0
M  V30 10856 C 994.15 4.07455 -2.93745 0
M  V30 10857 C 996.144 4.09729 -4.88264 0
M  V30 10858 C 993.831 4.38446 -4.25686 0
M  V30 10859 C 994.829 4.39564 -5.22755 0
M  V30 10860 O 994.517 4.69814 -6.52326 0
M  V30 10861 H 994.249 0.609397 -0.292595 0
M  V30 10862 H 996.803 1.47654 -1.42784 0
M  V30 10863 H 995.033 3.83982 -0.457676 0
M  V30 10864 H 996.722 3.96759 -0.856586 0
M  V30 10865 H 997.488 3.54991 -3.30464 0
M  V30 10866 H 993.367 4.05746 -2.1884 0
M  V30 10867 H 996.911 4.10516 -5.64023 0
M  V30 10868 H 992.808 4.61325 -4.51497 0
M  V30 10869 H 993.576 4.87598 -6.57412 0
M  V30 10870 N 996.239 0.8527 1.3254 0
M  V30 10871 C 997.488 0.45136 1.96585 0
M  V30 10872 C 997.801 -0.997773 1.68237 0
M  V30 10873 O 999.007 -1.50445 2.26006 0
M  V30 10874 C 997.463 0.75619 3.51866 0
M  V30 10875 C 997.071 2.22092 3.89075 0
M  V30 10876 C 998.815 0.422478 4.22392 0
M  V30 10877 C 996.722 2.46908 5.37392 0
M  V30 10878 H 995.652 0.165052 0.735713 0
M  V30 10879 H 998.303 1.04321 1.50962 0
M  V30 10880 H 996.685 0.0937988 3.95889 0
M  V30 10881 H 997.859 2.92494 3.56067 0
M  V30 10882 H 996.174 2.51896 3.31568 0
M  V30 10883 H 998.771 0.58533 5.31487 0
M  V30 10884 H 999.114 -0.635737 4.11417 0
M  V30 10885 H 999.647 1.04068 3.83946 0
M  V30 10886 H 996.386 3.51346 5.53386 0
M  V30 10887 H 995.906 1.81082 5.71812 0
M  V30 10888 H 997.585 2.30758 6.0445 0
M  V30 10889 N 997.718 -1.45297 0.610449 0
M  V30 10890 C 998.665 -2.30553 -0.106718 0
M  V30 10891 C 999.635 -1.42272 -0.85719 0
M  V30 10892 O 1000.82 -1.71199 -0.842357 0
M  V30 10893 C 997.96 -3.27226 -1.09623 0
M  V30 10894 C 997.073 -4.3061 -0.346329 0
M  V30 10895 C 996.208 -5.14389 -1.32581 0
M  V30 10896 C 995.247 -6.09497 -0.563892 0
M  V30 10897 N 994.384 -6.86047 -1.4928 0
M  V30 10898 H 999.224 -2.91344 0.626296 0
M  V30 10899 H 996.761 -1.43563 0.32065 0
M  V30 10900 H 998.719 -3.81744 -1.68308 0
M  V30 10901 H 997.349 -2.68182 -1.79662 0
M  V30 10902 H 996.401 -3.7873 0.356084 0
M  V30 10903 H 997.713 -4.98183 0.248026 0
M  V30 10904 H 996.867 -5.73321 -1.98464 0
M  V30 10905 H 995.606 -4.4684 -1.9541 0
M  V30 10906 H 994.611 -5.49693 0.108551 0
M  V30 10907 H 995.836 -6.79074 0.0593872 0
M  V30 10908 H 993.782 -6.21185 -2.10868 0
M  V30 10909 H 993.699 -7.49983 -0.951953 0
M  V30 10910 H 994.967 -7.49518 -2.14112 0
M  V30 10911 N 999.196 -0.349774 -1.5367 0
M  V30 10912 C 1000.14 0.504121 -2.25227 0
M  V30 10913 C 1001.11 1.09048 -1.2529 0
M  V30 10914 O 1002.3 1.12594 -1.54037 0
M  V30 10915 C 999.438 1.64601 -3.03316 0
M  V30 10916 C 998.551 1.08635 -4.18118 0
M  V30 10917 C 997.686 2.19605 -4.83681 0
M  V30 10918 C 996.725 1.61023 -5.90541 0
M  V30 10919 N 995.862 2.6576 -6.49858 0
M  V30 10920 H 1000.7 -0.112621 -2.97787 0
M  V30 10921 H 998.239 -0.0673503 -1.46946 0
M  V30 10922 H 1000.2 2.31836 -3.46854 0
M  V30 10923 H 998.827 2.23364 -2.33041 0
M  V30 10924 H 997.879 0.304748 -3.79177 0
M  V30 10925 H 999.191 0.617911 -4.94958 0
M  V30 10926 H 998.345 2.94693 -5.30322 0
M  V30 10927 H 997.084 2.69795 -4.06278 0
M  V30 10928 H 996.089 0.844428 -5.43277 0
M  V30 10929 H 997.314 1.11677 -6.69855 0
M  V30 10930 H 995.26 3.15193 -5.75317 0
M  V30 10931 H 995.177 2.23557 -7.2219 0
M  V30 10932 H 996.445 3.40598 -7.01151 0
M  V30 10933 N 1000.67 1.57404 -0.0785433 0
M  V30 10934 C 1001.62 2.13104 0.88631 0
M  V30 10935 C 1002.59 1.04527 1.29086 0
M  V30 10936 O 1003.78 1.32226 1.37553 0
M  V30 10937 C 1000.92 2.70252 2.14611 0
M  V30 10938 C 1000.03 3.93007 1.79358 0
M  V30 10939 C 999.164 4.38376 3 0
M  V30 10940 C 998.203 5.53761 2.60796 0
M  V30 10941 N 997.34 5.94058 3.74219 0
M  V30 10942 H 1002.18 2.95243 0.404452 0
M  V30 10943 H 999.717 1.45894 0.187982 0
M  V30 10944 H 1001.67 3.01497 2.88367 0
M  V30 10945 H 1000.3 1.90868 2.60326 0
M  V30 10946 H 999.357 3.68181 0.956384 0
M  V30 10947 H 1000.67 4.76795 1.4652 0
M  V30 10948 H 999.823 4.71317 3.82027 0
M  V30 10949 H 998.562 3.53455 3.36037 0
M  V30 10950 H 997.567 5.20464 1.77192 0
M  V30 10951 H 998.792 6.40419 2.25922 0
M  V30 10952 H 996.738 5.12085 4.10005 0
M  V30 10953 H 996.655 6.72602 3.45171 0
M  V30 10954 H 997.923 6.31624 4.56805 0
M  V30 10955 N 1002.15 -0.195058 1.56388 0
M  V30 10956 C 1003.4 -0.9168 1.80894 0
M  V30 10957 C 1003.73 -1.82907 0.652592 0
M  V30 10958 O 1003.01 -1.91382 -0.346853 0
M  V30 10959 C 1003.29 -1.733 3.15657 0
M  V30 10960 C 1003.14 -0.845449 4.41783 0
M  V30 10961 C 1004.46 -2.70557 3.47112 0
M  V30 10962 H 1001.58 -0.331861 0.658056 0
M  V30 10963 H 1004.22 -0.184174 1.89105 0
M  V30 10964 H 1002.37 -2.3576 3.08787 0
M  V30 10965 H 1004.04 -0.235557 4.60698 0
M  V30 10966 H 1002.29 -0.152172 4.33533 0
M  V30 10967 H 1002.96 -1.45152 5.32574 0
M  V30 10968 H 1005.43 -2.1823 3.54281 0
M  V30 10969 H 1004.31 -3.24749 4.42526 0
M  V30 10970 H 1004.57 -3.49605 2.70608 0
M  V30 10971 N 1003.63 -1.50653 -0.462772 0
M  V30 10972 C 1004.56 -1.73056 -1.5676 0
M  V30 10973 C 1005.54 -0.579699 -1.59917 0
M  V30 10974 O 1006.73 -0.819729 -1.76051 0
M  V30 10975 C 1003.86 -1.83234 -2.9503 0
M  V30 10976 C 1002.81 -2.98488 -3.06739 0
M  V30 10977 C 1002.14 -2.93818 -4.46738 0
M  V30 10978 C 1003.44 -4.38869 -2.83181 0
M  V30 10979 H 1005.13 -2.65562 -1.38265 0
M  V30 10980 H 1002.68 -1.27792 -0.663722 0
M  V30 10981 H 1004.63 -1.97491 -3.72257 0
M  V30 10982 H 1003.35 -0.873558 -3.14701 0
M  V30 10983 H 1002.01 -2.83895 -2.31946 0
M  V30 10984 H 1001.66 -1.95769 -4.63339 0
M  V30 10985 H 1001.36 -3.71197 -4.55507 0
M  V30 10986 H 1002.88 -3.10135 -5.25974 0
M  V30 10987 H 1004.3 -4.53945 -3.50153 0
M  V30 10988 H 1002.69 -5.17762 -3.03386 0
M  V30 10989 H 1003.76 -4.50663 -1.78972 0
M  V30 10990 N 1005.11 0.71652 -1.4037 0
M  V30 10991 C 1006.04 1.84345 -1.43315 0
M  V30 10992 C 1007.02 1.67537 -0.294186 0
M  V30 10993 O 1008.2 1.87582 -0.502671 0
M  V30 10994 C 1005.33 3.2229 -1.29408 0
M  V30 10995 C 1004.29 3.53769 -2.40897 0
M  V30 10996 C 1003.61 4.90847 -2.12068 0
M  V30 10997 C 1004.91 3.54862 -3.83237 0
M  V30 10998 H 1006.61 1.82138 -2.37626 0
M  V30 10999 H 1004.15 0.874873 -1.14376 0
M  V30 11000 H 1006.11 4.00819 -1.30085 0
M  V30 11001 H 1004.83 3.2507 -0.31573 0
M  V30 11002 H 1003.49 2.77579 -2.39469 0
M  V30 11003 H 1003.14 4.90229 -1.12626 0
M  V30 11004 H 1002.84 5.12875 -2.86762 0
M  V30 11005 H 1004.36 5.71711 -2.14426 0
M  V30 11006 H 1005.78 4.23432 -3.86494 0
M  V30 11007 H 1004.17 3.88416 -4.57442 0
M  V30 11008 H 1005.24 2.54266 -4.12888 0
M  V30 11009 N 1006.59 1.25851 0.948643 0
M  V30 11010 C 1007.52 1.09248 2.06367 0
M  V30 11011 C 1008.5 -0.000205168 1.701 0
M  V30 11012 O 1009.68 0.170442 1.93451 0
M  V30 11013 C 1006.81 0.716777 3.39823 0
M  V30 11014 C 1005.77 1.76036 3.90122 0
M  V30 11015 C 1005.09 1.23918 5.20143 0
M  V30 11016 C 1006.39 3.16039 4.15833 0
M  V30 11017 H 1008.09 2.02518 2.20515 0
M  V30 11018 H 1005.63 0.975093 1.05962 0
M  V30 11019 H 1007.59 0.587531 4.17284 0
M  V30 11020 H 1006.31 -0.251626 3.25629 0
M  V30 11021 H 1004.97 1.87815 3.14835 0
M  V30 11022 H 1004.62 0.260836 5.02323 0
M  V30 11023 H 1004.32 1.93673 5.54765 0
M  V30 11024 H 1005.84 1.12245 6.00194 0
M  V30 11025 H 1007.25 3.0738 4.83933 0
M  V30 11026 H 1005.65 3.83317 4.61723 0
M  V30 11027 H 1006.72 3.62652 3.21887 0
M  V30 11028 N 1008.06 -1.15214 1.07534 0
M  V30 11029 C 1009.31 -1.85676 0.79805 0
M  V30 11030 C 1009.63 -1.82837 -0.677919 0
M  V30 11031 O 1008.9 -1.27059 -1.49107 0
M  V30 11032 H 1007.48 -0.687468 0.292227 0
M  V30 11033 H 1010.15 -1.39658 1.35947 0
M  V30 11034 H 1009.24 -2.9076 1.13423 0
M  V30 11035 N 1009.54 -0.859717 -1.32086 0
M  V30 11036 C 1010.77 -0.478865 -2.01796 0
M  V30 11037 C 1011.19 0.918274 -1.64163 0
M  V30 11038 O 1010.55 1.60409 -0.844896 0
M  V30 11039 C 1010.6 -0.631356 -3.5503 0
M  V30 11040 O 1009.7 0.333712 -4.11048 0
M  V30 11041 H 1009.04 -0.191775 -0.635703 0
M  V30 11042 H 1011.57 -1.16031 -1.68517 0
M  V30 11043 H 1011.58 -0.520783 -4.04663 0
M  V30 11044 H 1010.26 -1.65015 -3.81763 0
M  V30 11045 H 1008.84 0.178953 -3.7247 0
M  V30 11046 N 1011.02 1.44971 -0.618145 0
M  V30 11047 C 1012.27 2.0176 -0.11725 0
M  V30 11048 C 1012.59 1.48773 1.26062 0
M  V30 11049 O 1011.86 0.686152 1.83491 0
M  V30 11050 H 1010.44 0.745909 -0.0403545 0
M  V30 11051 H 1013.1 1.77638 -0.801923 0
M  V30 11052 H 1012.2 3.1201 -0.0750477 0
M  V30 11053 N 1012.5 0.357919 1.53482 0
M  V30 11054 C 1013.75 -0.2337 2.00744 0
M  V30 11055 C 1014.07 -1.49908 1.2471 0
M  V30 11056 O 1013.34 -1.92597 0.358235 0
M  V30 11057 H 1011.92 -0.0893474 0.741637 0
M  V30 11058 H 1014.58 0.482388 1.88836 0
M  V30 11059 H 1013.68 -0.466073 3.086 0
M  V30 11060 N 1013.98 -1.5736 0.0868897 0
M  V30 11061 C 1014.91 -2.16596 -0.872252 0
M  V30 11062 C 1015.89 -1.09706 -1.29995 0
M  V30 11063 O 1017.07 -1.37808 -1.36831 0
M  V30 11064 C 1014.2 -2.73972 -2.1344 0
M  V30 11065 C 1013.16 -3.86163 -1.8456 0
M  V30 11066 C 1012.48 -4.30206 -3.17533 0
M  V30 11067 C 1013.78 -5.0973 -1.13899 0
M  V30 11068 H 1015.48 -2.96995 -0.378738 0
M  V30 11069 H 1013.02 -1.42861 -0.18073 0
M  V30 11070 H 1014.98 -3.14062 -2.80968 0
M  V30 11071 H 1013.7 -1.90817 -2.6506 0
M  V30 11072 H 1012.36 -3.466 -1.19432 0
M  V30 11073 H 1012.01 -3.43951 -3.67024 0
M  V30 11074 H 1011.71 -5.05841 -2.98996 0
M  V30 11075 H 1013.23 -4.72922 -3.86234 0
M  V30 11076 H 1014.64 -5.4704 -1.71523 0
M  V30 11077 H 1013.04 -5.90741 -1.05569 0
M  V30 11078 H 1014.11 -4.8475 -0.120432 0
M  V30 11079 N 1015.45 0.186762 -1.56489 0
M  V30 11080 C 1016.69 0.912523 -1.829 0
M  V30 11081 C 1017.06 1.80094 -0.665598 0
M  V30 11082 O 1018.26 2.56312 -0.809787 0
M  V30 11083 C 1016.53 1.70022 -3.14368 0
M  V30 11084 S 1018.09 2.47686 -3.62211 0
M  V30 11085 H 1014.91 0.305916 -0.641823 0
M  V30 11086 H 1017.51 0.175289 -1.94713 0
M  V30 11087 H 1016.21 1.03832 -3.97048 0
M  V30 11088 H 1015.74 2.47912 -3.05456 0
M  V30 11089 H 1017.76 3.72058 -3.28309 0
M  V30 11090 N 1016.93 1.50896 0.454776 0
M  V30 11091 C 1018.18 1.61936 1.20248 0
M  V30 11092 C 1018.49 0.332983 1.92745 0
M  V30 11093 O 1019.7 0.322512 2.69578 0
M  V30 11094 C 1018.16 2.85916 2.18587 0
M  V30 11095 C 1017.76 4.21492 1.51818 0
M  V30 11096 C 1019.51 3.06307 2.93898 0
M  V30 11097 C 1017.42 5.3664 2.48539 0
M  V30 11098 H 1016.35 0.603098 0.452536 0
M  V30 11099 H 1019 1.77345 0.471257 0
M  V30 11100 H 1017.38 2.64101 2.95071 0
M  V30 11101 H 1018.55 4.53623 0.810123 0
M  V30 11102 H 1016.87 4.06837 0.887265 0
M  V30 11103 H 1019.46 3.89507 3.66317 0
M  V30 11104 H 1019.81 2.18683 3.54236 0
M  V30 11105 H 1020.34 3.2838 2.24525 0
M  V30 11106 H 1017.08 6.26469 1.92916 0
M  V30 11107 H 1016.6 5.08907 3.17449 0
M  V30 11108 H 1018.28 5.67881 3.10033 0
M  V30 11109 N 1018.41 -0.709066 1.40748 0
M  V30 11110 C 1019.66 -1.46611 1.39103 0
M  V30 11111 C 1019.98 -1.95 -0.00365366 0
M  V30 11112 O 1019.25 -1.70791 -0.959541 0
M  V30 11113 H 1017.83 -0.543954 0.511979 0
M  V30 11114 H 1020.49 -0.840141 1.75863 0
M  V30 11115 H 1019.59 -2.33581 2.06994 0
M  V30 11116 N 1019.89 -1.26353 -0.941956 0
M  V30 11117 C 1020.82 -1.03634 -2.04432 0
M  V30 11118 C 1021.83 0.00295864 -1.628 0
M  V30 11119 O 1023.02 -0.237029 -1.76919 0
M  V30 11120 C 1020.12 -0.547231 -3.34453 0
M  V30 11121 C 1019.3 -1.65559 -4.04857 0
M  V30 11122 C 1018.36 -1.16466 -5.13149 0
M  V30 11123 O 1017.38 -1.86158 -5.37898 0
M  V30 11124 N 1018.58 -0.0126703 -5.80499 0
M  V30 11125 H 1021.35 -1.98558 -2.24488 0
M  V30 11126 H 1018.91 -1.17728 -1.11138 0
M  V30 11127 H 1020.9 -0.203004 -4.04191 0
M  V30 11128 H 1019.47 0.308401 -3.11075 0
M  V30 11129 H 1018.69 -2.17079 -3.29044 0
M  V30 11130 H 1019.98 -2.39985 -4.48647 0
M  V30 11131 H 1019.38 0.569358 -5.62828 0
M  V30 11132 H 1017.93 0.272486 -6.5123 0
M  V30 11133 N 1021.37 1.14642 -1.08144 0
M  V30 11134 C 1022.33 2.17834 -0.712799 0
M  V30 11135 C 1023.33 1.58828 0.251041 0
M  V30 11136 O 1024.52 1.74173 0.0309381 0
M  V30 11137 C 1021.65 3.4086 -0.0519477 0
M  V30 11138 H 1022.85 2.51961 -1.62653 0
M  V30 11139 H 1020.4 1.29243 -0.878971 0
M  V30 11140 H 1021.13 3.12311 0.873636 0
M  V30 11141 H 1020.92 3.84952 -0.745286 0
M  V30 11142 H 1022.41 4.17163 0.191031 0
M  V30 11143 N 1022.85 0.866709 1.31628 0
M  V30 11144 C 1024.09 0.475086 1.96437 0
M  V30 11145 C 1024.41 -0.975179 1.68865 0
M  V30 11146 O 1023.68 -1.68317 1.0023 0
M  V30 11147 H 1022.26 0.172695 0.726764 0
M  V30 11148 H 1024.93 1.10578 1.60494 0
M  V30 11149 H 1024.02 0.630123 3.05673 0
M  V30 11150 N 1024.32 -1.44642 0.625825 0
M  V30 11151 C 1025.23 -2.34451 -0.0836134 0
M  V30 11152 C 1026.25 -1.5231 -0.841289 0
M  V30 11153 O 1027.43 -1.85056 -0.794754 0
M  V30 11154 C 1024.49 -3.30211 -1.05648 0
M  V30 11155 C 1023.55 -4.28259 -0.298759 0
M  V30 11156 C 1022.78 -5.19444 -1.22528 0
M  V30 11157 O 1023.01 -5.14444 -2.46382 0
M  V30 11158 O 1021.94 -5.97668 -0.71247 0
M  V30 11159 H 1025.77 -2.96555 0.654912 0
M  V30 11160 H 1023.35 -1.44327 0.386029 0
M  V30 11161 H 1025.23 -3.8917 -1.61632 0
M  V30 11162 H 1023.91 -2.70648 -1.77571 0
M  V30 11163 H 1022.82 -3.72863 0.304001 0
M  V30 11164 H 1024.15 -4.90728 0.380345 0
M  V30 11165 N 1025.8 -0.366053 -1.5329 0
M  V30 11166 C 1027.05 0.223493 -2.01263 0
M  V30 11167 C 1027.38 1.48736 -1.25331 0
M  V30 11168 O 1026.63 1.92805 -0.335341 0
M  V30 11169 C 1026.93 0.560906 -3.52971 0
M  V30 11170 C 1026.6 -0.60869 -4.46773 0
M  V30 11171 C 1025.26 -0.929609 -4.72135 0
M  V30 11172 C 1027.61 -1.39225 -5.02261 0
M  V30 11173 C 1024.94 -2.03606 -5.50238 0
M  V30 11174 C 1027.29 -2.48912 -5.81572 0
M  V30 11175 C 1025.95 -2.81538 -6.05221 0
M  V30 11176 H 1025.22 0.0817818 -0.736473 0
M  V30 11177 H 1027.87 -0.498613 -1.84895 0
M  V30 11178 H 1026.18 1.36403 -3.67289 0
M  V30 11179 H 1027.87 1.02931 -3.87564 0
M  V30 11180 H 1024.46 -0.348529 -4.27181 0
M  V30 11181 H 1028.65 -1.15757 -4.82612 0
M  V30 11182 H 1023.9 -2.29281 -5.6678 0
M  V30 11183 H 1028.08 -3.10044 -6.23575 0
M  V30 11184 H 1025.7 -3.67396 -6.65525 0
M  V30 11185 N 1027.28 1.57312 -0.0952337 0
M  V30 11186 C 1028.56 1.85822 0.610715 0
M  V30 11187 C 1028.94 0.992114 1.86334 0
M  V30 11188 O 1028.28 0.0645669 2.28409 0
M  V30 11189 C 1028.49 3.36492 0.925967 0
M  V30 11190 C 1029.84 4.0455 1.28936 0
M  V30 11191 O 1030.87 3.41374 1.01698 0
M  V30 11192 O 1029.73 5.16024 1.79949 0
M  V30 11193 H 1026.82 0.768454 0.305626 0
M  V30 11194 H 1029.37 1.69217 -0.127941 0
M  V30 11195 H 1028.14 3.91282 0.0373127 0
M  V30 11196 H 1027.76 3.58443 1.7206 0
M  V30 11197 N 1028.76 -0.17846 1.56586 0
M  V30 11198 C 1029.99 -0.910674 1.85446 0
M  V30 11199 C 1030.4 -1.76647 0.677675 0
M  V30 11200 O 1029.74 -1.80086 -0.362584 0
M  V30 11201 C 1029.8 -1.84363 3.08627 0
M  V30 11202 C 1029.46 -1.16814 4.41818 0
M  V30 11203 C 1030.46 -0.53703 5.17119 0
M  V30 11204 C 1028.15 -1.16703 4.88555 0
M  V30 11205 C 1030.14 0.0861778 6.37342 0
M  V30 11206 C 1027.83 -0.539992 6.0871 0
M  V30 11207 C 1028.83 0.0855135 6.82946 0
M  V30 11208 O 1028.51 0.70268 8.00823 0
M  V30 11209 H 1028.25 -0.270377 0.619574 0
M  V30 11210 H 1030.8 -0.185591 2.0456 0
M  V30 11211 H 1029.03 -2.60884 2.85441 0
M  V30 11212 H 1030.72 -2.44506 3.23993 0
M  V30 11213 H 1031.48 -0.529915 4.82096 0
M  V30 11214 H 1027.36 -1.64329 4.30717 0
M  V30 11215 H 1030.91 0.575011 6.95226 0
M  V30 11216 H 1026.8 -0.544666 6.43198 0
M  V30 11217 H 1027.57 0.601224 8.16289 0
M  V30 11218 N 1030.24 -1.51135 -0.446768 0
M  V30 11219 C 1031.46 -1.67411 -1.22427 0
M  V30 11220 C 1031.89 -0.367009 -1.84485 0
M  V30 11221 O 1031.24 0.67185 -1.68392 0
M  V30 11222 C 1031.29 -2.78473 -2.29096 0
M  V30 11223 O 1030.4 -2.41419 -3.34351 0
M  V30 11224 H 1029.74 -0.558512 -0.359111 0
M  V30 11225 H 1032.27 -1.97648 -0.5288 0
M  V30 11226 H 1032.28 -3.02277 -2.7403 0
M  V30 11227 H 1030.95 -3.73326 -1.83304 0
M  V30 11228 H 1029.53 -2.28152 -2.9496 0
M  V30 11229 N 1031.71 0.701592 -1.41122 0
M  V30 11230 C 1032.96 1.45871 -1.39879 0
M  V30 11231 C 1033.28 1.94999 -0.00668769 0
M  V30 11232 O 1032.55 1.71298 0.95047 0
M  V30 11233 H 1031.13 0.541231 -0.514857 0
M  V30 11234 H 1033.79 0.830803 -1.76306 0
M  V30 11235 H 1032.89 2.32479 -2.0823 0
M  V30 11236 N 1033.19 1.2685 0.935242 0
M  V30 11237 C 1034.42 1.15538 1.71635 0
M  V30 11238 C 1034.83 -0.288698 1.8658 0
M  V30 11239 O 1034.19 -1.19721 1.37743 0
M  V30 11240 C 1034.24 1.8259 3.11999 0
M  V30 11241 O 1033.96 3.21355 2.97763 0
M  V30 11242 C 1035.46 1.77307 4.06297 0
M  V30 11243 H 1032.68 0.402055 0.537208 0
M  V30 11244 H 1035.23 1.67582 1.17203 0
M  V30 11245 H 1033.38 1.3447 3.63313 0
M  V30 11246 H 1033.8 3.54626 3.86446 0
M  V30 11247 H 1035.27 2.28851 5.02326 0
M  V30 11248 H 1035.75 0.740823 4.32907 0
M  V30 11249 H 1036.35 2.25007 3.60904 0
M  V30 11250 N 1034.67 -1.14067 1.0875 0
M  V30 11251 C 1035.6 -2.18926 0.67852 0
M  V30 11252 C 1036.62 -1.60441 -0.276163 0
M  V30 11253 O 1037.8 -1.78388 -0.0632788 0
M  V30 11254 C 1034.9 -3.38893 -0.0218852 0
M  V30 11255 C 1034.08 -4.26901 0.952582 0
M  V30 11256 C 1033.14 -5.25418 0.286859 0
M  V30 11257 O 1032.16 -5.61512 0.932354 0
M  V30 11258 N 1033.36 -5.72476 -0.961831 0
M  V30 11259 H 1036.13 -2.54629 1.58063 0
M  V30 11260 H 1033.69 -1.29321 0.974042 0
M  V30 11261 H 1035.68 -4.01864 -0.478278 0
M  V30 11262 H 1034.25 -3.01486 -0.826141 0
M  V30 11263 H 1033.47 -3.60812 1.58772 0
M  V30 11264 H 1034.76 -4.82563 1.61279 0
M  V30 11265 H 1034.16 -5.45287 -1.50594 0
M  V30 11266 H 1032.72 -6.37418 -1.36166 0
M  V30 11267 N 1036.15 -0.873678 -1.31166 0
M  V30 11268 C 1037.11 -0.337069 -2.26708 0
M  V30 11269 C 1038.11 0.51406 -1.52362 0
M  V30 11270 O 1039.3 0.322834 -1.71182 0
M  V30 11271 C 1036.43 0.520897 -3.36897 0
M  V30 11272 H 1037.63 -1.18056 -2.75686 0
M  V30 11273 H 1035.18 -0.649577 -1.42163 0
M  V30 11274 H 1035.91 1.38543 -2.93217 0
M  V30 11275 H 1035.7 -0.0886015 -3.92 0
M  V30 11276 H 1037.19 0.888497 -4.08039 0
M  V30 11277 N 1037.63 1.44308 -0.633487 0
M  V30 11278 C 1038.88 2.01239 -0.136356 0
M  V30 11279 C 1039.19 1.50438 1.25011 0
M  V30 11280 O 1040.39 1.99513 1.84138 0
M  V30 11281 C 1038.85 3.59382 -0.193011 0
M  V30 11282 C 1038.46 4.19178 -1.58093 0
M  V30 11283 C 1040.2 4.23778 0.247534 0
M  V30 11284 C 1038.11 5.69553 -1.59258 0
M  V30 11285 H 1037.04 0.752521 -0.0472109 0
M  V30 11286 H 1039.69 1.65498 -0.79263 0
M  V30 11287 H 1038.07 3.92432 0.530408 0
M  V30 11288 H 1039.25 3.97662 -2.32813 0
M  V30 11289 H 1037.56 3.67079 -1.96576 0
M  V30 11290 H 1040.16 5.34075 0.258401 0
M  V30 11291 H 1040.5 3.96285 1.27529 0
M  V30 11292 H 1041.03 3.9554 -0.423469 0
M  V30 11293 H 1037.77 6.01784 -2.59878 0
M  V30 11294 H 1037.29 5.93185 -0.888352 0
M  V30 11295 H 1038.97 6.33234 -1.32756 0
M  V30 11296 N 1039.1 0.374177 1.53094 0
M  V30 11297 C 1040.05 -0.468226 2.26001 0
M  V30 11298 C 1041.02 -1.07041 1.27009 0
M  V30 11299 O 1042.21 -1.10129 1.55809 0
M  V30 11300 C 1039.35 -1.59754 3.05896 0
M  V30 11301 C 1038.46 -1.01969 4.19793 0
M  V30 11302 C 1037.59 -2.11882 4.87113 0
M  V30 11303 C 1036.63 -1.51607 5.93028 0
M  V30 11304 N 1035.77 -2.55388 6.54004 0
M  V30 11305 H 1040.61 0.159983 2.9757 0
M  V30 11306 H 1038.15 0.0907196 1.4682 0
M  V30 11307 H 1040.11 -2.26288 3.50499 0
M  V30 11308 H 1038.74 -2.19628 2.36565 0
M  V30 11309 H 1037.79 -0.244386 3.79614 0
M  V30 11310 H 1039.1 -0.539089 4.95878 0
M  V30 11311 H 1038.25 -2.86218 5.34943 0
M  V30 11312 H 1036.99 -2.63297 4.10519 0
M  V30 11313 H 1036 -0.757891 5.44551 0
M  V30 11314 H 1037.22 -1.01006 6.71546 0
M  V30 11315 H 1035.17 -3.06 5.80258 0
M  V30 11316 H 1035.09 -2.12039 7.25655 0
M  V30 11317 H 1036.35 -3.294 7.06481 0
M  V30 11318 N 1040.58 -1.57259 0.103575 0
M  V30 11319 C 1041.81 -1.99424 -0.569638 0
M  V30 11320 C 1042.23 -0.982475 -1.60403 0
M  V30 11321 O 1041.59 0.0479231 -1.81237 0
M  V30 11322 C 1041.64 -3.40527 -1.18633 0
M  V30 11323 O 1040.74 -3.42167 -2.30208 0
M  V30 11324 H 1040.08 -0.648251 -0.143759 0
M  V30 11325 H 1042.61 -2.03739 0.187493 0
M  V30 11326 H 1042.62 -3.78404 -1.5256 0
M  V30 11327 H 1041.3 -4.13686 -0.428582 0
M  V30 11328 H 1039.88 -3.16093 -1.97837 0
M  V30 11329 N 1042.06 0.170153 -1.56679 0
M  V30 11330 C 1042.99 1.21285 -1.9953 0
M  V30 11331 C 1043.97 1.46104 -0.871071 0
M  V30 11332 O 1045.16 1.57419 -1.13724 0
M  V30 11333 C 1042.29 2.5515 -2.35618 0
M  V30 11334 C 1041.24 2.44898 -3.51011 0
M  V30 11335 C 1040.57 3.83263 -3.72845 0
M  V30 11336 C 1041.87 1.95271 -4.84424 0
M  V30 11337 H 1043.56 0.856646 -2.86883 0
M  V30 11338 H 1041.11 0.410634 -1.38021 0
M  V30 11339 H 1043.06 3.28299 -2.64193 0
M  V30 11340 H 1041.78 2.92561 -1.45175 0
M  V30 11341 H 1040.44 1.74203 -3.22566 0
M  V30 11342 H 1040.09 4.18069 -2.79691 0
M  V30 11343 H 1039.79 3.77272 -4.50488 0
M  V30 11344 H 1041.31 4.57996 -4.03822 0
M  V30 11345 H 1042.73 2.58195 -5.11867 0
M  V30 11346 H 1041.13 2.00225 -5.65712 0
M  V30 11347 H 1042.2 0.90709 -4.7634 0
M  V30 11348 N 1043.54 1.5137 0.438746 0
M  V30 11349 C 1044.49 1.72582 1.53245 0
M  V30 11350 C 1045.46 0.567488 1.56105 0
M  V30 11351 O 1046.64 0.80176 1.73137 0
M  V30 11352 C 1043.78 1.85551 2.90972 0
M  V30 11353 C 1042.89 3.13094 2.97652 0
M  V30 11354 C 1042.03 3.16666 4.26493 0
M  V30 11355 C 1041.07 4.38529 4.27035 0
M  V30 11356 N 1040.2 4.39659 5.47398 0
M  V30 11357 H 1045.04 2.65941 1.3446 0
M  V30 11358 H 1042.58 1.31801 0.653206 0
M  V30 11359 H 1044.54 1.91053 3.70884 0
M  V30 11360 H 1043.17 0.956025 3.08318 0
M  V30 11361 H 1042.22 3.16909 2.10412 0
M  V30 11362 H 1043.53 4.03009 2.93914 0
M  V30 11363 H 1042.69 3.21075 5.14777 0
M  V30 11364 H 1041.43 2.24637 4.32885 0
M  V30 11365 H 1040.43 4.34297 3.37144 0
M  V30 11366 H 1041.66 5.31821 4.22307 0
M  V30 11367 H 1039.6 3.50499 5.54514 0
M  V30 11368 H 1039.52 5.23382 5.45534 0
M  V30 11369 H 1040.79 4.48259 6.37718 0
M  V30 11370 N 1045.02 -0.694098 1.41492 0
M  V30 11371 C 1045.93 -1.83778 1.45818 0
M  V30 11372 C 1046.94 -1.70471 0.348639 0
M  V30 11373 O 1048.12 -1.92361 0.596588 0
M  V30 11374 C 1045.18 -3.19771 1.33967 0
M  V30 11375 C 1044.24 -3.45175 2.5525 0
M  V30 11376 C 1043.48 -4.74681 2.43955 0
M  V30 11377 O 1043.7 -5.51268 1.46491 0
M  V30 11378 O 1042.63 -5.00901 3.33739 0
M  V30 11379 H 1046.46 -1.83084 2.42309 0
M  V30 11380 H 1044.05 -0.847349 1.23046 0
M  V30 11381 H 1045.93 -4.00961 1.29648 0
M  V30 11382 H 1044.6 -3.21145 0.405926 0
M  V30 11383 H 1043.51 -2.6391 2.65146 0
M  V30 11384 H 1044.84 -3.48617 3.47458 0
M  V30 11385 N 1046.49 -1.27344 -0.928501 0
M  V30 11386 C 1047.73 -1.14871 -1.69068 0
M  V30 11387 C 1048.1 0.300603 -1.89632 0
M  V30 11388 O 1049.3 0.547743 -2.6316 0
M  V30 11389 C 1047.57 -1.90992 -3.02087 0
M  V30 11390 S 1049.13 -1.94722 -3.93229 0
M  V30 11391 H 1045.95 -0.410095 -0.580812 0
M  V30 11392 H 1048.55 -1.61242 -1.1055 0
M  V30 11393 H 1047.25 -2.95484 -2.84811 0
M  V30 11394 H 1046.78 -1.45112 -3.65658 0
M  V30 11395 H 1048.8 -1.04306 -4.85113 0
M  V30 11396 N 1047.97 1.13488 -1.09353 0
M  V30 11397 C 1049.22 1.84383 -0.827488 0
M  V30 11398 C 1049.54 1.83892 0.648745 0
M  V30 11399 O 1048.81 1.29415 1.47066 0
M  V30 11400 H 1047.39 0.682732 -0.303127 0
M  V30 11401 H 1050.05 1.37477 -1.38152 0
M  V30 11402 H 1049.15 2.88919 -1.18035 0
M  V30 11403 N 1049.45 0.880621 1.30701 0
M  V30 11404 C 1050.7 0.492957 1.95583 0
M  V30 11405 C 1051.01 -0.961863 1.70316 0
M  V30 11406 O 1052.22 -1.45617 2.29146 0
M  V30 11407 C 1050.68 0.830656 3.50183 0
M  V30 11408 C 1050.28 2.30295 3.84276 0
M  V30 11409 C 1052.03 0.511979 4.21401 0
M  V30 11410 C 1049.93 2.58251 5.32034 0
M  V30 11411 H 1048.86 0.18062 0.732047 0
M  V30 11412 H 1051.52 1.075 1.48715 0
M  V30 11413 H 1049.9 0.177752 3.95601 0
M  V30 11414 H 1051.07 2.99981 3.49783 0
M  V30 11415 H 1049.39 2.58873 3.2615 0
M  V30 11416 H 1051.98 0.697935 5.30125 0
M  V30 11417 H 1052.33 -0.548327 4.12673 0
M  V30 11418 H 1052.86 1.12189 3.81652 0
M  V30 11419 H 1049.6 3.63005 5.45809 0
M  V30 11420 H 1049.12 1.9317 5.67843 0
M  V30 11421 H 1050.8 2.43527 5.99419 0
M  V30 11422 N 1050.93 -1.4397 0.641131 0
M  V30 11423 C 1052.16 -2.06004 0.156779 0
M  V30 11424 C 1052.57 -1.48059 -1.17793 0
M  V30 11425 O 1051.91 -0.601788 -1.73563 0
M  V30 11426 C 1051.97 -3.59493 -0.0217203 0
M  V30 11427 C 1051.64 -4.39957 1.23639 0
M  V30 11428 C 1052.63 -4.72797 2.16239 0
M  V30 11429 C 1050.32 -4.80168 1.4746 0
M  V30 11430 C 1052.31 -5.44741 3.30962 0
M  V30 11431 C 1050 -5.51859 2.62478 0
M  V30 11432 C 1051 -5.84067 3.54055 0
M  V30 11433 O 1050.69 -6.54296 4.67067 0
M  V30 11434 H 1050.42 -0.671061 0.0815685 0
M  V30 11435 H 1052.97 -1.85664 0.878517 0
M  V30 11436 H 1051.2 -3.78362 -0.798707 0
M  V30 11437 H 1052.89 -4.03263 -0.461893 0
M  V30 11438 H 1053.66 -4.42261 1.99073 0
M  V30 11439 H 1049.54 -4.54513 0.770652 0
M  V30 11440 H 1053.08 -5.69798 4.02462 0
M  V30 11441 H 1048.98 -5.81811 2.79583 0
M  V30 11442 H 1049.74 -6.72772 4.66177 0
M  V30 11443 N 1052.41 -0.382291 -1.52893 0
M  V30 11444 C 1053.65 0.202433 -2.01787 0
M  V30 11445 C 1053.99 1.47044 -1.26853 0
M  V30 11446 O 1053.26 1.91007 -0.366969 0
M  V30 11447 C 1053.54 0.477471 -3.5692 0
M  V30 11448 C 1053.4 -0.805339 -4.42532 0
M  V30 11449 C 1054.72 1.27106 -4.21346 0
M  V30 11450 H 1051.84 0.0720998 -0.733465 0
M  V30 11451 H 1054.48 -0.510478 -1.83014 0
M  V30 11452 H 1052.63 1.08478 -3.73048 0
M  V30 11453 H 1054.3 -1.4424 -4.3817 0
M  V30 11454 H 1052.54 -1.42216 -4.09826 0
M  V30 11455 H 1053.21 -0.567635 -5.49074 0
M  V30 11456 H 1055.69 0.757161 -4.09153 0
M  V30 11457 H 1054.57 1.43225 -5.29885 0
M  V30 11458 H 1054.83 2.28431 -3.78513 0
M  V30 11459 N 1053.89 1.57202 -0.111913 0
M  V30 11460 C 1055.13 1.94125 0.547573 0
M  V30 11461 C 1055.45 0.997026 1.68282 0
M  V30 11462 O 1056.65 1.26063 2.40459 0
M  V30 11463 C 1055.11 3.44982 1.02545 0
M  V30 11464 C 1054.72 4.47927 -0.0809529 0
M  V30 11465 C 1056.46 3.90837 1.65671 0
M  V30 11466 C 1054.37 5.89955 0.413224 0
M  V30 11467 H 1053.3 0.724651 0.208321 0
M  V30 11468 H 1055.95 1.82507 -0.190625 0
M  V30 11469 H 1054.33 3.5181 1.81785 0
M  V30 11470 H 1055.51 4.52761 -0.857003 0
M  V30 11471 H 1053.82 4.11782 -0.618434 0
M  V30 11472 H 1056.42 4.9436 2.03746 0
M  V30 11473 H 1056.76 3.30417 2.53239 0
M  V30 11474 H 1057.29 3.8678 0.929844 0
M  V30 11475 H 1054.03 6.54113 -0.426238 0
M  V30 11476 H 1053.55 5.88557 1.15591 0
M  V30 11477 H 1055.23 6.41032 0.876756 0
M  V30 11478 N 1055.36 -0.161842 1.56767 0
M  V30 11479 C 1056.29 -1.20226 2.0017 0
M  V30 11480 C 1057.27 -1.4564 0.878807 0
M  V30 11481 O 1058.46 -1.56813 1.14557 0
M  V30 11482 C 1055.59 -2.53897 2.36968 0
M  V30 11483 C 1054.54 -2.43033 3.52305 0
M  V30 11484 C 1053.87 -3.81281 3.74872 0
M  V30 11485 C 1055.17 -1.927 4.85453 0
M  V30 11486 H 1056.86 -0.84142 2.87333 0
M  V30 11487 H 1054.41 -0.403309 1.38237 0
M  V30 11488 H 1056.36 -3.26893 2.6593 0
M  V30 11489 H 1055.09 -2.91787 1.46724 0
M  V30 11490 H 1053.75 -1.7249 3.23485 0
M  V30 11491 H 1053.39 -4.1658 2.81904 0
M  V30 11492 H 1053.09 -3.74877 4.52483 0
M  V30 11493 H 1054.62 -4.55848 4.06245 0
M  V30 11494 H 1056.03 -2.55477 5.13229 0
M  V30 11495 H 1054.43 -1.97222 5.66766 0
M  V30 11496 H 1055.5 -0.881816 4.76814 0
M  V30 11497 N 1056.84 -1.516 -0.430713 0
M  V30 11498 C 1058.09 -1.6484 -1.18134 0
M  V30 11499 C 1058.42 -0.366725 -1.90706 0
M  V30 11500 O 1057.7 0.63398 -1.83878 0
M  V30 11501 C 1057.98 -2.85617 -2.19306 0
M  V30 11502 C 1057.83 -4.23778 -1.50773 0
M  V30 11503 C 1059.15 -3.01909 -3.20217 0
M  V30 11504 H 1056.27 -0.599907 -0.428113 0
M  V30 11505 H 1058.91 -1.84102 -0.46973 0
M  V30 11506 H 1057.06 -2.69325 -2.79993 0
M  V30 11507 H 1058.73 -4.51752 -0.93371 0
M  V30 11508 H 1056.98 -4.26171 -0.809966 0
M  V30 11509 H 1057.65 -5.04291 -2.24487 0
M  V30 11510 H 1060.12 -3.16956 -2.69589 0
M  V30 11511 H 1059 -3.87968 -3.88293 0
M  V30 11512 H 1059.26 -2.1427 -3.86705 0
M  V30 11513 N 1058.32 0.686584 -1.41858 0
M  V30 11514 C 1059.27 1.82167 -1.4463 0
M  V30 11515 C 1060.26 1.66286 -0.323313 0
M  V30 11516 O 1061.47 1.73038 -0.495773 0
M  V30 11517 H 1057.84 0.600454 -0.452724 0
M  V30 11518 H 1059.81 1.76947 -2.40276 0
M  V30 11519 C 1058.56 3.20248 -1.35412 0
M  V30 11520 H 1057.89 3.33089 -2.21115 0
M  V30 11521 H 1059.33 3.99723 -1.41413 0
M  V30 11522 C 1057.78 3.36832 -0.0674972 0
M  V30 11523 O 1058.31 3.91845 0.884325 0
M  V30 11524 N 1056.52 2.90598 0.011519 0
M  V30 11525 H 1056.07 2.46016 -0.76381 0
M  V30 11526 H 1056.03 3.02072 0.871774 0
M  V30 11527 N 1059.8 1.27835 0.921735 0
M  V30 11528 C 1061.21 1.13151 1.48505 0
M  V30 11529 C 1061.56 -0.281373 1.94172 0
M  V30 11530 O 1060.68 -1.17487 1.8173 0
M  V30 11531 C 1061.28 2.04792 2.69899 0
M  V30 11532 C 1059.84 1.94196 3.22436 0
M  V30 11533 C 1058.99 1.96999 1.95158 0
M  V30 11534 H 1061.94 1.40641 0.735241 0
M  V30 11535 H 1061.96 1.60724 3.44889 0
M  V30 11536 H 1061.47 3.07615 2.36631 0
M  V30 11537 H 1059.57 0.943805 3.60448 0
M  V30 11538 H 1059.68 2.80744 3.88226 0
M  V30 11539 H 1058.05 1.41301 2.11911 0
M  V30 11540 H 1058.83 3.01487 1.64196 0
M  V30 11541 N 1061.28 -1.12907 1.09954 0
M  V30 11542 C 1062.22 -2.20561 0.73863 0
M  V30 11543 C 1063.22 -1.67347 -0.262944 0
M  V30 11544 O 1064.42 -1.79574 -0.123834 0
M  V30 11545 H 1060.8 -0.718823 0.220901 0
M  V30 11546 H 1062.77 -2.4826 1.65559 0
M  V30 11547 C 1061.52 -3.47227 0.181239 0
M  V30 11548 H 1060.84 -3.88516 0.943144 0
M  V30 11549 H 1062.28 -4.23987 -0.0332888 0
M  V30 11550 C 1060.74 -3.18956 -1.08485 0
M  V30 11551 O 1061.27 -3.38224 -2.1672 0
M  V30 11552 N 1059.48 -2.72797 -1.00151 0
M  V30 11553 H 1059.02 -2.57317 -0.120645 0
M  V30 11554 H 1058.98 -2.54256 -1.84935 0
M  V30 11555 N 1062.75 -0.88754 -1.30232 0
M  V30 11556 C 1064 -0.503322 -1.95319 0
M  V30 11557 C 1064.32 0.952817 -1.70824 0
M  V30 11558 O 1065.52 1.444 -2.29915 0
M  V30 11559 C 1063.98 -0.849216 -3.49738 0
M  V30 11560 C 1063.59 -2.3233 -3.83049 0
M  V30 11561 C 1065.33 -0.53432 -4.21124 0
M  V30 11562 C 1063.24 -2.61069 -5.30657 0
M  V30 11563 H 1062.17 -0.1845 -0.731078 0
M  V30 11564 H 1064.82 -1.08287 -1.48143 0
M  V30 11565 H 1063.2 -0.198729 -3.95501 0
M  V30 11566 H 1064.37 -3.01832 -3.48187 0
M  V30 11567 H 1062.69 -2.60599 -3.24773 0
M  V30 11568 H 1065.29 -0.726039 -5.29748 0
M  V30 11569 H 1065.63 0.526434 -4.12958 0
M  V30 11570 H 1066.16 -1.14211 -3.81052 0
M  V30 11571 H 1062.9 -3.65895 -5.43876 0
M  V30 11572 H 1062.42 -1.96179 -5.6681 0
M  V30 11573 H 1064.1 -2.46703 -5.98119 0
M  V30 11574 N 1064.23 1.43628 -0.648757 0
M  V30 11575 C 1065.2 2.29172 0.0360713 0
M  V30 11576 C 1066.2 1.41974 0.754976 0
M  V30 11577 O 1067.39 1.63654 0.5969 0
M  V30 11578 C 1064.52 3.23942 1.0618 0
M  V30 11579 H 1065.71 2.91214 -0.716544 0
M  V30 11580 H 1063.26 1.50833 -0.409759 0
M  V30 11581 H 1064 2.66786 1.8438 0
M  V30 11582 H 1063.78 3.88223 0.550016 0
M  V30 11583 H 1065.27 3.8816 1.54019 0
M  V30 11584 N 1065.71 0.390394 1.52688 0
M  V30 11585 C 1066.94 -0.191485 2.06012 0
M  V30 11586 C 1067.35 -1.40422 1.26202 0
M  V30 11587 O 1066.71 -1.79866 0.308963 0
M  V30 11588 C 1066.76 -0.560521 3.57128 0
M  V30 11589 O 1066.48 0.60404 4.33916 0
M  V30 11590 C 1067.98 -1.19814 4.26801 0
M  V30 11591 H 1065.2 -0.0286311 0.670389 0
M  V30 11592 H 1067.75 0.555939 1.96798 0
M  V30 11593 H 1065.9 -1.25784 3.66411 0
M  V30 11594 H 1066.32 0.300467 5.23639 0
M  V30 11595 H 1067.79 -1.40672 5.33775 0
M  V30 11596 H 1068.27 -2.16582 3.82085 0
M  V30 11597 H 1068.87 -0.541558 4.21838 0
M  V30 11598 N 1067.19 -1.57141 0.120249 0
M  V30 11599 C 1068.43 -1.95527 -0.538245 0
M  V30 11600 C 1068.77 -1.00373 -1.6625 0
M  V30 11601 O 1068.04 -0.0411734 -1.94456 0
M  V30 11602 C 1068.33 -3.43843 -1.06976 0
M  V30 11603 C 1068.18 -4.49771 0.0511596 0
M  V30 11604 C 1069.5 -3.94035 -1.96022 0
M  V30 11605 H 1066.62 -0.710958 -0.194183 0
M  V30 11606 H 1069.26 -1.88986 0.196061 0
M  V30 11607 H 1067.41 -3.49548 -1.69553 0
M  V30 11608 H 1069.08 -4.56163 0.686503 0
M  V30 11609 H 1067.32 -4.27882 0.714127 0
M  V30 11610 H 1067.99 -5.50812 -0.361995 0
M  V30 11611 H 1070.47 -3.9064 -1.43315 0
M  V30 11612 H 1069.35 -4.98329 -2.3013 0
M  V30 11613 H 1069.61 -3.34803 -2.8872 0
M  V30 11614 N 1068.67 0.153526 -1.5685 0
M  V30 11615 C 1069.6 1.2147 -1.94365 0
M  V30 11616 C 1070.61 1.39532 -0.838726 0
M  V30 11617 O 1071.8 1.39219 -1.11715 0
M  V30 11618 C 1068.9 2.5806 -2.19677 0
M  V30 11619 C 1068.07 2.61062 -3.50949 0
M  V30 11620 C 1067.13 3.79144 -3.64878 0
M  V30 11621 O 1066.16 3.64319 -4.37333 0
M  V30 11622 N 1067.36 4.96333 -3.01054 0
M  V30 11623 H 1070.13 0.895889 -2.85996 0
M  V30 11624 H 1067.69 0.343147 -1.58222 0
M  V30 11625 H 1069.68 3.35553 -2.26243 0
M  V30 11626 H 1068.25 2.8226 -1.34343 0
M  V30 11627 H 1067.47 1.69533 -3.55882 0
M  V30 11628 H 1068.76 2.60094 -4.37297 0
M  V30 11629 H 1068.15 5.1128 -2.42093 0
M  V30 11630 H 1066.71 5.71625 -3.13191 0
M  V30 11631 N 1070.14 1.51827 0.422667 0
M  V30 11632 C 1071.37 1.69049 1.1929 0
M  V30 11633 C 1071.79 0.394095 1.84641 0
M  V30 11634 O 1071.14 -0.628731 1.71328 0
M  V30 11635 C 1071.2 2.81657 2.26609 0
M  V30 11636 O 1070.92 4.06275 1.63929 0
M  V30 11637 C 1072.42 3.10274 3.16615 0
M  V30 11638 H 1069.64 0.566894 0.358988 0
M  V30 11639 H 1072.18 1.98318 0.499029 0
M  V30 11640 H 1070.34 2.54945 2.91688 0
M  V30 11641 H 1070.75 4.68924 2.3497 0
M  V30 11642 H 1072.22 3.92613 3.88019 0
M  V30 11643 H 1072.7 2.23273 3.78214 0
M  V30 11644 H 1073.31 3.387 2.57221 0
M  V30 11645 N 1071.62 -0.679052 1.4222 0
M  V30 11646 C 1072.85 -1.47248 1.46058 0
M  V30 11647 C 1073.27 -1.87962 0.0720987 0
M  V30 11648 O 1072.63 -1.5572 -0.928488 0
M  V30 11649 C 1072.68 -2.70067 2.38948 0
M  V30 11650 O 1071.78 -3.68178 1.85791 0
M  V30 11651 H 1071.12 -0.442533 0.495036 0
M  V30 11652 H 1073.65 -0.833263 1.86863 0
M  V30 11653 H 1073.66 -3.18187 2.55385 0
M  V30 11654 H 1072.34 -2.39773 3.39826 0
M  V30 11655 H 1070.92 -3.2719 1.78889 0
M  V30 11656 N 1073.1 -1.28322 -0.914942 0
M  V30 11657 C 1074.05 -1.12146 -2.01722 0
M  V30 11658 C 1075.02 -0.0189279 -1.66089 0
M  V30 11659 O 1076.2 -0.183638 -1.89914 0
M  V30 11660 C 1073.34 -0.78808 -3.35981 0
M  V30 11661 C 1072.46 -1.96954 -3.84491 0
M  V30 11662 C 1071.59 -1.57688 -5.07255 0
M  V30 11663 C 1070.63 -2.72506 -5.48094 0
M  V30 11664 N 1069.77 -2.33741 -6.62049 0
M  V30 11665 H 1074.61 -2.06461 -2.1489 0
M  V30 11666 H 1072.14 -1.0276 -1.05256 0
M  V30 11667 H 1074.1 -0.575546 -4.13211 0
M  V30 11668 H 1072.73 0.118132 -3.22584 0
M  V30 11669 H 1071.78 -2.29423 -3.03429 0
M  V30 11670 H 1073.1 -2.8304 -4.10719 0
M  V30 11671 H 1072.25 -1.32634 -5.92025 0
M  V30 11672 H 1070.99 -0.687291 -4.82833 0
M  V30 11673 H 1069.99 -2.9826 -4.61867 0
M  V30 11674 H 1071.22 -3.62106 -5.74505 0
M  V30 11675 H 1069.16 -1.4725 -6.3926 0
M  V30 11676 H 1069.08 -3.13364 -6.87997 0
M  V30 11677 H 1070.35 -2.11968 -7.50127 0
M  V30 11678 N 1074.58 1.12322 -1.10551 0
M  V30 11679 C 1075.83 1.83495 -0.846998 0
M  V30 11680 C 1076.15 1.8457 0.629205 0
M  V30 11681 O 1075.42 1.30968 1.45686 0
M  V30 11682 H 1074 0.679479 -0.310351 0
M  V30 11683 H 1076.66 1.36004 -1.39602 0
M  V30 11684 H 1075.76 2.87651 -1.21092 0
M  V30 11685 N 1076.06 0.894434 1.2976 0
M  V30 11686 C 1076.99 0.3847 2.30309 0
M  V30 11687 C 1077.97 -0.537486 1.61385 0
M  V30 11688 O 1079.15 -0.449332 1.8893 0
M  V30 11689 C 1076.28 -0.393311 3.45066 0
M  V30 11690 C 1075.24 0.437968 4.25753 0
M  V30 11691 C 1074.56 -0.467221 5.32655 0
M  V30 11692 C 1075.86 1.6851 4.9437 0
M  V30 11693 H 1077.56 1.22496 2.73194 0
M  V30 11694 H 1075.1 0.590471 1.31337 0
M  V30 11695 H 1077.06 -0.760614 4.14479 0
M  V30 11696 H 1075.78 -1.2673 3.0101 0
M  V30 11697 H 1074.44 0.787533 3.58041 0
M  V30 11698 H 1074.09 -1.33919 4.84845 0
M  V30 11699 H 1073.79 0.0852482 5.87538 0
M  V30 11700 H 1075.31 -0.830833 6.04921 0
M  V30 11701 H 1076.72 1.38784 5.56248 0
M  V30 11702 H 1075.12 2.17849 5.59162 0
M  V30 11703 H 1076.19 2.42412 4.19958 0
M  V30 11704 N 1077.53 -1.43282 0.656365 0
M  V30 11705 C 1078.5 -2.29188 -0.0239173 0
M  V30 11706 C 1079.5 -1.42373 -0.747436 0
M  V30 11707 O 1080.69 -1.63969 -0.588213 0
M  V30 11708 C 1077.82 -3.24501 -1.0446 0
M  V30 11709 H 1079.01 -2.9083 0.731978 0
M  V30 11710 H 1076.57 -1.50614 0.417752 0
M  V30 11711 H 1077.3 -2.6776 -1.82962 0
M  V30 11712 H 1077.09 -3.88509 -0.52942 0
M  V30 11713 H 1078.58 -3.88971 -1.51958 0
M  V30 11714 N 1079.01 -0.398486 -1.52479 0
M  V30 11715 C 1080.29 0.238776 -1.94137 0
M  V30 11716 C 1080.67 1.63558 -1.33462 0
M  V30 11717 O 1080.02 2.22821 -0.506272 0
M  V30 11718 C 1080.23 0.255863 -3.48061 0
M  V30 11719 C 1081.58 0.480376 -4.21874 0
M  V30 11720 O 1082.6 0.335679 -3.54615 0
M  V30 11721 O 1081.46 0.764654 -5.41124 0
M  V30 11722 H 1078.55 0.150806 -0.813134 0
M  V30 11723 H 1081.1 -0.453659 -1.63524 0
M  V30 11724 H 1079.87 -0.722171 -3.84578 0
M  V30 11725 H 1079.49 0.99284 -3.85004 0
M  V30 11726 N 1080.49 1.57075 -0.12858 0
M  V30 11727 C 1081.44 2.15816 0.818064 0
M  V30 11728 C 1082.41 1.08581 1.25696 0
M  V30 11729 O 1083.59 1.36535 1.33277 0
M  V30 11730 C 1080.73 2.76943 2.05905 0
M  V30 11731 C 1079.85 3.98514 1.66764 0
M  V30 11732 C 1078.98 4.47698 2.85902 0
M  V30 11733 C 1078.02 5.61778 2.43047 0
M  V30 11734 N 1077.16 6.05662 3.5513 0
M  V30 11735 H 1082 2.9638 0.310318 0
M  V30 11736 H 1079.53 1.46418 0.141472 0
M  V30 11737 H 1081.49 3.10519 2.78629 0
M  V30 11738 H 1080.12 1.99053 2.54122 0
M  V30 11739 H 1079.17 3.71038 0.838766 0
M  V30 11740 H 1080.49 4.81215 1.31277 0
M  V30 11741 H 1079.64 4.83233 3.66839 0
M  V30 11742 H 1078.38 3.63967 3.24622 0
M  V30 11743 H 1077.38 5.25838 1.60544 0
M  V30 11744 H 1078.61 6.47282 2.05433 0
M  V30 11745 H 1076.56 5.2487 3.93506 0
M  V30 11746 H 1076.47 6.83242 3.23598 0
M  V30 11747 H 1077.74 6.45838 4.36479 0
M  V30 11748 N 1081.97 -0.145205 1.5693 0
M  V30 11749 C 1083.22 -0.858786 1.83719 0
M  V30 11750 C 1083.55 -1.80738 0.710452 0
M  V30 11751 O 1082.82 -1.92389 -0.285791 0
M  V30 11752 C 1083.11 -1.6317 3.2101 0
M  V30 11753 C 1082.96 -0.704472 4.44249 0
M  V30 11754 C 1084.28 -2.59377 3.55544 0
M  V30 11755 H 1081.4 -0.310757 0.66828 0
M  V30 11756 H 1084.04 -0.123918 1.89595 0
M  V30 11757 H 1082.19 -2.25816 3.16132 0
M  V30 11758 H 1083.86 -0.08887 4.61214 0
M  V30 11759 H 1082.1 -0.0141693 4.33798 0
M  V30 11760 H 1082.78 -1.28135 5.36922 0
M  V30 11761 H 1085.25 -2.06848 3.61044 0
M  V30 11762 H 1084.13 -3.10506 4.52634 0
M  V30 11763 H 1084.39 -3.40819 2.81594 0
M  V30 11764 N 1083.45 -1.52049 -0.414609 0
M  V30 11765 C 1084.68 -1.69433 -1.18221 0
M  V30 11766 C 1085.09 -0.40104 -1.84901 0
M  V30 11767 O 1084.43 0.632342 -1.72474 0
M  V30 11768 C 1084.49 -2.76986 -2.2917 0
M  V30 11769 C 1084.15 -4.18903 -1.82671 0
M  V30 11770 C 1085.15 -5.02929 -1.31751 0
M  V30 11771 C 1082.84 -4.65113 -1.89672 0
M  V30 11772 C 1084.83 -6.31234 -0.884461 0
M  V30 11773 C 1082.52 -5.93408 -1.45978 0
M  V30 11774 C 1083.52 -6.76297 -0.9545 0
M  V30 11775 O 1083.2 -8.02191 -0.523852 0
M  V30 11776 H 1082.94 -0.571228 -0.36149 0
M  V30 11777 H 1085.49 -1.99355 -0.494643 0
M  V30 11778 H 1083.72 -2.42428 -3.01273 0
M  V30 11779 H 1085.41 -2.83023 -2.90951 0
M  V30 11780 H 1086.17 -4.68422 -1.2572 0
M  V30 11781 H 1082.05 -4.00702 -2.27945 0
M  V30 11782 H 1085.6 -6.95881 -0.489383 0
M  V30 11783 H 1081.49 -6.27424 -1.51687 0
M  V30 11784 H 1082.26 -8.15934 -0.647656 0
M  V30 11785 N 1084.93 0.6715 -1.42579 0
M  V30 11786 C 1086.17 1.43154 -1.43224 0
M  V30 11787 C 1086.5 1.94436 -0.0498695 0
M  V30 11788 O 1085.76 1.71521 0.942282 0
M  V30 11789 C 1086.05 2.64256 -2.40632 0
M  V30 11790 C 1085.72 2.31497 -3.86937 0
M  V30 11791 C 1084.38 2.22274 -4.26788 0
M  V30 11792 C 1086.73 2.04957 -4.7921 0
M  V30 11793 C 1084.06 1.84642 -5.56888 0
M  V30 11794 C 1086.41 1.68828 -6.09656 0
M  V30 11795 C 1085.08 1.58118 -6.48502 0
M  V30 11796 H 1084.35 0.523838 -0.524094 0
M  V30 11797 H 1087 0.765363 -1.7554 0
M  V30 11798 H 1085.3 3.35921 -2.01654 0
M  V30 11799 H 1087 3.22443 -2.38394 0
M  V30 11800 H 1083.59 2.39578 -3.55387 0
M  V30 11801 H 1087.77 2.11014 -4.49207 0
M  V30 11802 H 1083.03 1.74921 -5.85843 0
M  V30 11803 H 1087.2 1.47319 -6.8064 0
M  V30 11804 H 1084.83 1.28728 -7.49222 0
M  V30 11805 N 1086.4 1.28806 0.908124 0
M  V30 11806 C 1087.33 1.15758 2.02787 0
M  V30 11807 C 1088.31 0.053911 1.70015 0
M  V30 11808 O 1089.5 0.231901 1.9281 0
M  V30 11809 C 1086.63 0.824526 3.37371 0
M  V30 11810 C 1085.58 1.88359 3.84324 0
M  V30 11811 C 1084.91 1.40404 5.15937 0
M  V30 11812 C 1086.21 3.29108 4.05568 0
M  V30 11813 H 1087.9 2.09431 2.13961 0
M  V30 11814 H 1085.45 1.00831 1.02806 0
M  V30 11815 H 1087.4 0.71999 4.15204 0
M  V30 11816 H 1086.13 -0.147902 3.26265 0
M  V30 11817 H 1084.79 1.97736 3.087 0
M  V30 11818 H 1084.43 0.420515 5.01239 0
M  V30 11819 H 1084.13 2.11224 5.48323 0
M  V30 11820 H 1085.66 1.31283 5.9632 0
M  V30 11821 H 1087.07 3.2262 4.73909 0
M  V30 11822 H 1085.47 3.97812 4.49294 0
M  V30 11823 H 1086.54 3.72709 3.10187 0
M  V30 11824 N 1087.88 -1.11734 1.11145 0
M  V30 11825 C 1089.29 -1.64928 0.874959 0
M  V30 11826 C 1089.64 -1.87012 -0.593375 0
M  V30 11827 O 1088.77 -1.60206 -1.45475 0
M  V30 11828 C 1089.36 -2.99608 1.58178 0
M  V30 11829 C 1087.92 -3.49723 1.39179 0
M  V30 11830 C 1087.07 -2.24595 1.62642 0
M  V30 11831 H 1090.02 -0.954154 1.26813 0
M  V30 11832 H 1090.04 -3.66434 1.02501 0
M  V30 11833 H 1089.55 -2.83504 2.65042 0
M  V30 11834 H 1087.65 -3.70998 0.345111 0
M  V30 11835 H 1087.77 -4.28711 2.13878 0
M  V30 11836 H 1086.13 -2.32067 1.04961 0
M  V30 11837 H 1086.91 -2.11036 2.70774 0
M  V30 11838 N 1089.36 -0.901303 -1.29284 0
M  V30 11839 C 1090.61 -0.528826 -1.95784 0
M  V30 11840 C 1090.94 0.922833 -1.70873 0
M  V30 11841 O 1090.21 1.65448 -1.0226 0
M  V30 11842 C 1090.5 -0.823793 -3.50551 0
M  V30 11843 C 1090.35 -2.32727 -3.84913 0
M  V30 11844 C 1091.67 -0.311382 -4.38997 0
M  V30 11845 H 1088.79 -0.193604 -0.711116 0
M  V30 11846 H 1091.43 -1.12828 -1.52872 0
M  V30 11847 H 1089.58 -0.313612 -3.87232 0
M  V30 11848 H 1091.25 -2.90712 -3.58168 0
M  V30 11849 H 1089.49 -2.78735 -3.32399 0
M  V30 11850 H 1090.17 -2.48423 -4.9294 0
M  V30 11851 H 1092.64 -0.748265 -4.09317 0
M  V30 11852 H 1091.52 -0.546957 -5.46168 0
M  V30 11853 H 1091.78 0.787959 -4.35021 0
M  V30 11854 N 1090.84 1.42931 -0.663954 0
M  V30 11855 C 1091.79 2.32577 0.03287 0
M  V30 11856 C 1092.78 1.49217 0.801918 0
M  V30 11857 O 1093.99 1.65358 0.711106 0
M  V30 11858 H 1090.36 0.751424 0.0294198 0
M  V30 11859 H 1092.33 2.89059 -0.740763 0
M  V30 11860 C 1091.08 3.33661 0.978025 0
M  V30 11861 H 1090.4 3.97837 0.395681 0
M  V30 11862 H 1091.84 3.98997 1.43448 0
M  V30 11863 C 1090.3 2.65085 2.07922 0
M  V30 11864 O 1090.83 2.4745 3.16435 0
M  V30 11865 N 1089.04 2.24285 1.84783 0
M  V30 11866 H 1088.59 2.38827 0.965368 0
M  V30 11867 H 1088.54 1.78732 2.58655 0
M  V30 11868 N 1092.32 0.406567 1.52266 0
M  V30 11869 C 1093.56 -0.169611 2.03695 0
M  V30 11870 C 1093.92 -1.42596 1.2857 0
M  V30 11871 O 1095.12 -2.08041 1.70212 0
M  V30 11872 C 1093.39 -0.413924 3.54995 0
M  V30 11873 S 1094.95 -0.957916 4.28217 0
M  V30 11874 H 1091.77 -0.0462362 0.709495 0
M  V30 11875 H 1094.37 0.558895 1.87341 0
M  V30 11876 H 1093.07 0.507285 4.07253 0
M  V30 11877 H 1092.61 -1.17038 3.75587 0
M  V30 11878 H 1094.62 -2.2387 4.42828 0
M  V30 11879 N 1093.79 -1.57004 0.136909 0
M  V30 11880 C 1094.7 -2.19807 -0.819887 0
M  V30 11881 C 1095.72 -1.17939 -1.27932 0
M  V30 11882 O 1096.9 -1.50478 -1.3386 0
M  V30 11883 C 1093.96 -2.79935 -2.04542 0
M  V30 11884 C 1093.02 -3.96897 -1.6362 0
M  V30 11885 C 1092.26 -4.54148 -2.80331 0
M  V30 11886 O 1092.48 -4.10282 -3.96264 0
M  V30 11887 O 1091.41 -5.44565 -2.56384 0
M  V30 11888 H 1095.24 -3.02058 -0.315337 0
M  V30 11889 H 1092.82 -1.49131 -0.0896151 0
M  V30 11890 H 1094.71 -3.18191 -2.76283 0
M  V30 11891 H 1093.38 -2.00703 -2.53969 0
M  V30 11892 H 1092.29 -3.63376 -0.889316 0
M  V30 11893 H 1093.62 -4.77618 -1.18918 0
M  V30 11894 N 1095.27 0.136881 -1.57004 0
M  V30 11895 C 1096.52 0.847775 -1.83899 0
M  V30 11896 C 1096.85 1.80709 -0.719332 0
M  V30 11897 O 1096.1 1.93527 0.290838 0
M  V30 11898 C 1096.4 1.64711 -3.17183 0
M  V30 11899 C 1096.07 0.833683 -4.43126 0
M  V30 11900 C 1094.73 0.609306 -4.77327 0
M  V30 11901 C 1097.08 0.265504 -5.20523 0
M  V30 11902 C 1094.41 -0.193793 -5.8638 0
M  V30 11903 C 1096.76 -0.524688 -6.3042 0
M  V30 11904 C 1095.43 -0.759548 -6.63164 0
M  V30 11905 H 1094.7 0.310223 -0.672936 0
M  V30 11906 H 1097.34 0.110937 -1.91178 0
M  V30 11907 H 1095.65 2.45435 -3.054 0
M  V30 11908 H 1097.34 2.20081 -3.3521 0
M  V30 11909 H 1093.93 1.01864 -4.16319 0
M  V30 11910 H 1098.12 0.426109 -4.94467 0
M  V30 11911 H 1093.37 -0.385153 -6.10186 0
M  V30 11912 H 1097.55 -0.972033 -6.89583 0
M  V30 11913 H 1095.18 -1.38369 -7.47501 0
M  V30 11914 N 1096.75 1.52266 0.40654 0
M  V30 11915 C 1098 1.66699 1.15496 0
M  V30 11916 C 1098.33 0.397019 1.90098 0
M  V30 11917 O 1097.6 -0.604646 1.84863 0
M  V30 11918 C 1097.89 2.8907 2.14734 0
M  V30 11919 C 1097.74 4.26123 1.44012 0
M  V30 11920 C 1099.06 3.06966 3.15373 0
M  V30 11921 H 1096.18 0.606642 0.418515 0
M  V30 11922 H 1098.82 1.84826 0.440381 0
M  V30 11923 H 1096.97 2.73745 2.75673 0
M  V30 11924 H 1098.64 4.5318 0.861722 0
M  V30 11925 H 1096.89 4.27406 0.742064 0
M  V30 11926 H 1097.56 5.07799 2.16436 0
M  V30 11927 H 1100.03 3.21205 2.64512 0
M  V30 11928 H 1098.91 3.94097 3.82072 0
M  V30 11929 H 1099.17 2.20395 3.83247 0
M  V30 11930 N 1098.23 -0.663929 1.42933 0
M  V30 11931 C 1099.14 -1.80643 1.49683 0
M  V30 11932 C 1100.15 -1.69694 0.38472 0
M  V30 11933 O 1101.33 -1.91052 0.637256 0
M  V30 11934 C 1098.4 -3.16858 1.4072 0
M  V30 11935 C 1097.46 -3.39684 2.62514 0
M  V30 11936 C 1096.69 -4.69399 2.53969 0
M  V30 11937 O 1096.91 -5.48037 1.58152 0
M  V30 11938 O 1095.85 -4.93709 3.44289 0
M  V30 11939 H 1099.67 -1.77903 2.46138 0
M  V30 11940 H 1097.26 -0.821059 1.24816 0
M  V30 11941 H 1099.14 -3.9812 1.38124 0
M  V30 11942 H 1097.81 -3.20211 0.473954 0
M  V30 11943 H 1096.72 -2.58227 2.70684 0
M  V30 11944 H 1098.05 -3.41169 3.54774 0
M  V30 11945 N 1099.71 -1.29285 -0.901281 0
M  V30 11946 C 1100.65 -1.1428 -2.00521 0
M  V30 11947 C 1101.62 -0.0365428 -1.6606 0
M  V30 11948 O 1102.81 -0.203771 -1.89709 0
M  V30 11949 C 1099.95 -0.823671 -3.35126 0
M  V30 11950 C 1099.06 -2.01021 -3.8238 0
M  V30 11951 C 1098.2 -1.6306 -5.05554 0
M  V30 11952 C 1097.24 -2.78304 -5.45173 0
M  V30 11953 N 1096.37 -2.4075 -6.59533 0
M  V30 11954 H 1101.21 -2.08729 -2.12688 0
M  V30 11955 H 1098.75 -1.0387 -1.04161 0
M  V30 11956 H 1100.71 -0.61934 -4.12577 0
M  V30 11957 H 1099.34 0.0839113 -3.22691 0
M  V30 11958 H 1098.39 -2.32629 -3.00978 0
M  V30 11959 H 1099.7 -2.8738 -4.07694 0
M  V30 11960 H 1098.86 -1.38906 -5.90584 0
M  V30 11961 H 1097.59 -0.738464 -4.82077 0
M  V30 11962 H 1096.6 -3.03142 -4.58678 0
M  V30 11963 H 1097.82 -3.68179 -5.70632 0
M  V30 11964 H 1095.77 -1.54022 -6.37662 0
M  V30 11965 H 1095.69 -3.20643 -6.84634 0
M  V30 11966 H 1096.96 -2.19912 -7.47836 0
M  V30 11967 N 1101.18 1.11143 -1.11736 0
M  V30 11968 C 1102.43 1.82311 -0.862875 0
M  V30 11969 C 1102.75 1.85735 0.613326 0
M  V30 11970 O 1103.95 2.53034 0.984168 0
M  V30 11971 C 1102.41 3.27427 -1.49396 0
M  V30 11972 C 1102.02 3.32323 -3.00443 0
M  V30 11973 C 1103.76 4.03474 -1.31944 0
M  V30 11974 C 1101.67 4.71855 -3.56521 0
M  V30 11975 H 1100.6 0.683124 -0.31915 0
M  V30 11976 H 1103.25 1.25045 -1.34298 0
M  V30 11977 H 1101.63 3.84644 -0.941528 0
M  V30 11978 H 1102.8 2.84971 -3.62117 0
M  V30 11979 H 1101.12 2.69758 -3.17206 0
M  V30 11980 H 1103.72 5.06528 -1.71271 0
M  V30 11981 H 1104.06 4.15473 -0.262339 0
M  V30 11982 H 1104.59 3.52652 -1.84069 0
M  V30 11983 H 1101.33 4.65054 -4.61958 0
M  V30 11984 H 1100.85 5.19604 -2.99619 0
M  V30 11985 H 1102.53 5.40816 -3.55144 0
M  V30 11986 N 1102.66 0.908147 1.28804 0
M  V30 11987 C 1103.91 0.534332 1.94494 0
M  V30 11988 C 1104.22 -0.92552 1.72318 0
M  V30 11989 O 1105.43 -1.40724 2.32183 0
M  V30 11990 C 1103.89 0.904748 3.48342 0
M  V30 11991 C 1103.49 2.38394 3.79305 0
M  V30 11992 C 1105.24 0.601249 4.2022 0
M  V30 11993 C 1103.15 2.69478 5.26437 0
M  V30 11994 H 1102.08 0.196107 0.728051 0
M  V30 11995 H 1104.73 1.1063 1.46401 0
M  V30 11996 H 1103.11 0.261624 3.95135 0
M  V30 11997 H 1104.28 3.07333 3.43341 0
M  V30 11998 H 1102.6 2.65733 3.20586 0
M  V30 11999 H 1105.19 0.810225 5.28526 0
M  V30 12000 H 1105.54 -0.460669 4.13743 0
M  V30 12001 H 1106.07 1.20259 3.79187 0
M  V30 12002 H 1102.81 3.74501 5.37986 0
M  V30 12003 H 1102.33 2.05171 5.63618 0
M  V30 12004 H 1104.01 2.56187 5.94119 0
M  V30 12005 N 1104.14 -1.42577 0.671525 0
M  V30 12006 C 1105.09 -2.30798 -0.00883676 0
M  V30 12007 C 1106.06 -1.4578 -0.796076 0
M  V30 12008 O 1107.24 -1.74617 -0.768987 0
M  V30 12009 C 1104.38 -3.31581 -0.956452 0
M  V30 12010 C 1103.5 -4.31691 -0.163381 0
M  V30 12011 C 1102.63 -5.19549 -1.10645 0
M  V30 12012 C 1101.67 -6.1134 -0.304876 0
M  V30 12013 N 1100.81 -6.91761 -1.20048 0
M  V30 12014 H 1105.65 -2.88426 0.749301 0
M  V30 12015 H 1103.18 -1.42074 0.381251 0
M  V30 12016 H 1105.14 -3.88539 -1.51966 0
M  V30 12017 H 1103.77 -2.75561 -1.68126 0
M  V30 12018 H 1102.82 -3.76879 0.516396 0
M  V30 12019 H 1104.14 -4.96683 0.459099 0
M  V30 12020 H 1103.29 -5.81223 -1.73969 0
M  V30 12021 H 1102.03 -4.54726 -1.76282 0
M  V30 12022 H 1101.03 -5.48738 0.341597 0
M  V30 12023 H 1102.26 -6.78211 0.347352 0
M  V30 12024 H 1100.2 -6.2957 -1.84331 0
M  V30 12025 H 1100.12 -7.53345 -0.633003 0
M  V30 12026 H 1101.39 -7.57924 -1.82129 0
M  V30 12027 N 1105.62 -0.414636 -1.52048 0
M  V30 12028 C 1106.57 0.408141 -2.27163 0
M  V30 12029 C 1107.54 1.03636 -1.29803 0
M  V30 12030 O 1108.72 1.05959 -1.58674 0
M  V30 12031 C 1105.86 1.51588 -3.10024 0
M  V30 12032 C 1104.97 0.908034 -4.22349 0
M  V30 12033 C 1104.11 1.98893 -4.9256 0
M  V30 12034 C 1103.15 1.35831 -5.96839 0
M  V30 12035 N 1102.28 2.37958 -6.60545 0
M  V30 12036 H 1107.12 -0.238822 -2.97041 0
M  V30 12037 H 1104.66 -0.129614 -1.46528 0
M  V30 12038 H 1106.62 2.16916 -3.56375 0
M  V30 12039 H 1105.25 2.13279 -2.42305 0
M  V30 12040 H 1104.3 0.143652 -3.80129 0
M  V30 12041 H 1105.61 0.407426 -4.97133 0
M  V30 12042 H 1104.77 2.71935 -5.42343 0
M  V30 12043 H 1103.51 2.5232 -4.17356 0
M  V30 12044 H 1102.51 0.613246 -5.46369 0
M  V30 12045 H 1103.74 0.831655 -6.73988 0
M  V30 12046 H 1101.68 2.90508 -5.88167 0
M  V30 12047 H 1101.6 1.92725 -7.31022 0
M  V30 12048 H 1102.87 3.10553 -7.14966 0
M  V30 12049 N 1107.1 1.56929 -0.145233 0
M  V30 12050 C 1108.01 2.20238 0.808219 0
M  V30 12051 C 1109.02 1.18615 1.27304 0
M  V30 12052 O 1110.2 1.51186 1.3306 0
M  V30 12053 C 1107.26 2.81016 2.03055 0
M  V30 12054 C 1106.32 3.97759 1.61512 0
M  V30 12055 C 1105.56 4.55628 2.77918 0
M  V30 12056 O 1105.78 4.12378 3.94082 0
M  V30 12057 O 1104.71 5.45917 2.53492 0
M  V30 12058 H 1108.54 3.02221 0.299314 0
M  V30 12059 H 1106.13 1.49176 0.0817051 0
M  V30 12060 H 1108.01 3.19652 2.74592 0
M  V30 12061 H 1106.68 2.02047 2.52901 0
M  V30 12062 H 1105.59 3.63842 0.870033 0
M  V30 12063 H 1106.92 4.78242 1.16383 0
M  V30 12064 N 1108.58 -0.128553 1.57075 0
M  V30 12065 C 1109.52 -1.15812 1.9964 0
M  V30 12066 C 1110.49 -1.41679 0.86696 0
M  V30 12067 O 1111.68 -1.53705 1.13046 0
M  V30 12068 C 1108.82 -2.48198 2.39774 0
M  V30 12069 C 1107.93 -2.29348 3.66092 0
M  V30 12070 C 1107.07 -3.54898 3.95248 0
M  V30 12071 C 1106.1 -3.31164 5.14779 0
M  V30 12072 N 1105.24 -4.48891 5.39853 0
M  V30 12073 H 1110.08 -0.788136 2.87389 0
M  V30 12074 H 1107.62 -0.377682 1.42169 0
M  V30 12075 H 1109.58 -3.25414 2.61077 0
M  V30 12076 H 1108.21 -2.83108 1.5508 0
M  V30 12077 H 1107.26 -1.43095 3.5246 0
M  V30 12078 H 1108.57 -2.07781 4.53463 0
M  V30 12079 H 1107.72 -4.40536 4.17148 0
M  V30 12080 H 1106.46 -3.79487 3.06335 0
M  V30 12081 H 1105.47 -2.43915 4.92733 0
M  V30 12082 H 1106.69 -3.07954 6.05261 0
M  V30 12083 H 1104.64 -4.73619 4.53895 0
M  V30 12084 H 1104.56 -4.30394 6.21528 0
M  V30 12085 H 1105.82 -5.35691 5.66265 0
M  V30 12086 N 1110.05 -1.5248 -0.398459 0
M  V30 12087 C 1111.46 -1.59107 -0.976817 0
M  V30 12088 C 1111.82 -0.438104 -1.91246 0
M  V30 12089 O 1110.94 0.440111 -2.11877 0
M  V30 12090 C 1111.54 -2.88373 -1.77838 0
M  V30 12091 C 1110.09 -2.97445 -2.30659 0
M  V30 12092 C 1109.24 -2.5414 -1.10942 0
M  V30 12093 H 1112.19 -1.57695 -0.178324 0
M  V30 12094 H 1112.21 -2.74327 -2.63676 0
M  V30 12095 H 1111.73 -3.72269 -1.09714 0
M  V30 12096 H 1109.83 -2.18066 -3.02123 0
M  V30 12097 H 1109.94 -4.019 -2.60794 0
M  V30 12098 H 1108.3 -2.08237 -1.46661 0
M  V30 12099 H 1109.09 -3.40421 -0.443684 0
M  V30 12100 N 1111.53 0.65634 -1.43283 0
M  V30 12101 C 1112.81 1.41339 -1.35213 0
M  V30 12102 C 1113.19 2.111 0.00158494 0
M  V30 12103 O 1112.54 2.0457 1.018 0
M  V30 12104 C 1112.75 2.40066 -2.53317 0
M  V30 12105 C 1114.09 3.04159 -2.96264 0
M  V30 12106 O 1115.12 2.50393 -2.53341 0
M  V30 12107 O 1113.98 4.01633 -3.70612 0
M  V30 12108 H 1111.07 0.631325 -0.534189 0
M  V30 12109 H 1113.62 0.68351 -1.55326 0
M  V30 12110 H 1112.39 1.87444 -3.43483 0
M  V30 12111 H 1112.01 3.20509 -2.35287 0
M  V30 12112 N 1113.01 1.29761 0.894412 0
M  V30 12113 C 1114.26 1.18039 1.64539 0
M  V30 12114 C 1114.58 -0.26697 1.92659 0
M  V30 12115 O 1113.84 -1.20865 1.53916 0
M  V30 12116 C 1114.14 1.94458 2.99868 0
M  V30 12117 C 1113.8 3.44143 2.91336 0
M  V30 12118 C 1112.47 3.84963 2.88716 0
M  V30 12119 C 1114.82 4.39503 2.80154 0
M  V30 12120 C 1112.15 5.19451 2.72741 0
M  V30 12121 C 1114.5 5.74088 2.65718 0
M  V30 12122 C 1113.16 6.14159 2.61467 0
M  V30 12123 H 1112.43 0.431936 0.60209 0
M  V30 12124 H 1115.08 1.60758 1.04063 0
M  V30 12125 H 1113.38 1.44346 3.64241 0
M  V30 12126 H 1115.08 1.82788 3.56917 0
M  V30 12127 H 1111.67 3.11699 2.9418 0
M  V30 12128 H 1115.86 4.08915 2.81251 0
M  V30 12129 H 1111.11 5.49602 2.67858 0
M  V30 12130 H 1115.29 6.47625 2.56038 0
M  V30 12131 H 1112.91 7.18317 2.48847 0
M  V30 12132 N 1114.49 -1.10549 1.12324 0
M  V30 12133 C 1115.74 -1.81851 0.872531 0
M  V30 12134 C 1116.05 -1.86058 -0.603468 0
M  V30 12135 O 1117.26 -2.53553 -0.970736 0
M  V30 12136 C 1115.71 -3.26631 1.51131 0
M  V30 12137 C 1115.32 -3.30725 3.02201 0
M  V30 12138 C 1117.06 -4.02768 1.34082 0
M  V30 12139 C 1114.97 -4.69957 3.59018 0
M  V30 12140 H 1113.9 -0.681422 0.322769 0
M  V30 12141 H 1116.55 -1.24332 1.34959 0
M  V30 12142 H 1114.93 -3.8414 0.961913 0
M  V30 12143 H 1116.11 -2.83046 3.63623 0
M  V30 12144 H 1114.42 -2.68072 3.18632 0
M  V30 12145 H 1117.02 -5.05612 1.73955 0
M  V30 12146 H 1117.36 -4.15328 0.284369 0
M  V30 12147 H 1117.9 -3.51671 1.85937 0
M  V30 12148 H 1114.63 -4.62597 4.64418 0
M  V30 12149 H 1114.15 -5.18008 3.02371 0
M  V30 12150 H 1115.83 -5.38925 3.58007 0
M  V30 12151 N 1115.97 -0.914965 -1.28321 0
M  V30 12152 C 1116.9 -0.421292 -2.29668 0
M  V30 12153 C 1117.88 0.511743 -1.6222 0
M  V30 12154 O 1119.06 0.419218 -1.89621 0
M  V30 12155 C 1116.19 0.338364 -3.45648 0
M  V30 12156 C 1115.15 -0.505646 -4.25003 0
M  V30 12157 C 1114.47 0.382421 -5.33331 0
M  V30 12158 C 1115.77 -1.76354 -4.91626 0
M  V30 12159 H 1117.47 -1.26826 -2.71211 0
M  V30 12160 H 1115.01 -0.611291 -1.30381 0
M  V30 12161 H 1116.96 0.694578 -4.15636 0
M  V30 12162 H 1115.69 1.21925 -3.02988 0
M  V30 12163 H 1114.35 -0.844395 -3.56743 0
M  V30 12164 H 1114 1.26189 -4.86914 0
M  V30 12165 H 1113.7 -0.17871 -5.87328 0
M  V30 12166 H 1115.22 0.73449 -6.06166 0
M  V30 12167 H 1116.63 -1.47616 -5.5397 0
M  V30 12168 H 1115.03 -2.26717 -5.55625 0
M  V30 12169 H 1116.1 -2.49063 -4.16048 0
M  V30 12170 N 1117.44 1.42219 -0.679077 0
M  V30 12171 C 1118.68 2.03349 -0.207058 0
M  V30 12172 C 1119.05 1.52554 1.16581 0
M  V30 12173 O 1120.25 2.05499 1.73274 0
M  V30 12174 C 1118.52 3.56562 -0.244537 0
M  V30 12175 S 1120.08 4.38523 0.155853 0
M  V30 12176 H 1116.9 0.705932 -0.0847444 0
M  V30 12177 H 1119.5 1.73904 -0.893183 0
M  V30 12178 H 1118.2 3.91028 -1.246 0
M  V30 12179 H 1117.73 3.90686 0.461282 0
M  V30 12180 H 1119.75 4.76389 1.38808 0
M  V30 12181 N 1118.92 0.422693 1.51826 0
M  V30 12182 C 1120.15 -0.147744 2.06372 0
M  V30 12183 C 1120.56 -1.37714 1.29152 0
M  V30 12184 O 1119.92 -1.7917 0.347046 0
M  V30 12185 C 1119.97 -0.484642 3.58237 0
M  V30 12186 O 1119.69 0.695944 4.32537 0
M  V30 12187 C 1121.19 -1.10734 4.29247 0
M  V30 12188 H 1118.41 -0.0144047 0.670845 0
M  V30 12189 H 1120.96 0.597558 1.95575 0
M  V30 12190 H 1119.11 -1.17984 3.68997 0
M  V30 12191 H 1119.53 0.411471 5.22884 0
M  V30 12192 H 1121 -1.29318 5.36639 0
M  V30 12193 H 1121.48 -2.08429 3.86593 0
M  V30 12194 H 1122.08 -0.451958 4.22892 0
M  V30 12195 N 1120.4 -1.5685 0.153553 0
M  V30 12196 C 1121.65 -1.96334 -0.495915 0
M  V30 12197 C 1121.97 -1.03873 -1.64441 0
M  V30 12198 O 1121.23 -0.069231 -1.95578 0
M  V30 12199 C 1121.53 -3.42022 -1.0371 0
M  V30 12200 C 1121.19 -4.509 -0.00637049 0
M  V30 12201 C 1119.86 -4.80402 0.276956 0
M  V30 12202 C 1122.21 -5.16556 0.694187 0
M  V30 12203 C 1119.54 -5.72866 1.26653 0
M  V30 12204 C 1121.89 -6.10087 1.67263 0
M  V30 12205 C 1120.55 -6.37965 1.96359 0
M  V30 12206 H 1119.82 -0.718436 -0.181468 0
M  V30 12207 H 1122.47 -1.89968 0.241768 0
M  V30 12208 H 1120.77 -3.45252 -1.85225 0
M  V30 12209 H 1122.47 -3.69903 -1.54831 0
M  V30 12210 H 1119.06 -4.27942 -0.237378 0
M  V30 12211 H 1123.25 -4.9389 0.488496 0
M  V30 12212 H 1118.5 -5.92756 1.49833 0
M  V30 12213 H 1122.68 -6.60036 2.22094 0
M  V30 12214 H 1120.3 -7.09416 2.73189 0
M  V30 12215 N 1121.88 0.120221 -1.57141 0
M  V30 12216 C 1123.13 0.826586 -1.84423 0
M  V30 12217 C 1123.45 1.80473 -0.738553 0
M  V30 12218 O 1122.72 1.94454 0.23755 0
M  V30 12219 H 1121.3 0.308246 -0.680436 0
M  V30 12220 H 1123.96 0.107835 -1.94601 0
M  V30 12221 H 1123.05 1.37256 -2.80298 0
M  V30 12222 N 1123.36 1.52689 0.390367 0
M  V30 12223 C 1124.6 1.67335 1.13329 0
M  V30 12224 C 1124.93 0.415068 1.90531 0
M  V30 12225 O 1124.2 -0.570504 1.87409 0
M  V30 12226 H 1122.78 0.616821 0.421356 0
M  V30 12227 H 1125.44 1.89799 0.443 0
M  V30 12228 H 1124.53 2.52314 1.83696 0
M  V30 12229 N 1124.83 -0.648732 1.43629 0
M  V30 12230 C 1125.77 -1.77417 1.45107 0
M  V30 12231 C 1126.78 -1.59067 0.346618 0
M  V30 12232 O 1127.97 -1.67705 0.611322 0
M  V30 12233 C 1125.07 -3.14906 1.25249 0
M  V30 12234 C 1124.24 -3.59874 2.48616 0
M  V30 12235 C 1123.3 -4.76181 2.23916 0
M  V30 12236 O 1122.33 -4.8539 2.97296 0
M  V30 12237 N 1123.53 -5.66691 1.25862 0
M  V30 12238 H 1126.29 -1.76626 2.42123 0
M  V30 12239 H 1123.85 -0.832725 1.38843 0
M  V30 12240 H 1125.85 -3.90408 1.06601 0
M  V30 12241 H 1124.42 -3.10443 0.366623 0
M  V30 12242 H 1123.64 -2.74768 2.82659 0
M  V30 12243 H 1124.92 -3.86665 3.30708 0
M  V30 12244 H 1124.32 -5.61927 0.652227 0
M  V30 12245 H 1122.88 -6.41895 1.13196 0
M  V30 12246 N 1126.31 -1.30234 -0.887518 0
M  V30 12247 C 1127.54 -1.21829 -1.67229 0
M  V30 12248 C 1127.96 0.219251 -1.87523 0
M  V30 12249 O 1127.31 1.14526 -1.42091 0
M  V30 12250 C 1127.36 -1.94044 -3.05007 0
M  V30 12251 O 1127.08 -3.32185 -2.85631 0
M  V30 12252 C 1128.59 -1.92265 -3.99436 0
M  V30 12253 H 1125.81 -0.421716 -0.521916 0
M  V30 12254 H 1128.35 -1.71816 -1.10903 0
M  V30 12255 H 1126.5 -1.47861 -3.58072 0
M  V30 12256 H 1126.92 -3.68724 -3.73018 0
M  V30 12257 H 1128.39 -2.47336 -4.93486 0
M  V30 12258 H 1128.87 -0.900984 -4.29859 0
M  V30 12259 H 1129.48 -2.38247 -3.52305 0
M  V30 12260 N 1127.79 1.09952 -1.12909 0
M  V30 12261 C 1128.75 2.14615 -0.804548 0
M  V30 12262 C 1129.75 1.5975 0.18345 0
M  V30 12263 O 1130.94 1.74147 -0.0429623 0
M  V30 12264 C 1128.08 3.40333 -0.196471 0
M  V30 12265 H 1129.27 2.44835 -1.73193 0
M  V30 12266 H 1126.82 1.25399 -0.932997 0
M  V30 12267 H 1127.56 3.15735 0.740388 0
M  V30 12268 H 1127.34 3.81444 -0.907886 0
M  V30 12269 H 1128.83 4.17598 0.0139264 0
M  V30 12270 N 1129.27 0.921757 1.27833 0
M  V30 12271 C 1130.2 0.433466 2.29441 0
M  V30 12272 C 1131.18 -0.503133 1.62489 0
M  V30 12273 O 1132.36 -0.409156 1.89841 0
M  V30 12274 C 1129.49 -0.320029 3.45822 0
M  V30 12275 C 1128.45 0.528178 4.24728 0
M  V30 12276 C 1127.77 -0.354132 5.33526 0
M  V30 12277 C 1129.07 1.78959 4.90684 0
M  V30 12278 H 1130.77 1.28263 2.70535 0
M  V30 12279 H 1128.31 0.618197 1.30055 0
M  V30 12280 H 1130.27 -0.672526 4.15999 0
M  V30 12281 H 1128.99 -1.20317 3.0363 0
M  V30 12282 H 1127.65 0.863302 3.5629 0
M  V30 12283 H 1127.3 -1.23605 4.87576 0
M  V30 12284 H 1127 0.209855 5.87225 0
M  V30 12285 H 1128.52 -0.702333 6.06547 0
M  V30 12286 H 1129.94 1.50552 5.53179 0
M  V30 12287 H 1128.33 2.29661 5.54415 0
M  V30 12288 H 1129.4 2.51265 4.14721 0
M  V30 12289 N 1130.75 -1.41857 0.686609 0
M  V30 12290 C 1131.69 -2.326 0.0041351 0
M  V30 12291 C 1132.69 -1.50474 -0.778077 0
M  V30 12292 O 1133.89 -1.66468 -0.684709 0
M  V30 12293 H 1130.27 -0.751797 -0.0174615 0
M  V30 12294 H 1132.24 -2.87844 0.786656 0
M  V30 12295 C 1130.99 -3.35175 -0.924819 0
M  V30 12296 H 1130.31 -3.98416 -0.332339 0
M  V30 12297 H 1131.75 -4.01229 -1.37082 0
M  V30 12298 C 1130.21 -2.68359 -2.03679 0
M  V30 12299 O 1130.74 -2.52453 -3.12459 0
M  V30 12300 N 1128.95 -2.27196 -1.81192 0
M  V30 12301 H 1128.49 -2.40333 -0.92725 0
M  V30 12302 H 1128.45 -1.82824 -2.55778 0
M  V30 12303 N 1132.22 -0.430739 -1.51599 0
M  V30 12304 C 1133.46 0.137184 -2.03939 0
M  V30 12305 C 1133.83 1.40533 -1.30823 0
M  V30 12306 O 1135.03 2.05307 -1.73501 0
M  V30 12307 C 1133.3 0.357395 -3.55609 0
M  V30 12308 S 1134.86 0.889669 -4.29686 0
M  V30 12309 H 1131.68 0.0349429 -0.710141 0
M  V30 12310 H 1134.28 -0.588628 -1.86428 0
M  V30 12311 H 1132.98 -0.572011 -4.06394 0
M  V30 12312 H 1132.51 1.11047 -3.77402 0
M  V30 12313 H 1134.53 2.16797 -4.46333 0
M  V30 12314 N 1133.7 1.56767 -0.161869 0
M  V30 12315 C 1134.67 2.16299 0.758104 0
M  V30 12316 C 1135.67 1.10859 1.16478 0
M  V30 12317 O 1136.86 1.36422 1.08327 0
M  V30 12318 C 1133.99 2.73819 2.03067 0
M  V30 12319 H 1135.18 2.98938 0.239992 0
M  V30 12320 H 1132.73 1.56054 0.0876532 0
M  V30 12321 H 1133.47 1.94887 2.59209 0
M  V30 12322 H 1133.25 3.50974 1.74813 0
M  V30 12323 H 1134.74 3.19638 2.68741 0
M  V30 12324 N 1135.18 -0.111886 1.57202 0
M  V30 12325 C 1136.11 -1.13796 2.03894 0
M  V30 12326 C 1137.09 -1.4277 0.924696 0
M  V30 12327 O 1138.28 -1.53089 1.19488 0
M  V30 12328 C 1135.41 -2.46229 2.44925 0
M  V30 12329 C 1134.36 -2.31702 3.59859 0
M  V30 12330 C 1133.69 -3.69161 3.86813 0
M  V30 12331 C 1134.99 -1.77158 4.91337 0
M  V30 12332 H 1136.68 -0.749581 2.89865 0
M  V30 12333 H 1134.23 -0.359126 1.3945 0
M  V30 12334 H 1136.18 -3.18267 2.76195 0
M  V30 12335 H 1134.9 -2.86971 1.55933 0
M  V30 12336 H 1133.56 -1.62112 3.28809 0
M  V30 12337 H 1133.21 -4.07401 2.95015 0
M  V30 12338 H 1132.91 -3.60292 4.6418 0
M  V30 12339 H 1134.43 -4.42693 4.20542 0
M  V30 12340 H 1135.85 -2.3902 5.21097 0
M  V30 12341 H 1134.25 -1.79091 5.72753 0
M  V30 12342 H 1135.32 -0.729675 4.79379 0
M  V30 12343 N 1136.66 -1.52894 -0.382264 0
M  V30 12344 C 1137.59 -1.7291 -1.48921 0
M  V30 12345 C 1138.57 -0.577056 -1.52016 0
M  V30 12346 O 1139.75 -0.807667 -1.7032 0
M  V30 12347 C 1136.88 -1.79281 -2.87361 0
M  V30 12348 C 1135.93 -3.01099 -3.02063 0
M  V30 12349 S 1136.76 -4.60947 -2.72558 0
M  V30 12350 C 1137.92 -4.70144 -4.13178 0
M  V30 12351 H 1138.15 -2.66529 -1.31718 0
M  V30 12352 H 1135.68 -1.43271 -0.575563 0
M  V30 12353 H 1137.64 -1.83637 -3.67134 0
M  V30 12354 H 1136.3 -0.867428 -3.01885 0
M  V30 12355 H 1135.49 -3.02117 -4.03412 0
M  V30 12356 H 1135.1 -2.94769 -2.3019 0
M  V30 12357 H 1137.39 -4.49173 -5.07198 0
M  V30 12358 H 1138.33 -5.72166 -4.17172 0
M  V30 12359 H 1138.74 -3.98923 -3.99401 0
M  V30 12360 N 1138.14 0.641106 -1.43971 0
M  V30 12361 C 1139.07 1.76489 -1.52885 0
M  V30 12362 C 1140.05 1.65742 -0.38258 0
M  V30 12363 O 1141.23 1.84653 -0.601397 0
M  V30 12364 C 1138.36 3.14977 -1.4631 0
M  V30 12365 C 1137.32 3.40502 -2.59311 0
M  V30 12366 C 1136.64 4.78916 -2.37789 0
M  V30 12367 C 1137.94 3.34048 -4.01509 0
M  V30 12368 H 1139.64 1.69286 -2.46946 0
M  V30 12369 H 1137.18 0.813015 -1.18853 0
M  V30 12370 H 1139.14 3.9336 -1.51149 0
M  V30 12371 H 1137.86 3.2294 -0.487599 0
M  V30 12372 H 1136.52 2.64495 -2.53846 0
M  V30 12373 H 1136.17 4.8357 -1.38454 0
M  V30 12374 H 1135.87 4.96954 -3.13545 0
M  V30 12375 H 1137.39 5.59541 -2.4443 0
M  V30 12376 H 1138.81 4.0235 -4.08396 0
M  V30 12377 H 1137.2 3.63622 -4.77388 0
M  V30 12378 H 1138.27 2.32022 -4.25786 0
M  V30 12379 N 1139.62 1.30703 0.880598 0
M  V30 12380 C 1140.89 1.1043 1.61445 0
M  V30 12381 C 1141.27 -0.344837 2.08264 0
M  V30 12382 O 1140.62 -1.33711 1.85293 0
M  V30 12383 C 1140.83 2.10908 2.78063 0
M  V30 12384 C 1142.18 2.42861 3.48287 0
M  V30 12385 O 1143.2 2.09252 2.88257 0
M  V30 12386 O 1142.06 3.00369 4.56553 0
M  V30 12387 H 1139.16 0.424419 0.709787 0
M  V30 12388 H 1141.7 1.42144 0.926991 0
M  V30 12389 H 1140.47 3.08431 2.40803 0
M  V30 12390 H 1140.1 1.80036 3.54503 0
M  V30 12391 N 1141.09 -1.09351 1.1349 0
M  V30 12392 C 1142.03 -2.15852 0.770763 0
M  V30 12393 C 1143.04 -1.61468 -0.207866 0
M  V30 12394 O 1144.23 -1.78496 0.0124385 0
M  V30 12395 C 1141.33 -3.38681 0.121871 0
M  V30 12396 C 1140.5 -4.22477 1.13279 0
M  V30 12397 C 1139.56 -5.23728 0.509448 0
M  V30 12398 O 1138.59 -5.57052 1.16967 0
M  V30 12399 N 1139.79 -5.76041 -0.718159 0
M  V30 12400 H 1142.55 -2.47696 1.6872 0
M  V30 12401 H 1140.11 -1.25074 1.02801 0
M  V30 12402 H 1142.11 -4.03531 -0.307404 0
M  V30 12403 H 1140.68 -3.04718 -0.697527 0
M  V30 12404 H 1139.9 -3.53753 1.73933 0
M  V30 12405 H 1141.18 -4.75288 1.81601 0
M  V30 12406 H 1140.58 -5.51183 -1.27331 0
M  V30 12407 H 1139.14 -6.4262 -1.09008 0
M  V30 12408 N 1142.57 -0.928524 -1.27343 0
M  V30 12409 C 1143.52 -0.426873 -2.26818 0
M  V30 12410 C 1144.49 0.506663 -1.58184 0
M  V30 12411 O 1145.67 0.425641 -1.85992 0
M  V30 12412 C 1142.81 0.313523 -3.43673 0
M  V30 12413 C 1141.93 -0.65422 -4.27018 0
M  V30 12414 C 1141.06 0.106102 -5.31094 0
M  V30 12415 C 1140.1 -0.854293 -6.06109 0
M  V30 12416 N 1139.24 -0.126545 -7.01986 0
M  V30 12417 H 1144.08 -1.28014 -2.69103 0
M  V30 12418 H 1141.61 -0.642515 -1.32326 0
M  V30 12419 H 1143.57 0.75912 -4.10236 0
M  V30 12420 H 1142.2 1.13102 -3.02337 0
M  V30 12421 H 1141.25 -1.21834 -3.60362 0
M  V30 12422 H 1142.57 -1.38817 -4.79094 0
M  V30 12423 H 1141.72 0.611577 -6.0361 0
M  V30 12424 H 1140.46 0.873009 -4.79823 0
M  V30 12425 H 1139.46 -1.37101 -5.32432 0
M  V30 12426 H 1140.69 -1.621 -6.5947 0
M  V30 12427 H 1138.64 0.622102 -6.53044 0
M  V30 12428 H 1138.55 -0.800046 -7.51755 0
M  V30 12429 H 1139.82 0.358251 -7.78676 0
M  V30 12430 N 1144.05 1.41491 -0.694123 0
M  V30 12431 C 1145 2.30783 -0.0278824 0
M  V30 12432 C 1145.97 1.47028 0.772783 0
M  V30 12433 O 1147.15 1.75819 0.74111 0
M  V30 12434 C 1144.29 3.33061 0.903579 0
M  V30 12435 C 1143.4 4.31896 0.0946823 0
M  V30 12436 C 1142.54 5.21243 1.02365 0
M  V30 12437 C 1141.58 6.11748 0.207578 0
M  V30 12438 N 1140.72 6.93583 1.09028 0
M  V30 12439 H 1145.56 2.87197 -0.795092 0
M  V30 12440 H 1143.09 1.41449 -0.403806 0
M  V30 12441 H 1145.05 3.90907 1.45765 0
M  V30 12442 H 1143.68 2.782 1.6372 0
M  V30 12443 H 1142.73 3.76009 -0.576289 0
M  V30 12444 H 1144.04 4.95889 -0.538059 0
M  V30 12445 H 1143.2 5.83917 1.647 0
M  V30 12446 H 1141.94 4.57473 1.69025 0
M  V30 12447 H 1140.94 5.48125 -0.428854 0
M  V30 12448 H 1142.17 6.77573 -0.455206 0
M  V30 12449 H 1140.11 6.32422 1.74292 0
M  V30 12450 H 1140.03 7.54257 0.513073 0
M  V30 12451 H 1141.3 7.60726 1.70048 0
M  V30 12452 N 1145.53 0.438773 1.51369 0
M  V30 12453 C 1146.77 -0.127401 2.02399 0
M  V30 12454 C 1147.11 -1.42235 1.32223 0
M  V30 12455 O 1146.38 -1.89513 0.437607 0
M  V30 12456 C 1146.66 -0.344673 3.58447 0
M  V30 12457 C 1146.52 0.969027 4.39238 0
M  V30 12458 C 1147.84 -1.11381 4.25773 0
M  V30 12459 H 1144.96 -0.0448281 0.735635 0
M  V30 12460 H 1147.6 0.57805 1.80993 0
M  V30 12461 H 1145.75 -0.945582 3.76817 0
M  V30 12462 H 1147.42 1.60403 4.32514 0
M  V30 12463 H 1145.66 1.57329 4.04265 0
M  V30 12464 H 1146.33 0.771029 5.46589 0
M  V30 12465 H 1148.81 -0.604785 4.11681 0
M  V30 12466 H 1147.69 -1.23459 5.34835 0
M  V30 12467 H 1147.95 -2.14225 3.8673 0
M  V30 12468 N 1147.01 -1.56678 0.170181 0
M  V30 12469 C 1147.94 -2.20916 -0.756213 0
M  V30 12470 C 1148.92 -1.16442 -1.23997 0
M  V30 12471 O 1150.1 -1.44867 -1.29333 0
M  V30 12472 C 1147.23 -2.84901 -1.98617 0
M  V30 12473 C 1146.19 -3.95403 -1.63831 0
M  V30 12474 C 1145.51 -4.46432 -2.94282 0
M  V30 12475 C 1146.81 -5.15051 -0.867195 0
M  V30 12476 H 1148.51 -2.98585 -0.220776 0
M  V30 12477 H 1146.05 -1.43619 -0.104748 0
M  V30 12478 H 1148 -3.28514 -2.63926 0
M  V30 12479 H 1146.73 -2.04598 -2.54572 0
M  V30 12480 H 1145.39 -3.52444 -1.00891 0
M  V30 12481 H 1145.04 -3.62923 -3.48276 0
M  V30 12482 H 1144.74 -5.20979 -2.71762 0
M  V30 12483 H 1146.26 -4.92731 -3.60622 0
M  V30 12484 H 1147.67 -5.55363 -1.42285 0
M  V30 12485 H 1146.07 -5.95507 -0.741065 0
M  V30 12486 H 1147.14 -4.84707 0.136693 0
M  V30 12487 N 1148.48 0.103547 -1.57259 0
M  V30 12488 C 1149.43 1.12621 -2.01458 0
M  V30 12489 C 1150.4 1.40282 -0.889391 0
M  V30 12490 O 1151.59 1.51887 -1.15477 0
M  V30 12491 C 1148.73 2.44352 -2.43692 0
M  V30 12492 C 1147.84 2.23495 -3.69695 0
M  V30 12493 C 1146.97 3.48565 -4.00844 0
M  V30 12494 C 1146.01 3.22932 -5.19982 0
M  V30 12495 N 1145.15 4.40246 -5.46926 0
M  V30 12496 H 1149.99 0.742315 -2.88606 0
M  V30 12497 H 1147.53 0.355016 -1.42752 0
M  V30 12498 H 1149.48 3.2122 -2.66221 0
M  V30 12499 H 1148.11 2.80605 -1.59565 0
M  V30 12500 H 1147.17 1.3747 -3.54692 0
M  V30 12501 H 1148.48 2.0054 -4.56711 0
M  V30 12502 H 1147.63 4.33844 -4.24104 0
M  V30 12503 H 1146.37 3.74565 -3.12333 0
M  V30 12504 H 1145.38 2.36045 -4.96551 0
M  V30 12505 H 1146.6 2.98286 -6.10084 0
M  V30 12506 H 1144.55 4.66338 -4.61373 0
M  V30 12507 H 1144.46 4.20452 -6.28296 0
M  V30 12508 H 1145.73 5.26614 -5.74716 0
M  V30 12509 N 1149.96 1.53094 0.37415 0
M  V30 12510 C 1150.91 1.78927 1.45787 0
M  V30 12511 C 1151.88 0.633187 1.53558 0
M  V30 12512 O 1153.06 0.874472 1.69581 0
M  V30 12513 C 1150.2 1.97726 2.8284 0
M  V30 12514 C 1149.32 3.25436 2.84104 0
M  V30 12515 C 1148.45 3.3447 4.12678 0
M  V30 12516 C 1147.49 4.56246 4.08051 0
M  V30 12517 N 1146.63 4.6248 5.28258 0
M  V30 12518 H 1151.47 2.71404 1.2306 0
M  V30 12519 H 1149 1.34453 0.596716 0
M  V30 12520 H 1150.96 2.06611 3.62447 0
M  V30 12521 H 1149.59 1.08593 3.03986 0
M  V30 12522 H 1148.64 3.25548 1.96781 0
M  V30 12523 H 1149.96 4.15112 2.76556 0
M  V30 12524 H 1149.11 3.4262 5.00696 0
M  V30 12525 H 1147.85 2.42795 4.22968 0
M  V30 12526 H 1146.85 4.48206 3.1842 0
M  V30 12527 H 1148.08 5.49254 3.99371 0
M  V30 12528 H 1146.03 3.73703 5.3915 0
M  V30 12529 H 1145.94 5.46049 5.22845 0
M  V30 12530 H 1147.21 4.74903 6.18132 0
M  V30 12531 N 1151.44 -0.633461 1.44309 0
M  V30 12532 C 1152.39 -1.76674 1.51292 0
M  V30 12533 C 1153.38 -1.64972 0.384807 0
M  V30 12534 O 1154.59 -1.71079 0.559653 0
M  V30 12535 H 1150.96 -0.583238 0.474697 0
M  V30 12536 H 1152.93 -1.67907 2.46678 0
M  V30 12537 C 1151.68 -3.15002 1.47205 0
M  V30 12538 H 1151.01 -3.24653 2.33325 0
M  V30 12539 H 1152.45 -3.94199 1.56151 0
M  V30 12540 C 1150.9 -3.3635 0.192464 0
M  V30 12541 O 1151.43 -3.94857 -0.738285 0
M  V30 12542 N 1149.64 -2.9044 0.0963424 0
M  V30 12543 H 1149.19 -2.43011 0.85459 0
M  V30 12544 H 1149.15 -3.05099 -0.759061 0
M  V30 12545 N 1152.92 -1.31168 -0.873655 0
M  V30 12546 C 1153.87 -1.18432 -2.00191 0
M  V30 12547 C 1154.86 -0.0934873 -1.69142 0
M  V30 12548 O 1156.07 -0.255126 -1.78183 0
M  V30 12549 H 1152.44 -0.366594 -0.656592 0
M  V30 12550 H 1154.41 -2.13896 -2.08065 0
M  V30 12551 C 1153.16 -0.904668 -3.35725 0
M  V30 12552 H 1152.48 -1.73617 -3.60135 0
M  V30 12553 H 1153.92 -0.855715 -4.15275 0
M  V30 12554 C 1152.38 0.392554 -3.34605 0
M  V30 12555 O 1152.91 1.41052 -3.76121 0
M  V30 12556 N 1151.12 0.40777 -2.87725 0
M  V30 12557 H 1150.67 -0.42112 -2.54134 0
M  V30 12558 H 1150.62 1.27564 -2.87358 0
M  V30 12559 N 1154.4 1.08748 -1.14068 0
M  V30 12560 C 1155.64 1.82672 -0.917072 0
M  V30 12561 C 1156 1.84052 0.546688 0
M  V30 12562 O 1157.2 2.53704 0.888118 0
M  V30 12563 C 1155.47 3.24525 -1.49727 0
M  V30 12564 S 1157.03 4.15369 -1.41472 0
M  V30 12565 H 1153.85 0.629576 -0.330387 0
M  V30 12566 H 1156.45 1.3074 -1.45352 0
M  V30 12567 H 1155.16 3.21101 -2.55583 0
M  V30 12568 H 1154.69 3.8153 -0.959069 0
M  V30 12569 H 1156.7 4.94602 -0.39788 0
M  V30 12570 N 1155.87 0.935264 1.26849 0
M  V30 12571 C 1156.81 0.397539 2.25726 0
M  V30 12572 C 1157.82 -0.475928 1.55688 0
M  V30 12573 O 1159.01 -0.287329 1.76172 0
M  V30 12574 C 1156.11 -0.448308 3.35922 0
M  V30 12575 C 1155.28 0.407624 4.35496 0
M  V30 12576 C 1154.34 -0.376815 5.24849 0
M  V30 12577 O 1153.37 0.218109 5.68782 0
M  V30 12578 N 1154.57 -1.67481 5.55815 0
M  V30 12579 H 1157.33 1.24753 2.72501 0
M  V30 12580 H 1154.89 0.803505 1.40554 0
M  V30 12581 H 1156.89 -0.980338 3.92647 0
M  V30 12582 H 1155.46 -1.19908 2.88688 0
M  V30 12583 H 1154.68 1.12091 3.77928 0
M  V30 12584 H 1155.96 0.992512 4.99026 0
M  V30 12585 H 1155.36 -2.18037 5.21993 0
M  V30 12586 H 1153.92 -2.15321 6.15207 0
M  V30 12587 N 1157.35 -1.41121 0.701616 0
M  V30 12588 C 1158.59 -2.02993 0.239383 0
M  V30 12589 C 1158.96 -1.5439 -1.1414 0
M  V30 12590 O 1160.16 -2.08229 -1.69982 0
M  V30 12591 C 1158.43 -3.56128 0.301232 0
M  V30 12592 S 1159.99 -4.38716 -0.0860681 0
M  V30 12593 H 1156.81 -0.704494 0.0959645 0
M  V30 12594 H 1159.41 -1.72461 0.920736 0
M  V30 12595 H 1158.11 -3.88996 1.30805 0
M  V30 12596 H 1157.64 -3.91371 -0.399069 0
M  V30 12597 H 1159.66 -4.78537 -1.31212 0
M  V30 12598 N 1158.83 -0.446794 -1.51134 0
M  V30 12599 C 1159.76 0.350229 -2.30858 0
M  V30 12600 C 1160.74 1.0125 -1.36684 0
M  V30 12601 O 1161.93 1.01433 -1.65605 0
M  V30 12602 C 1159.06 1.4464 -3.15748 0
M  V30 12603 C 1158.01 0.907102 -4.18277 0
M  V30 12604 C 1157.34 2.09974 -4.91747 0
M  V30 12605 C 1158.64 -0.0649758 -5.2226 0
M  V30 12606 H 1160.33 -0.315105 -2.97737 0
M  V30 12607 H 1157.88 -0.152985 -1.43185 0
M  V30 12608 H 1159.83 2.01127 -3.70305 0
M  V30 12609 H 1158.55 2.14016 -2.46708 0
M  V30 12610 H 1157.21 0.364382 -3.64785 0
M  V30 12611 H 1156.86 2.77991 -4.19202 0
M  V30 12612 H 1156.56 1.74523 -5.61084 0
M  V30 12613 H 1158.08 2.66996 -5.49131 0
M  V30 12614 H 1159.5 0.4099 -5.71833 0
M  V30 12615 H 1157.9 -0.332529 -5.99178 0
M  V30 12616 H 1158.97 -0.998681 -4.74504 0
M  V30 12617 N 1160.31 1.56586 -0.178487 0
M  V30 12618 C 1161.56 1.96709 0.4637 0
M  V30 12619 C 1161.88 1.06586 1.63292 0
M  V30 12620 O 1161.15 0.133683 1.95443 0
M  V30 12621 H 1159.73 0.726381 0.174299 0
M  V30 12622 H 1162.39 1.9314 -0.261345 0
M  V30 12623 H 1161.49 3.01164 0.818934 0
M  V30 12624 N 1161.79 -0.095206 1.57312 0
M  V30 12625 C 1163.01 -0.81227 1.90289 0
M  V30 12626 C 1163.43 -1.72287 0.772178 0
M  V30 12627 O 1162.79 -1.80698 -0.255841 0
M  V30 12628 C 1162.84 -1.62572 3.22882 0
M  V30 12629 O 1162.56 -0.75175 4.31602 0
M  V30 12630 C 1164.06 -2.44585 3.6972 0
M  V30 12631 H 1161.28 -0.232256 0.629522 0
M  V30 12632 H 1163.82 -0.0724733 2.04372 0
M  V30 12633 H 1161.98 -2.31803 3.10397 0
M  V30 12634 H 1162.39 -1.31514 5.07744 0
M  V30 12635 H 1163.87 -2.97155 4.65191 0
M  V30 12636 H 1164.34 -3.23044 2.97555 0
M  V30 12637 H 1164.95 -1.80554 3.85072 0
M  V30 12638 N 1163.26 -1.53291 -0.366026 0
M  V30 12639 C 1164.49 -1.73665 -1.13381 0
M  V30 12640 C 1164.91 -0.464284 -1.8228 0
M  V30 12641 O 1164.27 0.581645 -1.71717 0
M  V30 12642 C 1164.32 -2.90225 -2.14013 0
M  V30 12643 O 1163.42 -2.58803 -3.21084 0
M  V30 12644 H 1162.77 -0.576762 -0.329 0
M  V30 12645 H 1165.3 -2.00174 -0.423287 0
M  V30 12646 H 1165.31 -3.16378 -2.57622 0
M  V30 12647 H 1163.98 -3.82518 -1.63257 0
M  V30 12648 H 1162.56 -2.43466 -2.82451 0
M  V30 12649 N 1164.74 0.6258 -1.44643 0
M  V30 12650 C 1165.67 1.74858 -1.54748 0
M  V30 12651 C 1166.65 1.65327 -0.400138 0
M  V30 12652 O 1167.84 1.84005 -0.620948 0
M  V30 12653 C 1164.97 3.13408 -1.49643 0
M  V30 12654 C 1163.92 3.37733 -2.62908 0
M  V30 12655 C 1163.25 4.76367 -2.42855 0
M  V30 12656 C 1164.55 3.29771 -4.05029 0
M  V30 12657 H 1166.24 1.66658 -2.48728 0
M  V30 12658 H 1163.79 0.800363 -1.19709 0
M  V30 12659 H 1165.74 3.91735 -1.55312 0
M  V30 12660 H 1164.47 3.22404 -0.521824 0
M  V30 12661 H 1163.12 2.61788 -2.56637 0
M  V30 12662 H 1162.77 4.82074 -1.43575 0
M  V30 12663 H 1162.47 4.936 -3.18799 0
M  V30 12664 H 1164 5.56917 -2.50351 0
M  V30 12665 H 1165.41 3.97996 -4.12641 0
M  V30 12666 H 1163.81 3.58538 -4.81218 0
M  V30 12667 H 1164.88 2.27493 -4.28223 0
M  V30 12668 N 1166.22 1.31629 0.866686 0
M  V30 12669 C 1167.13 1.21524 2.00671 0
M  V30 12670 C 1168.15 0.131277 1.73504 0
M  V30 12671 O 1169.32 0.349699 1.98341 0
M  V30 12672 C 1166.39 0.926491 3.34091 0
M  V30 12673 C 1165.45 2.09769 3.7456 0
M  V30 12674 C 1164.68 1.82262 5.01614 0
M  V30 12675 O 1164.9 0.759329 5.65323 0
M  V30 12676 O 1163.84 2.68031 5.38928 0
M  V30 12677 H 1167.66 2.17335 2.1213 0
M  V30 12678 H 1165.25 1.11401 0.995499 0
M  V30 12679 H 1167.13 0.78144 4.14091 0
M  V30 12680 H 1165.81 -0.00155829 3.237 0
M  V30 12681 H 1164.71 2.29816 2.95187 0
M  V30 12682 H 1166.05 3.0081 3.89582 0
M  V30 12683 N 1167.7 -1.08142 1.14644 0
M  V30 12684 C 1168.92 -1.84857 0.940349 0
M  V30 12685 C 1169.35 -1.81163 -0.506117 0
M  V30 12686 O 1168.71 -1.19869 -1.36019 0
M  V30 12687 C 1168.76 -3.30198 1.4492 0
M  V30 12688 O 1167.86 -4.07355 0.64308 0
M  V30 12689 H 1167.2 -0.572711 0.336003 0
M  V30 12690 H 1169.73 -1.36475 1.52432 0
M  V30 12691 H 1169.74 -3.81039 1.45854 0
M  V30 12692 H 1168.42 -3.32202 2.50229 0
M  V30 12693 H 1166.99 -3.66219 0.702698 0
M  V30 12694 N 1169.18 -0.941978 -1.26351 0
M  V30 12695 C 1170.43 -0.585711 -1.93009 0
M  V30 12696 C 1170.74 0.879507 -1.74711 0
M  V30 12697 O 1171.95 1.34518 -2.35833 0
M  V30 12698 C 1170.4 -0.996787 -3.45821 0
M  V30 12699 C 1170.01 -2.48367 -3.72851 0
M  V30 12700 C 1171.75 -0.712452 -4.18479 0
M  V30 12701 C 1169.66 -2.83341 -5.19107 0
M  V30 12702 H 1168.59 -0.215342 -0.722595 0
M  V30 12703 H 1171.24 -1.14472 -1.43417 0
M  V30 12704 H 1169.62 -0.366295 -3.94302 0
M  V30 12705 H 1170.8 -3.16328 -3.35072 0
M  V30 12706 H 1169.11 -2.74139 -3.13427 0
M  V30 12707 H 1171.71 -0.95007 -5.26192 0
M  V30 12708 H 1172.05 0.350811 -4.14819 0
M  V30 12709 H 1172.59 -1.3027 -3.75865 0
M  V30 12710 H 1169.32 -3.88633 -5.27868 0
M  V30 12711 H 1168.84 -2.20043 -5.5798 0
M  V30 12712 H 1170.52 -2.71849 -5.87118 0
M  V30 12713 N 1170.66 1.40747 -0.709091 0
M  V30 12714 C 1172.07 1.54961 -0.381989 0
M  V30 12715 C 1172.27 1.68181 1.10985 0
M  V30 12716 O 1171.33 1.66776 1.89584 0
M  V30 12717 C 1172.64 2.78156 -1.14236 0
M  V30 12718 C 1174.19 2.91967 -1.12803 0
M  V30 12719 C 1174.66 4.18066 -1.87042 0
M  V30 12720 N 1176.15 4.25052 -1.84078 0
M  V30 12721 C 1176.89 5.21514 -2.38349 0
M  V30 12722 N 1176.39 6.23924 -3.01149 0
M  V30 12723 N 1178.18 5.13548 -2.28528 0
M  V30 12724 H 1170.33 1.30412 -1.6765 0
M  V30 12725 H 1172.59 0.630147 -0.70825 0
M  V30 12726 H 1172.3 2.74643 -2.19691 0
M  V30 12727 H 1172.17 3.70074 -0.729731 0
M  V30 12728 H 1174.56 2.94987 -0.0816956 0
M  V30 12729 H 1174.64 2.01185 -1.57982 0
M  V30 12730 H 1174.28 4.15808 -2.91662 0
M  V30 12731 H 1174.21 5.07845 -1.39287 0
M  V30 12732 H 1176.71 3.51682 -1.38305 0
M  V30 12733 H 1177.02 6.93942 -3.40094 0
M  V30 12734 H 1175.36 6.24387 -3.05231 0
M  V30 12735 H 1178.55 4.3247 -1.79129 0
M  V30 12736 H 1178.73 5.88553 -2.71126 0
M  V30 12737 N 1172.13 0.454803 1.50895 0
M  V30 12738 C 1173.38 -0.107367 2.01414 0
M  V30 12739 C 1173.7 -1.42243 1.34262 0
M  V30 12740 O 1174.9 -2.06858 1.75846 0
M  V30 12741 C 1173.36 -0.241872 3.59086 0
M  V30 12742 C 1172.97 1.06379 4.35187 0
M  V30 12743 C 1174.71 -0.756873 4.17698 0
M  V30 12744 C 1172.62 0.893973 5.84604 0
M  V30 12745 H 1171.55 -0.0439003 0.752721 0
M  V30 12746 H 1174.2 0.587225 1.7385 0
M  V30 12747 H 1172.58 -0.999873 3.83169 0
M  V30 12748 H 1173.75 1.83148 4.2284 0
M  V30 12749 H 1172.07 1.50865 3.88109 0
M  V30 12750 H 1174.67 -0.900697 5.27059 0
M  V30 12751 H 1175.01 -1.74397 3.7801 0
M  V30 12752 H 1175.54 -0.0567088 3.9776 0
M  V30 12753 H 1172.28 1.85395 6.28736 0
M  V30 12754 H 1171.8 0.166387 5.99569 0
M  V30 12755 H 1173.48 0.554084 6.44623 0
M  V30 12756 N 1173.61 -1.56489 0.186789 0
M  V30 12757 C 1174.84 -2.01722 -0.459993 0
M  V30 12758 C 1175.25 -1.06697 -1.5576 0
M  V30 12759 O 1174.61 -0.0704212 -1.82364 0
M  V30 12760 C 1174.66 -3.46693 -1.02401 0
M  V30 12761 O 1174.38 -4.3809 0.0297916 0
M  V30 12762 C 1175.88 -4.07403 -1.7475 0
M  V30 12763 H 1173.1 -0.660845 -0.116298 0
M  V30 12764 H 1175.65 -2.02389 0.293059 0
M  V30 12765 H 1173.8 -3.46752 -1.72749 0
M  V30 12766 H 1174.22 -5.23057 -0.388821 0
M  V30 12767 H 1175.69 -5.10718 -2.09455 0
M  V30 12768 H 1176.17 -3.50383 -2.64818 0
M  V30 12769 H 1176.77 -4.11093 -1.09007 0
M  V30 12770 N 1175.09 0.086862 -1.5736 0
M  V30 12771 C 1176 1.12297 -2.05977 0
M  V30 12772 C 1177.02 1.43347 -0.986284 0
M  V30 12773 O 1178.19 1.53825 -1.3 0
M  V30 12774 C 1175.26 2.42131 -2.4814 0
M  V30 12775 C 1174.32 2.18189 -3.69719 0
M  V30 12776 C 1173.55 3.41833 -4.09861 0
M  V30 12777 O 1173.77 4.50383 -3.50016 0
M  V30 12778 O 1172.71 3.30934 -5.02759 0
M  V30 12779 H 1176.53 0.740012 -2.94546 0
M  V30 12780 H 1174.12 0.29995 -1.46358 0
M  V30 12781 H 1176 3.18568 -2.75848 0
M  V30 12782 H 1174.68 2.79837 -1.62705 0
M  V30 12783 H 1173.58 1.39506 -3.47115 0
M  V30 12784 H 1174.92 1.85372 -4.55959 0
M  V30 12785 N 1176.57 1.53483 0.357892 0
M  V30 12786 C 1177.52 1.81143 1.45911 0
M  V30 12787 C 1178.51 0.681002 1.55109 0
M  V30 12788 O 1179.72 0.864086 1.57904 0
M  V30 12789 H 1176.09 0.573663 0.486225 0
M  V30 12790 H 1178.06 2.733 1.19789 0
M  V30 12791 C 1176.81 2.02509 2.8264 0
M  V30 12792 H 1176.13 2.88938 2.76324 0
M  V30 12793 H 1177.57 2.25837 3.58851 0
M  V30 12794 C 1176.03 0.806412 3.27106 0
M  V30 12795 O 1176.56 -0.00116809 4.017 0
M  V30 12796 N 1174.77 0.627677 2.8374 0
M  V30 12797 H 1174.32 1.28601 2.23203 0
M  V30 12798 H 1174.27 -0.186301 3.13848 0
M  V30 12799 N 1178.05 -0.61812 1.44973 0
M  V30 12800 C 1179.46 -0.937734 1.29146 0
M  V30 12801 C 1179.66 -2.00104 0.236749 0
M  V30 12802 O 1178.72 -2.49731 -0.372923 0
M  V30 12803 C 1180.03 -1.38865 2.66715 0
M  V30 12804 C 1181.58 -1.50343 2.74529 0
M  V30 12805 C 1182.05 -1.98814 4.12598 0
M  V30 12806 N 1183.54 -2.06064 4.14839 0
M  V30 12807 C 1184.28 -2.44768 5.18533 0
M  V30 12808 N 1183.78 -2.82516 6.32579 0
M  V30 12809 N 1185.57 -2.45016 5.05889 0
M  V30 12810 H 1177.72 0.084872 2.1223 0
M  V30 12811 H 1179.98 -0.0246744 0.947679 0
M  V30 12812 H 1179.69 -0.681583 3.45032 0
M  V30 12813 H 1179.56 -2.3572 2.94475 0
M  V30 12814 H 1181.95 -2.20144 1.96522 0
M  V30 12815 H 1182.03 -0.518297 2.50494 0
M  V30 12816 H 1181.67 -1.29604 4.91086 0
M  V30 12817 H 1181.6 -2.98223 4.34017 0
M  V30 12818 H 1184.1 -1.79525 3.32535 0
M  V30 12819 H 1184.41 -3.109 7.07504 0
M  V30 12820 H 1182.75 -2.80237 6.35997 0
M  V30 12821 H 1185.94 -2.14925 4.15842 0
M  V30 12822 H 1186.12 -2.74854 5.86821 0
M  V30 12823 N 1179.52 -1.32087 -0.859693 0
M  V30 12824 C 1180.75 -1.25348 -1.64607 0
M  V30 12825 C 1181.17 0.179425 -1.87945 0
M  V30 12826 O 1180.52 1.11487 -1.44489 0
M  V30 12827 C 1180.57 -2.0047 -3.00822 0
M  V30 12828 O 1180.3 -3.38169 -2.7852 0
M  V30 12829 C 1181.8 -2.00694 -3.95268 0
M  V30 12830 H 1179.02 -0.432692 -0.512854 0
M  V30 12831 H 1181.56 -1.7413 -1.07234 0
M  V30 12832 H 1179.72 -1.55423 -3.54855 0
M  V30 12833 H 1180.13 -3.76553 -3.65113 0
M  V30 12834 H 1181.6 -2.57748 -4.88129 0
M  V30 12835 H 1182.08 -0.99196 -4.27851 0
M  V30 12836 H 1182.69 -2.45666 -3.47172 0
M  V30 12837 N 1181 1.07532 -1.15215 0
M  V30 12838 C 1181.93 2.1668 -0.870171 0
M  V30 12839 C 1182.91 1.69161 0.178483 0
M  V30 12840 O 1184.1 1.94172 0.0332489 0
M  V30 12841 C 1181.23 3.45464 -0.356666 0
M  V30 12842 C 1180.18 4.06424 -1.34179 0
M  V30 12843 C 1179.51 5.30266 -0.687206 0
M  V30 12844 C 1180.81 4.46666 -2.70715 0
M  V30 12845 H 1182.5 2.40526 -1.7829 0
M  V30 12846 H 1180.05 1.15598 -0.858665 0
M  V30 12847 H 1182 4.21144 -0.146947 0
M  V30 12848 H 1180.72 3.21199 0.591527 0
M  V30 12849 H 1179.38 3.32786 -1.53783 0
M  V30 12850 H 1179.03 5.0229 0.267077 0
M  V30 12851 H 1178.73 5.72009 -1.34462 0
M  V30 12852 H 1180.26 6.08653 -0.487218 0
M  V30 12853 H 1181.67 5.13483 -2.54966 0
M  V30 12854 H 1180.07 4.99355 -3.32813 0
M  V30 12855 H 1181.14 3.58123 -3.26919 0
M  V30 12856 N 1182.48 0.948665 1.2585 0
M  V30 12857 C 1183.73 0.600236 1.934 0
M  V30 12858 C 1184.06 -0.86185 1.74363 0
M  V30 12859 O 1183.31 -1.63294 1.07858 0
M  V30 12860 C 1183.61 0.89784 3.45939 0
M  V30 12861 C 1183.28 2.345 3.85124 0
M  V30 12862 C 1181.94 2.74058 3.95532 0
M  V30 12863 C 1184.29 3.2851 4.04636 0
M  V30 12864 C 1181.62 4.06707 4.22855 0
M  V30 12865 C 1183.97 4.60764 4.3345 0
M  V30 12866 C 1182.63 5.00127 4.42074 0
M  V30 12867 H 1181.9 0.219642 0.707699 0
M  V30 12868 H 1184.55 1.19658 1.49513 0
M  V30 12869 H 1182.86 0.219037 3.91187 0
M  V30 12870 H 1184.55 0.606916 3.96381 0
M  V30 12871 H 1181.14 2.02819 3.77574 0
M  V30 12872 H 1185.33 2.99141 3.96015 0
M  V30 12873 H 1180.58 4.36856 4.27746 0
M  V30 12874 H 1184.76 5.33594 4.47493 0
M  V30 12875 H 1182.38 6.02939 4.63 0
M  V30 12876 N 1183.96 -1.40369 0.716545 0
M  V30 12877 C 1184.92 -2.29083 0.0733105 0
M  V30 12878 C 1185.92 -1.45415 -0.686378 0
M  V30 12879 O 1187.11 -1.66316 -0.518139 0
M  V30 12880 C 1184.24 -3.28639 -0.906032 0
M  V30 12881 H 1185.44 -2.87464 0.85467 0
M  V30 12882 H 1182.99 -1.48706 0.481256 0
M  V30 12883 H 1183.72 -2.75279 -1.71441 0
M  V30 12884 H 1183.51 -3.90405 -0.364163 0
M  V30 12885 H 1185 -3.95066 -1.35324 0
M  V30 12886 N 1185.44 -0.462799 -1.50652 0
M  V30 12887 C 1186.35 0.341191 -2.32106 0
M  V30 12888 C 1187.36 1.00384 -1.42123 0
M  V30 12889 O 1188.54 0.993635 -1.75182 0
M  V30 12890 C 1185.6 1.41356 -3.16575 0
M  V30 12891 C 1184.66 0.768375 -4.22368 0
M  V30 12892 C 1183.9 1.78964 -5.028 0
M  V30 12893 O 1184.12 3.01515 -4.84195 0
M  V30 12894 O 1183.05 1.36606 -5.86193 0
M  V30 12895 H 1186.88 -0.324482 -3.01962 0
M  V30 12896 H 1184.47 -0.224807 -1.47699 0
M  V30 12897 H 1186.35 2.0349 -3.69012 0
M  V30 12898 H 1185.02 2.06285 -2.49456 0
M  V30 12899 H 1183.93 0.108297 -3.73943 0
M  V30 12900 H 1185.26 0.162164 -4.91933 0
M  V30 12901 N 1186.91 1.56388 -0.195085 0
M  V30 12902 C 1187.86 2.19091 0.725793 0
M  V30 12903 C 1188.83 1.13814 1.20977 0
M  V30 12904 O 1190.02 1.42065 1.27366 0
M  V30 12905 C 1187.16 2.85427 1.93973 0
M  V30 12906 C 1186.27 4.05229 1.49712 0
M  V30 12907 C 1185.4 4.59421 2.66656 0
M  V30 12908 C 1184.44 5.71581 2.19001 0
M  V30 12909 N 1183.58 6.2018 3.29123 0
M  V30 12910 H 1188.42 2.97429 0.184334 0
M  V30 12911 H 1185.96 1.46886 0.0792434 0
M  V30 12912 H 1187.92 3.22057 2.65208 0
M  V30 12913 H 1186.55 2.09652 2.4545 0
M  V30 12914 H 1185.6 3.74261 0.680641 0
M  V30 12915 H 1186.91 4.8635 1.10749 0
M  V30 12916 H 1186.06 4.98357 3.46014 0
M  V30 12917 H 1184.8 3.77407 3.08893 0
M  V30 12918 H 1183.81 5.32174 1.38097 0
M  V30 12919 H 1185.03 6.55413 1.77795 0
M  V30 12920 H 1182.98 5.41088 3.70891 0
M  V30 12921 H 1182.9 6.96353 2.94328 0
M  V30 12922 H 1184.16 6.63769 4.08694 0
M  V30 12923 N 1188.39 -0.0785156 1.57404 0
M  V30 12924 C 1189.32 -1.09446 2.06262 0
M  V30 12925 C 1190.3 -1.40777 0.954772 0
M  V30 12926 O 1191.49 -1.5052 1.22708 0
M  V30 12927 C 1188.62 -2.40979 2.50093 0
M  V30 12928 C 1187.57 -2.24017 3.64692 0
M  V30 12929 C 1186.9 -3.60873 3.94556 0
M  V30 12930 C 1188.2 -1.66696 4.94985 0
M  V30 12931 H 1189.89 -0.687928 2.9139 0
M  V30 12932 H 1187.44 -0.329466 1.4018 0
M  V30 12933 H 1189.39 -3.12337 2.82884 0
M  V30 12934 H 1188.12 -2.83599 1.61985 0
M  V30 12935 H 1186.77 -1.55101 3.32174 0
M  V30 12936 H 1186.42 -4.01051 3.0359 0
M  V30 12937 H 1186.12 -3.50365 4.71718 0
M  V30 12938 H 1187.65 -4.33673 4.29837 0
M  V30 12939 H 1189.06 -2.27913 5.2605 0
M  V30 12940 H 1187.46 -1.66902 5.76423 0
M  V30 12941 H 1188.53 -0.627827 4.80818 0
M  V30 12942 N 1189.87 -1.5367 -0.349747 0
M  V30 12943 C 1190.82 -1.81223 -1.42922 0
M  V30 12944 C 1191.79 -0.657536 -1.52531 0
M  V30 12945 O 1192.97 -0.90134 -1.68168 0
M  V30 12946 C 1190.11 -2.022 -2.79659 0
M  V30 12947 C 1189.23 -3.29915 -2.78891 0
M  V30 12948 C 1188.36 -3.40993 -4.07305 0
M  V30 12949 C 1187.4 -4.6268 -4.00741 0
M  V30 12950 N 1186.54 -4.70826 -5.20833 0
M  V30 12951 H 1191.38 -2.73328 -1.18727 0
M  V30 12952 H 1188.91 -1.35386 -0.57525 0
M  V30 12953 H 1190.87 -2.12351 -3.59114 0
M  V30 12954 H 1189.5 -1.13416 -3.0222 0
M  V30 12955 H 1188.55 -3.28637 -1.91577 0
M  V30 12956 H 1189.87 -4.19459 -2.69917 0
M  V30 12957 H 1189.02 -3.50542 -4.95182 0
M  V30 12958 H 1187.76 -2.49493 -4.19052 0
M  V30 12959 H 1186.76 -4.53215 -3.11249 0
M  V30 12960 H 1187.99 -5.55538 -3.90582 0
M  V30 12961 H 1185.93 -3.82233 -5.33136 0
M  V30 12962 H 1185.85 -5.54297 -5.14092 0
M  V30 12963 H 1187.12 -4.84677 -6.10499 0
M  V30 12964 N 1191.35 0.610423 -1.45298 0
M  V30 12965 C 1192.26 1.74964 -1.56285 0
M  V30 12966 C 1193.27 1.68149 -0.447436 0
M  V30 12967 O 1194.45 1.88556 -0.707725 0
M  V30 12968 C 1191.52 3.11417 -1.52383 0
M  V30 12969 C 1190.58 3.29707 -2.7494 0
M  V30 12970 C 1189.81 4.5965 -2.71215 0
M  V30 12971 O 1190.03 5.41789 -1.78383 0
M  V30 12972 O 1188.97 4.80591 -3.62375 0
M  V30 12973 H 1192.79 1.68646 -2.52571 0
M  V30 12974 H 1190.38 0.774168 -1.27777 0
M  V30 12975 H 1192.26 3.9272 -1.52805 0
M  V30 12976 H 1190.93 3.18232 -0.592472 0
M  V30 12977 H 1189.84 2.48003 -2.80081 0
M  V30 12978 H 1191.17 3.27766 -3.67192 0
M  V30 12979 N 1192.83 1.32541 0.852676 0
M  V30 12980 C 1194.08 1.22567 1.60188 0
M  V30 12981 C 1194.39 -0.210594 1.94463 0
M  V30 12982 O 1195.59 -0.432214 2.68038 0
M  V30 12983 C 1194.05 2.14678 2.88862 0
M  V30 12984 C 1193.66 3.63398 2.62004 0
M  V30 12985 C 1195.4 2.13545 3.66877 0
M  V30 12986 C 1193.31 4.47464 3.86691 0
M  V30 12987 H 1192.24 0.455184 0.601102 0
M  V30 12988 H 1194.89 1.57515 0.941347 0
M  V30 12989 H 1193.27 1.72647 3.56383 0
M  V30 12990 H 1194.45 4.13783 2.02782 0
M  V30 12991 H 1192.76 3.66681 1.97316 0
M  V30 12992 H 1195.36 2.73589 4.59405 0
M  V30 12993 H 1195.7 1.12694 4.00756 0
M  V30 12994 H 1196.23 2.53866 3.06263 0
M  V30 12995 H 1192.97 5.49136 3.57952 0
M  V30 12996 H 1192.49 4.01829 4.45302 0
M  V30 12997 H 1194.17 4.60565 4.5441 0
M  V30 12998 N 1194.3 -1.0692 1.15784 0
M  V30 12999 C 1195.25 -2.16335 0.854506 0
M  V30 13000 C 1196.25 -1.68505 -0.173868 0
M  V30 13001 O 1197.45 -1.79977 -0.0284722 0
M  V30 13002 H 1193.83 -0.706103 0.258694 0
M  V30 13003 H 1195.8 -2.39135 1.78486 0
M  V30 13004 C 1194.55 -3.45778 0.365042 0
M  V30 13005 H 1193.87 -3.82971 1.14776 0
M  V30 13006 H 1195.31 -4.23567 0.191504 0
M  V30 13007 C 1193.77 -3.24258 -0.914253 0
M  V30 13008 O 1194.3 -3.49236 -1.98487 0
M  V30 13009 N 1192.51 -2.77722 -0.855501 0
M  V30 13010 H 1192.05 -2.57595 0.0159233 0
M  V30 13011 H 1192.01 -2.63702 -1.71198 0
M  V30 13012 N 1195.78 -0.955326 -1.25345 0
M  V30 13013 C 1196.69 -0.482707 -2.2958 0
M  V30 13014 C 1197.71 0.450283 -1.68073 0
M  V30 13015 O 1198.88 0.326358 -1.98738 0
M  V30 13016 C 1195.95 0.231293 -3.45928 0
M  V30 13017 C 1195.01 -0.739995 -4.22874 0
M  V30 13018 C 1194.24 -0.0599748 -5.33666 0
M  V30 13019 O 1194.47 1.15423 -5.586 0
M  V30 13020 O 1193.4 -0.745865 -5.97261 0
M  V30 13021 H 1197.23 -1.34892 -2.72099 0
M  V30 13022 H 1194.81 -0.721812 -1.30806 0
M  V30 13023 H 1196.69 0.632908 -4.1662 0
M  V30 13024 H 1195.37 1.07267 -3.0541 0
M  V30 13025 H 1194.28 -1.19183 -3.54607 0
M  V30 13026 H 1195.61 -1.54941 -4.67177 0
M  V30 13027 N 1197.26 1.39987 -0.723979 0
M  V30 13028 C 1198.68 1.54547 -0.398403 0
M  V30 13029 C 1198.88 1.69348 1.09194 0
M  V30 13030 O 1197.93 1.68778 1.87804 0
M  V30 13031 C 1199.25 2.76929 -1.1718 0
M  V30 13032 C 1200.79 2.90754 -1.15893 0
M  V30 13033 C 1201.27 4.16059 -1.91465 0
M  V30 13034 N 1202.76 4.23076 -1.88576 0
M  V30 13035 C 1203.5 5.18957 -2.43867 0
M  V30 13036 N 1202.99 6.20695 -3.0775 0
M  V30 13037 N 1204.78 5.11095 -2.33962 0
M  V30 13038 H 1196.94 1.28626 -1.69024 0
M  V30 13039 H 1199.2 0.6226 -0.714894 0
M  V30 13040 H 1198.9 2.72298 -2.22591 0
M  V30 13041 H 1198.78 3.69279 -0.768941 0
M  V30 13042 H 1201.17 2.94884 -0.112978 0
M  V30 13043 H 1201.25 1.99498 -1.60107 0
M  V30 13044 H 1200.89 4.12691 -2.96055 0
M  V30 13045 H 1200.82 5.06339 -1.44665 0
M  V30 13046 H 1203.31 3.50195 -1.42027 0
M  V30 13047 H 1203.62 6.90296 -3.47435 0
M  V30 13048 H 1201.97 6.21114 -3.11837 0
M  V30 13049 H 1205.16 4.30546 -1.83706 0
M  V30 13050 H 1205.33 5.85644 -2.77353 0
M  V30 13051 N 1198.74 0.470782 1.50404 0
M  V30 13052 C 1199.99 -0.0859981 2.01517 0
M  V30 13053 C 1200.3 -1.40811 1.35763 0
M  V30 13054 O 1201.51 -2.04982 1.7803 0
M  V30 13055 C 1199.96 -0.203773 3.59323 0
M  V30 13056 C 1199.57 1.10989 4.34034 0
M  V30 13057 C 1201.32 -0.712528 4.18477 0
M  V30 13058 C 1199.22 0.955928 5.83623 0
M  V30 13059 H 1198.15 -0.0359142 0.753144 0
M  V30 13060 H 1200.8 0.605631 1.73218 0
M  V30 13061 H 1199.19 -0.959177 3.84208 0
M  V30 13062 H 1200.36 1.87623 4.20873 0
M  V30 13063 H 1198.67 1.54973 3.86487 0
M  V30 13064 H 1201.27 -0.844745 5.27985 0
M  V30 13065 H 1201.61 -1.70377 3.79838 0
M  V30 13066 H 1202.15 -0.0145179 3.97797 0
M  V30 13067 H 1198.89 1.92054 6.26734 0
M  V30 13068 H 1198.41 0.22997 5.99359 0
M  V30 13069 H 1200.09 0.622423 6.43999 0
M  V30 13070 N 1200.22 -1.56282 0.203376 0
M  V30 13071 C 1201.18 -2.18233 -0.700489 0
M  V30 13072 C 1202.18 -1.13908 -1.13497 0
M  V30 13073 O 1203.37 -1.39246 -1.04672 0
M  V30 13074 C 1200.5 -2.79107 -1.95735 0
M  V30 13075 H 1201.7 -2.99469 -0.160649 0
M  V30 13076 H 1199.25 -1.56232 -0.0462475 0
M  V30 13077 H 1199.98 -2.01691 -2.53951 0
M  V30 13078 H 1199.77 -3.55486 -1.65446 0
M  V30 13079 H 1201.26 -3.2665 -2.60172 0
M  V30 13080 N 1201.7 0.070167 -1.57444 0
M  V30 13081 C 1203.11 0.621805 -1.76041 0
M  V30 13082 C 1203.46 1.77824 -0.829047 0
M  V30 13083 O 1202.58 2.16396 -0.0135453 0
M  V30 13084 C 1203.18 1.13476 -3.19231 0
M  V30 13085 C 1201.74 1.63225 -3.39167 0
M  V30 13086 C 1200.88 0.552369 -2.71743 0
M  V30 13087 H 1203.83 -0.156009 -1.57931 0
M  V30 13088 H 1203.86 2.00352 -3.2348 0
M  V30 13089 H 1203.37 0.29288 -3.86993 0
M  V30 13090 H 1201.47 2.49733 -2.76522 0
M  V30 13091 H 1201.58 1.70807 -4.47618 0
M  V30 13092 H 1199.95 0.997797 -2.34342 0
M  V30 13093 H 1200.73 -0.279354 -3.42162 0
M  V30 13094 N 1203.17 1.53854 0.341593 0
M  V30 13095 C 1204.4 1.7488 1.10002 0
M  V30 13096 C 1204.81 0.488802 1.82777 0
M  V30 13097 O 1204.15 -0.549333 1.75294 0
M  V30 13098 C 1204.22 2.87604 2.15694 0
M  V30 13099 C 1203.88 4.27142 1.62477 0
M  V30 13100 C 1204.88 5.08642 1.07606 0
M  V30 13101 C 1202.56 4.73633 1.67265 0
M  V30 13102 C 1204.56 6.34735 0.582284 0
M  V30 13103 C 1202.24 5.99697 1.175 0
M  V30 13104 C 1203.24 6.80081 0.630742 0
M  V30 13105 O 1202.93 8.03777 0.140519 0
M  V30 13106 H 1202.66 0.587824 0.333824 0
M  V30 13107 H 1205.22 2.01488 0.398965 0
M  V30 13108 H 1203.45 2.56526 2.89364 0
M  V30 13109 H 1205.13 2.96583 2.77117 0
M  V30 13110 H 1205.9 4.73887 1.03227 0
M  V30 13111 H 1201.78 4.11121 2.08567 0
M  V30 13112 H 1205.32 6.97424 0.156811 0
M  V30 13113 H 1201.22 6.33947 1.21579 0
M  V30 13114 H 1201.99 8.18094 0.257626 0
M  V30 13115 N 1204.65 -0.602709 1.4562 0
M  V30 13116 C 1205.9 -1.35889 1.49595 0
M  V30 13117 C 1206.22 -1.9449 0.141002 0
M  V30 13118 O 1205.49 -1.77438 -0.830209 0
M  V30 13119 H 1204.07 -0.504478 0.550918 0
M  V30 13120 H 1206.73 -0.707376 1.8161 0
M  V30 13121 H 1205.83 -2.17583 2.2375 0
M  V30 13122 N 1206.13 -1.32992 -0.845635 0
M  V30 13123 C 1207.35 -1.27231 -1.6379 0
M  V30 13124 C 1207.78 0.155141 -1.87459 0
M  V30 13125 O 1207.14 1.10953 -1.43384 0
M  V30 13126 C 1207.19 -2.04629 -2.96916 0
M  V30 13127 O 1206.29 -1.40027 -3.879 0
M  V30 13128 H 1205.63 -0.438045 -0.499011 0
M  V30 13129 H 1208.16 -1.75448 -1.05257 0
M  V30 13130 H 1208.17 -2.15141 -3.46667 0
M  V30 13131 H 1206.85 -3.08425 -2.79011 0
M  V30 13132 H 1205.42 -1.38118 -3.46378 0
M  V30 13133 N 1207.61 1.06304 -1.1635 0
M  V30 13134 C 1208.57 2.11947 -0.872419 0
M  V30 13135 C 1209.57 1.60253 0.132534 0
M  V30 13136 O 1210.76 1.73922 -0.0983441 0
M  V30 13137 C 1207.89 3.39536 -0.304646 0
M  V30 13138 H 1209.09 2.39201 -1.80894 0
M  V30 13139 H 1206.64 1.22367 -0.972419 0
M  V30 13140 H 1207.37 3.17931 0.639565 0
M  V30 13141 H 1207.16 3.78363 -1.02878 0
M  V30 13142 H 1208.65 4.17431 -0.118936 0
M  V30 13143 N 1209.09 0.96196 1.24836 0
M  V30 13144 C 1210.03 0.48686 2.25607 0
M  V30 13145 C 1211 -0.464546 1.59472 0
M  V30 13146 O 1212.19 -0.376179 1.87055 0
M  V30 13147 C 1209.33 -0.222294 3.44383 0
M  V30 13148 C 1208.44 0.767206 4.25133 0
M  V30 13149 C 1207.58 0.0347458 5.31189 0
M  V30 13150 C 1206.61 1.01469 6.03631 0
M  V30 13151 N 1205.75 0.312619 7.01404 0
M  V30 13152 H 1210.59 1.35104 2.65614 0
M  V30 13153 H 1208.13 0.677373 1.30576 0
M  V30 13154 H 1210.09 -0.650087 4.12104 0
M  V30 13155 H 1208.72 -1.05047 3.0523 0
M  V30 13156 H 1207.77 1.31346 3.57005 0
M  V30 13157 H 1209.08 1.5147 4.75245 0
M  V30 13158 H 1208.23 -0.451325 6.05019 0
M  V30 13159 H 1206.97 -0.745485 4.81969 0
M  V30 13160 H 1205.98 1.51169 5.28609 0
M  V30 13161 H 1207.2 1.79527 6.5494 0
M  V30 13162 H 1205.15 -0.44874 6.54463 0
M  V30 13163 H 1205.07 0.999079 7.49369 0
M  V30 13164 H 1206.33 -0.151673 7.79352 0
M  V30 13165 N 1210.56 -1.39601 0.731392 0
M  V30 13166 C 1211.51 -2.32469 0.0781328 0
M  V30 13167 C 1212.51 -1.52873 -0.729811 0
M  V30 13168 O 1213.71 -1.68563 -0.631402 0
M  V30 13169 H 1210.09 -0.751972 0.00646515 0
M  V30 13170 H 1212.06 -2.85196 0.877833 0
M  V30 13171 C 1210.81 -3.37948 -0.817717 0
M  V30 13172 H 1210.13 -3.99272 -0.205417 0
M  V30 13173 H 1211.57 -4.05387 -1.24248 0
M  V30 13174 C 1210.03 -2.74703 -1.95038 0
M  V30 13175 O 1210.56 -2.62266 -3.04269 0
M  V30 13176 N 1208.76 -2.32845 -1.73872 0
M  V30 13177 H 1208.31 -2.43161 -0.850321 0
M  V30 13178 H 1208.27 -1.90869 -2.49833 0
M  V30 13179 N 1212.04 -0.478751 -1.50152 0
M  V30 13180 C 1213.29 0.073694 -2.02666 0
M  V30 13181 C 1213.62 1.38679 -1.35947 0
M  V30 13182 O 1212.9 1.88286 -0.4877 0
M  V30 13183 C 1213.18 0.249516 -3.59235 0
M  V30 13184 C 1213.03 -1.08514 -4.36514 0
M  V30 13185 C 1214.35 1.00053 -4.28576 0
M  V30 13186 H 1211.47 0.0253082 -0.736565 0
M  V30 13187 H 1214.11 -0.625834 -1.79397 0
M  V30 13188 H 1212.26 0.845343 -3.79192 0
M  V30 13189 H 1213.93 -1.71814 -4.28109 0
M  V30 13190 H 1212.18 -1.67992 -3.99952 0
M  V30 13191 H 1212.85 -0.915676 -5.44352 0
M  V30 13192 H 1215.32 0.495422 -4.1314 0
M  V30 13193 H 1214.2 1.09236 -5.37921 0
M  V30 13194 H 1214.46 2.03896 -3.92274 0
M  V30 13195 N 1213.52 1.56172 -0.211661 0
M  V30 13196 C 1214.47 2.21206 0.719063 0
M  V30 13197 C 1215.46 1.18835 1.20725 0
M  V30 13198 O 1216.67 1.36939 1.16823 0
M  V30 13199 H 1213.04 0.709129 0.250279 0
M  V30 13200 H 1215.01 2.98038 0.147022 0
M  V30 13201 C 1213.76 2.89826 1.92084 0
M  V30 13202 H 1213.09 3.68351 1.55428 0
M  V30 13203 H 1214.53 3.38744 2.55006 0
M  V30 13204 C 1212.99 1.91756 2.77004 0
M  V30 13205 O 1213.52 1.42826 3.75451 0
M  V30 13206 N 1211.72 1.59622 2.42836 0
M  V30 13207 H 1211.27 1.99606 1.62835 0
M  V30 13208 H 1211.23 0.942641 2.99936 0
M  V30 13209 N 1215 -0.0618163 1.57479 0
M  V30 13210 C 1215.93 -1.09931 2.01116 0
M  V30 13211 C 1216.94 -1.34405 0.91865 0
M  V30 13212 O 1218.13 -1.32469 1.19642 0
M  V30 13213 C 1215.23 -2.44814 2.34349 0
M  V30 13214 C 1214.41 -2.40157 3.65573 0
M  V30 13215 C 1213.46 -3.57226 3.86363 0
M  V30 13216 O 1212.49 -3.38202 4.5783 0
M  V30 13217 N 1213.69 -4.77937 3.2948 0
M  V30 13218 H 1216.46 -0.727621 2.90733 0
M  V30 13219 H 1214.02 -0.250315 1.59953 0
M  V30 13220 H 1216.01 -3.21792 2.45422 0
M  V30 13221 H 1214.58 -2.73947 1.50571 0
M  V30 13222 H 1213.8 -1.48496 3.65161 0
M  V30 13223 H 1215.09 -2.34156 4.51717 0
M  V30 13224 H 1214.49 -4.96296 2.7149 0
M  V30 13225 H 1213.04 -5.52392 3.45986 0
M  V30 13226 N 1216.48 -1.54033 -0.333429 0
M  V30 13227 C 1217.44 -1.82021 -1.39288 0
M  V30 13228 C 1218.44 -0.691623 -1.45166 0
M  V30 13229 O 1219.63 -0.959925 -1.45365 0
M  V30 13230 C 1216.76 -1.97136 -2.78119 0
M  V30 13231 H 1217.95 -2.76671 -1.1573 0
M  V30 13232 H 1215.51 -1.45599 -0.568376 0
M  V30 13233 H 1216.24 -1.04663 -3.06946 0
M  V30 13234 H 1216.03 -2.79251 -2.75247 0
M  V30 13235 H 1217.52 -2.20271 -3.54782 0
M  V30 13236 N 1217.95 0.594978 -1.45938 0
M  V30 13237 C 1219.2 1.34976 -1.49881 0
M  V30 13238 C 1219.52 1.95025 -0.14983 0
M  V30 13239 O 1220.72 2.71417 -0.0669868 0
M  V30 13240 C 1219.18 2.44563 -2.6404 0
M  V30 13241 C 1218.79 1.9087 -4.05306 0
M  V30 13242 C 1220.53 3.21461 -2.77242 0
M  V30 13243 C 1218.44 2.98013 -5.10825 0
M  V30 13244 H 1217.37 0.507366 -0.55776 0
M  V30 13245 H 1220.02 0.636316 -1.72114 0
M  V30 13246 H 1218.4 3.1865 -2.35114 0
M  V30 13247 H 1219.57 1.23408 -4.43968 0
M  V30 13248 H 1217.89 1.26678 -3.96663 0
M  V30 13249 H 1220.49 4.01399 -3.53246 0
M  V30 13250 H 1220.83 3.73271 -1.84321 0
M  V30 13251 H 1221.36 2.54477 -3.05756 0
M  V30 13252 H 1218.1 2.51104 -6.05497 0
M  V30 13253 H 1217.62 3.64003 -4.7672 0
M  V30 13254 H 1219.3 3.62178 -5.36131 0
M  V30 13255 N 1219.43 1.33438 0.838571 0
M  V30 13256 C 1220.71 1.1551 1.5785 0
M  V30 13257 C 1221.09 -0.278405 2.09256 0
M  V30 13258 O 1220.44 -1.27748 1.89453 0
M  V30 13259 C 1220.65 2.19647 2.71212 0
M  V30 13260 C 1222 2.53818 3.40384 0
M  V30 13261 O 1223.02 2.18317 2.81454 0
M  V30 13262 O 1221.88 3.14741 4.46766 0
M  V30 13263 H 1218.97 0.446785 0.695925 0
M  V30 13264 H 1221.52 1.45021 0.8813 0
M  V30 13265 H 1220.29 3.15936 2.30869 0
M  V30 13266 H 1219.91 1.91224 3.48596 0
M  V30 13267 N 1220.91 -1.05686 1.16912 0
M  V30 13268 C 1222.16 -1.77987 0.948875 0
M  V30 13269 C 1222.47 -1.8845 -0.524011 0
M  V30 13270 O 1223.68 -2.57442 -0.862322 0
M  V30 13271 C 1222.13 -3.19927 1.64848 0
M  V30 13272 C 1221.74 -3.1761 3.15956 0
M  V30 13273 C 1223.49 -3.96719 1.51044 0
M  V30 13274 C 1221.39 -4.54307 3.78628 0
M  V30 13275 H 1220.32 -0.667119 0.35138 0
M  V30 13276 H 1222.97 -1.18496 1.40111 0
M  V30 13277 H 1221.36 -3.79714 1.12397 0
M  V30 13278 H 1222.53 -2.67369 3.75301 0
M  V30 13279 H 1220.85 -2.54317 3.29715 0
M  V30 13280 H 1223.44 -4.97779 1.95243 0
M  V30 13281 H 1223.79 -4.13748 0.460268 0
M  V30 13282 H 1224.32 -3.43468 2.00685 0
M  V30 13283 H 1221.06 -4.42484 4.8362 0
M  V30 13284 H 1220.58 -5.04717 3.24069 0
M  V30 13285 H 1222.26 -5.23255 3.80543 0
M  V30 13286 N 1222.39 -0.968567 -1.24324 0
M  V30 13287 C 1223.35 -0.504307 -2.23583 0
M  V30 13288 C 1224.35 0.399626 -1.55755 0
M  V30 13289 O 1225.54 0.194966 -1.73106 0
M  V30 13290 C 1222.67 0.26956 -3.39833 0
M  V30 13291 H 1223.87 -1.3818 -2.6617 0
M  V30 13292 H 1221.42 -0.753241 -1.36952 0
M  V30 13293 H 1222.15 1.16411 -3.02686 0
M  V30 13294 H 1221.94 -0.379133 -3.90263 0
M  V30 13295 H 1223.43 0.583376 -4.13505 0
M  V30 13296 N 1223.87 1.39211 -0.738786 0
M  V30 13297 C 1224.81 2.32424 -0.0904601 0
M  V30 13298 C 1225.81 1.53258 0.721694 0
M  V30 13299 O 1227.01 1.68895 0.622454 0
M  V30 13300 H 1223.39 0.751927 -0.010453 0
M  V30 13301 H 1225.36 2.84726 -0.892945 0
M  V30 13302 C 1224.11 3.38377 0.799783 0
M  V30 13303 H 1223.43 3.99375 0.18424 0
M  V30 13304 H 1224.87 4.0604 1.22096 0
M  V30 13305 C 1223.33 2.75734 1.93578 0
M  V30 13306 O 1223.86 2.63876 3.02874 0
M  V30 13307 N 1222.07 2.33764 1.72634 0
M  V30 13308 H 1221.61 2.43609 0.837413 0
M  V30 13309 H 1221.57 1.92191 2.48817 0
M  V30 13310 N 1225.34 0.486708 1.49896 0
M  V30 13311 C 1226.29 -0.299294 2.28851 0
M  V30 13312 C 1227.26 -0.973251 1.346 0
M  V30 13313 O 1228.45 -0.982678 1.63548 0
M  V30 13314 C 1225.59 -1.36624 3.16904 0
M  V30 13315 C 1224.7 -0.705492 4.262 0
M  V30 13316 C 1223.83 -1.75165 5.01488 0
M  V30 13317 C 1222.87 -1.072 6.0264 0
M  V30 13318 N 1222.01 -2.06172 6.71147 0
M  V30 13319 H 1226.85 0.380272 2.95564 0
M  V30 13320 H 1224.39 0.199377 1.45743 0
M  V30 13321 H 1226.35 -1.99666 3.66319 0
M  V30 13322 H 1224.98 -2.01476 2.52205 0
M  V30 13323 H 1224.03 0.0378757 3.80381 0
M  V30 13324 H 1225.34 -0.169774 4.98511 0
M  V30 13325 H 1224.49 -2.45749 5.547 0
M  V30 13326 H 1223.23 -2.3212 4.28919 0
M  V30 13327 H 1222.24 -0.351868 5.48673 0
M  V30 13328 H 1223.46 -0.509139 6.77189 0
M  V30 13329 H 1221.41 -2.62115 6.01358 0
M  V30 13330 H 1221.33 -1.57627 7.39385 0
M  V30 13331 H 1222.59 -2.76088 7.28969 0
M  V30 13332 N 1226.82 -1.56058 0.219941 0
M  V30 13333 C 1228.07 -1.97436 -0.412543 0
M  V30 13334 C 1228.39 -1.11058 -1.61014 0
M  V30 13335 O 1229.59 -1.42328 -2.31203 0
M  V30 13336 C 1228.05 -3.51227 -0.785362 0
M  V30 13337 C 1227.66 -4.46305 0.389328 0
M  V30 13338 C 1229.4 -4.01321 -1.38354 0
M  V30 13339 C 1227.31 -5.914 -0.00583531 0
M  V30 13340 H 1226.24 -0.73728 -0.157906 0
M  V30 13341 H 1228.89 -1.8076 0.315898 0
M  V30 13342 H 1227.27 -3.63497 -1.57118 0
M  V30 13343 H 1228.44 -4.45781 1.16686 0
M  V30 13344 H 1226.76 -4.06543 0.900633 0
M  V30 13345 H 1229.36 -5.07221 -1.69207 0
M  V30 13346 H 1229.7 -3.47077 -2.29876 0
M  V30 13347 H 1230.23 -3.92267 -0.66119 0
M  V30 13348 H 1226.97 -6.49623 0.87583 0
M  V30 13349 H 1226.49 -5.95121 -0.74772 0
M  V30 13350 H 1228.17 -6.45549 -0.43308 0
M  V30 13351 N 1228.3 0.053464 -1.57509 0
M  V30 13352 C 1229.55 0.747622 -1.87763 0
M  V30 13353 C 1229.87 1.77178 -0.814433 0
M  V30 13354 O 1229.14 1.95287 0.154862 0
M  V30 13355 H 1227.72 0.279109 -0.692898 0
M  V30 13356 H 1230.38 0.0252006 -1.94884 0
M  V30 13357 H 1229.48 1.25244 -2.85868 0
M  V30 13358 N 1229.78 1.54207 0.325255 0
M  V30 13359 C 1231.01 1.76037 1.08141 0
M  V30 13360 C 1231.42 0.50816 1.82248 0
M  V30 13361 O 1230.76 -0.530709 1.75867 0
M  V30 13362 C 1230.82 2.89876 2.12632 0
M  V30 13363 C 1230.49 4.28841 1.57937 0
M  V30 13364 C 1231.48 5.09755 1.02205 0
M  V30 13365 C 1229.17 4.7538 1.62232 0
M  V30 13366 C 1231.16 6.35317 0.514929 0
M  V30 13367 C 1228.85 6.0091 1.11132 0
M  V30 13368 C 1229.85 6.80712 0.558575 0
M  V30 13369 O 1229.54 8.03881 0.05526 0
M  V30 13370 H 1229.27 0.591332 0.327571 0
M  V30 13371 H 1231.82 2.019 0.377572 0
M  V30 13372 H 1230.05 2.59581 2.86627 0
M  V30 13373 H 1231.74 2.99505 2.73955 0
M  V30 13374 H 1232.51 4.74955 0.981954 0
M  V30 13375 H 1228.39 4.1331 2.04195 0
M  V30 13376 H 1231.93 6.97551 0.0828314 0
M  V30 13377 H 1227.83 6.35201 1.14848 0
M  V30 13378 H 1228.59 8.18322 0.170842 0
M  V30 13379 N 1231.26 -0.58723 1.46251 0
M  V30 13380 C 1232.67 -1.16933 1.45546 0
M  V30 13381 C 1233.02 -1.9524 0.193879 0
M  V30 13382 O 1232.14 -2.04652 -0.70332 0
M  V30 13383 C 1232.74 -2.12723 2.63693 0
M  V30 13384 C 1231.3 -2.66267 2.66043 0
M  V30 13385 C 1230.45 -1.42051 2.38153 0
M  V30 13386 H 1233.4 -0.375411 1.54196 0
M  V30 13387 H 1233.42 -2.96111 2.38953 0
M  V30 13388 H 1232.93 -1.55703 3.55497 0
M  V30 13389 H 1231.03 -3.2717 1.783 0
M  V30 13390 H 1231.14 -3.0931 3.65874 0
M  V30 13391 H 1229.51 -1.71707 1.88119 0
M  V30 13392 H 1230.29 -0.868675 3.32128 0
M  V30 13393 N 1232.74 -1.33881 -0.831482 0
M  V30 13394 C 1233.98 -1.251 -1.58218 0
M  V30 13395 C 1234.3 0.17963 -1.94773 0
M  V30 13396 O 1235.5 0.389516 -2.68691 0
M  V30 13397 C 1233.96 -2.19246 -2.8541 0
M  V30 13398 C 1233.57 -3.6752 -2.5619 0
M  V30 13399 C 1235.31 -2.19355 -3.63433 0
M  V30 13400 C 1233.22 -4.53559 -3.79523 0
M  V30 13401 H 1232.15 -0.46469 -0.593784 0
M  V30 13402 H 1234.8 -1.58992 -0.916169 0
M  V30 13403 H 1233.18 -1.78295 -3.53591 0
M  V30 13404 H 1234.36 -4.16956 -1.96173 0
M  V30 13405 H 1232.67 -3.69774 -1.91458 0
M  V30 13406 H 1235.27 -2.80863 -4.54995 0
M  V30 13407 H 1235.61 -1.19056 -3.98913 0
M  V30 13408 H 1236.14 -2.58706 -3.02185 0
M  V30 13409 H 1232.88 -5.54762 -3.4917 0
M  V30 13410 H 1232.4 -4.08862 -4.38853 0
M  V30 13411 H 1234.08 -4.67736 -4.47025 0
M  V30 13412 N 1234.21 1.05064 -1.1747 0
M  V30 13413 C 1235.14 2.14786 -0.915936 0
M  V30 13414 C 1236.12 1.69502 0.142561 0
M  V30 13415 O 1237.31 1.94198 -0.00794522 0
M  V30 13416 C 1234.44 3.44629 -0.429864 0
M  V30 13417 C 1233.39 4.03486 -1.42769 0
M  V30 13418 C 1232.72 5.28689 -0.799528 0
M  V30 13419 C 1234.02 4.40823 -2.80129 0
M  V30 13420 H 1235.71 2.3669 -1.83352 0
M  V30 13421 H 1233.26 1.13751 -0.882992 0
M  V30 13422 H 1235.21 4.20737 -0.236245 0
M  V30 13423 H 1233.94 3.22381 0.523263 0
M  V30 13424 H 1232.6 3.29449 -1.60808 0
M  V30 13425 H 1232.24 5.02744 0.160474 0
M  V30 13426 H 1231.94 5.69028 -1.46565 0
M  V30 13427 H 1233.47 6.07483 -0.616212 0
M  V30 13428 H 1234.88 5.07959 -2.65801 0
M  V30 13429 H 1233.28 4.92183 -3.43331 0
M  V30 13430 H 1234.35 3.51108 -3.34441 0
M  V30 13431 N 1235.69 0.975146 1.23809 0
M  V30 13432 C 1236.94 0.642074 1.92367 0
M  V30 13433 C 1237.27 -0.82164 1.75962 0
M  V30 13434 O 1236.55 -1.59205 1.11732 0
M  V30 13435 C 1236.83 1.02677 3.45151 0
M  V30 13436 C 1236.68 2.54773 3.7069 0
M  V30 13437 C 1238 0.5668 4.36435 0
M  V30 13438 H 1235.12 0.234735 0.698619 0
M  V30 13439 H 1237.76 1.21549 1.46034 0
M  V30 13440 H 1235.91 0.538846 3.84745 0
M  V30 13441 H 1237.58 3.11099 3.4061 0
M  V30 13442 H 1235.83 2.97641 3.15583 0
M  V30 13443 H 1236.5 2.7674 4.77618 0
M  V30 13444 H 1238.97 0.985635 4.04258 0
M  V30 13445 H 1237.85 0.864458 5.4205 0
M  V30 13446 H 1238.11 -0.532989 4.38875 0
M  V30 13447 N 1237.17 -1.38817 0.746158 0
M  V30 13448 C 1238.59 -1.53894 0.42294 0
M  V30 13449 C 1238.79 -1.71064 -1.06486 0
M  V30 13450 O 1237.84 -1.71744 -1.85095 0
M  V30 13451 C 1239.15 -2.75029 1.2157 0
M  V30 13452 C 1240.7 -2.88873 1.20504 0
M  V30 13453 C 1241.18 -4.1296 1.9806 0
M  V30 13454 N 1242.67 -4.20022 1.95283 0
M  V30 13455 C 1243.4 -5.15011 2.52093 0
M  V30 13456 N 1242.9 -6.1572 3.17586 0
M  V30 13457 N 1244.69 -5.07308 2.42064 0
M  V30 13458 H 1236.84 -1.25921 1.71049 0
M  V30 13459 H 1239.11 -0.611148 0.724708 0
M  V30 13460 H 1238.81 -2.68722 2.26895 0
M  V30 13461 H 1238.69 -3.68009 0.827593 0
M  V30 13462 H 1241.07 -2.94667 0.159877 0
M  V30 13463 H 1241.15 -1.96925 1.63261 0
M  V30 13464 H 1240.8 -4.07929 3.02583 0
M  V30 13465 H 1240.73 -5.03974 1.52702 0
M  V30 13466 H 1243.22 -3.47892 1.4758 0
M  V30 13467 H 1243.53 -6.84682 3.58373 0
M  V30 13468 H 1241.88 -6.16075 3.21678 0
M  V30 13469 H 1245.07 -4.27569 1.90532 0
M  V30 13470 H 1245.24 -5.81158 2.86635 0
M  V30 13471 N 1238.65 -0.49465 -1.49636 0
M  V30 13472 C 1239.88 0.0491129 -2.06842 0
M  V30 13473 C 1240.29 1.31395 -1.35576 0
M  V30 13474 O 1239.65 1.7731 -0.432135 0
M  V30 13475 C 1239.7 0.313171 -3.60141 0
M  V30 13476 O 1239.42 -0.90152 -4.28724 0
M  V30 13477 C 1240.92 0.901284 -4.34041 0
M  V30 13478 H 1238.14 -0.0176186 -0.670769 0
M  V30 13479 H 1240.68 -0.690188 -1.92501 0
M  V30 13480 H 1238.84 1.00244 -3.74206 0
M  V30 13481 H 1239.25 -0.660477 -5.20325 0
M  V30 13482 H 1240.73 1.03567 -5.42197 0
M  V30 13483 H 1241.2 1.89746 -3.96097 0
M  V30 13484 H 1241.81 0.249677 -4.24566 0
M  V30 13485 N 1240.13 1.55939 -0.228214 0
M  V30 13486 C 1241.35 2.0287 0.406348 0
M  V30 13487 C 1241.77 1.1079 1.52876 0
M  V30 13488 O 1241.13 0.118747 1.82113 0
M  V30 13489 C 1241.18 3.49286 0.931734 0
M  V30 13490 O 1240.9 4.37857 -0.145933 0
M  V30 13491 C 1242.4 4.11893 1.63887 0
M  V30 13492 H 1239.62 0.663696 0.0987358 0
M  V30 13493 H 1242.16 2.01541 -0.346616 0
M  V30 13494 H 1240.32 3.5121 1.63494 0
M  V30 13495 H 1240.73 5.23904 0.250005 0
M  V30 13496 H 1242.21 5.16091 1.95841 0
M  V30 13497 H 1242.68 3.57281 2.55435 0
M  V30 13498 H 1243.29 4.13839 0.980697 0
M  V30 13499 N 1241.6 -0.0451101 1.57535 0
M  V30 13500 C 1242.85 -0.739114 1.88529 0
M  V30 13501 C 1243.18 -1.76208 0.823468 0
M  V30 13502 O 1242.43 -1.94893 -0.177512 0
M  V30 13503 C 1242.73 -1.45938 3.26247 0
M  V30 13504 C 1242.4 -0.57391 4.47233 0
M  V30 13505 C 1241.06 -0.329974 4.80067 0
M  V30 13506 C 1243.41 0.0384272 5.21186 0
M  V30 13507 C 1240.74 0.535339 5.84253 0
M  V30 13508 C 1243.09 0.891349 6.26289 0
M  V30 13509 C 1241.76 1.1449 6.57608 0
M  V30 13510 H 1241.03 -0.270461 0.689878 0
M  V30 13511 H 1243.67 0.000714103 1.915 0
M  V30 13512 H 1241.98 -2.27212 3.1919 0
M  V30 13513 H 1243.68 -2.00162 3.47471 0
M  V30 13514 H 1240.27 -0.774181 4.2155 0
M  V30 13515 H 1244.45 -0.137096 4.96111 0
M  V30 13516 H 1239.71 0.740253 6.06902 0
M  V30 13517 H 1243.88 1.37243 6.82743 0
M  V30 13518 H 1241.51 1.81715 7.38162 0
M  V30 13519 N 1243.08 -1.54377 -0.317073 0
M  V30 13520 C 1244.31 -1.77184 -1.07798 0
M  V30 13521 C 1244.73 -0.52204 -1.80711 0
M  V30 13522 O 1244.09 0.52672 -1.7348 0
M  V30 13523 C 1244.14 -2.96887 -2.04671 0
M  V30 13524 O 1243.24 -2.68887 -3.12688 0
M  V30 13525 H 1242.58 -0.586937 -0.310485 0
M  V30 13526 H 1245.11 -2.01419 -0.35939 0
M  V30 13527 H 1245.12 -3.24414 -2.47426 0
M  V30 13528 H 1243.8 -3.87518 -1.51005 0
M  V30 13529 H 1242.38 -2.52329 -2.74562 0
M  V30 13530 N 1244.56 0.579466 -1.4656 0
M  V30 13531 C 1245.49 1.69846 -1.60233 0
M  V30 13532 C 1246.47 1.6397 -0.452533 0
M  V30 13533 O 1247.66 1.81936 -0.679174 0
M  V30 13534 C 1244.79 3.08488 -1.59538 0
M  V30 13535 C 1243.74 3.29197 -2.7352 0
M  V30 13536 C 1243.07 4.684 -2.57887 0
M  V30 13537 C 1244.37 3.16718 -4.15315 0
M  V30 13538 H 1246.06 1.5866 -2.53904 0
M  V30 13539 H 1243.61 0.761873 -1.22194 0
M  V30 13540 H 1245.56 3.86595 -1.67696 0
M  V30 13541 H 1244.28 3.20581 -0.62413 0
M  V30 13542 H 1242.94 2.53491 -2.64836 0
M  V30 13543 H 1242.59 4.77262 -1.58839 0
M  V30 13544 H 1242.29 4.83208 -3.34341 0
M  V30 13545 H 1243.81 5.48671 -2.67942 0
M  V30 13546 H 1245.23 3.84666 -4.25094 0
M  V30 13547 H 1243.63 3.43047 -4.92381 0
M  V30 13548 H 1244.7 2.13755 -4.35244 0
M  V30 13549 N 1246.04 1.3432 0.824371 0
M  V30 13550 C 1247.29 1.26345 1.57738 0
M  V30 13551 C 1247.61 -0.166836 1.94285 0
M  V30 13552 O 1246.88 -1.09911 1.62162 0
M  V30 13553 H 1245.46 0.46466 0.584893 0
M  V30 13554 H 1248.12 1.68214 0.984373 0
M  V30 13555 H 1247.22 1.8672 2.50084 0
M  V30 13556 N 1247.52 -1.0444 1.18026 0
M  V30 13557 C 1248.76 -1.77224 0.971391 0
M  V30 13558 C 1249.09 -1.88466 -0.500564 0
M  V30 13559 O 1248.36 -1.40692 -1.36317 0
M  V30 13560 H 1246.94 -0.656485 0.356422 0
M  V30 13561 H 1249.6 -1.26064 1.4864 0
M  V30 13562 H 1248.69 -2.78626 1.4062 0
M  V30 13563 N 1248.99 -0.981699 -1.2329 0
M  V30 13564 C 1249.92 -0.542441 -2.27112 0
M  V30 13565 C 1250.91 0.425034 -1.64704 0
M  V30 13566 O 1252.09 0.318114 -1.91577 0
M  V30 13567 C 1249.22 0.154668 -3.46955 0
M  V30 13568 C 1248.17 -0.73022 -4.21725 0
M  V30 13569 C 1247.5 0.0991766 -5.34608 0
M  V30 13570 C 1248.8 -2.02166 -4.81587 0
M  V30 13571 H 1250.49 -1.41024 -2.64107 0
M  V30 13572 H 1248.04 -0.679544 -1.26957 0
M  V30 13573 H 1249.99 0.473281 -4.18734 0
M  V30 13574 H 1248.72 1.05693 -3.09025 0
M  V30 13575 H 1247.38 -1.03231 -3.51765 0
M  V30 13576 H 1247.02 1.00201 -4.92919 0
M  V30 13577 H 1246.72 -0.489788 -5.85555 0
M  V30 13578 H 1248.25 0.412141 -6.09207 0
M  V30 13579 H 1249.66 -1.76773 -5.45366 0
M  V30 13580 H 1248.06 -2.55851 -5.42826 0
M  V30 13581 H 1249.13 -2.70766 -4.02261 0
M  V30 13582 N 1250.47 1.3842 -0.753509 0
M  V30 13583 C 1251.42 2.32315 -0.115107 0
M  V30 13584 C 1252.41 1.54015 0.705398 0
M  V30 13585 O 1253.62 1.69546 0.604505 0
M  V30 13586 H 1250 0.751774 -0.0184276 0
M  V30 13587 H 1251.97 2.83763 -0.923094 0
M  V30 13588 C 1250.72 3.39206 0.763849 0
M  V30 13589 H 1250.04 3.99548 0.14187 0
M  V30 13590 H 1251.48 4.07312 1.17783 0
M  V30 13591 C 1249.94 2.77771 1.90643 0
M  V30 13592 O 1250.47 2.67073 3.00058 0
M  V30 13593 N 1248.67 2.35582 1.70145 0
M  V30 13594 H 1248.22 2.44483 0.811528 0
M  V30 13595 H 1248.18 1.9482 2.46764 0
M  V30 13596 N 1251.95 0.502579 1.49372 0
M  V30 13597 C 1253.18 -0.0403087 2.07361 0
M  V30 13598 C 1253.6 -1.29918 1.36026 0
M  V30 13599 O 1252.96 -1.76428 0.417488 0
M  V30 13600 C 1253.01 -0.275362 3.59547 0
M  V30 13601 O 1252.11 -1.34975 3.89686 0
M  V30 13602 H 1251.45 0.0269268 0.663454 0
M  V30 13603 H 1253.98 0.702652 1.92156 0
M  V30 13604 H 1253.99 -0.506392 4.04845 0
M  V30 13605 H 1252.67 0.644382 4.10878 0
M  V30 13606 H 1251.24 -1.10355 3.56197 0
M  V30 13607 N 1253.43 -1.55816 0.23648 0
M  V30 13608 C 1254.65 -2.03534 -0.398575 0
M  V30 13609 C 1255.08 -1.11488 -1.51499 0
M  V30 13610 O 1254.44 -0.105848 -1.80991 0
M  V30 13611 C 1254.48 -3.49356 -0.893467 0
M  V30 13612 O 1253.59 -3.60446 -2.00381 0
M  V30 13613 H 1252.93 -0.658102 -0.0883021 0
M  V30 13614 H 1255.46 -2.01417 0.359488 0
M  V30 13615 H 1255.47 -3.89972 -1.19941 0
M  V30 13616 H 1254.14 -4.1583 -0.0764388 0
M  V30 13617 H 1252.72 -3.31723 -1.70336 0
M  V30 13618 N 1254.91 0.036755 -1.57557 0
M  V30 13619 C 1256.15 0.729106 -1.88919 0
M  V30 13620 C 1256.48 1.75769 -0.832801 0
M  V30 13621 O 1255.74 1.94985 0.167173 0
M  V30 13622 C 1256.04 1.44206 -3.27016 0
M  V30 13623 C 1255.7 0.550184 -4.47531 0
M  V30 13624 C 1254.36 0.304511 -4.80236 0
M  V30 13625 C 1256.72 -0.0660664 -5.21158 0
M  V30 13626 C 1254.04 -0.566316 -5.8396 0
M  V30 13627 C 1256.4 -0.92455 -6.25807 0
M  V30 13628 C 1255.06 -1.17976 -6.56992 0
M  V30 13629 H 1254.33 0.266799 -0.691303 0
M  V30 13630 H 1256.98 -0.0108698 -1.91497 0
M  V30 13631 H 1255.28 2.25516 -3.2039 0
M  V30 13632 H 1256.98 1.98317 -3.48527 0
M  V30 13633 H 1253.57 0.751814 -4.21955 0
M  V30 13634 H 1257.75 0.110784 -4.96176 0
M  V30 13635 H 1253.01 -0.772428 -6.06501 0
M  V30 13636 H 1257.18 -1.40861 -6.82005 0
M  V30 13637 H 1254.81 -1.85627 -7.37188 0
M  V30 13638 N 1256.39 1.54543 0.308881 0
M  V30 13639 C 1257.63 1.7266 1.04266 0
M  V30 13640 C 1257.95 0.51518 1.88694 0
M  V30 13641 O 1259.15 0.577988 2.65276 0
M  V30 13642 C 1257.61 3.05448 1.9034 0
M  V30 13643 C 1257.22 4.34043 1.10953 0
M  V30 13644 C 1258.96 3.32925 2.63365 0
M  V30 13645 C 1256.87 5.57886 1.96258 0
M  V30 13646 H 1255.8 0.643485 0.392992 0
M  V30 13647 H 1258.45 1.8103 0.300077 0
M  V30 13648 H 1256.83 2.91023 2.68555 0
M  V30 13649 H 1258.01 4.59279 0.374069 0
M  V30 13650 H 1256.32 4.13442 0.495453 0
M  V30 13651 H 1258.92 4.22649 3.27524 0
M  V30 13652 H 1259.26 2.51451 3.3178 0
M  V30 13653 H 1259.79 3.48285 1.92204 0
M  V30 13654 H 1256.53 6.42005 1.32326 0
M  V30 13655 H 1256.05 5.36847 2.67498 0
M  V30 13656 H 1257.73 5.94846 2.54494 0
M  V30 13657 N 1257.86 -0.571685 1.46866 0
M  V30 13658 C 1258.81 -1.70098 1.58649 0
M  V30 13659 C 1259.81 -1.63191 0.45443 0
M  V30 13660 O 1261.01 -1.68551 0.63171 0
M  V30 13661 H 1257.39 -0.56258 0.499007 0
M  V30 13662 H 1259.36 -1.57293 2.53577 0
M  V30 13663 C 1258.11 -3.08475 1.60433 0
M  V30 13664 H 1257.43 -3.14465 2.46884 0
M  V30 13665 H 1258.87 -3.87221 1.7273 0
M  V30 13666 C 1257.33 -3.35231 0.334948 0
M  V30 13667 O 1257.86 -3.97633 -0.570149 0
M  V30 13668 N 1256.06 -2.8977 0.219441 0
M  V30 13669 H 1255.61 -2.39168 0.956891 0
M  V30 13670 H 1255.57 -3.08044 -0.628975 0
M  V30 13671 N 1259.34 -1.34755 -0.817236 0
M  V30 13672 C 1260.29 -1.26816 -1.94988 0
M  V30 13673 C 1261.28 -0.165142 -1.68593 0
M  V30 13674 O 1262.49 -0.330469 -1.7694 0
M  V30 13675 H 1258.86 -0.394113 -0.640452 0
M  V30 13676 H 1260.84 -2.22528 -1.98806 0
M  V30 13677 C 1259.58 -1.04625 -3.31586 0
M  V30 13678 H 1258.91 -1.88735 -3.52447 0
M  V30 13679 H 1260.35 -1.03108 -4.11272 0
M  V30 13680 C 1258.81 0.250283 -3.35969 0
M  V30 13681 O 1259.34 1.24972 -3.81765 0
M  V30 13682 N 1257.54 0.285369 -2.89195 0
M  V30 13683 H 1257.09 -0.528528 -2.5212 0
M  V30 13684 H 1257.05 1.15261 -2.9251 0
M  V30 13685 N 1260.82 1.03812 -1.18578 0
M  V30 13686 C 1261.73 2.15371 -0.930182 0
M  V30 13687 C 1262.75 1.73673 0.106599 0
M  V30 13688 O 1263.92 2.01257 -0.0759054 0
M  V30 13689 C 1260.99 3.43606 -0.462151 0
M  V30 13690 C 1260.05 3.99671 -1.5672 0
M  V30 13691 C 1259.28 5.21785 -1.12141 0
M  V30 13692 O 1259.5 5.70397 0.0188357 0
M  V30 13693 O 1258.44 5.70449 -1.9202 0
M  V30 13694 H 1262.26 2.39791 -1.86371 0
M  V30 13695 H 1259.85 1.13814 -0.967819 0
M  V30 13696 H 1261.73 4.2088 -0.20934 0
M  V30 13697 H 1260.41 3.20654 0.443052 0
M  V30 13698 H 1259.31 3.23774 -1.87406 0
M  V30 13699 H 1260.65 4.2697 -2.44862 0
M  V30 13700 N 1262.3 0.988223 1.22768 0
M  V30 13701 C 1263.21 0.543407 2.2822 0
M  V30 13702 C 1264.22 -0.405563 1.69208 0
M  V30 13703 O 1265.4 -0.273551 1.99534 0
M  V30 13704 C 1262.46 -0.139495 3.46419 0
M  V30 13705 C 1261.53 0.851853 4.20764 0
M  V30 13706 C 1260.76 0.201446 5.3332 0
M  V30 13707 O 1260.98 -1.00573 5.61464 0
M  V30 13708 O 1259.92 0.903956 5.95073 0
M  V30 13709 H 1263.74 1.42059 2.68427 0
M  V30 13710 H 1261.33 0.756239 1.28846 0
M  V30 13711 H 1263.21 -0.522226 4.18152 0
M  V30 13712 H 1261.88 -0.991315 3.08147 0
M  V30 13713 H 1260.79 1.28543 3.51322 0
M  V30 13714 H 1262.12 1.67273 4.62905 0
M  V30 13715 N 1263.78 -1.38018 0.760839 0
M  V30 13716 C 1264.69 -2.34181 0.140232 0
M  V30 13717 C 1265.7 -1.59635 -0.692287 0
M  V30 13718 O 1266.88 -1.91788 -0.614752 0
M  V30 13719 C 1263.94 -3.38778 -0.73693 0
M  V30 13720 C 1263 -4.29157 0.110792 0
M  V30 13721 C 1262.24 -5.28758 -0.724599 0
M  V30 13722 O 1262.46 -5.35585 -1.96226 0
M  V30 13723 O 1261.39 -6.01738 -0.139565 0
M  V30 13724 H 1265.22 -2.88962 0.934588 0
M  V30 13725 H 1262.8 -1.3999 0.521835 0
M  V30 13726 H 1264.69 -4.02804 -1.23803 0
M  V30 13727 H 1263.36 -2.86341 -1.50966 0
M  V30 13728 H 1262.27 -3.68268 0.658007 0
M  V30 13729 H 1263.6 -4.84869 0.846346 0
M  V30 13730 N 1265.25 -0.510493 -1.49103 0
M  V30 13731 C 1266.18 0.251999 -2.32136 0
M  V30 13732 C 1267.16 0.953613 -1.40855 0
M  V30 13733 O 1268.35 0.943178 -1.69758 0
M  V30 13734 C 1265.48 1.31118 -3.21598 0
M  V30 13735 C 1264.43 0.72888 -4.21748 0
M  V30 13736 C 1263.76 1.88928 -5.0021 0
M  V30 13737 C 1265.06 -0.286425 -5.21514 0
M  V30 13738 H 1266.75 -0.441102 -2.96133 0
M  V30 13739 H 1264.3 -0.213577 -1.42407 0
M  V30 13740 H 1266.25 1.8524 -3.78503 0
M  V30 13741 H 1264.98 2.0336 -2.55563 0
M  V30 13742 H 1263.64 0.209336 -3.66002 0
M  V30 13743 H 1263.28 2.59961 -4.30615 0
M  V30 13744 H 1262.98 1.50568 -5.67981 0
M  V30 13745 H 1264.51 2.43465 -5.59962 0
M  V30 13746 H 1265.92 0.166997 -5.73057 0
M  V30 13747 H 1264.32 -0.586361 -5.97228 0
M  V30 13748 H 1265.39 -1.19904 -4.69842 0
M  V30 13749 N 1266.73 1.55688 -0.24474 0
M  V30 13750 C 1267.98 1.98067 0.381081 0
M  V30 13751 C 1268.29 1.13606 1.59227 0
M  V30 13752 O 1269.5 1.45988 2.2891 0
M  V30 13753 C 1267.96 3.52432 0.729385 0
M  V30 13754 C 1267.56 4.45629 -0.460282 0
M  V30 13755 C 1269.31 4.03471 1.31952 0
M  V30 13756 C 1267.21 5.91334 -0.088252 0
M  V30 13757 H 1266.14 0.739699 0.146157 0
M  V30 13758 H 1268.8 1.80235 -0.344615 0
M  V30 13759 H 1267.18 3.65951 1.51315 0
M  V30 13760 H 1268.35 4.43868 -1.23764 0
M  V30 13761 H 1266.67 4.05059 -0.965197 0
M  V30 13762 H 1269.26 5.09849 1.61116 0
M  V30 13763 H 1269.61 3.50691 2.24325 0
M  V30 13764 H 1270.14 3.93269 0.5987 0
M  V30 13765 H 1266.88 6.48147 -0.979069 0
M  V30 13766 H 1266.4 5.96235 0.652947 0
M  V30 13767 H 1268.08 6.46156 0.330324 0
M  V30 13768 N 1268.21 -0.0283989 1.57574 0
M  V30 13769 C 1269.12 -1.04575 2.10003 0
M  V30 13770 C 1270.14 -1.39588 1.03881 0
M  V30 13771 O 1271.31 -1.48894 1.35619 0
M  V30 13772 C 1268.38 -2.32755 2.56955 0
M  V30 13773 C 1267.44 -2.04317 3.77562 0
M  V30 13774 C 1266.67 -3.26385 4.22266 0
M  V30 13775 O 1266.89 -4.37082 3.66491 0
M  V30 13776 O 1265.83 -3.12046 5.14695 0
M  V30 13777 H 1269.65 -0.630183 2.9709 0
M  V30 13778 H 1267.24 -0.245423 1.4737 0
M  V30 13779 H 1269.12 -3.08111 2.87482 0
M  V30 13780 H 1267.8 -2.73605 1.72979 0
M  V30 13781 H 1266.7 -1.26527 3.52054 0
M  V30 13782 H 1268.04 -1.68321 4.62524 0
M  V30 13783 N 1269.69 -1.54705 -0.300681 0
M  V30 13784 C 1270.63 -1.85678 -1.37084 0
M  V30 13785 C 1271.6 -0.70573 -1.50362 0
M  V30 13786 O 1272.79 -0.954385 -1.65215 0
M  V30 13787 C 1269.93 -2.10995 -2.73084 0
M  V30 13788 C 1269.04 -3.38621 -2.68254 0
M  V30 13789 C 1268.18 -3.53779 -3.9625 0
M  V30 13790 C 1267.22 -4.75195 -3.85818 0
M  V30 13791 N 1266.35 -4.87157 -5.05591 0
M  V30 13792 H 1271.19 -2.76967 -1.09971 0
M  V30 13793 H 1268.73 -1.37147 -0.531887 0
M  V30 13794 H 1270.69 -2.23669 -3.52176 0
M  V30 13795 H 1269.32 -1.22973 -2.98458 0
M  V30 13796 H 1268.37 -3.34566 -1.81025 0
M  V30 13797 H 1269.68 -4.27834 -2.56436 0
M  V30 13798 H 1268.84 -3.66119 -4.83779 0
M  V30 13799 H 1267.58 -2.62699 -4.10902 0
M  V30 13800 H 1266.58 -4.62888 -2.96673 0
M  V30 13801 H 1267.81 -5.67683 -3.72711 0
M  V30 13802 H 1265.75 -3.99001 -5.20706 0
M  V30 13803 H 1265.67 -5.70372 -4.96197 0
M  V30 13804 H 1266.94 -5.03854 -5.9477 0
M  V30 13805 N 1271.17 0.563888 -1.47167 0
M  V30 13806 C 1272.41 1.33221 -1.55021 0
M  V30 13807 C 1272.77 1.90904 -0.204835 0
M  V30 13808 O 1273.97 2.68334 -0.158201 0
M  V30 13809 C 1272.24 2.41757 -2.63227 0
M  V30 13810 S 1273.8 3.28765 -2.90619 0
M  V30 13811 H 1270.62 0.453623 -0.547491 0
M  V30 13812 H 1273.22 0.646265 -1.84509 0
M  V30 13813 H 1271.93 1.97803 -3.59586 0
M  V30 13814 H 1271.46 3.151 -2.35532 0
M  V30 13815 H 1273.47 4.41065 -2.27323 0
M  V30 13816 N 1272.64 1.35187 0.810078 0
M  V30 13817 C 1273.59 1.27848 1.94313 0
M  V30 13818 C 1274.59 0.174081 1.68503 0
M  V30 13819 O 1275.79 0.339848 1.76763 0
M  V30 13820 H 1272.17 0.397504 0.638353 0
M  V30 13821 H 1274.14 2.23579 1.97623 0
M  V30 13822 C 1272.89 1.06382 3.31026 0
M  V30 13823 H 1272.21 1.90601 3.51441 0
M  V30 13824 H 1273.65 1.05287 4.1072 0
M  V30 13825 C 1272.11 -0.232462 3.36097 0
M  V30 13826 O 1272.64 -1.22946 3.82423 0
M  V30 13827 N 1270.85 -0.270028 2.89343 0
M  V30 13828 H 1270.39 0.541891 2.51836 0
M  V30 13829 H 1270.35 -1.13708 2.93117 0
M  V30 13830 N 1274.12 -1.03182 1.19127 0
M  V30 13831 C 1275.07 -2.11394 0.926339 0
M  V30 13832 C 1276.04 -1.65528 -0.137703 0
M  V30 13833 O 1277.22 -1.908 0.00381804 0
M  V30 13834 C 1274.36 -3.41913 0.467894 0
M  V30 13835 C 1273.48 -4.01343 1.59837 0
M  V30 13836 C 1272.61 -5.1986 1.09175 0
M  V30 13837 C 1271.65 -5.71339 2.19632 0
M  V30 13838 N 1270.79 -6.81133 1.703 0
M  V30 13839 H 1275.63 -2.33393 1.85288 0
M  V30 13840 H 1273.17 -1.14473 0.923811 0
M  V30 13841 H 1275.12 -4.16796 0.183513 0
M  V30 13842 H 1273.75 -3.20034 -0.421656 0
M  V30 13843 H 1272.81 -3.23702 1.99803 0
M  V30 13844 H 1274.12 -4.35568 2.43068 0
M  V30 13845 H 1273.27 -6.0189 0.762427 0
M  V30 13846 H 1272.01 -4.87161 0.22914 0
M  V30 13847 H 1271.02 -4.87923 2.53399 0
M  V30 13848 H 1272.24 -6.06078 3.06344 0
M  V30 13849 H 1270.19 -6.50293 0.863415 0
M  V30 13850 H 1270.1 -7.1447 2.47122 0
M  V30 13851 H 1271.37 -7.66766 1.40321 0
M  V30 13852 N 1275.6 -0.99472 -1.22242 0
M  V30 13853 C 1276.85 -0.667045 -1.90351 0
M  V30 13854 C 1277.16 0.804615 -1.78284 0
M  V30 13855 O 1278.37 1.24395 -2.41326 0
M  V30 13856 C 1276.82 -1.14256 -3.41282 0
M  V30 13857 C 1276.43 -2.63958 -3.61981 0
M  V30 13858 C 1278.18 -0.889302 -4.1508 0
M  V30 13859 C 1276.08 -3.05103 -5.06622 0
M  V30 13860 H 1275.01 -0.245795 -0.712812 0
M  V30 13861 H 1277.66 -1.20452 -1.38432 0
M  V30 13862 H 1276.05 -0.533203 -3.92394 0
M  V30 13863 H 1277.22 -3.30255 -3.21354 0
M  V30 13864 H 1275.54 -2.87186 -3.01518 0
M  V30 13865 H 1278.13 -1.17239 -5.21689 0
M  V30 13866 H 1278.48 0.174556 -4.15934 0
M  V30 13867 H 1279.01 -1.46095 -3.70002 0
M  V30 13868 H 1275.75 -4.10672 -5.1091 0
M  V30 13869 H 1275.27 -2.4351 -5.48145 0
M  V30 13870 H 1276.95 -2.96506 -5.75059 0
M  V30 13871 N 1277.08 1.37613 -0.768148 0
M  V30 13872 C 1278.33 1.99779 -0.330841 0
M  V30 13873 C 1278.65 1.60978 1.09162 0
M  V30 13874 O 1277.91 0.845778 1.7648 0
M  V30 13875 C 1278.21 3.54952 -0.417608 0
M  V30 13876 C 1277.87 4.13509 -1.7978 0
M  V30 13877 C 1276.54 4.29216 -2.17549 0
M  V30 13878 C 1278.89 4.45662 -2.7025 0
M  V30 13879 C 1276.22 4.74376 -3.45231 0
M  V30 13880 C 1278.57 4.92245 -3.97338 0
M  V30 13881 C 1277.23 5.06157 -4.35157 0
M  V30 13882 H 1276.5 0.731044 -0.121063 0
M  V30 13883 H 1279.15 1.64437 -0.98147 0
M  V30 13884 H 1277.45 3.90519 0.316567 0
M  V30 13885 H 1279.15 4.00954 -0.0606037 0
M  V30 13886 H 1275.74 4.01709 -1.49425 0
M  V30 13887 H 1279.92 4.33116 -2.42332 0
M  V30 13888 H 1275.18 4.83333 -3.74431 0
M  V30 13889 H 1279.35 5.16091 -4.67572 0
M  V30 13890 H 1276.98 5.4091 -5.34154 0
M  V30 13891 N 1278.56 0.518393 1.4883 0
M  V30 13892 C 1279.49 -0.239685 2.32267 0
M  V30 13893 C 1280.47 -0.94613 1.41359 0
M  V30 13894 O 1281.65 -0.934162 1.70256 0
M  V30 13895 C 1278.78 -1.29411 3.22289 0
M  V30 13896 C 1277.74 -0.706504 4.22129 0
M  V30 13897 C 1277.06 -1.86273 5.01205 0
M  V30 13898 C 1278.36 0.314079 5.21355 0
M  V30 13899 H 1280.06 0.4568 2.95895 0
M  V30 13900 H 1277.6 0.221126 1.42292 0
M  V30 13901 H 1279.56 -1.8323 3.7948 0
M  V30 13902 H 1278.28 -2.02001 2.56638 0
M  V30 13903 H 1276.94 -0.189924 3.66108 0
M  V30 13904 H 1276.59 -2.57674 4.31988 0
M  V30 13905 H 1276.29 -1.47554 5.68772 0
M  V30 13906 H 1277.81 -2.40492 5.61245 0
M  V30 13907 H 1279.22 -0.136604 5.73137 0
M  V30 13908 H 1277.62 0.618026 5.96909 0
M  V30 13909 H 1278.69 1.22394 4.69199 0
M  V30 13910 N 1280.03 -1.55556 0.252993 0
M  V30 13911 C 1280.97 -2.18978 -0.676837 0
M  V30 13912 C 1281.98 -1.16788 -1.13421 0
M  V30 13913 O 1283.17 -1.43623 -1.05993 0
M  V30 13914 C 1280.27 -2.78404 -1.93248 0
M  V30 13915 C 1279.44 -4.06072 -1.62555 0
M  V30 13916 C 1278.5 -4.49757 -2.7314 0
M  V30 13917 O 1277.53 -5.16005 -2.40266 0
M  V30 13918 N 1278.73 -4.18049 -4.0276 0
M  V30 13919 H 1281.49 -2.994 -0.134142 0
M  V30 13920 H 1279.05 -1.61734 0.0731965 0
M  V30 13921 H 1281.05 -3.04583 -2.6648 0
M  V30 13922 H 1279.62 -2.02104 -2.3848 0
M  V30 13923 H 1278.84 -3.87417 -0.728115 0
M  V30 13924 H 1280.12 -4.89297 -1.39521 0
M  V30 13925 H 1279.52 -3.64876 -4.32298 0
M  V30 13926 H 1278.08 -4.4905 -4.72438 0
M  V30 13927 N 1281.51 0.0200419 -1.57587 0
M  V30 13928 C 1282.74 0.720556 -1.93947 0
M  V30 13929 C 1283.16 1.68407 -0.853499 0
M  V30 13930 O 1282.51 1.81713 0.169337 0
M  V30 13931 C 1282.56 1.46982 -3.3027 0
M  V30 13932 O 1282.28 0.544971 -4.34697 0
M  V30 13933 C 1283.79 2.26667 -3.80968 0
M  V30 13934 H 1281.01 0.201956 -0.639887 0
M  V30 13935 H 1283.55 -0.0251175 -2.04485 0
M  V30 13936 H 1281.7 2.16729 -3.21103 0
M  V30 13937 H 1282.12 1.07139 -5.13441 0
M  V30 13938 H 1283.59 2.74621 -4.78839 0
M  V30 13939 H 1284.07 3.0848 -3.12629 0
M  V30 13940 H 1284.68 1.61976 -3.93248 0
M  V30 13941 N 1282.99 1.54862 0.292472 0
M  V30 13942 C 1284.27 1.65237 1.04671 0
M  V30 13943 C 1284.65 0.506168 2.04942 0
M  V30 13944 O 1284 -0.496123 2.23049 0
M  V30 13945 C 1284.21 3.03618 1.72095 0
M  V30 13946 C 1285.55 3.6072 2.23979 0
M  V30 13947 O 1286.58 3.06126 1.82114 0
M  V30 13948 O 1285.44 4.56328 3.0071 0
M  V30 13949 H 1282.53 0.670347 0.484319 0
M  V30 13950 H 1285.08 1.67206 0.28988 0
M  V30 13951 H 1283.85 3.78482 0.993324 0
M  V30 13952 H 1283.47 3.05464 2.54514 0
M  V30 13953 N 1284.47 -0.556076 1.47464 0
M  V30 13954 C 1285.42 -1.68406 1.60444 0
M  V30 13955 C 1286.41 -1.627 0.471713 0
M  V30 13956 O 1287.62 -1.67871 0.649551 0
M  V30 13957 H 1283.99 -0.557255 0.504946 0
M  V30 13958 H 1285.96 -1.54595 2.55231 0
M  V30 13959 C 1284.71 -3.06756 1.63695 0
M  V30 13960 H 1284.03 -3.11829 2.50206 0
M  V30 13961 H 1285.47 -3.85368 1.76827 0
M  V30 13962 C 1283.93 -3.34857 0.370485 0
M  V30 13963 O 1284.46 -3.98216 -0.527942 0
M  V30 13964 N 1282.67 -2.89521 0.250163 0
M  V30 13965 H 1282.22 -2.3814 0.982204 0
M  V30 13966 H 1282.17 -3.08694 -0.596268 0
M  V30 13967 N 1285.95 -1.35615 -0.802897 0
M  V30 13968 C 1286.86 -1.3096 -1.94645 0
M  V30 13969 C 1287.87 -0.213909 -1.7268 0
M  V30 13970 O 1289.05 -0.443932 -1.96446 0
M  V30 13971 C 1286.11 -1.08483 -3.2929 0
M  V30 13972 C 1285.18 -2.27401 -3.64126 0
M  V30 13973 C 1284.41 -2.05987 -4.92347 0
M  V30 13974 O 1284.63 -1.02819 -5.61057 0
M  V30 13975 O 1283.57 -2.93439 -5.25526 0
M  V30 13976 H 1287.39 -2.27209 -2.01519 0
M  V30 13977 H 1284.98 -1.16024 -0.941214 0
M  V30 13978 H 1286.86 -0.978118 -4.09891 0
M  V30 13979 H 1285.53 -0.152885 -3.23339 0
M  V30 13980 H 1284.44 -2.43638 -2.83886 0
M  V30 13981 H 1285.77 -3.19055 -3.74786 0
M  V30 13982 N 1287.43 1.02549 -1.19673 0
M  V30 13983 C 1288.67 1.75408 -0.995732 0
M  V30 13984 C 1288.99 1.89773 0.473863 0
M  V30 13985 O 1290.19 2.59638 0.793762 0
M  V30 13986 C 1288.65 3.15444 -1.73273 0
M  V30 13987 C 1288.26 3.09121 -3.24266 0
M  V30 13988 C 1290 3.92575 -1.61509 0
M  V30 13989 C 1287.91 4.44109 -3.9054 0
M  V30 13990 H 1286.84 0.657569 -0.368944 0
M  V30 13991 H 1289.49 1.14739 -1.43203 0
M  V30 13992 H 1287.87 3.76601 -1.22425 0
M  V30 13993 H 1289.05 2.57325 -3.82257 0
M  V30 13994 H 1287.36 2.45485 -3.36342 0
M  V30 13995 H 1289.96 4.92428 -2.08372 0
M  V30 13996 H 1290.3 4.12382 -0.569804 0
M  V30 13997 H 1290.83 3.38027 -2.09721 0
M  V30 13998 H 1287.57 4.29506 -4.95182 0
M  V30 13999 H 1287.09 4.95947 -3.37337 0
M  V30 14000 H 1288.77 5.12982 -3.94282 0
M  V30 14001 N 1288.9 1.00119 1.21713 0
M  V30 14002 C 1290.15 0.681723 1.9068 0
M  V30 14003 C 1290.48 -0.787121 1.77861 0
M  V30 14004 O 1289.73 -1.58573 1.14687 0
M  V30 14005 C 1290.03 1.04376 3.41819 0
M  V30 14006 C 1289.7 2.50624 3.74831 0
M  V30 14007 C 1288.36 2.90587 3.83552 0
M  V30 14008 C 1290.71 3.45377 3.90339 0
M  V30 14009 C 1288.04 4.24276 4.05225 0
M  V30 14010 C 1290.39 4.78734 4.13517 0
M  V30 14011 C 1289.06 5.18427 4.20464 0
M  V30 14012 H 1288.33 0.24946 0.697747 0
M  V30 14013 H 1290.97 1.25892 1.44304 0
M  V30 14014 H 1289.28 0.384756 3.89906 0
M  V30 14015 H 1290.98 0.774488 3.9345 0
M  V30 14016 H 1287.57 2.18651 3.68632 0
M  V30 14017 H 1291.75 3.15669 3.82971 0
M  V30 14018 H 1287.01 4.54605 4.08833 0
M  V30 14019 H 1291.18 5.52094 4.24459 0
M  V30 14020 H 1288.81 6.22034 4.3701 0
M  V30 14021 N 1290.38 -1.37203 0.775435 0
M  V30 14022 C 1291.63 -1.98846 0.338093 0
M  V30 14023 C 1291.94 -1.6225 -1.09244 0
M  V30 14024 O 1293.15 -2.17024 -1.63135 0
M  V30 14025 C 1291.61 -3.55618 0.553541 0
M  V30 14026 C 1291.21 -4.01149 1.99457 0
M  V30 14027 C 1292.96 -4.24118 0.180006 0
M  V30 14028 C 1290.86 -5.50644 2.15742 0
M  V30 14029 H 1289.79 -0.743955 0.122669 0
M  V30 14030 H 1292.45 -1.56685 0.955087 0
M  V30 14031 H 1290.83 -3.95777 -0.132964 0
M  V30 14032 H 1292 -3.72226 2.71633 0
M  V30 14033 H 1290.32 -3.45443 2.32504 0
M  V30 14034 H 1292.91 -5.33966 0.280145 0
M  V30 14035 H 1293.26 -4.07104 -0.870192 0
M  V30 14036 H 1293.79 -3.89274 0.819201 0
M  V30 14037 H 1290.53 -5.7259 3.19094 0
M  V30 14038 H 1290.05 -5.8124 1.48054 0
M  V30 14039 H 1291.73 -6.16668 1.95781 0
M  V30 14040 N 1291.86 -0.526279 -1.48553 0
M  V30 14041 C 1293.14 0.073385 -1.95462 0
M  V30 14042 C 1293.52 1.51658 -1.46843 0
M  V30 14043 O 1292.86 2.17729 -0.693293 0
M  V30 14044 C 1293.07 -0.040041 -3.48977 0
M  V30 14045 C 1294.42 0.121108 -4.24427 0
M  V30 14046 O 1295.45 0.0339335 -3.56184 0
M  V30 14047 O 1294.31 0.303297 -5.45658 0
M  V30 14048 H 1291.4 0.0813498 -0.822989 0
M  V30 14049 H 1293.95 -0.590614 -1.59091 0
M  V30 14050 H 1292.72 -1.0455 -3.77074 0
M  V30 14051 H 1292.34 0.662975 -3.92034 0
M  V30 14052 N 1293.34 1.5542 -0.261239 0
M  V30 14053 C 1294.28 2.21972 0.632216 0
M  V30 14054 C 1295.25 1.18843 1.16041 0
M  V30 14055 O 1296.44 1.47339 1.21226 0
M  V30 14056 C 1293.58 2.93397 1.81693 0
M  V30 14057 C 1292.69 4.11214 1.3239 0
M  V30 14058 C 1291.83 4.70318 2.46931 0
M  V30 14059 C 1290.87 5.80355 1.94561 0
M  V30 14060 N 1290 6.33581 3.02523 0
M  V30 14061 H 1294.84 2.97944 0.058018 0
M  V30 14062 H 1292.38 1.4709 0.0168725 0
M  V30 14063 H 1294.34 3.33015 2.5131 0
M  V30 14064 H 1292.97 2.19874 2.36337 0
M  V30 14065 H 1292.02 3.76811 0.521292 0
M  V30 14066 H 1293.33 4.90609 0.900214 0
M  V30 14067 H 1292.49 5.12584 3.24565 0
M  V30 14068 H 1291.23 3.90169 2.92608 0
M  V30 14069 H 1290.23 5.37552 1.15402 0
M  V30 14070 H 1291.46 6.62364 1.49836 0
M  V30 14071 H 1289.4 5.56332 3.47608 0
M  V30 14072 H 1289.32 7.08209 2.64529 0
M  V30 14073 H 1290.59 6.80506 3.80174 0
M  V30 14074 N 1294.82 -0.0116844 1.57596 0
M  V30 14075 C 1296.04 -0.713924 1.94725 0
M  V30 14076 C 1296.47 -1.67157 0.862565 0
M  V30 14077 O 1295.82 -1.80401 -0.180308 0
M  V30 14078 C 1295.87 -1.43214 3.30941 0
M  V30 14079 O 1294.98 -2.5461 3.24419 0
M  V30 14080 H 1294.32 -0.190772 0.636005 0
M  V30 14081 H 1296.85 0.0380247 2.04565 0
M  V30 14082 H 1296.86 -1.79819 3.66237 0
M  V30 14083 H 1295.53 -0.729906 4.09445 0
M  V30 14084 H 1294.11 -2.20419 3.00782 0
M  V30 14085 N 1296.29 -1.55015 -0.284256 0
M  V30 14086 C 1297.22 -1.90128 -1.3555 0
M  V30 14087 C 1298.2 -0.761914 -1.52082 0
M  V30 14088 O 1299.39 -1.01909 -1.65312 0
M  V30 14089 C 1296.52 -2.16332 -2.71695 0
M  V30 14090 C 1295.47 -3.32166 -2.69907 0
M  V30 14091 C 1294.8 -3.43824 -4.09498 0
M  V30 14092 C 1296.1 -4.6885 -2.30168 0
M  V30 14093 H 1297.79 -2.79852 -1.06411 0
M  V30 14094 H 1295.34 -1.34649 -0.510451 0
M  V30 14095 H 1297.29 -2.39482 -3.46737 0
M  V30 14096 H 1296.02 -1.23395 -3.02392 0
M  V30 14097 H 1294.68 -3.08965 -1.97322 0
M  V30 14098 H 1294.32 -2.48375 -4.374 0
M  V30 14099 H 1294.02 -4.21698 -4.092 0
M  V30 14100 H 1295.55 -3.69254 -4.86296 0
M  V30 14101 H 1296.96 -4.91619 -2.9493 0
M  V30 14102 H 1295.36 -5.49558 -2.41052 0
M  V30 14103 H 1296.43 -4.68433 -1.25294 0
M  V30 14104 N 1297.77 0.548248 -1.47757 0
M  V30 14105 C 1298.7 1.66999 -1.56984 0
M  V30 14106 C 1299.72 1.56302 -0.455372 0
M  V30 14107 O 1300.91 1.63096 -0.725399 0
M  V30 14108 C 1298.01 3.0553 -1.46645 0
M  V30 14109 C 1297.18 3.41892 -2.72816 0
M  V30 14110 C 1296.24 4.59624 -2.56187 0
M  V30 14111 O 1295.26 4.63757 -3.30028 0
M  V30 14112 N 1296.47 5.56675 -1.64601 0
M  V30 14113 H 1299.23 1.59527 -2.53715 0
M  V30 14114 H 1296.79 0.735101 -1.44249 0
M  V30 14115 H 1298.78 3.82137 -1.33242 0
M  V30 14116 H 1297.35 3.0718 -0.57961 0
M  V30 14117 H 1296.57 2.54644 -3.00916 0
M  V30 14118 H 1297.86 3.62965 -3.56559 0
M  V30 14119 H 1297.26 5.561 -1.03778 0
M  V30 14120 H 1295.82 6.32573 -1.57146 0
M  V30 14121 N 1299.25 1.36039 0.795694 0
M  V30 14122 C 1300.5 1.29663 1.55023 0
M  V30 14123 C 1300.82 -0.125588 1.94595 0
M  V30 14124 O 1300.09 -1.06447 1.64456 0
M  V30 14125 H 1298.67 0.476962 0.574906 0
M  V30 14126 H 1301.33 1.70265 0.948471 0
M  V30 14127 H 1300.43 1.91982 2.46068 0
M  V30 14128 N 1300.73 -1.01913 1.20215 0
M  V30 14129 C 1301.97 -1.75843 1.0223 0
M  V30 14130 C 1302.33 -1.87272 -0.441237 0
M  V30 14131 O 1301.62 -1.38562 -1.32329 0
M  V30 14132 C 1301.82 -3.17734 1.63646 0
M  V30 14133 C 1301.65 -3.20138 3.15819 0
M  V30 14134 C 1300.42 -3.27524 3.84781 0
M  V30 14135 C 1302.61 -3.0639 4.13073 0
M  V30 14136 N 1300.6 -3.19405 5.24265 0
M  V30 14137 C 1301.97 -3.06013 5.39218 0
M  V30 14138 C 1304.02 -2.90588 4.04306 0
M  V30 14139 C 1302.72 -2.91455 6.57607 0
M  V30 14140 C 1304.75 -2.77383 5.22315 0
M  V30 14141 C 1304.11 -2.77669 6.47363 0
M  V30 14142 H 1300.21 -0.654282 0.428298 0
M  V30 14143 H 1302.8 -1.2124 1.52345 0
M  V30 14144 H 1300.97 -3.70636 1.16118 0
M  V30 14145 H 1302.7 -3.8008 1.39002 0
M  V30 14146 H 1299.45 -3.34145 3.35625 0
M  V30 14147 H 1299.88 -3.18726 5.97279 0
M  V30 14148 H 1304.52 -2.89182 3.08438 0
M  V30 14149 H 1302.24 -2.9161 7.53651 0
M  V30 14150 H 1305.82 -2.66177 5.1734 0
M  V30 14151 H 1304.7 -2.67566 7.37142 0
M  V30 14152 N 1302.21 -1.00763 -1.2118 0
M  V30 14153 C 1303.15 -0.570257 -2.23644 0
M  V30 14154 C 1304.12 0.405039 -1.61086 0
M  V30 14155 O 1305.31 0.306496 -1.88322 0
M  V30 14156 C 1302.45 0.094325 -3.44971 0
M  V30 14157 C 1301.56 -0.924463 -4.21993 0
M  V30 14158 C 1300.7 -0.231869 -5.30694 0
M  V30 14159 C 1299.74 -1.23803 -5.99449 0
M  V30 14160 N 1298.87 -0.572725 -6.9976 0
M  V30 14161 H 1303.71 -1.44869 -2.60417 0
M  V30 14162 H 1301.25 -0.725369 -1.27972 0
M  V30 14163 H 1303.21 0.496689 -4.14233 0
M  V30 14164 H 1301.84 0.936457 -3.08918 0
M  V30 14165 H 1300.89 -1.44505 -3.51884 0
M  V30 14166 H 1302.2 -1.69004 -4.69296 0
M  V30 14167 H 1301.36 0.226465 -6.06277 0
M  V30 14168 H 1300.09 0.566092 -4.84403 0
M  V30 14169 H 1299.1 -1.70684 -5.22635 0
M  V30 14170 H 1300.32 -2.03711 -6.47826 0
M  V30 14171 H 1298.27 0.205531 -6.55678 0
M  V30 14172 H 1298.19 -1.27651 -7.45145 0
M  V30 14173 H 1299.46 -0.137683 -7.79378 0
M  V30 14174 N 1303.68 1.3679 -0.7827 0
M  V30 14175 C 1304.59 2.33928 -0.17747 0
M  V30 14176 C 1305.61 1.60716 0.666802 0
M  V30 14177 O 1306.79 1.92742 0.584162 0
M  V30 14178 C 1303.85 3.39907 0.68294 0
M  V30 14179 C 1302.91 4.28926 -0.179053 0
M  V30 14180 C 1302.15 5.29844 0.640386 0
M  V30 14181 O 1302.37 5.38639 1.87681 0
M  V30 14182 O 1301.3 6.01884 0.0438164 0
M  V30 14183 H 1305.13 2.87439 -0.980441 0
M  V30 14184 H 1302.71 1.39142 -0.54404 0
M  V30 14185 H 1304.6 4.04722 1.17379 0
M  V30 14186 H 1303.27 2.88706 1.46391 0
M  V30 14187 H 1302.18 3.67174 -0.716512 0
M  V30 14188 H 1303.51 4.83461 -0.923377 0
M  V30 14189 N 1305.16 0.53415 1.48272 0
M  V30 14190 C 1306.41 -0.000450626 2.017 0
M  V30 14191 C 1306.72 -1.34926 1.41613 0
M  V30 14192 O 1307.93 -1.97246 1.86564 0
M  V30 14193 C 1306.39 -0.0511883 3.59864 0
M  V30 14194 C 1305.99 1.29298 4.28936 0
M  V30 14195 C 1307.74 -0.534397 4.21123 0
M  V30 14196 C 1305.65 1.2026 5.79044 0
M  V30 14197 H 1304.58 -0.00393844 0.75399 0
M  V30 14198 H 1307.23 0.678554 1.70493 0
M  V30 14199 H 1305.61 -0.795358 3.8793 0
M  V30 14200 H 1306.78 2.05305 4.12537 0
M  V30 14201 H 1305.1 1.71226 3.79566 0
M  V30 14202 H 1307.69 -0.620048 5.31093 0
M  V30 14203 H 1308.04 -1.54114 3.86723 0
M  V30 14204 H 1308.57 0.154215 3.97501 0
M  V30 14205 H 1305.31 2.18463 6.18025 0
M  V30 14206 H 1304.83 0.483971 5.97844 0
M  V30 14207 H 1306.51 0.895005 6.4078 0
M  V30 14208 N 1306.64 -1.55279 0.269478 0
M  V30 14209 C 1307.55 -2.25965 -0.63065 0
M  V30 14210 C 1308.57 -1.28357 -1.17476 0
M  V30 14211 O 1309.74 -1.61281 -1.20625 0
M  V30 14212 C 1306.81 -2.96263 -1.80081 0
M  V30 14213 C 1305.87 -4.09336 -1.29394 0
M  V30 14214 C 1305.1 -4.76272 -2.40833 0
M  V30 14215 O 1305.32 -4.42389 -3.60066 0
M  V30 14216 O 1304.26 -5.64334 -2.09309 0
M  V30 14217 H 1308.08 -3.03644 -0.0582069 0
M  V30 14218 H 1305.67 -1.49354 0.0370966 0
M  V30 14219 H 1307.55 -3.40461 -2.48322 0
M  V30 14220 H 1306.23 -2.21505 -2.36045 0
M  V30 14221 H 1305.13 -3.69605 -0.578154 0
M  V30 14222 H 1306.47 -4.85978 -0.780117 0
M  V30 14223 N 1308.12 0.00332656 -1.576 0
M  V30 14224 C 1309.35 0.69893 -1.94418 0
M  V30 14225 C 1309.76 1.68021 -0.8698 0
M  V30 14226 O 1309.1 1.83 0.160193 0
M  V30 14227 C 1309.16 1.4892 -3.27205 0
M  V30 14228 C 1308.83 0.669874 -4.52064 0
M  V30 14229 C 1309.82 -0.0410157 -5.19884 0
M  V30 14230 C 1307.51 0.616824 -4.98498 0
M  V30 14231 C 1309.5 -0.793976 -6.32436 0
M  V30 14232 C 1307.19 -0.139864 -6.1094 0
M  V30 14233 C 1308.19 -0.844001 -6.77765 0
M  V30 14234 O 1307.87 -1.58835 -7.88052 0
M  V30 14235 H 1307.61 0.199843 -0.645785 0
M  V30 14236 H 1310.16 -0.0429034 -2.05355 0
M  V30 14237 H 1308.39 2.27544 -3.12667 0
M  V30 14238 H 1310.08 2.06983 -3.4916 0
M  V30 14239 H 1310.85 -0.00916281 -4.84999 0
M  V30 14240 H 1306.72 1.15442 -4.46312 0
M  V30 14241 H 1310.27 -1.34411 -6.84529 0
M  V30 14242 H 1306.17 -0.173549 -6.45267 0
M  V30 14243 H 1306.93 -1.50471 -8.0455 0
M  V30 14244 N 1309.6 1.55164 0.276031 0
M  V30 14245 C 1310.51 1.90928 1.36321 0
M  V30 14246 C 1311.52 0.806183 1.54197 0
M  V30 14247 O 1312.7 1.10497 1.68382 0
M  V30 14248 C 1309.76 2.17123 2.70293 0
M  V30 14249 C 1308.82 3.40703 2.6119 0
M  V30 14250 C 1308.06 3.65638 3.88773 0
M  V30 14251 O 1308.28 2.93137 4.89313 0
M  V30 14252 O 1307.21 4.59172 3.89159 0
M  V30 14253 H 1311.04 2.8347 1.08988 0
M  V30 14254 H 1308.63 1.41672 0.474292 0
M  V30 14255 H 1310.51 2.3541 3.49514 0
M  V30 14256 H 1309.18 1.27765 2.97419 0
M  V30 14257 H 1308.09 3.27754 1.80355 0
M  V30 14258 H 1309.42 4.30271 2.39014 0
M  V30 14259 N 1311.07 -0.540404 1.48045 0
M  V30 14260 C 1312 -1.65538 1.6468 0
M  V30 14261 C 1312.99 -1.62713 0.495847 0
M  V30 14262 O 1314.17 -1.80072 0.727172 0
M  V30 14263 C 1311.3 -3.0415 1.67661 0
M  V30 14264 C 1310.25 -3.2183 2.82152 0
M  V30 14265 C 1309.58 -4.61397 2.70216 0
M  V30 14266 C 1310.88 -3.05596 4.23567 0
M  V30 14267 H 1312.57 -1.51873 2.58021 0
M  V30 14268 H 1310.12 -0.729208 1.24171 0
M  V30 14269 H 1312.07 -3.82013 1.77887 0
M  V30 14270 H 1310.8 -3.18814 0.708907 0
M  V30 14271 H 1309.46 -2.4638 2.71463 0
M  V30 14272 H 1309.1 -4.72883 1.71437 0
M  V30 14273 H 1308.8 -4.74174 3.47035 0
M  V30 14274 H 1310.33 -5.41374 2.82395 0
M  V30 14275 H 1311.74 -3.73261 4.35143 0
M  V30 14276 H 1310.14 -3.29871 5.01303 0
M  V30 14277 H 1311.21 -2.0214 4.40758 0
M  V30 14278 N 1312.55 -1.36459 -0.788468 0
M  V30 14279 C 1313.48 -1.33545 -1.91541 0
M  V30 14280 C 1314.46 -0.206762 -1.68839 0
M  V30 14281 O 1315.65 -0.404553 -1.89939 0
M  V30 14282 C 1312.78 -1.12492 -3.28577 0
M  V30 14283 C 1311.73 -2.22196 -3.65805 0
M  V30 14284 C 1311.06 -1.86285 -5.01201 0
M  V30 14285 C 1312.36 -3.64286 -3.7429 0
M  V30 14286 H 1314.05 -2.27844 -1.94236 0
M  V30 14287 H 1311.6 -1.09677 -0.933105 0
M  V30 14288 H 1313.55 -1.09089 -4.07035 0
M  V30 14289 H 1312.28 -0.146446 -3.26272 0
M  V30 14290 H 1310.93 -2.24727 -2.89644 0
M  V30 14291 H 1310.58 -0.87009 -4.95417 0
M  V30 14292 H 1310.28 -2.59734 -5.27079 0
M  V30 14293 H 1311.81 -1.84439 -5.82078 0
M  V30 14294 H 1313.22 -3.63977 -4.42937 0
M  V30 14295 H 1311.62 -4.36648 -4.11653 0
M  V30 14296 H 1312.69 -3.99123 -2.75371 0
M  V30 14297 N 1314.03 1.01274 -1.20754 0
M  V30 14298 C 1315.45 1.27256 -0.963221 0
M  V30 14299 C 1315.65 1.98349 0.354972 0
M  V30 14300 O 1314.7 2.28116 1.08255 0
M  V30 14301 C 1316.02 2.1038 -2.14851 0
M  V30 14302 C 1317.56 2.23633 -2.18991 0
M  V30 14303 C 1318.04 3.10136 -3.37016 0
M  V30 14304 N 1319.53 3.17724 -3.37054 0
M  V30 14305 C 1320.26 3.84891 -4.25025 0
M  V30 14306 N 1319.76 4.54152 -5.23181 0
M  V30 14307 N 1321.55 3.81454 -4.12855 0
M  V30 14308 H 1313.7 0.535534 -2.05538 0
M  V30 14309 H 1315.97 0.299006 -0.899611 0
M  V30 14310 H 1315.67 1.65484 -3.10335 0
M  V30 14311 H 1315.55 3.11122 -2.13267 0
M  V30 14312 H 1317.93 2.67753 -1.24067 0
M  V30 14313 H 1318.02 1.22387 -2.24622 0
M  V30 14314 H 1317.66 2.66721 -4.32229 0
M  V30 14315 H 1317.59 4.11478 -3.28623 0
M  V30 14316 H 1320.08 2.68412 -2.66014 0
M  V30 14317 H 1320.39 5.03084 -5.86623 0
M  V30 14318 H 1318.74 4.52964 -5.27113 0
M  V30 14319 H 1321.93 3.26494 -3.35439 0
M  V30 14320 H 1322.1 4.33523 -4.81624 0
M  V30 14321 N 1315.51 1.01404 1.20644 0
M  V30 14322 C 1316.79 0.617088 1.85611 0
M  V30 14323 C 1317.17 -0.904947 1.9072 0
M  V30 14324 O 1316.51 -1.79562 1.41315 0
M  V30 14325 C 1316.72 1.26193 3.25386 0
M  V30 14326 C 1318.07 1.37575 4.01694 0
M  V30 14327 O 1319.1 1.21795 3.34731 0
M  V30 14328 O 1317.96 1.6305 5.2161 0
M  V30 14329 H 1315.05 0.212579 0.799211 0
M  V30 14330 H 1317.6 1.11126 1.28254 0
M  V30 14331 H 1316.37 2.30206 3.16419 0
M  V30 14332 H 1315.99 0.754679 3.90372 0
M  V30 14333 N 1316.99 -1.36373 0.789944 0
M  V30 14334 C 1317.94 -2.31928 0.17666 0
M  V30 14335 C 1318.93 -1.55831 -0.664316 0
M  V30 14336 O 1320.14 -1.71089 -0.559341 0
M  V30 14337 H 1316.51 -0.751021 0.038353 0
M  V30 14338 H 1318.48 -2.81216 0.998004 0
M  V30 14339 C 1317.23 -3.41112 -0.673646 0
M  V30 14340 H 1316.55 -3.99784 -0.0358875 0
M  V30 14341 H 1317.99 -4.10292 -1.06942 0
M  V30 14342 C 1316.45 -2.82728 -1.83211 0
M  V30 14343 O 1316.98 -2.74935 -2.92871 0
M  V30 14344 N 1315.19 -2.4001 -1.6384 0
M  V30 14345 H 1314.74 -2.46549 -0.746423 0
M  V30 14346 H 1314.69 -2.01294 -2.41512 0
M  V30 14347 N 1318.47 -0.542005 -1.47987 0
M  V30 14348 C 1319.41 0.214151 -2.29804 0
M  V30 14349 C 1320.38 0.922625 -1.38119 0
M  V30 14350 O 1321.57 0.921301 -1.67083 0
M  V30 14351 C 1318.71 1.24768 -3.21756 0
M  V30 14352 C 1317.82 0.546824 -4.28525 0
M  V30 14353 C 1316.96 1.56432 -5.07644 0
M  V30 14354 C 1315.99 0.847598 -6.06203 0
M  V30 14355 N 1315.13 1.81121 -6.78336 0
M  V30 14356 H 1319.97 -0.489707 -2.93949 0
M  V30 14357 H 1317.51 -0.253331 -1.44902 0
M  V30 14358 H 1319.47 1.85933 -3.73477 0
M  V30 14359 H 1318.1 1.91976 -2.59509 0
M  V30 14360 H 1317.15 -0.179026 -3.79978 0
M  V30 14361 H 1318.46 -0.0153623 -4.98798 0
M  V30 14362 H 1317.61 2.24992 -5.63439 0
M  V30 14363 H 1316.35 2.16041 -4.37238 0
M  V30 14364 H 1315.36 0.147989 -5.49601 0
M  V30 14365 H 1316.58 0.257454 -6.78612 0
M  V30 14366 H 1314.53 2.39615 -6.10672 0
M  V30 14367 H 1314.45 1.30077 -7.44725 0
M  V30 14368 H 1315.71 2.48842 -7.38714 0
M  V30 14369 N 1319.94 1.55134 -0.277709 0
M  V30 14370 C 1320.89 2.24057 0.624594 0
M  V30 14371 C 1321.89 1.23848 1.15577 0
M  V30 14372 O 1323.09 1.41771 1.1091 0
M  V30 14373 H 1319.47 0.719106 0.219977 0
M  V30 14374 H 1321.44 2.98393 0.0204815 0
M  V30 14375 C 1320.19 2.97712 1.79618 0
M  V30 14376 H 1319.51 3.74611 1.39665 0
M  V30 14377 H 1320.95 3.49255 2.4041 0
M  V30 14378 C 1319.41 2.03332 2.68622 0
M  V30 14379 O 1319.94 1.58622 3.69056 0
M  V30 14380 N 1318.14 1.69778 2.35847 0
M  V30 14381 H 1317.69 2.06333 1.54222 0
M  V30 14382 H 1317.65 1.06901 2.95668 0
M  V30 14383 N 1321.42 0.00503138 1.57599 0
M  V30 14384 C 1322.37 -1.00294 2.09866 0
M  V30 14385 C 1323.36 -1.35267 1.01977 0
M  V30 14386 O 1324.57 -1.33772 1.20437 0
M  V30 14387 H 1320.94 -0.341112 0.670184 0
M  V30 14388 H 1322.92 -0.536595 2.93536 0
M  V30 14389 C 1321.66 -2.28432 2.62133 0
M  V30 14390 H 1320.99 -2.02391 3.44787 0
M  V30 14391 H 1322.43 -2.97227 3.02378 0
M  V30 14392 C 1320.89 -2.99758 1.53774 0
M  V30 14393 O 1321.42 -3.90939 0.923563 0
M  V30 14394 N 1319.62 -2.61671 1.26398 0
M  V30 14395 H 1319.17 -1.87605 1.76528 0
M  V30 14396 H 1319.13 -3.09707 0.541168 0
M  V30 14397 N 1322.9 -1.55308 -0.267798 0
M  V30 14398 C 1324.14 -1.77913 -1.0063 0
M  V30 14399 C 1324.5 -0.571149 -1.83308 0
M  V30 14400 O 1325.7 -0.675552 -2.60173 0
M  V30 14401 C 1323.98 -3.05112 -1.86123 0
M  V30 14402 S 1325.53 -3.48856 -2.66167 0
M  V30 14403 H 1322.35 -0.625065 -0.338843 0
M  V30 14404 H 1324.95 -1.93539 -0.276196 0
M  V30 14405 H 1323.66 -3.91118 -1.24317 0
M  V30 14406 H 1323.19 -2.92165 -2.63444 0
M  V30 14407 H 1325.2 -3.0854 -3.8861 0
M  V30 14408 N 1324.38 0.532545 -1.4833 0
M  V30 14409 C 1325.63 1.28498 -1.55471 0
M  V30 14410 C 1325.94 1.94214 -0.232412 0
M  V30 14411 O 1327.15 2.70889 -0.182044 0
M  V30 14412 C 1325.6 2.33144 -2.74175 0
M  V30 14413 C 1325.21 1.73508 -4.13036 0
M  V30 14414 C 1326.95 3.09413 -2.90627 0
M  V30 14415 C 1324.86 2.76079 -5.23005 0
M  V30 14416 H 1323.79 0.483253 -0.578777 0
M  V30 14417 H 1326.44 0.562744 -1.74658 0
M  V30 14418 H 1324.82 3.08391 -2.48417 0
M  V30 14419 H 1326 1.04466 -4.48802 0
M  V30 14420 H 1324.31 1.0974 -4.01679 0
M  V30 14421 H 1326.91 3.86056 -3.69953 0
M  V30 14422 H 1327.25 3.65118 -1.99987 0
M  V30 14423 H 1327.79 2.4128 -3.16274 0
M  V30 14424 H 1324.52 2.25197 -6.15602 0
M  V30 14425 H 1324.04 3.43456 -4.9173 0
M  V30 14426 H 1325.72 3.39113 -5.51009 0
M  V30 14427 N 1325.86 1.36875 0.78122 0
M  V30 14428 C 1326.82 1.31706 1.8758 0
M  V30 14429 C 1327.82 0.223044 1.59246 0
M  V30 14430 O 1329.01 0.478327 1.67504 0
M  V30 14431 C 1326.14 1.0437 3.2453 0
M  V30 14432 H 1327.33 2.29059 1.93576 0
M  V30 14433 H 1324.89 1.21766 0.979931 0
M  V30 14434 H 1325.62 0.0750941 3.24213 0
M  V30 14435 H 1325.41 1.83548 3.46486 0
M  V30 14436 H 1326.9 1.0338 4.04602 0
M  V30 14437 N 1327.33 -1.00632 1.21289 0
M  V30 14438 C 1328.58 -1.73802 1.02351 0
M  V30 14439 C 1328.9 -1.90503 -0.443611 0
M  V30 14440 O 1330.1 -2.60868 -0.752356 0
M  V30 14441 C 1328.56 -3.12647 1.78269 0
M  V30 14442 C 1328.17 -3.03923 3.29142 0
M  V30 14443 C 1329.91 -3.89956 1.67735 0
M  V30 14444 C 1327.82 -4.3784 3.97556 0
M  V30 14445 H 1326.75 -0.651616 0.379358 0
M  V30 14446 H 1329.4 -1.12446 1.45011 0
M  V30 14447 H 1327.78 -3.74605 1.28401 0
M  V30 14448 H 1328.95 -2.51211 3.86303 0
M  V30 14449 H 1327.27 -2.40103 3.40205 0
M  V30 14450 H 1329.87 -4.89051 2.1618 0
M  V30 14451 H 1330.21 -4.11423 0.635338 0
M  V30 14452 H 1330.74 -3.34647 2.15072 0
M  V30 14453 H 1327.48 -4.21573 5.01952 0
M  V30 14454 H 1327 -4.90518 3.45184 0
M  V30 14455 H 1328.68 -5.06644 4.02393 0
M  V30 14456 N 1328.81 -1.02043 -1.20104 0
M  V30 14457 C 1330.05 -0.720566 -1.91278 0
M  V30 14458 C 1330.42 0.73658 -1.77309 0
M  V30 14459 O 1331.62 1.14913 -2.42999 0
M  V30 14460 C 1329.89 -1.1489 -3.3843 0
M  V30 14461 S 1331.45 -0.971591 -4.27908 0
M  V30 14462 H 1328.26 -0.262582 -0.660736 0
M  V30 14463 H 1330.87 -1.30849 -1.45254 0
M  V30 14464 H 1329.57 -2.20521 -3.46119 0
M  V30 14465 H 1329.1 -0.553911 -3.89481 0
M  V30 14466 H 1331.12 0.122695 -4.96048 0
M  V30 14467 N 1330.29 1.35952 -0.797165 0
M  V30 14468 C 1331.24 2.31831 -0.188958 0
M  V30 14469 C 1332.23 1.56181 0.656042 0
M  V30 14470 O 1333.44 1.71383 0.550259 0
M  V30 14471 H 1329.81 0.750807 -0.0423354 0
M  V30 14472 H 1331.78 2.80683 -1.0129 0
M  V30 14473 C 1330.53 3.41464 0.655547 0
M  V30 14474 H 1329.86 3.99797 0.0146854 0
M  V30 14475 H 1331.3 4.10853 1.04765 0
M  V30 14476 C 1329.76 2.83696 1.81709 0
M  V30 14477 O 1330.29 2.76484 2.91409 0
M  V30 14478 N 1328.49 2.40876 1.62564 0
M  V30 14479 H 1328.04 2.46941 0.733337 0
M  V30 14480 H 1328 2.02572 2.40441 0
M  V30 14481 N 1331.77 0.549846 1.47697 0
M  V30 14482 C 1332.7 -0.249645 2.2683 0
M  V30 14483 C 1333.68 -0.926968 1.33589 0
M  V30 14484 O 1334.86 -0.947423 1.62961 0
M  V30 14485 C 1331.99 -1.35511 3.1041 0
M  V30 14486 C 1331.04 -0.787118 4.19174 0
M  V30 14487 S 1331.87 0.360564 5.34285 0
M  V30 14488 C 1333.03 -0.746898 6.21428 0
M  V30 14489 H 1333.26 0.421876 2.94292 0
M  V30 14490 H 1330.79 0.336017 1.50699 0
M  V30 14491 H 1332.75 -1.98825 3.59137 0
M  V30 14492 H 1331.41 -1.99844 2.42325 0
M  V30 14493 H 1330.6 -1.61704 4.77355 0
M  V30 14494 H 1330.21 -0.230301 3.7329 0
M  V30 14495 H 1332.5 -1.6408 6.57331 0
M  V30 14496 H 1333.44 -0.202608 7.0781 0
M  V30 14497 H 1333.85 -1.03625 5.54907 0
M  V30 14498 N 1333.25 -1.54984 0.285932 0
M  V30 14499 C 1334.16 -2.26621 -0.606648 0
M  V30 14500 C 1335.17 -1.29595 -1.16108 0
M  V30 14501 O 1336.35 -1.62551 -1.18908 0
M  V30 14502 C 1333.41 -2.98156 -1.76929 0
M  V30 14503 C 1332.47 -4.10685 -1.25045 0
M  V30 14504 C 1331.71 -4.788 -2.35768 0
M  V30 14505 O 1331.93 -4.46183 -3.55354 0
M  V30 14506 O 1330.86 -5.66523 -2.03312 0
M  V30 14507 H 1334.69 -3.03689 -0.0259981 0
M  V30 14508 H 1332.28 -1.49306 0.0529355 0
M  V30 14509 H 1334.16 -3.43076 -2.44697 0
M  V30 14510 H 1332.83 -2.23996 -2.33683 0
M  V30 14511 H 1331.74 -3.70198 -0.538919 0
M  V30 14512 H 1333.07 -4.86778 -0.728528 0
M  V30 14513 N 1334.72 -0.0133892 -1.57594 0
M  V30 14514 C 1335.67 0.991796 -2.10395 0
M  V30 14515 C 1336.67 1.34724 -1.02693 0
M  V30 14516 O 1337.87 1.33131 -1.21145 0
M  V30 14517 H 1334.25 0.337553 -0.671984 0
M  V30 14518 H 1336.22 0.52102 -2.93816 0
M  V30 14519 C 1334.97 2.27039 -2.63341 0
M  V30 14520 H 1334.29 2.00559 -3.45855 0
M  V30 14521 H 1335.73 2.95619 -3.0395 0
M  V30 14522 C 1334.19 2.98939 -1.55362 0
M  V30 14523 O 1334.72 3.90444 -0.944282 0
M  V30 14524 N 1332.93 2.60997 -1.27784 0
M  V30 14525 H 1332.47 1.86666 -1.77521 0
M  V30 14526 H 1332.43 3.09416 -0.557585 0
M  V30 14527 N 1336.2 1.55448 0.259558 0
M  V30 14528 C 1337.45 1.7589 0.987201 0
M  V30 14529 C 1337.76 0.574951 1.86959 0
M  V30 14530 O 1338.97 0.662091 2.63303 0
M  V30 14531 C 1337.43 3.11349 1.80526 0
M  V30 14532 C 1337.03 4.37353 0.970882 0
M  V30 14533 C 1338.78 3.41136 2.5264 0
M  V30 14534 C 1336.69 5.63847 1.7841 0
M  V30 14535 H 1335.62 0.655662 0.372321 0
M  V30 14536 H 1338.27 1.81893 0.242332 0
M  V30 14537 H 1336.65 2.9942 2.5916 0
M  V30 14538 H 1337.82 4.60237 0.227763 0
M  V30 14539 H 1336.14 4.14809 0.363669 0
M  V30 14540 H 1338.73 4.32855 3.13912 0
M  V30 14541 H 1339.08 2.61879 3.23612 0
M  V30 14542 H 1339.61 3.54224 1.81026 0
M  V30 14543 H 1336.35 6.4589 1.11834 0
M  V30 14544 H 1335.87 5.45086 2.50283 0
M  V30 14545 H 1337.55 6.02641 2.35441 0
M  V30 14546 N 1337.68 -0.524672 1.4861 0
M  V30 14547 C 1338.96 -1.28592 1.47389 0
M  V30 14548 C 1339.34 -2.10257 0.188482 0
M  V30 14549 O 1338.69 -2.12905 -0.829689 0
M  V30 14550 C 1338.9 -2.16284 2.73902 0
M  V30 14551 C 1340.24 -2.7625 3.22445 0
M  V30 14552 O 1341.27 -2.26567 2.74856 0
M  V30 14553 O 1340.13 -3.66635 4.05267 0
M  V30 14554 H 1337.22 -0.580666 0.58886 0
M  V30 14555 H 1339.77 -0.540888 1.60849 0
M  V30 14556 H 1338.54 -1.55757 3.58964 0
M  V30 14557 H 1338.16 -2.98024 2.63188 0
M  V30 14558 N 1339.16 -1.37287 -0.77395 0
M  V30 14559 C 1340.57 -1.28954 -1.3501 0
M  V30 14560 C 1340.92 0.0638301 -1.96096 0
M  V30 14561 O 1340.05 0.965624 -1.93661 0
M  V30 14562 C 1340.64 -2.3352 -2.45467 0
M  V30 14563 C 1339.2 -2.28828 -2.98856 0
M  V30 14564 C 1338.35 -2.17468 -1.72055 0
M  V30 14565 H 1341.3 -1.47941 -0.57438 0
M  V30 14566 H 1341.32 -1.98058 -3.24889 0
M  V30 14567 H 1340.83 -3.32009 -2.00977 0
M  V30 14568 H 1338.93 -1.33855 -3.47726 0
M  V30 14569 H 1339.04 -3.22152 -3.54619 0
M  V30 14570 H 1337.41 -1.63977 -1.94894 0
M  V30 14571 H 1338.19 -3.17868 -1.29672 0
M  V30 14572 N 1340.64 0.999871 -1.21821 0
M  V30 14573 C 1341.57 2.10708 -1.00621 0
M  V30 14574 C 1342.55 1.69954 0.0705417 0
M  V30 14575 O 1343.73 1.9399 -0.0903042 0
M  V30 14576 C 1340.86 3.42496 -0.575646 0
M  V30 14577 C 1339.82 3.97068 -1.59754 0
M  V30 14578 C 1339.14 5.24822 -1.02304 0
M  V30 14579 C 1340.44 4.28545 -2.98574 0
M  V30 14580 H 1342.14 2.28701 -1.93226 0
M  V30 14581 H 1339.68 1.09903 -0.930443 0
M  V30 14582 H 1341.64 4.19357 -0.414481 0
M  V30 14583 H 1340.36 3.2431 0.386059 0
M  V30 14584 H 1339.02 3.22332 -1.74636 0
M  V30 14585 H 1338.67 5.02972 -0.0529016 0
M  V30 14586 H 1338.37 5.62299 -1.70567 0
M  V30 14587 H 1339.89 6.04322 -0.873312 0
M  V30 14588 H 1341.3 4.96229 -2.87106 0
M  V30 14589 H 1339.7 4.77178 -3.63897 0
M  V30 14590 H 1340.77 3.36607 -3.49032 0
M  V30 14591 N 1342.11 1.02678 1.19562 0
M  V30 14592 C 1343.36 0.72059 1.88817 0
M  V30 14593 C 1343.68 -0.752942 1.79877 0
M  V30 14594 O 1342.95 -1.54233 1.20785 0
M  V30 14595 H 1341.53 0.26355 0.698964 0
M  V30 14596 H 1344.2 1.30056 1.4516 0
M  V30 14597 H 1343.29 1.01303 2.95202 0
M  V30 14598 N 1343.59 -1.35528 0.804364 0
M  V30 14599 C 1344.84 -1.98084 0.380196 0
M  V30 14600 C 1345.15 -1.64531 -1.05778 0
M  V30 14601 O 1346.36 -2.20435 -1.58495 0
M  V30 14602 C 1344.82 -3.54364 0.628848 0
M  V30 14603 C 1344.42 -3.96828 2.07921 0
M  V30 14604 C 1346.17 -4.23641 0.269927 0
M  V30 14605 C 1344.08 -5.45944 2.27374 0
M  V30 14606 H 1343.01 -0.741185 0.138422 0
M  V30 14607 H 1345.66 -1.54624 0.988107 0
M  V30 14608 H 1344.04 -3.9597 -0.0489837 0
M  V30 14609 H 1345.21 -3.6638 2.79467 0
M  V30 14610 H 1343.53 -3.40433 2.39779 0
M  V30 14611 H 1346.12 -5.33251 0.393344 0
M  V30 14612 H 1346.47 -4.08858 -0.783644 0
M  V30 14613 H 1347 -3.87448 0.901588 0
M  V30 14614 H 1343.74 -5.65693 3.31168 0
M  V30 14615 H 1343.26 -5.77969 1.6035 0
M  V30 14616 H 1344.94 -6.12376 2.08817 0
M  V30 14617 N 1345.07 -0.557671 -1.47404 0
M  V30 14618 C 1346.02 0.210176 -2.27029 0
M  V30 14619 C 1347.01 0.884882 -1.34382 0
M  V30 14620 O 1348.2 0.783112 -1.58734 0
M  V30 14621 C 1345.33 1.23923 -3.20153 0
M  V30 14622 C 1344.41 0.567913 -4.2028 0
M  V30 14623 N 1344.8 -0.362279 -5.04501 0
M  V30 14624 C 1343.1 0.821776 -4.38364 0
M  V30 14625 C 1343.8 -0.752273 -5.76815 0
M  V30 14626 N 1342.78 -0.107008 -5.43495 0
M  V30 14627 H 1346.58 -0.505007 -2.89529 0
M  V30 14628 H 1344.09 -0.377642 -1.57948 0
M  V30 14629 H 1346.09 1.80328 -3.75882 0
M  V30 14630 H 1344.75 1.9555 -2.59211 0
M  V30 14631 H 1345.76 -0.736468 -5.12637 0
M  V30 14632 H 1342.44 1.52652 -3.88592 0
M  V30 14633 H 1343.83 -1.51664 -6.54559 0
M  V30 14634 N 1346.55 1.54831 -0.294147 0
M  V30 14635 C 1347.78 2.04411 0.319938 0
M  V30 14636 C 1348.19 1.17174 1.4804 0
M  V30 14637 O 1347.55 0.195881 1.81446 0
M  V30 14638 C 1347.6 3.52924 0.782751 0
M  V30 14639 O 1347.32 4.36844 -0.331512 0
M  V30 14640 C 1348.82 4.18474 1.4627 0
M  V30 14641 H 1346.04 0.667286 0.0704973 0
M  V30 14642 H 1348.59 1.9989 -0.431785 0
M  V30 14643 H 1346.74 3.57828 1.48451 0
M  V30 14644 H 1347.16 5.24493 0.0275743 0
M  V30 14645 H 1348.63 5.23933 1.73776 0
M  V30 14646 H 1349.11 3.67793 2.40052 0
M  V30 14647 H 1349.71 4.17626 0.804291 0
M  V30 14648 N 1348.03 0.0217466 1.57585 0
M  V30 14649 C 1349.28 -0.657187 1.91116 0
M  V30 14650 C 1349.6 -1.7309 0.898039 0
M  V30 14651 O 1348.87 -1.95803 -0.0615116 0
M  V30 14652 H 1347.45 -0.245732 0.705425 0
M  V30 14653 H 1350.11 0.0678096 1.94782 0
M  V30 14654 H 1349.2 -1.11462 2.91518 0
M  V30 14655 N 1349.51 -1.55583 -0.251311 0
M  V30 14656 C 1350.78 -1.67954 -1.00254 0
M  V30 14657 C 1351.16 -0.560326 -2.03528 0
M  V30 14658 O 1350.51 0.436811 -2.24286 0
M  V30 14659 C 1350.72 -3.08075 -1.63985 0
M  V30 14660 C 1352.07 -3.66531 -2.14336 0
M  V30 14661 O 1353.09 -3.10846 -1.73934 0
M  V30 14662 O 1351.95 -4.64141 -2.88506 0
M  V30 14663 H 1349.05 -0.682952 -0.466375 0
M  V30 14664 H 1351.59 -1.67916 -0.245447 0
M  V30 14665 H 1350.36 -3.80983 -0.892627 0
M  V30 14666 H 1349.99 -3.12105 -2.46325 0
M  V30 14667 N 1350.98 0.516783 -1.48886 0
M  V30 14668 C 1352.21 1.30103 -1.61518 0
M  V30 14669 C 1352.63 1.85996 -0.28055 0
M  V30 14670 O 1351.99 1.65075 0.749671 0
M  V30 14671 C 1352.04 2.41837 -2.67483 0
M  V30 14672 O 1351.14 3.45249 -2.25559 0
M  V30 14673 H 1350.48 0.384774 -0.541152 0
M  V30 14674 H 1353.01 0.620424 -1.94966 0
M  V30 14675 H 1353.02 2.87832 -2.89165 0
M  V30 14676 H 1351.7 2.00519 -3.64369 0
M  V30 14677 H 1350.28 3.05281 -2.14144 0
M  V30 14678 N 1352.46 1.37696 0.766659 0
M  V30 14679 C 1353.71 1.32507 1.52069 0
M  V30 14680 C 1354.02 -0.0864967 1.95409 0
M  V30 14681 O 1355.23 -0.260877 2.70244 0
M  V30 14682 C 1353.69 2.32614 2.74625 0
M  V30 14683 C 1353.29 3.79325 2.38363 0
M  V30 14684 C 1355.04 2.36445 3.52554 0
M  V30 14685 C 1352.94 4.7115 3.57451 0
M  V30 14686 H 1351.87 0.492491 0.570937 0
M  V30 14687 H 1354.53 1.63183 0.839268 0
M  V30 14688 H 1352.91 1.94963 3.44682 0
M  V30 14689 H 1354.08 4.25841 1.76056 0
M  V30 14690 H 1352.4 3.78488 1.73597 0
M  V30 14691 H 1354.99 3.02252 4.41076 0
M  V30 14692 H 1355.34 1.37953 3.92778 0
M  V30 14693 H 1355.87 2.72829 2.89498 0
M  V30 14694 H 1352.61 5.70789 3.22304 0
M  V30 14695 H 1352.13 4.29335 4.18846 0
M  V30 14696 H 1353.81 4.88532 4.242 0
M  V30 14697 N 1353.94 -0.993397 1.22349 0
M  V30 14698 C 1355.19 -1.73544 1.04931 0
M  V30 14699 C 1355.52 -1.89721 -0.414661 0
M  V30 14700 O 1354.79 -1.44001 -1.30743 0
M  V30 14701 C 1355.08 -3.14131 1.7605 0
M  V30 14702 C 1354.93 -3.05604 3.30039 0
M  V30 14703 C 1356.25 -4.13294 1.51249 0
M  V30 14704 H 1353.37 -0.629915 0.382591 0
M  V30 14705 H 1356.01 -1.15737 1.50682 0
M  V30 14706 H 1354.16 -3.63483 1.37157 0
M  V30 14707 H 1355.83 -2.63876 3.78374 0
M  V30 14708 H 1354.07 -2.42421 3.59742 0
M  V30 14709 H 1354.75 -4.05086 3.74979 0
M  V30 14710 H 1357.22 -3.72696 1.85033 0
M  V30 14711 H 1356.1 -5.09781 2.03507 0
M  V30 14712 H 1356.36 -4.39855 0.444973 0
M  V30 14713 N 1355.42 -1.03311 -1.19015 0
M  V30 14714 C 1356.66 -0.733124 -1.89085 0
M  V30 14715 C 1357 0.73675 -1.79682 0
M  V30 14716 O 1356.27 1.53692 -1.19201 0
M  V30 14717 C 1356.55 -1.19028 -3.39859 0
M  V30 14718 C 1356.41 -2.72169 -3.58112 0
M  V30 14719 C 1357.73 -0.774383 -4.33234 0
M  V30 14720 H 1354.85 -0.2678 -0.686624 0
M  V30 14721 H 1357.49 -1.28378 -1.40068 0
M  V30 14722 H 1355.64 -0.721799 -3.81736 0
M  V30 14723 H 1357.31 -3.26996 -3.25379 0
M  V30 14724 H 1355.55 -3.12358 -3.01023 0
M  V30 14725 H 1356.22 -2.99213 -4.6387 0
M  V30 14726 H 1358.7 -1.17739 -3.99095 0
M  V30 14727 H 1357.58 -1.12209 -5.37308 0
M  V30 14728 H 1357.84 0.322989 -4.40919 0
M  V30 14729 N 1356.9 1.35099 -0.81154 0
M  V30 14730 C 1357.86 2.28033 -0.230947 0
M  V30 14731 C 1358.86 1.49798 0.584575 0
M  V30 14732 O 1360.05 1.6949 0.402336 0
M  V30 14733 C 1357.18 3.341 0.677486 0
M  V30 14734 H 1358.37 2.80893 -1.05067 0
M  V30 14735 H 1355.93 1.45038 -0.582554 0
M  V30 14736 H 1356.66 2.86435 1.5207 0
M  V30 14737 H 1356.45 3.91986 0.0943563 0
M  V30 14738 H 1357.94 4.0345 1.07787 0
M  V30 14739 N 1358.37 0.56548 1.47106 0
M  V30 14740 C 1359.78 0.134289 1.86216 0
M  V30 14741 C 1360.14 -1.29815 1.47114 0
M  V30 14742 O 1359.26 -1.97787 0.878017 0
M  V30 14743 C 1359.86 0.236931 3.37971 0
M  V30 14744 C 1358.41 -0.139275 3.76142 0
M  V30 14745 C 1357.56 0.580743 2.71151 0
M  V30 14746 H 1360.51 0.774723 1.38505 0
M  V30 14747 H 1360.53 -0.542301 3.76616 0
M  V30 14748 H 1360.05 1.27958 3.66399 0
M  V30 14749 H 1358.15 -1.18272 3.53331 0
M  V30 14750 H 1358.26 0.225045 4.78571 0
M  V30 14751 H 1356.62 0.0228963 2.5469 0
M  V30 14752 H 1357.41 1.62471 3.0242 0
M  V30 14753 N 1359.85 -1.54672 0.302354 0
M  V30 14754 C 1361.08 -2.05041 -0.311891 0
M  V30 14755 C 1361.5 -1.17814 -1.46634 0
M  V30 14756 O 1360.86 -0.182517 -1.80379 0
M  V30 14757 C 1360.91 -3.52831 -0.744489 0
M  V30 14758 O 1360.01 -3.68621 -1.84913 0
M  V30 14759 H 1359.35 -0.661255 -0.0603102 0
M  V30 14760 H 1361.88 -1.99711 0.444593 0
M  V30 14761 H 1361.89 -3.94708 -1.03293 0
M  V30 14762 H 1360.57 -4.1578 0.0999976 0
M  V30 14763 H 1359.15 -3.38649 -1.56113 0
M  V30 14764 N 1361.33 -0.0301034 -1.57571 0
M  V30 14765 C 1362.26 0.980187 -2.07183 0
M  V30 14766 C 1363.28 1.2882 -0.995449 0
M  V30 14767 O 1364.46 1.25268 -1.27162 0
M  V30 14768 C 1361.56 2.30734 -2.48224 0
M  V30 14769 C 1360.74 2.18434 -3.78953 0
M  V30 14770 C 1359.8 3.34092 -4.06533 0
M  V30 14771 O 1358.82 3.10934 -4.76769 0
M  V30 14772 N 1360.02 4.57914 -3.56784 0
M  V30 14773 H 1362.79 0.556877 -2.94481 0
M  V30 14774 H 1360.35 0.156632 -1.61141 0
M  V30 14775 H 1362.34 3.06936 -2.63766 0
M  V30 14776 H 1360.91 2.64703 -1.66287 0
M  V30 14777 H 1360.13 1.26953 -3.73198 0
M  V30 14778 H 1361.42 2.07421 -4.64601 0
M  V30 14779 H 1360.82 4.79623 -2.99964 0
M  V30 14780 H 1359.38 5.31281 -3.77603 0
M  V30 14781 N 1362.81 1.55714 0.243056 0
M  V30 14782 C 1364.04 1.81786 0.98801 0
M  V30 14783 C 1364.45 0.606352 1.78798 0
M  V30 14784 O 1363.81 -0.425018 1.77482 0
M  V30 14785 C 1363.86 3.06121 1.92281 0
M  V30 14786 O 1363.58 4.22595 1.15521 0
M  V30 14787 C 1365.08 3.45021 2.78344 0
M  V30 14788 H 1362.3 0.604829 0.290557 0
M  V30 14789 H 1364.85 2.02779 0.26478 0
M  V30 14790 H 1363 2.87167 2.60027 0
M  V30 14791 H 1363.41 4.93088 1.78786 0
M  V30 14792 H 1364.89 4.35112 3.39678 0
M  V30 14793 H 1365.37 2.65782 3.49652 0
M  V30 14794 H 1365.97 3.66339 2.16045 0
M  V30 14795 N 1364.29 -0.50888 1.49158 0
M  V30 14796 C 1365.22 -1.62008 1.68154 0
M  V30 14797 C 1366.2 -1.61624 0.53025 0
M  V30 14798 O 1367.38 -1.78489 0.765205 0
M  V30 14799 C 1364.51 -3.00525 1.74075 0
M  V30 14800 C 1363.47 -3.15773 2.88915 0
M  V30 14801 C 1362.79 -4.55562 2.79942 0
M  V30 14802 C 1364.09 -2.96542 4.29953 0
M  V30 14803 H 1365.79 -1.46365 2.61185 0
M  V30 14804 H 1363.33 -0.702705 1.2569 0
M  V30 14805 H 1365.29 -3.78154 1.8595 0
M  V30 14806 H 1364.01 -3.17238 0.776373 0
M  V30 14807 H 1362.67 -2.40567 2.76628 0
M  V30 14808 H 1362.32 -4.6914 1.81429 0
M  V30 14809 H 1362.02 -4.66706 3.57015 0
M  V30 14810 H 1363.54 -5.35262 2.93814 0
M  V30 14811 H 1364.95 -3.63947 4.42963 0
M  V30 14812 H 1363.35 -3.19164 5.08187 0
M  V30 14813 H 1364.42 -1.92745 4.44946 0
M  V30 14814 N 1365.76 -1.381 -0.759346 0
M  V30 14815 C 1366.99 -1.37389 -1.55367 0
M  V30 14816 C 1367.41 0.0356097 -1.88066 0
M  V30 14817 O 1366.77 1.0161 -1.5015 0
M  V30 14818 C 1366.82 -2.23098 -2.83302 0
M  V30 14819 O 1365.92 -1.64412 -3.7821 0
M  V30 14820 H 1365.27 -0.468894 -0.470143 0
M  V30 14821 H 1367.8 -1.81787 -0.938858 0
M  V30 14822 H 1367.81 -2.36753 -3.32283 0
M  V30 14823 H 1366.48 -3.25544 -2.58831 0
M  V30 14824 H 1365.06 -1.59867 -3.36893 0
M  V30 14825 N 1367.24 0.986894 -1.22875 0
M  V30 14826 C 1368.19 2.09935 -1.00151 0
M  V30 14827 C 1369.18 1.69303 0.0573751 0
M  V30 14828 O 1370.39 1.79746 -0.0955781 0
M  V30 14829 H 1366.77 0.686605 -0.306721 0
M  V30 14830 H 1368.74 2.26271 -1.94535 0
M  V30 14831 C 1367.49 3.42442 -0.602374 0
M  V30 14832 H 1366.81 3.74154 -1.40886 0
M  V30 14833 H 1368.25 4.21242 -0.482836 0
M  V30 14834 C 1366.71 3.29785 0.688707 0
M  V30 14835 O 1367.24 3.6208 1.73957 0
M  V30 14836 N 1365.44 2.82956 0.662152 0
M  V30 14837 H 1364.99 2.56873 -0.193337 0
M  V30 14838 H 1364.95 2.74869 1.52625 0
M  V30 14839 N 1368.72 1.0394 1.18466 0
M  V30 14840 C 1369.95 0.760909 1.92077 0
M  V30 14841 C 1370.36 -0.685622 1.7634 0
M  V30 14842 O 1369.7 -1.47894 1.08963 0
M  V30 14843 C 1369.76 1.04583 3.43952 0
M  V30 14844 C 1369.43 2.48602 3.83466 0
M  V30 14845 C 1370.42 3.46775 3.87354 0
M  V30 14846 C 1368.11 2.8328 4.14798 0
M  V30 14847 C 1370.1 4.77678 4.22022 0
M  V30 14848 C 1367.79 4.1439 4.49138 0
M  V30 14849 C 1368.79 5.11399 4.52725 0
M  V30 14850 O 1368.48 6.40159 4.86264 0
M  V30 14851 H 1368.21 0.276991 0.616646 0
M  V30 14852 H 1370.76 1.3898 1.5124 0
M  V30 14853 H 1368.99 0.359807 3.85022 0
M  V30 14854 H 1370.68 0.755336 3.9881 0
M  V30 14855 H 1371.45 3.21323 3.63286 0
M  V30 14856 H 1367.33 2.08444 4.11184 0
M  V30 14857 H 1370.87 5.53393 4.24737 0
M  V30 14858 H 1366.77 4.39611 4.72666 0
M  V30 14859 H 1367.54 6.4479 5.04171 0
M  V30 14860 N 1370.2 -1.34667 0.818693 0
M  V30 14861 C 1371.11 -2.33375 0.239429 0
M  V30 14862 C 1372.12 -1.62428 -0.623957 0
M  V30 14863 O 1373.3 -1.94223 -0.532854 0
M  V30 14864 C 1370.37 -3.41598 -0.59258 0
M  V30 14865 C 1369.43 -4.28301 0.292712 0
M  V30 14866 C 1368.66 -5.31356 -0.499682 0
M  V30 14867 O 1368.88 -5.43426 -1.73334 0
M  V30 14868 O 1367.82 -6.01789 0.115778 0
M  V30 14869 H 1371.64 -2.84738 1.05631 0
M  V30 14870 H 1369.23 -1.37651 0.58074 0
M  V30 14871 H 1371.11 -4.07692 -1.06607 0
M  V30 14872 H 1369.78 -2.92486 -1.38685 0
M  V30 14873 H 1368.69 -3.65145 0.81361 0
M  V30 14874 H 1370.02 -4.80843 1.05123 0
M  V30 14875 N 1371.68 -0.573274 -1.46804 0
M  V30 14876 C 1372.91 -0.0605105 -2.06511 0
M  V30 14877 C 1373.31 1.24572 -1.42403 0
M  V30 14878 O 1372.66 1.76182 -0.520168 0
M  V30 14879 C 1372.72 0.189394 -3.59001 0
M  V30 14880 C 1372.38 -1.02981 -4.45246 0
M  V30 14881 C 1373.38 -1.93948 -4.82369 0
M  V30 14882 C 1371.07 -1.249 -4.86524 0
M  V30 14883 C 1373.06 -3.0519 -5.59587 0
M  V30 14884 C 1370.75 -2.36449 -5.63503 0
M  V30 14885 C 1371.74 -3.26424 -5.99947 0
M  V30 14886 O 1371.43 -4.36037 -6.75372 0
M  V30 14887 H 1371.16 -0.0501758 -0.674135 0
M  V30 14888 H 1373.72 -0.790951 -1.8956 0
M  V30 14889 H 1371.95 0.974337 -3.74224 0
M  V30 14890 H 1373.64 0.649506 -4.0067 0
M  V30 14891 H 1374.4 -1.78226 -4.51066 0
M  V30 14892 H 1370.28 -0.55779 -4.57613 0
M  V30 14893 H 1373.83 -3.75444 -5.87952 0
M  V30 14894 H 1369.72 -2.52138 -5.94219 0
M  V30 14895 H 1370.49 -4.34285 -6.93786 0
M  V30 14896 N 1373.15 1.5451 -0.310553 0
M  V30 14897 C 1374.38 2.04442 0.297807 0
M  V30 14898 C 1374.79 1.18695 1.47337 0
M  V30 14899 O 1374.14 0.207405 1.82525 0
M  V30 14900 C 1374.2 3.50306 0.807851 0
M  V30 14901 C 1373.86 4.5635 -0.24369 0
M  V30 14902 C 1374.86 5.08656 -1.07539 0
M  V30 14903 C 1372.54 5.00798 -0.388138 0
M  V30 14904 C 1374.54 6.03961 -2.03738 0
M  V30 14905 C 1372.22 5.95921 -1.35357 0
M  V30 14906 C 1373.22 6.47387 -2.17667 0
M  V30 14907 O 1372.91 7.40644 -3.12571 0
M  V30 14908 H 1372.64 0.672646 0.0672525 0
M  V30 14909 H 1375.2 2.00389 -0.450948 0
M  V30 14910 H 1373.43 3.51714 1.6073 0
M  V30 14911 H 1375.12 3.83383 1.33314 0
M  V30 14912 H 1375.88 4.75105 -0.97471 0
M  V30 14913 H 1371.76 4.60361 0.242608 0
M  V30 14914 H 1375.3 6.44057 -2.68023 0
M  V30 14915 H 1371.2 6.2889 -1.45493 0
M  V30 14916 H 1371.97 7.58477 -3.0766 0
M  V30 14917 N 1374.63 0.0384594 1.57553 0
M  V30 14918 C 1375.58 -0.940256 2.10779 0
M  V30 14919 C 1376.55 -1.31705 1.01208 0
M  V30 14920 O 1377.74 -1.40874 1.28683 0
M  V30 14921 C 1374.88 -2.21419 2.64703 0
M  V30 14922 C 1373.99 -1.89302 3.88315 0
M  V30 14923 C 1373.12 -3.1106 4.30599 0
M  V30 14924 C 1372.16 -2.74805 5.46945 0
M  V30 14925 N 1371.3 -3.89217 5.84341 0
M  V30 14926 H 1376.14 -0.479458 2.94118 0
M  V30 14927 H 1373.68 -0.22505 1.45368 0
M  V30 14928 H 1375.63 -2.95946 2.94061 0
M  V30 14929 H 1374.26 -2.65099 1.84181 0
M  V30 14930 H 1373.32 -1.04977 3.65628 0
M  V30 14931 H 1374.63 -1.58607 4.72912 0
M  V30 14932 H 1373.78 -3.93898 4.61442 0
M  V30 14933 H 1372.52 -3.44924 3.44788 0
M  V30 14934 H 1371.53 -1.9038 5.15786 0
M  V30 14935 H 1372.75 -2.42147 6.34462 0
M  V30 14936 H 1370.7 -4.22905 5.01485 0
M  V30 14937 H 1370.61 -3.62177 6.63599 0
M  V30 14938 H 1371.88 -4.72732 6.19794 0
M  V30 14939 N 1376.11 -1.55841 -0.234795 0
M  V30 14940 C 1377.36 -1.78238 -0.961116 0
M  V30 14941 C 1377.69 -0.604919 -1.84854 0
M  V30 14942 O 1376.94 0.411289 -1.91329 0
M  V30 14943 C 1377.24 -3.06262 -1.84223 0
M  V30 14944 C 1376.91 -4.37045 -1.10916 0
M  V30 14945 C 1375.57 -4.72582 -0.906606 0
M  V30 14946 C 1377.92 -5.17844 -0.59049 0
M  V30 14947 C 1375.25 -5.86444 -0.173275 0
M  V30 14948 C 1377.6 -6.32468 0.129433 0
M  V30 14949 C 1376.26 -6.66616 0.343357 0
M  V30 14950 H 1375.53 -0.652219 -0.351697 0
M  V30 14951 H 1378.18 -1.9011 -0.230272 0
M  V30 14952 H 1376.49 -2.89454 -2.64052 0
M  V30 14953 H 1378.18 -3.20791 -2.40612 0
M  V30 14954 H 1374.77 -4.09134 -1.27699 0
M  V30 14955 H 1378.96 -4.90835 -0.734487 0
M  V30 14956 H 1374.21 -6.114 0.00282409 0
M  V30 14957 H 1378.39 -6.94312 0.538905 0
M  V30 14958 H 1376.01 -7.54691 0.913538 0
M  V30 14959 N 1377.59 0.500963 -1.49426 0
M  V30 14960 C 1379.01 0.832142 -1.36189 0
M  V30 14961 C 1379.21 1.9759 -0.395014 0
M  V30 14962 O 1378.26 2.51905 0.173294 0
M  V30 14963 C 1379.57 1.17232 -2.76907 0
M  V30 14964 C 1381.12 1.28052 -2.85607 0
M  V30 14965 C 1381.6 1.65399 -4.27092 0
M  V30 14966 N 1383.09 1.72448 -4.29902 0
M  V30 14967 C 1383.82 2.02789 -5.36343 0
M  V30 14968 N 1383.32 2.31354 -6.53029 0
M  V30 14969 N 1385.11 2.0404 -5.23759 0
M  V30 14970 H 1377.26 -0.253253 -2.10885 0
M  V30 14971 H 1379.53 -0.0507111 -0.946643 0
M  V30 14972 H 1379.23 0.405247 -3.49357 0
M  V30 14973 H 1379.11 2.11574 -3.12276 0
M  V30 14974 H 1381.49 2.03831 -2.13394 0
M  V30 14975 H 1381.57 0.317603 -2.53821 0
M  V30 14976 H 1381.22 0.901704 -4.99832 0
M  V30 14977 H 1381.15 2.6279 -4.56343 0
M  V30 14978 H 1383.64 1.52532 -3.45749 0
M  V30 14979 H 1383.95 2.53695 -7.29972 0
M  V30 14980 H 1382.3 2.28811 -6.56255 0
M  V30 14981 H 1385.49 1.812 -4.31606 0
M  V30 14982 H 1385.66 2.27353 -6.06807 0
M  V30 14983 N 1379.07 1.38501 0.752011 0
M  V30 14984 C 1379.98 1.38094 1.8965 0
M  V30 14985 C 1380.99 0.277851 1.71767 0
M  V30 14986 O 1382.17 0.516536 1.94663 0
M  V30 14987 C 1379.23 1.2063 3.25037 0
M  V30 14988 C 1378.3 2.40758 3.55435 0
M  V30 14989 C 1377.53 2.24118 4.84362 0
M  V30 14990 O 1377.75 1.23571 5.56854 0
M  V30 14991 O 1376.69 3.12741 5.14273 0
M  V30 14992 H 1380.51 2.34532 1.92947 0
M  V30 14993 H 1378.1 1.19437 0.897504 0
M  V30 14994 H 1379.98 1.12957 4.05979 0
M  V30 14995 H 1378.65 0.272785 3.22549 0
M  V30 14996 H 1377.56 2.54006 2.74648 0
M  V30 14997 H 1378.89 3.32745 3.62686 0
M  V30 14998 N 1380.55 -0.980364 1.23396 0
M  V30 14999 C 1381.79 -1.71592 1.06015 0
M  V30 15000 C 1382.11 -1.91401 -0.403103 0
M  V30 15001 O 1383.31 -2.62405 -0.696853 0
M  V30 15002 C 1381.77 -3.08795 1.84861 0
M  V30 15003 C 1381.38 -2.96873 3.35515 0
M  V30 15004 C 1383.12 -3.8631 1.75968 0
M  V30 15005 C 1381.03 -4.29308 4.06753 0
M  V30 15006 H 1379.96 -0.643423 0.393095 0
M  V30 15007 H 1382.61 -1.09345 1.47363 0
M  V30 15008 H 1380.99 -3.71797 1.36318 0
M  V30 15009 H 1382.17 -2.4296 3.91544 0
M  V30 15010 H 1380.48 -2.32833 3.45221 0
M  V30 15011 H 1383.08 -4.84355 2.26504 0
M  V30 15012 H 1383.42 -4.09983 0.722464 0
M  V30 15013 H 1383.95 -3.3001 2.22122 0
M  V30 15014 H 1380.69 -4.10831 5.10782 0
M  V30 15015 H 1380.21 -4.83086 3.55511 0
M  V30 15016 H 1381.89 -4.97995 4.1305 0
M  V30 15017 N 1382.02 -1.04567 -1.17913 0
M  V30 15018 C 1382.99 -0.645476 -2.19923 0
M  V30 15019 C 1383.99 0.299763 -1.57981 0
M  V30 15020 O 1385.18 0.0844825 -1.73995 0
M  V30 15021 C 1382.31 0.0528935 -3.40859 0
M  V30 15022 H 1383.5 -1.54828 -2.56843 0
M  V30 15023 H 1381.05 -0.838812 -1.31885 0
M  V30 15024 H 1381.79 0.969261 -3.09477 0
M  V30 15025 H 1381.57 -0.626558 -3.87062 0
M  V30 15026 H 1383.06 0.319221 -4.16378 0
M  V30 15027 N 1383.5 1.34231 -0.825823 0
M  V30 15028 C 1384.43 2.31997 -0.264546 0
M  V30 15029 C 1385.41 1.58375 0.620592 0
M  V30 15030 O 1386.6 1.86341 0.546865 0
M  V30 15031 C 1383.73 3.42557 0.572025 0
M  V30 15032 C 1382.68 4.27454 -0.216219 0
M  V30 15033 C 1382.01 5.29509 0.743279 0
M  V30 15034 C 1383.31 5.02456 -1.42603 0
M  V30 15035 H 1385 2.79189 -1.08139 0
M  V30 15036 H 1382.55 1.34227 -0.521451 0
M  V30 15037 H 1384.5 4.09968 0.974889 0
M  V30 15038 H 1383.22 2.94021 1.42195 0
M  V30 15039 H 1381.88 3.61649 -0.600485 0
M  V30 15040 H 1381.53 4.77234 1.58924 0
M  V30 15041 H 1381.23 5.87188 0.220064 0
M  V30 15042 H 1382.76 5.99789 1.14394 0
M  V30 15043 H 1384.17 5.62706 -1.09702 0
M  V30 15044 H 1382.57 5.69723 -1.88509 0
M  V30 15045 H 1383.64 4.31983 -2.2027 0
M  V30 15046 N 1384.98 0.581051 1.46498 0
M  V30 15047 C 1385.93 -0.153147 2.30291 0
M  V30 15048 C 1386.9 -0.885681 1.40517 0
M  V30 15049 O 1388.08 -0.876678 1.69467 0
M  V30 15050 C 1385.22 -1.16193 3.24951 0
M  V30 15051 C 1384.33 -0.433016 4.29824 0
M  V30 15052 C 1383.47 -1.42918 5.11613 0
M  V30 15053 C 1382.51 -0.686576 6.08237 0
M  V30 15054 N 1381.65 -1.63072 6.829 0
M  V30 15055 H 1386.49 0.56747 2.92547 0
M  V30 15056 H 1384.02 0.29166 1.4418 0
M  V30 15057 H 1385.98 -1.75965 3.78275 0
M  V30 15058 H 1384.61 -1.85028 2.64508 0
M  V30 15059 H 1383.66 0.279707 3.7937 0
M  V30 15060 H 1384.97 0.147604 4.98582 0
M  V30 15061 H 1384.13 -2.09975 5.69206 0
M  V30 15062 H 1382.87 -2.04373 4.42813 0
M  V30 15063 H 1381.87 -0.00222013 5.498 0
M  V30 15064 H 1383.1 -0.0774416 6.79056 0
M  V30 15065 H 1381.04 -2.2334 6.1681 0
M  V30 15066 H 1380.96 -1.10286 7.47912 0
M  V30 15067 H 1382.23 -2.29169 7.45052 0
M  V30 15068 N 1386.46 -1.54343 0.318742 0
M  V30 15069 C 1387.7 -2.00777 -0.285699 0
M  V30 15070 C 1388.04 -1.20664 -1.52164 0
M  V30 15071 O 1387.31 -0.287674 -1.92361 0
M  V30 15072 C 1387.59 -3.54641 -0.624649 0
M  V30 15073 C 1387.45 -4.45483 0.621663 0
M  V30 15074 C 1388.77 -4.15729 -1.4442 0
M  V30 15075 H 1385.89 -0.729856 -0.102367 0
M  V30 15076 H 1388.53 -1.84968 0.434364 0
M  V30 15077 H 1386.68 -3.68243 -1.23811 0
M  V30 15078 H 1388.35 -4.43759 1.25998 0
M  V30 15079 H 1386.59 -4.15356 1.25148 0
M  V30 15080 H 1387.26 -5.50951 0.340106 0
M  V30 15081 H 1389.74 -4.05672 -0.925699 0
M  V30 15082 H 1388.62 -5.23509 -1.65013 0
M  V30 15083 H 1388.88 -3.68743 -2.43887 0
M  V30 15084 N 1387.94 -0.0468143 -1.5753 0
M  V30 15085 C 1389.18 0.627375 -1.91695 0
M  V30 15086 C 1389.5 1.72261 -0.926588 0
M  V30 15087 O 1390.7 2.45466 -1.16012 0
M  V30 15088 C 1389.16 1.16722 -3.40447 0
M  V30 15089 C 1388.77 0.104335 -4.47878 0
M  V30 15090 C 1390.51 1.81691 -3.83652 0
M  V30 15091 C 1388.42 0.656818 -5.87741 0
M  V30 15092 H 1387.35 0.238107 -0.715417 0
M  V30 15093 H 1390 -0.114995 -1.83139 0
M  V30 15094 H 1388.38 1.96177 -3.43992 0
M  V30 15095 H 1389.56 -0.669053 -4.55917 0
M  V30 15096 H 1387.87 -0.447633 -4.13987 0
M  V30 15097 H 1390.47 2.24014 -4.85512 0
M  V30 15098 H 1390.81 2.66686 -3.19663 0
M  V30 15099 H 1391.34 1.08898 -3.82604 0
M  V30 15100 H 1388.08 -0.155397 -6.55316 0
M  V30 15101 H 1387.6 1.39829 -5.83273 0
M  V30 15102 H 1389.28 1.14107 -6.36858 0
M  V30 15103 N 1389.41 1.55964 0.226527 0
M  V30 15104 C 1390.64 1.82823 0.968673 0
M  V30 15105 C 1391.06 0.625281 1.78145 0
M  V30 15106 O 1390.41 -0.40617 1.77923 0
M  V30 15107 C 1390.47 3.08143 1.89024 0
M  V30 15108 O 1390.19 4.23797 1.11032 0
M  V30 15109 C 1391.69 3.47954 2.74669 0
M  V30 15110 H 1388.91 0.607876 0.284126 0
M  V30 15111 H 1391.45 2.03048 0.243258 0
M  V30 15112 H 1389.61 2.89908 2.56967 0
M  V30 15113 H 1390.02 4.94957 1.73546 0
M  V30 15114 H 1391.49 4.38691 3.35044 0
M  V30 15115 H 1391.97 2.69476 3.46813 0
M  V30 15116 H 1392.58 3.6861 2.12147 0
M  V30 15117 N 1390.89 -0.493031 1.4969 0
M  V30 15118 C 1391.84 -1.59075 1.63337 0
M  V30 15119 C 1392.83 -1.53298 0.488721 0
M  V30 15120 O 1394.02 -1.60693 0.742071 0
M  V30 15121 C 1391.15 -2.97646 1.71061 0
M  V30 15122 C 1390.23 -3.08389 2.9113 0
M  V30 15123 N 1390.62 -2.89001 4.15105 0
M  V30 15124 C 1388.92 -3.395 2.89233 0
M  V30 15125 C 1389.62 -3.04136 4.95859 0
M  V30 15126 N 1388.6 -3.33367 4.2938 0
M  V30 15127 H 1392.4 -1.42751 2.56903 0
M  V30 15128 H 1389.92 -0.699325 1.46571 0
M  V30 15129 H 1391.91 -3.76546 1.78938 0
M  V30 15130 H 1390.57 -3.15034 0.786376 0
M  V30 15131 H 1391.58 -2.65017 4.44957 0
M  V30 15132 H 1388.26 -3.63014 2.06221 0
M  V30 15133 H 1389.65 -2.93571 6.04372 0
M  V30 15134 N 1392.37 -1.38898 -0.744656 0
M  V30 15135 C 1393.3 -1.39571 -1.87195 0
M  V30 15136 C 1394.28 -0.260372 -1.68095 0
M  V30 15137 O 1395.47 -0.464776 -1.88556 0
M  V30 15138 C 1392.6 -1.22889 -3.24832 0
M  V30 15139 C 1391.55 -2.33721 -3.58551 0
M  V30 15140 C 1390.88 -2.02136 -4.9502 0
M  V30 15141 C 1392.18 -3.7601 -3.62511 0
M  V30 15142 H 1393.87 -2.33908 -1.86889 0
M  V30 15143 H 1391.42 -1.12591 -0.897739 0
M  V30 15144 H 1393.37 -1.21983 -4.03359 0
M  V30 15145 H 1392.09 -0.250172 -3.2564 0
M  V30 15146 H 1390.75 -2.33828 -2.82348 0
M  V30 15147 H 1390.4 -1.02726 -4.92399 0
M  V30 15148 H 1390.1 -2.76371 -5.18549 0
M  V30 15149 H 1391.62 -2.02864 -5.75915 0
M  V30 15150 H 1393.04 -3.77885 -4.31133 0
M  V30 15151 H 1391.44 -4.49524 -3.97553 0
M  V30 15152 H 1392.51 -4.07682 -2.62533 0
M  V30 15153 N 1393.85 0.973806 -1.23914 0
M  V30 15154 C 1394.8 2.08861 -1.02372 0
M  V30 15155 C 1395.79 1.69354 0.039415 0
M  V30 15156 O 1397 1.79635 -0.114637 0
M  V30 15157 H 1393.37 0.683313 -0.313986 0
M  V30 15158 H 1395.34 2.24195 -1.96924 0
M  V30 15159 C 1394.09 3.41784 -0.638661 0
M  V30 15160 H 1393.41 3.72639 -1.44846 0
M  V30 15161 H 1394.85 4.20706 -0.527487 0
M  V30 15162 C 1393.31 3.30497 0.65369 0
M  V30 15163 O 1393.84 3.63905 1.70107 0
M  V30 15164 N 1392.05 2.83642 0.632104 0
M  V30 15165 H 1391.6 2.56654 -0.220571 0
M  V30 15166 H 1391.55 2.76472 1.49701 0
M  V30 15167 N 1395.33 1.05191 1.17357 0
M  V30 15168 C 1396.58 0.757104 1.86951 0
M  V30 15169 C 1396.89 -0.718637 1.8192 0
M  V30 15170 O 1398.09 -1.12739 2.46986 0
M  V30 15171 C 1396.55 1.30409 3.35442 0
M  V30 15172 C 1396.16 2.80928 3.48975 0
M  V30 15173 C 1397.9 1.08633 4.10365 0
M  V30 15174 C 1395.81 3.28927 4.91488 0
M  V30 15175 H 1394.74 0.279525 0.700273 0
M  V30 15176 H 1397.39 1.2692 1.32528 0
M  V30 15177 H 1395.77 0.719812 3.89403 0
M  V30 15178 H 1396.95 3.45211 3.05231 0
M  V30 15179 H 1395.26 3.01245 2.87473 0
M  V30 15180 H 1397.86 1.41996 5.15501 0
M  V30 15181 H 1398.2 0.0240903 4.16293 0
M  V30 15182 H 1398.73 1.63581 3.6261 0
M  V30 15183 H 1395.47 4.34581 4.90734 0
M  V30 15184 H 1394.99 2.69386 5.35902 0
M  V30 15185 H 1396.67 3.23605 5.60258 0
M  V30 15186 N 1396.8 -1.33791 0.83293 0
M  V30 15187 C 1398.05 -1.97233 0.422127 0
M  V30 15188 C 1398.37 -1.66738 -1.02264 0
M  V30 15189 O 1399.57 -2.23747 -1.53783 0
M  V30 15190 C 1398.03 -3.5295 0.703872 0
M  V30 15191 C 1397.64 -3.92329 2.16292 0
M  V30 15192 C 1399.38 -4.22973 0.359727 0
M  V30 15193 C 1397.29 -5.40999 2.38903 0
M  V30 15194 H 1396.22 -0.738082 0.154112 0
M  V30 15195 H 1398.87 -1.52494 1.02068 0
M  V30 15196 H 1397.25 -3.95985 0.0350184 0
M  V30 15197 H 1398.42 -3.6037 2.87176 0
M  V30 15198 H 1396.74 -3.35271 2.46947 0
M  V30 15199 H 1399.34 -5.32297 0.506366 0
M  V30 15200 H 1399.68 -4.10428 -0.696743 0
M  V30 15201 H 1400.21 -3.85449 0.983568 0
M  V30 15202 H 1396.95 -5.58541 3.43093 0
M  V30 15203 H 1396.47 -5.74438 1.72573 0
M  V30 15204 H 1398.15 -6.07809 2.2176 0
M  V30 15205 N 1398.28 -0.588812 -1.46187 0
M  V30 15206 C 1399.53 -0.0765765 -2.01955 0
M  V30 15207 C 1399.85 1.29034 -1.46203 0
M  V30 15208 O 1399.12 1.84836 -0.649044 0
M  V30 15209 H 1397.7 -0.025318 -0.746571 0
M  V30 15210 H 1400.36 -0.765971 -1.79217 0
M  V30 15211 H 1399.46 -0.0121702 -3.12098 0
M  V30 15212 N 1399.76 1.54172 -0.326923 0
M  V30 15213 C 1400.67 2.28149 0.546351 0
M  V30 15214 C 1401.69 1.32628 1.12631 0
M  V30 15215 O 1402.86 1.65647 1.14556 0
M  V30 15216 C 1399.93 3.02742 1.68962 0
M  V30 15217 C 1398.99 4.13856 1.14112 0
M  V30 15218 C 1398.22 4.84882 2.2299 0
M  V30 15219 O 1398.44 4.55448 3.43399 0
M  V30 15220 O 1397.38 5.71714 1.8822 0
M  V30 15221 H 1401.2 3.03651 -0.0545288 0
M  V30 15222 H 1398.79 1.49113 -0.0925027 0
M  V30 15223 H 1400.67 3.49443 2.35515 0
M  V30 15224 H 1399.35 2.30113 2.27662 0
M  V30 15225 H 1398.25 3.71497 0.440579 0
M  V30 15226 H 1399.59 4.88539 0.599211 0
M  V30 15227 N 1401.24 0.0551678 1.57503 0
M  V30 15228 C 1402.48 -0.621569 1.9472 0
M  V30 15229 C 1402.84 -1.67772 0.933626 0
M  V30 15230 O 1404.04 -2.40882 1.19287 0
M  V30 15231 C 1402.31 -1.19858 3.36703 0
M  V30 15232 S 1403.87 -1.89276 3.95879 0
M  V30 15233 H 1400.69 -0.203985 0.68111 0
M  V30 15234 H 1403.29 0.125058 1.951 0
M  V30 15235 H 1402 -0.417833 4.08267 0
M  V30 15236 H 1401.53 -1.98193 3.39828 0
M  V30 15237 H 1403.54 -3.17373 3.8143 0
M  V30 15238 N 1402.72 -1.56081 -0.218252 0
M  V30 15239 C 1403.66 -1.93544 -1.2901 0
M  V30 15240 C 1404.66 -0.817886 -1.48348 0
M  V30 15241 O 1405.86 -1.00274 -1.49483 0
M  V30 15242 H 1402.24 -0.61511 -0.432601 0
M  V30 15243 H 1404.21 -2.82975 -0.946966 0
M  V30 15244 C 1402.96 -2.27134 -2.63259 0
M  V30 15245 H 1402.28 -3.12643 -2.49188 0
M  V30 15246 H 1403.72 -2.57228 -3.3706 0
M  V30 15247 C 1402.18 -1.09764 -3.18518 0
M  V30 15248 O 1402.71 -0.360501 -4.00079 0
M  V30 15249 N 1400.92 -0.880589 -2.76937 0
M  V30 15250 H 1400.46 -1.48175 -2.10718 0
M  V30 15251 H 1400.42 -0.0970234 -3.1425 0
M  V30 15252 N 1404.2 0.485086 -1.49949 0
M  V30 15253 C 1405.44 1.23486 -1.5948 0
M  V30 15254 C 1405.76 1.93377 -0.294082 0
M  V30 15255 O 1406.96 2.70173 -0.268133 0
M  V30 15256 C 1405.42 2.24303 -2.81454 0
M  V30 15257 C 1405.03 1.60279 -4.18347 0
M  V30 15258 C 1406.77 3.0001 -3.00324 0
M  V30 15259 C 1404.68 2.593 -5.31524 0
M  V30 15260 H 1403.61 0.464595 -0.593858 0
M  V30 15261 H 1406.26 0.506893 -1.7636 0
M  V30 15262 H 1404.64 3.00332 -2.58102 0
M  V30 15263 H 1405.82 0.901352 -4.51899 0
M  V30 15264 H 1404.13 0.969053 -4.04967 0
M  V30 15265 H 1406.73 3.74091 -3.82048 0
M  V30 15266 H 1407.07 3.5857 -2.11502 0
M  V30 15267 H 1407.6 2.31095 -3.2379 0
M  V30 15268 H 1404.34 2.05498 -6.22455 0
M  V30 15269 H 1403.86 3.27638 -5.02408 0
M  V30 15270 H 1405.54 3.21411 -5.61519 0
M  V30 15271 N 1405.67 1.39291 0.737279 0
M  V30 15272 C 1406.61 1.33728 1.86144 0
M  V30 15273 C 1407.62 0.246468 1.60924 0
M  V30 15274 O 1408.81 0.505252 1.712 0
M  V30 15275 C 1405.91 1.05312 3.22122 0
M  V30 15276 C 1405.08 2.25624 3.74716 0
M  V30 15277 C 1404.14 1.937 4.89251 0
M  V30 15278 O 1403.17 2.66361 5.03031 0
M  V30 15279 N 1404.37 0.901782 5.73453 0
M  V30 15280 H 1407.13 2.30604 1.91421 0
M  V30 15281 H 1404.69 1.33364 0.917919 0
M  V30 15282 H 1406.69 0.819784 3.9631 0
M  V30 15283 H 1405.26 0.171773 3.12128 0
M  V30 15284 H 1404.48 2.64923 2.91906 0
M  V30 15285 H 1405.76 3.05881 4.06589 0
M  V30 15286 H 1405.16 0.299553 5.64906 0
M  V30 15287 H 1403.72 0.728344 6.47718 0
M  V30 15288 N 1407.15 -0.967221 1.24429 0
M  V30 15289 C 1408.4 -1.71026 1.08427 0
M  V30 15290 C 1408.73 -1.90815 -0.376812 0
M  V30 15291 O 1407.98 -1.46745 -1.29477 0
M  V30 15292 C 1408.28 -3.10507 1.76975 0
M  V30 15293 C 1407.95 -3.10557 3.26902 0
M  V30 15294 C 1406.61 -3.10278 3.67806 0
M  V30 15295 C 1408.96 -3.04852 4.22746 0
M  V30 15296 C 1406.29 -3.02027 5.02988 0
M  V30 15297 C 1408.64 -2.98143 5.57937 0
M  V30 15298 C 1407.3 -2.96193 5.98185 0
M  V30 15299 H 1406.57 -0.625827 0.396764 0
M  V30 15300 H 1409.22 -1.13094 1.54538 0
M  V30 15301 H 1407.53 -3.71906 1.2326 0
M  V30 15302 H 1409.22 -3.66794 1.62058 0
M  V30 15303 H 1405.81 -3.11539 2.94349 0
M  V30 15304 H 1410 -3.04197 3.92145 0
M  V30 15305 H 1405.25 -2.98878 5.33368 0
M  V30 15306 H 1409.43 -2.92688 6.31907 0
M  V30 15307 H 1407.05 -2.89555 7.02895 0
M  V30 15308 N 1408.63 -1.05812 -1.16797 0
M  V30 15309 C 1409.88 -0.770398 -1.8684 0
M  V30 15310 C 1410.2 0.704986 -1.8181 0
M  V30 15311 O 1409.47 1.50977 -1.24832 0
M  V30 15312 H 1408.05 -0.281989 -0.691731 0
M  V30 15313 H 1410.71 -1.33859 -1.41661 0
M  V30 15314 H 1409.81 -1.09094 -2.92412 0
M  V30 15315 N 1410.11 1.33347 -0.840014 0
M  V30 15316 C 1411.36 1.97007 -0.432581 0
M  V30 15317 C 1411.67 1.67278 1.01378 0
M  V30 15318 O 1412.88 2.2456 1.52595 0
M  V30 15319 C 1411.33 3.52572 -0.72258 0
M  V30 15320 C 1410.94 3.91176 -2.1837 0
M  V30 15321 C 1412.68 4.22776 -0.382153 0
M  V30 15322 C 1410.59 5.39724 -2.41768 0
M  V30 15323 H 1409.52 0.737255 -0.158024 0
M  V30 15324 H 1412.17 1.5195 -1.02876 0
M  V30 15325 H 1410.55 3.9596 -0.0560179 0
M  V30 15326 H 1411.73 3.58842 -2.89083 0
M  V30 15327 H 1410.04 3.33956 -2.48721 0
M  V30 15328 H 1412.64 5.32021 -0.534588 0
M  V30 15329 H 1412.98 4.10792 0.674967 0
M  V30 15330 H 1413.52 3.84922 -1.004 0
M  V30 15331 H 1410.25 5.56713 -3.4605 0
M  V30 15332 H 1409.77 5.73514 -1.75617 0
M  V30 15333 H 1411.45 6.06624 -2.2498 0
M  V30 15334 N 1411.59 0.596556 1.45873 0
M  V30 15335 C 1412.53 -0.141327 2.3217 0
M  V30 15336 C 1413.53 -0.870652 1.45314 0
M  V30 15337 O 1414.73 -0.787469 1.61861 0
M  V30 15338 H 1411.11 -0.0644404 0.749234 0
M  V30 15339 H 1413.08 0.605115 2.922 0
M  V30 15340 C 1411.83 -1.13261 3.28736 0
M  V30 15341 H 1411.15 -0.580835 3.95558 0
M  V30 15342 H 1412.59 -1.61904 3.91871 0
M  V30 15343 C 1411.05 -2.20062 2.55097 0
M  V30 15344 O 1411.58 -3.27634 2.3242 0
M  V30 15345 N 1409.79 -1.95044 2.15421 0
M  V30 15346 H 1409.33 -1.07573 2.34064 0
M  V30 15347 H 1409.29 -2.66711 1.66472 0
M  V30 15348 N 1413.06 -1.53996 0.335095 0
M  V30 15349 C 1414.47 -1.86092 -0.15058 0
M  V30 15350 C 1414.83 -1.25652 -1.50685 0
M  V30 15351 O 1413.95 -0.566887 -2.08843 0
M  V30 15352 C 1414.55 -3.37641 -0.280007 0
M  V30 15353 C 1413.1 -3.69645 -0.709907 0
M  V30 15354 C 1412.25 -2.7683 0.161461 0
M  V30 15355 H 1415.2 -1.4868 0.554986 0
M  V30 15356 H 1415.22 -3.63981 -1.10896 0
M  V30 15357 H 1414.74 -3.81601 0.707254 0
M  V30 15358 H 1412.84 -3.31224 -1.7065 0
M  V30 15359 H 1412.95 -4.76424 -0.505661 0
M  V30 15360 H 1411.31 -2.52073 -0.364849 0
M  V30 15361 H 1412.1 -3.23618 1.1457 0
M  V30 15362 N 1414.54 -0.0635198 -1.57472 0
M  V30 15363 C 1415.47 0.93602 -2.09216 0
M  V30 15364 C 1416.49 1.2668 -1.02255 0
M  V30 15365 O 1417.68 1.22543 -1.2979 0
M  V30 15366 C 1414.78 2.25417 -2.53062 0
M  V30 15367 C 1413.95 2.10347 -3.83501 0
M  V30 15368 C 1413.01 3.25394 -4.13528 0
M  V30 15369 O 1412.03 3.00751 -4.83257 0
M  V30 15370 N 1413.24 4.50243 -3.66417 0
M  V30 15371 H 1416 0.494288 -2.95596 0
M  V30 15372 H 1413.56 0.122416 -1.61437 0
M  V30 15373 H 1415.55 3.01272 -2.70217 0
M  V30 15374 H 1414.12 2.61116 -1.71864 0
M  V30 15375 H 1413.34 1.19009 -3.75807 0
M  V30 15376 H 1414.63 1.97519 -4.68896 0
M  V30 15377 H 1414.03 4.73152 -3.1007 0
M  V30 15378 H 1412.59 5.23152 -3.88787 0
M  V30 15379 N 1416.02 1.56195 0.209972 0
M  V30 15380 C 1417.25 1.8384 0.949228 0
M  V30 15381 C 1417.66 0.644141 1.77472 0
M  V30 15382 O 1417.02 -0.387276 1.78344 0
M  V30 15383 C 1417.07 3.10131 1.85745 0
M  V30 15384 O 1416.79 4.2495 1.06531 0
M  V30 15385 C 1418.29 3.50847 2.70963 0
M  V30 15386 H 1415.51 0.610856 0.277662 0
M  V30 15387 H 1418.06 2.03295 0.221708 0
M  V30 15388 H 1416.21 2.92618 2.53877 0
M  V30 15389 H 1416.63 4.96769 1.68287 0
M  V30 15390 H 1418.1 4.4222 3.30372 0
M  V30 15391 H 1418.58 2.73139 3.43936 0
M  V30 15392 H 1419.18 3.7084 2.08226 0
M  V30 15393 N 1417.5 -0.477127 1.50204 0
M  V30 15394 C 1418.75 -1.22722 1.60573 0
M  V30 15395 C 1419.07 -1.92595 0.305326 0
M  V30 15396 O 1418.34 -1.83836 -0.676842 0
M  V30 15397 H 1416.92 -0.455973 0.591691 0
M  V30 15398 H 1419.58 -0.550915 1.86952 0
M  V30 15399 H 1418.67 -1.97837 2.41385 0
M  V30 15400 N 1418.98 -1.3968 -0.729882 0
M  V30 15401 C 1419.89 -1.41094 -1.87429 0
M  V30 15402 C 1420.9 -0.305142 -1.71303 0
M  V30 15403 O 1422.08 -0.54744 -1.93817 0
M  V30 15404 C 1419.14 -1.25786 -3.23077 0
M  V30 15405 C 1418.2 -2.46382 -3.5156 0
M  V30 15406 C 1417.44 -2.31795 -4.80735 0
M  V30 15407 O 1417.66 -1.32415 -5.54818 0
M  V30 15408 O 1416.59 -3.20883 -5.09232 0
M  V30 15409 H 1420.42 -2.37571 -1.89192 0
M  V30 15410 H 1418.01 -1.2085 -0.878389 0
M  V30 15411 H 1419.89 -1.19402 -4.0413 0
M  V30 15412 H 1418.56 -0.324065 -3.22074 0
M  V30 15413 H 1417.47 -2.58343 -2.70573 0
M  V30 15414 H 1418.8 -3.38473 -3.57347 0
M  V30 15415 N 1420.45 0.960609 -1.2494 0
M  V30 15416 C 1421.68 1.73676 -1.11894 0
M  V30 15417 C 1422.09 1.86288 0.330648 0
M  V30 15418 O 1421.44 1.35575 1.23957 0
M  V30 15419 C 1421.5 3.17142 -1.69297 0
M  V30 15420 C 1421.16 3.27978 -3.18244 0
M  V30 15421 C 1422.16 3.12754 -4.15308 0
M  V30 15422 C 1419.84 3.51991 -3.5834 0
M  V30 15423 C 1421.84 3.21379 -5.50449 0
M  V30 15424 C 1419.52 3.60253 -4.9362 0
M  V30 15425 C 1420.52 3.44961 -5.89484 0
M  V30 15426 O 1420.21 3.52893 -7.22303 0
M  V30 15427 H 1419.94 0.551226 -0.391313 0
M  V30 15428 H 1422.5 1.21418 -1.65671 0
M  V30 15429 H 1420.73 3.70736 -1.09961 0
M  V30 15430 H 1422.42 3.76592 -1.51437 0
M  V30 15431 H 1423.18 2.94079 -3.85672 0
M  V30 15432 H 1419.06 3.62957 -2.84224 0
M  V30 15433 H 1422.6 3.0936 -6.25254 0
M  V30 15434 H 1418.5 3.78444 -5.22925 0
M  V30 15435 H 1419.27 3.69563 -7.30319 0
M  V30 15436 N 1421.93 1.0643 1.16234 0
M  V30 15437 C 1423.17 0.791061 1.88472 0
M  V30 15438 C 1423.54 -0.670265 1.79921 0
M  V30 15439 O 1424.74 -1.05815 2.47096 0
M  V30 15440 C 1423.01 1.27371 3.33933 0
M  V30 15441 S 1424.57 1.12974 4.24008 0
M  V30 15442 H 1421.39 0.286924 0.650535 0
M  V30 15443 H 1423.99 1.3615 1.40298 0
M  V30 15444 H 1422.69 2.33215 3.37696 0
M  V30 15445 H 1422.22 0.698083 3.87157 0
M  V30 15446 H 1424.24 0.0614942 4.96162 0
M  V30 15447 N 1423.41 -1.329 0.847073 0
M  V30 15448 C 1424.66 -1.96774 0.443022 0
M  V30 15449 C 1424.97 -1.67813 -1.0049 0
M  V30 15450 O 1426.18 -2.25366 -1.51402 0
M  V30 15451 C 1424.63 -3.52184 0.741268 0
M  V30 15452 C 1424.24 -3.90013 2.20441 0
M  V30 15453 C 1425.99 -4.22568 0.404569 0
M  V30 15454 C 1423.89 -5.38434 2.44627 0
M  V30 15455 H 1422.82 -0.736406 0.161932 0
M  V30 15456 H 1425.47 -1.51402 1.0368 0
M  V30 15457 H 1423.86 -3.95925 0.0770158 0
M  V30 15458 H 1425.03 -3.57304 2.90982 0
M  V30 15459 H 1423.35 -3.32633 2.50489 0
M  V30 15460 H 1425.94 -5.3173 0.562795 0
M  V30 15461 H 1426.29 -4.11144 -0.653172 0
M  V30 15462 H 1426.82 -3.84384 1.0244 0
M  V30 15463 H 1423.56 -5.5487 3.48997 0
M  V30 15464 H 1423.08 -5.72575 1.78656 0
M  V30 15465 H 1424.76 -6.05423 2.28194 0
M  V30 15466 N 1424.89 -0.604284 -1.45555 0
M  V30 15467 C 1426.14 -0.0957836 -2.01472 0
M  V30 15468 C 1426.45 1.28016 -1.47889 0
M  V30 15469 O 1427.66 1.88121 -1.95762 0
M  V30 15470 C 1426.11 -0.120566 -3.59698 0
M  V30 15471 C 1425.72 -1.49616 -4.22278 0
M  V30 15472 C 1427.46 0.332865 -4.23193 0
M  V30 15473 C 1425.37 -1.4775 -5.72646 0
M  V30 15474 H 1424.3 -0.0320399 -0.753319 0
M  V30 15475 H 1426.95 -0.759125 -1.67061 0
M  V30 15476 H 1425.33 0.609365 -3.91283 0
M  V30 15477 H 1426.51 -2.24753 -4.02272 0
M  V30 15478 H 1424.82 -1.89141 -3.70965 0
M  V30 15479 H 1427.42 0.365951 -5.33446 0
M  V30 15480 H 1427.76 1.35487 -3.93635 0
M  V30 15481 H 1428.3 -0.343692 -3.96313 0
M  V30 15482 H 1425.04 -2.47701 -6.06898 0
M  V30 15483 H 1424.56 -0.768659 -5.94854 0
M  V30 15484 H 1426.23 -1.19971 -6.3578 0
M  V30 15485 N 1426.37 1.53816 -0.343257 0
M  V30 15486 C 1427.28 2.28716 0.522121 0
M  V30 15487 C 1428.29 1.33815 1.11218 0
M  V30 15488 O 1429.47 1.66853 1.12793 0
M  V30 15489 C 1426.53 3.04517 1.65741 0
M  V30 15490 C 1425.59 4.15043 1.09716 0
M  V30 15491 C 1424.83 4.8722 2.17835 0
M  V30 15492 O 1425.05 4.59065 3.38549 0
M  V30 15493 O 1423.98 5.73678 1.82145 0
M  V30 15494 H 1427.81 3.03576 -0.086732 0
M  V30 15495 H 1425.4 1.49007 -0.108313 0
M  V30 15496 H 1427.28 3.51921 2.31796 0
M  V30 15497 H 1425.95 2.32514 2.25208 0
M  V30 15498 H 1424.86 3.71943 0.401152 0
M  V30 15499 H 1426.19 4.89147 0.547362 0
M  V30 15500 N 1427.84 0.0718701 1.57436 0
M  V30 15501 C 1429.09 -0.598116 1.93779 0
M  V30 15502 C 1429.42 -1.69258 0.952131 0
M  V30 15503 O 1428.7 -1.94491 -0.0186426 0
M  V30 15504 C 1428.98 -1.17499 3.40391 0
M  V30 15505 C 1428.83 -0.0871719 4.49716 0
M  V30 15506 C 1430.15 -2.08047 3.8782 0
M  V30 15507 H 1427.27 -0.215954 0.704651 0
M  V30 15508 H 1429.91 0.137854 1.89499 0
M  V30 15509 H 1428.06 -1.80221 3.44169 0
M  V30 15510 H 1429.74 0.545906 4.58058 0
M  V30 15511 H 1427.98 0.582213 4.29875 0
M  V30 15512 H 1428.65 -0.531202 5.49438 0
M  V30 15513 H 1431.13 -1.5526 3.86049 0
M  V30 15514 H 1430 -2.45345 4.91016 0
M  V30 15515 H 1430.26 -2.98879 3.25766 0
M  V30 15516 N 1429.32 -1.56304 -0.201686 0
M  V30 15517 C 1430.27 -1.94901 -1.26949 0
M  V30 15518 C 1431.26 -0.833574 -1.47472 0
M  V30 15519 O 1432.47 -1.01854 -1.48411 0
M  V30 15520 H 1428.85 -0.619663 -0.426053 0
M  V30 15521 H 1430.82 -2.83964 -0.9169 0
M  V30 15522 C 1429.57 -2.29913 -2.60835 0
M  V30 15523 H 1428.89 -3.15268 -2.45858 0
M  V30 15524 H 1430.33 -2.60789 -3.34313 0
M  V30 15525 C 1428.79 -1.13136 -3.17335 0
M  V30 15526 O 1429.32 -0.402915 -3.99674 0
M  V30 15527 N 1427.52 -0.909912 -2.75987 0
M  V30 15528 H 1427.07 -1.50402 -2.09134 0
M  V30 15529 H 1427.03 -0.130348 -3.1413 0
M  V30 15530 N 1430.8 0.469154 -1.50455 0
M  V30 15531 C 1431.76 1.5493 -1.68906 0
M  V30 15532 C 1432.76 1.50744 -0.559721 0
M  V30 15533 O 1433.95 1.5333 -0.826781 0
M  V30 15534 C 1431.09 2.94556 -1.71609 0
M  V30 15535 H 1432.28 1.39887 -2.65276 0
M  V30 15536 H 1429.83 0.695667 -1.39965 0
M  V30 15537 H 1430.57 3.15041 -0.769382 0
M  V30 15538 H 1430.35 2.99002 -2.53654 0
M  V30 15539 H 1431.84 3.72973 -1.87831 0
M  V30 15540 N 1432.28 1.40065 0.722464 0
M  V30 15541 C 1433.69 1.21944 1.02965 0
M  V30 15542 C 1433.89 0.0898069 2.013 0
M  V30 15543 O 1432.95 -0.554519 2.46336 0
M  V30 15544 C 1434.26 2.55848 1.57995 0
M  V30 15545 C 1435.81 2.62801 1.70013 0
M  V30 15546 C 1436.29 3.96957 2.2845 0
M  V30 15547 N 1437.78 3.98662 2.35844 0
M  V30 15548 C 1438.51 4.99248 2.82026 0
M  V30 15549 N 1438.01 6.1023 3.28012 0
M  V30 15550 N 1439.8 4.8662 2.81349 0
M  V30 15551 H 1431.95 2.12283 0.0705301 0
M  V30 15552 H 1434.22 0.943338 0.0938991 0
M  V30 15553 H 1433.92 3.39125 0.932034 0
M  V30 15554 H 1433.8 2.76452 2.5662 0
M  V30 15555 H 1436.18 1.799 2.33923 0
M  V30 15556 H 1436.26 2.46034 0.700062 0
M  V30 15557 H 1435.91 4.80295 1.65164 0
M  V30 15558 H 1435.84 4.1105 3.29158 0
M  V30 15559 H 1438.33 3.18518 2.03358 0
M  V30 15560 H 1438.64 6.82878 3.61797 0
M  V30 15561 H 1436.99 6.13805 3.25988 0
M  V30 15562 H 1440.18 3.99015 2.44755 0
M  V30 15563 H 1440.35 5.65155 3.17024 0
M  V30 15564 N 1433.76 -0.95397 1.25448 0
M  V30 15565 C 1434.69 -2.06828 1.08372 0
M  V30 15566 C 1435.67 -1.70098 -0.00741585 0
M  V30 15567 O 1436.85 -1.93521 0.16224 0
M  V30 15568 C 1433.98 -3.40124 0.702365 0
M  V30 15569 C 1432.94 -3.90865 1.74381 0
M  V30 15570 C 1432.26 -5.20663 1.21712 0
M  V30 15571 C 1433.56 -4.17169 3.14273 0
M  V30 15572 H 1435.26 -2.21372 2.01581 0
M  V30 15573 H 1432.8 -1.06374 0.970592 0
M  V30 15574 H 1434.76 -4.17529 0.569837 0
M  V30 15575 H 1433.48 -3.2552 -0.265428 0
M  V30 15576 H 1432.14 -3.15628 1.86479 0
M  V30 15577 H 1431.79 -5.02429 0.23954 0
M  V30 15578 H 1431.49 -5.55581 1.91319 0
M  V30 15579 H 1433.01 -6.00665 1.097 0
M  V30 15580 H 1434.43 -4.85231 3.05325 0
M  V30 15581 H 1432.82 -4.63344 3.81356 0
M  V30 15582 H 1433.89 -3.23421 3.61285 0
M  V30 15583 N 1435.24 -1.07045 -1.15668 0
M  V30 15584 C 1436.46 -0.812802 -1.9081 0
M  V30 15585 C 1436.89 0.627827 -1.77313 0
M  V30 15586 O 1436.24 1.43836 -1.10368 0
M  V30 15587 C 1436.29 -1.2219 -3.39267 0
M  V30 15588 O 1435.4 -0.365305 -4.10779 0
M  V30 15589 H 1434.74 -0.296385 -0.594182 0
M  V30 15590 H 1437.27 -1.42825 -1.465 0
M  V30 15591 H 1437.28 -1.19674 -3.90054 0
M  V30 15592 H 1435.95 -2.27121 -3.48409 0
M  V30 15593 H 1434.53 -0.452687 -3.70142 0
M  V30 15594 N 1436.71 1.32449 -0.85411 0
M  V30 15595 C 1438.13 1.50046 -0.543895 0
M  V30 15596 C 1438.33 1.78985 0.925561 0
M  V30 15597 O 1437.39 1.85909 1.70862 0
M  V30 15598 C 1438.7 2.64499 -1.43041 0
M  V30 15599 C 1440.25 2.78384 -1.43078 0
M  V30 15600 C 1440.72 3.95915 -2.3025 0
M  V30 15601 N 1442.21 4.03176 -2.28043 0
M  V30 15602 C 1442.95 4.9335 -2.92221 0
M  V30 15603 N 1442.44 5.88536 -3.6551 0
M  V30 15604 N 1444.24 4.86468 -2.81612 0
M  V30 15605 H 1436.39 1.11931 -1.80514 0
M  V30 15606 H 1438.65 0.551626 -0.770982 0
M  V30 15607 H 1438.36 2.49842 -2.47532 0
M  V30 15608 H 1438.23 3.60269 -1.11742 0
M  V30 15609 H 1440.62 2.92464 -0.393529 0
M  V30 15610 H 1440.7 1.83329 -1.78393 0
M  V30 15611 H 1440.34 3.82594 -3.34043 0
M  V30 15612 H 1440.27 4.90245 -1.92268 0
M  V30 15613 H 1442.76 3.35064 -1.74759 0
M  V30 15614 H 1443.08 6.54038 -4.11648 0
M  V30 15615 H 1441.42 5.88564 -3.69618 0
M  V30 15616 H 1444.61 4.11076 -2.23907 0
M  V30 15617 H 1444.79 5.56542 -3.3191 0
M  V30 15618 N 1438.19 0.611994 1.45232 0
M  V30 15619 C 1439.42 0.113618 2.07089 0
M  V30 15620 C 1439.84 -1.1947 1.45288 0
M  V30 15621 O 1439.2 -1.72845 0.547207 0
M  V30 15622 C 1439.25 -0.00789978 3.60599 0
M  V30 15623 O 1438.35 -1.05697 3.98625 0
M  V30 15624 H 1437.69 0.076066 0.659629 0
M  V30 15625 H 1440.22 0.843253 1.86415 0
M  V30 15626 H 1440.23 -0.204692 4.07486 0
M  V30 15627 H 1438.91 0.947386 4.04966 0
M  V30 15628 H 1437.48 -0.836291 3.63401 0
M  V30 15629 N 1439.67 -1.53632 0.351409 0
M  V30 15630 C 1440.89 -2.0593 -0.246501 0
M  V30 15631 C 1441.32 -1.22419 -1.42812 0
M  V30 15632 O 1440.68 -0.239811 -1.79707 0
M  V30 15633 C 1440.73 -3.55021 -0.631862 0
M  V30 15634 O 1439.83 -3.74317 -1.73092 0
M  V30 15635 H 1439.17 -0.662839 -0.0392424 0
M  V30 15636 H 1441.7 -1.98196 0.507904 0
M  V30 15637 H 1441.71 -3.97795 -0.906831 0
M  V30 15638 H 1440.39 -4.15251 0.232224 0
M  V30 15639 H 1438.96 -3.43444 -1.4526 0
M  V30 15640 N 1441.15 -0.0802183 -1.57396 0
M  V30 15641 C 1442.11 0.869437 -2.12069 0
M  V30 15642 C 1443.11 1.22079 -1.04658 0
M  V30 15643 O 1444.3 1.15267 -1.3061 0
M  V30 15644 C 1441.43 2.17016 -2.62901 0
M  V30 15645 H 1442.63 0.394952 -2.97288 0
M  V30 15646 H 1440.18 0.168597 -1.55388 0
M  V30 15647 H 1440.91 2.68983 -1.8116 0
M  V30 15648 H 1440.7 1.92808 -3.4142 0
M  V30 15649 H 1442.19 2.84982 -3.05246 0
M  V30 15650 N 1442.63 1.56409 0.193394 0
M  V30 15651 C 1443.56 1.97707 1.24234 0
M  V30 15652 C 1444.54 0.849286 1.47381 0
M  V30 15653 O 1445.72 1.11374 1.59089 0
M  V30 15654 C 1442.85 2.31804 2.5862 0
M  V30 15655 C 1441.81 3.47337 2.50082 0
M  V30 15656 C 1441.13 3.67114 3.88756 0
M  V30 15657 C 1442.43 4.81472 2.02441 0
M  V30 15658 H 1444.13 2.8558 0.89914 0
M  V30 15659 H 1441.67 1.37396 0.431078 0
M  V30 15660 H 1443.62 2.5929 3.32185 0
M  V30 15661 H 1442.35 1.40816 2.94684 0
M  V30 15662 H 1441.01 3.19944 1.78973 0
M  V30 15663 H 1440.66 2.73454 4.22175 0
M  V30 15664 H 1440.36 4.44838 3.83918 0
M  V30 15665 H 1441.88 3.96978 4.6394 0
M  V30 15666 H 1443.29 5.07978 2.65766 0
M  V30 15667 H 1441.69 5.62677 2.08601 0
M  V30 15668 H 1442.76 4.74941 0.977704 0
M  V30 15669 N 1444.1 -0.461169 1.50702 0
M  V30 15670 C 1445.07 -1.54032 1.69725 0
M  V30 15671 C 1446.07 -1.50445 0.567707 0
M  V30 15672 O 1447.26 -1.52889 0.834901 0
M  V30 15673 C 1444.39 -2.93642 1.73168 0
M  V30 15674 H 1445.58 -1.38478 2.66015 0
M  V30 15675 H 1443.13 -0.688235 1.40332 0
M  V30 15676 H 1443.87 -3.14629 0.786078 0
M  V30 15677 H 1443.65 -2.97652 2.55236 0
M  V30 15678 H 1445.14 -3.71972 1.89807 0
M  V30 15679 N 1445.58 -1.40446 -0.715026 0
M  V30 15680 C 1446.81 -1.42263 -1.50917 0
M  V30 15681 C 1447.23 -0.0242402 -1.88084 0
M  V30 15682 O 1446.59 0.967817 -1.53307 0
M  V30 15683 C 1446.64 -2.31998 -2.7606 0
M  V30 15684 O 1445.74 -1.76361 -3.72787 0
M  V30 15685 H 1445.08 -0.483614 -0.454988 0
M  V30 15686 H 1447.61 -1.84682 -0.880549 0
M  V30 15687 H 1447.62 -2.47204 -3.24583 0
M  V30 15688 H 1446.3 -3.33614 -2.48343 0
M  V30 15689 H 1444.87 -1.70504 -3.31636 0
M  V30 15690 N 1447.06 0.947303 -1.25952 0
M  V30 15691 C 1448.01 2.04511 -1.06976 0
M  V30 15692 C 1448.98 1.66084 0.023347 0
M  V30 15693 O 1450.16 1.9032 -0.135247 0
M  V30 15694 C 1447.3 3.37878 -0.70232 0
M  V30 15695 C 1446.41 3.89379 -1.87105 0
M  V30 15696 C 1445.55 5.11104 -1.44728 0
M  V30 15697 C 1444.59 5.54852 -2.58469 0
M  V30 15698 N 1443.73 6.67784 -2.16817 0
M  V30 15699 H 1448.57 2.20075 -2.00925 0
M  V30 15700 H 1446.1 1.07837 -1.00048 0
M  V30 15701 H 1448.06 4.14542 -0.470199 0
M  V30 15702 H 1446.69 3.22179 0.20019 0
M  V30 15703 H 1445.74 3.09169 -2.21627 0
M  V30 15704 H 1447.05 4.17789 -2.72496 0
M  V30 15705 H 1446.21 5.95208 -1.17525 0
M  V30 15706 H 1444.95 4.84426 -0.564191 0
M  V30 15707 H 1443.95 4.69308 -2.86409 0
M  V30 15708 H 1445.18 5.83534 -3.47368 0
M  V30 15709 H 1443.12 6.428 -1.30934 0
M  V30 15710 H 1443.04 6.95749 -2.95753 0
M  V30 15711 H 1444.31 7.55278 -1.92809 0
M  V30 15712 N 1448.54 1.07657 1.15099 0
M  V30 15713 C 1449.5 0.703558 2.18135 0
M  V30 15714 C 1450.5 -0.257771 1.5872 0
M  V30 15715 O 1451.69 -0.0383211 1.74158 0
M  V30 15716 C 1448.82 0.0374978 3.40879 0
M  V30 15717 H 1450.02 1.61583 2.52648 0
M  V30 15718 H 1447.57 0.873484 1.29615 0
M  V30 15719 H 1448.3 -0.886868 3.11938 0
M  V30 15720 H 1448.09 0.728961 3.85264 0
M  V30 15721 H 1449.58 -0.208714 4.17078 0
M  V30 15722 N 1450.02 -1.31994 0.861122 0
M  V30 15723 C 1451.24 -2.01211 0.481865 0
M  V30 15724 C 1451.66 -1.64687 -0.923233 0
M  V30 15725 O 1451.02 -0.87151 -1.60346 0
M  V30 15726 C 1451.07 -3.56162 0.618919 0
M  V30 15727 O 1450.79 -3.91376 1.96868 0
M  V30 15728 C 1452.29 -4.42652 0.239514 0
M  V30 15729 H 1449.51 -0.643922 0.188693 0
M  V30 15730 H 1452.05 -1.68427 1.15985 0
M  V30 15731 H 1450.21 -3.87398 -0.0114042 0
M  V30 15732 H 1450.62 -4.86095 1.97008 0
M  V30 15733 H 1452.1 -5.50646 0.386394 0
M  V30 15734 H 1452.57 -4.31466 -0.820598 0
M  V30 15735 H 1453.18 -4.16818 0.845175 0
M  V30 15736 N 1451.49 -0.619688 -1.44906 0
M  V30 15737 C 1452.74 -0.119397 -2.01747 0
M  V30 15738 C 1453.06 1.25904 -1.48907 0
M  V30 15739 O 1452.33 1.83417 -0.688104 0
M  V30 15740 H 1450.91 -0.0411482 -0.745866 0
M  V30 15741 H 1453.58 -0.803813 -1.77552 0
M  V30 15742 H 1452.67 -0.078368 -3.12002 0
M  V30 15743 N 1452.97 1.53444 -0.359552 0
M  V30 15744 C 1454.2 2.05286 0.232615 0
M  V30 15745 C 1454.61 1.23322 1.43486 0
M  V30 15746 O 1453.95 0.265369 1.81773 0
M  V30 15747 C 1454.02 3.52698 0.695995 0
M  V30 15748 C 1453.68 4.55344 -0.388751 0
M  V30 15749 C 1454.68 5.04978 -1.23667 0
M  V30 15750 C 1452.36 4.9931 -0.547267 0
M  V30 15751 C 1454.36 5.97174 -2.2285 0
M  V30 15752 C 1452.04 5.91313 -1.54247 0
M  V30 15753 C 1453.04 6.40135 -2.38153 0
M  V30 15754 O 1452.73 7.30325 -3.35976 0
M  V30 15755 H 1452.46 0.674445 0.0458187 0
M  V30 15756 H 1455.01 1.98853 -0.514472 0
M  V30 15757 H 1453.24 3.5665 1.49459 0
M  V30 15758 H 1454.93 3.8743 1.21049 0
M  V30 15759 H 1455.7 4.71763 -1.12537 0
M  V30 15760 H 1451.58 4.609 0.0960246 0
M  V30 15761 H 1455.12 6.35204 -2.88378 0
M  V30 15762 H 1451.02 6.23942 -1.65427 0
M  V30 15763 H 1451.79 7.48305 -3.31635 0
M  V30 15764 N 1454.45 0.0885642 1.57351 0
M  V30 15765 C 1455.86 -0.441569 1.81403 0
M  V30 15766 C 1456.21 -1.68582 1.00372 0
M  V30 15767 O 1455.34 -2.15162 0.231153 0
M  V30 15768 C 1455.93 -0.807886 3.29027 0
M  V30 15769 C 1454.49 -1.2828 3.53866 0
M  V30 15770 C 1453.64 -0.276217 2.75921 0
M  V30 15771 H 1456.59 0.314083 1.55561 0
M  V30 15772 H 1456.61 -1.66797 3.41993 0
M  V30 15773 H 1456.12 0.0978886 3.87977 0
M  V30 15774 H 1454.22 -2.2065 3.0024 0
M  V30 15775 H 1454.34 -1.24914 4.62529 0
M  V30 15776 H 1452.7 -0.757007 2.4319 0
M  V30 15777 H 1453.48 0.622123 3.37616 0
M  V30 15778 N 1455.93 -1.56509 -0.185096 0
M  V30 15779 C 1456.86 -1.98363 -1.23184 0
M  V30 15780 C 1457.84 -0.85709 -1.46929 0
M  V30 15781 O 1459.02 -1.12216 -1.58497 0
M  V30 15782 C 1456.15 -2.33172 -2.57387 0
M  V30 15783 C 1455.11 -3.48658 -2.48236 0
M  V30 15784 C 1454.43 -3.69171 -3.86804 0
M  V30 15785 C 1455.73 -4.82538 -1.99885 0
M  V30 15786 H 1457.43 -2.86053 -0.883982 0
M  V30 15787 H 1454.97 -1.37623 -0.423786 0
M  V30 15788 H 1456.93 -2.61048 -3.30805 0
M  V30 15789 H 1455.65 -1.42377 -2.93933 0
M  V30 15790 H 1454.31 -3.20889 -1.77273 0
M  V30 15791 H 1453.96 -2.75689 -4.20719 0
M  V30 15792 H 1453.66 -4.46868 -3.81553 0
M  V30 15793 H 1455.18 -3.99433 -4.61829 0
M  V30 15794 H 1456.6 -5.0938 -2.63068 0
M  V30 15795 H 1454.99 -5.63775 -2.05614 0
M  V30 15796 H 1456.06 -4.75453 -0.952503 0
M  V30 15797 N 1457.41 0.45317 -1.50944 0
M  V30 15798 C 1458.37 1.5313 -1.7054 0
M  V30 15799 C 1459.37 1.50142 -0.575678 0
M  V30 15800 O 1460.56 1.52444 -0.842997 0
M  V30 15801 C 1457.69 2.92719 -1.74723 0
M  V30 15802 H 1458.88 1.37066 -2.66745 0
M  V30 15803 H 1456.44 0.680783 -1.40695 0
M  V30 15804 H 1457.17 3.14208 -0.802753 0
M  V30 15805 H 1456.96 2.96295 -2.56811 0
M  V30 15806 H 1458.45 3.7096 -1.91777 0
M  V30 15807 N 1458.88 1.40823 0.707568 0
M  V30 15808 C 1460.11 1.42659 1.49439 0
M  V30 15809 C 1460.52 0.0268475 1.89181 0
M  V30 15810 O 1459.87 -0.961444 1.56531 0
M  V30 15811 C 1459.93 2.26104 2.79494 0
M  V30 15812 C 1459.59 3.7442 2.62027 0
M  V30 15813 C 1460.59 4.66867 2.28759 0
M  V30 15814 C 1458.27 4.18328 2.78042 0
M  V30 15815 C 1460.27 6.01208 2.11727 0
M  V30 15816 C 1457.95 5.52736 2.60627 0
M  V30 15817 C 1458.95 6.43991 2.27518 0
M  V30 15818 O 1458.64 7.75921 2.10243 0
M  V30 15819 H 1458.37 0.488307 0.467475 0
M  V30 15820 H 1460.93 1.85607 0.879719 0
M  V30 15821 H 1459.16 1.77949 3.43323 0
M  V30 15822 H 1460.85 2.19785 3.41247 0
M  V30 15823 H 1461.61 4.34239 2.16012 0
M  V30 15824 H 1457.49 3.47612 3.02798 0
M  V30 15825 H 1461.03 6.724 1.85807 0
M  V30 15826 H 1456.93 5.84947 2.7296 0
M  V30 15827 H 1457.7 7.86938 2.251 0
M  V30 15828 N 1460.36 -0.94061 1.26453 0
M  V30 15829 C 1461.61 -1.68132 1.1142 0
M  V30 15830 C 1461.92 -1.92587 -0.342006 0
M  V30 15831 O 1463.13 -2.64489 -0.613018 0
M  V30 15832 C 1461.59 -3.02758 1.94591 0
M  V30 15833 C 1461.19 -2.86049 3.4479 0
M  V30 15834 C 1462.94 -3.80516 1.88169 0
M  V30 15835 C 1460.85 -4.1615 4.20206 0
M  V30 15836 H 1459.78 -0.630591 0.413366 0
M  V30 15837 H 1462.43 -1.04602 1.50767 0
M  V30 15838 H 1460.81 -3.67272 1.48078 0
M  V30 15839 H 1461.98 -2.3038 3.99076 0
M  V30 15840 H 1460.3 -2.21732 3.52454 0
M  V30 15841 H 1462.89 -4.76904 2.41799 0
M  V30 15842 H 1463.24 -4.07477 0.852531 0
M  V30 15843 H 1463.77 -3.22776 2.32509 0
M  V30 15844 H 1460.51 -3.94373 5.23593 0
M  V30 15845 H 1460.03 -4.71531 3.707 0
M  V30 15846 H 1461.71 -4.84602 4.28684 0
M  V30 15847 N 1461.84 -1.08266 -1.14527 0
M  V30 15848 C 1463.07 -0.832994 -1.89937 0
M  V30 15849 C 1463.49 0.608985 -1.77969 0
M  V30 15850 O 1462.85 1.42657 -1.11887 0
M  V30 15851 C 1462.9 -1.25782 -3.37952 0
M  V30 15852 O 1462 -0.408853 -4.10368 0
M  V30 15853 H 1461.34 -0.30267 -0.591005 0
M  V30 15854 H 1463.87 -1.44371 -1.44977 0
M  V30 15855 H 1463.88 -1.23804 -3.88763 0
M  V30 15856 H 1462.56 -2.30804 -3.4598 0
M  V30 15857 H 1461.13 -0.49192 -3.69641 0
M  V30 15858 N 1463.32 1.31536 -0.86811 0
M  V30 15859 C 1464.28 2.26849 -0.327456 0
M  V30 15860 C 1465.28 1.52142 0.520514 0
M  V30 15861 O 1466.47 1.71044 0.330088 0
M  V30 15862 C 1463.6 3.36673 0.535174 0
M  V30 15863 H 1464.8 2.76184 -1.16886 0
M  V30 15864 H 1462.35 1.42437 -0.643545 0
M  V30 15865 H 1463.09 2.92627 1.39785 0
M  V30 15866 H 1462.87 3.92034 -0.0719835 0
M  V30 15867 H 1464.36 4.07658 0.905786 0
M  V30 15868 N 1464.8 0.627364 1.44575 0
M  V30 15869 C 1465.74 -0.0798044 2.30662 0
M  V30 15870 C 1466.71 -0.840528 1.43263 0
M  V30 15871 O 1467.9 -0.82232 1.7217 0
M  V30 15872 C 1465.04 -1.05796 3.28483 0
M  V30 15873 C 1464.15 -0.296052 4.30984 0
M  V30 15874 C 1463.29 -1.26569 5.15901 0
M  V30 15875 C 1462.33 -0.492722 6.10114 0
M  V30 15876 N 1461.46 -1.41263 6.87742 0
M  V30 15877 H 1466.3 0.660254 2.90594 0
M  V30 15878 H 1463.84 0.337382 1.43179 0
M  V30 15879 H 1465.8 -1.63842 3.83682 0
M  V30 15880 H 1464.43 -1.7652 2.7026 0
M  V30 15881 H 1463.48 0.400259 3.78288 0
M  V30 15882 H 1464.79 0.306149 4.9786 0
M  V30 15883 H 1463.95 -1.9176 5.75598 0
M  V30 15884 H 1462.69 -1.90182 4.4909 0
M  V30 15885 H 1461.69 0.172696 5.49529 0
M  V30 15886 H 1462.92 0.138634 6.78958 0
M  V30 15887 H 1460.86 -2.03604 6.23604 0
M  V30 15888 H 1460.78 -0.864362 7.51042 0
M  V30 15889 H 1462.05 -2.0535 7.51965 0
M  V30 15890 N 1466.28 -1.53251 0.367684 0
M  V30 15891 C 1467.52 -2.00469 -0.222481 0
M  V30 15892 C 1467.84 -1.259 -1.49695 0
M  V30 15893 O 1469.04 -1.63717 -2.16585 0
M  V30 15894 C 1467.5 -3.57113 -0.447018 0
M  V30 15895 C 1467.11 -4.40562 0.812946 0
M  V30 15896 C 1468.85 -4.12681 -0.994725 0
M  V30 15897 C 1466.76 -5.88763 0.557877 0
M  V30 15898 H 1465.69 -0.748974 -0.0869144 0
M  V30 15899 H 1468.34 -1.76927 0.48675 0
M  V30 15900 H 1466.72 -3.76818 -1.21756 0
M  V30 15901 H 1467.9 -4.3263 1.58644 0
M  V30 15902 H 1466.21 -3.96108 1.28403 0
M  V30 15903 H 1468.81 -5.2104 -1.20091 0
M  V30 15904 H 1469.15 -3.67408 -1.95748 0
M  V30 15905 H 1469.68 -3.96783 -0.284295 0
M  V30 15906 H 1466.42 -6.38317 1.49102 0
M  V30 15907 H 1465.94 -5.99539 -0.177082 0
M  V30 15908 H 1467.62 -6.46738 0.18419 0
M  V30 15909 N 1467.75 -0.0969077 -1.57302 0
M  V30 15910 C 1468.72 0.846895 -2.1298 0
M  V30 15911 C 1469.72 1.20962 -1.05947 0
M  V30 15912 O 1470.91 1.13876 -1.31826 0
M  V30 15913 C 1468.04 2.14215 -2.65188 0
M  V30 15914 H 1469.23 0.363398 -2.9769 0
M  V30 15915 H 1466.78 0.152107 -1.55558 0
M  V30 15916 H 1467.52 2.67046 -1.84002 0
M  V30 15917 H 1467.3 1.89176 -3.43445 0
M  V30 15918 H 1468.79 2.81728 -3.08252 0
M  V30 15919 N 1469.23 1.56605 0.176793 0
M  V30 15920 C 1470.16 1.99014 1.2213 0
M  V30 15921 C 1471.14 0.86487 1.46472 0
M  V30 15922 O 1472.33 1.13055 1.57899 0
M  V30 15923 C 1469.46 2.34534 2.56146 0
M  V30 15924 C 1468.41 3.4997 2.46384 0
M  V30 15925 C 1467.74 3.71217 3.8484 0
M  V30 15926 C 1469.04 4.83592 1.97323 0
M  V30 15927 H 1470.73 2.86517 0.8688 0
M  V30 15928 H 1468.28 1.37846 0.416481 0
M  V30 15929 H 1470.23 2.62799 3.29416 0
M  V30 15930 H 1468.95 1.43933 2.93174 0
M  V30 15931 H 1467.61 3.21824 1.75569 0
M  V30 15932 H 1467.26 2.77916 4.19251 0
M  V30 15933 H 1466.96 4.48885 3.79178 0
M  V30 15934 H 1468.49 4.01877 4.59704 0
M  V30 15935 H 1469.9 5.10768 2.60363 0
M  V30 15936 H 1468.3 5.64858 2.02622 0
M  V30 15937 H 1469.37 4.75951 0.927275 0
M  V30 15938 N 1470.71 -0.445159 1.51182 0
M  V30 15939 C 1471.96 -1.19288 1.6314 0
M  V30 15940 C 1472.28 -1.91904 0.346109 0
M  V30 15941 O 1471.55 -1.8523 -0.637695 0
M  V30 15942 H 1470.13 -0.443319 0.601229 0
M  V30 15943 H 1472.79 -0.511136 1.88078 0
M  V30 15944 H 1471.89 -1.92672 2.45528 0
M  V30 15945 N 1472.19 -1.41197 -0.700089 0
M  V30 15946 C 1473.42 -1.43449 -1.4868 0
M  V30 15947 C 1473.83 -0.0368799 -1.89164 0
M  V30 15948 O 1473.17 0.953129 -1.57039 0
M  V30 15949 C 1473.23 -2.27583 -2.78291 0
M  V30 15950 C 1472.89 -3.75805 -2.60038 0
M  V30 15951 C 1473.89 -4.68074 -2.2628 0
M  V30 15952 C 1471.58 -4.19796 -2.75819 0
M  V30 15953 C 1473.57 -6.02322 -2.08535 0
M  V30 15954 C 1471.26 -5.5411 -2.57692 0
M  V30 15955 C 1472.26 -6.45189 -2.24099 0
M  V30 15956 O 1471.94 -7.77025 -2.06125 0
M  V30 15957 H 1471.68 -0.490779 -0.464879 0
M  V30 15958 H 1474.23 -1.86071 -0.869864 0
M  V30 15959 H 1472.46 -1.79767 -3.42375 0
M  V30 15960 H 1474.15 -2.21591 -3.40077 0
M  V30 15961 H 1474.91 -4.35379 -2.13707 0
M  V30 15962 H 1470.79 -3.49213 -3.0095 0
M  V30 15963 H 1474.34 -6.73376 -1.82238 0
M  V30 15964 H 1470.23 -5.86386 -2.69854 0
M  V30 15965 H 1471 -7.88121 -2.20924 0
M  V30 15966 N 1473.67 0.933891 -1.2695 0
M  V30 15967 C 1474.94 1.65874 -1.0366 0
M  V30 15968 C 1475.32 2.0666 0.43066 0
M  V30 15969 O 1474.67 1.79606 1.41259 0
M  V30 15970 C 1474.88 2.86546 -1.99229 0
M  V30 15971 C 1476.23 3.58031 -2.28251 0
M  V30 15972 O 1477.25 2.96663 -1.97154 0
M  V30 15973 O 1476.11 4.68583 -2.81233 0
M  V30 15974 H 1473.21 0.72673 -0.394706 0
M  V30 15975 H 1475.75 0.984975 -1.38189 0
M  V30 15976 H 1474.52 2.53351 -2.9821 0
M  V30 15977 H 1474.15 3.61645 -1.65224 0
M  V30 15978 N 1475.14 1.08871 1.13951 0
M  V30 15979 C 1476.07 0.744715 2.21306 0
M  V30 15980 C 1477.05 -0.275019 1.67862 0
M  V30 15981 O 1478.24 -0.144339 1.93663 0
M  V30 15982 C 1475.37 0.158336 3.46939 0
M  V30 15983 C 1474.32 1.10695 4.13438 0
M  V30 15984 C 1473.65 0.382552 5.3333 0
M  V30 15985 C 1474.95 2.44704 4.61429 0
M  V30 15986 H 1476.64 1.6423 2.50337 0
M  V30 15987 H 1474.19 0.791088 1.20324 0
M  V30 15988 H 1476.14 -0.0943587 4.21294 0
M  V30 15989 H 1474.87 -0.774413 3.17286 0
M  V30 15990 H 1473.53 1.34482 3.41043 0
M  V30 15991 H 1473.17 -0.554153 4.99938 0
M  V30 15992 H 1472.87 1.01499 5.78767 0
M  V30 15993 H 1474.4 0.138023 6.10444 0
M  V30 15994 H 1475.81 2.25156 5.27236 0
M  V30 15995 H 1474.21 3.03684 5.17586 0
M  V30 15996 H 1475.28 3.05883 3.76249 0
M  V30 15997 N 1476.62 -1.31073 0.875073 0
M  V30 15998 C 1477.87 -1.95791 0.484661 0
M  V30 15999 C 1478.18 -1.69907 -0.969074 0
M  V30 16000 O 1479.39 -2.28527 -1.46587 0
M  V30 16001 C 1477.85 -3.50532 0.815804 0
M  V30 16002 C 1477.45 -3.85249 2.28664 0
M  V30 16003 C 1479.2 -4.21615 0.494111 0
M  V30 16004 C 1477.1 -5.33124 2.55993 0
M  V30 16005 H 1476.03 -0.732806 0.177516 0
M  V30 16006 H 1478.69 -1.49169 1.06868 0
M  V30 16007 H 1477.07 -3.95673 0.16098 0
M  V30 16008 H 1478.24 -3.51051 2.98496 0
M  V30 16009 H 1476.56 -3.27244 2.57488 0
M  V30 16010 H 1479.15 -5.30417 0.675456 0
M  V30 16011 H 1479.5 -4.12437 -0.565815 0
M  V30 16012 H 1480.03 -3.82125 1.1057 0
M  V30 16013 H 1476.77 -5.47343 3.60688 0
M  V30 16014 H 1476.29 -5.68657 1.90761 0
M  V30 16015 H 1477.97 -6.00446 2.40984 0
M  V30 16016 N 1478.1 -0.635022 -1.4424 0
M  V30 16017 C 1479.33 -0.146549 -2.06882 0
M  V30 16018 C 1479.75 1.17143 -1.4717 0
M  V30 16019 O 1479.11 1.71952 -0.574636 0
M  V30 16020 C 1479.16 -0.0494694 -3.60566 0
M  V30 16021 O 1478.26 0.993423 -4.00256 0
M  V30 16022 H 1477.6 -0.0865505 -0.658335 0
M  V30 16023 H 1480.13 -0.872803 -1.85049 0
M  V30 16024 H 1480.14 0.139839 -4.0776 0
M  V30 16025 H 1478.82 -1.01169 -4.03407 0
M  V30 16026 H 1477.39 0.778372 -3.64686 0
M  V30 16027 N 1479.58 1.53054 -0.375806 0
M  V30 16028 C 1480.51 2.28973 0.45754 0
M  V30 16029 C 1481.49 1.31812 1.07516 0
M  V30 16030 O 1482.67 1.60693 1.09048 0
M  V30 16031 C 1479.8 3.08657 1.59212 0
M  V30 16032 C 1478.76 4.1359 1.10123 0
M  V30 16033 C 1478.08 4.81417 2.32684 0
M  V30 16034 C 1479.38 5.21994 0.17872 0
M  V30 16035 H 1481.08 2.98883 -0.175872 0
M  V30 16036 H 1478.62 1.43743 -0.0860253 0
M  V30 16037 H 1480.58 3.6052 2.18182 0
M  V30 16038 H 1479.3 2.36456 2.25291 0
M  V30 16039 H 1477.96 3.62688 0.534151 0
M  V30 16040 H 1477.61 4.05778 2.97243 0
M  V30 16041 H 1477.31 5.52332 2.00506 0
M  V30 16042 H 1478.83 5.36079 2.92322 0
M  V30 16043 H 1480.25 5.69298 0.676204 0
M  V30 16044 H 1478.64 6.00077 -0.0526605 0
M  V30 16045 H 1479.71 4.78646 -0.776246 0
M  V30 16046 N 1481.06 0.105248 1.57248 0
M  V30 16047 C 1482 -0.850012 2.14577 0
M  V30 16048 C 1482.97 -1.27294 1.06703 0
M  V30 16049 O 1484.16 -1.35289 1.34542 0
M  V30 16050 C 1481.3 -2.09993 2.73856 0
M  V30 16051 C 1480.41 -1.72662 3.95995 0
M  V30 16052 C 1479.55 -2.92517 4.43404 0
M  V30 16053 C 1478.59 -2.5136 5.58108 0
M  V30 16054 N 1477.72 -3.64082 6.00324 0
M  V30 16055 H 1482.56 -0.354282 2.95887 0
M  V30 16056 H 1480.1 -0.163192 1.46192 0
M  V30 16057 H 1482.06 -2.83208 3.06348 0
M  V30 16058 H 1480.69 -2.57048 1.95259 0
M  V30 16059 H 1479.74 -0.893754 3.69752 0
M  V30 16060 H 1481.05 -1.38406 4.79213 0
M  V30 16061 H 1480.21 -3.73973 4.77734 0
M  V30 16062 H 1478.94 -3.2999 3.59107 0
M  V30 16063 H 1477.95 -1.68333 5.23397 0
M  V30 16064 H 1479.17 -2.15019 6.44161 0
M  V30 16065 H 1477.12 -4.01255 5.18971 0
M  V30 16066 H 1477.04 -3.33705 6.78363 0
M  V30 16067 H 1478.31 -4.46019 6.39287 0
M  V30 16068 N 1482.53 -1.56697 -0.168486 0
M  V30 16069 C 1483.48 -1.9755 -1.22787 0
M  V30 16070 C 1484.48 -0.864668 -1.4567 0
M  V30 16071 O 1485.68 -1.04979 -1.46217 0
M  V30 16072 H 1482.06 -0.628561 -0.412813 0
M  V30 16073 H 1484.03 -2.85845 -0.85646 0
M  V30 16074 C 1482.78 -2.35394 -2.559 0
M  V30 16075 H 1482.1 -3.20412 -2.39115 0
M  V30 16076 H 1483.54 -2.67821 -3.28706 0
M  V30 16077 C 1482 -1.19842 -3.14864 0
M  V30 16078 O 1482.53 -0.487601 -3.9873 0
M  V30 16079 N 1480.74 -0.968249 -2.73995 0
M  V30 16080 H 1480.28 -1.54804 -2.05897 0
M  V30 16081 H 1480.24 -0.196951 -3.13783 0
M  V30 16082 N 1484.01 0.437135 -1.51416 0
M  V30 16083 C 1485.24 1.21359 -1.68187 0
M  V30 16084 C 1485.66 1.84247 -0.378748 0
M  V30 16085 O 1485.02 1.68816 0.661115 0
M  V30 16086 C 1485.07 2.27319 -2.79926 0
M  V30 16087 O 1484.17 3.32807 -2.43543 0
M  V30 16088 H 1483.51 0.355547 -0.560787 0
M  V30 16089 H 1486.04 0.516204 -1.97981 0
M  V30 16090 H 1486.05 2.721 -3.04016 0
M  V30 16091 H 1484.73 1.80923 -3.74486 0
M  V30 16092 H 1483.31 2.93501 -2.30025 0
M  V30 16093 N 1485.49 1.41566 0.692592 0
M  V30 16094 C 1486.74 1.40381 1.44831 0
M  V30 16095 C 1487.05 0.0172068 1.95592 0
M  V30 16096 O 1488.26 -0.11726 2.71247 0
M  V30 16097 C 1486.71 2.46844 2.61908 0
M  V30 16098 C 1486.32 3.91426 2.17921 0
M  V30 16099 C 1488.07 2.548 3.39525 0
M  V30 16100 C 1485.97 4.89436 3.31974 0
M  V30 16101 H 1484.9 0.522062 0.544028 0
M  V30 16102 H 1487.55 1.67402 0.751589 0
M  V30 16103 H 1485.94 2.12959 3.33863 0
M  V30 16104 H 1487.11 4.34575 1.53236 0
M  V30 16105 H 1485.43 3.87158 1.5329 0
M  V30 16106 H 1488.02 3.25207 4.24434 0
M  V30 16107 H 1488.37 1.58579 3.84913 0
M  V30 16108 H 1488.9 2.87791 2.74629 0
M  V30 16109 H 1485.64 5.87071 2.91595 0
M  V30 16110 H 1485.16 4.50933 3.95499 0
M  V30 16111 H 1486.84 5.10331 3.97708 0
M  V30 16112 N 1486.97 -0.927146 1.27443 0
M  V30 16113 C 1488.2 -1.70896 1.16629 0
M  V30 16114 C 1488.61 -1.8676 -0.276811 0
M  V30 16115 O 1487.97 -1.38503 -1.18842 0
M  V30 16116 C 1488.02 -3.1083 1.84573 0
M  V30 16117 O 1487.74 -2.9571 3.23244 0
M  V30 16118 C 1489.24 -4.05159 1.79891 0
M  V30 16119 H 1486.46 -0.534638 0.405467 0
M  V30 16120 H 1489.01 -1.16134 1.68325 0
M  V30 16121 H 1487.16 -3.6245 1.3678 0
M  V30 16122 H 1487.57 -3.84181 3.57079 0
M  V30 16123 H 1489.05 -5.00859 2.32044 0
M  V30 16124 H 1489.53 -4.32426 0.768373 0
M  V30 16125 H 1490.13 -3.59464 2.273 0
M  V30 16126 N 1488.45 -1.09474 -1.13372 0
M  V30 16127 C 1489.39 -0.73458 -2.18798 0
M  V30 16128 C 1490.36 0.284433 -1.63647 0
M  V30 16129 O 1491.55 0.165958 -1.90077 0
M  V30 16130 C 1488.69 -0.161826 -3.4472 0
M  V30 16131 C 1487.8 -1.23494 -4.13973 0
M  V30 16132 C 1486.94 -0.624886 -5.27512 0
M  V30 16133 C 1485.98 -1.67927 -5.88614 0
M  V30 16134 N 1485.11 -1.09021 -6.93584 0
M  V30 16135 H 1489.95 -1.63787 -2.48954 0
M  V30 16136 H 1487.49 -0.818297 -1.22239 0
M  V30 16137 H 1489.45 0.188053 -4.16776 0
M  V30 16138 H 1488.08 0.70473 -3.15013 0
M  V30 16139 H 1487.13 -1.70209 -3.40196 0
M  V30 16140 H 1488.44 -2.0335 -4.55467 0
M  V30 16141 H 1487.6 -0.22388 -6.06287 0
M  V30 16142 H 1486.33 0.205214 -4.87268 0
M  V30 16143 H 1485.34 -2.08982 -5.08534 0
M  V30 16144 H 1486.56 -2.51204 -6.3093 0
M  V30 16145 H 1484.51 -0.281401 -6.55396 0
M  V30 16146 H 1484.43 -1.82573 -7.33623 0
M  V30 16147 H 1485.7 -0.715428 -7.7621 0
M  V30 16148 N 1489.92 1.30607 -0.882012 0
M  V30 16149 C 1490.87 2.2821 -0.344826 0
M  V30 16150 C 1491.84 1.56254 0.563361 0
M  V30 16151 O 1493.03 1.84336 0.492416 0
M  V30 16152 C 1490.17 3.42319 0.437216 0
M  V30 16153 C 1489.28 4.29098 -0.499851 0
M  V30 16154 C 1488.41 5.30366 0.297497 0
M  V30 16155 C 1487.45 6.08795 -0.63523 0
M  V30 16156 N 1486.59 7.01986 0.12661 0
M  V30 16157 H 1491.43 2.73543 -1.18229 0
M  V30 16158 H 1488.97 1.34556 -0.594392 0
M  V30 16159 H 1490.93 4.07232 0.906521 0
M  V30 16160 H 1489.56 2.98063 1.23928 0
M  V30 16161 H 1488.61 3.6452 -1.08764 0
M  V30 16162 H 1489.92 4.83787 -1.21454 0
M  V30 16163 H 1489.07 6.01013 0.828786 0
M  V30 16164 H 1487.81 4.76364 1.04542 0
M  V30 16165 H 1486.82 5.37028 -1.17817 0
M  V30 16166 H 1488.04 6.64885 -1.3822 0
M  V30 16167 H 1485.99 6.50376 0.857125 0
M  V30 16168 H 1485.91 7.5415 -0.528512 0
M  V30 16169 H 1487.17 7.76879 0.638738 0
M  V30 16170 N 1491.4 0.642663 1.43901 0
M  V30 16171 C 1492.63 0.159202 2.06287 0
M  V30 16172 C 1493.05 -1.17091 1.48105 0
M  V30 16173 O 1492.4 -1.72064 0.608302 0
M  V30 16174 C 1492.45 0.0506891 3.61464 0
M  V30 16175 O 1492.17 1.32821 4.17481 0
M  V30 16176 C 1493.68 -0.460103 4.40906 0
M  V30 16177 H 1490.9 0.085003 0.665594 0
M  V30 16178 H 1493.44 0.880328 1.84582 0
M  V30 16179 H 1491.59 -0.620938 3.82391 0
M  V30 16180 H 1492.01 1.18053 5.11042 0
M  V30 16181 H 1493.48 -0.48501 5.49865 0
M  V30 16182 H 1493.96 -1.4894 4.13175 0
M  V30 16183 H 1494.57 0.178668 4.24925 0
M  V30 16184 N 1492.88 -1.52852 0.383918 0
M  V30 16185 C 1494.11 -2.05929 -0.200216 0
M  V30 16186 C 1494.52 -1.25606 -1.40956 0
M  V30 16187 O 1493.88 -0.301336 -1.79995 0
M  V30 16188 C 1493.93 -3.56887 -0.575655 0
M  V30 16189 O 1493.65 -4.34168 0.58564 0
M  V30 16190 C 1495.15 -4.2629 -1.21623 0
M  V30 16191 H 1492.37 -0.670261 -0.0314727 0
M  V30 16192 H 1494.92 -1.97032 0.547591 0
M  V30 16193 H 1493.07 -3.65875 -1.27336 0
M  V30 16194 H 1493.49 -5.23761 0.278267 0
M  V30 16195 H 1494.96 -5.33174 -1.42933 0
M  V30 16196 H 1495.44 -3.81163 -2.182 0
M  V30 16197 H 1496.04 -4.21605 -0.559435 0
M  V30 16198 N 1494.36 -0.113586 -1.5719 0
M  V30 16199 C 1495.32 0.824258 -2.13866 0
M  V30 16200 C 1496.32 1.19831 -1.07224 0
M  V30 16201 O 1497.51 1.12471 -1.33026 0
M  V30 16202 C 1494.64 2.11391 -2.67445 0
M  V30 16203 H 1495.84 0.331803 -2.98059 0
M  V30 16204 H 1493.39 0.135599 -1.55711 0
M  V30 16205 H 1494.13 2.65079 -1.86824 0
M  V30 16206 H 1493.91 1.85523 -3.45433 0
M  V30 16207 H 1495.4 2.78443 -3.11222 0
M  V30 16208 N 1495.84 1.56784 0.160173 0
M  V30 16209 C 1497.08 1.84422 0.881348 0
M  V30 16210 C 1497.44 0.696069 1.78938 0
M  V30 16211 O 1498.64 0.853174 2.54901 0
M  V30 16212 C 1496.91 3.17208 1.64662 0
M  V30 16213 S 1498.47 3.66363 2.41503 0
M  V30 16214 H 1495.29 0.646923 0.294978 0
M  V30 16215 H 1497.89 1.94982 0.142215 0
M  V30 16216 H 1496.6 3.98753 0.970782 0
M  V30 16217 H 1496.13 3.0962 2.42692 0
M  V30 16218 H 1498.14 3.34577 3.66432 0
M  V30 16219 N 1497.32 -0.429099 1.51646 0
M  V30 16220 C 1498.56 -1.17784 1.64722 0
M  V30 16221 C 1498.89 -1.90998 0.367415 0
M  V30 16222 O 1498.15 -1.8463 -0.648862 0
M  V30 16223 C 1498.44 -2.2131 2.80636 0
M  V30 16224 C 1498.11 -1.65048 4.19607 0
M  V30 16225 C 1496.77 -1.49428 4.57411 0
M  V30 16226 C 1499.12 -1.23765 5.06292 0
M  V30 16227 C 1496.45 -0.910109 5.79598 0
M  V30 16228 C 1498.8 -0.667743 6.29066 0
M  V30 16229 C 1497.47 -0.498507 6.65636 0
M  V30 16230 H 1496.74 -0.431001 0.60276 0
M  V30 16231 H 1499.39 -0.46775 1.857 0
M  V30 16232 H 1497.69 -2.98388 2.53913 0
M  V30 16233 H 1499.39 -2.79079 2.87951 0
M  V30 16234 H 1495.98 -1.78185 3.89805 0
M  V30 16235 H 1500.16 -1.3465 4.77685 0
M  V30 16236 H 1495.42 -0.766825 6.06572 0
M  V30 16237 H 1499.59 -0.339377 6.95573 0
M  V30 16238 H 1497.22 -0.0437292 7.60187 0
M  V30 16239 N 1498.79 -1.41931 -0.685074 0
M  V30 16240 C 1499.7 -1.46985 -1.82846 0
M  V30 16241 C 1500.72 -0.359487 -1.70246 0
M  V30 16242 O 1501.9 -0.608824 -1.91977 0
M  V30 16243 C 1498.96 -1.36001 -3.18912 0
M  V30 16244 C 1498.02 -2.57442 -3.43543 0
M  V30 16245 C 1497.25 -2.46972 -4.73118 0
M  V30 16246 O 1497.48 -1.49999 -5.50324 0
M  V30 16247 O 1496.41 -3.36922 -4.98766 0
M  V30 16248 H 1500.24 -2.4347 -1.81538 0
M  V30 16249 H 1497.82 -1.23583 -0.839497 0
M  V30 16250 H 1499.7 -1.32198 -4.00127 0
M  V30 16251 H 1498.38 -0.426366 -3.2088 0
M  V30 16252 H 1497.29 -2.66821 -2.62217 0
M  V30 16253 H 1498.62 -3.49671 -3.46398 0
M  V30 16254 N 1500.27 0.920374 -1.27933 0
M  V30 16255 C 1501.68 1.48385 -1.13309 0
M  V30 16256 C 1502.03 1.94202 0.279307 0
M  V30 16257 O 1501.16 1.81855 1.17294 0
M  V30 16258 C 1501.75 2.69681 -2.05079 0
M  V30 16259 C 1500.31 3.22229 -1.94539 0
M  V30 16260 C 1499.46 1.94948 -1.97207 0
M  V30 16261 H 1502.41 0.733744 -1.40719 0
M  V30 16262 H 1502.43 3.44717 -1.6109 0
M  V30 16263 H 1501.94 2.36304 -3.07867 0
M  V30 16264 H 1500.04 3.60348 -0.94764 0
M  V30 16265 H 1500.16 3.87927 -2.81157 0
M  V30 16266 H 1498.52 2.1176 -1.41527 0
M  V30 16267 H 1499.3 1.63875 -3.01662 0
M  V30 16268 N 1501.75 1.10074 1.1279 0
M  V30 16269 C 1502.97 0.863106 1.88587 0
M  V30 16270 C 1503.4 -0.580595 1.78915 0
M  V30 16271 O 1502.76 -1.40859 1.14142 0
M  V30 16272 C 1502.81 1.31142 3.35908 0
M  V30 16273 O 1501.91 0.474088 4.09666 0
M  V30 16274 H 1501.25 0.312034 0.586115 0
M  V30 16275 H 1503.78 1.46659 1.42662 0
M  V30 16276 H 1503.79 1.29974 3.86744 0
M  V30 16277 H 1502.47 2.36279 3.42265 0
M  V30 16278 H 1501.04 0.550665 3.68812 0
M  V30 16279 N 1503.23 -1.30138 0.888926 0
M  V30 16280 C 1504.16 -2.3047 0.374934 0
M  V30 16281 C 1505.14 -1.61156 -0.544322 0
M  V30 16282 O 1506.32 -1.88738 -0.457337 0
M  V30 16283 C 1503.45 -3.44896 -0.407935 0
M  V30 16284 C 1502.41 -4.25935 0.419916 0
M  V30 16285 C 1501.73 -5.32452 -0.489797 0
M  V30 16286 C 1503.03 -4.9508 1.66413 0
M  V30 16287 H 1504.73 -2.73711 1.21337 0
M  V30 16288 H 1502.27 -1.31586 0.584899 0
M  V30 16289 H 1504.23 -4.14153 -0.778177 0
M  V30 16290 H 1502.95 -3.0047 -1.28005 0
M  V30 16291 H 1501.61 -3.58372 0.772348 0
M  V30 16292 H 1501.26 -4.84273 -1.35974 0
M  V30 16293 H 1500.96 -5.87569 0.0603412 0
M  V30 16294 H 1502.48 -6.04563 -0.856468 0
M  V30 16295 H 1503.9 -5.56831 1.36425 0
M  V30 16296 H 1502.29 -5.6008 2.15477 0
M  V30 16297 H 1503.36 -4.20981 2.4063 0
M  V30 16298 N 1504.71 -0.650285 -1.43559 0
M  V30 16299 C 1505.98 -0.0925343 -1.95381 0
M  V30 16300 C 1506.36 1.38668 -1.59168 0
M  V30 16301 O 1505.71 2.11069 -0.875324 0
M  V30 16302 C 1505.92 -0.335657 -3.47382 0
M  V30 16303 C 1507.27 -0.239032 -4.23927 0
M  V30 16304 O 1508.29 -0.268056 -3.5519 0
M  V30 16305 O 1507.15 -0.160241 -5.46265 0
M  V30 16306 H 1504.25 0.0113084 -0.826923 0
M  V30 16307 H 1506.79 -0.723319 -1.53513 0
M  V30 16308 H 1505.56 -1.36132 -3.66857 0
M  V30 16309 H 1505.19 0.328339 -3.96242 0
M  V30 16310 N 1506.18 1.52647 -0.392018 0
M  V30 16311 C 1507.41 2.05734 0.189018 0
M  V30 16312 C 1507.82 1.26338 1.40838 0
M  V30 16313 O 1507.16 0.303866 1.81169 0
M  V30 16314 C 1507.23 3.54095 0.621026 0
M  V30 16315 C 1506.89 4.54416 -0.485249 0
M  V30 16316 C 1507.89 5.02241 -1.3435 0
M  V30 16317 C 1505.57 4.98037 -0.653055 0
M  V30 16318 C 1507.57 5.92313 -2.35467 0
M  V30 16319 C 1505.25 5.87908 -1.66755 0
M  V30 16320 C 1506.25 6.34939 -2.51677 0
M  V30 16321 O 1505.94 7.23034 -3.51392 0
M  V30 16322 H 1505.67 0.675266 0.0315024 0
M  V30 16323 H 1508.23 1.97717 -0.556535 0
M  V30 16324 H 1506.46 3.5974 1.4186 0
M  V30 16325 H 1508.14 3.8991 1.12804 0
M  V30 16326 H 1508.91 4.6927 -1.22518 0
M  V30 16327 H 1504.79 4.61 -0.00176071 0
M  V30 16328 H 1508.33 6.28944 -3.01786 0
M  V30 16329 H 1504.23 6.20293 -1.78624 0
M  V30 16330 H 1505 7.41102 -3.47433 0
M  V30 16331 N 1507.66 0.121921 1.57128 0
M  V30 16332 C 1508.91 -0.535201 1.9447 0
M  V30 16333 C 1509.22 -1.67644 1.00772 0
M  V30 16334 O 1510.43 -2.39651 1.27592 0
M  V30 16335 C 1508.89 -1.00346 3.45628 0
M  V30 16336 C 1508.49 0.109473 4.47866 0
M  V30 16337 C 1510.24 -1.63179 3.91884 0
M  V30 16338 C 1508.15 -0.375651 5.90206 0
M  V30 16339 H 1507.08 -0.203702 0.725962 0
M  V30 16340 H 1509.73 0.202243 1.82382 0
M  V30 16341 H 1508.11 -1.79541 3.5296 0
M  V30 16342 H 1509.28 0.885815 4.52206 0
M  V30 16343 H 1507.6 0.644642 4.1138 0
M  V30 16344 H 1510.19 -2.00594 4.95647 0
M  V30 16345 H 1510.54 -2.5113 3.32023 0
M  V30 16346 H 1511.07 -0.905197 3.87364 0
M  V30 16347 H 1507.81 0.46788 6.53828 0
M  V30 16348 H 1507.33 -1.11841 5.89281 0
M  V30 16349 H 1509.01 -0.835921 6.41577 0
M  V30 16350 N 1509.14 -1.56867 -0.151857 0
M  V30 16351 C 1510.37 -1.87237 -0.880343 0
M  V30 16352 C 1510.78 -0.709565 -1.74959 0
M  V30 16353 O 1510.14 0.320818 -1.79658 0
M  V30 16354 C 1510.19 -3.16811 -1.74107 0
M  V30 16355 O 1509.91 -4.28611 -0.906858 0
M  V30 16356 C 1511.41 -3.60662 -2.57755 0
M  V30 16357 H 1508.63 -0.62074 -0.254799 0
M  V30 16358 H 1511.18 -2.03977 -0.146104 0
M  V30 16359 H 1509.33 -3.01838 -2.42842 0
M  V30 16360 H 1509.75 -5.02673 -1.49733 0
M  V30 16361 H 1511.22 -4.54176 -3.13732 0
M  V30 16362 H 1511.7 -2.85716 -3.33561 0
M  V30 16363 H 1512.3 -3.78312 -1.94319 0
M  V30 16364 N 1510.62 0.421051 -1.51871 0
M  V30 16365 C 1511.85 1.1911 -1.69175 0
M  V30 16366 C 1512.26 1.84599 -0.39606 0
M  V30 16367 O 1511.62 1.71395 0.626907 0
M  V30 16368 C 1511.67 2.26309 -2.81898 0
M  V30 16369 O 1511.39 1.63496 -4.06449 0
M  V30 16370 C 1512.89 3.16285 -3.10611 0
M  V30 16371 H 1510.11 0.358385 -0.567275 0
M  V30 16372 H 1512.66 0.496919 -1.98371 0
M  V30 16373 H 1510.81 2.91416 -2.55255 0
M  V30 16374 H 1511.22 2.3447 -4.69174 0
M  V30 16375 H 1512.7 3.87601 -3.93026 0
M  V30 16376 H 1513.18 3.77976 -2.23676 0
M  V30 16377 H 1513.78 2.5686 -3.38973 0
M  V30 16378 N 1512.1 1.42293 0.677538 0
M  V30 16379 C 1513.04 1.45556 1.79114 0
M  V30 16380 C 1514.01 0.307826 1.63223 0
M  V30 16381 O 1515.2 0.511504 1.83816 0
M  V30 16382 C 1512.34 1.36104 3.17127 0
M  V30 16383 C 1511.45 2.60891 3.44325 0
M  V30 16384 C 1510.59 2.43601 4.72051 0
M  V30 16385 C 1509.63 3.63775 4.92274 0
M  V30 16386 N 1508.76 3.45444 6.11239 0
M  V30 16387 H 1513.6 2.40723 1.7566 0
M  V30 16388 H 1511.14 1.19517 0.857565 0
M  V30 16389 H 1513.1 1.28622 3.96878 0
M  V30 16390 H 1511.73 0.445342 3.19713 0
M  V30 16391 H 1510.78 2.78751 2.58848 0
M  V30 16392 H 1512.09 3.50229 3.55163 0
M  V30 16393 H 1511.25 2.33689 5.59888 0
M  V30 16394 H 1509.98 1.51748 4.63491 0
M  V30 16395 H 1508.99 3.74122 4.0288 0
M  V30 16396 H 1510.21 4.56605 5.02681 0
M  V30 16397 H 1508.16 2.56306 6.03857 0
M  V30 16398 H 1508.08 4.28368 6.22926 0
M  V30 16399 H 1509.35 3.39339 7.01762 0
M  V30 16400 N 1513.57 -0.913576 1.28419 0
M  V30 16401 C 1514.82 -1.65731 1.14961 0
M  V30 16402 C 1515.14 -1.93269 -0.301079 0
M  V30 16403 O 1516.34 -2.6573 -0.556778 0
M  V30 16404 C 1514.8 -2.98562 2.00969 0
M  V30 16405 C 1514.41 -2.78671 3.5078 0
M  V30 16406 C 1516.15 -3.76439 1.96198 0
M  V30 16407 C 1514.06 -4.07144 4.28938 0
M  V30 16408 H 1512.99 -0.621681 0.426648 0
M  V30 16409 H 1515.64 -1.0138 1.52952 0
M  V30 16410 H 1514.02 -3.64049 1.55835 0
M  V30 16411 H 1515.19 -2.21864 4.03873 0
M  V30 16412 H 1513.51 -2.14206 3.57078 0
M  V30 16413 H 1516.11 -4.71668 2.51861 0
M  V30 16414 H 1516.45 -4.05577 0.938771 0
M  V30 16415 H 1516.98 -3.17772 2.39303 0
M  V30 16416 H 1513.72 -3.83178 5.31841 0
M  V30 16417 H 1513.24 -4.63562 3.80619 0
M  V30 16418 H 1514.92 -4.754 4.38866 0
M  V30 16419 N 1515.05 -1.1067 -1.12204 0
M  V30 16420 C 1516.46 -0.867959 -1.65298 0
M  V30 16421 C 1516.81 0.601297 -1.86759 0
M  V30 16422 O 1515.94 1.46153 -1.59588 0
M  V30 16423 C 1516.53 -1.56906 -3.00276 0
M  V30 16424 C 1515.09 -1.37696 -3.5031 0
M  V30 16425 C 1514.24 -1.61688 -2.25282 0
M  V30 16426 H 1517.19 -1.26408 -0.959521 0
M  V30 16427 H 1517.21 -1.00947 -3.66865 0
M  V30 16428 H 1516.72 -2.63838 -2.84625 0
M  V30 16429 H 1514.83 -0.329381 -3.71141 0
M  V30 16430 H 1514.94 -2.12058 -4.29614 0
M  V30 16431 H 1513.3 -1.03977 -2.3251 0
M  V30 16432 H 1514.09 -2.69877 -2.12182 0
M  V30 16433 N 1516.53 1.29665 -0.895815 0
M  V30 16434 C 1517.95 1.4824 -0.591355 0
M  V30 16435 C 1518.15 1.81839 0.86815 0
M  V30 16436 O 1517.2 1.91251 1.64861 0
M  V30 16437 C 1518.52 2.59814 -1.51384 0
M  V30 16438 C 1520.06 2.73691 -1.51862 0
M  V30 16439 C 1520.54 3.8839 -2.42729 0
M  V30 16440 N 1522.03 3.95717 -2.40754 0
M  V30 16441 C 1522.76 4.83804 -3.07769 0
M  V30 16442 N 1522.26 5.7661 -3.84048 0
M  V30 16443 N 1524.05 4.77263 -2.96946 0
M  V30 16444 H 1516.2 1.06131 -1.83984 0
M  V30 16445 H 1518.47 0.526819 -0.788141 0
M  V30 16446 H 1518.17 2.4184 -2.55355 0
M  V30 16447 H 1518.05 3.56532 -1.23147 0
M  V30 16448 H 1520.43 2.91064 -0.486375 0
M  V30 16449 H 1520.52 1.77561 -1.84135 0
M  V30 16450 H 1520.16 3.71773 -3.46045 0
M  V30 16451 H 1520.09 4.8388 -2.07767 0
M  V30 16452 H 1522.58 3.29334 -1.8533 0
M  V30 16453 H 1522.89 6.40611 -4.32247 0
M  V30 16454 H 1521.24 5.76507 -3.88155 0
M  V30 16455 H 1524.43 4.03744 -2.36871 0
M  V30 16456 H 1524.6 5.45701 -3.49448 0
M  V30 16457 N 1518.01 0.657889 1.43212 0
M  V30 16458 C 1519.25 0.182061 2.02584 0
M  V30 16459 C 1519.61 -1.19232 1.51002 0
M  V30 16460 O 1518.9 -1.78535 0.6954 0
M  V30 16461 C 1519.1 0.138025 3.57133 0
M  V30 16462 C 1518.93 1.5066 4.23712 0
M  V30 16463 C 1517.7 2.10015 4.59589 0
M  V30 16464 C 1519.89 2.44593 4.52414 0
M  V30 16465 N 1517.88 3.39828 5.11263 0
M  V30 16466 C 1519.25 3.59044 5.05457 0
M  V30 16467 C 1521.3 2.43337 4.34387 0
M  V30 16468 C 1520 4.7247 5.4237 0
M  V30 16469 C 1522.03 3.55846 4.72364 0
M  V30 16470 C 1521.39 4.69023 5.25544 0
M  V30 16471 H 1517.49 0.111158 0.774059 0
M  V30 16472 H 1520.08 0.867208 1.7432 0
M  V30 16473 H 1518.25 -0.516479 3.84951 0
M  V30 16474 H 1519.98 -0.34911 4.03191 0
M  V30 16475 H 1516.73 1.62676 4.44785 0
M  V30 16476 H 1517.16 4.06269 5.41548 0
M  V30 16477 H 1521.8 1.57072 3.92541 0
M  V30 16478 H 1519.52 5.59423 5.83157 0
M  V30 16479 H 1523.1 3.56081 4.60106 0
M  V30 16480 H 1521.98 5.54641 5.54385 0
M  V30 16481 N 1519.49 -1.52437 0.400108 0
M  V30 16482 C 1520.76 -1.94162 -0.23671 0
M  V30 16483 C 1521.14 -1.33636 -1.63416 0
M  V30 16484 O 1520.49 -0.508643 -2.22767 0
M  V30 16485 C 1520.7 -3.48088 -0.252159 0
M  V30 16486 C 1522.05 -4.21925 -0.475887 0
M  V30 16487 O 1523.07 -3.5465 -0.331905 0
M  V30 16488 O 1521.93 -5.41205 -0.758895 0
M  V30 16489 H 1519.03 -0.813294 -0.14994 0
M  V30 16490 H 1521.57 -1.63475 0.455399 0
M  V30 16491 H 1520.34 -3.84501 0.726263 0
M  V30 16492 H 1519.97 -3.8511 -0.988742 0
M  V30 16493 N 1520.96 -0.130252 -1.57061 0
M  V30 16494 C 1521.89 0.812189 -2.18919 0
M  V30 16495 C 1522.88 1.2692 -1.13249 0
M  V30 16496 O 1524.06 1.32978 -1.41529 0
M  V30 16497 C 1521.19 2.05803 -2.79754 0
M  V30 16498 C 1520.14 1.73841 -3.91105 0
M  V30 16499 C 1519.47 3.05549 -4.38799 0
M  V30 16500 C 1520.77 0.997991 -5.12677 0
M  V30 16501 H 1522.46 0.296692 -2.97926 0
M  V30 16502 H 1520.01 0.141265 -1.43305 0
M  V30 16503 H 1521.96 2.72201 -3.21691 0
M  V30 16504 H 1520.69 2.59697 -1.98053 0
M  V30 16505 H 1519.35 1.09828 -3.49762 0
M  V30 16506 H 1518.99 3.57399 -3.53942 0
M  V30 16507 H 1518.69 2.84932 -5.13894 0
M  V30 16508 H 1520.22 3.73045 -4.83394 0
M  V30 16509 H 1521.63 1.56372 -5.51562 0
M  V30 16510 H 1520.03 0.892378 -5.93428 0
M  V30 16511 H 1521.1 -0.0132936 -4.84898 0
M  V30 16512 N 1522.44 1.56945 0.143535 0
M  V30 16513 C 1523.39 1.99479 1.19628 0
M  V30 16514 C 1524.39 0.887733 1.44276 0
M  V30 16515 O 1525.59 1.07292 1.44528 0
M  V30 16516 H 1521.97 0.635049 0.402761 0
M  V30 16517 H 1523.94 2.87171 0.810877 0
M  V30 16518 C 1522.69 2.39436 2.52123 0
M  V30 16519 H 1522.01 3.24176 2.33987 0
M  V30 16520 H 1523.45 2.73017 3.24404 0
M  V30 16521 C 1521.91 1.24836 3.12918 0
M  V30 16522 O 1522.44 0.550973 3.97903 0
M  V30 16523 N 1520.64 1.01172 2.7242 0
M  V30 16524 H 1520.19 1.5806 2.03408 0
M  V30 16525 H 1520.15 0.246846 3.13429 0
M  V30 16526 N 1523.92 -0.412991 1.52093 0
M  V30 16527 C 1524.87 -1.50294 1.75158 0
M  V30 16528 C 1525.84 -1.55119 0.593902 0
M  V30 16529 O 1527.02 -1.71751 0.831032 0
M  V30 16530 C 1524.16 -2.87781 1.90463 0
M  V30 16531 C 1523.28 -2.92295 3.181 0
M  V30 16532 C 1522.41 -4.21056 3.23859 0
M  V30 16533 C 1521.45 -4.1953 4.45714 0
M  V30 16534 N 1520.59 -5.39857 4.48886 0
M  V30 16535 H 1525.43 -1.29927 2.68185 0
M  V30 16536 H 1522.96 -0.630741 1.32891 0
M  V30 16537 H 1524.92 -3.67588 1.9732 0
M  V30 16538 H 1523.55 -3.06651 1.00822 0
M  V30 16539 H 1522.6 -2.05002 3.20434 0
M  V30 16540 H 1523.92 -2.87031 4.0794 0
M  V30 16541 H 1523.07 -5.09253 3.29767 0
M  V30 16542 H 1521.81 -4.2901 2.31952 0
M  V30 16543 H 1520.81 -3.29724 4.39957 0
M  V30 16544 H 1522.04 -4.1322 5.38912 0
M  V30 16545 H 1519.99 -5.48486 3.59861 0
M  V30 16546 H 1519.9 -5.36572 5.32566 0
M  V30 16547 H 1521.17 -6.30018 4.59018 0
M  V30 16548 N 1525.4 -1.4265 -0.669982 0
M  V30 16549 C 1526.65 -1.43376 -1.43002 0
M  V30 16550 C 1526.97 -0.0519386 -1.94431 0
M  V30 16551 O 1526.23 0.940456 -1.71621 0
M  V30 16552 C 1526.53 -2.40913 -2.63999 0
M  V30 16553 C 1526.19 -3.87183 -2.31085 0
M  V30 16554 C 1524.86 -4.27024 -2.21819 0
M  V30 16555 C 1527.21 -4.79428 -2.04447 0
M  V30 16556 C 1524.54 -5.57084 -1.84049 0
M  V30 16557 C 1526.89 -6.09835 -1.68179 0
M  V30 16558 C 1525.55 -6.4867 -1.57428 0
M  V30 16559 H 1524.82 -0.524651 -0.52328 0
M  V30 16560 H 1527.47 -1.75622 -0.763494 0
M  V30 16561 H 1525.77 -2.02012 -3.35706 0
M  V30 16562 H 1527.47 -2.38737 -3.22189 0
M  V30 16563 H 1524.06 -3.55642 -2.392 0
M  V30 16564 H 1528.25 -4.49431 -2.10535 0
M  V30 16565 H 1523.5 -5.86029 -1.74298 0
M  V30 16566 H 1527.68 -6.80796 -1.46594 0
M  V30 16567 H 1525.3 -7.49358 -1.2793 0
M  V30 16568 N 1526.88 0.906753 -1.28902 0
M  V30 16569 C 1527.79 2.04313 -1.15296 0
M  V30 16570 C 1528.8 1.73826 -0.0778619 0
M  V30 16571 O 1529.98 1.99322 -0.288543 0
M  V30 16572 C 1527.04 3.36782 -0.823317 0
M  V30 16573 C 1526.11 3.80834 -1.98152 0
M  V30 16574 C 1525.34 5.06981 -1.66751 0
M  V30 16575 O 1525.56 5.67391 -0.58513 0
M  V30 16576 O 1524.5 5.46915 -2.51332 0
M  V30 16577 H 1528.32 2.18713 -2.10709 0
M  V30 16578 H 1525.91 1.02928 -1.08287 0
M  V30 16579 H 1527.79 4.16298 -0.653735 0
M  V30 16580 H 1526.46 3.23542 0.101097 0
M  V30 16581 H 1525.37 3.02115 -2.2063 0
M  V30 16582 H 1526.7 3.98648 -2.88688 0
M  V30 16583 N 1528.36 1.11264 1.11616 0
M  V30 16584 C 1529.6 0.860364 1.83314 0
M  V30 16585 C 1529.93 -0.614011 1.84554 0
M  V30 16586 O 1529.19 -1.4692 1.29279 0
M  V30 16587 C 1529.48 1.36481 3.30315 0
M  V30 16588 C 1529.15 2.85209 3.49237 0
M  V30 16589 C 1527.81 3.25822 3.54109 0
M  V30 16590 C 1530.16 3.81009 3.55642 0
M  V30 16591 C 1527.49 4.60968 3.62941 0
M  V30 16592 C 1529.84 5.15968 3.66005 0
M  V30 16593 C 1528.51 5.56142 3.69137 0
M  V30 16594 H 1527.78 0.314829 0.670793 0
M  V30 16595 H 1530.43 1.39073 1.31647 0
M  V30 16596 H 1528.73 0.754639 3.84464 0
M  V30 16597 H 1530.43 1.14597 3.84276 0
M  V30 16598 H 1527.02 2.52791 3.46114 0
M  V30 16599 H 1531.2 3.50734 3.5114 0
M  V30 16600 H 1526.46 4.91503 3.63641 0
M  V30 16601 H 1530.63 5.90037 3.69904 0
M  V30 16602 H 1528.26 6.60855 3.75732 0
M  V30 16603 N 1529.83 -1.29188 0.902679 0
M  V30 16604 C 1530.8 -2.25901 0.387485 0
M  V30 16605 C 1531.8 -1.53469 -0.479993 0
M  V30 16606 O 1532.99 -1.71859 -0.284623 0
M  V30 16607 C 1530.12 -3.37974 -0.445723 0
M  V30 16608 H 1531.31 -2.72988 1.24167 0
M  V30 16609 H 1528.86 -1.4068 0.681083 0
M  V30 16610 H 1529.6 -2.9623 -1.31977 0
M  V30 16611 H 1529.38 -3.91705 0.175899 0
M  V30 16612 H 1530.87 -4.09917 -0.797384 0
M  V30 16613 N 1531.31 -0.665475 -1.42861 0
M  V30 16614 C 1532.54 -0.190399 -2.06524 0
M  V30 16615 C 1532.96 1.13995 -1.49622 0
M  V30 16616 O 1532.32 1.70695 -0.610981 0
M  V30 16617 C 1532.37 -0.12594 -3.6038 0
M  V30 16618 O 1531.47 0.908299 -4.02273 0
M  V30 16619 H 1530.81 -0.100495 -0.656351 0
M  V30 16620 H 1533.34 -0.911858 -1.83156 0
M  V30 16621 H 1533.35 0.0533153 -4.07965 0
M  V30 16622 H 1532.03 -1.09703 -4.01171 0
M  V30 16623 H 1530.6 0.700841 -3.66255 0
M  V30 16624 N 1532.79 1.52222 -0.408187 0
M  V30 16625 C 1533.74 2.28544 0.432458 0
M  V30 16626 C 1534.73 1.33198 1.04665 0
M  V30 16627 O 1535.94 1.50661 0.984954 0
M  V30 16628 H 1532.31 0.735162 0.158241 0
M  V30 16629 H 1534.28 2.97493 -0.232482 0
M  V30 16630 C 1533.03 3.11864 1.53741 0
M  V30 16631 H 1532.36 3.851 1.07414 0
M  V30 16632 H 1533.8 3.68374 2.09945 0
M  V30 16633 C 1532.25 2.25367 2.50423 0
M  V30 16634 O 1532.78 1.89329 3.54285 0
M  V30 16635 N 1530.99 1.89155 2.2061 0
M  V30 16636 H 1530.54 2.18661 1.36181 0
M  V30 16637 H 1530.5 1.31574 2.85544 0
M  V30 16638 N 1534.27 0.138579 1.5699 0
M  V30 16639 C 1535.5 -0.521806 2.00212 0
M  V30 16640 C 1535.91 -1.58967 1.01857 0
M  V30 16641 O 1535.27 -1.82494 0.0143099 0
M  V30 16642 C 1535.32 -1.13014 3.4338 0
M  V30 16643 O 1535.04 -0.104938 4.37974 0
M  V30 16644 C 1536.54 -1.87195 4.01837 0
M  V30 16645 H 1533.76 -0.136564 0.656956 0
M  V30 16646 H 1536.3 0.230685 2.03195 0
M  V30 16647 H 1534.46 -1.8333 3.41275 0
M  V30 16648 H 1534.87 -0.54948 5.21614 0
M  V30 16649 H 1536.35 -2.25061 5.04035 0
M  V30 16650 H 1536.82 -2.75467 3.42074 0
M  V30 16651 H 1537.43 -1.21597 4.07547 0
M  V30 16652 N 1535.75 -1.57019 -0.13521 0
M  V30 16653 C 1536.68 -1.94319 -1.19646 0
M  V30 16654 C 1537.66 -0.810603 -1.40954 0
M  V30 16655 O 1538.84 -1.0673 -1.55374 0
M  V30 16656 C 1535.97 -2.22542 -2.55328 0
M  V30 16657 C 1535.01 -3.45151 -2.50546 0
M  V30 16658 S 1535.85 -4.98307 -1.96089 0
M  V30 16659 C 1537 -5.29665 -3.33476 0
M  V30 16660 H 1537.24 -2.8403 -0.878294 0
M  V30 16661 H 1534.77 -1.5058 -0.341313 0
M  V30 16662 H 1536.73 -2.39482 -3.33405 0
M  V30 16663 H 1535.39 -1.33474 -2.8433 0
M  V30 16664 H 1534.58 -3.62213 -3.50454 0
M  V30 16665 H 1534.18 -3.27514 -1.80583 0
M  V30 16666 H 1536.47 -5.23854 -4.29631 0
M  V30 16667 H 1537.42 -6.31031 -3.21256 0
M  V30 16668 H 1537.83 -4.57161 -3.31156 0
M  V30 16669 N 1537.22 0.404919 -1.52309 0
M  V30 16670 C 1538.17 1.51412 -1.7657 0
M  V30 16671 C 1539.17 1.5713 -0.632983 0
M  V30 16672 O 1540.37 1.60486 -0.815121 0
M  V30 16673 H 1536.75 0.503636 -0.55844 0
M  V30 16674 H 1538.72 1.28137 -2.69488 0
M  V30 16675 C 1537.47 2.88733 -1.93722 0
M  V30 16676 H 1536.79 2.85078 -2.80304 0
M  V30 16677 H 1538.23 3.65626 -2.14695 0
M  V30 16678 C 1536.69 3.29431 -0.705444 0
M  V30 16679 O 1537.22 4.01506 0.124693 0
M  V30 16680 N 1535.43 2.85536 -0.540128 0
M  V30 16681 H 1534.97 2.27052 -1.21677 0
M  V30 16682 H 1534.93 3.13126 0.282723 0
M  V30 16683 N 1538.7 1.43003 0.662408 0
M  V30 16684 C 1539.93 1.47766 1.45533 0
M  V30 16685 C 1540.35 0.0940298 1.87865 0
M  V30 16686 O 1539.71 -0.910252 1.56793 0
M  V30 16687 C 1539.76 2.42084 2.6726 0
M  V30 16688 O 1538.86 1.90076 3.65985 0
M  V30 16689 H 1538.2 0.500167 0.436725 0
M  V30 16690 H 1540.73 1.87823 0.811399 0
M  V30 16691 H 1540.74 2.5908 3.15185 0
M  V30 16692 H 1539.42 3.42601 2.3579 0
M  V30 16693 H 1538 1.82695 3.2508 0
M  V30 16694 N 1540.18 -0.899904 1.29381 0
M  V30 16695 C 1541.41 -1.68911 1.20349 0
M  V30 16696 C 1541.83 -1.86657 -0.232523 0
M  V30 16697 O 1541.19 -1.38674 -1.16787 0
M  V30 16698 C 1541.24 -3.05124 1.92177 0
M  V30 16699 O 1540.34 -3.93358 1.23867 0
M  V30 16700 H 1539.68 -0.516698 0.417036 0
M  V30 16701 H 1542.21 -1.12422 1.70946 0
M  V30 16702 H 1542.22 -3.55267 2.00623 0
M  V30 16703 H 1540.9 -2.91525 2.96624 0
M  V30 16704 H 1539.47 -3.51793 1.23677 0
M  V30 16705 N 1541.66 -1.11854 -1.11024 0
M  V30 16706 C 1542.59 -0.724602 -2.1639 0
M  V30 16707 C 1543.57 0.281302 -1.60148 0
M  V30 16708 O 1544.75 0.176699 -1.8767 0
M  V30 16709 C 1541.88 -0.0715375 -3.38624 0
M  V30 16710 C 1540.93 -1.04328 -4.13543 0
M  V30 16711 S 1541.76 -2.5679 -4.69914 0
M  V30 16712 C 1542.92 -1.92797 -5.95466 0
M  V30 16713 H 1543.15 -1.61713 -2.49472 0
M  V30 16714 H 1540.68 -0.937015 -1.22717 0
M  V30 16715 H 1542.64 0.298896 -4.0941 0
M  V30 16716 H 1541.3 0.798007 -3.03794 0
M  V30 16717 H 1540.49 -0.533855 -5.01165 0
M  V30 16718 H 1540.1 -1.35636 -3.48538 0
M  V30 16719 H 1542.39 -1.26703 -6.65547 0
M  V30 16720 H 1543.33 -2.78434 -6.51061 0
M  V30 16721 H 1543.74 -1.38633 -5.47212 0
M  V30 16722 N 1543.14 1.28707 -0.909517 0
M  V30 16723 C 1544.08 2.27427 -0.393155 0
M  V30 16724 C 1545.05 1.57414 0.53009 0
M  V30 16725 O 1546.24 1.85339 0.453205 0
M  V30 16726 C 1543.38 3.4317 0.364507 0
M  V30 16727 C 1542.49 4.27942 -0.590757 0
M  V30 16728 C 1541.63 5.30878 0.184931 0
M  V30 16729 C 1540.67 6.07311 -0.764222 0
M  V30 16730 N 1539.8 7.02096 -0.0223203 0
M  V30 16731 H 1544.64 2.70974 -1.24005 0
M  V30 16732 H 1542.18 1.33265 -0.6228 0
M  V30 16733 H 1544.14 4.09063 0.819937 0
M  V30 16734 H 1542.77 3.00625 1.17578 0
M  V30 16735 H 1541.82 3.62131 -1.16471 0
M  V30 16736 H 1543.13 4.81102 -1.31689 0
M  V30 16737 H 1542.29 6.02635 0.701116 0
M  V30 16738 H 1541.02 4.78474 0.944143 0
M  V30 16739 H 1540.03 5.34408 -1.29182 0
M  V30 16740 H 1541.25 6.61804 -1.52292 0
M  V30 16741 H 1539.2 6.52048 0.718978 0
M  V30 16742 H 1539.12 7.5286 -0.688359 0
M  V30 16743 H 1540.39 7.78059 0.473807 0
M  V30 16744 N 1544.61 0.673042 1.42506 0
M  V30 16745 C 1545.84 0.201349 2.0642 0
M  V30 16746 C 1546.26 -1.132 1.50224 0
M  V30 16747 O 1545.62 -1.70368 0.620024 0
M  V30 16748 C 1545.67 0.14505 3.60308 0
M  V30 16749 O 1544.77 -0.886953 4.02749 0
M  V30 16750 H 1544.12 0.103975 0.655809 0
M  V30 16751 H 1546.65 0.921559 1.8267 0
M  V30 16752 H 1546.66 -0.0316792 4.07988 0
M  V30 16753 H 1545.33 1.11829 4.00583 0
M  V30 16754 H 1543.91 -0.681408 3.66621 0
M  V30 16755 N 1546.09 -1.52004 0.416254 0
M  V30 16756 C 1547.34 -2.02188 -0.157434 0
M  V30 16757 C 1547.67 -1.30097 -1.44182 0
M  V30 16758 O 1546.95 -0.409426 -1.90142 0
M  V30 16759 C 1547.23 -3.57896 -0.397847 0
M  V30 16760 C 1547.08 -4.40628 0.903715 0
M  V30 16761 C 1548.4 -4.24072 -1.17689 0
M  V30 16762 H 1545.52 -0.734889 -0.0557437 0
M  V30 16763 H 1548.16 -1.81831 0.551118 0
M  V30 16764 H 1546.31 -3.75372 -1.00142 0
M  V30 16765 H 1547.98 -4.34848 1.53964 0
M  V30 16766 H 1546.23 -4.06556 1.5131 0
M  V30 16767 H 1546.9 -5.47673 0.689802 0
M  V30 16768 H 1549.37 -4.10738 -0.665832 0
M  V30 16769 H 1548.25 -5.32944 -1.31386 0
M  V30 16770 H 1548.51 -3.83507 -2.19942 0
M  V30 16771 N 1547.57 -0.146903 -1.56914 0
M  V30 16772 C 1548.82 0.503237 -1.95734 0
M  V30 16773 C 1549.14 1.65407 -1.03275 0
M  V30 16774 O 1548.41 1.95673 -0.0942784 0
M  V30 16775 H 1546.99 0.188899 -0.722721 0
M  V30 16776 H 1549.65 -0.222379 -1.93627 0
M  V30 16777 H 1548.75 0.879445 -2.99453 0
M  V30 16778 N 1549.05 1.57088 0.126881 0
M  V30 16779 C 1549.96 2.03053 1.17502 0
M  V30 16780 C 1550.97 0.949484 1.45811 0
M  V30 16781 O 1552.15 1.26043 1.57083 0
M  V30 16782 C 1549.22 2.41897 2.48368 0
M  V30 16783 C 1548.28 3.64047 2.27527 0
M  V30 16784 C 1547.51 4.01029 3.52153 0
M  V30 16785 O 1547.73 3.38441 4.59145 0
M  V30 16786 O 1546.67 4.94174 3.43622 0
M  V30 16787 H 1550.49 2.92568 0.814733 0
M  V30 16788 H 1548.08 1.45547 0.3371 0
M  V30 16789 H 1549.96 2.67652 3.25485 0
M  V30 16790 H 1548.63 1.55531 2.83887 0
M  V30 16791 H 1547.54 3.43452 1.48294 0
M  V30 16792 H 1548.87 4.51093 1.96916 0
M  V30 16793 N 1550.53 -0.396836 1.52522 0
M  V30 16794 C 1551.77 -1.14432 1.67431 0
M  V30 16795 C 1552.11 -1.89842 0.409115 0
M  V30 16796 O 1551.38 -1.85244 -0.592863 0
M  V30 16797 C 1551.66 -2.12889 2.90431 0
M  V30 16798 C 1551.52 -1.41295 4.27031 0
M  V30 16799 C 1552.84 -3.13412 3.08967 0
M  V30 16800 H 1549.95 -0.414643 0.609295 0
M  V30 16801 H 1552.6 -0.428604 1.85103 0
M  V30 16802 H 1550.75 -2.73924 2.75495 0
M  V30 16803 H 1552.42 -0.832848 4.53719 0
M  V30 16804 H 1550.66 -0.714834 4.2787 0
M  V30 16805 H 1551.33 -2.13198 5.09167 0
M  V30 16806 H 1553.81 -2.62462 3.22883 0
M  V30 16807 H 1552.68 -3.79555 3.96522 0
M  V30 16808 H 1552.95 -3.81836 2.22831 0
M  V30 16809 N 1552.01 -1.43353 -0.654814 0
M  V30 16810 C 1552.94 -1.42835 -1.7797 0
M  V30 16811 C 1553.92 -0.290004 -1.59993 0
M  V30 16812 O 1555.1 -0.483346 -1.82198 0
M  V30 16813 C 1552.23 -1.2384 -3.15248 0
M  V30 16814 C 1551.27 -2.4093 -3.5193 0
M  V30 16815 S 1552.11 -4.03479 -3.52086 0
M  V30 16816 C 1553.26 -3.86864 -4.92024 0
M  V30 16817 H 1553.5 -2.38021 -1.78138 0
M  V30 16818 H 1551.03 -1.30365 -0.827312 0
M  V30 16819 H 1552.99 -1.13568 -3.94478 0
M  V30 16820 H 1551.65 -0.302053 -3.12644 0
M  V30 16821 H 1550.84 -2.2344 -4.51764 0
M  V30 16822 H 1550.44 -2.4782 -2.80109 0
M  V30 16823 H 1552.73 -3.4909 -5.8064 0
M  V30 16824 H 1553.68 -4.86445 -5.14565 0
M  V30 16825 H 1554.09 -3.19352 -4.65483 0
M  V30 16826 N 1553.48 0.89303 -1.29857 0
M  V30 16827 C 1554.71 1.6827 -1.21243 0
M  V30 16828 C 1555.13 1.86778 0.222621 0
M  V30 16829 O 1554.49 1.39291 1.1605 0
M  V30 16830 C 1554.54 3.041 -1.93792 0
M  V30 16831 O 1553.64 3.92696 -1.25951 0
M  V30 16832 H 1552.98 0.514479 -0.419771 0
M  V30 16833 H 1555.51 1.11513 -1.7154 0
M  V30 16834 H 1555.52 3.54198 -2.02504 0
M  V30 16835 H 1554.2 2.89948 -2.98166 0
M  V30 16836 H 1552.78 3.51132 -1.25541 0
M  V30 16837 N 1554.96 1.12442 1.10429 0
M  V30 16838 C 1556.21 0.874466 1.81758 0
M  V30 16839 C 1556.52 -0.601487 1.86122 0
M  V30 16840 O 1557.73 -0.968037 2.53656 0
M  V30 16841 C 1556.19 1.51478 3.2647 0
M  V30 16842 C 1555.79 3.02552 3.30403 0
M  V30 16843 C 1557.54 1.34511 4.02625 0
M  V30 16844 C 1555.44 3.59518 4.69575 0
M  V30 16845 H 1554.37 0.323494 0.681078 0
M  V30 16846 H 1557.03 1.35091 1.24188 0
M  V30 16847 H 1555.41 0.966 3.84037 0
M  V30 16848 H 1556.58 3.63924 2.82659 0
M  V30 16849 H 1554.9 3.18917 2.67733 0
M  V30 16850 H 1557.49 1.74492 5.05427 0
M  V30 16851 H 1557.84 0.288788 4.15297 0
M  V30 16852 H 1558.37 1.86311 3.51473 0
M  V30 16853 H 1555.11 4.6491 4.62103 0
M  V30 16854 H 1554.63 3.02922 5.17686 0
M  V30 16855 H 1556.31 3.58581 5.38543 0
M  V30 16856 N 1556.44 -1.28223 0.91633 0
M  V30 16857 C 1557.69 -1.9448 0.549734 0
M  V30 16858 C 1558.01 -1.72465 -0.909999 0
M  V30 16859 O 1557.28 -1.06583 -1.64368 0
M  V30 16860 H 1555.86 -0.719641 0.200315 0
M  V30 16861 H 1558.52 -1.56156 1.16625 0
M  V30 16862 H 1557.62 -3.03044 0.746363 0
M  V30 16863 N 1557.92 -0.68059 -1.42147 0
M  V30 16864 C 1559.33 -0.350691 -1.55699 0
M  V30 16865 C 1559.53 1.1435 -1.6591 0
M  V30 16866 O 1558.59 1.92905 -1.62923 0
M  V30 16867 C 1559.9 -1.08608 -2.80401 0
M  V30 16868 C 1561.45 -1.06897 -2.9418 0
M  V30 16869 C 1561.93 -1.78581 -4.2175 0
M  V30 16870 N 1563.42 -1.75477 -4.28675 0
M  V30 16871 C 1564.15 -2.27794 -5.26211 0
M  V30 16872 N 1563.65 -2.88518 -6.29865 0
M  V30 16873 N 1565.44 -2.18135 -5.18048 0
M  V30 16874 H 1557.59 -1.64988 -1.33763 0
M  V30 16875 H 1559.85 -0.695411 -0.644289 0
M  V30 16876 H 1559.56 -2.14113 -2.79014 0
M  V30 16877 H 1559.43 -0.655022 -3.71469 0
M  V30 16878 H 1561.82 -0.0222464 -2.95092 0
M  V30 16879 H 1561.9 -1.53897 -2.04327 0
M  V30 16880 H 1561.55 -2.83225 -4.21599 0
M  V30 16881 H 1561.48 -1.29027 -5.10548 0
M  V30 16882 H 1563.97 -1.31191 -3.54397 0
M  V30 16883 H 1564.28 -3.26043 -7.00654 0
M  V30 16884 H 1562.63 -2.92589 -6.3041 0
M  V30 16885 H 1565.82 -1.7038 -4.35991 0
M  V30 16886 H 1565.99 -2.59213 -5.93896 0
M  V30 16887 N 1559.4 1.51781 -0.424309 0
M  V30 16888 C 1560.62 2.06387 0.145548 0
M  V30 16889 C 1561.04 1.29299 1.37576 0
M  V30 16890 O 1560.4 0.348952 1.79133 0
M  V30 16891 C 1560.45 3.58288 0.48083 0
M  V30 16892 O 1560.17 4.32463 -0.700546 0
M  V30 16893 C 1561.67 4.29364 1.10278 0
M  V30 16894 H 1558.89 0.67086 0.0136908 0
M  V30 16895 H 1561.43 1.95511 -0.599639 0
M  V30 16896 H 1559.59 3.69122 1.17591 0
M  V30 16897 H 1560 5.22839 -0.417035 0
M  V30 16898 H 1561.48 5.36776 1.28747 0
M  V30 16899 H 1561.95 3.86815 2.08017 0
M  V30 16900 H 1562.56 4.2294 0.447458 0
M  V30 16901 N 1560.87 0.155222 1.56834 0
M  V30 16902 C 1562.12 -0.493826 1.96386 0
M  V30 16903 C 1562.45 -1.6433 1.04048 0
M  V30 16904 O 1561.7 -1.9557 0.0713123 0
M  V30 16905 C 1562 -1.03346 3.42132 0
M  V30 16906 C 1561.67 -0.00157215 4.509 0
M  V30 16907 C 1560.33 0.282068 4.80373 0
M  V30 16908 C 1562.68 0.699684 5.16482 0
M  V30 16909 C 1560.01 1.27263 5.72731 0
M  V30 16910 C 1562.36 1.67912 6.09908 0
M  V30 16911 C 1561.03 1.97037 6.37756 0
M  V30 16912 H 1560.3 -0.180704 0.718629 0
M  V30 16913 H 1562.94 0.243789 1.89942 0
M  V30 16914 H 1561.25 -1.84857 3.45449 0
M  V30 16915 H 1562.95 -1.54437 3.70068 0
M  V30 16916 H 1559.54 -0.232824 4.27967 0
M  V30 16917 H 1563.72 0.493751 4.93838 0
M  V30 16918 H 1558.98 1.50464 5.92597 0
M  V30 16919 H 1563.15 2.22796 6.59799 0
M  V30 16920 H 1560.78 2.73944 7.09125 0
M  V30 16921 N 1562.35 -1.57153 -0.118549 0
M  V30 16922 C 1563.26 -2.03673 -1.16424 0
M  V30 16923 C 1564.28 -0.957203 -1.45305 0
M  V30 16924 O 1565.45 -1.26874 -1.56413 0
M  V30 16925 C 1562.52 -2.43211 -2.47082 0
M  V30 16926 C 1561.58 -3.65248 -2.25593 0
M  V30 16927 C 1560.81 -4.02891 -3.50021 0
M  V30 16928 O 1561.04 -3.40871 -4.57344 0
M  V30 16929 O 1559.97 -4.95989 -3.40996 0
M  V30 16930 H 1563.8 -2.92996 -0.799206 0
M  V30 16931 H 1561.38 -1.45724 -0.329376 0
M  V30 16932 H 1563.26 -2.69374 -3.24061 0
M  V30 16933 H 1561.94 -1.57034 -2.83058 0
M  V30 16934 H 1560.84 -3.44234 -1.46471 0
M  V30 16935 H 1562.18 -4.52131 -1.94521 0
M  V30 16936 N 1563.83 0.388742 -1.5273 0
M  V30 16937 C 1564.74 1.49916 -1.8045 0
M  V30 16938 C 1565.76 1.59679 -0.691282 0
M  V30 16939 O 1566.93 1.7601 -0.978898 0
M  V30 16940 C 1564 2.85445 -1.96779 0
M  V30 16941 C 1563.06 2.85402 -3.20693 0
M  V30 16942 C 1562.29 4.14466 -3.36234 0
M  V30 16943 O 1562.51 5.09436 -2.56576 0
M  V30 16944 O 1561.45 4.2169 -4.29489 0
M  V30 16945 H 1565.27 1.29423 -2.74743 0
M  V30 16946 H 1562.86 0.576607 -1.37825 0
M  V30 16947 H 1564.74 3.65791 -2.09224 0
M  V30 16948 H 1563.42 3.05964 -1.05676 0
M  V30 16949 H 1562.32 2.03836 -3.1369 0
M  V30 16950 H 1563.66 2.69835 -4.11643 0
M  V30 16951 N 1565.31 1.43698 0.647203 0
M  V30 16952 C 1566.53 1.49301 1.43958 0
M  V30 16953 C 1566.96 0.11395 1.87755 0
M  V30 16954 O 1566.32 -0.893571 1.5775 0
M  V30 16955 C 1566.36 2.44905 2.64677 0
M  V30 16956 O 1565.47 1.93947 3.63948 0
M  V30 16957 H 1564.81 0.504771 0.431396 0
M  V30 16958 H 1567.34 1.88673 0.791432 0
M  V30 16959 H 1567.35 2.62409 3.12419 0
M  V30 16960 H 1566.02 3.45083 2.32143 0
M  V30 16961 H 1564.6 1.86133 3.23124 0
M  V30 16962 N 1566.79 -0.886131 1.30328 0
M  V30 16963 C 1568.04 -1.63255 1.18451 0
M  V30 16964 C 1568.35 -1.93864 -0.260016 0
M  V30 16965 O 1569.55 -2.66851 -0.500288 0
M  V30 16966 C 1568.01 -2.94232 2.07257 0
M  V30 16967 C 1567.62 -2.71168 3.56612 0
M  V30 16968 C 1569.36 -3.72193 2.04139 0
M  V30 16969 C 1567.27 -3.97954 4.37478 0
M  V30 16970 H 1566.2 -0.612491 0.439739 0
M  V30 16971 H 1568.85 -0.981129 1.55068 0
M  V30 16972 H 1567.23 -3.60661 1.63522 0
M  V30 16973 H 1568.41 -2.13247 4.08488 0
M  V30 16974 H 1566.72 -2.06584 3.61541 0
M  V30 16975 H 1569.32 -4.66219 2.61809 0
M  V30 16976 H 1569.66 -4.03495 1.02459 0
M  V30 16977 H 1570.19 -3.12624 2.45989 0
M  V30 16978 H 1566.93 -3.71811 5.39849 0
M  V30 16979 H 1566.45 -4.55384 3.90366 0
M  V30 16980 H 1568.13 -4.65984 4.48852 0
M  V30 16981 N 1568.26 -1.13026 -1.09832 0
M  V30 16982 C 1569.2 -0.761606 -2.16176 0
M  V30 16983 C 1570.21 0.214709 -1.61378 0
M  V30 16984 O 1571.4 -0.00487178 -1.78499 0
M  V30 16985 C 1568.5 -0.107513 -3.38729 0
M  V30 16986 C 1567.67 -1.11487 -4.22953 0
M  V30 16987 C 1566.73 -0.487243 -5.23939 0
M  V30 16988 O 1565.76 -1.14605 -5.57543 0
M  V30 16989 N 1566.96 0.742571 -5.75731 0
M  V30 16990 H 1569.72 -1.67669 -2.48409 0
M  V30 16991 H 1567.28 -1.0227 -1.25509 0
M  V30 16992 H 1569.28 0.324507 -4.03397 0
M  V30 16993 H 1567.85 0.710438 -3.0442 0
M  V30 16994 H 1567.07 -1.72432 -3.54487 0
M  V30 16995 H 1568.35 -1.79584 -4.76053 0
M  V30 16996 H 1567.75 1.29667 -5.50639 0
M  V30 16997 H 1566.31 1.11731 -6.42152 0
M  V30 16998 N 1569.74 1.27735 -0.923117 0
M  V30 16999 C 1570.69 2.26997 -0.417254 0
M  V30 17000 C 1571.66 1.57968 0.513364 0
M  V30 17001 O 1572.84 1.8581 0.433521 0
M  V30 17002 C 1569.98 3.43537 0.328089 0
M  V30 17003 C 1569.1 4.27291 -0.636112 0
M  V30 17004 C 1568.23 5.31044 0.128614 0
M  V30 17005 C 1567.27 6.06466 -0.828592 0
M  V30 17006 N 1566.41 7.02033 -0.0967858 0
M  V30 17007 H 1571.25 2.69643 -1.26872 0
M  V30 17008 H 1568.79 1.32597 -0.6369 0
M  V30 17009 H 1570.74 4.0991 0.776504 0
M  V30 17010 H 1569.37 3.01855 1.14383 0
M  V30 17011 H 1568.43 3.60875 -1.20306 0
M  V30 17012 H 1569.74 4.79679 -1.36784 0
M  V30 17013 H 1568.89 6.03345 0.637159 0
M  V30 17014 H 1567.63 4.79448 0.893341 0
M  V30 17015 H 1566.64 5.33008 -1.34843 0
M  V30 17016 H 1567.86 6.60151 -1.59303 0
M  V30 17017 H 1565.81 6.52774 0.649779 0
M  V30 17018 H 1565.72 7.52087 -0.768171 0
M  V30 17019 H 1566.99 7.78517 0.391257 0
M  V30 17020 N 1571.22 0.688118 1.41784 0
M  V30 17021 C 1572.45 0.223231 2.06195 0
M  V30 17022 C 1572.87 -1.11601 1.51416 0
M  V30 17023 O 1572.23 -1.69701 0.638059 0
M  V30 17024 C 1572.28 0.183257 3.60134 0
M  V30 17025 O 1571.38 -0.844186 4.03667 0
M  V30 17026 H 1570.72 0.110925 0.654669 0
M  V30 17027 H 1573.25 0.940882 1.81683 0
M  V30 17028 H 1573.26 0.0115951 4.07998 0
M  V30 17029 H 1571.94 1.16072 3.99375 0
M  V30 17030 H 1570.51 -0.642484 3.67323 0
M  V30 17031 N 1572.7 -1.51554 0.432352 0
M  V30 17032 C 1573.63 -2.30514 -0.372243 0
M  V30 17033 C 1574.61 -1.35712 -1.02549 0
M  V30 17034 O 1575.79 -1.6463 -1.03009 0
M  V30 17035 C 1572.92 -3.14353 -1.47646 0
M  V30 17036 C 1571.88 -4.17392 -0.946974 0
M  V30 17037 C 1571.2 -4.89721 -2.14656 0
M  V30 17038 C 1572.5 -5.22298 0.0151377 0
M  V30 17039 H 1574.2 -2.98024 0.28668 0
M  V30 17040 H 1571.74 -1.43325 0.139315 0
M  V30 17041 H 1573.7 -3.68369 -2.04651 0
M  V30 17042 H 1572.42 -2.44654 -2.1636 0
M  V30 17043 H 1571.08 -3.6442 -0.399174 0
M  V30 17044 H 1570.73 -4.1653 -2.81978 0
M  V30 17045 H 1570.43 -5.59393 -1.79869 0
M  V30 17046 H 1571.95 -5.46559 -2.72224 0
M  V30 17047 H 1573.37 -5.71416 -0.464447 0
M  V30 17048 H 1571.76 -5.99468 0.275339 0
M  V30 17049 H 1572.83 -4.75436 0.953357 0
M  V30 17050 N 1574.18 -0.163538 -1.56749 0
M  V30 17051 C 1575.59 0.192717 -1.58432 0
M  V30 17052 C 1575.79 1.63438 -1.17856 0
M  V30 17053 O 1574.85 2.36425 -0.88654 0
M  V30 17054 C 1576.16 -0.0810427 -3.00591 0
M  V30 17055 C 1577.71 -0.0186378 -3.12994 0
M  V30 17056 C 1578.18 -0.265283 -4.57231 0
M  V30 17057 N 1579.68 -0.212787 -4.62711 0
M  V30 17058 C 1580.41 -0.37791 -5.72153 0
M  V30 17059 N 1579.91 -0.601663 -6.90182 0
M  V30 17060 N 1581.7 -0.314357 -5.6122 0
M  V30 17061 H 1573.85 -1.10467 -1.81413 0
M  V30 17062 H 1576.11 -0.438569 -0.840453 0
M  V30 17063 H 1575.82 -1.07944 -3.34725 0
M  V30 17064 H 1575.69 0.630888 -3.71887 0
M  V30 17065 H 1578.08 0.970324 -2.78691 0
M  V30 17066 H 1578.16 -0.763158 -2.44151 0
M  V30 17067 H 1577.81 -1.25142 -4.92242 0
M  V30 17068 H 1577.74 0.499756 -5.24223 0
M  V30 17069 H 1580.23 -0.0451754 -3.77873 0
M  V30 17070 H 1580.54 -0.717319 -7.69464 0
M  V30 17071 H 1578.88 -0.638184 -6.92064 0
M  V30 17072 H 1582.08 -0.140197 -4.6789 0
M  V30 17073 H 1582.25 -0.446472 -6.4646 0
M  V30 17074 N 1575.65 1.57214 0.110213 0
M  V30 17075 C 1576.89 1.87133 0.822229 0
M  V30 17076 C 1577.26 0.752645 1.76633 0
M  V30 17077 O 1578.46 0.933837 2.52057 0
M  V30 17078 C 1576.73 3.22286 1.54487 0
M  V30 17079 S 1578.29 3.73861 2.29725 0
M  V30 17080 H 1575.11 0.65598 0.274248 0
M  V30 17081 H 1577.71 1.95336 0.0801112 0
M  V30 17082 H 1576.41 4.0164 0.84343 0
M  V30 17083 H 1575.94 3.17184 2.32719 0
M  V30 17084 H 1577.96 3.46066 3.55602 0
M  V30 17085 N 1577.13 -0.380637 1.52934 0
M  V30 17086 C 1578.38 -1.12207 1.67608 0
M  V30 17087 C 1578.69 -1.90891 0.426597 0
M  V30 17088 O 1579.9 -2.67684 0.453612 0
M  V30 17089 C 1578.36 -2.04381 2.96237 0
M  V30 17090 C 1577.96 -1.3108 4.28395 0
M  V30 17091 C 1579.71 -2.78608 3.20277 0
M  V30 17092 C 1577.62 -2.22069 5.48124 0
M  V30 17093 H 1576.55 -0.422582 0.624452 0
M  V30 17094 H 1579.2 -0.384198 1.79433 0
M  V30 17095 H 1577.58 -2.81838 2.78179 0
M  V30 17096 H 1578.75 -0.587907 4.57034 0
M  V30 17097 H 1577.07 -0.687778 4.10681 0
M  V30 17098 H 1579.66 -3.46883 4.0691 0
M  V30 17099 H 1580.01 -3.43149 2.35701 0
M  V30 17100 H 1580.54 -2.08241 3.3894 0
M  V30 17101 H 1577.28 -1.62131 6.35133 0
M  V30 17102 H 1576.8 -2.9225 5.23784 0
M  V30 17103 H 1578.48 -2.81966 5.82327 0
M  V30 17104 N 1578.61 -1.44039 -0.639573 0
M  V30 17105 C 1579.89 -1.36853 -1.39752 0
M  V30 17106 C 1580.27 -0.0230515 -2.11087 0
M  V30 17107 O 1579.62 0.994061 -2.05744 0
M  V30 17108 C 1579.83 -2.56101 -2.37093 0
M  V30 17109 C 1581.17 -2.99793 -3.00681 0
M  V30 17110 O 1582.2 -2.56246 -2.4742 0
M  V30 17111 O 1581.06 -3.75274 -3.97281 0
M  V30 17112 H 1578.15 -0.541521 -0.625047 0
M  V30 17113 H 1580.7 -1.56113 -0.665336 0
M  V30 17114 H 1579.47 -3.45647 -1.83422 0
M  V30 17115 H 1579.09 -2.39011 -3.17741 0
M  V30 17116 N 1580.09 0.879207 -1.30796 0
M  V30 17117 C 1581.37 1.61328 -1.10602 0
M  V30 17118 C 1581.75 2.08301 0.342621 0
M  V30 17119 O 1581.09 1.85436 1.33514 0
M  V30 17120 C 1581.3 2.77838 -2.11203 0
M  V30 17121 C 1582.65 3.48028 -2.43231 0
M  V30 17122 O 1583.68 2.88034 -2.09559 0
M  V30 17123 O 1582.53 4.56233 -3.00854 0
M  V30 17124 H 1579.63 0.709335 -0.425174 0
M  V30 17125 H 1582.17 0.925478 -1.42243 0
M  V30 17126 H 1580.95 2.40475 -3.08687 0
M  V30 17127 H 1580.57 3.54312 -1.80414 0
M  V30 17128 N 1581.57 1.13606 1.09231 0
M  V30 17129 C 1582.52 0.810747 2.18013 0
M  V30 17130 C 1583.51 -0.207782 1.68121 0
M  V30 17131 O 1584.72 -0.0647274 1.79884 0
M  V30 17132 H 1581.09 0.244415 0.711172 0
M  V30 17133 H 1583.06 1.73632 2.42682 0
M  V30 17134 C 1581.81 0.295302 3.46444 0
M  V30 17135 H 1581.13 1.07037 3.85205 0
M  V30 17136 H 1582.57 0.106127 4.23867 0
M  V30 17137 C 1581.03 -0.979398 3.2235 0
M  V30 17138 O 1581.56 -2.05483 3.45166 0
M  V30 17139 N 1579.77 -0.911282 2.75942 0
M  V30 17140 H 1579.32 -0.035979 2.57575 0
M  V30 17141 H 1579.27 -1.76476 2.60199 0
M  V30 17142 N 1583.05 -1.27244 0.929878 0
M  V30 17143 C 1584.28 -1.98086 0.586993 0
M  V30 17144 C 1584.68 -1.69541 -0.839799 0
M  V30 17145 O 1584.03 -0.953724 -1.57003 0
M  V30 17146 C 1584.09 -3.51893 0.735656 0
M  V30 17147 C 1583.75 -4.04064 2.13497 0
M  V30 17148 C 1584.75 -4.16671 3.10936 0
M  V30 17149 C 1582.43 -4.38358 2.4525 0
M  V30 17150 C 1584.43 -4.62849 4.38235 0
M  V30 17151 C 1582.12 -4.84226 3.72785 0
M  V30 17152 C 1583.11 -4.96431 4.6909 0
M  V30 17153 O 1582.8 -5.41292 5.94355 0
M  V30 17154 H 1582.53 -0.638845 0.221027 0
M  V30 17155 H 1585.09 -1.63006 1.24973 0
M  V30 17156 H 1583.32 -3.86697 0.0158117 0
M  V30 17157 H 1585.01 -4.03949 0.397505 0
M  V30 17158 H 1585.77 -3.90434 2.87726 0
M  V30 17159 H 1581.65 -4.28099 1.71032 0
M  V30 17160 H 1585.2 -4.7229 5.13408 0
M  V30 17161 H 1581.09 -5.09905 3.95812 0
M  V30 17162 H 1581.86 -5.59541 5.97375 0
M  V30 17163 N 1584.52 -0.695628 -1.41417 0
M  V30 17164 C 1585.45 -0.0447013 -2.33457 0
M  V30 17165 C 1586.43 0.767104 -1.51821 0
M  V30 17166 O 1587.62 0.720066 -1.80357 0
M  V30 17167 C 1584.75 0.892353 -3.3564 0
M  V30 17168 C 1583.7 0.187638 -4.27588 0
M  V30 17169 C 1583.03 1.23906 -5.20146 0
M  V30 17170 C 1584.33 -0.946093 -5.1366 0
M  V30 17171 H 1586.02 -0.81343 -2.88138 0
M  V30 17172 H 1583.57 -0.392614 -1.38544 0
M  V30 17173 H 1585.52 1.35696 -3.98954 0
M  V30 17174 H 1584.25 1.69275 -2.79309 0
M  V30 17175 H 1582.91 -0.256942 -3.65698 0
M  V30 17176 H 1582.55 2.03198 -4.6013 0
M  V30 17177 H 1582.25 0.772536 -5.82499 0
M  V30 17178 H 1583.78 1.70417 -5.86336 0
M  V30 17179 H 1585.19 -0.561764 -5.70541 0
M  V30 17180 H 1583.59 -1.33971 -5.84954 0
M  V30 17181 H 1584.66 -1.78573 -4.50821 0
M  V30 17182 N 1586 1.51322 -0.440383 0
M  V30 17183 C 1587.25 2.01714 0.124815 0
M  V30 17184 C 1587.57 1.32634 1.42945 0
M  V30 17185 O 1586.84 0.461849 1.90378 0
M  V30 17186 H 1585.42 0.745384 0.049116 0
M  V30 17187 H 1588.08 1.85951 -0.583787 0
M  V30 17188 H 1587.18 3.10669 0.29853 0
M  V30 17189 N 1587.48 0.171848 1.5666 0
M  V30 17190 C 1588.73 -0.472968 1.96899 0
M  V30 17191 C 1589.05 -1.63217 1.05785 0
M  V30 17192 O 1588.31 -1.95483 0.0920511 0
M  V30 17193 C 1588.61 -0.99711 3.43209 0
M  V30 17194 C 1588.27 0.0462519 4.50876 0
M  V30 17195 C 1586.94 0.333002 4.80046 0
M  V30 17196 C 1589.29 0.754424 5.15711 0
M  V30 17197 C 1586.62 1.3333 5.71349 0
M  V30 17198 C 1588.97 1.74371 6.08093 0
M  V30 17199 C 1587.63 2.03791 6.3563 0
M  V30 17200 H 1586.9 -0.173071 0.720505 0
M  V30 17201 H 1589.55 0.263921 1.89673 0
M  V30 17202 H 1587.85 -1.81183 3.4739 0
M  V30 17203 H 1589.55 -1.50503 3.71685 0
M  V30 17204 H 1586.14 -0.187419 4.2819 0
M  V30 17205 H 1590.33 0.546102 4.93286 0
M  V30 17206 H 1585.58 1.56741 5.90967 0
M  V30 17207 H 1589.76 2.29782 6.57399 0
M  V30 17208 H 1587.38 2.8145 7.0618 0
M  V30 17209 N 1588.96 -1.5727 -0.101874 0
M  V30 17210 C 1590.18 -1.90319 -0.824215 0
M  V30 17211 C 1590.61 -0.765469 -1.7182 0
M  V30 17212 O 1589.97 0.283275 -1.79073 0
M  V30 17213 C 1590.01 -3.22201 -1.61922 0
M  V30 17214 O 1589.12 -3.09313 -2.72762 0
M  V30 17215 H 1588.46 -0.624042 -0.226864 0
M  V30 17216 H 1590.99 -2.04447 -0.0791314 0
M  V30 17217 H 1591 -3.55343 -2.00487 0
M  V30 17218 H 1589.67 -4.04596 -0.963078 0
M  V30 17219 H 1588.25 -2.87672 -2.37274 0
M  V30 17220 N 1590.44 0.372521 -1.53134 0
M  V30 17221 C 1591.38 1.47633 -1.79742 0
M  V30 17222 C 1592.38 1.55752 -0.66617 0
M  V30 17223 O 1593.58 1.58721 -0.848979 0
M  V30 17224 H 1589.96 0.491677 -0.568997 0
M  V30 17225 H 1591.93 1.22392 -2.72145 0
M  V30 17226 C 1590.68 2.84559 -1.99803 0
M  V30 17227 H 1590 2.79069 -2.86288 0
M  V30 17228 H 1591.44 3.60989 -2.22402 0
M  V30 17229 C 1589.9 3.27861 -0.775162 0
M  V30 17230 O 1590.43 4.01681 0.0394991 0
M  V30 17231 N 1588.64 2.84326 -0.600573 0
M  V30 17232 H 1588.18 2.2442 -1.26466 0
M  V30 17233 H 1588.14 3.13655 0.216241 0
M  V30 17234 N 1591.91 1.44376 0.631925 0
M  V30 17235 C 1593.14 1.50598 1.41873 0
M  V30 17236 C 1593.56 0.130589 1.88348 0
M  V30 17237 O 1592.91 -0.86336 1.60787 0
M  V30 17238 C 1592.96 2.47 2.63957 0
M  V30 17239 O 1592.69 3.79192 2.1942 0
M  V30 17240 C 1594.19 2.62678 3.57092 0
M  V30 17241 H 1591.41 0.510792 0.435124 0
M  V30 17242 H 1593.95 1.89332 0.772893 0
M  V30 17243 H 1592.11 2.11404 3.24634 0
M  V30 17244 H 1592.52 4.31231 2.98563 0
M  V30 17245 H 1593.99 3.34161 4.39364 0
M  V30 17246 H 1594.47 1.67881 4.05848 0
M  V30 17247 H 1595.08 2.99172 3.02285 0
M  V30 17248 N 1593.39 -0.872258 1.31261 0
M  V30 17249 C 1594.62 -1.65555 1.23593 0
M  V30 17250 C 1595.03 -1.88124 -0.201532 0
M  V30 17251 O 1594.37 -1.43792 -1.14323 0
M  V30 17252 C 1594.43 -3.04726 1.90742 0
M  V30 17253 C 1594.1 -3.05276 3.40082 0
M  V30 17254 C 1595.1 -2.83401 4.35867 0
M  V30 17255 C 1592.78 -3.26469 3.81737 0
M  V30 17256 C 1594.77 -2.82697 5.71281 0
M  V30 17257 C 1592.46 -3.25393 5.17265 0
M  V30 17258 C 1593.46 -3.03533 6.11847 0
M  V30 17259 O 1593.15 -3.02297 7.44897 0
M  V30 17260 H 1592.88 -0.52296 0.428356 0
M  V30 17261 H 1595.43 -1.09717 1.73641 0
M  V30 17262 H 1593.66 -3.62281 1.35239 0
M  V30 17263 H 1595.35 -3.65265 1.7702 0
M  V30 17264 H 1596.12 -2.66812 4.05014 0
M  V30 17265 H 1592 -3.42515 3.08552 0
M  V30 17266 H 1595.54 -2.65553 6.45079 0
M  V30 17267 H 1591.44 -3.41522 5.47753 0
M  V30 17268 H 1592.21 -3.18375 7.54042 0
M  V30 17269 N 1594.87 -1.14184 -1.08627 0
M  V30 17270 C 1596.11 -0.919016 -1.82575 0
M  V30 17271 C 1596.47 0.544729 -1.84111 0
M  V30 17272 O 1597.67 0.885417 -2.53799 0
M  V30 17273 C 1595.95 -1.50072 -3.24366 0
M  V30 17274 S 1597.5 -1.41914 -4.15218 0
M  V30 17275 H 1594.32 -0.331056 -0.629224 0
M  V30 17276 H 1596.92 -1.45491 -1.30586 0
M  V30 17277 H 1595.63 -2.55924 -3.20828 0
M  V30 17278 H 1595.16 -0.963129 -3.81428 0
M  V30 17279 H 1597.17 -0.403144 -4.9456 0
M  V30 17280 N 1596.35 1.26749 -0.936613 0
M  V30 17281 C 1597.6 1.93255 -0.577524 0
M  V30 17282 C 1597.91 1.74337 0.886905 0
M  V30 17283 O 1599.12 2.3526 1.35517 0
M  V30 17284 C 1597.57 3.4624 -0.982119 0
M  V30 17285 C 1597.18 3.739 -2.46784 0
M  V30 17286 C 1598.92 4.18777 -0.694706 0
M  V30 17287 C 1596.83 5.20303 -2.81138 0
M  V30 17288 H 1595.76 0.723502 -0.212276 0
M  V30 17289 H 1598.41 1.43901 -1.13863 0
M  V30 17290 H 1596.79 3.94454 -0.349577 0
M  V30 17291 H 1597.97 3.3641 -3.14905 0
M  V30 17292 H 1596.28 3.14587 -2.72808 0
M  V30 17293 H 1598.88 5.2659 -0.927756 0
M  V30 17294 H 1599.22 4.14667 0.368392 0
M  V30 17295 H 1599.76 3.76414 -1.28676 0
M  V30 17296 H 1596.5 5.29511 -3.86392 0
M  V30 17297 H 1596.02 5.58907 -2.17675 0
M  V30 17298 H 1597.69 5.88265 -2.69358 0
M  V30 17299 N 1597.83 0.703118 1.41046 0
M  V30 17300 C 1599.1 0.164985 1.94903 0
M  V30 17301 C 1599.48 -1.32665 1.64205 0
M  V30 17302 O 1598.83 -2.07675 0.953058 0
M  V30 17303 C 1599.04 0.464354 3.45897 0
M  V30 17304 C 1600.39 0.396205 4.22747 0
M  V30 17305 O 1601.41 0.399698 3.5395 0
M  V30 17306 O 1600.27 0.362874 5.45294 0
M  V30 17307 H 1597.37 0.0193901 0.826773 0
M  V30 17308 H 1599.91 0.779796 1.50722 0
M  V30 17309 H 1598.68 1.49653 3.61552 0
M  V30 17310 H 1598.31 -0.18105 3.97188 0
M  V30 17311 N 1599.3 -1.51086 0.448402 0
M  V30 17312 C 1600.55 -2.0312 -0.106726 0
M  V30 17313 C 1600.91 -1.3259 -1.39419 0
M  V30 17314 O 1600.2 -0.435501 -1.86585 0
M  V30 17315 C 1600.39 -3.55488 -0.369232 0
M  V30 17316 C 1600.22 -4.4078 0.891233 0
M  V30 17317 C 1598.99 -4.84703 1.42798 0
M  V30 17318 C 1601.19 -4.82498 1.78044 0
M  V30 17319 N 1599.17 -5.54243 2.63984 0
M  V30 17320 C 1600.54 -5.51218 2.83828 0
M  V30 17321 C 1602.6 -4.64474 1.79354 0
M  V30 17322 C 1601.3 -6.03825 3.90881 0
M  V30 17323 C 1603.33 -5.18005 2.8535 0
M  V30 17324 C 1602.69 -5.86681 3.89853 0
M  V30 17325 H 1598.79 -0.782 0.000394759 0
M  V30 17326 H 1601.37 -1.84846 0.611546 0
M  V30 17327 H 1599.54 -3.73754 -1.05654 0
M  V30 17328 H 1601.27 -3.94181 -0.916694 0
M  V30 17329 H 1598.03 -4.63343 0.980339 0
M  V30 17330 H 1598.45 -5.93634 3.25465 0
M  V30 17331 H 1603.1 -4.10832 0.998865 0
M  V30 17332 H 1600.81 -6.56517 4.7118 0
M  V30 17333 H 1604.4 -5.05905 2.87318 0
M  V30 17334 H 1603.28 -6.27358 4.70522 0
M  V30 17335 N 1600.78 -0.180154 -1.56567 0
M  V30 17336 C 1602.06 0.509347 -1.88852 0
M  V30 17337 C 1602.44 1.80697 -1.09141 0
M  V30 17338 O 1601.79 2.27726 -0.187974 0
M  V30 17339 C 1602 0.742669 -3.41006 0
M  V30 17340 C 1603.35 1.06873 -4.1093 0
M  V30 17341 O 1604.37 0.830907 -3.46373 0
M  V30 17342 O 1603.23 1.51784 -5.24999 0
M  V30 17343 H 1600.32 0.263629 -0.783855 0
M  V30 17344 H 1602.87 -0.219251 -1.68278 0
M  V30 17345 H 1601.64 -0.17431 -3.90912 0
M  V30 17346 H 1601.26 1.52427 -3.67222 0
M  V30 17347 N 1602.26 1.57322 0.0935319 0
M  V30 17348 C 1603.17 2.05499 1.13169 0
M  V30 17349 C 1604.19 0.980199 1.43764 0
M  V30 17350 O 1605.36 1.29347 1.54374 0
M  V30 17351 C 1602.43 2.47111 2.43181 0
M  V30 17352 C 1601.49 3.68791 2.19754 0
M  V30 17353 C 1600.72 4.08408 3.43567 0
M  V30 17354 O 1600.94 3.48104 4.51863 0
M  V30 17355 O 1599.88 5.01351 3.33062 0
M  V30 17356 H 1603.7 2.9423 0.752491 0
M  V30 17357 H 1601.29 1.4623 0.306151 0
M  V30 17358 H 1603.17 2.74495 3.19735 0
M  V30 17359 H 1601.85 1.61518 2.80524 0
M  V30 17360 H 1600.75 3.46521 1.40976 0
M  V30 17361 H 1602.09 4.55169 1.87303 0
M  V30 17362 N 1603.74 -0.364395 1.53329 0
M  V30 17363 C 1604.69 -1.44645 1.79851 0
M  V30 17364 C 1605.66 -1.53151 0.642951 0
M  V30 17365 O 1606.84 -1.6902 0.885252 0
M  V30 17366 C 1603.98 -2.81575 1.99523 0
M  V30 17367 C 1603.09 -2.82026 3.27239 0
M  V30 17368 C 1602.23 -4.1054 3.37091 0
M  V30 17369 C 1601.27 -4.05138 4.58835 0
M  V30 17370 N 1600.4 -5.25303 4.65834 0
M  V30 17371 H 1605.24 -1.21329 2.72182 0
M  V30 17372 H 1602.78 -0.588143 1.34831 0
M  V30 17373 H 1604.74 -3.61124 2.08915 0
M  V30 17374 H 1603.37 -3.03288 1.10527 0
M  V30 17375 H 1602.42 -1.94704 3.26794 0
M  V30 17376 H 1603.73 -2.73907 4.16865 0
M  V30 17377 H 1602.89 -4.98504 3.45801 0
M  V30 17378 H 1601.63 -4.21413 2.45483 0
M  V30 17379 H 1600.63 -3.1556 4.50224 0
M  V30 17380 H 1601.86 -3.95866 5.51785 0
M  V30 17381 H 1599.8 -5.36759 3.77128 0
M  V30 17382 H 1599.72 -5.19358 5.49367 0
M  V30 17383 H 1600.99 -6.15096 4.78829 0
M  V30 17384 N 1605.22 -1.44709 -0.62426 0
M  V30 17385 C 1606.16 -1.52104 -1.73589 0
M  V30 17386 C 1607.13 -0.368193 -1.61968 0
M  V30 17387 O 1608.32 -0.579374 -1.81791 0
M  V30 17388 C 1605.46 -1.4778 -3.11857 0
M  V30 17389 C 1604.57 -2.73491 -3.34405 0
M  V30 17390 C 1603.71 -2.60953 -4.62685 0
M  V30 17391 C 1602.75 -3.81795 -4.78434 0
M  V30 17392 N 1601.88 -3.67892 -5.97997 0
M  V30 17393 H 1606.72 -2.47077 -1.66604 0
M  V30 17394 H 1604.26 -1.22617 -0.812616 0
M  V30 17395 H 1606.22 -1.43263 -3.91831 0
M  V30 17396 H 1604.85 -0.563694 -3.1784 0
M  V30 17397 H 1603.9 -2.88166 -2.48324 0
M  V30 17398 H 1605.21 -3.6317 -3.4192 0
M  V30 17399 H 1604.37 -2.54308 -5.50829 0
M  V30 17400 H 1603.1 -1.68846 -4.57539 0
M  V30 17401 H 1602.11 -3.88817 -3.88717 0
M  V30 17402 H 1603.33 -4.74947 -4.85388 0
M  V30 17403 H 1601.28 -2.78541 -5.93928 0
M  V30 17404 H 1601.2 -4.51193 -6.06598 0
M  V30 17405 H 1602.47 -3.6515 -6.88684 0
M  V30 17406 N 1606.69 0.865285 -1.31722 0
M  V30 17407 C 1607.94 1.6135 -1.21033 0
M  V30 17408 C 1608.26 1.94253 0.229141 0
M  V30 17409 O 1609.46 2.67613 0.457771 0
M  V30 17410 C 1607.92 2.90898 -2.11912 0
M  V30 17411 C 1607.53 2.6546 -3.60881 0
M  V30 17412 C 1609.27 3.68898 -2.10035 0
M  V30 17413 C 1607.18 3.90943 -4.43754 0
M  V30 17414 H 1606.11 0.605418 -0.449428 0
M  V30 17415 H 1608.76 0.956335 -1.56609 0
M  V30 17416 H 1607.14 3.58014 -1.69239 0
M  V30 17417 H 1608.31 2.06721 -4.11829 0
M  V30 17418 H 1606.63 2.00806 -3.64782 0
M  V30 17419 H 1609.23 4.61995 -2.69193 0
M  V30 17420 H 1609.57 4.01813 -1.08865 0
M  V30 17421 H 1610.1 3.08671 -2.50932 0
M  V30 17422 H 1606.84 3.63176 -5.45696 0
M  V30 17423 H 1606.36 4.49116 -3.97561 0
M  V30 17424 H 1608.04 4.58784 -4.56208 0
M  V30 17425 N 1608.17 1.14759 1.0802 0
M  V30 17426 C 1609.42 0.912823 1.79862 0
M  V30 17427 C 1609.73 -0.561873 1.87356 0
M  V30 17428 O 1610.94 -0.914015 2.55652 0
M  V30 17429 C 1609.4 1.58369 3.23183 0
M  V30 17430 C 1609 3.09493 3.23911 0
M  V30 17431 C 1610.75 1.43021 3.99682 0
M  V30 17432 C 1608.66 3.69398 4.61843 0
M  V30 17433 H 1607.59 0.337868 0.674063 0
M  V30 17434 H 1610.24 1.37695 1.21294 0
M  V30 17435 H 1608.62 1.04724 3.81902 0
M  V30 17436 H 1609.79 3.69838 2.74876 0
M  V30 17437 H 1608.11 3.24524 2.60908 0
M  V30 17438 H 1610.7 1.85174 5.01612 0
M  V30 17439 H 1611.05 0.376814 4.14591 0
M  V30 17440 H 1611.58 1.93724 3.47442 0
M  V30 17441 H 1608.32 4.74607 4.52138 0
M  V30 17442 H 1607.84 3.13835 5.11144 0
M  V30 17443 H 1609.52 3.69923 5.30816 0
M  V30 17444 N 1609.65 -1.26251 0.943322 0
M  V30 17445 C 1610.56 -2.3003 0.460778 0
M  V30 17446 C 1611.58 -1.67635 -0.4663 0
M  V30 17447 O 1612.75 -1.98418 -0.345307 0
M  V30 17448 C 1609.82 -3.45691 -0.264291 0
M  V30 17449 C 1608.88 -4.23561 0.69961 0
M  V30 17450 C 1608.11 -5.33699 0.00904846 0
M  V30 17451 O 1608.33 -5.57473 -1.20748 0
M  V30 17452 O 1607.27 -5.97945 0.688839 0
M  V30 17453 H 1611.09 -2.73374 1.32289 0
M  V30 17454 H 1608.68 -1.31489 0.709297 0
M  V30 17455 H 1610.56 -4.15997 -0.672634 0
M  V30 17456 H 1609.24 -3.04373 -1.10176 0
M  V30 17457 H 1608.14 -3.55728 1.15794 0
M  V30 17458 H 1609.48 -4.68634 1.50476 0
M  V30 17459 N 1611.13 -0.710588 -1.40671 0
M  V30 17460 C 1612.04 -0.0557164 -2.34534 0
M  V30 17461 C 1613.06 0.749387 -1.57036 0
M  V30 17462 O 1614.23 0.683493 -1.89447 0
M  V30 17463 C 1611.3 0.858583 -3.35901 0
M  V30 17464 C 1610.36 0.043995 -4.29277 0
M  V30 17465 C 1609.59 0.91475 -5.25802 0
M  V30 17466 O 1609.81 2.15407 -5.28163 0
M  V30 17467 O 1608.75 0.356407 -6.00844 0
M  V30 17468 H 1612.57 -0.829807 -2.92144 0
M  V30 17469 H 1610.16 -0.471028 -1.4178 0
M  V30 17470 H 1612.04 1.38244 -3.98079 0
M  V30 17471 H 1610.72 1.61191 -2.80712 0
M  V30 17472 H 1609.62 -0.524815 -3.704 0
M  V30 17473 H 1610.96 -0.670996 -4.87605 0
M  V30 17474 N 1612.61 1.50847 -0.456408 0
M  V30 17475 C 1613.54 2.31077 0.335523 0
M  V30 17476 C 1614.52 1.37326 1.00377 0
M  V30 17477 O 1615.7 1.66247 1.00376 0
M  V30 17478 C 1612.83 3.16662 1.42627 0
M  V30 17479 C 1611.79 4.18846 0.88045 0
M  V30 17480 C 1611.11 4.93074 2.06838 0
M  V30 17481 C 1612.41 5.22208 -0.0982288 0
M  V30 17482 H 1614.11 2.97531 -0.334056 0
M  V30 17483 H 1611.65 1.43085 -0.162099 0
M  V30 17484 H 1613.61 3.71578 1.98765 0
M  V30 17485 H 1612.33 2.48066 2.12441 0
M  V30 17486 H 1610.99 3.65009 0.341147 0
M  V30 17487 H 1610.64 4.20963 2.75316 0
M  V30 17488 H 1610.34 5.62184 1.70947 0
M  V30 17489 H 1611.86 5.5082 2.63494 0
M  V30 17490 H 1613.28 5.72082 0.373481 0
M  V30 17491 H 1611.67 5.98954 -0.370674 0
M  V30 17492 H 1612.74 4.73859 -1.02887 0
M  V30 17493 N 1614.09 0.188454 1.56469 0
M  V30 17494 C 1615.03 -0.735074 2.18781 0
M  V30 17495 C 1616 -1.21459 1.133 0
M  V30 17496 O 1617.19 -1.27967 1.41524 0
M  V30 17497 C 1614.33 -1.95181 2.84602 0
M  V30 17498 C 1613.44 -1.51428 4.0459 0
M  V30 17499 C 1612.58 -2.68601 4.58287 0
M  V30 17500 C 1611.61 -2.21422 5.70648 0
M  V30 17501 N 1610.75 -3.31749 6.18779 0
M  V30 17502 H 1615.59 -0.19694 2.97349 0
M  V30 17503 H 1613.13 -0.0854693 1.46851 0
M  V30 17504 H 1615.09 -2.66571 3.2093 0
M  V30 17505 H 1613.72 -2.46337 2.0861 0
M  V30 17506 H 1612.77 -0.6965 3.73969 0
M  V30 17507 H 1614.08 -1.1281 4.85876 0
M  V30 17508 H 1613.23 -3.48123 4.96885 0
M  V30 17509 H 1611.97 -3.1049 3.76095 0
M  V30 17510 H 1610.98 -1.40352 5.31584 0
M  V30 17511 H 1612.2 -1.80572 6.54653 0
M  V30 17512 H 1610.15 -3.73181 5.39511 0
M  V30 17513 H 1610.07 -2.97277 6.95099 0
M  V30 17514 H 1611.33 -4.11504 6.62031 0
M  V30 17515 N 1615.56 -1.5737 -0.0851874 0
M  V30 17516 C 1616.51 -2.03781 -1.12142 0
M  V30 17517 C 1617.51 -0.940669 -1.40882 0
M  V30 17518 O 1618.71 -1.12582 -1.40447 0
M  V30 17519 H 1615.09 -0.64956 -0.378914 0
M  V30 17520 H 1617.06 -2.89983 -0.703736 0
M  V30 17521 C 1615.81 -2.48628 -2.43062 0
M  V30 17522 H 1615.13 -3.32637 -2.21795 0
M  V30 17523 H 1616.57 -2.84869 -3.14048 0
M  V30 17524 C 1615.03 -1.36364 -3.08069 0
M  V30 17525 O 1615.56 -0.698273 -3.95584 0
M  V30 17526 N 1613.76 -1.11213 -2.68477 0
M  V30 17527 H 1613.31 -1.655 -1.97402 0
M  V30 17528 H 1613.27 -0.363003 -3.12297 0
M  V30 17529 N 1617.04 0.356258 -1.53521 0
M  V30 17530 C 1618.45 0.932569 -1.61741 0
M  V30 17531 C 1618.8 1.89965 -0.490677 0
M  V30 17532 O 1617.93 2.1301 0.381514 0
M  V30 17533 C 1618.52 1.69818 -2.93168 0
M  V30 17534 C 1617.08 2.22369 -3.03692 0
M  V30 17535 C 1616.23 1.03891 -2.57103 0
M  V30 17536 H 1619.18 0.134769 -1.58127 0
M  V30 17537 H 1619.2 2.56011 -2.81494 0
M  V30 17538 H 1618.71 0.994065 -3.75153 0
M  V30 17539 H 1616.81 2.95994 -2.26314 0
M  V30 17540 H 1616.93 2.49611 -4.08939 0
M  V30 17541 H 1615.29 1.40862 -2.12202 0
M  V30 17542 H 1616.07 0.349637 -3.41515 0
M  V30 17543 N 1618.52 1.45038 0.616577 0
M  V30 17544 C 1619.74 1.52321 1.40759 0
M  V30 17545 C 1620.17 0.15375 1.87471 0
M  V30 17546 O 1619.53 -0.859908 1.5961 0
M  V30 17547 C 1619.58 2.50464 2.59423 0
M  V30 17548 O 1618.68 2.01623 3.59753 0
M  V30 17549 H 1618.02 0.513808 0.420592 0
M  V30 17550 H 1620.55 1.90309 0.751234 0
M  V30 17551 H 1620.56 2.68977 3.06783 0
M  V30 17552 H 1619.24 3.4993 2.24771 0
M  V30 17553 H 1617.81 1.92945 3.19103 0
M  V30 17554 N 1620 -0.858287 1.32179 0
M  V30 17555 C 1621.41 -1.4281 1.20259 0
M  V30 17556 C 1621.76 -1.95313 -0.186332 0
M  V30 17557 O 1620.88 -1.87244 -1.08484 0
M  V30 17558 C 1621.48 -2.59589 2.17713 0
M  V30 17559 C 1620.04 -3.1258 2.09691 0
M  V30 17560 C 1619.19 -1.85317 2.06283 0
M  V30 17561 H 1622.14 -0.665769 1.4406 0
M  V30 17562 H 1622.16 -3.36639 1.77354 0
M  V30 17563 H 1621.67 -2.21346 3.18791 0
M  V30 17564 H 1619.77 -3.55416 1.11849 0
M  V30 17565 H 1619.88 -3.74071 2.99346 0
M  V30 17566 H 1618.25 -2.04766 1.51469 0
M  V30 17567 H 1619.03 -1.49296 3.09137 0
M  V30 17568 N 1621.48 -1.1533 -1.07409 0
M  V30 17569 C 1622.42 -0.849527 -2.14597 0
M  V30 17570 C 1623.39 0.197288 -1.64924 0
M  V30 17571 O 1624.58 0.0649694 -1.90689 0
M  V30 17572 C 1621.72 -0.344327 -3.43378 0
M  V30 17573 C 1620.83 -1.45264 -4.06844 0
M  V30 17574 C 1619.97 -0.90363 -5.23458 0
M  V30 17575 C 1619 -1.98892 -5.78885 0
M  V30 17576 N 1618.14 -1.45633 -6.8683 0
M  V30 17577 H 1622.98 -1.76753 -2.39922 0
M  V30 17578 H 1620.52 -0.881942 -1.17729 0
M  V30 17579 H 1622.48 -0.0331352 -4.17187 0
M  V30 17580 H 1621.11 0.536757 -3.18306 0
M  V30 17581 H 1620.16 -1.88003 -3.30695 0
M  V30 17582 H 1621.47 -2.27207 -4.44048 0
M  V30 17583 H 1620.62 -0.544945 -6.04248 0
M  V30 17584 H 1619.36 -0.0533648 -4.87671 0
M  V30 17585 H 1618.37 -2.35644 -4.96741 0
M  V30 17586 H 1619.59 -2.84295 -6.16728 0
M  V30 17587 H 1617.54 -0.628417 -6.52983 0
M  V30 17588 H 1617.46 -2.21204 -7.22914 0
M  V30 17589 H 1618.72 -1.12587 -7.71326 0
M  V30 17590 N 1622.95 1.25748 -0.950004 0
M  V30 17591 C 1624.37 1.45599 -0.653697 0
M  V30 17592 C 1624.57 1.85357 0.790245 0
M  V30 17593 O 1623.63 1.98071 1.56601 0
M  V30 17594 C 1624.94 2.5316 -1.62267 0
M  V30 17595 C 1626.49 2.67004 -1.63334 0
M  V30 17596 C 1626.96 3.77745 -2.58984 0
M  V30 17597 N 1628.45 3.8515 -2.57321 0
M  V30 17598 C 1629.19 4.70315 -3.28011 0
M  V30 17599 N 1628.68 5.59802 -4.08159 0
M  V30 17600 N 1630.48 4.64239 -3.16921 0
M  V30 17601 H 1622.63 0.982321 -1.88319 0
M  V30 17602 H 1624.89 0.492917 -0.809776 0
M  V30 17603 H 1624.6 2.30792 -2.65382 0
M  V30 17604 H 1624.47 3.50988 -1.38158 0
M  V30 17605 H 1626.86 2.88739 -0.609388 0
M  V30 17606 H 1626.94 1.69591 -1.915 0
M  V30 17607 H 1626.58 3.56761 -3.61502 0
M  V30 17608 H 1626.51 4.74633 -2.28103 0
M  V30 17609 H 1629 3.21178 -1.99131 0
M  V30 17610 H 1629.32 6.21701 -4.59029 0
M  V30 17611 H 1627.66 5.59525 -4.12258 0
M  V30 17612 H 1630.85 3.93335 -2.53782 0
M  V30 17613 H 1631.03 5.30389 -3.72279 0
M  V30 17614 N 1624.43 0.718038 1.40292 0
M  V30 17615 C 1625.68 0.255581 2.00074 0
M  V30 17616 C 1625.99 -1.15859 1.57594 0
M  V30 17617 O 1627.2 -1.71969 2.10092 0
M  V30 17618 C 1625.66 0.406019 3.57602 0
M  V30 17619 C 1625.26 1.82699 4.09054 0
M  V30 17620 C 1627.01 0.00447854 4.245 0
M  V30 17621 C 1624.91 1.92788 5.59094 0
M  V30 17622 H 1623.84 0.0918012 0.748391 0
M  V30 17623 H 1626.5 0.88948 1.60501 0
M  V30 17624 H 1624.88 -0.296504 3.94888 0
M  V30 17625 H 1626.05 2.56009 3.8314 0
M  V30 17626 H 1624.37 2.18021 3.54761 0
M  V30 17627 H 1626.96 0.05911 5.34667 0
M  V30 17628 H 1627.31 -1.03779 4.03157 0
M  V30 17629 H 1627.84 0.657535 3.92328 0
M  V30 17630 H 1624.58 2.95145 5.85295 0
M  V30 17631 H 1624.1 1.23893 5.86865 0
M  V30 17632 H 1625.78 1.70114 6.24236 0
M  V30 17633 N 1625.91 -1.50602 0.464402 0
M  V30 17634 C 1627.19 -1.94992 -0.154146 0
M  V30 17635 C 1627.57 -1.40447 -1.57601 0
M  V30 17636 O 1626.92 -0.602668 -2.20409 0
M  V30 17637 C 1627.13 -3.48844 -0.104296 0
M  V30 17638 C 1628.47 -4.23563 -0.296506 0
M  V30 17639 O 1629.5 -3.55739 -0.181187 0
M  V30 17640 O 1628.36 -5.43937 -0.528668 0
M  V30 17641 H 1625.45 -0.818921 -0.115311 0
M  V30 17642 H 1628 -1.61397 0.524324 0
M  V30 17643 H 1626.77 -3.81075 0.88869 0
M  V30 17644 H 1626.39 -3.88957 -0.824514 0
M  V30 17645 N 1627.39 -0.19675 -1.56367 0
M  V30 17646 C 1628.35 0.709734 -2.17934 0
M  V30 17647 C 1629.35 1.13979 -1.13426 0
M  V30 17648 O 1630.54 1.05261 -1.38801 0
M  V30 17649 C 1627.67 1.96917 -2.78274 0
M  V30 17650 H 1628.87 0.173342 -2.99399 0
M  V30 17651 H 1626.42 0.0528698 -1.56211 0
M  V30 17652 H 1627.15 2.54804 -2.00613 0
M  V30 17653 H 1626.94 1.66951 -3.54781 0
M  V30 17654 H 1628.43 2.61554 -3.25545 0
M  V30 17655 N 1628.87 1.57413 0.0768405 0
M  V30 17656 C 1630.12 1.86186 0.775741 0
M  V30 17657 C 1630.43 0.788676 1.78995 0
M  V30 17658 O 1631.63 0.964095 2.53806 0
M  V30 17659 C 1630.09 3.30247 1.43055 0
M  V30 17660 C 1629.7 4.45682 0.45517 0
M  V30 17661 C 1631.44 3.68225 2.11211 0
M  V30 17662 C 1629.35 5.80782 1.11561 0
M  V30 17663 H 1628.28 0.694546 0.293466 0
M  V30 17664 H 1630.93 1.83477 0.0289478 0
M  V30 17665 H 1629.31 3.27552 2.22544 0
M  V30 17666 H 1630.49 4.59759 -0.309535 0
M  V30 17667 H 1628.8 4.16222 -0.121671 0
M  V30 17668 H 1631.4 4.66454 2.6139 0
M  V30 17669 H 1631.74 2.9777 2.90928 0
M  V30 17670 H 1632.27 3.72888 1.38561 0
M  V30 17671 H 1629.01 6.54517 0.358877 0
M  V30 17672 H 1628.53 5.70515 1.8513 0
M  V30 17673 H 1630.21 6.25951 1.63689 0
M  V30 17674 N 1630.34 -0.348112 1.53707 0
M  V30 17675 C 1631.29 -1.42782 1.77756 0
M  V30 17676 C 1632.28 -1.47942 0.63261 0
M  V30 17677 O 1633.47 -1.52889 0.891855 0
M  V30 17678 C 1630.6 -2.79986 1.98652 0
M  V30 17679 C 1629.69 -2.79237 3.19199 0
M  V30 17680 N 1630.08 -2.4812 4.40761 0
M  V30 17681 C 1628.37 -3.10387 3.20275 0
M  V30 17682 C 1629.08 -2.55489 5.2259 0
M  V30 17683 N 1628.05 -2.90923 4.592 0
M  V30 17684 H 1631.85 -1.17615 2.6934 0
M  V30 17685 H 1629.37 -0.556438 1.5257 0
M  V30 17686 H 1631.36 -3.57777 2.14013 0
M  V30 17687 H 1630.02 -3.06104 1.08307 0
M  V30 17688 H 1631.04 -2.214 4.68191 0
M  V30 17689 H 1627.71 -3.41706 2.39882 0
M  V30 17690 H 1629.1 -2.34629 6.29602 0
M  V30 17691 N 1631.82 -1.45363 -0.608876 0
M  V30 17692 C 1632.75 -1.49944 -1.73348 0
M  V30 17693 C 1633.77 -0.390352 -1.58051 0
M  V30 17694 O 1634.96 -0.657338 -1.65956 0
M  V30 17695 C 1632.06 -1.33886 -3.11332 0
M  V30 17696 C 1631.23 -2.58445 -3.52881 0
M  V30 17697 C 1630.29 -2.36963 -4.69825 0
M  V30 17698 O 1629.31 -3.10569 -4.77007 0
M  V30 17699 N 1630.52 -1.41442 -5.63005 0
M  V30 17700 H 1633.28 -2.46902 -1.69882 0
M  V30 17701 H 1630.84 -1.41086 -0.794119 0
M  V30 17702 H 1632.83 -1.17327 -3.8732 0
M  V30 17703 H 1631.4 -0.452095 -3.09314 0
M  V30 17704 H 1630.62 -2.90129 -2.66869 0
M  V30 17705 H 1631.91 -3.41245 -3.77398 0
M  V30 17706 H 1631.31 -0.806941 -5.59915 0
M  V30 17707 H 1629.87 -1.30855 -6.3853 0
M  V30 17708 N 1633.3 0.851265 -1.32632 0
M  V30 17709 C 1634.26 1.94168 -1.21785 0
M  V30 17710 C 1635.26 1.60189 -0.140023 0
M  V30 17711 O 1636.45 1.69763 -0.390671 0
M  V30 17712 C 1633.59 3.29513 -0.873717 0
M  V30 17713 H 1634.78 2.05214 -2.18695 0
M  V30 17714 H 1632.33 1.04186 -1.16512 0
M  V30 17715 H 1633.07 3.24165 0.0934202 0
M  V30 17716 H 1632.85 3.55552 -1.65302 0
M  V30 17717 H 1634.34 4.09425 -0.822231 0
M  V30 17718 N 1634.78 1.15898 1.06796 0
M  V30 17719 C 1636.03 0.937339 1.795 0
M  V30 17720 C 1636.35 -0.535183 1.86992 0
M  V30 17721 O 1635.61 -1.41304 1.35394 0
M  V30 17722 C 1635.91 1.50368 3.24229 0
M  V30 17723 C 1635.57 2.99765 3.36826 0
M  V30 17724 C 1634.24 3.40548 3.39971 0
M  V30 17725 C 1636.59 3.9575 3.39163 0
M  V30 17726 C 1633.92 4.75946 3.43063 0
M  V30 17727 C 1636.27 5.31028 3.43791 0
M  V30 17728 C 1634.93 5.71298 3.45216 0
M  V30 17729 H 1634.2 0.342997 0.656837 0
M  V30 17730 H 1636.85 1.44531 1.2563 0
M  V30 17731 H 1635.15 0.917024 3.80917 0
M  V30 17732 H 1636.85 1.30793 3.7907 0
M  V30 17733 H 1633.44 2.67244 3.3508 0
M  V30 17734 H 1637.62 3.65311 3.35948 0
M  V30 17735 H 1632.88 5.06484 3.42468 0
M  V30 17736 H 1637.05 6.05195 3.44546 0
M  V30 17737 H 1634.68 6.76196 3.47365 0
M  V30 17738 N 1636.26 -1.25243 0.956659 0
M  V30 17739 C 1637.21 -2.23532 0.449171 0
M  V30 17740 C 1638.19 -1.54103 -0.462715 0
M  V30 17741 O 1639.38 -1.74517 -0.295436 0
M  V30 17742 C 1636.51 -3.42237 -0.269892 0
M  V30 17743 C 1635.6 -4.1893 0.660181 0
M  V30 17744 N 1635.99 -4.72965 1.7927 0
M  V30 17745 C 1634.29 -4.4353 0.468779 0
M  V30 17746 C 1634.99 -5.31072 2.37355 0
M  V30 17747 N 1633.96 -5.17638 1.65986 0
M  V30 17748 H 1637.77 -2.62918 1.31345 0
M  V30 17749 H 1635.28 -1.40504 0.814394 0
M  V30 17750 H 1637.28 -4.11792 -0.650604 0
M  V30 17751 H 1635.94 -3.04375 -1.13075 0
M  V30 17752 H 1636.95 -4.70038 2.17451 0
M  V30 17753 H 1633.62 -4.16038 -0.349031 0
M  V30 17754 H 1635.01 -5.83654 3.32863 0
M  V30 17755 N 1637.73 -0.725468 -1.3991 0
M  V30 17756 C 1638.66 -0.094211 -2.3331 0
M  V30 17757 C 1639.65 0.734728 -1.53414 0
M  V30 17758 O 1640.83 0.681647 -1.81844 0
M  V30 17759 C 1637.96 0.820958 -3.37457 0
M  V30 17760 C 1636.91 0.0968983 -4.2789 0
M  V30 17761 C 1636.24 1.12845 -5.22657 0
M  V30 17762 C 1637.54 -1.05483 -5.11537 0
M  V30 17763 H 1639.23 -0.874365 -2.86348 0
M  V30 17764 H 1636.78 -0.421913 -1.3768 0
M  V30 17765 H 1638.73 1.27203 -4.01743 0
M  V30 17766 H 1637.46 1.63312 -2.82837 0
M  V30 17767 H 1636.12 -0.334454 -3.65071 0
M  V30 17768 H 1635.76 1.93392 -4.64337 0
M  V30 17769 H 1635.46 0.648805 -5.84007 0
M  V30 17770 H 1636.99 1.57942 -5.89819 0
M  V30 17771 H 1638.4 -0.682657 -5.69221 0
M  V30 17772 H 1636.8 -1.46349 -5.81981 0
M  V30 17773 H 1637.87 -1.88095 -4.46932 0
M  V30 17774 N 1639.21 1.50354 -0.472382 0
M  V30 17775 C 1640.16 2.30173 0.335135 0
M  V30 17776 C 1641.15 1.37517 0.98921 0
M  V30 17777 O 1642.36 1.54703 0.920168 0
M  V30 17778 H 1638.74 0.741212 0.126918 0
M  V30 17779 H 1640.71 2.96239 -0.358449 0
M  V30 17780 C 1639.46 3.18104 1.40375 0
M  V30 17781 H 1638.78 3.8931 0.90984 0
M  V30 17782 H 1640.22 3.76947 1.94132 0
M  V30 17783 C 1638.68 2.35785 2.40639 0
M  V30 17784 O 1639.21 2.04185 3.45936 0
M  V30 17785 N 1637.41 1.98342 2.12389 0
M  V30 17786 H 1636.96 2.2424 1.26784 0
M  V30 17787 H 1636.92 1.43567 2.79707 0
M  V30 17788 N 1640.69 0.205039 1.56261 0
M  V30 17789 C 1641.62 -0.751391 2.15475 0
M  V30 17790 C 1642.6 -1.20265 1.09431 0
M  V30 17791 O 1643.79 -1.28837 1.37598 0
M  V30 17792 C 1640.91 -2.01598 2.72169 0
M  V30 17793 C 1639.96 -1.70605 3.90892 0
M  V30 17794 S 1640.79 -0.845372 5.28785 0
M  V30 17795 C 1641.95 -2.11989 5.88907 0
M  V30 17796 H 1642.18 -0.248043 2.96263 0
M  V30 17797 H 1639.71 -0.0100808 1.54397 0
M  V30 17798 H 1641.67 -2.74217 3.05475 0
M  V30 17799 H 1640.33 -2.49045 1.91403 0
M  V30 17800 H 1639.53 -2.6452 4.29005 0
M  V30 17801 H 1639.13 -1.0606 3.58646 0
M  V30 17802 H 1641.42 -3.0715 6.03875 0
M  V30 17803 H 1642.36 -1.78292 6.85286 0
M  V30 17804 H 1642.77 -2.25289 5.17596 0
M  V30 17805 N 1642.17 -1.57451 -0.0684915 0
M  V30 17806 C 1643.58 -1.76107 -0.619932 0
M  V30 17807 C 1643.93 -0.830939 -1.77735 0
M  V30 17808 O 1643.06 -0.0158481 -2.16394 0
M  V30 17809 C 1643.65 -3.19352 -1.13136 0
M  V30 17810 C 1642.21 -3.39341 -1.62864 0
M  V30 17811 C 1641.36 -2.71801 -0.549477 0
M  V30 17812 H 1644.31 -1.57915 0.157689 0
M  V30 17813 H 1644.33 -3.23693 -2.00008 0
M  V30 17814 H 1643.84 -3.87024 -0.288762 0
M  V30 17815 H 1641.94 -2.76787 -2.49438 0
M  V30 17816 H 1642.06 -4.47799 -1.70331 0
M  V30 17817 H 1640.42 -2.34448 -0.995302 0
M  V30 17818 H 1641.2 -3.42132 0.282995 0
M  V30 17819 N 1643.65 0.339955 -1.5389 0
M  V30 17820 C 1644.58 1.44096 -1.76951 0
M  V30 17821 C 1645.56 1.50367 -0.618758 0
M  V30 17822 O 1646.74 1.68028 -0.854329 0
M  V30 17823 C 1643.87 2.82307 -1.87137 0
M  V30 17824 C 1642.92 2.93645 -3.09314 0
M  V30 17825 S 1643.75 2.59742 -4.68288 0
M  V30 17826 C 1644.9 4.00055 -4.81359 0
M  V30 17827 H 1645.14 1.24318 -2.7006 0
M  V30 17828 H 1642.67 0.535835 -1.44804 0
M  V30 17829 H 1644.63 3.61931 -1.93692 0
M  V30 17830 H 1643.29 2.99378 -0.950349 0
M  V30 17831 H 1642.48 3.94927 -3.13127 0
M  V30 17832 H 1642.08 2.21974 -3.01004 0
M  V30 17833 H 1644.38 4.94619 -4.62989 0
M  V30 17834 H 1645.32 4.01234 -5.83452 0
M  V30 17835 H 1645.73 3.88248 -4.09785 0
M  V30 17836 N 1645.13 1.45684 0.601159 0
M  V30 17837 C 1646.4 1.4051 1.36074 0
M  V30 17838 C 1646.78 0.0790095 2.10952 0
M  V30 17839 O 1646.13 -0.939162 2.08307 0
M  V30 17840 C 1646.34 2.62297 2.3022 0
M  V30 17841 C 1647.69 3.0766 2.92627 0
M  V30 17842 O 1648.71 2.62716 2.40539 0
M  V30 17843 O 1647.57 3.85675 3.87191 0
M  V30 17844 H 1644.67 0.557902 0.61047 0
M  V30 17845 H 1647.21 1.57822 0.623712 0
M  V30 17846 H 1645.98 3.50389 1.74194 0
M  V30 17847 H 1645.61 2.47351 3.11293 0
M  V30 17848 N 1646.6 -0.84422 1.33082 0
M  V30 17849 C 1647.55 -1.95363 1.2289 0
M  V30 17850 C 1648.52 -1.65744 0.108705 0
M  V30 17851 O 1649.71 -1.88643 0.286057 0
M  V30 17852 C 1646.85 -3.31228 0.968594 0
M  V30 17853 C 1645.96 -3.73279 2.17455 0
M  V30 17854 C 1645.09 -4.97987 1.84885 0
M  V30 17855 C 1644.13 -5.32558 3.01743 0
M  V30 17856 N 1643.27 -6.48442 2.69197 0
M  V30 17857 H 1648.11 -2.03412 2.17778 0
M  V30 17858 H 1645.65 -0.995461 1.083 0
M  V30 17859 H 1647.6 -4.09494 0.798129 0
M  V30 17860 H 1646.23 -3.22751 0.0564631 0
M  V30 17861 H 1645.29 -2.9058 2.45494 0
M  V30 17862 H 1646.6 -3.94814 3.04834 0
M  V30 17863 H 1645.75 -5.83987 1.64451 0
M  V30 17864 H 1644.49 -4.7841 0.947356 0
M  V30 17865 H 1643.5 -4.45064 3.22797 0
M  V30 17866 H 1644.72 -5.54085 3.9264 0
M  V30 17867 H 1642.67 -6.30363 1.816 0
M  V30 17868 H 1642.58 -6.70046 3.50106 0
M  V30 17869 H 1643.85 -7.37568 2.52217 0
M  V30 17870 N 1648.08 -1.16463 -1.0618 0
M  V30 17871 C 1649.33 -0.941322 -1.78387 0
M  V30 17872 C 1649.64 0.531995 -1.88226 0
M  V30 17873 O 1650.85 0.873227 -2.57074 0
M  V30 17874 C 1649.31 -1.63491 -3.20623 0
M  V30 17875 C 1648.91 -3.14607 -3.18946 0
M  V30 17876 C 1650.66 -1.49361 -3.97356 0
M  V30 17877 C 1648.56 -3.76698 -4.55908 0
M  V30 17878 H 1647.49 -0.348549 -0.668603 0
M  V30 17879 H 1650.15 -1.39607 -1.19088 0
M  V30 17880 H 1648.53 -1.10787 -3.80187 0
M  V30 17881 H 1649.7 -3.74164 -2.68957 0
M  V30 17882 H 1648.02 -3.28634 -2.55712 0
M  V30 17883 H 1650.61 -1.93131 -4.98603 0
M  V30 17884 H 1650.96 -0.442724 -4.13939 0
M  V30 17885 H 1651.49 -1.99227 -3.44316 0
M  V30 17886 H 1648.23 -4.8174 -4.4453 0
M  V30 17887 H 1647.75 -3.21927 -5.06086 0
M  V30 17888 H 1649.43 -3.78321 -5.24864 0
M  V30 17889 N 1649.56 1.24734 -0.963288 0
M  V30 17890 C 1650.51 2.2329 -0.461019 0
M  V30 17891 C 1651.49 1.54346 0.454536 0
M  V30 17892 O 1652.69 1.74671 0.286177 0
M  V30 17893 C 1649.81 3.42376 0.251738 0
M  V30 17894 C 1648.9 4.18574 -0.682388 0
M  V30 17895 N 1649.29 4.72008 -1.81775 0
M  V30 17896 C 1647.59 4.43275 -0.492294 0
M  V30 17897 C 1648.29 5.29806 -2.40168 0
M  V30 17898 N 1647.27 5.16751 -1.68729 0
M  V30 17899 H 1651.07 2.62217 -1.32738 0
M  V30 17900 H 1648.58 1.4007 -0.821834 0
M  V30 17901 H 1650.58 4.12131 0.628756 0
M  V30 17902 H 1649.24 3.0497 1.11459 0
M  V30 17903 H 1650.25 4.68878 -2.1994 0
M  V30 17904 H 1646.93 4.16218 0.326963 0
M  V30 17905 H 1648.32 5.8188 -3.35954 0
M  V30 17906 N 1651.04 0.732878 1.39523 0
M  V30 17907 C 1651.95 0.0930216 2.34416 0
M  V30 17908 C 1652.96 -0.724309 1.58208 0
M  V30 17909 O 1654.14 -0.653267 1.90511 0
M  V30 17910 C 1651.2 -0.805036 3.37224 0
M  V30 17911 C 1650.27 0.0243049 4.29293 0
M  V30 17912 C 1649.5 -0.830984 5.27191 0
M  V30 17913 O 1649.72 -2.06977 5.31523 0
M  V30 17914 O 1648.66 -0.260772 6.01335 0
M  V30 17915 H 1652.48 0.876179 2.90786 0
M  V30 17916 H 1650.07 0.493525 1.41013 0
M  V30 17917 H 1651.95 -1.31894 4.00228 0
M  V30 17918 H 1650.62 -1.56704 2.83241 0
M  V30 17919 H 1649.53 0.583677 3.69519 0
M  V30 17920 H 1650.86 0.748485 4.86476 0
M  V30 17921 N 1652.52 -1.50101 0.480349 0
M  V30 17922 C 1653.45 -2.31581 -0.298718 0
M  V30 17923 C 1654.43 -1.38905 -0.981798 0
M  V30 17924 O 1655.61 -1.67823 -0.977188 0
M  V30 17925 C 1652.74 -3.18891 -1.37571 0
M  V30 17926 C 1651.7 -4.20194 -0.813704 0
M  V30 17927 C 1651.02 -4.96302 -1.98968 0
M  V30 17928 C 1652.32 -5.21985 0.181295 0
M  V30 17929 H 1654.02 -2.96961 0.381349 0
M  V30 17930 H 1651.56 -1.42809 0.184842 0
M  V30 17931 H 1653.51 -3.74694 -1.92828 0
M  V30 17932 H 1652.24 -2.51414 -2.08467 0
M  V30 17933 H 1650.9 -3.65506 -0.283034 0
M  V30 17934 H 1650.55 -4.2529 -2.68584 0
M  V30 17935 H 1650.25 -5.64833 -1.61981 0
M  V30 17936 H 1651.77 -5.54943 -2.54698 0
M  V30 17937 H 1653.18 -5.72604 -0.28242 0
M  V30 17938 H 1651.58 -5.98289 0.465916 0
M  V30 17939 H 1652.65 -4.72162 1.10413 0
M  V30 17940 N 1653.99 -0.213323 -1.5615 0
M  V30 17941 C 1655.22 0.425688 -2.02473 0
M  V30 17942 C 1655.64 1.53926 -1.09326 0
M  V30 17943 O 1654.99 1.82218 -0.101364 0
M  V30 17944 C 1655.04 0.965021 -3.48381 0
M  V30 17945 O 1654.77 -0.104145 -4.37976 0
M  V30 17946 C 1656.27 1.6781 -4.10311 0
M  V30 17947 H 1653.49 0.105064 -0.662724 0
M  V30 17948 H 1656.03 -0.327369 -2.01863 0
M  V30 17949 H 1654.19 1.66838 -3.49634 0
M  V30 17950 H 1654.6 0.299985 -5.23641 0
M  V30 17951 H 1656.07 2.00757 -5.14199 0
M  V30 17952 H 1656.55 2.58833 -3.54827 0
M  V30 17953 H 1657.16 1.02014 -4.12884 0
M  V30 17954 N 1655.47 1.57485 0.0601405 0
M  V30 17955 C 1656.42 2.00939 1.07739 0
M  V30 17956 C 1657.41 0.893348 1.33821 0
M  V30 17957 O 1658.6 1.15727 1.33927 0
M  V30 17958 C 1655.73 2.46657 2.38778 0
M  V30 17959 C 1654.81 3.65019 2.1592 0
M  V30 17960 N 1655.2 4.78807 1.63025 0
M  V30 17961 C 1653.5 3.71794 2.46344 0
M  V30 17962 C 1654.2 5.60599 1.55253 0
M  V30 17963 N 1653.18 5.04788 2.01718 0
M  V30 17964 H 1656.98 2.86349 0.661923 0
M  V30 17965 H 1654.5 1.6019 0.267017 0
M  V30 17966 H 1656.49 2.76032 3.12429 0
M  V30 17967 H 1655.15 1.62639 2.81031 0
M  V30 17968 H 1656.16 5.00868 1.31725 0
M  V30 17969 H 1652.84 2.98513 2.91884 0
M  V30 17970 H 1654.23 6.61966 1.1511 0
M  V30 17971 N 1656.95 -0.331789 1.54068 0
M  V30 17972 C 1658.2 -1.06818 1.71093 0
M  V30 17973 C 1658.51 -1.89438 0.487111 0
M  V30 17974 O 1659.72 -2.66105 0.538544 0
M  V30 17975 C 1658.17 -1.94853 3.02589 0
M  V30 17976 C 1657.78 -1.17384 4.32348 0
M  V30 17977 C 1659.53 -2.68278 3.28979 0
M  V30 17978 C 1657.43 -2.04518 5.54911 0
M  V30 17979 H 1656.36 -0.402501 0.63758 0
M  V30 17980 H 1659.01 -0.326918 1.80564 0
M  V30 17981 H 1657.4 -2.72845 2.87004 0
M  V30 17982 H 1658.57 -0.442208 4.58673 0
M  V30 17983 H 1656.89 -0.556775 4.12661 0
M  V30 17984 H 1659.48 -3.33762 4.1774 0
M  V30 17985 H 1659.83 -3.35476 2.46498 0
M  V30 17986 H 1660.36 -1.97353 3.45394 0
M  V30 17987 H 1657.1 -1.41842 6.3997 0
M  V30 17988 H 1656.62 -2.75438 5.32817 0
M  V30 17989 H 1658.3 -2.63297 5.91002 0
M  V30 17990 N 1658.43 -1.46001 -0.593424 0
M  V30 17991 C 1659.71 -1.4123 -1.35327 0
M  V30 17992 C 1660.09 -0.0901956 -2.10907 0
M  V30 17993 O 1659.43 0.928102 -2.08803 0
M  V30 17994 C 1659.64 -2.63515 -2.28825 0
M  V30 17995 C 1660.99 -3.09208 -2.90991 0
M  V30 17996 O 1662.02 -2.63988 -2.39142 0
M  V30 17997 O 1660.87 -3.87723 -3.8514 0
M  V30 17998 H 1657.97 -0.561132 -0.607503 0
M  V30 17999 H 1660.51 -1.58151 -0.615333 0
M  V30 18000 H 1659.29 -3.51308 -1.72333 0
M  V30 18001 H 1658.91 -2.48999 -3.09976 0
M  V30 18002 N 1659.91 0.83715 -1.33527 0
M  V30 18003 C 1661.14 1.6222 -1.27938 0
M  V30 18004 C 1661.54 1.88592 0.151584 0
M  V30 18005 O 1660.89 1.46772 1.1047 0
M  V30 18006 C 1660.95 2.99561 -1.98754 0
M  V30 18007 C 1660.61 2.96152 -3.48056 0
M  V30 18008 C 1661.61 2.71745 -4.43227 0
M  V30 18009 C 1659.3 3.16233 -3.90259 0
M  V30 18010 C 1661.29 2.67451 -5.78575 0
M  V30 18011 C 1658.98 3.11564 -5.2571 0
M  V30 18012 C 1659.97 2.87204 -6.1968 0
M  V30 18013 O 1659.66 2.82441 -7.5265 0
M  V30 18014 H 1659.39 0.511419 -0.442071 0
M  V30 18015 H 1661.95 1.05075 -1.76489 0
M  V30 18016 H 1660.18 3.58568 -1.44797 0
M  V30 18017 H 1661.87 3.60444 -1.86642 0
M  V30 18018 H 1662.63 2.5598 -4.11946 0
M  V30 18019 H 1658.51 3.34214 -3.17525 0
M  V30 18020 H 1662.06 2.48356 -6.51893 0
M  V30 18021 H 1657.95 3.26879 -5.56615 0
M  V30 18022 H 1658.72 2.98271 -7.62218 0
M  V30 18023 N 1661.38 1.17024 1.05561 0
M  V30 18024 C 1662.63 0.967739 1.78903 0
M  V30 18025 C 1662.99 -0.498615 1.85827 0
M  V30 18026 O 1662.28 -1.36528 1.34428 0
M  V30 18027 C 1662.47 1.53798 3.22616 0
M  V30 18028 C 1662.3 3.05826 3.29698 0
M  V30 18029 C 1661.07 3.74527 3.39201 0
M  V30 18030 C 1663.27 4.03456 3.18947 0
M  V30 18031 N 1661.25 5.14195 3.35376 0
M  V30 18032 C 1662.62 5.29553 3.22449 0
M  V30 18033 C 1664.68 3.95179 3.02883 0
M  V30 18034 C 1663.38 6.48333 3.11538 0
M  V30 18035 C 1665.41 5.13538 2.93313 0
M  V30 18036 C 1664.77 6.38519 2.97444 0
M  V30 18037 H 1660.87 0.407976 0.667143 0
M  V30 18038 H 1663.45 1.48545 1.25867 0
M  V30 18039 H 1661.62 1.04666 3.74032 0
M  V30 18040 H 1663.35 1.27248 3.84174 0
M  V30 18041 H 1660.11 3.25191 3.44308 0
M  V30 18042 H 1660.53 5.87196 3.36942 0
M  V30 18043 H 1665.18 2.99399 2.9853 0
M  V30 18044 H 1662.89 7.44327 3.14647 0
M  V30 18045 H 1666.48 5.08911 2.8196 0
M  V30 18046 H 1665.36 7.28566 2.90107 0
M  V30 18047 N 1662.86 -1.24221 0.969889 0
M  V30 18048 C 1664.11 -1.92353 0.632976 0
M  V30 18049 C 1664.44 -1.75801 -0.832131 0
M  V30 18050 O 1663.69 -1.10614 -1.6144 0
M  V30 18051 C 1663.99 -3.44365 0.956427 0
M  V30 18052 C 1663.66 -3.81088 2.41003 0
M  V30 18053 C 1662.32 -3.90823 2.80732 0
M  V30 18054 C 1664.67 -3.99002 3.35331 0
M  V30 18055 C 1662 -4.15891 4.13825 0
M  V30 18056 C 1664.35 -4.25567 4.68055 0
M  V30 18057 C 1663.02 -4.33522 5.07558 0
M  V30 18058 H 1662.29 -0.703869 0.231622 0
M  V30 18059 H 1664.93 -1.47461 1.22179 0
M  V30 18060 H 1663.24 -3.90759 0.285402 0
M  V30 18061 H 1664.93 -3.95293 0.674107 0
M  V30 18062 H 1661.52 -3.74077 2.09199 0
M  V30 18063 H 1665.71 -3.90881 3.0582 0
M  V30 18064 H 1660.96 -4.2027 4.44053 0
M  V30 18065 H 1665.14 -4.38372 5.41113 0
M  V30 18066 H 1662.77 -4.52699 6.10711 0
M  V30 18067 N 1664.34 -0.740267 -1.39132 0
M  V30 18068 C 1665.27 -0.118951 -2.33197 0
M  V30 18069 C 1666.25 0.718416 -1.54184 0
M  V30 18070 O 1667.44 0.662322 -1.82557 0
M  V30 18071 C 1664.57 0.78512 -3.38309 0
M  V30 18072 C 1663.52 0.0515093 -4.27969 0
M  V30 18073 C 1662.85 1.07295 -5.23824 0
M  V30 18074 C 1664.15 -1.10903 -5.1039 0
M  V30 18075 H 1665.84 -0.904687 -2.85405 0
M  V30 18076 H 1663.39 -0.436493 -1.37225 0
M  V30 18077 H 1665.34 1.22935 -4.03069 0
M  V30 18078 H 1664.06 1.60303 -2.84553 0
M  V30 18079 H 1662.72 -0.373156 -3.64696 0
M  V30 18080 H 1662.37 1.88456 -4.66362 0
M  V30 18081 H 1662.07 0.586827 -5.84662 0
M  V30 18082 H 1663.59 1.51677 -5.91461 0
M  V30 18083 H 1665.01 -0.742993 -5.68465 0
M  V30 18084 H 1663.41 -1.52513 -5.80396 0
M  V30 18085 H 1664.48 -1.92825 -4.44912 0
M  V30 18086 N 1665.82 1.49844 -0.488302 0
M  V30 18087 C 1666.77 2.25802 0.315853 0
M  V30 18088 C 1667.75 1.30108 0.946606 0
M  V30 18089 O 1668.94 1.54908 0.856306 0
M  V30 18090 C 1666.07 3.14024 1.38723 0
M  V30 18091 C 1665.16 4.17174 0.763348 0
M  V30 18092 N 1665.55 5.05642 -0.126544 0
M  V30 18093 C 1663.85 4.34053 1.02537 0
M  V30 18094 C 1664.55 5.79696 -0.482379 0
M  V30 18095 N 1663.53 5.43402 0.146639 0
M  V30 18096 H 1667.33 2.91569 -0.369397 0
M  V30 18097 H 1664.84 1.59538 -0.30355 0
M  V30 18098 H 1666.84 3.67061 1.97666 0
M  V30 18099 H 1665.5 2.49807 2.07429 0
M  V30 18100 H 1666.51 5.15514 -0.49653 0
M  V30 18101 H 1663.19 3.81048 1.70613 0
M  V30 18102 H 1664.58 6.60921 -1.20965 0
M  V30 18103 N 1667.3 0.221601 1.56034 0
M  V30 18104 C 1668.24 -0.688502 2.20291 0
M  V30 18105 C 1669.21 -1.19028 1.15851 0
M  V30 18106 O 1670.4 -1.24936 1.44206 0
M  V30 18107 C 1667.54 -1.89101 2.88678 0
M  V30 18108 C 1666.65 -1.42812 4.07711 0
M  V30 18109 C 1665.79 -2.5882 4.63881 0
M  V30 18110 C 1664.83 -2.09268 5.75216 0
M  V30 18111 N 1663.96 -3.18549 6.25676 0
M  V30 18112 H 1668.8 -0.133824 2.97699 0
M  V30 18113 H 1666.34 -0.0543007 1.47 0
M  V30 18114 H 1668.3 -2.59704 3.26512 0
M  V30 18115 H 1666.93 -2.41857 2.13788 0
M  V30 18116 H 1665.98 -0.617019 3.75363 0
M  V30 18117 H 1667.29 -1.02478 4.8816 0
M  V30 18118 H 1666.45 -3.37505 5.04158 0
M  V30 18119 H 1665.18 -3.02443 3.82596 0
M  V30 18120 H 1664.19 -1.29045 5.34441 0
M  V30 18121 H 1665.41 -1.66645 6.58336 0
M  V30 18122 H 1663.36 -3.61653 5.47305 0
M  V30 18123 H 1663.28 -2.82466 7.01248 0
M  V30 18124 H 1664.55 -3.97369 6.7061 0
M  V30 18125 N 1668.77 -1.57515 -0.0517878 0
M  V30 18126 C 1670.02 -1.88214 -0.7471 0
M  V30 18127 C 1670.35 -0.815991 -1.76556 0
M  V30 18128 O 1669.6 0.185772 -1.94816 0
M  V30 18129 C 1669.9 -3.25625 -1.4732 0
M  V30 18130 C 1669.57 -4.46985 -0.592863 0
M  V30 18131 C 1668.23 -4.79923 -0.350322 0
M  V30 18132 C 1670.58 -5.21197 0.0163333 0
M  V30 18133 C 1667.91 -5.84474 0.510567 0
M  V30 18134 C 1670.26 -6.26661 0.864792 0
M  V30 18135 C 1668.93 -6.58087 1.11701 0
M  V30 18136 H 1668.2 -0.688725 -0.273383 0
M  V30 18137 H 1670.84 -1.91499 -0.00740375 0
M  V30 18138 H 1669.15 -3.18224 -2.28563 0
M  V30 18139 H 1670.85 -3.46619 -2.01634 0
M  V30 18140 H 1667.44 -4.21218 -0.792044 0
M  V30 18141 H 1671.62 -4.96048 -0.158125 0
M  V30 18142 H 1666.88 -6.0721 0.71452 0
M  V30 18143 H 1671.05 -6.83318 1.34347 0
M  V30 18144 H 1668.68 -7.38926 1.78584 0
M  V30 18145 N 1670.25 0.323614 -1.54242 0
M  V30 18146 C 1671.48 1.07954 -1.76152 0
M  V30 18147 C 1671.89 1.82194 -0.510099 0
M  V30 18148 O 1671.23 1.75923 0.528838 0
M  V30 18149 C 1671.3 2.12323 -2.90102 0
M  V30 18150 C 1670.96 1.57481 -4.29009 0
M  V30 18151 C 1671.96 1.01662 -5.09864 0
M  V30 18152 C 1669.64 1.61726 -4.75552 0
M  V30 18153 C 1671.64 0.508168 -6.35371 0
M  V30 18154 C 1669.32 1.10493 -6.01028 0
M  V30 18155 C 1670.32 0.551331 -6.80771 0
M  V30 18156 O 1670.01 0.0467053 -8.03886 0
M  V30 18157 H 1669.74 0.326941 -0.59168 0
M  V30 18158 H 1672.3 0.375423 -2.0194 0
M  V30 18159 H 1670.53 2.8635 -2.59885 0
M  V30 18160 H 1672.21 2.73636 -2.99796 0
M  V30 18161 H 1672.98 0.976899 -4.7506 0
M  V30 18162 H 1668.86 2.03755 -4.13527 0
M  V30 18163 H 1672.4 0.0754082 -6.97559 0
M  V30 18164 H 1668.3 1.14172 -6.35323 0
M  V30 18165 H 1669.07 0.162133 -8.18339 0
M  V30 18166 N 1671.73 1.46313 0.585673 0
M  V30 18167 C 1672.68 1.57018 1.71604 0
M  V30 18168 C 1673.67 0.438838 1.63617 0
M  V30 18169 O 1674.88 0.615597 1.69146 0
M  V30 18170 H 1671.25 0.493616 0.567316 0
M  V30 18171 H 1673.23 2.52065 1.59706 0
M  V30 18172 C 1671.97 1.57482 3.09992 0
M  V30 18173 H 1671.3 2.43872 3.16806 0
M  V30 18174 H 1672.74 1.69027 3.88852 0
M  V30 18175 C 1671.2 0.302944 3.35535 0
M  V30 18176 O 1671.73 -0.608066 3.97071 0
M  V30 18177 N 1669.93 0.191781 2.89966 0
M  V30 18178 H 1669.48 0.934025 2.4007 0
M  V30 18179 H 1669.44 -0.658341 3.0743 0
M  V30 18180 N 1673.21 -0.830057 1.33969 0
M  V30 18181 C 1674.46 -1.58084 1.25269 0
M  V30 18182 C 1674.77 -1.94792 -0.177557 0
M  V30 18183 O 1675.98 -2.68733 -0.386657 0
M  V30 18184 C 1674.43 -2.85177 2.1955 0
M  V30 18185 C 1674.04 -2.55798 3.67792 0
M  V30 18186 C 1675.79 -3.632 2.19741 0
M  V30 18187 C 1673.69 -3.79041 4.53963 0
M  V30 18188 H 1672.62 -0.593289 0.465321 0
M  V30 18189 H 1675.27 -0.914476 1.5909 0
M  V30 18190 H 1673.66 -3.53401 1.78672 0
M  V30 18191 H 1674.83 -1.9573 4.17165 0
M  V30 18192 H 1673.14 -1.91064 3.69978 0
M  V30 18193 H 1675.74 -4.54695 2.81347 0
M  V30 18194 H 1676.08 -3.98786 1.1948 0
M  V30 18195 H 1676.62 -3.0191 2.59028 0
M  V30 18196 H 1673.36 -3.4858 5.55133 0
M  V30 18197 H 1672.88 -4.38417 4.09329 0
M  V30 18198 H 1674.56 -4.46527 4.68212 0
M  V30 18199 N 1674.69 -1.17582 -1.04939 0
M  V30 18200 C 1675.92 -0.988962 -1.81392 0
M  V30 18201 C 1676.33 0.46597 -1.83372 0
M  V30 18202 O 1675.67 1.33538 -1.26148 0
M  V30 18203 C 1675.73 -1.45656 -3.28671 0
M  V30 18204 C 1675.39 -2.93412 -3.50369 0
M  V30 18205 C 1676.39 -3.91329 -3.42283 0
M  V30 18206 C 1674.08 -3.31645 -3.77249 0
M  V30 18207 C 1676.07 -5.25478 -3.60766 0
M  V30 18208 C 1673.76 -4.65959 -3.95381 0
M  V30 18209 C 1674.76 -5.62684 -3.87138 0
M  V30 18210 O 1674.44 -6.94567 -4.04761 0
M  V30 18211 H 1674.18 -0.349962 -0.578362 0
M  V30 18212 H 1676.73 -1.5635 -1.33206 0
M  V30 18213 H 1674.96 -0.825602 -3.77784 0
M  V30 18214 H 1676.65 -1.23497 -3.86657 0
M  V30 18215 H 1677.41 -3.63138 -3.2149 0
M  V30 18216 H 1673.29 -2.56925 -3.82767 0
M  V30 18217 H 1676.84 -6.00961 -3.54248 0
M  V30 18218 H 1672.73 -4.93855 -4.15665 0
M  V30 18219 H 1673.5 -7.01343 -4.21972 0
M  V30 18220 N 1676.17 1.23705 -0.976463 0
M  V30 18221 C 1677.11 2.27034 -0.505813 0
M  V30 18222 C 1678.11 1.63716 0.435148 0
M  V30 18223 O 1679.31 1.7732 0.309474 0
M  V30 18224 H 1675.69 0.737862 -0.145131 0
M  V30 18225 H 1677.66 2.64097 -1.38908 0
M  V30 18226 C 1676.41 3.47234 0.179987 0
M  V30 18227 H 1675.73 3.96205 -0.534969 0
M  V30 18228 H 1677.17 4.21353 0.472996 0
M  V30 18229 C 1675.63 3.05979 1.40991 0
M  V30 18230 O 1676.16 3.13914 2.50641 0
M  V30 18231 N 1674.37 2.60934 1.27913 0
M  V30 18232 H 1673.91 2.54677 0.38696 0
M  V30 18233 H 1673.87 2.33697 2.10316 0
M  V30 18234 N 1677.64 0.747635 1.38738 0
M  V30 18235 C 1678.57 0.131317 2.3313 0
M  V30 18236 C 1679.55 -0.710229 1.54563 0
M  V30 18237 O 1680.74 -0.652631 1.82905 0
M  V30 18238 C 1677.87 -0.767168 3.38721 0
M  V30 18239 C 1676.82 -0.0288124 4.2799 0
M  V30 18240 C 1676.15 -1.04515 5.24386 0
M  V30 18241 C 1677.45 1.13608 5.09795 0
M  V30 18242 H 1679.14 0.91981 2.84921 0
M  V30 18243 H 1676.69 0.443764 1.36992 0
M  V30 18244 H 1678.64 -1.20796 4.03716 0
M  V30 18245 H 1677.37 -1.58792 2.85399 0
M  V30 18246 H 1676.03 0.392491 3.64493 0
M  V30 18247 H 1675.67 -1.8598 4.67355 0
M  V30 18248 H 1675.37 -0.555813 5.84965 0
M  V30 18249 H 1676.9 -1.48538 5.92257 0
M  V30 18250 H 1678.31 0.773129 5.68063 0
M  V30 18251 H 1676.71 1.55589 5.79579 0
M  V30 18252 H 1677.78 1.95182 4.43883 0
M  V30 18253 N 1679.12 -1.49583 0.496242 0
M  V30 18254 C 1680.05 -2.26936 -0.321366 0
M  V30 18255 C 1681.07 -1.33282 -0.934863 0
M  V30 18256 O 1682.26 -1.58602 -0.819008 0
M  V30 18257 C 1679.36 -3.05503 -1.467 0
M  V30 18258 C 1678.53 -4.26697 -0.961687 0
M  V30 18259 C 1677.59 -4.8735 -1.98436 0
M  V30 18260 O 1676.61 -5.47553 -1.55482 0
M  V30 18261 N 1677.82 -4.76577 -3.31443 0
M  V30 18262 H 1680.58 -2.97744 0.341884 0
M  V30 18263 H 1678.14 -1.58532 0.328504 0
M  V30 18264 H 1680.13 -3.42954 -2.1486 0
M  V30 18265 H 1678.7 -2.37334 -2.03449 0
M  V30 18266 H 1677.92 -3.9406 -0.105143 0
M  V30 18267 H 1679.21 -5.05221 -0.602405 0
M  V30 18268 H 1678.61 -4.28756 -3.69032 0
M  V30 18269 H 1677.17 -5.18226 -3.95329 0
M  V30 18270 N 1680.6 -0.229873 -1.55915 0
M  V30 18271 C 1681.55 0.693198 -2.2203 0
M  V30 18272 C 1682.54 1.1933 -1.20236 0
M  V30 18273 O 1683.75 1.15217 -1.38294 0
M  V30 18274 H 1680.12 0.241986 -0.712002 0
M  V30 18275 H 1682.09 0.112229 -2.98189 0
M  V30 18276 C 1680.84 1.88688 -2.92048 0
M  V30 18277 H 1680.17 1.51119 -3.70139 0
M  V30 18278 H 1681.61 2.51036 -3.41697 0
M  V30 18279 C 1680.06 2.74747 -1.94976 0
M  V30 18280 O 1680.59 3.73759 -1.47198 0
M  V30 18281 N 1678.8 2.40956 -1.62445 0
M  V30 18282 H 1678.35 1.60494 -2.01493 0
M  V30 18283 H 1678.31 2.98816 -0.977581 0
M  V30 18284 N 1682.08 1.5754 0.0434337 0
M  V30 18285 C 1683.02 2.0561 1.04848 0
M  V30 18286 C 1683.99 0.942299 1.36784 0
M  V30 18287 O 1685.18 1.21191 1.47368 0
M  V30 18288 C 1682.32 2.52844 2.3487 0
M  V30 18289 C 1681.43 3.77958 2.09218 0
M  V30 18290 C 1680.57 4.13859 3.33007 0
M  V30 18291 C 1679.61 5.31932 3.02845 0
M  V30 18292 N 1678.74 5.63335 4.19045 0
M  V30 18293 H 1683.58 2.9123 0.631591 0
M  V30 18294 H 1681.12 1.44003 0.300258 0
M  V30 18295 H 1683.08 2.78291 3.10822 0
M  V30 18296 H 1681.71 1.70161 2.74308 0
M  V30 18297 H 1680.76 3.59681 1.23828 0
M  V30 18298 H 1682.07 4.64034 1.82958 0
M  V30 18299 H 1681.23 4.40358 4.17336 0
M  V30 18300 H 1679.97 3.26406 3.62368 0
M  V30 18301 H 1678.97 5.052 2.16916 0
M  V30 18302 H 1680.2 6.21027 2.74777 0
M  V30 18303 H 1678.14 4.7884 4.48384 0
M  V30 18304 H 1678.06 6.4389 3.96158 0
M  V30 18305 H 1679.33 5.94402 5.04289 0
M  V30 18306 N 1683.56 -0.31543 1.54411 0
M  V30 18307 C 1684.49 -1.39353 1.87358 0
M  V30 18308 C 1685.47 -1.53586 0.731118 0
M  V30 18309 O 1686.65 -1.67332 0.98558 0
M  V30 18310 C 1683.78 -2.75998 2.10814 0
M  V30 18311 C 1682.74 -2.76545 3.2666 0
M  V30 18312 C 1682.06 -4.16343 3.35504 0
M  V30 18313 C 1683.36 -2.39567 4.64117 0
M  V30 18314 H 1685.06 -1.12028 2.77651 0
M  V30 18315 H 1682.6 -0.537476 1.33593 0
M  V30 18316 H 1684.55 -3.51491 2.32447 0
M  V30 18317 H 1683.28 -3.04817 1.17278 0
M  V30 18318 H 1681.94 -2.03507 3.04927 0
M  V30 18319 H 1681.59 -4.42316 2.39512 0
M  V30 18320 H 1681.29 -4.17613 4.13368 0
M  V30 18321 H 1682.81 -4.93637 3.59381 0
M  V30 18322 H 1684.22 -3.04775 4.85577 0
M  V30 18323 H 1682.62 -2.52075 5.4459 0
M  V30 18324 H 1683.69 -1.34707 4.65813 0
M  V30 18325 N 1685.03 -1.46622 -0.577906 0
M  V30 18326 C 1685.98 -1.57549 -1.68662 0
M  V30 18327 C 1686.95 -0.419536 -1.60714 0
M  V30 18328 O 1688.14 -0.636916 -1.79856 0
M  V30 18329 C 1685.28 -1.57627 -3.06998 0
M  V30 18330 C 1684.39 -2.83991 -3.25535 0
M  V30 18331 C 1683.52 -2.75541 -4.54148 0
M  V30 18332 C 1682.56 -3.96823 -4.66045 0
M  V30 18333 N 1681.7 -3.86731 -5.8599 0
M  V30 18334 H 1686.54 -2.52252 -1.58659 0
M  V30 18335 H 1684.08 -1.2514 -0.773195 0
M  V30 18336 H 1686.04 -1.55657 -3.87075 0
M  V30 18337 H 1684.67 -0.664527 -3.15886 0
M  V30 18338 H 1683.72 -2.9592 -2.3903 0
M  V30 18339 H 1685.03 -3.73864 -3.30193 0
M  V30 18340 H 1684.18 -2.71703 -5.42459 0
M  V30 18341 H 1682.92 -1.83317 -4.51936 0
M  V30 18342 H 1681.93 -4.00987 -3.76151 0
M  V30 18343 H 1683.15 -4.90149 -4.70033 0
M  V30 18344 H 1681.1 -2.97296 -5.84766 0
M  V30 18345 H 1681.02 -4.70263 -5.91937 0
M  V30 18346 H 1682.28 -3.86876 -6.76718 0
M  V30 18347 N 1686.51 0.822941 -1.34408 0
M  V30 18348 C 1687.74 1.61087 -1.2984 0
M  V30 18349 C 1688.16 1.88369 0.127527 0
M  V30 18350 O 1687.51 1.47508 1.0746 0
M  V30 18351 C 1687.56 2.9518 -2.08689 0
M  V30 18352 O 1687.28 2.69089 -3.45721 0
M  V30 18353 C 1688.79 3.89583 -2.11518 0
M  V30 18354 H 1686.01 0.500726 -0.44667 0
M  V30 18355 H 1688.55 1.02391 -1.77021 0
M  V30 18356 H 1686.7 3.50434 -1.6515 0
M  V30 18357 H 1687.12 3.5459 -3.86479 0
M  V30 18358 H 1688.59 4.80835 -2.71111 0
M  V30 18359 H 1689.07 4.24953 -1.10957 0
M  V30 18360 H 1689.68 3.40265 -2.55146 0
M  V30 18361 N 1687.99 1.18137 1.04314 0
M  V30 18362 C 1688.92 0.929593 2.14198 0
M  V30 18363 C 1689.9 -0.131766 1.69589 0
M  V30 18364 O 1691.09 0.0203104 1.94189 0
M  V30 18365 C 1688.22 0.451799 3.44349 0
M  V30 18366 C 1687.17 1.45336 4.02569 0
M  V30 18367 C 1686.5 0.833176 5.28169 0
M  V30 18368 C 1687.8 2.8293 4.39031 0
M  V30 18369 H 1689.49 1.84856 2.35518 0
M  V30 18370 H 1687.04 0.890217 1.13186 0
M  V30 18371 H 1688.99 0.26303 4.20578 0
M  V30 18372 H 1687.71 -0.502725 3.22708 0
M  V30 18373 H 1686.37 1.62902 3.28418 0
M  V30 18374 H 1686.02 -0.128459 5.02836 0
M  V30 18375 H 1685.72 1.50185 5.68083 0
M  V30 18376 H 1687.24 0.654881 6.07078 0
M  V30 18377 H 1688.66 2.6903 5.06257 0
M  V30 18378 H 1687.06 3.46458 4.89987 0
M  V30 18379 H 1688.13 3.3667 3.48972 0
M  V30 18380 N 1689.47 -1.23186 0.98301 0
M  V30 18381 C 1690.42 -2.24748 0.525082 0
M  V30 18382 C 1691.39 -1.60237 -0.437411 0
M  V30 18383 O 1692.57 -1.87666 -0.344376 0
M  V30 18384 C 1689.71 -3.44711 -0.163809 0
M  V30 18385 C 1688.82 -4.23769 0.839254 0
M  V30 18386 C 1687.96 -5.31053 0.1249 0
M  V30 18387 C 1687 -6.01822 1.117 0
M  V30 18388 N 1686.13 -7.00772 0.431625 0
M  V30 18389 H 1690.97 -2.63283 1.39593 0
M  V30 18390 H 1688.51 -1.29407 0.699438 0
M  V30 18391 H 1690.47 -4.13148 -0.580046 0
M  V30 18392 H 1689.1 -3.06969 -0.998507 0
M  V30 18393 H 1688.15 -3.54724 1.37386 0
M  V30 18394 H 1689.46 -4.72606 1.59515 0
M  V30 18395 H 1688.62 -6.05698 -0.348569 0
M  V30 18396 H 1687.36 -4.83165 -0.663573 0
M  V30 18397 H 1686.36 -5.25967 1.6012 0
M  V30 18398 H 1687.59 -6.51799 1.90618 0
M  V30 18399 H 1685.53 -6.55131 -0.337592 0
M  V30 18400 H 1685.45 -7.47566 1.12613 0
M  V30 18401 H 1686.72 -7.79498 -0.0193703 0
M  V30 18402 N 1690.95 -0.754982 -1.38339 0
M  V30 18403 C 1691.88 -0.143678 -2.33058 0
M  V30 18404 C 1692.86 0.702022 -1.54938 0
M  V30 18405 O 1694.04 0.642922 -1.83249 0
M  V30 18406 C 1691.17 0.749194 -3.39123 0
M  V30 18407 C 1690.13 0.00611459 -4.28 0
M  V30 18408 C 1689.45 1.01733 -5.24933 0
M  V30 18409 C 1690.75 -1.1631 -5.09185 0
M  V30 18410 H 1692.45 -0.934907 -2.84429 0
M  V30 18411 H 1689.99 -0.451023 -1.36754 0
M  V30 18412 H 1691.95 1.18653 -4.04351 0
M  V30 18413 H 1690.67 1.57276 -2.86237 0
M  V30 18414 H 1689.33 -0.411816 -3.6428 0
M  V30 18415 H 1688.98 1.83499 -4.68334 0
M  V30 18416 H 1688.68 0.524783 -5.85252 0
M  V30 18417 H 1690.2 1.45395 -5.93037 0
M  V30 18418 H 1691.61 -0.803244 -5.67645 0
M  V30 18419 H 1690.01 -1.5866 -5.78746 0
M  V30 18420 H 1691.08 -1.97533 -4.42842 0
M  V30 18421 N 1692.42 1.49318 -0.504168 0
M  V30 18422 C 1693.33 2.32958 0.277053 0
M  V30 18423 C 1694.35 1.44838 0.964266 0
M  V30 18424 O 1695.53 1.77856 0.944947 0
M  V30 18425 C 1692.59 3.20352 1.32572 0
M  V30 18426 C 1691.65 4.24326 0.651606 0
M  V30 18427 C 1690.89 5.07544 1.65031 0
M  V30 18428 O 1691.11 4.92326 2.88047 0
M  V30 18429 O 1690.04 5.89737 1.20388 0
M  V30 18430 H 1693.87 3.00952 -0.40763 0
M  V30 18431 H 1691.45 1.47023 -0.265453 0
M  V30 18432 H 1693.34 3.74483 1.93237 0
M  V30 18433 H 1692.01 2.5505 1.99327 0
M  V30 18434 H 1690.92 3.741 0.00513384 0
M  V30 18435 H 1692.25 4.92193 0.0264424 0
M  V30 18436 N 1693.9 0.238138 1.5579 0
M  V30 18437 C 1694.83 -0.697701 2.18323 0
M  V30 18438 C 1695.85 -1.1453 1.15701 0
M  V30 18439 O 1697.04 -1.07359 1.42605 0
M  V30 18440 C 1694.14 -1.95895 2.76547 0
M  V30 18441 C 1693.31 -1.66422 4.04503 0
M  V30 18442 C 1692.37 -2.77419 4.4713 0
M  V30 18443 O 1691.39 -2.45179 5.13689 0
M  V30 18444 N 1692.6 -4.06731 4.14187 0
M  V30 18445 H 1695.36 -0.162705 2.99258 0
M  V30 18446 H 1692.92 0.0577602 1.61797 0
M  V30 18447 H 1694.91 -2.69374 3.02026 0
M  V30 18448 H 1693.48 -2.40398 1.99819 0
M  V30 18449 H 1692.7 -0.76505 3.86705 0
M  V30 18450 H 1693.99 -1.44183 4.87943 0
M  V30 18451 H 1693.39 -4.3576 3.60735 0
M  V30 18452 H 1691.95 -4.76701 4.44521 0
M  V30 18453 N 1695.38 -1.57561 -0.0350783 0
M  V30 18454 C 1696.31 -2.09201 -1.03716 0
M  V30 18455 C 1697.29 -0.993231 -1.3809 0
M  V30 18456 O 1698.48 -1.26812 -1.47079 0
M  V30 18457 C 1695.61 -2.56643 -2.3399 0
M  V30 18458 C 1694.56 -3.70731 -2.13874 0
M  V30 18459 C 1693.89 -4.04358 -3.49855 0
M  V30 18460 C 1695.19 -4.99393 -1.52982 0
M  V30 18461 H 1696.88 -2.93176 -0.60731 0
M  V30 18462 H 1694.43 -1.41036 -0.290683 0
M  V30 18463 H 1696.38 -2.9139 -3.04417 0
M  V30 18464 H 1695.1 -1.69744 -2.79024 0
M  V30 18465 H 1693.76 -3.36325 -1.45881 0
M  V30 18466 H 1693.41 -3.14534 -3.92527 0
M  V30 18467 H 1693.11 -4.81201 -3.37223 0
M  V30 18468 H 1694.63 -4.41633 -4.21654 0
M  V30 18469 H 1696.05 -5.32135 -2.13319 0
M  V30 18470 H 1694.45 -5.80807 -1.50943 0
M  V30 18471 H 1695.52 -4.82367 -0.494993 0
M  V30 18472 N 1696.86 0.307236 -1.54576 0
M  V30 18473 C 1698.08 1.06668 -1.77867 0
M  V30 18474 C 1698.51 1.80375 -0.533536 0
M  V30 18475 O 1697.87 1.73812 0.515663 0
M  V30 18476 C 1697.91 2.02777 -2.98184 0
M  V30 18477 O 1697.02 3.10969 -2.70872 0
M  V30 18478 H 1696.36 0.306741 -0.588902 0
M  V30 18479 H 1698.89 0.346557 -2.01644 0
M  V30 18480 H 1698.9 2.45355 -3.25983 0
M  V30 18481 H 1697.57 1.48534 -3.88472 0
M  V30 18482 H 1696.15 2.7295 -2.54072 0
M  V30 18483 N 1698.34 1.46926 0.570122 0
M  V30 18484 C 1699.58 1.52887 1.32785 0
M  V30 18485 C 1699.91 0.185754 1.93611 0
M  V30 18486 O 1699.17 -0.819995 1.77692 0
M  V30 18487 C 1699.47 2.58527 2.46776 0
M  V30 18488 C 1699.13 4.02182 2.03863 0
M  V30 18489 C 1697.79 4.4129 1.91876 0
M  V30 18490 C 1700.15 4.92373 1.70935 0
M  V30 18491 C 1697.47 5.6844 1.45235 0
M  V30 18492 C 1699.83 6.19972 1.25769 0
M  V30 18493 C 1698.49 6.57974 1.12368 0
M  V30 18494 H 1697.76 0.559453 0.485895 0
M  V30 18495 H 1700.41 1.80464 0.640698 0
M  V30 18496 H 1698.71 2.24658 3.20992 0
M  V30 18497 H 1700.41 2.60365 3.04977 0
M  V30 18498 H 1697 3.71275 2.14132 0
M  V30 18499 H 1701.18 4.62867 1.79075 0
M  V30 18500 H 1696.44 5.96644 1.33513 0
M  V30 18501 H 1700.61 6.89277 0.993475 0
M  V30 18502 H 1698.24 7.56391 0.760046 0
M  V30 18503 N 1699.82 -0.815801 1.34842 0
M  V30 18504 C 1700.76 -1.94853 1.27024 0
M  V30 18505 C 1701.76 -1.68575 0.166936 0
M  V30 18506 O 1702.96 -1.76905 0.332352 0
M  V30 18507 H 1699.34 -0.640033 0.394794 0
M  V30 18508 H 1701.31 -1.98569 2.2274 0
M  V30 18509 C 1700.06 -3.31474 1.04977 0
M  V30 18510 H 1699.38 -3.52246 1.8911 0
M  V30 18511 H 1700.82 -4.11162 1.03545 0
M  V30 18512 C 1699.28 -3.35995 -0.246708 0
M  V30 18513 O 1699.81 -3.81898 -1.24566 0
M  V30 18514 N 1698.02 -2.89226 -0.282292 0
M  V30 18515 H 1697.56 -2.52063 0.531211 0
M  V30 18516 H 1697.52 -2.92633 -1.1495 0
M  V30 18517 N 1701.29 -1.18689 -1.03686 0
M  V30 18518 C 1702.57 -0.89414 -1.73967 0
M  V30 18519 C 1702.95 0.602104 -2.02331 0
M  V30 18520 O 1702.3 1.55794 -1.67154 0
M  V30 18521 C 1702.51 -1.74549 -3.02214 0
M  V30 18522 C 1703.86 -1.97487 -3.75878 0
M  V30 18523 O 1704.88 -1.71634 -3.12122 0
M  V30 18524 O 1703.74 -2.41031 -4.90476 0
M  V30 18525 H 1700.83 -0.332501 -0.757213 0
M  V30 18526 H 1703.38 -1.29461 -1.09717 0
M  V30 18527 H 1702.15 -2.75961 -2.77419 0
M  V30 18528 H 1701.77 -1.34378 -3.74204 0
M  V30 18529 N 1702.77 1.22662 -0.989529 0
M  V30 18530 C 1703.7 2.26762 -0.556891 0
M  V30 18531 C 1704.68 1.64971 0.414538 0
M  V30 18532 O 1705.87 1.91775 0.305909 0
M  V30 18533 C 1703 3.47047 0.132573 0
M  V30 18534 C 1701.95 4.21251 -0.757058 0
M  V30 18535 C 1701.28 5.3466 0.065134 0
M  V30 18536 C 1702.58 4.8029 -2.05229 0
M  V30 18537 H 1704.27 2.63204 -1.42703 0
M  V30 18538 H 1701.82 1.26522 -0.687614 0
M  V30 18539 H 1703.77 4.19027 0.446609 0
M  V30 18540 H 1702.49 3.09692 1.03723 0
M  V30 18541 H 1701.15 3.51101 -1.05469 0
M  V30 18542 H 1700.8 4.93547 0.970607 0
M  V30 18543 H 1700.5 5.85231 -0.527063 0
M  V30 18544 H 1702.03 6.09458 0.373342 0
M  V30 18545 H 1703.44 5.44229 -1.80242 0
M  V30 18546 H 1701.84 5.41186 -2.59302 0
M  V30 18547 H 1702.91 4.00529 -2.73322 0
M  V30 18548 N 1704.25 0.762308 1.37937 0
M  V30 18549 C 1705.2 0.140412 2.30372 0
M  V30 18550 C 1706.17 -0.700152 1.50622 0
M  V30 18551 O 1707.35 -0.654474 1.79224 0
M  V30 18552 C 1704.49 -0.740056 3.37071 0
M  V30 18553 C 1703.6 0.116084 4.31844 0
M  V30 18554 C 1702.74 -0.768203 5.25616 0
M  V30 18555 C 1701.78 0.0910442 6.12032 0
M  V30 18556 N 1700.92 -0.75069 6.98075 0
M  V30 18557 H 1705.76 0.934224 2.82977 0
M  V30 18558 H 1703.29 0.472316 1.39311 0
M  V30 18559 H 1705.25 -1.26525 3.97551 0
M  V30 18560 H 1703.88 -1.49956 2.85855 0
M  V30 18561 H 1702.93 0.758999 3.72751 0
M  V30 18562 H 1704.24 0.779285 4.92675 0
M  V30 18563 H 1703.4 -1.36024 5.91255 0
M  V30 18564 H 1702.14 -1.46511 4.65173 0
M  V30 18565 H 1701.14 0.695687 5.45381 0
M  V30 18566 H 1702.37 0.785145 6.74546 0
M  V30 18567 H 1700.31 -1.43239 6.40171 0
M  V30 18568 H 1700.23 -0.144579 7.55862 0
M  V30 18569 H 1701.5 -1.32742 7.68114 0
M  V30 18570 N 1705.73 -1.49049 0.51208 0
M  V30 18571 C 1706.96 -2.06585 -0.024934 0
M  V30 18572 C 1707.37 -1.3713 -1.30353 0
M  V30 18573 O 1706.71 -0.446872 -1.78182 0
M  V30 18574 C 1706.77 -3.57911 -0.33768 0
M  V30 18575 C 1706.43 -4.49123 0.844817 0
M  V30 18576 C 1707.43 -4.89977 1.73836 0
M  V30 18577 C 1705.12 -4.91272 1.04675 0
M  V30 18578 C 1707.11 -5.71728 2.8179 0
M  V30 18579 C 1704.8 -5.72798 2.12946 0
M  V30 18580 C 1705.8 -6.12932 3.01337 0
M  V30 18581 O 1705.48 -6.92825 4.07737 0
M  V30 18582 H 1705.22 -0.675633 0.0222573 0
M  V30 18583 H 1707.77 -1.92669 0.711891 0
M  V30 18584 H 1706 -3.69875 -1.12825 0
M  V30 18585 H 1707.69 -3.97641 -0.814628 0
M  V30 18586 H 1708.45 -4.5805 1.59421 0
M  V30 18587 H 1704.33 -4.59528 0.368089 0
M  V30 18588 H 1707.88 -6.02974 3.50811 0
M  V30 18589 H 1703.77 -6.04137 2.27351 0
M  V30 18590 H 1704.54 -7.1115 4.05226 0
M  V30 18591 N 1707.21 -0.246397 -1.55662 0
M  V30 18592 C 1708.45 0.378487 -1.98931 0
M  V30 18593 C 1708.78 1.57984 -1.13452 0
M  V30 18594 O 1708.04 1.94822 -0.185214 0
M  V30 18595 C 1708.33 0.832225 -3.47576 0
M  V30 18596 C 1708 -0.261318 -4.50142 0
M  V30 18597 C 1706.66 -0.56166 -4.77911 0
M  V30 18598 C 1709.01 -0.999618 -5.11524 0
M  V30 18599 C 1706.34 -1.60438 -5.64337 0
M  V30 18600 C 1708.69 -2.03186 -5.99081 0
M  V30 18601 C 1707.36 -2.33885 -6.25183 0
M  V30 18602 H 1706.63 0.138498 -0.727942 0
M  V30 18603 H 1709.28 -0.354116 -1.88197 0
M  V30 18604 H 1707.58 1.64402 -3.55639 0
M  V30 18605 H 1709.28 1.32598 -3.78442 0
M  V30 18606 H 1705.87 -0.0170894 -4.28597 0
M  V30 18607 H 1710.05 -0.780833 -4.90119 0
M  V30 18608 H 1705.31 -1.84758 -5.82816 0
M  V30 18609 H 1709.48 -2.60886 -6.45687 0
M  V30 18610 H 1707.11 -3.14822 -6.91947 0
M  V30 18611 N 1708.68 1.57577 0.026722 0
M  V30 18612 C 1709.63 2.06711 1.02661 0
M  V30 18613 C 1710.6 0.956754 1.35777 0
M  V30 18614 O 1711.79 1.22747 1.46074 0
M  V30 18615 C 1708.93 2.55321 2.32175 0
M  V30 18616 C 1708.04 3.80155 2.05197 0
M  V30 18617 C 1707.17 4.17368 3.28599 0
M  V30 18618 C 1706.21 5.35114 2.97186 0
M  V30 18619 N 1705.35 5.67747 4.13046 0
M  V30 18620 H 1710.19 2.91884 0.600666 0
M  V30 18621 H 1707.73 1.44313 0.284968 0
M  V30 18622 H 1709.68 2.81572 3.07853 0
M  V30 18623 H 1708.31 1.73061 2.72488 0
M  V30 18624 H 1707.37 3.60975 1.20006 0
M  V30 18625 H 1708.68 4.65949 1.78026 0
M  V30 18626 H 1707.83 4.4476 4.12642 0
M  V30 18627 H 1706.57 3.30231 3.58886 0
M  V30 18628 H 1705.58 5.07473 2.11545 0
M  V30 18629 H 1706.8 6.23906 2.68175 0
M  V30 18630 H 1704.75 4.83569 4.4328 0
M  V30 18631 H 1704.66 6.48056 3.89307 0
M  V30 18632 H 1705.93 5.99717 4.97956 0
M  V30 18633 N 1710.16 -0.299034 1.54737 0
M  V30 18634 C 1711.11 -1.36887 1.85824 0
M  V30 18635 C 1712.08 -1.50287 0.70733 0
M  V30 18636 O 1713.26 -1.65114 0.956143 0
M  V30 18637 C 1710.4 -2.7286 2.11286 0
M  V30 18638 C 1709.52 -2.67893 3.38906 0
M  V30 18639 C 1708.65 -3.95873 3.542 0
M  V30 18640 C 1707.69 -3.85312 4.75606 0
M  V30 18641 N 1706.83 -5.05072 4.87695 0
M  V30 18642 H 1711.67 -1.09676 2.77083 0
M  V30 18643 H 1709.2 -0.530427 1.37204 0
M  V30 18644 H 1711.16 -3.51938 2.24043 0
M  V30 18645 H 1709.79 -2.98327 1.23291 0
M  V30 18646 H 1708.84 -1.80669 3.34758 0
M  V30 18647 H 1710.16 -2.5598 4.28107 0
M  V30 18648 H 1709.31 -4.83389 3.66633 0
M  V30 18649 H 1708.05 -4.10622 2.63136 0
M  V30 18650 H 1707.05 -2.9618 4.63203 0
M  V30 18651 H 1708.28 -3.72106 5.68079 0
M  V30 18652 H 1706.23 -5.20281 3.99554 0
M  V30 18653 H 1706.14 -4.9559 5.709 0
M  V30 18654 H 1707.41 -5.94233 5.04487 0
M  V30 18655 N 1711.64 -1.47227 -0.562322 0
M  V30 18656 C 1712.59 -1.55739 -1.66521 0
M  V30 18657 C 1713.57 -0.416678 -1.55411 0
M  V30 18658 O 1714.77 -0.666302 -1.6398 0
M  V30 18659 C 1711.89 -1.5699 -3.05302 0
M  V30 18660 C 1710.98 -2.76427 -3.21634 0
M  V30 18661 N 1711.37 -4.01172 -3.0805 0
M  V30 18662 C 1709.67 -2.73081 -3.52623 0
M  V30 18663 C 1710.37 -4.81132 -3.26936 0
M  V30 18664 N 1709.35 -4.13362 -3.53034 0
M  V30 18665 H 1713.15 -2.49965 -1.5458 0
M  V30 18666 H 1710.66 -1.4315 -0.766937 0
M  V30 18667 H 1712.66 -1.61178 -3.84483 0
M  V30 18668 H 1711.32 -0.638563 -3.18359 0
M  V30 18669 H 1712.33 -4.3211 -2.85485 0
M  V30 18670 H 1709.01 -1.89062 -3.72239 0
M  V30 18671 H 1710.4 -5.9002 -3.21444 0
M  V30 18672 N 1713.12 0.808639 -1.35273 0
M  V30 18673 C 1714.37 1.56253 -1.28177 0
M  V30 18674 C 1714.69 1.94466 0.144151 0
M  V30 18675 O 1713.96 1.63433 1.08011 0
M  V30 18676 H 1712.54 0.579431 -0.471454 0
M  V30 18677 H 1715.2 0.964675 -1.69352 0
M  V30 18678 H 1714.29 2.47888 -1.89625 0
M  V30 18679 N 1714.6 1.19237 1.03055 0
M  V30 18680 C 1715.84 0.993971 1.76427 0
M  V30 18681 C 1716.17 -0.475422 1.886 0
M  V30 18682 O 1715.43 -1.36925 1.39821 0
M  V30 18683 C 1715.73 1.60607 3.19281 0
M  V30 18684 C 1715.39 3.10329 3.27119 0
M  V30 18685 C 1714.05 3.51192 3.28965 0
M  V30 18686 C 1716.41 4.0634 3.264 0
M  V30 18687 C 1713.73 4.8662 3.27747 0
M  V30 18688 C 1716.09 5.41696 3.26723 0
M  V30 18689 C 1714.75 5.81992 3.26866 0
M  V30 18690 H 1714.02 0.36372 0.645592 0
M  V30 18691 H 1716.67 1.48455 1.20969 0
M  V30 18692 H 1714.97 1.03775 3.77807 0
M  V30 18693 H 1716.67 1.42786 3.74717 0
M  V30 18694 H 1713.26 2.77769 3.26409 0
M  V30 18695 H 1717.44 3.75814 3.24156 0
M  V30 18696 H 1712.7 5.17123 3.26181 0
M  V30 18697 H 1716.87 6.1585 3.25118 0
M  V30 18698 H 1714.5 6.86905 3.25676 0
M  V30 18699 N 1716.07 -1.22136 0.99602 0
M  V30 18700 C 1717.3 -1.95519 0.69189 0
M  V30 18701 C 1717.72 -1.7304 -0.73748 0
M  V30 18702 O 1717.08 -1.01157 -1.50456 0
M  V30 18703 C 1717.13 -3.46244 1.00735 0
M  V30 18704 O 1716.23 -4.12259 0.107713 0
M  V30 18705 H 1715.58 -0.611553 0.258648 0
M  V30 18706 H 1718.11 -1.55145 1.33384 0
M  V30 18707 H 1718.12 -3.96774 0.950482 0
M  V30 18708 H 1716.79 -3.6193 2.04889 0
M  V30 18709 H 1715.37 -3.72248 0.220336 0
M  V30 18710 N 1717.55 -0.769612 -1.37531 0
M  V30 18711 C 1718.83 -0.257788 -1.93894 0
M  V30 18712 C 1719.21 1.24679 -1.70348 0
M  V30 18713 O 1718.56 2.02892 -1.05106 0
M  V30 18714 C 1718.77 -0.628857 -3.43288 0
M  V30 18715 C 1720.12 -0.597452 -4.20376 0
M  V30 18716 O 1721.14 -0.568117 -3.5164 0
M  V30 18717 O 1720 -0.622627 -5.42942 0
M  V30 18718 H 1717.09 -0.0588144 -0.824906 0
M  V30 18719 H 1719.64 -0.85082 -1.4683 0
M  V30 18720 H 1718.41 -1.66733 -3.54 0
M  V30 18721 H 1718.03 -0.00865929 -3.97599 0
M  V30 18722 N 1719.03 1.48775 -0.519977 0
M  V30 18723 C 1719.98 2.29461 0.248242 0
M  V30 18724 C 1720.95 1.36734 0.943027 0
M  V30 18725 O 1722.13 1.65697 0.946003 0
M  V30 18726 C 1719.27 3.19868 1.29531 0
M  V30 18727 C 1718.39 4.27666 0.610379 0
M  V30 18728 C 1717.52 5.05266 1.63951 0
M  V30 18729 C 1716.56 6.04878 0.937496 0
M  V30 18730 N 1715.7 6.75573 1.91171 0
M  V30 18731 H 1720.54 2.94643 -0.446016 0
M  V30 18732 H 1718.07 1.45262 -0.231792 0
M  V30 18733 H 1720.03 3.70675 1.91456 0
M  V30 18734 H 1718.66 2.5663 1.95808 0
M  V30 18735 H 1717.71 3.80202 -0.122598 0
M  V30 18736 H 1719.03 4.98765 0.0586864 0
M  V30 18737 H 1718.18 5.60037 2.33332 0
M  V30 18738 H 1716.92 4.33983 2.22509 0
M  V30 18739 H 1715.92 5.49321 0.229562 0
M  V30 18740 H 1717.15 6.78155 0.358166 0
M  V30 18741 H 1715.09 6.07048 2.48655 0
M  V30 18742 H 1715.01 7.42712 1.41118 0
M  V30 18743 H 1716.28 7.34938 2.59781 0
M  V30 18744 N 1720.51 0.254649 1.55529 0
M  V30 18745 C 1721.44 -0.674506 2.1905 0
M  V30 18746 C 1722.45 -1.13297 1.16909 0
M  V30 18747 O 1723.64 -1.0584 1.43736 0
M  V30 18748 C 1720.74 -1.92951 2.78609 0
M  V30 18749 C 1719.92 -1.62123 4.06245 0
M  V30 18750 C 1718.97 -2.72661 4.50047 0
M  V30 18751 O 1718 -2.39717 5.1626 0
M  V30 18752 N 1719.2 -4.02315 4.18477 0
M  V30 18753 H 1721.97 -0.130956 2.99414 0
M  V30 18754 H 1719.53 0.0749176 1.61727 0
M  V30 18755 H 1721.52 -2.66155 3.04866 0
M  V30 18756 H 1720.09 -2.38265 2.02358 0
M  V30 18757 H 1719.31 -0.723991 3.87495 0
M  V30 18758 H 1720.6 -1.39 4.89445 0
M  V30 18759 H 1720 -4.3191 3.65336 0
M  V30 18760 H 1718.55 -4.7196 4.49552 0
M  V30 18761 N 1721.99 -1.57589 -0.0183649 0
M  V30 18762 C 1723.24 -1.88937 -0.706105 0
M  V30 18763 C 1723.55 -0.854565 -1.75945 0
M  V30 18764 O 1724.75 -1.05763 -2.50053 0
M  V30 18765 C 1723.21 -3.35329 -1.307 0
M  V30 18766 C 1722.82 -4.47064 -0.289444 0
M  V30 18767 C 1724.56 -3.75811 -1.97399 0
M  V30 18768 C 1722.47 -5.84523 -0.899288 0
M  V30 18769 H 1721.4 -0.704959 -0.267486 0
M  V30 18770 H 1724.05 -1.83458 0.0391685 0
M  V30 18771 H 1722.43 -3.35586 -2.10233 0
M  V30 18772 H 1723.61 -4.58294 0.479958 0
M  V30 18773 H 1721.92 -4.15484 0.276066 0
M  V30 18774 H 1724.52 -4.75834 -2.43898 0
M  V30 18775 H 1724.86 -3.08362 -2.79676 0
M  V30 18776 H 1725.39 -3.77774 -1.24626 0
M  V30 18777 H 1722.13 -6.55398 -0.11571 0
M  V30 18778 H 1721.65 -5.76993 -1.63828 0
M  V30 18779 H 1723.33 -6.31595 -1.40344 0
M  V30 18780 N 1723.46 0.290824 -1.54893 0
M  V30 18781 C 1724.43 1.34215 -1.85793 0
M  V30 18782 C 1725.43 1.43204 -0.731393 0
M  V30 18783 O 1726.62 1.42663 -0.999647 0
M  V30 18784 C 1723.75 2.72577 -2.0473 0
M  V30 18785 H 1724.94 1.08056 -2.79757 0
M  V30 18786 H 1722.5 0.528008 -1.47111 0
M  V30 18787 H 1723.23 3.03943 -1.13088 0
M  V30 18788 H 1723.02 2.67442 -2.86736 0
M  V30 18789 H 1724.51 3.48573 -2.29971 0
M  V30 18790 N 1724.94 1.47523 0.554506 0
M  V30 18791 C 1725.89 1.5662 1.65693 0
M  V30 18792 C 1726.88 0.424914 1.55188 0
M  V30 18793 O 1728.07 0.674989 1.63624 0
M  V30 18794 C 1725.2 1.58607 3.04465 0
M  V30 18795 C 1724.28 2.78129 3.20164 0
M  V30 18796 N 1724.67 4.028 3.05918 0
M  V30 18797 C 1722.97 2.74947 3.5117 0
M  V30 18798 C 1723.67 4.82859 3.24379 0
M  V30 18799 N 1722.65 4.15228 3.50837 0
M  V30 18800 H 1726.45 2.50781 1.53252 0
M  V30 18801 H 1723.97 1.43554 0.759335 0
M  V30 18802 H 1725.96 1.63214 3.83623 0
M  V30 18803 H 1724.62 0.655437 3.18016 0
M  V30 18804 H 1725.63 4.33618 2.83189 0
M  V30 18805 H 1722.31 1.91034 3.71231 0
M  V30 18806 H 1723.7 5.91716 3.1831 0
M  V30 18807 N 1726.42 -0.801453 1.357 0
M  V30 18808 C 1727.65 -1.58771 1.32194 0
M  V30 18809 C 1728.06 -1.88927 -0.101529 0
M  V30 18810 O 1727.4 -1.49649 -1.0654 0
M  V30 18811 C 1727.46 -2.94186 2.06627 0
M  V30 18812 C 1727.13 -2.86819 3.55786 0
M  V30 18813 C 1728.12 -2.59898 4.50276 0
M  V30 18814 C 1725.81 -3.05775 3.98506 0
M  V30 18815 C 1727.8 -2.52017 5.85462 0
M  V30 18816 C 1725.49 -2.97516 5.33786 0
M  V30 18817 C 1726.49 -2.70673 6.27076 0
M  V30 18818 O 1726.18 -2.62387 7.59874 0
M  V30 18819 H 1725.91 -0.499518 0.455475 0
M  V30 18820 H 1728.46 -1.00358 1.79213 0
M  V30 18821 H 1726.69 -3.54602 1.54253 0
M  V30 18822 H 1728.38 -3.55368 1.96133 0
M  V30 18823 H 1729.15 -2.44968 4.18588 0
M  V30 18824 H 1725.03 -3.25678 3.26274 0
M  V30 18825 H 1728.57 -2.30985 6.58249 0
M  V30 18826 H 1724.47 -3.12006 5.65086 0
M  V30 18827 H 1725.24 -2.77957 7.69859 0
M  V30 18828 N 1727.9 -1.19782 -1.02421 0
M  V30 18829 C 1728.83 -0.963553 -2.12692 0
M  V30 18830 C 1729.81 0.104769 -1.69777 0
M  V30 18831 O 1730.99 -0.0512017 -1.94132 0
M  V30 18832 C 1728.12 -0.506525 -3.43586 0
M  V30 18833 C 1727.08 -1.51722 -4.00206 0
M  V30 18834 C 1726.4 -0.917097 -5.26776 0
M  V30 18835 C 1727.7 -2.89879 -4.34474 0
M  V30 18836 H 1729.4 -1.88579 -2.32547 0
M  V30 18837 H 1726.94 -0.908111 -1.11756 0
M  V30 18838 H 1728.9 -0.329907 -4.20107 0
M  V30 18839 H 1727.62 0.451322 -3.23467 0
M  V30 18840 H 1726.28 -1.68106 -3.25785 0
M  V30 18841 H 1725.93 0.0484457 -5.02977 0
M  V30 18842 H 1725.63 -1.59204 -5.65622 0
M  V30 18843 H 1727.15 -0.751379 -6.05959 0
M  V30 18844 H 1728.57 -2.7705 -5.01913 0
M  V30 18845 H 1726.96 -3.54209 -4.84413 0
M  V30 18846 H 1728.03 -3.42179 -3.43571 0
M  V30 18847 N 1729.38 1.21606 -1.00248 0
M  V30 18848 C 1730.6 1.95149 -0.702249 0
M  V30 18849 C 1731.03 1.73429 0.728293 0
M  V30 18850 O 1730.39 1.01953 1.49917 0
M  V30 18851 C 1730.43 3.45705 -1.0257 0
M  V30 18852 O 1729.54 4.12196 -0.129575 0
M  V30 18853 H 1728.88 0.610173 -0.261888 0
M  V30 18854 H 1731.41 1.54435 -1.34205 0
M  V30 18855 H 1731.42 3.96265 -0.97151 0
M  V30 18856 H 1730.09 3.60838 -2.06806 0
M  V30 18857 H 1728.67 3.72126 -0.240074 0
M  V30 18858 N 1730.86 0.776895 1.37121 0
M  V30 18859 C 1732.1 0.343555 1.99564 0
M  V30 18860 C 1732.43 -1.08134 1.6167 0
M  V30 18861 O 1731.69 -1.75938 0.856998 0
M  V30 18862 C 1731.98 0.440201 3.54679 0
M  V30 18863 C 1731.65 1.82409 4.12356 0
M  V30 18864 C 1730.31 2.20277 4.27822 0
M  V30 18865 C 1732.66 2.73082 4.43932 0
M  V30 18866 C 1729.99 3.48244 4.72168 0
M  V30 18867 C 1732.34 4.00465 4.89705 0
M  V30 18868 C 1731.01 4.38371 5.03376 0
M  V30 18869 H 1730.28 0.125716 0.730258 0
M  V30 18870 H 1732.93 0.991921 1.63808 0
M  V30 18871 H 1731.23 -0.291695 3.90713 0
M  V30 18872 H 1732.93 0.0861328 4.00907 0
M  V30 18873 H 1729.52 1.5198 4.0075 0
M  V30 18874 H 1733.7 2.45085 4.31564 0
M  V30 18875 H 1728.96 3.77501 4.80939 0
M  V30 18876 H 1733.13 4.70849 5.13103 0
M  V30 18877 H 1730.76 5.37587 5.37498 0
M  V30 18878 N 1732.33 -1.48497 0.527859 0
M  V30 18879 C 1733.28 -2.31258 -0.249477 0
M  V30 18880 C 1734.28 -1.41094 -0.93749 0
M  V30 18881 O 1735.48 -1.58011 -0.862117 0
M  V30 18882 H 1731.86 -0.745412 -0.0993208 0
M  V30 18883 H 1733.83 -2.94705 0.46815 0
M  V30 18884 C 1732.58 -3.23095 -1.28472 0
M  V30 18885 H 1731.9 -3.92418 -0.764724 0
M  V30 18886 H 1733.34 -3.83892 -1.80008 0
M  V30 18887 C 1731.8 -2.44554 -2.31722 0
M  V30 18888 O 1732.33 -2.16883 -3.38119 0
M  V30 18889 N 1730.53 -2.06088 -2.04881 0
M  V30 18890 H 1730.08 -2.28791 -1.18374 0
M  V30 18891 H 1730.04 -1.53849 -2.74186 0
M  V30 18892 N 1733.81 -0.262893 -1.55392 0
M  V30 18893 C 1735.04 0.361057 -2.03725 0
M  V30 18894 C 1735.45 1.5037 -1.14168 0
M  V30 18895 O 1734.81 1.81804 -0.159284 0
M  V30 18896 C 1734.86 0.853697 -3.51275 0
M  V30 18897 O 1734.58 -0.243431 -4.37423 0
M  V30 18898 C 1736.08 1.54671 -4.15442 0
M  V30 18899 H 1733.3 0.0839272 -0.665731 0
M  V30 18900 H 1735.85 -0.391424 -2.00719 0
M  V30 18901 H 1734 1.55631 -3.54765 0
M  V30 18902 H 1734.42 0.133241 -5.24331 0
M  V30 18903 H 1735.89 1.84296 -5.20326 0
M  V30 18904 H 1736.37 2.47413 -3.62882 0
M  V30 18905 H 1736.97 0.888269 -4.15921 0
M  V30 18906 N 1735.29 1.57597 0.0100073 0
M  V30 18907 C 1736.51 1.94801 0.711852 0
M  V30 18908 C 1736.94 0.864343 1.67065 0
M  V30 18909 O 1736.3 -0.178388 1.8042 0
M  V30 18910 C 1736.35 3.31094 1.42862 0
M  V30 18911 O 1735.45 3.2469 2.54264 0
M  V30 18912 H 1734.79 0.636207 0.190095 0
M  V30 18913 H 1737.32 2.04561 -0.0402016 0
M  V30 18914 H 1737.33 3.66428 1.79429 0
M  V30 18915 H 1736.01 4.09522 0.725549 0
M  V30 18916 H 1734.58 3.01017 2.20099 0
M  V30 18917 N 1736.77 -0.282606 1.55045 0
M  V30 18918 C 1738.04 -1.03617 1.659 0
M  V30 18919 C 1738.42 -2.04615 0.519207 0
M  V30 18920 O 1737.77 -2.2336 -0.48191 0
M  V30 18921 C 1737.98 -1.70159 3.04708 0
M  V30 18922 C 1739.33 -2.21677 3.62139 0
M  V30 18923 O 1740.35 -1.80161 3.07279 0
M  V30 18924 O 1739.21 -2.97799 4.58234 0
M  V30 18925 H 1736.31 -0.48004 0.673417 0
M  V30 18926 H 1738.85 -0.279228 1.67387 0
M  V30 18927 H 1737.63 -0.969205 3.79107 0
M  V30 18928 H 1737.25 -2.52564 3.07079 0
M  V30 18929 N 1738.25 -1.47815 -0.546675 0
M  V30 18930 C 1739.19 -1.61513 -1.67381 0
M  V30 18931 C 1740.19 -0.482064 -1.62396 0
M  V30 18932 O 1741.39 -0.660227 -1.67454 0
M  V30 18933 H 1737.77 -0.508484 -0.554029 0
M  V30 18934 H 1739.74 -2.5621 -1.52967 0
M  V30 18935 C 1738.49 -1.65645 -3.05707 0
M  V30 18936 H 1737.81 -2.52186 -3.10229 0
M  V30 18937 H 1739.25 -1.79277 -3.84234 0
M  V30 18938 C 1737.71 -0.391799 -3.34614 0
M  V30 18939 O 1738.24 0.502576 -3.98544 0
M  V30 18940 N 1736.45 -0.268593 -2.89356 0
M  V30 18941 H 1735.99 -0.997347 -2.37509 0
M  V30 18942 H 1735.95 0.5766 -3.09067 0
M  V30 18943 N 1739.72 0.794246 -1.36123 0
M  V30 18944 C 1740.67 1.92808 -1.30108 0
M  V30 18945 C 1741.67 1.68289 -0.193734 0
M  V30 18946 O 1742.87 1.76354 -0.360454 0
M  V30 18947 H 1739.25 0.633671 -0.404926 0
M  V30 18948 H 1741.22 1.95 -2.2587 0
M  V30 18949 C 1739.97 3.29762 -1.10238 0
M  V30 18950 H 1739.29 3.49193 -1.9469 0
M  V30 18951 H 1740.73 4.09463 -1.10073 0
M  V30 18952 C 1739.19 3.36345 0.193222 0
M  V30 18953 O 1739.72 3.83832 1.18474 0
M  V30 18954 N 1737.92 2.89638 0.236243 0
M  V30 18955 H 1737.47 2.51186 -0.571245 0
M  V30 18956 H 1737.43 2.94424 1.1028 0
M  V30 18957 N 1741.2 1.20323 1.01785 0
M  V30 18958 C 1742.15 0.947754 2.12416 0
M  V30 18959 C 1743.14 -0.100443 1.69102 0
M  V30 18960 O 1744.35 0.0498028 1.79931 0
M  V30 18961 H 1740.72 0.289148 0.694188 0
M  V30 18962 H 1742.7 1.88714 2.31149 0
M  V30 18963 C 1741.44 0.51503 3.43864 0
M  V30 18964 H 1740.77 1.31318 3.77618 0
M  V30 18965 H 1742.21 0.375476 4.22334 0
M  V30 18966 C 1740.67 -0.772413 3.27926 0
M  V30 18967 O 1741.2 -1.83115 3.57536 0
M  V30 18968 N 1739.4 -0.733948 2.81179 0
M  V30 18969 H 1738.95 0.127902 2.57282 0
M  V30 18970 H 1738.91 -1.59571 2.70896 0
M  V30 18971 N 1742.68 -1.21073 1.00892 0
M  V30 18972 C 1743.63 -2.25613 0.565829 0
M  V30 18973 C 1744.62 -1.64812 -0.391588 0
M  V30 18974 O 1745.83 -1.78078 -0.262352 0
M  V30 18975 H 1742.2 -0.733755 0.164643 0
M  V30 18976 H 1744.17 -2.60321 1.45862 0
M  V30 18977 C 1742.92 -3.47589 -0.087861 0
M  V30 18978 H 1742.25 -3.94647 0.639828 0
M  V30 18979 H 1743.69 -4.22459 -0.361115 0
M  V30 18980 C 1742.14 -3.09609 -1.32829 0
M  V30 18981 O 1742.67 -3.20449 -2.4223 0
M  V30 18982 N 1740.88 -2.64234 -1.2095 0
M  V30 18983 H 1740.43 -2.55613 -0.319301 0
M  V30 18984 H 1740.39 -2.39191 -2.04046 0
M  V30 18985 N 1744.16 -0.784156 -1.36707 0
M  V30 18986 C 1745.11 -0.166827 -2.32001 0
M  V30 18987 C 1746.1 0.670916 -1.55548 0
M  V30 18988 O 1747.31 0.566588 -1.7085 0
M  V30 18989 H 1743.68 -0.0351691 -0.751177 0
M  V30 18990 H 1745.65 -0.986074 -2.81637 0
M  V30 18991 C 1744.4 0.6881 -3.40823 0
M  V30 18992 H 1743.72 0.0528343 -3.99765 0
M  V30 18993 H 1745.16 1.08681 -4.09835 0
M  V30 18994 C 1743.62 1.84408 -2.81949 0
M  V30 18995 O 1744.15 2.94034 -2.73691 0
M  V30 18996 N 1742.36 1.64855 -2.39314 0
M  V30 18997 H 1741.91 0.756867 -2.4623 0
M  V30 18998 H 1741.86 2.42363 -2.00268 0
M  V30 18999 N 1745.64 1.48215 -0.535727 0
M  V30 19000 C 1746.58 2.31387 0.237209 0
M  V30 19001 C 1747.58 1.41589 0.929995 0
M  V30 19002 O 1748.78 1.58466 0.853725 0
M  V30 19003 H 1745.16 0.745928 0.0953663 0
M  V30 19004 H 1747.13 2.94452 -0.483772 0
M  V30 19005 C 1745.88 3.23771 1.26757 0
M  V30 19006 H 1745.2 3.92818 0.743902 0
M  V30 19007 H 1746.64 3.84841 1.7797 0
M  V30 19008 C 1745.1 2.45779 2.30422 0
M  V30 19009 O 1745.63 2.18673 3.36964 0
M  V30 19010 N 1743.84 2.07171 2.03785 0
M  V30 19011 H 1743.38 2.29416 1.17159 0
M  V30 19012 H 1743.34 1.55301 2.73366 0
M  V30 19013 N 1747.11 0.27113 1.5525 0
M  V30 19014 C 1748.06 -0.634087 2.2379 0
M  V30 19015 C 1749.06 -1.16101 1.23357 0
M  V30 19016 O 1750.26 -1.1151 1.413 0
M  V30 19017 H 1746.64 -0.223023 0.718168 0
M  V30 19018 H 1748.61 -0.0331304 2.98382 0
M  V30 19019 C 1747.36 -1.80879 2.96948 0
M  V30 19020 H 1746.68 -1.41252 3.74016 0
M  V30 19021 H 1748.12 -2.41888 3.48233 0
M  V30 19022 C 1746.58 -2.69481 2.02192 0
M  V30 19023 O 1747.11 -3.69725 1.57056 0
M  V30 19024 N 1745.32 -2.36565 1.68776 0
M  V30 19025 H 1744.86 -1.55096 2.05677 0
M  V30 19026 H 1744.82 -2.96119 1.05646 0
M  V30 19027 N 1748.59 -1.576 -0.00164943 0
M  V30 19028 C 1749.84 -1.89675 -0.686026 0
M  V30 19029 C 1750.15 -0.873179 -1.75028 0
M  V30 19030 O 1751.36 -1.08409 -2.48917 0
M  V30 19031 C 1749.82 -3.36696 -1.27136 0
M  V30 19032 C 1749.42 -4.47346 -0.242011 0
M  V30 19033 C 1751.17 -3.77883 -1.93402 0
M  V30 19034 C 1749.08 -5.85444 -0.837241 0
M  V30 19035 H 1748.01 -0.707756 -0.259994 0
M  V30 19036 H 1750.66 -1.83406 0.0586245 0
M  V30 19037 H 1749.04 -3.37797 -2.06662 0
M  V30 19038 H 1750.21 -4.57759 0.528539 0
M  V30 19039 H 1748.53 -4.15168 0.320118 0
M  V30 19040 H 1751.12 -4.78394 -2.38838 0
M  V30 19041 H 1751.47 -3.11311 -2.76389 0
M  V30 19042 H 1752 -3.79075 -1.20612 0
M  V30 19043 H 1748.74 -6.55484 -0.04619 0
M  V30 19044 H 1748.26 -5.78698 -1.57699 0
M  V30 19045 H 1749.94 -6.33048 -1.33637 0
M  V30 19046 N 1750.07 0.274379 -1.55193 0
M  V30 19047 C 1751.3 1.02871 -1.8009 0
M  V30 19048 C 1751.72 1.79202 -0.571676 0
M  V30 19049 O 1751.08 1.74867 0.478679 0
M  V30 19050 C 1751.13 1.96406 -3.02418 0
M  V30 19051 O 1750.23 3.05154 -2.77408 0
M  V30 19052 H 1749.57 0.294181 -0.595276 0
M  V30 19053 H 1752.1 0.303708 -2.02333 0
M  V30 19054 H 1752.11 2.38385 -3.31114 0
M  V30 19055 H 1750.79 1.40261 -3.91535 0
M  V30 19056 H 1749.36 2.675 -2.59805 0
M  V30 19057 N 1751.55 1.48103 0.538828 0
M  V30 19058 C 1752.77 1.59568 1.32487 0
M  V30 19059 C 1753.2 0.252908 1.86392 0
M  V30 19060 O 1752.56 -0.774094 1.63944 0
M  V30 19061 C 1752.6 2.63863 2.45782 0
M  V30 19062 O 1751.71 2.20409 3.48559 0
M  V30 19063 H 1751.05 0.53538 0.392765 0
M  V30 19064 H 1753.58 1.94024 0.649299 0
M  V30 19065 H 1753.59 2.8486 2.92093 0
M  V30 19066 H 1752.26 3.61352 2.05906 0
M  V30 19067 H 1750.84 2.09588 3.08427 0
M  V30 19068 N 1753.03 -0.787016 1.36542 0
M  V30 19069 C 1754.27 -1.55817 1.3229 0
M  V30 19070 C 1754.63 -1.91759 -0.0961159 0
M  V30 19071 O 1755.83 -2.67508 -0.26322 0
M  V30 19072 C 1754.1 -2.79934 2.22198 0
M  V30 19073 S 1755.66 -3.70154 2.35651 0
M  V30 19074 H 1752.48 -0.533633 0.469847 0
M  V30 19075 H 1755.08 -0.926755 1.72138 0
M  V30 19076 H 1753.79 -2.51583 3.24244 0
M  V30 19077 H 1753.32 -3.48046 1.83378 0
M  V30 19078 H 1755.33 -4.71179 1.55579 0
M  V30 19079 N 1754.5 -1.20861 -1.01145 0
M  V30 19080 C 1755.92 -0.964575 -1.27154 0
M  V30 19081 C 1756.12 0.352861 -1.98386 0
M  V30 19082 O 1755.18 1.08012 -2.28232 0
M  V30 19083 C 1756.49 -2.15074 -2.10151 0
M  V30 19084 C 1758.04 -2.19229 -2.234 0
M  V30 19085 C 1758.51 -3.37346 -3.09777 0
M  V30 19086 N 1760 -3.37392 -3.17365 0
M  V30 19087 C 1760.74 -4.25434 -3.84439 0
M  V30 19088 N 1760.23 -5.23664 -4.53595 0
M  V30 19089 N 1762.03 -4.13261 -3.81014 0
M  V30 19090 H 1754.18 -2.05595 -0.533346 0
M  V30 19091 H 1756.44 -0.899928 -0.298048 0
M  V30 19092 H 1756.15 -3.10511 -1.65153 0
M  V30 19093 H 1756.02 -2.13598 -3.10895 0
M  V30 19094 H 1758.41 -1.24352 -2.6762 0
M  V30 19095 H 1758.49 -2.24752 -1.22148 0
M  V30 19096 H 1758.13 -4.32513 -2.66261 0
M  V30 19097 H 1758.06 -3.29061 -4.11128 0
M  V30 19098 H 1760.55 -2.66299 -2.68129 0
M  V30 19099 H 1760.87 -5.87158 -5.02459 0
M  V30 19100 H 1759.21 -5.27595 -4.52403 0
M  V30 19101 H 1762.4 -3.35786 -3.26137 0
M  V30 19102 H 1762.58 -4.82085 -4.3301 0
M  V30 19103 N 1755.98 1.20536 -1.01532 0
M  V30 19104 C 1757.23 1.90152 -0.704973 0
M  V30 19105 C 1757.56 1.78569 0.763343 0
M  V30 19106 O 1756.84 1.16906 1.55445 0
M  V30 19107 C 1757.12 3.41589 -1.1397 0
M  V30 19108 C 1756.97 3.62113 -2.66823 0
M  V30 19109 C 1758.29 4.34335 -0.709984 0
M  V30 19110 H 1755.41 0.690524 -0.257577 0
M  V30 19111 H 1758.05 1.41959 -1.26284 0
M  V30 19112 H 1756.2 3.82765 -0.66505 0
M  V30 19113 H 1757.87 3.30197 -3.2213 0
M  V30 19114 H 1756.12 3.05626 -3.07855 0
M  V30 19115 H 1756.79 4.68261 -2.92294 0
M  V30 19116 H 1759.26 4.00799 -1.11801 0
M  V30 19117 H 1758.14 5.38915 -1.04221 0
M  V30 19118 H 1758.4 4.40391 0.388408 0
M  V30 19119 N 1757.46 0.791395 1.36289 0
M  V30 19120 C 1758.69 0.376696 2.03442 0
M  V30 19121 C 1759.1 -1.00753 1.59669 0
M  V30 19122 O 1758.46 -1.64657 0.787042 0
M  V30 19123 C 1758.51 0.433074 3.58897 0
M  V30 19124 O 1758.23 1.76272 4.01073 0
M  V30 19125 C 1759.73 0.00925475 4.43299 0
M  V30 19126 H 1756.95 0.154989 0.652855 0
M  V30 19127 H 1759.5 1.07079 1.74225 0
M  V30 19128 H 1757.65 -0.212623 3.86816 0
M  V30 19129 H 1758.07 1.71492 4.95672 0
M  V30 19130 H 1759.54 0.0998386 5.5191 0
M  V30 19131 H 1760.02 -1.04362 4.26621 0
M  V30 19132 H 1760.62 0.627518 4.20645 0
M  V30 19133 N 1758.94 -1.47929 0.54358 0
M  V30 19134 C 1759.85 -2.33611 -0.215191 0
M  V30 19135 C 1760.87 -1.47343 -0.925526 0
M  V30 19136 O 1762.04 -1.80299 -0.897459 0
M  V30 19137 C 1759.11 -3.23755 -1.24031 0
M  V30 19138 C 1758.17 -4.25904 -0.538874 0
M  V30 19139 C 1757.4 -5.11741 -1.51516 0
M  V30 19140 O 1757.62 -4.9979 -2.74893 0
M  V30 19141 O 1756.56 -5.92722 -1.0471 0
M  V30 19142 H 1760.38 -2.99765 0.487279 0
M  V30 19143 H 1757.97 -1.46267 0.30434 0
M  V30 19144 H 1759.85 -3.79475 -1.8324 0
M  V30 19145 H 1758.53 -2.60245 -1.92495 0
M  V30 19146 H 1757.43 -3.73982 0.0940539 0
M  V30 19147 H 1758.77 -4.9209 0.104063 0
M  V30 19148 N 1760.42 -0.27936 -1.55104 0
M  V30 19149 C 1761.37 0.62221 -2.24123 0
M  V30 19150 C 1762.36 1.15445 -1.23971 0
M  V30 19151 O 1763.57 1.10759 -1.41889 0
M  V30 19152 H 1759.94 0.219212 -0.71934 0
M  V30 19153 H 1761.91 0.0173061 -2.98395 0
M  V30 19154 C 1760.66 1.79301 -2.97903 0
M  V30 19155 H 1759.98 1.39266 -3.7476 0
M  V30 19156 H 1761.42 2.40038 -3.49511 0
M  V30 19157 C 1759.88 2.68405 -2.03618 0
M  V30 19158 O 1760.41 3.68887 -1.59014 0
M  V30 19159 N 1758.62 2.35666 -1.70028 0
M  V30 19160 H 1758.17 1.54003 -2.06497 0
M  V30 19161 H 1758.12 2.95554 -1.07215 0
M  V30 19162 N 1761.9 1.57599 -0.0067085 0
M  V30 19163 C 1763.17 1.82097 0.714141 0
M  V30 19164 C 1763.55 0.885868 1.91613 0
M  V30 19165 O 1762.9 -0.0638506 2.28411 0
M  V30 19166 C 1763.11 3.30759 1.11354 0
M  V30 19167 C 1764.46 3.96668 1.51459 0
M  V30 19168 O 1765.48 3.35121 1.20715 0
M  V30 19169 O 1764.34 5.051 2.08654 0
M  V30 19170 H 1761.44 0.750071 0.348314 0
M  V30 19171 H 1763.98 1.69669 -0.0326766 0
M  V30 19172 H 1762.75 3.90455 0.257068 0
M  V30 19173 H 1762.38 3.48211 1.91924 0
M  V30 19174 N 1763.37 -0.266145 1.55336 0
M  V30 19175 C 1764.62 -0.998308 1.76527 0
M  V30 19176 C 1764.95 -1.85691 0.568535 0
M  V30 19177 O 1764.23 -1.89602 -0.433735 0
M  V30 19178 C 1764.51 -1.87509 3.07429 0
M  V30 19179 C 1764.36 -1.04596 4.3747 0
M  V30 19180 C 1765.68 -2.86099 3.34418 0
M  V30 19181 H 1762.8 -0.361514 0.642244 0
M  V30 19182 H 1765.44 -0.270186 1.88069 0
M  V30 19183 H 1763.59 -2.49591 2.97719 0
M  V30 19184 H 1765.27 -0.445323 4.59145 0
M  V30 19185 H 1763.51 -0.349641 4.32389 0
M  V30 19186 H 1764.18 -1.69279 5.25403 0
M  V30 19187 H 1766.66 -2.34153 3.43965 0
M  V30 19188 H 1765.53 -3.44584 4.27262 0
M  V30 19189 H 1765.79 -3.61577 2.5439 0
M  V30 19190 N 1764.85 -1.48386 -0.530967 0
M  V30 19191 C 1765.78 -1.57405 -1.65224 0
M  V30 19192 C 1766.76 -0.424555 -1.5696 0
M  V30 19193 O 1767.95 -0.63602 -1.77446 0
M  V30 19194 C 1765.07 -1.50112 -3.03618 0
M  V30 19195 C 1764.12 -2.6989 -3.30245 0
M  V30 19196 S 1764.95 -4.31867 -3.16624 0
M  V30 19197 C 1766.11 -4.27171 -4.57466 0
M  V30 19198 H 1766.34 -2.52262 -1.57324 0
M  V30 19199 H 1763.87 -1.36907 -0.713851 0
M  V30 19200 H 1765.83 -1.46591 -3.83434 0
M  V30 19201 H 1764.49 -0.565934 -3.0896 0
M  V30 19202 H 1763.69 -2.60923 -4.31202 0
M  V30 19203 H 1763.29 -2.70668 -2.58098 0
M  V30 19204 H 1765.58 -3.97044 -5.48965 0
M  V30 19205 H 1766.52 -5.28304 -4.71487 0
M  V30 19206 H 1766.93 -3.57653 -4.36743 0
M  V30 19207 N 1766.33 0.779763 -1.36958 0
M  V30 19208 C 1767.28 1.89278 -1.32071 0
M  V30 19209 C 1768.25 1.65037 -0.18766 0
M  V30 19210 O 1769.43 1.87064 -0.375736 0
M  V30 19211 C 1766.57 3.2623 -1.12552 0
M  V30 19212 C 1765.68 3.62479 -2.35017 0
M  V30 19213 C 1764.82 4.88599 -2.08434 0
M  V30 19214 C 1763.86 5.17555 -3.26808 0
M  V30 19215 N 1763 6.3486 -2.99828 0
M  V30 19216 H 1767.84 1.9279 -2.27235 0
M  V30 19217 H 1765.37 0.942656 -1.12927 0
M  V30 19218 H 1767.33 4.0522 -0.992595 0
M  V30 19219 H 1765.96 3.22114 -0.210387 0
M  V30 19220 H 1765.01 2.78536 -2.59079 0
M  V30 19221 H 1766.32 3.7982 -3.23324 0
M  V30 19222 H 1765.48 5.75476 -1.92127 0
M  V30 19223 H 1764.22 4.73346 -1.17453 0
M  V30 19224 H 1763.22 4.29156 -3.43664 0
M  V30 19225 H 1764.45 5.34721 -4.18629 0
M  V30 19226 H 1762.39 6.20981 -2.11468 0
M  V30 19227 H 1762.31 6.52579 -3.81676 0
M  V30 19228 H 1763.58 7.24695 -2.8712 0
M  V30 19229 N 1767.81 1.21396 1.00503 0
M  V30 19230 C 1769.04 1.0556 1.77597 0
M  V30 19231 C 1769.45 -0.397591 1.84975 0
M  V30 19232 O 1768.79 -1.28764 1.31018 0
M  V30 19233 C 1768.85 1.57754 3.23039 0
M  V30 19234 C 1768.51 3.06214 3.39238 0
M  V30 19235 C 1769.51 4.03763 3.27523 0
M  V30 19236 C 1767.2 3.45418 3.6468 0
M  V30 19237 C 1769.19 5.38505 3.41015 0
M  V30 19238 C 1766.88 4.80312 3.77814 0
M  V30 19239 C 1767.88 5.76665 3.65988 0
M  V30 19240 O 1767.56 7.09111 3.78704 0
M  V30 19241 H 1767.3 0.371187 0.564975 0
M  V30 19242 H 1769.85 1.61186 1.27312 0
M  V30 19243 H 1768.08 0.965245 3.74459 0
M  V30 19244 H 1769.77 1.37762 3.81807 0
M  V30 19245 H 1770.53 3.74819 3.07791 0
M  V30 19246 H 1766.41 2.70954 3.72968 0
M  V30 19247 H 1769.96 6.13694 3.317 0
M  V30 19248 H 1765.85 5.08942 3.9705 0
M  V30 19249 H 1766.62 7.16521 3.95651 0
M  V30 19250 N 1769.29 -1.19996 1.0217 0
M  V30 19251 C 1770.7 -1.4154 0.737473 0
M  V30 19252 C 1770.9 -1.89649 -0.680832 0
M  V30 19253 O 1769.96 -2.06865 -1.44787 0
M  V30 19254 C 1771.27 -2.43269 1.76751 0
M  V30 19255 C 1772.82 -2.57027 1.78623 0
M  V30 19256 C 1773.29 -3.62003 2.80567 0
M  V30 19257 N 1774.78 -3.69492 2.79339 0
M  V30 19258 C 1775.52 -4.50391 3.54874 0
M  V30 19259 N 1775.02 -5.35053 4.40103 0
M  V30 19260 N 1776.81 -4.44972 3.43448 0
M  V30 19261 H 1768.96 -0.870855 1.93726 0
M  V30 19262 H 1771.22 -0.444866 0.837137 0
M  V30 19263 H 1770.93 -2.14927 2.78387 0
M  V30 19264 H 1770.8 -3.42336 1.58386 0
M  V30 19265 H 1773.19 -2.84695 0.776695 0
M  V30 19266 H 1773.27 -1.58138 2.01062 0
M  V30 19267 H 1772.91 -3.35078 3.81687 0
M  V30 19268 H 1772.84 -4.60526 2.55388 0
M  V30 19269 H 1775.34 -3.09021 2.17518 0
M  V30 19270 H 1775.65 -5.93881 4.94495 0
M  V30 19271 H 1773.99 -5.34538 4.44178 0
M  V30 19272 H 1777.18 -3.77869 2.76283 0
M  V30 19273 H 1777.36 -5.07782 4.02569 0
M  V30 19274 N 1770.76 -0.798611 -1.35867 0
M  V30 19275 C 1771.67 -0.204758 -2.33705 0
M  V30 19276 C 1772.69 0.648001 -1.61484 0
M  V30 19277 O 1773.87 0.561628 -1.93411 0
M  V30 19278 C 1770.93 0.643225 -3.40681 0
M  V30 19279 C 1769.99 -0.229099 -4.28688 0
M  V30 19280 C 1769.22 0.578508 -5.30555 0
M  V30 19281 O 1769.45 1.81382 -5.40793 0
M  V30 19282 O 1768.38 -0.0264291 -6.01894 0
M  V30 19283 H 1772.21 -1.01392 -2.86275 0
M  V30 19284 H 1769.79 -0.560242 -1.38498 0
M  V30 19285 H 1771.67 1.12648 -4.06065 0
M  V30 19286 H 1770.35 1.43012 -2.90395 0
M  V30 19287 H 1769.26 -0.759314 -3.66313 0
M  V30 19288 H 1770.59 -0.979736 -4.82351 0
M  V30 19289 N 1772.24 1.47639 -0.551417 0
M  V30 19290 C 1773.19 2.29936 0.199514 0
M  V30 19291 C 1774.16 1.38704 0.913811 0
M  V30 19292 O 1775.34 1.67666 0.910643 0
M  V30 19293 C 1772.48 3.22544 1.22717 0
M  V30 19294 C 1771.6 4.28865 0.519527 0
M  V30 19295 C 1770.73 5.0863 1.53197 0
M  V30 19296 C 1769.77 6.06731 0.808981 0
M  V30 19297 N 1768.91 6.79476 1.76798 0
M  V30 19298 H 1773.75 2.93631 -0.508414 0
M  V30 19299 H 1771.28 1.44738 -0.262553 0
M  V30 19300 H 1773.24 3.74653 1.83551 0
M  V30 19301 H 1771.87 2.60726 1.9032 0
M  V30 19302 H 1770.92 3.79857 -0.203217 0
M  V30 19303 H 1772.24 4.98778 -0.0471224 0
M  V30 19304 H 1771.39 5.6486 2.214 0
M  V30 19305 H 1770.13 4.38605 2.13253 0
M  V30 19306 H 1769.13 5.49684 0.112991 0
M  V30 19307 H 1770.36 6.78762 0.214239 0
M  V30 19308 H 1768.31 6.12185 2.35722 0
M  V30 19309 H 1768.22 7.45539 1.25333 0
M  V30 19310 H 1769.49 7.40283 2.44133 0
M  V30 19311 N 1773.72 0.287581 1.54954 0
M  V30 19312 C 1774.65 -0.587855 2.25979 0
M  V30 19313 C 1775.63 -1.14884 1.25442 0
M  V30 19314 O 1776.82 -1.18067 1.54188 0
M  V30 19315 C 1773.95 -1.76618 2.99037 0
M  V30 19316 C 1772.9 -1.33617 4.06609 0
M  V30 19317 C 1772.23 -2.59859 4.67309 0
M  V30 19318 C 1773.53 -0.477219 5.20115 0
M  V30 19319 H 1775.22 0.00450183 2.994 0
M  V30 19320 H 1772.77 0.00360521 1.44 0
M  V30 19321 H 1774.72 -2.38461 3.4744 0
M  V30 19322 H 1773.44 -2.38457 2.23172 0
M  V30 19323 H 1772.1 -0.74088 3.59036 0
M  V30 19324 H 1771.75 -3.19983 3.88098 0
M  V30 19325 H 1771.45 -2.31793 5.3995 0
M  V30 19326 H 1772.97 -3.22528 5.18467 0
M  V30 19327 H 1774.39 -1.00096 5.64494 0
M  V30 19328 H 1772.79 -0.290913 5.99394 0
M  V30 19329 H 1773.86 0.500993 4.82305 0
M  V30 19330 N 1775.2 -1.57593 0.0150662 0
M  V30 19331 C 1776.45 -1.90836 -0.665282 0
M  V30 19332 C 1776.77 -0.890693 -1.73469 0
M  V30 19333 O 1776.04 0.0698113 -1.95776 0
M  V30 19334 H 1774.62 -0.704377 -0.24872 0
M  V30 19335 H 1777.28 -1.94809 0.0595521 0
M  V30 19336 H 1776.38 -2.91043 -1.12697 0
M  V30 19337 N 1776.68 0.257904 -1.55475 0
M  V30 19338 C 1777.61 1.32303 -1.92401 0
M  V30 19339 C 1778.59 1.50767 -0.787617 0
M  V30 19340 O 1779.77 1.63559 -1.047 0
M  V30 19341 C 1776.9 2.67984 -2.20912 0
M  V30 19342 C 1775.86 2.64231 -3.36699 0
M  V30 19343 C 1775.18 4.03604 -3.50725 0
M  V30 19344 C 1776.48 2.22177 -4.72689 0
M  V30 19345 H 1778.18 1.01646 -2.81618 0
M  V30 19346 H 1775.72 0.487523 -1.35496 0
M  V30 19347 H 1777.68 3.42622 -2.45332 0
M  V30 19348 H 1776.4 3.00254 -1.2851 0
M  V30 19349 H 1775.06 1.92049 -3.1227 0
M  V30 19350 H 1774.71 4.33122 -2.55763 0
M  V30 19351 H 1774.41 4.01983 -4.28583 0
M  V30 19352 H 1775.93 4.79959 -3.77455 0
M  V30 19353 H 1777.34 2.86543 -4.96554 0
M  V30 19354 H 1775.74 2.3169 -5.5357 0
M  V30 19355 H 1776.81 1.17326 -4.70492 0
M  V30 19356 N 1778.15 1.48666 0.52309 0
M  V30 19357 C 1779.4 1.57034 1.27854 0
M  V30 19358 C 1779.73 0.247256 1.92922 0
M  V30 19359 O 1778.98 -0.763049 1.80211 0
M  V30 19360 C 1779.28 2.66247 2.38426 0
M  V30 19361 C 1778.95 4.08464 1.90965 0
M  V30 19362 C 1777.61 4.47171 1.77739 0
M  V30 19363 C 1779.96 4.97562 1.55184 0
M  V30 19364 C 1777.29 5.72772 1.27077 0
M  V30 19365 C 1779.64 6.23659 1.05982 0
M  V30 19366 C 1778.31 6.61216 0.913782 0
M  V30 19367 H 1777.58 0.574628 0.46785 0
M  V30 19368 H 1780.22 1.82411 0.582961 0
M  V30 19369 H 1778.53 2.34756 3.13682 0
M  V30 19370 H 1780.23 2.69936 2.9654 0
M  V30 19371 H 1776.82 3.779 2.02212 0
M  V30 19372 H 1781 4.6833 1.64259 0
M  V30 19373 H 1776.26 6.0059 1.14464 0
M  V30 19374 H 1780.43 6.92089 0.773684 0
M  V30 19375 H 1778.06 7.58426 0.519021 0
M  V30 19376 N 1779.63 -0.772489 1.37369 0
M  V30 19377 C 1781.04 -1.34873 1.29098 0
M  V30 19378 C 1781.39 -1.96103 -0.0617433 0
M  V30 19379 O 1780.52 -1.93764 -0.963562 0
M  V30 19380 C 1781.11 -2.45218 2.33781 0
M  V30 19381 C 1779.67 -2.98612 2.29146 0
M  V30 19382 C 1778.82 -1.71823 2.17651 0
M  V30 19383 H 1781.77 -0.572805 1.48002 0
M  V30 19384 H 1781.79 -3.24679 1.98404 0
M  V30 19385 H 1781.3 -2.00624 3.32222 0
M  V30 19386 H 1779.41 -3.47583 1.34225 0
M  V30 19387 H 1779.52 -3.54276 3.22529 0
M  V30 19388 H 1777.88 -1.94719 1.64185 0
M  V30 19389 H 1778.67 -1.29334 3.18006 0
M  V30 19390 N 1781.11 -1.21927 -0.998575 0
M  V30 19391 C 1782.06 -0.951671 -2.07189 0
M  V30 19392 C 1783.04 0.095548 -1.60616 0
M  V30 19393 O 1784.24 -0.11423 -1.76631 0
M  V30 19394 C 1781.37 -0.525175 -3.39259 0
M  V30 19395 C 1780.45 -1.60681 -3.92482 0
M  V30 19396 N 1780.84 -2.8333 -4.18996 0
M  V30 19397 C 1779.14 -1.47718 -4.20827 0
M  V30 19398 C 1779.84 -3.53231 -4.62172 0
M  V30 19399 N 1778.82 -2.80687 -4.65527 0
M  V30 19400 H 1782.62 -1.88341 -2.25621 0
M  V30 19401 H 1780.13 -1.11596 -1.17984 0
M  V30 19402 H 1782.13 -0.3148 -4.1571 0
M  V30 19403 H 1780.79 0.399723 -3.2223 0
M  V30 19404 H 1781.8 -3.19812 -4.07358 0
M  V30 19405 H 1778.48 -0.618048 -4.129 0
M  V30 19406 H 1779.87 -4.58279 -4.91355 0
M  V30 19407 N 1782.59 1.19452 -1.02805 0
M  V30 19408 C 1783.84 1.88439 -0.719284 0
M  V30 19409 C 1784.15 1.80435 0.755143 0
M  V30 19410 O 1785.36 2.44664 1.17693 0
M  V30 19411 C 1783.81 3.38001 -1.23625 0
M  V30 19412 C 1783.42 3.54564 -2.7384 0
M  V30 19413 C 1785.16 4.1247 -1.00343 0
M  V30 19414 C 1783.07 4.98016 -3.18958 0
M  V30 19415 H 1782 0.705762 -0.265359 0
M  V30 19416 H 1784.65 1.35058 -1.24224 0
M  V30 19417 H 1783.03 3.90774 -0.641211 0
M  V30 19418 H 1784.21 3.12124 -3.38991 0
M  V30 19419 H 1782.52 2.93484 -2.95392 0
M  V30 19420 H 1785.12 5.18257 -1.31581 0
M  V30 19421 H 1785.46 4.16257 0.0597873 0
M  V30 19422 H 1786 3.65832 -1.56243 0
M  V30 19423 H 1782.74 4.9939 -4.24605 0
M  V30 19424 H 1782.26 5.41221 -2.58534 0
M  V30 19425 H 1783.93 5.66664 -3.12252 0
M  V30 19426 N 1784.07 0.805805 1.35442 0
M  V30 19427 C 1785.01 0.213632 2.29809 0
M  V30 19428 C 1785.98 -0.651878 1.52774 0
M  V30 19429 O 1787.17 -0.597124 1.81216 0
M  V30 19430 C 1784.31 -0.632444 3.39255 0
M  V30 19431 C 1783.42 0.253414 4.31256 0
M  V30 19432 C 1782.56 -0.600593 5.27794 0
M  V30 19433 C 1781.6 0.285712 6.11433 0
M  V30 19434 N 1780.73 -0.528222 7.0011 0
M  V30 19435 H 1785.57 1.02378 2.79862 0
M  V30 19436 H 1783.11 0.516397 1.37738 0
M  V30 19437 H 1785.07 -1.13814 4.01376 0
M  V30 19438 H 1783.7 -1.40786 2.90481 0
M  V30 19439 H 1782.75 0.877202 3.70148 0
M  V30 19440 H 1784.06 0.935631 4.89946 0
M  V30 19441 H 1783.22 -1.17145 5.95283 0
M  V30 19442 H 1781.95 -1.31638 4.69598 0
M  V30 19443 H 1780.96 0.868843 5.42891 0
M  V30 19444 H 1782.18 0.999349 6.71707 0
M  V30 19445 H 1780.13 -1.228 6.44404 0
M  V30 19446 H 1780.05 0.0959658 7.55939 0
M  V30 19447 H 1781.32 -1.08238 7.71949 0
M  V30 19448 N 1785.54 -1.47344 0.559239 0
M  V30 19449 C 1786.79 -2.02768 0.0359962 0
M  V30 19450 C 1787.12 -1.43247 -1.31126 0
M  V30 19451 O 1786.4 -0.588793 -1.85374 0
M  V30 19452 C 1786.68 -3.60058 -0.0549111 0
M  V30 19453 C 1786.53 -4.30008 1.31958 0
M  V30 19454 C 1787.85 -4.33359 -0.767331 0
M  V30 19455 H 1784.97 -0.736856 0.0145552 0
M  V30 19456 H 1787.61 -1.75751 0.72192 0
M  V30 19457 H 1785.76 -3.83208 -0.639076 0
M  V30 19458 H 1787.44 -4.18193 1.94711 0
M  V30 19459 H 1785.68 -3.90283 1.89372 0
M  V30 19460 H 1786.35 -5.38605 1.20867 0
M  V30 19461 H 1788.83 -4.15215 -0.27131 0
M  V30 19462 H 1787.7 -5.4304 -0.799905 0
M  V30 19463 H 1787.96 -4.02725 -1.82387 0
M  V30 19464 N 1787.02 -0.295795 -1.54799 0
M  V30 19465 C 1788.27 0.315754 -1.99213 0
M  V30 19466 C 1788.58 1.55405 -1.18779 0
M  V30 19467 O 1789.79 2.23986 -1.53436 0
M  V30 19468 C 1788.25 0.613119 -3.54639 0
M  V30 19469 C 1787.85 -0.606546 -4.43875 0
M  V30 19470 C 1789.6 1.18615 -4.07591 0
M  V30 19471 C 1787.51 -0.282622 -5.90724 0
M  V30 19472 H 1786.44 0.121758 -0.744104 0
M  V30 19473 H 1789.09 -0.403686 -1.79005 0
M  V30 19474 H 1787.47 1.39202 -3.70728 0
M  V30 19475 H 1788.64 -1.3829 -4.39559 0
M  V30 19476 H 1786.96 -1.09785 -4.01667 0
M  V30 19477 H 1789.55 1.44266 -5.1487 0
M  V30 19478 H 1789.9 2.12674 -3.57876 0
M  V30 19479 H 1790.43 0.469078 -3.95025 0
M  V30 19480 H 1787.17 -1.19164 -6.44578 0
M  V30 19481 H 1786.69 0.456564 -5.9806 0
M  V30 19482 H 1788.37 0.117703 -6.46893 0
M  V30 19483 N 1788.5 1.57583 -0.0234236 0
M  V30 19484 C 1789.78 1.82844 0.694787 0
M  V30 19485 C 1790.16 0.906142 1.90663 0
M  V30 19486 O 1789.51 -0.039621 2.28466 0
M  V30 19487 C 1789.72 3.31921 1.07839 0
M  V30 19488 C 1791.06 3.98252 1.47243 0
M  V30 19489 O 1792.09 3.36383 1.17154 0
M  V30 19490 O 1790.95 5.07284 2.03285 0
M  V30 19491 H 1788.04 0.753723 0.340339 0
M  V30 19492 H 1790.59 1.69624 -0.0506703 0
M  V30 19493 H 1789.36 3.90705 0.215641 0
M  V30 19494 H 1788.98 3.50227 1.8822 0
M  V30 19495 N 1789.98 -0.249655 1.5561 0
M  V30 19496 C 1791.21 -0.995707 1.81365 0
M  V30 19497 C 1791.62 -1.79054 0.598767 0
M  V30 19498 O 1790.98 -1.773 -0.432538 0
M  V30 19499 C 1791.03 -1.93577 3.05303 0
M  V30 19500 O 1790.75 -1.17311 4.22102 0
M  V30 19501 C 1792.25 -2.79804 3.43838 0
M  V30 19502 H 1789.47 -0.293118 0.603591 0
M  V30 19503 H 1792.02 -0.273374 2.02665 0
M  V30 19504 H 1790.17 -2.61242 2.86062 0
M  V30 19505 H 1790.59 -1.80875 4.92326 0
M  V30 19506 H 1792.06 -3.4152 4.33668 0
M  V30 19507 H 1792.54 -3.50776 2.64298 0
M  V30 19508 H 1793.14 -2.17596 3.6542 0
M  V30 19509 N 1791.46 -1.48941 -0.515198 0
M  V30 19510 C 1792.39 -1.67466 -1.62719 0
M  V30 19511 C 1793.37 -0.523393 -1.61847 0
M  V30 19512 O 1794.55 -0.757631 -1.78812 0
M  V30 19513 C 1791.68 -1.72799 -3.0126 0
M  V30 19514 C 1790.64 -2.87574 -3.16994 0
M  V30 19515 C 1789.96 -2.78008 -4.56745 0
M  V30 19516 C 1791.26 -4.28693 -2.98362 0
M  V30 19517 H 1792.96 -2.60562 -1.47471 0
M  V30 19518 H 1790.5 -1.25391 -0.708027 0
M  V30 19519 H 1792.46 -1.84346 -3.78939 0
M  V30 19520 H 1791.18 -0.762918 -3.17564 0
M  V30 19521 H 1789.84 -2.75606 -2.41737 0
M  V30 19522 H 1789.49 -1.79438 -4.69905 0
M  V30 19523 H 1789.19 -3.55033 -4.68215 0
M  V30 19524 H 1790.71 -2.91543 -5.36503 0
M  V30 19525 H 1792.13 -4.41416 -3.65821 0
M  V30 19526 H 1790.52 -5.0683 -3.21315 0
M  V30 19527 H 1791.59 -4.44125 -1.9463 0
M  V30 19528 N 1792.94 0.765193 -1.37777 0
M  V30 19529 C 1794.16 1.55948 -1.3673 0
M  V30 19530 C 1794.59 1.8805 0.0435817 0
M  V30 19531 O 1793.94 1.49718 1.02246 0
M  V30 19532 C 1793.99 2.84245 -2.21895 0
M  V30 19533 O 1793.1 3.78903 -1.62807 0
M  V30 19534 H 1792.44 0.472127 -0.466897 0
M  V30 19535 H 1794.97 0.946556 -1.81388 0
M  V30 19536 H 1794.98 3.33284 -2.35342 0
M  V30 19537 H 1793.65 2.60209 -3.24444 0
M  V30 19538 H 1792.23 3.37568 -1.58437 0
M  V30 19539 N 1794.41 1.22455 0.992094 0
M  V30 19540 C 1795.38 0.996703 2.06394 0
M  V30 19541 C 1796.38 -0.0371659 1.60757 0
M  V30 19542 O 1797.57 0.20142 1.73032 0
M  V30 19543 C 1794.7 0.505675 3.37129 0
M  V30 19544 H 1795.89 1.94776 2.28041 0
M  V30 19545 H 1793.44 1.04335 1.16378 0
M  V30 19546 H 1794.18 -0.449697 3.21167 0
M  V30 19547 H 1793.96 1.25158 3.71588 0
M  V30 19548 H 1795.45 0.366535 4.15988 0
M  V30 19549 N 1795.89 -1.18905 1.03437 0
M  V30 19550 C 1796.8 -2.25979 0.63014 0
M  V30 19551 C 1797.82 -1.70633 -0.340668 0
M  V30 19552 O 1798.99 -2.00432 -0.197174 0
M  V30 19553 C 1796.06 -3.46699 -0.00713795 0
M  V30 19554 C 1795.12 -4.17205 1.01187 0
M  V30 19555 C 1794.35 -5.32162 0.404909 0
M  V30 19556 O 1794.58 -5.64894 -0.790638 0
M  V30 19557 O 1793.51 -5.91188 1.13048 0
M  V30 19558 H 1797.34 -2.62808 1.52203 0
M  V30 19559 H 1794.92 -1.25865 0.804878 0
M  V30 19560 H 1796.8 -4.1984 -0.362204 0
M  V30 19561 H 1795.48 -3.11707 -0.872948 0
M  V30 19562 H 1794.38 -3.46159 1.41862 0
M  V30 19563 H 1795.72 -4.56181 1.84823 0
M  V30 19564 N 1797.37 -0.812977 -1.35013 0
M  V30 19565 C 1798.62 -0.396345 -1.98583 0
M  V30 19566 C 1798.94 1.0381 -1.6448 0
M  V30 19567 O 1798.2 1.73604 -0.903344 0
M  V30 19568 C 1798.5 -0.534083 -3.53387 0
M  V30 19569 C 1798.16 -1.93278 -4.07375 0
M  V30 19570 C 1796.83 -2.31543 -4.21831 0
M  V30 19571 C 1799.18 -2.84756 -4.36535 0
M  V30 19572 C 1796.51 -3.60641 -4.62769 0
M  V30 19573 C 1798.86 -4.13308 -4.78915 0
M  V30 19574 C 1797.52 -4.51563 -4.91576 0
M  V30 19575 H 1796.79 -0.145033 -0.726668 0
M  V30 19576 H 1799.44 -1.035 -1.61121 0
M  V30 19577 H 1797.74 0.188002 -3.91349 0
M  V30 19578 H 1799.44 -0.192396 -4.00538 0
M  V30 19579 H 1796.03 -1.62551 -3.96579 0
M  V30 19580 H 1800.22 -2.56441 -4.24914 0
M  V30 19581 H 1795.47 -3.9012 -4.70761 0
M  V30 19582 H 1799.65 -4.84287 -5.00439 0
M  V30 19583 H 1797.27 -5.51649 -5.23056 0
M  V30 19584 N 1798.85 1.47045 -0.567045 0
M  V30 19585 C 1800.26 1.86202 -0.13627 0
M  V30 19586 C 1800.61 1.47252 1.29658 0
M  V30 19587 O 1799.73 0.880121 1.97694 0
M  V30 19588 C 1800.33 3.37945 -0.240528 0
M  V30 19589 C 1798.89 3.76157 0.135272 0
M  V30 19590 C 1798.04 2.71089 -0.583628 0
M  V30 19591 H 1800.99 1.38423 -0.776196 0
M  V30 19592 H 1801.01 3.76673 0.538293 0
M  V30 19593 H 1800.52 3.66263 -1.28348 0
M  V30 19594 H 1798.62 3.53456 1.17896 0
M  V30 19595 H 1798.73 4.78547 -0.230137 0
M  V30 19596 H 1797.1 2.54687 -0.0256067 0
M  V30 19597 H 1797.88 3.02247 -1.62792 0
M  V30 19598 N 1800.33 0.304 1.5464 0
M  V30 19599 C 1801.29 -0.557917 2.22306 0
M  V30 19600 C 1802.29 -1.05895 1.21008 0
M  V30 19601 O 1803.48 -0.954497 1.45722 0
M  V30 19602 C 1800.61 -1.77279 2.91178 0
M  V30 19603 H 1801.8 0.0333187 2.99881 0
M  V30 19604 H 1799.36 0.0548659 1.56204 0
M  V30 19605 H 1800.09 -2.40378 2.17689 0
M  V30 19606 H 1799.88 -1.42115 3.65439 0
M  V30 19607 H 1801.37 -2.38507 3.42789 0
M  V30 19608 N 1801.8 -1.57568 0.0317802 0
M  V30 19609 C 1802.73 -2.13412 -0.947499 0
M  V30 19610 C 1803.71 -1.05091 -1.33753 0
M  V30 19611 O 1804.9 -1.32936 -1.41568 0
M  V30 19612 C 1802.03 -2.66337 -2.22895 0
M  V30 19613 C 1800.98 -3.79469 -1.97958 0
M  V30 19614 C 1800.31 -4.18833 -3.3239 0
M  V30 19615 C 1801.61 -5.05432 -1.31664 0
M  V30 19616 H 1803.3 -2.95488 -0.482417 0
M  V30 19617 H 1800.85 -1.42142 -0.230603 0
M  V30 19618 H 1802.8 -3.04039 -2.91784 0
M  V30 19619 H 1801.53 -1.81426 -2.71574 0
M  V30 19620 H 1800.19 -3.42209 -1.31485 0
M  V30 19621 H 1799.83 -3.30899 -3.78833 0
M  V30 19622 H 1799.53 -4.95071 -3.16511 0
M  V30 19623 H 1801.06 -4.5912 -4.02544 0
M  V30 19624 H 1802.47 -5.40704 -1.90558 0
M  V30 19625 H 1800.87 -5.86686 -1.26173 0
M  V30 19626 H 1801.94 -4.84032 -0.28996 0
M  V30 19627 N 1803.28 0.241399 -1.5574 0
M  V30 19628 C 1804.51 0.986075 -1.81891 0
M  V30 19629 C 1804.93 1.78734 -0.608254 0
M  V30 19630 O 1804.28 1.77527 0.423129 0
M  V30 19631 C 1804.33 1.91956 -3.06325 0
M  V30 19632 O 1804.05 1.15071 -4.22718 0
M  V30 19633 C 1805.56 2.77977 -3.45317 0
M  V30 19634 H 1802.78 0.289913 -0.605137 0
M  V30 19635 H 1805.32 0.262622 -2.02807 0
M  V30 19636 H 1803.47 2.59721 -2.87443 0
M  V30 19637 H 1803.89 1.78261 -4.93278 0
M  V30 19638 H 1805.36 3.39215 -4.35474 0
M  V30 19639 H 1805.84 3.49369 -2.66154 0
M  V30 19640 H 1806.45 2.15655 -3.66569 0
M  V30 19641 N 1804.76 1.49212 0.507292 0
M  V30 19642 C 1805.71 1.65894 1.6304 0
M  V30 19643 C 1806.7 0.524951 1.61061 0
M  V30 19644 O 1807.91 0.704392 1.65645 0
M  V30 19645 H 1804.28 0.522994 0.540353 0
M  V30 19646 H 1806.25 2.60176 1.4612 0
M  V30 19647 C 1805 1.73692 3.01208 0
M  V30 19648 H 1804.33 2.60323 3.03434 0
M  V30 19649 H 1805.77 1.89402 3.79346 0
M  V30 19650 C 1804.23 0.480378 3.33458 0
M  V30 19651 O 1804.76 -0.396732 3.99736 0
M  V30 19652 N 1802.96 0.345216 2.88542 0
M  V30 19653 H 1802.51 1.05997 2.34782 0
M  V30 19654 H 1802.47 -0.494453 3.10488 0
M  V30 19655 N 1806.24 -0.757876 1.38181 0
M  V30 19656 C 1807.47 -1.54485 1.37179 0
M  V30 19657 C 1807.88 -1.89155 -0.0413714 0
M  V30 19658 O 1807.22 -1.52963 -1.01725 0
M  V30 19659 C 1807.28 -2.87464 2.15881 0
M  V30 19660 C 1806.95 -2.75355 3.64731 0
M  V30 19661 C 1807.94 -2.45442 4.58317 0
M  V30 19662 C 1805.63 -2.92942 4.08032 0
M  V30 19663 C 1807.62 -2.33263 5.93184 0
M  V30 19664 C 1805.31 -2.80384 5.42981 0
M  V30 19665 C 1806.31 -2.50586 6.3537 0
M  V30 19666 O 1805.99 -2.38079 7.67837 0
M  V30 19667 H 1805.73 -0.484775 0.471136 0
M  V30 19668 H 1808.28 -0.946061 1.82315 0
M  V30 19669 H 1806.51 -3.49516 1.65456 0
M  V30 19670 H 1808.2 -3.48949 2.0734 0
M  V30 19671 H 1808.97 -2.31527 4.26169 0
M  V30 19672 H 1804.84 -3.15133 3.3647 0
M  V30 19673 H 1808.39 -2.09927 6.65264 0
M  V30 19674 H 1804.29 -2.93871 5.74726 0
M  V30 19675 H 1805.05 -2.53324 7.78312 0
M  V30 19676 N 1807.72 -1.22979 -0.985586 0
M  V30 19677 C 1808.65 -1.03073 -2.09519 0
M  V30 19678 C 1809.63 0.0507025 -1.70024 0
M  V30 19679 O 1810.81 -0.112938 -1.93871 0
M  V30 19680 C 1807.94 -0.615578 -3.41801 0
M  V30 19681 C 1806.9 -1.64377 -3.95176 0
M  V30 19682 C 1806.22 -1.08422 -5.23592 0
M  V30 19683 C 1807.52 -3.03555 -4.25032 0
M  V30 19684 H 1809.22 -1.95882 -2.2643 0
M  V30 19685 H 1806.76 -0.943206 -1.0881 0
M  V30 19686 H 1808.72 -0.463394 -4.18844 0
M  V30 19687 H 1807.44 0.348185 -3.24739 0
M  V30 19688 H 1806.1 -1.78386 -3.20272 0
M  V30 19689 H 1805.75 -0.111597 -5.02876 0
M  V30 19690 H 1805.45 -1.77118 -5.6027 0
M  V30 19691 H 1806.97 -0.94378 -6.03262 0
M  V30 19692 H 1808.38 -2.92878 -4.92844 0
M  V30 19693 H 1806.78 -3.69441 -4.72899 0
M  V30 19694 H 1807.85 -3.52937 -3.32511 0
M  V30 19695 N 1809.19 1.18355 -1.04066 0
M  V30 19696 C 1810.42 1.91996 -0.762952 0
M  V30 19697 C 1810.83 1.76413 0.683745 0
M  V30 19698 O 1810.18 1.09121 1.47778 0
M  V30 19699 C 1810.24 3.4384 -1.04949 0
M  V30 19700 C 1809.9 3.83201 -2.4901 0
M  V30 19701 C 1810.9 3.86984 -3.47187 0
M  V30 19702 C 1808.58 4.14497 -2.83721 0
M  V30 19703 C 1810.58 4.21513 -4.78127 0
M  V30 19704 C 1808.26 4.48696 -4.14867 0
M  V30 19705 C 1809.26 4.52181 -5.1188 0
M  V30 19706 O 1808.95 4.85582 -6.40676 0
M  V30 19707 H 1808.68 0.616351 -0.277647 0
M  V30 19708 H 1811.24 1.51092 -1.39141 0
M  V30 19709 H 1809.47 3.84984 -0.363904 0
M  V30 19710 H 1811.16 3.98729 -0.759579 0
M  V30 19711 H 1811.92 3.62944 -3.21709 0
M  V30 19712 H 1807.8 4.10962 -2.08881 0
M  V30 19713 H 1811.34 4.24148 -5.53845 0
M  V30 19714 H 1807.24 4.72198 -4.40113 0
M  V30 19715 H 1808.01 5.03485 -6.45326 0
M  V30 19716 N 1810.67 0.820125 1.3458 0
M  V30 19717 C 1811.6 0.254709 2.32107 0
M  V30 19718 C 1812.58 -0.6273 1.58111 0
M  V30 19719 O 1813.77 -0.554759 1.86108 0
M  V30 19720 C 1810.9 -0.586541 3.42311 0
M  V30 19721 C 1809.85 0.198096 4.27541 0
M  V30 19722 C 1809.18 -0.765718 5.29189 0
M  V30 19723 C 1810.48 1.40472 5.03056 0
M  V30 19724 H 1812.17 1.06955 2.79644 0
M  V30 19725 H 1809.72 0.515756 1.34447 0
M  V30 19726 H 1811.67 -0.992259 4.09551 0
M  V30 19727 H 1810.4 -1.4344 2.93415 0
M  V30 19728 H 1809.05 0.585149 3.619 0
M  V30 19729 H 1808.7 -1.60946 4.76556 0
M  V30 19730 H 1808.4 -0.244954 5.87089 0
M  V30 19731 H 1809.93 -1.16935 5.99298 0
M  V30 19732 H 1811.34 1.07316 5.63166 0
M  V30 19733 H 1809.74 1.86092 5.70517 0
M  V30 19734 H 1810.81 2.18437 4.32913 0
M  V30 19735 N 1812.15 -1.46743 0.574835 0
M  V30 19736 C 1813.38 -2.06805 0.0627992 0
M  V30 19737 C 1813.79 -1.42482 -1.23872 0
M  V30 19738 O 1813.15 -0.527375 -1.74714 0
M  V30 19739 C 1813.2 -3.61307 -0.117983 0
M  V30 19740 O 1812.92 -4.23222 1.13201 0
M  V30 19741 C 1814.42 -4.3828 -0.665277 0
M  V30 19742 H 1811.64 -0.668835 0.0538616 0
M  V30 19743 H 1814.19 -1.88488 0.793265 0
M  V30 19744 H 1812.34 -3.79078 -0.798641 0
M  V30 19745 H 1812.76 -5.15992 0.940853 0
M  V30 19746 H 1814.23 -5.47004 -0.740985 0
M  V30 19747 H 1814.71 -4.05777 -1.68052 0
M  V30 19748 H 1815.31 -4.25295 -0.0197462 0
M  V30 19749 N 1813.63 -0.312197 -1.54477 0
M  V30 19750 C 1814.86 0.295632 -2.04474 0
M  V30 19751 C 1815.27 1.47211 -1.18851 0
M  V30 19752 O 1814.61 1.82503 -0.209347 0
M  V30 19753 C 1814.67 0.804123 -3.50391 0
M  V30 19754 C 1814.34 -0.248547 -4.56324 0
M  V30 19755 C 1815.33 -1.0808 -5.08542 0
M  V30 19756 C 1813.02 -0.393467 -5.00757 0
M  V30 19757 C 1815.01 -2.04381 -6.03744 0
M  V30 19758 C 1812.7 -1.35991 -5.95777 0
M  V30 19759 C 1813.7 -2.18355 -6.47155 0
M  V30 19760 O 1813.38 -3.13359 -7.40311 0
M  V30 19761 H 1813.12 0.0665366 -0.672718 0
M  V30 19762 H 1815.67 -0.45308 -2.00341 0
M  V30 19763 H 1813.9 1.60355 -3.51885 0
M  V30 19764 H 1815.59 1.32905 -3.83524 0
M  V30 19765 H 1816.36 -0.979766 -4.75001 0
M  V30 19766 H 1812.23 0.237709 -4.60387 0
M  V30 19767 H 1815.78 -2.68708 -6.43771 0
M  V30 19768 H 1811.68 -1.46162 -6.28734 0
M  V30 19769 H 1812.44 -3.08467 -7.58149 0
M  V30 19770 N 1815.11 1.57549 -0.040136 0
M  V30 19771 C 1816.04 2.07803 0.966975 0
M  V30 19772 C 1817.05 1.00363 1.28184 0
M  V30 19773 O 1818.24 1.27957 1.24456 0
M  V30 19774 C 1815.34 2.49688 2.29149 0
M  V30 19775 C 1814.51 3.80336 2.16017 0
M  V30 19776 C 1813.57 4.08652 3.31497 0
M  V30 19777 O 1812.6 4.78739 3.07892 0
M  V30 19778 N 1813.8 3.59693 4.55633 0
M  V30 19779 H 1816.57 2.94829 0.538115 0
M  V30 19780 H 1814.13 1.61237 0.146368 0
M  V30 19781 H 1816.12 2.65715 3.0525 0
M  V30 19782 H 1814.69 1.67969 2.63638 0
M  V30 19783 H 1813.91 3.73998 1.24575 0
M  V30 19784 H 1815.2 4.65912 2.04458 0
M  V30 19785 H 1814.59 3.03012 4.77703 0
M  V30 19786 H 1813.15 3.80978 5.28866 0
M  V30 19787 N 1816.58 -0.233136 1.55866 0
M  V30 19788 C 1817.83 -0.957324 1.77988 0
M  V30 19789 C 1818.15 -1.85325 0.606593 0
M  V30 19790 O 1817.42 -1.92237 -0.377047 0
M  V30 19791 H 1816 -0.356474 0.656457 0
M  V30 19792 H 1818.67 -0.247774 1.93319 0
M  V30 19793 H 1817.76 -1.57096 2.6968 0
M  V30 19794 N 1818.06 -1.49479 -0.499372 0
M  V30 19795 C 1819 -1.6239 -1.61748 0
M  V30 19796 C 1820.01 -0.506515 -1.5472 0
M  V30 19797 O 1821.2 -0.778629 -1.60623 0
M  V30 19798 C 1818.3 -1.56611 -3.00543 0
M  V30 19799 C 1817.47 -2.83909 -3.32738 0
M  V30 19800 C 1816.53 -2.7116 -4.50953 0
M  V30 19801 O 1815.56 -3.45097 -4.52656 0
M  V30 19802 N 1816.76 -1.82815 -5.50962 0
M  V30 19803 H 1819.52 -2.58823 -1.51099 0
M  V30 19804 H 1817.08 -1.46588 -0.687277 0
M  V30 19805 H 1819.08 -1.45734 -3.7755 0
M  V30 19806 H 1817.65 -0.68029 -3.05108 0
M  V30 19807 H 1816.87 -3.09125 -2.44613 0
M  V30 19808 H 1818.15 -3.68299 -3.51046 0
M  V30 19809 H 1817.55 -1.22005 -5.52387 0
M  V30 19810 H 1816.11 -1.77859 -6.27064 0
M  V30 19811 N 1819.54 0.750537 -1.38581 0
M  V30 19812 C 1820.45 1.89503 -1.38296 0
M  V30 19813 C 1821.47 1.71738 -0.279678 0
M  V30 19814 O 1822.64 1.94608 -0.518607 0
M  V30 19815 C 1819.71 3.24909 -1.20976 0
M  V30 19816 C 1818.77 3.55178 -2.41136 0
M  V30 19817 C 1818 4.84124 -2.24633 0
M  V30 19818 O 1818.23 5.56722 -1.24164 0
M  V30 19819 O 1817.16 5.1394 -3.13288 0
M  V30 19820 H 1820.99 1.92698 -2.34737 0
M  V30 19821 H 1818.57 0.896233 -1.19533 0
M  V30 19822 H 1820.45 4.05858 -1.13389 0
M  V30 19823 H 1819.13 3.22519 -0.276217 0
M  V30 19824 H 1818.03 2.74378 -2.54298 0
M  V30 19825 H 1819.37 3.62332 -3.33131 0
M  V30 19826 N 1821.02 1.235 0.979051 0
M  V30 19827 C 1821.97 0.984512 2.05649 0
M  V30 19828 C 1822.95 -0.0699833 1.60748 0
M  V30 19829 O 1824.15 0.142316 1.76427 0
M  V30 19830 C 1821.27 0.579082 3.38381 0
M  V30 19831 C 1820.36 1.66905 3.89876 0
M  V30 19832 N 1820.75 2.8996 4.14436 0
M  V30 19833 C 1819.05 1.54394 4.18424 0
M  V30 19834 C 1819.75 3.60539 4.56493 0
M  V30 19835 N 1818.73 2.88058 4.61003 0
M  V30 19836 H 1822.53 1.91906 2.22597 0
M  V30 19837 H 1820.04 1.13459 1.16193 0
M  V30 19838 H 1822.04 0.380896 4.15156 0
M  V30 19839 H 1820.7 -0.348408 3.22825 0
M  V30 19840 H 1821.71 3.26252 4.02219 0
M  V30 19841 H 1818.39 0.683659 4.11864 0
M  V30 19842 H 1819.78 4.66038 4.84002 0
M  V30 19843 N 1822.5 -1.17802 1.04693 0
M  V30 19844 C 1823.77 -1.83839 0.668039 0
M  V30 19845 C 1824.15 -1.93143 -0.852008 0
M  V30 19846 O 1823.5 -1.46213 -1.75596 0
M  V30 19847 C 1823.71 -3.21783 1.35118 0
M  V30 19848 C 1825.06 -3.97747 1.48601 0
M  V30 19849 O 1826.08 -3.31244 1.30979 0
M  V30 19850 O 1824.94 -5.16915 1.77373 0
M  V30 19851 H 1822.04 -0.793045 0.234538 0
M  V30 19852 H 1824.58 -1.25141 1.1462 0
M  V30 19853 H 1823.36 -3.0995 2.38844 0
M  V30 19854 H 1822.98 -3.88142 0.862045 0
M  V30 19855 N 1823.98 -0.827251 -1.34143 0
M  V30 19856 C 1825.22 -0.418003 -1.98445 0
M  V30 19857 C 1825.55 1.01737 -1.65418 0
M  V30 19858 O 1824.83 1.70932 -0.928042 0
M  V30 19859 C 1825.11 -0.625559 -3.54625 0
M  V30 19860 C 1824.97 -2.10736 -3.97379 0
M  V30 19861 C 1826.28 -0.0642701 -4.40053 0
M  V30 19862 H 1823.4 -0.15335 -0.72087 0
M  V30 19863 H 1826.05 -1.04062 -1.58969 0
M  V30 19864 H 1824.2 -0.095577 -3.88382 0
M  V30 19865 H 1825.87 -2.70131 -3.73934 0
M  V30 19866 H 1824.11 -2.59621 -3.47533 0
M  V30 19867 H 1824.78 -2.20338 -5.06118 0
M  V30 19868 H 1827.26 -0.517137 -4.12874 0
M  V30 19869 H 1826.13 -0.239267 -5.48378 0
M  V30 19870 H 1826.39 1.0311 -4.29908 0
M  V30 19871 N 1825.45 1.46436 -0.582609 0
M  V30 19872 C 1826.38 2.33089 0.138477 0
M  V30 19873 C 1827.36 1.45339 0.883777 0
M  V30 19874 O 1828.55 1.74156 0.859257 0
M  V30 19875 C 1825.68 3.27611 1.15276 0
M  V30 19876 C 1824.63 4.24801 0.522308 0
M  V30 19877 C 1823.96 5.0883 1.64306 0
M  V30 19878 C 1825.26 5.19496 -0.540449 0
M  V30 19879 H 1826.95 2.93629 -0.585013 0
M  V30 19880 H 1824.5 1.41196 -0.282781 0
M  V30 19881 H 1826.45 3.87087 1.66558 0
M  V30 19882 H 1825.18 2.65177 1.90653 0
M  V30 19883 H 1823.84 3.66587 0.0305728 0
M  V30 19884 H 1823.48 4.42782 2.38649 0
M  V30 19885 H 1823.18 5.74649 1.22686 0
M  V30 19886 H 1824.71 5.7117 2.15864 0
M  V30 19887 H 1826.12 5.73189 -0.112706 0
M  V30 19888 H 1824.52 5.93658 -0.876957 0
M  V30 19889 H 1825.59 4.63434 -1.42677 0
M  V30 19890 N 1826.93 0.320385 1.54309 0
M  V30 19891 C 1828.34 -0.16833 1.8594 0
M  V30 19892 C 1828.69 -1.51877 1.24208 0
M  V30 19893 O 1827.82 -2.09374 0.546933 0
M  V30 19894 C 1828.41 -0.312212 3.37358 0
M  V30 19895 C 1826.97 -0.745147 3.68951 0
M  V30 19896 C 1826.12 0.135038 2.76971 0
M  V30 19897 H 1829.07 0.540773 1.49202 0
M  V30 19898 H 1829.09 -1.14364 3.62906 0
M  V30 19899 H 1828.6 0.670809 3.82259 0
M  V30 19900 H 1826.7 -1.73803 3.29581 0
M  V30 19901 H 1826.82 -0.5511 4.7592 0
M  V30 19902 H 1825.18 -0.388886 2.51714 0
M  V30 19903 H 1825.96 1.11477 3.24697 0
M  V30 19904 N 1828.41 -1.57525 0.0484906 0
M  V30 19905 C 1829.34 -2.14405 -0.924811 0
M  V30 19906 C 1830.32 -1.06503 -1.32631 0
M  V30 19907 O 1831.51 -1.3443 -1.4015 0
M  V30 19908 C 1828.64 -2.68686 -2.20057 0
M  V30 19909 C 1827.59 -3.81547 -1.93922 0
M  V30 19910 C 1826.92 -4.22334 -3.27929 0
M  V30 19911 C 1828.22 -5.06801 -1.26295 0
M  V30 19912 H 1829.91 -2.95983 -0.45105 0
M  V30 19913 H 1827.46 -1.42378 -0.215514 0
M  V30 19914 H 1829.41 -3.07117 -2.88543 0
M  V30 19915 H 1828.13 -1.84296 -2.69634 0
M  V30 19916 H 1826.79 -3.43585 -1.27848 0
M  V30 19917 H 1826.44 -3.34899 -3.75302 0
M  V30 19918 H 1826.14 -4.984 -3.11242 0
M  V30 19919 H 1827.66 -4.63363 -3.97652 0
M  V30 19920 H 1829.08 -5.42695 -1.84812 0
M  V30 19921 H 1827.47 -5.87991 -1.19943 0
M  V30 19922 H 1828.54 -4.84313 -0.238605 0
M  V30 19923 N 1829.89 0.224867 -1.55988 0
M  V30 19924 C 1830.84 1.29829 -1.92995 0
M  V30 19925 C 1831.83 1.48693 -0.81159 0
M  V30 19926 O 1833.04 1.49906 -0.996397 0
M  V30 19927 H 1829.41 0.435205 -0.61327 0
M  V30 19928 H 1831.38 0.958953 -2.82571 0
M  V30 19929 C 1830.13 2.6422 -2.26016 0
M  V30 19930 H 1829.45 2.50511 -3.11584 0
M  V30 19931 H 1830.89 3.38148 -2.55797 0
M  V30 19932 C 1829.35 3.1898 -1.08413 0
M  V30 19933 O 1829.88 4.00228 -0.343538 0
M  V30 19934 N 1828.09 2.77308 -0.868842 0
M  V30 19935 H 1827.64 2.11344 -1.4728 0
M  V30 19936 H 1827.59 3.14289 -0.0837012 0
M  V30 19937 N 1831.37 1.49742 0.491438 0
M  V30 19938 C 1832.3 1.6173 1.60993 0
M  V30 19939 C 1833.28 0.466021 1.55779 0
M  V30 19940 O 1834.46 0.682843 1.75697 0
M  V30 19941 C 1831.59 1.58109 2.99532 0
M  V30 19942 C 1830.63 2.78551 3.22973 0
M  V30 19943 S 1831.47 4.4011 3.05063 0
M  V30 19944 C 1832.62 4.3915 4.4598 0
M  V30 19945 H 1832.86 2.56345 1.50581 0
M  V30 19946 H 1830.39 1.38752 0.677301 0
M  V30 19947 H 1832.35 1.56706 3.79412 0
M  V30 19948 H 1831.01 0.64765 3.0735 0
M  V30 19949 H 1830.2 2.72264 4.24133 0
M  V30 19950 H 1829.8 2.77416 2.50831 0
M  V30 19951 H 1832.09 4.11459 5.38245 0
M  V30 19952 H 1833.04 5.40619 4.57315 0
M  V30 19953 H 1833.45 3.69107 4.27107 0
M  V30 19954 N 1832.84 -0.743177 1.38977 0
M  V30 19955 C 1833.79 -1.85709 1.37043 0
M  V30 19956 C 1834.76 -1.64481 0.231351 0
M  V30 19957 O 1835.95 -1.86002 0.4252 0
M  V30 19958 C 1833.09 -3.23131 1.21162 0
M  V30 19959 C 1832.2 -3.5612 2.44545 0
M  V30 19960 C 1831.33 -4.82901 2.21315 0
M  V30 19961 C 1830.37 -5.08708 3.40415 0
M  V30 19962 N 1829.51 -6.26688 3.16555 0
M  V30 19963 H 1834.35 -1.86698 2.32267 0
M  V30 19964 H 1831.89 -0.912384 1.15386 0
M  V30 19965 H 1833.85 -4.02446 1.09968 0
M  V30 19966 H 1832.48 -3.21443 0.295716 0
M  V30 19967 H 1831.53 -2.71569 2.66373 0
M  V30 19968 H 1832.84 -3.71114 3.3328 0
M  V30 19969 H 1831.99 -5.70179 2.07317 0
M  V30 19970 H 1830.73 -4.70065 1.29962 0
M  V30 19971 H 1829.74 -4.19894 3.54921 0
M  V30 19972 H 1830.96 -5.23434 4.32659 0
M  V30 19973 H 1828.91 -6.15156 2.27858 0
M  V30 19974 H 1828.83 -6.4223 3.98843 0
M  V30 19975 H 1830.09 -7.16827 3.06233 0
M  V30 19976 N 1834.32 -1.24018 -0.972487 0
M  V30 19977 C 1835.74 -1.00454 -1.24021 0
M  V30 19978 C 1835.94 0.289568 -1.99409 0
M  V30 19979 O 1834.99 1.00696 -2.31552 0
M  V30 19980 C 1836.31 -2.21651 -2.03202 0
M  V30 19981 C 1837.86 -2.26225 -2.16312 0
M  V30 19982 C 1838.33 -3.47031 -2.98888 0
M  V30 19983 N 1839.82 -3.47318 -3.06471 0
M  V30 19984 C 1840.56 -4.3745 -3.70709 0
M  V30 19985 N 1840.05 -5.37829 -4.36705 0
M  V30 19986 N 1841.85 -4.25173 -3.67674 0
M  V30 19987 H 1834 -2.07187 -0.467668 0
M  V30 19988 H 1836.26 -0.908955 -0.269267 0
M  V30 19989 H 1835.97 -3.15608 -1.55191 0
M  V30 19990 H 1835.84 -2.2338 -3.03943 0
M  V30 19991 H 1838.23 -1.32803 -2.63529 0
M  V30 19992 H 1838.31 -2.28525 -1.14936 0
M  V30 19993 H 1837.95 -4.40765 -2.52366 0
M  V30 19994 H 1837.88 -3.41974 -4.00452 0
M  V30 19995 H 1840.37 -2.74695 -2.59521 0
M  V30 19996 H 1840.69 -6.02846 -4.83525 0
M  V30 19997 H 1839.03 -5.41721 -4.35389 0
M  V30 19998 H 1842.22 -3.45992 -3.15289 0
M  V30 19999 H 1842.39 -4.95617 -4.17454 0
M  V30 20000 N 1835.8 1.17245 -1.05316 0
M  V30 20001 C 1836.75 2.21304 -0.655223 0
M  V30 20002 C 1837.72 1.62515 0.343244 0
M  V30 20003 O 1838.9 1.89355 0.234375 0
M  V30 20004 C 1836.04 3.4508 -0.037446 0
M  V30 20005 C 1835.16 4.18155 -1.0849 0
M  V30 20006 C 1834.29 5.29422 -0.434307 0
M  V30 20007 C 1833.33 5.94286 -1.46598 0
M  V30 20008 N 1832.47 6.97063 -0.839461 0
M  V30 20009 H 1837.31 2.54696 -1.54705 0
M  V30 20010 H 1834.84 1.25109 -0.773697 0
M  V30 20011 H 1836.8 4.15827 0.338182 0
M  V30 20012 H 1835.43 3.12268 0.817837 0
M  V30 20013 H 1834.48 3.46111 -1.57834 0
M  V30 20014 H 1835.8 4.62502 -1.86798 0
M  V30 20015 H 1834.95 6.067 -0.00516288 0
M  V30 20016 H 1833.69 4.86212 0.380745 0
M  V30 20017 H 1832.69 5.15737 -1.90513 0
M  V30 20018 H 1833.92 6.39576 -2.28295 0
M  V30 20019 H 1831.86 6.55985 -0.0449421 0
M  V30 20020 H 1831.78 7.39728 -1.56006 0
M  V30 20021 H 1833.05 7.78285 -0.435132 0
M  V30 20022 N 1837.28 0.834353 1.33702 0
M  V30 20023 C 1838.23 0.26233 2.29304 0
M  V30 20024 C 1839.2 -0.619326 1.54122 0
M  V30 20025 O 1840.38 -0.558551 1.82441 0
M  V30 20026 C 1837.52 -0.560341 3.4052 0
M  V30 20027 C 1836.63 0.344832 4.30622 0
M  V30 20028 C 1835.77 -0.488505 5.28949 0
M  V30 20029 C 1834.81 0.415341 6.10689 0
M  V30 20030 N 1833.94 -0.3796 7.01073 0
M  V30 20031 H 1838.78 1.08291 2.77628 0
M  V30 20032 H 1836.32 0.545497 1.36612 0
M  V30 20033 H 1838.28 -1.05274 4.03699 0
M  V30 20034 H 1836.91 -1.34593 2.93402 0
M  V30 20035 H 1835.96 0.955519 3.68204 0
M  V30 20036 H 1837.27 1.03935 4.87851 0
M  V30 20037 H 1836.43 -1.04492 5.97634 0
M  V30 20038 H 1835.17 -1.21648 4.72285 0
M  V30 20039 H 1834.17 0.983803 5.40926 0
M  V30 20040 H 1835.4 1.1416 6.69436 0
M  V30 20041 H 1833.34 -1.09103 6.46864 0
M  V30 20042 H 1833.26 0.25629 7.55565 0
M  V30 20043 H 1834.53 -0.918394 7.74071 0
M  V30 20044 N 1838.76 -1.46125 0.590367 0
M  V30 20045 C 1840.01 -2.01555 0.0765543 0
M  V30 20046 C 1840.32 -1.46661 -1.29422 0
M  V30 20047 O 1841.52 -1.93958 -1.8998 0
M  V30 20048 C 1839.98 -3.59797 0.0862369 0
M  V30 20049 C 1839.59 -4.23687 1.4558 0
M  V30 20050 C 1841.33 -4.22856 -0.373232 0
M  V30 20051 C 1839.24 -5.7403 1.42279 0
M  V30 20052 H 1838.17 -0.75359 0.0248501 0
M  V30 20053 H 1840.82 -1.67778 0.743149 0
M  V30 20054 H 1839.2 -3.90684 -0.646675 0
M  V30 20055 H 1840.38 -4.04398 2.20905 0
M  V30 20056 H 1838.69 -3.72753 1.85592 0
M  V30 20057 H 1841.29 -5.33073 -0.416837 0
M  V30 20058 H 1841.63 -3.92325 -1.39237 0
M  V30 20059 H 1842.16 -3.96622 0.305859 0
M  V30 20060 H 1838.9 -6.09234 2.41898 0
M  V30 20061 H 1838.42 -5.95561 0.711862 0
M  V30 20062 H 1840.1 -6.36896 1.13899 0
M  V30 20063 N 1840.23 -0.328564 -1.54137 0
M  V30 20064 C 1841.47 0.273037 -2.02568 0
M  V30 20065 C 1841.84 1.48953 -1.21148 0
M  V30 20066 O 1843.04 2.16433 -1.59406 0
M  V30 20067 C 1841.31 0.594017 -3.52429 0
M  V30 20068 S 1842.87 1.17456 -4.22788 0
M  V30 20069 H 1839.69 0.0822771 -0.706223 0
M  V30 20070 H 1842.29 -0.462847 -1.89942 0
M  V30 20071 H 1840.99 -0.299408 -4.09306 0
M  V30 20072 H 1840.52 1.35997 -3.69146 0
M  V30 20073 H 1842.54 2.46113 -4.30863 0
M  V30 20074 N 1841.71 1.57497 -0.0568439 0
M  V30 20075 C 1842.94 1.97231 0.625102 0
M  V30 20076 C 1843.36 0.934622 1.64043 0
M  V30 20077 O 1842.71 -0.0805064 1.82322 0
M  V30 20078 C 1842.76 3.37046 1.30698 0
M  V30 20079 O 1842.48 4.36838 0.332302 0
M  V30 20080 C 1843.99 3.9157 2.07816 0
M  V30 20081 H 1841.21 0.648975 0.170505 0
M  V30 20082 H 1843.75 2.04119 -0.124823 0
M  V30 20083 H 1841.9 3.31292 2.0081 0
M  V30 20084 H 1842.32 5.18055 0.819691 0
M  V30 20085 H 1843.79 4.91664 2.5094 0
M  V30 20086 H 1844.27 3.27303 2.92864 0
M  V30 20087 H 1844.88 4.0068 1.42603 0
M  V30 20088 N 1843.19 -0.216591 1.56105 0
M  V30 20089 C 1844.12 -1.27155 1.95841 0
M  V30 20090 C 1845.1 -1.48626 0.827313 0
M  V30 20091 O 1846.29 -1.60725 1.09 0
M  V30 20092 C 1843.42 -2.62032 2.27939 0
M  V30 20093 C 1842.37 -2.55211 3.43586 0
M  V30 20094 C 1841.7 -3.94163 3.61303 0
M  V30 20095 C 1843 -2.09566 4.78413 0
M  V30 20096 H 1844.69 -0.941435 2.84214 0
M  V30 20097 H 1842.24 -0.451427 1.36741 0
M  V30 20098 H 1844.19 -3.35997 2.5433 0
M  V30 20099 H 1842.91 -2.96742 1.36426 0
M  V30 20100 H 1841.57 -1.83703 3.17252 0
M  V30 20101 H 1841.22 -4.26188 2.67156 0
M  V30 20102 H 1840.92 -3.90479 4.3909 0
M  V30 20103 H 1842.44 -4.69782 3.90047 0
M  V30 20104 H 1843.86 -2.73277 5.03977 0
M  V30 20105 H 1842.26 -2.16931 5.59518 0
M  V30 20106 H 1843.33 -1.0481 4.73437 0
M  V30 20107 N 1844.67 -1.5 -0.48349 0
M  V30 20108 C 1845.62 -1.68467 -1.6038 0
M  V30 20109 C 1846.61 -0.550508 -1.60205 0
M  V30 20110 O 1847.82 -0.730656 -1.64504 0
M  V30 20111 H 1844.19 -0.531525 -0.531964 0
M  V30 20112 H 1846.16 -2.62468 -1.41962 0
M  V30 20113 C 1844.91 -1.78462 -2.98407 0
M  V30 20114 H 1844.23 -2.65117 -2.99254 0
M  V30 20115 H 1845.67 -1.95413 -3.76284 0
M  V30 20116 C 1844.13 -0.533368 -3.32651 0
M  V30 20117 O 1844.66 0.333087 -4.00317 0
M  V30 20118 N 1842.87 -0.391077 -2.87957 0
M  V30 20119 H 1842.42 -1.09719 -2.33066 0
M  V30 20120 H 1842.37 0.444995 -3.11235 0
M  V30 20121 N 1846.15 0.735796 -1.39369 0
M  V30 20122 C 1847.09 1.87116 -1.38168 0
M  V30 20123 C 1848.09 1.67315 -0.264936 0
M  V30 20124 O 1849.29 1.74666 -0.434928 0
M  V30 20125 H 1845.67 0.615926 -0.431438 0
M  V30 20126 H 1847.64 1.85245 -2.33938 0
M  V30 20127 C 1846.39 3.2479 -1.24125 0
M  V30 20128 H 1845.71 3.40621 -2.09325 0
M  V30 20129 H 1847.15 4.04426 -1.27341 0
M  V30 20130 C 1845.61 3.36862 0.050393 0
M  V30 20131 O 1846.14 3.88511 1.02088 0
M  V30 20132 N 1844.35 2.90379 0.113184 0
M  V30 20133 H 1843.89 2.48537 -0.677267 0
M  V30 20134 H 1843.85 2.98837 0.976928 0
M  V30 20135 N 1847.63 1.24532 0.965897 0
M  V30 20136 C 1848.57 1.03929 2.06076 0
M  V30 20137 C 1849.54 -0.0479997 1.66031 0
M  V30 20138 O 1850.73 0.106979 1.905 0
M  V30 20139 C 1847.87 0.652084 3.38883 0
M  V30 20140 C 1846.98 1.81304 3.92113 0
M  V30 20141 C 1846.12 1.37125 5.13196 0
M  V30 20142 C 1845.15 2.50204 5.58627 0
M  V30 20143 N 1844.29 2.0688 6.70929 0
M  V30 20144 H 1849.13 1.97636 2.23033 0
M  V30 20145 H 1846.67 0.984356 1.09311 0
M  V30 20146 H 1848.63 0.408608 4.15194 0
M  V30 20147 H 1847.26 -0.247995 3.21846 0
M  V30 20148 H 1846.31 2.17013 3.12425 0
M  V30 20149 H 1847.62 2.66264 4.21788 0
M  V30 20150 H 1846.77 1.08676 5.96887 0
M  V30 20151 H 1845.51 0.492215 4.8521 0
M  V30 20152 H 1844.52 2.7941 4.73508 0
M  V30 20153 H 1845.74 3.38667 5.88627 0
M  V30 20154 H 1843.69 1.21377 6.44673 0
M  V30 20155 H 1843.61 2.85392 7.00062 0
M  V30 20156 H 1844.87 1.81575 7.58057 0
M  V30 20157 N 1849.1 -1.16685 1.05936 0
M  V30 20158 C 1850.52 -1.39122 0.78213 0
M  V30 20159 C 1850.72 -1.9172 -0.620152 0
M  V30 20160 O 1849.78 -2.11366 -1.38132 0
M  V30 20161 C 1851.09 -2.37522 1.84401 0
M  V30 20162 C 1852.64 -2.51214 1.8671 0
M  V30 20163 C 1853.11 -3.52894 2.91942 0
M  V30 20164 N 1854.6 -3.60418 2.90952 0
M  V30 20165 C 1855.34 -4.38873 3.69023 0
M  V30 20166 N 1854.83 -5.20781 4.56902 0
M  V30 20167 N 1856.63 -4.3382 3.57431 0
M  V30 20168 H 1848.78 -0.808781 1.96399 0
M  V30 20169 H 1851.04 -0.418008 0.850866 0
M  V30 20170 H 1850.75 -2.05962 2.85084 0
M  V30 20171 H 1850.62 -3.37123 1.69197 0
M  V30 20172 H 1853.01 -2.8208 0.866875 0
M  V30 20173 H 1853.09 -1.51661 2.05992 0
M  V30 20174 H 1852.73 -3.22765 3.92155 0
M  V30 20175 H 1852.66 -4.52168 2.6991 0
M  V30 20176 H 1855.15 -3.01945 2.27239 0
M  V30 20177 H 1855.47 -5.77848 5.13138 0
M  V30 20178 H 1853.81 -5.20136 4.60959 0
M  V30 20179 H 1857 -3.68888 2.88165 0
M  V30 20180 H 1857.18 -4.94717 4.1852 0
M  V30 20181 N 1850.58 -0.841432 -1.33258 0
M  V30 20182 C 1851.53 -0.265077 -2.31085 0
M  V30 20183 C 1852.52 0.604339 -1.58253 0
M  V30 20184 O 1853.73 0.493615 -1.731 0
M  V30 20185 H 1850.1 -0.0669974 -0.74901 0
M  V30 20186 H 1852.08 -1.10464 -2.77201 0
M  V30 20187 C 1850.82 0.542926 -3.43435 0
M  V30 20188 H 1850.15 -0.116767 -3.99629 0
M  V30 20189 H 1851.59 0.912004 -4.14075 0
M  V30 20190 C 1850.05 1.72284 -2.89517 0
M  V30 20191 O 1850.58 2.82161 -2.85916 0
M  V30 20192 N 1848.78 1.54557 -2.4609 0
M  V30 20193 H 1848.33 0.651752 -2.49219 0
M  V30 20194 H 1848.29 2.33651 -2.10367 0
M  V30 20195 N 1852.06 1.4581 -0.598108 0
M  V30 20196 C 1853.02 2.28905 0.11623 0
M  V30 20197 C 1854.02 1.39246 0.804187 0
M  V30 20198 O 1855.21 1.61466 0.653793 0
M  V30 20199 C 1852.34 3.20029 1.17449 0
M  V30 20200 H 1853.54 2.93543 -0.614217 0
M  V30 20201 H 1851.09 1.52175 -0.356735 0
M  V30 20202 H 1851.83 2.60171 1.93601 0
M  V30 20203 H 1851.61 3.86061 0.685508 0
M  V30 20204 H 1853.1 3.82533 1.67505 0
M  V30 20205 N 1853.54 0.336733 1.53961 0
M  V30 20206 C 1854.49 -0.538599 2.26278 0
M  V30 20207 C 1855.48 -1.10764 1.2817 0
M  V30 20208 O 1856.69 -1.05416 1.45902 0
M  V30 20209 H 1853.06 -0.192363 0.72698 0
M  V30 20210 H 1855.03 0.0934532 2.98254 0
M  V30 20211 C 1853.78 -1.68121 3.04353 0
M  V30 20212 H 1853.1 -1.25261 3.7967 0
M  V30 20213 H 1854.54 -2.26901 3.58179 0
M  V30 20214 C 1853 -2.60663 2.13439 0
M  V30 20215 O 1853.53 -3.62731 1.72596 0
M  V30 20216 N 1851.74 -2.29194 1.78658 0
M  V30 20217 H 1851.29 -1.46233 2.1207 0
M  V30 20218 H 1851.24 -2.91371 1.18111 0
M  V30 20219 N 1855.02 -1.57465 0.0651956 0
M  V30 20220 C 1855.96 -2.12345 -0.904345 0
M  V30 20221 C 1856.93 -1.03429 -1.29968 0
M  V30 20222 O 1858.12 -1.31055 -1.38669 0
M  V30 20223 C 1855.26 -2.68423 -2.16895 0
M  V30 20224 C 1854.37 -3.91472 -1.82684 0
M  V30 20225 C 1853.51 -4.35816 -3.03706 0
M  V30 20226 C 1852.54 -5.5153 -2.65482 0
M  V30 20227 N 1851.68 -5.90863 -3.79242 0
M  V30 20228 H 1856.52 -2.94889 -0.429468 0
M  V30 20229 H 1854.06 -1.45729 -0.200344 0
M  V30 20230 H 1856.02 -2.99041 -2.90913 0
M  V30 20231 H 1854.65 -1.88654 -2.61934 0
M  V30 20232 H 1853.7 -3.67357 -0.987564 0
M  V30 20233 H 1855.01 -4.75536 -1.50557 0
M  V30 20234 H 1854.16 -4.68062 -3.86009 0
M  V30 20235 H 1852.9 -3.50593 -3.39022 0
M  V30 20236 H 1851.91 -5.18943 -1.81598 0
M  V30 20237 H 1853.13 -6.3848 -2.31343 0
M  V30 20238 H 1851.08 -5.08591 -4.14332 0
M  V30 20239 H 1851 -6.69651 -3.50861 0
M  V30 20240 H 1852.26 -6.27729 -4.62144 0
M  V30 20241 N 1856.49 0.20831 -1.56217 0
M  V30 20242 C 1857.44 1.2582 -1.93489 0
M  V30 20243 C 1858.41 1.45907 -0.793748 0
M  V30 20244 O 1859.6 1.59258 -1.05078 0
M  V30 20245 C 1856.74 2.60077 -2.26835 0
M  V30 20246 C 1855.85 2.47678 -3.53948 0
M  V30 20247 C 1854.98 3.74549 -3.76678 0
M  V30 20248 C 1854.02 3.56928 -4.97261 0
M  V30 20249 N 1853.16 4.75779 -5.16313 0
M  V30 20250 H 1858 0.933346 -2.83006 0
M  V30 20251 H 1855.54 0.449531 -1.40063 0
M  V30 20252 H 1857.49 3.38277 -2.44181 0
M  V30 20253 H 1856.12 2.90632 -1.40474 0
M  V30 20254 H 1855.18 1.60844 -3.44722 0
M  V30 20255 H 1856.49 2.30585 -4.42303 0
M  V30 20256 H 1855.64 4.61191 -3.94193 0
M  V30 20257 H 1854.38 3.94582 -2.86629 0
M  V30 20258 H 1853.39 2.6867 -4.79683 0
M  V30 20259 H 1854.61 3.38353 -5.88808 0
M  V30 20260 H 1852.56 4.96101 -4.29209 0
M  V30 20261 H 1852.47 4.61462 -5.98823 0
M  V30 20262 H 1853.74 5.6381 -5.38274 0
M  V30 20263 N 1857.97 1.50255 0.475528 0
M  V30 20264 C 1858.92 1.68794 1.57408 0
M  V30 20265 C 1859.89 0.529252 1.57442 0
M  V30 20266 O 1861.07 0.759301 1.75041 0
M  V30 20267 C 1858.21 1.78401 2.9541 0
M  V30 20268 C 1857.33 3.05742 3.05198 0
M  V30 20269 C 1856.46 3.06172 4.34088 0
M  V30 20270 C 1855.5 4.27985 4.37602 0
M  V30 20271 N 1854.64 4.26179 5.57957 0
M  V30 20272 H 1859.48 2.62583 1.40905 0
M  V30 20273 H 1857.01 1.30169 0.685152 0
M  V30 20274 H 1858.97 1.81952 3.75432 0
M  V30 20275 H 1857.6 0.880556 3.10558 0
M  V30 20276 H 1856.65 3.11683 2.18077 0
M  V30 20277 H 1857.97 3.95722 3.03654 0
M  V30 20278 H 1857.12 3.08427 5.22454 0
M  V30 20279 H 1855.86 2.14014 4.38234 0
M  V30 20280 H 1854.86 4.25947 3.47634 0
M  V30 20281 H 1856.09 5.21364 4.35151 0
M  V30 20282 H 1854.04 3.36873 5.62897 0
M  V30 20283 H 1853.95 5.09923 5.58135 0
M  V30 20284 H 1855.22 4.32574 6.4846 0
M  V30 20285 N 1859.45 -0.728395 1.39758 0
M  V30 20286 C 1860.7 -1.49028 1.37544 0
M  V30 20287 C 1861.03 -1.94182 -0.0265175 0
M  V30 20288 O 1860.3 -1.67257 -0.992737 0
M  V30 20289 C 1860.59 -2.72535 2.35365 0
M  V30 20290 C 1860.44 -2.33358 3.84531 0
M  V30 20291 C 1861.76 -3.74656 2.30914 0
M  V30 20292 H 1858.88 -0.540587 0.500934 0
M  V30 20293 H 1861.52 -0.832335 1.70799 0
M  V30 20294 H 1859.67 -3.28674 2.07137 0
M  V30 20295 H 1861.34 -1.828 4.23535 0
M  V30 20296 H 1859.58 -1.65508 4.00986 0
M  V30 20297 H 1860.26 -3.21832 4.48473 0
M  V30 20298 H 1862.73 -3.28117 2.55888 0
M  V30 20299 H 1861.61 -4.58729 3.01428 0
M  V30 20300 H 1861.87 -4.22047 1.31639 0
M  V30 20301 N 1860.93 -1.25042 -0.959279 0
M  V30 20302 C 1861.88 -1.0171 -2.04056 0
M  V30 20303 C 1862.86 0.0444009 -1.60839 0
M  V30 20304 O 1864.05 -0.170366 -1.76178 0
M  V30 20305 C 1861.18 -0.632842 -3.37417 0
M  V30 20306 C 1860.27 -1.73087 -3.87172 0
M  V30 20307 N 1860.66 -2.96517 -4.0977 0
M  V30 20308 C 1858.96 -1.61031 -4.15914 0
M  V30 20309 C 1859.66 -3.67756 -4.507 0
M  V30 20310 N 1858.63 -2.95355 -4.56362 0
M  V30 20311 H 1862.44 -1.95423 -2.19515 0
M  V30 20312 H 1859.95 -1.15293 -1.14374 0
M  V30 20313 H 1861.95 -0.446895 -4.14498 0
M  V30 20314 H 1860.61 0.297006 -3.23339 0
M  V30 20315 H 1861.62 -3.3261 -3.96977 0
M  V30 20316 H 1858.3 -0.749096 -4.10725 0
M  V30 20317 H 1859.69 -4.73679 -4.76527 0
M  V30 20318 N 1862.41 1.16121 -1.06553 0
M  V30 20319 C 1863.65 1.86991 -0.784989 0
M  V30 20320 C 1863.99 1.81645 0.686919 0
M  V30 20321 O 1863.26 1.23394 1.50347 0
M  V30 20322 C 1863.54 3.36448 -1.28355 0
M  V30 20323 C 1863.4 3.5047 -2.81941 0
M  V30 20324 C 1864.72 4.30933 -0.893561 0
M  V30 20325 H 1861.83 0.678978 -0.286633 0
M  V30 20326 H 1864.48 1.36475 -1.32192 0
M  V30 20327 H 1862.63 3.796 -0.826796 0
M  V30 20328 H 1864.3 3.16237 -3.35845 0
M  V30 20329 H 1862.54 2.92294 -3.20541 0
M  V30 20330 H 1863.21 4.55443 -3.11891 0
M  V30 20331 H 1865.69 3.95696 -1.287 0
M  V30 20332 H 1864.56 5.3401 -1.26984 0
M  V30 20333 H 1864.83 4.41642 0.201274 0
M  V30 20334 N 1863.88 0.848487 1.3281 0
M  V30 20335 C 1864.83 0.286636 2.29013 0
M  V30 20336 C 1865.8 -0.602944 1.5477 0
M  V30 20337 O 1866.99 -0.539169 1.83024 0
M  V30 20338 C 1864.13 -0.524193 3.41096 0
M  V30 20339 C 1863.24 0.390486 4.30232 0
M  V30 20340 C 1862.37 -0.432376 5.29437 0
M  V30 20341 C 1861.41 0.48009 6.10214 0
M  V30 20342 N 1860.55 -0.30522 7.01436 0
M  V30 20343 H 1865.39 1.1123 2.76463 0
M  V30 20344 H 1862.93 0.559956 1.36025 0
M  V30 20345 H 1864.89 -1.00987 4.04793 0
M  V30 20346 H 1863.52 -1.31474 2.94813 0
M  V30 20347 H 1862.57 0.994518 3.6717 0
M  V30 20348 H 1863.88 1.09103 4.86722 0
M  V30 20349 H 1863.03 -0.981471 5.98709 0
M  V30 20350 H 1861.77 -1.16631 4.73549 0
M  V30 20351 H 1860.78 1.04112 5.39853 0
M  V30 20352 H 1862 1.21254 6.68187 0
M  V30 20353 H 1859.95 -1.02236 6.47984 0
M  V30 20354 H 1859.87 0.336414 7.55251 0
M  V30 20355 H 1861.13 -0.836242 7.75001 0
M  V30 20356 N 1865.36 -1.4549 0.605832 0
M  V30 20357 C 1866.31 -2.32256 -0.126541 0
M  V30 20358 C 1867.3 -1.45865 -0.861381 0
M  V30 20359 O 1868.51 -1.62359 -0.777146 0
M  V30 20360 H 1864.89 -0.749629 -0.0596684 0
M  V30 20361 H 1866.86 -2.91809 0.623708 0
M  V30 20362 C 1865.61 -3.2945 -1.11165 0
M  V30 20363 H 1864.93 -3.9592 -0.555636 0
M  V30 20364 H 1866.37 -3.92894 -1.59406 0
M  V30 20365 C 1864.83 -2.56493 -2.18433 0
M  V30 20366 O 1865.36 -2.34501 -3.26147 0
M  V30 20367 N 1863.56 -2.16658 -1.93669 0
M  V30 20368 H 1863.11 -2.34744 -1.0608 0
M  V30 20369 H 1863.07 -1.68166 -2.65645 0
M  V30 20370 N 1866.84 -0.344893 -1.5378 0
M  V30 20371 C 1867.79 0.527275 -2.21819 0
M  V30 20372 C 1868.77 1.06502 -1.20607 0
M  V30 20373 O 1869.97 0.998502 -1.46147 0
M  V30 20374 C 1867.1 1.67703 -2.99551 0
M  V30 20375 C 1866.18 1.15316 -4.08121 0
M  V30 20376 N 1866.57 0.35061 -5.04583 0
M  V30 20377 C 1864.87 1.42992 -4.22456 0
M  V30 20378 C 1865.57 0.0661583 -5.81662 0
M  V30 20379 N 1864.55 0.658168 -5.39601 0
M  V30 20380 H 1868.35 -0.0929348 -2.93753 0
M  V30 20381 H 1865.86 -0.151827 -1.61689 0
M  V30 20382 H 1867.86 2.31383 -3.46796 0
M  V30 20383 H 1866.52 2.30051 -2.29144 0
M  V30 20384 H 1867.53 -0.0084236 -5.17899 0
M  V30 20385 H 1864.21 2.05769 -3.6327 0
M  V30 20386 H 1865.6 -0.581316 -6.69381 0
M  V30 20387 N 1868.32 1.57428 -0.0735454 0
M  V30 20388 C 1869.25 2.15849 0.890584 0
M  V30 20389 C 1870.23 1.086 1.3092 0
M  V30 20390 O 1871.41 1.36643 1.37994 0
M  V30 20391 C 1868.54 2.72153 2.15755 0
M  V30 20392 C 1867.5 3.84584 1.87827 0
M  V30 20393 C 1866.82 4.27498 3.21169 0
M  V30 20394 C 1868.12 5.08746 1.18217 0
M  V30 20395 H 1869.82 2.96663 0.403904 0
M  V30 20396 H 1867.36 1.42703 0.192836 0
M  V30 20397 H 1869.32 3.11668 2.83621 0
M  V30 20398 H 1868.04 1.88562 2.66668 0
M  V30 20399 H 1866.7 3.45575 1.22366 0
M  V30 20400 H 1866.35 3.40827 3.69927 0
M  V30 20401 H 1866.05 5.03288 3.03273 0
M  V30 20402 H 1867.57 4.69631 3.9023 0
M  V30 20403 H 1868.99 5.45566 1.76155 0
M  V30 20404 H 1867.38 5.89825 1.10573 0
M  V30 20405 H 1868.45 4.84631 0.161525 0
M  V30 20406 N 1869.8 -0.200022 1.56326 0
M  V30 20407 C 1871.03 -0.936144 1.84174 0
M  V30 20408 C 1871.43 -1.77564 0.653267 0
M  V30 20409 O 1870.78 -1.79569 -0.387368 0
M  V30 20410 C 1870.84 -1.88598 3.06057 0
M  V30 20411 C 1870.5 -1.22892 4.40167 0
M  V30 20412 C 1871.5 -0.608243 5.1633 0
M  V30 20413 C 1869.19 -1.23424 4.869 0
M  V30 20414 C 1871.18 -0.00166268 6.374 0
M  V30 20415 C 1868.87 -0.623827 6.07908 0
M  V30 20416 C 1869.86 -0.00861163 6.82999 0
M  V30 20417 O 1869.55 0.592252 8.01715 0
M  V30 20418 H 1869.28 -0.278889 0.615789 0
M  V30 20419 H 1871.84 -0.213764 2.04285 0
M  V30 20420 H 1870.07 -2.64793 2.81818 0
M  V30 20421 H 1871.76 -2.48948 3.20593 0
M  V30 20422 H 1872.52 -0.596302 4.8132 0
M  V30 20423 H 1868.4 -1.7025 4.28411 0
M  V30 20424 H 1871.95 0.479147 6.95953 0
M  V30 20425 H 1867.84 -0.633254 6.42386 0
M  V30 20426 H 1868.61 0.488674 8.1704 0
M  V30 20427 N 1871.27 -1.50505 -0.467553 0
M  V30 20428 C 1872.22 -1.70158 -1.58584 0
M  V30 20429 C 1873.22 -0.567469 -1.59613 0
M  V30 20430 O 1874.42 -0.748063 -1.63719 0
M  V30 20431 H 1870.8 -0.537137 -0.526296 0
M  V30 20432 H 1872.77 -2.63959 -1.39171 0
M  V30 20433 C 1871.52 -1.81617 -2.96497 0
M  V30 20434 H 1870.84 -2.68276 -2.96425 0
M  V30 20435 H 1872.28 -1.99393 -3.74191 0
M  V30 20436 C 1870.74 -0.56862 -3.32067 0
M  V30 20437 O 1871.27 0.29061 -4.00647 0
M  V30 20438 N 1869.48 -0.421597 -2.87526 0
M  V30 20439 H 1869.02 -1.12184 -2.31889 0
M  V30 20440 H 1868.98 0.411959 -3.11689 0
M  V30 20441 N 1872.75 0.720973 -1.40142 0
M  V30 20442 C 1873.66 1.86527 -1.42284 0
M  V30 20443 C 1874.68 1.71106 -0.316044 0
M  V30 20444 O 1875.85 1.93465 -0.55977 0
M  V30 20445 C 1872.92 3.2227 -1.27841 0
M  V30 20446 C 1871.98 3.49984 -2.48616 0
M  V30 20447 C 1871.21 4.7925 -2.34852 0
M  V30 20448 O 1871.44 5.53963 -1.35945 0
M  V30 20449 O 1870.37 5.07179 -3.24119 0
M  V30 20450 H 1874.2 1.87675 -2.38771 0
M  V30 20451 H 1871.78 0.870677 -1.21407 0
M  V30 20452 H 1873.66 4.03362 -1.21973 0
M  V30 20453 H 1872.34 3.21861 -0.344566 0
M  V30 20454 H 1871.25 2.68922 -2.60061 0
M  V30 20455 H 1872.58 3.55184 -3.40742 0
M  V30 20456 N 1874.23 1.25549 0.952634 0
M  V30 20457 C 1875.16 1.08592 2.06712 0
M  V30 20458 C 1876.14 -0.00560571 1.70099 0
M  V30 20459 O 1877.33 0.164299 1.93504 0
M  V30 20460 C 1874.46 0.705984 3.40049 0
M  V30 20461 C 1873.41 1.74797 3.90679 0
M  V30 20462 C 1872.74 1.22266 5.20533 0
M  V30 20463 C 1874.04 3.14717 4.16834 0
M  V30 20464 H 1875.73 2.01816 2.21157 0
M  V30 20465 H 1873.28 0.971723 1.06271 0
M  V30 20466 H 1875.23 0.57428 4.17469 0
M  V30 20467 H 1873.95 -0.261964 3.25548 0
M  V30 20468 H 1872.61 1.86815 3.1543 0
M  V30 20469 H 1872.26 0.244887 5.02404 0
M  V30 20470 H 1871.96 1.9191 5.55377 0
M  V30 20471 H 1873.48 1.10339 6.00548 0
M  V30 20472 H 1874.9 3.05842 4.84906 0
M  V30 20473 H 1873.3 3.81849 4.62938 0
M  V30 20474 H 1874.37 3.61629 3.23037 0
M  V30 20475 N 1875.71 -1.15554 1.07168 0
M  V30 20476 C 1876.95 -1.86572 0.794894 0
M  V30 20477 C 1877.29 -1.82007 -0.677276 0
M  V30 20478 O 1876.56 -1.2419 -1.4969 0
M  V30 20479 C 1876.85 -3.35762 1.30137 0
M  V30 20480 C 1876.7 -3.4897 2.83796 0
M  V30 20481 C 1878.02 -4.30453 0.916402 0
M  V30 20482 H 1875.14 -0.677448 0.29023 0
M  V30 20483 H 1877.78 -1.35772 1.32914 0
M  V30 20484 H 1875.93 -3.79156 0.846915 0
M  V30 20485 H 1877.6 -3.14452 3.37517 0
M  V30 20486 H 1875.84 -2.9059 3.22087 0
M  V30 20487 H 1876.51 -4.53782 3.14302 0
M  V30 20488 H 1878.99 -3.95008 1.30797 0
M  V30 20489 H 1877.87 -5.33329 1.29814 0
M  V30 20490 H 1878.13 -4.41742 -0.17785 0
M  V30 20491 N 1877.19 -0.855519 -1.32358 0
M  V30 20492 C 1878.46 -0.380575 -1.91862 0
M  V30 20493 C 1878.84 1.13593 -1.77932 0
M  V30 20494 O 1878.19 1.95797 -1.17796 0
M  V30 20495 C 1878.4 -0.845902 -3.38593 0
M  V30 20496 C 1879.75 -0.863586 -4.15725 0
M  V30 20497 O 1880.77 -0.790597 -3.47315 0
M  V30 20498 O 1879.63 -0.966658 -5.37883 0
M  V30 20499 H 1876.73 -0.111156 -0.819496 0
M  V30 20500 H 1879.27 -0.942476 -1.41122 0
M  V30 20501 H 1878.05 -1.88909 -3.42679 0
M  V30 20502 H 1877.67 -0.2615 -3.96739 0
M  V30 20503 N 1878.67 1.45167 -0.61354 0
M  V30 20504 C 1879.94 1.95553 -0.042781 0
M  V30 20505 C 1880.32 1.55588 1.42673 0
M  V30 20506 O 1879.67 0.821325 2.13229 0
M  V30 20507 C 1879.88 3.48124 -0.247141 0
M  V30 20508 C 1881.23 4.24398 -0.131068 0
M  V30 20509 O 1882.25 3.55757 -0.177576 0
M  V30 20510 O 1881.11 5.46496 -0.0211683 0
M  V30 20511 H 1878.21 0.826367 0.0323494 0
M  V30 20512 H 1880.75 1.55304 -0.684017 0
M  V30 20513 H 1879.52 3.70202 -1.26751 0
M  V30 20514 H 1879.15 3.95278 0.429074 0
M  V30 20515 N 1880.14 0.353044 1.53595 0
M  V30 20516 C 1881.09 -0.499326 2.25334 0
M  V30 20517 C 1882.06 -1.08781 1.25522 0
M  V30 20518 O 1883.25 -1.12265 1.54276 0
M  V30 20519 C 1880.39 -1.63955 3.03666 0
M  V30 20520 C 1879.5 -1.07745 4.18348 0
M  V30 20521 C 1878.63 -2.18575 4.84147 0
M  V30 20522 C 1877.67 -1.59765 5.90882 0
M  V30 20523 N 1876.81 -2.64376 6.50423 0
M  V30 20524 H 1881.65 0.118959 2.97762 0
M  V30 20525 H 1879.19 0.0704777 1.46931 0
M  V30 20526 H 1881.14 -2.31097 3.47347 0
M  V30 20527 H 1879.77 -2.22868 2.33516 0
M  V30 20528 H 1878.83 -0.296678 3.79241 0
M  V30 20529 H 1880.14 -0.607375 4.95088 0
M  V30 20530 H 1879.29 -2.93563 5.30948 0
M  V30 20531 H 1878.03 -2.68929 4.06852 0
M  V30 20532 H 1877.04 -0.832863 5.43455 0
M  V30 20533 H 1878.26 -1.10251 6.70091 0
M  V30 20534 H 1876.21 -3.13968 5.75986 0
M  V30 20535 H 1876.12 -2.22019 7.22664 0
M  V30 20536 H 1877.39 -3.39105 7.01875 0
M  V30 20537 N 1881.62 -1.57387 0.0818932 0
M  V30 20538 C 1882.9 -1.85297 -0.626447 0
M  V30 20539 C 1883.28 -0.976281 -1.87168 0
M  V30 20540 O 1882.63 -0.0451999 -2.28455 0
M  V30 20541 C 1882.84 -3.35695 -0.954461 0
M  V30 20542 C 1884.18 -4.03442 -1.32361 0
M  V30 20543 O 1885.21 -3.40499 -1.04588 0
M  V30 20544 O 1884.07 -5.1448 -1.84317 0
M  V30 20545 H 1881.16 -0.765835 -0.31213 0
M  V30 20546 H 1883.71 -1.69319 0.11359 0
M  V30 20547 H 1882.48 -3.91237 -0.0704846 0
M  V30 20548 H 1882.1 -3.56971 -1.75092 0
M  V30 20549 N 1883.1 0.191729 -1.56429 0
M  V30 20550 C 1884.33 0.927708 -1.84936 0
M  V30 20551 C 1884.74 1.76708 -0.664809 0
M  V30 20552 O 1884.1 1.78783 0.366436 0
M  V30 20553 C 1884.15 1.82113 -3.12277 0
M  V30 20554 O 1883.87 1.01564 -4.26165 0
M  V30 20555 C 1885.37 2.6685 -3.53986 0
M  V30 20556 H 1882.59 0.270514 -0.614055 0
M  V30 20557 H 1885.14 0.197968 -2.0354 0
M  V30 20558 H 1883.29 2.50445 -2.9556 0
M  V30 20559 H 1883.71 1.62478 -4.987 0
M  V30 20560 H 1885.18 3.25189 -4.46045 0
M  V30 20561 H 1885.66 3.40725 -2.77134 0
M  V30 20562 H 1886.26 2.03884 -3.73245 0
M  V30 20563 N 1884.58 1.50751 0.459565 0
M  V30 20564 C 1885.51 1.66621 1.57385 0
M  V30 20565 C 1886.52 0.547358 1.53323 0
M  V30 20566 O 1887.71 0.820941 1.58502 0
M  V30 20567 C 1884.81 1.64524 2.96285 0
M  V30 20568 C 1883.98 2.92631 3.25093 0
M  V30 20569 C 1883.04 2.83021 4.43605 0
M  V30 20570 O 1882.07 3.56977 4.43347 0
M  V30 20571 N 1883.27 1.97358 5.45921 0
M  V30 20572 H 1886.04 2.62738 1.44184 0
M  V30 20573 H 1883.6 1.48359 0.64817 0
M  V30 20574 H 1885.59 1.55693 3.73553 0
M  V30 20575 H 1884.16 0.760945 3.03197 0
M  V30 20576 H 1883.38 3.15502 2.36331 0
M  V30 20577 H 1884.67 3.77477 3.41157 0
M  V30 20578 H 1884.07 1.36608 5.48958 0
M  V30 20579 H 1882.62 1.94422 6.22128 0
M  V30 20580 N 1886.06 -0.713531 1.40522 0
M  V30 20581 C 1886.99 -1.8404 1.43707 0
M  V30 20582 C 1887.97 -1.67474 0.297751 0
M  V30 20583 O 1889.15 -1.87474 0.506662 0
M  V30 20584 C 1886.28 -3.22014 1.30094 0
M  V30 20585 C 1885.24 -3.53255 2.4165 0
M  V30 20586 C 1884.56 -4.90395 2.13113 0
M  V30 20587 C 1885.86 -3.54045 3.83991 0
M  V30 20588 H 1887.56 -1.81632 2.38013 0
M  V30 20589 H 1885.1 -0.872437 1.14562 0
M  V30 20590 H 1887.05 -4.00541 1.30938 0
M  V30 20591 H 1885.78 -3.25002 0.322648 0
M  V30 20592 H 1884.44 -2.77069 2.40059 0
M  V30 20593 H 1884.09 -4.89988 1.13669 0
M  V30 20594 H 1883.79 -5.12264 2.87853 0
M  V30 20595 H 1885.31 -5.71254 2.15642 0
M  V30 20596 H 1886.72 -4.22609 3.87395 0
M  V30 20597 H 1885.12 -3.87441 4.58268 0
M  V30 20598 H 1886.19 -2.53387 4.13428 0
M  V30 20599 N 1887.53 -1.26053 -0.945962 0
M  V30 20600 C 1888.48 -1.03869 -2.02966 0
M  V30 20601 C 1889.47 0.0273393 -1.60877 0
M  V30 20602 O 1890.66 -0.189042 -1.75988 0
M  V30 20603 C 1887.79 -0.668594 -3.36726 0
M  V30 20604 C 1886.87 -1.77183 -3.85314 0
M  V30 20605 N 1887.27 -3.00846 -4.06602 0
M  V30 20606 C 1885.56 -1.65434 -4.14183 0
M  V30 20607 C 1886.26 -3.72516 -4.46774 0
M  V30 20608 N 1885.24 -3.00179 -4.53204 0
M  V30 20609 H 1889.04 -1.9774 -2.1743 0
M  V30 20610 H 1886.56 -1.165 -1.13144 0
M  V30 20611 H 1888.55 -0.490833 -4.14001 0
M  V30 20612 H 1887.21 0.262695 -3.23636 0
M  V30 20613 H 1888.22 -3.36802 -3.93427 0
M  V30 20614 H 1884.9 -0.792617 -4.09907 0
M  V30 20615 H 1886.29 -4.78707 -4.71476 0
M  V30 20616 N 1889.01 1.14984 -1.07779 0
M  V30 20617 C 1889.96 2.19864 -0.702018 0
M  V30 20618 C 1890.93 1.63206 0.308695 0
M  V30 20619 O 1892.11 1.8981 0.194157 0
M  V30 20620 C 1889.25 3.44923 -0.110634 0
M  V30 20621 C 1888.37 4.1576 -1.17335 0
M  V30 20622 C 1887.5 5.28381 -0.546508 0
M  V30 20623 C 1886.54 5.91042 -1.59171 0
M  V30 20624 N 1885.68 6.95126 -0.987129 0
M  V30 20625 H 1890.52 2.51358 -1.60073 0
M  V30 20626 H 1888.05 1.2344 -0.80006 0
M  V30 20627 H 1890.01 4.16451 0.249903 0
M  V30 20628 H 1888.64 3.13932 0.751416 0
M  V30 20629 H 1887.69 3.42685 -1.6514 0
M  V30 20630 H 1889.01 4.58436 -1.96566 0
M  V30 20631 H 1888.16 6.06552 -0.133852 0
M  V30 20632 H 1886.9 4.8691 0.277527 0
M  V30 20633 H 1885.9 5.1158 -2.01409 0
M  V30 20634 H 1887.13 6.3459 -2.4181 0
M  V30 20635 H 1885.08 6.55742 -0.184076 0
M  V30 20636 H 1884.99 7.36253 -1.71662 0
M  V30 20637 H 1886.26 7.77186 -0.60012 0
M  V30 20638 N 1890.49 0.862526 1.31902 0
M  V30 20639 C 1891.4 0.316029 2.32462 0
M  V30 20640 C 1892.42 -0.570217 1.64391 0
M  V30 20641 O 1893.59 -0.46871 1.9587 0
M  V30 20642 C 1890.66 -0.479949 3.43362 0
M  V30 20643 C 1889.72 0.43337 4.27107 0
M  V30 20644 C 1888.95 -0.324714 5.32711 0
M  V30 20645 O 1889.17 -1.55373 5.48831 0
M  V30 20646 O 1888.11 0.313571 6.01083 0
M  V30 20647 H 1891.93 1.14935 2.81111 0
M  V30 20648 H 1889.52 0.625683 1.35667 0
M  V30 20649 H 1891.4 -0.931458 4.10977 0
M  V30 20650 H 1890.08 -1.28994 2.96888 0
M  V30 20651 H 1888.98 0.933222 3.62273 0
M  V30 20652 H 1890.32 1.20876 4.77127 0
M  V30 20653 N 1891.97 -1.4484 0.62123 0
M  V30 20654 C 1892.92 -2.32377 -0.1019 0
M  V30 20655 C 1893.91 -1.4677 -0.845862 0
M  V30 20656 O 1895.12 -1.63174 -0.759882 0
M  V30 20657 H 1891.49 -0.75022 -0.0517143 0
M  V30 20658 H 1893.46 -2.91131 0.654623 0
M  V30 20659 C 1892.21 -3.30611 -1.07665 0
M  V30 20660 H 1891.53 -3.96487 -0.513612 0
M  V30 20661 H 1892.97 -3.94563 -1.5523 0
M  V30 20662 C 1891.43 -2.58795 -2.157 0
M  V30 20663 O 1891.96 -2.37947 -3.23642 0
M  V30 20664 N 1890.17 -2.187 -1.9136 0
M  V30 20665 H 1889.72 -2.35856 -1.03584 0
M  V30 20666 H 1889.67 -1.70975 -2.63847 0
M  V30 20667 N 1893.45 -0.361184 -1.53405 0
M  V30 20668 C 1894.39 0.502532 -2.27107 0
M  V30 20669 C 1895.39 1.08711 -1.29916 0
M  V30 20670 O 1896.59 1.03082 -1.47561 0
M  V30 20671 H 1892.97 0.180773 -0.729949 0
M  V30 20672 H 1894.94 -0.140891 -2.98067 0
M  V30 20673 C 1893.69 1.63258 -3.06989 0
M  V30 20674 H 1893.01 1.19205 -3.81615 0
M  V30 20675 H 1894.45 2.21174 -3.61743 0
M  V30 20676 C 1892.91 2.57234 -2.17559 0
M  V30 20677 O 1893.44 3.59939 -1.78345 0
M  V30 20678 N 1891.65 2.26322 -1.82282 0
M  V30 20679 H 1891.19 1.4284 -2.1437 0
M  V30 20680 H 1891.15 2.89455 -1.22731 0
M  V30 20681 N 1894.92 1.57341 -0.0902386 0
M  V30 20682 C 1895.87 2.14982 0.887997 0
M  V30 20683 C 1896.87 1.09142 1.29555 0
M  V30 20684 O 1898.07 1.27494 1.27064 0
M  V30 20685 H 1894.45 0.687648 0.304376 0
M  V30 20686 H 1896.42 2.96008 0.377094 0
M  V30 20687 C 1895.17 2.74101 2.13925 0
M  V30 20688 H 1894.49 3.55226 1.83452 0
M  V30 20689 H 1895.93 3.18007 2.80442 0
M  V30 20690 C 1894.39 1.69757 2.91005 0
M  V30 20691 O 1894.92 1.13359 3.85373 0
M  V30 20692 N 1893.13 1.40362 2.54454 0
M  V30 20693 H 1892.67 1.86414 1.77785 0
M  V30 20694 H 1892.63 0.707837 3.06328 0
M  V30 20695 N 1896.4 -0.183431 1.56529 0
M  V30 20696 C 1897.35 -1.24666 1.9637 0
M  V30 20697 C 1898.34 -1.46489 0.850728 0
M  V30 20698 O 1899.55 -1.47212 1.03579 0
M  V30 20699 H 1895.93 -0.418792 0.624594 0
M  V30 20700 H 1897.9 -0.883697 2.85015 0
M  V30 20701 C 1896.65 -2.58135 2.32942 0
M  V30 20702 H 1895.97 -2.42162 3.18116 0
M  V30 20703 H 1897.41 -3.31247 2.64672 0
M  V30 20704 C 1895.87 -3.15993 1.16832 0
M  V30 20705 O 1896.4 -3.99177 0.449531 0
M  V30 20706 N 1894.6 -2.74907 0.942059 0
M  V30 20707 H 1894.15 -2.07365 1.52832 0
M  V30 20708 H 1894.11 -3.13956 0.167 0
M  V30 20709 N 1897.88 -1.50992 -0.451564 0
M  V30 20710 C 1898.83 -1.71831 -1.5677 0
M  V30 20711 C 1899.82 -0.584366 -1.59002 0
M  V30 20712 O 1901.03 -0.765385 -1.62917 0
M  V30 20713 H 1897.4 -0.542689 -0.52057 0
M  V30 20714 H 1899.37 -2.6542 -1.36363 0
M  V30 20715 C 1898.12 -1.84752 -2.94554 0
M  V30 20716 H 1897.45 -2.71405 -2.93563 0
M  V30 20717 H 1898.89 -2.0335 -3.72055 0
M  V30 20718 C 1897.35 -0.603808 -3.31445 0
M  V30 20719 O 1897.88 0.248099 -4.00933 0
M  V30 20720 N 1896.08 -0.452069 -2.87062 0
M  V30 20721 H 1895.63 -1.14638 -2.30686 0
M  V30 20722 H 1895.59 0.378877 -3.12109 0
M  V30 20723 N 1899.36 0.706069 -1.40899 0
M  V30 20724 C 1900.31 1.84143 -1.42106 0
M  V30 20725 C 1901.3 1.66716 -0.300367 0
M  V30 20726 O 1902.51 1.73705 -0.471879 0
M  V30 20727 H 1898.88 0.606636 -0.444406 0
M  V30 20728 H 1900.85 1.80241 -2.37815 0
M  V30 20729 C 1899.6 3.22084 -1.30986 0
M  V30 20730 H 1898.92 3.36105 -2.16503 0
M  V30 20731 H 1900.36 4.01634 -1.35891 0
M  V30 20732 C 1898.82 3.36893 -0.0210718 0
M  V30 20733 O 1899.35 3.90589 0.938242 0
M  V30 20734 N 1897.56 2.90554 0.0515652 0
M  V30 20735 H 1897.11 2.47045 -0.729833 0
M  V30 20736 H 1897.06 3.00842 0.91332 0
M  V30 20737 N 1900.84 1.26553 0.939264 0
M  V30 20738 C 1901.77 1.02597 2.03836 0
M  V30 20739 C 1902.75 -0.0498925 1.62523 0
M  V30 20740 O 1903.93 0.0929136 1.88271 0
M  V30 20741 C 1901.06 0.554021 3.34138 0
M  V30 20742 C 1900.1 1.62273 3.94423 0
M  V30 20743 S 1900.94 3.21219 4.28461 0
M  V30 20744 C 1902.09 2.75796 5.6186 0
M  V30 20745 H 1902.33 1.95657 2.23843 0
M  V30 20746 H 1899.86 1.10254 1.0809 0
M  V30 20747 H 1901.82 0.288389 4.09486 0
M  V30 20748 H 1900.48 -0.356328 3.12072 0
M  V30 20749 H 1899.67 1.24355 4.88418 0
M  V30 20750 H 1899.27 1.83984 3.25616 0
M  V30 20751 H 1901.57 2.20379 6.40655 0
M  V30 20752 H 1902.51 3.6849 6.04666 0
M  V30 20753 H 1902.92 2.15301 5.21829 0
M  V30 20754 N 1902.31 -1.14411 1.08387 0
M  V30 20755 C 1903.26 -2.21558 0.708165 0
M  V30 20756 C 1904.26 -1.66969 -0.285982 0
M  V30 20757 O 1905.46 -1.79386 -0.14857 0
M  V30 20758 H 1901.84 -0.721799 0.210974 0
M  V30 20759 H 1903.81 -2.50518 1.62122 0
M  V30 20760 C 1902.56 -3.47444 0.13337 0
M  V30 20761 H 1901.88 -3.89779 0.889513 0
M  V30 20762 H 1903.32 -4.23901 -0.0917154 0
M  V30 20763 C 1901.78 -3.1743 -1.1287 0
M  V30 20764 O 1902.31 -3.35205 -2.2136 0
M  V30 20765 N 1900.52 -2.71391 -1.03901 0
M  V30 20766 H 1900.06 -2.57127 -0.156094 0
M  V30 20767 H 1900.02 -2.51684 -1.88422 0
M  V30 20768 N 1903.79 -0.869509 -1.31443 0
M  V30 20769 C 1905.02 -0.493849 -2.01435 0
M  V30 20770 C 1905.44 0.906049 -1.6484 0
M  V30 20771 O 1904.8 1.59777 -0.856794 0
M  V30 20772 C 1904.85 -0.657723 -3.54551 0
M  V30 20773 O 1903.95 0.303155 -4.11284 0
M  V30 20774 H 1903.29 -0.196494 -0.63426 0
M  V30 20775 H 1905.82 -1.1728 -1.6765 0
M  V30 20776 H 1905.83 -0.550841 -4.04264 0
M  V30 20777 H 1904.51 -1.67848 -3.80526 0
M  V30 20778 H 1903.09 0.151268 -3.72593 0
M  V30 20779 N 1905.27 1.44508 -0.628902 0
M  V30 20780 C 1906.52 2.01667 -0.13224 0
M  V30 20781 C 1906.84 1.49706 1.24953 0
M  V30 20782 O 1906.11 0.699769 1.82976 0
M  V30 20783 H 1904.69 0.745589 -0.0458966 0
M  V30 20784 H 1907.35 1.77037 -0.815102 0
M  V30 20785 H 1906.45 3.11945 -0.0982328 0
M  V30 20786 N 1906.75 0.369315 1.53212 0
M  V30 20787 C 1907.7 -0.490481 2.2737 0
M  V30 20788 C 1908.69 -1.08021 1.30491 0
M  V30 20789 O 1909.9 -1.02298 1.48105 0
M  V30 20790 H 1906.27 -0.176899 0.730897 0
M  V30 20791 H 1908.24 0.156696 2.97988 0
M  V30 20792 C 1906.99 -1.61628 3.0785 0
M  V30 20793 H 1906.32 -1.1718 3.82242 0
M  V30 20794 H 1907.76 -2.19252 3.62911 0
M  V30 20795 C 1906.21 -2.56077 2.18921 0
M  V30 20796 O 1906.74 -3.58988 1.80251 0
M  V30 20797 N 1904.95 -2.25352 1.83479 0
M  V30 20798 H 1904.5 -1.41701 2.15124 0
M  V30 20799 H 1904.46 -2.888 1.24264 0
M  V30 20800 N 1908.23 -1.57291 0.0985816 0
M  V30 20801 C 1909.47 -1.94767 -0.56514 0
M  V30 20802 C 1909.81 -0.980722 -1.67617 0
M  V30 20803 O 1909.08 -0.0143714 -1.94495 0
M  V30 20804 C 1909.36 -3.42336 -1.11704 0
M  V30 20805 C 1909.22 -4.49799 -0.0108284 0
M  V30 20806 C 1910.54 -3.91296 -2.01434 0
M  V30 20807 H 1907.66 -0.708215 -0.203963 0
M  V30 20808 H 1910.3 -1.89238 0.169998 0
M  V30 20809 H 1908.45 -3.47179 -1.74354 0
M  V30 20810 H 1910.12 -4.57066 0.623574 0
M  V30 20811 H 1908.36 -4.28825 0.655093 0
M  V30 20812 H 1909.03 -5.50261 -0.437868 0
M  V30 20813 H 1911.51 -3.88628 -1.48685 0
M  V30 20814 H 1910.39 -4.9511 -2.36975 0
M  V30 20815 H 1910.65 -3.30792 -2.93307 0
M  V30 20816 N 1909.71 0.175127 -1.56624 0
M  V30 20817 C 1910.62 1.23691 -1.99343 0
M  V30 20818 C 1911.63 1.48662 -0.904197 0
M  V30 20819 O 1912.81 1.60885 -1.21153 0
M  V30 20820 C 1909.87 2.55689 -2.34145 0
M  V30 20821 C 1908.93 2.38614 -3.56878 0
M  V30 20822 C 1908.17 3.64318 -3.9001 0
M  V30 20823 O 1908.39 4.69335 -3.24162 0
M  V30 20824 O 1907.32 3.58655 -4.83373 0
M  V30 20825 H 1911.15 0.904314 -2.89924 0
M  V30 20826 H 1908.73 0.381697 -1.44442 0
M  V30 20827 H 1910.62 3.33562 -2.57516 0
M  V30 20828 H 1909.29 2.88535 -1.46728 0
M  V30 20829 H 1908.2 1.58786 -3.3873 0
M  V30 20830 H 1909.53 2.10694 -4.44825 0
M  V30 20831 N 1911.18 1.5123 0.44355 0
M  V30 20832 C 1912.13 1.7266 1.55857 0
M  V30 20833 C 1913.13 0.59279 1.5869 0
M  V30 20834 O 1914.33 0.774014 1.62509 0
M  V30 20835 H 1910.71 0.545442 0.517684 0
M  V30 20836 H 1912.68 2.66139 1.34954 0
M  V30 20837 C 1911.43 1.86311 2.9357 0
M  V30 20838 H 1910.75 2.72958 2.9212 0
M  V30 20839 H 1912.19 2.0532 3.70971 0
M  V30 20840 C 1910.65 0.621377 3.3112 0
M  V30 20841 O 1911.18 -0.226833 4.01059 0
M  V30 20842 N 1909.38 0.467286 2.86818 0
M  V30 20843 H 1908.93 1.15859 2.30075 0
M  V30 20844 H 1908.89 -0.36232 3.12305 0
M  V30 20845 N 1912.66 -0.698586 1.41271 0
M  V30 20846 C 1913.61 -1.81256 1.42881 0
M  V30 20847 C 1914.58 -1.63662 0.283562 0
M  V30 20848 O 1915.76 -1.84555 0.48416 0
M  V30 20849 C 1912.9 -3.19113 1.31381 0
M  V30 20850 C 1912.02 -3.4816 2.55751 0
M  V30 20851 C 1911.15 -4.75615 2.36566 0
M  V30 20852 C 1910.19 -4.9762 3.56427 0
M  V30 20853 N 1909.33 -6.16299 3.36332 0
M  V30 20854 H 1914.17 -1.79214 2.38089 0
M  V30 20855 H 1911.7 -0.875213 1.1823 0
M  V30 20856 H 1913.66 -3.98744 1.22716 0
M  V30 20857 H 1912.29 -3.20339 0.397831 0
M  V30 20858 H 1911.34 -2.62957 2.74878 0
M  V30 20859 H 1912.66 -3.60323 3.44918 0
M  V30 20860 H 1911.81 -5.63295 2.25352 0
M  V30 20861 H 1910.55 -4.65693 1.44851 0
M  V30 20862 H 1909.55 -4.0839 3.681 0
M  V30 20863 H 1910.78 -5.09404 4.49093 0
M  V30 20864 H 1908.73 -6.07595 2.47314 0
M  V30 20865 H 1908.64 -6.29216 4.19074 0
M  V30 20866 H 1909.91 -7.06722 3.28884 0
M  V30 20867 N 1914.14 -1.27049 -0.93254 0
M  V30 20868 C 1915.38 -1.14333 -1.69432 0
M  V30 20869 C 1915.74 0.306622 -1.89536 0
M  V30 20870 O 1916.94 0.556096 -2.62985 0
M  V30 20871 C 1915.22 -1.90032 -3.02692 0
M  V30 20872 S 1916.77 -1.93472 -3.93845 0
M  V30 20873 H 1913.59 -0.408249 -0.582111 0
M  V30 20874 H 1916.19 -1.6089 -1.11061 0
M  V30 20875 H 1914.9 -2.94579 -2.85748 0
M  V30 20876 H 1914.43 -1.4395 -3.66117 0
M  V30 20877 H 1916.44 -1.02765 -4.85442 0
M  V30 20878 N 1915.62 1.13835 -1.08993 0
M  V30 20879 C 1916.56 2.19107 -0.725298 0
M  V30 20880 C 1917.53 1.63524 0.291368 0
M  V30 20881 O 1918.72 1.90005 0.174014 0
M  V30 20882 C 1915.86 3.44786 -0.147212 0
M  V30 20883 C 1914.97 4.14492 -1.21738 0
M  V30 20884 C 1914.11 5.27772 -0.602519 0
M  V30 20885 C 1913.15 5.89321 -1.65431 0
M  V30 20886 N 1912.28 6.9404 -1.0608 0
M  V30 20887 H 1917.12 2.49646 -1.6273 0
M  V30 20888 H 1914.66 1.22585 -0.813108 0
M  V30 20889 H 1916.62 4.16692 0.205719 0
M  V30 20890 H 1915.25 3.14712 0.718077 0
M  V30 20891 H 1914.3 3.40914 -1.68766 0
M  V30 20892 H 1915.61 4.56325 -2.01417 0
M  V30 20893 H 1914.77 6.06376 -0.198177 0
M  V30 20894 H 1913.51 4.87177 0.225868 0
M  V30 20895 H 1912.51 5.09415 -2.06824 0
M  V30 20896 H 1913.74 6.3199 -2.48528 0
M  V30 20897 H 1911.68 6.5551 -0.253616 0
M  V30 20898 H 1911.6 7.34391 -1.79461 0
M  V30 20899 H 1912.87 7.76506 -0.682517 0
M  V30 20900 N 1917.1 0.876467 1.3098 0
M  V30 20901 C 1918.03 0.352925 2.30817 0
M  V30 20902 C 1919.01 -0.559675 1.60629 0
M  V30 20903 O 1920.19 -0.475326 1.88293 0
M  V30 20904 C 1917.32 -0.440827 3.44491 0
M  V30 20905 C 1916.28 0.379253 4.26316 0
M  V30 20906 C 1915.6 -0.540582 5.3196 0
M  V30 20907 C 1916.9 1.61682 4.96645 0
M  V30 20908 H 1918.6 1.18719 2.74857 0
M  V30 20909 H 1916.14 0.572316 1.32138 0
M  V30 20910 H 1918.09 -0.817661 4.13391 0
M  V30 20911 H 1916.82 -1.30866 2.99235 0
M  V30 20912 H 1915.48 0.738117 3.59092 0
M  V30 20913 H 1915.13 -1.40588 4.82953 0
M  V30 20914 H 1914.83 0.00427133 5.876 0
M  V30 20915 H 1916.35 -0.914118 6.03719 0
M  V30 20916 H 1917.76 1.31105 5.58108 0
M  V30 20917 H 1916.16 2.10123 5.62111 0
M  V30 20918 H 1917.23 2.36602 4.23258 0
M  V30 20919 N 1918.57 -1.44173 0.636557 0
M  V30 20920 C 1919.52 -2.32472 -0.077248 0
M  V30 20921 C 1920.52 -1.47659 -0.830248 0
M  V30 20922 O 1921.72 -1.63971 -0.742533 0
M  V30 20923 H 1918.1 -0.750726 -0.0437543 0
M  V30 20924 H 1920.07 -2.9042 0.685465 0
M  V30 20925 C 1918.82 -3.31734 -1.04152 0
M  V30 20926 H 1918.14 -3.9701 -0.471531 0
M  V30 20927 H 1919.58 -3.96187 -1.51036 0
M  V30 20928 C 1918.04 -2.61069 -2.12943 0
M  V30 20929 O 1918.57 -2.41366 -3.211 0
M  V30 20930 N 1916.77 -2.20717 -1.8903 0
M  V30 20931 H 1916.32 -2.36941 -1.01077 0
M  V30 20932 H 1916.28 -1.73763 -2.62018 0
M  V30 20933 N 1920.05 -0.377435 -1.53014 0
M  V30 20934 C 1921 0.463415 -2.261 0
M  V30 20935 C 1921.97 1.06771 -1.27237 0
M  V30 20936 O 1923.15 1.09797 -1.56043 0
M  V30 20937 C 1920.29 1.59103 -3.06236 0
M  V30 20938 C 1919.41 1.01076 -4.20009 0
M  V30 20939 C 1918.54 2.10845 -4.87563 0
M  V30 20940 C 1917.58 1.50345 -5.93349 0
M  V30 20941 N 1916.72 2.53995 -6.54546 0
M  V30 20942 H 1921.56 -0.166315 -2.97536 0
M  V30 20943 H 1919.09 -0.0938442 -1.468 0
M  V30 20944 H 1921.05 2.25542 -3.5098 0
M  V30 20945 H 1919.68 2.19125 -2.37032 0
M  V30 20946 H 1918.73 0.236306 -3.79665 0
M  V30 20947 H 1920.05 0.528534 -4.95992 0
M  V30 20948 H 1919.2 2.85079 -5.35551 0
M  V30 20949 H 1917.94 2.62423 -4.11079 0
M  V30 20950 H 1916.94 0.746299 -5.44711 0
M  V30 20951 H 1918.17 0.995763 -6.7176 0
M  V30 20952 H 1916.12 3.04765 -5.80908 0
M  V30 20953 H 1916.03 2.10494 -7.26105 0
M  V30 20954 H 1917.3 3.27896 -7.07181 0
M  V30 20955 N 1921.53 1.57237 -0.106922 0
M  V30 20956 C 1922.44 2.18202 0.861685 0
M  V30 20957 C 1923.46 1.15476 1.30159 0
M  V30 20958 O 1924.63 1.47896 1.36707 0
M  V30 20959 C 1921.7 2.7598 2.09847 0
M  V30 20960 C 1920.76 3.93702 1.71164 0
M  V30 20961 C 1919.99 4.48716 2.88946 0
M  V30 20962 O 1920.21 4.02645 4.04021 0
M  V30 20963 O 1919.15 5.39573 2.66729 0
M  V30 20964 H 1922.97 3.01402 0.372924 0
M  V30 20965 H 1920.56 1.48933 0.118058 0
M  V30 20966 H 1922.44 3.12861 2.82305 0
M  V30 20967 H 1921.12 1.9582 2.57753 0
M  V30 20968 H 1920.02 3.61613 0.958499 0
M  V30 20969 H 1921.36 4.75262 1.28011 0
M  V30 20970 N 1923.01 -0.166818 1.56715 0
M  V30 20971 C 1924.23 -0.902208 1.86748 0
M  V30 20972 C 1924.66 -1.74838 0.693767 0
M  V30 20973 O 1924.02 -1.77749 -0.35708 0
M  V30 20974 C 1924.06 -1.75107 3.1523 0
M  V30 20975 O 1923.17 -2.85319 2.9777 0
M  V30 20976 H 1922.51 -0.252474 0.614128 0
M  V30 20977 H 1925.04 -0.163603 2.03945 0
M  V30 20978 H 1925.05 -2.15009 3.46749 0
M  V30 20979 H 1923.72 -1.12955 4.00267 0
M  V30 20980 H 1922.3 -2.48967 2.77615 0
M  V30 20981 N 1924.49 -1.51463 -0.435524 0
M  V30 20982 C 1925.72 -1.67787 -1.20544 0
M  V30 20983 C 1926.12 -0.375521 -1.85436 0
M  V30 20984 O 1925.47 0.656051 -1.71586 0
M  V30 20985 C 1925.53 -2.73801 -2.32966 0
M  V30 20986 C 1925.19 -4.16346 -1.88427 0
M  V30 20987 C 1926.19 -5.01066 -1.38669 0
M  V30 20988 C 1923.88 -4.62455 -1.96063 0
M  V30 20989 C 1925.87 -6.29955 -0.971368 0
M  V30 20990 C 1923.56 -5.9134 -1.54142 0
M  V30 20991 C 1924.55 -6.74918 -1.04761 0
M  V30 20992 O 1924.24 -8.01393 -0.634352 0
M  V30 20993 H 1923.97 -0.566192 -0.369328 0
M  V30 20994 H 1926.53 -1.98654 -0.522069 0
M  V30 20995 H 1924.76 -2.38253 -3.04586 0
M  V30 20996 H 1926.45 -2.78987 -2.94824 0
M  V30 20997 H 1927.21 -4.66645 -1.32163 0
M  V30 20998 H 1923.09 -3.97523 -2.33445 0
M  V30 20999 H 1926.64 -6.95141 -0.585236 0
M  V30 21000 H 1922.53 -6.25274 -1.60319 0
M  V30 21001 H 1923.3 -8.14964 -0.760039 0
M  V30 21002 N 1925.96 0.691085 -1.4164 0
M  V30 21003 C 1927.21 1.44828 -1.40959 0
M  V30 21004 C 1927.53 1.94988 -0.0211789 0
M  V30 21005 O 1926.8 1.71999 0.937714 0
M  V30 21006 H 1925.38 0.53739 -0.518865 0
M  V30 21007 H 1928.05 0.817677 -1.76918 0
M  V30 21008 H 1927.14 2.30926 -2.09952 0
M  V30 21009 N 1927.44 1.27542 0.925789 0
M  V30 21010 C 1928.67 1.16641 1.70524 0
M  V30 21011 C 1929.08 -0.279149 1.87129 0
M  V30 21012 O 1928.42 -1.20171 1.38941 0
M  V30 21013 C 1928.49 1.77978 3.12352 0
M  V30 21014 C 1928.15 3.27168 3.19077 0
M  V30 21015 C 1929.15 4.23775 3.01182 0
M  V30 21016 C 1926.83 3.67911 3.41975 0
M  V30 21017 C 1928.83 5.59102 3.06077 0
M  V30 21018 C 1926.51 5.03367 3.46504 0
M  V30 21019 C 1927.51 5.98773 3.28573 0
M  V30 21020 O 1927.2 7.3176 3.3284 0
M  V30 21021 H 1926.93 0.406366 0.540225 0
M  V30 21022 H 1929.48 1.68956 1.16803 0
M  V30 21023 H 1927.71 1.20143 3.67563 0
M  V30 21024 H 1929.4 1.61765 3.72273 0
M  V30 21025 H 1930.17 3.93635 2.83331 0
M  V30 21026 H 1926.05 2.94125 3.54981 0
M  V30 21027 H 1929.59 6.33547 2.92 0
M  V30 21028 H 1925.49 5.33162 3.63879 0
M  V30 21029 H 1926.26 7.40233 3.49282 0
M  V30 21030 N 1928.92 -1.13255 1.09595 0
M  V30 21031 C 1929.87 -2.20794 0.731624 0
M  V30 21032 C 1930.86 -1.67263 -0.268256 0
M  V30 21033 O 1932.07 -1.79533 -0.129535 0
M  V30 21034 H 1928.44 -0.719521 0.218618 0
M  V30 21035 H 1930.41 -2.48784 1.6477 0
M  V30 21036 C 1929.16 -3.47283 0.170214 0
M  V30 21037 H 1928.49 -3.88814 0.930805 0
M  V30 21038 H 1929.93 -4.23974 -0.0467499 0
M  V30 21039 C 1928.39 -3.18609 -1.09497 0
M  V30 21040 O 1928.92 -3.37534 -2.17793 0
M  V30 21041 N 1927.12 -2.72477 -1.01017 0
M  V30 21042 H 1926.67 -2.57278 -0.128814 0
M  V30 21043 H 1926.63 -2.53668 -1.85741 0
M  V30 21044 N 1930.4 -0.883401 -1.30514 0
M  V30 21045 C 1931.35 -0.33846 -2.30124 0
M  V30 21046 C 1932.34 0.553686 -1.60096 0
M  V30 21047 O 1933.55 0.438295 -1.74582 0
M  V30 21048 H 1929.92 -0.0907927 -0.746499 0
M  V30 21049 H 1931.89 -1.19227 -2.73546 0
M  V30 21050 C 1930.64 0.43339 -3.44988 0
M  V30 21051 H 1929.96 -0.243847 -3.99056 0
M  V30 21052 H 1931.4 0.779808 -4.16767 0
M  V30 21053 C 1929.86 1.62986 -2.94851 0
M  V30 21054 O 1930.39 2.72922 -2.94748 0
M  V30 21055 N 1928.6 1.4665 -2.50883 0
M  V30 21056 H 1928.15 0.572135 -2.51166 0
M  V30 21057 H 1928.1 2.2684 -2.17694 0
M  V30 21058 N 1931.88 1.43833 -0.644194 0
M  V30 21059 C 1933.1 2.06784 -0.159719 0
M  V30 21060 C 1933.53 1.47913 1.16204 0
M  V30 21061 O 1932.88 0.585574 1.71583 0
M  V30 21062 C 1932.93 3.60527 -0.0724271 0
M  V30 21063 O 1932.04 4.0088 0.967917 0
M  V30 21064 H 1931.38 0.657771 -0.0907406 0
M  V30 21065 H 1933.91 1.8449 -0.884568 0
M  V30 21066 H 1933.92 4.07841 0.113872 0
M  V30 21067 H 1932.59 4.02755 -1.03736 0
M  V30 21068 H 1931.17 3.65174 0.755135 0
M  V30 21069 N 1933.35 0.385544 1.52811 0
M  V30 21070 C 1934.58 -0.200568 2.06428 0
M  V30 21071 C 1935 -1.40049 1.2557 0
M  V30 21072 O 1934.36 -1.79128 0.279782 0
M  V30 21073 C 1934.41 -0.552623 3.5634 0
M  V30 21074 O 1933.51 -1.64711 3.7808 0
M  V30 21075 H 1932.86 -0.0244676 0.663549 0
M  V30 21076 H 1935.39 0.551927 1.97015 0
M  V30 21077 H 1935.4 -0.817996 3.99716 0
M  V30 21078 H 1934.07 0.324665 4.14631 0
M  V30 21079 H 1932.65 -1.37574 3.46595 0
M  V30 21080 N 1934.83 -1.57178 0.115259 0
M  V30 21081 C 1935.78 -2.16368 -0.853683 0
M  V30 21082 C 1936.77 -1.11189 -1.27802 0
M  V30 21083 O 1937.98 -1.29499 -1.2502 0
M  V30 21084 H 1934.36 -0.692403 -0.293397 0
M  V30 21085 H 1936.33 -2.9657 -0.329954 0
M  V30 21086 C 1935.08 -2.7747 -2.09537 0
M  V30 21087 H 1934.4 -3.581 -1.77777 0
M  V30 21088 H 1935.84 -3.22428 -2.75347 0
M  V30 21089 C 1934.3 -1.74366 -2.88268 0
M  V30 21090 O 1934.83 -1.19476 -3.83521 0
M  V30 21091 N 1933.03 -1.44392 -2.52189 0
M  V30 21092 H 1932.58 -1.89219 -1.74797 0
M  V30 21093 H 1932.54 -0.756482 -3.05163 0
M  V30 21094 N 1936.31 0.158505 -1.56801 0
M  V30 21095 C 1937.55 0.879385 -1.84516 0
M  V30 21096 C 1937.92 1.78864 -0.697973 0
M  V30 21097 O 1939.12 2.5481 -0.855886 0
M  V30 21098 C 1937.39 1.64324 -3.17383 0
M  V30 21099 S 1938.95 2.41113 -3.6662 0
M  V30 21100 H 1935.76 0.29429 -0.647236 0
M  V30 21101 H 1938.37 0.14014 -1.94997 0
M  V30 21102 H 1937.07 0.966538 -3.98856 0
M  V30 21103 H 1936.6 2.42362 -3.09878 0
M  V30 21104 H 1938.62 3.66076 -3.34967 0
M  V30 21105 N 1937.79 1.51692 0.427485 0
M  V30 21106 C 1939.04 1.64079 1.17308 0
M  V30 21107 C 1939.35 0.367695 1.92113 0
M  V30 21108 O 1940.56 0.371083 2.68952 0
M  V30 21109 C 1939.01 2.89812 2.13394 0
M  V30 21110 C 1938.62 4.24161 1.44191 0
M  V30 21111 C 1940.37 3.11559 2.88325 0
M  V30 21112 C 1938.27 5.41036 2.38819 0
M  V30 21113 H 1937.2 0.611162 0.441584 0
M  V30 21114 H 1939.85 1.78167 0.439193 0
M  V30 21115 H 1938.24 2.6938 2.90259 0
M  V30 21116 H 1939.41 4.5501 0.72817 0
M  V30 21117 H 1937.72 4.08371 0.813739 0
M  V30 21118 H 1940.32 3.96051 3.59232 0
M  V30 21119 H 1940.66 2.25037 3.50234 0
M  V30 21120 H 1941.2 3.32376 2.18565 0
M  V30 21121 H 1937.94 6.29847 1.81585 0
M  V30 21122 H 1937.46 5.1455 3.08218 0
M  V30 21123 H 1939.14 5.73381 2.9974 0
M  V30 21124 N 1939.27 -0.683564 1.42004 0
M  V30 21125 C 1940.22 -1.81859 1.45018 0
M  V30 21126 C 1941.21 -1.66217 0.326852 0
M  V30 21127 O 1942.42 -1.72932 0.499454 0
M  V30 21128 H 1938.79 -0.599489 0.454001 0
M  V30 21129 H 1940.76 -1.76435 2.40652 0
M  V30 21130 C 1939.51 -3.19959 1.36094 0
M  V30 21131 H 1938.83 -3.32618 2.21823 0
M  V30 21132 H 1940.27 -3.99421 1.42263 0
M  V30 21133 C 1938.73 -3.36817 0.074666 0
M  V30 21134 O 1939.26 -3.92032 -0.875984 0
M  V30 21135 N 1937.47 -2.906 -0.00533406 0
M  V30 21136 H 1937.02 -2.45853 0.769044 0
M  V30 21137 H 1936.97 -3.02257 -0.865343 0
M  V30 21138 N 1940.75 -1.28031 -0.919012 0
M  V30 21139 C 1941.97 -1.17714 -1.7015 0
M  V30 21140 C 1942.39 0.264914 -1.86932 0
M  V30 21141 O 1941.75 1.17957 -1.39256 0
M  V30 21142 C 1941.8 -1.86548 -3.09648 0
M  V30 21143 O 1941.52 -3.25121 -2.93646 0
M  V30 21144 C 1943.02 -1.82467 -4.04006 0
M  V30 21145 H 1940.24 -0.408863 -0.532045 0
M  V30 21146 H 1942.78 -1.69061 -1.1506 0
M  V30 21147 H 1940.94 -1.39085 -3.61572 0
M  V30 21148 H 1941.35 -3.59518 -3.81899 0
M  V30 21149 H 1942.83 -2.35229 -4.99371 0
M  V30 21150 H 1943.3 -0.795892 -4.31928 0
M  V30 21151 H 1943.91 -2.29585 -3.5801 0
M  V30 21152 N 1942.22 1.12672 -1.10194 0
M  V30 21153 C 1943.17 2.20403 -0.743323 0
M  V30 21154 C 1944.17 1.67402 0.259382 0
M  V30 21155 O 1945.37 1.79599 0.120012 0
M  V30 21156 H 1941.75 0.718351 -0.22243 0
M  V30 21157 H 1943.72 2.47907 -1.66087 0
M  V30 21158 C 1942.47 3.47188 -0.188629 0
M  V30 21159 H 1941.79 3.88315 -0.951411 0
M  V30 21160 H 1943.23 4.23993 0.0242649 0
M  V30 21161 C 1941.69 3.19186 1.07806 0
M  V30 21162 O 1942.22 3.38684 2.16 0
M  V30 21163 N 1940.42 2.73009 0.995705 0
M  V30 21164 H 1939.97 2.57342 0.115168 0
M  V30 21165 H 1939.93 2.54649 1.84394 0
M  V30 21166 N 1943.7 0.89031 1.30043 0
M  V30 21167 C 1944.65 0.35066 2.29942 0
M  V30 21168 C 1945.64 -0.545188 1.60387 0
M  V30 21169 O 1946.85 -0.42903 1.74812 0
M  V30 21170 H 1943.22 0.0947502 0.746007 0
M  V30 21171 H 1945.2 1.20676 2.7291 0
M  V30 21172 C 1943.94 -0.415088 3.45213 0
M  V30 21173 H 1943.27 0.265007 3.98921 0
M  V30 21174 H 1944.71 -0.757694 4.17175 0
M  V30 21175 C 1943.17 -1.6142 2.95711 0
M  V30 21176 O 1943.7 -2.71355 2.96191 0
M  V30 21177 N 1941.9 -1.45317 2.51657 0
M  V30 21178 H 1941.45 -0.558807 2.51466 0
M  V30 21179 H 1941.41 -2.25683 2.18894 0
M  V30 21180 N 1945.18 -1.43489 0.651812 0
M  V30 21181 C 1946.43 -2.01049 0.161972 0
M  V30 21182 C 1946.74 -1.52018 -1.23085 0
M  V30 21183 O 1947.95 -2.01842 -1.81583 0
M  V30 21184 C 1946.4 -3.59107 0.238761 0
M  V30 21185 C 1946.01 -4.17131 1.63419 0
M  V30 21186 C 1947.76 -4.24059 -0.193548 0
M  V30 21187 C 1945.66 -5.67479 1.66498 0
M  V30 21188 H 1944.59 -0.751858 0.0567901 0
M  V30 21189 H 1947.24 -1.64475 0.813641 0
M  V30 21190 H 1945.63 -3.93075 -0.48039 0
M  V30 21191 H 1946.8 -3.94665 2.37858 0
M  V30 21192 H 1945.11 -3.64546 2.01235 0
M  V30 21193 H 1947.71 -5.34361 -0.190368 0
M  V30 21194 H 1948.05 -3.97877 -1.22472 0
M  V30 21195 H 1948.59 -3.94968 0.473805 0
M  V30 21196 H 1945.33 -5.98426 2.6752 0
M  V30 21197 H 1944.85 -5.92006 0.963819 0
M  V30 21198 H 1946.53 -6.31492 1.40809 0
M  V30 21199 N 1946.66 -0.393643 -1.52605 0
M  V30 21200 C 1947.61 0.454246 -2.28121 0
M  V30 21201 C 1948.6 1.05931 -1.32193 0
M  V30 21202 O 1949.81 0.999286 -1.49714 0
M  V30 21203 H 1946.18 0.165249 -0.733619 0
M  V30 21204 H 1948.15 -0.204084 -2.97701 0
M  V30 21205 C 1946.9 1.5671 -3.10383 0
M  V30 21206 H 1946.22 1.11084 -3.84058 0
M  V30 21207 H 1947.66 2.13451 -3.66353 0
M  V30 21208 C 1946.12 2.52562 -2.22967 0
M  V30 21209 O 1946.65 3.56075 -1.85939 0
M  V30 21210 N 1944.86 2.22405 -1.87041 0
M  V30 21211 H 1944.41 1.38261 -2.17351 0
M  V30 21212 H 1944.36 2.86787 -1.28843 0
M  V30 21213 N 1948.14 1.57115 -0.123593 0
M  V30 21214 C 1949.38 1.94527 0.533131 0
M  V30 21215 C 1949.7 1.0095 1.67536 0
M  V30 21216 O 1950.9 1.27846 2.39515 0
M  V30 21217 C 1949.36 3.45735 0.999783 0
M  V30 21218 C 1948.97 4.47854 -0.114238 0
M  V30 21219 C 1950.71 3.92057 1.62762 0
M  V30 21220 C 1948.62 5.90245 0.36937 0
M  V30 21221 H 1947.55 0.726179 0.20293 0
M  V30 21222 H 1950.2 1.8236 -0.204183 0
M  V30 21223 H 1948.58 3.53151 1.79166 0
M  V30 21224 H 1949.76 4.52111 -0.890627 0
M  V30 21225 H 1948.07 4.11311 -0.649019 0
M  V30 21226 H 1950.67 4.9586 2.00067 0
M  V30 21227 H 1951.01 3.3229 2.50777 0
M  V30 21228 H 1951.54 3.8746 0.901074 0
M  V30 21229 H 1948.28 6.53778 -0.474837 0
M  V30 21230 H 1947.8 5.89399 1.11214 0
M  V30 21231 H 1949.48 6.41666 0.829093 0
M  V30 21232 N 1949.61 -0.150187 1.56883 0
M  V30 21233 C 1950.52 -1.20504 2.01286 0
M  V30 21234 C 1951.54 -1.47204 0.927733 0
M  V30 21235 O 1952.72 -1.58937 1.23697 0
M  V30 21236 C 1949.78 -2.51932 2.38184 0
M  V30 21237 C 1948.84 -2.32906 3.60629 0
M  V30 21238 C 1948.07 -3.58067 3.95757 0
M  V30 21239 O 1948.3 -4.64119 3.31587 0
M  V30 21240 O 1947.23 -3.5092 4.89018 0
M  V30 21241 H 1951.06 -0.858075 2.91326 0
M  V30 21242 H 1948.64 -0.358669 1.45031 0
M  V30 21243 H 1950.52 -3.29423 2.6279 0
M  V30 21244 H 1949.2 -2.86165 1.513 0
M  V30 21245 H 1948.11 -1.53377 3.41213 0
M  V30 21246 H 1949.44 -2.0359 4.4812 0
M  V30 21247 N 1951.09 -1.51916 -0.419434 0
M  V30 21248 C 1952.04 -1.75117 -1.5309 0
M  V30 21249 C 1953.03 -0.617961 -1.57726 0
M  V30 21250 O 1954.24 -0.79977 -1.61257 0
M  V30 21251 H 1950.62 -0.553609 -0.508941 0
M  V30 21252 H 1952.59 -2.68253 -1.30702 0
M  V30 21253 C 1951.34 -1.90958 -2.90569 0
M  V30 21254 H 1950.66 -2.77571 -2.8774 0
M  V30 21255 H 1952.1 -2.11196 -3.67658 0
M  V30 21256 C 1950.56 -0.673977 -3.3009 0
M  V30 21257 O 1951.09 0.163 -4.01369 0
M  V30 21258 N 1949.29 -0.512857 -2.86039 0
M  V30 21259 H 1948.84 -1.19505 -2.28202 0
M  V30 21260 H 1948.8 0.312589 -3.12842 0
M  V30 21261 N 1952.57 0.676023 -1.42365 0
M  V30 21262 C 1953.52 1.81087 -1.4598 0
M  V30 21263 C 1954.51 1.66041 -0.335662 0
M  V30 21264 O 1955.72 1.72665 -0.508618 0
M  V30 21265 H 1952.09 0.597073 -0.457173 0
M  V30 21266 H 1954.06 1.75156 -2.41584 0
M  V30 21267 C 1952.81 3.19233 -1.37789 0
M  V30 21268 H 1952.14 3.31437 -2.23584 0
M  V30 21269 H 1953.58 3.98661 -1.4438 0
M  V30 21270 C 1952.04 3.36773 -0.0925272 0
M  V30 21271 O 1952.57 3.92491 0.855181 0
M  V30 21272 N 1950.77 2.90598 -0.0100772 0
M  V30 21273 H 1950.32 2.45441 -0.782071 0
M  V30 21274 H 1950.28 3.02711 0.849301 0
M  V30 21275 N 1954.05 1.28517 0.912209 0
M  V30 21276 C 1955.3 1.15138 1.65609 0
M  V30 21277 C 1955.61 -0.299022 1.93301 0
M  V30 21278 O 1956.82 -0.55395 2.65789 0
M  V30 21279 C 1955.27 2.01287 2.98348 0
M  V30 21280 C 1954.88 3.51076 2.78297 0
M  V30 21281 C 1956.62 1.96599 3.7623 0
M  V30 21282 C 1954.53 4.29371 4.06687 0
M  V30 21283 H 1953.46 0.42731 0.621226 0
M  V30 21284 H 1956.11 1.5306 1.01217 0
M  V30 21285 H 1954.49 1.56222 3.63883 0
M  V30 21286 H 1955.67 4.04109 2.21434 0
M  V30 21287 H 1953.98 3.57306 2.13826 0
M  V30 21288 H 1956.58 2.52362 4.71399 0
M  V30 21289 H 1956.92 0.943087 4.05477 0
M  V30 21290 H 1957.46 2.39641 3.17517 0
M  V30 21291 H 1954.2 5.32248 3.82612 0
M  V30 21292 H 1953.72 3.81112 4.63156 0
M  V30 21293 H 1955.39 4.39372 4.74933 0
M  V30 21294 N 1955.53 -1.12086 1.1079 0
M  V30 21295 C 1956.77 -1.85314 0.862439 0
M  V30 21296 C 1957.13 -1.82348 -0.601087 0
M  V30 21297 O 1958.33 -2.50956 -0.963043 0
M  V30 21298 C 1956.6 -3.28827 1.40027 0
M  V30 21299 S 1958.16 -4.19385 1.29079 0
M  V30 21300 H 1954.98 -0.639107 0.311551 0
M  V30 21301 H 1957.58 -1.34998 1.41407 0
M  V30 21302 H 1956.29 -3.28547 2.45938 0
M  V30 21303 H 1955.82 -3.84209 0.845382 0
M  V30 21304 H 1957.83 -4.95565 0.250873 0
M  V30 21305 N 1957 -0.897194 -1.29569 0
M  V30 21306 C 1957.95 -0.344408 -2.25384 0
M  V30 21307 C 1958.94 0.534097 -1.51777 0
M  V30 21308 O 1960.13 0.376524 -1.72949 0
M  V30 21309 C 1957.26 0.429246 -3.40606 0
M  V30 21310 C 1956.35 -0.464038 -4.21554 0
M  V30 21311 N 1956.74 -1.57011 -4.80813 0
M  V30 21312 C 1955.03 -0.26137 -4.45233 0
M  V30 21313 C 1955.74 -2.12323 -5.41566 0
M  V30 21314 N 1954.71 -1.41659 -5.24818 0
M  V30 21315 H 1958.51 -1.18938 -2.68758 0
M  V30 21316 H 1956.03 -0.747965 -1.4415 0
M  V30 21317 H 1958.02 0.84199 -4.08309 0
M  V30 21318 H 1956.68 1.27151 -2.98769 0
M  V30 21319 H 1957.7 -1.95287 -4.7967 0
M  V30 21320 H 1954.37 0.542726 -4.13957 0
M  V30 21321 H 1955.76 -3.05274 -5.98546 0
M  V30 21322 N 1958.48 1.43142 -0.659413 0
M  V30 21323 C 1959.76 1.95318 -0.104973 0
M  V30 21324 C 1960.14 1.60048 1.37651 0
M  V30 21325 O 1959.49 0.888746 2.10508 0
M  V30 21326 C 1959.7 3.47161 -0.357769 0
M  V30 21327 C 1961.05 4.23766 -0.26602 0
M  V30 21328 O 1962.07 3.55012 -0.290667 0
M  V30 21329 O 1960.93 5.46152 -0.195021 0
M  V30 21330 H 1958.02 0.826978 0.0060428 0
M  V30 21331 H 1960.57 1.53049 -0.733079 0
M  V30 21332 H 1959.34 3.65983 -1.38465 0
M  V30 21333 H 1958.96 3.96443 0.303102 0
M  V30 21334 N 1959.96 0.40173 1.52394 0
M  V30 21335 C 1961.21 -0.177771 2.00915 0
M  V30 21336 C 1961.52 -1.46854 1.29203 0
M  V30 21337 O 1962.73 -2.12884 1.68501 0
M  V30 21338 C 1961.18 -0.367359 3.5802 0
M  V30 21339 C 1960.79 0.910882 4.38642 0
M  V30 21340 C 1962.54 -0.902552 4.14794 0
M  V30 21341 C 1960.44 0.688888 5.87374 0
M  V30 21342 H 1959.37 -0.0702091 0.750724 0
M  V30 21343 H 1962.02 0.52604 1.75798 0
M  V30 21344 H 1960.41 -1.13332 3.79436 0
M  V30 21345 H 1961.58 1.68242 4.28989 0
M  V30 21346 H 1959.9 1.37194 3.9315 0
M  V30 21347 H 1962.49 -1.08455 5.23585 0
M  V30 21348 H 1962.84 -1.87515 3.71677 0
M  V30 21349 H 1963.37 -0.19584 3.97318 0
M  V30 21350 H 1960.11 1.63284 6.34837 0
M  V30 21351 H 1959.63 -0.0434889 5.99784 0
M  V30 21352 H 1961.31 0.328207 6.46167 0
M  V30 21353 N 1961.44 -1.57047 0.131923 0
M  V30 21354 C 1962.66 -2.00419 -0.533574 0
M  V30 21355 C 1963.09 -1.01125 -1.58605 0
M  V30 21356 O 1962.45 0.0152254 -1.81294 0
M  V30 21357 C 1962.49 -3.42611 -1.12472 0
M  V30 21358 O 1961.6 -3.46263 -2.23999 0
M  V30 21359 H 1960.94 -0.650739 -0.132043 0
M  V30 21360 H 1963.47 -2.03368 0.224211 0
M  V30 21361 H 1963.48 -3.81094 -1.45709 0
M  V30 21362 H 1962.15 -4.14392 -0.353895 0
M  V30 21363 H 1960.73 -3.1961 -1.92103 0
M  V30 21364 N 1962.92 0.141865 -1.5696 0
M  V30 21365 C 1964.17 0.852066 -1.82819 0
M  V30 21366 C 1964.48 1.82103 -0.713987 0
M  V30 21367 O 1965.68 2.57575 -0.858321 0
M  V30 21368 C 1964.14 1.56589 -3.24049 0
M  V30 21369 C 1963.75 0.639071 -4.43418 0
M  V30 21370 C 1965.49 2.26257 -3.59177 0
M  V30 21371 C 1963.4 1.35481 -5.75673 0
M  V30 21372 H 1962.33 0.321934 -0.681817 0
M  V30 21373 H 1964.98 0.104791 -1.83201 0
M  V30 21374 H 1963.36 2.35898 -3.1807 0
M  V30 21375 H 1964.54 -0.119159 -4.60646 0
M  V30 21376 H 1962.85 0.0505413 -4.16369 0
M  V30 21377 H 1965.45 2.80455 -4.55246 0
M  V30 21378 H 1965.79 3.02992 -2.85485 0
M  V30 21379 H 1966.32 1.53861 -3.6684 0
M  V30 21380 H 1963.06 0.629214 -6.52473 0
M  V30 21381 H 1962.58 2.08562 -5.62372 0
M  V30 21382 H 1964.26 1.89432 -6.18647 0
M  V30 21383 N 1964.39 1.52136 0.411372 0
M  V30 21384 C 1965.34 1.75927 1.52159 0
M  V30 21385 C 1966.34 0.626317 1.57396 0
M  V30 21386 O 1967.54 0.808311 1.6083 0
M  V30 21387 H 1963.92 0.5563 0.505998 0
M  V30 21388 H 1965.89 2.68942 1.29278 0
M  V30 21389 C 1964.64 1.92496 2.89552 0
M  V30 21390 H 1963.96 2.79093 2.86264 0
M  V30 21391 H 1965.4 2.13143 3.66532 0
M  V30 21392 C 1963.86 0.691473 3.29728 0
M  V30 21393 O 1964.39 -0.141712 4.0145 0
M  V30 21394 N 1962.6 0.528019 2.85763 0
M  V30 21395 H 1962.14 1.20713 2.27565 0
M  V30 21396 H 1962.1 -0.295994 3.13004 0
M  V30 21397 N 1965.87 -0.668464 1.42721 0
M  V30 21398 C 1966.82 -1.78184 1.46694 0
M  V30 21399 C 1967.79 -1.63023 0.318213 0
M  V30 21400 O 1968.98 -1.83486 0.523198 0
M  V30 21401 C 1966.12 -3.16254 1.3812 0
M  V30 21402 C 1965.23 -3.42657 2.63078 0
M  V30 21403 C 1964.36 -4.7049 2.46602 0
M  V30 21404 C 1963.4 -4.89948 3.66902 0
M  V30 21405 N 1962.54 -6.09027 3.49329 0
M  V30 21406 H 1967.38 -1.74123 2.41837 0
M  V30 21407 H 1964.92 -0.849937 1.2006 0
M  V30 21408 H 1966.87 -3.96051 1.31146 0
M  V30 21409 H 1965.5 -3.19423 0.46569 0
M  V30 21410 H 1964.56 -2.57068 2.80393 0
M  V30 21411 H 1965.87 -3.52926 3.52484 0
M  V30 21412 H 1965.02 -5.58388 2.37249 0
M  V30 21413 H 1963.76 -4.62515 1.54696 0
M  V30 21414 H 1962.77 -4.0049 3.7668 0
M  V30 21415 H 1963.99 -4.99764 4.59797 0
M  V30 21416 H 1961.94 -6.02213 2.60146 0
M  V30 21417 H 1961.85 -6.20186 4.32326 0
M  V30 21418 H 1963.12 -6.99587 3.438 0
M  V30 21419 N 1967.35 -1.28999 -0.905381 0
M  V30 21420 C 1968.3 -1.13515 -2.0302 0
M  V30 21421 C 1969.29 -0.0522132 -1.6932 0
M  V30 21422 O 1970.5 -0.211599 -1.78752 0
M  V30 21423 H 1966.87 -0.350474 -0.665336 0
M  V30 21424 H 1968.85 -2.08758 -2.13219 0
M  V30 21425 C 1967.59 -0.822531 -3.37831 0
M  V30 21426 H 1966.92 -1.64783 -3.64262 0
M  V30 21427 H 1968.36 -0.754193 -4.17238 0
M  V30 21428 C 1966.82 0.474033 -3.33548 0
M  V30 21429 O 1967.35 1.50182 -3.7257 0
M  V30 21430 N 1965.55 0.477812 -2.86645 0
M  V30 21431 H 1965.1 -0.359023 -2.55086 0
M  V30 21432 H 1965.06 1.34533 -2.84162 0
M  V30 21433 N 1968.83 1.11497 -1.11383 0
M  V30 21434 C 1970.08 1.82584 -0.857082 0
M  V30 21435 C 1970.39 1.8554 0.61922 0
M  V30 21436 O 1971.6 2.52721 0.992197 0
M  V30 21437 C 1970.05 3.279 -1.48356 0
M  V30 21438 C 1969.66 3.33275 -2.99386 0
M  V30 21439 C 1971.41 4.0389 -1.30663 0
M  V30 21440 C 1969.31 4.72984 -3.55021 0
M  V30 21441 H 1968.24 0.684134 -0.31698 0
M  V30 21442 H 1970.89 1.25471 -1.339 0
M  V30 21443 H 1969.28 3.84941 -0.929311 0
M  V30 21444 H 1970.45 2.86119 -3.6121 0
M  V30 21445 H 1968.76 2.70764 -3.16348 0
M  V30 21446 H 1971.36 5.07069 -1.69662 0
M  V30 21447 H 1971.7 4.15554 -0.249147 0
M  V30 21448 H 1972.24 3.53235 -1.82949 0
M  V30 21449 H 1968.98 4.66518 -4.60479 0
M  V30 21450 H 1968.5 5.20553 -2.97968 0
M  V30 21451 H 1970.18 5.41941 -3.53425 0
M  V30 21452 N 1970.31 0.904053 1.29092 0
M  V30 21453 C 1971.25 0.38351 2.27591 0
M  V30 21454 C 1972.22 -0.536758 1.57188 0
M  V30 21455 O 1973.41 -0.461057 1.85146 0
M  V30 21456 C 1970.55 -0.379051 3.43012 0
M  V30 21457 C 1969.66 0.572611 4.28188 0
M  V30 21458 C 1968.8 -0.207434 5.30795 0
M  V30 21459 C 1967.84 0.73847 6.07629 0
M  V30 21460 N 1966.97 -0.00744238 7.021 0
M  V30 21461 H 1971.81 1.22855 2.71497 0
M  V30 21462 H 1969.35 0.617145 1.33528 0
M  V30 21463 H 1971.31 -0.83727 4.08712 0
M  V30 21464 H 1969.94 -1.18851 3.00124 0
M  V30 21465 H 1968.99 1.14935 3.62621 0
M  V30 21466 H 1970.3 1.29648 4.81656 0
M  V30 21467 H 1969.46 -0.726655 6.02333 0
M  V30 21468 H 1968.2 -0.964417 4.78069 0
M  V30 21469 H 1967.2 1.26915 5.34951 0
M  V30 21470 H 1968.43 1.49485 6.62443 0
M  V30 21471 H 1966.37 -0.746612 6.51737 0
M  V30 21472 H 1966.29 0.656439 7.53145 0
M  V30 21473 H 1967.56 -0.506785 7.77851 0
M  V30 21474 N 1971.79 -1.4279 0.666995 0
M  V30 21475 C 1973.03 -2.01942 0.186305 0
M  V30 21476 C 1973.36 -1.52579 -1.20139 0
M  V30 21477 O 1972.64 -0.724677 -1.80496 0
M  V30 21478 C 1972.92 -3.59474 0.212322 0
M  V30 21479 C 1972.78 -4.19035 1.63491 0
M  V30 21480 C 1974.09 -4.37857 -0.443762 0
M  V30 21481 H 1971.21 -0.733747 0.0691733 0
M  V30 21482 H 1973.86 -1.69912 0.850298 0
M  V30 21483 H 1972.01 -3.86892 -0.353062 0
M  V30 21484 H 1973.68 -4.02598 2.25195 0
M  V30 21485 H 1971.92 -3.75161 2.178 0
M  V30 21486 H 1972.59 -5.28155 1.60486 0
M  V30 21487 H 1975.07 -4.16083 0.0374331 0
M  V30 21488 H 1973.94 -5.47478 -0.394887 0
M  V30 21489 H 1974.2 -4.15144 -1.52012 0
M  V30 21490 N 1973.26 -0.409806 -1.52179 0
M  V30 21491 C 1974.49 0.165235 -2.06239 0
M  V30 21492 C 1974.91 1.38804 -1.2798 0
M  V30 21493 O 1974.26 1.79458 -0.331843 0
M  V30 21494 C 1974.31 0.514997 -3.57813 0
M  V30 21495 O 1974.04 -0.659248 -4.33111 0
M  V30 21496 C 1975.54 1.1437 -4.28293 0
M  V30 21497 H 1972.76 0.0200917 -0.670699 0
M  V30 21498 H 1975.3 -0.580955 -1.96074 0
M  V30 21499 H 1973.46 1.21108 -3.67983 0
M  V30 21500 H 1973.87 -0.367126 -5.23214 0
M  V30 21501 H 1975.34 1.33863 -5.35523 0
M  V30 21502 H 1975.82 2.11699 -3.84812 0
M  V30 21503 H 1976.43 0.487795 -4.22493 0
M  V30 21504 N 1974.74 1.56975 -0.14025 0
M  V30 21505 C 1975.99 1.95081 0.512469 0
M  V30 21506 C 1976.3 1.02722 1.66456 0
M  V30 21507 O 1977.51 1.3038 2.38146 0
M  V30 21508 C 1975.97 3.46775 0.963057 0
M  V30 21509 C 1975.57 4.47708 -0.161733 0
M  V30 21510 C 1977.32 3.93761 1.58595 0
M  V30 21511 C 1975.22 5.90604 0.306746 0
M  V30 21512 H 1974.15 0.72829 0.195216 0
M  V30 21513 H 1976.81 1.82134 -0.223514 0
M  V30 21514 H 1975.19 3.55032 1.7541 0
M  V30 21515 H 1976.36 4.51141 -0.938529 0
M  V30 21516 H 1974.68 4.10599 -0.692608 0
M  V30 21517 H 1977.27 4.97954 1.94796 0
M  V30 21518 H 1977.62 3.34931 2.47238 0
M  V30 21519 H 1978.15 3.88394 0.859928 0
M  V30 21520 H 1974.89 6.53238 -0.544152 0
M  V30 21521 H 1974.41 5.90546 1.04956 0
M  V30 21522 H 1976.09 6.42509 0.760989 0
M  V30 21523 N 1976.22 -0.133539 1.57033 0
M  V30 21524 C 1977.17 -1.18356 2.00237 0
M  V30 21525 C 1978.16 -1.43708 0.896902 0
M  V30 21526 O 1979.37 -1.43842 1.0821 0
M  V30 21527 H 1975.74 -0.398709 0.637601 0
M  V30 21528 H 1977.71 -0.792575 2.87682 0
M  V30 21529 C 1976.46 -2.50593 2.41036 0
M  V30 21530 H 1975.79 -2.31919 3.25659 0
M  V30 21531 H 1977.23 -3.22659 2.75077 0
M  V30 21532 C 1975.68 -3.12117 1.26826 0
M  V30 21533 O 1976.21 -3.97545 0.576298 0
M  V30 21534 N 1974.42 -2.7177 1.02904 0
M  V30 21535 H 1973.97 -2.02398 1.59352 0
M  V30 21536 H 1973.93 -3.13266 0.266798 0
M  V30 21537 N 1977.7 -1.52352 -0.403298 0
M  V30 21538 C 1978.65 -1.76731 -1.51224 0
M  V30 21539 C 1979.64 -0.634655 -1.57062 0
M  V30 21540 O 1980.85 -0.816829 -1.60399 0
M  V30 21541 H 1977.22 -0.558976 -0.503041 0
M  V30 21542 H 1979.19 -2.69624 -1.2785 0
M  V30 21543 C 1977.94 -1.94029 -2.88527 0
M  V30 21544 H 1977.26 -2.80607 -2.8478 0
M  V30 21545 H 1978.7 -2.15084 -3.65397 0
M  V30 21546 C 1977.16 -0.708949 -3.29356 0
M  V30 21547 O 1977.69 0.12042 -4.01519 0
M  V30 21548 N 1975.9 -0.543167 -2.85479 0
M  V30 21549 H 1975.45 -1.21919 -2.26922 0
M  V30 21550 H 1975.4 0.279391 -3.13156 0
M  V30 21551 N 1979.18 0.660885 -1.43074 0
M  V30 21552 C 1980.4 1.45376 -1.47921 0
M  V30 21553 C 1980.83 1.87855 -0.0960289 0
M  V30 21554 O 1980.18 1.5689 0.908583 0
M  V30 21555 C 1980.23 2.67002 -2.42368 0
M  V30 21556 O 1979.34 3.65783 -1.90465 0
M  V30 21557 H 1978.68 0.436193 -0.500632 0
M  V30 21558 H 1981.21 0.809399 -1.87909 0
M  V30 21559 H 1981.22 3.14909 -2.59416 0
M  V30 21560 H 1979.89 2.35426 -3.42852 0
M  V30 21561 H 1978.47 3.24885 -1.83041 0
M  V30 21562 N 1980.65 1.29477 0.898527 0
M  V30 21563 C 1981.6 1.1459 2.02415 0
M  V30 21564 C 1982.6 0.0611919 1.69289 0
M  V30 21565 O 1983.8 0.221075 1.78637 0
M  V30 21566 H 1980.18 0.353997 0.663468 0
M  V30 21567 H 1982.15 2.09886 2.12109 0
M  V30 21568 C 1980.9 0.840435 3.3739 0
M  V30 21569 H 1980.22 1.66712 3.63383 0
M  V30 21570 H 1981.66 0.77631 4.16833 0
M  V30 21571 C 1980.12 -0.456337 3.33795 0
M  V30 21572 O 1980.65 -1.48204 3.73361 0
M  V30 21573 N 1978.86 -0.462604 2.86894 0
M  V30 21574 H 1978.4 0.372545 2.54892 0
M  V30 21575 H 1978.36 -1.33024 2.84872 0
M  V30 21576 N 1982.13 -1.10905 1.11972 0
M  V30 21577 C 1983.08 -2.19193 0.778293 0
M  V30 21578 C 1984.07 -1.67794 -0.232717 0
M  V30 21579 O 1985.28 -1.79768 -0.0914242 0
M  V30 21580 H 1981.66 -0.714722 0.23383 0
M  V30 21581 H 1983.63 -2.45233 1.7001 0
M  V30 21582 C 1982.38 -3.46844 0.24384 0
M  V30 21583 H 1981.7 -3.86752 1.01307 0
M  V30 21584 H 1983.14 -4.23978 0.0431918 0
M  V30 21585 C 1981.6 -3.2086 -1.02714 0
M  V30 21586 O 1982.13 -3.42078 -2.10584 0
M  V30 21587 N 1980.33 -2.74559 -0.952145 0
M  V30 21588 H 1979.88 -2.57493 -0.0742122 0
M  V30 21589 H 1979.84 -2.57551 -1.80319 0
M  V30 21590 N 1983.61 -0.910886 -1.2861 0
M  V30 21591 C 1984.84 -0.557684 -1.99761 0
M  V30 21592 C 1985.26 0.853148 -1.67639 0
M  V30 21593 O 1984.62 1.5697 -0.907192 0
M  V30 21594 C 1984.67 -0.770188 -3.52279 0
M  V30 21595 O 1983.77 0.172155 -4.12041 0
M  V30 21596 H 1983.11 -0.216573 -0.627688 0
M  V30 21597 H 1985.64 -1.22554 -1.63834 0
M  V30 21598 H 1985.65 -0.679176 -4.02307 0
M  V30 21599 H 1984.33 -1.79869 -3.74993 0
M  V30 21600 H 1982.9 0.0326535 -3.72886 0
M  V30 21601 N 1985.09 1.42434 -0.674558 0
M  V30 21602 C 1986.34 2.00765 -0.193936 0
M  V30 21603 C 1986.65 1.53957 1.20651 0
M  V30 21604 O 1987.86 2.04705 1.78348 0
M  V30 21605 C 1986.31 3.58682 -0.295862 0
M  V30 21606 C 1985.92 4.14478 -1.70034 0
M  V30 21607 C 1987.66 4.24313 0.12606 0
M  V30 21608 C 1985.57 5.64758 -1.75505 0
M  V30 21609 H 1984.5 0.75086 -0.0687443 0
M  V30 21610 H 1987.15 1.6316 -0.839705 0
M  V30 21611 H 1985.53 3.9379 0.417795 0
M  V30 21612 H 1986.71 3.90831 -2.44106 0
M  V30 21613 H 1985.02 3.61298 -2.07009 0
M  V30 21614 H 1987.62 5.34596 0.105331 0
M  V30 21615 H 1987.96 3.99775 1.16127 0
M  V30 21616 H 1988.5 3.94164 -0.536581 0
M  V30 21617 H 1985.24 5.94094 -2.77007 0
M  V30 21618 H 1984.76 5.90397 -1.05788 0
M  V30 21619 H 1986.43 6.29172 -1.50838 0
M  V30 21620 N 1986.57 0.417871 1.51959 0
M  V30 21621 C 1987.79 -0.156736 2.06807 0
M  V30 21622 C 1988.22 -1.37354 1.28512 0
M  V30 21623 O 1987.57 -1.78494 0.317715 0
M  V30 21624 C 1987.62 -0.476913 3.57432 0
M  V30 21625 O 1986.73 -1.56654 3.81488 0
M  V30 21626 H 1986.07 -0.0103873 0.663919 0
M  V30 21627 H 1988.6 0.593593 1.958 0
M  V30 21628 H 1988.61 -0.733026 4.01361 0
M  V30 21629 H 1987.28 0.412542 4.13849 0
M  V30 21630 H 1985.86 -1.30191 3.49435 0
M  V30 21631 N 1988.04 -1.56898 0.148573 0
M  V30 21632 C 1988.99 -2.1813 -0.807596 0
M  V30 21633 C 1989.99 -1.13875 -1.25415 0
M  V30 21634 O 1991.19 -1.32122 -1.22245 0
M  V30 21635 H 1987.57 -0.698471 -0.278644 0
M  V30 21636 H 1989.54 -2.97203 -0.266972 0
M  V30 21637 C 1988.29 -2.81852 -2.03604 0
M  V30 21638 H 1987.61 -3.6179 -1.70141 0
M  V30 21639 H 1989.05 -3.28196 -2.68446 0
M  V30 21640 C 1987.51 -1.80441 -2.84504 0
M  V30 21641 O 1988.04 -1.27584 -3.809 0
M  V30 21642 N 1986.25 -1.49709 -2.49069 0
M  V30 21643 H 1985.79 -1.92884 -1.70744 0
M  V30 21644 H 1985.75 -0.821041 -3.0349 0
M  V30 21645 N 1989.52 0.125209 -1.57102 0
M  V30 21646 C 1990.47 1.17292 -2.00861 0
M  V30 21647 C 1991.46 1.4323 -0.904511 0
M  V30 21648 O 1992.67 1.43266 -1.08972 0
M  V30 21649 H 1989.05 0.395322 -0.639706 0
M  V30 21650 H 1991.02 0.777307 -2.88098 0
M  V30 21651 C 1989.77 2.49311 -2.42362 0
M  V30 21652 H 1989.09 2.30188 -3.26884 0
M  V30 21653 H 1990.53 3.21196 -2.76784 0
M  V30 21654 C 1988.99 3.1144 -1.2848 0
M  V30 21655 O 1989.52 3.97233 -0.597373 0
M  V30 21656 N 1987.72 2.71221 -1.04344 0
M  V30 21657 H 1987.27 2.0155 -1.60423 0
M  V30 21658 H 1987.23 3.1312 -0.283408 0
M  V30 21659 N 1991 1.52564 0.395213 0
M  V30 21660 C 1991.91 1.79813 1.5068 0
M  V30 21661 C 1992.93 0.684507 1.5997 0
M  V30 21662 O 1994.1 0.971428 1.76423 0
M  V30 21663 C 1991.17 1.95567 2.86277 0
M  V30 21664 C 1990.23 3.19481 2.86759 0
M  V30 21665 C 1989.46 3.34474 4.15888 0
M  V30 21666 O 1989.68 2.54414 5.10519 0
M  V30 21667 O 1988.62 4.27698 4.23507 0
M  V30 21668 H 1992.44 2.74191 1.30586 0
M  V30 21669 H 1990.03 1.37579 0.582445 0
M  V30 21670 H 1991.91 2.07672 3.66675 0
M  V30 21671 H 1990.59 1.04378 3.0641 0
M  V30 21672 H 1989.49 3.12823 2.05164 0
M  V30 21673 H 1990.83 4.10496 2.71577 0
M  V30 21674 N 1992.48 -0.653289 1.43422 0
M  V30 21675 C 1993.43 -1.78742 1.48842 0
M  V30 21676 C 1994.42 -1.65486 0.362035 0
M  V30 21677 O 1995.63 -1.71834 0.536023 0
M  V30 21678 H 1992 -0.589724 0.466614 0
M  V30 21679 H 1993.97 -1.7129 2.4434 0
M  V30 21680 C 1992.72 -3.17 1.4285 0
M  V30 21681 H 1992.04 -3.27838 2.28828 0
M  V30 21682 H 1993.48 -3.96314 1.50704 0
M  V30 21683 C 1991.94 -3.36583 0.146093 0
M  V30 21684 O 1992.47 -3.93802 -0.792631 0
M  V30 21685 N 1990.68 -2.90545 0.0563076 0
M  V30 21686 H 1990.23 -2.44166 0.82102 0
M  V30 21687 H 1990.18 -3.04024 -0.801035 0
M  V30 21688 N 1993.96 -1.29952 -0.891648 0
M  V30 21689 C 1995.2 -1.18565 -1.6453 0
M  V30 21690 C 1995.54 0.260539 -1.92444 0
M  V30 21691 O 1994.81 1.18723 -1.54062 0
M  V30 21692 C 1995.09 -2.00774 -2.98934 0
M  V30 21693 C 1994.95 -3.53577 -2.78035 0
M  V30 21694 C 1996.27 -1.84038 -3.99772 0
M  V30 21695 H 1993.38 -0.432073 -0.597061 0
M  V30 21696 H 1996.03 -1.59512 -1.03227 0
M  V30 21697 H 1994.18 -1.65981 -3.51258 0
M  V30 21698 H 1995.85 -3.98394 -2.3255 0
M  V30 21699 H 1994.09 -3.78095 -2.12665 0
M  V30 21700 H 1994.76 -4.06381 -3.73575 0
M  V30 21701 H 1997.24 -2.14444 -3.56585 0
M  V30 21702 H 1996.11 -2.43896 -4.91737 0
M  V30 21703 H 1996.38 -0.797726 -4.34843 0
M  V30 21704 N 1995.44 1.1031 -1.12559 0
M  V30 21705 C 1996.35 2.20257 -0.807721 0
M  V30 21706 C 1997.36 1.728 0.203997 0
M  V30 21707 O 1998.54 2.01365 0.0372766 0
M  V30 21708 C 1995.6 3.4566 -0.26839 0
M  V30 21709 C 1994.66 4.07844 -1.3402 0
M  V30 21710 C 1993.9 5.27261 -0.826511 0
M  V30 21711 O 1994.12 5.6939 0.339244 0
M  V30 21712 O 1993.05 5.80335 -1.5967 0
M  V30 21713 H 1996.88 2.49882 -1.72606 0
M  V30 21714 H 1994.46 1.19071 -0.902352 0
M  V30 21715 H 1996.35 4.21391 0.0274321 0
M  V30 21716 H 1995.02 3.17658 0.622489 0
M  V30 21717 H 1993.93 3.33791 -1.68921 0
M  V30 21718 H 1995.26 4.40051 -2.20489 0
M  V30 21719 N 1996.91 0.917694 1.28125 0
M  V30 21720 C 1998.14 0.568889 1.98925 0
M  V30 21721 C 1998.56 -0.85076 1.68545 0
M  V30 21722 O 1997.91 -1.56406 0.940399 0
M  V30 21723 C 1997.96 0.773181 3.53135 0
M  V30 21724 O 1997.69 2.13697 3.82446 0
M  V30 21725 C 1999.19 0.431738 4.41193 0
M  V30 21726 H 1996.41 0.21651 0.63511 0
M  V30 21727 H 1998.95 1.23198 1.63226 0
M  V30 21728 H 1997.11 0.157034 3.87082 0
M  V30 21729 H 1997.52 2.17956 4.7707 0
M  V30 21730 H 1998.99 0.625431 5.48445 0
M  V30 21731 H 1999.47 -0.632236 4.34626 0
M  V30 21732 H 2000.08 1.02559 4.12749 0
M  V30 21733 N 1998.39 -1.42074 0.682102 0
M  V30 21734 C 1999.34 -2.326 -0.00324978 0
M  V30 21735 C 2000.33 -1.50226 -0.782851 0
M  V30 21736 O 2001.54 -1.6625 -0.689991 0
M  V30 21737 H 1997.91 -0.751738 -0.0198484 0
M  V30 21738 H 1999.89 -2.88093 0.777513 0
M  V30 21739 C 1998.63 -3.3488 -0.935455 0
M  V30 21740 H 1997.96 -3.98309 -0.344986 0
M  V30 21741 H 1999.4 -4.00791 -1.38355 0
M  V30 21742 C 1997.86 -2.67711 -2.0453 0
M  V30 21743 O 1998.39 -2.5146 -3.13258 0
M  V30 21744 N 1996.59 -2.2662 -1.81912 0
M  V30 21745 H 1996.14 -2.40037 -0.934876 0
M  V30 21746 H 1996.1 -1.82011 -2.56358 0
M  V30 21747 N 1999.87 -0.425924 -1.51735 0
M  V30 21748 C 2000.8 0.382011 -2.30354 0
M  V30 21749 C 2001.78 1.03124 -1.35276 0
M  V30 21750 O 2002.97 1.03705 -1.64191 0
M  V30 21751 C 2000.1 1.48978 -3.13724 0
M  V30 21752 C 1999.05 0.964659 -4.16987 0
M  V30 21753 C 1998.38 2.1673 -4.88807 0
M  V30 21754 C 1999.68 0.00700314 -5.223 0
M  V30 21755 H 2001.37 -0.274043 -2.98143 0
M  V30 21756 H 1998.92 -0.133238 -1.43382 0
M  V30 21757 H 2000.87 2.06211 -3.67498 0
M  V30 21758 H 1999.59 2.17396 -2.43735 0
M  V30 21759 H 1998.25 0.414618 -3.64248 0
M  V30 21760 H 1997.9 2.83741 -4.15331 0
M  V30 21761 H 1997.6 1.82239 -5.58626 0
M  V30 21762 H 1999.12 2.74538 -5.454 0
M  V30 21763 H 2000.54 0.488665 -5.71214 0
M  V30 21764 H 1998.93 -0.249924 -5.99579 0
M  V30 21765 H 2000 -0.933195 -4.75836 0
M  V30 21766 N 2001.35 1.56817 -0.156891 0
M  V30 21767 C 2002.3 2.18555 0.796017 0
M  V30 21768 C 2003.29 1.14538 1.24809 0
M  V30 21769 O 2004.5 1.32768 1.21542 0
M  V30 21770 H 2000.87 0.699939 0.274936 0
M  V30 21771 H 2002.84 2.97341 0.251207 0
M  V30 21772 C 2001.59 2.82928 2.02106 0
M  V30 21773 H 2000.91 3.62687 1.6822 0
M  V30 21774 H 2002.35 3.29615 2.66702 0
M  V30 21775 C 2000.81 1.81947 2.83543 0
M  V30 21776 O 2001.34 1.29602 3.80219 0
M  V30 21777 N 1999.55 1.51028 2.48272 0
M  V30 21778 H 1999.1 1.93787 1.69719 0
M  V30 21779 H 1999.05 0.837124 3.0305 0
M  V30 21780 N 2002.83 -0.116876 1.57166 0
M  V30 21781 C 2004.07 -0.830154 1.86783 0
M  V30 21782 C 2004.43 -1.76951 0.74515 0
M  V30 21783 O 2005.63 -2.52451 0.923144 0
M  V30 21784 C 2003.9 -1.55852 3.21629 0
M  V30 21785 S 2005.46 -2.31308 3.72884 0
M  V30 21786 H 2002.28 -0.277026 0.654811 0
M  V30 21787 H 2004.88 -0.0883909 1.953 0
M  V30 21788 H 2003.58 -0.860448 4.01279 0
M  V30 21789 H 2003.12 -2.34061 3.16194 0
M  V30 21790 H 2005.13 -3.57066 3.44555 0
M  V30 21791 N 2004.3 -1.52772 -0.387116 0
M  V30 21792 C 2005.55 -1.68156 -1.13364 0
M  V30 21793 C 2005.88 -0.421195 -1.89577 0
M  V30 21794 O 2005.16 0.581056 -1.85618 0
M  V30 21795 C 2005.44 -2.91781 -2.11036 0
M  V30 21796 C 2005.29 -4.27922 -1.38573 0
M  V30 21797 C 2006.61 -3.10957 -3.11438 0
M  V30 21798 H 2003.73 -0.611922 -0.410755 0
M  V30 21799 H 2006.37 -1.85372 -0.416809 0
M  V30 21800 H 2004.52 -2.77234 -2.72165 0
M  V30 21801 H 2006.2 -4.54241 -0.803941 0
M  V30 21802 H 2004.44 -4.28316 -0.687576 0
M  V30 21803 H 2005.11 -5.10514 -2.09952 0
M  V30 21804 H 2007.59 -3.24547 -2.604 0
M  V30 21805 H 2006.46 -3.9893 -3.77022 0
M  V30 21806 H 2006.72 -2.25258 -3.80409 0
M  V30 21807 N 2005.78 0.645673 -1.43767 0
M  V30 21808 C 2007.01 1.43799 -1.49454 0
M  V30 21809 C 2007.43 1.87742 -0.115948 0
M  V30 21810 O 2006.79 1.57845 0.891891 0
M  V30 21811 C 2006.84 2.64416 -2.45186 0
M  V30 21812 O 2005.94 3.63742 -1.94334 0
M  V30 21813 H 2005.28 0.430858 -0.50523 0
M  V30 21814 H 2007.81 0.789424 -1.88757 0
M  V30 21815 H 2007.82 3.12139 -2.62741 0
M  V30 21816 H 2006.5 2.31776 -3.4533 0
M  V30 21817 H 2005.07 3.22926 -1.86476 0
M  V30 21818 N 2007.26 1.30423 0.884744 0
M  V30 21819 C 2008.17 1.18747 2.02327 0
M  V30 21820 C 2009.19 0.107354 1.73669 0
M  V30 21821 O 2010.36 0.322332 1.98804 0
M  V30 21822 C 2007.43 0.880361 3.35336 0
M  V30 21823 C 2006.49 2.04587 3.77416 0
M  V30 21824 C 2005.72 1.75332 5.04078 0
M  V30 21825 O 2005.94 0.68135 5.66316 0
M  V30 21826 O 2004.88 2.60579 5.4257 0
M  V30 21827 H 2008.7 2.14391 2.15105 0
M  V30 21828 H 2006.29 1.10019 1.01076 0
M  V30 21829 H 2008.17 0.7243 4.15129 0
M  V30 21830 H 2006.85 -0.0461673 3.23667 0
M  V30 21831 H 2005.75 2.25726 2.98326 0
M  V30 21832 H 2007.09 2.95413 3.9369 0
M  V30 21833 N 2008.74 -1.09711 1.13142 0
M  V30 21834 C 2010.15 -1.33866 0.869023 0
M  V30 21835 C 2010.35 -1.95275 -0.49697 0
M  V30 21836 O 2009.41 -2.19723 -1.2441 0
M  V30 21837 C 2010.72 -2.25314 1.99133 0
M  V30 21838 C 2012.27 -2.38831 2.02308 0
M  V30 21839 C 2012.75 -3.33613 3.13793 0
M  V30 21840 N 2014.24 -3.41185 3.13284 0
M  V30 21841 C 2014.97 -4.14516 3.96187 0
M  V30 21842 N 2014.47 -4.90669 4.89097 0
M  V30 21843 N 2016.26 -4.1021 3.84297 0
M  V30 21844 H 2008.41 -0.682242 2.01145 0
M  V30 21845 H 2010.67 -0.36305 0.875728 0
M  V30 21846 H 2010.38 -1.87415 2.97605 0
M  V30 21847 H 2010.25 -3.25681 1.90294 0
M  V30 21848 H 2012.64 -2.75996 1.04451 0
M  V30 21849 H 2012.72 -1.38254 2.1522 0
M  V30 21850 H 2012.37 -2.97172 4.11887 0
M  V30 21851 H 2012.3 -4.34088 2.9812 0
M  V30 21852 H 2014.79 -2.86882 2.45982 0
M  V30 21853 H 2015.1 -5.44045 5.48849 0
M  V30 21854 H 2013.45 -4.89768 4.93105 0
M  V30 21855 H 2016.64 -3.49815 3.11042 0
M  V30 21856 H 2016.81 -4.671 4.49135 0
M  V30 21857 N 2010.22 -0.924476 -1.27637 0
M  V30 21858 C 2011.18 -0.425772 -2.25211 0
M  V30 21859 C 2012.18 0.453876 -1.54261 0
M  V30 21860 O 2013.37 0.255412 -1.72317 0
M  V30 21861 C 2010.5 0.388294 -3.38681 0
M  V30 21862 H 2011.69 -1.28783 -2.70841 0
M  V30 21863 H 2009.25 -0.704863 -1.39504 0
M  V30 21864 H 2009.98 1.2693 -2.98428 0
M  V30 21865 H 2009.77 -0.242358 -3.9135 0
M  V30 21866 H 2011.26 0.727693 -4.11211 0
M  V30 21867 N 2011.69 1.41711 -0.689627 0
M  V30 21868 C 2012.94 2.00925 -0.217655 0
M  V30 21869 C 2013.26 1.5487 1.18491 0
M  V30 21870 O 2012.53 0.776746 1.79843 0
M  V30 21871 H 2011.11 0.742971 -0.0774783 0
M  V30 21872 H 2013.78 1.73421 -0.889456 0
M  V30 21873 H 2012.87 3.11248 -0.230451 0
M  V30 21874 N 2013.17 0.433965 1.51507 0
M  V30 21875 C 2014.4 -0.134793 2.06962 0
M  V30 21876 C 2014.82 -1.35984 1.29962 0
M  V30 21877 O 2014.18 -1.78147 0.336629 0
M  V30 21878 C 2014.23 -0.438976 3.57918 0
M  V30 21879 O 2013.33 -1.52599 3.83128 0
M  V30 21880 H 2012.67 -0.00334493 0.663992 0
M  V30 21881 H 2015.2 0.614327 1.95159 0
M  V30 21882 H 2015.21 -0.690415 4.02116 0
M  V30 21883 H 2013.89 0.456413 4.13388 0
M  V30 21884 H 2012.47 -1.26478 3.50796 0
M  V30 21885 N 2014.65 -1.56732 0.165206 0
M  V30 21886 C 2015.6 -2.14257 -0.779625 0
M  V30 21887 C 2016.58 -1.07517 -1.19704 0
M  V30 21888 O 2017.78 -1.33654 -1.16042 0
M  V30 21889 C 2014.91 -2.78206 -2.01137 0
M  V30 21890 C 2013.99 -3.92096 -1.61623 0
M  V30 21891 N 2014.38 -4.97171 -0.930308 0
M  V30 21892 C 2012.68 -4.03142 -1.90768 0
M  V30 21893 C 2013.38 -5.77017 -0.736666 0
M  V30 21894 N 2012.36 -5.28407 -1.27621 0
M  V30 21895 H 2016.16 -2.92864 -0.246531 0
M  V30 21896 H 2013.67 -1.62361 -0.0356946 0
M  V30 21897 H 2015.67 -3.17791 -2.69842 0
M  V30 21898 H 2014.33 -2.01078 -2.54947 0
M  V30 21899 H 2015.34 -5.14539 -0.589031 0
M  V30 21900 H 2012.02 -3.3711 -2.46299 0
M  V30 21901 H 2013.41 -6.71618 -0.194698 0
M  V30 21902 N 2016.13 0.10854 -1.57226 0
M  V30 21903 C 2017.08 1.13867 -1.97531 0
M  V30 21904 C 2018.06 1.36505 -0.851775 0
M  V30 21905 O 2019.25 1.37422 -1.11554 0
M  V30 21906 C 2016.38 2.4625 -2.39198 0
M  V30 21907 C 2015.47 2.27043 -3.58207 0
M  V30 21908 N 2015.86 1.77671 -4.73568 0
M  V30 21909 C 2014.16 2.5766 -3.64043 0
M  V30 21910 C 2014.86 1.72418 -5.5556 0
M  V30 21911 N 2013.84 2.17145 -4.98346 0
M  V30 21912 H 2017.64 0.749664 -2.84178 0
M  V30 21913 H 2015.15 0.31615 -1.59293 0
M  V30 21914 H 2017.15 3.20769 -2.66295 0
M  V30 21915 H 2015.81 2.859 -1.5392 0
M  V30 21916 H 2016.82 1.47065 -4.96581 0
M  V30 21917 H 2013.5 3.00925 -2.89397 0
M  V30 21918 H 2014.89 1.35411 -6.58113 0
M  V30 21919 N 2017.61 1.52975 0.379009 0
M  V30 21920 C 2018.86 1.67728 1.12028 0
M  V30 21921 C 2019.17 0.428628 1.90846 0
M  V30 21922 O 2020.37 0.456461 2.67635 0
M  V30 21923 C 2018.83 2.96454 2.04066 0
M  V30 21924 C 2018.44 4.28534 1.30624 0
M  V30 21925 C 2020.18 3.20574 2.78267 0
M  V30 21926 C 2018.09 5.4836 2.21485 0
M  V30 21927 H 2017.02 0.624902 0.421917 0
M  V30 21928 H 2019.67 1.79474 0.382288 0
M  V30 21929 H 2018.05 2.78478 2.81542 0
M  V30 21930 H 2019.23 4.57097 0.583043 0
M  V30 21931 H 2017.54 4.10754 0.683407 0
M  V30 21932 H 2020.14 4.07279 3.4645 0
M  V30 21933 H 2020.48 2.36066 3.42898 0
M  V30 21934 H 2021.01 3.39162 2.0788 0
M  V30 21935 H 2017.75 6.35305 1.61455 0
M  V30 21936 H 2017.27 5.24095 2.91692 0
M  V30 21937 H 2018.95 5.82626 2.81346 0
M  V30 21938 N 2019.08 -0.63804 1.44107 0
M  V30 21939 C 2020.31 -1.42303 1.49778 0
M  V30 21940 C 2020.72 -1.88825 0.119087 0
M  V30 21941 O 2020.07 -1.61034 -0.883953 0
M  V30 21942 C 2020.13 -2.68134 2.39467 0
M  V30 21943 C 2019.79 -2.43453 3.86755 0
M  V30 21944 C 2020.79 -2.05716 4.77469 0
M  V30 21945 C 2018.47 -2.57307 4.31391 0
M  V30 21946 C 2020.47 -1.82151 6.10819 0
M  V30 21947 C 2018.15 -2.33357 5.6479 0
M  V30 21948 C 2019.15 -1.95837 6.54322 0
M  V30 21949 O 2018.84 -1.72148 7.85252 0
M  V30 21950 H 2018.57 -0.443102 0.510526 0
M  V30 21951 H 2021.13 -0.788144 1.89677 0
M  V30 21952 H 2019.36 -3.34236 1.94483 0
M  V30 21953 H 2021.05 -3.30121 2.36167 0
M  V30 21954 H 2021.81 -1.94576 4.44258 0
M  V30 21955 H 2017.69 -2.85483 3.61967 0
M  V30 21956 H 2021.23 -1.5279 6.80662 0
M  V30 21957 H 2017.13 -2.44105 5.97564 0
M  V30 21958 H 2017.9 -1.8645 7.96981 0
M  V30 21959 N 2020.56 -1.3089 -0.877815 0
M  V30 21960 C 2021.81 -1.19888 -1.627 0
M  V30 21961 C 2022.13 0.244972 -1.93455 0
M  V30 21962 O 2021.4 1.16355 -1.57602 0
M  V30 21963 H 2019.98 -0.440719 -0.603138 0
M  V30 21964 H 2022.64 -1.64112 -1.05134 0
M  V30 21965 H 2021.74 -1.76493 -2.57404 0
M  V30 21966 N 2022.04 1.0911 -1.13723 0
M  V30 21967 C 2022.99 2.15834 -0.817576 0
M  V30 21968 C 2023.96 1.64613 0.221749 0
M  V30 21969 O 2025.14 1.90572 0.0932703 0
M  V30 21970 C 2022.28 3.43851 -0.293315 0
M  V30 21971 C 2021.4 4.08956 -1.39208 0
M  V30 21972 C 2020.53 5.24741 -0.825823 0
M  V30 21973 C 2019.57 5.81774 -1.90277 0
M  V30 21974 N 2018.71 6.88916 -1.35421 0
M  V30 21975 H 2023.55 2.42519 -1.73172 0
M  V30 21976 H 2021.08 1.19026 -0.864368 0
M  V30 21977 H 2023.04 4.1719 0.0288002 0
M  V30 21978 H 2021.67 3.17474 0.583951 0
M  V30 21979 H 2020.72 3.33449 -1.83073 0
M  V30 21980 H 2022.04 4.47372 -2.2059 0
M  V30 21981 H 2021.19 6.0499 -0.455184 0
M  V30 21982 H 2019.93 4.87696 0.0190362 0
M  V30 21983 H 2018.93 5.00185 -2.28244 0
M  V30 21984 H 2020.16 6.2088 -2.75109 0
M  V30 21985 H 2018.1 6.53844 -0.531412 0
M  V30 21986 H 2018.02 7.26118 -2.10448 0
M  V30 21987 H 2019.29 7.72913 -1.01125 0
M  V30 21988 N 2023.52 0.931232 1.27145 0
M  V30 21989 C 2024.43 0.438807 2.3046 0
M  V30 21990 C 2025.44 -0.482275 1.67183 0
M  V30 21991 O 2026.62 -0.364225 1.98079 0
M  V30 21992 C 2023.69 -0.297266 3.45423 0
M  V30 21993 C 2022.75 0.659161 4.24209 0
M  V30 21994 C 2021.98 -0.0418787 5.33684 0
M  V30 21995 O 2022.2 -1.26062 5.56295 0
M  V30 21996 O 2021.14 0.631751 5.98575 0
M  V30 21997 H 2024.96 1.29675 2.74624 0
M  V30 21998 H 2022.55 0.696718 1.3216 0
M  V30 21999 H 2024.43 -0.712299 4.15336 0
M  V30 22000 H 2023.1 -1.13075 3.03308 0
M  V30 22001 H 2022.01 1.12394 3.56817 0
M  V30 22002 H 2023.34 1.45997 4.70049 0
M  V30 22003 N 2025 -1.41343 0.697132 0
M  V30 22004 C 2025.91 -2.34576 0.0333341 0
M  V30 22005 C 2026.92 -1.56313 -0.764337 0
M  V30 22006 O 2028.1 -1.88787 -0.70154 0
M  V30 22007 C 2025.16 -3.35066 -0.890597 0
M  V30 22008 C 2024.23 -4.29216 -0.0849556 0
M  V30 22009 C 2023.46 -5.24905 -0.964881 0
M  V30 22010 O 2023.68 -5.26083 -2.20437 0
M  V30 22011 O 2022.62 -6.00476 -0.413724 0
M  V30 22012 H 2026.44 -2.92922 0.801892 0
M  V30 22013 H 2024.03 -1.42223 0.457478 0
M  V30 22014 H 2025.91 -3.96741 -1.42036 0
M  V30 22015 H 2024.58 -2.79161 -1.63862 0
M  V30 22016 H 2023.49 -3.70884 0.489447 0
M  V30 22017 H 2024.82 -4.88223 0.624437 0
M  V30 22018 N 2026.48 -0.441993 -1.51275 0
M  V30 22019 C 2027.42 0.367101 -2.27862 0
M  V30 22020 C 2028.39 1.01278 -1.31651 0
M  V30 22021 O 2029.58 1.0308 -1.60559 0
M  V30 22022 C 2026.72 1.45971 -3.12708 0
M  V30 22023 C 2025.83 0.831707 -4.23918 0
M  V30 22024 C 2024.97 1.89976 -4.96067 0
M  V30 22025 C 2024 1.25043 -5.99192 0
M  V30 22026 N 2023.14 2.26005 -6.6473 0
M  V30 22027 H 2027.98 -0.292361 -2.96562 0
M  V30 22028 H 2025.52 -0.156023 -1.4627 0
M  V30 22029 H 2027.48 2.10453 -3.6023 0
M  V30 22030 H 2026.11 2.08874 -2.46113 0
M  V30 22031 H 2025.16 0.0750644 -3.80326 0
M  V30 22032 H 2026.47 0.317691 -4.97787 0
M  V30 22033 H 2025.62 2.62108 -5.4716 0
M  V30 22034 H 2024.36 2.44751 -4.21839 0
M  V30 22035 H 2023.37 0.514597 -5.47386 0
M  V30 22036 H 2024.59 0.709951 -6.75379 0
M  V30 22037 H 2022.54 2.79852 -5.93312 0
M  V30 22038 H 2022.46 1.79508 -7.34379 0
M  V30 22039 H 2023.72 2.97607 -7.20452 0
M  V30 22040 N 2027.95 1.56642 -0.173515 0
M  V30 22041 C 2029.18 2.01763 0.480249 0
M  V30 22042 C 2029.6 1.05294 1.55868 0
M  V30 22043 O 2028.96 0.0328468 1.8127 0
M  V30 22044 C 2029.01 3.45473 1.03349 0
M  V30 22045 O 2028.11 3.52081 2.14739 0
M  V30 22046 H 2027.45 0.654011 0.114743 0
M  V30 22047 H 2029.98 2.02702 -0.278052 0
M  V30 22048 H 2029.99 3.84823 1.35554 0
M  V30 22049 H 2028.67 4.15184 0.243902 0
M  V30 22050 H 2027.25 3.24591 1.83562 0
M  V30 22051 N 2029.43 -0.1002 1.57281 0
M  V30 22052 C 2030.68 -0.803295 1.85014 0
M  V30 22053 C 2030.99 -1.80146 0.762017 0
M  V30 22054 O 2032.2 -2.55209 0.926311 0
M  V30 22055 C 2030.66 -1.47942 3.28087 0
M  V30 22056 C 2030.26 -0.521281 4.44957 0
M  V30 22057 C 2032.01 -2.16654 3.65049 0
M  V30 22058 C 2029.91 -1.20171 5.79062 0
M  V30 22059 H 2028.84 -0.303744 0.690113 0
M  V30 22060 H 2031.5 -0.0561819 1.83414 0
M  V30 22061 H 2029.88 -2.27382 3.24212 0
M  V30 22062 H 2031.05 0.241249 4.60168 0
M  V30 22063 H 2029.37 0.0598694 4.16357 0
M  V30 22064 H 2031.96 -2.68286 4.62522 0
M  V30 22065 H 2032.31 -2.95316 2.93418 0
M  V30 22066 H 2032.84 -1.44081 3.7079 0
M  V30 22067 H 2029.58 -0.456001 6.53912 0
M  V30 22068 H 2029.1 -1.93579 5.67704 0
M  V30 22069 H 2030.78 -1.72963 6.23452 0
M  V30 22070 N 2030.91 -1.53174 -0.370891 0
M  V30 22071 C 2032.16 -1.68764 -1.11189 0
M  V30 22072 C 2032.48 -0.439297 -1.89987 0
M  V30 22073 O 2031.75 0.546592 -1.8812 0
M  V30 22074 H 2030.33 -0.622136 -0.413467 0
M  V30 22075 H 2032.99 -1.90347 -0.418794 0
M  V30 22076 H 2032.09 -2.54633 -1.80468 0
M  V30 22077 N 2032.39 0.630389 -1.44443 0
M  V30 22078 C 2033.61 1.42206 -1.50971 0
M  V30 22079 C 2034.04 1.87609 -0.135854 0
M  V30 22080 O 2033.4 1.58782 0.8751 0
M  V30 22081 C 2033.44 2.61801 -2.47977 0
M  V30 22082 O 2032.55 3.6166 -1.98181 0
M  V30 22083 H 2031.89 0.425475 -0.509771 0
M  V30 22084 H 2034.42 0.769359 -1.89584 0
M  V30 22085 H 2034.43 3.09335 -2.66037 0
M  V30 22086 H 2033.1 2.281 -3.47769 0
M  V30 22087 H 2031.68 3.2093 -1.89891 0
M  V30 22088 N 2033.87 1.31354 0.870861 0
M  V30 22089 C 2035.14 1.11627 1.6062 0
M  V30 22090 C 2035.52 -0.329351 2.08515 0
M  V30 22091 O 2034.87 -1.3233 1.86282 0
M  V30 22092 C 2035.08 2.12968 2.76488 0
M  V30 22093 C 2036.43 2.45442 3.46473 0
M  V30 22094 O 2037.45 2.11388 2.86694 0
M  V30 22095 O 2036.31 3.03753 4.54309 0
M  V30 22096 H 2033.41 0.429682 0.706614 0
M  V30 22097 H 2035.95 1.42829 0.916402 0
M  V30 22098 H 2034.72 3.10212 2.38504 0
M  V30 22099 H 2034.35 1.82666 3.53156 0
M  V30 22100 N 2035.34 -1.08505 1.143 0
M  V30 22101 C 2036.62 -1.77515 0.82144 0
M  V30 22102 C 2037 -1.99668 -0.685253 0
M  V30 22103 O 2036.35 -1.60569 -1.62573 0
M  V30 22104 C 2036.56 -3.09174 1.61903 0
M  V30 22105 C 2037.91 -3.83722 1.81775 0
M  V30 22106 O 2038.93 -3.18952 1.58581 0
M  V30 22107 O 2037.79 -5.00023 2.20543 0
M  V30 22108 H 2034.88 -0.770315 0.300906 0
M  V30 22109 H 2037.43 -1.14976 1.24814 0
M  V30 22110 H 2036.2 -2.88593 2.64253 0
M  V30 22111 H 2035.82 -3.7944 1.1879 0
M  V30 22112 N 2036.82 -0.937962 -1.26649 0
M  V30 22113 C 2038.05 -0.600464 -1.97995 0
M  V30 22114 C 2038.46 0.823838 -1.69877 0
M  V30 22115 O 2037.82 1.5489 -0.965163 0
M  V30 22116 C 2037.87 -0.829264 -3.5186 0
M  V30 22117 O 2037.59 -2.19754 -3.78998 0
M  V30 22118 C 2039.09 -0.501874 -4.4045 0
M  V30 22119 H 2036.31 -0.226587 -0.631585 0
M  V30 22120 H 2038.86 -1.25779 -1.61245 0
M  V30 22121 H 2037.01 -0.218596 -3.86783 0
M  V30 22122 H 2037.43 -2.25518 -4.73542 0
M  V30 22123 H 2038.9 -0.712605 -5.47381 0
M  V30 22124 H 2039.38 0.56301 -4.35576 0
M  V30 22125 H 2039.98 -1.09113 -4.11065 0
M  V30 22126 N 2038.3 1.40971 -0.704618 0
M  V30 22127 C 2039.25 2.32576 -0.0337552 0
M  V30 22128 C 2040.24 1.51452 0.758852 0
M  V30 22129 O 2041.45 1.67327 0.663455 0
M  V30 22130 H 2037.82 0.751959 0.00788634 0
M  V30 22131 H 2039.79 2.86819 -0.823248 0
M  V30 22132 C 2038.54 3.36326 0.882061 0
M  V30 22133 H 2037.87 3.98807 0.281575 0
M  V30 22134 H 2039.31 4.02942 1.31962 0
M  V30 22135 C 2037.76 2.70931 2.00245 0
M  V30 22136 O 2038.29 2.56412 3.09218 0
M  V30 22137 N 2036.5 2.29485 1.78284 0
M  V30 22138 H 2036.05 2.41494 0.89657 0
M  V30 22139 H 2036.01 1.86067 2.5343 0
M  V30 22140 N 2039.78 0.45001 1.51039 0
M  V30 22141 C 2041.03 -0.113761 2.01379 0
M  V30 22142 C 2041.34 -1.42669 1.33809 0
M  V30 22143 O 2042.55 -2.07416 1.75188 0
M  V30 22144 C 2041 -0.253272 3.59008 0
M  V30 22145 C 2040.61 1.04997 4.35522 0
M  V30 22146 C 2042.35 -0.770131 4.17456 0
M  V30 22147 C 2040.26 0.875408 5.84885 0
M  V30 22148 H 2039.19 -0.0462899 0.752578 0
M  V30 22149 H 2041.84 0.581702 1.74036 0
M  V30 22150 H 2040.22 -1.01203 3.8285 0
M  V30 22151 H 2041.4 1.81805 4.23419 0
M  V30 22152 H 2039.71 1.49632 3.88586 0
M  V30 22153 H 2042.31 -0.917427 5.26771 0
M  V30 22154 H 2042.65 -1.75596 3.77454 0
M  V30 22155 H 2043.19 -0.0693371 3.9774 0
M  V30 22156 H 2039.93 1.83398 6.29321 0
M  V30 22157 H 2039.45 0.14735 5.99619 0
M  V30 22158 H 2041.12 0.533614 6.44796 0
M  V30 22159 N 2041.26 -1.56548 0.18182 0
M  V30 22160 C 2042.19 -2.21471 -0.739774 0
M  V30 22161 C 2043.17 -1.17361 -1.23128 0
M  V30 22162 O 2044.35 -1.45825 -1.28253 0
M  V30 22163 C 2041.48 -2.86369 -1.96494 0
M  V30 22164 C 2040.44 -3.96609 -1.60888 0
M  V30 22165 C 2039.76 -4.48607 -2.90957 0
M  V30 22166 C 2041.06 -5.15681 -0.828895 0
M  V30 22167 H 2042.76 -2.98741 -0.19858 0
M  V30 22168 H 2040.3 -1.43692 -0.0940725 0
M  V30 22169 H 2042.26 -3.30466 -2.61477 0
M  V30 22170 H 2040.98 -2.06485 -2.53045 0
M  V30 22171 H 2039.64 -3.53184 -0.982694 0
M  V30 22172 H 2039.29 -3.65501 -3.45569 0
M  V30 22173 H 2038.99 -5.22984 -2.67882 0
M  V30 22174 H 2040.51 -4.95397 -3.56951 0
M  V30 22175 H 2041.92 -5.56405 -1.38153 0
M  V30 22176 H 2040.32 -5.96041 -0.696789 0
M  V30 22177 H 2041.39 -4.84592 0.172711 0
M  V30 22178 N 2042.73 0.0918577 -1.57332 0
M  V30 22179 C 2043.96 0.81208 -1.9084 0
M  V30 22180 C 2044.38 1.71329 -0.776394 0
M  V30 22181 O 2043.74 1.7925 0.271867 0
M  V30 22182 C 2043.79 1.59867 -3.23226 0
M  V30 22183 O 2042.89 2.70787 -3.11044 0
M  V30 22184 H 2042.24 0.222886 -0.625474 0
M  V30 22185 H 2044.77 0.0661119 -2.04493 0
M  V30 22186 H 2044.78 1.98221 -3.56613 0
M  V30 22187 H 2043.45 0.937296 -4.05201 0
M  V30 22188 H 2042.03 2.35438 -2.89177 0
M  V30 22189 N 2044.21 1.53368 0.362763 0
M  V30 22190 C 2045.18 1.7933 1.42736 0
M  V30 22191 C 2046.18 0.663794 1.4646 0
M  V30 22192 O 2047.37 0.932009 1.47171 0
M  V30 22193 C 2044.5 1.91792 2.81831 0
M  V30 22194 H 2045.69 2.74412 1.20989 0
M  V30 22195 H 2043.24 1.44488 0.596058 0
M  V30 22196 H 2043.98 0.987867 3.08888 0
M  V30 22197 H 2043.76 2.73948 2.80526 0
M  V30 22198 H 2045.25 2.13461 3.58921 0
M  V30 22199 N 2045.69 -0.62272 1.44776 0
M  V30 22200 C 2046.62 -1.74771 1.48283 0
M  V30 22201 C 2047.64 -1.58416 0.375253 0
M  V30 22202 O 2048.82 -1.66575 0.641472 0
M  V30 22203 C 2045.92 -3.12596 1.30909 0
M  V30 22204 C 2045.1 -3.55331 2.55066 0
M  V30 22205 C 2044.16 -4.72064 2.32469 0
M  V30 22206 O 2043.18 -4.79949 3.06003 0
M  V30 22207 N 2044.38 -5.64329 1.36063 0
M  V30 22208 H 2047.15 -1.7223 2.45269 0
M  V30 22209 H 2044.71 -0.807546 1.40322 0
M  V30 22210 H 2046.7 -3.88422 1.13625 0
M  V30 22211 H 2045.27 -3.09731 0.422559 0
M  V30 22212 H 2044.49 -2.69625 2.87569 0
M  V30 22213 H 2045.78 -3.80637 3.37628 0
M  V30 22214 H 2045.18 -5.6066 0.753476 0
M  V30 22215 H 2043.74 -6.39749 1.24756 0
M  V30 22216 N 2047.17 -1.31814 -0.863883 0
M  V30 22217 C 2048.12 -1.19916 -1.99306 0
M  V30 22218 C 2049.11 -0.106055 -1.69068 0
M  V30 22219 O 2050.32 -0.26836 -1.77988 0
M  V30 22220 H 2046.69 -0.371464 -0.653849 0
M  V30 22221 H 2048.66 -2.15436 -2.0647 0
M  V30 22222 C 2047.41 -0.929593 -3.35043 0
M  V30 22223 H 2046.73 -1.76288 -3.58835 0
M  V30 22224 H 2048.17 -0.886553 -4.14628 0
M  V30 22225 C 2046.63 0.367677 -3.34888 0
M  V30 22226 O 2047.16 1.38252 -3.77159 0
M  V30 22227 N 2045.37 0.386376 -2.8802 0
M  V30 22228 H 2044.92 -0.439994 -2.53815 0
M  V30 22229 H 2044.87 1.25425 -2.88299 0
M  V30 22230 N 2048.65 1.07897 -1.14873 0
M  V30 22231 C 2049.87 1.84657 -0.944281 0
M  V30 22232 C 2050.3 1.8127 0.50226 0
M  V30 22233 O 2049.65 1.20159 1.35763 0
M  V30 22234 C 2049.7 3.29889 -1.45622 0
M  V30 22235 O 2048.81 4.07217 -0.651748 0
M  V30 22236 H 2048.15 0.571994 -0.337222 0
M  V30 22237 H 2050.68 1.36151 -1.52723 0
M  V30 22238 H 2050.69 3.80727 -1.46665 0
M  V30 22239 H 2049.36 3.31668 -2.50936 0
M  V30 22240 H 2047.94 3.66069 -0.710491 0
M  V30 22241 N 2050.12 0.944665 1.2615 0
M  V30 22242 C 2051.07 0.44787 2.28247 0
M  V30 22243 C 2052.07 -0.476672 1.62555 0
M  V30 22244 O 2053.27 -0.3545 1.76475 0
M  V30 22245 H 2049.65 0.126306 0.741317 0
M  V30 22246 H 2051.62 1.32142 2.67546 0
M  V30 22247 C 2050.37 -0.268298 3.46663 0
M  V30 22248 H 2049.69 0.433964 3.97438 0
M  V30 22249 H 2051.13 -0.580074 4.20013 0
M  V30 22250 C 2049.59 -1.48732 3.02292 0
M  V30 22251 O 2050.12 -2.58549 3.07434 0
M  V30 22252 N 2048.33 -1.34513 2.57594 0
M  V30 22253 H 2047.87 -0.451649 2.5361 0
M  V30 22254 H 2047.83 -2.16196 2.28269 0
M  V30 22255 N 2051.6 -1.40596 0.712085 0
M  V30 22256 C 2052.55 -2.32554 0.0460888 0
M  V30 22257 C 2053.54 -1.51853 -0.750809 0
M  V30 22258 O 2054.75 -1.67676 -0.654572 0
M  V30 22259 H 2051.13 -0.75199 -0.00389841 0
M  V30 22260 H 2053.1 -2.86378 0.838447 0
M  V30 22261 C 2051.85 -3.36789 -0.864212 0
M  V30 22262 H 2051.17 -3.98951 -0.260421 0
M  V30 22263 H 2052.61 -4.03636 -1.29823 0
M  V30 22264 C 2051.07 -2.71989 -1.98805 0
M  V30 22265 O 2051.6 -2.58048 -3.07854 0
M  V30 22266 N 2049.8 -2.30427 -1.77064 0
M  V30 22267 H 2049.35 -2.41966 -0.88375 0
M  V30 22268 H 2049.31 -1.87408 -2.52439 0
M  V30 22269 N 2053.08 -0.458013 -1.50798 0
M  V30 22270 C 2054.03 0.357083 -2.29843 0
M  V30 22271 C 2055.02 1.00229 -1.36567 0
M  V30 22272 O 2056.23 0.934888 -1.53818 0
M  V30 22273 H 2052.6 0.133985 -0.739968 0
M  V30 22274 H 2054.57 -0.330165 -2.96568 0
M  V30 22275 C 2053.32 1.43404 -3.1675 0
M  V30 22276 H 2052.65 0.946947 -3.88424 0
M  V30 22277 H 2054.09 1.9772 -3.75077 0
M  V30 22278 C 2052.55 2.42878 -2.33478 0
M  V30 22279 O 2053.08 3.47868 -2.00874 0
M  V30 22280 N 2051.28 2.14272 -1.96306 0
M  V30 22281 H 2050.83 1.28918 -2.2302 0
M  V30 22282 H 2050.79 2.81064 -1.40891 0
M  V30 22283 N 2054.56 1.56449 -0.190119 0
M  V30 22284 C 2055.81 1.97438 0.449957 0
M  V30 22285 C 2056.13 1.07682 1.61972 0
M  V30 22286 O 2055.39 0.114859 1.95363 0
M  V30 22287 C 2055.69 3.44349 0.956988 0
M  V30 22288 C 2055.35 4.50792 -0.098868 0
M  V30 22289 C 2054.02 4.79625 -0.389003 0
M  V30 22290 C 2056.37 5.14795 -0.814559 0
M  V30 22291 C 2053.7 5.69754 -1.39989 0
M  V30 22292 C 2056.05 6.06017 -1.81456 0
M  V30 22293 C 2054.71 6.33209 -2.11195 0
M  V30 22294 H 2053.98 0.722476 0.164651 0
M  V30 22295 H 2056.63 1.89352 -0.286039 0
M  V30 22296 H 2054.93 3.49481 1.77116 0
M  V30 22297 H 2056.63 3.73416 1.46155 0
M  V30 22298 H 2053.22 4.2838 0.137435 0
M  V30 22299 H 2057.41 4.92615 -0.603633 0
M  V30 22300 H 2052.66 5.89098 -1.63627 0
M  V30 22301 H 2056.84 6.54672 -2.37438 0
M  V30 22302 H 2054.46 7.02847 -2.89672 0
M  V30 22303 N 2056.04 -0.0835127 1.57379 0
M  V30 22304 C 2057.26 -0.801948 1.91268 0
M  V30 22305 C 2057.69 -1.70915 0.785469 0
M  V30 22306 O 2057.05 -1.79392 -0.262357 0
M  V30 22307 C 2057.09 -1.58151 3.24069 0
M  V30 22308 O 2056.2 -2.69134 3.12475 0
M  V30 22309 H 2055.54 -0.219566 0.626647 0
M  V30 22310 H 2058.07 -0.0552662 2.04525 0
M  V30 22311 H 2058.08 -1.96327 3.57659 0
M  V30 22312 H 2056.75 -0.915794 4.05692 0
M  V30 22313 H 2055.33 -2.33901 2.90422 0
M  V30 22314 N 2057.52 -1.53558 -0.354624 0
M  V30 22315 C 2058.76 -1.71979 -1.10466 0
M  V30 22316 C 2059.12 -0.467268 -1.86227 0
M  V30 22317 O 2060.32 -0.528325 -2.63557 0
M  V30 22318 C 2058.59 -2.94174 -2.02969 0
M  V30 22319 S 2060.15 -3.33352 -2.85345 0
M  V30 22320 H 2056.97 -0.605043 -0.373422 0
M  V30 22321 H 2059.57 -1.91682 -0.384487 0
M  V30 22322 H 2058.27 -3.83517 -1.46093 0
M  V30 22323 H 2057.81 -2.76904 -2.79442 0
M  V30 22324 H 2059.82 -2.86221 -4.05329 0
M  V30 22325 N 2058.99 0.615033 -1.45104 0
M  V30 22326 C 2059.94 1.74733 -1.53529 0
M  V30 22327 C 2060.94 1.64468 -0.405784 0
M  V30 22328 O 2062.14 1.70352 -0.581394 0
M  V30 22329 H 2058.52 0.577146 -0.482086 0
M  V30 22330 H 2060.49 1.64752 -2.48796 0
M  V30 22331 C 2059.24 3.13102 -1.51204 0
M  V30 22332 H 2058.56 3.21656 -2.3744 0
M  V30 22333 H 2060 3.92179 -1.61158 0
M  V30 22334 C 2058.46 3.36077 -0.235281 0
M  V30 22335 O 2058.99 3.95765 0.687942 0
M  V30 22336 N 2057.19 2.90294 -0.133321 0
M  V30 22337 H 2056.74 2.41903 -0.885467 0
M  V30 22338 H 2056.7 3.06041 0.720147 0
M  V30 22339 N 2060.47 1.3227 0.85688 0
M  V30 22340 C 2061.42 1.20972 1.98667 0
M  V30 22341 C 2062.41 0.115019 1.69009 0
M  V30 22342 O 2063.62 0.277796 1.77843 0
M  V30 22343 H 2059.99 0.374926 0.65187 0
M  V30 22344 H 2061.97 2.16528 2.05324 0
M  V30 22345 C 2060.71 0.947348 3.34545 0
M  V30 22346 H 2060.04 1.78189 3.57895 0
M  V30 22347 H 2061.48 0.908529 4.14152 0
M  V30 22348 C 2059.94 -0.349912 3.35078 0
M  V30 22349 O 2060.47 -1.3625 3.77887 0
M  V30 22350 N 2058.67 -0.371097 2.88221 0
M  V30 22351 H 2058.22 0.453449 2.53578 0
M  V30 22352 H 2058.18 -1.23894 2.8896 0
M  V30 22353 N 2061.95 -1.07287 1.15444 0
M  V30 22354 C 2062.86 -2.18038 0.865835 0
M  V30 22355 C 2063.88 -1.7328 -0.15811 0
M  V30 22356 O 2065.05 -2.01394 0.016125 0
M  V30 22357 C 2062.12 -3.44827 0.359941 0
M  V30 22358 C 2061.18 -4.04148 1.44786 0
M  V30 22359 C 2060.41 -5.24885 0.966015 0
M  V30 22360 O 2060.63 -5.7009 -0.188161 0
M  V30 22361 O 2059.57 -5.75898 1.75 0
M  V30 22362 H 2063.39 -2.45218 1.7917 0
M  V30 22363 H 2060.98 -1.16637 0.933604 0
M  V30 22364 H 2062.86 -4.21316 0.0843019 0
M  V30 22365 H 2061.54 -3.19197 -0.538049 0
M  V30 22366 H 2060.44 -3.29195 1.77711 0
M  V30 22367 H 2061.78 -4.34051 2.32079 0
M  V30 22368 N 2063.43 -0.951342 -1.25647 0
M  V30 22369 C 2064.38 -0.459968 -2.28007 0
M  V30 22370 C 2065.37 0.468044 -1.62806 0
M  V30 22371 O 2066.58 0.345136 -1.7666 0
M  V30 22372 H 2062.95 -0.130235 -0.740637 0
M  V30 22373 H 2064.92 -1.33559 -2.66842 0
M  V30 22374 C 2063.67 0.24991 -3.46801 0
M  V30 22375 H 2062.99 -0.455035 -3.97202 0
M  V30 22376 H 2064.43 0.557792 -4.20315 0
M  V30 22377 C 2062.89 1.47127 -3.03076 0
M  V30 22378 O 2063.42 2.56915 -3.088 0
M  V30 22379 N 2061.63 1.33145 -2.58304 0
M  V30 22380 H 2061.18 0.438193 -2.53846 0
M  V30 22381 H 2061.13 2.14982 -2.29413 0
M  V30 22382 N 2064.91 1.40216 -0.719531 0
M  V30 22383 C 2065.84 2.28192 -0.0185278 0
M  V30 22384 C 2066.82 1.43553 0.763632 0
M  V30 22385 O 2068 1.72961 0.749443 0
M  V30 22386 C 2065.13 3.24179 0.981108 0
M  V30 22387 C 2064.17 4.25518 0.289289 0
M  V30 22388 S 2065.01 5.26351 -0.985661 0
M  V30 22389 C 2066.16 6.25899 0.011772 0
M  V30 22390 H 2066.4 2.87299 -0.764643 0
M  V30 22391 H 2063.93 1.45709 -0.510709 0
M  V30 22392 H 2065.89 3.80005 1.55262 0
M  V30 22393 H 2064.55 2.64122 1.69995 0
M  V30 22394 H 2063.74 4.93045 1.04512 0
M  V30 22395 H 2063.34 3.73411 -0.209776 0
M  V30 22396 H 2065.63 6.72054 0.857313 0
M  V30 22397 H 2066.58 7.0529 -0.630218 0
M  V30 22398 H 2066.99 5.63238 0.377261 0
M  V30 22399 N 2066.38 0.466004 1.50553 0
M  V30 22400 C 2067.33 -0.344889 2.30029 0
M  V30 22401 C 2068.33 -0.995031 1.37097 0
M  V30 22402 O 2069.53 -0.926717 1.54311 0
M  V30 22403 H 2065.91 -0.130059 0.740668 0
M  V30 22404 H 2067.88 0.345888 2.96389 0
M  V30 22405 C 2066.63 -1.41723 3.17506 0
M  V30 22406 H 2065.95 -0.926335 3.8892 0
M  V30 22407 H 2067.39 -1.95728 3.7612 0
M  V30 22408 C 2065.85 -2.41636 2.34763 0
M  V30 22409 O 2066.38 -3.46798 2.02716 0
M  V30 22410 N 2064.58 -2.13228 1.97439 0
M  V30 22411 H 2064.13 -1.27733 2.23701 0
M  V30 22412 H 2064.09 -2.80313 1.4238 0
M  V30 22413 N 2067.86 -1.56346 0.198413 0
M  V30 22414 C 2068.81 -2.19245 -0.721128 0
M  V30 22415 C 2069.78 -1.14072 -1.20735 0
M  V30 22416 O 2070.96 -1.42336 -1.27063 0
M  V30 22417 C 2068.1 -2.85839 -1.93365 0
M  V30 22418 C 2067.22 -4.05546 -1.48849 0
M  V30 22419 C 2066.35 -4.59988 -2.65678 0
M  V30 22420 C 2065.39 -5.72046 -2.17784 0
M  V30 22421 N 2064.53 -6.20879 -3.27802 0
M  V30 22422 H 2069.37 -2.97468 -0.178003 0
M  V30 22423 H 2066.9 -1.46903 -0.076117 0
M  V30 22424 H 2068.86 -3.2262 -2.64522 0
M  V30 22425 H 2067.49 -2.10174 -2.45004 0
M  V30 22426 H 2066.54 -3.74405 -0.672674 0
M  V30 22427 H 2067.86 -4.86584 -1.09713 0
M  V30 22428 H 2067.01 -4.99092 -3.44952 0
M  V30 22429 H 2065.75 -3.78064 -3.08089 0
M  V30 22430 H 2064.75 -5.32467 -1.36964 0
M  V30 22431 H 2065.98 -6.5579 -1.76399 0
M  V30 22432 H 2063.93 -5.41876 -3.69738 0
M  V30 22433 H 2063.84 -6.96977 -2.92845 0
M  V30 22434 H 2065.11 -6.64637 -4.07281 0
M  V30 22435 N 2069.34 0.0751653 -1.57421 0
M  V30 22436 C 2070.3 1.07404 -2.02477 0
M  V30 22437 C 2071.3 1.31792 -0.921282 0
M  V30 22438 O 2072.49 1.27569 -1.18625 0
M  V30 22439 C 2069.63 2.4185 -2.40253 0
M  V30 22440 H 2070.82 0.685783 -2.91954 0
M  V30 22441 H 2068.37 0.320795 -1.52973 0
M  V30 22442 H 2069.11 2.85515 -1.53791 0
M  V30 22443 H 2068.89 2.25492 -3.20774 0
M  V30 22444 H 2070.38 3.13655 -2.75699 0
M  V30 22445 N 2070.82 1.53744 0.346476 0
M  V30 22446 C 2071.77 1.82222 1.44561 0
M  V30 22447 C 2072.76 0.69251 1.54598 0
M  V30 22448 O 2073.97 0.875797 1.57257 0
M  V30 22449 H 2070.34 0.577261 0.481948 0
M  V30 22450 H 2072.31 2.74183 1.17755 0
M  V30 22451 C 2071.06 2.04604 2.81127 0
M  V30 22452 H 2070.38 2.90983 2.74169 0
M  V30 22453 H 2071.82 2.28497 3.57162 0
M  V30 22454 C 2070.28 0.830699 3.26498 0
M  V30 22455 O 2070.81 0.0286844 4.0169 0
M  V30 22456 N 2069.02 0.648746 2.83266 0
M  V30 22457 H 2068.57 1.30257 2.22241 0
M  V30 22458 H 2068.52 -0.162972 3.13977 0
M  V30 22459 N 2072.3 -0.607329 1.45428 0
M  V30 22460 C 2073.54 -1.36835 1.49679 0
M  V30 22461 C 2073.88 -1.93708 0.138148 0
M  V30 22462 O 2073.15 -1.75069 -0.847414 0
M  V30 22463 C 2073.43 -2.51607 2.57616 0
M  V30 22464 C 2073.29 -1.99929 4.02925 0
M  V30 22465 C 2074.61 -3.53738 2.61835 0
M  V30 22466 H 2071.72 -0.496187 0.544947 0
M  V30 22467 H 2074.37 -0.684587 1.77238 0
M  V30 22468 H 2072.52 -3.09936 2.34247 0
M  V30 22469 H 2074.19 -1.46247 4.37504 0
M  V30 22470 H 2072.43 -1.30929 4.1357 0
M  V30 22471 H 2073.1 -2.82666 4.74135 0
M  V30 22472 H 2075.58 -3.0525 2.82775 0
M  V30 22473 H 2074.45 -4.31533 3.39221 0
M  V30 22474 H 2074.72 -4.09372 1.66935 0
M  V30 22475 N 2073.77 -1.32722 -0.849853 0
M  V30 22476 C 2075.05 -1.14168 -1.58824 0
M  V30 22477 C 2075.43 0.296136 -2.09013 0
M  V30 22478 O 2074.78 1.2935 -1.88364 0
M  V30 22479 C 2074.99 -2.1734 -2.73065 0
M  V30 22480 C 2076.34 -2.50923 -3.42524 0
M  V30 22481 O 2077.36 -2.15923 -2.83295 0
M  V30 22482 O 2076.22 -3.10942 -4.49419 0
M  V30 22483 H 2073.31 -0.440869 -0.699688 0
M  V30 22484 H 2075.86 -1.44269 -0.893563 0
M  V30 22485 H 2074.63 -3.13967 -2.33539 0
M  V30 22486 H 2074.26 -1.88261 -3.50205 0
M  V30 22487 N 2075.25 1.06673 -1.16011 0
M  V30 22488 C 2076.5 1.79666 -0.940641 0
M  V30 22489 C 2076.83 1.86814 0.530502 0
M  V30 22490 O 2076.11 1.35692 1.39348 0
M  V30 22491 C 2076.39 3.24359 -1.56407 0
M  V30 22492 C 2076.24 3.25315 -3.10629 0
M  V30 22493 C 2077.56 4.2181 -1.25556 0
M  V30 22494 H 2074.68 0.652242 -0.343145 0
M  V30 22495 H 2077.32 1.2478 -1.43282 0
M  V30 22496 H 2075.47 3.71227 -1.14553 0
M  V30 22497 H 2077.14 2.86637 -3.61438 0
M  V30 22498 H 2075.39 2.64077 -3.4416 0
M  V30 22499 H 2076.06 4.27371 -3.49368 0
M  V30 22500 H 2078.53 3.83365 -1.61772 0
M  V30 22501 H 2077.41 5.21326 -1.71785 0
M  V30 22502 H 2077.67 4.41758 -0.173744 0
M  V30 22503 N 2076.73 0.957992 1.25141 0
M  V30 22504 C 2077.68 0.472054 2.2776 0
M  V30 22505 C 2078.67 -0.459404 1.63052 0
M  V30 22506 O 2079.88 -0.335763 1.76841 0
M  V30 22507 H 2076.25 0.134161 0.739936 0
M  V30 22508 H 2078.22 1.34973 2.6613 0
M  V30 22509 C 2076.97 -0.231515 3.46928 0
M  V30 22510 H 2076.3 0.476093 3.96955 0
M  V30 22511 H 2077.74 -0.535494 4.20605 0
M  V30 22512 C 2076.2 -1.45518 3.03852 0
M  V30 22513 O 2076.73 -2.55274 3.10159 0
M  V30 22514 N 2074.93 -1.31773 2.59006 0
M  V30 22515 H 2074.48 -0.424725 2.54074 0
M  V30 22516 H 2074.44 -2.13762 2.30549 0
M  V30 22517 N 2078.21 -1.39832 0.726957 0
M  V30 22518 C 2079.45 -2.00971 0.271788 0
M  V30 22519 C 2079.79 -1.57537 -1.13559 0
M  V30 22520 O 2079.06 -0.800579 -1.7726 0
M  V30 22521 C 2079.35 -3.5825 0.364596 0
M  V30 22522 C 2079.2 -4.11724 1.81117 0
M  V30 22523 C 2080.52 -4.39345 -0.257652 0
M  V30 22524 H 2077.64 -0.730152 0.100232 0
M  V30 22525 H 2080.28 -1.66152 0.921599 0
M  V30 22526 H 2078.43 -3.88042 -0.18865 0
M  V30 22527 H 2080.1 -3.92684 2.42068 0
M  V30 22528 H 2078.34 -3.65585 2.33516 0
M  V30 22529 H 2079.01 -5.20873 1.82743 0
M  V30 22530 H 2081.49 -4.1555 0.213875 0
M  V30 22531 H 2080.37 -5.4866 -0.162327 0
M  V30 22532 H 2080.63 -4.21218 -1.34267 0
M  V30 22533 N 2079.69 -0.473982 -1.50304 0
M  V30 22534 C 2080.62 0.308532 -2.31453 0
M  V30 22535 C 2081.6 0.987678 -1.38488 0
M  V30 22536 O 2082.78 0.984294 -1.67408 0
M  V30 22537 C 2079.91 1.38921 -3.18305 0
M  V30 22538 C 2078.87 0.831509 -4.19845 0
M  V30 22539 C 2078.19 2.0107 -4.95454 0
M  V30 22540 C 2079.49 -0.159166 -5.22057 0
M  V30 22541 H 2081.19 -0.368757 -2.9712 0
M  V30 22542 H 2078.73 -0.178787 -1.42886 0
M  V30 22543 H 2080.69 1.94415 -3.73873 0
M  V30 22544 H 2079.41 2.09531 -2.50528 0
M  V30 22545 H 2078.07 0.298526 -3.65383 0
M  V30 22546 H 2077.72 2.70384 -4.24148 0
M  V30 22547 H 2077.42 1.64374 -5.64141 0
M  V30 22548 H 2078.94 2.57048 -5.53858 0
M  V30 22549 H 2080.35 0.306691 -5.72479 0
M  V30 22550 H 2078.75 -0.440549 -5.98481 0
M  V30 22551 H 2079.82 -1.08411 -4.72626 0
M  V30 22552 N 2081.16 1.56239 -0.206702 0
M  V30 22553 C 2082.07 2.2324 0.721172 0
M  V30 22554 C 2083.09 1.2352 1.22552 0
M  V30 22555 O 2084.27 1.56291 1.27025 0
M  V30 22556 C 2081.33 2.88767 1.91871 0
M  V30 22557 C 2080.39 4.03791 1.45779 0
M  V30 22558 C 2079.63 4.66183 2.59825 0
M  V30 22559 O 2079.85 4.27524 3.77597 0
M  V30 22560 O 2078.78 5.55444 2.31874 0
M  V30 22561 H 2082.61 3.03163 0.180488 0
M  V30 22562 H 2080.19 1.49382 0.0231036 0
M  V30 22563 H 2082.08 3.30181 2.61837 0
M  V30 22564 H 2080.75 2.11815 2.44777 0
M  V30 22565 H 2079.66 3.66976 0.726587 0
M  V30 22566 H 2080.99 4.82441 0.975269 0
M  V30 22567 N 2082.64 -0.0668159 1.57458 0
M  V30 22568 C 2083.59 -1.09757 2.05076 0
M  V30 22569 C 2084.58 -1.39775 0.957046 0
M  V30 22570 O 2085.79 -1.39123 1.14214 0
M  V30 22571 H 2082.17 -0.371308 0.653938 0
M  V30 22572 H 2084.14 -0.669846 2.90784 0
M  V30 22573 C 2082.89 -2.40144 2.51448 0
M  V30 22574 H 2082.21 -2.17898 3.35202 0
M  V30 22575 H 2083.65 -3.10702 2.88514 0
M  V30 22576 C 2082.11 -3.06457 1.3995 0
M  V30 22577 O 2082.64 -3.94743 0.744392 0
M  V30 22578 N 2080.84 -2.67161 1.14338 0
M  V30 22579 H 2080.39 -1.95457 1.67793 0
M  V30 22580 H 2080.35 -3.11852 0.399425 0
M  V30 22581 N 2084.12 -1.53926 -0.338317 0
M  V30 22582 C 2085.4 -1.62057 -1.09531 0
M  V30 22583 C 2085.78 -0.445104 -2.06354 0
M  V30 22584 O 2085.13 0.56212 -2.21478 0
M  V30 22585 C 2085.34 -2.98376 -1.81033 0
M  V30 22586 C 2086.68 -3.53912 -2.34589 0
M  V30 22587 O 2087.71 -3.00584 -1.91122 0
M  V30 22588 O 2086.57 -4.472 -3.14125 0
M  V30 22589 H 2083.66 -0.655673 -0.504006 0
M  V30 22590 H 2086.21 -1.66272 -0.339391 0
M  V30 22591 H 2084.98 -3.75366 -1.10525 0
M  V30 22592 H 2084.6 -2.97774 -2.6347 0
M  V30 22593 N 2085.6 0.599608 -1.45748 0
M  V30 22594 C 2086.83 1.38483 -1.53721 0
M  V30 22595 C 2087.24 1.8801 -0.172512 0
M  V30 22596 O 2086.6 1.6267 0.82733 0
M  V30 22597 C 2086.65 2.5839 -2.52818 0
M  V30 22598 O 2086.37 2.10918 -3.83986 0
M  V30 22599 C 2087.87 3.51153 -2.70567 0
M  V30 22600 H 2085.09 0.423637 -0.520358 0
M  V30 22601 H 2087.64 0.730527 -1.91007 0
M  V30 22602 H 2085.79 3.19844 -2.18583 0
M  V30 22603 H 2086.21 2.88883 -4.37775 0
M  V30 22604 H 2087.68 4.31811 -3.43865 0
M  V30 22605 H 2088.16 4.02008 -1.7688 0
M  V30 22606 H 2088.76 2.95546 -3.05831 0
M  V30 22607 N 2087.08 1.33171 0.842803 0
M  V30 22608 C 2088.02 1.23097 1.95232 0
M  V30 22609 C 2088.99 0.110469 1.65732 0
M  V30 22610 O 2090.18 0.288065 1.88613 0
M  V30 22611 C 2087.32 0.972118 3.31125 0
M  V30 22612 C 2086.43 2.17852 3.73047 0
M  V30 22613 C 2085.57 1.85415 4.9779 0
M  V30 22614 C 2084.61 3.0231 5.32236 0
M  V30 22615 N 2083.74 2.69887 6.48156 0
M  V30 22616 H 2088.58 2.17995 2.03181 0
M  V30 22617 H 2086.12 1.08406 0.994308 0
M  V30 22618 H 2088.08 0.802486 4.09409 0
M  V30 22619 H 2086.71 0.0598977 3.22744 0
M  V30 22620 H 2085.76 2.45803 2.90318 0
M  V30 22621 H 2087.07 3.05254 3.94489 0
M  V30 22622 H 2086.23 1.65073 5.83812 0
M  V30 22623 H 2084.97 0.952447 4.78309 0
M  V30 22624 H 2083.97 3.2327 4.44721 0
M  V30 22625 H 2085.2 3.93229 5.53667 0
M  V30 22626 H 2083.14 1.82271 6.30169 0
M  V30 22627 H 2083.06 3.50818 6.69673 0
M  V30 22628 H 2084.33 2.53002 7.37299 0
M  V30 22629 N 2088.56 -1.06056 1.16576 0
M  V30 22630 C 2089.5 -2.13591 0.874513 0
M  V30 22631 C 2090.47 -1.65143 -0.178027 0
M  V30 22632 O 2091.66 -1.90752 -0.0427107 0
M  V30 22633 C 2088.8 -3.42953 0.384377 0
M  V30 22634 C 2087.91 -4.05121 1.50002 0
M  V30 22635 C 2087.05 -5.22367 0.964658 0
M  V30 22636 C 2086.08 -5.76525 2.05635 0
M  V30 22637 N 2085.22 -6.85084 1.53639 0
M  V30 22638 H 2090.06 -2.37842 1.79541 0
M  V30 22639 H 2087.6 -1.16692 0.895622 0
M  V30 22640 H 2089.56 -4.1712 0.0818205 0
M  V30 22641 H 2088.19 -3.18911 -0.499573 0
M  V30 22642 H 2087.24 -3.28478 1.91849 0
M  V30 22643 H 2088.55 -4.41366 2.32374 0
M  V30 22644 H 2087.7 -6.03571 0.615426 0
M  V30 22645 H 2086.44 -4.87575 0.110275 0
M  V30 22646 H 2085.45 -4.93957 2.41425 0
M  V30 22647 H 2086.67 -6.13368 2.91474 0
M  V30 22648 H 2084.62 -6.52205 0.70458 0
M  V30 22649 H 2084.54 -7.20283 2.29626 0
M  V30 22650 H 2085.8 -7.6996 1.21581 0
M  V30 22651 N 2090.03 -0.964615 -1.24631 0
M  V30 22652 C 2091.45 -0.670645 -1.44826 0
M  V30 22653 C 2091.65 0.768559 -1.86267 0
M  V30 22654 O 2090.71 1.54279 -1.99886 0
M  V30 22655 C 2092.02 -1.6521 -2.51249 0
M  V30 22656 C 2093.57 -1.66439 -2.65079 0
M  V30 22657 C 2094.04 -2.63374 -3.74697 0
M  V30 22658 N 2095.53 -2.61798 -3.8212 0
M  V30 22659 C 2096.27 -3.33478 -4.66455 0
M  V30 22660 N 2095.76 -4.14664 -5.55 0
M  V30 22661 N 2097.56 -3.22317 -4.60508 0
M  V30 22662 H 2089.71 -1.89453 -0.960277 0
M  V30 22663 H 2091.97 -0.815473 -0.483433 0
M  V30 22664 H 2091.68 -2.68058 -2.2768 0
M  V30 22665 H 2091.55 -1.42244 -3.49351 0
M  V30 22666 H 2093.94 -0.643043 -2.88009 0
M  V30 22667 H 2094.02 -1.93467 -1.67345 0
M  V30 22668 H 2093.66 -3.65641 -3.52518 0
M  V30 22669 H 2093.59 -2.33627 -4.71939 0
M  V30 22670 H 2096.08 -2.02866 -3.18832 0
M  V30 22671 H 2096.4 -4.66253 -6.16302 0
M  V30 22672 H 2094.74 -4.18759 -5.54676 0
M  V30 22673 H 2097.93 -2.58355 -3.90346 0
M  V30 22674 H 2098.11 -3.78443 -5.26008 0
M  V30 22675 N 2091.51 1.39445 -0.734362 0
M  V30 22676 C 2092.42 2.34405 -0.0955161 0
M  V30 22677 C 2093.44 1.58285 0.722625 0
M  V30 22678 O 2094.61 1.9058 0.65124 0
M  V30 22679 C 2091.68 3.3731 0.801447 0
M  V30 22680 C 2090.74 4.2929 -0.0288733 0
M  V30 22681 C 2089.97 5.27279 0.825373 0
M  V30 22682 O 2090.2 5.31743 2.06411 0
M  V30 22683 O 2089.13 6.01362 0.254373 0
M  V30 22684 H 2092.96 2.90693 -0.879273 0
M  V30 22685 H 2090.54 1.4096 -0.495025 0
M  V30 22686 H 2092.42 4.00368 1.31468 0
M  V30 22687 H 2091.1 2.83408 1.56403 0
M  V30 22688 H 2090 3.69456 -0.587608 0
M  V30 22689 H 2091.34 4.86396 -0.753661 0
M  V30 22690 N 2092.99 0.481946 1.5005 0
M  V30 22691 C 2094.27 -0.131379 1.95158 0
M  V30 22692 C 2094.65 -1.55951 1.42276 0
M  V30 22693 O 2093.99 -2.19691 0.62835 0
M  V30 22694 C 2094.2 -0.0635771 3.48942 0
M  V30 22695 C 2095.55 -0.247054 4.23881 0
M  V30 22696 O 2096.58 -0.139659 3.55926 0
M  V30 22697 O 2095.44 -0.465153 5.44517 0
M  V30 22698 H 2092.53 -0.105746 0.820211 0
M  V30 22699 H 2095.08 0.543125 1.60774 0
M  V30 22700 H 2093.85 0.933103 3.80012 0
M  V30 22701 H 2093.47 -0.779065 3.89893 0
M  V30 22702 N 2094.47 -1.56127 0.214985 0
M  V30 22703 C 2095.72 -1.97304 -0.41881 0
M  V30 22704 C 2096.03 -1.10547 -1.61366 0
M  V30 22705 O 2097.24 -1.41593 -2.31654 0
M  V30 22706 C 2095.69 -3.50975 -0.796509 0
M  V30 22707 C 2095.3 -4.46426 0.375156 0
M  V30 22708 C 2097.04 -4.0088 -1.39627 0
M  V30 22709 C 2094.95 -5.91395 -0.0246118 0
M  V30 22710 H 2093.88 -0.736775 -0.160246 0
M  V30 22711 H 2096.53 -1.8086 0.310157 0
M  V30 22712 H 2094.91 -3.62996 -1.58271 0
M  V30 22713 H 2096.09 -4.46149 1.15271 0
M  V30 22714 H 2094.4 -4.06827 0.887721 0
M  V30 22715 H 2097 -5.06681 -1.70816 0
M  V30 22716 H 2097.34 -3.46346 -2.30977 0
M  V30 22717 H 2097.88 -3.92055 -0.673641 0
M  V30 22718 H 2094.61 -6.49897 0.855201 0
M  V30 22719 H 2094.13 -5.94881 -0.766611 0
M  V30 22720 H 2095.81 -6.45408 -0.453573 0
M  V30 22721 N 2095.95 0.0584645 -1.57492 0
M  V30 22722 C 2096.89 1.08667 -2.05655 0
M  V30 22723 C 2097.89 1.39265 -0.964446 0
M  V30 22724 O 2099.09 1.38515 -1.1495 0
M  V30 22725 H 2095.47 0.367834 -0.655898 0
M  V30 22726 H 2097.44 0.654416 -2.91136 0
M  V30 22727 C 2096.19 2.38807 -2.52718 0
M  V30 22728 H 2095.51 2.16117 -3.36353 0
M  V30 22729 H 2096.95 3.09167 -2.90158 0
M  V30 22730 C 2095.41 3.0571 -1.41573 0
M  V30 22731 O 2095.94 3.94342 -0.765316 0
M  V30 22732 N 2094.15 2.66551 -1.15754 0
M  V30 22733 H 2093.69 1.94564 -1.68827 0
M  V30 22734 H 2093.65 3.11636 -0.415957 0
M  V30 22735 N 2097.42 1.54103 0.330149 0
M  V30 22736 C 2098.65 1.75948 1.08857 0
M  V30 22737 C 2099.07 0.504949 1.81922 0
M  V30 22738 O 2098.42 -0.524053 1.74814 0
M  V30 22739 C 2098.47 2.94836 2.09175 0
M  V30 22740 O 2098.2 4.15438 1.39079 0
M  V30 22741 C 2099.7 3.28839 2.97287 0
M  V30 22742 H 2096.92 0.587551 0.324076 0
M  V30 22743 H 2099.46 2.00971 0.378279 0
M  V30 22744 H 2097.62 2.72105 2.75749 0
M  V30 22745 H 2098.03 4.82266 2.06204 0
M  V30 22746 H 2099.5 4.15343 3.63586 0
M  V30 22747 H 2099.98 2.4572 3.64031 0
M  V30 22748 H 2100.59 3.53624 2.36284 0
M  V30 22749 N 2098.9 -0.59187 1.46064 0
M  V30 22750 C 2100.13 -1.37666 1.54453 0
M  V30 22751 C 2100.55 -1.87916 0.18248 0
M  V30 22752 O 2099.9 -1.63106 -0.818692 0
M  V30 22753 C 2099.95 -2.57045 2.54185 0
M  V30 22754 O 2099.67 -2.08879 3.85099 0
M  V30 22755 C 2101.18 -3.49713 2.72426 0
M  V30 22756 H 2098.4 -0.420872 0.522597 0
M  V30 22757 H 2100.94 -0.720387 1.91391 0
M  V30 22758 H 2099.09 -3.18681 2.20276 0
M  V30 22759 H 2099.51 -2.86557 4.39301 0
M  V30 22760 H 2100.98 -4.29981 3.4615 0
M  V30 22761 H 2101.46 -4.01064 1.7901 0
M  V30 22762 H 2102.07 -2.9392 3.07395 0
M  V30 22763 N 2100.38 -1.33616 -0.835729 0
M  V30 22764 C 2101.61 -1.28297 -1.62319 0
M  V30 22765 C 2102.02 0.145496 -1.88239 0
M  V30 22766 O 2101.38 1.08862 -1.46476 0
M  V30 22767 C 2101.43 -2.05863 -2.97158 0
M  V30 22768 O 2101.15 -3.43137 -2.72375 0
M  V30 22769 C 2102.65 -2.07791 -3.91584 0
M  V30 22770 H 2099.87 -0.441872 -0.504966 0
M  V30 22771 H 2102.42 -1.76036 -1.04075 0
M  V30 22772 H 2100.57 -1.61799 -3.51994 0
M  V30 22773 H 2100.99 -3.83078 -3.58262 0
M  V30 22774 H 2102.46 -2.66511 -4.834 0
M  V30 22775 H 2102.94 -1.06897 -4.25993 0
M  V30 22776 H 2103.54 -2.51888 -3.42684 0
M  V30 22777 N 2101.86 1.05436 -1.17136 0
M  V30 22778 C 2103.1 1.78658 -0.959644 0
M  V30 22779 C 2103.44 1.87366 0.510659 0
M  V30 22780 O 2102.71 1.37162 1.37901 0
M  V30 22781 C 2103 3.22682 -1.59839 0
M  V30 22782 C 2102.85 3.22002 -3.14062 0
M  V30 22783 C 2104.17 4.20454 -1.30023 0
M  V30 22784 H 2101.29 0.648566 -0.350044 0
M  V30 22785 H 2103.93 1.23254 -1.44598 0
M  V30 22786 H 2102.08 3.69992 -1.18484 0
M  V30 22787 H 2103.75 2.82787 -3.64457 0
M  V30 22788 H 2101.99 2.60411 -3.46941 0
M  V30 22789 H 2102.66 4.23642 -3.53881 0
M  V30 22790 H 2105.14 3.81628 -1.65829 0
M  V30 22791 H 2104.02 5.19475 -1.77304 0
M  V30 22792 H 2104.28 4.41549 -0.220588 0
M  V30 22793 N 2103.34 0.971211 1.24118 0
M  V30 22794 C 2104.58 0.635022 1.92286 0
M  V30 22795 C 2104.91 -0.83026 1.75889 0
M  V30 22796 O 2104.17 -1.61322 1.10786 0
M  V30 22797 C 2104.47 0.960091 3.44263 0
M  V30 22798 C 2104.13 2.41409 3.80832 0
M  V30 22799 C 2102.79 2.81148 3.90524 0
M  V30 22800 C 2105.15 3.35755 3.98645 0
M  V30 22801 C 2102.47 4.14268 4.15451 0
M  V30 22802 C 2104.83 4.68508 4.25069 0
M  V30 22803 C 2103.49 5.08019 4.32981 0
M  V30 22804 H 2102.76 0.232371 0.703623 0
M  V30 22805 H 2105.41 1.22335 1.47331 0
M  V30 22806 H 2103.71 0.289561 3.90729 0
M  V30 22807 H 2105.41 0.678313 3.95221 0
M  V30 22808 H 2102 2.09597 3.73855 0
M  V30 22809 H 2106.18 3.06236 3.90555 0
M  V30 22810 H 2101.44 4.445 4.19797 0
M  V30 22811 H 2105.61 5.41579 4.37796 0
M  V30 22812 H 2103.24 6.11192 4.52049 0
M  V30 22813 N 2104.81 -1.39054 0.741747 0
M  V30 22814 C 2105.75 -2.28134 0.0548289 0
M  V30 22815 C 2106.73 -1.4475 -0.740697 0
M  V30 22816 O 2107.91 -1.74132 -0.721832 0
M  V30 22817 C 2105.04 -3.25699 -0.92941 0
M  V30 22818 C 2104.08 -4.25924 -0.221557 0
M  V30 22819 S 2104.92 -5.24716 1.06927 0
M  V30 22820 C 2106.07 -6.25838 0.0878046 0
M  V30 22821 H 2106.3 -2.86046 0.810253 0
M  V30 22822 H 2103.84 -1.44878 0.533825 0
M  V30 22823 H 2105.8 -3.82427 -1.49197 0
M  V30 22824 H 2104.46 -2.66793 -1.65772 0
M  V30 22825 H 2103.65 -4.94645 -0.966549 0
M  V30 22826 H 2103.25 -3.7303 0.269156 0
M  V30 22827 H 2105.54 -6.73333 -0.750286 0
M  V30 22828 H 2106.49 -7.04198 0.742344 0
M  V30 22829 H 2106.89 -5.63767 -0.287607 0
M  V30 22830 N 2106.29 -0.489897 -1.49792 0
M  V30 22831 C 2107.2 0.29927 -2.32683 0
M  V30 22832 C 2108.22 0.978042 -1.43911 0
M  V30 22833 O 2109.39 0.961875 -1.76946 0
M  V30 22834 C 2106.46 1.35623 -3.19073 0
M  V30 22835 C 2105.52 0.692067 -4.23685 0
M  V30 22836 C 2104.75 1.69866 -5.05946 0
M  V30 22837 O 2104.98 2.92732 -4.89555 0
M  V30 22838 O 2103.91 1.2601 -5.88562 0
M  V30 22839 H 2107.74 -0.378894 -3.01327 0
M  V30 22840 H 2105.32 -0.251411 -1.47269 0
M  V30 22841 H 2107.2 1.96801 -3.72622 0
M  V30 22842 H 2105.88 2.01752 -2.53136 0
M  V30 22843 H 2104.79 0.040831 -3.74078 0
M  V30 22844 H 2106.12 0.0734074 -4.92145 0
M  V30 22845 N 2107.77 1.56011 -0.223262 0
M  V30 22846 C 2109.02 1.97956 0.407171 0
M  V30 22847 C 2109.34 1.11219 1.60173 0
M  V30 22848 O 2108.61 0.189604 1.9498 0
M  V30 22849 H 2107.19 0.731075 0.153424 0
M  V30 22850 H 2109.85 1.92312 -0.316554 0
M  V30 22851 H 2108.95 3.03386 0.732342 0
M  V30 22852 N 2109.25 -0.0501116 1.5752 0
M  V30 22853 C 2110.18 -1.08434 2.01928 0
M  V30 22854 C 2111.19 -1.33718 0.928613 0
M  V30 22855 O 2112.38 -1.31576 1.20623 0
M  V30 22856 C 2109.48 -2.43065 2.36162 0
M  V30 22857 C 2108.66 -2.37433 3.67347 0
M  V30 22858 C 2107.71 -3.54345 3.89007 0
M  V30 22859 O 2106.74 -3.3479 4.60331 0
M  V30 22860 N 2107.94 -4.75475 3.33022 0
M  V30 22861 H 2110.71 -0.705995 2.91266 0
M  V30 22862 H 2108.27 -0.238421 1.60135 0
M  V30 22863 H 2110.26 -3.19959 2.47807 0
M  V30 22864 H 2108.83 -2.72821 1.52603 0
M  V30 22865 H 2108.05 -1.45778 3.66254 0
M  V30 22866 H 2109.34 -2.30792 4.53445 0
M  V30 22867 H 2108.74 -4.94264 2.75171 0
M  V30 22868 H 2107.29 -5.49806 3.50081 0
M  V30 22869 N 2110.73 -1.54276 -0.321972 0
M  V30 22870 C 2111.67 -1.84499 -1.41644 0
M  V30 22871 C 2112.67 -0.717018 -1.53477 0
M  V30 22872 O 2113.87 -0.900704 -1.55844 0
M  V30 22873 H 2110.25 -0.584855 -0.472704 0
M  V30 22874 H 2112.22 -2.76022 -1.13378 0
M  V30 22875 C 2110.97 -2.09051 -2.77836 0
M  V30 22876 H 2110.29 -2.95308 -2.69505 0
M  V30 22877 H 2111.73 -2.3415 -3.53482 0
M  V30 22878 C 2110.19 -0.882537 -3.25135 0
M  V30 22879 O 2110.72 -0.0925862 -4.01593 0
M  V30 22880 N 2108.93 -0.693729 -2.82198 0
M  V30 22881 H 2108.47 -1.33776 -2.2014 0
M  V30 22882 H 2108.43 0.113 -3.14197 0
M  V30 22883 N 2112.2 0.584116 -1.46376 0
M  V30 22884 C 2113.43 1.37331 -1.55419 0
M  V30 22885 C 2113.85 1.87082 -0.195472 0
M  V30 22886 O 2113.21 1.61486 0.824141 0
M  V30 22887 C 2113.26 2.53779 -2.56181 0
M  V30 22888 O 2112.36 3.55172 -2.09586 0
M  V30 22889 H 2111.71 0.409042 -0.523049 0
M  V30 22890 H 2114.24 0.708655 -1.91936 0
M  V30 22891 H 2114.25 3.00715 -2.75744 0
M  V30 22892 H 2112.92 2.16921 -3.5485 0
M  V30 22893 H 2111.5 3.14726 -2.00005 0
M  V30 22894 N 2113.68 1.34058 0.828631 0
M  V30 22895 C 2114.93 1.2628 1.58686 0
M  V30 22896 C 2115.26 -0.168425 1.93468 0
M  V30 22897 O 2114.54 -1.11237 1.59551 0
M  V30 22898 C 2114.82 2.14808 2.89015 0
M  V30 22899 C 2114.67 3.66439 2.60849 0
M  V30 22900 C 2115.99 2.02902 3.90536 0
M  V30 22901 H 2113.11 0.460068 0.575766 0
M  V30 22902 H 2115.75 1.64256 0.954988 0
M  V30 22903 H 2113.9 1.82551 3.42939 0
M  V30 22904 H 2115.58 4.09036 2.13278 0
M  V30 22905 H 2113.82 3.87811 1.94384 0
M  V30 22906 H 2114.49 4.23742 3.53761 0
M  V30 22907 H 2116.97 2.31212 3.45948 0
M  V30 22908 H 2115.84 2.6708 4.79541 0
M  V30 22909 H 2116.1 1.00429 4.30542 0
M  V30 22910 N 2115.16 -1.04814 1.17694 0
M  V30 22911 C 2116.41 -1.77277 0.962076 0
M  V30 22912 C 2116.72 -1.88834 -0.509992 0
M  V30 22913 O 2117.93 -2.58075 -0.843166 0
M  V30 22914 C 2116.39 -3.18693 1.67221 0
M  V30 22915 C 2115.99 -3.15253 3.18308 0
M  V30 22916 C 2117.74 -3.95585 1.53988 0
M  V30 22917 C 2115.64 -4.51481 3.81993 0
M  V30 22918 H 2114.57 -0.66449 0.356328 0
M  V30 22919 H 2117.23 -1.17451 1.40988 0
M  V30 22920 H 2115.61 -3.78868 1.15216 0
M  V30 22921 H 2116.78 -2.64573 3.77277 0
M  V30 22922 H 2115.1 -2.51859 3.31596 0
M  V30 22923 H 2117.69 -4.96315 1.98937 0
M  V30 22924 H 2118.04 -4.13394 0.491003 0
M  V30 22925 H 2118.57 -3.41967 2.03232 0
M  V30 22926 H 2115.31 -4.38877 4.86895 0
M  V30 22927 H 2114.83 -5.02295 3.27811 0
M  V30 22928 H 2116.51 -5.20413 3.84421 0
M  V30 22929 N 2116.64 -0.977779 -1.23601 0
M  V30 22930 C 2117.59 -0.508228 -2.2698 0
M  V30 22931 C 2118.58 0.433405 -1.63762 0
M  V30 22932 O 2119.79 0.307586 -1.77352 0
M  V30 22933 H 2116.16 -0.145916 -0.737708 0
M  V30 22934 H 2118.13 -1.39189 -2.63949 0
M  V30 22935 C 2116.88 0.176292 -3.47253 0
M  V30 22936 H 2116.21 -0.539185 -3.96147 0
M  V30 22937 H 2117.65 0.468511 -4.21404 0
M  V30 22938 C 2116.1 1.40665 -3.06129 0
M  V30 22939 O 2116.63 2.50307 -3.1418 0
M  V30 22940 N 2114.84 1.27636 -2.6107 0
M  V30 22941 H 2114.39 0.38425 -2.54718 0
M  V30 22942 H 2114.35 2.10067 -2.33921 0
M  V30 22943 N 2118.12 1.38658 -0.749111 0
M  V30 22944 C 2119.07 2.3235 -0.10773 0
M  V30 22945 C 2120.06 1.5379 0.710284 0
M  V30 22946 O 2121.27 1.69353 0.609885 0
M  V30 22947 H 2117.64 0.751829 -0.0160406 0
M  V30 22948 H 2119.61 2.84055 -0.91408 0
M  V30 22949 C 2118.36 3.38962 0.774615 0
M  V30 22950 H 2117.68 3.99501 0.154555 0
M  V30 22951 H 2119.12 4.06936 1.19076 0
M  V30 22952 C 2117.58 2.77165 1.91524 0
M  V30 22953 O 2118.11 2.66119 3.00904 0
M  V30 22954 N 2116.32 2.35041 1.70892 0
M  V30 22955 H 2115.87 2.44224 0.819286 0
M  V30 22956 H 2115.82 1.94035 2.47382 0
M  V30 22957 N 2119.6 0.497834 1.49531 0
M  V30 22958 C 2120.54 -0.282279 2.29067 0
M  V30 22959 C 2121.51 -0.963221 1.35319 0
M  V30 22960 O 2122.7 -0.970497 1.64274 0
M  V30 22961 C 2119.84 -1.34265 3.1791 0
M  V30 22962 C 2118.95 -0.673799 4.26713 0
M  V30 22963 C 2118.09 -1.71434 5.02776 0
M  V30 22964 C 2117.12 -1.02719 6.0342 0
M  V30 22965 N 2116.26 -2.01178 6.7266 0
M  V30 22966 H 2121.1 0.402227 2.95273 0
M  V30 22967 H 2118.64 0.210203 1.4559 0
M  V30 22968 H 2120.6 -1.96938 3.67792 0
M  V30 22969 H 2119.23 -1.99596 2.53695 0
M  V30 22970 H 2118.28 0.0661428 3.80342 0
M  V30 22971 H 2119.59 -0.132722 4.98623 0
M  V30 22972 H 2118.74 -2.4162 5.56511 0
M  V30 22973 H 2117.48 -2.28926 4.30632 0
M  V30 22974 H 2116.49 -0.311083 5.48919 0
M  V30 22975 H 2117.71 -0.458799 6.77548 0
M  V30 22976 H 2115.66 -2.57639 6.0329 0
M  V30 22977 H 2115.58 -1.52128 7.40536 0
M  V30 22978 H 2116.84 -2.70663 7.31001 0
M  V30 22979 N 2121.07 -1.5589 0.231532 0
M  V30 22980 C 2122.02 -2.22104 -0.690835 0
M  V30 22981 C 2123.02 -1.20363 -1.19202 0
M  V30 22982 O 2124.22 -1.38416 -1.1507 0
M  V30 22983 H 2120.6 -0.712259 -0.241228 0
M  V30 22984 H 2122.57 -2.98201 -0.109056 0
M  V30 22985 C 2121.32 -2.92249 -1.88377 0
M  V30 22986 H 2120.64 -3.703 -1.50725 0
M  V30 22987 H 2122.08 -3.41964 -2.50672 0
M  V30 22988 C 2120.54 -1.95268 -2.7454 0
M  V30 22989 O 2121.07 -1.47596 -3.73602 0
M  V30 22990 N 2119.27 -1.62701 -2.40783 0
M  V30 22991 H 2118.82 -2.01663 -1.6028 0
M  V30 22992 H 2118.78 -0.98076 -2.98711 0
M  V30 22993 N 2122.55 0.0417572 -1.57545 0
M  V30 22994 C 2123.5 1.04629 -2.05722 0
M  V30 22995 C 2124.47 1.36684 -0.943754 0
M  V30 22996 O 2125.65 1.47239 -1.21348 0
M  V30 22997 C 2122.79 2.34601 -2.53093 0
M  V30 22998 C 2121.91 2.08815 -3.7818 0
M  V30 22999 C 2121.04 3.32567 -4.14214 0
M  V30 23000 C 2120.08 3.02279 -5.32254 0
M  V30 23001 N 2119.22 4.18445 -5.6378 0
M  V30 23002 H 2124.06 0.628491 -2.91297 0
M  V30 23003 H 2121.59 0.298725 -1.44035 0
M  V30 23004 H 2123.55 3.10525 -2.78621 0
M  V30 23005 H 2122.18 2.74127 -1.70453 0
M  V30 23006 H 2121.23 1.23445 -3.59813 0
M  V30 23007 H 2122.55 1.82464 -4.64229 0
M  V30 23008 H 2121.7 4.16867 -4.40802 0
M  V30 23009 H 2120.44 3.6202 -3.26791 0
M  V30 23010 H 2119.44 2.16378 -5.05431 0
M  V30 23011 H 2120.67 2.74116 -6.21319 0
M  V30 23012 H 2118.62 4.47874 -4.79317 0
M  V30 23013 H 2118.53 3.95473 -6.44311 0
M  V30 23014 H 2119.8 5.03656 -5.94938 0
M  V30 23015 N 2124.03 1.54445 0.313786 0
M  V30 23016 C 2124.94 1.87547 1.40937 0
M  V30 23017 C 2125.96 0.768341 1.56117 0
M  V30 23018 O 2127.13 1.06358 1.71026 0
M  V30 23019 C 2124.2 2.10467 2.75508 0
M  V30 23020 C 2123.26 3.34232 2.69421 0
M  V30 23021 C 2122.49 3.56049 3.97574 0
M  V30 23022 O 2122.71 2.81118 4.96316 0
M  V30 23023 O 2121.65 4.49546 4.0024 0
M  V30 23024 H 2125.47 2.80728 1.15868 0
M  V30 23025 H 2123.06 1.40473 0.508698 0
M  V30 23026 H 2124.94 2.26817 3.55151 0
M  V30 23027 H 2123.62 1.20474 3.00446 0
M  V30 23028 H 2122.52 3.23259 1.88294 0
M  V30 23029 H 2123.86 4.24314 2.49436 0
M  V30 23030 N 2125.51 -0.576345 1.46683 0
M  V30 23031 C 2126.46 -1.70601 1.58108 0
M  V30 23032 C 2127.45 -1.63334 0.449247 0
M  V30 23033 O 2128.66 -1.68751 0.626355 0
M  V30 23034 H 2125.03 -0.564161 0.497218 0
M  V30 23035 H 2127 -1.58098 2.53076 0
M  V30 23036 C 2125.75 -3.08983 1.59452 0
M  V30 23037 H 2125.07 -3.15247 2.45885 0
M  V30 23038 H 2126.51 -3.87768 1.715 0
M  V30 23039 C 2124.97 -3.35335 0.324303 0
M  V30 23040 O 2125.5 -3.9745 -0.58277 0
M  V30 23041 N 2123.71 -2.89838 0.21024 0
M  V30 23042 H 2123.26 -2.39471 0.949293 0
M  V30 23043 H 2123.21 -3.07843 -0.638752 0
M  V30 23044 N 2126.99 -1.34495 -0.82151 0
M  V30 23045 C 2128.21 -1.30164 -1.61468 0
M  V30 23046 C 2128.64 0.121303 -1.87708 0
M  V30 23047 O 2127.99 1.08349 -1.45362 0
M  V30 23048 C 2128.04 -2.09951 -2.93177 0
M  V30 23049 O 2127.15 -1.47 -3.85311 0
M  V30 23050 H 2126.49 -0.446975 -0.491029 0
M  V30 23051 H 2129.02 -1.77318 -1.02075 0
M  V30 23052 H 2129.03 -2.21359 -3.4273 0
M  V30 23053 H 2127.7 -3.13407 -2.73402 0
M  V30 23054 H 2126.28 -1.44343 -3.4383 0
M  V30 23055 N 2128.46 1.04188 -1.18248 0
M  V30 23056 C 2129.69 1.81559 -1.00255 0
M  V30 23057 C 2130.11 1.82777 0.444336 0
M  V30 23058 O 2129.47 1.24417 1.31872 0
M  V30 23059 C 2129.52 3.25089 -1.56044 0
M  V30 23060 O 2128.62 4.04938 -0.780971 0
M  V30 23061 H 2127.97 0.560976 -0.355248 0
M  V30 23062 H 2130.5 1.31223 -1.56977 0
M  V30 23063 H 2130.51 3.75869 -1.58703 0
M  V30 23064 H 2129.18 3.23517 -2.61361 0
M  V30 23065 H 2127.76 3.63623 -0.826593 0
M  V30 23066 N 2129.94 0.98432 1.23081 0
M  V30 23067 C 2130.87 0.547274 2.26996 0
M  V30 23068 C 2131.85 -0.421528 1.64794 0
M  V30 23069 O 2133.04 -0.314036 1.91644 0
M  V30 23070 C 2130.17 -0.147283 3.46988 0
M  V30 23071 C 2129.12 0.739194 4.21568 0
M  V30 23072 C 2128.45 -0.0877981 5.34628 0
M  V30 23073 C 2129.75 2.03191 4.81156 0
M  V30 23074 H 2131.44 1.41586 2.63806 0
M  V30 23075 H 2128.99 0.682245 1.26813 0
M  V30 23076 H 2130.94 -0.464368 4.18834 0
M  V30 23077 H 2129.67 -1.05035 3.09249 0
M  V30 23078 H 2128.32 1.03979 3.51545 0
M  V30 23079 H 2127.97 -0.99152 4.93131 0
M  V30 23080 H 2127.67 0.50225 5.8545 0
M  V30 23081 H 2129.2 -0.399175 6.09294 0
M  V30 23082 H 2130.61 1.77933 5.44989 0
M  V30 23083 H 2129.01 2.57006 5.4228 0
M  V30 23084 H 2130.08 2.71622 4.01684 0
M  V30 23085 N 2131.42 -1.38259 0.756453 0
M  V30 23086 C 2132.35 -2.33042 0.146158 0
M  V30 23087 C 2133.33 -1.55012 -0.700373 0
M  V30 23088 O 2134.52 -1.83317 -0.640972 0
M  V30 23089 C 2131.65 -3.39202 -0.745585 0
M  V30 23090 C 2130.6 -4.28 -0.00155995 0
M  V30 23091 C 2129.93 -5.25041 -1.01174 0
M  V30 23092 C 2131.23 -5.09061 1.16852 0
M  V30 23093 H 2132.92 -2.84329 0.937934 0
M  V30 23094 H 2130.47 -1.36706 0.452478 0
M  V30 23095 H 2132.42 -4.04477 -1.18223 0
M  V30 23096 H 2131.14 -2.86405 -1.56971 0
M  V30 23097 H 2129.8 -3.64236 0.415692 0
M  V30 23098 H 2129.45 -4.68529 -1.83001 0
M  V30 23099 H 2129.15 -5.85307 -0.518554 0
M  V30 23100 H 2130.67 -5.93191 -1.44764 0
M  V30 23101 H 2132.09 -5.67559 0.809284 0
M  V30 23102 H 2130.49 -5.78577 1.59276 0
M  V30 23103 H 2131.56 -4.42631 1.98004 0
M  V30 23104 N 2132.9 -0.505757 -1.49264 0
M  V30 23105 C 2133.85 0.270127 -2.29214 0
M  V30 23106 C 2134.82 0.956031 -1.35828 0
M  V30 23107 O 2136 0.961771 -1.64787 0
M  V30 23108 C 2133.14 1.32577 -3.18618 0
M  V30 23109 C 2132.25 0.65116 -4.27064 0
M  V30 23110 C 2131.39 1.68765 -5.03678 0
M  V30 23111 C 2130.43 0.995172 -6.03956 0
M  V30 23112 N 2129.56 1.97608 -6.73718 0
M  V30 23113 H 2134.4 -0.41788 -2.95056 0
M  V30 23114 H 2131.94 -0.217921 -1.45477 0
M  V30 23115 H 2133.9 1.94985 -3.68832 0
M  V30 23116 H 2132.53 1.98248 -2.5475 0
M  V30 23117 H 2131.58 -0.0863124 -3.80302 0
M  V30 23118 H 2132.89 0.106277 -4.98687 0
M  V30 23119 H 2132.05 2.38665 -5.57785 0
M  V30 23120 H 2130.79 2.2664 -4.3184 0
M  V30 23121 H 2129.79 0.281968 -5.49076 0
M  V30 23122 H 2131.02 0.422861 -6.77782 0
M  V30 23123 H 2128.96 2.54436 -6.04647 0
M  V30 23124 H 2128.88 1.48199 -7.41332 0
M  V30 23125 H 2130.15 2.66782 -7.32426 0
M  V30 23126 N 2134.38 1.55765 -0.239796 0
M  V30 23127 C 2135.62 1.98377 0.386152 0
M  V30 23128 C 2135.95 1.12912 1.58984 0
M  V30 23129 O 2135.22 0.210274 1.94768 0
M  V30 23130 H 2133.8 0.732661 0.145661 0
M  V30 23131 H 2136.46 1.91966 -0.336934 0
M  V30 23132 H 2135.55 3.04146 0.700123 0
M  V30 23133 N 2135.85 -0.0334016 1.57565 0
M  V30 23134 C 2137.13 -0.760253 1.80221 0
M  V30 23135 C 2137.51 -1.93806 0.836817 0
M  V30 23136 O 2136.86 -2.28174 -0.121959 0
M  V30 23137 C 2137.07 -1.19735 3.27818 0
M  V30 23138 C 2138.42 -1.61505 3.92685 0
M  V30 23139 O 2139.44 -1.29204 3.31941 0
M  V30 23140 O 2138.3 -2.21441 4.99626 0
M  V30 23141 H 2135.39 -0.36729 0.740964 0
M  V30 23142 H 2137.94 -0.0105137 1.69697 0
M  V30 23143 H 2136.71 -0.356354 3.89674 0
M  V30 23144 H 2136.34 -2.00724 3.43214 0
M  V30 23145 N 2137.33 -1.54609 -0.305591 0
M  V30 23146 C 2138.24 -1.88292 -1.3994 0
M  V30 23147 C 2139.26 -0.77661 -1.55707 0
M  V30 23148 O 2140.43 -1.07264 -1.7046 0
M  V30 23149 C 2137.5 -2.11925 -2.74388 0
M  V30 23150 C 2136.56 -3.35656 -2.67644 0
M  V30 23151 C 2135.79 -3.58152 -3.9568 0
M  V30 23152 O 2136.02 -2.83746 -4.94818 0
M  V30 23153 O 2134.95 -4.51662 -3.97851 0
M  V30 23154 H 2138.78 -2.81339 -1.14378 0
M  V30 23155 H 2136.36 -1.40741 -0.501242 0
M  V30 23156 H 2138.24 -2.28697 -3.53943 0
M  V30 23157 H 2136.92 -1.22065 -2.99803 0
M  V30 23158 H 2135.83 -3.24253 -1.86577 0
M  V30 23159 H 2137.16 -4.25631 -2.47182 0
M  V30 23160 N 2138.81 0.568558 -1.46987 0
M  V30 23161 C 2139.72 1.70416 -1.61232 0
M  V30 23162 C 2140.74 1.66798 -0.495411 0
M  V30 23163 O 2141.91 1.86451 -0.761438 0
M  V30 23164 C 2138.98 3.06924 -1.6124 0
M  V30 23165 C 2138.04 3.21697 -2.8427 0
M  V30 23166 C 2137.27 4.51694 -2.84268 0
M  V30 23167 O 2137.49 5.36458 -1.93827 0
M  V30 23168 O 2136.43 4.70015 -3.75991 0
M  V30 23169 H 2140.25 1.61343 -2.57298 0
M  V30 23170 H 2137.84 0.737255 -1.29942 0
M  V30 23171 H 2139.72 3.88182 -1.6399 0
M  V30 23172 H 2138.4 3.16404 -0.683373 0
M  V30 23173 H 2137.3 2.39879 -2.87069 0
M  V30 23174 H 2138.64 3.17115 -3.76429 0
M  V30 23175 N 2140.29 1.34929 0.814366 0
M  V30 23176 C 2141.57 1.18339 1.55741 0
M  V30 23177 C 2141.95 -0.240616 2.09724 0
M  V30 23178 O 2141.29 -1.2431 1.91727 0
M  V30 23179 C 2141.5 2.24503 2.67206 0
M  V30 23180 C 2142.85 2.59917 3.35751 0
M  V30 23181 O 2143.88 2.23358 2.7747 0
M  V30 23182 O 2142.73 3.22749 4.41017 0
M  V30 23183 H 2139.83 0.459265 0.687753 0
M  V30 23184 H 2142.37 1.46587 0.854999 0
M  V30 23185 H 2141.15 3.20048 2.25133 0
M  V30 23186 H 2140.77 1.9748 3.4509 0
M  V30 23187 N 2141.77 -1.0356 1.18799 0
M  V30 23188 C 2143.02 -1.76246 0.980824 0
M  V30 23189 C 2143.33 -1.89365 -0.489935 0
M  V30 23190 O 2144.53 -2.58955 -0.815746 0
M  V30 23191 C 2142.99 -3.16901 1.70592 0
M  V30 23192 C 2142.6 -3.11859 3.21633 0
M  V30 23193 C 2144.34 -3.9393 1.58175 0
M  V30 23194 C 2142.25 -4.47404 3.8676 0
M  V30 23195 H 2141.18 -0.660673 0.363355 0
M  V30 23196 H 2143.83 -1.15949 1.42225 0
M  V30 23197 H 2142.21 -3.77625 1.19228 0
M  V30 23198 H 2143.39 -2.60556 3.80062 0
M  V30 23199 H 2141.7 -2.48328 3.34249 0
M  V30 23200 H 2144.3 -4.94177 2.0419 0
M  V30 23201 H 2144.64 -4.1285 0.534821 0
M  V30 23202 H 2145.17 -3.39792 2.06848 0
M  V30 23203 H 2141.91 -4.33688 4.91523 0
M  V30 23204 H 2141.43 -4.9879 3.3312 0
M  V30 23205 H 2143.11 -5.16306 3.89919 0
M  V30 23206 N 2143.25 -0.990834 -1.22557 0
M  V30 23207 C 2144.49 -0.666519 -1.91534 0
M  V30 23208 C 2144.82 0.799165 -1.76994 0
M  V30 23209 O 2144.1 1.57769 -1.13751 0
M  V30 23210 C 2144.38 -1.07064 -3.43816 0
M  V30 23211 C 2144.24 -2.59473 -3.67415 0
M  V30 23212 C 2145.55 -0.622332 -4.35678 0
M  V30 23213 H 2142.67 -0.243613 -0.695573 0
M  V30 23214 H 2145.32 -1.23399 -1.44474 0
M  V30 23215 H 2143.47 -0.587797 -3.84028 0
M  V30 23216 H 2145.14 -3.15412 -3.3662 0
M  V30 23217 H 2143.38 -3.01635 -3.11767 0
M  V30 23218 H 2144.05 -2.828 -4.74055 0
M  V30 23219 H 2146.53 -1.03704 -4.0297 0
M  V30 23220 H 2145.4 -0.933416 -5.40905 0
M  V30 23221 H 2145.66 0.477057 -4.39519 0
M  V30 23222 N 2144.72 1.37856 -0.763775 0
M  V30 23223 C 2145.66 2.28018 -0.0911161 0
M  V30 23224 C 2146.63 1.4591 0.717575 0
M  V30 23225 O 2147.82 1.75258 0.694038 0
M  V30 23226 C 2144.95 3.27136 0.877477 0
M  V30 23227 C 2143.99 4.26223 0.153768 0
M  V30 23228 S 2144.82 5.22948 -1.15262 0
M  V30 23229 C 2145.98 6.2562 -0.187359 0
M  V30 23230 H 2146.21 2.84721 -0.855658 0
M  V30 23231 H 2143.75 1.44011 -0.556806 0
M  V30 23232 H 2145.7 3.84752 1.43094 0
M  V30 23233 H 2144.37 2.69396 1.61507 0
M  V30 23234 H 2143.56 4.9612 0.887733 0
M  V30 23235 H 2143.16 3.72555 -0.328467 0
M  V30 23236 H 2145.45 6.74441 0.64307 0
M  V30 23237 H 2146.4 7.02928 -0.854282 0
M  V30 23238 H 2146.8 5.64153 0.19788 0
M  V30 23239 N 2146.2 0.513665 1.48994 0
M  V30 23240 C 2147.45 -0.0263732 2.02783 0
M  V30 23241 C 2147.78 -1.35469 1.39147 0
M  V30 23242 O 2147.06 -1.87097 0.531511 0
M  V30 23243 C 2147.34 -0.165605 3.59719 0
M  V30 23244 C 2147.19 1.18673 4.33863 0
M  V30 23245 C 2148.51 -0.900228 4.30794 0
M  V30 23246 H 2145.63 -0.00811043 0.736955 0
M  V30 23247 H 2148.27 0.667534 1.77888 0
M  V30 23248 H 2146.42 -0.756613 3.81061 0
M  V30 23249 H 2148.09 1.81759 4.23983 0
M  V30 23250 H 2146.34 1.77281 3.95922 0
M  V30 23251 H 2147.01 1.04247 5.42067 0
M  V30 23252 H 2149.48 -0.398863 4.14184 0
M  V30 23253 H 2148.36 -0.966514 5.40324 0
M  V30 23254 H 2148.62 -1.94685 3.96926 0
M  V30 23255 N 2147.68 -1.55636 0.248053 0
M  V30 23256 C 2148.63 -2.22824 -0.667239 0
M  V30 23257 C 2149.62 -1.2162 -1.17919 0
M  V30 23258 O 2150.83 -1.39629 -1.13595 0
M  V30 23259 H 2147.2 -0.714778 -0.23366 0
M  V30 23260 H 2149.17 -2.983 -0.0774218 0
M  V30 23261 C 2147.92 -2.9423 -1.85267 0
M  V30 23262 H 2147.25 -3.71878 -1.46789 0
M  V30 23263 H 2148.69 -3.44604 -2.47031 0
M  V30 23264 C 2147.14 -1.98169 -2.72453 0
M  V30 23265 O 2147.67 -1.5155 -3.72016 0
M  V30 23266 N 2145.88 -1.65246 -2.39044 0
M  V30 23267 H 2145.43 -2.03352 -1.58132 0
M  V30 23268 H 2145.39 -1.01239 -2.97654 0
M  V30 23269 N 2149.16 0.0250451 -1.5758 0
M  V30 23270 C 2150.09 1.02382 -2.09857 0
M  V30 23271 C 2151.07 1.37455 -1.002 0
M  V30 23272 O 2152.25 1.46269 -1.27746 0
M  V30 23273 C 2149.38 2.32351 -2.58128 0
M  V30 23274 C 2148.34 2.11509 -3.72086 0
M  V30 23275 C 2147.66 3.47274 -4.06577 0
M  V30 23276 C 2148.96 1.49799 -5.00357 0
M  V30 23277 H 2150.66 0.58863 -2.93557 0
M  V30 23278 H 2148.2 0.281696 -1.41218 0
M  V30 23279 H 2150.16 3.02556 -2.93322 0
M  V30 23280 H 2148.88 2.77938 -1.71518 0
M  V30 23281 H 2147.54 1.43737 -3.37247 0
M  V30 23282 H 2147.19 3.90516 -3.17027 0
M  V30 23283 H 2146.89 3.34153 -4.83338 0
M  V30 23284 H 2148.41 4.18834 -4.44309 0
M  V30 23285 H 2149.83 2.09927 -5.33483 0
M  V30 23286 H 2148.22 1.47241 -5.81756 0
M  V30 23287 H 2149.29 0.464269 -4.82672 0
M  V30 23288 N 2150.64 1.54769 0.297388 0
M  V30 23289 C 2151.58 1.8597 1.36689 0
M  V30 23290 C 2152.55 0.708928 1.50211 0
M  V30 23291 O 2153.74 0.9579 1.65012 0
M  V30 23292 C 2150.88 2.11576 2.72635 0
M  V30 23293 C 2149.99 3.39191 2.67533 0
M  V30 23294 C 2149.13 3.54621 3.95496 0
M  V30 23295 C 2148.16 4.76015 3.84806 0
M  V30 23296 N 2147.3 4.88232 5.04553 0
M  V30 23297 H 2152.14 2.772 1.09381 0
M  V30 23298 H 2149.68 1.3726 0.528967 0
M  V30 23299 H 2151.64 2.24418 3.517 0
M  V30 23300 H 2150.27 1.23608 2.98196 0
M  V30 23301 H 2149.32 3.3495 1.80312 0
M  V30 23302 H 2150.63 4.28379 2.55525 0
M  V30 23303 H 2149.78 3.67147 4.82999 0
M  V30 23304 H 2148.52 2.63573 4.10342 0
M  V30 23305 H 2147.53 4.63518 2.95687 0
M  V30 23306 H 2148.75 5.68475 3.71502 0
M  V30 23307 H 2146.7 4.00108 5.19855 0
M  V30 23308 H 2146.62 5.71427 4.94982 0
M  V30 23309 H 2147.88 5.05119 5.93696 0
M  V30 23310 N 2152.11 -0.560755 1.47286 0
M  V30 23311 C 2153.06 -1.66812 1.59507 0
M  V30 23312 C 2154.03 -1.60214 0.438263 0
M  V30 23313 O 2155.22 -1.791 0.657862 0
M  V30 23314 C 2152.36 -3.05138 1.61199 0
M  V30 23315 C 2151.47 -3.22198 2.87771 0
M  V30 23316 C 2150.6 -4.50902 2.80822 0
M  V30 23317 C 2149.64 -4.61382 4.02235 0
M  V30 23318 N 2148.78 -5.81436 3.93543 0
M  V30 23319 H 2153.62 -1.55705 2.54087 0
M  V30 23320 H 2151.16 -0.758538 1.26034 0
M  V30 23321 H 2153.11 -3.85232 1.60163 0
M  V30 23322 H 2151.74 -3.15089 0.701347 0
M  V30 23323 H 2150.8 -2.3556 2.9869 0
M  V30 23324 H 2152.11 -3.25807 3.77692 0
M  V30 23325 H 2151.26 -5.39251 2.78016 0
M  V30 23326 H 2150 -4.49766 1.88578 0
M  V30 23327 H 2149.01 -3.71445 4.0535 0
M  V30 23328 H 2150.23 -4.6428 4.95601 0
M  V30 23329 H 2148.18 -5.81257 3.041 0
M  V30 23330 H 2148.09 -5.86408 4.77139 0
M  V30 23331 H 2149.36 -6.72157 3.94747 0
M  V30 23332 N 2153.59 -1.35359 -0.807199 0
M  V30 23333 C 2154.5 -1.30342 -1.9506 0
M  V30 23334 C 2155.52 -0.208425 -1.72747 0
M  V30 23335 O 2156.69 -0.437692 -1.96586 0
M  V30 23336 C 2153.76 -1.07437 -3.29633 0
M  V30 23337 C 2152.82 -2.26243 -3.64846 0
M  V30 23338 C 2152.05 -2.04423 -4.92998 0
M  V30 23339 O 2152.28 -1.01037 -5.6138 0
M  V30 23340 O 2151.21 -2.91769 -5.26455 0
M  V30 23341 H 2155.04 -2.26568 -2.02239 0
M  V30 23342 H 2152.62 -1.15724 -0.944893 0
M  V30 23343 H 2154.5 -0.9651 -4.102 0
M  V30 23344 H 2153.18 -0.142618 -3.23386 0
M  V30 23345 H 2152.08 -2.42735 -2.84659 0
M  V30 23346 H 2153.42 -3.17864 -3.75797 0
M  V30 23347 N 2155.07 1.02928 -1.19346 0
M  V30 23348 C 2156.02 2.1331 -0.927441 0
M  V30 23349 C 2157.01 1.68998 0.116575 0
M  V30 23350 O 2158.22 1.7997 -0.0326311 0
M  V30 23351 H 2154.59 0.696916 -0.282511 0
M  V30 23352 H 2156.56 2.32939 -1.865 0
M  V30 23353 C 2155.31 3.4434 -0.482194 0
M  V30 23354 H 2154.64 3.78854 -1.27709 0
M  V30 23355 H 2156.08 4.22673 -0.335159 0
M  V30 23356 C 2154.53 3.27174 0.803669 0
M  V30 23357 O 2155.06 3.55772 1.86519 0
M  V30 23358 N 2153.27 2.80466 0.760745 0
M  V30 23359 H 2152.82 2.57393 -0.103346 0
M  V30 23360 H 2152.78 2.69361 1.62149 0
M  V30 23361 N 2156.55 0.997319 1.2203 0
M  V30 23362 C 2157.5 0.544275 2.26142 0
M  V30 23363 C 2158.49 -0.407297 1.64431 0
M  V30 23364 O 2159.7 -0.279332 1.77819 0
M  V30 23365 H 2156.07 0.157634 0.735293 0
M  V30 23366 H 2158.04 1.43371 2.61701 0
M  V30 23367 C 2156.79 -0.121025 3.47489 0
M  V30 23368 H 2156.11 0.602141 3.9524 0
M  V30 23369 H 2157.55 -0.40141 4.22096 0
M  V30 23370 C 2156.01 -1.35777 3.08328 0
M  V30 23371 O 2156.54 -2.45277 3.18123 0
M  V30 23372 N 2154.75 -1.23466 2.63067 0
M  V30 23373 H 2154.3 -0.343678 2.55297 0
M  V30 23374 H 2154.25 -2.06319 2.37233 0
M  V30 23375 N 2158.03 -1.37449 0.771075 0
M  V30 23376 C 2159.26 -2.03683 0.345951 0
M  V30 23377 C 2159.66 -1.58284 -1.03648 0
M  V30 23378 O 2159.01 -0.759171 -1.67279 0
M  V30 23379 C 2159.07 -3.58164 0.309656 0
M  V30 23380 C 2158.73 -4.26692 1.63656 0
M  V30 23381 C 2159.73 -4.50858 2.58888 0
M  V30 23382 C 2157.42 -4.64536 1.91081 0
M  V30 23383 C 2159.41 -5.11924 3.79753 0
M  V30 23384 C 2157.1 -5.25323 3.12217 0
M  V30 23385 C 2158.09 -5.48954 4.06372 0
M  V30 23386 O 2157.78 -6.08471 5.25375 0
M  V30 23387 H 2157.51 -0.660689 0.143062 0
M  V30 23388 H 2160.07 -1.76778 1.04587 0
M  V30 23389 H 2158.3 -3.84112 -0.446637 0
M  V30 23390 H 2159.99 -4.05804 -0.0883085 0
M  V30 23391 H 2160.75 -4.22034 2.38982 0
M  V30 23392 H 2156.63 -4.45477 1.18622 0
M  V30 23393 H 2160.18 -5.30285 4.53258 0
M  V30 23394 H 2156.07 -5.53571 3.32009 0
M  V30 23395 H 2156.84 -6.26949 5.26191 0
M  V30 23396 N 2159.5 -0.52156 -1.4872 0
M  V30 23397 C 2160.45 0.259278 -2.3115 0
M  V30 23398 C 2161.45 0.943463 -1.40695 0
M  V30 23399 O 2162.65 0.868807 -1.57644 0
M  V30 23400 H 2159.03 0.10248 -0.744984 0
M  V30 23401 H 2161 -0.455653 -2.94901 0
M  V30 23402 C 2159.75 1.29841 -3.22547 0
M  V30 23403 H 2159.07 0.781352 -3.9209 0
M  V30 23404 H 2160.51 1.81634 -3.83125 0
M  V30 23405 C 2158.97 2.32757 -2.43569 0
M  V30 23406 O 2159.5 3.39036 -2.15448 0
M  V30 23407 N 2157.71 2.05753 -2.05217 0
M  V30 23408 H 2157.25 1.19343 -2.28287 0
M  V30 23409 H 2157.21 2.74836 -1.52685 0
M  V30 23410 N 2160.98 1.55502 -0.256304 0
M  V30 23411 C 2162.21 2.04025 0.372624 0
M  V30 23412 C 2162.63 1.13408 1.50067 0
M  V30 23413 O 2161.99 0.128888 1.80841 0
M  V30 23414 C 2162.04 3.50465 0.848906 0
M  V30 23415 O 2161.14 3.62969 1.95774 0
M  V30 23416 H 2160.48 0.659174 0.0799143 0
M  V30 23417 H 2163.01 2.00943 -0.385109 0
M  V30 23418 H 2163.02 3.91468 1.14965 0
M  V30 23419 H 2161.7 4.15893 0.0234786 0
M  V30 23420 H 2160.28 3.33865 1.66098 0
M  V30 23421 N 2162.46 -0.0166879 1.57591 0
M  V30 23422 C 2163.71 -0.706033 1.90113 0
M  V30 23423 C 2164.04 -1.74339 0.855541 0
M  V30 23424 O 2163.31 -1.94079 -0.127874 0
M  V30 23425 C 2163.6 -1.36436 3.33253 0
M  V30 23426 C 2163.45 -0.339675 4.48516 0
M  V30 23427 C 2164.77 -2.29505 3.7552 0
M  V30 23428 H 2161.89 -0.255199 0.691406 0
M  V30 23429 H 2164.53 0.0311796 1.89974 0
M  V30 23430 H 2162.68 -1.99271 3.33501 0
M  V30 23431 H 2164.35 0.287715 4.60402 0
M  V30 23432 H 2162.6 0.339799 4.32467 0
M  V30 23433 H 2163.27 -0.839026 5.45586 0
M  V30 23434 H 2165.74 -1.76702 3.76717 0
M  V30 23435 H 2164.62 -2.72542 4.76458 0
M  V30 23436 H 2164.88 -3.16708 3.08461 0
M  V30 23437 N 2163.94 -1.54924 -0.289176 0
M  V30 23438 C 2165.19 -1.73974 -1.02059 0
M  V30 23439 C 2165.5 -0.539167 -1.88022 0
M  V30 23440 O 2166.71 -0.611723 -2.64519 0
M  V30 23441 C 2165.16 -3.07847 -1.86435 0
M  V30 23442 C 2164.77 -4.35421 -1.05417 0
M  V30 23443 C 2166.51 -3.36252 -2.59104 0
M  V30 23444 C 2164.42 -5.6034 -1.89138 0
M  V30 23445 H 2163.35 -0.648438 -0.384766 0
M  V30 23446 H 2166 -1.81397 -0.276999 0
M  V30 23447 H 2164.38 -2.94419 -2.64827 0
M  V30 23448 H 2165.56 -4.59718 -0.315551 0
M  V30 23449 H 2163.87 -4.14039 -0.442763 0
M  V30 23450 H 2166.47 -4.26785 -3.22115 0
M  V30 23451 H 2166.81 -2.55656 -3.28551 0
M  V30 23452 H 2167.35 -3.50705 -1.87753 0
M  V30 23453 H 2164.09 -6.43638 -1.2414 0
M  V30 23454 H 2163.61 -5.4021 -2.6064 0
M  V30 23455 H 2165.28 -5.98038 -2.46899 0
M  V30 23456 N 2165.42 0.552936 -1.47582 0
M  V30 23457 C 2166.36 1.68064 -1.60802 0
M  V30 23458 C 2167.36 1.62599 -0.475175 0
M  V30 23459 O 2168.56 1.67733 -0.653122 0
M  V30 23460 H 2164.94 0.556179 -0.506131 0
M  V30 23461 H 2166.91 1.54051 -2.5556 0
M  V30 23462 C 2165.66 3.06407 -1.64348 0
M  V30 23463 H 2164.98 3.11295 -2.50869 0
M  V30 23464 H 2166.42 3.8499 -1.77647 0
M  V30 23465 C 2164.88 3.34777 -0.377611 0
M  V30 23466 O 2165.41 3.98327 0.519466 0
M  V30 23467 N 2163.62 2.89467 -0.256324 0
M  V30 23468 H 2163.16 2.3793 -0.98727 0
M  V30 23469 H 2163.12 3.0882 0.589696 0
M  V30 23470 N 2166.89 1.35785 0.800009 0
M  V30 23471 C 2167.84 1.29289 1.93357 0
M  V30 23472 C 2168.84 0.186598 1.68369 0
M  V30 23473 O 2170.04 0.352975 1.76505 0
M  V30 23474 H 2166.42 0.402237 0.635382 0
M  V30 23475 H 2168.39 2.25042 1.95956 0
M  V30 23476 C 2167.14 1.08839 3.30226 0
M  V30 23477 H 2166.46 1.93208 3.50015 0
M  V30 23478 H 2167.9 1.08337 4.09926 0
M  V30 23479 C 2166.36 -0.207479 3.36261 0
M  V30 23480 O 2166.89 -1.201 3.83326 0
M  V30 23481 N 2165.1 -0.248518 2.89535 0
M  V30 23482 H 2164.64 0.560592 2.51426 0
M  V30 23483 H 2164.6 -1.11527 2.93954 0
M  V30 23484 N 2168.37 -1.02294 1.19891 0
M  V30 23485 C 2169.62 -1.76051 1.00667 0
M  V30 23486 C 2169.95 -1.88654 -0.460802 0
M  V30 23487 O 2169.23 -1.4077 -1.34216 0
M  V30 23488 C 2169.51 -3.18331 1.68338 0
M  V30 23489 C 2169.36 -3.13562 3.22489 0
M  V30 23490 C 2170.68 -4.16859 1.41125 0
M  V30 23491 H 2167.8 -0.639057 0.367117 0
M  V30 23492 H 2170.44 -1.19377 1.47815 0
M  V30 23493 H 2168.59 -3.6672 1.28252 0
M  V30 23494 H 2170.26 -2.73025 3.71827 0
M  V30 23495 H 2168.51 -2.51121 3.53724 0
M  V30 23496 H 2169.18 -4.1411 3.64989 0
M  V30 23497 H 2171.65 -3.77097 1.75889 0
M  V30 23498 H 2170.53 -5.14592 1.91015 0
M  V30 23499 H 2170.79 -4.40809 0.33758 0
M  V30 23500 N 2169.85 -1.00378 -1.21499 0
M  V30 23501 C 2171.13 -0.601329 -1.86127 0
M  V30 23502 C 2171.51 0.921083 -1.89945 0
M  V30 23503 O 2170.86 1.80753 -1.39787 0
M  V30 23504 C 2171.07 -1.2343 -3.26445 0
M  V30 23505 C 2172.41 -1.34165 -4.02846 0
M  V30 23506 O 2173.44 -1.18952 -3.35751 0
M  V30 23507 O 2172.3 -1.58622 -5.22973 0
M  V30 23508 H 2169.39 -0.205796 -0.800985 0
M  V30 23509 H 2171.94 -1.10035 -1.29192 0
M  V30 23510 H 2170.71 -2.27515 -3.18359 0
M  V30 23511 H 2170.33 -0.721556 -3.90998 0
M  V30 23512 N 2171.33 1.37038 -0.778354 0
M  V30 23513 C 2172.57 2.01365 -0.350935 0
M  V30 23514 C 2172.93 1.60448 1.05454 0
M  V30 23515 O 2174.13 2.17284 1.58244 0
M  V30 23516 C 2172.4 3.53926 -0.497118 0
M  V30 23517 S 2173.96 4.38523 -0.15594 0
M  V30 23518 H 2170.78 0.698132 -0.134659 0
M  V30 23519 H 2173.38 1.67122 -1.01442 0
M  V30 23520 H 2172.09 3.81193 -1.52052 0
M  V30 23521 H 2171.62 3.92976 0.182687 0
M  V30 23522 H 2173.63 4.85044 1.04629 0
M  V30 23523 N 2172.81 0.529439 1.48441 0
M  V30 23524 C 2174.22 0.18726 1.58498 0
M  V30 23525 C 2174.42 -1.30947 1.53151 0
M  V30 23526 O 2173.48 -2.08768 1.42029 0
M  V30 23527 C 2174.79 0.789307 2.90156 0
M  V30 23528 C 2176.34 0.757992 3.03683 0
M  V30 23529 C 2176.82 1.33861 4.38002 0
M  V30 23530 N 2178.31 1.30055 4.44567 0
M  V30 23531 C 2179.04 1.7197 5.47004 0
M  V30 23532 N 2178.54 2.21612 6.56399 0
M  V30 23533 N 2180.33 1.63211 5.37884 0
M  V30 23534 H 2172.48 1.5022 1.50159 0
M  V30 23535 H 2174.74 0.624813 0.712961 0
M  V30 23536 H 2174.45 1.84009 2.99722 0
M  V30 23537 H 2174.32 0.266088 3.7626 0
M  V30 23538 H 2176.71 -0.284031 2.9373 0
M  V30 23539 H 2176.79 1.31867 2.19191 0
M  V30 23540 H 2176.44 2.37955 4.48709 0
M  V30 23541 H 2176.37 0.75361 5.2118 0
M  V30 23542 H 2178.86 0.937142 3.66096 0
M  V30 23543 H 2179.17 2.51591 7.30699 0
M  V30 23544 H 2177.52 2.25605 6.57364 0
M  V30 23545 H 2180.71 1.24226 4.51315 0
M  V30 23546 H 2180.88 1.96197 6.17584 0
M  V30 23547 N 2174.29 -1.55364 0.264547 0
M  V30 23548 C 2175.23 -2.22106 -0.62749 0
M  V30 23549 C 2176.2 -1.1909 -1.15788 0
M  V30 23550 O 2177.39 -1.47597 -1.20912 0
M  V30 23551 C 2174.53 -2.93783 -1.81068 0
M  V30 23552 C 2173.64 -4.11495 -1.31515 0
M  V30 23553 C 2172.78 -4.70842 -2.45929 0
M  V30 23554 C 2171.81 -5.80768 -1.93326 0
M  V30 23555 N 2170.95 -6.34223 -3.01173 0
M  V30 23556 H 2175.79 -2.97955 -0.0516766 0
M  V30 23557 H 2173.33 -1.47094 -0.0137419 0
M  V30 23558 H 2175.29 -3.33549 -2.50601 0
M  V30 23559 H 2173.92 -2.20376 -2.35869 0
M  V30 23560 H 2172.97 -3.76921 -0.513271 0
M  V30 23561 H 2174.28 -4.908 -0.88977 0
M  V30 23562 H 2173.43 -5.13274 -3.23474 0
M  V30 23563 H 2172.17 -3.90791 -2.91777 0
M  V30 23564 H 2171.18 -5.37797 -1.14257 0
M  V30 23565 H 2172.4 -6.62681 -1.48426 0
M  V30 23566 H 2170.35 -5.5707 -3.46423 0
M  V30 23567 H 2170.27 -7.08771 -2.63021 0
M  V30 23568 H 2171.53 -6.81313 -3.78725 0
M  V30 23569 N 2175.76 0.00833021 -1.57598 0
M  V30 23570 C 2176.71 1.00242 -2.07895 0
M  V30 23571 C 2177.68 1.34651 -0.972534 0
M  V30 23572 O 2178.87 1.44632 -1.24444 0
M  V30 23573 C 2176.01 2.2918 -2.58013 0
M  V30 23574 C 2175.12 2.00747 -3.82524 0
M  V30 23575 C 2174.25 3.23706 -4.21175 0
M  V30 23576 C 2173.29 2.90921 -5.38546 0
M  V30 23577 N 2172.43 4.06392 -5.72529 0
M  V30 23578 H 2177.27 0.566561 -2.92565 0
M  V30 23579 H 2174.81 0.268106 -1.44636 0
M  V30 23580 H 2176.76 3.04546 -2.85145 0
M  V30 23581 H 2175.39 2.7045 -1.76229 0
M  V30 23582 H 2174.45 1.15786 -3.6235 0
M  V30 23583 H 2175.76 1.72576 -4.67995 0
M  V30 23584 H 2174.91 4.07424 -4.49545 0
M  V30 23585 H 2173.65 3.55007 -3.34397 0
M  V30 23586 H 2172.66 2.05609 -5.09907 0
M  V30 23587 H 2173.88 2.60875 -6.26993 0
M  V30 23588 H 2171.83 4.37606 -4.88709 0
M  V30 23589 H 2171.74 3.81717 -6.52555 0
M  V30 23590 H 2173.01 4.90923 -6.05487 0
M  V30 23591 N 2177.24 1.55075 0.280956 0
M  V30 23592 C 2178.52 1.6601 1.0344 0
M  V30 23593 C 2178.9 0.521384 2.0456 0
M  V30 23594 O 2178.25 -0.479533 2.23412 0
M  V30 23595 C 2178.46 3.04889 1.69834 0
M  V30 23596 C 2179.8 3.62374 2.21292 0
M  V30 23597 O 2180.83 3.07471 1.79834 0
M  V30 23598 O 2179.69 4.5855 2.97311 0
M  V30 23599 H 2176.78 0.673927 0.479324 0
M  V30 23600 H 2179.33 1.67417 0.277446 0
M  V30 23601 H 2178.1 3.7921 0.96517 0
M  V30 23602 H 2177.72 3.07347 2.52237 0
M  V30 23603 N 2178.72 -0.545102 1.47873 0
M  V30 23604 C 2179.65 -1.66719 1.55821 0
M  V30 23605 C 2180.63 -1.57357 0.409558 0
M  V30 23606 O 2181.81 -1.78045 0.619059 0
M  V30 23607 C 2178.94 -3.05037 1.47208 0
M  V30 23608 C 2177.99 -3.32805 2.66726 0
M  V30 23609 S 2178.82 -3.20731 4.28826 0
M  V30 23610 C 2179.98 -4.61522 4.22787 0
M  V30 23611 H 2180.21 -1.59724 2.5075 0
M  V30 23612 H 2177.74 -0.726882 1.3622 0
M  V30 23613 H 2179.7 -3.84815 1.42926 0
M  V30 23614 H 2178.36 -3.09486 0.536426 0
M  V30 23615 H 2177.55 -4.33672 2.56797 0
M  V30 23616 H 2177.16 -2.60669 2.68193 0
M  V30 23617 H 2179.45 -5.52729 3.91787 0
M  V30 23618 H 2180.39 -4.76507 5.23781 0
M  V30 23619 H 2180.8 -4.40136 3.53469 0
M  V30 23620 N 2180.2 -1.36208 -0.792797 0
M  V30 23621 C 2181.47 -1.20801 -1.53839 0
M  V30 23622 C 2181.85 0.20722 -2.1008 0
M  V30 23623 O 2181.2 1.21244 -1.9368 0
M  V30 23624 C 2181.41 -2.28726 -2.63601 0
M  V30 23625 C 2182.76 -2.65225 -3.31573 0
M  V30 23626 O 2183.78 -2.27744 -2.73882 0
M  V30 23627 O 2182.64 -3.29724 -4.35826 0
M  V30 23628 H 2179.74 -0.470148 -0.68036 0
M  V30 23629 H 2182.28 -1.47929 -0.83157 0
M  V30 23630 H 2181.06 -3.2359 -2.20013 0
M  V30 23631 H 2180.68 -2.02945 -3.41905 0
M  V30 23632 N 2181.68 1.01656 -1.20431 0
M  V30 23633 C 2182.92 1.74909 -1.01249 0
M  V30 23634 C 2183.24 1.89583 0.456441 0
M  V30 23635 O 2182.51 1.43836 1.32997 0
M  V30 23636 H 2181.09 0.647988 -0.371646 0
M  V30 23637 H 2183.76 1.22561 -1.51542 0
M  V30 23638 H 2182.85 2.75268 -1.47085 0
M  V30 23639 N 2183.15 1.01021 1.20965 0
M  V30 23640 C 2184.1 0.575015 2.23522 0
M  V30 23641 C 2185.07 -0.401609 1.61172 0
M  V30 23642 O 2186.26 -0.302487 1.88387 0
M  V30 23643 C 2183.4 -0.0869827 3.4499 0
M  V30 23644 C 2182.51 0.933442 4.21795 0
M  V30 23645 C 2181.64 0.243164 5.30643 0
M  V30 23646 C 2180.68 1.25078 5.99184 0
M  V30 23647 N 2179.82 0.587617 6.99637 0
M  V30 23648 H 2184.66 1.45423 2.60108 0
M  V30 23649 H 2182.2 0.728091 1.27817 0
M  V30 23650 H 2184.15 -0.487872 4.14338 0
M  V30 23651 H 2182.78 -0.929881 3.09117 0
M  V30 23652 H 2181.84 1.45254 3.51576 0
M  V30 23653 H 2183.15 1.70003 4.68936 0
M  V30 23654 H 2182.3 -0.213561 6.06324 0
M  V30 23655 H 2181.04 -0.555781 4.84523 0
M  V30 23656 H 2180.05 1.71796 5.2227 0
M  V30 23657 H 2181.27 2.0509 6.47391 0
M  V30 23658 H 2179.22 -0.191575 6.5572 0
M  V30 23659 H 2179.13 1.29237 7.44872 0
M  V30 23660 H 2180.4 0.154271 7.79347 0
M  V30 23661 N 2184.63 -1.36623 0.78561 0
M  V30 23662 C 2185.58 -2.31983 0.169296 0
M  V30 23663 C 2186.57 -1.55619 -0.66926 0
M  V30 23664 O 2187.78 -1.7091 -0.56477 0
M  V30 23665 H 2184.15 -0.751139 0.0359684 0
M  V30 23666 H 2186.13 -2.81531 0.989071 0
M  V30 23667 C 2184.87 -3.40896 -0.684473 0
M  V30 23668 H 2184.2 -3.9977 -0.0485801 0
M  V30 23669 H 2185.64 -4.0995 -1.08245 0
M  V30 23670 C 2184.1 -2.82145 -1.84108 0
M  V30 23671 O 2184.63 -2.74004 -2.93743 0
M  V30 23672 N 2182.83 -2.39489 -1.64601 0
M  V30 23673 H 2182.38 -2.46311 -0.754247 0
M  V30 23674 H 2182.34 -2.00526 -2.4215 0
M  V30 23675 N 2186.11 -0.537304 -1.48158 0
M  V30 23676 C 2187.36 -0.00384223 -2.017 0
M  V30 23677 C 2187.67 1.34625 -1.419 0
M  V30 23678 O 2188.88 1.96849 -1.86983 0
M  V30 23679 C 2187.33 0.0435291 -3.59874 0
M  V30 23680 C 2186.94 -1.30211 -4.2866 0
M  V30 23681 C 2188.69 0.525433 -4.21236 0
M  V30 23682 C 2186.59 -1.21492 -5.78786 0
M  V30 23683 H 2185.52 0.00233368 -0.753996 0
M  V30 23684 H 2188.17 -0.682181 -1.70348 0
M  V30 23685 H 2186.56 0.7871 -3.88099 0
M  V30 23686 H 2187.73 -2.06182 -4.12099 0
M  V30 23687 H 2186.04 -1.72034 -3.79201 0
M  V30 23688 H 2188.64 0.608744 -5.31223 0
M  V30 23689 H 2188.98 1.5329 -3.8705 0
M  V30 23690 H 2189.52 -0.162674 -3.97467 0
M  V30 23691 H 2186.26 -2.19778 -6.17558 0
M  V30 23692 H 2185.78 -0.496694 -5.9774 0
M  V30 23693 H 2187.46 -0.908641 -6.40588 0
M  V30 23694 N 2187.59 1.55221 -0.272782 0
M  V30 23695 C 2188.54 2.23858 0.631705 0
M  V30 23696 C 2189.53 1.23481 1.15969 0
M  V30 23697 O 2190.74 1.41418 1.11359 0
M  V30 23698 H 2187.11 0.718404 0.222259 0
M  V30 23699 H 2189.08 2.98385 0.0299551 0
M  V30 23700 C 2187.83 2.9714 1.80563 0
M  V30 23701 H 2187.15 3.74166 1.40854 0
M  V30 23702 H 2188.59 3.4849 2.41517 0
M  V30 23703 C 2187.05 2.02478 2.69266 0
M  V30 23704 O 2187.58 1.57449 3.69557 0
M  V30 23705 N 2185.79 1.69028 2.36385 0
M  V30 23706 H 2185.34 2.05842 1.54877 0
M  V30 23707 H 2185.29 1.05961 2.96006 0
M  V30 23708 N 2189.07 2.77022e-05 1.576 0
M  V30 23709 C 2190.34 -0.721854 1.81793 0
M  V30 23710 C 2190.72 -1.91987 0.877738 0
M  V30 23711 O 2190.07 -2.28382 -0.0735325 0
M  V30 23712 C 2190.28 -1.12755 3.30284 0
M  V30 23713 C 2191.63 -1.53139 3.96022 0
M  V30 23714 O 2192.65 -1.22134 3.34607 0
M  V30 23715 O 2191.51 -2.10793 5.04211 0
M  V30 23716 H 2188.61 -0.35149 0.748588 0
M  V30 23717 H 2191.15 0.0254839 1.69681 0
M  V30 23718 H 2189.92 -0.273618 3.90342 0
M  V30 23719 H 2189.55 -1.93399 3.47394 0
M  V30 23720 N 2190.54 -1.55222 -0.272728 0
M  V30 23721 C 2191.45 -1.91218 -1.35915 0
M  V30 23722 C 2192.47 -0.809463 -1.54025 0
M  V30 23723 O 2193.65 -1.10855 -1.68146 0
M  V30 23724 C 2190.71 -2.17698 -2.69831 0
M  V30 23725 C 2189.77 -3.41258 -2.60464 0
M  V30 23726 C 2189.01 -3.66465 -3.87994 0
M  V30 23727 O 2189.23 -2.94178 -4.88688 0
M  V30 23728 O 2188.16 -4.59999 -3.88181 0
M  V30 23729 H 2191.99 -2.83701 -1.08385 0
M  V30 23730 H 2189.57 -1.41772 -0.471276 0
M  V30 23731 H 2191.46 -2.36153 -3.49012 0
M  V30 23732 H 2190.13 -1.28397 -2.97146 0
M  V30 23733 H 2189.04 -3.28137 -1.79657 0
M  V30 23734 H 2190.37 -4.30778 -2.38098 0
M  V30 23735 N 2192.02 0.537252 -1.4816 0
M  V30 23736 C 2193.26 1.30403 -1.57399 0
M  V30 23737 C 2193.63 1.90504 -0.239236 0
M  V30 23738 O 2194.83 2.68005 -0.206575 0
M  V30 23739 C 2193.1 2.3697 -2.67545 0
M  V30 23740 S 2194.66 3.23469 -2.96501 0
M  V30 23741 H 2191.48 0.443674 -0.555584 0
M  V30 23742 H 2194.08 0.61288 -1.85645 0
M  V30 23743 H 2192.78 1.91285 -3.63096 0
M  V30 23744 H 2192.31 3.10801 -2.41177 0
M  V30 23745 H 2194.33 4.36893 -2.35242 0
M  V30 23746 N 2193.5 1.36626 0.785562 0
M  V30 23747 C 2194.45 1.31267 1.89836 0
M  V30 23748 C 2195.42 0.180662 1.65115 0
M  V30 23749 O 2196.6 0.367802 1.87221 0
M  V30 23750 C 2193.74 1.11168 3.26704 0
M  V30 23751 C 2192.86 2.33478 3.63472 0
M  V30 23752 C 2191.99 2.06361 4.89478 0
M  V30 23753 C 2191.03 3.24611 5.18935 0
M  V30 23754 N 2190.17 2.97134 6.36126 0
M  V30 23755 H 2195.01 2.26416 1.93752 0
M  V30 23756 H 2192.54 1.12526 0.947434 0
M  V30 23757 H 2194.5 0.975408 4.05637 0
M  V30 23758 H 2193.13 0.196731 3.222 0
M  V30 23759 H 2192.18 2.57896 2.79632 0
M  V30 23760 H 2193.5 3.21711 3.81187 0
M  V30 23761 H 2192.65 1.89685 5.76285 0
M  V30 23762 H 2191.39 1.15446 4.73839 0
M  V30 23763 H 2190.39 3.41842 4.30609 0
M  V30 23764 H 2191.62 4.16358 5.36491 0
M  V30 23765 H 2189.56 2.08834 6.21872 0
M  V30 23766 H 2189.48 3.78906 6.54191 0
M  V30 23767 H 2190.75 2.84046 7.25905 0
M  V30 23768 N 2194.98 -1.01016 1.20969 0
M  V30 23769 C 2196.21 -1.78301 1.04959 0
M  V30 23770 C 2196.62 -1.84495 -0.400883 0
M  V30 23771 O 2195.98 -1.30259 -1.27823 0
M  V30 23772 C 2196.03 -3.22459 1.63409 0
M  V30 23773 O 2195.75 -3.16632 3.0278 0
M  V30 23774 C 2197.25 -4.16266 1.52439 0
M  V30 23775 H 2194.47 -0.560515 0.368868 0
M  V30 23776 H 2197.02 -1.27113 1.60195 0
M  V30 23777 H 2195.17 -3.70773 1.12276 0
M  V30 23778 H 2195.58 -4.07164 3.30633 0
M  V30 23779 H 2197.06 -5.15233 1.98087 0
M  V30 23780 H 2197.54 -4.36592 0.477952 0
M  V30 23781 H 2198.14 -3.73838 2.02794 0
M  V30 23782 N 2196.46 -1.01661 -1.20428 0
M  V30 23783 C 2197.69 -0.724115 -1.93495 0
M  V30 23784 C 2198.09 0.719149 -1.75 0
M  V30 23785 O 2197.44 1.49947 -1.06121 0
M  V30 23786 C 2197.5 -0.980001 -3.45885 0
M  V30 23787 C 2197.16 -2.41238 -3.8814 0
M  V30 23788 C 2198.16 -3.3932 -3.93901 0
M  V30 23789 C 2195.85 -2.75313 -4.20129 0
M  V30 23790 C 2197.84 -4.69537 -4.31061 0
M  V30 23791 C 2195.53 -4.05743 -4.56964 0
M  V30 23792 C 2196.52 -5.02666 -4.62402 0
M  V30 23793 O 2196.21 -6.30762 -4.98392 0
M  V30 23794 H 2195.94 -0.265173 -0.621819 0
M  V30 23795 H 2198.5 -1.36069 -1.53865 0
M  V30 23796 H 2196.73 -0.286265 -3.85639 0
M  V30 23797 H 2198.42 -0.679091 -4.00179 0
M  V30 23798 H 2199.18 -3.14332 -3.69352 0
M  V30 23799 H 2195.06 -2.00559 -4.15087 0
M  V30 23800 H 2198.61 -5.45187 -4.3522 0
M  V30 23801 H 2194.5 -4.3051 -4.80969 0
M  V30 23802 H 2195.27 -6.35051 -5.16384 0
M  V30 23803 N 2197.93 1.36205 -0.792844 0
M  V30 23804 C 2198.88 2.30003 -0.191693 0
M  V30 23805 C 2199.85 1.52145 0.666426 0
M  V30 23806 O 2201.04 1.80638 0.614388 0
M  V30 23807 C 2198.18 3.38636 0.664788 0
M  V30 23808 C 2197.29 4.31478 -0.212251 0
M  V30 23809 C 2196.42 5.27197 0.650929 0
M  V30 23810 C 2195.46 6.11678 -0.227354 0
M  V30 23811 N 2194.6 6.99574 0.595004 0
M  V30 23812 H 2199.44 2.80826 -0.997027 0
M  V30 23813 H 2196.98 1.38224 -0.503231 0
M  V30 23814 H 2198.94 4.00271 1.17638 0
M  V30 23815 H 2197.57 2.89124 1.43552 0
M  V30 23816 H 2196.62 3.70968 -0.841842 0
M  V30 23817 H 2197.93 4.90817 -0.888837 0
M  V30 23818 H 2197.08 5.94138 1.2282 0
M  V30 23819 H 2195.82 4.68321 1.36113 0
M  V30 23820 H 2194.83 5.43696 -0.817 0
M  V30 23821 H 2196.05 6.7263 -0.935208 0
M  V30 23822 H 2194 6.43203 1.28943 0
M  V30 23823 H 2193.92 7.55996 -0.0238281 0
M  V30 23824 H 2195.18 7.70881 1.15599 0
M  V30 23825 N 2199.41 0.545154 1.47871 0
M  V30 23826 C 2200.36 -0.20926 2.29849 0
M  V30 23827 C 2201.33 -0.919683 1.38315 0
M  V30 23828 O 2202.51 -0.917743 1.67279 0
M  V30 23829 C 2199.65 -1.24083 3.22021 0
M  V30 23830 C 2198.77 -0.537702 4.28641 0
M  V30 23831 C 2197.9 -1.55351 5.07976 0
M  V30 23832 C 2196.94 -0.834694 6.06382 0
M  V30 23833 N 2196.08 -1.79676 6.7872 0
M  V30 23834 H 2200.92 0.495962 2.93844 0
M  V30 23835 H 2198.46 0.256415 1.44848 0
M  V30 23836 H 2200.41 -1.85137 3.73872 0
M  V30 23837 H 2199.04 -1.91424 2.59917 0
M  V30 23838 H 2198.1 0.187112 3.7994 0
M  V30 23839 H 2199.41 0.0259783 4.98793 0
M  V30 23840 H 2198.56 -2.23793 5.63916 0
M  V30 23841 H 2197.3 -2.1511 4.37697 0
M  V30 23842 H 2196.31 -0.136291 5.49631 0
M  V30 23843 H 2197.53 -0.24301 6.78665 0
M  V30 23844 H 2195.48 -2.38315 6.11181 0
M  V30 23845 H 2195.39 -1.28492 7.45001 0
M  V30 23846 H 2196.66 -2.47269 7.39242 0
M  V30 23847 N 2200.89 -1.55074 0.28101 0
M  V30 23848 C 2201.84 -2.2419 -0.619824 0
M  V30 23849 C 2202.83 -1.24094 -1.15313 0
M  V30 23850 O 2204.04 -1.42007 -1.10608 0
M  V30 23851 H 2200.41 -0.719573 -0.218446 0
M  V30 23852 H 2202.38 -2.98397 -0.0141306 0
M  V30 23853 C 2201.13 -2.98094 -1.78984 0
M  V30 23854 H 2200.46 -3.74908 -1.38867 0
M  V30 23855 H 2201.9 -3.49766 -2.39666 0
M  V30 23856 C 2200.36 -2.03904 -2.68188 0
M  V30 23857 O 2200.89 -1.59407 -3.68717 0
M  V30 23858 N 2199.09 -1.70279 -2.35485 0
M  V30 23859 H 2198.64 -2.06661 -1.53783 0
M  V30 23860 H 2198.6 -1.0753 -2.9544 0
M  V30 23861 N 2202.37 -0.00838561 -1.57598 0
M  V30 23862 C 2203.32 0.980309 -2.08946 0
M  V30 23863 C 2204.29 1.33612 -0.986761 0
M  V30 23864 O 2205.47 1.43304 -1.25971 0
M  V30 23865 C 2202.61 2.2643 -2.60429 0
M  V30 23866 C 2201.72 1.96678 -3.84632 0
M  V30 23867 C 2200.86 3.1922 -4.24584 0
M  V30 23868 C 2199.9 2.85192 -5.41601 0
M  V30 23869 N 2199.04 4.00297 -5.76807 0
M  V30 23870 H 2203.88 0.535499 -2.93149 0
M  V30 23871 H 2201.41 0.252751 -1.44912 0
M  V30 23872 H 2203.37 3.01504 -2.88359 0
M  V30 23873 H 2202 2.68565 -1.79088 0
M  V30 23874 H 2201.05 1.11936 -3.63558 0
M  V30 23875 H 2202.36 1.67603 -4.69799 0
M  V30 23876 H 2201.52 4.02633 -4.53841 0
M  V30 23877 H 2200.26 3.51441 -3.38143 0
M  V30 23878 H 2199.26 2.00189 -5.12059 0
M  V30 23879 H 2200.49 2.54211 -6.29725 0
M  V30 23880 H 2198.43 4.32398 -4.93323 0
M  V30 23881 H 2198.35 3.74774 -6.56567 0
M  V30 23882 H 2199.62 4.84473 -6.1066 0
M  V30 23883 N 2203.85 1.55365 0.264492 0
M  V30 23884 C 2205.08 1.80145 1.0115 0
M  V30 23885 C 2205.49 0.579285 1.80114 0
M  V30 23886 O 2204.83 -0.461288 1.77814 0
M  V30 23887 C 2204.89 2.97997 2.01093 0
M  V30 23888 C 2204.55 4.34709 1.40988 0
M  V30 23889 C 2205.55 5.13373 0.821226 0
M  V30 23890 C 2203.24 4.8138 1.43452 0
M  V30 23891 C 2205.23 6.36848 0.265227 0
M  V30 23892 C 2202.92 6.04808 0.874665 0
M  V30 23893 C 2203.92 6.8238 0.291026 0
M  V30 23894 O 2203.6 8.03479 -0.260235 0
M  V30 23895 H 2203.34 0.603731 0.304114 0
M  V30 23896 H 2205.89 2.03226 0.298053 0
M  V30 23897 H 2204.12 2.70628 2.7622 0
M  V30 23898 H 2205.81 3.10025 2.61991 0
M  V30 23899 H 2206.57 4.78443 0.794819 0
M  V30 23900 H 2202.45 4.21005 1.87819 0
M  V30 23901 H 2206 6.97339 -0.190959 0
M  V30 23902 H 2201.89 6.39218 0.89834 0
M  V30 23903 H 2202.66 8.18362 -0.150409 0
M  V30 23904 N 2205.33 -0.529387 1.48443 0
M  V30 23905 C 2206.27 -1.63391 1.63009 0
M  V30 23906 C 2207.24 -1.59248 0.472148 0
M  V30 23907 O 2208.43 -1.77664 0.695704 0
M  V30 23908 C 2205.57 -3.0165 1.67635 0
M  V30 23909 C 2204.68 -3.16022 2.94541 0
M  V30 23910 C 2203.82 -4.44844 2.90323 0
M  V30 23911 C 2202.85 -4.52747 4.11931 0
M  V30 23912 N 2201.99 -5.72958 4.05788 0
M  V30 23913 H 2206.83 -1.5028 2.57332 0
M  V30 23914 H 2204.37 -0.731634 1.27615 0
M  V30 23915 H 2206.33 -3.81748 1.68299 0
M  V30 23916 H 2204.96 -3.1353 0.768025 0
M  V30 23917 H 2204.01 -2.29172 3.03619 0
M  V30 23918 H 2205.32 -3.17723 3.84518 0
M  V30 23919 H 2204.47 -5.33233 2.89391 0
M  V30 23920 H 2203.21 -4.45665 1.98076 0
M  V30 23921 H 2202.22 -3.62764 4.13137 0
M  V30 23922 H 2203.44 -4.53663 5.05338 0
M  V30 23923 H 2201.39 -5.74675 3.16361 0
M  V30 23924 H 2201.31 -5.76155 4.8947 0
M  V30 23925 H 2202.57 -6.63633 4.08915 0
M  V30 23926 N 2206.8 -1.37041 -0.778305 0
M  V30 23927 C 2208.08 -1.22426 -1.52549 0
M  V30 23928 C 2208.46 0.184927 -2.10288 0
M  V30 23929 O 2207.81 1.19183 -1.94955 0
M  V30 23930 C 2208.02 -2.31509 -2.6116 0
M  V30 23931 C 2209.37 -2.68727 -3.28741 0
M  V30 23932 O 2210.39 -2.30636 -2.71451 0
M  V30 23933 O 2209.25 -3.34328 -4.32304 0
M  V30 23934 H 2206.34 -0.477338 -0.675335 0
M  V30 23935 H 2208.89 -1.48803 -0.815833 0
M  V30 23936 H 2207.66 -3.25905 -2.16568 0
M  V30 23937 H 2207.28 -2.0656 -3.39733 0
M  V30 23938 N 2208.28 1.00373 -1.21503 0
M  V30 23939 C 2209.21 2.0889 -0.918706 0
M  V30 23940 C 2210.19 1.62045 0.134248 0
M  V30 23941 O 2211.38 1.88499 0.00500942 0
M  V30 23942 C 2208.5 3.36565 -0.379704 0
M  V30 23943 C 2207.55 4.0232 -1.41566 0
M  V30 23944 S 2208.38 4.44568 -2.98528 0
M  V30 23945 C 2209.54 5.75428 -2.46238 0
M  V30 23946 H 2209.77 2.33704 -1.83766 0
M  V30 23947 H 2207.3 1.13671 -1.04491 0
M  V30 23948 H 2209.26 4.10431 -0.0752917 0
M  V30 23949 H 2207.92 3.098 0.517954 0
M  V30 23950 H 2207.12 4.94218 -0.988163 0
M  V30 23951 H 2206.72 3.34734 -1.66821 0
M  V30 23952 H 2209.01 6.51238 -1.86803 0
M  V30 23953 H 2209.95 6.22991 -3.36583 0
M  V30 23954 H 2210.36 5.32309 -1.87904 0
M  V30 23955 N 2209.76 1.02298 1.19887 0
M  V30 23956 C 2211.01 0.714591 1.89045 0
M  V30 23957 C 2211.33 -0.758649 1.79637 0
M  V30 23958 O 2210.6 -1.54616 1.20294 0
M  V30 23959 H 2209.18 0.261329 0.699797 0
M  V30 23960 H 2211.84 1.29595 1.45572 0
M  V30 23961 H 2210.94 1.00365 2.95522 0
M  V30 23962 N 2211.24 -1.35782 0.800057 0
M  V30 23963 C 2212.17 -2.32459 0.220225 0
M  V30 23964 C 2213.15 -1.57162 -0.650702 0
M  V30 23965 O 2214.33 -1.85264 -0.582326 0
M  V30 23966 C 2211.46 -3.41403 -0.637293 0
M  V30 23967 C 2210.42 -4.27788 0.134606 0
M  V30 23968 C 2209.74 -5.27994 -0.844192 0
M  V30 23969 C 2211.04 -5.05086 1.32988 0
M  V30 23970 H 2212.74 -2.81201 1.02792 0
M  V30 23971 H 2210.28 -1.35198 0.495741 0
M  V30 23972 H 2212.24 -4.08033 -1.05295 0
M  V30 23973 H 2210.96 -2.91253 -1.4778 0
M  V30 23974 H 2209.62 -3.62729 0.53136 0
M  V30 23975 H 2209.27 -4.74114 -1.68002 0
M  V30 23976 H 2208.97 -5.86661 -0.332081 0
M  V30 23977 H 2210.49 -5.97496 -1.25819 0
M  V30 23978 H 2211.91 -5.64697 0.989439 0
M  V30 23979 H 2210.3 -5.73217 1.77603 0
M  V30 23980 H 2211.37 -4.36108 2.11986 0
M  V30 23981 N 2212.72 -0.552988 -1.4758 0
M  V30 23982 C 2213.66 0.210189 -2.31648 0
M  V30 23983 C 2214.66 0.913407 -1.42665 0
M  V30 23984 O 2215.86 0.835173 -1.59452 0
M  V30 23985 H 2212.24 0.0866545 -0.746991 0
M  V30 23986 H 2214.21 -0.518103 -2.93868 0
M  V30 23987 C 2212.96 1.2297 -3.25229 0
M  V30 23988 H 2212.28 0.698008 -3.9366 0
M  V30 23989 H 2213.72 1.73467 -3.86892 0
M  V30 23990 C 2212.18 2.27538 -2.48452 0
M  V30 23991 O 2212.71 3.34389 -2.22591 0
M  V30 23992 N 2210.92 2.01354 -2.09535 0
M  V30 23993 H 2210.46 1.14474 -2.30767 0
M  V30 23994 H 2210.42 2.71535 -1.5848 0
M  V30 23995 N 2214.19 1.54923 -0.28923 0
M  V30 23996 C 2215.14 2.24515 0.607926 0
M  V30 23997 C 2216.14 1.24704 1.14653 0
M  V30 23998 O 2217.34 1.42591 1.09853 0
M  V30 23999 H 2213.72 0.720721 0.214627 0
M  V30 24000 H 2215.69 2.984 -0.00169428 0
M  V30 24001 C 2214.44 2.99039 1.77401 0
M  V30 24002 H 2213.76 3.75639 1.36877 0
M  V30 24003 H 2215.2 3.51032 2.37807 0
M  V30 24004 C 2213.66 2.05323 2.67103 0
M  V30 24005 O 2214.19 1.6136 3.67867 0
M  V30 24006 N 2212.39 1.71526 2.34579 0
M  V30 24007 H 2211.94 2.07473 1.52685 0
M  V30 24008 H 2211.9 1.09095 2.94865 0
M  V30 24009 N 2215.67 0.0167433 1.57591 0
M  V30 24010 C 2216.62 -0.987316 2.10606 0
M  V30 24011 C 2217.61 -1.34505 1.02979 0
M  V30 24012 O 2218.82 -1.32873 1.21428 0
M  V30 24013 H 2215.19 -0.336122 0.672701 0
M  V30 24014 H 2217.17 -0.514766 2.93926 0
M  V30 24015 C 2215.91 -2.26478 2.63824 0
M  V30 24016 H 2215.24 -1.99823 3.46282 0
M  V30 24017 H 2216.68 -2.94971 3.04578 0
M  V30 24018 C 2215.14 -2.98607 1.55998 0
M  V30 24019 O 2215.67 -3.90242 0.95259 0
M  V30 24020 N 2213.87 -2.60725 1.28339 0
M  V30 24021 H 2213.42 -1.86288 1.77918 0
M  V30 24022 H 2213.38 -3.09297 0.564169 0
M  V30 24023 N 2217.15 -1.55503 -0.256249 0
M  V30 24024 C 2218.4 -1.761 -0.983455 0
M  V30 24025 C 2218.71 -0.578928 -1.86836 0
M  V30 24026 O 2219.92 -0.667694 -2.63162 0
M  V30 24027 C 2218.37 -3.11733 -1.79863 0
M  V30 24028 C 2217.98 -4.37559 -0.961571 0
M  V30 24029 C 2219.73 -3.41672 -2.51913 0
M  V30 24030 C 2217.63 -5.64226 -1.7721 0
M  V30 24031 H 2216.56 -0.656453 -0.370925 0
M  V30 24032 H 2219.21 -1.81944 -0.23846 0
M  V30 24033 H 2217.6 -2.9997 -2.58522 0
M  V30 24034 H 2218.77 -4.60284 -0.217967 0
M  V30 24035 H 2217.09 -4.14885 -0.35484 0
M  V30 24036 H 2219.68 -4.33522 -3.1299 0
M  V30 24037 H 2220.03 -2.62567 -3.23054 0
M  V30 24038 H 2220.56 -3.54608 -1.80271 0
M  V30 24039 H 2217.3 -6.46126 -1.10459 0
M  V30 24040 H 2216.82 -5.45617 -2.49123 0
M  V30 24041 H 2218.5 -6.03141 -2.34158 0
M  V30 24042 N 2218.63 0.521507 -1.48721 0
M  V30 24043 C 2219.87 1.27876 -1.57403 0
M  V30 24044 C 2220.21 1.92573 -0.25085 0
M  V30 24045 O 2219.48 1.79712 0.743902 0
M  V30 24046 C 2219.77 2.36159 -2.71847 0
M  V30 24047 C 2219.62 1.76098 -4.13896 0
M  V30 24048 C 2220.94 3.3787 -2.82014 0
M  V30 24049 H 2218.06 0.463571 -0.572949 0
M  V30 24050 H 2220.7 0.580088 -1.80928 0
M  V30 24051 H 2218.85 2.95752 -2.51919 0
M  V30 24052 H 2220.52 1.20491 -4.45286 0
M  V30 24053 H 2218.76 1.06594 -4.205 0
M  V30 24054 H 2219.43 2.54541 -4.89809 0
M  V30 24055 H 2221.91 2.88244 -3.00091 0
M  V30 24056 H 2220.79 4.11021 -3.63803 0
M  V30 24057 H 2221.05 3.98943 -1.90518 0
M  V30 24058 N 2220.11 1.37452 0.771027 0
M  V30 24059 C 2221.38 1.23234 1.51898 0
M  V30 24060 C 2221.76 -0.173772 2.10384 0
M  V30 24061 O 2221.11 -1.18148 1.95585 0
M  V30 24062 C 2221.32 2.32891 2.59929 0
M  V30 24063 C 2222.67 2.70467 3.27312 0
M  V30 24064 O 2223.69 2.32072 2.70224 0
M  V30 24065 O 2222.55 3.36616 4.30525 0
M  V30 24066 H 2219.65 0.480913 0.672794 0
M  V30 24067 H 2222.19 1.49233 0.80793 0
M  V30 24068 H 2220.96 3.27049 2.14837 0
M  V30 24069 H 2220.59 2.08359 3.38633 0
M  V30 24070 N 2221.58 -0.997276 1.22033 0
M  V30 24071 C 2222.49 -2.1209 1.00275 0
M  V30 24072 C 2223.51 -1.73935 -0.0475905 0
M  V30 24073 O 2224.69 -2.00883 0.144171 0
M  V30 24074 C 2221.75 -3.41839 0.578509 0
M  V30 24075 C 2220.81 -3.94122 1.70196 0
M  V30 24076 C 2220.05 -5.17679 1.29787 0
M  V30 24077 O 2220.27 -5.70132 0.174776 0
M  V30 24078 O 2219.2 -5.63603 2.11271 0
M  V30 24079 H 2223.03 -2.33327 1.94402 0
M  V30 24080 H 2220.61 -1.10464 1.00589 0
M  V30 24081 H 2222.5 -4.19927 0.352072 0
M  V30 24082 H 2221.17 -3.21973 -0.333962 0
M  V30 24083 H 2220.08 -3.17227 1.98287 0
M  V30 24084 H 2221.41 -4.18413 2.59213 0
M  V30 24085 N 2223.06 -1.02932 -1.19343 0
M  V30 24086 C 2223.99 -0.631145 -2.24808 0
M  V30 24087 C 2224.97 0.360075 -1.66245 0
M  V30 24088 O 2226.16 0.242692 -1.92678 0
M  V30 24089 C 2223.29 0.0183996 -3.47295 0
M  V30 24090 C 2222.24 -0.895147 -4.18534 0
M  V30 24091 C 2221.57 -0.110686 -5.34585 0
M  V30 24092 C 2222.87 -2.20909 -4.73283 0
M  V30 24093 H 2224.56 -1.5128 -2.5837 0
M  V30 24094 H 2222.11 -0.72884 -1.24193 0
M  V30 24095 H 2224.06 0.308601 -4.20269 0
M  V30 24096 H 2222.79 0.934852 -3.12935 0
M  V30 24097 H 2221.44 -1.16955 -3.47444 0
M  V30 24098 H 2221.09 0.807815 -4.96471 0
M  V30 24099 H 2220.79 -0.71919 -5.83182 0
M  V30 24100 H 2222.32 0.172764 -6.10356 0
M  V30 24101 H 2223.73 -1.98038 -5.38009 0
M  V30 24102 H 2222.13 -2.76955 -5.32368 0
M  V30 24103 H 2223.2 -2.86343 -3.91326 0
M  V30 24104 N 2224.54 1.35356 -0.807246 0
M  V30 24105 C 2225.77 2.03519 -0.399345 0
M  V30 24106 C 2226.19 1.60434 0.981958 0
M  V30 24107 O 2225.55 0.781328 1.636 0
M  V30 24108 C 2225.6 3.57233 -0.491615 0
M  V30 24109 O 2224.7 4.09422 0.494682 0
M  V30 24110 H 2224.04 0.642736 -0.166693 0
M  V30 24111 H 2226.57 1.72939 -1.09331 0
M  V30 24112 H 2226.58 4.06394 -0.361659 0
M  V30 24113 H 2225.26 3.87941 -1.49914 0
M  V30 24114 H 2223.83 3.71482 0.324911 0
M  V30 24115 N 2226.02 0.560807 1.47284 0
M  V30 24116 C 2226.97 -0.197901 2.31757 0
M  V30 24117 C 2227.96 -0.905828 1.43147 0
M  V30 24118 O 2229.17 -0.826705 1.59892 0
M  V30 24119 H 2225.54 -0.0826918 0.74744 0
M  V30 24120 H 2227.51 0.53368 2.93589 0
M  V30 24121 C 2226.26 -1.21244 3.25876 0
M  V30 24122 H 2225.58 -0.677121 3.94024 0
M  V30 24123 H 2227.02 -1.71412 3.87806 0
M  V30 24124 C 2225.48 -2.26217 2.49655 0
M  V30 24125 O 2226.01 -3.33204 2.24361 0
M  V30 24126 N 2224.22 -2.0024 2.106 0
M  V30 24127 H 2223.77 -1.13248 2.31371 0
M  V30 24128 H 2223.72 -2.70691 1.59918 0
M  V30 24129 N 2227.5 -1.54768 0.297442 0
M  V30 24130 C 2228.74 -1.99673 -0.31226 0
M  V30 24131 C 2229.07 -1.18735 -1.54684 0
M  V30 24132 O 2228.34 -0.282416 -1.93854 0
M  V30 24133 H 2226.92 -0.737562 -0.118368 0
M  V30 24134 H 2229.58 -1.90583 0.407949 0
M  V30 24135 H 2228.67 -3.06535 -0.586759 0
M  V30 24136 N 2228.97 -0.0251005 -1.5758 0
M  V30 24137 C 2230.2 0.664712 -1.95932 0
M  V30 24138 C 2230.62 1.65893 -0.901382 0
M  V30 24139 O 2229.97 1.82123 0.117223 0
M  V30 24140 C 2230.03 1.37462 -3.34345 0
M  V30 24141 O 2229.75 0.420247 -4.3608 0
M  V30 24142 C 2231.25 2.15663 -3.87304 0
M  V30 24143 H 2228.47 0.183546 -0.645408 0
M  V30 24144 H 2231.01 -0.0836731 -2.04329 0
M  V30 24145 H 2229.17 2.07444 -3.27179 0
M  V30 24146 H 2229.58 0.9239 -5.16299 0
M  V30 24147 H 2231.05 2.60794 -4.86508 0
M  V30 24148 H 2231.53 2.99399 -3.21336 0
M  V30 24149 H 2232.14 1.50647 -3.97726 0
M  V30 24150 N 2230.45 1.55637 0.247999 0
M  V30 24151 C 2231.68 1.8181 0.997996 0
M  V30 24152 C 2232.1 0.60201 1.78206 0
M  V30 24153 O 2231.46 -0.44893 1.75654 0
M  V30 24154 C 2231.51 3.05708 1.91245 0
M  V30 24155 O 2230.61 2.82547 3.00401 0
M  V30 24156 H 2229.95 0.600184 0.284035 0
M  V30 24157 H 2232.48 2.0282 0.269321 0
M  V30 24158 H 2232.49 3.35112 2.32731 0
M  V30 24159 H 2231.17 3.93859 1.33595 0
M  V30 24160 H 2229.75 2.64307 2.63051 0
M  V30 24161 N 2231.93 -0.513613 1.48996 0
M  V30 24162 C 2232.88 -1.61311 1.6113 0
M  V30 24163 C 2233.87 -1.53957 0.467548 0
M  V30 24164 O 2235.06 -1.61701 0.719855 0
M  V30 24165 C 2232.19 -2.99975 1.66943 0
M  V30 24166 C 2231.27 -3.12372 2.86853 0
M  V30 24167 N 2231.66 -2.94694 4.11083 0
M  V30 24168 C 2229.96 -3.43454 2.84527 0
M  V30 24169 C 2230.66 -3.1094 4.91621 0
M  V30 24170 N 2229.64 -3.39253 4.24745 0
M  V30 24171 H 2233.44 -1.46278 2.54912 0
M  V30 24172 H 2230.95 -0.719458 1.45594 0
M  V30 24173 H 2232.95 -3.78976 1.73731 0
M  V30 24174 H 2231.61 -3.16087 0.742887 0
M  V30 24175 H 2232.62 -2.71123 4.41262 0
M  V30 24176 H 2229.3 -3.65822 2.01199 0
M  V30 24177 H 2230.69 -3.01872 6.00269 0
M  V30 24178 N 2233.41 -1.37859 -0.763727 0
M  V30 24179 C 2234.63 -1.36896 -1.55802 0
M  V30 24180 C 2235.06 0.0415805 -1.88054 0
M  V30 24181 O 2234.42 1.02086 -1.49827 0
M  V30 24182 C 2234.47 -2.22197 -2.84008 0
M  V30 24183 O 2233.57 -1.6321 -3.7873 0
M  V30 24184 H 2232.91 -0.467399 -0.47163 0
M  V30 24185 H 2235.44 -1.81488 -0.944625 0
M  V30 24186 H 2235.45 -2.35696 -3.33033 0
M  V30 24187 H 2234.13 -3.24721 -2.59864 0
M  V30 24188 H 2232.7 -1.58797 -3.37399 0
M  V30 24189 N 2234.89 0.990791 -1.22561 0
M  V30 24190 C 2236.12 1.76609 -1.07782 0
M  V30 24191 C 2236.53 1.85109 0.371481 0
M  V30 24192 O 2235.89 1.32276 1.25735 0
M  V30 24193 C 2235.94 3.19819 -1.68518 0
M  V30 24194 O 2235.66 3.11775 -3.07779 0
M  V30 24195 C 2237.16 4.13788 -1.59042 0
M  V30 24196 H 2234.38 0.554576 -0.377738 0
M  V30 24197 H 2236.92 1.24548 -1.62197 0
M  V30 24198 H 2235.08 3.6894 -1.18161 0
M  V30 24199 H 2235.49 4.01852 -3.37069 0
M  V30 24200 H 2236.97 5.12017 -2.06259 0
M  V30 24201 H 2237.44 4.35776 -0.547349 0
M  V30 24202 H 2238.05 3.70564 -2.08715 0
M  V30 24203 N 2236.37 1.03564 1.18795 0
M  V30 24204 C 2237.31 0.615945 2.24296 0
M  V30 24205 C 2238.31 -0.354779 1.65643 0
M  V30 24206 O 2239.51 -0.222619 1.78618 0
M  V30 24207 H 2235.89 0.180947 0.729906 0
M  V30 24208 H 2237.86 1.51624 2.57007 0
M  V30 24209 C 2236.61 -0.0104124 3.47698 0
M  V30 24210 H 2235.93 0.727578 3.93124 0
M  V30 24211 H 2237.37 -0.266921 4.23159 0
M  V30 24212 C 2235.83 -1.25899 3.12491 0
M  V30 24213 O 2236.36 -2.35032 3.25765 0
M  V30 24214 N 2234.57 -1.15034 2.66862 0
M  V30 24215 H 2234.11 -0.262283 2.56261 0
M  V30 24216 H 2234.07 -1.98668 2.43677 0
M  V30 24217 N 2237.84 -1.34926 0.814413 0
M  V30 24218 C 2239.12 -1.92941 0.321397 0
M  V30 24219 C 2239.5 -1.74355 -1.19011 0
M  V30 24220 O 2238.85 -1.1172 -1.99326 0
M  V30 24221 C 2239.06 -3.41034 0.741383 0
M  V30 24222 C 2240.41 -4.18184 0.73534 0
M  V30 24223 O 2241.43 -3.49582 0.683422 0
M  V30 24224 O 2240.29 -5.40601 0.800798 0
M  V30 24225 H 2237.38 -0.822526 0.0859038 0
M  V30 24226 H 2239.93 -1.43954 0.898634 0
M  V30 24227 H 2238.7 -3.48326 1.78282 0
M  V30 24228 H 2238.32 -3.97356 0.139377 0
M  V30 24229 N 2239.32 -0.56861 -1.46985 0
M  V30 24230 C 2240.27 0.193299 -2.27179 0
M  V30 24231 C 2241.26 0.874871 -1.35036 0
M  V30 24232 O 2242.45 0.771294 -1.59311 0
M  V30 24233 C 2239.58 1.2154 -3.21065 0
M  V30 24234 C 2238.66 0.536664 -4.20691 0
M  V30 24235 N 2239.05 -0.399761 -5.04218 0
M  V30 24236 C 2237.35 0.789176 -4.38962 0
M  V30 24237 C 2238.05 -0.795118 -5.7624 0
M  V30 24238 N 2237.03 -0.147395 -5.434 0
M  V30 24239 H 2240.83 -0.526509 -2.89145 0
M  V30 24240 H 2238.34 -0.389369 -1.57663 0
M  V30 24241 H 2240.34 1.7753 -3.77212 0
M  V30 24242 H 2239 1.93618 -2.60657 0
M  V30 24243 H 2240.01 -0.774544 -5.12075 0
M  V30 24244 H 2236.69 1.4976 -3.89716 0
M  V30 24245 H 2238.08 -1.56524 -6.53414 0
M  V30 24246 N 2240.8 1.54608 -0.305646 0
M  V30 24247 C 2241.73 2.2665 0.561442 0
M  V30 24248 C 2242.71 1.26774 1.13412 0
M  V30 24249 O 2243.9 1.55555 1.1626 0
M  V30 24250 C 2241.03 3.01078 1.73116 0
M  V30 24251 C 2239.98 4.0814 1.28863 0
M  V30 24252 C 2239.31 4.70309 2.54388 0
M  V30 24253 C 2240.61 5.20637 0.416487 0
M  V30 24254 H 2242.3 2.99374 -0.0394428 0
M  V30 24255 H 2239.85 1.43986 -0.0204103 0
M  V30 24256 H 2241.8 3.50199 2.34389 0
M  V30 24257 H 2240.52 2.2594 2.35836 0
M  V30 24258 H 2239.18 3.59876 0.698928 0
M  V30 24259 H 2238.83 3.91806 3.15432 0
M  V30 24260 H 2238.53 5.42618 2.25476 0
M  V30 24261 H 2240.05 5.22196 3.16455 0
M  V30 24262 H 2241.47 5.65624 0.935017 0
M  V30 24263 H 2239.86 5.99693 0.220941 0
M  V30 24264 H 2240.93 4.81687 -0.557246 0
M  V30 24265 N 2242.28 0.033457 1.57564 0
M  V30 24266 C 2243.51 -0.653363 1.95997 0
M  V30 24267 C 2243.92 -1.65945 0.908778 0
M  V30 24268 O 2243.26 -1.83324 -0.117438 0
M  V30 24269 C 2243.32 -1.41243 3.30591 0
M  V30 24270 C 2242.98 -0.564183 4.53504 0
M  V30 24271 C 2243.98 0.162342 5.19646 0
M  V30 24272 C 2241.67 -0.50031 4.99802 0
M  V30 24273 C 2243.66 0.941366 6.3041 0
M  V30 24274 C 2241.35 0.282415 6.10447 0
M  V30 24275 C 2242.35 1.00196 6.75611 0
M  V30 24276 O 2242.03 1.77184 7.84131 0
M  V30 24277 H 2241.77 -0.184717 0.650274 0
M  V30 24278 H 2244.32 0.0908201 2.05199 0
M  V30 24279 H 2242.55 -2.20185 3.17892 0
M  V30 24280 H 2244.24 -1.98778 3.53896 0
M  V30 24281 H 2245 0.122356 4.84846 0
M  V30 24282 H 2240.88 -1.04994 4.48884 0
M  V30 24283 H 2244.43 1.50351 6.81205 0
M  V30 24284 H 2240.32 0.324103 6.44686 0
M  V30 24285 H 2241.09 1.69208 8.00819 0
M  V30 24286 N 2243.76 -1.55766 -0.239741 0
M  V30 24287 C 2244.69 -1.93932 -1.30049 0
M  V30 24288 C 2245.67 -0.805158 -1.49837 0
M  V30 24289 O 2246.85 -1.06602 -1.62326 0
M  V30 24290 C 2243.98 -2.24024 -2.65387 0
M  V30 24291 C 2242.94 -3.3976 -2.60283 0
M  V30 24292 C 2242.26 -3.55412 -3.99483 0
M  V30 24293 C 2243.56 -4.7525 -2.16645 0
M  V30 24294 H 2245.26 -2.82785 -0.983523 0
M  V30 24295 H 2242.8 -1.36056 -0.471677 0
M  V30 24296 H 2244.75 -2.49314 -3.39736 0
M  V30 24297 H 2243.48 -1.32006 -2.98734 0
M  V30 24298 H 2242.14 -3.1449 -1.88392 0
M  V30 24299 H 2241.79 -2.608 -4.30107 0
M  V30 24300 H 2241.49 -4.33245 -3.96954 0
M  V30 24301 H 2243.01 -3.8303 -4.75521 0
M  V30 24302 H 2244.42 -4.99864 -2.80729 0
M  V30 24303 H 2242.82 -5.56236 -2.25213 0
M  V30 24304 H 2243.89 -4.71829 -1.11827 0
M  V30 24305 N 2245.23 0.505704 -1.49266 0
M  V30 24306 C 2246.51 1.26704 -1.49015 0
M  V30 24307 C 2246.89 2.1 -0.215242 0
M  V30 24308 O 2246.24 2.13944 0.802509 0
M  V30 24309 C 2246.45 2.12778 -2.76634 0
M  V30 24310 C 2247.8 2.72122 -3.25937 0
M  V30 24311 O 2248.82 2.23049 -2.77719 0
M  V30 24312 O 2247.68 3.61444 -4.09903 0
M  V30 24313 H 2244.77 0.57312 -0.596207 0
M  V30 24314 H 2247.32 0.520361 -1.61525 0
M  V30 24315 H 2246.09 1.51174 -3.60919 0
M  V30 24316 H 2245.71 2.94648 -2.66961 0
M  V30 24317 N 2246.71 1.38262 0.756405 0
M  V30 24318 C 2247.66 1.35375 1.89146 0
M  V30 24319 C 2248.65 0.240069 1.6769 0
M  V30 24320 O 2249.86 0.40895 1.75293 0
M  V30 24321 H 2246.24 0.422247 0.622263 0
M  V30 24322 H 2248.21 2.31162 1.88697 0
M  V30 24323 C 2246.96 1.1929 3.26597 0
M  V30 24324 H 2246.28 2.04246 3.43691 0
M  V30 24325 H 2247.72 1.21323 4.06272 0
M  V30 24326 C 2246.18 -0.100395 3.3675 0
M  V30 24327 O 2246.71 -1.07844 3.86953 0
M  V30 24328 N 2244.91 -0.156279 2.90179 0
M  V30 24329 H 2244.46 0.640297 2.49515 0
M  V30 24330 H 2244.42 -1.02118 2.97354 0
M  V30 24331 N 2248.19 -0.984277 1.23084 0
M  V30 24332 C 2249.44 -1.72504 1.0606 0
M  V30 24333 C 2249.77 -1.90278 -0.403072 0
M  V30 24334 O 2249.02 -1.44947 -1.31487 0
M  V30 24335 C 2249.32 -3.12917 1.72679 0
M  V30 24336 C 2248.99 -3.15033 3.22591 0
M  V30 24337 C 2247.65 -3.15317 3.63495 0
M  V30 24338 C 2250 -3.10649 4.18505 0
M  V30 24339 C 2247.33 -3.0893 4.98777 0
M  V30 24340 C 2249.68 -3.05804 5.53775 0
M  V30 24341 C 2248.34 -3.04409 5.94047 0
M  V30 24342 H 2247.61 -0.631235 0.388102 0
M  V30 24343 H 2250.26 -1.15213 1.52965 0
M  V30 24344 H 2248.57 -3.7357 1.18123 0
M  V30 24345 H 2250.26 -3.68993 1.56988 0
M  V30 24346 H 2246.85 -3.15566 2.90028 0
M  V30 24347 H 2251.04 -3.09572 3.87916 0
M  V30 24348 H 2246.29 -3.062 5.29199 0
M  V30 24349 H 2250.47 -3.01369 6.27813 0
M  V30 24350 H 2248.09 -2.99214 6.98838 0
M  V30 24351 N 2249.67 -1.04192 -1.18244 0
M  V30 24352 C 2250.62 -0.627831 -2.23967 0
M  V30 24353 C 2251.61 0.345989 -1.65829 0
M  V30 24354 O 2252.82 0.213143 -1.78734 0
M  V30 24355 H 2249.19 -0.184815 -0.728936 0
M  V30 24356 H 2251.16 -1.52985 -2.56199 0
M  V30 24357 C 2249.91 -0.00802703 -3.47699 0
M  V30 24358 H 2249.23 -0.748416 -3.92732 0
M  V30 24359 H 2250.67 0.244476 -4.23295 0
M  V30 24360 C 2249.13 1.2424 -3.13155 0
M  V30 24361 O 2249.66 2.33301 -3.27007 0
M  V30 24362 N 2247.87 1.13618 -2.67469 0
M  V30 24363 H 2247.42 0.248689 -2.56397 0
M  V30 24364 H 2247.37 1.97372 -2.44727 0
M  V30 24365 N 2251.15 1.34492 -0.821557 0
M  V30 24366 C 2252.37 2.02552 -0.42192 0
M  V30 24367 C 2252.79 1.61874 0.971717 0
M  V30 24368 O 2252.15 0.823524 1.62863 0
M  V30 24369 C 2252.2 3.57843 -0.512913 0
M  V30 24370 O 2251.92 3.97047 -1.85162 0
M  V30 24371 C 2253.42 4.43168 -0.107999 0
M  V30 24372 H 2250.64 0.64924 -0.169494 0
M  V30 24373 H 2253.18 1.71796 -1.10933 0
M  V30 24374 H 2251.34 3.87194 0.126406 0
M  V30 24375 H 2251.75 4.91729 -1.82491 0
M  V30 24376 H 2253.23 5.5155 -0.222754 0
M  V30 24377 H 2253.7 4.2884 0.948325 0
M  V30 24378 H 2254.31 4.19143 -0.721062 0
M  V30 24379 N 2252.62 0.576397 1.46681 0
M  V30 24380 C 2253.85 0.063084 2.07304 0
M  V30 24381 C 2254.27 -1.22977 1.42331 0
M  V30 24382 O 2253.63 -1.74128 0.504895 0
M  V30 24383 C 2253.68 -0.0958316 3.60473 0
M  V30 24384 O 2252.78 -1.15387 3.95929 0
M  V30 24385 H 2252.13 0.0599579 0.661287 0
M  V30 24386 H 2254.66 0.797544 1.88415 0
M  V30 24387 H 2254.67 -0.303999 4.06866 0
M  V30 24388 H 2253.34 0.848351 4.07156 0
M  V30 24389 H 2251.92 -0.92466 3.61254 0
M  V30 24390 N 2254.1 -1.54444 0.313841 0
M  V30 24391 C 2255.38 -1.92526 -0.345413 0
M  V30 24392 C 2255.76 -1.24245 -1.70665 0
M  V30 24393 O 2255.11 -0.382694 -2.25273 0
M  V30 24394 C 2255.32 -3.46122 -0.447309 0
M  V30 24395 C 2256.67 -4.18585 -0.712164 0
M  V30 24396 O 2257.69 -3.52226 -0.530616 0
M  V30 24397 O 2256.55 -5.36087 -1.06173 0
M  V30 24398 H 2253.64 -0.803586 -0.195393 0
M  V30 24399 H 2256.19 -1.65776 0.362842 0
M  V30 24400 H 2254.96 -3.87974 0.509111 0
M  V30 24401 H 2254.58 -3.78947 -1.20353 0
M  V30 24402 N 2255.58 -0.0418125 -1.57545 0
M  V30 24403 C 2256.49 0.951175 -2.14452 0
M  V30 24404 C 2257.51 1.34823 -1.09995 0
M  V30 24405 O 2258.68 1.42705 -1.42117 0
M  V30 24406 C 2255.75 2.21079 -2.67067 0
M  V30 24407 C 2254.81 1.87297 -3.86288 0
M  V30 24408 C 2254.04 3.07254 -4.36384 0
M  V30 24409 O 2254.26 4.20325 -3.85594 0
M  V30 24410 O 2253.2 2.88812 -5.28082 0
M  V30 24411 H 2257.02 0.497235 -2.99602 0
M  V30 24412 H 2254.61 0.179541 -1.48317 0
M  V30 24413 H 2256.49 2.95001 -3.0092 0
M  V30 24414 H 2255.17 2.65629 -1.84994 0
M  V30 24415 H 2254.07 1.10721 -3.5734 0
M  V30 24416 H 2255.41 1.47554 -4.69562 0
M  V30 24417 N 2257.06 1.55891 0.231477 0
M  V30 24418 C 2257.97 1.94754 1.30797 0
M  V30 24419 C 2258.98 0.850015 1.51825 0
M  V30 24420 O 2260.16 1.15274 1.65148 0
M  V30 24421 C 2257.23 2.24775 2.63964 0
M  V30 24422 C 2256.29 3.48044 2.51325 0
M  V30 24423 C 2255.52 3.76623 3.78141 0
M  V30 24424 O 2255.74 3.07031 4.80716 0
M  V30 24425 O 2254.68 4.70129 3.75848 0
M  V30 24426 H 2258.5 2.86475 1.00825 0
M  V30 24427 H 2256.09 1.42972 0.433522 0
M  V30 24428 H 2257.97 2.45324 3.42629 0
M  V30 24429 H 2256.64 1.3623 2.93637 0
M  V30 24430 H 2255.55 3.32785 1.70894 0
M  V30 24431 H 2256.88 4.3694 2.26593 0
M  V30 24432 N 2258.54 -0.497781 1.49532 0
M  V30 24433 C 2259.79 -1.24834 1.58428 0
M  V30 24434 C 2260.1 -1.93619 0.277677 0
M  V30 24435 O 2261.3 -2.7039 0.245218 0
M  V30 24436 C 2259.76 -2.26681 2.79542 0
M  V30 24437 C 2259.37 -1.63821 4.16973 0
M  V30 24438 C 2261.11 -3.02545 2.97769 0
M  V30 24439 C 2259.02 -2.63797 5.29306 0
M  V30 24440 H 2257.95 -0.469613 0.589898 0
M  V30 24441 H 2260.6 -0.521826 1.75924 0
M  V30 24442 H 2258.98 -3.02509 2.55547 0
M  V30 24443 H 2260.16 -0.939632 4.51118 0
M  V30 24444 H 2258.47 -1.00335 4.04131 0
M  V30 24445 H 2261.07 -3.77316 3.78862 0
M  V30 24446 H 2261.41 -3.60351 2.08454 0
M  V30 24447 H 2261.94 -2.33832 3.21819 0
M  V30 24448 H 2258.68 -2.10768 6.20691 0
M  V30 24449 H 2258.2 -3.31886 4.99612 0
M  V30 24450 H 2259.88 -3.2616 5.58774 0
M  V30 24451 N 2260.01 -1.38661 -0.749062 0
M  V30 24452 C 2261.26 -1.3485 -1.50532 0
M  V30 24453 C 2261.58 0.0594673 -1.94909 0
M  V30 24454 O 2260.85 1.00803 -1.67975 0
M  V30 24455 H 2259.43 -0.4962 -0.558386 0
M  V30 24456 H 2262.1 -1.73386 -0.890134 0
M  V30 24457 H 2261.19 -2.00223 -2.3941 0
M  V30 24458 N 2261.49 0.977736 -1.23605 0
M  V30 24459 C 2262.44 2.09185 -1.01708 0
M  V30 24460 C 2263.44 1.69341 0.0447917 0
M  V30 24461 O 2264.64 1.7967 -0.108933 0
M  V30 24462 H 2261.02 0.684307 -0.311815 0
M  V30 24463 H 2262.99 2.24819 -1.96211 0
M  V30 24464 C 2261.74 3.41985 -0.627806 0
M  V30 24465 H 2261.06 3.73097 -1.43662 0
M  V30 24466 H 2262.5 4.20871 -0.514127 0
M  V30 24467 C 2260.96 3.30288 0.66418 0
M  V30 24468 O 2261.49 3.63363 1.71261 0
M  V30 24469 N 2259.69 2.8344 0.641106 0
M  V30 24470 H 2259.24 2.56723 -0.212422 0
M  V30 24471 H 2259.2 2.75996 1.50578 0
M  V30 24472 N 2262.97 1.04818 1.1769 0
M  V30 24473 C 2263.92 0.6397 2.23631 0
M  V30 24474 C 2264.91 -0.33719 1.6601 0
M  V30 24475 O 2266.12 -0.203662 1.78844 0
M  V30 24476 H 2262.49 0.188678 0.727945 0
M  V30 24477 H 2264.47 1.54342 2.55384 0
M  V30 24478 C 2263.21 0.0264662 3.4769 0
M  V30 24479 H 2262.54 0.769233 3.9233 0
M  V30 24480 H 2263.98 -0.222024 4.23418 0
M  V30 24481 C 2262.44 -1.22578 3.13809 0
M  V30 24482 O 2262.97 -2.31563 3.2824 0
M  V30 24483 N 2261.17 -1.12197 2.68067 0
M  V30 24484 H 2260.72 -0.235088 2.56525 0
M  V30 24485 H 2260.68 -1.96072 2.45771 0
M  V30 24486 N 2264.45 -1.34055 0.828678 0
M  V30 24487 C 2265.4 -2.29413 0.252607 0
M  V30 24488 C 2266.37 -1.53858 -0.625853 0
M  V30 24489 O 2267.55 -1.82203 -0.56628 0
M  V30 24490 C 2264.69 -3.4028 -0.574771 0
M  V30 24491 C 2263.8 -4.30764 0.326575 0
M  V30 24492 C 2262.94 -5.28737 -0.510923 0
M  V30 24493 C 2261.98 -6.1086 0.38945 0
M  V30 24494 N 2261.12 -7.00906 -0.409315 0
M  V30 24495 H 2265.96 -2.78084 1.07113 0
M  V30 24496 H 2263.49 -1.36842 0.539701 0
M  V30 24497 H 2265.45 -4.03249 -1.06985 0
M  V30 24498 H 2264.08 -2.92828 -1.35836 0
M  V30 24499 H 2263.13 -3.68605 0.939902 0
M  V30 24500 H 2264.44 -4.88288 1.01866 0
M  V30 24501 H 2263.6 -5.97186 -1.07024 0
M  V30 24502 H 2262.34 -4.71765 -1.23648 0
M  V30 24503 H 2261.34 -5.41339 0.960864 0
M  V30 24504 H 2262.57 -6.69914 1.11321 0
M  V30 24505 H 2260.51 -6.46395 -1.11845 0
M  V30 24506 H 2260.43 -7.55667 0.224259 0
M  V30 24507 H 2261.7 -7.73675 -0.9512 0
M  V30 24508 N 2265.93 -0.584167 -1.46374 0
M  V30 24509 C 2266.88 0.161006 -2.32042 0
M  V30 24510 C 2267.87 0.88294 -1.4457 0
M  V30 24511 O 2269.08 0.801163 -1.61187 0
M  V30 24512 H 2265.45 0.0707902 -0.748661 0
M  V30 24513 H 2267.42 -0.58032 -2.92703 0
M  V30 24514 C 2266.17 1.16044 -3.27764 0
M  V30 24515 H 2265.49 0.61435 -3.95052 0
M  V30 24516 H 2266.93 1.65221 -3.90484 0
M  V30 24517 C 2265.39 2.22216 -2.53222 0
M  V30 24518 O 2265.92 3.29593 -2.29634 0
M  V30 24519 N 2264.13 1.96864 -2.13759 0
M  V30 24520 H 2263.68 1.09553 -2.33143 0
M  V30 24521 H 2263.63 2.68112 -1.64204 0
M  V30 24522 N 2267.41 1.54275 -0.322027 0
M  V30 24523 C 2268.34 2.20517 0.587141 0
M  V30 24524 C 2269.32 1.18169 1.1169 0
M  V30 24525 O 2270.5 1.46901 1.18119 0
M  V30 24526 C 2267.63 2.86565 1.80549 0
M  V30 24527 C 2266.67 4.0262 1.40711 0
M  V30 24528 S 2267.51 5.33647 0.445124 0
M  V30 24529 C 2268.66 6.03188 1.67079 0
M  V30 24530 H 2268.9 2.9729 0.0244352 0
M  V30 24531 H 2266.43 1.54035 -0.106114 0
M  V30 24532 H 2268.39 3.25241 2.50457 0
M  V30 24533 H 2267.05 2.09599 2.33938 0
M  V30 24534 H 2266.24 4.47691 2.31493 0
M  V30 24535 H 2265.84 3.6561 0.787755 0
M  V30 24536 H 2268.13 6.25273 2.60845 0
M  V30 24537 H 2269.08 6.96758 1.26227 0
M  V30 24538 H 2269.49 5.33079 1.85707 0
M  V30 24539 N 2268.88 0.0501669 1.5752 0
M  V30 24540 C 2270.16 -0.663653 1.83997 0
M  V30 24541 C 2270.54 -1.89097 0.938373 0
M  V30 24542 O 2269.89 -2.285 -0.000837425 0
M  V30 24543 C 2270.1 -1.0219 3.33704 0
M  V30 24544 C 2271.45 -1.40462 4.00694 0
M  V30 24545 O 2272.47 -1.11427 3.38323 0
M  V30 24546 O 2271.33 -1.94645 5.10662 0
M  V30 24547 H 2268.42 -0.327497 0.759391 0
M  V30 24548 H 2270.97 0.0794536 1.69514 0
M  V30 24549 H 2269.74 -0.149295 3.91015 0
M  V30 24550 H 2269.36 -1.82249 3.53371 0
M  V30 24551 N 2270.36 -1.56011 -0.223207 0
M  V30 24552 C 2271.29 -1.87291 -1.30374 0
M  V30 24553 C 2272.27 -0.730138 -1.45285 0
M  V30 24554 O 2273.46 -0.97833 -1.61124 0
M  V30 24555 C 2270.58 -2.07847 -2.67427 0
M  V30 24556 C 2269.63 -3.30531 -2.6954 0
M  V30 24557 S 2270.46 -4.86504 -2.23773 0
M  V30 24558 C 2271.62 -5.10094 -3.62705 0
M  V30 24559 H 2271.85 -2.78648 -1.03647 0
M  V30 24560 H 2269.38 -1.48425 -0.425367 0
M  V30 24561 H 2271.34 -2.20374 -3.46332 0
M  V30 24562 H 2270 -1.1729 -2.91379 0
M  V30 24563 H 2269.2 -3.41953 -3.70248 0
M  V30 24564 H 2268.8 -3.16852 -1.98697 0
M  V30 24565 H 2271.09 -4.98891 -4.58382 0
M  V30 24566 H 2272.03 -6.11987 -3.56199 0
M  V30 24567 H 2272.44 -4.37835 -3.56316 0
M  V30 24568 N 2271.84 0.489844 -1.49794 0
M  V30 24569 C 2273.07 1.26515 -1.63333 0
M  V30 24570 C 2273.48 1.86669 -0.308425 0
M  V30 24571 O 2272.82 1.69109 0.717482 0
M  V30 24572 C 2272.88 2.42685 -2.65225 0
M  V30 24573 C 2272.55 2.03314 -4.09283 0
M  V30 24574 C 2273.54 1.56643 -4.95741 0
M  V30 24575 C 2271.23 2.12608 -4.55086 0
M  V30 24576 C 2273.22 1.19784 -6.26044 0
M  V30 24577 C 2270.91 1.7536 -5.85399 0
M  V30 24578 C 2271.91 1.29024 -6.70702 0
M  V30 24579 O 2271.6 0.922849 -7.98585 0
M  V30 24580 H 2271.33 0.389499 -0.552509 0
M  V30 24581 H 2273.88 0.593347 -1.96643 0
M  V30 24582 H 2272.11 3.12977 -2.27117 0
M  V30 24583 H 2273.8 3.0469 -2.68177 0
M  V30 24584 H 2274.57 1.489 -4.61577 0
M  V30 24585 H 2270.45 2.47624 -3.88848 0
M  V30 24586 H 2273.99 0.83546 -6.92579 0
M  V30 24587 H 2269.89 1.82757 -6.19088 0
M  V30 24588 H 2270.65 1.05335 -8.11694 0
M  V30 24589 N 2273.32 1.39056 0.741698 0
M  V30 24590 C 2274.25 1.39969 1.86898 0
M  V30 24591 C 2275.23 0.263949 1.6804 0
M  V30 24592 O 2276.41 0.468788 1.88457 0
M  V30 24593 C 2273.54 1.2358 3.24569 0
M  V30 24594 C 2272.5 2.34484 3.58052 0
M  V30 24595 C 2271.82 2.03189 4.94589 0
M  V30 24596 C 2273.12 3.7678 3.6171 0
M  V30 24597 H 2274.82 2.34305 1.86391 0
M  V30 24598 H 2272.36 1.12781 0.895341 0
M  V30 24599 H 2274.32 1.22841 4.03098 0
M  V30 24600 H 2273.04 0.257103 3.25586 0
M  V30 24601 H 2271.7 2.34428 2.81849 0
M  V30 24602 H 2271.35 1.03774 4.92179 0
M  V30 24603 H 2271.05 2.77474 5.17959 0
M  V30 24604 H 2272.57 2.04089 5.75482 0
M  V30 24605 H 2273.99 3.78802 4.30328 0
M  V30 24606 H 2272.38 4.50369 3.96595 0
M  V30 24607 H 2273.45 4.08239 2.61665 0
M  V30 24608 N 2274.8 -0.971167 1.24121 0
M  V30 24609 C 2276.02 -1.75405 1.1067 0
M  V30 24610 C 2276.45 -1.85056 -0.337016 0
M  V30 24611 O 2275.8 -1.31894 -1.24393 0
M  V30 24612 C 2275.85 -3.15438 1.74732 0
M  V30 24613 O 2274.96 -3.99696 1.01573 0
M  V30 24614 H 2274.3 -0.53931 0.387351 0
M  V30 24615 H 2276.83 -1.21847 1.6436 0
M  V30 24616 H 2276.84 -3.65976 1.80348 0
M  V30 24617 H 2275.51 -3.07729 2.79778 0
M  V30 24618 H 2274.09 -3.58185 1.03719 0
M  V30 24619 N 2276.27 -1.05441 -1.17133 0
M  V30 24620 C 2277.22 -0.657578 -2.21234 0
M  V30 24621 C 2278.19 0.341515 -1.62551 0
M  V30 24622 O 2279.38 0.23236 -1.8938 0
M  V30 24623 C 2276.52 -0.0411182 -3.45076 0
M  V30 24624 C 2275.63 -1.08935 -4.1804 0
M  V30 24625 C 2274.76 -0.439941 -5.29375 0
M  V30 24626 C 2273.8 -1.4723 -5.94129 0
M  V30 24627 N 2272.94 -0.846878 -6.96974 0
M  V30 24628 H 2277.78 -1.54976 -2.54532 0
M  V30 24629 H 2275.32 -0.775028 -1.25027 0
M  V30 24630 H 2277.28 0.333757 -4.15863 0
M  V30 24631 H 2275.91 0.814513 -3.12355 0
M  V30 24632 H 2274.96 -1.58202 -3.45942 0
M  V30 24633 H 2276.27 -1.8729 -4.62303 0
M  V30 24634 H 2275.42 -0.0116192 -6.06699 0
M  V30 24635 H 2274.16 0.375571 -4.86252 0
M  V30 24636 H 2273.17 -1.91061 -5.15534 0
M  V30 24637 H 2274.39 -2.28976 -6.39333 0
M  V30 24638 H 2272.34 -0.0519228 -6.55979 0
M  V30 24639 H 2272.26 -1.56793 -7.39562 0
M  V30 24640 H 2273.52 -0.443414 -7.78238 0
M  V30 24641 N 2277.75 1.33613 -0.835776 0
M  V30 24642 C 2278.68 2.28101 -0.224192 0
M  V30 24643 C 2279.7 1.51604 0.593304 0
M  V30 24644 O 2280.89 1.73467 0.42088 0
M  V30 24645 C 2277.99 3.31523 0.70325 0
M  V30 24646 C 2277.16 4.37337 -0.0742297 0
M  V30 24647 C 2276.22 5.20445 0.776085 0
M  V30 24648 O 2275.24 5.68788 0.216406 0
M  V30 24649 N 2276.45 5.4142 2.09392 0
M  V30 24650 H 2279.21 2.81223 -1.03603 0
M  V30 24651 H 2276.77 1.46274 -0.693946 0
M  V30 24652 H 2278.76 3.84024 1.277 0
M  V30 24653 H 2277.33 2.787 1.4158 0
M  V30 24654 H 2276.55 3.85377 -0.829348 0
M  V30 24655 H 2277.84 5.05143 -0.608952 0
M  V30 24656 H 2277.24 5.03839 2.5722 0
M  V30 24657 H 2275.8 5.9699 2.61623 0
M  V30 24658 N 2279.23 0.591922 1.46062 0
M  V30 24659 C 2280.18 -0.136029 2.30399 0
M  V30 24660 C 2281.15 -0.875214 1.41171 0
M  V30 24661 O 2282.33 -0.86406 1.70114 0
M  V30 24662 C 2279.47 -1.13775 3.25806 0
M  V30 24663 C 2278.59 -0.401062 4.30134 0
M  V30 24664 C 2277.72 -1.39112 5.12661 0
M  V30 24665 C 2276.76 -0.641355 6.08731 0
M  V30 24666 N 2275.9 -1.57992 6.84093 0
M  V30 24667 H 2280.74 0.589195 2.92117 0
M  V30 24668 H 2278.27 0.302367 1.43959 0
M  V30 24669 H 2280.23 -1.73149 3.79572 0
M  V30 24670 H 2278.86 -1.83058 2.65875 0
M  V30 24671 H 2277.91 0.307893 3.79152 0
M  V30 24672 H 2279.23 0.184652 4.98458 0
M  V30 24673 H 2278.38 -2.05739 5.70751 0
M  V30 24674 H 2277.12 -2.01076 4.44319 0
M  V30 24675 H 2276.12 0.0386385 5.49786 0
M  V30 24676 H 2277.35 -0.0269751 6.79095 0
M  V30 24677 H 2275.29 -2.1875 6.18453 0
M  V30 24678 H 2275.21 -1.04725 7.48711 0
M  V30 24679 H 2276.48 -2.23626 7.46734 0
M  V30 24680 N 2280.71 -1.54102 0.330204 0
M  V30 24681 C 2281.93 -2.05571 -0.274857 0
M  V30 24682 C 2282.36 -1.20439 -1.44485 0
M  V30 24683 O 2281.72 -0.215023 -1.8002 0
M  V30 24684 C 2281.76 -3.54116 -0.680727 0
M  V30 24685 O 2280.87 -3.71896 -1.78234 0
M  V30 24686 H 2280.21 -0.662236 -0.0483732 0
M  V30 24687 H 2282.74 -1.98877 0.480543 0
M  V30 24688 H 2282.75 -3.96507 -0.961565 0
M  V30 24689 H 2281.42 -4.15532 0.174976 0
M  V30 24690 H 2280 -3.4141 -1.49979 0
M  V30 24691 N 2282.19 -0.0585199 -1.57491 0
M  V30 24692 C 2283.44 0.613112 -1.92156 0
M  V30 24693 C 2283.75 1.71567 -0.939364 0
M  V30 24694 O 2284.95 2.44597 -1.17833 0
M  V30 24695 C 2283.41 1.14189 -3.41305 0
M  V30 24696 C 2283.02 0.0710478 -4.47944 0
M  V30 24697 C 2284.76 1.78835 -3.84991 0
M  V30 24698 C 2282.67 0.613122 -5.88213 0
M  V30 24699 H 2281.6 0.232784 -0.717166 0
M  V30 24700 H 2284.25 -0.128602 -1.83049 0
M  V30 24701 H 2282.63 1.93615 -3.45441 0
M  V30 24702 H 2283.81 -0.702916 -4.55407 0
M  V30 24703 H 2282.12 -0.478386 -4.13643 0
M  V30 24704 H 2284.72 2.204 -4.87163 0
M  V30 24705 H 2285.06 2.64303 -3.21636 0
M  V30 24706 H 2285.59 1.06052 -3.83403 0
M  V30 24707 H 2282.33 -0.204093 -6.55182 0
M  V30 24708 H 2281.85 1.35491 -5.84296 0
M  V30 24709 H 2283.53 1.09371 -6.37689 0
M  V30 24710 N 2283.66 1.56128 0.21493 0
M  V30 24711 C 2284.89 1.83886 0.959207 0
M  V30 24712 C 2285.31 0.639675 1.76889 0
M  V30 24713 O 2284.67 -0.41157 1.76567 0
M  V30 24714 C 2284.72 3.09696 1.84718 0
M  V30 24715 O 2283.82 2.88855 2.94341 0
M  V30 24716 H 2283.17 0.606073 0.27124 0
M  V30 24717 H 2285.7 2.03345 0.22624 0
M  V30 24718 H 2285.71 3.39973 2.2557 0
M  V30 24719 H 2284.38 3.96605 1.25211 0
M  V30 24720 H 2282.96 2.69828 2.57386 0
M  V30 24721 N 2285.14 -0.481893 1.50052 0
M  V30 24722 C 2286.09 -1.602 1.68637 0
M  V30 24723 C 2287.08 -1.60147 0.552212 0
M  V30 24724 O 2288.29 -1.64426 0.732406 0
M  V30 24725 H 2284.67 -0.531398 0.53209 0
M  V30 24726 H 2286.64 -1.41683 2.62619 0
M  V30 24727 C 2285.39 -2.98216 1.7878 0
M  V30 24728 H 2284.71 -2.98972 2.65435 0
M  V30 24729 H 2286.15 -3.76076 1.95813 0
M  V30 24730 C 2284.61 -3.32594 0.536907 0
M  V30 24731 O 2285.14 -4.00352 -0.328827 0
M  V30 24732 N 2283.34 -2.87915 0.394141 0
M  V30 24733 H 2282.89 -2.32949 1.09967 0
M  V30 24734 H 2282.85 -3.11282 -0.441683 0
M  V30 24735 N 2286.62 -1.39448 -0.734313 0
M  V30 24736 C 2287.57 -1.38222 -1.84833 0
M  V30 24737 C 2288.54 -0.241819 -1.6433 0
M  V30 24738 O 2289.72 -0.437035 -1.85727 0
M  V30 24739 C 2286.86 -1.23217 -3.22353 0
M  V30 24740 C 2285.98 -2.46808 -3.54556 0
M  V30 24741 C 2285.11 -2.24386 -4.81482 0
M  V30 24742 C 2284.15 -3.43648 -5.0653 0
M  V30 24743 N 2283.29 -3.20539 -6.24659 0
M  V30 24744 H 2288.13 -2.33451 -1.85215 0
M  V30 24745 H 2285.66 -1.15965 -0.905018 0
M  V30 24746 H 2287.62 -1.12529 -4.01738 0
M  V30 24747 H 2286.25 -0.316178 -3.21248 0
M  V30 24748 H 2285.3 -2.68096 -2.69868 0
M  V30 24749 H 2286.62 -3.35636 -3.68985 0
M  V30 24750 H 2285.77 -2.10943 -5.68848 0
M  V30 24751 H 2284.51 -1.32952 -4.69228 0
M  V30 24752 H 2283.51 -3.57588 -4.17625 0
M  V30 24753 H 2284.74 -4.35983 -5.20668 0
M  V30 24754 H 2282.68 -2.31771 -6.13692 0
M  V30 24755 H 2282.6 -4.02925 -6.39678 0
M  V30 24756 H 2283.87 -3.10792 -7.14863 0
M  V30 24757 N 2288.1 0.964571 -1.24635 0
M  V30 24758 C 2289.05 2.08094 -1.03921 0
M  V30 24759 C 2290.04 1.69379 0.0268283 0
M  V30 24760 O 2291.25 1.79544 -0.127984 0
M  V30 24761 H 2287.62 0.680961 -0.319055 0
M  V30 24762 H 2289.59 2.22725 -1.98585 0
M  V30 24763 C 2288.34 3.413 -0.664043 0
M  V30 24764 H 2287.66 3.71552 -1.47611 0
M  V30 24765 H 2289.1 4.20302 -0.558737 0
M  V30 24766 C 2287.56 3.30974 0.629111 0
M  V30 24767 O 2288.09 3.65159 1.67398 0
M  V30 24768 N 2286.3 2.84104 0.611007 0
M  V30 24769 H 2285.85 2.56483 -0.239639 0
M  V30 24770 H 2285.8 2.77577 1.47642 0
M  V30 24771 N 2289.58 1.0606 1.16572 0
M  V30 24772 C 2290.99 0.800661 1.6866 0
M  V30 24773 C 2291.34 -0.676048 1.84185 0
M  V30 24774 O 2290.46 -1.52464 1.5357 0
M  V30 24775 C 2291.06 1.44682 3.06354 0
M  V30 24776 C 2289.62 1.23471 3.55573 0
M  V30 24777 C 2288.76 1.52481 2.31613 0
M  V30 24778 H 2291.72 1.22439 1.00967 0
M  V30 24779 H 2291.74 0.860853 3.70634 0
M  V30 24780 H 2291.25 2.52157 2.95023 0
M  V30 24781 H 2289.35 0.179592 3.72167 0
M  V30 24782 H 2289.46 1.94578 4.37808 0
M  V30 24783 H 2287.83 0.945251 2.3651 0
M  V30 24784 H 2288.61 2.6111 2.22882 0
M  V30 24785 N 2291.06 -1.33168 0.84285 0
M  V30 24786 C 2292.3 -1.97261 0.439612 0
M  V30 24787 C 2292.62 -1.6708 -1.00545 0
M  V30 24788 O 2291.89 -0.971809 -1.70096 0
M  V30 24789 H 2290.47 -0.729758 0.159571 0
M  V30 24790 H 2293.14 -1.62461 1.07668 0
M  V30 24791 H 2292.23 -3.06759 0.57494 0
M  V30 24792 N 2292.53 -0.599659 -1.45746 0
M  V30 24793 C 2293.48 0.136386 -2.322 0
M  V30 24794 C 2294.48 0.867557 -1.45498 0
M  V30 24795 O 2295.68 0.784022 -1.62028 0
M  V30 24796 H 2292.06 0.0628457 -0.749369 0
M  V30 24797 H 2294.03 -0.611333 -2.92071 0
M  V30 24798 C 2292.78 1.12561 -3.28976 0
M  V30 24799 H 2292.1 0.572414 -3.95681 0
M  V30 24800 H 2293.54 1.6107 -3.92215 0
M  V30 24801 C 2292 2.19518 -2.55565 0
M  V30 24802 O 2292.53 3.27139 -2.33116 0
M  V30 24803 N 2290.73 1.94586 -2.15835 0
M  V30 24804 H 2290.28 1.07074 -2.34292 0
M  V30 24805 H 2290.24 2.66356 -1.67039 0
M  V30 24806 N 2294.01 1.53925 -0.338371 0
M  V30 24807 C 2295.24 2.05714 0.263951 0
M  V30 24808 C 2295.66 1.21204 1.43845 0
M  V30 24809 O 2295.02 0.224567 1.79904 0
M  V30 24810 C 2295.07 3.54472 0.661938 0
M  V30 24811 O 2294.17 3.72836 1.76259 0
M  V30 24812 H 2293.51 0.662483 0.0448606 0
M  V30 24813 H 2296.04 1.98619 -0.491083 0
M  V30 24814 H 2296.05 3.97012 0.940524 0
M  V30 24815 H 2294.73 4.15433 -0.19701 0
M  V30 24816 H 2293.3 3.422 1.48167 0
M  V30 24817 N 2295.49 0.0668712 1.57458 0
M  V30 24818 C 2296.72 -0.611643 1.97339 0
M  V30 24819 C 2297.13 -1.6398 0.943773 0
M  V30 24820 O 2296.47 -1.83532 -0.0785261 0
M  V30 24821 C 2296.53 -1.34199 3.33513 0
M  V30 24822 C 2296.2 -0.467861 4.54599 0
M  V30 24823 C 2297.19 0.27253 5.19185 0
M  V30 24824 C 2294.88 -0.394182 5.00751 0
M  V30 24825 C 2296.87 1.07487 6.28272 0
M  V30 24826 C 2294.56 0.411836 6.09711 0
M  V30 24827 C 2295.56 1.14504 6.73333 0
M  V30 24828 O 2295.25 1.93777 7.80196 0
M  V30 24829 H 2294.98 -0.170882 0.654045 0
M  V30 24830 H 2297.53 0.134325 2.0496 0
M  V30 24831 H 2295.76 -2.13392 3.22491 0
M  V30 24832 H 2297.45 -1.91226 3.58033 0
M  V30 24833 H 2298.22 0.225171 4.84477 0
M  V30 24834 H 2294.1 -0.95449 4.51011 0
M  V30 24835 H 2297.64 1.64767 6.77863 0
M  V30 24836 H 2293.54 0.460777 6.43853 0
M  V30 24837 H 2294.3 1.86156 7.9705 0
M  V30 24838 N 2296.97 -1.56239 -0.206647 0
M  V30 24839 C 2298.2 -1.83775 -0.943942 0
M  V30 24840 C 2298.61 -0.645734 -1.7784 0
M  V30 24841 O 2297.95 0.394976 -1.79404 0
M  V30 24842 C 2298.01 -3.05255 -1.89894 0
M  V30 24843 C 2297.67 -4.39642 -1.24757 0
M  V30 24844 C 2298.67 -5.16067 -0.630125 0
M  V30 24845 C 2296.36 -4.86373 -1.25487 0
M  V30 24846 C 2298.35 -6.37394 -0.0286826 0
M  V30 24847 C 2296.04 -6.07638 -0.649592 0
M  V30 24848 C 2297.04 -6.8299 -0.0375645 0
M  V30 24849 O 2296.72 -8.01959 0.558261 0
M  V30 24850 H 2296.46 -0.614602 -0.281497 0
M  V30 24851 H 2299.01 -2.04192 -0.222422 0
M  V30 24852 H 2297.24 -2.80693 -2.65985 0
M  V30 24853 H 2298.93 -3.19535 -2.50305 0
M  V30 24854 H 2299.69 -4.81063 -0.616701 0
M  V30 24855 H 2295.57 -4.27686 -1.72064 0
M  V30 24856 H 2299.12 -6.96149 0.44964 0
M  V30 24857 H 2295.01 -6.42112 -0.660479 0
M  V30 24858 H 2295.78 -8.1724 0.454035 0
M  V30 24859 N 2298.45 0.473929 -1.50305 0
M  V30 24860 C 2299.69 1.22803 -1.61391 0
M  V30 24861 C 2300.02 1.91678 -0.311989 0
M  V30 24862 O 2299.3 1.81988 0.686352 0
M  V30 24863 C 2299.58 2.27391 -2.79223 0
M  V30 24864 C 2299.44 1.62841 -4.19289 0
M  V30 24865 C 2300.75 3.28727 -2.9262 0
M  V30 24866 H 2297.87 0.445109 -0.587407 0
M  V30 24867 H 2300.52 0.522233 -1.82682 0
M  V30 24868 H 2298.67 2.87588 -2.612 0
M  V30 24869 H 2300.34 1.06263 -4.48894 0
M  V30 24870 H 2298.58 0.931618 -4.23678 0
M  V30 24871 H 2299.25 2.3883 -4.97659 0
M  V30 24872 H 2301.73 2.78551 -3.0911 0
M  V30 24873 H 2300.6 3.99239 -3.76695 0
M  V30 24874 H 2300.86 3.9268 -2.03114 0
M  V30 24875 N 2299.92 1.39835 0.726907 0
M  V30 24876 C 2301.17 1.37703 1.48882 0
M  V30 24877 C 2301.5 -0.024451 1.94185 0
M  V30 24878 O 2300.78 -0.990956 1.67363 0
M  V30 24879 C 2301.06 2.35655 2.72284 0
M  V30 24880 C 2300.91 3.84779 2.32949 0
M  V30 24881 C 2302.23 2.31312 3.7441 0
M  V30 24882 H 2299.35 0.501509 0.540053 0
M  V30 24883 H 2301.99 1.70887 0.830516 0
M  V30 24884 H 2300.14 2.07487 3.28453 0
M  V30 24885 H 2301.82 4.23729 1.82349 0
M  V30 24886 H 2300.06 4.01162 1.65081 0
M  V30 24887 H 2300.73 4.48816 3.21354 0
M  V30 24888 H 2303.21 2.56237 3.27844 0
M  V30 24889 H 2302.08 3.01916 4.58408 0
M  V30 24890 H 2302.34 1.32089 4.21906 0
M  V30 24891 N 2301.4 -0.957948 1.25144 0
M  V30 24892 C 2302.68 -1.67822 1.00475 0
M  V30 24893 C 2303.06 -2.05801 -0.47002 0
M  V30 24894 O 2302.41 -1.76877 -1.4466 0
M  V30 24895 C 2302.62 -2.90296 1.93725 0
M  V30 24896 C 2303.96 -3.62322 2.21377 0
M  V30 24897 O 2304.99 -3.00371 1.91456 0
M  V30 24898 O 2303.85 -4.73865 2.7224 0
M  V30 24899 H 2300.94 -0.73413 0.380765 0
M  V30 24900 H 2303.49 -1.01117 1.36285 0
M  V30 24901 H 2302.26 -2.58996 2.93321 0
M  V30 24902 H 2301.88 -3.64732 1.58292 0
M  V30 24903 N 2302.88 -1.06677 -1.16008 0
M  V30 24904 C 2304.1 -0.80674 -1.91067 0
M  V30 24905 C 2304.53 0.633454 -1.77113 0
M  V30 24906 O 2303.89 1.44185 -1.0991 0
M  V30 24907 C 2303.94 -1.21112 -3.39653 0
M  V30 24908 O 2303.04 -0.352262 -4.10893 0
M  V30 24909 H 2302.38 -0.294497 -0.59512 0
M  V30 24910 H 2304.91 -1.42359 -1.46953 0
M  V30 24911 H 2304.92 -1.18435 -3.90432 0
M  V30 24912 H 2303.6 -2.26014 -3.49128 0
M  V30 24913 H 2302.17 -0.440933 -3.70284 0
M  V30 24914 N 2304.36 1.32719 -0.8499 0
M  V30 24915 C 2305.6 1.97707 -0.451625 0
M  V30 24916 C 2305.94 1.67121 0.989145 0
M  V30 24917 O 2305.21 0.956921 1.69332 0
M  V30 24918 C 2305.49 3.53512 -0.68566 0
M  V30 24919 C 2305.35 3.93745 -2.1745 0
M  V30 24920 C 2306.67 4.39881 -0.138952 0
M  V30 24921 H 2303.79 0.718163 -0.165563 0
M  V30 24922 H 2306.43 1.5718 -1.06745 0
M  V30 24923 H 2304.58 3.88164 -0.161484 0
M  V30 24924 H 2306.25 3.69295 -2.76439 0
M  V30 24925 H 2304.49 3.43076 -2.65483 0
M  V30 24926 H 2305.16 5.02305 -2.28897 0
M  V30 24927 H 2307.64 4.11937 -0.58714 0
M  V30 24928 H 2306.52 5.47893 -0.332309 0
M  V30 24929 H 2306.78 4.31596 0.957984 0
M  V30 24930 N 2305.84 0.60738 1.45426 0
M  V30 24931 C 2307.07 0.108692 2.06314 0
M  V30 24932 C 2307.47 -1.21214 1.45271 0
M  V30 24933 O 2306.82 -1.7492 0.561146 0
M  V30 24934 C 2306.88 -0.105554 3.59345 0
M  V30 24935 C 2306.54 1.13344 4.42721 0
M  V30 24936 C 2307.54 2.05153 4.77711 0
M  V30 24937 C 2305.23 1.36221 4.83476 0
M  V30 24938 C 2307.22 3.18167 5.52312 0
M  V30 24939 C 2304.91 2.49536 5.5783 0
M  V30 24940 C 2305.9 3.40337 5.92165 0
M  V30 24941 O 2305.59 4.5168 6.65011 0
M  V30 24942 H 2305.32 0.065896 0.672781 0
M  V30 24943 H 2307.88 0.834978 1.87663 0
M  V30 24944 H 2306.11 -0.88673 3.76396 0
M  V30 24945 H 2307.8 -0.555815 4.02076 0
M  V30 24946 H 2308.56 1.88705 4.46784 0
M  V30 24947 H 2304.44 0.664442 4.56187 0
M  V30 24948 H 2307.99 3.89064 5.79029 0
M  V30 24949 H 2303.88 2.65938 5.88173 0
M  V30 24950 H 2304.65 4.5036 6.83461 0
M  V30 24951 N 2307.31 -1.53743 0.34653 0
M  V30 24952 C 2308.26 -2.26617 -0.52418 0
M  V30 24953 C 2309.26 -1.28873 -1.09946 0
M  V30 24954 O 2310.46 -1.4657 -1.04485 0
M  V30 24955 H 2306.84 -0.728191 -0.18773 0
M  V30 24956 H 2308.81 -2.98188 0.112442 0
M  V30 24957 C 2307.56 -3.05417 -1.6618 0
M  V30 24958 H 2306.88 -3.8046 -1.22841 0
M  V30 24959 H 2308.32 -3.59616 -2.24615 0
M  V30 24960 C 2306.78 -2.15095 -2.59299 0
M  V30 24961 O 2307.31 -1.74902 -3.61624 0
M  V30 24962 N 2305.52 -1.80114 -2.28051 0
M  V30 24963 H 2305.06 -2.12997 -1.44879 0
M  V30 24964 H 2305.02 -1.19964 -2.90613 0
M  V30 24965 N 2308.79 -0.0752207 -1.5742 0
M  V30 24966 C 2309.74 0.908471 -2.14125 0
M  V30 24967 C 2310.73 1.3059 -1.079 0
M  V30 24968 O 2311.94 1.28275 -1.26276 0
M  V30 24969 H 2308.32 0.310923 -0.684712 0
M  V30 24970 H 2310.29 0.405322 -2.95634 0
M  V30 24971 C 2309.04 2.1653 -2.72048 0
M  V30 24972 H 2308.36 1.86833 -3.53459 0
M  V30 24973 H 2309.8 2.83464 -3.15316 0
M  V30 24974 C 2308.26 2.92612 -1.66973 0
M  V30 24975 O 2308.79 3.86437 -1.09677 0
M  V30 24976 N 2306.99 2.55782 -1.37927 0
M  V30 24977 H 2306.54 1.79556 -1.84709 0
M  V30 24978 H 2306.5 3.0699 -0.678574 0
M  V30 24979 N 2310.27 1.56347 0.198358 0
M  V30 24980 C 2311.18 1.97485 1.26637 0
M  V30 24981 C 2312.2 0.882028 1.49988 0
M  V30 24982 O 2313.37 1.18751 1.62666 0
M  V30 24983 C 2310.44 2.30324 2.59137 0
M  V30 24984 C 2309.5 3.53296 2.43886 0
M  V30 24985 C 2308.73 3.84559 3.70067 0
M  V30 24986 O 2308.95 3.17159 4.74096 0
M  V30 24987 O 2307.89 4.77996 3.65792 0
M  V30 24988 H 2311.71 2.88549 0.947253 0
M  V30 24989 H 2309.3 1.43859 0.403098 0
M  V30 24990 H 2311.18 2.52536 3.37348 0
M  V30 24991 H 2309.86 1.42428 2.90682 0
M  V30 24992 H 2308.76 3.36335 1.63797 0
M  V30 24993 H 2310.1 4.41648 2.17274 0
M  V30 24994 N 2311.75 -0.465951 1.50554 0
M  V30 24995 C 2312.98 -1.239 1.65325 0
M  V30 24996 C 2313.39 -1.86155 0.338084 0
M  V30 24997 O 2312.73 -1.70229 -0.690488 0
M  V30 24998 C 2312.79 -2.38435 2.69052 0
M  V30 24999 C 2312.46 -1.96777 4.12465 0
M  V30 25000 C 2313.45 -1.48736 4.9817 0
M  V30 25001 C 2311.14 -2.05341 4.58411 0
M  V30 25002 C 2313.13 -1.09809 6.2787 0
M  V30 25003 C 2310.82 -1.66025 5.88115 0
M  V30 25004 C 2311.82 -1.18338 6.7267 0
M  V30 25005 O 2311.5 -0.795684 7.99953 0
M  V30 25006 H 2311.24 -0.38066 0.558636 0
M  V30 25007 H 2313.79 -0.561987 1.97562 0
M  V30 25008 H 2312.02 -3.09324 2.32068 0
M  V30 25009 H 2313.71 -3.00385 2.7299 0
M  V30 25010 H 2314.48 -1.41538 4.63888 0
M  V30 25011 H 2310.35 -2.41407 3.92739 0
M  V30 25012 H 2313.9 -0.725171 6.93821 0
M  V30 25013 H 2309.8 -1.72884 6.21917 0
M  V30 25014 H 2310.56 -0.924079 8.13267 0
M  V30 25015 N 2313.23 -1.40218 -0.719481 0
M  V30 25016 C 2314.17 -1.40175 -1.83357 0
M  V30 25017 C 2315.14 -0.259235 -1.64065 0
M  V30 25018 O 2316.33 -0.456709 -1.85253 0
M  V30 25019 C 2313.47 -1.26629 -3.21028 0
M  V30 25020 C 2312.58 -2.50554 -3.51918 0
M  V30 25021 C 2311.72 -2.2948 -4.79075 0
M  V30 25022 C 2310.76 -3.49001 -5.02857 0
M  V30 25023 N 2309.89 -3.27146 -6.21224 0
M  V30 25024 H 2314.73 -2.35402 -1.82729 0
M  V30 25025 H 2312.27 -1.16918 -0.892668 0
M  V30 25026 H 2314.23 -1.16783 -4.00522 0
M  V30 25027 H 2312.86 -0.350232 -3.20894 0
M  V30 25028 H 2311.91 -2.70944 -2.67009 0
M  V30 25029 H 2313.22 -3.39531 -3.65404 0
M  V30 25030 H 2312.38 -2.16965 -5.66578 0
M  V30 25031 H 2311.11 -1.37922 -4.67792 0
M  V30 25032 H 2310.12 -3.61997 -4.13809 0
M  V30 25033 H 2311.34 -4.41481 -5.16015 0
M  V30 25034 H 2309.29 -2.38267 -6.112 0
M  V30 25035 H 2309.21 -4.09687 -6.35368 0
M  V30 25036 H 2310.48 -3.18356 -7.11526 0
M  V30 25037 N 2314.7 0.951297 -1.25651 0
M  V30 25038 C 2315.95 1.69071 -1.09991 0
M  V30 25039 C 2316.27 1.9229 0.358322 0
M  V30 25040 O 2317.47 2.6396 0.63542 0
M  V30 25041 C 2315.93 3.04397 -1.92017 0
M  V30 25042 C 2315.54 2.88962 -3.42353 0
M  V30 25043 C 2317.28 3.82098 -1.84937 0
M  V30 25044 C 2315.19 4.19698 -4.16662 0
M  V30 25045 H 2314.12 0.634073 -0.408005 0
M  V30 25046 H 2316.77 1.05876 -1.49875 0
M  V30 25047 H 2315.15 3.68515 -1.44959 0
M  V30 25048 H 2316.32 2.33755 -3.97108 0
M  V30 25049 H 2314.64 2.24712 -3.50561 0
M  V30 25050 H 2317.24 4.78937 -2.37747 0
M  V30 25051 H 2317.58 4.08185 -0.817954 0
M  V30 25052 H 2318.11 3.24736 -2.29764 0
M  V30 25053 H 2314.85 3.98798 -5.20231 0
M  V30 25054 H 2314.37 4.74657 -3.66689 0
M  V30 25055 H 2316.05 4.88219 -4.2456 0
M  V30 25056 N 2316.18 1.07291 1.1544 0
M  V30 25057 C 2317.13 0.686991 2.22223 0
M  V30 25058 C 2318.12 -0.301901 1.66688 0
M  V30 25059 O 2319.33 -0.16568 1.79236 0
M  V30 25060 H 2315.71 0.204077 0.723779 0
M  V30 25061 H 2317.68 1.59724 2.52053 0
M  V30 25062 C 2316.43 0.10021 3.47556 0
M  V30 25063 H 2315.75 0.852279 3.9061 0
M  V30 25064 H 2317.19 -0.132161 4.23794 0
M  V30 25065 C 2315.65 -1.15894 3.16339 0
M  V30 25066 O 2316.18 -2.24549 3.33078 0
M  V30 25067 N 2314.38 -1.06486 2.70387 0
M  V30 25068 H 2313.93 -0.180623 2.56966 0
M  V30 25069 H 2313.89 -1.90815 2.49874 0
M  V30 25070 N 2317.66 -1.32267 0.856927 0
M  V30 25071 C 2318.61 -2.28826 0.301212 0
M  V30 25072 C 2319.58 -1.55151 -0.593077 0
M  V30 25073 O 2320.76 -1.83363 -0.527504 0
M  V30 25074 C 2317.9 -3.41422 -0.502463 0
M  V30 25075 C 2317.02 -4.29974 0.417873 0
M  V30 25076 C 2316.15 -5.29702 -0.398655 0
M  V30 25077 C 2315.19 -6.09896 0.518935 0
M  V30 25078 N 2314.33 -7.01616 -0.260551 0
M  V30 25079 H 2319.17 -2.75749 1.12988 0
M  V30 25080 H 2316.7 -1.35666 0.568606 0
M  V30 25081 H 2318.66 -4.05428 -0.98407 0
M  V30 25082 H 2317.29 -2.95644 -1.29594 0
M  V30 25083 H 2316.34 -3.66529 1.01788 0
M  V30 25084 H 2317.66 -4.86017 1.122 0
M  V30 25085 H 2316.81 -5.99321 -0.943329 0
M  V30 25086 H 2315.55 -4.74282 -1.13614 0
M  V30 25087 H 2314.55 -5.39179 1.07547 0
M  V30 25088 H 2315.78 -6.67402 1.25506 0
M  V30 25089 H 2313.72 -6.48622 -0.981084 0
M  V30 25090 H 2313.64 -7.55022 0.384496 0
M  V30 25091 H 2314.91 -7.75518 -0.786878 0
M  V30 25092 N 2319.14 -0.615084 -1.45102 0
M  V30 25093 C 2320.07 0.148368 -2.27717 0
M  V30 25094 C 2321.05 0.866548 -1.37585 0
M  V30 25095 O 2322.23 0.8739 -1.67019 0
M  V30 25096 C 2319.36 1.21551 -3.16138 0
M  V30 25097 C 2318.41 0.599638 -4.22264 0
M  V30 25098 S 2319.24 -0.598175 -5.32149 0
M  V30 25099 C 2320.4 0.469374 -6.24138 0
M  V30 25100 H 2320.63 -0.552534 -2.9212 0
M  V30 25101 H 2318.16 -0.402805 -1.49053 0
M  V30 25102 H 2320.12 1.82631 -3.67636 0
M  V30 25103 H 2318.78 1.88852 -2.50985 0
M  V30 25104 H 2317.97 1.40282 -4.84084 0
M  V30 25105 H 2317.58 0.0638103 -3.73946 0
M  V30 25106 H 2319.87 1.3464 -6.63987 0
M  V30 25107 H 2320.81 -0.112849 -7.0801 0
M  V30 25108 H 2321.22 0.78807 -5.58972 0
M  V30 25109 N 2320.62 1.53557 -0.354678 0
M  V30 25110 C 2321.56 2.25387 0.496928 0
M  V30 25111 C 2322.53 1.25638 1.08648 0
M  V30 25112 O 2323.72 1.54395 1.12101 0
M  V30 25113 C 2320.86 3.0384 1.63632 0
M  V30 25114 C 2319.97 4.18462 1.073 0
M  V30 25115 C 2319.11 4.8438 2.18059 0
M  V30 25116 C 2318.15 5.91052 1.59136 0
M  V30 25117 N 2317.28 6.50704 2.63684 0
M  V30 25118 H 2322.12 2.9775 -0.122128 0
M  V30 25119 H 2319.66 1.46923 -0.0720412 0
M  V30 25120 H 2321.62 3.47593 2.30727 0
M  V30 25121 H 2320.25 2.33753 2.22619 0
M  V30 25122 H 2319.3 3.79273 0.292642 0
M  V30 25123 H 2320.61 4.95153 0.602106 0
M  V30 25124 H 2319.77 5.3126 2.92998 0
M  V30 25125 H 2318.51 4.07138 2.68496 0
M  V30 25126 H 2317.51 5.43543 0.82708 0
M  V30 25127 H 2318.74 6.70208 1.09538 0
M  V30 25128 H 2316.68 5.7632 3.13355 0
M  V30 25129 H 2316.6 7.229 2.2125 0
M  V30 25130 H 2317.87 7.02235 3.38358 0
M  V30 25131 N 2322.1 0.083568 1.57378 0
M  V30 25132 C 2323.01 -0.893982 2.16899 0
M  V30 25133 C 2324.02 -1.31859 1.13531 0
M  V30 25134 O 2325.2 -1.38887 1.4585 0
M  V30 25135 C 2322.26 -2.13921 2.72835 0
M  V30 25136 C 2321.32 -1.7699 3.91118 0
M  V30 25137 C 2320.56 -2.95576 4.44377 0
M  V30 25138 O 2320.78 -4.09954 3.96603 0
M  V30 25139 O 2319.71 -2.7471 5.35554 0
M  V30 25140 H 2323.54 -0.417626 3.00815 0
M  V30 25141 H 2321.12 -0.140155 1.48741 0
M  V30 25142 H 2323.01 -2.86919 3.08635 0
M  V30 25143 H 2321.68 -2.60631 1.91972 0
M  V30 25144 H 2320.59 -1.01208 3.6015 0
M  V30 25145 H 2321.92 -1.35052 4.73309 0
M  V30 25146 N 2323.57 -1.5645 -0.190064 0
M  V30 25147 C 2324.5 -1.97971 -1.23813 0
M  V30 25148 C 2325.48 -0.85242 -1.472 0
M  V30 25149 O 2326.67 -1.11712 -1.58852 0
M  V30 25150 C 2323.8 -2.32354 -2.58126 0
M  V30 25151 C 2322.75 -3.47868 -2.49342 0
M  V30 25152 C 2322.08 -3.67941 -3.87974 0
M  V30 25153 C 2323.38 -4.81901 -2.01416 0
M  V30 25154 H 2325.07 -2.85771 -0.89306 0
M  V30 25155 H 2322.62 -1.37488 -0.428153 0
M  V30 25156 H 2324.57 -2.59997 -3.31632 0
M  V30 25157 H 2323.3 -1.41443 -2.94383 0
M  V30 25158 H 2321.96 -3.20324 -1.78291 0
M  V30 25159 H 2321.6 -2.74352 -4.21592 0
M  V30 25160 H 2321.3 -4.45654 -3.8297 0
M  V30 25161 H 2322.83 -3.97965 -4.63094 0
M  V30 25162 H 2324.24 -5.08542 -2.64684 0
M  V30 25163 H 2322.64 -5.6312 -2.07403 0
M  V30 25164 H 2323.71 -4.75148 -0.967593 0
M  V30 25165 N 2325.05 0.45796 -1.50799 0
M  V30 25166 C 2326.3 1.2059 -1.61682 0
M  V30 25167 C 2326.61 1.92815 -0.328914 0
M  V30 25168 O 2327.82 2.69645 -0.316821 0
M  V30 25169 C 2326.28 2.1919 -2.85454 0
M  V30 25170 C 2325.88 1.52708 -4.2117 0
M  V30 25171 C 2327.63 2.94544 -3.05686 0
M  V30 25172 C 2325.53 2.49671 -5.36114 0
M  V30 25173 H 2324.46 0.453808 -0.602142 0
M  V30 25174 H 2327.12 0.475 -1.77246 0
M  V30 25175 H 2325.5 2.95627 -2.63478 0
M  V30 25176 H 2326.67 0.819696 -4.53451 0
M  V30 25177 H 2324.99 0.895851 -4.06649 0
M  V30 25178 H 2327.58 3.67139 -3.88733 0
M  V30 25179 H 2327.93 3.54697 -2.17935 0
M  V30 25180 H 2328.46 2.25218 -3.27905 0
M  V30 25181 H 2325.2 1.94238 -6.26061 0
M  V30 25182 H 2324.72 3.18523 -5.08236 0
M  V30 25183 H 2326.4 3.11231 -5.67225 0
M  V30 25184 N 2326.53 1.40598 0.712035 0
M  V30 25185 C 2327.81 1.29565 1.46534 0
M  V30 25186 C 2328.19 -0.0843847 2.10931 0
M  V30 25187 O 2327.53 -1.09746 2.0042 0
M  V30 25188 C 2327.74 2.43706 2.49817 0
M  V30 25189 C 2329.09 2.84106 3.15546 0
M  V30 25190 O 2330.12 2.43325 2.60138 0
M  V30 25191 O 2328.98 3.54573 4.15861 0
M  V30 25192 H 2326.07 0.509015 0.651792 0
M  V30 25193 H 2328.62 1.52526 0.743908 0
M  V30 25194 H 2327.39 3.35866 2.00772 0
M  V30 25195 H 2327.01 2.22534 3.29491 0
M  V30 25196 N 2328.01 -0.94462 1.26153 0
M  V30 25197 C 2328.96 -2.06415 1.07218 0
M  V30 25198 C 2329.95 -1.694 0.000121783 0
M  V30 25199 O 2331.16 -1.79318 0.156531 0
M  V30 25200 H 2327.53 -0.675799 0.329849 0
M  V30 25201 H 2329.5 -2.19538 2.02103 0
M  V30 25202 C 2328.25 -3.402 0.718257 0
M  V30 25203 H 2327.57 -3.69157 1.53504 0
M  V30 25204 H 2329.01 -4.1936 0.625533 0
M  V30 25205 C 2327.47 -3.31933 -0.576376 0
M  V30 25206 O 2328 -3.67776 -1.61567 0
M  V30 25207 N 2326.21 -2.8504 -0.565731 0
M  V30 25208 H 2325.76 -2.56069 0.280412 0
M  V30 25209 H 2325.71 -2.79891 -1.43208 0
M  V30 25210 N 2329.49 -1.07901 -1.1487 0
M  V30 25211 C 2330.4 -0.715954 -2.23408 0
M  V30 25212 C 2331.41 0.275275 -1.71809 0
M  V30 25213 O 2332.59 0.12051 -2.01039 0
M  V30 25214 C 2329.65 -0.125229 -3.46474 0
M  V30 25215 C 2328.71 -1.17041 -4.13037 0
M  V30 25216 C 2327.95 -0.607781 -5.30228 0
M  V30 25217 O 2328.17 0.574397 -5.67501 0
M  V30 25218 O 2327.1 -1.35536 -5.86441 0
M  V30 25219 H 2330.93 -1.62125 -2.56805 0
M  V30 25220 H 2328.51 -0.852344 -1.22701 0
M  V30 25221 H 2330.4 0.201655 -4.20917 0
M  V30 25222 H 2329.07 0.753309 -3.14813 0
M  V30 25223 H 2327.98 -1.54974 -3.40491 0
M  V30 25224 H 2329.31 -2.02105 -4.48792 0
M  V30 25225 N 2330.96 1.31811 -0.863929 0
M  V30 25226 C 2331.91 2.30601 -0.304261 0
M  V30 25227 C 2332.91 1.59256 0.577391 0
M  V30 25228 O 2334.11 1.73912 0.464163 0
M  V30 25229 H 2330.49 0.747765 -0.0797008 0
M  V30 25230 H 2332.46 2.75286 -1.15153 0
M  V30 25231 C 2331.21 3.44307 0.484556 0
M  V30 25232 H 2330.53 3.99374 -0.18458 0
M  V30 25233 H 2331.97 4.15564 0.841591 0
M  V30 25234 C 2330.43 2.92399 1.67345 0
M  V30 25235 O 2330.96 2.90664 2.77268 0
M  V30 25236 N 2329.16 2.48678 1.50358 0
M  V30 25237 H 2328.71 2.50289 0.609358 0
M  V30 25238 H 2328.67 2.14303 2.30047 0
M  V30 25239 N 2332.44 0.62277 1.44773 0
M  V30 25240 C 2333.37 -0.0741451 2.33382 0
M  V30 25241 C 2334.35 -0.843361 1.47721 0
M  V30 25242 O 2335.54 -0.810903 1.7646 0
M  V30 25243 C 2332.67 -1.06198 3.30665 0
M  V30 25244 C 2331.62 -0.404962 4.2608 0
M  V30 25245 C 2330.95 -1.50211 5.13167 0
M  V30 25246 C 2332.25 0.683505 5.17808 0
M  V30 25247 H 2333.94 0.665765 2.91904 0
M  V30 25248 H 2331.49 0.321611 1.40363 0
M  V30 25249 H 2333.44 -1.5582 3.91533 0
M  V30 25250 H 2332.16 -1.83267 2.70334 0
M  V30 25251 H 2330.82 0.0705327 3.66532 0
M  V30 25252 H 2330.47 -2.26347 4.49195 0
M  V30 25253 H 2330.17 -1.06792 5.77814 0
M  V30 25254 H 2331.7 -2.00031 5.76906 0
M  V30 25255 H 2333.11 0.270731 5.7266 0
M  V30 25256 H 2331.51 1.04034 5.91014 0
M  V30 25257 H 2332.58 1.55403 4.59323 0
M  V30 25258 N 2333.92 -1.53367 0.362817 0
M  V30 25259 C 2334.87 -2.2716 -0.500115 0
M  V30 25260 C 2335.86 -1.30032 -1.08573 0
M  V30 25261 O 2337.07 -1.4767 -1.02925 0
M  V30 25262 H 2333.44 -0.730141 -0.179996 0
M  V30 25263 H 2335.41 -2.98052 0.144063 0
M  V30 25264 C 2334.16 -3.07162 -1.62931 0
M  V30 25265 H 2333.49 -3.81742 -1.18799 0
M  V30 25266 H 2334.93 -3.61979 -2.20788 0
M  V30 25267 C 2333.38 -2.17833 -2.57003 0
M  V30 25268 O 2333.91 -1.78727 -3.59749 0
M  V30 25269 N 2332.12 -1.82522 -2.26128 0
M  V30 25270 H 2331.67 -2.14522 -1.42612 0
M  V30 25271 H 2331.63 -1.23039 -2.89325 0
M  V30 25272 N 2335.4 -0.091913 -1.57332 0
M  V30 25273 C 2336.68 0.614636 -1.85692 0
M  V30 25274 C 2337.06 1.86543 -0.988179 0
M  V30 25275 O 2336.4 2.28422 -0.0597456 0
M  V30 25276 C 2336.61 0.933067 -3.36296 0
M  V30 25277 C 2337.96 1.29789 -4.04277 0
M  V30 25278 O 2338.99 1.02418 -3.41158 0
M  V30 25279 O 2337.84 1.81038 -5.15643 0
M  V30 25280 H 2334.94 0.307248 -0.767807 0
M  V30 25281 H 2337.48 -0.124369 -1.69244 0
M  V30 25282 H 2336.26 0.0455716 -3.91273 0
M  V30 25283 H 2335.88 1.72816 -3.58079 0
M  V30 25284 N 2336.88 1.56548 0.181765 0
M  V30 25285 C 2337.79 1.98817 1.24535 0
M  V30 25286 C 2338.8 0.897887 1.49044 0
M  V30 25287 O 2339.98 1.2047 1.61397 0
M  V30 25288 C 2337.04 2.33059 2.56679 0
M  V30 25289 C 2336.1 3.55863 2.40125 0
M  V30 25290 C 2335.34 3.88463 3.65968 0
M  V30 25291 O 2335.56 3.22169 4.70705 0
M  V30 25292 O 2334.49 4.81849 3.60701 0
M  V30 25293 H 2338.32 2.89538 0.916596 0
M  V30 25294 H 2335.91 1.44279 0.387817 0
M  V30 25295 H 2337.79 2.561 3.3465 0
M  V30 25296 H 2336.46 1.45503 2.89155 0
M  V30 25297 H 2335.37 3.38054 1.6022 0
M  V30 25298 H 2336.7 4.43928 2.12578 0
M  V30 25299 N 2338.35 -0.449957 1.5104 0
M  V30 25300 C 2339.58 -1.2214 1.6663 0
M  V30 25301 C 2339.99 -1.85786 0.357809 0
M  V30 25302 O 2339.34 -1.70952 -0.672394 0
M  V30 25303 C 2339.4 -2.35568 2.71566 0
M  V30 25304 C 2339.06 -1.92391 4.14529 0
M  V30 25305 C 2340.06 -1.43444 4.9972 0
M  V30 25306 C 2337.74 -2.00467 4.60563 0
M  V30 25307 C 2339.74 -1.03144 6.28999 0
M  V30 25308 C 2337.42 -1.59778 5.89843 0
M  V30 25309 C 2338.42 -1.11196 6.73887 0
M  V30 25310 O 2338.11 -0.710794 8.00751 0
M  V30 25311 H 2337.84 -0.374714 0.562642 0
M  V30 25312 H 2340.4 -0.541001 1.98147 0
M  V30 25313 H 2338.63 -3.06845 2.35336 0
M  V30 25314 H 2340.32 -2.97473 2.76161 0
M  V30 25315 H 2341.08 -1.3661 4.65363 0
M  V30 25316 H 2336.96 -2.37228 3.95277 0
M  V30 25317 H 2340.5 -0.651541 6.94551 0
M  V30 25318 H 2336.4 -1.66278 6.23716 0
M  V30 25319 H 2337.17 -0.83777 8.14201 0
M  V30 25320 N 2339.83 -1.40974 -0.704569 0
M  V30 25321 C 2340.78 -1.42302 -1.83992 0
M  V30 25322 C 2341.77 -0.302141 -1.66684 0
M  V30 25323 O 2342.98 -0.473727 -1.73654 0
M  V30 25324 H 2339.36 -0.445051 -0.606163 0
M  V30 25325 H 2341.33 -2.38006 -1.79988 0
M  V30 25326 C 2340.08 -1.31329 -3.21944 0
M  V30 25327 H 2339.4 -2.16861 -3.35874 0
M  V30 25328 H 2340.84 -1.36318 -4.01489 0
M  V30 25329 C 2339.3 -0.0246569 -3.36891 0
M  V30 25330 O 2339.83 0.934085 -3.90689 0
M  V30 25331 N 2338.03 0.0484732 -2.9056 0
M  V30 25332 H 2337.58 -0.732462 -2.46967 0
M  V30 25333 H 2337.54 0.910118 -3.00939 0
M  V30 25334 N 2341.31 0.937917 -1.26653 0
M  V30 25335 C 2342.26 2.05843 -1.08311 0
M  V30 25336 C 2343.25 1.69398 -0.00910548 0
M  V30 25337 O 2344.46 1.79233 -0.166039 0
M  V30 25338 H 2340.83 0.67404 -0.333428 0
M  V30 25339 H 2342.8 2.18463 -2.03265 0
M  V30 25340 C 2341.55 3.39815 -0.736289 0
M  V30 25341 H 2340.88 3.68337 -1.55459 0
M  V30 25342 H 2342.32 4.19023 -0.647764 0
M  V30 25343 C 2340.78 3.32234 0.558765 0
M  V30 25344 O 2341.31 3.68627 1.59615 0
M  V30 25345 N 2339.51 2.85336 0.550607 0
M  V30 25346 H 2339.06 2.55917 -0.293988 0
M  V30 25347 H 2339.02 2.80646 1.41721 0
M  V30 25348 N 2342.79 1.08509 1.14296 0
M  V30 25349 C 2343.74 0.710522 2.21482 0
M  V30 25350 C 2344.73 -0.284205 1.66999 0
M  V30 25351 O 2345.94 -0.146661 1.79402 0
M  V30 25352 H 2342.31 0.211742 0.721574 0
M  V30 25353 H 2344.28 1.62388 2.50345 0
M  V30 25354 C 2343.03 0.137068 3.4743 0
M  V30 25355 H 2342.35 0.893661 3.89684 0
M  V30 25356 H 2343.79 -0.0872044 4.2391 0
M  V30 25357 C 2342.25 -1.12532 3.1755 0
M  V30 25358 O 2342.78 -2.21004 3.35441 0
M  V30 25359 N 2340.99 -1.03612 2.71501 0
M  V30 25360 H 2340.54 -0.153358 2.57143 0
M  V30 25361 H 2340.49 -1.88154 2.51884 0
M  V30 25362 N 2344.27 -1.31351 0.870907 0
M  V30 25363 C 2345.51 -1.96964 0.483022 0
M  V30 25364 C 2345.85 -1.68674 -0.962433 0
M  V30 25365 O 2345.12 -0.983739 -1.67788 0
M  V30 25366 C 2345.4 -3.52376 0.741814 0
M  V30 25367 C 2345.26 -3.90236 2.23687 0
M  V30 25368 C 2346.58 -4.39604 0.208915 0
M  V30 25369 H 2343.69 -0.715438 0.176967 0
M  V30 25370 H 2346.34 -1.55462 1.09232 0
M  V30 25371 H 2344.49 -3.87858 0.223217 0
M  V30 25372 H 2346.16 -3.64851 2.82279 0
M  V30 25373 H 2344.4 -3.38809 2.70907 0
M  V30 25374 H 2345.07 -4.986 2.36859 0
M  V30 25375 H 2347.55 -4.10951 0.652601 0
M  V30 25376 H 2346.42 -5.47295 0.419432 0
M  V30 25377 H 2346.69 -4.33065 -0.889199 0
M  V30 25378 N 2345.74 -0.630439 -1.44441 0
M  V30 25379 C 2346.69 0.087102 -2.32437 0
M  V30 25380 C 2347.69 0.836499 -1.47306 0
M  V30 25381 O 2348.89 0.749477 -1.63655 0
M  V30 25382 H 2345.27 0.0469363 -0.750534 0
M  V30 25383 H 2347.24 -0.673148 -2.90708 0
M  V30 25384 C 2345.99 1.05557 -3.3129 0
M  V30 25385 H 2345.31 0.488356 -3.96806 0
M  V30 25386 H 2346.75 1.52714 -3.95543 0
M  V30 25387 C 2345.21 2.14048 -2.60164 0
M  V30 25388 O 2345.74 3.2212 -2.40003 0
M  V30 25389 N 2343.95 1.89964 -2.19914 0
M  V30 25390 H 2343.49 1.0208 -2.36511 0
M  V30 25391 H 2343.45 2.62753 -1.72651 0
M  V30 25392 N 2347.22 1.53172 -0.370945 0
M  V30 25393 C 2348.16 2.22274 0.516688 0
M  V30 25394 C 2349.13 1.21663 1.07874 0
M  V30 25395 O 2350.32 1.50585 1.13386 0
M  V30 25396 C 2347.44 2.92164 1.71341 0
M  V30 25397 C 2346.49 4.06893 1.27831 0
M  V30 25398 S 2347.32 5.34793 0.275123 0
M  V30 25399 C 2348.48 6.08198 1.47805 0
M  V30 25400 H 2348.71 2.97217 -0.0701577 0
M  V30 25401 H 2346.25 1.53619 -0.155065 0
M  V30 25402 H 2348.2 3.33045 2.39982 0
M  V30 25403 H 2346.86 2.16935 2.27152 0
M  V30 25404 H 2346.06 4.54829 2.17133 0
M  V30 25405 H 2345.66 3.67931 0.671041 0
M  V30 25406 H 2347.95 6.33255 2.4082 0
M  V30 25407 H 2348.89 7.00422 1.03996 0
M  V30 25408 H 2349.3 5.38717 1.68654 0
M  V30 25409 N 2348.7 0.100255 1.57281 0
M  V30 25410 C 2349.65 -0.87429 2.15543 0
M  V30 25411 C 2350.64 -1.28857 1.09964 0
M  V30 25412 O 2351.85 -1.2625 1.283 0
M  V30 25413 H 2348.22 -0.299991 0.689572 0
M  V30 25414 H 2350.19 -0.358238 2.96242 0
M  V30 25415 C 2348.94 -2.12175 2.75458 0
M  V30 25416 H 2348.27 -1.81186 3.56387 0
M  V30 25417 H 2349.71 -2.78412 3.19786 0
M  V30 25418 C 2348.17 -2.89918 1.71607 0
M  V30 25419 O 2348.7 -3.84644 1.15811 0
M  V30 25420 N 2346.9 -2.53555 1.41979 0
M  V30 25421 H 2346.45 -1.76595 1.87542 0
M  V30 25422 H 2346.41 -3.05871 0.727328 0
M  V30 25423 N 2350.18 -1.56643 -0.17346 0
M  V30 25424 C 2351.42 -1.83669 -0.896951 0
M  V30 25425 C 2351.78 -0.680874 -1.79522 0
M  V30 25426 O 2352.98 -0.831533 -2.55615 0
M  V30 25427 C 2351.26 -3.15801 -1.67346 0
M  V30 25428 S 2352.81 -3.64302 -2.446 0
M  V30 25429 H 2349.63 -0.644398 -0.300452 0
M  V30 25430 H 2352.23 -1.94854 -0.158741 0
M  V30 25431 H 2350.94 -3.97916 -1.00455 0
M  V30 25432 H 2350.47 -3.07551 -2.45308 0
M  V30 25433 H 2352.48 -3.31458 -3.69256 0
M  V30 25434 N 2351.66 0.44194 -1.51277 0
M  V30 25435 C 2352.88 1.21892 -1.67801 0
M  V30 25436 C 2353.31 1.84367 -0.372896 0
M  V30 25437 O 2352.67 1.68606 0.666471 0
M  V30 25438 C 2352.71 2.28206 -2.79203 0
M  V30 25439 O 2351.82 3.33579 -2.42485 0
M  V30 25440 H 2351.16 0.357326 -0.559655 0
M  V30 25441 H 2353.69 0.522487 -1.97816 0
M  V30 25442 H 2353.7 2.73064 -3.03151 0
M  V30 25443 H 2352.37 1.82111 -3.7391 0
M  V30 25444 H 2350.95 2.9423 -2.29092 0
M  V30 25445 N 2353.14 1.41345 0.697083 0
M  V30 25446 C 2354.08 1.43276 1.83234 0
M  V30 25447 C 2355.08 0.310976 1.66521 0
M  V30 25448 O 2356.28 0.48293 1.73401 0
M  V30 25449 H 2352.66 0.448259 0.603794 0
M  V30 25450 H 2354.63 2.38957 1.78723 0
M  V30 25451 C 2353.38 1.33034 3.21243 0
M  V30 25452 H 2352.7 2.18639 3.34719 0
M  V30 25453 H 2354.14 1.38446 4.0076 0
M  V30 25454 C 2352.6 0.0425227 3.36873 0
M  V30 25455 O 2353.13 -0.913352 3.91179 0
M  V30 25456 N 2351.34 -0.0330635 2.90581 0
M  V30 25457 H 2350.88 0.745549 2.46575 0
M  V30 25458 H 2350.84 -0.894146 3.01417 0
M  V30 25459 N 2354.61 -0.931187 1.27148 0
M  V30 25460 C 2355.84 -1.71017 1.15917 0
M  V30 25461 C 2356.25 -1.87009 -0.287079 0
M  V30 25462 O 2355.59 -1.38431 -1.20759 0
M  V30 25463 C 2355.66 -3.13104 1.76653 0
M  V30 25464 C 2355.32 -3.20461 3.25812 0
M  V30 25465 C 2356.32 -3.02976 4.22495 0
M  V30 25466 C 2354 -3.43531 3.66458 0
M  V30 25467 C 2356 -3.08445 5.578 0
M  V30 25468 C 2353.68 -3.48634 5.01894 0
M  V30 25469 C 2354.68 -3.31108 5.97374 0
M  V30 25470 O 2354.37 -3.35939 7.30342 0
M  V30 25471 H 2354.1 -0.541943 0.404072 0
M  V30 25472 H 2356.66 -1.17518 1.68459 0
M  V30 25473 H 2354.89 -3.68069 1.18584 0
M  V30 25474 H 2356.57 -3.72955 1.60185 0
M  V30 25475 H 2357.34 -2.84997 3.9243 0
M  V30 25476 H 2353.22 -3.56225 2.92617 0
M  V30 25477 H 2356.76 -2.94683 6.32304 0
M  V30 25478 H 2352.66 -3.66136 5.31615 0
M  V30 25479 H 2353.43 -3.52417 7.38745 0
M  V30 25480 N 2356.09 -1.09114 -1.13719 0
M  V30 25481 C 2357.04 -0.722258 -2.21102 0
M  V30 25482 C 2358.03 0.275344 -1.67147 0
M  V30 25483 O 2359.24 0.137144 -1.79477 0
M  V30 25484 H 2355.61 -0.215565 -0.720441 0
M  V30 25485 H 2357.59 -1.63714 -2.4948 0
M  V30 25486 C 2356.33 -0.155491 -3.47352 0
M  V30 25487 H 2355.66 -0.914314 -3.89205 0
M  V30 25488 H 2357.1 0.0647221 -4.23951 0
M  V30 25489 C 2355.56 1.10847 -3.18142 0
M  V30 25490 O 2356.09 2.19221 -3.36608 0
M  V30 25491 N 2354.29 1.02171 -2.72047 0
M  V30 25492 H 2353.84 0.139719 -2.57221 0
M  V30 25493 H 2353.8 1.86815 -2.52878 0
M  V30 25494 N 2357.57 1.30887 -0.877861 0
M  V30 25495 C 2358.52 2.30266 -0.328702 0
M  V30 25496 C 2359.51 1.5986 0.560468 0
M  V30 25497 O 2360.72 1.74395 0.445691 0
M  V30 25498 H 2357.09 0.746877 -0.0876274 0
M  V30 25499 H 2359.06 2.74049 -1.18066 0
M  V30 25500 C 2357.81 3.44802 0.44801 0
M  V30 25501 H 2357.14 3.99155 -0.226929 0
M  V30 25502 H 2358.58 4.16433 0.797468 0
M  V30 25503 C 2357.03 2.94158 1.64234 0
M  V30 25504 O 2357.56 2.93588 2.74169 0
M  V30 25505 N 2355.77 2.50259 1.47712 0
M  V30 25506 H 2355.32 2.50921 0.582777 0
M  V30 25507 H 2355.28 2.16731 2.27761 0
M  V30 25508 N 2359.05 0.638091 1.44105 0
M  V30 25509 C 2360.01 -0.053061 2.29139 0
M  V30 25510 C 2361.01 -0.765481 1.41411 0
M  V30 25511 O 2362.2 -0.609017 1.63207 0
M  V30 25512 C 2359.33 -1.08579 3.23146 0
M  V30 25513 H 2360.53 0.694934 2.91737 0
M  V30 25514 H 2358.08 0.398565 1.51133 0
M  V30 25515 H 2358.81 -1.86353 2.65411 0
M  V30 25516 H 2358.6 -0.578784 3.87805 0
M  V30 25517 H 2360.09 -1.56893 3.87007 0
M  V30 25518 N 2360.53 -1.52973 0.379063 0
M  V30 25519 C 2361.75 -2.06341 -0.209317 0
M  V30 25520 C 2362.18 -1.24975 -1.4058 0
M  V30 25521 O 2361.53 -0.272186 -1.79245 0
M  V30 25522 C 2361.58 -3.56103 -0.567723 0
M  V30 25523 O 2360.69 -3.77378 -1.66312 0
M  V30 25524 H 2360.03 -0.663439 -0.0272802 0
M  V30 25525 H 2362.56 -1.97247 0.54357 0
M  V30 25526 H 2362.57 -3.99366 -0.834933 0
M  V30 25527 H 2361.24 -4.14765 0.307086 0
M  V30 25528 H 2359.82 -3.46008 -1.39042 0
M  V30 25529 N 2362 -0.108595 -1.57225 0
M  V30 25530 C 2362.97 0.831044 -2.13603 0
M  V30 25531 C 2363.97 1.20171 -1.06843 0
M  V30 25532 O 2365.16 1.12893 -1.32668 0
M  V30 25533 C 2362.29 2.12239 -2.66772 0
M  V30 25534 H 2363.48 0.341265 -2.97952 0
M  V30 25535 H 2361.03 0.140542 -1.55667 0
M  V30 25536 H 2361.77 2.65671 -1.85982 0
M  V30 25537 H 2361.55 1.86619 -3.44842 0
M  V30 25538 H 2363.04 2.79429 -3.10337 0
M  V30 25539 N 2363.48 1.56732 0.16515 0
M  V30 25540 C 2364.73 1.82342 0.880775 0
M  V30 25541 C 2365.06 0.686653 1.81976 0
M  V30 25542 O 2364.31 -0.325663 1.92971 0
M  V30 25543 C 2364.61 3.14163 1.704 0
M  V30 25544 C 2364.28 4.41552 0.913397 0
M  V30 25545 C 2362.94 4.76151 0.69522 0
M  V30 25546 C 2365.29 5.1996 0.359257 0
M  V30 25547 C 2362.62 5.86634 -0.0880978 0
M  V30 25548 C 2364.97 6.31263 -0.411004 0
M  V30 25549 C 2363.63 6.64425 -0.639925 0
M  V30 25550 H 2362.9 0.667237 0.322299 0
M  V30 25551 H 2365.55 1.90947 0.145369 0
M  V30 25552 H 2363.86 3.00928 2.50898 0
M  V30 25553 H 2365.55 3.3119 2.26085 0
M  V30 25554 H 2362.14 4.14416 1.09349 0
M  V30 25555 H 2366.33 4.93619 0.515141 0
M  V30 25556 H 2361.58 6.10781 -0.275137 0
M  V30 25557 H 2365.76 6.91222 -0.847615 0
M  V30 25558 H 2363.38 7.49873 -1.24877 0
M  V30 25559 N 2364.96 -0.433911 1.51509 0
M  V30 25560 C 2366.21 -1.18481 1.64591 0
M  V30 25561 C 2366.54 -1.90783 0.362699 0
M  V30 25562 O 2365.81 -1.83743 -0.637859 0
M  V30 25563 C 2366.1 -2.19908 2.85153 0
M  V30 25564 C 2365.95 -1.51667 4.23459 0
M  V30 25565 C 2367.27 -3.20853 3.01233 0
M  V30 25566 H 2364.39 -0.429378 0.599002 0
M  V30 25567 H 2367.03 -0.473615 1.84002 0
M  V30 25568 H 2365.18 -2.80561 2.68733 0
M  V30 25569 H 2366.85 -0.943243 4.51554 0
M  V30 25570 H 2365.1 -0.81896 4.25999 0
M  V30 25571 H 2365.77 -2.25551 5.03816 0
M  V30 25572 H 2368.24 -2.70257 3.16386 0
M  V30 25573 H 2367.12 -3.89111 3.87148 0
M  V30 25574 H 2367.38 -3.87156 2.13454 0
M  V30 25575 N 2366.44 -1.41713 -0.689577 0
M  V30 25576 C 2367.39 -1.44245 -1.82472 0
M  V30 25577 C 2368.38 -0.319803 -1.66354 0
M  V30 25578 O 2369.59 -0.492119 -1.73142 0
M  V30 25579 H 2365.96 -0.451455 -0.601409 0
M  V30 25580 H 2367.93 -2.39902 -1.77453 0
M  V30 25581 C 2366.68 -1.34736 -3.20533 0
M  V30 25582 H 2366 -2.20411 -3.33555 0
M  V30 25583 H 2367.44 -1.40569 -4.0002 0
M  V30 25584 C 2365.9 -0.0603873 -3.36846 0
M  V30 25585 O 2366.43 0.892594 -3.91658 0
M  V30 25586 N 2364.64 0.0176528 -2.90595 0
M  V30 25587 H 2364.19 -0.758615 -2.46176 0
M  V30 25588 H 2364.14 0.878148 -3.01887 0
M  V30 25589 N 2367.92 0.924431 -1.2764 0
M  V30 25590 C 2369.16 1.66916 -1.13944 0
M  V30 25591 C 2369.49 1.92446 0.314555 0
M  V30 25592 O 2368.76 1.53305 1.21961 0
M  V30 25593 H 2367.34 0.618635 -0.418689 0
M  V30 25594 H 2370 1.10982 -1.60215 0
M  V30 25595 H 2369.09 2.63599 -1.67098 0
M  V30 25596 N 2369.39 1.09715 1.13139 0
M  V30 25597 C 2370.34 0.739235 2.18641 0
M  V30 25598 C 2371.31 -0.28095 1.63707 0
M  V30 25599 O 2372.5 -0.161912 1.90112 0
M  V30 25600 C 2369.64 0.169162 3.44685 0
M  V30 25601 C 2368.75 1.24375 4.13709 0
M  V30 25602 C 2367.88 0.636112 5.27378 0
M  V30 25603 C 2366.92 1.6918 5.88256 0
M  V30 25604 N 2366.06 1.10497 6.9335 0
M  V30 25605 H 2370.9 1.64316 2.48604 0
M  V30 25606 H 2368.44 0.820896 1.22064 0
M  V30 25607 H 2370.4 -0.179182 4.16815 0
M  V30 25608 H 2369.03 -0.698024 3.15163 0
M  V30 25609 H 2368.08 1.70933 3.39832 0
M  V30 25610 H 2369.39 2.04319 4.55033 0
M  V30 25611 H 2368.54 0.236784 6.06238 0
M  V30 25612 H 2367.28 -0.194843 4.87311 0
M  V30 25613 H 2366.29 2.10064 5.08088 0
M  V30 25614 H 2367.51 2.52547 6.30394 0
M  V30 25615 H 2365.46 0.29535 6.55335 0
M  V30 25616 H 2365.38 1.84134 7.33233 0
M  V30 25617 H 2366.64 0.731946 7.76056 0
M  V30 25618 N 2370.87 -1.30419 0.88479 0
M  V30 25619 C 2372.15 -1.90967 0.423219 0
M  V30 25620 C 2372.53 -1.80418 -1.09601 0
M  V30 25621 O 2371.88 -1.22128 -1.93124 0
M  V30 25622 C 2372.09 -3.36625 0.921115 0
M  V30 25623 C 2373.44 -4.13698 0.955976 0
M  V30 25624 O 2374.46 -3.45468 0.867767 0
M  V30 25625 O 2373.32 -5.35596 1.08623 0
M  V30 25626 H 2370.41 -0.816816 0.129383 0
M  V30 25627 H 2372.96 -1.38988 0.973678 0
M  V30 25628 H 2371.73 -3.38386 1.96495 0
M  V30 25629 H 2371.35 -3.96058 0.34981 0
M  V30 25630 N 2372.35 -0.645724 -1.43764 0
M  V30 25631 C 2373.77 -0.312618 -1.56508 0
M  V30 25632 C 2373.97 1.18362 -1.63072 0
M  V30 25633 O 2373.02 1.96821 -1.5817 0
M  V30 25634 C 2374.34 -1.01738 -2.82966 0
M  V30 25635 C 2375.88 -0.996917 -2.96699 0
M  V30 25636 C 2376.36 -1.68243 -4.25979 0
M  V30 25637 N 2377.85 -1.64971 -4.32826 0
M  V30 25638 C 2378.58 -2.14894 -5.31609 0
M  V30 25639 N 2378.08 -2.73072 -6.36713 0
M  V30 25640 N 2379.87 -2.05437 -5.23213 0
M  V30 25641 H 2372.02 -1.61677 -1.37747 0
M  V30 25642 H 2374.29 -0.679492 -0.661055 0
M  V30 25643 H 2373.99 -2.07245 -2.84152 0
M  V30 25644 H 2373.87 -0.564243 -3.72956 0
M  V30 25645 H 2376.25 0.04972 -2.95058 0
M  V30 25646 H 2376.34 -1.48868 -2.08019 0
M  V30 25647 H 2375.98 -2.7286 -4.28381 0
M  V30 25648 H 2375.91 -1.16538 -5.13543 0
M  V30 25649 H 2378.4 -1.2251 -3.57491 0
M  V30 25650 H 2378.71 -3.08861 -7.08396 0
M  V30 25651 H 2377.06 -2.7713 -6.37357 0
M  V30 25652 H 2380.25 -1.59697 -4.40016 0
M  V30 25653 H 2380.42 -2.44653 -6.00041 0
M  V30 25654 N 2373.83 1.5277 -0.38717 0
M  V30 25655 C 2374.78 2.27927 0.463912 0
M  V30 25656 C 2375.77 1.31743 1.0649 0
M  V30 25657 O 2376.98 1.49289 1.00562 0
M  V30 25658 H 2373.35 0.732912 0.168357 0
M  V30 25659 H 2375.32 2.97785 -0.191462 0
M  V30 25660 C 2374.07 3.09715 1.58024 0
M  V30 25661 H 2373.39 3.83583 1.12711 0
M  V30 25662 H 2374.83 3.65445 2.15002 0
M  V30 25663 C 2373.29 2.21894 2.53505 0
M  V30 25664 O 2373.82 1.84428 3.5686 0
M  V30 25665 N 2372.03 1.86097 2.23196 0
M  V30 25666 H 2371.58 2.16763 1.39181 0
M  V30 25667 H 2371.53 1.27626 2.87331 0
M  V30 25668 N 2375.31 0.116931 1.57166 0
M  V30 25669 C 2376.58 -0.585016 1.86647 0
M  V30 25670 C 2376.96 -1.84947 1.01773 0
M  V30 25671 O 2376.31 -2.28298 0.096078 0
M  V30 25672 C 2376.52 -0.879447 3.37738 0
M  V30 25673 C 2377.87 -1.23341 4.06291 0
M  V30 25674 O 2378.89 -0.969775 3.42745 0
M  V30 25675 O 2377.75 -1.72811 5.18458 0
M  V30 25676 H 2374.85 -0.294994 0.772598 0
M  V30 25677 H 2377.39 0.151279 1.69024 0
M  V30 25678 H 2376.16 0.0166824 3.91296 0
M  V30 25679 H 2375.79 -1.67097 3.60783 0
M  V30 25680 N 2376.78 -1.56818 -0.156836 0
M  V30 25681 C 2377.73 -1.98457 -1.21315 0
M  V30 25682 C 2378.73 -0.87547 -1.45024 0
M  V30 25683 O 2379.93 -1.06063 -1.45433 0
M  V30 25684 H 2376.31 -0.631612 -0.408131 0
M  V30 25685 H 2378.28 -2.86474 -0.835194 0
M  V30 25686 C 2377.03 -2.3729 -2.54144 0
M  V30 25687 H 2376.35 -3.2218 -2.36727 0
M  V30 25688 H 2377.79 -2.70257 -3.26707 0
M  V30 25689 C 2376.25 -1.22179 -3.13965 0
M  V30 25690 O 2376.78 -0.517219 -3.98356 0
M  V30 25691 N 2374.99 -0.988584 -2.73268 0
M  V30 25692 H 2374.53 -1.5633 -2.04741 0
M  V30 25693 H 2374.49 -0.220264 -3.13627 0
M  V30 25694 N 2378.26 0.425871 -1.51737 0
M  V30 25695 C 2379.19 1.52491 -1.7683 0
M  V30 25696 C 2380.17 1.58455 -0.618551 0
M  V30 25697 O 2381.36 1.73999 -0.862447 0
M  V30 25698 C 2378.49 2.90471 -1.90379 0
M  V30 25699 C 2377.44 2.99363 -3.05885 0
M  V30 25700 C 2376.77 4.39435 -3.04632 0
M  V30 25701 C 2378.07 2.72387 -4.45649 0
M  V30 25702 H 2379.76 1.31743 -2.68857 0
M  V30 25703 H 2377.31 0.632339 -1.29373 0
M  V30 25704 H 2379.26 3.67327 -2.06516 0
M  V30 25705 H 2377.99 3.12475 -0.950095 0
M  V30 25706 H 2376.64 2.24949 -2.89471 0
M  V30 25707 H 2376.29 4.58424 -2.07018 0
M  V30 25708 H 2375.99 4.46313 -3.82202 0
M  V30 25709 H 2377.52 5.18249 -3.22878 0
M  V30 25710 H 2378.93 3.38971 -4.62354 0
M  V30 25711 H 2377.33 2.90661 -5.25011 0
M  V30 25712 H 2378.4 1.67921 -4.54896 0
M  V30 25713 N 2379.74 1.42077 0.682052 0
M  V30 25714 C 2380.65 1.47374 1.82532 0
M  V30 25715 C 2381.67 0.363109 1.70169 0
M  V30 25716 O 2382.84 0.612908 1.91847 0
M  V30 25717 C 2379.91 1.36679 3.18622 0
M  V30 25718 C 2378.97 2.58173 3.42995 0
M  V30 25719 C 2378.2 2.47979 4.72591 0
M  V30 25720 O 2378.42 1.5117 5.50004 0
M  V30 25721 O 2377.36 3.37982 4.98048 0
M  V30 25722 H 2381.18 2.43856 1.81019 0
M  V30 25723 H 2378.77 1.23762 0.836865 0
M  V30 25724 H 2380.65 1.3305 3.99845 0
M  V30 25725 H 2379.33 0.433195 3.20788 0
M  V30 25726 H 2378.23 2.67378 2.61648 0
M  V30 25727 H 2379.57 3.50407 3.45653 0
M  V30 25728 N 2381.22 -0.917649 1.28129 0
M  V30 25729 C 2382.17 -2.04094 1.11573 0
M  V30 25730 C 2383.16 -1.69362 0.036054 0
M  V30 25731 O 2384.37 -1.78946 0.194532 0
M  V30 25732 H 2380.74 -0.66865 0.344109 0
M  V30 25733 H 2382.71 -2.15202 2.06714 0
M  V30 25734 C 2381.46 -3.386 0.790257 0
M  V30 25735 H 2380.79 -3.65818 1.613 0
M  V30 25736 H 2382.23 -4.17939 0.714345 0
M  V30 25737 C 2380.68 -3.33081 -0.505839 0
M  V30 25738 O 2381.21 -3.7112 -1.5373 0
M  V30 25739 N 2379.42 -2.86176 -0.505143 0
M  V30 25740 H 2378.97 -2.55417 0.334665 0
M  V30 25741 H 2378.93 -2.82866 -1.37238 0
M  V30 25742 N 2382.7 -1.10314 -1.12555 0
M  V30 25743 C 2383.97 -0.75691 -1.80361 0
M  V30 25744 C 2384.35 0.75679 -1.97068 0
M  V30 25745 O 2383.7 1.68256 -1.54603 0
M  V30 25746 C 2383.91 -1.50652 -3.14809 0
M  V30 25747 C 2385.26 -1.67824 -3.90026 0
M  V30 25748 O 2386.28 -1.46979 -3.24462 0
M  V30 25749 O 2385.14 -2.02374 -5.07649 0
M  V30 25750 H 2382.24 -0.272939 -0.780662 0
M  V30 25751 H 2384.78 -1.20588 -1.19401 0
M  V30 25752 H 2383.56 -2.53677 -2.97932 0
M  V30 25753 H 2383.18 -1.05033 -3.83476 0
M  V30 25754 N 2384.18 1.29948 -0.891694 0
M  V30 25755 C 2385.42 1.97666 -0.52033 0
M  V30 25756 C 2385.78 1.68808 0.914767 0
M  V30 25757 O 2386.98 2.29914 1.39259 0
M  V30 25758 C 2385.25 3.48439 -0.795283 0
M  V30 25759 S 2386.81 4.35624 -0.527029 0
M  V30 25760 H 2383.63 0.684207 -0.193342 0
M  V30 25761 H 2386.23 1.57924 -1.15241 0
M  V30 25762 H 2384.93 3.66935 -1.83812 0
M  V30 25763 H 2384.47 3.9311 -0.151019 0
M  V30 25764 H 2386.48 4.92166 0.631446 0
M  V30 25765 N 2385.65 0.653339 1.4342 0
M  V30 25766 C 2386.9 0.164111 2.01031 0
M  V30 25767 C 2387.22 -1.22923 1.52149 0
M  V30 25768 O 2388.42 -1.81368 2.02035 0
M  V30 25769 C 2386.88 0.242583 3.59082 0
M  V30 25770 C 2386.49 1.63862 4.16957 0
M  V30 25771 C 2388.23 -0.189035 4.24079 0
M  V30 25772 C 2386.14 1.67102 5.67302 0
M  V30 25773 H 2385.07 0.0575901 0.751797 0
M  V30 25774 H 2387.72 0.815391 1.64389 0
M  V30 25775 H 2386.1 -0.476207 3.93126 0
M  V30 25776 H 2387.27 2.38278 3.94412 0
M  V30 25777 H 2385.59 2.01623 3.64331 0
M  V30 25778 H 2388.19 -0.184681 5.34381 0
M  V30 25779 H 2388.53 -1.22049 3.98007 0
M  V30 25780 H 2389.06 0.478008 3.94918 0
M  V30 25781 H 2385.8 2.68157 5.98141 0
M  V30 25782 H 2385.32 0.970118 5.91903 0
M  V30 25783 H 2387 1.41481 6.31341 0
M  V30 25784 N 2387.13 -1.52563 0.395266 0
M  V30 25785 C 2388.04 -2.30356 -0.444191 0
M  V30 25786 C 2389.06 -1.37513 -1.06612 0
M  V30 25787 O 2390.23 -1.70585 -1.07064 0
M  V30 25788 C 2387.3 -3.09967 -1.5531 0
M  V30 25789 C 2386.36 -4.18528 -0.95566 0
M  V30 25790 C 2385.59 -4.94333 -2.01173 0
M  V30 25791 O 2385.82 -4.70291 -3.22773 0
M  V30 25792 O 2384.75 -5.7953 -1.62569 0
M  V30 25793 H 2388.58 -3.03107 0.18972 0
M  V30 25794 H 2386.16 -1.48553 0.158826 0
M  V30 25795 H 2388.04 -3.59586 -2.19718 0
M  V30 25796 H 2386.72 -2.40024 -2.17187 0
M  V30 25797 H 2385.62 -3.7309 -0.274678 0
M  V30 25798 H 2386.96 -4.90723 -0.381023 0
M  V30 25799 N 2388.61 -0.125265 -1.57101 0
M  V30 25800 C 2389.56 0.822617 -2.15642 0
M  V30 25801 C 2390.53 1.25925 -1.08315 0
M  V30 25802 O 2391.71 1.33565 -1.36254 0
M  V30 25803 C 2388.85 2.06489 -2.76508 0
M  V30 25804 C 2387.96 1.67605 -3.98161 0
M  V30 25805 C 2387.1 2.86846 -4.47094 0
M  V30 25806 C 2386.14 2.44232 -5.61264 0
M  V30 25807 N 2385.28 3.56408 -6.04911 0
M  V30 25808 H 2390.12 0.316573 -2.96314 0
M  V30 25809 H 2387.65 0.144562 -1.46388 0
M  V30 25810 H 2389.61 2.79284 -3.0993 0
M  V30 25811 H 2388.24 2.54541 -1.98516 0
M  V30 25812 H 2387.29 0.846595 -3.7086 0
M  V30 25813 H 2388.6 1.32292 -4.80937 0
M  V30 25814 H 2387.76 3.67859 -4.82457 0
M  V30 25815 H 2386.5 3.2539 -3.63281 0
M  V30 25816 H 2385.5 1.61654 -5.25498 0
M  V30 25817 H 2386.73 2.06799 -6.46847 0
M  V30 25818 H 2384.67 3.94613 -5.24038 0
M  V30 25819 H 2384.59 3.25039 -6.82558 0
M  V30 25820 H 2385.86 4.37841 -6.44915 0
M  V30 25821 N 2390.09 1.56899 0.148518 0
M  V30 25822 C 2391.04 1.99098 1.20261 0
M  V30 25823 C 2392.03 0.883148 1.44557 0
M  V30 25824 O 2393.24 1.06833 1.44868 0
M  V30 25825 H 2389.61 0.633767 0.404775 0
M  V30 25826 H 2391.58 2.86912 0.81999 0
M  V30 25827 C 2390.33 2.38634 2.52882 0
M  V30 25828 H 2389.65 3.23431 2.35015 0
M  V30 25829 H 2391.09 2.71985 3.25269 0
M  V30 25830 C 2389.55 1.23842 3.13313 0
M  V30 25831 O 2390.08 0.538338 3.98076 0
M  V30 25832 N 2388.29 1.00306 2.7274 0
M  V30 25833 H 2387.84 1.57413 2.03909 0
M  V30 25834 H 2387.79 0.236893 3.13506 0
M  V30 25835 N 2391.57 -0.417818 1.51961 0
M  V30 25836 C 2392.5 -1.52913 1.6939 0
M  V30 25837 C 2393.48 -1.5332 0.541446 0
M  V30 25838 O 2394.66 -1.72158 0.767726 0
M  V30 25839 C 2391.79 -2.91464 1.7253 0
M  V30 25840 C 2390.83 -3.09003 2.93972 0
M  V30 25841 S 2391.67 -2.83234 4.54466 0
M  V30 25842 C 2392.82 -4.2403 4.6038 0
M  V30 25843 H 2393.06 -1.37899 2.63384 0
M  V30 25844 H 2390.59 -0.60882 1.4189 0
M  V30 25845 H 2392.55 -3.71317 1.75025 0
M  V30 25846 H 2391.21 -3.03826 0.796787 0
M  V30 25847 H 2390.4 -4.10348 2.92627 0
M  V30 25848 H 2390 -2.37002 2.8932 0
M  V30 25849 H 2392.29 -5.17536 4.37222 0
M  V30 25850 H 2393.24 -4.30402 5.62281 0
M  V30 25851 H 2393.65 -4.08596 3.89499 0
M  V30 25852 N 2393.04 -1.42436 -0.674508 0
M  V30 25853 C 2394.32 -1.33405 -1.43047 0
M  V30 25854 C 2394.7 0.0284303 -2.11081 0
M  V30 25855 O 2394.05 1.04394 -2.03259 0
M  V30 25856 C 2394.26 -2.50243 -2.43268 0
M  V30 25857 C 2395.61 -2.92372 -3.07902 0
M  V30 25858 O 2396.63 -2.50136 -2.53595 0
M  V30 25859 O 2395.49 -3.65474 -4.06314 0
M  V30 25860 H 2392.58 -0.526118 -0.638067 0
M  V30 25861 H 2395.13 -1.54444 -0.703207 0
M  V30 25862 H 2393.9 -3.41071 -1.91797 0
M  V30 25863 H 2393.52 -2.31192 -3.23475 0
M  V30 25864 N 2394.52 0.910841 -1.28614 0
M  V30 25865 C 2395.47 2.00024 -1.09427 0
M  V30 25866 C 2396.46 1.60891 -0.0170361 0
M  V30 25867 O 2397.65 1.75399 -0.237503 0
M  V30 25868 C 2394.78 3.34755 -0.761199 0
M  V30 25869 C 2393.86 3.80281 -1.87742 0
M  V30 25870 N 2394.25 3.98151 -3.11945 0
M  V30 25871 C 2392.55 4.09463 -1.76793 0
M  V30 25872 C 2393.25 4.36331 -3.84695 0
M  V30 25873 N 2392.23 4.44753 -3.12563 0
M  V30 25874 H 2396.03 2.11895 -2.03661 0
M  V30 25875 H 2393.54 1.09889 -1.19575 0
M  V30 25876 H 2395.54 4.1249 -0.604815 0
M  V30 25877 H 2394.2 3.24237 0.173346 0
M  V30 25878 H 2395.21 3.8399 -3.47523 0
M  V30 25879 H 2391.89 4.07565 -0.905356 0
M  V30 25880 H 2393.28 4.58095 -4.91526 0
M  V30 25881 N 2396 1.10909 1.11969 0
M  V30 25882 C 2397.23 0.876857 1.874 0
M  V30 25883 C 2397.64 -0.572993 1.79895 0
M  V30 25884 O 2397 -1.39532 1.17631 0
M  V30 25885 C 2397.05 1.32288 3.36426 0
M  V30 25886 O 2396.77 2.71588 3.43761 0
M  V30 25887 C 2398.27 1.12526 4.28781 0
M  V30 25888 H 2395.49 0.314395 0.592788 0
M  V30 25889 H 2398.04 1.47501 1.41646 0
M  V30 25890 H 2396.19 0.768295 3.79705 0
M  V30 25891 H 2396.61 2.90784 4.36515 0
M  V30 25892 H 2398.08 1.48642 5.3161 0
M  V30 25893 H 2398.56 0.0643166 4.39153 0
M  V30 25894 H 2399.16 1.66655 3.91288 0
M  V30 25895 N 2397.48 -1.29474 0.898573 0
M  V30 25896 C 2398.71 -1.99458 0.538514 0
M  V30 25897 C 2399.12 -1.67442 -0.880893 0
M  V30 25898 O 2398.46 -0.915155 -1.59282 0
M  V30 25899 C 2398.52 -3.53582 0.649626 0
M  V30 25900 C 2398.19 -4.0915 2.0358 0
M  V30 25901 C 2399.18 -4.2413 3.00683 0
M  V30 25902 C 2396.87 -4.44208 2.34488 0
M  V30 25903 C 2398.86 -4.73398 4.26818 0
M  V30 25904 C 2396.55 -4.93173 3.60866 0
M  V30 25905 C 2397.55 -5.07722 4.56845 0
M  V30 25906 O 2397.23 -5.55625 5.80979 0
M  V30 25907 H 2396.97 -0.644045 0.205383 0
M  V30 25908 H 2399.52 -1.66005 1.20961 0
M  V30 25909 H 2397.75 -3.8662 -0.0784913 0
M  V30 25910 H 2399.44 -4.04798 0.298881 0
M  V30 25911 H 2400.21 -3.97334 2.78119 0
M  V30 25912 H 2396.08 -4.32143 1.60542 0
M  V30 25913 H 2399.63 -4.84669 5.01738 0
M  V30 25914 H 2395.53 -5.19405 3.8326 0
M  V30 25915 H 2396.29 -5.73942 5.83552 0
M  V30 25916 N 2398.96 -0.660936 -1.43071 0
M  V30 25917 C 2399.9 0.0259478 -2.30785 0
M  V30 25918 C 2400.87 0.806862 -1.45186 0
M  V30 25919 O 2402.06 0.781912 -1.74042 0
M  V30 25920 C 2399.2 0.981009 -3.30863 0
M  V30 25921 C 2398.31 0.195382 -4.31558 0
M  V30 25922 C 2397.45 1.14494 -5.18714 0
M  V30 25923 C 2396.49 0.350192 -6.11097 0
M  V30 25924 N 2395.62 1.25174 -6.90852 0
M  V30 25925 H 2400.46 -0.727897 -2.88973 0
M  V30 25926 H 2398 -0.370707 -1.42352 0
M  V30 25927 H 2399.96 1.54842 -3.87401 0
M  V30 25928 H 2398.59 1.70164 -2.74307 0
M  V30 25929 H 2397.64 -0.48844 -3.77251 0
M  V30 25930 H 2398.95 -0.422263 -4.97009 0
M  V30 25931 H 2398.11 1.78273 -5.79917 0
M  V30 25932 H 2396.84 1.79648 -4.53407 0
M  V30 25933 H 2395.85 -0.300905 -5.48976 0
M  V30 25934 H 2397.07 -0.29706 -6.7845 0
M  V30 25935 H 2395.02 1.88994 -6.28186 0
M  V30 25936 H 2394.94 0.688839 -7.52855 0
M  V30 25937 H 2396.21 1.87744 -7.56553 0
M  V30 25938 N 2400.43 1.52351 -0.403352 0
M  V30 25939 C 2401.38 2.23671 0.442205 0
M  V30 25940 C 2402.37 1.24585 1.0182 0
M  V30 25941 O 2403.56 1.49852 0.941978 0
M  V30 25942 C 2400.69 3.05735 1.56145 0
M  V30 25943 C 2399.78 4.12226 0.996503 0
M  V30 25944 N 2400.17 5.05554 0.157716 0
M  V30 25945 C 2398.46 4.27607 1.26759 0
M  V30 25946 C 2399.17 5.81491 -0.155956 0
M  V30 25947 N 2398.14 5.4172 0.45168 0
M  V30 25948 H 2401.94 2.93184 -0.205015 0
M  V30 25949 H 2399.46 1.60991 -0.213446 0
M  V30 25950 H 2401.45 3.55377 2.17975 0
M  V30 25951 H 2400.11 2.37759 2.21135 0
M  V30 25952 H 2401.13 5.1749 -0.20614 0
M  V30 25953 H 2397.8 3.70861 1.9175 0
M  V30 25954 H 2399.19 6.66673 -0.836446 0
M  V30 25955 N 2401.91 0.133594 1.57033 0
M  V30 25956 C 2403.14 -0.527394 1.99755 0
M  V30 25957 C 2403.55 -1.5983 1.01247 0
M  V30 25958 O 2402.89 -1.837 -0.000613206 0
M  V30 25959 C 2402.96 -1.19933 3.38905 0
M  V30 25960 C 2402.62 -0.274629 4.56174 0
M  V30 25961 C 2403.62 0.492489 5.17562 0
M  V30 25962 C 2401.3 -0.181442 5.01972 0
M  V30 25963 C 2403.3 1.34038 6.23147 0
M  V30 25964 C 2400.98 0.670065 6.07415 0
M  V30 25965 C 2401.98 1.42959 6.67871 0
M  V30 25966 O 2401.67 2.26693 7.71275 0
M  V30 25967 H 2401.4 -0.142988 0.660705 0
M  V30 25968 H 2403.95 0.221135 2.04206 0
M  V30 25969 H 2402.18 -1.99522 3.31252 0
M  V30 25970 H 2403.87 -1.75869 3.65821 0
M  V30 25971 H 2404.64 0.430452 4.83086 0
M  V30 25972 H 2400.52 -0.762342 4.54653 0
M  V30 25973 H 2404.06 1.93369 6.70264 0
M  V30 25974 H 2399.96 0.733443 6.4132 0
M  V30 25975 H 2400.73 2.19794 7.88437 0
M  V30 25976 N 2403.39 -1.56975 -0.140195 0
M  V30 25977 C 2404.34 -1.99733 -1.19204 0
M  V30 25978 C 2405.33 -0.890802 -1.44087 0
M  V30 25979 O 2406.54 -1.07599 -1.443 0
M  V30 25980 H 2402.91 -0.635905 -0.401409 0
M  V30 25981 H 2404.88 -2.87343 -0.804763 0
M  V30 25982 C 2403.63 -2.39972 -2.51612 0
M  V30 25983 H 2402.96 -3.24673 -2.33297 0
M  V30 25984 H 2404.4 -2.73706 -3.23822 0
M  V30 25985 C 2402.86 -1.25502 -3.12651 0
M  V30 25986 O 2403.39 -0.559441 -3.97785 0
M  V30 25987 N 2401.59 -1.01751 -2.72204 0
M  V30 25988 H 2401.14 -1.58492 -2.03071 0
M  V30 25989 H 2401.1 -0.253516 -3.13376 0
M  V30 25990 N 2404.87 0.409753 -1.5218 0
M  V30 25991 C 2406.28 0.748326 -1.40969 0
M  V30 25992 C 2406.48 1.94842 -0.513691 0
M  V30 25993 O 2405.54 2.52491 0.0207582 0
M  V30 25994 C 2406.85 1.00285 -2.83485 0
M  V30 25995 C 2408.4 1.1056 -2.92823 0
M  V30 25996 C 2408.88 1.39288 -4.36306 0
M  V30 25997 N 2410.37 1.46155 -4.39537 0
M  V30 25998 C 2411.1 1.70009 -5.47617 0
M  V30 25999 N 2410.6 1.91471 -6.65816 0
M  V30 26000 N 2412.39 1.72018 -5.35132 0
M  V30 26001 H 2404.54 -0.380222 -2.08969 0
M  V30 26002 H 2406.81 -0.107822 -0.941848 0
M  V30 26003 H 2406.51 0.193399 -3.51168 0
M  V30 26004 H 2406.39 1.92318 -3.2449 0
M  V30 26005 H 2408.77 1.90564 -2.25321 0
M  V30 26006 H 2408.85 0.163645 -2.55276 0
M  V30 26007 H 2408.5 0.59802 -5.04367 0
M  V30 26008 H 2408.43 2.34735 -4.71389 0
M  V30 26009 H 2410.92 1.31361 -3.54334 0
M  V30 26010 H 2411.23 2.09121 -7.43968 0
M  V30 26011 H 2409.58 1.88737 -6.68882 0
M  V30 26012 H 2412.77 1.54788 -4.41767 0
M  V30 26013 H 2412.94 1.90269 -6.19436 0
M  V30 26014 N 2406.35 1.42792 0.666944 0
M  V30 26015 C 2407.28 1.4968 1.79216 0
M  V30 26016 C 2408.26 0.352652 1.66404 0
M  V30 26017 O 2409.44 0.568026 1.85707 0
M  V30 26018 C 2406.57 1.40611 3.17562 0
M  V30 26019 C 2405.53 2.53133 3.45119 0
M  V30 26020 C 2404.85 2.2912 4.83123 0
M  V30 26021 C 2406.15 3.95424 3.41229 0
M  V30 26022 H 2407.85 2.43856 1.73709 0
M  V30 26023 H 2405.39 1.17369 0.834299 0
M  V30 26024 H 2407.35 1.44036 3.9602 0
M  V30 26025 H 2406.07 0.429327 3.23766 0
M  V30 26026 H 2404.73 2.49039 2.69027 0
M  V30 26027 H 2404.38 1.29717 4.85986 0
M  V30 26028 H 2404.08 3.0454 5.02523 0
M  V30 26029 H 2405.6 2.34307 5.63855 0
M  V30 26030 H 2407.01 4.0108 4.09644 0
M  V30 26031 H 2405.41 4.70758 3.72165 0
M  V30 26032 H 2406.48 4.21536 2.39657 0
M  V30 26033 N 2407.82 -0.904008 1.29095 0
M  V30 26034 C 2408.77 -2.02899 1.13731 0
M  V30 26035 C 2409.77 -1.69314 0.054015 0
M  V30 26036 O 2410.97 -1.78729 0.213501 0
M  V30 26037 H 2407.35 -0.664963 0.351182 0
M  V30 26038 H 2409.32 -2.12997 2.08985 0
M  V30 26039 C 2408.07 -3.37743 0.826126 0
M  V30 26040 H 2407.39 -3.64086 1.6517 0
M  V30 26041 H 2408.83 -4.17158 0.758633 0
M  V30 26042 C 2407.29 -3.33599 -0.470483 0
M  V30 26043 O 2407.82 -3.7273 -1.49785 0
M  V30 26044 N 2406.03 -2.86696 -0.474762 0
M  V30 26045 H 2405.57 -2.55047 0.361737 0
M  V30 26046 H 2405.53 -2.84305 -1.34231 0
M  V30 26047 N 2409.3 -1.11501 -1.11379 0
M  V30 26048 C 2410.25 -0.768994 -2.1952 0
M  V30 26049 C 2411.24 0.239828 -1.67694 0
M  V30 26050 O 2412.45 0.0990439 -1.79727 0
M  V30 26051 H 2408.83 -0.230799 -0.715707 0
M  V30 26052 H 2410.8 -1.68969 -2.45951 0
M  V30 26053 C 2409.55 -0.229134 -3.46944 0
M  V30 26054 H 2408.87 -0.996664 -3.87178 0
M  V30 26055 H 2410.31 -0.0252186 -4.23993 0
M  V30 26056 C 2408.77 1.04074 -3.20422 0
M  V30 26057 O 2409.3 2.12032 -3.41182 0
M  V30 26058 N 2407.5 0.963775 -2.74153 0
M  V30 26059 H 2407.05 0.0851269 -2.57459 0
M  V30 26060 H 2407.01 1.81409 -2.56784 0
M  V30 26061 N 2410.78 1.28995 -0.905426 0
M  V30 26062 C 2412.2 1.47797 -0.602356 0
M  V30 26063 C 2412.4 1.82479 0.854613 0
M  V30 26064 O 2411.45 1.92471 1.63435 0
M  V30 26065 C 2412.77 2.58682 -1.5331 0
M  V30 26066 C 2414.31 2.72555 -1.53892 0
M  V30 26067 C 2414.79 3.86575 -2.45609 0
M  V30 26068 N 2416.28 3.93917 -2.43688 0
M  V30 26069 C 2417.02 4.81503 -3.11356 0
M  V30 26070 N 2416.51 5.7374 -3.88323 0
M  V30 26071 N 2418.3 4.75043 -3.00484 0
M  V30 26072 H 2410.46 1.04761 -1.84767 0
M  V30 26073 H 2412.72 0.520947 -0.792034 0
M  V30 26074 H 2412.42 2.39936 -2.57145 0
M  V30 26075 H 2412.3 3.55607 -1.25793 0
M  V30 26076 H 2414.69 2.90695 -0.507992 0
M  V30 26077 H 2414.77 1.76188 -1.8545 0
M  V30 26078 H 2414.41 3.69191 -3.48799 0
M  V30 26079 H 2414.34 4.82323 -2.11358 0
M  V30 26080 H 2416.83 3.27948 -1.87772 0
M  V30 26081 H 2417.14 6.37381 -4.36996 0
M  V30 26082 H 2415.49 5.73607 -3.92429 0
M  V30 26083 H 2418.68 4.01973 -2.39865 0
M  V30 26084 H 2418.85 5.43089 -3.53494 0
M  V30 26085 N 2412.26 0.668514 1.42719 0
M  V30 26086 C 2413.68 0.337478 1.55991 0
M  V30 26087 C 2413.88 -1.15753 1.64935 0
M  V30 26088 O 2412.93 -1.9428 1.61281 0
M  V30 26089 C 2414.24 1.06227 2.81312 0
M  V30 26090 C 2415.79 1.04399 2.95076 0
M  V30 26091 C 2416.27 1.74999 4.23249 0
M  V30 26092 N 2417.76 1.71836 4.30147 0
M  V30 26093 C 2418.49 2.23324 5.28123 0
M  V30 26094 N 2417.99 2.83167 6.32288 0
M  V30 26095 N 2419.78 2.13735 5.19878 0
M  V30 26096 H 2411.93 1.63848 1.35157 0
M  V30 26097 H 2414.2 0.689923 0.650162 0
M  V30 26098 H 2413.9 2.11739 2.80819 0
M  V30 26099 H 2413.78 0.623505 3.72011 0
M  V30 26100 H 2416.16 -0.00277253 2.951 0
M  V30 26101 H 2416.24 1.52159 2.05624 0
M  V30 26102 H 2415.89 2.7964 4.23986 0
M  V30 26103 H 2415.82 1.24694 5.11624 0
M  V30 26104 H 2418.31 1.28182 3.55497 0
M  V30 26105 H 2418.62 3.20092 7.03393 0
M  V30 26106 H 2416.97 2.87234 6.32868 0
M  V30 26107 H 2420.16 1.66677 4.3742 0
M  V30 26108 H 2420.33 2.54169 5.96072 0
M  V30 26109 N 2413.74 -1.52135 0.411426 0
M  V30 26110 C 2414.96 -2.06739 -0.165502 0
M  V30 26111 C 2415.39 -1.27929 -1.37898 0
M  V30 26112 O 2414.75 -0.310146 -1.78628 0
M  V30 26113 C 2414.79 -3.57227 -0.492061 0
M  V30 26114 O 2413.9 -3.80821 -1.5827 0
M  V30 26115 H 2413.24 -0.663869 -0.0132016 0
M  V30 26116 H 2415.77 -1.9605 0.585287 0
M  V30 26117 H 2415.78 -4.01047 -0.750033 0
M  V30 26118 H 2414.45 -4.1402 0.394995 0
M  V30 26119 H 2413.03 -3.4888 -1.31671 0
M  V30 26120 N 2415.22 -0.14192 -1.5696 0
M  V30 26121 C 2416.44 0.517544 -2.00322 0
M  V30 26122 C 2416.86 1.5875 -1.02195 0
M  V30 26123 O 2416.22 1.82491 -0.018194 0
M  V30 26124 C 2416.27 1.12283 -3.4362 0
M  V30 26125 O 2415.99 0.0956159 -4.37996 0
M  V30 26126 C 2417.49 1.86339 -4.02234 0
M  V30 26127 H 2414.71 0.135166 -0.657245 0
M  V30 26128 H 2417.25 -0.235009 -2.03145 0
M  V30 26129 H 2415.41 1.82603 -3.41665 0
M  V30 26130 H 2415.82 0.538377 -5.2173 0
M  V30 26131 H 2417.3 2.23988 -5.04513 0
M  V30 26132 H 2417.77 2.74738 -3.42659 0
M  V30 26133 H 2418.38 1.2073 -4.07804 0
M  V30 26134 N 2416.69 1.57047 0.131868 0
M  V30 26135 C 2417.64 2.00362 1.18143 0
M  V30 26136 C 2418.64 0.898431 1.43613 0
M  V30 26137 O 2419.84 1.08363 1.43727 0
M  V30 26138 H 2416.22 0.638025 0.398031 0
M  V30 26139 H 2418.19 2.87766 0.789513 0
M  V30 26140 C 2416.94 2.41303 2.50336 0
M  V30 26141 H 2416.26 3.25906 2.31572 0
M  V30 26142 H 2417.7 2.7542 3.22366 0
M  V30 26143 C 2416.16 1.27158 3.11981 0
M  V30 26144 O 2416.69 0.580529 3.97483 0
M  V30 26145 N 2414.89 1.03193 2.71661 0
M  V30 26146 H 2414.44 1.59567 2.02228 0
M  V30 26147 H 2414.4 0.270132 3.13237 0
M  V30 26148 N 2418.17 -0.401677 1.52395 0
M  V30 26149 C 2419.08 -1.51441 1.79173 0
M  V30 26150 C 2420.1 -1.60259 0.67772 0
M  V30 26151 O 2421.27 -1.76834 0.96394 0
M  V30 26152 C 2418.34 -2.87103 1.94352 0
M  V30 26153 C 2417.4 -2.8811 3.18262 0
M  V30 26154 C 2416.63 -4.17302 3.32708 0
M  V30 26155 O 2416.86 -5.11593 2.52247 0
M  V30 26156 O 2415.79 -4.25316 4.25899 0
M  V30 26157 H 2419.62 -1.31747 2.73635 0
M  V30 26158 H 2417.2 -0.588272 1.37331 0
M  V30 26159 H 2419.08 -3.67552 2.06116 0
M  V30 26160 H 2417.76 -3.06849 1.03079 0
M  V30 26161 H 2416.66 -2.06489 3.11951 0
M  V30 26162 H 2418 -2.73315 4.09341 0
M  V30 26163 N 2419.65 -1.43144 -0.659362 0
M  V30 26164 C 2421.07 -1.26409 -0.974315 0
M  V30 26165 C 2421.27 -0.179376 -2.007 0
M  V30 26166 O 2420.32 0.444251 -2.48561 0
M  V30 26167 C 2421.63 -2.62631 -1.46443 0
M  V30 26168 C 2423.18 -2.70113 -1.5814 0
M  V30 26169 C 2423.66 -4.06738 -2.10543 0
M  V30 26170 N 2425.15 -4.08771 -2.17854 0
M  V30 26171 C 2425.88 -5.11314 -2.5951 0
M  V30 26172 N 2425.38 -6.24234 -3.00507 0
M  V30 26173 N 2427.17 -4.98669 -2.59395 0
M  V30 26174 H 2419.32 -2.12386 0.0240901 0
M  V30 26175 H 2421.59 -0.946584 -0.0517899 0
M  V30 26176 H 2421.29 -3.4294 -0.780063 0
M  V30 26177 H 2421.17 -2.87608 -2.44053 0
M  V30 26178 H 2423.55 -1.9014 -2.25679 0
M  V30 26179 H 2423.63 -2.48908 -0.589784 0
M  V30 26180 H 2423.28 -4.87175 -1.43608 0
M  V30 26181 H 2423.21 -4.25303 -3.10523 0
M  V30 26182 H 2425.7 -3.2726 -1.88969 0
M  V30 26183 H 2426.01 -6.98315 -3.31023 0
M  V30 26184 H 2424.36 -6.27715 -2.98326 0
M  V30 26185 H 2427.55 -4.0952 -2.2674 0
M  V30 26186 H 2427.72 -5.78714 -2.91538 0
M  V30 26187 N 2421.13 0.897149 -1.29572 0
M  V30 26188 C 2422.06 2.00352 -1.09244 0
M  V30 26189 C 2423.04 1.626 -0.00356869 0
M  V30 26190 O 2424.22 1.87864 -0.154763 0
M  V30 26191 C 2421.35 3.32136 -0.663578 0
M  V30 26192 C 2420.4 3.88875 -1.75153 0
M  V30 26193 S 2421.23 4.17668 -3.35132 0
M  V30 26194 C 2422.38 5.52489 -2.9412 0
M  V30 26195 H 2422.62 2.17289 -2.02911 0
M  V30 26196 H 2420.15 1.04406 -1.13748 0
M  V30 26197 H 2422.11 4.08316 -0.422863 0
M  V30 26198 H 2420.77 3.13075 0.253533 0
M  V30 26199 H 2419.96 4.84065 -1.40346 0
M  V30 26200 H 2419.56 3.19391 -1.9459 0
M  V30 26201 H 2421.86 6.33063 -2.41323 0
M  V30 26202 H 2422.8 5.92224 -3.88171 0
M  V30 26203 H 2423.21 5.14469 -2.32341 0
M  V30 26204 N 2422.61 1.1209 1.10786 0
M  V30 26205 C 2423.54 0.729206 2.16236 0
M  V30 26206 C 2424.52 -0.277893 1.60208 0
M  V30 26207 O 2425.7 -0.172704 1.87707 0
M  V30 26208 C 2422.83 0.0787444 3.38608 0
M  V30 26209 C 2421.87 1.05208 4.1332 0
M  V30 26210 S 2422.71 2.5779 4.69366 0
M  V30 26211 C 2423.86 1.94064 5.95055 0
M  V30 26212 H 2424.1 1.62243 2.49127 0
M  V30 26213 H 2421.63 0.939625 1.22517 0
M  V30 26214 H 2423.59 -0.290182 4.09473 0
M  V30 26215 H 2422.25 -0.79154 3.03963 0
M  V30 26216 H 2421.44 0.544521 5.0105 0
M  V30 26217 H 2421.04 1.36377 3.48249 0
M  V30 26218 H 2423.33 1.28119 6.65276 0
M  V30 26219 H 2424.28 2.79819 6.50467 0
M  V30 26220 H 2424.69 1.39797 5.46916 0
M  V30 26221 N 2424.08 -1.28513 0.912254 0
M  V30 26222 C 2425.01 -2.29756 0.416443 0
M  V30 26223 C 2425.99 -1.62111 -0.515166 0
M  V30 26224 O 2427.18 -1.89532 -0.423219 0
M  V30 26225 C 2424.31 -3.45576 -0.345659 0
M  V30 26226 C 2423.26 -4.25108 0.496674 0
M  V30 26227 C 2422.59 -5.33249 -0.393678 0
M  V30 26228 C 2423.89 -4.91998 1.75316 0
M  V30 26229 H 2425.58 -2.71478 1.26254 0
M  V30 26230 H 2423.13 -1.3051 0.608538 0
M  V30 26231 H 2425.08 -4.15489 -0.703349 0
M  V30 26232 H 2423.81 -3.0273 -1.22565 0
M  V30 26233 H 2422.47 -3.5692 0.836863 0
M  V30 26234 H 2422.11 -4.86647 -1.27217 0
M  V30 26235 H 2421.81 -5.87365 0.166312 0
M  V30 26236 H 2423.34 -6.0601 -0.747283 0
M  V30 26237 H 2424.75 -5.5428 1.46446 0
M  V30 26238 H 2423.15 -5.56102 2.25544 0
M  V30 26239 H 2424.22 -4.16573 2.48184 0
M  V30 26240 N 2425.56 -0.676073 -1.42362 0
M  V30 26241 C 2426.5 0.0516515 -2.28142 0
M  V30 26242 C 2427.47 0.807414 -1.41137 0
M  V30 26243 O 2428.66 0.802275 -1.70575 0
M  V30 26244 C 2425.78 1.08033 -3.21009 0
M  V30 26245 C 2424.83 0.420002 -4.24427 0
M  V30 26246 S 2425.66 -0.823339 -5.29133 0
M  V30 26247 C 2426.82 0.204234 -6.25567 0
M  V30 26248 H 2427.05 -0.675935 -2.89514 0
M  V30 26249 H 2424.59 -0.465661 -1.47211 0
M  V30 26250 H 2426.54 1.66874 -3.75051 0
M  V30 26251 H 2425.2 1.78037 -2.58769 0
M  V30 26252 H 2424.4 1.19624 -4.89598 0
M  V30 26253 H 2424 -0.0948502 -3.7388 0
M  V30 26254 H 2426.29 1.06357 -6.691 0
M  V30 26255 H 2427.23 -0.413039 -7.06894 0
M  V30 26256 H 2427.64 0.550281 -5.61811 0
M  V30 26257 N 2427.04 1.51915 -0.419488 0
M  V30 26258 C 2428.29 2.02221 0.15313 0
M  V30 26259 C 2428.62 1.30403 1.43905 0
M  V30 26260 O 2427.89 0.413472 1.90054 0
M  V30 26261 C 2428.18 3.57979 0.390228 0
M  V30 26262 C 2428.03 4.40435 -0.913091 0
M  V30 26263 C 2429.35 4.24322 1.16786 0
M  V30 26264 H 2426.47 0.735006 0.0541795 0
M  V30 26265 H 2429.11 1.81714 -0.554987 0
M  V30 26266 H 2427.26 3.75584 0.993425 0
M  V30 26267 H 2428.93 4.34519 -1.5489 0
M  V30 26268 H 2427.18 4.06233 -1.52175 0
M  V30 26269 H 2427.85 5.47525 -0.701457 0
M  V30 26270 H 2430.32 4.10879 0.657089 0
M  V30 26271 H 2429.2 5.33222 1.30251 0
M  V30 26272 H 2429.46 3.83974 2.19126 0
M  V30 26273 N 2428.52 0.150242 1.56882 0
M  V30 26274 C 2429.47 -0.805274 2.18216 0
M  V30 26275 C 2430.46 -1.25294 1.14008 0
M  V30 26276 O 2431.67 -1.22104 1.32252 0
M  V30 26277 H 2428.04 -0.277901 0.698767 0
M  V30 26278 H 2430.01 -0.26381 2.97232 0
M  V30 26279 C 2428.76 -2.03304 2.82069 0
M  V30 26280 H 2428.08 -1.69756 3.61971 0
M  V30 26281 H 2429.52 -2.68097 3.28481 0
M  V30 26282 C 2427.98 -2.84312 1.80744 0
M  V30 26283 O 2428.51 -3.80764 1.27989 0
M  V30 26284 N 2426.72 -2.4891 1.49974 0
M  V30 26285 H 2426.27 -1.70539 1.93065 0
M  V30 26286 H 2426.22 -3.03403 0.82427 0
M  V30 26287 N 2430 -1.57115 -0.123538 0
M  V30 26288 C 2430.94 -2.00986 -1.17078 0
M  V30 26289 C 2431.94 -0.906034 -1.43134 0
M  V30 26290 O 2433.14 -1.09124 -1.4315 0
M  V30 26291 H 2429.52 -0.640127 -0.394641 0
M  V30 26292 H 2431.49 -2.88181 -0.774241 0
M  V30 26293 C 2430.24 -2.42627 -2.49053 0
M  V30 26294 H 2429.56 -3.27129 -2.2984 0
M  V30 26295 H 2431 -2.77126 -3.20901 0
M  V30 26296 C 2429.46 -1.28811 -3.11303 0
M  V30 26297 O 2429.99 -0.6016 -3.9717 0
M  V30 26298 N 2428.2 -1.04633 -2.7111 0
M  V30 26299 H 2427.74 -1.60637 -2.01379 0
M  V30 26300 H 2427.7 -0.28674 -3.1309 0
M  V30 26301 N 2431.47 0.393589 -1.52606 0
M  V30 26302 C 2432.38 1.50489 -1.79973 0
M  V30 26303 C 2433.4 1.59897 -0.686209 0
M  V30 26304 O 2434.58 1.7632 -0.973305 0
M  V30 26305 C 2431.64 2.86068 -1.95872 0
M  V30 26306 C 2430.7 2.86419 -3.19786 0
M  V30 26307 C 2429.94 4.15532 -3.34916 0
M  V30 26308 O 2430.16 5.10248 -2.54957 0
M  V30 26309 O 2429.09 4.23052 -4.28148 0
M  V30 26310 H 2432.92 1.30294 -2.7433 0
M  V30 26311 H 2430.5 0.58098 -1.37641 0
M  V30 26312 H 2432.39 3.66453 -2.08062 0
M  V30 26313 H 2431.06 3.06298 -1.04704 0
M  V30 26314 H 2429.97 2.04831 -3.13041 0
M  V30 26315 H 2431.3 2.7114 -4.10784 0
M  V30 26316 N 2432.95 1.43492 0.651762 0
M  V30 26317 C 2433.9 1.48763 1.7646 0
M  V30 26318 C 2434.87 0.337217 1.62641 0
M  V30 26319 O 2436.05 0.544576 1.82863 0
M  V30 26320 C 2433.19 1.41802 3.14621 0
M  V30 26321 C 2432.31 2.67059 3.39563 0
M  V30 26322 C 2431.44 2.52076 4.6758 0
M  V30 26323 C 2430.48 3.72595 4.85633 0
M  V30 26324 N 2429.62 3.56413 6.04908 0
M  V30 26325 H 2434.46 2.43852 1.71289 0
M  V30 26326 H 2432 1.21044 0.835868 0
M  V30 26327 H 2433.95 1.3576 3.94494 0
M  V30 26328 H 2432.58 0.502936 3.18858 0
M  V30 26329 H 2431.64 2.83374 2.53778 0
M  V30 26330 H 2432.95 3.56578 3.48788 0
M  V30 26331 H 2432.1 2.4375 5.55582 0
M  V30 26332 H 2430.84 1.60084 4.60678 0
M  V30 26333 H 2429.85 3.81328 3.96067 0
M  V30 26334 H 2431.07 4.65598 4.94364 0
M  V30 26335 H 2429.02 2.67156 5.99136 0
M  V30 26336 H 2428.93 4.39534 6.15098 0
M  V30 26337 H 2430.2 3.51941 6.95527 0
M  V30 26338 N 2434.43 -0.890264 1.30046 0
M  V30 26339 C 2435.34 -2.02829 1.17889 0
M  V30 26340 C 2436.36 -1.73712 0.0999915 0
M  V30 26341 O 2437.53 -1.98939 0.313902 0
M  V30 26342 C 2434.6 -3.35707 0.866138 0
M  V30 26343 C 2433.66 -3.7828 2.02985 0
M  V30 26344 C 2432.89 -5.04817 1.73193 0
M  V30 26345 O 2433.11 -5.666 0.657337 0
M  V30 26346 O 2432.05 -5.4367 2.58276 0
M  V30 26347 H 2435.87 -2.16012 2.13478 0
M  V30 26348 H 2433.46 -1.01541 1.09589 0
M  V30 26349 H 2435.34 -4.15432 0.706696 0
M  V30 26350 H 2434.02 -3.23645 -0.0598874 0
M  V30 26351 H 2432.92 -2.99281 2.24459 0
M  V30 26352 H 2434.26 -3.94939 2.93741 0
M  V30 26353 N 2435.91 -1.12676 -1.1019 0
M  V30 26354 C 2437.13 -0.906886 -1.86522 0
M  V30 26355 C 2437.56 0.538679 -1.80222 0
M  V30 26356 O 2436.92 1.38156 -1.17399 0
M  V30 26357 C 2436.96 -1.38946 -3.32756 0
M  V30 26358 O 2436.07 -0.569572 -4.08448 0
M  V30 26359 H 2435.41 -0.325629 -0.578672 0
M  V30 26360 H 2437.94 -1.49948 -1.392 0
M  V30 26361 H 2437.95 -1.38965 -3.83605 0
M  V30 26362 H 2436.62 -2.44203 -3.36657 0
M  V30 26363 H 2435.2 -0.636593 -3.67426 0
M  V30 26364 N 2437.39 1.28028 -0.919057 0
M  V30 26365 C 2438.33 2.29103 -0.401793 0
M  V30 26366 C 2439.33 1.61562 0.509326 0
M  V30 26367 O 2440.53 1.75725 0.389983 0
M  V30 26368 H 2436.91 0.743711 -0.111344 0
M  V30 26369 H 2438.88 2.70154 -1.26725 0
M  V30 26370 C 2437.63 3.46052 0.338088 0
M  V30 26371 H 2436.95 3.98231 -0.353802 0
M  V30 26372 H 2438.39 4.18759 0.664579 0
M  V30 26373 C 2436.85 2.99234 1.54793 0
M  V30 26374 O 2437.38 3.02162 2.6469 0
M  V30 26375 N 2435.59 2.54832 1.39675 0
M  V30 26376 H 2435.13 2.52648 0.502653 0
M  V30 26377 H 2435.09 2.23867 2.20751 0
M  V30 26378 N 2438.86 0.683613 1.42002 0
M  V30 26379 C 2439.81 -0.0121591 2.27997 0
M  V30 26380 C 2440.8 -0.764797 1.41562 0
M  V30 26381 O 2441.99 -0.642258 1.64936 0
M  V30 26382 C 2439.12 -0.956424 3.29708 0
M  V30 26383 C 2438.21 -0.200664 4.23625 0
M  V30 26384 N 2438.6 0.799175 4.99447 0
M  V30 26385 C 2436.89 -0.437859 4.43845 0
M  V30 26386 C 2437.6 1.25051 5.68099 0
M  V30 26387 N 2436.57 0.578743 5.4051 0
M  V30 26388 H 2440.37 0.754614 2.84047 0
M  V30 26389 H 2437.89 0.513425 1.5407 0
M  V30 26390 H 2439.88 -1.46993 3.90126 0
M  V30 26391 H 2438.54 -1.72293 2.75219 0
M  V30 26392 H 2439.56 1.17902 5.04301 0
M  V30 26393 H 2436.23 -1.18318 4.00384 0
M  V30 26394 H 2437.62 2.07953 6.38909 0
M  V30 26395 N 2440.34 -1.5169 0.427538 0
M  V30 26396 C 2441.25 -2.31247 -0.395229 0
M  V30 26397 C 2442.27 -1.39744 -1.03671 0
M  V30 26398 O 2443.45 -1.72817 -1.03422 0
M  V30 26399 C 2440.51 -3.13192 -1.487 0
M  V30 26400 C 2439.57 -4.20461 -0.866669 0
M  V30 26401 C 2438.8 -4.98489 -1.90642 0
M  V30 26402 O 2439.03 -4.77032 -3.12725 0
M  V30 26403 O 2437.96 -5.82848 -1.5024 0
M  V30 26404 H 2441.79 -3.02636 0.253971 0
M  V30 26405 H 2439.37 -1.48183 0.1903 0
M  V30 26406 H 2441.25 -3.64166 -2.12041 0
M  V30 26407 H 2439.93 -2.44577 -2.12047 0
M  V30 26408 H 2438.84 -3.73589 -0.195478 0
M  V30 26409 H 2440.17 -4.91421 -0.276848 0
M  V30 26410 N 2441.82 -0.15856 -1.568 0
M  V30 26411 C 2442.77 0.776691 -2.17339 0
M  V30 26412 C 2443.74 1.23599 -1.10962 0
M  V30 26413 O 2444.92 1.30645 -1.39056 0
M  V30 26414 C 2442.06 2.00577 -2.80825 0
M  V30 26415 C 2441.18 1.59122 -4.01627 0
M  V30 26416 C 2440.31 2.77298 -4.53077 0
M  V30 26417 C 2439.35 2.32272 -5.66318 0
M  V30 26418 N 2438.49 3.43497 -6.12335 0
M  V30 26419 H 2443.33 0.253649 -2.96919 0
M  V30 26420 H 2440.86 0.113478 -1.46662 0
M  V30 26421 H 2442.82 2.72647 -3.15784 0
M  V30 26422 H 2441.45 2.50273 -2.03871 0
M  V30 26423 H 2440.5 0.76774 -3.72572 0
M  V30 26424 H 2441.82 1.22061 -4.83635 0
M  V30 26425 H 2440.97 3.57542 -4.90152 0
M  V30 26426 H 2439.71 3.17611 -3.70101 0
M  V30 26427 H 2438.71 1.50471 -5.28809 0
M  V30 26428 H 2439.94 1.93032 -6.51088 0
M  V30 26429 H 2437.89 3.83409 -5.32291 0
M  V30 26430 H 2437.8 3.10488 -6.89299 0
M  V30 26431 H 2439.07 4.24063 -6.54057 0
M  V30 26432 N 2443.3 1.57178 0.115204 0
M  V30 26433 C 2444.55 1.84686 0.820694 0
M  V30 26434 C 2444.87 0.74431 1.80236 0
M  V30 26435 O 2444.14 -0.231341 1.94529 0
M  V30 26436 H 2442.72 0.681417 0.306072 0
M  V30 26437 H 2445.38 1.94635 0.101622 0
M  V30 26438 H 2444.48 2.80735 1.36361 0
M  V30 26439 N 2444.78 -0.38549 1.52813 0
M  V30 26440 C 2445.73 -1.47075 1.74221 0
M  V30 26441 C 2446.71 -1.49441 0.596346 0
M  V30 26442 O 2447.9 -1.55018 0.854307 0
M  V30 26443 C 2445.03 -2.84747 1.91765 0
M  V30 26444 C 2444.12 -2.86937 3.12294 0
M  V30 26445 N 2444.51 -2.58794 4.34579 0
M  V30 26446 C 2442.81 -3.18104 3.12611 0
M  V30 26447 C 2443.51 -2.68156 5.16204 0
M  V30 26448 N 2442.48 -3.02035 4.51969 0
M  V30 26449 H 2446.29 -1.24148 2.66392 0
M  V30 26450 H 2443.8 -0.593478 1.51167 0
M  V30 26451 H 2445.8 -3.62889 2.05225 0
M  V30 26452 H 2444.46 -3.08654 1.0081 0
M  V30 26453 H 2445.47 -2.32751 4.62653 0
M  V30 26454 H 2442.15 -3.47454 2.31478 0
M  V30 26455 H 2443.54 -2.49912 6.23693 0
M  V30 26456 N 2446.26 -1.43835 -0.644143 0
M  V30 26457 C 2447.67 -1.27435 -0.960853 0
M  V30 26458 C 2447.87 -0.200653 -2.00498 0
M  V30 26459 O 2446.93 0.417863 -2.49018 0
M  V30 26460 C 2448.24 -2.64169 -1.43649 0
M  V30 26461 C 2449.79 -2.71775 -1.55266 0
M  V30 26462 C 2450.26 -4.08948 -2.06217 0
M  V30 26463 N 2451.75 -4.11059 -2.13506 0
M  V30 26464 C 2452.49 -5.14038 -2.54072 0
M  V30 26465 N 2451.99 -6.27386 -2.93869 0
M  V30 26466 N 2453.78 -5.01392 -2.54092 0
M  V30 26467 H 2445.93 -2.12349 0.0466152 0
M  V30 26468 H 2448.19 -0.94708 -0.0417472 0
M  V30 26469 H 2447.9 -3.43748 -0.743646 0
M  V30 26470 H 2447.77 -2.9018 -2.40988 0
M  V30 26471 H 2450.16 -1.92523 -2.23649 0
M  V30 26472 H 2450.24 -2.4952 -0.563351 0
M  V30 26473 H 2449.88 -4.8867 -1.38433 0
M  V30 26474 H 2449.81 -4.28573 -3.05995 0
M  V30 26475 H 2452.31 -3.29246 -1.85488 0
M  V30 26476 H 2452.62 -7.01786 -3.23598 0
M  V30 26477 H 2450.96 -6.30844 -2.91651 0
M  V30 26478 H 2454.15 -4.11902 -2.22383 0
M  V30 26479 H 2454.33 -5.81773 -2.85383 0
M  V30 26480 N 2447.73 0.883355 -1.30517 0
M  V30 26481 C 2449.15 1.1669 -1.08883 0
M  V30 26482 C 2449.35 2.00946 0.149373 0
M  V30 26483 O 2448.41 2.38029 0.842528 0
M  V30 26484 C 2449.72 1.872 -2.35322 0
M  V30 26485 C 2451.27 1.99958 -2.40802 0
M  V30 26486 C 2451.74 2.73881 -3.67088 0
M  V30 26487 N 2453.23 2.81425 -3.67905 0
M  V30 26488 C 2453.97 3.39202 -4.62309 0
M  V30 26489 N 2453.46 3.98015 -5.67059 0
M  V30 26490 N 2455.26 3.37032 -4.49851 0
M  V30 26491 H 2447.41 0.321596 -2.09951 0
M  V30 26492 H 2449.67 0.205026 -0.925564 0
M  V30 26493 H 2449.38 1.32734 -3.25691 0
M  V30 26494 H 2449.25 2.87573 -2.44094 0
M  V30 26495 H 2451.64 2.53594 -1.50911 0
M  V30 26496 H 2451.72 0.986688 -2.36004 0
M  V30 26497 H 2451.36 2.20917 -4.57338 0
M  V30 26498 H 2451.29 3.7555 -3.69148 0
M  V30 26499 H 2453.78 2.39671 -2.92175 0
M  V30 26500 H 2454.1 4.40172 -6.35192 0
M  V30 26501 H 2452.44 3.96429 -5.70849 0
M  V30 26502 H 2455.63 2.90315 -3.67199 0
M  V30 26503 H 2455.81 3.81763 -5.23604 0
M  V30 26504 N 2449.21 1.13259 1.09591 0
M  V30 26505 C 2450.16 0.803821 2.18269 0
M  V30 26506 C 2451.15 -0.213119 1.68054 0
M  V30 26507 O 2452.36 -0.0704383 1.79862 0
M  V30 26508 H 2448.73 0.242156 0.711944 0
M  V30 26509 H 2450.71 1.7286 2.43232 0
M  V30 26510 C 2449.45 0.284301 3.46536 0
M  V30 26511 H 2448.78 1.05813 3.85543 0
M  V30 26512 H 2450.22 0.092669 4.23899 0
M  V30 26513 C 2448.68 -0.989627 3.22037 0
M  V30 26514 O 2449.21 -2.06577 3.44512 0
M  V30 26515 N 2447.41 -0.920038 2.75651 0
M  V30 26516 H 2446.96 -0.0441566 2.57562 0
M  V30 26517 H 2446.92 -1.77301 2.59638 0
M  V30 26518 N 2450.69 -1.27539 0.925834 0
M  V30 26519 C 2451.94 -1.94066 0.564172 0
M  V30 26520 C 2452.26 -1.73136 -0.897157 0
M  V30 26521 O 2451.53 -1.07802 -1.63571 0
M  V30 26522 H 2450.11 -0.718132 0.205658 0
M  V30 26523 H 2452.77 -1.55285 1.17782 0
M  V30 26524 H 2451.87 -3.02481 0.768863 0
M  V30 26525 N 2452.17 -0.691135 -1.41637 0
M  V30 26526 C 2453.1 -0.037289 -2.3347 0
M  V30 26527 C 2454.08 0.771921 -1.51576 0
M  V30 26528 O 2455.26 0.725788 -1.80128 0
M  V30 26529 C 2452.39 0.903005 -3.35355 0
M  V30 26530 C 2451.35 0.201213 -4.27527 0
M  V30 26531 C 2450.67 1.25556 -5.1975 0
M  V30 26532 C 2451.97 -0.92978 -5.13958 0
M  V30 26533 H 2453.67 -0.804278 -2.88395 0
M  V30 26534 H 2451.21 -0.388214 -1.38668 0
M  V30 26535 H 2453.17 1.36962 -3.98521 0
M  V30 26536 H 2451.89 1.70161 -2.7877 0
M  V30 26537 H 2450.55 -0.24533 -3.65778 0
M  V30 26538 H 2450.2 2.04658 -4.59483 0
M  V30 26539 H 2449.9 0.791026 -5.82251 0
M  V30 26540 H 2451.42 1.72278 -5.85792 0
M  V30 26541 H 2452.84 -0.543647 -5.70717 0
M  V30 26542 H 2451.23 -1.32113 -5.85377 0
M  V30 26543 H 2452.3 -1.77141 -4.51386 0
M  V30 26544 N 2453.65 1.51461 -0.435577 0
M  V30 26545 C 2454.59 2.29287 0.391164 0
M  V30 26546 C 2455.59 1.35064 1.02245 0
M  V30 26547 O 2456.79 1.52413 0.957619 0
M  V30 26548 H 2453.17 0.737897 0.144955 0
M  V30 26549 H 2455.14 2.97025 -0.286103 0
M  V30 26550 C 2453.89 3.14586 1.48091 0
M  V30 26551 H 2453.21 3.86975 1.0045 0
M  V30 26552 H 2454.65 3.721 2.03267 0
M  V30 26553 C 2453.11 2.29847 2.46317 0
M  V30 26554 O 2453.64 1.95688 3.50812 0
M  V30 26555 N 2451.85 1.93103 2.17162 0
M  V30 26556 H 2451.39 2.21082 1.32215 0
M  V30 26557 H 2451.35 1.36703 2.83125 0
M  V30 26558 N 2455.12 0.166873 1.56714 0
M  V30 26559 C 2456.07 -0.765154 2.17748 0
M  V30 26560 C 2457.04 -1.23009 1.11616 0
M  V30 26561 O 2458.23 -1.29905 1.39747 0
M  V30 26562 C 2455.37 -1.99085 2.81885 0
M  V30 26563 C 2454.48 -1.5699 4.02465 0
M  V30 26564 C 2453.61 -2.74892 4.54542 0
M  V30 26565 C 2452.65 -2.29265 5.67542 0
M  V30 26566 N 2451.79 -3.40245 6.14148 0
M  V30 26567 H 2456.63 -0.237899 2.97049 0
M  V30 26568 H 2454.17 -0.105699 1.4672 0
M  V30 26569 H 2456.13 -2.70968 3.17225 0
M  V30 26570 H 2454.76 -2.49188 2.05195 0
M  V30 26571 H 2453.81 -0.747971 3.72974 0
M  V30 26572 H 2455.12 -1.19495 4.84275 0
M  V30 26573 H 2454.27 -3.54938 4.92041 0
M  V30 26574 H 2453.01 -3.15644 3.7178 0
M  V30 26575 H 2452.02 -1.47664 5.29599 0
M  V30 26576 H 2453.24 -1.89576 6.52103 0
M  V30 26577 H 2451.19 -3.80581 5.34317 0
M  V30 26578 H 2451.11 -3.06828 6.90936 0
M  V30 26579 H 2452.37 -4.20589 6.56297 0
M  V30 26580 N 2456.6 -1.57237 -0.106866 0
M  V30 26581 C 2457.55 -2.01219 -1.13046 0
M  V30 26582 C 2458.52 -0.886428 -1.40469 0
M  V30 26583 O 2459.7 -1.15156 -1.52131 0
M  V30 26584 C 2456.84 -2.43176 -2.44866 0
M  V30 26585 C 2455.96 -3.69222 -2.24275 0
M  V30 26586 C 2455.09 -4.00108 -3.4941 0
M  V30 26587 C 2454.13 -5.19299 -3.24029 0
M  V30 26588 N 2453.27 -5.45995 -4.414 0
M  V30 26589 H 2458.11 -2.88449 -0.748406 0
M  V30 26590 H 2455.65 -1.42676 -0.358029 0
M  V30 26591 H 2457.6 -2.65543 -3.21781 0
M  V30 26592 H 2456.23 -1.58972 -2.80941 0
M  V30 26593 H 2455.29 -3.54401 -1.38218 0
M  V30 26594 H 2456.6 -4.56287 -2.01504 0
M  V30 26595 H 2455.75 -4.23188 -4.34738 0
M  V30 26596 H 2454.49 -3.11542 -3.75224 0
M  V30 26597 H 2453.5 -4.96051 -2.37093 0
M  V30 26598 H 2454.72 -6.09453 -2.99573 0
M  V30 26599 H 2452.67 -4.60388 -4.67311 0
M  V30 26600 H 2452.58 -6.27407 -4.21777 0
M  V30 26601 H 2453.85 -5.73603 -5.27826 0
M  V30 26602 N 2458.08 0.377381 -1.53015 0
M  V30 26603 C 2459.03 1.48203 -1.79273 0
M  V30 26604 C 2460.02 1.55962 -0.661222 0
M  V30 26605 O 2461.23 1.5899 -0.843936 0
M  V30 26606 H 2457.6 0.493481 -0.567433 0
M  V30 26607 H 2459.57 1.23255 -2.71755 0
M  V30 26608 C 2458.32 2.85192 -1.98899 0
M  V30 26609 H 2457.65 2.79976 -2.854 0
M  V30 26610 H 2459.09 3.61694 -2.21255 0
M  V30 26611 C 2457.55 3.28105 -0.764749 0
M  V30 26612 O 2458.08 4.01666 0.052252 0
M  V30 26613 N 2456.28 2.84516 -0.591543 0
M  V30 26614 H 2455.83 2.2482 -1.25753 0
M  V30 26615 H 2455.79 3.13585 0.226198 0
M  V30 26616 N 2459.56 1.44175 0.636506 0
M  V30 26617 C 2460.51 1.50627 1.74872 0
M  V30 26618 C 2461.48 0.354448 1.62274 0
M  V30 26619 O 2462.66 0.56394 1.82275 0
M  V30 26620 C 2459.8 1.45131 3.13099 0
M  V30 26621 C 2458.91 2.70646 3.36712 0
M  V30 26622 C 2458.05 2.57021 4.6488 0
M  V30 26623 C 2457.09 3.77725 4.81654 0
M  V30 26624 N 2456.22 3.62809 6.01094 0
M  V30 26625 H 2461.06 2.45655 1.68693 0
M  V30 26626 H 2458.6 1.21924 0.822983 0
M  V30 26627 H 2460.56 1.39936 3.93031 0
M  V30 26628 H 2459.19 0.536727 3.18307 0
M  V30 26629 H 2458.24 2.8605 2.50758 0
M  V30 26630 H 2459.55 3.60258 3.44987 0
M  V30 26631 H 2458.71 2.49629 5.52965 0
M  V30 26632 H 2457.45 1.64961 4.58955 0
M  V30 26633 H 2456.45 3.85508 3.92 0
M  V30 26634 H 2457.68 4.70815 4.89397 0
M  V30 26635 H 2455.62 2.73496 5.96268 0
M  V30 26636 H 2455.54 4.46034 6.10402 0
M  V30 26637 H 2456.81 3.59299 6.91755 0
M  V30 26638 N 2461.04 -0.876421 1.30983 0
M  V30 26639 C 2461.95 -2.01567 1.20033 0
M  V30 26640 C 2462.96 -1.73597 0.11841 0
M  V30 26641 O 2464.14 -1.98595 0.334984 0
M  V30 26642 C 2461.2 -3.34769 0.901696 0
M  V30 26643 C 2460.26 -3.76105 2.06986 0
M  V30 26644 C 2459.5 -5.02951 1.78538 0
M  V30 26645 O 2459.72 -5.65871 0.717396 0
M  V30 26646 O 2458.65 -5.409 2.64028 0
M  V30 26647 H 2462.48 -2.13735 2.15757 0
M  V30 26648 H 2460.07 -1.00373 1.1066 0
M  V30 26649 H 2461.95 -4.14659 0.750718 0
M  V30 26650 H 2460.62 -3.2369 -0.0255572 0
M  V30 26651 H 2459.53 -2.96883 2.27621 0
M  V30 26652 H 2460.86 -3.91801 2.97914 0
M  V30 26653 N 2462.51 -1.13839 -1.08989 0
M  V30 26654 C 2463.46 -0.819873 -2.15747 0
M  V30 26655 C 2464.43 0.219997 -1.64637 0
M  V30 26656 O 2465.62 0.0912422 -1.90582 0
M  V30 26657 C 2462.76 -0.296973 -3.4382 0
M  V30 26658 C 2461.87 -1.39644 -4.08808 0
M  V30 26659 C 2461 -0.831406 -5.24653 0
M  V30 26660 C 2460.04 -1.90896 -5.81571 0
M  V30 26661 N 2459.18 -1.36154 -6.88772 0
M  V30 26662 H 2464.02 -1.7343 -2.42335 0
M  V30 26663 H 2461.56 -0.865634 -1.18934 0
M  V30 26664 H 2463.52 0.0243606 -4.17193 0
M  V30 26665 H 2462.15 0.580572 -3.17536 0
M  V30 26666 H 2461.2 -1.83428 -3.33254 0
M  V30 26667 H 2462.51 -2.21066 -4.47137 0
M  V30 26668 H 2461.66 -0.461622 -6.04941 0
M  V30 26669 H 2460.4 0.0138463 -4.87698 0
M  V30 26670 H 2459.41 -2.28776 -4.99942 0
M  V30 26671 H 2460.63 -2.75769 -6.20587 0
M  V30 26672 H 2458.58 -0.538369 -6.53787 0
M  V30 26673 H 2458.5 -2.1122 -7.25894 0
M  V30 26674 H 2459.76 -1.01947 -7.72805 0
M  V30 26675 N 2463.99 1.27046 -0.932584 0
M  V30 26676 C 2464.94 2.28664 -0.42607 0
M  V30 26677 C 2465.93 1.62093 0.492161 0
M  V30 26678 O 2467.14 1.76128 0.371324 0
M  V30 26679 H 2463.52 0.742488 -0.119226 0
M  V30 26680 H 2465.49 2.68795 -1.29583 0
M  V30 26681 C 2464.24 3.46392 0.301365 0
M  V30 26682 H 2463.56 3.97834 -0.39602 0
M  V30 26683 H 2465 4.19441 0.620127 0
M  V30 26684 C 2463.46 3.00859 1.5161 0
M  V30 26685 O 2463.99 3.04952 2.61471 0
M  V30 26686 N 2462.19 2.56299 1.36965 0
M  V30 26687 H 2461.74 2.53167 0.475828 0
M  V30 26688 H 2461.7 2.26196 2.18364 0
M  V30 26689 N 2465.47 0.698636 1.41269 0
M  V30 26690 C 2466.4 -0.0153496 2.28195 0
M  V30 26691 C 2467.38 -0.784858 1.42403 0
M  V30 26692 O 2468.57 -0.775037 1.7183 0
M  V30 26693 C 2465.69 -1.02912 3.22687 0
M  V30 26694 C 2464.74 -0.352426 4.25041 0
M  V30 26695 S 2465.57 0.907415 5.27756 0
M  V30 26696 C 2466.73 -0.104686 6.25812 0
M  V30 26697 H 2466.96 0.721909 2.88402 0
M  V30 26698 H 2464.49 0.489022 1.46451 0
M  V30 26699 H 2466.45 -1.60886 3.77658 0
M  V30 26700 H 2465.11 -1.73898 2.61569 0
M  V30 26701 H 2464.31 -1.1182 4.91439 0
M  V30 26702 H 2463.91 0.154319 3.73681 0
M  V30 26703 H 2466.2 -0.956985 6.70707 0
M  V30 26704 H 2467.14 0.525448 7.06148 0
M  V30 26705 H 2467.55 -0.460832 5.62616 0
M  V30 26706 N 2466.95 -1.51228 0.443603 0
M  V30 26707 C 2467.86 -2.31653 -0.37068 0
M  V30 26708 C 2468.87 -1.40835 -1.02183 0
M  V30 26709 O 2470.05 -1.73905 -1.01583 0
M  V30 26710 C 2467.12 -3.14751 -1.4537 0
M  V30 26711 C 2466.18 -4.21356 -0.822025 0
M  V30 26712 C 2465.41 -5.00483 -1.85344 0
M  V30 26713 O 2465.63 -4.80322 -3.07648 0
M  V30 26714 O 2464.57 -5.84409 -1.44049 0
M  V30 26715 H 2468.39 -3.0235 0.286055 0
M  V30 26716 H 2465.98 -1.47973 0.206006 0
M  V30 26717 H 2467.86 -3.66394 -2.08166 0
M  V30 26718 H 2466.53 -2.46812 -2.09441 0
M  V30 26719 H 2465.44 -3.73775 -0.155843 0
M  V30 26720 H 2466.77 -4.91687 -0.22471 0
M  V30 26721 N 2468.43 -0.175182 -1.56623 0
M  V30 26722 C 2469.37 0.753596 -2.1815 0
M  V30 26723 C 2470.34 1.22415 -1.12267 0
M  V30 26724 O 2471.53 1.29162 -1.40434 0
M  V30 26725 C 2468.67 1.97587 -2.82937 0
M  V30 26726 C 2467.78 1.54853 -4.03292 0
M  V30 26727 C 2466.92 2.72477 -4.55993 0
M  V30 26728 C 2465.96 2.26252 -5.6875 0
M  V30 26729 N 2465.09 3.36983 -6.15944 0
M  V30 26730 H 2469.93 0.222143 -2.97171 0
M  V30 26731 H 2467.47 0.0979164 -1.46774 0
M  V30 26732 H 2469.43 2.69282 -3.18658 0
M  V30 26733 H 2468.06 2.48097 -2.06514 0
M  V30 26734 H 2467.11 0.728181 -3.73365 0
M  V30 26735 H 2468.42 1.16925 -4.84902 0
M  V30 26736 H 2467.58 3.52323 -4.93916 0
M  V30 26737 H 2466.31 3.13668 -3.73449 0
M  V30 26738 H 2465.32 1.44854 -5.30375 0
M  V30 26739 H 2466.54 1.86115 -6.53099 0
M  V30 26740 H 2464.49 3.77742 -5.36328 0
M  V30 26741 H 2464.41 3.0316 -6.92553 0
M  V30 26742 H 2465.68 4.17102 -6.58518 0
M  V30 26743 N 2469.91 1.57292 0.0985263 0
M  V30 26744 C 2470.85 2.02823 1.13866 0
M  V30 26745 C 2471.85 0.928691 1.41675 0
M  V30 26746 O 2473.05 1.11387 1.41396 0
M  V30 26747 H 2469.43 0.646324 0.384408 0
M  V30 26748 H 2471.4 2.89376 0.728296 0
M  V30 26749 C 2470.15 2.46558 2.45162 0
M  V30 26750 H 2469.47 3.30744 2.24607 0
M  V30 26751 H 2470.91 2.82196 3.16451 0
M  V30 26752 C 2469.37 1.33747 3.09214 0
M  V30 26753 O 2469.9 0.66471 3.96162 0
M  V30 26754 N 2468.11 1.08932 2.69411 0
M  V30 26755 H 2467.65 1.63821 1.98798 0
M  V30 26756 H 2467.61 0.336513 3.12594 0
M  V30 26757 N 2471.38 -0.369261 1.53213 0
M  V30 26758 C 2472.33 -1.45215 1.79391 0
M  V30 26759 C 2473.3 -1.53355 0.638086 0
M  V30 26760 O 2474.49 -1.69301 0.879882 0
M  V30 26761 C 2471.63 -2.82208 1.98628 0
M  V30 26762 C 2470.74 -2.83064 3.26342 0
M  V30 26763 C 2469.87 -4.11608 3.35786 0
M  V30 26764 C 2468.91 -4.06593 4.57547 0
M  V30 26765 N 2468.05 -5.26779 4.64164 0
M  V30 26766 H 2472.89 -1.22193 2.71796 0
M  V30 26767 H 2470.43 -0.592421 1.34643 0
M  V30 26768 H 2472.38 -3.61785 2.07767 0
M  V30 26769 H 2471.01 -3.03638 1.09563 0
M  V30 26770 H 2470.07 -1.95741 3.26174 0
M  V30 26771 H 2471.38 -2.7523 4.15993 0
M  V30 26772 H 2470.53 -4.996 3.44217 0
M  V30 26773 H 2469.27 -4.22191 2.44144 0
M  V30 26774 H 2468.28 -3.16988 4.4922 0
M  V30 26775 H 2469.5 -3.97615 5.50526 0
M  V30 26776 H 2467.45 -5.37954 3.75422 0
M  V30 26777 H 2467.36 -5.21099 5.47715 0
M  V30 26778 H 2468.63 -6.16613 4.76874 0
M  V30 26779 N 2472.86 -1.4451 -0.628851 0
M  V30 26780 C 2474.11 -1.47122 -1.38562 0
M  V30 26781 C 2474.43 -0.105933 -1.94712 0
M  V30 26782 O 2473.7 0.862048 -1.75913 0
M  V30 26783 H 2472.28 -0.541738 -0.514324 0
M  V30 26784 H 2474.94 -1.80306 -0.739986 0
M  V30 26785 H 2474.04 -2.19793 -2.21579 0
M  V30 26786 N 2474.34 0.869463 -1.31446 0
M  V30 26787 C 2475.29 1.97673 -1.19139 0
M  V30 26788 C 2476.26 1.65921 -0.0770558 0
M  V30 26789 O 2477.44 1.89155 -0.250005 0
M  V30 26790 C 2474.58 3.33017 -0.905207 0
M  V30 26791 C 2473.69 3.77361 -2.10292 0
M  V30 26792 C 2472.83 5.01424 -1.75348 0
M  V30 26793 C 2471.87 5.38219 -2.91525 0
M  V30 26794 N 2471.01 6.53462 -2.56773 0
M  V30 26795 H 2475.85 2.07531 -2.13857 0
M  V30 26796 H 2473.38 1.01595 -1.06381 0
M  V30 26797 H 2475.34 4.10943 -0.719837 0
M  V30 26798 H 2473.97 3.228 0.0051395 0
M  V30 26799 H 2473.02 2.95212 -2.39904 0
M  V30 26800 H 2474.33 4.00559 -2.97244 0
M  V30 26801 H 2473.49 5.87019 -1.53277 0
M  V30 26802 H 2472.23 4.80131 -0.855886 0
M  V30 26803 H 2471.23 4.51143 -3.14245 0
M  V30 26804 H 2472.46 5.61477 -3.81995 0
M  V30 26805 H 2470.4 6.33714 -1.69537 0
M  V30 26806 H 2470.32 6.76606 -3.37255 0
M  V30 26807 H 2471.59 7.42247 -2.38096 0
M  V30 26808 N 2475.82 1.14415 1.08383 0
M  V30 26809 C 2476.77 0.826926 2.17404 0
M  V30 26810 C 2477.76 -0.195283 1.68271 0
M  V30 26811 O 2478.97 -0.0513575 1.79927 0
M  V30 26812 H 2475.34 0.249693 0.709336 0
M  V30 26813 H 2477.31 1.7543 2.41385 0
M  V30 26814 C 2476.06 0.32104 3.46215 0
M  V30 26815 H 2475.38 1.09897 3.84399 0
M  V30 26816 H 2476.82 0.137624 4.23777 0
M  V30 26817 C 2475.28 -0.955415 3.23069 0
M  V30 26818 O 2475.81 -2.02912 3.46684 0
M  V30 26819 N 2474.02 -0.89075 2.76612 0
M  V30 26820 H 2473.57 -0.0168362 2.57594 0
M  V30 26821 H 2473.52 -1.74537 2.61504 0
M  V30 26822 N 2477.3 -1.26549 0.939309 0
M  V30 26823 C 2478.24 -2.26447 0.446127 0
M  V30 26824 C 2479.21 -1.58609 -0.493206 0
M  V30 26825 O 2480.4 -1.86347 -0.409824 0
M  V30 26826 C 2477.54 -3.43927 -0.284314 0
M  V30 26827 C 2476.65 -4.26446 0.690474 0
M  V30 26828 C 2475.79 -5.31165 -0.0609778 0
M  V30 26829 C 2474.82 -6.05361 0.905755 0
M  V30 26830 N 2473.96 -7.01853 0.186179 0
M  V30 26831 H 2478.8 -2.68006 1.30296 0
M  V30 26832 H 2476.34 -1.31775 0.653734 0
M  V30 26833 H 2478.3 -4.10866 -0.724241 0
M  V30 26834 H 2476.93 -3.03287 -1.1053 0
M  V30 26835 H 2475.98 -3.59314 1.24892 0
M  V30 26836 H 2477.29 -4.77898 1.42882 0
M  V30 26837 H 2476.44 -6.04107 -0.560274 0
M  V30 26838 H 2475.18 -4.80547 -0.832213 0
M  V30 26839 H 2474.19 -5.31248 1.41619 0
M  V30 26840 H 2475.41 -6.58069 1.67696 0
M  V30 26841 H 2473.36 -6.53549 -0.566599 0
M  V30 26842 H 2473.28 -7.51048 0.863884 0
M  V30 26843 H 2474.54 -7.78953 -0.292084 0
M  V30 26844 N 2478.77 -0.706118 -1.40896 0
M  V30 26845 C 2480.05 -0.169133 -1.94867 0
M  V30 26846 C 2480.43 1.32315 -1.64487 0
M  V30 26847 O 2479.78 2.07472 -0.957476 0
M  V30 26848 C 2479.99 -0.471715 -3.45797 0
M  V30 26849 C 2481.34 -0.405202 -4.22662 0
M  V30 26850 O 2482.36 -0.40723 -3.53864 0
M  V30 26851 O 2481.22 -0.374479 -5.45215 0
M  V30 26852 H 2478.31 -0.0211497 -0.82673 0
M  V30 26853 H 2480.86 -0.783002 -1.50556 0
M  V30 26854 H 2479.63 -1.50423 -3.61232 0
M  V30 26855 H 2479.25 0.172596 -3.97225 0
M  V30 26856 N 2480.25 1.50991 -0.451617 0
M  V30 26857 C 2481.2 2.28091 0.352585 0
M  V30 26858 C 2482.17 1.32293 1.00438 0
M  V30 26859 O 2483.35 1.61212 1.02055 0
M  V30 26860 C 2480.49 3.13631 1.43977 0
M  V30 26861 C 2479.61 4.24439 0.804697 0
M  V30 26862 C 2478.74 4.97267 1.86813 0
M  V30 26863 C 2477.78 5.99976 1.21226 0
M  V30 26864 N 2476.92 6.66156 2.21768 0
M  V30 26865 H 2481.76 2.9637 -0.311238 0
M  V30 26866 H 2479.29 1.46168 -0.165333 0
M  V30 26867 H 2481.25 3.61563 2.08155 0
M  V30 26868 H 2479.88 2.47438 2.07303 0
M  V30 26869 H 2478.93 3.80366 0.050846 0
M  V30 26870 H 2480.25 4.97979 0.285989 0
M  V30 26871 H 2479.4 5.48818 2.58619 0
M  V30 26872 H 2478.14 4.23389 2.4206 0
M  V30 26873 H 2477.14 5.47703 0.479732 0
M  V30 26874 H 2478.37 6.75817 0.666933 0
M  V30 26875 H 2476.32 5.95082 2.76069 0
M  V30 26876 H 2476.23 7.35507 1.74828 0
M  V30 26877 H 2477.5 7.22332 2.93013 0
M  V30 26878 N 2481.73 0.183486 1.56528 0
M  V30 26879 C 2482.68 -0.742016 2.18547 0
M  V30 26880 C 2483.65 -1.21818 1.12914 0
M  V30 26881 O 2484.83 -1.28416 1.41117 0
M  V30 26882 C 2481.97 -1.96084 2.83981 0
M  V30 26883 C 2481.08 -1.52712 4.04108 0
M  V30 26884 C 2480.22 -2.70055 4.57432 0
M  V30 26885 C 2479.26 -2.23233 5.69942 0
M  V30 26886 N 2478.4 -3.33712 6.17722 0
M  V30 26887 H 2483.24 -0.20638 2.97284 0
M  V30 26888 H 2480.77 -0.0901313 1.46824 0
M  V30 26889 H 2482.73 -2.67589 3.20082 0
M  V30 26890 H 2481.36 -2.46998 2.07826 0
M  V30 26891 H 2480.41 -0.70837 3.73746 0
M  V30 26892 H 2481.72 -1.14352 4.85515 0
M  V30 26893 H 2480.88 -3.49699 4.95778 0
M  V30 26894 H 2479.62 -3.11683 3.75107 0
M  V30 26895 H 2478.62 -1.42039 5.31136 0
M  V30 26896 H 2479.85 -1.82649 6.54077 0
M  V30 26897 H 2477.79 -3.74892 5.38323 0
M  V30 26898 H 2477.71 -2.99483 6.94151 0
M  V30 26899 H 2478.98 -4.13604 6.60721 0
M  V30 26900 N 2483.21 -1.57342 -0.0901833 0
M  V30 26901 C 2484.16 -2.03424 -1.12789 0
M  V30 26902 C 2485.15 -0.936191 -1.4118 0
M  V30 26903 O 2486.36 -1.12136 -1.40803 0
M  V30 26904 H 2482.73 -0.648354 -0.380975 0
M  V30 26905 H 2484.7 -2.89758 -0.712939 0
M  V30 26906 C 2483.45 -2.47855 -2.43851 0
M  V30 26907 H 2482.77 -3.31931 -2.2285 0
M  V30 26908 H 2484.21 -2.8387 -3.1495 0
M  V30 26909 C 2482.67 -1.35385 -3.085 0
M  V30 26910 O 2483.2 -0.68571 -3.95804 0
M  V30 26911 N 2481.41 -1.1036 -2.68829 0
M  V30 26912 H 2480.96 -1.64873 -1.97926 0
M  V30 26913 H 2480.91 -0.353086 -3.12411 0
M  V30 26914 N 2484.69 0.36113 -1.53407 0
M  V30 26915 C 2485.92 1.12217 -1.73467 0
M  V30 26916 C 2486.32 1.83384 -0.465519 0
M  V30 26917 O 2485.67 1.74581 0.57158 0
M  V30 26918 C 2485.73 2.19334 -2.84838 0
M  V30 26919 C 2485.39 1.67896 -4.25041 0
M  V30 26920 C 2486.39 1.14065 -5.07233 0
M  V30 26921 C 2484.08 1.73274 -4.71467 0
M  V30 26922 C 2486.07 0.662956 -6.33943 0
M  V30 26923 C 2483.76 1.25116 -5.98155 0
M  V30 26924 C 2484.75 0.717177 -6.79224 0
M  V30 26925 O 2484.44 0.242724 -8.03533 0
M  V30 26926 H 2484.17 0.341273 -0.583532 0
M  V30 26927 H 2486.73 0.424556 -2.00964 0
M  V30 26928 H 2484.96 2.92603 -2.52825 0
M  V30 26929 H 2486.65 2.80866 -2.93034 0
M  V30 26930 H 2487.41 1.09245 -4.72536 0
M  V30 26931 H 2483.29 2.13778 -4.08436 0
M  V30 26932 H 2486.84 0.24549 -6.97168 0
M  V30 26933 H 2482.73 1.29631 -6.3235 0
M  V30 26934 H 2483.5 0.361642 -8.17701 0
M  V30 26935 N 2486.16 1.44842 0.621179 0
M  V30 26936 C 2487.11 1.48904 1.7266 0
M  V30 26937 C 2488.1 0.353729 1.56964 0
M  V30 26938 O 2489.29 0.599699 1.66531 0
M  V30 26939 C 2486.42 1.44563 3.11378 0
M  V30 26940 C 2485.51 2.63245 3.3251 0
M  V30 26941 N 2485.9 3.88436 3.23962 0
M  V30 26942 C 2484.19 2.58653 3.63338 0
M  V30 26943 C 2484.9 4.6757 3.46053 0
M  V30 26944 N 2483.87 3.98804 3.694 0
M  V30 26945 H 2487.67 2.43534 1.64525 0
M  V30 26946 H 2485.19 1.39944 0.823985 0
M  V30 26947 H 2487.18 1.45557 3.90664 0
M  V30 26948 H 2485.84 0.509787 3.20673 0
M  V30 26949 H 2486.86 4.20258 3.02661 0
M  V30 26950 H 2483.53 1.73913 3.79553 0
M  V30 26951 H 2484.92 5.76591 3.44953 0
M  V30 26952 N 2487.64 -0.862479 1.31905 0
M  V30 26953 C 2488.87 -1.64632 1.24819 0
M  V30 26954 C 2489.28 -1.88268 -0.187546 0
M  V30 26955 O 2488.62 -1.44637 -1.13251 0
M  V30 26956 C 2488.69 -3.033 1.93001 0
M  V30 26957 C 2488.35 -3.0274 3.42341 0
M  V30 26958 C 2489.35 -2.80154 4.37961 0
M  V30 26959 C 2487.03 -3.23623 3.84153 0
M  V30 26960 C 2489.03 -2.78443 5.73366 0
M  V30 26961 C 2486.71 -3.2154 5.19669 0
M  V30 26962 C 2487.71 -2.98977 6.14086 0
M  V30 26963 O 2487.4 -2.96753 7.47123 0
M  V30 26964 H 2487.13 -0.519762 0.432231 0
M  V30 26965 H 2489.68 -1.08424 1.74452 0
M  V30 26966 H 2487.91 -3.61266 1.37928 0
M  V30 26967 H 2489.6 -3.6394 1.7973 0
M  V30 26968 H 2490.37 -2.63795 4.06986 0
M  V30 26969 H 2486.25 -3.40213 3.11089 0
M  V30 26970 H 2489.79 -2.60752 6.47035 0
M  V30 26971 H 2485.69 -3.37442 5.50276 0
M  V30 26972 H 2486.46 -3.12762 7.56388 0
M  V30 26973 N 2489.12 -1.14988 -1.07775 0
M  V30 26974 C 2490.37 -0.923454 -1.80555 0
M  V30 26975 C 2490.7 0.548304 -1.86299 0
M  V30 26976 O 2489.97 1.40637 -1.34356 0
M  V30 26977 C 2490.26 -1.53305 -3.25837 0
M  V30 26978 C 2490.11 -3.07511 -3.28264 0
M  V30 26979 C 2491.43 -1.21526 -4.22989 0
M  V30 26980 H 2488.55 -0.336906 -0.655487 0
M  V30 26981 H 2491.19 -1.42085 -1.26142 0
M  V30 26982 H 2489.34 -1.11006 -3.72304 0
M  V30 26983 H 2491.01 -3.58686 -2.90073 0
M  V30 26984 H 2489.26 -3.41624 -2.67349 0
M  V30 26985 H 2489.93 -3.45274 -4.30685 0
M  V30 26986 H 2492.4 -1.58107 -3.84891 0
M  V30 26987 H 2491.28 -1.66802 -5.22942 0
M  V30 26988 H 2491.54 -0.131582 -4.41904 0
M  V30 26989 N 2490.6 1.26049 -0.946007 0
M  V30 26990 C 2491.55 2.282 -0.450299 0
M  V30 26991 C 2492.54 1.62606 0.474941 0
M  V30 26992 O 2493.75 1.76512 0.352622 0
M  V30 26993 H 2490.12 0.741182 -0.127095 0
M  V30 26994 H 2492.09 2.67405 -1.32427 0
M  V30 26995 C 2490.84 3.46692 0.264609 0
M  V30 26996 H 2490.16 3.97391 -0.438193 0
M  V30 26997 H 2491.6 4.20075 0.575604 0
M  V30 26998 C 2490.06 3.0245 1.48411 0
M  V30 26999 O 2490.59 3.07709 2.58221 0
M  V30 27000 N 2488.8 2.57737 1.34238 0
M  V30 27001 H 2488.35 2.53658 0.44895 0
M  V30 27002 H 2488.3 2.28499 2.15953 0
M  V30 27003 N 2492.08 0.71358 1.4052 0
M  V30 27004 C 2493.03 0.0362051 2.27971 0
M  V30 27005 C 2494.01 -0.734598 1.43152 0
M  V30 27006 O 2495.2 -0.607128 1.66262 0
M  V30 27007 C 2492.33 -0.886272 3.31663 0
M  V30 27008 C 2491.42 -0.110762 4.23955 0
M  V30 27009 N 2491.81 0.904935 4.97639 0
M  V30 27010 C 2490.11 -0.343614 4.44674 0
M  V30 27011 C 2490.81 1.37073 5.65319 0
M  V30 27012 N 2489.78 0.693263 5.39161 0
M  V30 27013 H 2493.59 0.814695 2.82383 0
M  V30 27014 H 2491.1 0.54599 1.52947 0
M  V30 27015 H 2493.1 -1.38685 3.93157 0
M  V30 27016 H 2491.76 -1.66416 2.78811 0
M  V30 27017 H 2492.77 1.28572 5.01687 0
M  V30 27018 H 2489.44 -1.09798 4.02803 0
M  V30 27019 H 2490.83 2.21458 6.34355 0
M  V30 27020 N 2493.55 -1.50749 0.459618 0
M  V30 27021 C 2494.5 -2.28275 -0.340484 0
M  V30 27022 C 2495.47 -1.32824 -0.997347 0
M  V30 27023 O 2496.66 -1.61751 -1.01199 0
M  V30 27024 C 2493.8 -3.1439 -1.42312 0
M  V30 27025 C 2492.91 -4.2486 -0.782177 0
M  V30 27026 C 2492.04 -4.9825 -1.84174 0
M  V30 27027 C 2491.08 -6.0061 -1.18042 0
M  V30 27028 N 2490.22 -6.67322 -2.18232 0
M  V30 27029 H 2495.06 -2.96201 0.326951 0
M  V30 27030 H 2492.6 -1.46078 0.173083 0
M  V30 27031 H 2494.56 -3.62661 -2.06234 0
M  V30 27032 H 2493.19 -2.48534 -2.05988 0
M  V30 27033 H 2492.24 -3.80388 -0.0306736 0
M  V30 27034 H 2493.55 -4.98124 -0.259576 0
M  V30 27035 H 2492.7 -5.50182 -2.55705 0
M  V30 27036 H 2491.44 -4.24667 -2.39812 0
M  V30 27037 H 2490.45 -5.4795 -0.450679 0
M  V30 27038 H 2491.67 -6.76161 -0.631083 0
M  V30 27039 H 2489.62 -5.96537 -2.72909 0
M  V30 27040 H 2489.54 -7.36424 -1.70925 0
M  V30 27041 H 2490.8 -7.23876 -2.89179 0
M  V30 27042 N 2495.03 -0.191784 -1.56429 0
M  V30 27043 C 2496.45 0.164109 -1.58754 0
M  V30 27044 C 2496.65 1.61286 -1.20785 0
M  V30 27045 O 2495.7 2.34787 -0.92904 0
M  V30 27046 C 2497.02 -0.135248 -3.00396 0
M  V30 27047 C 2498.57 -0.0750901 -3.1291 0
M  V30 27048 C 2499.04 -0.347712 -4.56678 0
M  V30 27049 N 2500.53 -0.296212 -4.62252 0
M  V30 27050 C 2501.27 -0.481048 -5.71379 0
M  V30 27051 N 2500.76 -0.726054 -6.88985 0
M  V30 27052 N 2502.56 -0.415534 -5.60562 0
M  V30 27053 H 2494.71 -1.13721 -1.79391 0
M  V30 27054 H 2496.97 -0.453657 -0.832406 0
M  V30 27055 H 2496.68 -1.13964 -3.32724 0
M  V30 27056 H 2496.55 0.563708 -3.72964 0
M  V30 27057 H 2498.94 0.919899 -2.80396 0
M  V30 27058 H 2499.02 -0.807071 -2.42734 0
M  V30 27059 H 2498.66 -1.34 -4.89904 0
M  V30 27060 H 2498.59 0.40512 -5.25039 0
M  V30 27061 H 2501.08 -0.113326 -3.7773 0
M  V30 27062 H 2501.4 -0.855992 -7.68045 0
M  V30 27063 H 2499.74 -0.762909 -6.908 0
M  V30 27064 H 2502.93 -0.224568 -4.67561 0
M  V30 27065 H 2503.1 -0.563002 -6.4555 0
M  V30 27066 N 2496.51 1.57387 0.0818378 0
M  V30 27067 C 2497.46 2.0402 1.11708 0
M  V30 27068 C 2498.45 0.943665 1.40682 0
M  V30 27069 O 2499.66 1.12881 1.40207 0
M  V30 27070 H 2496.03 0.650365 0.377531 0
M  V30 27071 H 2498 2.90132 0.697563 0
M  V30 27072 C 2496.75 2.49145 2.42533 0
M  V30 27073 H 2496.08 3.33108 2.21086 0
M  V30 27074 H 2497.52 2.85536 3.13441 0
M  V30 27075 C 2495.98 1.37019 3.07778 0
M  V30 27076 O 2496.51 0.706691 3.95435 0
M  V30 27077 N 2494.71 1.11784 2.6824 0
M  V30 27078 H 2494.26 1.6592 1.97049 0
M  V30 27079 H 2494.22 0.369649 3.12219 0
M  V30 27080 N 2497.99 -0.35299 1.53596 0
M  V30 27081 C 2498.94 -1.45332 1.81608 0
M  V30 27082 C 2499.93 -1.54891 0.685951 0
M  V30 27083 O 2501.14 -1.57627 0.869123 0
M  V30 27084 H 2497.51 -0.484391 0.575212 0
M  V30 27085 H 2499.48 -1.18916 2.73681 0
M  V30 27086 C 2498.23 -2.81992 2.03411 0
M  V30 27087 H 2497.55 -2.754 2.89818 0
M  V30 27088 H 2498.99 -3.58128 2.26981 0
M  V30 27089 C 2497.45 -3.26847 0.816851 0
M  V30 27090 O 2497.98 -4.01698 0.0116562 0
M  V30 27091 N 2496.19 -2.83538 0.636732 0
M  V30 27092 H 2495.74 -2.22791 1.29313 0
M  V30 27093 H 2495.69 -3.13905 -0.17628 0
M  V30 27094 N 2499.47 -1.45169 -0.613489 0
M  V30 27095 C 2500.38 -1.55915 -1.75293 0
M  V30 27096 C 2501.39 -0.443886 -1.68243 0
M  V30 27097 O 2502.57 -0.703743 -1.88705 0
M  V30 27098 C 2499.63 -1.51725 -3.11738 0
M  V30 27099 C 2498.7 -2.74244 -3.30286 0
M  V30 27100 C 2497.93 -2.70244 -4.60221 0
M  V30 27101 O 2498.15 -1.77239 -5.42165 0
M  V30 27102 O 2497.09 -3.6136 -4.81355 0
M  V30 27103 H 2500.91 -2.52215 -1.69178 0
M  V30 27104 H 2498.5 -1.27613 -0.776864 0
M  V30 27105 H 2500.38 -1.51975 -3.93041 0
M  V30 27106 H 2499.05 -0.585753 -3.18356 0
M  V30 27107 H 2497.96 -2.79557 -2.48593 0
M  V30 27108 H 2499.29 -3.665 -3.28541 0
M  V30 27109 N 2500.95 0.855472 -1.32361 0
M  V30 27110 C 2502.18 1.63968 -1.25691 0
M  V30 27111 C 2502.58 1.88365 0.177559 0
M  V30 27112 O 2501.93 1.45236 1.12482 0
M  V30 27113 C 2501.99 3.02272 -1.94607 0
M  V30 27114 C 2501.65 3.0092 -3.43942 0
M  V30 27115 C 2502.65 2.77828 -4.3944 0
M  V30 27116 C 2500.33 3.21581 -3.85864 0
M  V30 27117 C 2502.33 2.75399 -5.74834 0
M  V30 27118 C 2500.02 3.18779 -5.21366 0
M  V30 27119 C 2501.01 2.95717 -6.15663 0
M  V30 27120 O 2500.7 2.92787 -7.48686 0
M  V30 27121 H 2500.43 0.517462 -0.434981 0
M  V30 27122 H 2502.99 1.07497 -1.75025 0
M  V30 27123 H 2501.22 3.60529 -1.39842 0
M  V30 27124 H 2502.91 3.62981 -1.81657 0
M  V30 27125 H 2503.67 2.61633 -4.08379 0
M  V30 27126 H 2499.55 3.38558 -3.12889 0
M  V30 27127 H 2503.1 2.57317 -6.48409 0
M  V30 27128 H 2498.99 3.34519 -5.52058 0
M  V30 27129 H 2499.76 3.08746 -7.58036 0
M  V30 27130 N 2502.42 1.15558 1.07164 0
M  V30 27131 C 2503.37 0.849938 2.16515 0
M  V30 27132 C 2504.37 -0.177424 1.68468 0
M  V30 27133 O 2505.57 -0.032271 1.79971 0
M  V30 27134 H 2501.95 0.257203 0.706648 0
M  V30 27135 H 2503.92 1.77981 2.39511 0
M  V30 27136 C 2502.67 0.357743 3.45855 0
M  V30 27137 H 2501.99 1.13968 3.83212 0
M  V30 27138 H 2503.43 0.182563 4.23607 0
M  V30 27139 C 2501.89 -0.921096 3.24064 0
M  V30 27140 O 2502.42 -1.99223 3.48816 0
M  V30 27141 N 2500.62 -0.861361 2.77541 0
M  V30 27142 H 2500.17 0.0104861 2.57598 0
M  V30 27143 H 2500.13 -1.71754 2.6334 0
M  V30 27144 N 2503.9 -1.25546 0.952678 0
M  V30 27145 C 2505.13 -1.9782 0.623059 0
M  V30 27146 C 2505.55 -1.70354 -0.79757 0
M  V30 27147 O 2504.91 -0.95831 -1.53903 0
M  V30 27148 C 2504.96 -3.49556 0.885593 0
M  V30 27149 O 2504.06 -4.12384 -0.0365917 0
M  V30 27150 H 2503.4 -0.620228 0.237093 0
M  V30 27151 H 2505.93 -1.59716 1.27874 0
M  V30 27152 H 2505.94 -3.99857 0.811079 0
M  V30 27153 H 2504.62 -3.68877 1.92101 0
M  V30 27154 H 2503.19 -3.72791 0.089961 0
M  V30 27155 N 2505.38 -0.721022 -1.40139 0
M  V30 27156 C 2506.33 -0.0608955 -2.3252 0
M  V30 27157 C 2507.32 0.741125 -1.52328 0
M  V30 27158 O 2508.53 0.643882 -1.6809 0
M  V30 27159 H 2504.9 -0.000889883 -0.751999 0
M  V30 27160 H 2506.87 -0.856665 -2.85839 0
M  V30 27161 C 2505.62 0.84275 -3.37332 0
M  V30 27162 H 2504.95 0.235013 -3.99109 0
M  V30 27163 H 2506.39 1.2725 -4.04454 0
M  V30 27164 C 2504.84 1.97069 -2.7325 0
M  V30 27165 O 2505.37 3.06205 -2.60003 0
M  V30 27166 N 2503.58 1.75593 -2.3155 0
M  V30 27167 H 2503.13 0.868325 -2.42524 0
M  V30 27168 H 2503.09 2.51241 -1.89012 0
M  V30 27169 N 2506.86 1.50503 -0.467606 0
M  V30 27170 C 2507.81 2.30065 0.342441 0
M  V30 27171 C 2508.8 1.37202 0.993572 0
M  V30 27172 O 2510.01 1.5441 0.925075 0
M  V30 27173 H 2506.38 0.740806 0.12927 0
M  V30 27174 H 2508.35 2.96352 -0.349042 0
M  V30 27175 C 2507.1 3.17657 1.41385 0
M  V30 27176 H 2506.42 3.89019 0.922196 0
M  V30 27177 H 2507.86 3.76328 1.95328 0
M  V30 27178 C 2506.32 2.3502 2.41386 0
M  V30 27179 O 2506.85 2.03085 3.46582 0
M  V30 27180 N 2505.06 1.97666 2.13017 0
M  V30 27181 H 2504.61 2.23836 1.27495 0
M  V30 27182 H 2504.56 1.42678 2.80161 0
M  V30 27183 N 2508.34 0.200077 1.56325 0
M  V30 27184 C 2509.58 -0.437618 1.96895 0
M  V30 27185 C 2509.9 -1.62413 1.09002 0
M  V30 27186 O 2511.1 -2.32995 1.39376 0
M  V30 27187 C 2509.56 -0.829963 3.50199 0
M  V30 27188 C 2509.17 0.33254 4.46764 0
M  V30 27189 C 2510.91 -1.43446 3.99529 0
M  V30 27190 C 2508.82 -0.0810429 5.91344 0
M  V30 27191 H 2507.75 -0.167269 0.735212 0
M  V30 27192 H 2510.4 0.292885 1.81148 0
M  V30 27193 H 2508.78 -1.61728 3.61469 0
M  V30 27194 H 2509.96 1.11008 4.47229 0
M  V30 27195 H 2508.27 0.84886 4.07656 0
M  V30 27196 H 2510.87 -1.75643 5.05028 0
M  V30 27197 H 2511.21 -2.34271 3.44126 0
M  V30 27198 H 2511.74 -0.711021 3.91394 0
M  V30 27199 H 2508.48 0.793147 6.50684 0
M  V30 27200 H 2508 -0.823341 5.94122 0
M  V30 27201 H 2509.68 -0.515139 6.44946 0
M  V30 27202 N 2509.81 -1.57429 -0.0734901 0
M  V30 27203 C 2510.72 -2.06924 -1.10543 0
M  V30 27204 C 2511.74 -0.998427 -1.42504 0
M  V30 27205 O 2512.92 -1.31302 -1.52715 0
M  V30 27206 C 2509.98 -2.50188 -2.40014 0
M  V30 27207 C 2509.04 -3.71559 -2.1504 0
M  V30 27208 C 2508.27 -4.12751 -3.38338 0
M  V30 27209 O 2508.5 -3.5383 -4.47393 0
M  V30 27210 O 2507.43 -5.05552 -3.26651 0
M  V30 27211 H 2511.26 -2.95164 -0.714962 0
M  V30 27212 H 2508.84 -1.46608 -0.287505 0
M  V30 27213 H 2510.72 -2.78545 -3.16213 0
M  V30 27214 H 2509.4 -1.65077 -2.78444 0
M  V30 27215 H 2508.31 -3.48288 -1.36552 0
M  V30 27216 H 2509.64 -4.57517 -1.81491 0
M  V30 27217 N 2511.29 0.344839 -1.53781 0
M  V30 27218 C 2512.52 1.10974 -1.75213 0
M  V30 27219 C 2512.94 1.81622 -0.489392 0
M  V30 27220 O 2512.3 1.72503 0.557895 0
M  V30 27221 C 2512.35 2.09988 -2.93151 0
M  V30 27222 O 2511.45 3.17482 -2.63209 0
M  V30 27223 H 2510.79 0.321011 -0.581247 0
M  V30 27224 H 2513.32 0.395626 -2.00739 0
M  V30 27225 H 2513.33 2.53232 -3.19903 0
M  V30 27226 H 2512.01 1.57963 -3.84734 0
M  V30 27227 H 2510.58 2.79065 -2.4734 0
M  V30 27228 N 2512.77 1.45492 0.605781 0
M  V30 27229 C 2513.72 1.54302 1.71638 0
M  V30 27230 C 2514.69 0.388789 1.61486 0
M  V30 27231 O 2515.87 0.602477 1.81038 0
M  V30 27232 C 2513.01 1.51739 3.0995 0
M  V30 27233 C 2512.12 2.77727 3.30895 0
M  V30 27234 C 2511.26 2.66824 4.59324 0
M  V30 27235 C 2510.3 3.87857 4.73533 0
M  V30 27236 N 2509.44 3.75477 5.93263 0
M  V30 27237 H 2514.28 2.49178 1.63444 0
M  V30 27238 H 2511.81 1.23642 0.796936 0
M  V30 27239 H 2513.77 1.48241 3.89975 0
M  V30 27240 H 2512.4 0.604124 3.17096 0
M  V30 27241 H 2511.45 2.91305 2.44634 0
M  V30 27242 H 2512.76 3.67494 3.37267 0
M  V30 27243 H 2511.92 2.61302 5.47546 0
M  V30 27244 H 2510.66 1.74659 4.55352 0
M  V30 27245 H 2509.66 3.93736 3.83735 0
M  V30 27246 H 2510.89 4.8109 4.79301 0
M  V30 27247 H 2508.83 2.86082 5.90333 0
M  V30 27248 H 2508.75 4.58881 6.00803 0
M  V30 27249 H 2510.02 3.73891 6.83978 0
M  V30 27250 N 2514.25 -0.848441 1.32813 0
M  V30 27251 C 2515.5 -1.60306 1.23727 0
M  V30 27252 C 2515.82 -1.93476 -0.199366 0
M  V30 27253 O 2515.08 -1.58052 -1.15404 0
M  V30 27254 C 2515.38 -2.92877 2.04836 0
M  V30 27255 C 2515.04 -2.79111 3.5413 0
M  V30 27256 C 2513.71 -2.75063 3.94834 0
M  V30 27257 C 2516.06 -2.64598 4.49041 0
M  V30 27258 C 2513.39 -2.5439 5.2868 0
M  V30 27259 C 2515.74 -2.45459 5.83037 0
M  V30 27260 C 2514.4 -2.39808 6.22935 0
M  V30 27261 H 2513.67 -0.586601 0.452748 0
M  V30 27262 H 2516.32 -0.983714 1.64303 0
M  V30 27263 H 2514.62 -3.58965 1.57008 0
M  V30 27264 H 2516.32 -3.50299 1.9517 0
M  V30 27265 H 2512.91 -2.83088 3.21806 0
M  V30 27266 H 2517.09 -2.66765 4.18509 0
M  V30 27267 H 2512.35 -2.48455 5.58641 0
M  V30 27268 H 2516.52 -2.33211 6.5619 0
M  V30 27269 H 2514.15 -2.23549 7.26588 0
M  V30 27270 N 2515.73 -1.16125 -1.06549 0
M  V30 27271 C 2516.67 -0.861409 -2.16061 0
M  V30 27272 C 2517.67 0.168487 -1.6856 0
M  V30 27273 O 2518.87 0.0227263 -1.79986 0
M  V30 27274 H 2515.25 -0.260946 -0.705274 0
M  V30 27275 H 2517.22 -1.79248 -2.38564 0
M  V30 27276 C 2515.97 -0.376079 -3.4566 0
M  V30 27277 H 2515.29 -1.15998 -3.82602 0
M  V30 27278 H 2516.73 -0.205026 -4.23504 0
M  V30 27279 C 2515.19 0.903897 -3.24548 0
M  V30 27280 O 2515.72 1.97371 -3.49868 0
M  V30 27281 N 2513.93 0.84663 -2.77994 0
M  V30 27282 H 2513.47 -0.024147 -2.57589 0
M  V30 27283 H 2513.43 1.70355 -2.64247 0
M  V30 27284 N 2517.2 1.25039 -0.959323 0
M  V30 27285 C 2518.15 2.27709 -0.474477 0
M  V30 27286 C 2519.15 1.631 0.457668 0
M  V30 27287 O 2520.35 1.76876 0.333881 0
M  V30 27288 H 2516.73 0.739792 -0.134949 0
M  V30 27289 H 2518.7 2.65986 -1.35256 0
M  V30 27290 C 2517.45 3.46953 0.227823 0
M  V30 27291 H 2516.77 3.96904 -0.480317 0
M  V30 27292 H 2518.21 4.20662 0.531017 0
M  V30 27293 C 2516.67 3.04007 1.45194 0
M  V30 27294 O 2517.2 3.1043 2.54943 0
M  V30 27295 N 2515.41 2.59146 1.31497 0
M  V30 27296 H 2514.95 2.5412 0.422021 0
M  V30 27297 H 2514.91 2.30777 2.13517 0
M  V30 27298 N 2518.68 0.728444 1.39755 0
M  V30 27299 C 2519.91 0.283153 2.0465 0
M  V30 27300 C 2520.32 -1.08466 1.55022 0
M  V30 27301 O 2519.66 -1.69534 0.707372 0
M  V30 27302 C 2519.73 0.199372 3.58947 0
M  V30 27303 C 2519.39 1.50458 4.31522 0
M  V30 27304 C 2520.39 2.44902 4.58606 0
M  V30 27305 C 2518.07 1.76706 4.70192 0
M  V30 27306 C 2520.07 3.63831 5.2336 0
M  V30 27307 C 2517.75 2.95915 5.34675 0
M  V30 27308 C 2518.75 3.89299 5.61191 0
M  V30 27309 O 2518.44 5.06415 6.24339 0
M  V30 27310 H 2518.17 0.122677 0.664775 0
M  V30 27311 H 2520.72 0.991019 1.79911 0
M  V30 27312 H 2518.95 -0.564542 3.82557 0
M  V30 27313 H 2520.64 -0.213054 4.0534 0
M  V30 27314 H 2521.41 2.25891 4.29183 0
M  V30 27315 H 2517.29 1.04867 4.48914 0
M  V30 27316 H 2520.83 4.36738 5.43973 0
M  V30 27317 H 2516.73 3.14829 5.63518 0
M  V30 27318 H 2517.5 5.06663 6.42833 0
M  V30 27319 N 2520.16 -1.50253 0.475581 0
M  V30 27320 C 2521.41 -2.0265 -0.0779717 0
M  V30 27321 C 2521.74 -1.35654 -1.38966 0
M  V30 27322 O 2521.01 -0.483724 -1.88389 0
M  V30 27323 C 2521.3 -3.59181 -0.257098 0
M  V30 27324 C 2521.15 -4.36742 1.07593 0
M  V30 27325 C 2522.47 -4.28364 -1.00957 0
M  V30 27326 H 2519.59 -0.73651 -0.0268629 0
M  V30 27327 H 2522.23 -1.79529 0.622046 0
M  V30 27328 H 2520.38 -3.79012 -0.853345 0
M  V30 27329 H 2522.05 -4.28471 1.7091 0
M  V30 27330 H 2520.3 -4.00305 1.67147 0
M  V30 27331 H 2520.97 -5.44544 0.904184 0
M  V30 27332 H 2523.44 -4.13035 -0.504141 0
M  V30 27333 H 2522.32 -5.37689 -1.10371 0
M  V30 27334 H 2522.58 -3.91843 -2.04724 0
M  V30 27335 N 2521.64 -0.208365 -1.56217 0
M  V30 27336 C 2522.92 0.475201 -1.8974 0
M  V30 27337 C 2523.3 1.78699 -1.12383 0
M  V30 27338 O 2522.64 2.27349 -0.229019 0
M  V30 27339 C 2522.85 0.68104 -3.42291 0
M  V30 27340 C 2524.2 0.994434 -4.12791 0
M  V30 27341 O 2525.23 0.768296 -3.47816 0
M  V30 27342 O 2524.08 1.4229 -5.27651 0
M  V30 27343 H 2521.18 0.249447 -0.788483 0
M  V30 27344 H 2523.72 -0.249568 -1.67855 0
M  V30 27345 H 2522.5 -0.244791 -3.90534 0
M  V30 27346 H 2522.12 1.45778 -3.69911 0
M  V30 27347 N 2523.12 1.57465 0.0651402 0
M  V30 27348 C 2524.39 1.78652 0.796408 0
M  V30 27349 C 2524.77 0.7976 1.95452 0
M  V30 27350 O 2524.12 -0.167906 2.27882 0
M  V30 27351 C 2524.33 3.25339 1.26316 0
M  V30 27352 C 2525.68 3.89351 1.69384 0
M  V30 27353 O 2526.7 3.2927 1.35866 0
M  V30 27354 O 2525.56 4.95063 2.31462 0
M  V30 27355 H 2522.66 0.733413 0.382144 0
M  V30 27356 H 2525.2 1.69641 0.0447013 0
M  V30 27357 H 2523.97 3.88877 0.434791 0
M  V30 27358 H 2523.6 3.391 2.07598 0
M  V30 27359 N 2524.59 -0.336679 1.53962 0
M  V30 27360 C 2525.84 -1.0736 1.70753 0
M  V30 27361 C 2526.16 -1.89591 0.481094 0
M  V30 27362 O 2527.36 -2.66275 0.530093 0
M  V30 27363 C 2525.82 -1.95813 3.01969 0
M  V30 27364 C 2525.43 -1.18756 4.31973 0
M  V30 27365 C 2527.17 -2.69321 3.28126 0
M  V30 27366 C 2525.08 -2.06279 5.54259 0
M  V30 27367 H 2524.01 -0.404523 0.636299 0
M  V30 27368 H 2526.66 -0.332649 1.8046 0
M  V30 27369 H 2525.04 -2.73755 2.86136 0
M  V30 27370 H 2526.21 -0.456768 4.58531 0
M  V30 27371 H 2524.53 -0.569873 4.12482 0
M  V30 27372 H 2527.13 -3.35087 4.16678 0
M  V30 27373 H 2527.47 -3.36257 2.45432 0
M  V30 27374 H 2528 -1.98448 3.44765 0
M  V30 27375 H 2524.74 -1.43873 6.39516 0
M  V30 27376 H 2524.26 -2.77128 5.3194 0
M  V30 27377 H 2525.94 -2.65172 5.90163 0
M  V30 27378 N 2526.07 -1.45812 -0.598057 0
M  V30 27379 C 2527.02 -1.55558 -1.72929 0
M  V30 27380 C 2528.01 -0.42495 -1.63983 0
M  V30 27381 O 2529.22 -0.601235 -1.69662 0
M  V30 27382 H 2525.6 -0.488789 -0.57148 0
M  V30 27383 H 2527.57 -2.50702 -1.61837 0
M  V30 27384 C 2526.32 -1.54848 -3.11316 0
M  V30 27385 H 2525.64 -2.41178 -3.18863 0
M  V30 27386 H 2527.08 -1.65724 -3.90271 0
M  V30 27387 C 2525.54 -0.274486 -3.3578 0
M  V30 27388 O 2526.07 0.641708 -3.96541 0
M  V30 27389 N 2524.27 -0.16719 -2.90119 0
M  V30 27390 H 2523.82 -0.913638 -2.40854 0
M  V30 27391 H 2523.78 0.684382 -3.06861 0
M  V30 27392 N 2527.55 0.841385 -1.33261 0
M  V30 27393 C 2528.5 1.95101 -1.23305 0
M  V30 27394 C 2529.47 1.6572 -0.112233 0
M  V30 27395 O 2530.65 1.88582 -0.290072 0
M  V30 27396 C 2527.79 3.31022 -0.975641 0
M  V30 27397 C 2526.91 3.72815 -2.18249 0
M  V30 27398 C 2526.04 4.97592 -1.85945 0
M  V30 27399 C 2525.08 5.31914 -3.02876 0
M  V30 27400 N 2524.22 6.47868 -2.70576 0
M  V30 27401 H 2529.06 2.02948 -2.18211 0
M  V30 27402 H 2526.59 0.993154 -1.08512 0
M  V30 27403 H 2528.55 4.09324 -0.806842 0
M  V30 27404 H 2527.18 3.22738 -0.0633322 0
M  V30 27405 H 2526.23 2.90057 -2.46112 0
M  V30 27406 H 2527.55 3.94164 -3.05673 0
M  V30 27407 H 2526.7 5.83636 -1.65694 0
M  V30 27408 H 2525.44 4.78208 -0.957536 0
M  V30 27409 H 2524.44 4.44376 -3.23743 0
M  V30 27410 H 2525.67 5.53248 -3.93818 0
M  V30 27411 H 2523.61 6.29975 -1.82941 0
M  V30 27412 H 2523.53 6.693 -3.51531 0
M  V30 27413 H 2524.8 7.3703 -2.53787 0
M  V30 27414 N 2529.03 1.16688 1.05932 0
M  V30 27415 C 2529.98 0.876786 2.13497 0
M  V30 27416 C 2530.95 -0.17627 1.65162 0
M  V30 27417 O 2532.13 -0.0406807 1.90757 0
M  V30 27418 C 2529.27 0.388027 3.42912 0
M  V30 27419 C 2528.38 1.50433 4.04961 0
M  V30 27420 C 2527.52 0.970217 5.22265 0
M  V30 27421 C 2526.56 2.06248 5.76306 0
M  V30 27422 N 2525.7 1.54368 6.8492 0
M  V30 27423 H 2530.54 1.79794 2.37651 0
M  V30 27424 H 2528.07 0.896863 1.16597 0
M  V30 27425 H 2530.03 0.0862593 4.17111 0
M  V30 27426 H 2528.66 -0.496179 3.18964 0
M  V30 27427 H 2527.71 1.92199 3.28274 0
M  V30 27428 H 2529.02 2.32844 4.41118 0
M  V30 27429 H 2528.18 0.621849 6.03505 0
M  V30 27430 H 2526.92 0.115463 4.87563 0
M  V30 27431 H 2525.92 2.41951 4.937 0
M  V30 27432 H 2527.15 2.92126 6.13057 0
M  V30 27433 H 2525.09 0.71152 6.5213 0
M  V30 27434 H 2525.01 2.30392 7.20039 0
M  V30 27435 H 2526.28 1.22401 7.6983 0
M  V30 27436 N 2530.51 -1.24529 0.96594 0
M  V30 27437 C 2531.42 -2.29162 0.502194 0
M  V30 27438 C 2532.43 -1.68449 -0.435987 0
M  V30 27439 O 2533.61 -1.99008 -0.309462 0
M  V30 27440 C 2530.67 -3.46112 -0.201895 0
M  V30 27441 C 2529.74 -4.2223 0.775895 0
M  V30 27442 C 2528.97 -5.33596 0.105311 0
M  V30 27443 O 2529.19 -5.5956 -1.10674 0
M  V30 27444 O 2528.13 -5.96606 0.796579 0
M  V30 27445 H 2531.95 -2.70943 1.37199 0
M  V30 27446 H 2529.54 -1.30188 0.732898 0
M  V30 27447 H 2531.42 -4.17143 -0.59749 0
M  V30 27448 H 2530.09 -3.06311 -1.04668 0
M  V30 27449 H 2529 -3.53582 1.22191 0
M  V30 27450 H 2530.33 -4.65844 1.58904 0
M  V30 27451 N 2531.99 -0.735845 -1.39367 0
M  V30 27452 C 2533.22 -0.294002 -2.04497 0
M  V30 27453 C 2533.62 1.07642 -1.55595 0
M  V30 27454 O 2532.97 1.69157 -0.716353 0
M  V30 27455 C 2533.03 -0.218405 -3.58836 0
M  V30 27456 C 2532.69 -1.52744 -4.30718 0
M  V30 27457 C 2533.69 -2.4733 -4.57301 0
M  V30 27458 C 2531.37 -1.79197 -4.69248 0
M  V30 27459 C 2533.37 -3.66602 -5.21423 0
M  V30 27460 C 2531.06 -2.98746 -5.33098 0
M  V30 27461 C 2532.05 -3.9227 -5.59118 0
M  V30 27462 O 2531.74 -5.09719 -6.21644 0
M  V30 27463 H 2531.47 -0.126201 -0.664115 0
M  V30 27464 H 2534.03 -1.00055 -1.79383 0
M  V30 27465 H 2532.26 0.544247 -3.82851 0
M  V30 27466 H 2533.95 0.191555 -4.05448 0
M  V30 27467 H 2534.71 -2.28164 -4.27979 0
M  V30 27468 H 2530.59 -1.07246 -4.48352 0
M  V30 27469 H 2534.14 -4.39616 -5.41649 0
M  V30 27470 H 2530.03 -3.17813 -5.61841 0
M  V30 27471 H 2530.8 -5.10065 -6.40138 0
M  V30 27472 N 2533.46 1.49999 -0.483543 0
M  V30 27473 C 2534.69 2.065 0.0643533 0
M  V30 27474 C 2535.1 1.34617 1.32947 0
M  V30 27475 O 2534.44 0.412787 1.79002 0
M  V30 27476 C 2534.51 3.57201 0.40592 0
M  V30 27477 C 2534.17 4.50654 -0.758954 0
M  V30 27478 C 2535.17 4.93205 -1.64454 0
M  V30 27479 C 2532.85 4.9318 -0.952812 0
M  V30 27480 C 2534.85 5.77002 -2.70828 0
M  V30 27481 C 2532.53 5.76757 -2.01976 0
M  V30 27482 C 2533.53 6.18571 -2.89585 0
M  V30 27483 O 2533.22 7.00479 -3.94441 0
M  V30 27484 H 2532.95 0.675935 -0.00935974 0
M  V30 27485 H 2535.51 1.93992 -0.674994 0
M  V30 27486 H 2533.74 3.67655 1.19863 0
M  V30 27487 H 2535.42 3.96014 0.890364 0
M  V30 27488 H 2536.19 4.61009 -1.50651 0
M  V30 27489 H 2532.07 4.60147 -0.280328 0
M  V30 27490 H 2535.61 6.09559 -3.3924 0
M  V30 27491 H 2531.51 6.08366 -2.15781 0
M  V30 27492 H 2532.28 7.18754 -3.91581 0
M  V30 27493 N 2534.94 0.216646 1.56104 0
M  V30 27494 C 2535.85 -0.706943 2.23695 0
M  V30 27495 C 2536.87 -1.21763 1.24297 0
M  V30 27496 O 2538.04 -1.26027 1.57096 0
M  V30 27497 C 2535.11 -1.90028 2.89983 0
M  V30 27498 C 2534.17 -1.43205 4.04711 0
M  V30 27499 C 2533.4 -2.56851 4.67828 0
M  V30 27500 O 2533.63 -3.74867 4.2992 0
M  V30 27501 O 2532.56 -2.28333 5.56909 0
M  V30 27502 H 2536.39 -0.161181 3.03272 0
M  V30 27503 H 2533.97 -0.0135914 1.49394 0
M  V30 27504 H 2535.85 -2.59729 3.31841 0
M  V30 27505 H 2534.53 -2.43424 2.1337 0
M  V30 27506 H 2533.43 -0.703205 3.67431 0
M  V30 27507 H 2534.77 -0.94453 4.83052 0
M  V30 27508 N 2536.42 -1.57498 -0.0567885 0
M  V30 27509 C 2537.7 -1.79072 -0.786923 0
M  V30 27510 C 2538.08 -0.807954 -1.95026 0
M  V30 27511 O 2537.42 0.155818 -2.27968 0
M  V30 27512 C 2537.63 -3.26004 -1.24589 0
M  V30 27513 C 2538.98 -3.90244 -1.67316 0
M  V30 27514 O 2540.01 -3.29986 -1.34118 0
M  V30 27515 O 2538.87 -4.96284 -2.28833 0
M  V30 27516 H 2535.96 -0.73543 -0.378249 0
M  V30 27517 H 2538.51 -1.69662 -0.0357042 0
M  V30 27518 H 2537.28 -3.89102 -0.414162 0
M  V30 27519 H 2536.9 -3.40196 -2.05797 0
M  V30 27520 N 2537.9 0.328509 -1.54138 0
M  V30 27521 C 2538.81 1.4272 -1.86194 0
M  V30 27522 C 2539.82 1.56843 -0.753409 0
M  V30 27523 O 2541 1.72033 -1.04721 0
M  V30 27524 C 2538.06 2.77503 -2.07829 0
M  V30 27525 C 2537.13 2.72598 -3.31646 0
M  V30 27526 C 2536.36 4.00953 -3.52239 0
M  V30 27527 O 2536.58 4.98975 -2.76369 0
M  V30 27528 O 2535.52 4.04512 -4.45706 0
M  V30 27529 H 2539.34 1.18542 -2.7961 0
M  V30 27530 H 2536.93 0.522079 -1.39981 0
M  V30 27531 H 2538.81 3.57299 -2.23417 0
M  V30 27532 H 2537.48 3.01582 -1.17601 0
M  V30 27533 H 2536.39 1.9137 -3.21447 0
M  V30 27534 H 2537.72 2.53473 -4.21915 0
M  V30 27535 N 2539.38 1.46127 0.590316 0
M  V30 27536 C 2540.32 1.56473 1.72102 0
M  V30 27537 C 2541.32 0.433641 1.63756 0
M  V30 27538 O 2542.52 0.610224 1.69341 0
M  V30 27539 H 2538.9 0.491812 0.56888 0
M  V30 27540 H 2540.87 2.51556 1.60505 0
M  V30 27541 C 2539.62 1.56497 3.1049 0
M  V30 27542 H 2538.94 2.42865 3.17579 0
M  V30 27543 H 2540.38 1.67792 3.89387 0
M  V30 27544 C 2538.84 0.29229 3.3563 0
M  V30 27545 O 2539.37 -0.620669 3.96876 0
M  V30 27546 N 2537.58 0.182574 2.90026 0
M  V30 27547 H 2537.12 0.926399 2.40366 0
M  V30 27548 H 2537.08 -0.668098 3.07219 0
M  V30 27549 N 2540.85 -0.834306 1.33705 0
M  V30 27550 C 2542.13 -1.57481 1.16014 0
M  V30 27551 C 2542.51 -2.09344 -0.271723 0
M  V30 27552 O 2541.86 -1.8986 -1.27143 0
M  V30 27553 C 2542.07 -2.7051 2.20512 0
M  V30 27554 C 2543.42 -3.39572 2.54904 0
M  V30 27555 O 2544.44 -2.80755 2.19214 0
M  V30 27556 O 2543.3 -4.45759 3.16166 0
M  V30 27557 H 2540.39 -0.694495 0.449004 0
M  V30 27558 H 2542.94 -0.876666 1.45302 0
M  V30 27559 H 2541.71 -2.29859 3.16671 0
M  V30 27560 H 2541.33 -3.47984 1.92335 0
M  V30 27561 N 2542.33 -1.17248 -1.05312 0
M  V30 27562 C 2543.58 -0.954552 -1.77683 0
M  V30 27563 C 2543.89 0.517992 -1.88617 0
M  V30 27564 O 2545.1 0.854098 -2.57716 0
M  V30 27565 C 2543.56 -1.65869 -3.19399 0
M  V30 27566 C 2543.16 -3.16968 -3.16599 0
M  V30 27567 C 2544.91 -1.5231 -3.96235 0
M  V30 27568 C 2542.81 -3.80076 -4.53096 0
M  V30 27569 H 2541.74 -0.353508 -0.665994 0
M  V30 27570 H 2544.4 -1.40488 -1.18048 0
M  V30 27571 H 2542.78 -1.13609 -3.79353 0
M  V30 27572 H 2543.95 -3.76152 -2.66169 0
M  V30 27573 H 2542.27 -3.30525 -2.53263 0
M  V30 27574 H 2544.86 -1.96831 -4.97154 0
M  V30 27575 H 2545.21 -0.473474 -4.13599 0
M  V30 27576 H 2545.74 -2.01781 -3.42826 0
M  V30 27577 H 2542.48 -4.8503 -4.40937 0
M  V30 27578 H 2542 -3.25679 -5.0368 0
M  V30 27579 H 2543.68 -3.82211 -5.22038 0
M  V30 27580 N 2543.81 1.24015 -0.972531 0
M  V30 27581 C 2545.04 1.95979 -0.653888 0
M  V30 27582 C 2545.45 1.72293 0.781771 0
M  V30 27583 O 2544.79 1.00646 1.53675 0
M  V30 27584 C 2544.85 3.49193 -0.85467 0
M  V30 27585 C 2544.52 3.96585 -2.27089 0
M  V30 27586 C 2545.51 4.05878 -3.24899 0
M  V30 27587 C 2543.2 4.29781 -2.59988 0
M  V30 27588 C 2545.19 4.47708 -4.53692 0
M  V30 27589 C 2542.88 4.71294 -3.89005 0
M  V30 27590 C 2543.88 4.80223 -4.85669 0
M  V30 27591 O 2543.57 5.20807 -6.12385 0
M  V30 27592 H 2543.3 0.630975 -0.242583 0
M  V30 27593 H 2545.85 1.5867 -1.30433 0
M  V30 27594 H 2544.08 3.8642 -0.147053 0
M  V30 27595 H 2545.77 4.02367 -0.534382 0
M  V30 27596 H 2546.54 3.80443 -3.00812 0
M  V30 27597 H 2542.42 4.22047 -1.85464 0
M  V30 27598 H 2545.96 4.54592 -5.29143 0
M  V30 27599 H 2541.86 4.96177 -4.12891 0
M  V30 27600 H 2542.63 5.38943 -6.16022 0
M  V30 27601 N 2545.29 0.743226 1.38974 0
M  V30 27602 C 2546.52 0.304843 2.04339 0
M  V30 27603 C 2546.93 -1.06816 1.56163 0
M  V30 27604 O 2546.27 -1.68775 0.725314 0
M  V30 27605 C 2546.33 0.237432 3.58715 0
M  V30 27606 C 2546 1.55026 4.29902 0
M  V30 27607 C 2546.99 2.49752 4.55982 0
M  V30 27608 C 2544.68 1.81683 4.68291 0
M  V30 27609 C 2546.67 3.69362 5.19471 0
M  V30 27610 C 2544.36 3.01569 5.31507 0
M  V30 27611 C 2545.36 3.95229 5.5703 0
M  V30 27612 O 2545.04 5.13009 6.18932 0
M  V30 27613 H 2544.78 0.129721 0.663437 0
M  V30 27614 H 2547.33 1.01005 1.7885 0
M  V30 27615 H 2545.56 -0.523935 3.83134 0
M  V30 27616 H 2547.25 -0.17005 4.05544 0
M  V30 27617 H 2548.02 2.3043 4.26763 0
M  V30 27618 H 2543.89 1.09623 4.47777 0
M  V30 27619 H 2547.44 4.42483 5.3931 0
M  V30 27620 H 2543.34 3.20788 5.60147 0
M  V30 27621 H 2544.1 5.13453 6.37424 0
M  V30 27622 N 2546.77 -1.4974 0.491491 0
M  V30 27623 C 2548.01 -2.02421 -0.05639 0
M  V30 27624 C 2548.34 -1.37195 -1.37869 0
M  V30 27625 O 2547.6 -0.493542 -1.89374 0
M  V30 27626 C 2547.9 -3.56399 -0.267266 0
M  V30 27627 C 2547.56 -4.40213 0.975853 0
M  V30 27628 C 2546.22 -4.62837 1.31664 0
M  V30 27629 C 2548.58 -4.89036 1.80259 0
M  V30 27630 C 2545.9 -5.31528 2.48385 0
M  V30 27631 C 2548.26 -5.5901 2.96126 0
M  V30 27632 C 2546.92 -5.79882 3.30595 0
M  V30 27633 H 2546.19 -0.740713 -0.0206346 0
M  V30 27634 H 2548.84 -1.80141 0.649718 0
M  V30 27635 H 2547.14 -3.77306 -1.05581 0
M  V30 27636 H 2548.84 -3.94745 -0.70548 0
M  V30 27637 H 2545.43 -4.22839 0.700389 0
M  V30 27638 H 2549.61 -4.71394 1.55247 0
M  V30 27639 H 2544.87 -5.45892 2.7534 0
M  V30 27640 H 2549.04 -5.95817 3.6052 0
M  V30 27641 H 2546.67 -6.32884 4.21143 0
M  V30 27642 N 2548.24 -0.224922 -1.55987 0
M  V30 27643 C 2549.47 0.410629 -2.02784 0
M  V30 27644 C 2549.89 1.5311 -1.10467 0
M  V30 27645 O 2549.24 1.82138 -0.114903 0
M  V30 27646 C 2549.3 0.939104 -3.49089 0
M  V30 27647 O 2549.02 -0.13669 -4.37887 0
M  V30 27648 C 2550.52 1.64756 -4.11546 0
M  V30 27649 H 2547.74 0.100136 -0.663486 0
M  V30 27650 H 2550.28 -0.342361 -2.01614 0
M  V30 27651 H 2548.44 1.64235 -3.50864 0
M  V30 27652 H 2548.85 0.261063 -5.2385 0
M  V30 27653 H 2550.32 1.9693 -5.15677 0
M  V30 27654 H 2550.8 2.56188 -3.56741 0
M  V30 27655 H 2551.41 0.98943 -4.13631 0
M  V30 27656 N 2549.72 1.57526 0.0484352 0
M  V30 27657 C 2550.67 2.01734 1.06243 0
M  V30 27658 C 2551.66 0.903268 1.33154 0
M  V30 27659 O 2552.85 1.16719 1.33063 0
M  V30 27660 C 2549.98 2.48425 2.36939 0
M  V30 27661 C 2549.06 3.66614 2.13202 0
M  V30 27662 N 2549.45 4.80006 1.59462 0
M  V30 27663 C 2547.75 3.73614 2.43574 0
M  V30 27664 C 2548.45 5.61738 1.51082 0
M  V30 27665 N 2547.43 5.06273 1.97961 0
M  V30 27666 H 2551.23 2.86833 0.640625 0
M  V30 27667 H 2548.75 1.60384 0.255105 0
M  V30 27668 H 2550.74 2.78347 3.10369 0
M  V30 27669 H 2549.4 1.64723 2.79815 0
M  V30 27670 H 2550.41 5.01833 1.27999 0
M  V30 27671 H 2547.09 3.00674 2.89657 0
M  V30 27672 H 2548.48 6.62803 1.10187 0
M  V30 27673 N 2551.2 -0.32033 1.5431 0
M  V30 27674 C 2552.43 -1.08172 1.76956 0
M  V30 27675 C 2552.85 -1.8082 0.518225 0
M  V30 27676 O 2552.21 -1.73369 -0.530381 0
M  V30 27677 C 2552.26 -2.05298 2.96454 0
M  V30 27678 O 2551.36 -3.13255 2.68226 0
M  V30 27679 H 2550.7 -0.311723 0.586281 0
M  V30 27680 H 2553.23 -0.36364 2.01343 0
M  V30 27681 H 2553.24 -2.4811 3.23891 0
M  V30 27682 H 2551.92 -1.51822 3.87199 0
M  V30 27683 H 2550.49 -2.75094 2.51749 0
M  V30 27684 N 2552.68 -1.46438 -0.582558 0
M  V30 27685 C 2553.9 -1.55565 -1.37165 0
M  V30 27686 C 2554.33 -0.197462 -1.87061 0
M  V30 27687 O 2553.69 0.822422 -1.61573 0
M  V30 27688 C 2553.73 -2.5645 -2.53506 0
M  V30 27689 O 2552.84 -2.09964 -3.54949 0
M  V30 27690 H 2552.18 -0.523484 -0.408485 0
M  V30 27691 H 2554.71 -1.92011 -0.706612 0
M  V30 27692 H 2554.72 -2.76064 -3.00421 0
M  V30 27693 H 2553.39 -3.5508 -2.16543 0
M  V30 27694 H 2551.97 -2.0034 -3.14513 0
M  V30 27695 N 2554.16 0.827204 -1.34146 0
M  V30 27696 C 2555.09 1.94528 -1.21209 0
M  V30 27697 C 2556.1 1.62195 -0.140204 0
M  V30 27698 O 2557.29 1.7415 -0.391678 0
M  V30 27699 C 2554.39 3.28345 -0.839199 0
M  V30 27700 C 2553.56 3.88731 -2.00517 0
M  V30 27701 C 2552.62 5.00921 -1.61137 0
M  V30 27702 O 2551.65 5.19445 -2.32735 0
M  V30 27703 N 2552.85 5.78139 -0.52306 0
M  V30 27704 H 2555.62 2.06159 -2.17529 0
M  V30 27705 H 2553.18 1.00356 -1.27044 0
M  V30 27706 H 2555.17 4.0084 -0.557627 0
M  V30 27707 H 2553.74 3.12582 0.0336744 0
M  V30 27708 H 2552.96 3.08682 -2.45172 0
M  V30 27709 H 2554.25 4.25807 -2.78506 0
M  V30 27710 H 2553.64 5.65654 0.0722524 0
M  V30 27711 H 2552.2 6.51104 -0.301203 0
M  V30 27712 N 2555.63 1.17805 1.04688 0
M  V30 27713 C 2556.88 0.967648 1.77429 0
M  V30 27714 C 2557.2 -0.50454 1.8836 0
M  V30 27715 O 2556.47 -1.36614 1.40404 0
M  V30 27716 H 2555.05 0.355035 0.657236 0
M  V30 27717 H 2557.72 1.48373 1.26378 0
M  V30 27718 H 2556.81 1.40032 2.78922 0
M  V30 27719 N 2557.11 -1.23497 0.979094 0
M  V30 27720 C 2558.06 -2.26926 0.510644 0
M  V30 27721 C 2559.05 -1.63808 -0.431662 0
M  V30 27722 O 2560.26 -1.77385 -0.305699 0
M  V30 27723 H 2556.64 -0.737552 0.146701 0
M  V30 27724 H 2558.61 -2.638 1.3947 0
M  V30 27725 C 2557.36 -3.47271 -0.172597 0
M  V30 27726 H 2556.68 -3.9609 0.543401 0
M  V30 27727 H 2558.12 -4.21453 -0.464027 0
M  V30 27728 C 2556.58 -3.06278 -1.4034 0
M  V30 27729 O 2557.11 -3.14447 -2.49972 0
M  V30 27730 N 2555.31 -2.61206 -1.27358 0
M  V30 27731 H 2554.86 -2.54759 -0.381539 0
M  V30 27732 H 2554.82 -2.34144 -2.09818 0
M  V30 27733 N 2558.59 -0.750586 -1.38578 0
M  V30 27734 C 2559.54 -0.110203 -2.32339 0
M  V30 27735 C 2560.53 0.708647 -1.53865 0
M  V30 27736 O 2561.74 0.608082 -1.69418 0
M  V30 27737 H 2558.11 -0.0168407 -0.751811 0
M  V30 27738 H 2560.09 -0.917102 -2.83957 0
M  V30 27739 C 2558.83 0.771007 -3.39044 0
M  V30 27740 H 2558.16 0.150304 -3.99517 0
M  V30 27741 H 2559.6 1.18642 -4.07063 0
M  V30 27742 C 2558.06 1.91229 -2.77368 0
M  V30 27743 O 2558.59 3.00621 -2.66439 0
M  V30 27744 N 2556.79 1.70642 -2.35222 0
M  V30 27745 H 2556.34 0.816687 -2.44311 0
M  V30 27746 H 2556.3 2.47175 -1.94298 0
M  V30 27747 N 2560.07 1.49477 -0.499425 0
M  V30 27748 C 2561.35 1.95298 0.108595 0
M  V30 27749 C 2561.73 1.44087 1.5428 0
M  V30 27750 O 2561.07 0.653946 2.18942 0
M  V30 27751 C 2561.28 3.48993 0.0228497 0
M  V30 27752 C 2562.63 4.2414 0.197568 0
M  V30 27753 O 2563.66 3.56065 0.0981109 0
M  V30 27754 O 2562.52 5.45023 0.401573 0
M  V30 27755 H 2559.61 0.82139 0.0961665 0
M  V30 27756 H 2562.16 1.60129 -0.561851 0
M  V30 27757 H 2560.93 3.78897 -0.977388 0
M  V30 27758 H 2560.55 3.90775 0.73351 0
M  V30 27759 N 2561.55 0.233191 1.55865 0
M  V30 27760 C 2562.82 -0.444954 1.90472 0
M  V30 27761 C 2563.2 -1.76888 1.15212 0
M  V30 27762 O 2562.55 -2.26956 0.265159 0
M  V30 27763 C 2562.76 -0.626499 3.43331 0
M  V30 27764 C 2564.11 -0.928637 4.14321 0
M  V30 27765 O 2565.13 -0.712864 3.48994 0
M  V30 27766 O 2563.99 -1.33877 5.29848 0
M  V30 27767 H 2561.09 -0.236871 0.792351 0
M  V30 27768 H 2563.63 0.27624 1.67437 0
M  V30 27769 H 2562.41 0.306891 3.90095 0
M  V30 27770 H 2562.03 -1.39875 3.72184 0
M  V30 27771 N 2563.03 -1.57549 -0.0400806 0
M  V30 27772 C 2563.96 -2.08871 -1.0438 0
M  V30 27773 C 2564.94 -0.988842 -1.38405 0
M  V30 27774 O 2566.12 -1.26345 -1.47481 0
M  V30 27775 C 2563.25 -2.55899 -2.34804 0
M  V30 27776 C 2562.21 -3.70051 -2.1505 0
M  V30 27777 C 2561.53 -4.03245 -3.51137 0
M  V30 27778 C 2562.83 -4.98905 -1.54567 0
M  V30 27779 H 2564.53 -2.92982 -0.616615 0
M  V30 27780 H 2562.07 -1.40943 -0.295159 0
M  V30 27781 H 2564.02 -2.90422 -3.05341 0
M  V30 27782 H 2562.75 -1.68858 -2.79562 0
M  V30 27783 H 2561.41 -3.3586 -1.46948 0
M  V30 27784 H 2561.06 -3.13286 -3.93523 0
M  V30 27785 H 2560.76 -4.80128 -3.38749 0
M  V30 27786 H 2562.28 -4.40292 -4.23054 0
M  V30 27787 H 2563.69 -5.31455 -2.15008 0
M  V30 27788 H 2562.09 -5.80324 -1.52786 0
M  V30 27789 H 2563.16 -4.82207 -0.510306 0
M  V30 27790 N 2564.5 0.312142 -1.54478 0
M  V30 27791 C 2565.73 1.07232 -1.77528 0
M  V30 27792 C 2566.15 1.80543 -0.527807 0
M  V30 27793 O 2565.51 1.73647 0.521179 0
M  V30 27794 C 2565.56 2.03723 -2.97539 0
M  V30 27795 O 2564.66 3.11828 -2.69884 0
M  V30 27796 H 2564 0.308609 -0.587925 0
M  V30 27797 H 2566.53 0.352957 -2.01533 0
M  V30 27798 H 2566.54 2.46389 -3.25202 0
M  V30 27799 H 2565.22 1.49767 -3.87998 0
M  V30 27800 H 2563.8 2.73755 -2.53204 0
M  V30 27801 N 2565.98 1.46745 0.574784 0
M  V30 27802 C 2566.93 1.58289 1.70433 0
M  V30 27803 C 2567.92 0.450985 1.63287 0
M  V30 27804 O 2569.13 0.62815 1.68684 0
M  V30 27805 H 2565.5 0.497819 0.563632 0
M  V30 27806 H 2567.48 2.53245 1.57828 0
M  V30 27807 C 2566.22 1.59781 3.08813 0
M  V30 27808 H 2565.55 2.4622 3.14985 0
M  V30 27809 H 2566.99 1.71912 3.87585 0
M  V30 27810 C 2565.45 0.327871 3.35301 0
M  V30 27811 O 2565.98 -0.57854 3.97512 0
M  V30 27812 N 2564.18 0.213325 2.89816 0
M  V30 27813 H 2563.73 0.95184 2.3937 0
M  V30 27814 H 2563.69 -0.635476 3.07911 0
M  V30 27815 N 2567.46 -0.820078 1.34583 0
M  V30 27816 C 2568.74 -1.56241 1.17677 0
M  V30 27817 C 2569.12 -2.0962 -0.249504 0
M  V30 27818 O 2568.46 -1.91198 -1.25122 0
M  V30 27819 C 2568.67 -2.68156 2.23369 0
M  V30 27820 C 2570.02 -3.36849 2.58491 0
M  V30 27821 O 2571.05 -2.78415 2.2218 0
M  V30 27822 O 2569.91 -4.42381 3.20876 0
M  V30 27823 H 2567 -0.689694 0.456345 0
M  V30 27824 H 2569.55 -0.861205 1.46224 0
M  V30 27825 H 2568.32 -2.26487 3.19091 0
M  V30 27826 H 2567.94 -3.45924 1.96015 0
M  V30 27827 N 2568.94 -1.18359 -1.04062 0
M  V30 27828 C 2569.89 -0.907045 -2.14186 0
M  V30 27829 C 2570.88 0.132695 -1.68879 0
M  V30 27830 O 2572.09 -0.0154565 -1.79993 0
M  V30 27831 H 2568.46 -0.275848 -0.69958 0
M  V30 27832 H 2570.43 -1.84268 -2.34708 0
M  V30 27833 C 2569.18 -0.449314 -3.44785 0
M  V30 27834 H 2568.5 -1.24088 -3.80056 0
M  V30 27835 H 2569.94 -0.294811 -4.22974 0
M  V30 27836 C 2568.4 0.834852 -3.26392 0
M  V30 27837 O 2568.93 1.89905 -3.53976 0
M  V30 27838 N 2567.14 0.787473 -2.79727 0
M  V30 27839 H 2566.69 -0.0787799 -2.5748 0
M  V30 27840 H 2566.64 1.64711 -2.67801 0
M  V30 27841 N 2570.42 1.22976 -0.98563 0
M  V30 27842 C 2571.65 1.95275 -0.674637 0
M  V30 27843 C 2572.05 1.73113 0.763453 0
M  V30 27844 O 2571.4 1.02271 1.52599 0
M  V30 27845 C 2571.46 3.48267 -0.891658 0
M  V30 27846 C 2571.12 3.94154 -2.31282 0
M  V30 27847 C 2572.12 4.02409 -3.29186 0
M  V30 27848 C 2569.8 4.26999 -2.64531 0
M  V30 27849 C 2571.8 4.42871 -4.58415 0
M  V30 27850 C 2569.49 4.67142 -3.93982 0
M  V30 27851 C 2570.48 4.75045 -4.90736 0
M  V30 27852 O 2570.17 5.14283 -6.17874 0
M  V30 27853 H 2569.9 0.628366 -0.249262 0
M  V30 27854 H 2572.46 1.57278 -1.32109 0
M  V30 27855 H 2570.69 3.86243 -0.18803 0
M  V30 27856 H 2572.38 4.01778 -0.577028 0
M  V30 27857 H 2573.14 3.77232 -3.0483 0
M  V30 27858 H 2569.02 4.20057 -1.8993 0
M  V30 27859 H 2572.57 4.48954 -5.33934 0
M  V30 27860 H 2568.46 4.91769 -4.1813 0
M  V30 27861 H 2569.23 5.32379 -6.21704 0
M  V30 27862 N 2571.89 0.757924 1.38178 0
M  V30 27863 C 2572.82 0.148638 2.33026 0
M  V30 27864 C 2573.8 -0.698723 1.55087 0
M  V30 27865 O 2574.99 -0.63902 1.83385 0
M  V30 27866 C 2572.12 -0.741975 3.39282 0
M  V30 27867 C 2571.07 0.00299469 4.28 0
M  V30 27868 C 2570.4 -1.00615 5.25148 0
M  V30 27869 C 2571.7 1.17394 5.08936 0
M  V30 27870 H 2573.39 0.940959 2.84229 0
M  V30 27871 H 2570.94 0.453932 1.36658 0
M  V30 27872 H 2572.89 -1.17792 4.04602 0
M  V30 27873 H 2571.62 -1.56666 2.86571 0
M  V30 27874 H 2570.28 0.419568 3.64191 0
M  V30 27875 H 2569.92 -1.82502 4.68724 0
M  V30 27876 H 2569.62 -0.512325 5.85362 0
M  V30 27877 H 2571.15 -1.44133 5.93345 0
M  V30 27878 H 2572.56 0.815324 5.67473 0
M  V30 27879 H 2570.96 1.59892 5.78407 0
M  V30 27880 H 2572.03 1.98475 4.4242 0
M  V30 27881 N 2573.37 -1.4921 0.507345 0
M  V30 27882 C 2574.6 -2.07373 -0.0336885 0
M  V30 27883 C 2575.02 -1.3644 -1.29483 0
M  V30 27884 O 2574.38 -0.423118 -1.76294 0
M  V30 27885 C 2574.43 -3.59633 -0.263882 0
M  V30 27886 O 2573.53 -3.90115 -1.33731 0
M  V30 27887 H 2572.87 -0.663364 0.0290447 0
M  V30 27888 H 2575.4 -1.91931 0.708783 0
M  V30 27889 H 2575.41 -4.05005 -0.493464 0
M  V30 27890 H 2574.09 -4.1067 0.657496 0
M  V30 27891 H 2572.67 -3.56547 -1.09217 0
M  V30 27892 N 2574.85 -0.241454 -1.55739 0
M  V30 27893 C 2576.08 0.392076 -2.0366 0
M  V30 27894 C 2576.5 1.51142 -1.11971 0
M  V30 27895 O 2575.86 1.80956 -0.111626 0
M  V30 27896 C 2575.91 0.882309 -3.49639 0
M  V30 27897 O 2575.01 1.99229 -3.61084 0
M  V30 27898 H 2574.35 0.0862006 -0.658381 0
M  V30 27899 H 2576.88 -0.365917 -2.01301 0
M  V30 27900 H 2576.89 1.18695 -3.90353 0
M  V30 27901 H 2575.57 0.063163 -4.15852 0
M  V30 27902 H 2574.14 1.69276 -3.32265 0
M  V30 27903 N 2576.33 1.57568 0.0317248 0
M  V30 27904 C 2577.24 2.09782 1.05018 0
M  V30 27905 C 2578.25 1.03586 1.39807 0
M  V30 27906 O 2579.43 1.35305 1.4918 0
M  V30 27907 C 2576.5 2.56463 2.33297 0
M  V30 27908 C 2575.56 3.7713 2.05113 0
M  V30 27909 C 2574.79 4.21576 3.27276 0
M  V30 27910 O 2575.01 3.65567 4.37855 0
M  V30 27911 O 2573.95 5.14035 3.13132 0
M  V30 27912 H 2577.77 2.96956 0.636453 0
M  V30 27913 H 2575.36 1.47318 0.248533 0
M  V30 27914 H 2577.24 2.86831 3.08717 0
M  V30 27915 H 2575.91 1.72401 2.7397 0
M  V30 27916 H 2574.82 3.51786 1.27269 0
M  V30 27917 H 2576.15 4.62168 1.69297 0
M  V30 27918 N 2577.81 -0.303946 1.54641 0
M  V30 27919 C 2578.72 -1.3974 1.88441 0
M  V30 27920 C 2579.73 -1.55625 0.778266 0
M  V30 27921 O 2580.91 -1.70345 1.07445 0
M  V30 27922 C 2577.97 -2.74162 2.12217 0
M  V30 27923 C 2577.03 -2.67287 3.35941 0
M  V30 27924 C 2576.27 -3.95298 3.58573 0
M  V30 27925 O 2576.49 -4.94515 2.84272 0
M  V30 27926 O 2575.42 -3.9737 4.52085 0
M  V30 27927 H 2579.25 -1.14078 2.8146 0
M  V30 27928 H 2576.84 -0.499744 1.40794 0
M  V30 27929 H 2578.72 -3.53699 2.29073 0
M  V30 27930 H 2577.39 -2.99673 1.22384 0
M  V30 27931 H 2576.3 -1.86232 3.24451 0
M  V30 27932 H 2577.63 -2.46729 4.25894 0
M  V30 27933 N 2579.28 -1.47047 -0.566994 0
M  V30 27934 C 2580.21 -1.6167 -1.68479 0
M  V30 27935 C 2581.2 -0.466447 -1.6358 0
M  V30 27936 O 2582.38 -0.694606 -1.81353 0
M  V30 27937 C 2579.51 -1.62153 -3.07122 0
M  V30 27938 C 2578.46 -2.76307 -3.26862 0
M  V30 27939 C 2577.79 -2.61858 -4.66192 0
M  V30 27940 C 2579.09 -4.17991 -3.13178 0
M  V30 27941 H 2580.78 -2.55243 -1.56497 0
M  V30 27942 H 2578.33 -1.22837 -0.751465 0
M  V30 27943 H 2580.28 -1.70975 -3.85157 0
M  V30 27944 H 2579.01 -0.651343 -3.20039 0
M  V30 27945 H 2577.67 -2.6698 -2.51232 0
M  V30 27946 H 2577.31 -1.62888 -4.75896 0
M  V30 27947 H 2577.01 -3.38434 -4.8035 0
M  V30 27948 H 2578.54 -2.72593 -5.46375 0
M  V30 27949 H 2579.95 -4.28346 -3.81041 0
M  V30 27950 H 2578.35 -4.95278 -3.38851 0
M  V30 27951 H 2579.42 -4.37044 -2.10049 0
M  V30 27952 N 2580.76 0.812929 -1.35016 0
M  V30 27953 C 2581.71 1.94582 -1.27438 0
M  V30 27954 C 2582.7 1.6854 -0.170523 0
M  V30 27955 O 2583.91 1.76834 -0.336117 0
M  V30 27956 H 2580.29 0.639191 -0.396155 0
M  V30 27957 H 2582.26 1.98094 -2.23162 0
M  V30 27958 C 2581.01 3.3125 -1.05683 0
M  V30 27959 H 2580.33 3.51843 -1.89859 0
M  V30 27960 H 2581.77 4.10941 -1.0442 0
M  V30 27961 C 2580.23 3.36047 0.239556 0
M  V30 27962 O 2580.76 3.82163 1.23753 0
M  V30 27963 N 2578.96 2.89285 0.276135 0
M  V30 27964 H 2578.51 2.5195 -0.536574 0
M  V30 27965 H 2578.47 2.92877 1.14327 0
M  V30 27966 N 2582.24 1.18909 1.03433 0
M  V30 27967 C 2583.47 1.01345 1.8038 0
M  V30 27968 C 2583.88 -0.437973 1.8365 0
M  V30 27969 O 2583.24 -1.30422 1.27657 0
M  V30 27970 C 2583.29 1.56879 3.25686 0
M  V30 27971 O 2583.01 2.96339 3.22668 0
M  V30 27972 C 2584.51 1.44022 4.19253 0
M  V30 27973 H 2581.73 0.3575 0.567833 0
M  V30 27974 H 2584.28 1.57602 1.30315 0
M  V30 27975 H 2582.43 1.04783 3.7296 0
M  V30 27976 H 2582.85 3.22362 4.13742 0
M  V30 27977 H 2584.32 1.87666 5.1912 0
M  V30 27978 H 2584.8 0.389892 4.37466 0
M  V30 27979 H 2585.4 1.95221 3.77848 0
M  V30 27980 N 2583.72 -1.22452 0.992137 0
M  V30 27981 C 2585 -1.86693 0.583541 0
M  V30 27982 C 2585.38 -1.89058 -0.939166 0
M  V30 27983 O 2584.72 -1.38056 -1.82079 0
M  V30 27984 C 2584.93 -3.27607 1.20309 0
M  V30 27985 C 2586.28 -4.04108 1.30315 0
M  V30 27986 O 2587.31 -3.36871 1.15743 0
M  V30 27987 O 2586.16 -5.24463 1.53625 0
M  V30 27988 H 2583.26 -0.802912 0.198143 0
M  V30 27989 H 2585.8 -1.30236 1.08797 0
M  V30 27990 H 2584.58 -3.20516 2.24467 0
M  V30 27991 H 2584.2 -3.91669 0.684213 0
M  V30 27992 N 2585.2 -0.765242 -1.37774 0
M  V30 27993 C 2586.11 -0.147707 -2.34135 0
M  V30 27994 C 2587.12 0.687187 -1.59855 0
M  V30 27995 O 2588.3 0.608626 -1.91984 0
M  V30 27996 C 2585.36 0.726111 -3.39011 0
M  V30 27997 C 2584.42 -0.124492 -4.29119 0
M  V30 27998 C 2583.66 0.707715 -5.28987 0
M  V30 27999 O 2583.88 1.94515 -5.36209 0
M  V30 28000 O 2582.81 0.120354 -6.0178 0
M  V30 28001 H 2586.64 -0.943808 -2.88662 0
M  V30 28002 H 2584.23 -0.526302 -1.39823 0
M  V30 28003 H 2586.11 1.22517 -4.03197 0
M  V30 28004 H 2584.78 1.50051 -2.86821 0
M  V30 28005 H 2583.69 -0.669761 -3.68056 0
M  V30 28006 H 2585.02 -0.861821 -4.84596 0
M  V30 28007 N 2586.67 1.48939 -0.515251 0
M  V30 28008 C 2587.9 2.0659 0.0205372 0
M  V30 28009 C 2588.31 1.37407 1.30061 0
M  V30 28010 O 2587.66 0.450663 1.78086 0
M  V30 28011 C 2587.72 3.57982 0.330061 0
M  V30 28012 C 2587.38 4.48943 -0.854374 0
M  V30 28013 C 2588.38 4.89605 -1.74879 0
M  V30 28014 C 2586.06 4.91048 -1.05721 0
M  V30 28015 C 2588.06 5.71127 -2.83006 0
M  V30 28016 C 2585.74 5.72343 -2.14164 0
M  V30 28017 C 2586.74 6.12289 -3.02641 0
M  V30 28018 O 2586.43 6.91955 -4.0921 0
M  V30 28019 H 2586.16 0.675585 -0.0236952 0
M  V30 28020 H 2588.72 1.92517 -0.71599 0
M  V30 28021 H 2586.95 3.70114 1.12037 0
M  V30 28022 H 2588.64 3.97814 0.806163 0
M  V30 28023 H 2589.4 4.5771 -1.60396 0
M  V30 28024 H 2585.28 4.59449 -0.377869 0
M  V30 28025 H 2588.82 6.02226 -3.52094 0
M  V30 28026 H 2584.72 6.03652 -2.28637 0
M  V30 28027 H 2585.49 7.10286 -4.06739 0
M  V30 28028 N 2588.15 0.249709 1.55609 0
M  V30 28029 C 2589.43 -0.424727 1.90933 0
M  V30 28030 C 2589.81 -1.75656 1.17081 0
M  V30 28031 O 2589.16 -2.26662 0.289216 0
M  V30 28032 C 2589.37 -0.590049 3.43976 0
M  V30 28033 C 2590.72 -0.884641 4.15282 0
M  V30 28034 O 2591.74 -0.675809 3.4973 0
M  V30 28035 O 2590.6 -1.2825 5.31238 0
M  V30 28036 H 2587.69 -0.228454 0.794819 0
M  V30 28037 H 2590.24 0.293984 1.67134 0
M  V30 28038 H 2589.01 0.348248 3.89747 0
M  V30 28039 H 2588.63 -1.35919 3.73646 0
M  V30 28040 N 2589.63 -1.57583 -0.0233682 0
M  V30 28041 C 2590.91 -1.80701 -0.748762 0
M  V30 28042 C 2591.29 -0.84914 -1.93269 0
M  V30 28043 O 2590.64 0.107428 -2.28247 0
M  V30 28044 C 2590.85 -3.28573 -1.17646 0
M  V30 28045 C 2592.19 -3.93705 -1.59001 0
M  V30 28046 O 2593.22 -3.32757 -1.27088 0
M  V30 28047 O 2592.08 -5.01026 -2.18255 0
M  V30 28048 H 2589.17 -0.743287 -0.362564 0
M  V30 28049 H 2591.72 -1.697 0.000291787 0
M  V30 28050 H 2590.49 -3.89893 -0.331534 0
M  V30 28051 H 2590.11 -3.44485 -1.98535 0
M  V30 28052 N 2591.11 0.29574 -1.548 0
M  V30 28053 C 2592.39 1.0502 -1.65016 0
M  V30 28054 C 2592.77 2.05048 -0.501841 0
M  V30 28055 O 2592.11 2.22944 0.50083 0
M  V30 28056 C 2592.32 1.72736 -3.03255 0
M  V30 28057 C 2593.67 2.24739 -3.60246 0
M  V30 28058 O 2594.7 1.8276 -3.05741 0
M  V30 28059 O 2593.56 3.01673 -4.55693 0
M  V30 28060 H 2590.65 0.485732 -0.669323 0
M  V30 28061 H 2593.2 0.293409 -1.67144 0
M  V30 28062 H 2591.97 1.00131 -3.78272 0
M  V30 28063 H 2591.59 2.55158 -3.04927 0
M  V30 28064 N 2592.59 1.47346 0.559187 0
M  V30 28065 C 2593.82 1.57253 1.33996 0
M  V30 28066 C 2594.23 0.221011 1.87905 0
M  V30 28067 O 2593.57 -0.795588 1.65578 0
M  V30 28068 C 2593.63 2.53615 2.54793 0
M  V30 28069 C 2593.29 3.99353 2.22185 0
M  V30 28070 C 2594.29 4.87894 1.79598 0
M  V30 28071 C 2591.98 4.44673 2.33605 0
M  V30 28072 C 2593.97 6.19774 1.48858 0
M  V30 28073 C 2591.66 5.76581 2.02477 0
M  V30 28074 C 2592.66 6.63954 1.60171 0
M  V30 28075 O 2592.34 7.93411 1.29437 0
M  V30 28076 H 2592.08 0.533738 0.414849 0
M  V30 28077 H 2594.63 1.93661 0.684431 0
M  V30 28078 H 2592.86 2.1227 3.23231 0
M  V30 28079 H 2594.55 2.53671 3.16868 0
M  V30 28080 H 2595.31 4.54129 1.7027 0
M  V30 28081 H 2591.19 3.76874 2.65494 0
M  V30 28082 H 2594.74 6.87928 1.15763 0
M  V30 28083 H 2590.63 6.09889 2.11437 0
M  V30 28084 H 2591.4 8.05897 1.43084 0
M  V30 28085 N 2594.07 -0.805758 1.35445 0
M  V30 28086 C 2595.3 -1.5919 1.3169 0
M  V30 28087 C 2595.7 -1.88894 -0.107526 0
M  V30 28088 O 2595.05 -1.4931 -1.07014 0
M  V30 28089 C 2595.11 -2.94841 2.05692 0
M  V30 28090 C 2594.77 -2.87948 3.54873 0
M  V30 28091 C 2595.77 -2.61327 4.49449 0
M  V30 28092 C 2593.45 -3.07039 3.97533 0
M  V30 28093 C 2595.45 -2.53874 5.84659 0
M  V30 28094 C 2593.14 -2.9921 5.32838 0
M  V30 28095 C 2594.13 -2.72663 6.26214 0
M  V30 28096 O 2593.82 -2.64798 7.59037 0
M  V30 28097 H 2593.55 -0.500962 0.453887 0
M  V30 28098 H 2596.11 -1.00927 1.78894 0
M  V30 28099 H 2594.34 -3.5509 1.53126 0
M  V30 28100 H 2596.03 -3.55989 1.95004 0
M  V30 28101 H 2596.79 -2.46296 4.17808 0
M  V30 28102 H 2592.67 -3.26712 3.25238 0
M  V30 28103 H 2596.22 -2.33074 6.57512 0
M  V30 28104 H 2592.11 -3.13799 5.64093 0
M  V30 28105 H 2592.88 -2.804 7.68972 0
M  V30 28106 N 2595.54 -1.19456 -1.02801 0
M  V30 28107 C 2596.77 -1.02152 -1.79579 0
M  V30 28108 C 2597.18 0.432819 -1.84183 0
M  V30 28109 O 2596.52 1.3124 -1.28537 0
M  V30 28110 C 2596.59 -1.5156 -3.2599 0
M  V30 28111 C 2596.25 -2.99684 -3.4502 0
M  V30 28112 C 2597.25 -3.9744 -3.35168 0
M  V30 28113 C 2594.93 -3.38396 -3.71206 0
M  V30 28114 C 2596.93 -5.31899 -3.51229 0
M  V30 28115 C 2594.61 -4.73014 -3.86912 0
M  V30 28116 C 2595.61 -5.69575 -3.76926 0
M  V30 28117 O 2595.3 -7.01755 -3.92167 0
M  V30 28118 H 2595.03 -0.360337 -0.571955 0
M  V30 28119 H 2597.59 -1.58727 -1.30365 0
M  V30 28120 H 2595.82 -0.893609 -3.76233 0
M  V30 28121 H 2597.5 -1.30451 -3.84366 0
M  V30 28122 H 2598.27 -3.68877 -3.14888 0
M  V30 28123 H 2594.15 -2.63787 -3.78071 0
M  V30 28124 H 2597.69 -6.07253 -3.43351 0
M  V30 28125 H 2593.59 -5.01272 -4.0669 0
M  V30 28126 H 2594.36 -7.0884 -4.09253 0
M  V30 28127 N 2597.02 1.21924 -0.998617 0
M  V30 28128 C 2598.3 1.86381 -0.593434 0
M  V30 28129 C 2598.68 1.89553 0.929127 0
M  V30 28130 O 2598.03 1.3902 1.81344 0
M  V30 28131 C 2598.24 3.26965 -1.22045 0
M  V30 28132 C 2599.58 4.03411 -1.32456 0
M  V30 28133 O 2600.61 3.36252 -1.17528 0
M  V30 28134 O 2599.47 5.23641 -1.56404 0
M  V30 28135 H 2596.56 0.80185 -0.202399 0
M  V30 28136 H 2599.11 1.29657 -1.09486 0
M  V30 28137 H 2597.88 3.19321 -2.26163 0
M  V30 28138 H 2597.5 3.913 -0.704975 0
M  V30 28139 N 2598.5 0.772537 1.37367 0
M  V30 28140 C 2599.41 0.160122 2.34053 0
M  V30 28141 C 2600.43 -0.6787 1.60218 0
M  V30 28142 O 2601.6 -0.598436 1.92304 0
M  V30 28143 C 2598.67 -0.708122 3.39391 0
M  V30 28144 C 2597.73 0.147248 4.29047 0
M  V30 28145 C 2596.96 -0.679651 5.29355 0
M  V30 28146 O 2597.18 -1.91669 5.37233 0
M  V30 28147 O 2596.12 -0.0884386 6.01835 0
M  V30 28148 H 2599.94 0.959103 2.88158 0
M  V30 28149 H 2597.53 0.53371 1.39542 0
M  V30 28150 H 2599.41 -1.20377 4.03841 0
M  V30 28151 H 2598.09 -1.48528 2.87613 0
M  V30 28152 H 2596.99 0.68927 3.67695 0
M  V30 28153 H 2598.33 0.887508 4.84132 0
M  V30 28154 N 2599.98 -1.48664 0.523142 0
M  V30 28155 C 2601.25 -1.95446 -0.0775105 0
M  V30 28156 C 2601.63 -1.46523 -1.51968 0
M  V30 28157 O 2600.98 -0.688695 -2.17874 0
M  V30 28158 C 2601.19 -3.48985 0.0326748 0
M  V30 28159 C 2602.54 -4.24401 -0.130066 0
M  V30 28160 O 2603.56 -3.56176 -0.0414516 0
M  V30 28161 O 2602.42 -5.45592 -0.314814 0
M  V30 28162 H 2599.52 -0.822816 -0.0830868 0
M  V30 28163 H 2602.06 -1.59215 0.587255 0
M  V30 28164 H 2600.84 -3.77294 1.03754 0
M  V30 28165 H 2600.46 -3.91893 -0.671248 0
M  V30 28166 N 2601.46 -0.257958 -1.55475 0
M  V30 28167 C 2602.37 0.647386 -2.25491 0
M  V30 28168 C 2603.38 1.18424 -1.27482 0
M  V30 28169 O 2604.56 1.21817 -1.60382 0
M  V30 28170 C 2601.62 1.82273 -2.94919 0
M  V30 28171 C 2600.68 1.32425 -4.08365 0
M  V30 28172 C 2599.92 2.44357 -4.74474 0
M  V30 28173 O 2600.14 3.63336 -4.39708 0
M  V30 28174 O 2599.07 2.13487 -5.62767 0
M  V30 28175 H 2602.9 0.0807173 -3.03593 0
M  V30 28176 H 2600.48 -0.0260225 -1.49377 0
M  V30 28177 H 2602.37 2.5084 -3.38611 0
M  V30 28178 H 2601.04 2.37681 -2.19748 0
M  V30 28179 H 2599.95 0.60554 -3.69167 0
M  V30 28180 H 2601.28 0.816126 -4.85387 0
M  V30 28181 N 2602.93 1.57593 0.0150108 0
M  V30 28182 C 2603.84 2.10884 1.02787 0
M  V30 28183 C 2604.86 1.05063 1.387 0
M  V30 28184 O 2606.04 1.36879 1.47736 0
M  V30 28185 C 2603.1 2.58923 2.30564 0
M  V30 28186 C 2602.16 3.79284 2.01102 0
M  V30 28187 C 2601.4 4.25023 3.22786 0
M  V30 28188 O 2601.62 3.70191 4.33953 0
M  V30 28189 O 2600.55 5.17327 3.07662 0
M  V30 28190 H 2604.38 2.97615 0.604921 0
M  V30 28191 H 2601.96 1.47574 0.232894 0
M  V30 28192 H 2603.85 2.90089 3.05657 0
M  V30 28193 H 2602.52 1.75297 2.72126 0
M  V30 28194 H 2601.43 3.53116 1.23531 0
M  V30 28195 H 2602.76 4.63938 1.64386 0
M  V30 28196 N 2604.41 -0.287527 1.54955 0
M  V30 28197 C 2605.69 -1.04143 1.6557 0
M  V30 28198 C 2606.07 -2.04779 0.512708 0
M  V30 28199 O 2605.42 -2.23206 -0.488999 0
M  V30 28200 C 2605.63 -1.71125 3.04166 0
M  V30 28201 C 2606.98 -2.22826 3.61433 0
M  V30 28202 O 2608 -1.81136 3.06705 0
M  V30 28203 O 2606.86 -2.99252 4.57286 0
M  V30 28204 H 2603.95 -0.482176 0.671889 0
M  V30 28205 H 2606.5 -0.284541 1.67298 0
M  V30 28206 H 2605.27 -0.981236 3.78797 0
M  V30 28207 H 2604.89 -2.53537 3.06275 0
M  V30 28208 N 2605.89 -1.47641 -0.551365 0
M  V30 28209 C 2607.17 -1.45048 -1.31227 0
M  V30 28210 C 2607.55 -0.150564 -2.10562 0
M  V30 28211 O 2606.9 0.867919 -2.11375 0
M  V30 28212 C 2607.11 -2.6996 -2.21184 0
M  V30 28213 C 2608.45 -3.17415 -2.82016 0
M  V30 28214 O 2609.48 -2.70728 -2.31483 0
M  V30 28215 O 2608.34 -3.98595 -3.73878 0
M  V30 28216 H 2605.43 -0.578301 -0.591182 0
M  V30 28217 H 2607.98 -1.59848 -0.569785 0
M  V30 28218 H 2606.75 -3.56099 -1.62201 0
M  V30 28219 H 2606.37 -2.57775 -3.02718 0
M  V30 28220 N 2607.37 0.798563 -1.3587 0
M  V30 28221 C 2608.6 1.58489 -1.32532 0
M  V30 28222 C 2609.01 1.88949 0.0975073 0
M  V30 28223 O 2608.35 1.49876 1.06221 0
M  V30 28224 C 2608.41 2.93746 -2.07252 0
M  V30 28225 C 2608.08 2.86062 -3.56396 0
M  V30 28226 C 2609.07 2.58939 -4.50829 0
M  V30 28227 C 2606.76 3.04926 -3.99156 0
M  V30 28228 C 2608.75 2.5077 -5.85998 0
M  V30 28229 C 2606.44 2.9638 -5.34418 0
M  V30 28230 C 2607.44 2.69338 -6.27651 0
M  V30 28231 O 2607.12 2.60769 -7.60431 0
M  V30 28232 H 2606.86 0.498548 -0.456537 0
M  V30 28233 H 2609.41 0.999767 -1.79426 0
M  V30 28234 H 2607.64 3.54273 -1.55007 0
M  V30 28235 H 2609.33 3.5495 -1.96889 0
M  V30 28236 H 2610.1 2.44076 -4.19108 0
M  V30 28237 H 2605.97 3.24983 -3.26966 0
M  V30 28238 H 2609.52 2.29584 -6.58739 0
M  V30 28239 H 2605.42 3.10803 -5.65749 0
M  V30 28240 H 2606.18 2.76318 -7.70448 0
M  V30 28241 N 2608.85 1.19999 1.02166 0
M  V30 28242 C 2610.12 0.916221 1.72814 0
M  V30 28243 C 2610.5 -0.576289 2.03082 0
M  V30 28244 O 2609.85 -1.53653 1.69124 0
M  V30 28245 C 2610.06 1.78384 2.99967 0
M  V30 28246 C 2611.41 2.02257 3.73332 0
M  V30 28247 O 2612.43 1.75595 3.09911 0
M  V30 28248 O 2611.29 2.47257 4.87367 0
M  V30 28249 H 2608.39 0.342117 0.752918 0
M  V30 28250 H 2610.93 1.30848 1.0806 0
M  V30 28251 H 2609.7 2.79471 2.73883 0
M  V30 28252 H 2609.33 1.39132 3.72462 0
M  V30 28253 N 2610.32 -1.21392 1.00507 0
M  V30 28254 C 2611.6 -1.86063 0.60331 0
M  V30 28255 C 2611.98 -1.90043 -0.919062 0
M  V30 28256 O 2611.33 -1.3998 -1.80604 0
M  V30 28257 C 2611.54 -3.26313 1.23777 0
M  V30 28258 C 2612.89 -4.02703 1.34594 0
M  V30 28259 O 2613.91 -3.35624 1.1931 0
M  V30 28260 O 2612.77 -5.22804 1.59179 0
M  V30 28261 H 2609.86 -0.800766 0.206648 0
M  V30 28262 H 2612.41 -1.29075 1.10172 0
M  V30 28263 H 2611.18 -3.18117 2.27853 0
M  V30 28264 H 2610.81 -3.90921 0.725716 0
M  V30 28265 N 2611.8 -0.779811 -1.36955 0
M  V30 28266 C 2613.08 -0.27219 -1.93697 0
M  V30 28267 C 2613.46 1.2341 -1.7127 0
M  V30 28268 O 2612.81 2.02105 -1.06611 0
M  V30 28269 C 2613.02 -0.654351 -3.42811 0
M  V30 28270 C 2614.37 -0.628676 -4.1992 0
M  V30 28271 O 2615.39 -0.594234 -3.51208 0
M  V30 28272 O 2614.25 -0.662959 -5.42464 0
M  V30 28273 H 2611.34 -0.0649431 -0.824446 0
M  V30 28274 H 2613.89 -0.861708 -1.46194 0
M  V30 28275 H 2612.66 -1.69359 -3.52751 0
M  V30 28276 H 2612.28 -0.0382068 -3.97582 0
M  V30 28277 N 2613.28 1.48384 -0.531019 0
M  V30 28278 C 2614.23 2.31311 0.244554 0
M  V30 28279 C 2615.22 1.41293 0.934485 0
M  V30 28280 O 2616.43 1.58194 0.858752 0
M  V30 28281 H 2612.8 0.745622 0.097734 0
M  V30 28282 H 2614.77 2.94604 -0.474421 0
M  V30 28283 C 2613.52 3.23367 1.27785 0
M  V30 28284 H 2612.85 3.9258 0.75637 0
M  V30 28285 H 2614.29 3.84274 1.79191 0
M  V30 28286 C 2612.75 2.45046 2.31201 0
M  V30 28287 O 2613.28 2.17602 3.37657 0
M  V30 28288 N 2611.48 2.06523 2.04442 0
M  V30 28289 H 2611.03 2.29042 1.17887 0
M  V30 28290 H 2610.99 1.54432 2.73858 0
M  V30 28291 N 2614.76 0.2662 1.55336 0
M  V30 28292 C 2616.04 -0.404452 1.91373 0
M  V30 28293 C 2616.42 -1.74405 1.18938 0
M  V30 28294 O 2615.76 -2.26343 0.31324 0
M  V30 28295 C 2615.97 -0.553532 3.44582 0
M  V30 28296 C 2617.32 -0.840545 4.16197 0
M  V30 28297 O 2618.35 -0.638677 3.50427 0
M  V30 28298 O 2617.2 -1.22608 5.32569 0
M  V30 28299 H 2614.3 -0.220011 0.797198 0
M  V30 28300 H 2616.84 0.311694 1.66813 0
M  V30 28301 H 2615.62 0.389566 3.89356 0
M  V30 28302 H 2615.24 -1.31949 3.75067 0
M  V30 28303 N 2616.24 -1.57599 -0.0066531 0
M  V30 28304 C 2617.51 -1.81485 -0.729554 0
M  V30 28305 C 2617.89 -0.869591 -1.92357 0
M  V30 28306 O 2617.24 0.0832132 -2.28348 0
M  V30 28307 C 2617.45 -3.29803 -1.14154 0
M  V30 28308 C 2618.8 -3.95369 -1.54816 0
M  V30 28309 O 2619.82 -3.34086 -1.23552 0
M  V30 28310 O 2618.68 -5.03313 -2.12929 0
M  V30 28311 H 2615.78 -0.747091 -0.354661 0
M  V30 28312 H 2618.32 -1.6969 0.0182907 0
M  V30 28313 H 2617.09 -3.90223 -0.290162 0
M  V30 28314 H 2616.72 -3.46571 -1.9487 0
M  V30 28315 N 2617.72 0.279305 -1.55105 0
M  V30 28316 C 2618.99 1.03264 -1.6612 0
M  V30 28317 C 2619.37 2.04504 -0.523561 0
M  V30 28318 O 2618.72 2.23462 0.477155 0
M  V30 28319 C 2618.93 1.6951 -3.0507 0
M  V30 28320 C 2620.28 2.20906 -3.6261 0
M  V30 28321 O 2621.3 1.79507 -3.07662 0
M  V30 28322 O 2620.16 2.96823 -4.58867 0
M  V30 28323 H 2617.26 0.478606 -0.674437 0
M  V30 28324 H 2619.8 0.275664 -1.67446 0
M  V30 28325 H 2618.57 0.961134 -3.79312 0
M  V30 28326 H 2618.2 2.51909 -3.07616 0
M  V30 28327 N 2619.19 1.47931 0.543528 0
M  V30 28328 C 2620.47 1.45742 1.30456 0
M  V30 28329 C 2620.85 0.161729 2.1048 0
M  V30 28330 O 2620.2 -0.856697 2.11832 0
M  V30 28331 C 2620.41 2.71129 2.1975 0
M  V30 28332 C 2621.76 3.18906 2.80329 0
M  V30 28333 O 2622.78 2.71952 2.30044 0
M  V30 28334 O 2621.64 4.00572 3.71759 0
M  V30 28335 H 2618.73 0.581428 0.588107 0
M  V30 28336 H 2621.28 1.60148 0.5613 0
M  V30 28337 H 2620.05 3.56954 1.6031 0
M  V30 28338 H 2619.67 2.59376 3.01346 0
M  V30 28339 N 2620.67 -0.791347 1.36292 0
M  V30 28340 C 2621.95 -1.5371 1.20965 0
M  V30 28341 C 2622.33 -2.10102 -0.204984 0
M  V30 28342 O 2621.68 -1.93809 -1.21038 0
M  V30 28343 C 2621.89 -2.63357 2.29006 0
M  V30 28344 C 2623.23 -3.31291 2.65578 0
M  V30 28345 O 2624.26 -2.73639 2.28035 0
M  V30 28346 O 2623.12 -4.35475 3.30188 0
M  V30 28347 H 2620.21 -0.679859 0.470872 0
M  V30 28348 H 2622.76 -0.829995 1.48017 0
M  V30 28349 H 2621.53 -2.19668 3.23823 0
M  V30 28350 H 2621.15 -3.41689 2.03309 0
M  V30 28351 N 2622.15 -1.2054 -1.01528 0
M  V30 28352 C 2623.43 -0.925373 -1.72326 0
M  V30 28353 C 2623.81 0.565511 -2.03384 0
M  V30 28354 O 2623.15 1.52754 -1.69937 0
M  V30 28355 C 2623.36 -1.79972 -2.99017 0
M  V30 28356 C 2624.71 -2.04235 -3.72255 0
M  V30 28357 O 2625.74 -1.77236 -3.08975 0
M  V30 28358 O 2624.6 -2.49838 -4.86048 0
M  V30 28359 H 2621.69 -0.346105 -0.751093 0
M  V30 28360 H 2624.24 -1.31419 -1.07364 0
M  V30 28361 H 2623.01 -2.80919 -2.72397 0
M  V30 28362 H 2622.63 -1.41106 -3.71719 0
M  V30 28363 N 2623.63 1.20858 -1.01149 0
M  V30 28364 C 2624.88 1.89718 -0.69652 0
M  V30 28365 C 2625.2 1.78905 0.775756 0
M  V30 28366 O 2624.47 1.18814 1.55757 0
M  V30 28367 H 2623.05 0.702259 -0.25464 0
M  V30 28368 H 2625.71 1.46802 -1.282 0
M  V30 28369 H 2624.8 2.96466 -0.97541 0
M  V30 28370 N 2625.11 0.787064 1.3654 0
M  V30 28371 C 2626.02 0.184937 2.3387 0
M  V30 28372 C 2627.03 -0.661668 1.60928 0
M  V30 28373 O 2628.21 -0.578006 1.92928 0
M  V30 28374 C 2625.27 -0.672085 3.40123 0
M  V30 28375 C 2624.33 0.192746 4.28867 0
M  V30 28376 C 2623.57 -0.623468 5.30046 0
M  V30 28377 O 2623.79 -1.8596 5.39236 0
M  V30 28378 O 2622.72 -0.024601 6.01895 0
M  V30 28379 H 2626.55 0.989613 2.87124 0
M  V30 28380 H 2624.13 0.54848 1.38968 0
M  V30 28381 H 2626.02 -1.16087 4.05095 0
M  V30 28382 H 2624.69 -1.45469 2.89172 0
M  V30 28383 H 2623.6 0.72823 3.66944 0
M  V30 28384 H 2624.93 0.938807 4.83164 0
M  V30 28385 N 2626.58 -1.48101 0.53888 0
M  V30 28386 C 2627.86 -1.95518 -0.0567765 0
M  V30 28387 C 2628.24 -1.48127 -1.50405 0
M  V30 28388 O 2627.59 -0.711765 -2.17132 0
M  V30 28389 C 2627.8 -3.4893 0.0696875 0
M  V30 28390 C 2629.15 -4.24515 -0.0850455 0
M  V30 28391 O 2630.17 -3.562 -0.00367209 0
M  V30 28392 O 2629.03 -5.45896 -0.256929 0
M  V30 28393 H 2626.12 -0.823651 -0.074355 0
M  V30 28394 H 2628.67 -1.58583 0.604108 0
M  V30 28395 H 2627.44 -3.76172 1.0775 0
M  V30 28396 H 2627.06 -3.92583 -0.629645 0
M  V30 28397 N 2628.06 -0.274434 -1.55192 0
M  V30 28398 C 2628.97 0.623433 -2.26165 0
M  V30 28399 C 2629.99 1.17066 -1.28731 0
M  V30 28400 O 2631.16 1.20109 -1.61665 0
M  V30 28401 C 2628.23 1.79135 -2.96836 0
M  V30 28402 C 2627.29 1.28086 -4.09747 0
M  V30 28403 C 2626.52 2.39311 -4.77039 0
M  V30 28404 O 2626.75 3.58652 -4.43537 0
M  V30 28405 O 2625.68 2.07506 -5.65 0
M  V30 28406 H 2629.51 0.0485127 -3.03661 0
M  V30 28407 H 2627.09 -0.0418645 -1.49341 0
M  V30 28408 H 2628.97 2.47234 -3.41252 0
M  V30 28409 H 2627.65 2.35337 -2.22257 0
M  V30 28410 H 2626.55 0.566351 -3.69788 0
M  V30 28411 H 2627.89 0.764598 -4.86225 0
M  V30 28412 N 2629.54 1.576 -0.00170483 0
M  V30 28413 C 2630.45 2.11962 1.00544 0
M  V30 28414 C 2631.47 1.06528 1.37578 0
M  V30 28415 O 2632.64 1.38439 1.46276 0
M  V30 28416 C 2629.71 2.61354 2.27804 0
M  V30 28417 C 2628.77 3.81396 1.97067 0
M  V30 28418 C 2628 4.28423 3.1826 0
M  V30 28419 O 2628.22 3.74772 4.30002 0
M  V30 28420 O 2627.16 5.20561 3.02158 0
M  V30 28421 H 2630.98 2.98239 0.573321 0
M  V30 28422 H 2628.57 1.47812 0.217229 0
M  V30 28423 H 2630.45 2.93315 3.02563 0
M  V30 28424 H 2629.13 1.78174 2.70251 0
M  V30 28425 H 2628.03 3.54406 1.19779 0
M  V30 28426 H 2629.37 4.65655 1.59456 0
M  V30 28427 N 2631.02 -0.271076 1.55251 0
M  V30 28428 C 2632.29 -1.02381 1.66666 0
M  V30 28429 C 2632.67 -2.04224 0.534399 0
M  V30 28430 O 2632.02 -2.23712 -0.465298 0
M  V30 28431 C 2632.23 -1.67889 3.05964 0
M  V30 28432 C 2633.58 -2.1898 3.63776 0
M  V30 28433 O 2634.6 -1.77873 3.08609 0
M  V30 28434 O 2633.46 -2.94385 4.60434 0
M  V30 28435 H 2630.56 -0.475023 0.676966 0
M  V30 28436 H 2633.1 -0.26678 1.6759 0
M  V30 28437 H 2631.88 -0.941004 3.79817 0
M  V30 28438 H 2631.5 -2.50274 3.08947 0
M  V30 28439 N 2632.5 -1.48217 -0.535675 0
M  V30 28440 C 2633.44 -1.62752 -1.66176 0
M  V30 28441 C 2634.44 -0.494119 -1.62033 0
M  V30 28442 O 2635.64 -0.672653 -1.66959 0
M  V30 28443 H 2632.02 -0.512587 -0.550235 0
M  V30 28444 H 2633.99 -2.5734 -1.51059 0
M  V30 28445 C 2632.74 -1.67913 -3.04468 0
M  V30 28446 H 2632.06 -2.54485 -3.08347 0
M  V30 28447 H 2633.5 -1.82128 -3.82891 0
M  V30 28448 C 2631.96 -0.416655 -3.34314 0
M  V30 28449 O 2632.49 0.472944 -3.98906 0
M  V30 28450 N 2630.7 -0.290089 -2.89148 0
M  V30 28451 H 2630.24 -1.01497 -2.36762 0
M  V30 28452 H 2630.2 0.553616 -3.09487 0
M  V30 28453 N 2633.97 0.784108 -1.3671 0
M  V30 28454 C 2635.25 1.53067 -1.21778 0
M  V30 28455 C 2635.63 2.10208 0.193839 0
M  V30 28456 O 2634.98 1.94448 1.20009 0
M  V30 28457 C 2635.19 2.62139 -2.304 0
M  V30 28458 C 2636.54 3.29878 -2.67331 0
M  V30 28459 O 2637.56 2.72426 -2.29483 0
M  V30 28460 O 2636.42 4.33718 -3.32492 0
M  V30 28461 H 2633.51 0.677352 -0.474471 0
M  V30 28462 H 2636.06 0.822134 -1.48456 0
M  V30 28463 H 2634.83 2.17948 -3.24984 0
M  V30 28464 H 2634.46 3.40606 -2.05118 0
M  V30 28465 N 2635.45 1.21076 1.00888 0
M  V30 28466 C 2636.68 1.04996 1.77931 0
M  V30 28467 C 2637.09 -0.403462 1.84848 0
M  V30 28468 O 2636.43 -1.29179 1.30608 0
M  V30 28469 C 2636.5 1.56727 3.23538 0
M  V30 28470 C 2636.16 3.05135 3.40208 0
M  V30 28471 C 2637.16 4.02721 3.28803 0
M  V30 28472 C 2634.84 3.44258 3.65775 0
M  V30 28473 C 2636.84 5.3742 3.42723 0
M  V30 28474 C 2634.52 4.7911 3.79337 0
M  V30 28475 C 2635.52 5.755 3.67817 0
M  V30 28476 O 2635.21 7.07905 3.80953 0
M  V30 28477 H 2634.94 0.369391 0.56615 0
M  V30 28478 H 2637.49 1.60781 1.27823 0
M  V30 28479 H 2635.72 0.953351 3.74764 0
M  V30 28480 H 2637.41 1.36549 3.82242 0
M  V30 28481 H 2638.18 3.7384 3.0898 0
M  V30 28482 H 2634.06 2.69768 3.73826 0
M  V30 28483 H 2637.6 6.12638 3.33647 0
M  V30 28484 H 2633.5 5.07679 3.98664 0
M  V30 28485 H 2634.27 7.15261 3.97924 0
M  V30 28486 N 2636.93 -1.2032 1.01789 0
M  V30 28487 C 2638.16 -1.93417 0.726174 0
M  V30 28488 C 2638.57 -1.75076 -0.717287 0
M  V30 28489 O 2637.91 -1.06281 -1.49834 0
M  V30 28490 C 2637.97 -3.4578 0.983681 0
M  V30 28491 C 2637.64 -3.87884 2.41651 0
M  V30 28492 C 2638.63 -3.9354 3.39739 0
M  V30 28493 C 2636.32 -4.19836 2.75759 0
M  V30 28494 C 2638.31 -4.30561 4.69996 0
M  V30 28495 C 2636 -4.56532 4.06229 0
M  V30 28496 C 2637 -4.61867 5.03158 0
M  V30 28497 O 2636.69 -4.9772 6.31292 0
M  V30 28498 H 2636.42 -0.621537 0.265835 0
M  V30 28499 H 2638.97 -1.5372 1.36233 0
M  V30 28500 H 2637.2 -3.85608 0.290369 0
M  V30 28501 H 2638.89 -4.00106 0.683349 0
M  V30 28502 H 2639.66 -3.69017 3.14725 0
M  V30 28503 H 2635.54 -4.14873 2.01 0
M  V30 28504 H 2639.08 -4.3464 5.4565 0
M  V30 28505 H 2634.98 -4.80511 4.31022 0
M  V30 28506 H 2635.75 -5.15708 6.356 0
M  V30 28507 N 2638.41 -0.794293 -1.3612 0
M  V30 28508 C 2639.36 -0.184064 -2.31871 0
M  V30 28509 C 2640.35 0.659338 -1.56042 0
M  V30 28510 O 2641.56 0.553876 -1.71267 0
M  V30 28511 H 2637.93 -0.0407505 -0.750895 0
M  V30 28512 H 2639.9 -1.00698 -2.80896 0
M  V30 28513 C 2638.65 0.662753 -3.41325 0
M  V30 28514 H 2637.97 0.0231242 -3.99793 0
M  V30 28515 H 2639.41 1.05632 -4.10631 0
M  V30 28516 C 2637.87 1.82308 -2.83312 0
M  V30 28517 O 2638.4 2.91992 -2.75869 0
M  V30 28518 N 2636.61 1.63072 -2.40532 0
M  V30 28519 H 2636.16 0.738548 -2.46786 0
M  V30 28520 H 2636.11 2.40868 -2.02064 0
M  V30 28521 N 2639.89 1.47813 -0.546727 0
M  V30 28522 C 2641.16 1.95545 0.0464069 0
M  V30 28523 C 2641.54 1.48922 1.49618 0
M  V30 28524 O 2640.89 0.72327 2.16751 0
M  V30 28525 C 2641.1 3.48889 -0.0881912 0
M  V30 28526 C 2642.45 4.24554 0.0625313 0
M  V30 28527 O 2643.47 3.56197 -0.0152181 0
M  V30 28528 O 2642.33 5.46024 0.227975 0
M  V30 28529 H 2639.43 0.824033 0.069986 0
M  V30 28530 H 2641.97 1.58261 -0.61251 0
M  V30 28531 H 2640.74 3.75596 -1.09744 0
M  V30 28532 H 2640.37 3.92911 0.608817 0
M  V30 28533 N 2641.36 0.28266 1.55044 0
M  V30 28534 C 2642.64 -0.384132 1.91791 0
M  V30 28535 C 2643.02 -1.73133 1.20781 0
M  V30 28536 O 2642.37 -2.25998 0.337229 0
M  V30 28537 C 2642.58 -0.516954 3.4515 0
M  V30 28538 C 2643.93 -0.796354 4.17065 0
M  V30 28539 O 2644.95 -0.601474 3.51085 0
M  V30 28540 O 2643.81 -1.16953 5.33839 0
M  V30 28541 H 2640.9 -0.211544 0.799486 0
M  V30 28542 H 2643.45 0.329369 1.66473 0
M  V30 28543 H 2642.22 0.430841 3.88921 0
M  V30 28544 H 2641.85 -1.27963 3.76445 0
M  V30 28545 N 2642.84 -1.57597 0.0100627 0
M  V30 28546 C 2644.09 -1.90624 -0.671338 0
M  V30 28547 C 2644.41 -0.885181 -1.73751 0
M  V30 28548 O 2643.68 0.0760267 -1.95752 0
M  V30 28549 H 2642.26 -0.703584 -0.250956 0
M  V30 28550 H 2644.92 -1.94827 0.0533667 0
M  V30 28551 H 2644.02 -2.90683 -1.13621 0
M  V30 28552 N 2644.32 0.262839 -1.55393 0
M  V30 28553 C 2645.55 1.00958 -1.80253 0
M  V30 28554 C 2645.96 1.80052 -0.581201 0
M  V30 28555 O 2645.3 1.77863 0.459396 0
M  V30 28556 C 2645.36 2.00775 -2.9821 0
M  V30 28557 C 2645.03 1.40525 -4.34858 0
M  V30 28558 C 2646.02 0.815762 -5.1346 0
M  V30 28559 C 2643.71 1.4294 -4.81532 0
M  V30 28560 C 2645.7 0.25845 -6.36876 0
M  V30 28561 C 2643.39 0.868228 -6.04901 0
M  V30 28562 C 2644.39 0.283764 -6.8241 0
M  V30 28563 O 2644.08 -0.268785 -8.03451 0
M  V30 28564 H 2643.81 0.303471 -0.604054 0
M  V30 28565 H 2646.36 0.29589 -2.03258 0
M  V30 28566 H 2644.59 2.75932 -2.70922 0
M  V30 28567 H 2646.28 2.61661 -3.10303 0
M  V30 28568 H 2647.05 0.789727 -4.78527 0
M  V30 28569 H 2642.93 1.87371 -4.21205 0
M  V30 28570 H 2646.47 -0.19838 -6.97318 0
M  V30 28571 H 2642.37 0.891537 -6.39314 0
M  V30 28572 H 2643.14 -0.159117 -8.18345 0
M  V30 28573 N 2645.8 1.48499 0.527807 0
M  V30 28574 C 2647.08 1.47117 1.28902 0
M  V30 28575 C 2647.46 0.184044 2.10296 0
M  V30 28576 O 2646.8 -0.834181 2.12729 0
M  V30 28577 C 2647.01 2.73445 2.16861 0
M  V30 28578 C 2648.36 3.21861 2.7693 0
M  V30 28579 O 2649.39 2.74377 2.27147 0
M  V30 28580 O 2648.24 4.04492 3.67489 0
M  V30 28581 H 2645.34 0.587633 0.581907 0
M  V30 28582 H 2647.88 1.60735 0.544282 0
M  V30 28583 H 2646.66 3.58635 1.56515 0
M  V30 28584 H 2646.28 2.62558 2.98578 0
M  V30 28585 N 2647.28 -0.776847 1.37123 0
M  V30 28586 C 2648.5 -1.57102 1.35403 0
M  V30 28587 C 2648.93 -1.88006 -0.0595231 0
M  V30 28588 O 2648.29 -1.48846 -1.03511 0
M  V30 28589 C 2648.33 -2.86116 2.19477 0
M  V30 28590 O 2647.44 -3.8027 1.59589 0
M  V30 28591 H 2646.78 -0.476068 0.462877 0
M  V30 28592 H 2649.31 -0.9619 1.80579 0
M  V30 28593 H 2649.32 -3.35267 2.32508 0
M  V30 28594 H 2647.99 -2.6295 3.22227 0
M  V30 28595 H 2646.57 -3.38899 1.5557 0
M  V30 28596 N 2648.76 -1.2161 -1.00244 0
M  V30 28597 C 2649.99 -1.05938 -1.77372 0
M  V30 28598 C 2650.39 0.393654 -1.85059 0
M  V30 28599 O 2649.74 1.28484 -1.31291 0
M  V30 28600 C 2649.8 -1.58441 -3.22702 0
M  V30 28601 C 2649.46 -3.06935 -3.38585 0
M  V30 28602 C 2650.46 -4.0446 -3.26663 0
M  V30 28603 C 2648.14 -3.46193 -3.63944 0
M  V30 28604 C 2650.14 -5.3923 -3.39868 0
M  V30 28605 C 2647.83 -4.81115 -3.76791 0
M  V30 28606 C 2648.82 -5.77442 -3.6476 0
M  V30 28607 O 2648.51 -7.09916 -3.77193 0
M  V30 28608 H 2648.24 -0.372388 -0.564183 0
M  V30 28609 H 2650.8 -1.61456 -1.26968 0
M  V30 28610 H 2649.03 -0.973213 -3.74253 0
M  V30 28611 H 2650.72 -1.38575 -3.81513 0
M  V30 28612 H 2651.48 -3.75474 -3.06993 0
M  V30 28613 H 2647.36 -2.71747 -3.7239 0
M  V30 28614 H 2650.91 -6.14399 -3.30393 0
M  V30 28615 H 2646.8 -5.09786 -3.95966 0
M  V30 28616 H 2647.57 -7.17362 -3.94125 0
M  V30 28617 N 2650.23 1.19778 -1.02425 0
M  V30 28618 C 2651.18 2.24874 -0.594514 0
M  V30 28619 C 2652.18 1.65297 0.370569 0
M  V30 28620 O 2653.38 1.78397 0.239653 0
M  V30 28621 H 2649.76 0.731599 -0.173974 0
M  V30 28622 H 2651.73 2.58442 -1.49165 0
M  V30 28623 C 2650.48 3.47673 0.0435901 0
M  V30 28624 H 2649.8 3.938 -0.690032 0
M  V30 28625 H 2651.24 4.22885 0.307287 0
M  V30 28626 C 2649.7 3.11276 1.28876 0
M  V30 28627 O 2650.23 3.23508 2.3813 0
M  V30 28628 N 2648.43 2.65752 1.17576 0
M  V30 28629 H 2647.98 2.55999 0.286724 0
M  V30 28630 H 2647.94 2.4177 2.00984 0
M  V30 28631 N 2651.71 0.801501 1.35697 0
M  V30 28632 C 2652.94 0.390714 2.03686 0
M  V30 28633 C 2653.36 -0.98875 1.60017 0
M  V30 28634 O 2652.72 -1.6393 0.774386 0
M  V30 28635 C 2652.77 0.476467 3.57438 0
M  V30 28636 O 2651.87 -0.512034 4.09209 0
M  V30 28637 H 2651.21 0.163967 0.643437 0
M  V30 28638 H 2653.74 1.08597 1.73401 0
M  V30 28639 H 2653.75 0.344428 4.06544 0
M  V30 28640 H 2652.43 1.48268 3.88573 0
M  V30 28641 H 2651 -0.340656 3.71341 0
M  V30 28642 N 2653.19 -1.47521 0.554558 0
M  V30 28643 C 2654.12 -2.32782 -0.182933 0
M  V30 28644 C 2655.1 -1.43626 -0.911352 0
M  V30 28645 O 2656.29 -1.72485 -0.892336 0
M  V30 28646 C 2653.42 -3.25351 -1.21507 0
M  V30 28647 C 2652.37 -4.23727 -0.603281 0
M  V30 28648 C 2651.7 -5.05602 -1.73986 0
M  V30 28649 C 2653 -5.20433 0.441212 0
M  V30 28650 H 2654.69 -2.94692 0.528872 0
M  V30 28651 H 2652.24 -1.4171 0.255784 0
M  V30 28652 H 2654.19 -3.83838 -1.73915 0
M  V30 28653 H 2652.91 -2.61491 -1.95679 0
M  V30 28654 H 2651.57 -3.66462 -0.100525 0
M  V30 28655 H 2651.22 -4.38147 -2.47055 0
M  V30 28656 H 2650.92 -5.72203 -1.3363 0
M  V30 28657 H 2652.44 -5.66946 -2.26725 0
M  V30 28658 H 2653.86 -5.733 0.00330008 0
M  V30 28659 H 2652.25 -5.95223 0.763506 0
M  V30 28660 H 2653.32 -4.66073 1.33807 0
M  V30 28661 N 2654.67 -0.290879 -1.54892 0
M  V30 28662 C 2655.89 0.327084 -2.04805 0
M  V30 28663 C 2656.32 1.47504 -1.16723 0
M  V30 28664 O 2655.68 1.80509 -0.169139 0
M  V30 28665 C 2655.72 0.770627 -3.52269 0
M  V30 28666 O 2654.83 1.8764 -3.67239 0
M  V30 28667 H 2654.17 0.0652111 -0.66079 0
M  V30 28668 H 2656.7 -0.429774 -2.00035 0
M  V30 28669 H 2656.71 1.06216 -3.93932 0
M  V30 28670 H 2655.38 -0.0691691 -4.15842 0
M  V30 28671 H 2653.96 1.5862 -3.37482 0
M  V30 28672 N 2656.15 1.57589 -0.0184203 0
M  V30 28673 C 2657.37 1.96053 0.676599 0
M  V30 28674 C 2657.8 0.894337 1.65479 0
M  V30 28675 O 2657.15 -0.145817 1.80713 0
M  V30 28676 C 2657.2 3.33616 1.36866 0
M  V30 28677 O 2656.31 3.29223 2.48366 0
M  V30 28678 H 2655.65 0.639533 0.178589 0
M  V30 28679 H 2658.18 2.04455 -0.077092 0
M  V30 28680 H 2658.19 3.69605 1.7279 0
M  V30 28681 H 2656.86 4.10764 0.651564 0
M  V30 28682 H 2655.44 3.04938 2.14633 0
M  V30 28683 N 2657.62 -0.254594 1.5553 0
M  V30 28684 C 2658.85 -1.00569 1.81385 0
M  V30 28685 C 2659.27 -1.7846 0.59445 0
M  V30 28686 O 2658.63 -1.75462 -0.456372 0
M  V30 28687 C 2658.68 -1.92539 3.04895 0
M  V30 28688 O 2657.78 -3.01596 2.81271 0
M  V30 28689 H 2657.12 -0.286576 0.598974 0
M  V30 28690 H 2659.65 -0.277917 2.02704 0
M  V30 28691 H 2659.66 -2.3415 3.34123 0
M  V30 28692 H 2658.34 -1.35263 3.9329 0
M  V30 28693 H 2656.92 -2.64169 2.6319 0
M  V30 28694 N 2659.1 -1.48777 -0.519925 0
M  V30 28695 C 2660.52 -1.3512 -0.849394 0
M  V30 28696 C 2660.72 -0.369855 -1.98077 0
M  V30 28697 O 2659.77 0.205315 -2.51664 0
M  V30 28698 C 2661.09 -2.75393 -1.20743 0
M  V30 28699 C 2662.63 -2.83956 -1.31674 0
M  V30 28700 C 2663.11 -4.24954 -1.70816 0
M  V30 28701 N 2664.6 -4.27675 -1.77901 0
M  V30 28702 C 2665.34 -5.33721 -2.09593 0
M  V30 28703 N 2664.83 -6.50034 -2.3964 0
M  V30 28704 N 2666.62 -5.21122 -2.10684 0
M  V30 28705 H 2658.78 -2.1119 0.226414 0
M  V30 28706 H 2661.04 -0.947211 0.0386686 0
M  V30 28707 H 2660.74 -3.48814 -0.449642 0
M  V30 28708 H 2660.62 -3.0956 -2.15528 0
M  V30 28709 H 2663.01 -2.10785 -2.06528 0
M  V30 28710 H 2663.09 -2.53396 -0.349855 0
M  V30 28711 H 2662.73 -4.98645 -0.965194 0
M  V30 28712 H 2662.66 -4.52964 -2.68572 0
M  V30 28713 H 2665.15 -3.43781 -1.56917 0
M  V30 28714 H 2665.46 -7.26687 -2.62957 0
M  V30 28715 H 2663.81 -6.53292 -2.37138 0
M  V30 28716 H 2667 -4.29267 -1.86674 0
M  V30 28717 H 2667.17 -6.03867 -2.35051 0
M  V30 28718 N 2660.58 0.769564 -1.37534 0
M  V30 28719 C 2661.83 1.52348 -1.32185 0
M  V30 28720 C 2662.14 1.9539 0.0906211 0
M  V30 28721 O 2663.35 2.70188 0.26658 0
M  V30 28722 C 2661.8 2.75115 -2.32034 0
M  V30 28723 C 2661.41 2.39163 -3.78821 0
M  V30 28724 C 2663.16 3.53052 -2.357 0
M  V30 28725 C 2661.06 3.58445 -4.70395 0
M  V30 28726 H 2659.99 0.571975 -0.491285 0
M  V30 28727 H 2662.64 0.842711 -1.63005 0
M  V30 28728 H 2661.03 3.45093 -1.94235 0
M  V30 28729 H 2662.2 1.76955 -4.25469 0
M  V30 28730 H 2660.51 1.74396 -3.78121 0
M  V30 28731 H 2663.11 4.41713 -3.0132 0
M  V30 28732 H 2663.45 3.93068 -1.37124 0
M  V30 28733 H 2663.99 2.90073 -2.72218 0
M  V30 28734 H 2660.73 3.23508 -5.70108 0
M  V30 28735 H 2660.25 4.19751 -4.2845 0
M  V30 28736 H 2661.93 4.2523 -4.87635 0
M  V30 28737 N 2662.06 1.22139 0.995977 0
M  V30 28738 C 2663.28 1.07113 1.77599 0
M  V30 28739 C 2663.71 -0.374232 1.8434 0
M  V30 28740 O 2663.07 -1.27026 1.29361 0
M  V30 28741 C 2663.11 1.68341 3.18894 0
M  V30 28742 O 2662.22 0.934998 4.01661 0
M  V30 28743 H 2661.56 0.376406 0.547005 0
M  V30 28744 H 2664.09 1.61872 1.25134 0
M  V30 28745 H 2664.1 1.72937 3.69536 0
M  V30 28746 H 2662.77 2.73521 3.13303 0
M  V30 28747 H 2661.35 0.964814 3.60202 0
M  V30 28748 N 2663.54 -1.19233 1.03059 0
M  V30 28749 C 2664.81 -1.84742 0.642641 0
M  V30 28750 C 2665.19 -1.9195 -0.878544 0
M  V30 28751 O 2664.54 -1.43779 -1.77595 0
M  V30 28752 C 2664.75 -3.23614 1.30671 0
M  V30 28753 C 2666.1 -3.99757 1.43105 0
M  V30 28754 O 2667.12 -3.33018 1.26402 0
M  V30 28755 O 2665.98 -5.1931 1.70232 0
M  V30 28756 H 2663.08 -0.796202 0.223587 0
M  V30 28757 H 2665.62 -1.26709 1.12885 0
M  V30 28758 H 2664.39 -3.13212 2.3455 0
M  V30 28759 H 2664.02 -3.89294 0.808473 0
M  V30 28760 N 2665.01 -0.808686 -1.3527 0
M  V30 28761 C 2666.26 -0.390616 -1.99003 0
M  V30 28762 C 2666.59 1.04007 -1.64001 0
M  V30 28763 O 2665.87 1.72194 -0.904398 0
M  V30 28764 C 2666.15 -0.576629 -3.55453 0
M  V30 28765 C 2666 -2.0524 -4.00246 0
M  V30 28766 C 2667.32 -0.00362013 -4.401 0
M  V30 28767 H 2664.44 -0.143401 -0.722914 0
M  V30 28768 H 2667.08 -1.01861 -1.60388 0
M  V30 28769 H 2665.23 -0.0420449 -3.88477 0
M  V30 28770 H 2666.91 -2.64952 -3.77621 0
M  V30 28771 H 2665.15 -2.54807 -3.51078 0
M  V30 28772 H 2665.82 -2.13342 -5.09106 0
M  V30 28773 H 2668.3 -0.460189 -4.13547 0
M  V30 28774 H 2667.17 -0.163672 -5.48656 0
M  V30 28775 H 2667.43 1.09025 -4.28446 0
M  V30 28776 N 2666.49 1.47225 -0.562374 0
M  V30 28777 C 2667.72 2.07355 -0.0432997 0
M  V30 28778 C 2668.14 1.41151 1.2433 0
M  V30 28779 O 2667.5 0.488257 1.74602 0
M  V30 28780 C 2667.55 3.60365 0.130224 0
M  V30 28781 O 2666.65 3.9481 1.1916 0
M  V30 28782 H 2665.99 0.661829 -0.0536451 0
M  V30 28783 H 2668.52 1.89168 -0.779528 0
M  V30 28784 H 2668.53 4.06557 0.342809 0
M  V30 28785 H 2667.21 4.07947 -0.809461 0
M  V30 28786 H 2665.79 3.60355 0.95909 0
M  V30 28787 N 2667.97 0.299089 1.54736 0
M  V30 28788 C 2669.2 -0.316218 2.04975 0
M  V30 28789 C 2669.62 -1.46883 1.17504 0
M  V30 28790 O 2668.98 -1.80417 0.17871 0
M  V30 28791 C 2669.03 -0.751935 3.52673 0
M  V30 28792 O 2668.13 -1.8569 3.68229 0
M  V30 28793 H 2667.47 -0.0617058 0.661127 0
M  V30 28794 H 2670 0.440376 1.99805 0
M  V30 28795 H 2670.01 -1.04126 3.94489 0
M  V30 28796 H 2668.69 0.0912213 4.158 0
M  V30 28797 H 2667.26 -1.56828 3.38319 0
M  V30 28798 N 2669.45 -1.57577 0.0267774 0
M  V30 28799 C 2670.69 -1.91988 -0.653337 0
M  V30 28800 C 2671.03 -0.903293 -1.71913 0
M  V30 28801 O 2670.3 0.0743045 -1.94358 0
M  V30 28802 C 2670.59 -3.36888 -1.27194 0
M  V30 28803 C 2670.44 -4.49282 -0.215859 0
M  V30 28804 C 2671.76 -3.81707 -2.19062 0
M  V30 28805 H 2668.88 -0.698181 -0.236035 0
M  V30 28806 H 2671.52 -1.89816 0.083557 0
M  V30 28807 H 2669.67 -3.3887 -1.89999 0
M  V30 28808 H 2671.34 -4.59433 0.414571 0
M  V30 28809 H 2669.58 -4.31366 0.458931 0
M  V30 28810 H 2670.25 -5.47693 -0.688251 0
M  V30 28811 H 2672.73 -3.81447 -1.66246 0
M  V30 28812 H 2671.61 -4.83793 -2.59299 0
M  V30 28813 H 2671.87 -3.17078 -3.08081 0
M  V30 28814 N 2670.93 0.246342 -1.55663 0
M  V30 28815 C 2672.18 0.972223 -1.76722 0
M  V30 28816 C 2672.49 1.86464 -0.590813 0
M  V30 28817 O 2673.69 2.62731 -0.684437 0
M  V30 28818 C 2672.15 1.77874 -3.12872 0
M  V30 28819 C 2671.76 0.933691 -4.38162 0
M  V30 28820 C 2673.5 2.49732 -3.4327 0
M  V30 28821 C 2671.41 1.73613 -5.65343 0
M  V30 28822 H 2670.34 0.366737 -0.658802 0
M  V30 28823 H 2672.99 0.22687 -1.82092 0
M  V30 28824 H 2671.37 2.56607 -3.0161 0
M  V30 28825 H 2672.55 0.188655 -4.60414 0
M  V30 28826 H 2670.86 0.328415 -4.15103 0
M  V30 28827 H 2673.46 3.10223 -4.35506 0
M  V30 28828 H 2673.8 3.21376 -2.64619 0
M  V30 28829 H 2674.33 1.7801 -3.55749 0
M  V30 28830 H 2671.07 1.06343 -6.46816 0
M  V30 28831 H 2670.59 2.45643 -5.47192 0
M  V30 28832 H 2672.27 2.30313 -6.0462 0
M  V30 28833 N 2672.4 1.4905 0.512027 0
M  V30 28834 C 2673.63 1.61437 1.28926 0
M  V30 28835 C 2674.04 0.28068 1.87106 0
M  V30 28836 O 2673.39 -0.742508 1.68025 0
M  V30 28837 C 2673.45 2.61593 2.46596 0
M  V30 28838 C 2673.11 4.06219 2.09368 0
M  V30 28839 C 2674.11 4.93361 1.63985 0
M  V30 28840 C 2671.79 4.5188 2.1934 0
M  V30 28841 C 2673.79 6.24196 1.29065 0
M  V30 28842 C 2671.47 5.82731 1.84031 0
M  V30 28843 C 2672.47 6.68713 1.38967 0
M  V30 28844 O 2672.16 7.97127 1.0413 0
M  V30 28845 H 2671.89 0.546666 0.397658 0
M  V30 28846 H 2674.45 1.95741 0.622473 0
M  V30 28847 H 2672.68 2.22446 3.16314 0
M  V30 28848 H 2674.37 2.63624 3.08638 0
M  V30 28849 H 2675.13 4.59316 1.55736 0
M  V30 28850 H 2671.01 3.8513 2.5337 0
M  V30 28851 H 2674.55 6.91263 0.938182 0
M  V30 28852 H 2670.45 6.16307 1.91927 0
M  V30 28853 H 2671.22 8.10041 1.17373 0
M  V30 28854 N 2673.88 -0.762259 1.3794 0
M  V30 28855 C 2675.11 -1.55657 1.37061 0
M  V30 28856 C 2675.53 -1.88058 -0.0395792 0
M  V30 28857 O 2674.89 -1.49935 -1.01927 0
M  V30 28858 C 2674.94 -2.83772 2.22499 0
M  V30 28859 O 2674.04 -3.78556 1.63613 0
M  V30 28860 H 2673.38 -0.471132 0.4679 0
M  V30 28861 H 2675.91 -0.942693 1.81589 0
M  V30 28862 H 2675.92 -3.32782 2.36051 0
M  V30 28863 H 2674.6 -2.59518 3.24997 0
M  V30 28864 H 2673.18 -3.3723 1.59156 0
M  V30 28865 N 2675.36 -1.22666 -0.989486 0
M  V30 28866 C 2676.61 -1.0512 -1.7261 0
M  V30 28867 C 2676.93 0.414097 -1.90552 0
M  V30 28868 O 2676.2 1.2976 -1.46763 0
M  V30 28869 H 2674.78 -0.385988 -0.639548 0
M  V30 28870 H 2677.44 -1.54234 -1.19155 0
M  V30 28871 H 2676.54 -1.5318 -2.71923 0
M  V30 28872 N 2676.84 1.18685 -1.0369 0
M  V30 28873 C 2677.79 2.24231 -0.618331 0
M  V30 28874 C 2678.78 1.65681 0.353016 0
M  V30 28875 O 2679.99 1.78642 0.220718 0
M  V30 28876 H 2676.36 0.729713 -0.181723 0
M  V30 28877 H 2678.33 2.56846 -1.51898 0
M  V30 28878 C 2677.08 3.47699 0.00671231 0
M  V30 28879 H 2676.41 3.93046 -0.731761 0
M  V30 28880 H 2677.85 4.23187 0.262417 0
M  V30 28881 C 2676.3 3.12625 1.25567 0
M  V30 28882 O 2676.83 3.26015 2.34685 0
M  V30 28883 N 2675.04 2.66984 1.1475 0
M  V30 28884 H 2674.59 2.56289 0.259556 0
M  V30 28885 H 2674.55 2.43888 1.98408 0
M  V30 28886 N 2678.32 0.815849 1.34839 0
M  V30 28887 C 2679.23 0.234503 2.33425 0
M  V30 28888 C 2680.24 -0.627384 1.62296 0
M  V30 28889 O 2681.42 -0.536953 1.9411 0
M  V30 28890 C 2678.48 -0.599789 3.41472 0
M  V30 28891 C 2677.55 0.283671 4.28362 0
M  V30 28892 C 2676.78 -0.510897 5.31249 0
M  V30 28893 O 2677 -1.7448 5.43059 0
M  V30 28894 O 2675.94 0.103075 6.01812 0
M  V30 28895 H 2679.76 1.05029 2.84961 0
M  V30 28896 H 2677.35 0.577834 1.37773 0
M  V30 28897 H 2679.23 -1.07468 4.07466 0
M  V30 28898 H 2677.9 -1.39302 2.92193 0
M  V30 28899 H 2676.81 0.805901 3.65316 0
M  V30 28900 H 2678.14 1.04108 4.81064 0
M  V30 28901 N 2679.8 -1.46924 0.570174 0
M  V30 28902 C 2680.74 -2.31878 -0.183141 0
M  V30 28903 C 2681.74 -1.43721 -0.896695 0
M  V30 28904 O 2682.94 -1.60416 -0.816508 0
M  V30 28905 H 2679.32 -0.747951 -0.0779308 0
M  V30 28906 H 2681.29 -2.93243 0.552363 0
M  V30 28907 C 2680.04 -3.26642 -1.19166 0
M  V30 28908 H 2679.36 -3.94447 -0.652018 0
M  V30 28909 H 2680.8 -3.8889 -1.6894 0
M  V30 28910 C 2679.26 -2.5109 -2.24623 0
M  V30 28911 O 2679.79 -2.26478 -3.31769 0
M  V30 28912 N 2678 -2.11871 -1.98895 0
M  V30 28913 H 2677.54 -2.32087 -1.11773 0
M  V30 28914 H 2677.5 -1.61639 -2.69667 0
M  V30 28915 N 2681.27 -0.307291 -1.54575 0
M  V30 28916 C 2682.52 0.300941 -1.99442 0
M  V30 28917 C 2682.84 1.54518 -1.19931 0
M  V30 28918 O 2684.04 2.2284 -1.55096 0
M  V30 28919 C 2682.5 0.586747 -3.55085 0
M  V30 28920 C 2682.11 -0.639516 -4.43412 0
M  V30 28921 C 2683.85 1.15583 -4.08462 0
M  V30 28922 C 2681.76 -0.326514 -5.90498 0
M  V30 28923 H 2680.69 0.116225 -0.744988 0
M  V30 28924 H 2683.34 -0.416978 -1.787 0
M  V30 28925 H 2681.72 1.36443 -3.71752 0
M  V30 28926 H 2682.89 -1.41553 -4.3852 0
M  V30 28927 H 2681.21 -1.12767 -4.0084 0
M  V30 28928 H 2683.81 1.40436 -5.15928 0
M  V30 28929 H 2684.15 2.10009 -3.59447 0
M  V30 28930 H 2684.68 0.439709 -3.95362 0
M  V30 28931 H 2681.42 -1.23951 -6.43674 0
M  V30 28932 H 2680.94 0.412107 -5.98383 0
M  V30 28933 H 2682.62 0.0696256 -6.46963 0
M  V30 28934 N 2682.75 1.57561 -0.0351337 0
M  V30 28935 C 2684 1.92047 0.642195 0
M  V30 28936 C 2684.33 0.91209 1.71788 0
M  V30 28937 O 2683.58 -0.0780809 1.95544 0
M  V30 28938 C 2683.88 3.33252 1.29143 0
M  V30 28939 C 2683.55 4.49574 0.345525 0
M  V30 28940 C 2682.21 4.81125 0.0851929 0
M  V30 28941 C 2684.56 5.20315 -0.303661 0
M  V30 28942 C 2681.89 5.8077 -0.832029 0
M  V30 28943 C 2684.24 6.2094 -1.20897 0
M  V30 28944 C 2682.9 6.50928 -1.47814 0
M  V30 28945 H 2682.17 0.70275 0.234996 0
M  V30 28946 H 2684.82 1.91248 -0.0981865 0
M  V30 28947 H 2683.13 3.30341 2.1067 0
M  V30 28948 H 2684.82 3.57209 1.82217 0
M  V30 28949 H 2681.41 4.24944 0.558609 0
M  V30 28950 H 2685.6 4.96165 -0.115602 0
M  V30 28951 H 2680.85 6.02348 -1.04821 0
M  V30 28952 H 2685.03 6.74872 -1.71816 0
M  V30 28953 H 2682.65 7.27956 -2.19052 0
M  V30 28954 N 2684.23 -0.238084 1.55791 0
M  V30 28955 C 2685.18 -1.3146 1.91888 0
M  V30 28956 C 2686.17 -1.49376 0.798955 0
M  V30 28957 O 2687.38 -1.50746 0.983652 0
M  V30 28958 H 2683.75 -0.440389 0.609559 0
M  V30 28959 H 2685.72 -0.982876 2.81748 0
M  V30 28960 C 2684.47 -2.66126 2.23768 0
M  V30 28961 H 2683.8 -2.53144 3.09449 0
M  V30 28962 H 2685.24 -3.40304 2.52921 0
M  V30 28963 C 2683.69 -3.19888 1.05705 0
M  V30 28964 O 2684.22 -4.00505 0.309594 0
M  V30 28965 N 2682.43 -2.78034 0.8453 0
M  V30 28966 H 2681.98 -2.12585 1.45483 0
M  V30 28967 H 2681.94 -3.14348 0.0570525 0
M  V30 28968 N 2685.71 -1.4932 -0.504115 0
M  V30 28969 C 2686.62 -1.68488 -1.63245 0
M  V30 28970 C 2687.63 -0.567461 -1.64487 0
M  V30 28971 O 2688.81 -0.841781 -1.82965 0
M  V30 28972 C 2685.87 -1.74431 -2.99624 0
M  V30 28973 C 2684.94 -2.97988 -3.09033 0
M  V30 28974 C 2684.17 -3.03638 -4.38907 0
M  V30 28975 O 2684.39 -2.16967 -5.27524 0
M  V30 28976 O 2683.33 -3.9607 -4.53224 0
M  V30 28977 H 2687.15 -2.64069 -1.50004 0
M  V30 28978 H 2684.74 -1.33024 -0.680063 0
M  V30 28979 H 2686.62 -1.80711 -3.80685 0
M  V30 28980 H 2685.29 -0.820288 -3.13134 0
M  V30 28981 H 2684.2 -2.97227 -2.27172 0
M  V30 28982 H 2685.53 -3.8986 -3.00449 0
M  V30 28983 N 2687.19 0.754933 -1.38342 0
M  V30 28984 C 2688.13 1.86865 -1.35463 0
M  V30 28985 C 2689.1 1.64671 -0.217398 0
M  V30 28986 O 2690.29 1.86356 -0.409416 0
M  V30 28987 C 2687.43 3.24147 -1.18418 0
M  V30 28988 C 2686.54 3.58181 -2.41517 0
M  V30 28989 C 2685.68 4.8476 -2.17213 0
M  V30 28990 C 2684.71 5.11576 -3.3609 0
M  V30 28991 N 2683.85 6.29349 -3.1123 0
M  V30 28992 H 2688.69 1.8866 -2.30676 0
M  V30 28993 H 2686.23 0.922134 -1.14608 0
M  V30 28994 H 2688.19 4.03364 -1.06552 0
M  V30 28995 H 2686.82 3.21682 -0.268453 0
M  V30 28996 H 2685.87 2.73818 -2.64061 0
M  V30 28997 H 2687.18 3.73926 -3.30122 0
M  V30 28998 H 2686.33 5.71917 -2.02475 0
M  V30 28999 H 2685.07 4.7115 -1.25972 0
M  V30 29000 H 2684.08 4.22888 -3.51349 0
M  V30 29001 H 2685.3 5.27083 -4.28206 0
M  V30 29002 H 2683.25 6.17065 -2.22635 0
M  V30 29003 H 2683.17 6.45589 -3.93384 0
M  V30 29004 H 2684.43 7.19398 -3.00145 0
M  V30 29005 N 2688.66 1.23189 0.982967 0
M  V30 29006 C 2689.89 1.08746 1.75664 0
M  V30 29007 C 2690.3 -0.364162 1.85662 0
M  V30 29008 O 2689.64 -1.26379 1.33319 0
M  V30 29009 C 2689.71 1.63555 3.20141 0
M  V30 29010 C 2689.37 3.12283 3.33659 0
M  V30 29011 C 2690.37 4.09605 3.20187 0
M  V30 29012 C 2688.05 3.51939 3.58391 0
M  V30 29013 C 2690.05 5.44569 3.31246 0
M  V30 29014 C 2687.73 4.87048 3.69089 0
M  V30 29015 C 2688.73 5.83172 3.55527 0
M  V30 29016 O 2688.42 7.15827 3.65852 0
M  V30 29017 H 2688.15 0.381317 0.558188 0
M  V30 29018 H 2690.71 1.63456 1.24384 0
M  V30 29019 H 2688.94 1.03263 3.72658 0
M  V30 29020 H 2690.62 1.44627 3.7926 0
M  V30 29021 H 2691.39 3.8031 3.0098 0
M  V30 29022 H 2687.27 2.77637 3.6802 0
M  V30 29023 H 2690.81 6.19578 3.20577 0
M  V30 29024 H 2686.71 5.16021 3.87805 0
M  V30 29025 H 2687.48 7.23541 3.82663 0
M  V30 29026 N 2690.14 -1.18133 1.04318 0
M  V30 29027 C 2691.09 -2.239 0.630214 0
M  V30 29028 C 2692.08 -1.65866 -0.344224 0
M  V30 29029 O 2693.29 -1.78756 -0.211241 0
M  V30 29030 H 2689.66 -0.728739 0.185591 0
M  V30 29031 H 2691.64 -2.56036 1.53258 0
M  V30 29032 C 2690.38 -3.47698 0.0117271 0
M  V30 29033 H 2689.71 -3.92653 0.752595 0
M  V30 29034 H 2691.15 -4.2332 -0.239971 0
M  V30 29035 C 2689.61 -3.13287 -1.23907 0
M  V30 29036 O 2690.14 -3.27255 -2.32953 0
M  V30 29037 N 2688.34 -2.67589 -1.13333 0
M  V30 29038 H 2687.89 -2.56423 -0.24596 0
M  V30 29039 H 2687.85 -2.44937 -1.97112 0
M  V30 29040 N 2691.62 -0.822988 -1.34405 0
M  V30 29041 C 2692.9 -0.333675 -1.92733 0
M  V30 29042 C 2693.28 1.17898 -1.75109 0
M  V30 29043 O 2692.63 1.98611 -1.12986 0
M  V30 29044 C 2692.84 -0.763083 -3.40555 0
M  V30 29045 C 2694.18 -0.761952 -4.17707 0
M  V30 29046 O 2695.21 -0.705667 -3.4914 0
M  V30 29047 O 2694.07 -0.835204 -5.4008 0
M  V30 29048 H 2691.16 -0.0911394 -0.821963 0
M  V30 29049 H 2693.71 -0.907782 -1.43379 0
M  V30 29050 H 2692.48 -1.80496 -3.47184 0
M  V30 29051 H 2692.1 -0.164675 -3.97259 0
M  V30 29052 N 2693.1 1.4662 -0.577957 0
M  V30 29053 C 2694.35 2.01612 -0.0594635 0
M  V30 29054 C 2694.66 1.45558 1.3066 0
M  V30 29055 O 2695.87 1.92341 1.91618 0
M  V30 29056 C 2694.32 3.59857 -0.0557298 0
M  V30 29057 C 2693.93 4.24906 -1.41982 0
M  V30 29058 C 2695.67 4.22524 0.409069 0
M  V30 29059 C 2693.58 5.75216 -1.37407 0
M  V30 29060 H 2692.51 0.753774 -0.0184602 0
M  V30 29061 H 2695.16 1.68402 -0.728898 0
M  V30 29062 H 2693.54 3.90122 0.679774 0
M  V30 29063 H 2694.72 4.06256 -2.17468 0
M  V30 29064 H 2693.03 3.74313 -1.82425 0
M  V30 29065 H 2695.63 5.327 0.462017 0
M  V30 29066 H 2695.97 3.9113 1.42559 0
M  V30 29067 H 2696.51 3.96867 -0.272222 0
M  V30 29068 H 2693.25 6.11262 -2.36724 0
M  V30 29069 H 2692.77 5.96143 -0.661344 0
M  V30 29070 H 2694.44 6.37838 -1.08495 0
M  V30 29071 N 2694.58 0.315484 1.5441 0
M  V30 29072 C 2695.82 -0.288936 2.00024 0
M  V30 29073 C 2696.15 -1.53288 1.20532 0
M  V30 29074 O 2695.42 -1.93511 0.30502 0
M  V30 29075 H 2694 -0.109753 0.738893 0
M  V30 29076 H 2696.66 0.430163 1.90094 0
M  V30 29077 H 2695.75 -0.550945 3.07199 0
M  V30 29078 N 2696.05 -1.5754 0.0434891 0
M  V30 29079 C 2697.3 -1.92385 -0.632001 0
M  V30 29080 C 2697.63 -0.921187 -1.71302 0
M  V30 29081 O 2696.88 0.0677096 -1.95583 0
M  V30 29082 C 2697.18 -3.33932 -1.27374 0
M  V30 29083 C 2696.85 -4.49751 -0.321678 0
M  V30 29084 C 2695.51 -4.81163 -0.0596765 0
M  V30 29085 C 2697.86 -5.20146 0.33125 0
M  V30 29086 C 2695.19 -5.80321 0.862817 0
M  V30 29087 C 2697.54 -6.2029 1.24189 0
M  V30 29088 C 2696.21 -6.50135 1.51264 0
M  V30 29089 H 2695.48 -0.703987 -0.231266 0
M  V30 29090 H 2698.12 -1.91193 0.108327 0
M  V30 29091 H 2696.43 -3.31454 -2.08915 0
M  V30 29092 H 2698.13 -3.5817 -1.8032 0
M  V30 29093 H 2694.72 -4.25234 -0.536065 0
M  V30 29094 H 2698.9 -4.96097 0.141913 0
M  V30 29095 H 2694.16 -6.01783 1.08014 0
M  V30 29096 H 2698.33 -6.73951 1.75393 0
M  V30 29097 H 2695.96 -7.26784 2.22909 0
M  V30 29098 N 2697.53 0.229818 -1.55915 0
M  V30 29099 C 2698.48 1.28474 -1.91737 0
M  V30 29100 C 2699.45 1.46987 -0.773565 0
M  V30 29101 O 2700.63 1.60691 -1.02874 0
M  V30 29102 C 2697.77 2.63178 -2.23229 0
M  V30 29103 C 2696.89 2.52533 -3.50501 0
M  V30 29104 C 2696.02 3.79705 -3.71481 0
M  V30 29105 C 2695.06 3.63747 -4.92295 0
M  V30 29106 N 2694.2 4.82849 -5.09707 0
M  V30 29107 H 2699.04 0.972258 -2.81693 0
M  V30 29108 H 2696.58 0.468791 -1.3943 0
M  V30 29109 H 2698.53 3.4161 -2.39496 0
M  V30 29110 H 2697.16 2.9254 -1.36456 0
M  V30 29111 H 2696.22 1.65579 -3.42473 0
M  V30 29112 H 2697.53 2.36658 -4.39083 0
M  V30 29113 H 2696.68 4.6658 -3.87799 0
M  V30 29114 H 2695.42 3.98495 -2.81164 0
M  V30 29115 H 2694.43 2.75256 -4.75935 0
M  V30 29116 H 2695.65 3.46435 -5.84089 0
M  V30 29117 H 2693.6 5.01969 -4.22331 0
M  V30 29118 H 2693.51 4.6967 -5.92407 0
M  V30 29119 H 2694.78 5.71174 -5.30453 0
M  V30 29120 N 2699.01 1.49585 0.49619 0
M  V30 29121 C 2700.26 1.58561 1.24665 0
M  V30 29122 C 2700.57 0.279737 1.93589 0
M  V30 29123 O 2701.78 0.248095 2.70364 0
M  V30 29124 C 2700.23 2.79783 2.26384 0
M  V30 29125 C 2699.84 4.17148 1.63377 0
M  V30 29126 C 2701.59 2.98091 3.02228 0
M  V30 29127 C 2699.49 5.29587 2.63234 0
M  V30 29128 H 2698.42 0.590397 0.468985 0
M  V30 29129 H 2701.07 1.75979 0.519954 0
M  V30 29130 H 2699.46 2.55869 3.02237 0
M  V30 29131 H 2700.63 4.51218 0.934831 0
M  V30 29132 H 2698.95 4.04237 0.99905 0
M  V30 29133 H 2701.54 3.79264 3.76913 0
M  V30 29134 H 2701.89 2.08838 3.60129 0
M  V30 29135 H 2702.42 3.22067 2.3349 0
M  V30 29136 H 2699.16 6.20915 2.10108 0
M  V30 29137 H 2698.68 4.99965 3.31354 0
M  V30 29138 H 2700.36 5.59121 3.25566 0
M  V30 29139 N 2700.49 -0.747586 1.3874 0
M  V30 29140 C 2701.74 -1.50226 1.34592 0
M  V30 29141 C 2702.05 -1.95509 -0.0595248 0
M  V30 29142 O 2703.26 -2.70578 -0.223562 0
M  V30 29143 C 2701.71 -2.71389 2.36381 0
M  V30 29144 C 2701.32 -2.33106 3.82577 0
M  V30 29145 C 2703.06 -3.49258 2.41287 0
M  V30 29146 C 2700.97 -3.50916 4.76038 0
M  V30 29147 H 2699.9 -0.564087 0.500322 0
M  V30 29148 H 2702.55 -0.816671 1.64325 0
M  V30 29149 H 2700.93 -3.41959 1.997 0
M  V30 29150 H 2702.11 -1.70164 4.2823 0
M  V30 29151 H 2700.42 -1.68358 3.80847 0
M  V30 29152 H 2703.02 -4.36863 3.08309 0
M  V30 29153 H 2703.36 -3.90837 1.4336 0
M  V30 29154 H 2703.9 -2.85706 2.76798 0
M  V30 29155 H 2700.64 -3.14397 5.75182 0
M  V30 29156 H 2700.16 -4.12881 4.35073 0
M  V30 29157 H 2701.83 -4.17419 4.94339 0
M  V30 29158 N 2701.97 -1.23709 -0.97642 0
M  V30 29159 C 2703.24 -0.979729 -1.69295 0
M  V30 29160 C 2703.62 0.500519 -2.05081 0
M  V30 29161 O 2702.97 1.4727 -1.7471 0
M  V30 29162 C 2703.18 -1.89394 -2.9314 0
M  V30 29163 C 2704.53 -2.15974 -3.65569 0
M  V30 29164 O 2705.55 -1.86976 -3.0318 0
M  V30 29165 O 2704.41 -2.65175 -4.77854 0
M  V30 29166 H 2701.51 -0.369825 -0.739702 0
M  V30 29167 H 2704.05 -1.34769 -1.03129 0
M  V30 29168 H 2702.82 -2.89443 -2.63322 0
M  V30 29169 H 2702.45 -1.5286 -3.67042 0
M  V30 29170 N 2703.44 1.17579 -1.04943 0
M  V30 29171 C 2704.39 2.23562 -0.642079 0
M  V30 29172 C 2705.39 1.66046 0.335423 0
M  V30 29173 O 2706.59 1.78866 0.201758 0
M  V30 29174 H 2702.97 0.727744 -0.189453 0
M  V30 29175 H 2704.94 2.5522 -1.54613 0
M  V30 29176 C 2703.69 3.47687 -0.0301662 0
M  V30 29177 H 2703.01 3.92248 -0.773408 0
M  V30 29178 H 2704.45 4.23442 0.217518 0
M  V30 29179 C 2702.91 3.1394 1.22244 0
M  V30 29180 O 2703.44 3.28486 2.31214 0
M  V30 29181 N 2701.65 2.68187 1.11912 0
M  V30 29182 H 2701.19 2.5655 0.232358 0
M  V30 29183 H 2701.15 2.45979 1.9581 0
M  V30 29184 N 2704.92 0.830104 1.33967 0
M  V30 29185 C 2706.34 0.516769 1.51002 0
M  V30 29186 C 2706.54 -0.957663 1.77288 0
M  V30 29187 O 2705.59 -1.74185 1.828 0
M  V30 29188 C 2706.91 1.38252 2.67034 0
M  V30 29189 C 2708.46 1.38039 2.80917 0
M  V30 29190 C 2708.93 2.23078 4 0
M  V30 29191 N 2710.42 2.2074 4.0722 0
M  V30 29192 C 2711.16 2.83284 4.98536 0
M  V30 29193 N 2710.65 3.54845 5.95027 0
M  V30 29194 N 2712.45 2.728 4.91464 0
M  V30 29195 H 2704.6 1.78468 1.15165 0
M  V30 29196 H 2706.86 0.760916 0.565429 0
M  V30 29197 H 2706.57 2.42989 2.54262 0
M  V30 29198 H 2706.44 1.05231 3.62224 0
M  V30 29199 H 2708.83 0.340764 2.93126 0
M  V30 29200 H 2708.91 1.75061 1.86514 0
M  V30 29201 H 2708.55 3.27094 3.88551 0
M  V30 29202 H 2708.48 1.83403 4.9363 0
M  V30 29203 H 2710.97 1.68693 3.38159 0
M  V30 29204 H 2711.29 3.99795 6.6135 0
M  V30 29205 H 2709.63 3.58952 5.95129 0
M  V30 29206 H 2712.82 2.16463 4.15044 0
M  V30 29207 H 2712.99 3.21828 5.62433 0
M  V30 29208 N 2706.4 -1.46311 0.585725 0
M  V30 29209 C 2707.35 -2.32059 -0.158536 0
M  V30 29210 C 2708.34 -1.44664 -0.881401 0
M  V30 29211 O 2709.55 -1.61273 -0.799447 0
M  V30 29212 H 2705.92 -0.748736 -0.0699934 0
M  V30 29213 H 2707.9 -2.92641 0.583435 0
M  V30 29214 C 2706.64 -3.27887 -1.15695 0
M  V30 29215 H 2705.97 -3.95117 -0.610145 0
M  V30 29216 H 2707.41 -3.9066 -1.64805 0
M  V30 29217 C 2705.87 -2.53458 -2.21947 0
M  V30 29218 O 2706.4 -2.29984 -3.29348 0
M  V30 29219 N 2704.6 -2.13969 -1.96636 0
M  V30 29220 H 2704.15 -2.3326 -1.09305 0
M  V30 29221 H 2704.11 -1.6449 -2.67938 0
M  V30 29222 N 2707.88 -0.323668 -1.54241 0
M  V30 29223 C 2708.79 0.551165 -2.28034 0
M  V30 29224 C 2709.81 1.12911 -1.3239 0
M  V30 29225 O 2710.98 1.14905 -1.65405 0
M  V30 29226 C 2708.05 1.696 -3.02385 0
M  V30 29227 C 2707.11 1.14986 -4.13614 0
M  V30 29228 C 2706.34 2.24013 -4.84411 0
M  V30 29229 O 2706.56 3.4436 -4.54722 0
M  V30 29230 O 2705.5 1.89426 -5.71315 0
M  V30 29231 H 2709.32 -0.0481193 -3.03662 0
M  V30 29232 H 2706.91 -0.0893551 -1.49133 0
M  V30 29233 H 2708.79 2.36252 -3.48945 0
M  V30 29234 H 2707.47 2.28147 -2.29632 0
M  V30 29235 H 2706.37 0.448419 -3.71403 0
M  V30 29236 H 2707.71 0.609522 -4.88411 0
M  V30 29237 N 2709.36 1.57515 -0.0518432 0
M  V30 29238 C 2710.3 2.1157 0.922315 0
M  V30 29239 C 2711.27 1.02323 1.3084 0
M  V30 29240 O 2712.46 1.29875 1.39775 0
M  V30 29241 C 2709.6 2.66574 2.19163 0
M  V30 29242 C 2708.71 3.89909 1.85996 0
M  V30 29243 C 2707.85 4.33226 3.0739 0
M  V30 29244 C 2706.89 5.4926 2.70148 0
M  V30 29245 N 2706.02 5.87627 3.84238 0
M  V30 29246 H 2710.86 2.94514 0.454454 0
M  V30 29247 H 2708.4 1.45554 0.212692 0
M  V30 29248 H 2710.36 2.96564 2.93437 0
M  V30 29249 H 2708.99 1.86426 2.63524 0
M  V30 29250 H 2708.04 3.66507 1.01867 0
M  V30 29251 H 2709.35 4.74242 1.54583 0
M  V30 29252 H 2708.51 4.64772 3.89964 0
M  V30 29253 H 2707.25 3.47706 3.41982 0
M  V30 29254 H 2706.25 5.17385 1.85992 0
M  V30 29255 H 2707.48 6.36496 2.36748 0
M  V30 29256 H 2705.42 5.0506 4.18629 0
M  V30 29257 H 2705.34 6.66652 3.56526 0
M  V30 29258 H 2706.61 6.23788 4.67449 0
M  V30 29259 N 2710.84 -0.221546 1.56035 0
M  V30 29260 C 2711.75 -1.29554 1.95583 0
M  V30 29261 C 2712.76 -1.5128 0.859665 0
M  V30 29262 O 2713.94 -1.64411 1.16323 0
M  V30 29263 C 2711 -2.62527 2.26452 0
M  V30 29264 C 2710.06 -2.49104 3.49637 0
M  V30 29265 C 2709.3 -3.75735 3.79023 0
M  V30 29266 O 2709.52 -4.78752 3.10086 0
M  V30 29267 O 2708.45 -3.72847 4.72513 0
M  V30 29268 H 2712.28 -0.989984 2.87111 0
M  V30 29269 H 2709.86 -0.424409 1.43245 0
M  V30 29270 H 2711.75 -3.4106 2.475 0
M  V30 29271 H 2710.42 -2.92764 1.38097 0
M  V30 29272 H 2709.33 -1.68771 3.33867 0
M  V30 29273 H 2710.66 -2.23806 4.38374 0
M  V30 29274 N 2712.31 -1.49846 -0.48825 0
M  V30 29275 C 2713.26 -1.67453 -1.58833 0
M  V30 29276 C 2714.23 -0.515885 -1.57886 0
M  V30 29277 O 2715.42 -0.744434 -1.75678 0
M  V30 29278 C 2712.56 -1.7589 -2.96912 0
M  V30 29279 C 2711.67 -3.03144 -3.07779 0
M  V30 29280 C 2710.8 -3.0248 -4.36668 0
M  V30 29281 C 2709.84 -4.2426 -4.41214 0
M  V30 29282 N 2708.98 -4.21434 -5.6155 0
M  V30 29283 H 2713.82 -2.61379 -1.43127 0
M  V30 29284 H 2711.36 -1.29584 -0.696163 0
M  V30 29285 H 2713.31 -1.78762 -3.76962 0
M  V30 29286 H 2711.94 -0.854195 -3.11293 0
M  V30 29287 H 2711 -3.09823 -2.20712 0
M  V30 29288 H 2712.31 -3.93133 -3.06998 0
M  V30 29289 H 2711.46 -3.03986 -5.2505 0
M  V30 29290 H 2710.2 -2.10291 -4.40033 0
M  V30 29291 H 2709.21 -4.22984 -3.51233 0
M  V30 29292 H 2710.43 -5.17656 -4.39555 0
M  V30 29293 H 2708.38 -3.32088 -5.65733 0
M  V30 29294 H 2708.29 -5.05172 -5.62438 0
M  V30 29295 H 2709.56 -4.27061 -6.52104 0
M  V30 29296 N 2713.79 0.740218 -1.39135 0
M  V30 29297 C 2714.7 1.8847 -1.397 0
M  V30 29298 C 2715.72 1.71525 -0.292434 0
M  V30 29299 O 2716.89 1.94218 -0.533055 0
M  V30 29300 C 2713.96 3.24001 -1.23387 0
M  V30 29301 C 2713.02 3.53377 -2.43769 0
M  V30 29302 C 2712.25 4.82441 -2.28225 0
M  V30 29303 O 2712.48 5.55784 -1.28298 0
M  V30 29304 O 2711.41 5.11597 -3.17099 0
M  V30 29305 H 2715.24 1.90948 -2.36162 0
M  V30 29306 H 2712.82 0.887325 -1.20195 0
M  V30 29307 H 2714.7 4.05004 -1.16402 0
M  V30 29308 H 2713.38 3.22305 -0.300177 0
M  V30 29309 H 2712.28 2.72481 -2.5633 0
M  V30 29310 H 2713.62 3.59846 -3.35815 0
M  V30 29311 N 2715.27 1.24225 0.969846 0
M  V30 29312 C 2716.22 1.03274 2.06405 0
M  V30 29313 C 2717.19 -0.0532708 1.66015 0
M  V30 29314 O 2718.37 0.10093 1.90533 0
M  V30 29315 C 2715.51 0.641321 3.39089 0
M  V30 29316 C 2714.62 1.80058 3.92687 0
M  V30 29317 C 2713.76 1.35495 5.13629 0
M  V30 29318 C 2712.8 2.48429 5.59419 0
M  V30 29319 N 2711.94 2.04748 6.71582 0
M  V30 29320 H 2716.78 1.96927 2.2366 0
M  V30 29321 H 2714.31 0.980881 1.09623 0
M  V30 29322 H 2716.27 0.395424 4.15322 0
M  V30 29323 H 2714.9 -0.258212 3.21766 0
M  V30 29324 H 2713.95 2.1602 3.13113 0
M  V30 29325 H 2715.26 2.64923 4.22631 0
M  V30 29326 H 2714.42 1.0678 5.97229 0
M  V30 29327 H 2713.16 0.476808 4.85364 0
M  V30 29328 H 2712.16 2.77906 4.74393 0
M  V30 29329 H 2713.39 3.36796 5.89699 0
M  V30 29330 H 2711.33 1.19329 6.45055 0
M  V30 29331 H 2711.25 2.83168 7.00965 0
M  V30 29332 H 2712.52 1.79168 7.5863 0
M  V30 29333 N 2716.75 -1.1702 1.05565 0
M  V30 29334 C 2717.69 -2.21164 0.659932 0
M  V30 29335 C 2718.66 -1.62587 -0.339785 0
M  V30 29336 O 2719.85 -1.89404 -0.230344 0
M  V30 29337 C 2716.99 -3.45071 0.0447904 0
M  V30 29338 C 2716.1 -4.17924 1.09379 0
M  V30 29339 C 2715.24 -5.29328 0.445574 0
M  V30 29340 C 2714.28 -5.93972 1.47863 0
M  V30 29341 N 2713.41 -6.96883 0.854295 0
M  V30 29342 H 2718.25 -2.54367 1.55247 0
M  V30 29343 H 2715.79 -1.24944 0.776358 0
M  V30 29344 H 2717.75 -4.15898 -0.329331 0
M  V30 29345 H 2716.38 -3.12441 -0.811189 0
M  V30 29346 H 2715.43 -3.45774 1.58571 0
M  V30 29347 H 2716.74 -4.62103 1.87782 0
M  V30 29348 H 2715.9 -6.06697 0.0180755 0
M  V30 29349 H 2714.64 -4.86291 -0.370396 0
M  V30 29350 H 2713.64 -5.15331 1.9161 0
M  V30 29351 H 2714.87 -6.39089 2.29656 0
M  V30 29352 H 2712.81 -6.55974 0.0589035 0
M  V30 29353 H 2712.73 -7.39395 1.5758 0
M  V30 29354 H 2714 -7.7819 0.451696 0
M  V30 29355 N 2718.23 -0.837197 -1.33524 0
M  V30 29356 C 2719.17 -0.26721 -2.29248 0
M  V30 29357 C 2720.14 0.616044 -1.54253 0
M  V30 29358 O 2721.33 0.554667 -1.8256 0
M  V30 29359 C 2718.47 0.553092 -3.40639 0
M  V30 29360 C 2717.58 -0.353997 -4.30547 0
M  V30 29361 C 2716.72 0.477246 -5.29052 0
M  V30 29362 C 2715.75 -0.428338 -6.10599 0
M  V30 29363 N 2714.89 0.364678 -7.01152 0
M  V30 29364 H 2719.73 -1.08882 -2.77396 0
M  V30 29365 H 2717.27 -0.548404 -1.36495 0
M  V30 29366 H 2719.23 1.04415 -4.03923 0
M  V30 29367 H 2717.86 1.33968 -2.93687 0
M  V30 29368 H 2716.91 -0.963353 -3.68 0
M  V30 29369 H 2718.22 -1.04973 -4.87629 0
M  V30 29370 H 2717.37 1.0322 -5.97855 0
M  V30 29371 H 2716.11 1.20642 -4.72543 0
M  V30 29372 H 2715.12 -0.995314 -5.40716 0
M  V30 29373 H 2716.34 -1.15585 -6.69191 0
M  V30 29374 H 2714.29 1.07726 -6.47094 0
M  V30 29375 H 2714.21 -0.27237 -7.55509 0
M  V30 29376 H 2715.47 0.901918 -7.74265 0
M  V30 29377 N 2719.7 1.45999 -0.593476 0
M  V30 29378 C 2720.94 2.04219 -0.0860106 0
M  V30 29379 C 2721.31 1.45366 1.2543 0
M  V30 29380 O 2722.51 1.94853 1.85164 0
M  V30 29381 C 2720.78 3.57385 -0.0324942 0
M  V30 29382 S 2722.34 4.36825 0.415832 0
M  V30 29383 H 2719.16 0.709717 -0.0426997 0
M  V30 29384 H 2721.76 1.78898 -0.788401 0
M  V30 29385 H 2720.46 3.97734 -1.01173 0
M  V30 29386 H 2719.99 3.8726 0.692332 0
M  V30 29387 H 2722.01 4.67312 1.66836 0
M  V30 29388 N 2721.18 0.331843 1.54067 0
M  V30 29389 C 2722.43 -0.268234 2.00716 0
M  V30 29390 C 2722.76 -1.51489 1.21989 0
M  V30 29391 O 2722.01 -1.93504 0.292343 0
M  V30 29392 C 2722.31 -0.63933 3.51635 0
M  V30 29393 C 2721.98 0.509098 4.48017 0
M  V30 29394 C 2720.64 0.824292 4.74087 0
M  V30 29395 C 2722.99 1.28012 5.05235 0
M  V30 29396 C 2720.32 1.91308 5.54633 0
M  V30 29397 C 2722.67 2.35906 5.86968 0
M  V30 29398 C 2721.34 2.67998 6.11337 0
M  V30 29399 H 2720.61 -0.0981538 0.73447 0
M  V30 29400 H 2723.25 0.457336 1.85959 0
M  V30 29401 H 2721.56 -1.44545 3.64162 0
M  V30 29402 H 2723.25 -1.11532 3.85177 0
M  V30 29403 H 2719.84 0.253362 4.2785 0
M  V30 29404 H 2724.03 1.04986 4.85069 0
M  V30 29405 H 2719.28 2.16609 5.71743 0
M  V30 29406 H 2723.46 2.96088 6.30321 0
M  V30 29407 H 2721.09 3.52492 6.73538 0
M  V30 29408 N 2722.66 -1.57485 0.0601958 0
M  V30 29409 C 2723.91 -1.92221 -0.611067 0
M  V30 29410 C 2724.22 -0.941189 -1.71467 0
M  V30 29411 O 2725.43 -1.18093 -2.44471 0
M  V30 29412 C 2723.88 -3.41426 -1.13826 0
M  V30 29413 C 2723.49 -4.47951 -0.0662809 0
M  V30 29414 C 2725.24 -3.85182 -1.78425 0
M  V30 29415 C 2723.14 -5.88278 -0.606862 0
M  V30 29416 H 2722.07 -0.717414 -0.232021 0
M  V30 29417 H 2724.72 -1.83035 0.13055 0
M  V30 29418 H 2723.11 -3.45646 -1.93247 0
M  V30 29419 H 2724.28 -4.55332 0.707762 0
M  V30 29420 H 2722.6 -4.13592 0.482788 0
M  V30 29421 H 2725.19 -4.87398 -2.19881 0
M  V30 29422 H 2725.54 -3.21917 -2.6396 0
M  V30 29423 H 2726.07 -3.83516 -1.05644 0
M  V30 29424 H 2722.81 -6.5516 0.211065 0
M  V30 29425 H 2722.33 -5.8444 -1.34869 0
M  V30 29426 H 2724.01 -6.37805 -1.08693 0
M  V30 29427 N 2724.14 0.213268 -1.5615 0
M  V30 29428 C 2725.38 0.937817 -1.79813 0
M  V30 29429 C 2725.72 1.83655 -0.631234 0
M  V30 29430 O 2724.99 1.90965 0.369131 0
M  V30 29431 C 2725.28 1.76966 -3.13616 0
M  V30 29432 C 2725.13 0.896872 -4.40768 0
M  V30 29433 C 2726.45 2.74584 -3.43936 0
M  V30 29434 H 2723.57 0.339507 -0.654144 0
M  V30 29435 H 2726.21 0.206197 -1.88878 0
M  V30 29436 H 2724.36 2.39342 -3.06019 0
M  V30 29437 H 2726.03 0.289225 -4.60392 0
M  V30 29438 H 2724.27 0.20268 -4.33326 0
M  V30 29439 H 2724.94 1.51348 -5.30846 0
M  V30 29440 H 2727.42 2.22343 -3.51714 0
M  V30 29441 H 2726.3 3.29883 -4.38712 0
M  V30 29442 H 2726.56 3.52734 -2.66516 0
M  V30 29443 N 2725.62 1.50103 0.480296 0
M  V30 29444 C 2726.55 1.71218 1.58766 0
M  V30 29445 C 2727.53 0.561025 1.60582 0
M  V30 29446 O 2728.71 0.799158 1.76995 0
M  V30 29447 C 2725.84 1.79783 2.97145 0
M  V30 29448 C 2724.8 2.94894 3.10196 0
M  V30 29449 C 2724.12 2.88592 4.50132 0
M  V30 29450 C 2725.42 4.35539 2.88276 0
M  V30 29451 H 2727.12 2.63933 1.4135 0
M  V30 29452 H 2724.66 1.2701 0.678569 0
M  V30 29453 H 2726.62 1.9314 3.74533 0
M  V30 29454 H 2725.34 0.836827 3.15697 0
M  V30 29455 H 2724 2.81173 2.35239 0
M  V30 29456 H 2723.65 1.90357 4.65589 0
M  V30 29457 H 2723.35 3.65864 4.59801 0
M  V30 29458 H 2724.87 3.03985 5.29552 0
M  V30 29459 H 2726.28 4.49834 3.55419 0
M  V30 29460 H 2724.68 5.14191 3.09399 0
M  V30 29461 H 2725.75 4.48547 1.84211 0
M  V30 29462 N 2727.09 -0.732829 1.39526 0
M  V30 29463 C 2728.34 -1.48948 1.36597 0
M  V30 29464 C 2728.66 -1.94965 -0.0367165 0
M  V30 29465 O 2727.93 -1.6914 -0.988362 0
M  V30 29466 H 2726.51 -0.552557 0.502683 0
M  V30 29467 H 2729.18 -0.869839 1.74413 0
M  V30 29468 H 2728.27 -2.37057 2.03004 0
M  V30 29469 N 2728.57 -1.24737 -0.963244 0
M  V30 29470 C 2729.81 -1.10168 -1.7217 0
M  V30 29471 C 2730.18 0.35275 -1.88732 0
M  V30 29472 O 2731.38 0.620061 -2.61551 0
M  V30 29473 C 2729.65 -1.82594 -3.07236 0
M  V30 29474 S 2731.21 -1.8381 -3.98446 0
M  V30 29475 H 2728.03 -0.393932 -0.591894 0
M  V30 29476 H 2730.63 -1.58134 -1.14952 0
M  V30 29477 H 2729.33 -2.87523 -2.92846 0
M  V30 29478 H 2728.86 -1.3498 -3.69519 0
M  V30 29479 H 2730.88 -0.908969 -4.87803 0
M  V30 29480 N 2730.05 1.16459 -1.06184 0
M  V30 29481 C 2731.3 1.86593 -0.776359 0
M  V30 29482 C 2731.62 1.82034 0.699178 0
M  V30 29483 O 2730.89 1.25313 1.50577 0
M  V30 29484 H 2729.47 0.690827 -0.284196 0
M  V30 29485 H 2732.13 1.41233 -1.34311 0
M  V30 29486 H 2731.23 2.92062 -1.10027 0
M  V30 29487 N 2731.53 0.844266 1.33079 0
M  V30 29488 C 2732.77 0.448732 1.99414 0
M  V30 29489 C 2733.13 -0.975029 1.654 0
M  V30 29490 O 2734.33 -1.47457 2.24744 0
M  V30 29491 C 2732.6 0.669151 3.5108 0
M  V30 29492 S 2734.16 0.369641 4.3724 0
M  V30 29493 H 2730.98 0.16855 0.690733 0
M  V30 29494 H 2733.58 1.09472 1.61975 0
M  V30 29495 H 2732.29 1.70464 3.73323 0
M  V30 29496 H 2731.82 0.00920126 3.93399 0
M  V30 29497 H 2733.83 -0.808466 4.89569 0
M  V30 29498 N 2733.01 -1.45682 0.60121 0
M  V30 29499 C 2734.24 -2.06358 0.0999455 0
M  V30 29500 C 2734.64 -1.44756 -1.21829 0
M  V30 29501 O 2733.99 -0.553726 -1.75156 0
M  V30 29502 C 2734.05 -3.59297 -0.120786 0
M  V30 29503 C 2733.71 -4.43198 1.11467 0
M  V30 29504 C 2734.71 -4.78577 2.03127 0
M  V30 29505 C 2732.4 -4.84049 1.34171 0
M  V30 29506 C 2734.39 -5.53655 3.15823 0
M  V30 29507 C 2732.08 -5.58883 2.47169 0
M  V30 29508 C 2733.07 -5.93602 3.37824 0
M  V30 29509 O 2732.76 -6.6692 4.48857 0
M  V30 29510 H 2732.49 -0.673054 0.0630434 0
M  V30 29511 H 2735.05 -1.88015 0.827015 0
M  V30 29512 H 2733.28 -3.76017 -0.902678 0
M  V30 29513 H 2734.97 -4.01837 -0.572855 0
M  V30 29514 H 2735.73 -4.4758 1.86809 0
M  V30 29515 H 2731.61 -4.56464 0.645098 0
M  V30 29516 H 2735.16 -5.80673 3.86606 0
M  V30 29517 H 2731.05 -5.89295 2.63442 0
M  V30 29518 H 2731.82 -6.85364 4.47458 0
M  V30 29519 N 2734.48 -0.340009 -1.53889 0
M  V30 29520 C 2735.9 0.0120472 -1.59595 0
M  V30 29521 C 2736.1 1.49039 -1.35608 0
M  V30 29522 O 2735.16 2.24863 -1.1486 0
M  V30 29523 C 2736.47 -0.420951 -2.97739 0
M  V30 29524 C 2738.02 -0.372995 -3.1077 0
M  V30 29525 C 2738.49 -0.781407 -4.51285 0
M  V30 29526 N 2739.98 -0.735454 -4.57324 0
M  V30 29527 C 2740.72 -1.02346 -5.64192 0
M  V30 29528 N 2740.21 -1.37945 -6.78928 0
M  V30 29529 N 2742.01 -0.947936 -5.54049 0
M  V30 29530 H 2734.16 -1.30302 -1.67736 0
M  V30 29531 H 2736.42 -0.530932 -0.785376 0
M  V30 29532 H 2736.13 -1.45158 -3.20347 0
M  V30 29533 H 2736 0.205655 -3.76639 0
M  V30 29534 H 2738.39 0.648454 -2.87887 0
M  V30 29535 H 2738.47 -1.03476 -2.33937 0
M  V30 29536 H 2738.11 -1.80085 -4.74902 0
M  V30 29537 H 2738.04 -0.0971604 -5.2651 0
M  V30 29538 H 2740.53 -0.472839 -3.7493 0
M  V30 29539 H 2740.85 -1.58415 -7.56389 0
M  V30 29540 H 2739.19 -1.41786 -6.80383 0
M  V30 29541 H 2742.38 -0.669196 -4.63292 0
M  V30 29542 H 2742.56 -1.17574 -6.37244 0
M  V30 29543 N 2735.96 1.57451 -0.0685468 0
M  V30 29544 C 2737.21 1.92542 0.600864 0
M  V30 29545 C 2737.53 0.950269 1.70966 0
M  V30 29546 O 2738.73 1.19388 2.43842 0
M  V30 29547 C 2737.19 3.42025 1.12013 0
M  V30 29548 C 2736.8 4.4798 0.042524 0
M  V30 29549 C 2738.54 3.86122 1.7638 0
M  V30 29550 C 2736.45 5.88592 0.575655 0
M  V30 29551 H 2735.38 0.718634 0.228213 0
M  V30 29552 H 2738.03 1.82963 -0.140255 0
M  V30 29553 H 2736.41 3.46666 1.91412 0
M  V30 29554 H 2737.58 4.5495 -0.7319 0
M  V30 29555 H 2735.9 4.1333 -0.504715 0
M  V30 29556 H 2738.5 4.88557 2.17293 0
M  V30 29557 H 2738.84 3.23313 2.62249 0
M  V30 29558 H 2739.37 3.8407 1.03608 0
M  V30 29559 H 2736.11 6.55039 -0.245807 0
M  V30 29560 H 2735.63 5.85147 1.31767 0
M  V30 29561 H 2737.31 6.38372 1.05309 0
M  V30 29562 N 2737.44 -0.204984 1.56261 0
M  V30 29563 C 2738.69 -0.925064 1.79686 0
M  V30 29564 C 2739.01 -1.84201 0.639922 0
M  V30 29565 O 2738.28 -1.92886 -0.342311 0
M  V30 29566 H 2736.86 -0.344575 0.66278 0
M  V30 29567 H 2739.52 -0.212865 1.93734 0
M  V30 29568 H 2738.62 -1.52206 2.72469 0
M  V30 29569 N 2738.92 -1.50356 -0.472329 0
M  V30 29570 C 2740.14 -1.65311 -1.25248 0
M  V30 29571 C 2740.57 -0.335675 -1.85081 0
M  V30 29572 O 2739.93 0.700306 -1.67229 0
M  V30 29573 C 2739.98 -2.74548 -2.33785 0
M  V30 29574 O 2739.08 -2.35715 -3.38396 0
M  V30 29575 H 2738.42 -0.552343 -0.368529 0
M  V30 29576 H 2740.95 -1.96723 -0.562236 0
M  V30 29577 H 2740.96 -2.97587 -2.79116 0
M  V30 29578 H 2739.64 -3.70165 -1.89607 0
M  V30 29579 H 2738.21 -2.23118 -2.98786 0
M  V30 29580 N 2740.4 0.725419 -1.39912 0
M  V30 29581 C 2741.62 1.51968 -1.4114 0
M  V30 29582 C 2742.05 1.88097 -0.010295 0
M  V30 29583 O 2741.41 1.52585 0.979157 0
M  V30 29584 C 2741.45 2.77773 -2.29945 0
M  V30 29585 O 2740.56 3.74085 -1.73593 0
M  V30 29586 H 2739.9 0.458561 -0.480227 0
M  V30 29587 H 2742.43 0.894217 -1.84024 0
M  V30 29588 H 2742.44 3.26407 -2.44791 0
M  V30 29589 H 2741.11 2.5081 -3.31764 0
M  V30 29590 H 2739.69 3.32891 -1.68041 0
M  V30 29591 N 2741.88 1.25246 0.956615 0
M  V30 29592 C 2743.12 1.10039 1.7035 0
M  V30 29593 C 2743.45 -0.358122 1.90869 0
M  V30 29594 O 2742.73 -1.26408 1.47822 0
M  V30 29595 C 2743.01 1.85304 3.08763 0
M  V30 29596 C 2742.87 3.38972 2.95666 0
M  V30 29597 C 2744.18 1.63458 4.08619 0
M  V30 29598 H 2741.3 0.401134 0.618272 0
M  V30 29599 H 2743.95 1.54053 1.1121 0
M  V30 29600 H 2742.1 1.47893 3.59249 0
M  V30 29601 H 2743.77 3.86045 2.5252 0
M  V30 29602 H 2742.01 3.66785 2.31628 0
M  V30 29603 H 2742.68 3.86846 3.93769 0
M  V30 29604 H 2745.16 1.96022 3.67035 0
M  V30 29605 H 2744.03 2.1856 5.03511 0
M  V30 29606 H 2744.29 0.575434 4.38339 0
M  V30 29607 N 2743.35 -1.15894 1.068 0
M  V30 29608 C 2744.26 -2.24081 0.694603 0
M  V30 29609 C 2745.28 -1.71538 -0.291657 0
M  V30 29610 O 2746.46 -2.00915 -0.139688 0
M  V30 29611 C 2743.52 -3.46577 0.0921623 0
M  V30 29612 C 2742.58 -4.14135 1.13095 0
M  V30 29613 C 2741.81 -5.30784 0.557158 0
M  V30 29614 O 2742.04 -5.66927 -0.628523 0
M  V30 29615 O 2740.97 -5.87708 1.29934 0
M  V30 29616 H 2744.8 -2.58341 1.59668 0
M  V30 29617 H 2742.38 -1.23508 0.840597 0
M  V30 29618 H 2744.26 -4.20706 -0.24181 0
M  V30 29619 H 2742.94 -3.14079 -0.783315 0
M  V30 29620 H 2741.85 -3.41954 1.51718 0
M  V30 29621 H 2743.18 -4.507 1.97813 0
M  V30 29622 N 2744.83 -0.851312 -1.32629 0
M  V30 29623 C 2746.08 -0.453058 -1.97367 0
M  V30 29624 C 2746.41 0.990566 -1.67386 0
M  V30 29625 O 2745.66 1.70945 -0.952695 0
M  V30 29626 C 2745.96 -0.635077 -3.51712 0
M  V30 29627 C 2745.63 -2.04866 -4.01672 0
M  V30 29628 C 2744.29 -2.43529 -4.15026 0
M  V30 29629 C 2746.64 -2.97142 -4.28201 0
M  V30 29630 C 2743.97 -3.73747 -4.5225 0
M  V30 29631 C 2746.32 -4.26854 -4.66881 0
M  V30 29632 C 2744.98 -4.65457 -4.78442 0
M  V30 29633 H 2744.25 -0.165786 -0.722216 0
M  V30 29634 H 2746.9 -1.08072 -1.5809 0
M  V30 29635 H 2745.21 0.0758392 -3.91727 0
M  V30 29636 H 2746.9 -0.307034 -3.99823 0
M  V30 29637 H 2743.49 -1.73843 -3.91761 0
M  V30 29638 H 2747.68 -2.68505 -4.17395 0
M  V30 29639 H 2742.93 -4.03443 -4.59395 0
M  V30 29640 H 2747.11 -4.98421 -4.86363 0
M  V30 29641 H 2744.73 -5.66403 -5.07042 0
M  V30 29642 N 2746.31 1.45361 -0.608928 0
M  V30 29643 C 2747.59 1.95566 -0.0365721 0
M  V30 29644 C 2747.97 1.55134 1.43167 0
M  V30 29645 O 2747.31 0.814551 2.13488 0
M  V30 29646 C 2747.52 3.48201 -0.236087 0
M  V30 29647 C 2748.87 4.24437 -0.117593 0
M  V30 29648 O 2749.9 3.55812 -0.16628 0
M  V30 29649 O 2748.76 5.465 -0.00381733 0
M  V30 29650 H 2745.85 0.82626 0.0349729 0
M  V30 29651 H 2748.4 1.5552 -0.679083 0
M  V30 29652 H 2747.17 3.70603 -1.25575 0
M  V30 29653 H 2746.79 3.9514 0.441622 0
M  V30 29654 N 2747.79 0.348166 1.53706 0
M  V30 29655 C 2749.03 -0.239951 2.0198 0
M  V30 29656 C 2749.39 -1.47829 1.23144 0
M  V30 29657 O 2748.68 -1.89043 0.311969 0
M  V30 29658 C 2748.88 -0.601999 3.52294 0
M  V30 29659 C 2748.7 0.599704 4.45683 0
M  V30 29660 C 2747.47 1.10644 4.93038 0
M  V30 29661 C 2749.67 1.45958 4.93154 0
M  V30 29662 N 2747.65 2.26998 5.7039 0
M  V30 29663 C 2749.03 2.46998 5.68675 0
M  V30 29664 C 2751.08 1.48449 4.75255 0
M  V30 29665 C 2749.78 3.50364 6.28202 0
M  V30 29666 C 2751.81 2.50699 5.35634 0
M  V30 29667 C 2751.17 3.50464 6.11027 0
M  V30 29668 H 2747.27 -0.0509855 0.780336 0
M  V30 29669 H 2749.85 0.488775 1.88465 0
M  V30 29670 H 2748.03 -1.29982 3.66004 0
M  V30 29671 H 2749.76 -1.1737 3.87307 0
M  V30 29672 H 2746.51 0.673793 4.68782 0
M  V30 29673 H 2746.94 2.85758 6.13735 0
M  V30 29674 H 2751.58 0.72678 4.16507 0
M  V30 29675 H 2749.3 4.27027 6.86056 0
M  V30 29676 H 2752.88 2.53458 5.23689 0
M  V30 29677 H 2751.76 4.28287 6.56917 0
M  V30 29678 N 2749.27 -1.57412 0.0768958 0
M  V30 29679 C 2750.49 -1.98429 -0.603369 0
M  V30 29680 C 2750.92 -0.955137 -1.62046 0
M  V30 29681 O 2750.27 0.0786459 -1.81129 0
M  V30 29682 C 2750.32 -3.38466 -1.2439 0
M  V30 29683 O 2749.43 -3.38214 -2.35976 0
M  V30 29684 H 2748.77 -0.64572 -0.15473 0
M  V30 29685 H 2751.3 -2.04028 0.152921 0
M  V30 29686 H 2751.31 -3.75763 -1.58954 0
M  V30 29687 H 2749.98 -4.129 -0.498663 0
M  V30 29688 H 2748.56 -3.12693 -2.03168 0
M  V30 29689 N 2750.74 0.196695 -1.56368 0
M  V30 29690 C 2751.71 1.22743 -1.93563 0
M  V30 29691 C 2752.71 1.38522 -0.81659 0
M  V30 29692 O 2753.9 1.36362 -1.08403 0
M  V30 29693 C 2751.03 2.59708 -2.20827 0
M  V30 29694 H 2752.22 0.909536 -2.85775 0
M  V30 29695 H 2749.78 0.438148 -1.50033 0
M  V30 29696 H 2750.51 2.96554 -1.31248 0
M  V30 29697 H 2750.3 2.49626 -3.02372 0
M  V30 29698 H 2751.79 3.34039 -2.50614 0
M  V30 29699 N 2752.22 1.50604 0.464349 0
M  V30 29700 C 2753.47 1.61169 1.21274 0
M  V30 29701 C 2753.78 0.320738 1.92952 0
M  V30 29702 O 2754.99 0.305388 2.69777 0
M  V30 29703 C 2753.45 2.84522 2.20398 0
M  V30 29704 C 2753.05 4.20519 1.54492 0
M  V30 29705 C 2754.8 3.04435 2.95837 0
M  V30 29706 C 2752.71 5.35051 2.51941 0
M  V30 29707 H 2751.64 0.600212 0.456356 0
M  V30 29708 H 2754.29 1.77043 0.482509 0
M  V30 29709 H 2752.67 2.62222 2.96742 0
M  V30 29710 H 2753.84 4.53099 0.83891 0
M  V30 29711 H 2752.16 4.06266 0.913081 0
M  V30 29712 H 2754.75 3.87173 3.68783 0
M  V30 29713 H 2755.1 2.16429 3.55618 0
M  V30 29714 H 2755.63 3.26948 2.26606 0
M  V30 29715 H 2752.37 6.25232 1.9689 0
M  V30 29716 H 2751.89 5.06881 3.20674 0
M  V30 29717 H 2753.57 5.65901 3.13633 0
M  V30 29718 N 2753.7 -0.717989 1.40295 0
M  V30 29719 C 2754.65 -1.82362 1.3685 0
M  V30 29720 C 2755.63 -1.59001 0.246452 0
M  V30 29721 O 2756.83 -1.70215 0.485366 0
M  V30 29722 C 2753.96 -3.20466 1.2311 0
M  V30 29723 C 2753.04 -3.49599 2.40086 0
M  V30 29724 N 2753.43 -3.49562 3.65568 0
M  V30 29725 C 2751.73 -3.80045 2.33414 0
M  V30 29726 C 2752.43 -3.7697 4.43022 0
M  V30 29727 N 2751.41 -3.95599 3.7283 0
M  V30 29728 H 2755.21 -1.80664 2.31814 0
M  V30 29729 H 2752.72 -0.917006 1.34033 0
M  V30 29730 H 2754.72 -3.99637 1.18725 0
M  V30 29731 H 2753.38 -3.23392 0.291113 0
M  V30 29732 H 2754.39 -3.30469 3.98762 0
M  V30 29733 H 2751.07 -3.90475 1.47768 0
M  V30 29734 H 2752.46 -3.83267 5.51866 0
M  V30 29735 N 2755.18 -1.25752 -0.94996 0
M  V30 29736 C 2756.42 -1.11988 -1.70992 0
M  V30 29737 C 2756.78 0.332713 -1.89095 0
M  V30 29738 O 2757.98 0.592285 -2.62193 0
M  V30 29739 C 2756.25 -1.85842 -3.05282 0
M  V30 29740 S 2757.81 -1.88026 -3.96474 0
M  V30 29741 H 2754.63 -0.400188 -0.587682 0
M  V30 29742 H 2757.23 -1.59344 -1.13268 0
M  V30 29743 H 2755.94 -2.90613 -2.8978 0
M  V30 29744 H 2755.47 -1.38891 -3.68066 0
M  V30 29745 H 2757.48 -0.960656 -4.86812 0
M  V30 29746 N 2756.66 1.15326 -1.07413 0
M  V30 29747 C 2757.9 1.86403 -0.798863 0
M  V30 29748 C 2758.24 1.82151 0.673401 0
M  V30 29749 O 2757.51 1.24508 1.49426 0
M  V30 29750 C 2757.79 3.35484 -1.30852 0
M  V30 29751 C 2757.65 3.48365 -2.84538 0
M  V30 29752 C 2758.97 4.30257 -0.925562 0
M  V30 29753 H 2756.08 0.676829 -0.291671 0
M  V30 29754 H 2758.73 1.35489 -1.33202 0
M  V30 29755 H 2756.88 3.78975 -0.854983 0
M  V30 29756 H 2758.55 3.13733 -3.38185 0
M  V30 29757 H 2756.79 2.89904 -3.22704 0
M  V30 29758 H 2757.46 4.53112 -3.15267 0
M  V30 29759 H 2759.94 3.94729 -1.31637 0
M  V30 29760 H 2758.81 5.33051 -1.30949 0
M  V30 29761 H 2759.08 4.41779 0.168447 0
M  V30 29762 N 2758.13 0.858334 1.32176 0
M  V30 29763 C 2759.08 0.303647 2.28794 0
M  V30 29764 C 2760.05 -0.591426 1.55214 0
M  V30 29765 O 2761.24 -0.525553 1.83419 0
M  V30 29766 C 2758.38 -0.49883 3.41476 0
M  V30 29767 C 2757.49 0.422448 4.2993 0
M  V30 29768 C 2756.62 -0.393018 5.29744 0
M  V30 29769 C 2755.66 0.525425 6.09841 0
M  V30 29770 N 2754.8 -0.253084 7.01644 0
M  V30 29771 H 2759.64 1.13281 2.75629 0
M  V30 29772 H 2757.18 0.570049 1.35605 0
M  V30 29773 H 2759.14 -0.979755 4.05533 0
M  V30 29774 H 2757.77 -1.29279 2.95782 0
M  V30 29775 H 2756.82 1.02178 3.6642 0
M  V30 29776 H 2758.13 1.12717 4.85897 0
M  V30 29777 H 2757.28 -0.936951 5.99421 0
M  V30 29778 H 2756.02 -1.13109 4.74402 0
M  V30 29779 H 2755.03 1.08121 5.39064 0
M  V30 29780 H 2756.25 1.26216 6.67268 0
M  V30 29781 H 2754.2 -0.974181 6.48726 0
M  V30 29782 H 2754.12 0.392531 7.5498 0
M  V30 29783 H 2755.38 -0.778625 7.75602 0
M  V30 29784 N 2759.61 -1.45036 0.616628 0
M  V30 29785 C 2760.84 -2.0654 0.122004 0
M  V30 29786 C 2761.26 -1.45971 -1.19741 0
M  V30 29787 O 2760.61 -0.577198 -1.73132 0
M  V30 29788 C 2760.66 -3.61497 -0.0144536 0
M  V30 29789 O 2760.38 -4.19806 1.25276 0
M  V30 29790 C 2761.89 -4.40005 -0.539478 0
M  V30 29791 H 2759.11 -0.667018 0.0729954 0
M  V30 29792 H 2761.65 -1.86138 0.846924 0
M  V30 29793 H 2759.8 -3.8121 -0.689742 0
M  V30 29794 H 2760.22 -5.13086 1.08825 0
M  V30 29795 H 2761.69 -5.48902 -0.584015 0
M  V30 29796 H 2762.17 -4.10424 -1.56361 0
M  V30 29797 H 2762.78 -4.25178 0.10207 0
M  V30 29798 N 2761.09 -0.356312 -1.53519 0
M  V30 29799 C 2762.34 0.237338 -2.00299 0
M  V30 29800 C 2762.65 1.50625 -1.24786 0
M  V30 29801 O 2763.86 2.17793 -1.62107 0
M  V30 29802 C 2762.31 0.473482 -3.56772 0
M  V30 29803 C 2761.92 -0.780261 -4.41153 0
M  V30 29804 C 2763.67 1.02529 -4.11932 0
M  V30 29805 C 2761.57 -0.514211 -5.8916 0
M  V30 29806 H 2760.5 0.0924649 -0.748309 0
M  V30 29807 H 2763.15 -0.473619 -1.77283 0
M  V30 29808 H 2761.54 1.24547 -3.75904 0
M  V30 29809 H 2762.71 -1.55433 -4.33794 0
M  V30 29810 H 2761.03 -1.25462 -3.97049 0
M  V30 29811 H 2763.62 1.23951 -5.20135 0
M  V30 29812 H 2763.97 1.98467 -3.65946 0
M  V30 29813 H 2764.5 0.313705 -3.96561 0
M  V30 29814 H 2761.24 -1.44366 -6.39405 0
M  V30 29815 H 2760.76 0.221527 -5.99391 0
M  V30 29816 H 2762.44 -0.136236 -6.46857 0
M  V30 29817 N 2762.57 1.57369 -0.0852427 0
M  V30 29818 C 2763.98 1.57275 0.271408 0
M  V30 29819 C 2764.18 1.09568 1.69107 0
M  V30 29820 O 2763.24 0.767653 2.40548 0
M  V30 29821 C 2764.55 3.00621 0.0688109 0
M  V30 29822 C 2766.1 3.12699 0.137318 0
M  V30 29823 C 2766.58 4.57985 -0.0371637 0
M  V30 29824 N 2768.07 4.63197 0.0179979 0
M  V30 29825 C 2768.8 5.73326 -0.0923961 0
M  V30 29826 N 2768.3 6.92323 -0.25707 0
M  V30 29827 N 2770.09 5.62089 -0.034369 0
M  V30 29828 H 2762.24 1.86692 -1.01292 0
M  V30 29829 H 2764.51 0.861259 -0.396154 0
M  V30 29830 H 2764.21 3.39687 -0.911337 0
M  V30 29831 H 2764.09 3.68282 0.815377 0
M  V30 29832 H 2766.47 2.73511 1.10796 0
M  V30 29833 H 2766.55 2.47649 -0.640575 0
M  V30 29834 H 2766.2 4.97865 -1.00463 0
M  V30 29835 H 2766.13 5.21083 0.760301 0
M  V30 29836 H 2768.62 3.77629 0.143135 0
M  V30 29837 H 2768.93 7.72082 -0.333085 0
M  V30 29838 H 2767.28 6.94384 -0.292609 0
M  V30 29839 H 2770.47 4.68007 0.0930782 0
M  V30 29840 H 2770.64 6.47882 -0.123854 0
M  V30 29841 N 2764.05 -0.188399 1.5647 0
M  V30 29842 C 2764.99 -1.23346 1.95076 0
M  V30 29843 C 2765.96 -1.44884 0.812264 0
M  V30 29844 O 2767.15 -1.57907 1.07098 0
M  V30 29845 C 2764.29 -2.57167 2.30128 0
M  V30 29846 C 2763.4 -2.43151 3.57074 0
M  V30 29847 C 2762.54 -3.69722 3.81417 0
M  V30 29848 C 2761.58 -3.50566 5.01766 0
M  V30 29849 N 2760.71 -4.69165 5.2233 0
M  V30 29850 H 2765.55 -0.89723 2.84172 0
M  V30 29851 H 2763.09 -0.431659 1.40624 0
M  V30 29852 H 2765.05 -3.3514 2.48469 0
M  V30 29853 H 2763.68 -2.88819 1.44164 0
M  V30 29854 H 2762.73 -1.56441 3.46743 0
M  V30 29855 H 2764.04 -2.24934 4.45204 0
M  V30 29856 H 2763.2 -4.56134 4.00034 0
M  V30 29857 H 2761.93 -3.909 2.9163 0
M  V30 29858 H 2760.94 -2.6254 4.83066 0
M  V30 29859 H 2762.16 -3.30827 5.93069 0
M  V30 29860 H 2760.11 -4.90595 4.35491 0
M  V30 29861 H 2760.03 -4.53798 6.04651 0
M  V30 29862 H 2761.3 -5.56909 5.4541 0
M  V30 29863 N 2765.53 -1.50848 -0.456355 0
M  V30 29864 C 2766.46 -1.73722 -1.56022 0
M  V30 29865 C 2767.44 -0.586501 -1.59669 0
M  V30 29866 O 2768.62 -0.827216 -1.75701 0
M  V30 29867 C 2765.75 -1.84488 -2.94247 0
M  V30 29868 C 2764.71 -2.99791 -3.05466 0
M  V30 29869 C 2764.03 -2.95717 -4.45483 0
M  V30 29870 C 2765.33 -4.4007 -2.8131 0
M  V30 29871 H 2767.03 -2.66148 -1.37133 0
M  V30 29872 H 2764.57 -1.28073 -0.658277 0
M  V30 29873 H 2766.52 -1.99074 -3.71413 0
M  V30 29874 H 2765.25 -0.886946 -3.14326 0
M  V30 29875 H 2763.91 -2.8488 -2.30736 0
M  V30 29876 H 2763.56 -1.9774 -4.62502 0
M  V30 29877 H 2763.26 -3.73133 -4.53923 0
M  V30 29878 H 2764.78 -3.12371 -5.24649 0
M  V30 29879 H 2766.19 -4.55431 -3.48218 0
M  V30 29880 H 2764.59 -5.19048 -3.01179 0
M  V30 29881 H 2765.66 -4.51421 -1.77052 0
M  V30 29882 N 2767 0.710538 -1.40674 0
M  V30 29883 C 2767.95 1.84593 -1.41521 0
M  V30 29884 C 2768.95 1.6681 -0.295072 0
M  V30 29885 O 2770.15 1.73854 -0.466362 0
M  V30 29886 H 2766.53 0.608044 -0.442477 0
M  V30 29887 H 2768.5 1.80995 -2.37241 0
M  V30 29888 C 2767.25 3.22498 -1.29963 0
M  V30 29889 H 2766.57 3.3679 -2.15435 0
M  V30 29890 H 2768.01 4.02063 -1.34615 0
M  V30 29891 C 2766.47 3.36898 -0.0103756 0
M  V30 29892 O 2767 3.90289 0.950638 0
M  V30 29893 N 2765.2 2.90536 0.0607899 0
M  V30 29894 H 2764.75 2.47275 -0.721986 0
M  V30 29895 H 2764.71 3.0055 0.922867 0
M  V30 29896 N 2768.48 1.26254 0.943277 0
M  V30 29897 C 2769.43 1.04301 2.02745 0
M  V30 29898 C 2770.42 -0.0239152 1.60882 0
M  V30 29899 O 2771.61 0.192788 1.75947 0
M  V30 29900 C 2768.74 0.675759 3.36583 0
M  V30 29901 C 2767.82 1.78003 3.84936 0
M  V30 29902 N 2768.21 3.01711 4.05961 0
M  V30 29903 C 2766.51 1.66315 4.1383 0
M  V30 29904 C 2767.21 3.73466 4.4598 0
M  V30 29905 N 2766.19 3.01143 4.52564 0
M  V30 29906 H 2769.99 1.98203 2.17009 0
M  V30 29907 H 2767.5 1.1674 1.12896 0
M  V30 29908 H 2769.5 0.499643 4.13895 0
M  V30 29909 H 2768.16 -0.255806 3.23691 0
M  V30 29910 H 2769.17 3.37638 3.9271 0
M  V30 29911 H 2765.85 0.801339 4.09737 0
M  V30 29912 H 2767.24 4.79709 4.70456 0
M  V30 29913 N 2769.96 -1.14755 1.08024 0
M  V30 29914 C 2770.91 -2.19714 0.706696 0
M  V30 29915 C 2771.88 -1.63272 -0.305221 0
M  V30 29916 O 2773.06 -1.8985 -0.190117 0
M  V30 29917 C 2770.2 -3.44898 0.117975 0
M  V30 29918 C 2769.31 -4.1551 1.1822 0
M  V30 29919 C 2768.45 -5.28264 0.557752 0
M  V30 29920 C 2767.49 -5.90702 1.60428 0
M  V30 29921 N 2766.63 -6.94914 1.00192 0
M  V30 29922 H 2771.47 -2.51016 1.60608 0
M  V30 29923 H 2769 -1.2327 0.802685 0
M  V30 29924 H 2770.96 -4.16503 -0.241039 0
M  V30 29925 H 2769.59 -3.14092 -0.744733 0
M  V30 29926 H 2768.64 -3.42333 1.65869 0
M  V30 29927 H 2769.95 -4.58016 1.97541 0
M  V30 29928 H 2769.11 -6.06522 0.146761 0
M  V30 29929 H 2767.85 -4.86968 -0.267163 0
M  V30 29930 H 2766.85 -5.1115 2.02498 0
M  V30 29931 H 2768.08 -6.34074 2.43161 0
M  V30 29932 H 2766.02 -6.55701 0.198032 0
M  V30 29933 H 2765.94 -7.35886 1.73229 0
M  V30 29934 H 2767.21 -7.77057 0.61666 0
M  V30 29935 N 2771.44 -0.865331 -1.31719 0
M  V30 29936 C 2772.4 -0.322667 -2.26917 0
M  V30 29937 C 2773.4 0.523725 -1.52032 0
M  V30 29938 O 2774.59 0.333697 -1.70974 0
M  V30 29939 C 2771.72 0.542279 -3.36559 0
M  V30 29940 H 2772.92 -1.16303 -2.7643 0
M  V30 29941 H 2770.47 -0.640537 -1.42572 0
M  V30 29942 H 2771.2 1.40402 -2.92331 0
M  V30 29943 H 2770.99 -0.0637084 -3.92048 0
M  V30 29944 H 2772.48 0.914388 -4.07466 0
M  V30 29945 N 2772.92 1.44707 -0.624311 0
M  V30 29946 C 2774.16 2.01321 -0.123575 0
M  V30 29947 C 2774.48 1.49642 1.25963 0
M  V30 29948 O 2775.68 1.9834 1.85401 0
M  V30 29949 C 2774.14 3.59497 -0.170187 0
M  V30 29950 C 2773.75 4.20174 -1.55429 0
M  V30 29951 C 2775.49 4.23612 0.274439 0
M  V30 29952 C 2773.4 5.70553 -1.55638 0
M  V30 29953 H 2772.33 0.752805 -0.0424316 0
M  V30 29954 H 2774.98 1.65998 -0.782105 0
M  V30 29955 H 2773.36 3.92087 0.555316 0
M  V30 29956 H 2774.54 3.99132 -2.30283 0
M  V30 29957 H 2772.85 3.68319 -1.94242 0
M  V30 29958 H 2775.45 5.339 0.292308 0
M  V30 29959 H 2775.79 3.95468 1.30043 0
M  V30 29960 H 2776.32 3.95801 -0.398345 0
M  V30 29961 H 2773.06 6.03422 -2.56051 0
M  V30 29962 H 2772.58 5.93737 -0.850668 0
M  V30 29963 H 2774.26 6.34064 -1.28732 0
M  V30 29964 N 2774.39 0.364449 1.53328 0
M  V30 29965 C 2775.32 -0.474503 2.28628 0
M  V30 29966 C 2776.3 -1.0849 1.31011 0
M  V30 29967 O 2777.49 -1.10236 1.5988 0
M  V30 29968 C 2774.62 -1.61496 3.07468 0
M  V30 29969 C 2773.57 -1.13187 4.12762 0
M  V30 29970 C 2772.9 -2.36247 4.79678 0
M  V30 29971 C 2774.2 -0.217416 5.21847 0
M  V30 29972 H 2775.89 0.153708 2.99005 0
M  V30 29973 H 2773.44 0.0753659 1.43803 0
M  V30 29974 H 2775.39 -2.20849 3.58892 0
M  V30 29975 H 2774.12 -2.27038 2.34779 0
M  V30 29976 H 2772.78 -0.561026 3.62282 0
M  V30 29977 H 2772.42 -3.00243 4.03563 0
M  V30 29978 H 2772.12 -2.04596 5.50831 0
M  V30 29979 H 2773.65 -2.96288 5.33897 0
M  V30 29980 H 2775.06 -0.718393 5.68781 0
M  V30 29981 H 2773.46 0.00816956 6.00099 0
M  V30 29982 H 2774.53 0.740738 4.79209 0
M  V30 29983 N 2775.87 -1.57322 0.0935872 0
M  V30 29984 C 2777.12 -1.93474 -0.570157 0
M  V30 29985 C 2777.43 -0.977348 -1.69432 0
M  V30 29986 O 2778.64 -1.23252 -2.41911 0
M  V30 29987 C 2777.1 -3.43764 -1.06558 0
M  V30 29988 C 2776.7 -4.47991 0.0287511 0
M  V30 29989 C 2778.45 -3.8888 -1.70214 0
M  V30 29990 C 2776.35 -5.89433 -0.481943 0
M  V30 29991 H 2775.28 -0.722174 -0.216751 0
M  V30 29992 H 2777.94 -1.82717 0.169345 0
M  V30 29993 H 2776.32 -3.49668 -1.85872 0
M  V30 29994 H 2777.49 -4.53728 0.804186 0
M  V30 29995 H 2775.81 -4.12475 0.570408 0
M  V30 29996 H 2778.4 -4.91952 -2.09493 0
M  V30 29997 H 2778.75 -3.27444 -2.57072 0
M  V30 29998 H 2779.28 -3.8567 -0.974851 0
M  V30 29999 H 2776.02 -6.54565 0.349986 0
M  V30 30000 H 2775.54 -5.8717 -1.22442 0
M  V30 30001 H 2777.22 -6.39967 -0.951395 0
M  V30 30002 N 2777.35 0.180099 -1.56568 0
M  V30 30003 C 2778.3 1.24248 -1.96635 0
M  V30 30004 C 2779.29 1.46307 -0.853844 0
M  V30 30005 O 2780.5 1.46991 -1.03892 0
M  V30 30006 H 2776.87 0.417462 -0.625483 0
M  V30 30007 H 2778.84 0.877629 -2.85202 0
M  V30 30008 C 2777.59 2.57638 -2.33491 0
M  V30 30009 H 2776.92 2.41484 -3.18631 0
M  V30 30010 H 2778.36 3.30683 -2.65377 0
M  V30 30011 C 2776.81 3.15744 -1.17504 0
M  V30 30012 O 2777.34 3.9908 -0.458026 0
M  V30 30013 N 2775.55 2.74705 -0.947908 0
M  V30 30014 H 2775.1 2.07039 -1.53273 0
M  V30 30015 H 2775.06 3.1392 -0.173682 0
M  V30 30016 N 2778.83 1.51088 0.448349 0
M  V30 30017 C 2780.07 1.64863 1.20829 0
M  V30 30018 C 2780.43 0.351907 1.88747 0
M  V30 30019 O 2781.63 0.365312 2.66306 0
M  V30 30020 C 2779.9 2.8114 2.20669 0
M  V30 30021 S 2781.46 3.15181 3.05297 0
M  V30 30022 H 2778.28 0.580943 0.409909 0
M  V30 30023 H 2780.88 1.88956 0.50159 0
M  V30 30024 H 2779.59 3.73811 1.69392 0
M  V30 30025 H 2779.12 2.59203 2.95935 0
M  V30 30026 H 2781.13 2.60763 4.22158 0
M  V30 30027 N 2780.31 -0.703068 1.41049 0
M  V30 30028 C 2781.25 -1.8384 1.42498 0
M  V30 30029 C 2782.25 -1.66651 0.303914 0
M  V30 30030 O 2783.45 -1.73604 0.475575 0
M  V30 30031 H 2779.83 -0.605689 0.445696 0
M  V30 30032 H 2781.8 -1.79734 2.38198 0
M  V30 30033 C 2780.55 -3.21804 1.31671 0
M  V30 30034 H 2779.87 -3.35643 2.17218 0
M  V30 30035 H 2781.31 -4.01344 1.36745 0
M  V30 30036 C 2779.77 -3.36888 0.028242 0
M  V30 30037 O 2780.3 -3.90788 -0.929927 0
M  V30 30038 N 2778.51 -2.90565 -0.0453812 0
M  V30 30039 H 2778.05 -2.46889 0.73509 0
M  V30 30040 H 2778.01 -3.01036 -0.906915 0
M  V30 30041 N 2781.78 -1.26752 -0.936569 0
M  V30 30042 C 2783.2 -1.11412 -1.49814 0
M  V30 30043 C 2783.55 0.303981 -1.93831 0
M  V30 30044 O 2782.67 1.19597 -1.80348 0
M  V30 30045 C 2783.27 -2.01633 -2.72267 0
M  V30 30046 C 2781.83 -1.90425 -3.24677 0
M  V30 30047 C 2780.97 -1.94711 -1.9744 0
M  V30 30048 H 2783.92 -1.39775 -0.75158 0
M  V30 30049 H 2783.94 -1.56694 -3.46738 0
M  V30 30050 H 2783.46 -3.04837 -2.402 0
M  V30 30051 H 2781.56 -0.901738 -3.61524 0
M  V30 30052 H 2781.67 -2.76201 -3.91471 0
M  V30 30053 H 2780.03 -1.38822 -2.13543 0
M  V30 30054 H 2780.82 -2.99553 -1.67698 0
M  V30 30055 N 2783.26 1.1418 -1.08631 0
M  V30 30056 C 2784.17 2.22948 -0.730165 0
M  V30 30057 C 2785.19 1.71981 0.26433 0
M  V30 30058 O 2786.36 2.01112 0.107706 0
M  V30 30059 C 2783.43 3.46387 -0.147288 0
M  V30 30060 C 2782.49 4.12284 -1.19669 0
M  V30 30061 C 2781.72 5.2983 -0.64153 0
M  V30 30062 O 2781.95 5.67855 0.538251 0
M  V30 30063 O 2780.88 5.85567 -1.39267 0
M  V30 30064 H 2784.71 2.55768 -1.63757 0
M  V30 30065 H 2782.29 1.22155 -0.860139 0
M  V30 30066 H 2784.17 4.21037 0.174849 0
M  V30 30067 H 2782.85 3.15286 0.733248 0
M  V30 30068 H 2781.76 3.39497 -1.57139 0
M  V30 30069 H 2783.09 4.47496 -2.04958 0
M  V30 30070 N 2784.74 0.872304 1.31258 0
M  V30 30071 C 2785.97 0.498942 2.00794 0
M  V30 30072 C 2786.38 -0.909209 1.65466 0
M  V30 30073 O 2785.74 -1.596 0.885101 0
M  V30 30074 C 2785.79 0.649155 3.55624 0
M  V30 30075 O 2785.51 2.00185 3.89689 0
M  V30 30076 C 2787.01 0.277112 4.42433 0
M  V30 30077 H 2784.23 0.194157 0.642296 0
M  V30 30078 H 2786.78 1.17411 1.67436 0
M  V30 30079 H 2784.93 0.0215083 3.87394 0
M  V30 30080 H 2785.35 2.01131 4.84403 0
M  V30 30081 H 2786.82 0.433161 5.50298 0
M  V30 30082 H 2787.3 -0.783913 4.32147 0
M  V30 30083 H 2787.9 0.880556 4.16084 0
M  V30 30084 N 2786.22 -1.44374 0.631976 0
M  V30 30085 C 2787.46 -2.02337 0.137005 0
M  V30 30086 C 2787.8 -1.49604 -1.23824 0
M  V30 30087 O 2787.07 -0.680447 -1.82209 0
M  V30 30088 C 2787.36 -3.59884 0.1246 0
M  V30 30089 C 2787.21 -4.22898 1.53224 0
M  V30 30090 C 2788.53 -4.36645 -0.550404 0
M  V30 30091 H 2785.65 -0.735215 0.0512599 0
M  V30 30092 H 2788.29 -1.71935 0.808612 0
M  V30 30093 H 2786.44 -3.85916 -0.447303 0
M  V30 30094 H 2788.11 -4.0797 2.1531 0
M  V30 30095 H 2786.35 -3.8036 2.08587 0
M  V30 30096 H 2787.02 -5.31912 1.47559 0
M  V30 30097 H 2789.5 -4.16051 -0.0640423 0
M  V30 30098 H 2788.38 -5.46352 -0.528275 0
M  V30 30099 H 2788.64 -4.11314 -1.6209 0
M  V30 30100 N 2787.7 -0.372575 -1.53133 0
M  V30 30101 C 2788.92 0.218062 -2.0625 0
M  V30 30102 C 2789.35 1.41109 -1.24378 0
M  V30 30103 O 2788.7 1.79359 -0.264585 0
M  V30 30104 C 2788.75 0.582814 -3.55859 0
M  V30 30105 O 2787.86 1.6791 -3.7667 0
M  V30 30106 H 2787.2 0.0300924 -0.663318 0
M  V30 30107 H 2789.73 -0.535204 -1.97476 0
M  V30 30108 H 2789.74 0.851855 -3.99008 0
M  V30 30109 H 2788.41 -0.289501 -4.14891 0
M  V30 30110 H 2786.99 1.40507 -3.45416 0
M  V30 30111 N 2789.17 1.5727 -0.101929 0
M  V30 30112 C 2790.4 1.9894 0.568357 0
M  V30 30113 C 2790.82 0.981222 1.61299 0
M  V30 30114 O 2790.17 -0.0282548 1.82478 0
M  V30 30115 C 2790.23 3.40651 1.20991 0
M  V30 30116 O 2789.95 4.3761 0.207052 0
M  V30 30117 C 2791.45 3.97362 1.96516 0
M  V30 30118 H 2788.67 0.653592 0.151848 0
M  V30 30119 H 2791.21 2.03677 -0.183233 0
M  V30 30120 H 2789.37 3.36907 1.91239 0
M  V30 30121 H 2789.78 5.2019 0.67098 0
M  V30 30122 H 2791.25 4.98649 2.36755 0
M  V30 30123 H 2791.73 3.35557 2.8337 0
M  V30 30124 H 2792.34 4.046 1.31069 0
M  V30 30125 N 2790.65 -0.171793 1.56661 0
M  V30 30126 C 2791.93 -0.915748 1.72839 0
M  V30 30127 C 2792.31 -2.00412 0.663196 0
M  V30 30128 O 2791.66 -2.26219 -0.322083 0
M  V30 30129 C 2791.87 -1.48091 3.16022 0
M  V30 30130 C 2793.22 -1.95402 3.76966 0
M  V30 30131 O 2794.24 -1.57886 3.19297 0
M  V30 30132 O 2793.1 -2.64507 4.78224 0
M  V30 30133 H 2790.19 -0.431009 0.705805 0
M  V30 30134 H 2792.74 -0.159659 1.68947 0
M  V30 30135 H 2791.51 -0.69755 3.85032 0
M  V30 30136 H 2791.13 -2.3012 3.24238 0
M  V30 30137 N 2792.13 -1.51324 -0.44033 0
M  V30 30138 C 2793.36 -1.67404 -1.21076 0
M  V30 30139 C 2793.77 -0.369631 -1.85554 0
M  V30 30140 O 2793.11 0.661495 -1.71377 0
M  V30 30141 C 2793.17 -2.7306 -2.33834 0
M  V30 30142 C 2792.84 -4.15746 -1.89748 0
M  V30 30143 C 2793.83 -5.00623 -1.4026 0
M  V30 30144 C 2791.52 -4.6183 -1.97531 0
M  V30 30145 C 2793.51 -6.29643 -0.991363 0
M  V30 30146 C 2791.2 -5.90848 -1.56019 0
M  V30 30147 C 2792.2 -6.74582 -1.06903 0
M  V30 30148 O 2791.89 -8.01188 -0.659793 0
M  V30 30149 H 2791.62 -0.565016 -0.371123 0
M  V30 30150 H 2794.17 -1.98488 -0.528374 0
M  V30 30151 H 2792.4 -2.37285 -3.05341 0
M  V30 30152 H 2794.09 -2.78049 -2.95708 0
M  V30 30153 H 2794.86 -4.66223 -1.33644 0
M  V30 30154 H 2790.74 -3.9678 -2.34706 0
M  V30 30155 H 2794.28 -6.94952 -0.607303 0
M  V30 30156 H 2790.18 -6.24762 -1.62304 0
M  V30 30157 H 2790.95 -8.14718 -0.785909 0
M  V30 30158 N 2793.61 0.695578 -1.41419 0
M  V30 30159 C 2794.89 1.45012 -1.31266 0
M  V30 30160 C 2795.27 2.11015 0.0597623 0
M  V30 30161 O 2794.61 2.01687 1.074 0
M  V30 30162 C 2794.82 2.46956 -2.46605 0
M  V30 30163 C 2796.17 3.12209 -2.87769 0
M  V30 30164 O 2797.2 2.5728 -2.46344 0
M  V30 30165 O 2796.05 4.11694 -3.59402 0
M  V30 30166 H 2793.15 0.645807 -0.516587 0
M  V30 30167 H 2795.69 0.726057 -1.53383 0
M  V30 30168 H 2794.47 1.96839 -3.38187 0
M  V30 30169 H 2794.09 3.26872 -2.26364 0
M  V30 30170 N 2795.09 1.27247 0.929833 0
M  V30 30171 C 2796 1.11596 2.06358 0
M  V30 30172 C 2797.01 0.0465266 1.73938 0
M  V30 30173 O 2798.19 0.252579 1.9981 0
M  V30 30174 C 2795.25 0.762497 3.38211 0
M  V30 30175 C 2794.32 1.91257 3.84343 0
M  V30 30176 C 2793.55 1.57588 5.09904 0
M  V30 30177 O 2793.77 0.482793 5.68353 0
M  V30 30178 O 2792.71 2.41436 5.51355 0
M  V30 30179 H 2796.53 2.06734 2.22474 0
M  V30 30180 H 2794.12 1.06415 1.04863 0
M  V30 30181 H 2796 0.578614 4.17409 0
M  V30 30182 H 2794.67 -0.159382 3.23307 0
M  V30 30183 H 2793.58 2.1515 3.06041 0
M  V30 30184 H 2794.91 2.81458 4.03785 0
M  V30 30185 N 2796.57 -1.13603 1.09235 0
M  V30 30186 C 2797.79 -1.89222 0.849101 0
M  V30 30187 C 2798.22 -1.7848 -0.593844 0
M  V30 30188 O 2797.57 -1.13095 -1.41701 0
M  V30 30189 C 2797.62 -3.36871 1.28648 0
M  V30 30190 O 2796.73 -4.10006 0.443702 0
M  V30 30191 H 2796.07 -0.588412 0.30768 0
M  V30 30192 H 2798.6 -1.43745 1.45597 0
M  V30 30193 H 2798.61 -3.87697 1.27103 0
M  V30 30194 H 2797.28 -3.44007 2.33735 0
M  V30 30195 H 2795.86 -3.6921 0.523306 0
M  V30 30196 N 2798.04 -0.879253 -1.30793 0
M  V30 30197 C 2799.32 -0.41512 -1.91144 0
M  V30 30198 C 2799.7 1.10365 -1.79952 0
M  V30 30199 O 2799.05 1.9364 -1.21309 0
M  V30 30200 C 2799.26 -0.906837 -3.37013 0
M  V30 30201 C 2800.61 -0.93843 -4.141 0
M  V30 30202 O 2801.63 -0.853114 -3.45833 0
M  V30 30203 O 2800.49 -1.06352 -5.36052 0
M  V30 30204 H 2797.58 -0.12592 -0.817357 0
M  V30 30205 H 2800.13 -0.967777 -1.39399 0
M  V30 30206 H 2798.9 -1.95059 -3.39216 0
M  V30 30207 H 2798.52 -0.333018 -3.96203 0
M  V30 30208 N 2799.52 1.44037 -0.639624 0
M  V30 30209 C 2800.94 1.56639 -0.305981 0
M  V30 30210 C 2801.14 1.62569 1.19052 0
M  V30 30211 O 2800.19 1.57334 1.9749 0
M  V30 30212 C 2801.51 2.83395 -1.00538 0
M  V30 30213 C 2803.05 2.97119 -0.984331 0
M  V30 30214 C 2803.53 4.26689 -1.66436 0
M  V30 30215 N 2805.02 4.33522 -1.63135 0
M  V30 30216 C 2805.76 5.32515 -2.12639 0
M  V30 30217 N 2805.25 6.37865 -2.70371 0
M  V30 30218 N 2807.04 5.24079 -2.03218 0
M  V30 30219 H 2799.2 1.38431 -1.61092 0
M  V30 30220 H 2801.46 0.66393 -0.676684 0
M  V30 30221 H 2801.16 2.85028 -2.06039 0
M  V30 30222 H 2801.04 3.73192 -0.548428 0
M  V30 30223 H 2803.43 2.95034 0.0622273 0
M  V30 30224 H 2803.51 2.08648 -1.47985 0
M  V30 30225 H 2803.15 4.29534 -2.71041 0
M  V30 30226 H 2803.08 5.14032 -1.1436 0
M  V30 30227 H 2805.57 3.58007 -1.20993 0
M  V30 30228 H 2805.88 7.09699 -3.05855 0
M  V30 30229 H 2804.23 6.38526 -2.74425 0
M  V30 30230 H 2807.42 4.40689 -1.5783 0
M  V30 30231 H 2807.59 6.01072 -2.42108 0
M  V30 30232 N 2801 0.380691 1.52933 0
M  V30 30233 C 2801.93 -0.450227 2.29118 0
M  V30 30234 C 2802.91 -1.07094 1.32155 0
M  V30 30235 O 2804.1 -1.08534 1.6104 0
M  V30 30236 C 2801.23 -1.58226 3.09163 0
M  V30 30237 C 2800.18 -1.08802 4.1394 0
M  V30 30238 C 2799.51 -2.31146 4.82157 0
M  V30 30239 C 2800.81 -0.162055 5.22049 0
M  V30 30240 H 2802.5 0.185413 2.98825 0
M  V30 30241 H 2800.05 0.0906139 1.43715 0
M  V30 30242 H 2802 -2.1703 3.61215 0
M  V30 30243 H 2800.72 -2.24535 2.37174 0
M  V30 30244 H 2799.38 -0.52257 3.62856 0
M  V30 30245 H 2799.03 -2.95946 4.06724 0
M  V30 30246 H 2798.73 -1.98742 5.5297 0
M  V30 30247 H 2800.25 -2.90609 5.37009 0
M  V30 30248 H 2801.67 -0.658026 5.69511 0
M  V30 30249 H 2800.06 0.0718177 6.00057 0
M  V30 30250 H 2801.13 0.791522 4.78396 0
M  V30 30251 N 2802.48 -1.57214 0.110268 0
M  V30 30252 C 2803.71 -1.9895 -0.55699 0
M  V30 30253 C 2804.12 -0.988635 -1.61315 0
M  V30 30254 O 2803.46 0.0278836 -1.83679 0
M  V30 30255 C 2803.52 -3.37087 -1.24951 0
M  V30 30256 C 2803.18 -4.55716 -0.342318 0
M  V30 30257 C 2804.18 -5.18236 0.415602 0
M  V30 30258 C 2801.87 -5.01648 -0.25594 0
M  V30 30259 C 2803.86 -6.25068 1.24772 0
M  V30 30260 C 2801.55 -6.08343 0.57982 0
M  V30 30261 C 2802.55 -6.6992 1.33029 0
M  V30 30262 O 2802.23 -7.74555 2.15219 0
M  V30 30263 H 2801.97 -0.658509 -0.15278 0
M  V30 30264 H 2804.52 -2.04512 0.190796 0
M  V30 30265 H 2802.75 -3.28253 -2.04418 0
M  V30 30266 H 2804.44 -3.6317 -1.8128 0
M  V30 30267 H 2805.2 -4.83672 0.35869 0
M  V30 30268 H 2801.08 -4.53471 -0.829752 0
M  V30 30269 H 2804.63 -6.73061 1.83397 0
M  V30 30270 H 2800.52 -6.42338 0.638157 0
M  V30 30271 H 2801.29 -7.91613 2.08066 0
M  V30 30272 N 2803.96 0.163482 -1.5675 0
M  V30 30273 C 2805.2 0.878834 -1.82436 0
M  V30 30274 C 2805.53 1.81903 -0.688589 0
M  V30 30275 O 2804.79 1.93006 0.32361 0
M  V30 30276 C 2805.08 1.70065 -3.14345 0
M  V30 30277 C 2804.75 0.908698 -4.41649 0
M  V30 30278 C 2803.41 0.690152 -4.76225 0
M  V30 30279 C 2805.76 0.353724 -5.19998 0
M  V30 30280 C 2803.09 -0.0943406 -5.86624 0
M  V30 30281 C 2805.44 -0.417721 -6.31219 0
M  V30 30282 C 2804.11 -0.646995 -6.64357 0
M  V30 30283 H 2803.38 0.321588 -0.667579 0
M  V30 30284 H 2806.03 0.143337 -1.90963 0
M  V30 30285 H 2804.33 2.50578 -3.01194 0
M  V30 30286 H 2806.03 2.25733 -3.3143 0
M  V30 30287 H 2802.62 1.08908 -4.14532 0
M  V30 30288 H 2806.8 0.509888 -4.93674 0
M  V30 30289 H 2802.06 -0.281637 -6.10751 0
M  V30 30290 H 2806.23 -0.854971 -6.91132 0
M  V30 30291 H 2803.86 -1.25675 -7.4974 0
M  V30 30292 N 2805.43 1.51555 0.432299 0
M  V30 30293 C 2806.71 1.55017 1.19285 0
M  V30 30294 C 2807.09 0.317412 2.087 0
M  V30 30295 O 2806.44 -0.697204 2.17604 0
M  V30 30296 C 2806.65 2.86683 1.99032 0
M  V30 30297 C 2808 3.38822 2.55901 0
M  V30 30298 O 2809.02 2.88267 2.09238 0
M  V30 30299 O 2807.88 4.27044 3.41021 0
M  V30 30300 H 2804.97 0.623451 0.543358 0
M  V30 30301 H 2807.52 1.63871 0.440959 0
M  V30 30302 H 2806.29 3.67862 1.3339 0
M  V30 30303 H 2805.91 2.81015 2.81276 0
M  V30 30304 N 2806.91 -0.688069 1.41786 0
M  V30 30305 C 2807.82 -1.83155 1.46599 0
M  V30 30306 C 2808.84 -1.70321 0.355892 0
M  V30 30307 O 2810.01 -1.92105 0.60477 0
M  V30 30308 C 2807.08 -3.19198 1.35327 0
M  V30 30309 C 2806.14 -3.44086 2.56717 0
M  V30 30310 C 2805.37 -4.73638 2.45973 0
M  V30 30311 O 2805.6 -5.50639 1.48837 0
M  V30 30312 O 2804.53 -4.99476 3.35868 0
M  V30 30313 H 2808.36 -1.82051 2.43086 0
M  V30 30314 H 2805.94 -0.842104 1.23406 0
M  V30 30315 H 2807.82 -4.00405 1.31354 0
M  V30 30316 H 2806.5 -3.20969 0.419592 0
M  V30 30317 H 2805.4 -2.62779 2.66266 0
M  V30 30318 H 2806.74 -3.47135 3.48939 0
M  V30 30319 N 2808.39 -1.27739 -0.923072 0
M  V30 30320 C 2809.64 -1.13729 -1.66579 0
M  V30 30321 C 2809.95 0.315399 -1.9304 0
M  V30 30322 O 2811.16 0.576464 -2.6531 0
M  V30 30323 C 2809.61 -1.9875 -3.00044 0
M  V30 30324 C 2809.22 -3.48704 -2.81264 0
M  V30 30325 C 2810.97 -1.93402 -3.77883 0
M  V30 30326 C 2808.87 -4.25908 -4.10313 0
M  V30 30327 H 2807.8 -0.422028 -0.624827 0
M  V30 30328 H 2810.45 -1.52196 -1.02511 0
M  V30 30329 H 2808.84 -1.53132 -3.65194 0
M  V30 30330 H 2810.01 -4.02217 -2.24852 0
M  V30 30331 H 2808.32 -3.5548 -2.16848 0
M  V30 30332 H 2810.92 -2.48357 -4.73522 0
M  V30 30333 H 2811.26 -0.908676 -4.06262 0
M  V30 30334 H 2811.8 -2.3694 -3.19537 0
M  V30 30335 H 2808.54 -5.28985 -3.87111 0
M  V30 30336 H 2808.06 -3.77171 -4.66371 0
M  V30 30337 H 2809.74 -4.3533 -4.78641 0
M  V30 30338 N 2809.87 1.13022 -1.09836 0
M  V30 30339 C 2811.1 1.88228 -0.858935 0
M  V30 30340 C 2811.51 1.7934 0.590133 0
M  V30 30341 O 2810.87 1.16294 1.40648 0
M  V30 30342 C 2810.92 3.37673 -1.29072 0
M  V30 30343 O 2810.64 3.46337 -2.68296 0
M  V30 30344 C 2812.14 4.29835 -1.08429 0
M  V30 30345 H 2809.36 0.595761 -0.308724 0
M  V30 30346 H 2811.91 1.43047 -1.46143 0
M  V30 30347 H 2810.06 3.80421 -0.732028 0
M  V30 30348 H 2810.47 4.39269 -2.86605 0
M  V30 30349 H 2811.95 5.33004 -1.43563 0
M  V30 30350 H 2812.43 4.39194 -0.0224087 0
M  V30 30351 H 2813.03 3.9286 -1.62914 0
M  V30 30352 N 2811.35 0.886177 1.30325 0
M  V30 30353 C 2812.57 0.520211 2.00253 0
M  V30 30354 C 2812.99 -0.891608 1.66421 0
M  V30 30355 O 2812.35 -1.58652 0.901979 0
M  V30 30356 C 2812.4 0.686837 3.54915 0
M  V30 30357 O 2812.12 2.04307 3.87544 0
M  V30 30358 C 2813.62 0.324022 4.42114 0
M  V30 30359 H 2810.84 0.200958 0.640201 0
M  V30 30360 H 2813.38 1.19181 1.66181 0
M  V30 30361 H 2811.54 0.0625954 3.87349 0
M  V30 30362 H 2811.95 2.06257 4.82243 0
M  V30 30363 H 2813.43 0.491503 5.49807 0
M  V30 30364 H 2813.9 -0.738034 4.32955 0
M  V30 30365 H 2814.51 0.924638 4.15127 0
M  V30 30366 N 2812.82 -1.43695 0.647253 0
M  V30 30367 C 2813.73 -2.34549 -0.0487585 0
M  V30 30368 C 2814.75 -1.53544 -0.818559 0
M  V30 30369 O 2815.93 -1.86217 -0.767162 0
M  V30 30370 C 2812.99 -3.31745 -1.00728 0
M  V30 30371 C 2812.05 -4.28656 -0.235075 0
M  V30 30372 C 2811.29 -5.21208 -1.14794 0
M  V30 30373 O 2811.51 -5.18049 -2.38708 0
M  V30 30374 O 2810.44 -5.98661 -0.623562 0
M  V30 30375 H 2814.27 -2.95548 0.698915 0
M  V30 30376 H 2811.85 -1.43737 0.407438 0
M  V30 30377 H 2813.74 -3.91529 -1.5583 0
M  V30 30378 H 2812.41 -2.73257 -1.73529 0
M  V30 30379 H 2811.32 -3.7237 0.359385 0
M  V30 30380 H 2812.65 -4.90109 0.453238 0
M  V30 30381 N 2814.3 -0.388796 -1.52729 0
M  V30 30382 C 2815.55 0.193842 -2.01871 0
M  V30 30383 C 2815.88 1.46503 -1.27477 0
M  V30 30384 O 2815.16 1.90849 -0.375096 0
M  V30 30385 C 2815.44 0.462273 -3.5712 0
M  V30 30386 C 2815.29 -0.824169 -4.42185 0
M  V30 30387 C 2816.61 1.25311 -4.21883 0
M  V30 30388 H 2813.73 0.068977 -0.733765 0
M  V30 30389 H 2816.37 -0.518263 -1.82795 0
M  V30 30390 H 2814.52 1.06889 -3.73506 0
M  V30 30391 H 2816.19 -1.46104 -4.37552 0
M  V30 30392 H 2814.44 -1.43959 -4.09216 0
M  V30 30393 H 2815.11 -0.591002 -5.48827 0
M  V30 30394 H 2817.58 0.739738 -4.09472 0
M  V30 30395 H 2816.46 1.40968 -5.3049 0
M  V30 30396 H 2816.72 2.26817 -3.79482 0
M  V30 30397 N 2815.78 1.57153 -0.118604 0
M  V30 30398 C 2817.03 1.94356 0.539304 0
M  V30 30399 C 2817.34 1.00418 1.67856 0
M  V30 30400 O 2818.55 1.27085 2.3992 0
M  V30 30401 C 2817 3.45415 1.01075 0
M  V30 30402 C 2816.61 4.47888 -0.100019 0
M  V30 30403 C 2818.36 3.91538 1.64006 0
M  V30 30404 C 2816.26 5.90125 0.388108 0
M  V30 30405 H 2815.19 0.725531 0.205234 0
M  V30 30406 H 2817.84 1.82424 -0.198392 0
M  V30 30407 H 2816.23 3.5258 1.80286 0
M  V30 30408 H 2817.4 4.52392 -0.876268 0
M  V30 30409 H 2815.72 4.11515 -0.635957 0
M  V30 30410 H 2818.31 4.95223 2.0164 0
M  V30 30411 H 2818.66 3.31492 2.51831 0
M  V30 30412 H 2819.19 3.87172 0.913371 0
M  V30 30413 H 2815.93 6.53925 -0.454078 0
M  V30 30414 H 2815.45 5.89043 1.13085 0
M  V30 30415 H 2817.13 6.41399 0.849462 0
M  V30 30416 N 2817.26 -0.155167 1.56834 0
M  V30 30417 C 2818.21 -1.1918 1.97648 0
M  V30 30418 C 2819.18 -1.43129 0.842813 0
M  V30 30419 O 2820.36 -1.556 1.10423 0
M  V30 30420 C 2817.5 -2.52228 2.35531 0
M  V30 30421 C 2816.61 -2.35522 3.62151 0
M  V30 30422 C 2815.75 -3.61548 3.89174 0
M  V30 30423 C 2814.79 -3.39844 5.0909 0
M  V30 30424 N 2813.92 -4.5798 5.32164 0
M  V30 30425 H 2818.76 -0.836751 2.86011 0
M  V30 30426 H 2816.3 -0.401733 1.41508 0
M  V30 30427 H 2818.26 -3.29794 2.55522 0
M  V30 30428 H 2816.89 -2.85696 1.50258 0
M  V30 30429 H 2815.94 -1.49051 3.49983 0
M  V30 30430 H 2817.25 -2.1544 4.49875 0
M  V30 30431 H 2816.41 -4.47546 4.09619 0
M  V30 30432 H 2815.15 -3.84626 2.99856 0
M  V30 30433 H 2814.15 -2.52235 4.88526 0
M  V30 30434 H 2815.38 -3.18173 5.99952 0
M  V30 30435 H 2813.32 -4.81247 4.458 0
M  V30 30436 H 2813.24 -4.40871 6.14141 0
M  V30 30437 H 2814.51 -5.45215 5.57101 0
M  V30 30438 N 2818.74 -1.51782 -0.424256 0
M  V30 30439 C 2819.98 -1.65097 -1.17257 0
M  V30 30440 C 2820.31 -0.37351 -1.9088 0
M  V30 30441 O 2819.57 0.642964 -1.84836 0
M  V30 30442 C 2819.87 -2.81341 -2.20413 0
M  V30 30443 C 2819.53 -4.20132 -1.63708 0
M  V30 30444 C 2818.19 -4.57886 -1.47967 0
M  V30 30445 C 2820.55 -5.06685 -1.22148 0
M  V30 30446 C 2817.87 -5.79886 -0.891601 0
M  V30 30447 C 2820.23 -6.29276 -0.647657 0
M  V30 30448 C 2818.89 -6.65792 -0.477254 0
M  V30 30449 H 2818.16 -0.604133 -0.429074 0
M  V30 30450 H 2820.81 -1.85848 -0.461819 0
M  V30 30451 H 2819.11 -2.54864 -2.97576 0
M  V30 30452 H 2820.81 -2.88841 -2.78158 0
M  V30 30453 H 2817.4 -3.90372 -1.76939 0
M  V30 30454 H 2821.58 -4.78112 -1.33125 0
M  V30 30455 H 2816.84 -6.06814 -0.747456 0
M  V30 30456 H 2821.01 -6.95677 -0.317169 0
M  V30 30457 H 2818.64 -7.60198 -0.0194599 0
M  V30 30458 N 2820.21 0.68054 -1.42149 0
M  V30 30459 C 2821.46 1.43633 -1.41606 0
M  V30 30460 C 2821.78 1.95571 -0.033823 0
M  V30 30461 O 2822.98 2.71336 0.0942111 0
M  V30 30462 C 2821.44 2.59802 -2.4906 0
M  V30 30463 C 2821.05 2.14587 -3.93264 0
M  V30 30464 C 2822.79 3.37348 -2.57676 0
M  V30 30465 C 2820.7 3.27804 -4.92238 0
M  V30 30466 H 2819.63 0.539573 -0.526666 0
M  V30 30467 H 2822.28 0.73734 -1.68034 0
M  V30 30468 H 2820.66 3.32041 -2.15788 0
M  V30 30469 H 2821.83 1.49539 -4.35861 0
M  V30 30470 H 2820.15 1.49996 -3.88446 0
M  V30 30471 H 2822.75 4.21656 -3.28801 0
M  V30 30472 H 2823.09 3.83552 -1.61844 0
M  V30 30473 H 2823.62 2.72174 -2.90114 0
M  V30 30474 H 2820.36 2.86597 -5.89527 0
M  V30 30475 H 2819.88 3.91653 -4.54277 0
M  V30 30476 H 2821.56 3.93358 -5.13691 0
M  V30 30477 N 2821.69 1.28226 0.916285 0
M  V30 30478 C 2822.92 1.17905 1.69652 0
M  V30 30479 C 2823.33 -0.265235 1.87332 0
M  V30 30480 O 2822.67 -1.19135 1.39831 0
M  V30 30481 C 2822.74 1.80295 3.11021 0
M  V30 30482 C 2822.4 3.2953 3.16637 0
M  V30 30483 C 2823.4 4.26002 2.98024 0
M  V30 30484 C 2821.08 3.70442 3.39231 0
M  V30 30485 C 2823.08 5.61362 3.01914 0
M  V30 30486 C 2820.76 5.05928 3.42753 0
M  V30 30487 C 2821.76 6.01198 3.24114 0
M  V30 30488 O 2821.45 7.34213 3.27393 0
M  V30 30489 H 2821.18 0.410369 0.53719 0
M  V30 30490 H 2823.73 1.69819 1.15544 0
M  V30 30491 H 2821.96 1.22872 3.6666 0
M  V30 30492 H 2823.65 1.64527 3.7106 0
M  V30 30493 H 2824.42 3.9573 2.80398 0
M  V30 30494 H 2820.3 2.96755 3.52785 0
M  V30 30495 H 2823.84 6.357 2.87284 0
M  V30 30496 H 2819.74 5.35852 3.59907 0
M  V30 30497 H 2820.51 7.42808 3.43771 0
M  V30 30498 N 2823.17 -1.12438 1.10433 0
M  V30 30499 C 2824.12 -2.20244 0.748012 0
M  V30 30500 C 2825.11 -1.67457 -0.255819 0
M  V30 30501 O 2826.32 -1.79625 -0.116189 0
M  V30 30502 H 2822.69 -0.717876 0.223959 0
M  V30 30503 H 2824.66 -2.47553 1.66614 0
M  V30 30504 C 2823.41 -3.47147 0.196018 0
M  V30 30505 H 2822.74 -3.88111 0.959674 0
M  V30 30506 H 2824.18 -4.23997 -0.0152408 0
M  V30 30507 C 2822.64 -3.19414 -1.07126 0
M  V30 30508 O 2823.17 -3.39143 -2.15278 0
M  V30 30509 N 2821.37 -2.73221 -0.989892 0
M  V30 30510 H 2820.92 -2.57366 -0.10969 0
M  V30 30511 H 2820.88 -2.55041 -1.83851 0
M  V30 30512 N 2824.65 -0.893076 -1.29853 0
M  V30 30513 C 2825.9 -0.515619 -1.95825 0
M  V30 30514 C 2826.22 0.936812 -1.70453 0
M  V30 30515 O 2825.48 1.67828 -1.0066 0
M  V30 30516 C 2825.78 -0.74665 -3.49514 0
M  V30 30517 C 2825.44 -2.17542 -3.94951 0
M  V30 30518 C 2824.11 -2.5661 -4.07069 0
M  V30 30519 C 2826.46 -3.10615 -4.18531 0
M  V30 30520 C 2823.79 -3.87946 -4.40131 0
M  V30 30521 C 2826.14 -4.41492 -4.53065 0
M  V30 30522 C 2824.8 -4.80442 -4.63391 0
M  V30 30523 H 2824.07 -0.188678 -0.716576 0
M  V30 30524 H 2826.72 -1.13047 -1.54572 0
M  V30 30525 H 2825.02 -0.048824 -3.9177 0
M  V30 30526 H 2826.72 -0.43408 -3.98644 0
M  V30 30527 H 2823.31 -1.86218 -3.86032 0
M  V30 30528 H 2827.5 -2.81648 -4.08642 0
M  V30 30529 H 2822.75 -4.17854 -4.46327 0
M  V30 30530 H 2826.93 -5.13642 -4.7026 0
M  V30 30531 H 2824.55 -5.82248 -4.88765 0
M  V30 30532 N 2826.13 1.4335 -0.654865 0
M  V30 30533 C 2827.04 2.34572 0.0363191 0
M  V30 30534 C 2828.05 1.53975 0.810405 0
M  V30 30535 O 2829.23 1.86621 0.757275 0
M  V30 30536 C 2826.29 3.32274 0.989675 0
M  V30 30537 C 2825.36 4.28775 0.212339 0
M  V30 30538 C 2824.59 5.2181 1.12028 0
M  V30 30539 O 2824.81 5.19307 2.35958 0
M  V30 30540 O 2823.75 5.98984 0.591805 0
M  V30 30541 H 2827.57 2.95174 -0.714579 0
M  V30 30542 H 2825.16 1.43519 -0.415055 0
M  V30 30543 H 2827.04 3.9235 1.53752 0
M  V30 30544 H 2825.71 2.74174 1.72077 0
M  V30 30545 H 2824.62 3.72174 -0.379127 0
M  V30 30546 H 2825.95 4.89861 -0.479224 0
M  V30 30547 N 2827.61 0.39689 1.52521 0
M  V30 30548 C 2828.55 -0.44939 2.28218 0
M  V30 30549 C 2829.55 -1.05649 1.32418 0
M  V30 30550 O 2830.75 -0.996097 1.49926 0
M  V30 30551 H 2827.13 -0.163687 0.733969 0
M  V30 30552 H 2829.1 0.210419 2.97657 0
M  V30 30553 C 2827.85 -1.56049 3.10715 0
M  V30 30554 H 2827.17 -1.10266 3.84293 0
M  V30 30555 H 2828.61 -2.1267 3.66807 0
M  V30 30556 C 2827.07 -2.52087 2.23504 0
M  V30 30557 O 2827.6 -3.55679 1.86697 0
M  V30 30558 N 2825.81 -2.22006 1.87514 0
M  V30 30559 H 2825.35 -1.37798 2.17645 0
M  V30 30560 H 2825.31 -2.86512 1.29453 0
M  V30 30561 N 2829.08 -1.57088 0.126936 0
M  V30 30562 C 2830.31 -2.00249 -0.539935 0
M  V30 30563 C 2830.73 -1.00621 -1.58925 0
M  V30 30564 O 2830.09 0.0209812 -1.81288 0
M  V30 30565 C 2830.14 -3.42252 -1.13559 0
M  V30 30566 O 2829.24 -3.45551 -2.25097 0
M  V30 30567 H 2828.58 -0.650316 -0.134108 0
M  V30 30568 H 2831.11 -2.03438 0.217753 0
M  V30 30569 H 2831.12 -3.8063 -1.46919 0
M  V30 30570 H 2829.8 -4.14277 -0.367049 0
M  V30 30571 H 2828.38 -3.18999 -1.93117 0
M  V30 30572 N 2830.56 0.146848 -1.56914 0
M  V30 30573 C 2831.51 1.20049 -1.99226 0
M  V30 30574 C 2832.5 1.44463 -0.884686 0
M  V30 30575 O 2833.71 1.44754 -1.06987 0
M  V30 30576 H 2830.08 0.404101 -0.634198 0
M  V30 30577 H 2832.06 0.816936 -2.86999 0
M  V30 30578 C 2830.8 2.52627 -2.38903 0
M  V30 30579 H 2830.13 2.34671 -3.23681 0
M  V30 30580 H 2831.57 3.24979 -2.72331 0
M  V30 30581 C 2830.03 3.13181 -1.24175 0
M  V30 30582 O 2830.56 3.98019 -0.542573 0
M  V30 30583 N 2828.76 2.72633 -1.00596 0
M  V30 30584 H 2828.31 2.03741 -1.5763 0
M  V30 30585 H 2828.27 3.13481 -0.240229 0
M  V30 30586 N 2832.04 1.52005 0.4162 0
M  V30 30587 C 2833.29 1.65389 1.1615 0
M  V30 30588 C 2833.61 0.382702 1.91208 0
M  V30 30589 O 2832.88 -0.602198 1.86415 0
M  V30 30590 H 2831.46 0.609588 0.431754 0
M  V30 30591 H 2834.12 1.8902 0.475118 0
M  V30 30592 H 2833.22 2.49163 1.87947 0
M  V30 30593 N 2833.52 -0.672992 1.42508 0
M  V30 30594 C 2834.76 -1.43516 1.43286 0
M  V30 30595 C 2835.1 -1.94136 0.0497021 0
M  V30 30596 O 2834.37 -1.71024 -0.926339 0
M  V30 30597 C 2834.65 -2.63089 2.45878 0
M  V30 30598 C 2834.51 -2.18089 3.93392 0
M  V30 30599 C 2835.83 -3.65306 2.45438 0
M  V30 30600 H 2832.95 -0.520513 0.521762 0
M  V30 30601 H 2835.59 -0.76467 1.73933 0
M  V30 30602 H 2833.74 -3.20292 2.19875 0
M  V30 30603 H 2835.41 -1.66039 4.30382 0
M  V30 30604 H 2833.65 -1.49645 4.07172 0
M  V30 30605 H 2834.32 -3.03985 4.60757 0
M  V30 30606 H 2836.8 -3.17823 2.68567 0
M  V30 30607 H 2835.68 -4.46548 3.19196 0
M  V30 30608 H 2835.94 -4.16556 1.481 0
M  V30 30609 N 2835 -1.2871 -0.909472 0
M  V30 30610 C 2836.24 -1.1549 -1.65363 0
M  V30 30611 C 2836.56 0.294907 -1.93364 0
M  V30 30612 O 2837.76 0.548292 -2.65906 0
M  V30 30613 C 2836.22 -2.01922 -2.97919 0
M  V30 30614 C 2835.83 -3.51668 -2.77549 0
M  V30 30615 C 2837.57 -1.97399 -3.75811 0
M  V30 30616 C 2835.48 -4.30236 -4.05772 0
M  V30 30617 H 2834.41 -0.428631 -0.620316 0
M  V30 30618 H 2837.06 -1.53275 -1.00891 0
M  V30 30619 H 2835.44 -1.56996 -3.63549 0
M  V30 30620 H 2836.62 -4.04579 -2.20573 0
M  V30 30621 H 2834.93 -3.5776 -2.13065 0
M  V30 30622 H 2837.53 -2.53365 -4.70861 0
M  V30 30623 H 2837.87 -0.951715 -4.05275 0
M  V30 30624 H 2838.4 -2.40316 -3.17006 0
M  V30 30625 H 2835.14 -5.33061 -3.81479 0
M  V30 30626 H 2834.66 -3.82097 -4.62344 0
M  V30 30627 H 2836.34 -4.40382 -4.73997 0
M  V30 30628 N 2836.47 1.1185 -1.11028 0
M  V30 30629 C 2837.72 1.82855 -0.851281 0
M  V30 30630 C 2838.04 1.85342 0.625108 0
M  V30 30631 O 2839.24 2.52404 1.00022 0
M  V30 30632 C 2837.7 3.28369 -1.47314 0
M  V30 30633 C 2837.31 3.34224 -2.98326 0
M  V30 30634 C 2839.05 4.04303 -1.2938 0
M  V30 30635 C 2836.96 4.74109 -3.53517 0
M  V30 30636 H 2835.89 0.685137 -0.314806 0
M  V30 30637 H 2838.54 1.25896 -1.33501 0
M  V30 30638 H 2836.92 3.85234 -0.917085 0
M  V30 30639 H 2838.09 2.87264 -3.603 0
M  V30 30640 H 2836.41 2.71767 -3.15486 0
M  V30 30641 H 2839.01 5.07605 -1.68051 0
M  V30 30642 H 2839.35 4.15631 -0.235952 0
M  V30 30643 H 2839.88 3.53814 -1.81826 0
M  V30 30644 H 2836.62 4.67978 -4.58996 0
M  V30 30645 H 2836.14 5.21496 -2.96314 0
M  V30 30646 H 2837.82 5.4306 -3.51703 0
M  V30 30647 N 2837.95 0.89995 1.29378 0
M  V30 30648 C 2838.91 0.382716 2.25982 0
M  V30 30649 C 2839.91 -0.483232 1.53367 0
M  V30 30650 O 2841.1 -0.288249 1.71799 0
M  V30 30651 C 2838.24 -0.452855 3.37879 0
M  V30 30652 H 2839.43 1.23591 2.7325 0
M  V30 30653 H 2836.98 0.678113 1.40824 0
M  V30 30654 H 2837.72 -1.32602 2.95951 0
M  V30 30655 H 2837.5 0.167631 3.91742 0
M  V30 30656 H 2838.99 -0.806035 4.09747 0
M  V30 30657 N 2839.43 -1.43001 0.662458 0
M  V30 30658 C 2840.68 -2.01702 0.179627 0
M  V30 30659 C 2841.01 -1.52311 -1.20961 0
M  V30 30660 O 2840.26 -0.710632 -1.82342 0
M  V30 30661 C 2840.56 -3.57087 0.149426 0
M  V30 30662 C 2840.23 -4.25861 1.48166 0
M  V30 30663 C 2838.89 -4.44364 1.84646 0
M  V30 30664 C 2841.24 -4.64728 2.35961 0
M  V30 30665 C 2838.57 -4.99001 3.0857 0
M  V30 30666 C 2840.92 -5.20739 3.59185 0
M  V30 30667 C 2839.58 -5.37456 3.9585 0
M  V30 30668 H 2838.85 -0.738079 0.0657301 0
M  V30 30669 H 2841.5 -1.71354 0.854999 0
M  V30 30670 H 2839.81 -3.87031 -0.609423 0
M  V30 30671 H 2841.5 -4.00274 -0.241171 0
M  V30 30672 H 2838.09 -4.11811 1.18784 0
M  V30 30673 H 2842.28 -4.50117 2.09066 0
M  V30 30674 H 2837.53 -5.10129 3.37014 0
M  V30 30675 H 2841.71 -5.498 4.27426 0
M  V30 30676 H 2839.33 -5.79557 4.91953 0
M  V30 30677 N 2840.91 -0.404973 -1.52308 0
M  V30 30678 C 2842.16 0.171824 -2.01368 0
M  V30 30679 C 2842.48 1.46 -1.29264 0
M  V30 30680 O 2841.75 1.91403 -0.417324 0
M  V30 30681 H 2840.33 0.0664863 -0.744035 0
M  V30 30682 H 2842.99 -0.540261 -1.87262 0
M  V30 30683 H 2842.09 0.370902 -3.09888 0
M  V30 30684 N 2842.39 1.57018 -0.135265 0
M  V30 30685 C 2843.63 1.95356 0.517735 0
M  V30 30686 C 2843.96 1.02045 1.66168 0
M  V30 30687 O 2843.23 0.0797687 1.95738 0
M  V30 30688 H 2841.81 0.721301 0.194252 0
M  V30 30689 H 2844.47 1.93787 -0.208017 0
M  V30 30690 H 2843.56 2.98793 0.901622 0
M  V30 30691 N 2843.86 -0.138524 1.5699 0
M  V30 30692 C 2844.8 -1.19606 1.95517 0
M  V30 30693 C 2845.81 -1.38724 0.852026 0
M  V30 30694 O 2847 -1.38145 1.13041 0
M  V30 30695 C 2844.1 -2.55948 2.22134 0
M  V30 30696 C 2843.27 -2.57695 3.53429 0
M  V30 30697 C 2842.33 -3.75639 3.68486 0
M  V30 30698 O 2841.36 -3.60122 4.40796 0
M  V30 30699 N 2842.56 -4.93432 3.05785 0
M  V30 30700 H 2845.32 -0.868507 2.8684 0
M  V30 30701 H 2842.88 -0.328005 1.58543 0
M  V30 30702 H 2844.88 -3.33375 2.29441 0
M  V30 30703 H 2843.45 -2.80963 1.37035 0
M  V30 30704 H 2842.67 -1.66123 3.57487 0
M  V30 30705 H 2843.95 -2.55901 4.39763 0
M  V30 30706 H 2843.35 -5.08942 2.4697 0
M  V30 30707 H 2841.91 -5.68604 3.18641 0
M  V30 30708 N 2845.34 -1.52224 -0.408133 0
M  V30 30709 C 2846.57 -1.70181 -1.17669 0
M  V30 30710 C 2846.99 -0.411728 -1.84256 0
M  V30 30711 O 2846.34 0.612324 -1.71921 0
M  V30 30712 C 2846.39 -2.8381 -2.23906 0
M  V30 30713 O 2846.11 -4.07823 -1.60037 0
M  V30 30714 C 2847.62 -3.13286 -3.13634 0
M  V30 30715 H 2844.84 -0.5703 -0.353552 0
M  V30 30716 H 2847.38 -1.98786 -0.480048 0
M  V30 30717 H 2845.53 -2.57722 -2.89237 0
M  V30 30718 H 2845.95 -4.71149 -2.30476 0
M  V30 30719 H 2847.42 -3.96305 -3.84248 0
M  V30 30720 H 2847.9 -2.26879 -3.76062 0
M  V30 30721 H 2848.51 -3.41143 -2.53971 0
M  V30 30722 N 2846.82 0.665425 -1.42863 0
M  V30 30723 C 2848.05 1.45845 -1.47458 0
M  V30 30724 C 2848.47 1.87884 -0.0900642 0
M  V30 30725 O 2847.83 1.56601 0.913559 0
M  V30 30726 C 2847.88 2.6777 -2.41519 0
M  V30 30727 O 2846.98 3.66385 -1.89303 0
M  V30 30728 H 2846.32 0.43778 -0.499244 0
M  V30 30729 H 2848.85 0.815361 -1.87651 0
M  V30 30730 H 2848.86 3.15731 -2.58415 0
M  V30 30731 H 2847.54 2.36513 -3.42103 0
M  V30 30732 H 2846.11 3.25465 -1.82009 0
M  V30 30733 N 2848.3 1.29191 0.902633 0
M  V30 30734 C 2849.25 1.13947 2.02778 0
M  V30 30735 C 2850.24 0.0558168 1.69308 0
M  V30 30736 O 2851.45 0.215403 1.78707 0
M  V30 30737 H 2847.82 0.351889 0.664589 0
M  V30 30738 H 2849.79 2.09212 2.12774 0
M  V30 30739 C 2848.54 0.829719 3.37655 0
M  V30 30740 H 2847.86 1.65558 3.6391 0
M  V30 30741 H 2849.3 0.763072 4.17077 0
M  V30 30742 C 2847.76 -0.466932 3.33649 0
M  V30 30743 O 2848.29 -1.49388 3.72889 0
M  V30 30744 N 2846.5 -0.47171 2.86746 0
M  V30 30745 H 2846.05 0.364451 2.55009 0
M  V30 30746 H 2846 -1.33928 2.84448 0
M  V30 30747 N 2849.78 -1.1126 1.1162 0
M  V30 30748 C 2850.72 -2.19439 0.77133 0
M  V30 30749 C 2851.72 -1.67719 -0.238043 0
M  V30 30750 O 2852.92 -1.79738 -0.0971312 0
M  V30 30751 H 2849.3 -0.715461 0.23156 0
M  V30 30752 H 2851.27 -2.45772 1.6923 0
M  V30 30753 C 2850.02 -3.4692 0.232826 0
M  V30 30754 H 2849.34 -3.87072 1.00078 0
M  V30 30755 H 2850.78 -4.2399 0.0297306 0
M  V30 30756 C 2849.24 -3.20533 -1.03732 0
M  V30 30757 O 2849.77 -3.41408 -2.11669 0
M  V30 30758 N 2847.98 -2.74255 -0.960857 0
M  V30 30759 H 2847.52 -2.57468 -0.0823871 0
M  V30 30760 H 2847.48 -2.56977 -1.81136 0
M  V30 30761 N 2851.25 -0.906798 -1.28899 0
M  V30 30762 C 2852.18 -0.4067 -2.29931 0
M  V30 30763 C 2853.17 0.522033 -1.61891 0
M  V30 30764 O 2854.35 0.43125 -1.89351 0
M  V30 30765 C 2851.48 0.360305 -3.45426 0
M  V30 30766 C 2850.43 -0.478649 -4.25315 0
M  V30 30767 C 2849.76 0.416279 -5.33077 0
M  V30 30768 C 2851.06 -1.73229 -4.92736 0
M  V30 30769 H 2852.75 -1.25102 -2.72011 0
M  V30 30770 H 2850.3 -0.603 -1.30767 0
M  V30 30771 H 2852.25 0.720956 -4.15187 0
M  V30 30772 H 2850.98 1.23847 -3.02208 0
M  V30 30773 H 2849.64 -0.821725 -3.57272 0
M  V30 30774 H 2849.28 1.29278 -4.86103 0
M  V30 30775 H 2848.98 -0.141412 -5.8743 0
M  V30 30776 H 2850.51 0.772965 -6.05688 0
M  V30 30777 H 2851.92 -1.44095 -5.54896 0
M  V30 30778 H 2850.32 -2.23185 -5.57054 0
M  V30 30779 H 2851.39 -2.46416 -4.17621 0
M  V30 30780 N 2852.73 1.42648 -0.670032 0
M  V30 30781 C 2853.98 2.01902 -0.190603 0
M  V30 30782 C 2854.31 1.52834 1.19814 0
M  V30 30783 O 2853.59 0.728517 1.80341 0
M  V30 30784 C 2853.87 3.59428 -0.219973 0
M  V30 30785 C 2853.72 4.18686 -1.64383 0
M  V30 30786 C 2855.04 4.3795 0.434442 0
M  V30 30787 H 2852.16 0.733598 -0.0707348 0
M  V30 30788 H 2854.8 1.6973 -0.853913 0
M  V30 30789 H 2852.95 3.86967 0.344826 0
M  V30 30790 H 2854.62 4.02118 -2.26051 0
M  V30 30791 H 2852.87 3.74696 -2.18598 0
M  V30 30792 H 2853.54 5.27813 -1.6161 0
M  V30 30793 H 2856.01 4.16074 -0.0462887 0
M  V30 30794 H 2854.89 5.47561 0.383234 0
M  V30 30795 H 2855.15 4.15467 1.51128 0
M  V30 30796 N 2854.21 0.413044 1.52091 0
M  V30 30797 C 2855.46 -0.161462 2.01855 0
M  V30 30798 C 2855.79 -1.4481 1.29848 0
M  V30 30799 O 2855.04 -1.91682 0.394505 0
M  V30 30800 C 2855.34 -0.452037 3.5453 0
M  V30 30801 C 2855.01 0.745866 4.44688 0
M  V30 30802 C 2853.67 1.07444 4.69051 0
M  V30 30803 C 2856.02 1.54613 4.97739 0
M  V30 30804 C 2853.35 2.20439 5.43713 0
M  V30 30805 C 2855.7 2.66688 5.73638 0
M  V30 30806 C 2854.36 3.00027 5.96272 0
M  V30 30807 H 2853.63 -0.0590831 0.738641 0
M  V30 30808 H 2856.28 0.555266 1.83273 0
M  V30 30809 H 2854.59 -1.25038 3.71312 0
M  V30 30810 H 2856.28 -0.909578 3.90548 0
M  V30 30811 H 2852.87 0.4798 4.25906 0
M  V30 30812 H 2857.06 1.30551 4.78822 0
M  V30 30813 H 2852.31 2.46612 5.59457 0
M  V30 30814 H 2856.49 3.29083 6.1374 0
M  V30 30815 H 2854.11 3.877 6.53906 0
M  V30 30816 N 2855.69 -1.56945 0.143591 0
M  V30 30817 C 2856.91 -2.0081 -0.518666 0
M  V30 30818 C 2857.34 -1.02301 -1.57849 0
M  V30 30819 O 2856.7 0.00175203 -1.813 0
M  V30 30820 C 2856.75 -3.43438 -1.09923 0
M  V30 30821 O 2855.85 -3.47919 -2.21419 0
M  V30 30822 H 2855.19 -0.651702 -0.127203 0
M  V30 30823 H 2857.72 -2.03196 0.239318 0
M  V30 30824 H 2857.73 -3.82167 -1.42873 0
M  V30 30825 H 2856.41 -4.14643 -0.323089 0
M  V30 30826 H 2854.98 -3.21029 -1.89723 0
M  V30 30827 N 2857.17 0.130197 -1.57061 0
M  V30 30828 C 2858.1 1.16165 -2.02554 0
M  V30 30829 C 2859.08 1.43838 -0.907997 0
M  V30 30830 O 2860.26 1.54471 -1.17696 0
M  V30 30831 C 2857.39 2.49067 -2.42039 0
M  V30 30832 C 2856.35 2.3588 -3.57134 0
M  V30 30833 C 2855.67 3.73644 -3.82485 0
M  V30 30834 C 2856.97 1.82871 -4.8924 0
M  V30 30835 H 2858.67 0.783308 -2.88972 0
M  V30 30836 H 2856.21 0.375351 -1.39022 0
M  V30 30837 H 2858.17 3.21464 -2.72468 0
M  V30 30838 H 2856.89 2.88769 -1.52578 0
M  V30 30839 H 2855.55 1.65932 -3.26898 0
M  V30 30840 H 2855.2 4.10811 -2.90247 0
M  V30 30841 H 2854.9 3.65677 -4.5995 0
M  V30 30842 H 2856.42 4.47563 -4.15355 0
M  V30 30843 H 2857.84 2.45076 -5.18277 0
M  V30 30844 H 2856.23 1.85753 -5.70627 0
M  V30 30845 H 2857.3 0.785487 -4.78496 0
M  V30 30846 N 2858.65 1.52438 0.400055 0
M  V30 30847 C 2859.88 1.70555 1.16595 0
M  V30 30848 C 2860.28 0.418698 1.84509 0
M  V30 30849 O 2859.63 -0.615825 1.7307 0
M  V30 30850 C 2859.69 2.79164 2.26512 0
M  V30 30851 C 2859.35 4.20631 1.78658 0
M  V30 30852 C 2860.35 5.04166 1.26937 0
M  V30 30853 C 2858.03 4.66905 1.85217 0
M  V30 30854 C 2860.03 6.3205 0.824076 0
M  V30 30855 C 2857.72 5.94777 1.40299 0
M  V30 30856 C 2858.71 6.77179 0.889803 0
M  V30 30857 O 2858.4 8.02656 0.44714 0
M  V30 30858 H 2858.13 0.574657 0.356013 0
M  V30 30859 H 2860.69 1.99819 0.475562 0
M  V30 30860 H 2858.92 2.45297 2.98942 0
M  V30 30861 H 2860.61 2.85792 2.88232 0
M  V30 30862 H 2861.37 4.69603 1.21236 0
M  V30 30863 H 2857.25 4.02863 2.24104 0
M  V30 30864 H 2860.8 6.96317 0.422835 0
M  V30 30865 H 2856.69 6.28846 1.45682 0
M  V30 30866 H 2857.46 8.16515 0.569625 0
M  V30 30867 N 2860.12 -0.657839 1.43214 0
M  V30 30868 C 2861.07 -1.77089 1.48014 0
M  V30 30869 C 2862.04 -1.62782 0.33032 0
M  V30 30870 O 2863.23 -1.83093 0.536819 0
M  V30 30871 C 2860.37 -3.15219 1.40467 0
M  V30 30872 C 2859.48 -3.40692 2.65618 0
M  V30 30873 C 2858.61 -4.68645 2.50091 0
M  V30 30874 C 2857.65 -4.87208 3.70533 0
M  V30 30875 N 2856.79 -6.06414 3.53846 0
M  V30 30876 H 2861.63 -1.72321 2.43124 0
M  V30 30877 H 2859.17 -0.840992 1.20689 0
M  V30 30878 H 2861.12 -3.95066 1.34086 0
M  V30 30879 H 2859.75 -3.19068 0.489415 0
M  V30 30880 H 2858.81 -2.54977 2.82296 0
M  V30 30881 H 2860.12 -3.50297 3.55097 0
M  V30 30882 H 2859.27 -5.5661 2.41393 0
M  V30 30883 H 2858.01 -4.61353 1.58129 0
M  V30 30884 H 2857.02 -3.9768 3.79646 0
M  V30 30885 H 2858.24 -4.96333 4.63498 0
M  V30 30886 H 2856.19 -6.00263 2.64614 0
M  V30 30887 H 2856.1 -6.16956 4.36923 0
M  V30 30888 H 2857.37 -6.97012 3.4899 0
M  V30 30889 N 2861.6 -1.29668 -0.895769 0
M  V30 30890 C 2862.55 -1.15021 -2.02171 0
M  V30 30891 C 2863.54 -0.0647948 -1.69276 0
M  V30 30892 O 2864.75 -0.224877 -1.7859 0
M  V30 30893 H 2861.12 -0.355409 -0.662713 0
M  V30 30894 H 2863.1 -2.10337 -2.11662 0
M  V30 30895 C 2861.84 -0.847614 -3.3721 0
M  V30 30896 H 2861.17 -1.67485 -3.63027 0
M  V30 30897 H 2862.61 -0.785179 -4.16666 0
M  V30 30898 C 2861.07 0.449232 -3.33891 0
M  V30 30899 O 2861.6 1.47409 -3.73676 0
M  V30 30900 N 2859.8 0.456497 -2.86992 0
M  V30 30901 H 2859.35 -0.377969 -2.54812 0
M  V30 30902 H 2859.31 1.32418 -2.85154 0
M  V30 30903 N 2863.08 1.10667 -1.12208 0
M  V30 30904 C 2864.03 2.19026 -0.782957 0
M  V30 30905 C 2865.02 1.67843 0.229145 0
M  V30 30906 O 2866.23 1.79787 0.0875979 0
M  V30 30907 H 2862.6 0.714223 -0.235351 0
M  V30 30908 H 2864.57 2.44871 -1.70531 0
M  V30 30909 C 2863.32 3.46791 -0.251221 0
M  V30 30910 H 2862.65 3.86535 -1.0213 0
M  V30 30911 H 2864.09 4.23968 -0.0522154 0
M  V30 30912 C 2862.54 3.21078 1.02031 0
M  V30 30913 O 2863.07 3.42525 2.09855 0
M  V30 30914 N 2861.28 2.74761 0.946299 0
M  V30 30915 H 2860.83 2.57508 0.0687317 0
M  V30 30916 H 2860.79 2.57934 1.7977 0
M  V30 30917 N 2864.56 0.913621 1.28416 0
M  V30 30918 C 2865.8 0.547518 1.95269 0
M  V30 30919 C 2866.14 -0.906456 1.71747 0
M  V30 30920 O 2865.41 -1.64463 1.03837 0
M  V30 30921 C 2865.69 0.857267 3.49747 0
M  V30 30922 C 2865.55 2.36396 3.82671 0
M  V30 30923 C 2866.87 0.353335 4.38679 0
M  V30 30924 H 2863.99 0.200394 0.709233 0
M  V30 30925 H 2866.63 1.14284 1.51786 0
M  V30 30926 H 2864.78 0.350616 3.86915 0
M  V30 30927 H 2866.45 2.94122 3.55373 0
M  V30 30928 H 2864.69 2.819 3.29719 0
M  V30 30929 H 2865.36 2.53124 4.90543 0
M  V30 30930 H 2867.84 0.78736 4.08583 0
M  V30 30931 H 2866.72 0.599144 5.4562 0
M  V30 30932 H 2866.98 -0.746336 4.35755 0
M  V30 30933 N 2866.04 -1.4229 0.677588 0
M  V30 30934 C 2866.98 -2.32598 -0.0106346 0
M  V30 30935 C 2867.98 -1.49977 -0.787616 0
M  V30 30936 O 2869.18 -1.6603 -0.695266 0
M  V30 30937 H 2865.56 -0.751671 -0.022235 0
M  V30 30938 H 2867.53 -2.88338 0.768362 0
M  V30 30939 C 2866.28 -3.34581 -0.946083 0
M  V30 30940 H 2865.6 -3.98197 -0.357631 0
M  V30 30941 H 2867.04 -4.0035 -1.39627 0
M  V30 30942 C 2865.5 -2.6706 -2.05379 0
M  V30 30943 O 2866.03 -2.50464 -3.14055 0
M  V30 30944 N 2864.24 -2.26041 -1.82631 0
M  V30 30945 H 2863.78 -2.39739 -0.942492 0
M  V30 30946 H 2863.74 -1.81196 -2.56934 0
M  V30 30947 N 2867.51 -0.421104 -1.5187 0
M  V30 30948 C 2868.76 0.152171 -2.01125 0
M  V30 30949 C 2869.08 1.45196 -1.31062 0
M  V30 30950 O 2870.28 2.10721 -1.71198 0
M  V30 30951 C 2868.74 0.321737 -3.58459 0
M  V30 30952 C 2868.35 -0.966667 -4.37447 0
M  V30 30953 C 2870.09 0.849656 -4.1591 0
M  V30 30954 C 2868 -0.763632 -5.86449 0
M  V30 30955 H 2866.93 0.0606433 -0.751557 0
M  V30 30956 H 2869.58 -0.548384 -1.75114 0
M  V30 30957 H 2867.96 1.08491 -3.80849 0
M  V30 30958 H 2869.13 -1.73691 -4.26811 0
M  V30 30959 H 2867.45 -1.4219 -3.91371 0
M  V30 30960 H 2870.05 1.01779 -5.24924 0
M  V30 30961 H 2870.39 1.82767 -3.74035 0
M  V30 30962 H 2870.92 0.145227 -3.97535 0
M  V30 30963 H 2867.66 -1.71355 -6.32707 0
M  V30 30964 H 2867.18 -0.0328943 -5.99791 0
M  V30 30965 H 2868.86 -0.410467 -6.45697 0
M  V30 30966 N 2868.99 1.56866 -0.151912 0
M  V30 30967 C 2869.92 2.20019 0.781904 0
M  V30 30968 C 2870.9 1.1499 1.25345 0
M  V30 30969 O 2872.09 1.4335 1.31013 0
M  V30 30970 C 2869.22 2.82567 2.01923 0
M  V30 30971 C 2868.17 3.93467 1.68427 0
M  V30 30972 C 2867.5 4.42973 2.99465 0
M  V30 30973 C 2868.8 5.14005 0.927154 0
M  V30 30974 H 2870.49 2.98307 0.255554 0
M  V30 30975 H 2868.04 1.43487 0.121477 0
M  V30 30976 H 2869.99 3.25416 2.67736 0
M  V30 30977 H 2868.72 2.01618 2.56939 0
M  V30 30978 H 2867.37 3.51244 1.04991 0
M  V30 30979 H 2867.02 3.5884 3.52481 0
M  V30 30980 H 2866.72 5.17777 2.77814 0
M  V30 30981 H 2868.25 4.88495 3.6634 0
M  V30 30982 H 2869.66 5.53667 1.48746 0
M  V30 30983 H 2868.06 5.94603 0.810408 0
M  V30 30984 H 2869.13 4.84834 -0.0802016 0
M  V30 30985 N 2870.47 -0.121866 1.57128 0
M  V30 30986 C 2871.72 -0.828516 1.84337 0
M  V30 30987 C 2872.04 -1.8055 0.736663 0
M  V30 30988 O 2871.31 -1.94429 -0.239585 0
M  V30 30989 H 2869.89 -0.308958 0.680113 0
M  V30 30990 H 2872.55 -0.109871 1.9459 0
M  V30 30991 H 2871.65 -1.37549 2.80155 0
M  V30 30992 N 2871.95 -1.52648 -0.391965 0
M  V30 30993 C 2873.17 -1.71718 -1.16309 0
M  V30 30994 C 2873.6 -0.433311 -1.83041 0
M  V30 30995 O 2872.96 0.610677 -1.70706 0
M  V30 30996 C 2873 -2.86555 -2.18903 0
M  V30 30997 O 2872.11 -2.53321 -3.25426 0
M  V30 30998 H 2871.45 -0.571101 -0.338733 0
M  V30 30999 H 2873.98 -1.99427 -0.457167 0
M  V30 31000 H 2873.99 -3.11964 -2.62949 0
M  V30 31001 H 2872.66 -3.79695 -1.69719 0
M  V30 31002 H 2871.24 -2.38642 -2.86539 0
M  V30 31003 N 2873.43 0.650235 -1.43561 0
M  V30 31004 C 2874.65 1.44273 -1.48997 0
M  V30 31005 C 2875.08 1.87778 -0.109987 0
M  V30 31006 O 2874.43 1.57561 0.896898 0
M  V30 31007 C 2874.48 2.65193 -2.44346 0
M  V30 31008 O 2873.59 3.64357 -1.93178 0
M  V30 31009 H 2872.93 0.43246 -0.503859 0
M  V30 31010 H 2875.46 0.795413 -1.88506 0
M  V30 31011 H 2875.47 3.12972 -2.61749 0
M  V30 31012 H 2874.14 2.32871 -3.44592 0
M  V30 31013 H 2872.72 3.23516 -1.8545 0
M  V30 31014 N 2874.9 1.30141 0.88888 0
M  V30 31015 C 2875.87 1.16177 1.97574 0
M  V30 31016 C 2876.87 0.0941142 1.60524 0
M  V30 31017 O 2878.06 0.341919 1.70811 0
M  V30 31018 C 2875.19 0.779041 3.31879 0
M  V30 31019 H 2876.38 2.12731 2.11389 0
M  V30 31020 H 2873.94 1.13482 1.07478 0
M  V30 31021 H 2874.67 -0.186168 3.23765 0
M  V30 31022 H 2874.46 1.55058 3.60138 0
M  V30 31023 H 2875.95 0.704704 4.11611 0
M  V30 31024 N 2876.38 -1.1007 1.12794 0
M  V30 31025 C 2877.31 -2.16337 0.757041 0
M  V30 31026 C 2878.33 -1.61332 -0.218115 0
M  V30 31027 O 2879.52 -1.785 0.00110408 0
M  V30 31028 C 2876.62 -3.38751 0.100363 0
M  V30 31029 C 2875.79 -4.23188 1.10594 0
M  V30 31030 C 2874.85 -5.24041 0.476182 0
M  V30 31031 O 2873.87 -5.57784 1.13428 0
M  V30 31032 N 2875.08 -5.75573 -0.754722 0
M  V30 31033 H 2877.84 -2.48763 1.67144 0
M  V30 31034 H 2875.4 -1.25724 1.02005 0
M  V30 31035 H 2877.39 -4.03327 -0.333021 0
M  V30 31036 H 2875.96 -3.04269 -0.716862 0
M  V30 31037 H 2875.18 -3.5485 1.71683 0
M  V30 31038 H 2876.47 -4.76431 1.78579 0
M  V30 31039 H 2875.87 -5.50364 -1.30829 0
M  V30 31040 H 2874.43 -6.41915 -1.13087 0
M  V30 31041 N 2877.86 -0.920419 -1.2793 0
M  V30 31042 C 2879.09 -0.572514 -1.99342 0
M  V30 31043 C 2879.51 0.840666 -1.68269 0
M  V30 31044 O 2878.87 1.56292 -0.918832 0
M  V30 31045 C 2878.92 -0.796346 -3.51697 0
M  V30 31046 O 2878.02 0.141529 -4.12157 0
M  V30 31047 H 2877.36 -0.221232 -0.626061 0
M  V30 31048 H 2879.89 -1.23768 -1.62919 0
M  V30 31049 H 2879.9 -0.709055 -4.01792 0
M  V30 31050 H 2878.58 -1.82651 -3.73646 0
M  V30 31051 H 2877.15 0.00494146 -3.729 0
M  V30 31052 N 2879.34 1.41929 -0.685124 0
M  V30 31053 C 2880.58 2.01689 -0.212007 0
M  V30 31054 C 2880.92 1.54096 1.18186 0
M  V30 31055 O 2880.19 0.747604 1.79558 0
M  V30 31056 C 2880.48 3.59174 -0.258083 0
M  V30 31057 C 2880.33 4.16919 -1.68814 0
M  V30 31058 C 2881.65 4.38387 0.387967 0
M  V30 31059 H 2878.77 0.732806 -0.0785116 0
M  V30 31060 H 2881.41 1.68815 -0.871867 0
M  V30 31061 H 2879.56 3.87311 0.303764 0
M  V30 31062 H 2881.23 3.99697 -2.30303 0
M  V30 31063 H 2879.47 3.72357 -2.2256 0
M  V30 31064 H 2880.14 5.26069 -1.67199 0
M  V30 31065 H 2882.62 4.16002 -0.0904163 0
M  V30 31066 H 2881.5 5.47936 0.325136 0
M  V30 31067 H 2881.76 4.17046 1.46713 0
M  V30 31068 N 2880.82 0.429152 1.51644 0
M  V30 31069 C 2882.09 -0.19958 1.94579 0
M  V30 31070 C 2882.47 -1.60833 1.36733 0
M  V30 31071 O 2881.82 -2.21755 0.551101 0
M  V30 31072 C 2882.03 -0.185624 3.48506 0
M  V30 31073 C 2883.38 -0.395207 4.22757 0
M  V30 31074 O 2884.4 -0.264102 3.5522 0
M  V30 31075 O 2883.26 -0.65538 5.42556 0
M  V30 31076 H 2880.36 -0.134378 0.816009 0
M  V30 31077 H 2882.9 0.486541 1.62576 0
M  V30 31078 H 2881.67 0.799575 3.83044 0
M  V30 31079 H 2881.3 -0.915002 3.86928 0
M  V30 31080 N 2882.29 -1.56783 0.160229 0
M  V30 31081 C 2883.53 -1.98436 -0.490144 0
M  V30 31082 C 2883.9 -1.04358 -1.61162 0
M  V30 31083 O 2885.1 -1.35107 -2.32378 0
M  V30 31084 C 2883.37 -3.43956 -0.971046 0
M  V30 31085 S 2884.93 -4.07635 -1.62416 0
M  V30 31086 H 2881.75 -0.693212 -0.158044 0
M  V30 31087 H 2884.35 -1.93829 0.25507 0
M  V30 31088 H 2883.05 -4.10146 -0.144251 0
M  V30 31089 H 2882.58 -3.52305 -1.75057 0
M  V30 31090 H 2884.6 -4.01773 -2.91192 0
M  V30 31091 N 2883.77 0.113531 -1.57191 0
M  V30 31092 C 2885.01 0.826177 -1.86959 0
M  V30 31093 C 2885.38 1.76792 -0.748915 0
M  V30 31094 O 2886.58 2.52254 -0.928515 0
M  V30 31095 C 2884.85 1.55167 -3.2196 0
M  V30 31096 S 2886.41 2.30514 -3.73375 0
M  V30 31097 H 2883.23 0.275632 -0.655399 0
M  V30 31098 H 2885.83 0.0842341 -1.95318 0
M  V30 31099 H 2884.53 0.851906 -4.01461 0
M  V30 31100 H 2884.06 2.33388 -3.16692 0
M  V30 31101 H 2886.08 3.56332 -3.45314 0
M  V30 31102 N 2885.25 1.52854 0.383864 0
M  V30 31103 C 2886.16 1.80928 1.49339 0
M  V30 31104 C 2887.18 0.696376 1.59457 0
M  V30 31105 O 2888.35 0.984512 1.75697 0
M  V30 31106 C 2885.42 1.97689 2.84815 0
M  V30 31107 C 2884.48 3.21603 2.84377 0
M  V30 31108 C 2883.71 3.37555 4.13391 0
M  V30 31109 O 2883.94 2.58201 5.08614 0
M  V30 31110 O 2882.87 4.30833 4.20317 0
M  V30 31111 H 2886.7 2.75154 1.28545 0
M  V30 31112 H 2884.28 1.38008 0.572204 0
M  V30 31113 H 2886.16 2.10391 3.65121 0
M  V30 31114 H 2884.84 1.06653 3.05625 0
M  V30 31115 H 2883.74 3.14339 2.02834 0
M  V30 31116 H 2885.08 4.12503 2.68519 0
M  V30 31117 N 2886.73 -0.642612 1.43904 0
M  V30 31118 C 2887.68 -1.77631 1.50167 0
M  V30 31119 C 2888.67 -1.65213 0.374324 0
M  V30 31120 O 2889.88 -1.71431 0.548778 0
M  V30 31121 H 2886.25 -0.586241 0.470984 0
M  V30 31122 H 2888.22 -1.6947 2.45606 0
M  V30 31123 C 2886.97 -3.1593 1.45202 0
M  V30 31124 H 2886.3 -3.26128 2.31258 0
M  V30 31125 H 2887.74 -3.95183 1.53645 0
M  V30 31126 C 2886.19 -3.36465 0.171102 0
M  V30 31127 O 2886.72 -3.9438 -0.763343 0
M  V30 31128 N 2884.93 -2.90496 0.077898 0
M  V30 31129 H 2884.48 -2.43549 0.839142 0
M  V30 31130 H 2884.44 -3.04611 -0.778419 0
M  V30 31131 N 2888.21 -1.30611 -0.881966 0
M  V30 31132 C 2889.62 -1.09007 -1.16574 0
M  V30 31133 C 2889.82 0.147235 -2.00961 0
M  V30 31134 O 2888.88 0.839994 -2.38118 0
M  V30 31135 C 2890.19 -2.35521 -1.8695 0
M  V30 31136 C 2891.74 -2.41015 -1.99702 0
M  V30 31137 C 2892.22 -3.67379 -2.7349 0
M  V30 31138 N 2893.71 -3.68204 -2.81034 0
M  V30 31139 C 2894.44 -4.6267 -3.3871 0
M  V30 31140 N 2893.94 -5.67482 -3.97411 0
M  V30 31141 N 2895.73 -4.50209 -3.36553 0
M  V30 31142 H 2887.88 -2.09985 -0.319361 0
M  V30 31143 H 2890.14 -0.925781 -0.204041 0
M  V30 31144 H 2889.85 -3.25832 -1.32388 0
M  V30 31145 H 2889.72 -2.444 -2.87313 0
M  V30 31146 H 2892.11 -1.51181 -2.53433 0
M  V30 31147 H 2892.19 -2.36109 -0.984176 0
M  V30 31148 H 2891.84 -4.57573 -2.2043 0
M  V30 31149 H 2891.77 -3.69547 -3.75157 0
M  V30 31150 H 2894.26 -2.9243 -2.39359 0
M  V30 31151 H 2894.57 -6.3566 -4.39495 0
M  V30 31152 H 2892.92 -5.71271 -3.95822 0
M  V30 31153 H 2896.11 -3.67508 -2.89924 0
M  V30 31154 H 2896.28 -5.2401 -3.81206 0
M  V30 31155 N 2889.69 1.0947 -1.13376 0
M  V30 31156 C 2890.63 2.18184 -0.806143 0
M  V30 31157 C 2891.63 1.68077 0.21133 0
M  V30 31158 O 2892.83 1.7987 0.0685242 0
M  V30 31159 H 2889.21 0.711686 -0.242913 0
M  V30 31160 H 2891.18 2.43048 -1.73119 0
M  V30 31161 C 2889.93 3.46505 -0.287989 0
M  V30 31162 H 2889.25 3.8543 -1.06224 0
M  V30 31163 H 2890.69 4.23889 -0.0971799 0
M  V30 31164 C 2889.15 3.22142 0.986199 0
M  V30 31165 O 2889.68 3.44732 2.06211 0
M  V30 31166 N 2887.89 2.75749 0.917104 0
M  V30 31167 H 2887.43 2.57567 0.0414157 0
M  V30 31168 H 2887.39 2.59826 1.77025 0
M  V30 31169 N 2891.16 0.92719 1.2744 0
M  V30 31170 C 2892.11 0.424499 2.26863 0
M  V30 31171 C 2893.08 -0.508319 1.58131 0
M  V30 31172 O 2894.27 -0.427587 1.85947 0
M  V30 31173 C 2891.41 -0.317119 3.4364 0
M  V30 31174 C 2890.52 0.64975 4.27086 0
M  V30 31175 C 2889.65 -0.11166 5.31083 0
M  V30 31176 C 2888.69 0.847949 6.06198 0
M  V30 31177 N 2887.83 0.119198 7.01999 0
M  V30 31178 H 2892.67 1.27732 2.69237 0
M  V30 31179 H 2890.21 0.64113 1.32393 0
M  V30 31180 H 2892.16 -0.763413 4.10156 0
M  V30 31181 H 2890.79 -1.13419 3.02219 0
M  V30 31182 H 2889.85 1.21457 3.60489 0
M  V30 31183 H 2891.16 1.38315 4.79239 0
M  V30 31184 H 2890.31 -0.617894 6.03545 0
M  V30 31185 H 2889.05 -0.87803 4.79731 0
M  V30 31186 H 2888.06 1.36544 5.32575 0
M  V30 31187 H 2889.28 1.61409 6.59639 0
M  V30 31188 H 2887.23 -0.628936 6.52978 0
M  V30 31189 H 2887.14 0.792178 7.51838 0
M  V30 31190 H 2888.41 -0.3664 7.78638 0
M  V30 31191 N 2892.64 -1.41564 0.692641 0
M  V30 31192 C 2893.89 -2.01275 0.22237 0
M  V30 31193 C 2894.22 -1.54842 -1.17703 0
M  V30 31194 O 2893.47 -0.74915 -1.80793 0
M  V30 31195 C 2893.77 -3.5669 0.225136 0
M  V30 31196 C 2893.44 -4.22622 1.57166 0
M  V30 31197 C 2892.1 -4.40347 1.9403 0
M  V30 31198 C 2894.45 -4.59618 2.45766 0
M  V30 31199 C 2891.78 -4.92343 3.19085 0
M  V30 31200 C 2894.13 -5.13003 3.7015 0
M  V30 31201 C 2892.79 -5.28939 4.07161 0
M  V30 31202 H 2892.06 -0.736519 0.0813711 0
M  V30 31203 H 2894.71 -1.69501 0.891153 0
M  V30 31204 H 2893.02 -3.88237 -0.527191 0
M  V30 31205 H 2894.71 -4.00696 -0.156212 0
M  V30 31206 H 2891.3 -4.09199 1.27493 0
M  V30 31207 H 2895.49 -4.45581 2.18566 0
M  V30 31208 H 2890.74 -5.02866 3.47758 0
M  V30 31209 H 2894.92 -5.4061 4.38992 0
M  V30 31210 H 2892.54 -5.68992 5.04135 0
M  V30 31211 N 2894.12 -0.437188 -1.51415 0
M  V30 31212 C 2895.34 0.130388 -2.0699 0
M  V30 31213 C 2895.77 1.35707 -1.30251 0
M  V30 31214 O 2895.13 1.78075 -0.34042 0
M  V30 31215 C 2895.18 0.431357 -3.58011 0
M  V30 31216 O 2894.28 1.51783 -3.83452 0
M  V30 31217 H 2893.62 0.00193172 -0.663997 0
M  V30 31218 H 2896.15 -0.618479 -1.95028 0
M  V30 31219 H 2896.16 0.681855 -4.02262 0
M  V30 31220 H 2894.84 -0.46521 -4.1329 0
M  V30 31221 H 2893.41 1.25731 -3.51064 0
M  V30 31222 N 2895.6 1.56696 -0.168541 0
M  V30 31223 C 2896.55 2.14422 0.775063 0
M  V30 31224 C 2897.53 1.07771 1.19475 0
M  V30 31225 O 2898.72 1.339 1.15757 0
M  V30 31226 C 2895.85 2.78634 2.00544 0
M  V30 31227 C 2894.94 3.92439 1.60788 0
M  V30 31228 N 2895.33 4.97368 0.919725 0
M  V30 31229 C 2893.63 4.03547 1.8991 0
M  V30 31230 C 2894.33 5.77172 0.724384 0
M  V30 31231 N 2893.3 5.28677 1.26496 0
M  V30 31232 H 2897.11 2.92916 0.240297 0
M  V30 31233 H 2894.62 1.62368 0.032239 0
M  V30 31234 H 2896.62 3.18365 2.69165 0
M  V30 31235 H 2895.28 2.0162 2.54518 0
M  V30 31236 H 2896.29 5.14664 0.578079 0
M  V30 31237 H 2892.97 3.37633 2.45581 0
M  V30 31238 H 2894.36 6.71658 0.180403 0
M  V30 31239 N 2897.08 -0.105193 1.57249 0
M  V30 31240 C 2898.01 -1.12927 2.04376 0
M  V30 31241 C 2898.99 -1.42375 0.930765 0
M  V30 31242 O 2900.17 -1.52579 1.20138 0
M  V30 31243 C 2897.3 -2.45185 2.45971 0
M  V30 31244 C 2896.26 -2.30168 3.60842 0
M  V30 31245 C 2895.58 -3.67511 3.88381 0
M  V30 31246 C 2896.88 -1.75065 4.92087 0
M  V30 31247 H 2898.58 -0.737236 2.90181 0
M  V30 31248 H 2896.12 -0.353187 1.39602 0
M  V30 31249 H 2898.07 -3.17089 2.77548 0
M  V30 31250 H 2896.8 -2.86305 1.57153 0
M  V30 31251 H 2895.46 -1.6071 3.29496 0
M  V30 31252 H 2895.11 -4.06141 2.96746 0
M  V30 31253 H 2894.81 -3.58313 4.6571 0
M  V30 31254 H 2896.33 -4.40899 4.22422 0
M  V30 31255 H 2897.74 -2.36799 5.2211 0
M  V30 31256 H 2896.14 -1.76652 5.7351 0
M  V30 31257 H 2897.21 -0.709263 4.79685 0
M  V30 31258 N 2898.55 -1.53055 -0.375752 0
M  V30 31259 C 2899.79 -1.7044 -1.12825 0
M  V30 31260 C 2900.16 -0.44156 -1.86854 0
M  V30 31261 O 2901.36 -0.491954 -2.6426 0
M  V30 31262 C 2899.63 -2.91349 -2.07004 0
M  V30 31263 S 2901.19 -3.29388 -2.89912 0
M  V30 31264 H 2898.01 -0.599839 -0.381725 0
M  V30 31265 H 2900.61 -1.91134 -0.410866 0
M  V30 31266 H 2899.31 -3.81467 -1.51364 0
M  V30 31267 H 2898.84 -2.73027 -2.83231 0
M  V30 31268 H 2900.86 -2.80608 -4.09235 0
M  V30 31269 N 2900.03 0.634971 -1.44242 0
M  V30 31270 C 2901.31 1.39314 -1.37299 0
M  V30 31271 C 2901.69 2.11079 -0.0297903 0
M  V30 31272 O 2901.04 2.06061 0.987488 0
M  V30 31273 C 2901.25 2.36274 -2.56857 0
M  V30 31274 C 2902.6 2.99722 -3.00752 0
M  V30 31275 O 2903.62 2.466 -2.57034 0
M  V30 31276 O 2902.48 3.96081 -3.7654 0
M  V30 31277 H 2899.57 0.623315 -0.543514 0
M  V30 31278 H 2902.12 0.660349 -1.56325 0
M  V30 31279 H 2900.89 1.82318 -3.46231 0
M  V30 31280 H 2900.51 3.16977 -2.40024 0
M  V30 31281 N 2901.51 1.31076 0.875027 0
M  V30 31282 C 2902.74 1.23553 1.66581 0
M  V30 31283 C 2903.16 -0.196827 1.87067 0
M  V30 31284 O 2902.52 -1.14117 1.40879 0
M  V30 31285 C 2902.57 1.9797 3.01397 0
M  V30 31286 O 2901.67 1.31358 3.9092 0
M  V30 31287 H 2901.01 0.42683 0.508638 0
M  V30 31288 H 2903.54 1.73062 1.09136 0
M  V30 31289 H 2903.55 2.07372 3.5137 0
M  V30 31290 H 2902.23 3.02138 2.85806 0
M  V30 31291 H 2900.8 1.30374 3.49366 0
M  V30 31292 N 2902.99 -1.08867 1.13955 0
M  V30 31293 C 2903.92 -2.17679 0.844862 0
M  V30 31294 C 2904.9 -1.68942 -0.198183 0
M  V30 31295 O 2906.08 -1.9412 -0.0558732 0
M  V30 31296 C 2903.21 -3.45856 0.316385 0
M  V30 31297 C 2902.17 -4.0796 1.29434 0
M  V30 31298 C 2901.49 -5.3103 0.625368 0
M  V30 31299 C 2902.79 -4.4979 2.65492 0
M  V30 31300 H 2904.49 -2.42588 1.75475 0
M  V30 31301 H 2902.03 -1.16591 0.845136 0
M  V30 31302 H 2903.99 -4.21286 0.0978616 0
M  V30 31303 H 2902.71 -3.20487 -0.628916 0
M  V30 31304 H 2901.37 -3.34555 1.49895 0
M  V30 31305 H 2901.02 -5.01945 -0.32559 0
M  V30 31306 H 2900.72 -5.73537 1.27787 0
M  V30 31307 H 2902.24 -6.09179 0.416259 0
M  V30 31308 H 2903.66 -5.16419 2.48966 0
M  V30 31309 H 2902.05 -5.03199 3.26972 0
M  V30 31310 H 2903.12 -3.61908 3.22723 0
M  V30 31311 N 2904.47 -0.933936 -1.26946 0
M  V30 31312 C 2905.41 -0.436524 -2.26634 0
M  V30 31313 C 2906.38 0.499925 -1.58398 0
M  V30 31314 O 2907.57 0.41772 -1.86171 0
M  V30 31315 C 2904.71 0.298891 -3.43803 0
M  V30 31316 C 2903.82 -0.672391 -4.26735 0
M  V30 31317 C 2902.96 0.0834938 -5.31134 0
M  V30 31318 C 2902 -0.880086 -6.0574 0
M  V30 31319 N 2901.13 -0.156425 -7.01926 0
M  V30 31320 H 2905.97 -1.29158 -2.68556 0
M  V30 31321 H 2903.51 -0.648142 -1.32051 0
M  V30 31322 H 2905.47 0.741651 -4.10555 0
M  V30 31323 H 2904.1 1.11814 -3.02816 0
M  V30 31324 H 2903.15 -1.23367 -3.5984 0
M  V30 31325 H 2904.46 -1.40855 -4.78499 0
M  V30 31326 H 2903.62 0.585877 -6.03865 0
M  V30 31327 H 2902.35 0.852576 -4.8019 0
M  V30 31328 H 2901.36 -1.39366 -5.31843 0
M  V30 31329 H 2902.58 -1.64905 -6.58774 0
M  V30 31330 H 2900.53 0.594298 -6.53302 0
M  V30 31331 H 2900.45 -0.832038 -7.51407 0
M  V30 31332 H 2901.72 0.325102 -7.78822 0
M  V30 31333 N 2905.94 1.41194 -0.700139 0
M  V30 31334 C 2907.19 2.00383 -0.230117 0
M  V30 31335 C 2907.51 1.56108 1.17854 0
M  V30 31336 O 2908.71 2.07888 1.74627 0
M  V30 31337 C 2907.17 3.5809 -0.36051 0
M  V30 31338 C 2906.78 4.11344 -1.77482 0
M  V30 31339 C 2908.52 4.24471 0.0495053 0
M  V30 31340 C 2906.43 5.61501 -1.85663 0
M  V30 31341 H 2905.36 0.749498 -0.0822765 0
M  V30 31342 H 2908.01 1.61619 -0.868998 0
M  V30 31343 H 2906.39 3.94479 0.346698 0
M  V30 31344 H 2907.56 3.86364 -2.51116 0
M  V30 31345 H 2905.88 3.57505 -2.13492 0
M  V30 31346 H 2908.48 5.34699 0.00888821 0
M  V30 31347 H 2908.82 4.01805 1.08897 0
M  V30 31348 H 2909.35 3.93133 -0.60759 0
M  V30 31349 H 2906.09 5.89001 -2.87678 0
M  V30 31350 H 2905.61 5.88393 -1.1642 0
M  V30 31351 H 2907.29 6.26349 -1.62162 0
M  V30 31352 N 2907.42 0.445212 1.51181 0
M  V30 31353 C 2908.7 -0.178931 1.9478 0
M  V30 31354 C 2909.08 -1.59374 1.38431 0
M  V30 31355 O 2908.43 -2.21158 0.57459 0
M  V30 31356 C 2908.64 -0.14865 3.48683 0
M  V30 31357 C 2909.99 -0.350346 4.23152 0
M  V30 31358 O 2911.01 -0.226412 3.5548 0
M  V30 31359 O 2909.87 -0.597798 5.43221 0
M  V30 31360 H 2906.96 -0.125716 0.817389 0
M  V30 31361 H 2909.51 0.503757 1.62051 0
M  V30 31362 H 2908.28 0.840157 3.82174 0
M  V30 31363 H 2907.9 -0.873911 3.87877 0
M  V30 31364 N 2908.9 -1.56605 0.176849 0
M  V30 31365 C 2909.83 -2.15418 -0.782798 0
M  V30 31366 C 2910.85 -1.11119 -1.18981 0
M  V30 31367 O 2912.03 -1.38285 -1.1287 0
M  V30 31368 C 2909.13 -2.6865 -2.06592 0
M  V30 31369 C 2908.31 -3.97664 -1.8216 0
M  V30 31370 C 2907.37 -4.35905 -2.94743 0
M  V30 31371 O 2906.39 -5.03676 -2.65139 0
M  V30 31372 N 2907.59 -3.97914 -4.22663 0
M  V30 31373 H 2910.36 -2.9839 -0.279959 0
M  V30 31374 H 2907.92 -1.61899 -0.00574683 0
M  V30 31375 H 2909.91 -2.91228 -2.81013 0
M  V30 31376 H 2908.48 -1.90236 -2.4805 0
M  V30 31377 H 2907.7 -3.83406 -0.91614 0
M  V30 31378 H 2908.99 -4.81912 -1.63211 0
M  V30 31379 H 2908.39 -3.43365 -4.49574 0
M  V30 31380 H 2906.95 -4.25481 -4.9377 0
M  V30 31381 N 2910.38 0.0968524 -1.57302 0
M  V30 31382 C 2911.79 0.651565 -1.74961 0
M  V30 31383 C 2912.14 1.79204 -0.798777 0
M  V30 31384 O 2911.27 2.16388 0.0231478 0
M  V30 31385 C 2911.86 1.18873 -3.17261 0
M  V30 31386 C 2910.42 1.68952 -3.36351 0
M  V30 31387 C 2909.57 0.598365 -2.70767 0
M  V30 31388 H 2912.52 -0.129208 -1.58173 0
M  V30 31389 H 2912.54 2.05808 -3.20036 0
M  V30 31390 H 2912.05 0.358455 -3.86441 0
M  V30 31391 H 2910.15 2.54385 -2.72248 0
M  V30 31392 H 2910.26 1.78372 -4.44657 0
M  V30 31393 H 2908.63 1.03739 -2.32616 0
M  V30 31394 H 2909.41 -0.221298 -3.42586 0
M  V30 31395 N 2911.86 1.53252 0.36763 0
M  V30 31396 C 2912.8 1.79545 1.45024 0
M  V30 31397 C 2913.77 0.639717 1.53287 0
M  V30 31398 O 2914.96 0.881683 1.69207 0
M  V30 31399 C 2912.1 1.98928 2.81996 0
M  V30 31400 C 2911.21 3.26643 2.82717 0
M  V30 31401 C 2910.35 3.36224 4.11251 0
M  V30 31402 C 2909.39 4.57979 4.06105 0
M  V30 31403 N 2908.52 4.64725 5.26285 0
M  V30 31404 H 2913.36 2.71926 1.21903 0
M  V30 31405 H 2910.9 1.34706 0.590988 0
M  V30 31406 H 2912.86 2.08152 3.61564 0
M  V30 31407 H 2911.49 1.09886 3.03521 0
M  V30 31408 H 2910.54 3.26382 1.95394 0
M  V30 31409 H 2911.85 4.16286 2.74787 0
M  V30 31410 H 2911.01 3.44748 4.99233 0
M  V30 31411 H 2909.74 2.44593 4.21931 0
M  V30 31412 H 2908.75 4.49557 3.1651 0
M  V30 31413 H 2909.97 5.50949 3.97029 0
M  V30 31414 H 2907.92 3.75994 5.37554 0
M  V30 31415 H 2907.84 5.48269 5.20516 0
M  V30 31416 H 2909.11 4.7753 6.16105 0
M  V30 31417 N 2913.34 -0.627313 1.44577 0
M  V30 31418 C 2914.58 -1.38702 1.48773 0
M  V30 31419 C 2914.94 -1.92025 0.12001 0
M  V30 31420 O 2914.23 -1.70947 -0.865311 0
M  V30 31421 C 2914.42 -2.56727 2.48649 0
M  V30 31422 C 2914.25 -2.14958 3.94997 0
M  V30 31423 C 2913.02 -2.02057 4.63143 0
M  V30 31424 C 2915.22 -1.73635 4.84103 0
M  V30 31425 N 2913.2 -1.53891 5.94298 0
M  V30 31426 C 2914.57 -1.36742 6.04733 0
M  V30 31427 C 2916.63 -1.61049 4.71134 0
M  V30 31428 C 2915.33 -0.885227 7.13832 0
M  V30 31429 C 2917.36 -1.14234 5.80262 0
M  V30 31430 C 2916.72 -0.782944 7.00035 0
M  V30 31431 H 2912.82 -0.50221 0.599424 0
M  V30 31432 H 2915.4 -0.719253 1.80928 0
M  V30 31433 H 2913.57 -3.21126 2.18478 0
M  V30 31434 H 2915.31 -3.23538 2.43116 0
M  V30 31435 H 2912.06 -2.2263 4.18011 0
M  V30 31436 H 2912.48 -1.32097 6.63988 0
M  V30 31437 H 2917.13 -1.87467 3.78967 0
M  V30 31438 H 2914.84 -0.608574 8.05805 0
M  V30 31439 H 2918.43 -1.0495 5.72256 0
M  V30 31440 H 2917.31 -0.426243 7.83041 0
M  V30 31441 N 2914.81 -1.31539 -0.868063 0
M  V30 31442 C 2915.76 -1.19283 -1.99686 0
M  V30 31443 C 2916.76 -0.100686 -1.69101 0
M  V30 31444 O 2917.96 -0.262708 -1.78073 0
M  V30 31445 H 2914.34 -0.369386 -0.655025 0
M  V30 31446 H 2916.31 -2.1478 -2.07153 0
M  V30 31447 C 2915.06 -0.918951 -3.35337 0
M  V30 31448 H 2914.38 -1.75148 -3.59393 0
M  V30 31449 H 2915.82 -0.873384 -4.14907 0
M  V30 31450 C 2914.28 0.378307 -3.34769 0
M  V30 31451 O 2914.81 1.39449 -3.76718 0
M  V30 31452 N 2913.01 0.395519 -2.87896 0
M  V30 31453 H 2912.56 -0.431934 -2.53953 0
M  V30 31454 H 2912.52 1.26339 -2.87899 0
M  V30 31455 N 2916.29 1.08262 -1.1453 0
M  V30 31456 C 2917.24 2.1522 -0.833593 0
M  V30 31457 C 2918.21 1.64773 0.20951 0
M  V30 31458 O 2919.39 1.90636 0.0791053 0
M  V30 31459 C 2916.53 3.43624 -0.31886 0
M  V30 31460 C 2915.65 4.0791 -1.42244 0
M  V30 31461 C 2914.78 5.24113 -0.864796 0
M  V30 31462 C 2913.82 5.80344 -1.94595 0
M  V30 31463 N 2912.96 6.87891 -1.40537 0
M  V30 31464 H 2917.8 2.41225 -1.74969 0
M  V30 31465 H 2915.33 1.1838 -0.87319 0
M  V30 31466 H 2917.29 4.172 -0.00220421 0
M  V30 31467 H 2915.92 3.17899 0.560342 0
M  V30 31468 H 2914.97 3.3208 -1.85546 0
M  V30 31469 H 2916.29 4.4572 -2.23909 0
M  V30 31470 H 2915.44 6.04635 -0.500131 0
M  V30 31471 H 2914.18 4.87697 -0.0172077 0
M  V30 31472 H 2913.18 4.98475 -2.31955 0
M  V30 31473 H 2914.41 6.18818 -2.79715 0
M  V30 31474 H 2912.36 6.53431 -0.579988 0
M  V30 31475 H 2912.27 7.24534 -2.15838 0
M  V30 31476 H 2913.54 7.7214 -1.06866 0
M  V30 31477 N 2917.77 0.940655 1.26449 0
M  V30 31478 C 2919.02 0.587943 1.93777 0
M  V30 31479 C 2919.34 -0.872904 1.73812 0
M  V30 31480 O 2918.6 -1.63976 1.06819 0
M  V30 31481 C 2918.9 0.875855 3.46502 0
M  V30 31482 C 2918.56 2.3205 3.86605 0
M  V30 31483 C 2917.23 2.71541 3.97264 0
M  V30 31484 C 2919.58 3.25934 4.06714 0
M  V30 31485 C 2916.91 4.04014 4.25429 0
M  V30 31486 C 2919.26 4.58003 4.36367 0
M  V30 31487 C 2917.92 4.9731 4.45241 0
M  V30 31488 H 2917.19 0.215144 0.70908 0
M  V30 31489 H 2919.84 1.18706 1.5027 0
M  V30 31490 H 2918.14 0.194193 3.91318 0
M  V30 31491 H 2919.84 0.581734 3.96758 0
M  V30 31492 H 2916.43 2.00418 3.78855 0
M  V30 31493 H 2920.62 2.96621 3.97907 0
M  V30 31494 H 2915.87 4.34131 4.30511 0
M  V30 31495 H 2920.05 5.30742 4.50872 0
M  V30 31496 H 2917.67 5.99987 4.66819 0
M  V30 31497 N 2919.25 -1.40821 0.707617 0
M  V30 31498 C 2920.48 -2.05346 0.253109 0
M  V30 31499 C 2920.89 -1.53291 -1.10215 0
M  V30 31500 O 2920.25 -0.686135 -1.69111 0
M  V30 31501 C 2920.3 -3.60857 0.215474 0
M  V30 31502 O 2920.02 -4.10989 1.51721 0
M  V30 31503 C 2921.52 -4.42545 -0.258559 0
M  V30 31504 H 2918.74 -0.661025 0.115268 0
M  V30 31505 H 2921.28 -1.80375 0.963586 0
M  V30 31506 H 2919.44 -3.84825 -0.44591 0
M  V30 31507 H 2919.85 -5.05127 1.41235 0
M  V30 31508 H 2921.33 -5.51505 -0.233752 0
M  V30 31509 H 2921.8 -4.19537 -1.29943 0
M  V30 31510 H 2922.41 -4.23668 0.37226 0
M  V30 31511 N 2920.73 -0.453223 -1.50943 0
M  V30 31512 C 2921.67 0.350157 -2.28128 0
M  V30 31513 C 2922.64 1.00297 -1.324 0
M  V30 31514 O 2923.83 1.01884 -1.61321 0
M  V30 31515 C 2920.97 1.43643 -3.13784 0
M  V30 31516 C 2920.08 0.80018 -4.24525 0
M  V30 31517 C 2919.22 1.86284 -4.97465 0
M  V30 31518 C 2918.25 1.20587 -6.00104 0
M  V30 31519 N 2917.39 2.21059 -6.66391 0
M  V30 31520 H 2922.23 -0.314392 -2.96337 0
M  V30 31521 H 2919.77 -0.166889 -1.4615 0
M  V30 31522 H 2921.73 2.0777 -3.61784 0
M  V30 31523 H 2920.36 2.07039 -2.47658 0
M  V30 31524 H 2919.41 0.0467982 -3.80371 0
M  V30 31525 H 2920.72 0.280689 -4.9801 0
M  V30 31526 H 2919.87 2.58035 -5.49093 0
M  V30 31527 H 2918.61 2.4161 -4.23646 0
M  V30 31528 H 2917.62 0.473903 -5.47754 0
M  V30 31529 H 2918.84 0.65974 -6.75888 0
M  V30 31530 H 2916.79 2.75435 -5.95375 0
M  V30 31531 H 2916.71 1.74046 -7.35693 0
M  V30 31532 H 2917.97 2.92245 -7.22643 0
M  V30 31533 N 2922.2 1.56509 -0.185151 0
M  V30 31534 C 2923.13 2.21628 0.735059 0
M  V30 31535 C 2924.11 1.17622 1.22878 0
M  V30 31536 O 2925.3 1.46097 1.27942 0
M  V30 31537 C 2922.43 2.86787 1.95884 0
M  V30 31538 C 2921.38 3.96951 1.60043 0
M  V30 31539 C 2920.71 4.49225 2.90001 0
M  V30 31540 C 2922.01 5.15856 0.817917 0
M  V30 31541 H 2923.7 2.98782 0.192221 0
M  V30 31542 H 2921.25 1.43712 0.0910141 0
M  V30 31543 H 2923.2 3.31022 2.60773 0
M  V30 31544 H 2921.93 2.07023 2.52605 0
M  V30 31545 H 2920.59 3.53392 0.975174 0
M  V30 31546 H 2920.23 3.66236 3.4479 0
M  V30 31547 H 2919.93 5.23553 2.66769 0
M  V30 31548 H 2921.46 4.96156 3.55896 0
M  V30 31549 H 2922.87 5.56698 1.36969 0
M  V30 31550 H 2921.27 5.96188 0.684102 0
M  V30 31551 H 2922.34 4.84554 -0.183024 0
M  V30 31552 N 2923.68 -0.0885089 1.57351 0
M  V30 31553 C 2924.91 -0.808017 1.91013 0
M  V30 31554 C 2925.33 -1.71164 0.780039 0
M  V30 31555 O 2924.69 -1.79307 -0.268051 0
M  V30 31556 C 2924.74 -1.59179 3.23565 0
M  V30 31557 O 2923.84 -2.70124 3.11619 0
M  V30 31558 H 2923.18 -0.221554 0.625947 0
M  V30 31559 H 2925.71 -0.0617594 2.04507 0
M  V30 31560 H 2925.72 -1.97461 3.57034 0
M  V30 31561 H 2924.4 -0.92867 4.05399 0
M  V30 31562 H 2922.97 -2.34822 2.89678 0
M  V30 31563 N 2925.16 -1.53445 -0.359498 0
M  V30 31564 C 2926.11 -1.80312 -1.4407 0
M  V30 31565 C 2927.08 -0.647837 -1.52945 0
M  V30 31566 O 2928.26 -0.890644 -1.68737 0
M  V30 31567 C 2925.4 -2.0042 -2.80937 0
M  V30 31568 C 2924.51 -3.28137 -2.8098 0
M  V30 31569 C 2923.65 -3.384 -4.09462 0
M  V30 31570 C 2922.69 -4.60126 -4.03671 0
M  V30 31571 N 2921.83 -4.67509 -5.23813 0
M  V30 31572 H 2926.67 -2.72568 -1.2046 0
M  V30 31573 H 2924.2 -1.35018 -0.583836 0
M  V30 31574 H 2926.16 -2.10067 -3.60455 0
M  V30 31575 H 2924.79 -1.11494 -3.02934 0
M  V30 31576 H 2923.84 -3.27414 -1.9366 0
M  V30 31577 H 2925.15 -4.17737 -2.72575 0
M  V30 31578 H 2924.31 -3.47391 -4.97398 0
M  V30 31579 H 2923.05 -2.46827 -4.20628 0
M  V30 31580 H 2922.05 -4.5123 -3.14121 0
M  V30 31581 H 2923.28 -5.53046 -3.94102 0
M  V30 31582 H 2921.22 -3.7884 -5.35552 0
M  V30 31583 H 2921.14 -5.51022 -5.17601 0
M  V30 31584 H 2922.41 -4.80791 -6.13564 0
M  V30 31585 N 2926.64 0.619637 -1.44908 0
M  V30 31586 C 2927.6 1.71295 -1.52285 0
M  V30 31587 C 2928.6 1.55652 -0.403617 0
M  V30 31588 O 2929.79 1.60938 -0.666667 0
M  V30 31589 C 2926.92 3.10472 -1.40783 0
M  V30 31590 H 2928.12 1.66124 -2.49686 0
M  V30 31591 H 2925.67 0.834315 -1.3217 0
M  V30 31592 H 2926.4 3.21229 -0.445212 0
M  V30 31593 H 2926.19 3.23233 -2.21952 0
M  V30 31594 H 2927.68 3.90132 -1.48952 0
M  V30 31595 N 2928.12 1.31997 0.861075 0
M  V30 31596 C 2929.37 1.21548 1.60963 0
M  V30 31597 C 2929.68 -0.222938 1.94325 0
M  V30 31598 O 2930.88 -0.449225 2.67758 0
M  V30 31599 C 2929.34 2.12839 2.9022 0
M  V30 31600 C 2928.95 3.61727 2.64306 0
M  V30 31601 C 2930.69 2.11211 3.68226 0
M  V30 31602 C 2928.6 4.44999 3.89525 0
M  V30 31603 H 2927.53 0.451358 0.60398 0
M  V30 31604 H 2930.18 1.56914 0.95133 0
M  V30 31605 H 2928.56 1.70381 3.57472 0
M  V30 31606 H 2929.74 4.12487 2.05405 0
M  V30 31607 H 2928.05 3.65421 1.9964 0
M  V30 31608 H 2930.65 2.70666 4.61133 0
M  V30 31609 H 2930.99 1.10147 4.01464 0
M  V30 31610 H 2931.52 2.51916 3.07869 0
M  V30 31611 H 2928.26 5.46852 3.61432 0
M  V30 31612 H 2927.78 3.98993 4.47844 0
M  V30 31613 H 2929.46 4.57671 4.57326 0
M  V30 31614 N 2929.59 -1.07653 1.15103 0
M  V30 31615 C 2930.53 -2.14682 0.802759 0
M  V30 31616 C 2931.54 -1.61759 -0.183845 0
M  V30 31617 O 2932.73 -1.78457 0.0389663 0
M  V30 31618 C 2929.83 -3.38462 0.172194 0
M  V30 31619 C 2929 -4.20747 1.19545 0
M  V30 31620 C 2928.06 -5.22913 0.587232 0
M  V30 31621 O 2927.09 -5.55252 1.25234 0
M  V30 31622 N 2928.29 -5.77044 -0.632465 0
M  V30 31623 H 2931.05 -2.45161 1.72383 0
M  V30 31624 H 2928.61 -1.23532 1.04649 0
M  V30 31625 H 2930.61 -4.03943 -0.247394 0
M  V30 31626 H 2929.18 -3.05721 -0.65216 0
M  V30 31627 H 2928.4 -3.51129 1.79171 0
M  V30 31628 H 2929.68 -4.72536 1.88645 0
M  V30 31629 H 2929.08 -5.53015 -1.19125 0
M  V30 31630 H 2927.64 -6.44169 -0.994453 0
M  V30 31631 N 2931.07 -0.947348 -1.25949 0
M  V30 31632 C 2932.32 -0.598212 -1.93462 0
M  V30 31633 C 2932.65 0.863674 -1.74273 0
M  V30 31634 O 2931.9 1.63407 -1.07687 0
M  V30 31635 C 2932.2 -0.894219 -3.46032 0
M  V30 31636 C 2931.87 -2.34097 -3.85369 0
M  V30 31637 C 2930.53 -2.73644 -3.95819 0
M  V30 31638 C 2932.88 -3.28087 -4.0498 0
M  V30 31639 C 2930.21 -4.06264 -4.23281 0
M  V30 31640 C 2932.56 -4.60311 -4.33932 0
M  V30 31641 C 2931.23 -4.99664 -4.42597 0
M  V30 31642 H 2930.5 -0.218901 -0.707929 0
M  V30 31643 H 2933.14 -1.19502 -1.49638 0
M  V30 31644 H 2931.45 -0.214943 -3.9121 0
M  V30 31645 H 2933.14 -0.602767 -3.96444 0
M  V30 31646 H 2929.73 -2.02424 -3.77786 0
M  V30 31647 H 2933.92 -2.98727 -3.96328 0
M  V30 31648 H 2929.17 -4.36408 -4.28203 0
M  V30 31649 H 2933.35 -5.33126 -4.48052 0
M  V30 31650 H 2930.98 -6.02454 -4.6363 0
M  V30 31651 N 2932.55 1.40444 -0.715075 0
M  V30 31652 C 2933.51 2.2909 -0.0709129 0
M  V30 31653 C 2934.51 1.45343 0.6879 0
M  V30 31654 O 2935.7 1.66262 0.519879 0
M  V30 31655 C 2932.84 3.28544 0.909471 0
M  V30 31656 H 2934.03 2.87553 -0.851661 0
M  V30 31657 H 2931.58 1.48757 -0.4797 0
M  V30 31658 H 2932.32 2.75099 1.71729 0
M  V30 31659 H 2932.1 3.90367 0.368249 0
M  V30 31660 H 2933.59 3.94924 1.35737 0
M  V30 31661 N 2934.03 0.461222 1.507 0
M  V30 31662 C 2934.98 -0.352191 2.29918 0
M  V30 31663 C 2935.97 -0.999379 1.3678 0
M  V30 31664 O 2937.18 -0.931612 1.54016 0
M  V30 31665 H 2933.55 -0.13241 0.740251 0
M  V30 31666 H 2935.52 0.336477 2.96497 0
M  V30 31667 C 2934.27 -1.4273 3.17054 0
M  V30 31668 H 2933.59 -0.938678 3.88624 0
M  V30 31669 H 2935.03 -1.96922 3.75497 0
M  V30 31670 C 2933.49 -2.4238 2.33995 0
M  V30 31671 O 2934.02 -3.4744 2.01614 0
M  V30 31672 N 2932.23 -2.13853 1.96761 0
M  V30 31673 H 2931.78 -1.28443 2.23294 0
M  V30 31674 H 2931.73 -2.80764 1.41489 0
M  V30 31675 N 2935.51 -1.56408 0.193449 0
M  V30 31676 C 2936.42 -2.22621 -0.740073 0
M  V30 31677 C 2937.43 -1.22476 -1.23594 0
M  V30 31678 O 2938.61 -1.55208 -1.28345 0
M  V30 31679 C 2935.67 -2.8713 -1.94312 0
M  V30 31680 C 2934.73 -4.0254 -1.49198 0
M  V30 31681 C 2933.97 -4.63964 -2.63768 0
M  V30 31682 O 2934.19 -4.24308 -3.81208 0
M  V30 31683 O 2933.12 -5.53458 -2.36575 0
M  V30 31684 H 2936.95 -3.02999 -0.206184 0
M  V30 31685 H 2934.54 -1.49357 -0.0357676 0
M  V30 31686 H 2936.42 -3.27949 -2.64627 0
M  V30 31687 H 2935.09 -2.09732 -2.46564 0
M  V30 31688 H 2934 -3.66347 -0.757673 0
M  V30 31689 H 2935.33 -4.81597 -1.01614 0
M  V30 31690 N 2936.98 0.0801629 -1.57396 0
M  V30 31691 C 2938.23 0.782051 -1.87114 0
M  V30 31692 C 2938.56 1.77644 -0.784611 0
M  V30 31693 O 2937.84 1.93406 0.205959 0
M  V30 31694 C 2938.12 1.49751 -3.27485 0
M  V30 31695 C 2937.97 0.520093 -4.46783 0
M  V30 31696 C 2939.29 2.44447 -3.65969 0
M  V30 31697 H 2936.41 0.282846 -0.680564 0
M  V30 31698 H 2939.05 0.0453805 -1.89946 0
M  V30 31699 H 2937.2 2.12545 -3.25203 0
M  V30 31700 H 2938.88 -0.102 -4.61187 0
M  V30 31701 H 2937.12 -0.165295 -4.33485 0
M  V30 31702 H 2937.79 1.05814 -5.41763 0
M  V30 31703 H 2940.27 1.91735 -3.69292 0
M  V30 31704 H 2939.14 2.91515 -4.65091 0
M  V30 31705 H 2939.4 3.28878 -2.95452 0
M  V30 31706 N 2938.46 1.53634 0.351355 0
M  V30 31707 C 2939.41 1.81074 1.43112 0
M  V30 31708 C 2940.38 0.655939 1.526 0
M  V30 31709 O 2941.56 0.89958 1.68262 0
M  V30 31710 C 2938.7 2.01908 2.7987 0
M  V30 31711 C 2937.82 3.29623 2.79236 0
M  V30 31712 C 2936.95 3.40567 4.07661 0
M  V30 31713 C 2935.99 4.62261 4.01225 0
M  V30 31714 N 2935.13 4.7028 5.21326 0
M  V30 31715 H 2939.97 2.73203 1.19012 0
M  V30 31716 H 2937.51 1.35325 0.576667 0
M  V30 31717 H 2939.46 2.11975 3.59336 0
M  V30 31718 H 2938.09 1.13099 3.02338 0
M  V30 31719 H 2937.15 3.28436 1.91921 0
M  V30 31720 H 2938.46 4.19177 2.70356 0
M  V30 31721 H 2937.61 3.50024 4.95548 0
M  V30 31722 H 2936.35 2.49055 4.19313 0
M  V30 31723 H 2935.36 4.52889 3.11724 0
M  V30 31724 H 2936.58 5.55129 3.91164 0
M  V30 31725 H 2934.53 3.81675 5.33536 0
M  V30 31726 H 2934.44 5.53759 5.14672 0
M  V30 31727 H 2935.71 4.84038 6.11005 0
M  V30 31728 N 2939.94 -0.611943 1.45234 0
M  V30 31729 C 2941.19 -1.37107 1.49023 0
M  V30 31730 C 2941.52 -1.94063 0.130261 0
M  V30 31731 O 2940.77 -1.75272 -0.870521 0
M  V30 31732 C 2941.07 -2.54075 2.51358 0
M  V30 31733 C 2940.74 -2.15292 3.96182 0
M  V30 31734 C 2939.4 -2.04428 4.35617 0
M  V30 31735 C 2941.75 -1.84958 4.87278 0
M  V30 31736 C 2939.08 -1.61447 5.6405 0
M  V30 31737 C 2941.43 -1.43463 6.16118 0
M  V30 31738 C 2940.09 -1.31155 6.54488 0
M  V30 31739 H 2939.36 -0.501709 0.545316 0
M  V30 31740 H 2942.01 -0.69209 1.78556 0
M  V30 31741 H 2940.32 -3.27291 2.15378 0
M  V30 31742 H 2942.01 -3.12305 2.51529 0
M  V30 31743 H 2938.6 -2.24672 3.64994 0
M  V30 31744 H 2942.79 -1.9225 4.57552 0
M  V30 31745 H 2938.04 -1.50536 5.92578 0
M  V30 31746 H 2942.22 -1.19036 6.86151 0
M  V30 31747 H 2939.84 -0.976237 7.53906 0
M  V30 31748 N 2941.42 -1.32452 -0.854063 0
M  V30 31749 C 2942.83 -1.20714 -1.42425 0
M  V30 31750 C 2943.18 0.180096 -1.95372 0
M  V30 31751 O 2942.31 1.07886 -1.87589 0
M  V30 31752 C 2942.9 -2.1854 -2.58893 0
M  V30 31753 C 2941.46 -2.10688 -3.11909 0
M  V30 31754 C 2940.61 -2.06874 -1.84658 0
M  V30 31755 H 2943.56 -1.44272 -0.661167 0
M  V30 31756 H 2943.58 -1.78428 -3.36071 0
M  V30 31757 H 2943.09 -3.19496 -2.20327 0
M  V30 31758 H 2941.19 -1.12983 -3.55057 0
M  V30 31759 H 2941.3 -3.00538 -3.73113 0
M  V30 31760 H 2939.67 -1.52122 -2.04282 0
M  V30 31761 H 2940.45 -3.09612 -1.48308 0
M  V30 31762 N 2942.9 1.07041 -1.15672 0
M  V30 31763 C 2944.14 1.79964 -0.934932 0
M  V30 31764 C 2944.48 1.86644 0.536431 0
M  V30 31765 O 2943.75 1.35249 1.39778 0
M  V30 31766 C 2944.03 3.24854 -1.55377 0
M  V30 31767 C 2943.89 3.26299 -3.09595 0
M  V30 31768 C 2945.21 4.22206 -1.24217 0
M  V30 31769 H 2942.33 0.653329 -0.341073 0
M  V30 31770 H 2944.97 1.25235 -1.42885 0
M  V30 31771 H 2943.12 3.71589 -1.13374 0
M  V30 31772 H 2944.79 2.87783 -3.60526 0
M  V30 31773 H 2943.03 2.65168 -3.4332 0
M  V30 31774 H 2943.7 4.28478 -3.48009 0
M  V30 31775 H 2946.18 3.83877 -1.60554 0
M  V30 31776 H 2945.06 5.21869 -1.70129 0
M  V30 31777 H 2945.32 4.41811 -0.159717 0
M  V30 31778 N 2944.38 0.954014 1.25445 0
M  V30 31779 C 2945.31 0.491757 2.28263 0
M  V30 31780 C 2946.29 -0.461588 1.63717 0
M  V30 31781 O 2947.47 -0.360676 1.90821 0
M  V30 31782 C 2944.6 -0.231854 3.46525 0
M  V30 31783 C 2943.56 0.636172 4.23246 0
M  V30 31784 C 2942.88 -0.218144 5.34255 0
M  V30 31785 C 2944.18 1.91397 4.85968 0
M  V30 31786 H 2945.88 1.35111 2.6718 0
M  V30 31787 H 2943.42 0.651118 1.28439 0
M  V30 31788 H 2945.37 -0.566365 4.17577 0
M  V30 31789 H 2944.1 -1.12545 3.06596 0
M  V30 31790 H 2942.76 0.953758 3.53976 0
M  V30 31791 H 2942.41 -1.11148 4.90566 0
M  V30 31792 H 2942.11 0.359335 5.865 0
M  V30 31793 H 2943.63 -0.547636 6.08139 0
M  V30 31794 H 2945.04 1.64591 5.49166 0
M  V30 31795 H 2943.44 2.43706 5.48386 0
M  V30 31796 H 2944.51 2.61746 4.08188 0
M  V30 31797 N 2945.85 -1.40063 0.722513 0
M  V30 31798 C 2947.1 -2.01056 0.265406 0
M  V30 31799 C 2947.43 -1.57176 -1.14059 0
M  V30 31800 O 2946.71 -0.794947 -1.77513 0
M  V30 31801 C 2946.99 -3.58363 0.35322 0
M  V30 31802 C 2946.84 -4.12297 1.79809 0
M  V30 31803 C 2948.16 -4.39261 -0.2716 0
M  V30 31804 H 2945.28 -0.730467 0.0979131 0
M  V30 31805 H 2947.92 -1.66444 0.916319 0
M  V30 31806 H 2946.07 -3.8798 -0.200969 0
M  V30 31807 H 2947.75 -3.93451 2.4082 0
M  V30 31808 H 2945.99 -3.66325 2.32354 0
M  V30 31809 H 2946.66 -5.21451 1.81088 0
M  V30 31810 H 2949.14 -4.15616 0.20068 0
M  V30 31811 H 2948.01 -5.48606 -0.179746 0
M  V30 31812 H 2948.27 -4.2079 -1.35604 0
M  V30 31813 N 2947.33 -0.469207 -1.50453 0
M  V30 31814 C 2948.75 -0.123254 -1.59123 0
M  V30 31815 C 2948.95 1.3701 -1.47751 0
M  V30 31816 O 2948 2.1432 -1.33504 0
M  V30 31817 C 2949.32 -0.671771 -2.931 0
M  V30 31818 C 2950.86 -0.635032 -3.0649 0
M  V30 31819 C 2951.34 -1.16106 -4.43039 0
M  V30 31820 N 2952.83 -1.12039 -4.49446 0
M  V30 31821 C 2953.57 -1.49794 -5.53488 0
M  V30 31822 N 2953.06 -1.94988 -6.64794 0
M  V30 31823 N 2954.85 -1.41408 -5.44022 0
M  V30 31824 H 2947.01 -1.44049 -1.56089 0
M  V30 31825 H 2949.27 -0.595582 -0.737554 0
M  V30 31826 H 2948.97 -1.71785 -3.06892 0
M  V30 31827 H 2948.85 -0.114289 -3.77027 0
M  V30 31828 H 2951.24 0.402135 -2.92347 0
M  V30 31829 H 2951.32 -1.2293 -2.24326 0
M  V30 31830 H 2950.96 -2.19685 -4.57931 0
M  V30 31831 H 2950.89 -0.543031 -5.23793 0
M  V30 31832 H 2953.38 -0.788893 -3.69574 0
M  V30 31833 H 2953.69 -2.21949 -7.40242 0
M  V30 31834 H 2952.04 -1.98939 -6.65919 0
M  V30 31835 H 2955.23 -1.05943 -4.55954 0
M  V30 31836 H 2955.4 -1.71158 -6.24987 0
M  V30 31837 N 2948.81 1.56303 -0.201741 0
M  V30 31838 C 2950.22 1.84114 0.309679 0
M  V30 31839 C 2950.57 1.12261 1.6091 0
M  V30 31840 O 2949.7 0.385624 2.12936 0
M  V30 31841 C 2950.29 3.33994 0.568647 0
M  V30 31842 C 2948.85 3.62191 1.02442 0
M  V30 31843 C 2948 2.77194 0.0766355 0
M  V30 31844 H 2950.95 1.52893 -0.425383 0
M  V30 31845 H 2950.97 3.53125 1.41714 0
M  V30 31846 H 2950.48 3.86262 -0.377258 0
M  V30 31847 H 2948.58 3.15362 1.98437 0
M  V30 31848 H 2948.7 4.70329 0.912537 0
M  V30 31849 H 2947.06 2.48014 0.579766 0
M  V30 31850 H 2947.84 3.32254 -0.863833 0
M  V30 31851 N 2950.29 -0.0718147 1.57436 0
M  V30 31852 C 2951.51 -0.787712 1.91859 0
M  V30 31853 C 2951.94 -1.70327 0.798149 0
M  V30 31854 O 2951.3 -1.79582 -0.249018 0
M  V30 31855 C 2951.34 -1.55738 3.25235 0
M  V30 31856 O 2950.45 -2.66804 3.14467 0
M  V30 31857 H 2949.79 -0.214903 0.628262 0
M  V30 31858 H 2952.32 -0.0400653 2.04561 0
M  V30 31859 H 2952.33 -1.93663 3.59108 0
M  V30 31860 H 2951 -0.88562 4.06361 0
M  V30 31861 H 2949.58 -2.31736 2.92152 0
M  V30 31862 N 2951.77 -1.53818 -0.343203 0
M  V30 31863 C 2953 -1.74765 -1.10185 0
M  V30 31864 C 2953.4 -0.486889 -1.82828 0
M  V30 31865 O 2952.75 0.551167 -1.75237 0
M  V30 31866 C 2952.81 -2.87379 -2.15995 0
M  V30 31867 C 2952.47 -4.26972 -1.62924 0
M  V30 31868 C 2953.47 -5.08529 -1.08138 0
M  V30 31869 C 2951.15 -4.73457 -1.6776 0
M  V30 31870 C 2953.15 -6.34673 -0.588927 0
M  V30 31871 C 2950.84 -5.99574 -1.18127 0
M  V30 31872 C 2951.83 -6.80015 -0.63786 0
M  V30 31873 O 2951.52 -8.03762 -0.148931 0
M  V30 31874 H 2951.25 -0.587475 -0.334439 0
M  V30 31875 H 2953.81 -2.01446 -0.401073 0
M  V30 31876 H 2952.04 -2.56223 -2.89632 0
M  V30 31877 H 2953.73 -2.96292 -2.77427 0
M  V30 31878 H 2954.49 -4.73779 -1.03723 0
M  V30 31879 H 2950.37 -4.10903 -2.08997 0
M  V30 31880 H 2953.92 -6.97407 -0.16411 0
M  V30 31881 H 2949.81 -6.33819 -1.22243 0
M  V30 31882 H 2950.58 -8.18067 -0.266188 0
M  V30 31883 N 2953.24 0.604233 -1.45557 0
M  V30 31884 C 2954.49 1.36516 -1.4997 0
M  V30 31885 C 2954.82 1.93678 -0.142271 0
M  V30 31886 O 2954.1 1.75249 0.843686 0
M  V30 31887 C 2954.38 2.51058 -2.58151 0
M  V30 31888 C 2954.23 1.99071 -4.03349 0
M  V30 31889 C 2955.55 3.5318 -2.62588 0
M  V30 31890 H 2952.67 0.495026 -0.546002 0
M  V30 31891 H 2955.31 0.680813 -1.77384 0
M  V30 31892 H 2953.46 3.09437 -2.34906 0
M  V30 31893 H 2955.14 1.45316 -4.37814 0
M  V30 31894 H 2953.38 1.30048 -4.13848 0
M  V30 31895 H 2954.05 2.81656 -4.74736 0
M  V30 31896 H 2956.53 3.04647 -2.83424 0
M  V30 31897 H 2955.4 4.3081 -3.40138 0
M  V30 31898 H 2955.66 4.09016 -1.67805 0
M  V30 31899 N 2954.72 1.32903 0.847027 0
M  V30 31900 C 2955.65 1.25095 1.97164 0
M  V30 31901 C 2956.63 0.133191 1.69578 0
M  V30 31902 O 2957.82 0.321625 1.91518 0
M  V30 31903 C 2954.95 0.981064 3.33155 0
M  V30 31904 C 2953.9 2.06088 3.75116 0
M  V30 31905 C 2953.23 1.64327 5.08823 0
M  V30 31906 C 2954.53 3.47676 3.89768 0
M  V30 31907 H 2956.22 2.19187 2.03954 0
M  V30 31908 H 2953.77 1.05519 0.979888 0
M  V30 31909 H 2955.72 0.912964 4.11391 0
M  V30 31910 H 2954.44 0.00451299 3.266 0
M  V30 31911 H 2953.1 2.11927 2.99137 0
M  V30 31912 H 2952.75 0.653964 4.98731 0
M  V30 31913 H 2952.45 2.36582 5.37869 0
M  V30 31914 H 2953.98 1.58968 5.89543 0
M  V30 31915 H 2955.39 3.44384 4.58337 0
M  V30 31916 H 2953.79 4.18346 4.30241 0
M  V30 31917 H 2954.86 3.86778 2.92456 0
M  V30 31918 N 2956.2 -1.06426 1.16238 0
M  V30 31919 C 2957.42 -1.83439 0.96772 0
M  V30 31920 C 2957.85 -1.81895 -0.479135 0
M  V30 31921 O 2957.21 -1.21878 -1.34222 0
M  V30 31922 C 2957.26 -3.28007 1.49811 0
M  V30 31923 O 2956.36 -4.06354 0.703553 0
M  V30 31924 H 2955.7 -0.567654 0.344478 0
M  V30 31925 H 2958.23 -1.34195 1.54444 0
M  V30 31926 H 2958.24 -3.78829 1.51502 0
M  V30 31927 H 2956.92 -3.28446 2.55139 0
M  V30 31928 H 2955.49 -3.65134 0.757051 0
M  V30 31929 N 2957.68 -0.960653 -1.24937 0
M  V30 31930 C 2958.93 -0.617475 -1.92436 0
M  V30 31931 C 2959.25 0.84907 -1.75544 0
M  V30 31932 O 2958.52 1.60536 -1.12271 0
M  V30 31933 H 2957.1 -0.225384 -0.712188 0
M  V30 31934 H 2959.76 -1.2202 -1.51978 0
M  V30 31935 H 2958.86 -0.851986 -3.00246 0
M  V30 31936 N 2959.16 1.39677 -0.729931 0
M  V30 31937 C 2960.12 2.29002 -0.095207 0
M  V30 31938 C 2961.12 1.46064 0.672446 0
M  V30 31939 O 2962.31 1.66804 0.502216 0
M  V30 31940 C 2959.44 3.29491 0.874573 0
M  V30 31941 H 2960.63 2.86634 -0.882112 0
M  V30 31942 H 2958.19 1.4824 -0.49545 0
M  V30 31943 H 2958.92 2.76905 1.68802 0
M  V30 31944 H 2958.71 3.90736 0.326825 0
M  V30 31945 H 2960.2 3.96342 1.31541 0
M  V30 31946 N 2960.63 0.47718 1.50202 0
M  V30 31947 C 2961.6 -0.302559 2.27194 0
M  V30 31948 C 2962.6 -0.915089 1.32222 0
M  V30 31949 O 2963.79 -0.783321 1.55595 0
M  V30 31950 C 2960.92 -1.43162 3.09382 0
M  V30 31951 H 2962.11 0.37273 2.97575 0
M  V30 31952 H 2959.67 0.231419 1.54577 0
M  V30 31953 H 2960.4 -2.14178 2.43513 0
M  V30 31954 H 2960.19 -0.99813 3.79183 0
M  V30 31955 H 2961.68 -1.9815 3.67595 0
M  V30 31956 N 2962.11 -1.56194 0.210027 0
M  V30 31957 C 2963.05 -2.15713 -0.744508 0
M  V30 31958 C 2964.02 -1.09814 -1.19915 0
M  V30 31959 O 2965.21 -1.38009 -1.28397 0
M  V30 31960 C 2962.33 -2.72811 -2.00728 0
M  V30 31961 C 2961.38 -3.91434 -1.69356 0
M  V30 31962 S 2962.21 -5.29052 -0.828486 0
M  V30 31963 C 2963.37 -5.89581 -2.10108 0
M  V30 31964 H 2963.6 -2.96341 -0.238584 0
M  V30 31965 H 2961.14 -1.54399 -0.00515163 0
M  V30 31966 H 2963.09 -3.06349 -2.73241 0
M  V30 31967 H 2961.75 -1.92198 -2.48433 0
M  V30 31968 H 2960.95 -4.29847 -2.63149 0
M  V30 31969 H 2960.55 -3.58983 -1.04915 0
M  V30 31970 H 2962.84 -6.04853 -3.05221 0
M  V30 31971 H 2963.78 -6.85852 -1.76104 0
M  V30 31972 H 2964.19 -5.18312 -2.23635 0
M  V30 31973 N 2963.59 0.0634645 -1.57472 0
M  V30 31974 C 2965.01 0.418439 -1.54017 0
M  V30 31975 C 2965.21 1.78681 -0.931407 0
M  V30 31976 O 2964.26 2.46713 -0.537508 0
M  V30 31977 C 2965.58 0.351854 -2.98634 0
M  V30 31978 C 2967.12 0.431439 -3.10012 0
M  V30 31979 C 2967.6 0.394673 -4.56296 0
M  V30 31980 N 2969.09 0.454502 -4.60965 0
M  V30 31981 C 2969.82 0.448401 -5.71644 0
M  V30 31982 N 2969.32 0.39662 -6.91664 0
M  V30 31983 N 2971.11 0.495579 -5.59911 0
M  V30 31984 H 2963.26 -0.832442 -1.95408 0
M  V30 31985 H 2965.53 -0.313212 -0.894764 0
M  V30 31986 H 2965.23 -0.587109 -3.46765 0
M  V30 31987 H 2965.11 1.15887 -3.58957 0
M  V30 31988 H 2967.49 1.36083 -2.6185 0
M  V30 31989 H 2967.58 -0.404303 -2.52585 0
M  V30 31990 H 2967.22 -0.5309 -5.05118 0
M  V30 31991 H 2967.15 1.24806 -5.11597 0
M  V30 31992 H 2969.64 0.49843 -3.74599 0
M  V30 31993 H 2969.95 0.39612 -7.71784 0
M  V30 31994 H 2968.3 0.363182 -6.9405 0
M  V30 31995 H 2971.49 0.533782 -4.65047 0
M  V30 31996 H 2971.66 0.487355 -6.46165 0
M  V30 31997 N 2965.07 1.53998 0.33504 0
M  V30 31998 C 2966.31 1.71907 1.07591 0
M  V30 31999 C 2966.65 0.485297 1.88039 0
M  V30 32000 O 2965.92 -0.51772 1.87483 0
M  V30 32001 C 2966.21 2.98775 2.01011 0
M  V30 32002 C 2966.06 4.32379 1.23969 0
M  V30 32003 C 2967.38 3.21348 3.00705 0
M  V30 32004 H 2964.5 0.625511 0.389749 0
M  V30 32005 H 2967.14 1.8668 0.353651 0
M  V30 32006 H 2965.29 2.86312 2.62598 0
M  V30 32007 H 2966.96 4.56708 0.649303 0
M  V30 32008 H 2965.2 4.30403 0.541803 0
M  V30 32009 H 2965.87 5.17346 1.92503 0
M  V30 32010 H 2968.35 3.33199 2.49235 0
M  V30 32011 H 2967.23 4.11497 3.63265 0
M  V30 32012 H 2967.49 2.3804 3.72545 0
M  V30 32013 N 2966.55 -0.596505 1.45875 0
M  V30 32014 C 2967.79 -1.35719 1.50692 0
M  V30 32015 C 2968.13 -1.936 0.15254 0
M  V30 32016 O 2967.4 -1.75694 -0.83438 0
M  V30 32017 C 2967.68 -2.49686 2.59478 0
M  V30 32018 C 2967.54 -1.96929 4.04399 0
M  V30 32019 C 2968.86 -3.51782 2.64457 0
M  V30 32020 H 2965.97 -0.492124 0.548619 0
M  V30 32021 H 2968.62 -0.671397 1.77742 0
M  V30 32022 H 2966.77 -3.08187 2.36544 0
M  V30 32023 H 2968.44 -1.42992 4.38578 0
M  V30 32024 H 2966.68 -1.27852 4.14532 0
M  V30 32025 H 2967.35 -2.79134 4.76223 0
M  V30 32026 H 2969.83 -3.0314 2.85036 0
M  V30 32027 H 2968.7 -4.29 3.42418 0
M  V30 32028 H 2968.97 -4.0812 1.69972 0
M  V30 32029 N 2968.02 -1.3335 -0.839967 0
M  V30 32030 C 2968.97 -1.23492 -1.9711 0
M  V30 32031 C 2969.97 -0.136532 -1.68849 0
M  V30 32032 O 2971.17 -0.300421 -1.77475 0
M  V30 32033 H 2967.55 -0.383197 -0.647043 0
M  V30 32034 H 2969.52 -2.19125 -2.0255 0
M  V30 32035 C 2968.27 -0.989874 -3.33312 0
M  V30 32036 H 2967.59 -1.82732 -3.55597 0
M  V30 32037 H 2969.03 -0.961195 -4.12961 0
M  V30 32038 C 2967.49 0.307213 -3.35496 0
M  V30 32039 O 2968.02 1.31427 -3.79592 0
M  V30 32040 N 2966.23 0.334363 -2.8867 0
M  V30 32041 H 2965.77 -0.485704 -2.5298 0
M  V30 32042 H 2965.73 1.20204 -2.90514 0
M  V30 32043 N 2969.5 1.05808 -1.16801 0
M  V30 32044 C 2970.74 1.80277 -0.963296 0
M  V30 32045 C 2971.11 1.85385 0.499638 0
M  V30 32046 O 2972.31 2.55884 0.823219 0
M  V30 32047 C 2970.58 3.20607 -1.57943 0
M  V30 32048 S 2972.14 4.11631 -1.52005 0
M  V30 32049 H 2968.96 0.620958 -0.346313 0
M  V30 32050 H 2971.56 1.26996 -1.48634 0
M  V30 32051 H 2970.26 3.14488 -2.63677 0
M  V30 32052 H 2969.79 3.78964 -1.05592 0
M  V30 32053 H 2971.81 4.93429 -0.523712 0
M  V30 32054 N 2970.98 0.967265 1.24426 0
M  V30 32055 C 2972.23 0.628914 1.92486 0
M  V30 32056 C 2972.56 -0.83584 1.75625 0
M  V30 32057 O 2971.81 -1.61673 1.10273 0
M  V30 32058 C 2972.11 0.949156 3.44566 0
M  V30 32059 C 2971.78 2.40198 3.81596 0
M  V30 32060 C 2970.44 2.79906 3.91415 0
M  V30 32061 C 2972.79 3.34488 3.99709 0
M  V30 32062 C 2970.12 4.12947 4.16764 0
M  V30 32063 C 2972.47 4.67156 4.26554 0
M  V30 32064 C 2971.13 5.06642 4.34592 0
M  V30 32065 H 2970.4 0.230136 0.704357 0
M  V30 32066 H 2973.05 1.21867 1.47718 0
M  V30 32067 H 2971.36 0.277154 3.90818 0
M  V30 32068 H 2973.05 0.665762 3.95435 0
M  V30 32069 H 2969.64 2.08408 3.74518 0
M  V30 32070 H 2973.83 3.04994 3.91525 0
M  V30 32071 H 2969.08 4.43165 4.21206 0
M  V30 32072 H 2973.26 5.40186 4.39513 0
M  V30 32073 H 2970.88 6.09754 4.53987 0
M  V30 32074 N 2972.46 -1.39288 0.737328 0
M  V30 32075 C 2973.37 -2.34385 0.100505 0
M  V30 32076 C 2974.39 -1.58438 -0.719254 0
M  V30 32077 O 2975.56 -1.90718 -0.647182 0
M  V30 32078 C 2972.63 -3.37479 -0.794266 0
M  V30 32079 C 2971.69 -4.29283 0.03801 0
M  V30 32080 C 2970.92 -5.27454 -0.814149 0
M  V30 32081 O 2971.14 -5.32181 -2.05279 0
M  V30 32082 O 2970.08 -6.01415 -0.241574 0
M  V30 32083 H 2973.9 -2.90505 0.885458 0
M  V30 32084 H 2971.49 -1.40855 0.498024 0
M  V30 32085 H 2973.37 -4.00647 -1.30615 0
M  V30 32086 H 2972.05 -2.8374 -1.55799 0
M  V30 32087 H 2970.95 -3.6933 0.59547 0
M  V30 32088 H 2972.29 -4.86234 0.764012 0
M  V30 32089 N 2973.94 -0.485139 -1.49947 0
M  V30 32090 C 2974.85 0.306656 -2.32587 0
M  V30 32091 C 2975.86 0.982607 -1.436 0
M  V30 32092 O 2977.04 0.967488 -1.7664 0
M  V30 32093 C 2974.1 1.36635 -3.18641 0
M  V30 32094 C 2973.17 0.705515 -4.23463 0
M  V30 32095 C 2972.4 1.71472 -5.05404 0
M  V30 32096 O 2972.62 2.94285 -4.88623 0
M  V30 32097 O 2971.56 1.27878 -5.88159 0
M  V30 32098 H 2975.38 -0.369325 -3.01446 0
M  V30 32099 H 2972.97 -0.246735 -1.47349 0
M  V30 32100 H 2974.85 1.97983 -3.71995 0
M  V30 32101 H 2973.52 2.02555 -2.52494 0
M  V30 32102 H 2972.43 0.0527075 -3.74063 0
M  V30 32103 H 2973.76 0.0890322 -4.92119 0
M  V30 32104 N 2975.42 1.56081 -0.218307 0
M  V30 32105 C 2976.35 2.23138 0.687883 0
M  V30 32106 C 2977.33 1.20202 1.20355 0
M  V30 32107 O 2978.51 1.48778 1.24815 0
M  V30 32108 C 2975.64 2.90877 1.89757 0
M  V30 32109 C 2974.6 4.00256 1.51588 0
M  V30 32110 C 2973.92 4.55276 2.80407 0
M  V30 32111 C 2975.22 5.17475 0.708313 0
M  V30 32112 H 2976.92 2.99123 0.128802 0
M  V30 32113 H 2974.46 1.43873 0.0605101 0
M  V30 32114 H 2976.41 3.36479 2.53693 0
M  V30 32115 H 2975.14 2.12334 2.48157 0
M  V30 32116 H 2973.8 3.55381 0.899995 0
M  V30 32117 H 2973.45 3.73467 3.36944 0
M  V30 32118 H 2973.15 5.29094 2.55603 0
M  V30 32119 H 2974.67 5.03593 3.45291 0
M  V30 32120 H 2976.08 5.59478 1.2513 0
M  V30 32121 H 2974.48 5.97505 0.557488 0
M  V30 32122 H 2975.55 4.84057 -0.285764 0
M  V30 32123 N 2976.89 -0.0551124 1.57504 0
M  V30 32124 C 2977.84 -1.06369 2.04827 0
M  V30 32125 C 2978.81 -1.37479 0.932132 0
M  V30 32126 O 2980 -1.48263 1.20095 0
M  V30 32127 C 2977.14 -2.36739 2.51095 0
M  V30 32128 C 2976.25 -2.12014 3.76396 0
M  V30 32129 C 2975.38 -3.36066 4.11379 0
M  V30 32130 C 2974.42 -3.0678 5.29672 0
M  V30 32131 N 2973.56 -4.2321 5.60212 0
M  V30 32132 H 2978.4 -0.653165 2.90754 0
M  V30 32133 H 2975.94 -0.310926 1.43776 0
M  V30 32134 H 2977.89 -3.12877 2.75978 0
M  V30 32135 H 2976.52 -2.75562 1.68123 0
M  V30 32136 H 2975.58 -1.26492 3.58753 0
M  V30 32137 H 2976.89 -1.86393 4.62665 0
M  V30 32138 H 2976.04 -4.2059 4.37252 0
M  V30 32139 H 2974.78 -3.64778 3.2371 0
M  V30 32140 H 2973.79 -2.20656 5.03578 0
M  V30 32141 H 2975.01 -2.79374 6.18973 0
M  V30 32142 H 2972.96 -4.51922 4.75503 0
M  V30 32143 H 2972.87 -4.00921 6.40935 0
M  V30 32144 H 2974.14 -5.08682 5.90646 0
M  V30 32145 N 2978.37 -1.54173 -0.326869 0
M  V30 32146 C 2979.32 -1.84048 -1.42229 0
M  V30 32147 C 2980.31 -0.712142 -1.53704 0
M  V30 32148 O 2981.52 -0.895752 -1.56129 0
M  V30 32149 H 2977.89 -0.583351 -0.474558 0
M  V30 32150 H 2979.87 -2.7566 -1.14254 0
M  V30 32151 C 2978.61 -2.08168 -2.78499 0
M  V30 32152 H 2977.94 -2.94451 -2.70441 0
M  V30 32153 H 2979.38 -2.33027 -3.54224 0
M  V30 32154 C 2977.84 -0.87221 -3.25414 0
M  V30 32155 O 2978.37 -0.0798354 -4.01621 0
M  V30 32156 N 2976.57 -0.684766 -2.82417 0
M  V30 32157 H 2976.12 -1.33076 -2.20564 0
M  V30 32158 H 2976.08 0.122975 -3.14159 0
M  V30 32159 N 2979.85 0.58876 -1.4619 0
M  V30 32160 C 2981.1 1.34719 -1.51186 0
M  V30 32161 C 2981.42 1.93832 -0.161118 0
M  V30 32162 O 2980.68 1.76635 0.842526 0
M  V30 32163 C 2980.98 2.50044 -2.55368 0
M  V30 32164 C 2980.64 2.08961 -3.99557 0
M  V30 32165 C 2979.31 1.97472 -4.38815 0
M  V30 32166 C 2981.66 1.77182 -4.90159 0
M  V30 32167 C 2978.99 1.52453 -5.66547 0
M  V30 32168 C 2981.34 1.33643 -6.18322 0
M  V30 32169 C 2980 1.20726 -6.56492 0
M  V30 32170 H 2979.27 0.49297 -0.553228 0
M  V30 32171 H 2981.92 0.663596 -1.79635 0
M  V30 32172 H 2980.22 3.23823 -2.20558 0
M  V30 32173 H 2981.92 3.08264 -2.56465 0
M  V30 32174 H 2978.51 2.18836 -3.68522 0
M  V30 32175 H 2982.7 1.84947 -4.60552 0
M  V30 32176 H 2977.95 1.4109 -5.94898 0
M  V30 32177 H 2982.13 1.08105 -6.87958 0
M  V30 32178 H 2979.75 0.856174 -7.55363 0
M  V30 32179 N 2981.33 1.33794 0.832883 0
M  V30 32180 C 2982.26 1.27179 1.95826 0
M  V30 32181 C 2983.24 0.151169 1.69427 0
M  V30 32182 O 2984.42 0.34192 1.91166 0
M  V30 32183 C 2981.55 1.01634 3.32096 0
M  V30 32184 C 2980.51 2.10055 3.72909 0
M  V30 32185 C 2979.83 1.69715 5.07051 0
M  V30 32186 C 2981.13 3.5179 3.86058 0
M  V30 32187 H 2982.83 2.21338 2.01618 0
M  V30 32188 H 2980.37 1.06552 0.968641 0
M  V30 32189 H 2982.33 0.956546 4.104 0
M  V30 32190 H 2981.05 0.039153 3.26577 0
M  V30 32191 H 2979.71 2.15087 2.96872 0
M  V30 32192 H 2979.36 0.706824 4.98009 0
M  V30 32193 H 2979.06 2.42273 5.35329 0
M  V30 32194 H 2980.58 1.65212 5.87824 0
M  V30 32195 H 2982 3.49226 4.54658 0
M  V30 32196 H 2980.39 4.22885 4.25779 0
M  V30 32197 H 2981.46 3.89859 2.88337 0
M  V30 32198 N 2982.81 -1.05187 1.1736 0
M  V30 32199 C 2983.74 -2.12422 0.833805 0
M  V30 32200 C 2984.72 -1.61372 -0.199422 0
M  V30 32201 O 2985.9 -1.88326 -0.0809459 0
M  V30 32202 C 2983.03 -3.37821 0.243804 0
M  V30 32203 C 2982.07 -4.07697 1.25242 0
M  V30 32204 S 2982.91 -4.56234 2.80376 0
M  V30 32205 C 2984.06 -5.84881 2.22856 0
M  V30 32206 H 2984.3 -2.40917 1.74201 0
M  V30 32207 H 2981.83 -1.17788 0.998263 0
M  V30 32208 H 2983.79 -4.10401 -0.0901194 0
M  V30 32209 H 2982.45 -3.07462 -0.642342 0
M  V30 32210 H 2981.64 -4.97798 0.788256 0
M  V30 32211 H 2981.24 -3.41183 1.532 0
M  V30 32212 H 2983.53 -6.58235 1.60415 0
M  V30 32213 H 2984.48 -6.36045 3.11212 0
M  V30 32214 H 2984.89 -5.39447 1.66306 0
M  V30 32215 N 2984.28 -0.97385 -1.23911 0
M  V30 32216 C 2985.23 -0.508405 -2.25131 0
M  V30 32217 C 2986.2 0.449279 -1.59908 0
M  V30 32218 O 2987.39 0.35828 -1.87406 0
M  V30 32219 C 2984.53 0.189361 -3.4458 0
M  V30 32220 C 2983.64 -0.807813 -4.2438 0
M  V30 32221 C 2982.77 -0.0855248 -5.31131 0
M  V30 32222 C 2981.81 -1.07235 -6.02633 0
M  V30 32223 N 2980.95 -0.379658 -7.01073 0
M  V30 32224 H 2985.79 -1.37637 -2.64311 0
M  V30 32225 H 2983.33 -0.689825 -1.29922 0
M  V30 32226 H 2985.28 0.610661 -4.12707 0
M  V30 32227 H 2983.91 1.02124 -3.0622 0
M  V30 32228 H 2982.97 -1.34753 -3.55733 0
M  V30 32229 H 2984.28 -1.56006 -4.73776 0
M  V30 32230 H 2983.43 0.393466 -6.05423 0
M  V30 32231 H 2982.17 0.699376 -4.82659 0
M  V30 32232 H 2981.18 -1.56216 -5.2714 0
M  V30 32233 H 2982.4 -1.8578 -6.53194 0
M  V30 32234 H 2980.35 0.386154 -6.54862 0
M  V30 32235 H 2980.26 -1.07067 -7.4838 0
M  V30 32236 H 2981.53 0.0771614 -7.79462 0
M  V30 32237 N 2985.76 1.38895 -0.744705 0
M  V30 32238 C 2986.72 2.28888 -0.11949 0
M  V30 32239 C 2987.72 1.46769 0.656916 0
M  V30 32240 O 2988.91 1.67327 0.484496 0
M  V30 32241 C 2986.05 3.304 0.839577 0
M  V30 32242 H 2987.24 2.85682 -0.912464 0
M  V30 32243 H 2984.79 1.47706 -0.511145 0
M  V30 32244 H 2985.53 2.7868 1.65855 0
M  V30 32245 H 2985.31 3.9106 0.285364 0
M  V30 32246 H 2986.8 3.97715 1.2733 0
M  V30 32247 N 2987.24 0.493084 1.49688 0
M  V30 32248 C 2988.2 -0.278445 2.27502 0
M  V30 32249 C 2989.2 -0.901014 1.33186 0
M  V30 32250 O 2990.39 -0.766774 1.56417 0
M  V30 32251 C 2987.53 -1.39872 3.10883 0
M  V30 32252 H 2988.72 0.404271 2.97163 0
M  V30 32253 H 2986.27 0.247801 1.54323 0
M  V30 32254 H 2987.01 -2.11583 2.4577 0
M  V30 32255 H 2986.79 -0.957857 3.8022 0
M  V30 32256 H 2988.28 -1.9424 3.69676 0
M  V30 32257 N 2988.72 -1.55963 0.226582 0
M  V30 32258 C 2989.97 -1.9761 -0.404135 0
M  V30 32259 C 2990.28 -1.11743 -1.6054 0
M  V30 32260 O 2991.49 -1.43311 -2.30595 0
M  V30 32261 C 2989.94 -3.51558 -0.770404 0
M  V30 32262 C 2989.55 -4.46135 0.408322 0
M  V30 32263 C 2991.29 -4.01906 -1.36644 0
M  V30 32264 C 2989.2 -5.91397 0.0193386 0
M  V30 32265 H 2988.13 -0.737945 -0.154767 0
M  V30 32266 H 2990.78 -1.80624 0.323589 0
M  V30 32267 H 2989.16 -3.64162 -1.55569 0
M  V30 32268 H 2990.34 -4.45281 1.18583 0
M  V30 32269 H 2988.65 -4.06156 0.91793 0
M  V30 32270 H 2991.25 -5.07937 -1.67046 0
M  V30 32271 H 2991.59 -3.48053 -2.28397 0
M  V30 32272 H 2992.13 -3.92545 -0.644487 0
M  V30 32273 H 2988.87 -6.49244 0.903474 0
M  V30 32274 H 2988.39 -5.95434 -0.722381 0
M  V30 32275 H 2990.06 -6.45727 -0.405597 0
M  V30 32276 N 2990.2 0.0467589 -1.57531 0
M  V30 32277 C 2991.44 0.742185 -1.88731 0
M  V30 32278 C 2991.78 1.7594 -0.822115 0
M  V30 32279 O 2991.05 1.938 0.164888 0
M  V30 32280 C 2991.33 1.42771 -3.30588 0
M  V30 32281 C 2991.19 0.425206 -4.47786 0
M  V30 32282 C 2992.51 2.36629 -3.71072 0
M  V30 32283 H 2989.62 0.268347 -0.68641 0
M  V30 32284 H 2992.27 0.00508001 -1.89999 0
M  V30 32285 H 2990.42 2.056 -3.29638 0
M  V30 32286 H 2992.09 -0.199802 -4.60867 0
M  V30 32287 H 2990.33 -0.257207 -4.33037 0
M  V30 32288 H 2991 0.942991 -5.43886 0
M  V30 32289 H 2993.48 1.83859 -3.73276 0
M  V30 32290 H 2992.35 2.81585 -4.7117 0
M  V30 32291 H 2992.62 3.22537 -3.02361 0
M  V30 32292 N 2991.67 1.54344 0.318688 0
M  V30 32293 C 2992.9 1.77071 1.07984 0
M  V30 32294 C 2993.32 0.520148 1.80765 0
M  V30 32295 O 2992.68 -0.528535 1.73425 0
M  V30 32296 C 2992.73 2.96673 2.04982 0
M  V30 32297 O 2991.83 2.68559 3.12969 0
M  V30 32298 H 2991.18 0.586612 0.311099 0
M  V30 32299 H 2993.71 2.01381 0.361497 0
M  V30 32300 H 2993.72 3.24155 2.47765 0
M  V30 32301 H 2992.39 3.8736 1.5141 0
M  V30 32302 H 2990.97 2.52041 2.74826 0
M  V30 32303 N 2993.15 -0.580999 1.465 0
M  V30 32304 C 2994.1 -1.68994 1.57193 0
M  V30 32305 C 2995.07 -1.60803 0.416143 0
M  V30 32306 O 2996.25 -1.7999 0.633118 0
M  V30 32307 C 2993.39 -3.0733 1.56978 0
M  V30 32308 C 2992.51 -3.26134 2.83303 0
M  V30 32309 C 2991.64 -4.54729 2.74582 0
M  V30 32310 C 2990.68 -4.66882 3.95838 0
M  V30 32311 N 2989.82 -5.86805 3.85493 0
M  V30 32312 H 2994.66 -1.59192 2.51917 0
M  V30 32313 H 2992.2 -0.775835 1.24977 0
M  V30 32314 H 2994.15 -3.87402 1.54839 0
M  V30 32315 H 2992.78 -3.16025 0.657858 0
M  V30 32316 H 2991.84 -2.39654 2.95415 0
M  V30 32317 H 2993.15 -3.30981 3.73166 0
M  V30 32318 H 2992.3 -5.43032 2.70558 0
M  V30 32319 H 2991.04 -4.52322 1.82362 0
M  V30 32320 H 2990.05 -3.76996 4.00192 0
M  V30 32321 H 2991.27 -4.71066 4.89156 0
M  V30 32322 H 2989.22 -5.85392 2.96061 0
M  V30 32323 H 2989.13 -5.92928 4.69012 0
M  V30 32324 H 2990.4 -6.77533 3.85446 0
M  V30 32325 N 2994.63 -1.34234 -0.825776 0
M  V30 32326 C 2995.91 -1.17014 -1.56739 0
M  V30 32327 C 2996.29 0.258388 -2.09513 0
M  V30 32328 O 2995.64 1.25931 -1.90666 0
M  V30 32329 C 2995.85 -2.2223 -2.691 0
M  V30 32330 C 2997.19 -2.57061 -3.37942 0
M  V30 32331 O 2998.22 -2.20997 -2.79354 0
M  V30 32332 O 2997.08 -3.18998 -4.43737 0
M  V30 32333 H 2994.17 -0.453418 -0.691622 0
M  V30 32334 H 2996.72 -1.45857 -0.867396 0
M  V30 32335 H 2995.49 -3.18128 -2.27838 0
M  V30 32336 H 2995.11 -1.94547 -3.46752 0
M  V30 32337 N 2996.11 1.04563 -1.17917 0
M  V30 32338 C 2997.06 2.14568 -0.897957 0
M  V30 32339 C 2998.05 1.68822 0.139853 0
M  V30 32340 O 2999.26 1.79998 -0.00782627 0
M  V30 32341 H 2995.63 0.700743 -0.27288 0
M  V30 32342 H 2997.6 2.35487 -1.83272 0
M  V30 32343 C 2996.35 3.44972 -0.434694 0
M  V30 32344 H 2995.67 3.80578 -1.22476 0
M  V30 32345 H 2997.11 4.23095 -0.276878 0
M  V30 32346 C 2995.57 3.26035 0.84868 0
M  V30 32347 O 2996.1 3.53168 1.91404 0
M  V30 32348 N 2994.31 2.79391 0.799324 0
M  V30 32349 H 2993.86 2.57511 -0.0678644 0
M  V30 32350 H 2993.81 2.67101 1.65845 0
M  V30 32351 N 2997.59 0.980408 1.23393 0
M  V30 32352 C 2999 0.68627 1.7363 0
M  V30 32353 C 2999.35 -0.79751 1.7926 0
M  V30 32354 O 2998.47 -1.62376 1.43049 0
M  V30 32355 C 2999.07 1.23905 3.1533 0
M  V30 32356 C 2997.63 0.994557 3.63023 0
M  V30 32357 C 2996.77 1.36677 2.41277 0
M  V30 32358 H 2999.73 1.15425 1.08916 0
M  V30 32359 H 2999.75 0.61148 3.75554 0
M  V30 32360 H 2999.26 2.31897 3.112 0
M  V30 32361 H 2997.36 -0.0692837 3.72536 0
M  V30 32362 H 2997.47 1.64914 4.49822 0
M  V30 32363 H 2995.84 0.785237 2.42293 0
M  V30 32364 H 2996.62 2.45647 2.39818 0
M  V30 32365 N 2999.06 -1.38498 0.75206 0
M  V30 32366 C 3000.31 -2.00448 0.307994 0
M  V30 32367 C 3000.64 -1.5956 -1.10699 0
M  V30 32368 O 2999.92 -0.832422 -1.75787 0
M  V30 32369 C 3000.2 -3.57534 0.429155 0
M  V30 32370 C 3000.05 -4.0839 1.88514 0
M  V30 32371 C 3001.37 -4.39738 -0.178365 0
M  V30 32372 H 2998.49 -0.728226 0.113385 0
M  V30 32373 H 3001.13 -1.64463 0.951418 0
M  V30 32374 H 2999.28 -3.88319 -0.118627 0
M  V30 32375 H 3000.96 -3.88254 2.49111 0
M  V30 32376 H 2999.2 -3.61314 2.40072 0
M  V30 32377 H 2999.87 -5.17492 1.92108 0
M  V30 32378 H 3002.35 -4.15097 0.288793 0
M  V30 32379 H 3001.22 -5.48863 -0.0633384 0
M  V30 32380 H 3001.48 -4.23571 -1.26648 0
M  V30 32381 N 3000.54 -0.501015 -1.49424 0
M  V30 32382 C 3001.79 0.0435643 -2.02753 0
M  V30 32383 C 3002.12 1.36644 -1.37993 0
M  V30 32384 O 3001.4 1.87541 -0.51563 0
M  V30 32385 C 3001.68 0.196097 -3.59566 0
M  V30 32386 C 3001.53 -1.1499 -4.34853 0
M  V30 32387 C 3002.85 0.936719 -4.30016 0
M  V30 32388 H 2999.97 0.0143581 -0.73686 0
M  V30 32389 H 3002.61 -0.652428 -1.78447 0
M  V30 32390 H 3000.76 0.788892 -3.80406 0
M  V30 32391 H 3002.43 -1.78158 -4.25509 0
M  V30 32392 H 3000.68 -1.73918 -3.97411 0
M  V30 32393 H 3001.35 -0.99648 -5.42931 0
M  V30 32394 H 3003.82 0.433964 -4.13831 0
M  V30 32395 H 3002.7 1.01229 -5.39485 0
M  V30 32396 H 3002.96 1.98043 -3.95261 0
M  V30 32397 N 3002.02 1.5584 -0.234849 0
M  V30 32398 C 3003.27 1.97821 0.39365 0
M  V30 32399 C 3003.58 1.12592 1.59945 0
M  V30 32400 O 3004.79 1.44532 2.29832 0
M  V30 32401 C 3003.25 3.51961 0.751749 0
M  V30 32402 C 3002.85 4.45913 -0.431976 0
M  V30 32403 C 3004.6 4.02625 1.34511 0
M  V30 32404 C 3002.5 5.91378 -0.0507016 0
M  V30 32405 H 3001.43 0.738756 0.150851 0
M  V30 32406 H 3004.09 1.8045 -0.333164 0
M  V30 32407 H 3002.47 3.64982 1.53636 0
M  V30 32408 H 3003.64 4.44645 -1.20943 0
M  V30 32409 H 3001.96 4.05664 -0.939457 0
M  V30 32410 H 3004.55 5.08815 1.6435 0
M  V30 32411 H 3004.9 3.49259 2.26547 0
M  V30 32412 H 3005.43 3.92881 0.62366 0
M  V30 32413 H 3002.17 6.48756 -0.937893 0
M  V30 32414 H 3001.69 5.95809 0.690793 0
M  V30 32415 H 3003.37 6.45933 0.371347 0
M  V30 32416 N 3003.5 -0.038404 1.57553 0
M  V30 32417 C 3004.72 -0.746838 1.93487 0
M  V30 32418 C 3005.15 -1.68595 0.834099 0
M  V30 32419 O 3004.51 -1.8007 -0.21087 0
M  V30 32420 C 3004.56 -1.48805 3.28465 0
M  V30 32421 O 3003.66 -2.60074 3.20055 0
M  V30 32422 H 3003 -0.201528 0.632679 0
M  V30 32423 H 3005.53 0.00333411 2.046 0
M  V30 32424 H 3005.54 -1.86003 3.63135 0
M  V30 32425 H 3004.22 -0.799225 4.08149 0
M  V30 32426 H 3002.79 -2.25487 2.97002 0
M  V30 32427 N 3004.98 -1.54511 -0.310498 0
M  V30 32428 C 3005.92 -1.84804 -1.38261 0
M  V30 32429 C 3006.89 -0.696168 -1.50807 0
M  V30 32430 O 3008.08 -0.943875 -1.65818 0
M  V30 32431 C 3005.22 -2.09257 -2.74419 0
M  V30 32432 C 3004.33 -3.3691 -2.70399 0
M  V30 32433 C 3003.47 -3.51255 -3.98489 0
M  V30 32434 C 3002.51 -4.72736 -3.88828 0
M  V30 32435 N 3001.64 -4.83937 -5.08674 0
M  V30 32436 H 3006.48 -2.76263 -1.11727 0
M  V30 32437 H 3004.02 -1.36807 -0.540585 0
M  V30 32438 H 3005.98 -2.21428 -3.5359 0
M  V30 32439 H 3004.61 -1.21076 -2.99233 0
M  V30 32440 H 3003.66 -3.33409 -1.83146 0
M  V30 32441 H 3004.97 -4.26197 -2.59147 0
M  V30 32442 H 3004.13 -3.63039 -4.86094 0
M  V30 32443 H 3002.87 -2.60084 -4.12562 0
M  V30 32444 H 3001.87 -4.60995 -2.99606 0
M  V30 32445 H 3003.1 -5.65305 -3.76308 0
M  V30 32446 H 3001.04 -3.95686 -5.23229 0
M  V30 32447 H 3000.96 -5.6721 -4.99809 0
M  V30 32448 H 3002.23 -5.00067 -5.97957 0
M  V30 32449 N 3006.46 0.573222 -1.46806 0
M  V30 32450 C 3007.7 1.33107 -1.52606 0
M  V30 32451 C 3008.03 1.9365 -0.181667 0
M  V30 32452 O 3007.29 1.77519 0.823744 0
M  V30 32453 C 3007.58 2.47321 -2.58006 0
M  V30 32454 C 3007.25 2.04712 -4.01751 0
M  V30 32455 C 3005.91 1.92807 -4.40884 0
M  V30 32456 C 3008.26 1.71973 -4.92011 0
M  V30 32457 C 3005.59 1.46435 -5.68132 0
M  V30 32458 C 3007.94 1.27078 -6.19705 0
M  V30 32459 C 3006.61 1.13757 -6.57735 0
M  V30 32460 H 3005.88 0.487075 -0.558426 0
M  V30 32461 H 3008.53 0.644506 -1.80329 0
M  V30 32462 H 3006.83 3.21466 -2.2398 0
M  V30 32463 H 3008.53 3.05526 -2.59721 0
M  V30 32464 H 3005.12 2.14915 -3.70822 0
M  V30 32465 H 3009.3 1.80052 -4.62488 0
M  V30 32466 H 3004.56 1.34772 -5.96361 0
M  V30 32467 H 3008.73 1.00802 -6.89066 0
M  V30 32468 H 3006.36 0.77601 -7.56229 0
M  V30 32469 N 3007.93 1.3467 0.818645 0
M  V30 32470 C 3009.18 1.26607 1.57014 0
M  V30 32471 C 3009.5 -0.161002 1.94936 0
M  V30 32472 O 3010.7 -0.363812 2.69051 0
M  V30 32473 C 3009.16 2.21965 2.83301 0
M  V30 32474 C 3008.77 3.69952 2.52664 0
M  V30 32475 C 3010.51 2.22819 3.6132 0
M  V30 32476 C 3008.42 4.57167 3.7517 0
M  V30 32477 H 3007.35 0.470345 0.589315 0
M  V30 32478 H 3010 1.59861 0.900928 0
M  V30 32479 H 3008.38 1.81667 3.51871 0
M  V30 32480 H 3009.55 4.18813 1.92178 0
M  V30 32481 H 3007.87 3.71588 1.87914 0
M  V30 32482 H 3010.47 2.852 4.52289 0
M  V30 32483 H 3010.81 1.22864 3.97756 0
M  V30 32484 H 3011.34 2.61583 2.99698 0
M  V30 32485 H 3008.08 5.58074 3.43851 0
M  V30 32486 H 3007.6 4.13039 4.34924 0
M  V30 32487 H 3009.28 4.71988 4.42534 0
M  V30 32488 N 3009.41 -1.03936 1.1847 0
M  V30 32489 C 3010.32 -2.15468 0.927927 0
M  V30 32490 C 3011.34 -1.73662 -0.108417 0
M  V30 32491 O 3012.51 -2.01265 0.073799 0
M  V30 32492 C 3009.58 -3.43654 0.458554 0
M  V30 32493 C 3008.64 -3.99835 1.56302 0
M  V30 32494 C 3007.87 -5.21903 1.11595 0
M  V30 32495 O 3008.1 -5.70395 -0.0248054 0
M  V30 32496 O 3007.03 -5.7065 1.91422 0
M  V30 32497 H 3010.86 -2.39986 1.8612 0
M  V30 32498 H 3008.44 -1.13915 0.966627 0
M  V30 32499 H 3010.32 -4.20901 0.204935 0
M  V30 32500 H 3009 -3.20607 -0.446408 0
M  V30 32501 H 3007.9 -3.2397 1.87067 0
M  V30 32502 H 3009.24 -4.27226 2.44415 0
M  V30 32503 N 3010.89 -0.986938 -1.22871 0
M  V30 32504 C 3011.84 -0.525082 -2.26596 0
M  V30 32505 C 3012.83 0.421223 -1.64079 0
M  V30 32506 O 3014.04 0.294398 -1.77576 0
M  V30 32507 H 3010.41 -0.151394 -0.736603 0
M  V30 32508 H 3012.38 -1.41147 -2.62907 0
M  V30 32509 C 3011.13 0.150481 -3.47374 0
M  V30 32510 H 3010.46 -0.56861 -3.95736 0
M  V30 32511 H 3011.9 0.437182 -4.2174 0
M  V30 32512 C 3010.35 1.38387 -3.07166 0
M  V30 32513 O 3010.88 2.47965 -3.16032 0
M  V30 32514 N 3009.09 1.25692 -2.62011 0
M  V30 32515 H 3008.64 0.36531 -2.54997 0
M  V30 32516 H 3008.6 2.08323 -2.35476 0
M  V30 32517 N 3012.37 1.38098 -0.759394 0
M  V30 32518 C 3013.33 2.28749 -0.14376 0
M  V30 32519 C 3014.33 1.47458 0.641312 0
M  V30 32520 O 3015.52 1.67831 0.466721 0
M  V30 32521 C 3012.65 3.31272 0.804486 0
M  V30 32522 H 3013.85 2.84698 -0.942713 0
M  V30 32523 H 3011.4 1.47155 -0.526783 0
M  V30 32524 H 3012.13 2.80423 1.6289 0
M  V30 32525 H 3011.92 3.91341 0.24387 0
M  V30 32526 H 3013.41 3.99043 1.23104 0
M  V30 32527 N 3013.85 0.508932 1.49156 0
M  V30 32528 C 3014.79 -0.265248 2.29271 0
M  V30 32529 C 3015.76 -0.953138 1.36031 0
M  V30 32530 O 3016.95 -0.958262 1.64991 0
M  V30 32531 C 3014.09 -1.31898 3.18899 0
M  V30 32532 C 3013.2 -0.642069 4.27202 0
M  V30 32533 C 3012.34 -1.67693 5.04036 0
M  V30 32534 C 3011.37 -0.982315 6.04166 0
M  V30 32535 N 3010.51 -1.96174 6.74137 0
M  V30 32536 H 3015.35 0.424159 2.94966 0
M  V30 32537 H 3012.89 0.221016 1.4543 0
M  V30 32538 H 3014.85 -1.94199 3.69246 0
M  V30 32539 H 3013.48 -1.97705 2.55172 0
M  V30 32540 H 3012.53 0.0944063 3.80283 0
M  V30 32541 H 3013.84 -0.095663 4.98708 0
M  V30 32542 H 3012.99 -2.37478 5.58291 0
M  V30 32543 H 3011.73 -2.2572 4.32321 0
M  V30 32544 H 3010.74 -0.270282 5.49135 0
M  V30 32545 H 3011.96 -0.408434 6.77871 0
M  V30 32546 H 3009.91 -2.53148 6.05188 0
M  V30 32547 H 3009.83 -1.46621 7.41646 0
M  V30 32548 H 3011.09 -2.65223 7.32992 0
M  V30 32549 N 3015.32 -1.55714 0.243111 0
M  V30 32550 C 3016.23 -2.24863 -0.668873 0
M  V30 32551 C 3017.25 -1.26346 -1.19635 0
M  V30 32552 O 3018.43 -1.59213 -1.23342 0
M  V30 32553 C 3015.49 -2.93167 -1.85079 0
M  V30 32554 C 3014.55 -4.07083 -1.36316 0
M  V30 32555 C 3013.78 -4.7212 -2.48874 0
M  V30 32556 O 3014.01 -4.36221 -3.67516 0
M  V30 32557 O 3012.94 -5.60704 -2.18847 0
M  V30 32558 H 3016.77 -3.03502 -0.109683 0
M  V30 32559 H 3014.35 -1.49395 0.0117674 0
M  V30 32560 H 3016.23 -3.36202 -2.5406 0
M  V30 32561 H 3014.91 -2.1747 -2.39767 0
M  V30 32562 H 3013.82 -3.68572 -0.640739 0
M  V30 32563 H 3015.15 -4.84586 -0.862405 0
M  V30 32564 N 3016.8 0.030048 -1.57571 0
M  V30 32565 C 3018.05 0.720093 -1.88408 0
M  V30 32566 C 3018.36 1.76573 -0.841497 0
M  V30 32567 O 3019.57 2.5083 -1.03906 0
M  V30 32568 C 3018.03 1.33182 -3.34351 0
M  V30 32569 C 3017.63 0.322581 -4.46837 0
M  V30 32570 C 3019.38 2.0018 -3.74337 0
M  V30 32571 C 3017.29 0.9426 -5.8384 0
M  V30 32572 H 3016.22 0.272705 -0.702957 0
M  V30 32573 H 3018.87 -0.0255659 -1.83482 0
M  V30 32574 H 3017.25 2.12716 -3.34018 0
M  V30 32575 H 3018.42 -0.445967 -4.58637 0
M  V30 32576 H 3016.74 -0.245254 -4.15677 0
M  V30 32577 H 3019.33 2.47419 -4.74012 0
M  V30 32578 H 3019.68 2.81954 -3.0628 0
M  V30 32579 H 3020.21 1.27423 -3.7684 0
M  V30 32580 H 3016.95 0.164298 -6.55294 0
M  V30 32581 H 3016.47 1.68101 -5.75762 0
M  V30 32582 H 3018.15 1.45023 -6.30537 0
M  V30 32583 N 3018.28 1.54674 0.3023 0
M  V30 32584 C 3019.19 1.8859 1.39539 0
M  V30 32585 C 3020.21 0.779922 1.55542 0
M  V30 32586 O 3021.38 1.07626 1.70231 0
M  V30 32587 C 3018.45 2.12509 2.73936 0
M  V30 32588 C 3017.51 3.36225 2.66929 0
M  V30 32589 C 3016.74 3.58994 3.94917 0
M  V30 32590 O 3016.96 2.84798 4.94213 0
M  V30 32591 O 3015.9 4.52508 3.96889 0
M  V30 32592 H 3019.72 2.81581 1.13779 0
M  V30 32593 H 3017.31 1.40847 0.498245 0
M  V30 32594 H 3019.19 2.2945 3.53456 0
M  V30 32595 H 3017.87 1.22703 2.99542 0
M  V30 32596 H 3016.77 3.24649 1.85886 0
M  V30 32597 H 3018.11 4.26156 2.46276 0
M  V30 32598 N 3019.76 -0.565428 1.47108 0
M  V30 32599 C 3021.01 -1.31926 1.52572 0
M  V30 32600 C 3021.32 -1.94684 0.189127 0
M  V30 32601 O 3022.53 -2.71227 0.121705 0
M  V30 32602 C 3020.98 -2.39189 2.68918 0
M  V30 32603 C 3020.59 -1.82658 4.09072 0
M  V30 32604 C 3022.33 -3.15805 2.83668 0
M  V30 32605 C 3020.24 -2.87652 5.16731 0
M  V30 32606 H 3019.17 -0.496015 0.567877 0
M  V30 32607 H 3021.82 -0.601479 1.73362 0
M  V30 32608 H 3020.2 -3.13844 2.41491 0
M  V30 32609 H 3021.38 -1.1443 4.46366 0
M  V30 32610 H 3019.69 -1.18653 3.99137 0
M  V30 32611 H 3022.29 -3.94194 3.61268 0
M  V30 32612 H 3022.63 -3.69478 1.91811 0
M  V30 32613 H 3023.17 -2.48259 3.10825 0
M  V30 32614 H 3019.91 -2.38843 6.10438 0
M  V30 32615 H 3019.43 -3.54316 4.83963 0
M  V30 32616 H 3021.1 -3.51293 5.43325 0
M  V30 32617 N 3021.24 -1.35102 -0.811492 0
M  V30 32618 C 3022.51 -1.1867 -1.55489 0
M  V30 32619 C 3022.89 0.236152 -2.09775 0
M  V30 32620 O 3022.24 1.23902 -1.91991 0
M  V30 32621 C 3022.45 -2.25072 -2.66728 0
M  V30 32622 C 3023.8 -2.60631 -3.35197 0
M  V30 32623 O 3024.82 -2.23948 -2.76994 0
M  V30 32624 O 3023.68 -3.23687 -4.40329 0
M  V30 32625 H 3020.78 -0.460728 -0.686774 0
M  V30 32626 H 3023.32 -1.46769 -0.851877 0
M  V30 32627 H 3022.09 -3.20527 -2.24451 0
M  V30 32628 H 3021.72 -1.98214 -3.44669 0
M  V30 32629 N 3022.71 1.03306 -1.19019 0
M  V30 32630 C 3023.95 1.78194 -1.00132 0
M  V30 32631 C 3024.32 1.86403 0.460203 0
M  V30 32632 O 3025.52 2.57572 0.768757 0
M  V30 32633 C 3023.79 3.17184 -1.64708 0
M  V30 32634 S 3025.35 4.08314 -1.60702 0
M  V30 32635 H 3022.17 0.613472 -0.359406 0
M  V30 32636 H 3024.77 1.23815 -1.51295 0
M  V30 32637 H 3023.47 3.08824 -2.70289 0
M  V30 32638 H 3023 3.76639 -1.13607 0
M  V30 32639 H 3025.02 4.92207 -0.628257 0
M  V30 32640 N 3024.19 0.99344 1.22346 0
M  V30 32641 C 3025.44 0.670594 1.91392 0
M  V30 32642 C 3025.77 -0.795397 1.77164 0
M  V30 32643 O 3025.05 -1.57526 1.14086 0
M  V30 32644 C 3025.33 1.07796 3.43587 0
M  V30 32645 C 3025.18 2.60254 3.66862 0
M  V30 32646 C 3026.5 0.631603 4.35544 0
M  V30 32647 H 3023.62 0.245093 0.695053 0
M  V30 32648 H 3026.26 1.23706 1.44211 0
M  V30 32649 H 3024.41 0.595969 3.83902 0
M  V30 32650 H 3026.08 3.16127 3.35948 0
M  V30 32651 H 3024.33 3.02298 3.11124 0
M  V30 32652 H 3025 2.83808 4.73452 0
M  V30 32653 H 3027.47 1.04561 4.02748 0
M  V30 32654 H 3026.35 0.944926 5.40705 0
M  V30 32655 H 3026.61 -0.467701 4.39619 0
M  V30 32656 N 3025.67 -1.37693 0.766707 0
M  V30 32657 C 3026.9 -2.04615 0.338751 0
M  V30 32658 C 3027.32 -1.57449 -1.02915 0
M  V30 32659 O 3026.68 -0.732416 -1.65847 0
M  V30 32660 C 3026.73 -3.58535 0.385347 0
M  V30 32661 O 3025.83 -4.07773 -0.616009 0
M  V30 32662 H 3025.17 -0.647401 0.147539 0
M  V30 32663 H 3027.7 -1.76108 1.04149 0
M  V30 32664 H 3027.71 -4.07288 0.240854 0
M  V30 32665 H 3026.39 -3.92221 1.38331 0
M  V30 32666 H 3024.96 -3.70354 -0.43505 0
M  V30 32667 N 3027.15 -0.516835 -1.48884 0
M  V30 32668 C 3028.1 0.253085 -2.29408 0
M  V30 32669 C 3029.07 0.945911 -1.36535 0
M  V30 32670 O 3030.25 0.949498 -1.65497 0
M  V30 32671 C 3027.39 1.30205 -3.19594 0
M  V30 32672 C 3026.5 0.619404 -4.27536 0
M  V30 32673 C 3025.64 1.65017 -5.04919 0
M  V30 32674 C 3024.68 0.950261 -6.04679 0
M  V30 32675 N 3023.81 1.92596 -6.75168 0
M  V30 32676 H 3028.65 -0.439796 -2.94737 0
M  V30 32677 H 3026.19 -0.228726 -1.45311 0
M  V30 32678 H 3028.15 1.92238 -3.7027 0
M  V30 32679 H 3026.78 1.96349 -2.56217 0
M  V30 32680 H 3025.83 -0.114572 -3.80227 0
M  V30 32681 H 3027.14 0.069214 -4.98752 0
M  V30 32682 H 3026.3 2.34514 -5.59543 0
M  V30 32683 H 3025.04 2.23424 -4.33512 0
M  V30 32684 H 3024.04 0.241156 -5.49271 0
M  V30 32685 H 3025.27 0.37248 -6.78078 0
M  V30 32686 H 3023.21 2.49935 -6.06521 0
M  V30 32687 H 3023.13 1.42686 -7.42413 0
M  V30 32688 H 3024.4 2.61332 -7.34388 0
M  V30 32689 N 3028.63 1.55583 -0.251365 0
M  V30 32690 C 3029.57 2.22966 0.662495 0
M  V30 32691 C 3030.57 1.21871 1.1766 0
M  V30 32692 O 3031.77 1.3987 1.13298 0
M  V30 32693 H 3028.15 0.715273 0.232138 0
M  V30 32694 H 3030.12 2.98315 0.0710728 0
M  V30 32695 C 3028.87 2.94624 1.8464 0
M  V30 32696 H 3028.19 3.72189 1.45997 0
M  V30 32697 H 3029.63 3.45129 2.46297 0
M  V30 32698 C 3028.09 1.98748 2.72031 0
M  V30 32699 O 3028.62 1.52341 3.71692 0
M  V30 32700 N 3026.83 1.65754 2.38692 0
M  V30 32701 H 3026.37 2.03688 1.57699 0
M  V30 32702 H 3026.33 1.01872 2.97438 0
M  V30 32703 N 3030.1 -0.0216912 1.57585 0
M  V30 32704 C 3031.35 -0.709608 1.89233 0
M  V30 32705 C 3031.67 -1.755 0.849995 0
M  V30 32706 O 3030.94 -1.9556 -0.115451 0
M  V30 32707 H 3029.52 -0.26508 0.698385 0
M  V30 32708 H 3032.19 0.0141031 1.94895 0
M  V30 32709 H 3031.28 -1.19454 2.88335 0
M  V30 32710 N 3031.58 -1.54832 -0.294093 0
M  V30 32711 C 3032.53 -1.8626 -1.36293 0
M  V30 32712 C 3033.5 -0.712124 -1.5006 0
M  V30 32713 O 3034.69 -0.96141 -1.64808 0
M  V30 32714 C 3031.83 -2.12156 -2.72184 0
M  V30 32715 C 3030.94 -3.39759 -2.6681 0
M  V30 32716 C 3030.07 -3.55462 -3.94741 0
M  V30 32717 C 3029.11 -4.76833 -3.83792 0
M  V30 32718 N 3028.25 -4.89305 -5.03513 0
M  V30 32719 H 3033.09 -2.77432 -1.08791 0
M  V30 32720 H 3030.63 -1.37372 -0.526045 0
M  V30 32721 H 3032.58 -2.25166 -3.51221 0
M  V30 32722 H 3031.21 -1.24243 -2.97932 0
M  V30 32723 H 3030.27 -3.35333 -1.79599 0
M  V30 32724 H 3031.58 -4.28922 -2.54612 0
M  V30 32725 H 3030.73 -3.68175 -4.82216 0
M  V30 32726 H 3029.47 -2.64446 -4.0978 0
M  V30 32727 H 3028.48 -4.64146 -2.947 0
M  V30 32728 H 3029.7 -5.69264 -3.70291 0
M  V30 32729 H 3027.65 -4.01213 -5.19003 0
M  V30 32730 H 3027.56 -5.72479 -4.93765 0
M  V30 32731 H 3028.83 -5.06381 -5.9262 0
M  V30 32732 N 3033.06 0.557619 -1.47405 0
M  V30 32733 C 3034.31 1.31115 -1.5327 0
M  V30 32734 C 3034.62 1.9458 -0.199449 0
M  V30 32735 O 3035.83 2.71159 -0.136087 0
M  V30 32736 C 3034.29 2.37759 -2.70183 0
M  V30 32737 C 3033.89 1.80486 -4.10035 0
M  V30 32738 C 3035.64 3.14296 -2.85339 0
M  V30 32739 C 3033.54 2.84907 -5.18249 0
M  V30 32740 H 3032.47 0.492997 -0.5705 0
M  V30 32741 H 3035.13 0.592277 -1.73679 0
M  V30 32742 H 3033.51 3.12559 -2.43152 0
M  V30 32743 H 3034.68 1.12061 -4.46966 0
M  V30 32744 H 3033 1.16535 -3.99761 0
M  V30 32745 H 3035.59 3.92273 -3.63354 0
M  V30 32746 H 3035.94 3.68456 -1.93768 0
M  V30 32747 H 3036.47 2.46607 -3.12137 0
M  V30 32748 H 3033.21 2.35603 -6.11696 0
M  V30 32749 H 3032.73 3.51744 -4.85836 0
M  V30 32750 H 3034.41 3.48407 -5.4518 0
M  V30 32751 N 3034.54 1.35531 0.804316 0
M  V30 32752 C 3035.79 1.28265 1.55663 0
M  V30 32753 C 3036.1 -0.140317 1.95096 0
M  V30 32754 O 3037.31 -0.335255 2.69422 0
M  V30 32755 C 3035.76 2.24957 2.80931 0
M  V30 32756 C 3035.37 3.72611 2.48726 0
M  V30 32757 C 3037.12 2.26639 3.58936 0
M  V30 32758 C 3035.02 4.6112 3.703 0
M  V30 32759 H 3033.95 0.476569 0.584293 0
M  V30 32760 H 3036.6 1.60808 0.883922 0
M  V30 32761 H 3034.99 1.85389 3.49924 0
M  V30 32762 H 3036.16 4.20827 1.87726 0
M  V30 32763 H 3034.47 3.7356 1.83962 0
M  V30 32764 H 3037.07 2.89981 4.49238 0
M  V30 32765 H 3037.41 1.27076 3.96431 0
M  V30 32766 H 3037.95 2.64747 2.96907 0
M  V30 32767 H 3034.69 5.6169 3.37912 0
M  V30 32768 H 3034.21 4.17629 4.30519 0
M  V30 32769 H 3035.89 4.76655 4.37503 0
M  V30 32770 N 3036.02 -1.02674 1.19565 0
M  V30 32771 C 3036.97 -2.13112 0.931979 0
M  V30 32772 C 3037.96 -1.69023 -0.112977 0
M  V30 32773 O 3039.17 -1.79963 0.0364614 0
M  V30 32774 H 3035.54 -0.696313 0.283993 0
M  V30 32775 H 3037.51 -2.32541 1.86995 0
M  V30 32776 C 3036.26 -3.44237 0.489521 0
M  V30 32777 H 3035.58 -3.78582 1.28515 0
M  V30 32778 H 3037.02 -4.22601 0.344154 0
M  V30 32779 C 3035.48 -3.27344 -0.796704 0
M  V30 32780 O 3036.01 -3.56168 -1.85761 0
M  V30 32781 N 3034.22 -2.80627 -0.754774 0
M  V30 32782 H 3033.77 -2.5737 0.108824 0
M  V30 32783 H 3033.72 -2.69705 -1.61575 0
M  V30 32784 N 3037.5 -0.999914 -1.21817 0
M  V30 32785 C 3038.73 -0.697381 -1.94474 0
M  V30 32786 C 3039.13 0.743198 -1.73992 0
M  V30 32787 O 3038.48 1.51395 -1.04045 0
M  V30 32788 C 3038.54 -0.932242 -3.47202 0
M  V30 32789 C 3038.2 -2.35867 -3.91428 0
M  V30 32790 C 3039.2 -3.3386 -3.9854 0
M  V30 32791 C 3036.88 -2.69497 -4.23883 0
M  V30 32792 C 3038.88 -4.63552 -4.37491 0
M  V30 32793 C 3036.57 -3.99407 -4.62512 0
M  V30 32794 C 3037.56 -4.96246 -4.69285 0
M  V30 32795 O 3037.25 -6.23834 -5.07037 0
M  V30 32796 H 3036.98 -0.256578 -0.625415 0
M  V30 32797 H 3039.54 -1.33936 -1.55725 0
M  V30 32798 H 3037.77 -0.233093 -3.85997 0
M  V30 32799 H 3039.46 -0.623878 -4.01077 0
M  V30 32800 H 3040.22 -3.09212 -3.73648 0
M  V30 32801 H 3036.1 -1.94819 -4.17811 0
M  V30 32802 H 3039.65 -5.39138 -4.42692 0
M  V30 32803 H 3035.54 -4.23841 -4.86856 0
M  V30 32804 H 3036.31 -6.27874 -5.25087 0
M  V30 32805 N 3038.97 1.37284 -0.773999 0
M  V30 32806 C 3039.94 2.28583 -0.168014 0
M  V30 32807 C 3040.94 1.4813 0.625636 0
M  V30 32808 O 3042.13 1.68317 0.448894 0
M  V30 32809 C 3039.26 3.32106 0.769305 0
M  V30 32810 H 3040.45 2.83682 -0.972856 0
M  V30 32811 H 3038 1.46588 -0.542361 0
M  V30 32812 H 3038.74 2.82135 1.59907 0
M  V30 32813 H 3038.52 3.91578 0.20235 0
M  V30 32814 H 3040.01 4.00326 1.18865 0
M  V30 32815 N 3040.45 0.524724 1.48608 0
M  V30 32816 C 3041.7 -0.0132582 2.01696 0
M  V30 32817 C 3042.01 -1.35823 1.40753 0
M  V30 32818 O 3043.22 -1.98427 1.85308 0
M  V30 32819 C 3041.68 -0.074038 3.59824 0
M  V30 32820 C 3041.28 1.26572 4.29748 0
M  V30 32821 C 3043.03 -0.561126 4.20775 0
M  V30 32822 C 3040.93 1.16581 5.79796 0
M  V30 32823 H 3039.86 -0.00872605 0.75395 0
M  V30 32824 H 3042.52 0.667714 1.70921 0
M  V30 32825 H 3040.9 -0.819975 3.87418 0
M  V30 32826 H 3042.07 2.02681 4.13832 0
M  V30 32827 H 3040.39 1.68813 3.80646 0
M  V30 32828 H 3042.98 -0.653759 5.30688 0
M  V30 32829 H 3043.33 -1.56566 3.85736 0
M  V30 32830 H 3043.86 0.128971 3.97591 0
M  V30 32831 H 3040.6 2.14534 6.19399 0
M  V30 32832 H 3040.12 0.445999 5.9814 0
M  V30 32833 H 3041.8 0.854299 6.41335 0
M  V30 32834 N 3041.93 -1.55447 0.259613 0
M  V30 32835 C 3043.15 -2.04104 -0.368281 0
M  V30 32836 C 3043.58 -1.13728 -1.49825 0
M  V30 32837 O 3042.94 -0.132737 -1.80813 0
M  V30 32838 C 3042.99 -3.50645 -0.841445 0
M  V30 32839 O 3042.09 -3.63384 -1.95001 0
M  V30 32840 H 3041.43 -0.659342 -0.0785112 0
M  V30 32841 H 3043.96 -2.00861 0.389385 0
M  V30 32842 H 3043.97 -3.91712 -1.14131 0
M  V30 32843 H 3042.65 -4.15897 -0.014627 0
M  V30 32844 H 3041.22 -3.34218 -1.65387 0
M  V30 32845 N 3043.41 0.0133338 -1.57594 0
M  V30 32846 C 3044.32 1.02562 -2.10993 0
M  V30 32847 C 3045.33 1.38589 -1.0521 0
M  V30 32848 O 3046.51 1.4759 -1.37037 0
M  V30 32849 C 3043.57 2.30288 -2.59169 0
M  V30 32850 C 3042.64 2.00698 -3.79498 0
M  V30 32851 C 3041.87 3.22334 -4.25367 0
M  V30 32852 O 3042.09 4.33559 -3.70652 0
M  V30 32853 O 3041.03 3.07112 -5.17654 0
M  V30 32854 H 3044.85 0.601753 -2.97679 0
M  V30 32855 H 3042.44 0.231324 -1.47598 0
M  V30 32856 H 3044.32 3.05348 -2.90414 0
M  V30 32857 H 3042.99 2.71939 -1.75587 0
M  V30 32858 H 3041.9 1.23155 -3.53247 0
M  V30 32859 H 3043.23 1.63892 -4.64112 0
M  V30 32860 N 3044.89 1.54985 0.285878 0
M  V30 32861 C 3045.84 1.83366 1.35502 0
M  V30 32862 C 3046.82 0.691724 1.45272 0
M  V30 32863 O 3048.01 0.952751 1.4917 0
M  V30 32864 C 3045.14 2.09775 2.71752 0
M  V30 32865 C 3044.23 3.30194 2.66145 0
M  V30 32866 N 3044.62 4.50403 2.30153 0
M  V30 32867 C 3042.92 3.32525 2.97226 0
M  V30 32868 C 3043.62 5.32463 2.34218 0
M  V30 32869 N 3042.59 4.70552 2.72179 0
M  V30 32870 H 3046.39 2.73861 1.06663 0
M  V30 32871 H 3043.91 1.54688 0.494494 0
M  V30 32872 H 3045.91 2.28259 3.4886 0
M  V30 32873 H 3044.57 1.20556 3.0149 0
M  V30 32874 H 3045.58 4.76734 2.02349 0
M  V30 32875 H 3042.25 2.5346 3.3176 0
M  V30 32876 H 3043.64 6.38547 2.09063 0
M  V30 32877 N 3046.36 -0.549794 1.47699 0
M  V30 32878 C 3047.61 -1.30856 1.54934 0
M  V30 32879 C 3047.94 -1.93017 0.214055 0
M  V30 32880 O 3047.22 -1.78259 -0.778062 0
M  V30 32881 C 3047.5 -2.41304 2.67291 0
M  V30 32882 C 3047.35 -1.83964 4.1046 0
M  V30 32883 C 3048.67 -3.4319 2.75515 0
M  V30 32884 H 3045.79 -0.474421 0.563998 0
M  V30 32885 H 3048.43 -0.61451 1.79788 0
M  V30 32886 H 3046.58 -3.00505 2.46229 0
M  V30 32887 H 3048.26 -1.28966 4.42906 0
M  V30 32888 H 3046.5 -1.14599 4.18389 0
M  V30 32889 H 3047.17 -2.63842 4.84862 0
M  V30 32890 H 3049.65 -2.93918 2.94536 0
M  V30 32891 H 3048.52 -4.17889 3.55893 0
M  V30 32892 H 3048.78 -4.02506 1.8287 0
M  V30 32893 N 3047.84 -1.35955 -0.797117 0
M  V30 32894 C 3048.75 -1.31788 -1.94086 0
M  V30 32895 C 3049.77 -0.221258 -1.72588 0
M  V30 32896 O 3050.94 -0.45229 -1.96256 0
M  V30 32897 C 3048.01 -1.09884 -3.28826 0
M  V30 32898 C 3047.07 -2.28949 -3.63154 0
M  V30 32899 C 3046.3 -2.08081 -4.91465 0
M  V30 32900 O 3046.53 -1.05206 -5.60614 0
M  V30 32901 O 3045.46 -2.95673 -5.24272 0
M  V30 32902 H 3049.29 -2.28065 -2.0055 0
M  V30 32903 H 3046.87 -1.16423 -0.936267 0
M  V30 32904 H 3048.75 -0.995557 -4.09471 0
M  V30 32905 H 3047.43 -0.166647 -3.23271 0
M  V30 32906 H 3046.34 -2.44844 -2.82847 0
M  V30 32907 H 3047.67 -3.20648 -3.73425 0
M  V30 32908 N 3049.32 1.02038 -1.20108 0
M  V30 32909 C 3050.27 2.12615 -0.943268 0
M  V30 32910 C 3051.26 1.6908 0.104012 0
M  V30 32911 O 3052.47 1.79941 -0.0460048 0
M  V30 32912 H 3048.84 0.694797 -0.287682 0
M  V30 32913 H 3050.81 2.31546 -1.88225 0
M  V30 32914 C 3049.56 3.43972 -0.50777 0
M  V30 32915 H 3048.89 3.77895 -1.30521 0
M  V30 32916 H 3050.33 4.22413 -0.366561 0
M  V30 32917 C 3048.79 3.27762 0.779333 0
M  V30 32918 O 3049.32 3.57148 1.8387 0
M  V30 32919 N 3047.52 2.81023 0.739881 0
M  V30 32920 H 3047.07 2.57309 -0.122471 0
M  V30 32921 H 3047.03 2.70558 1.60142 0
M  V30 32922 N 3050.8 1.00636 1.21285 0
M  V30 32923 C 3051.76 0.57286 2.21926 0
M  V30 32924 C 3052.76 -0.351514 1.56911 0
M  V30 32925 O 3053.95 -0.141612 1.73623 0
M  V30 32926 C 3051.08 -0.164872 3.40501 0
M  V30 32927 H 3052.28 1.46304 2.61792 0
M  V30 32928 H 3049.83 0.795022 1.3457 0
M  V30 32929 H 3050.56 -1.07043 3.06125 0
M  V30 32930 H 3050.35 0.49903 3.88911 0
M  V30 32931 H 3051.84 -0.455872 4.15104 0
M  V30 32932 N 3052.28 -1.36872 0.781268 0
M  V30 32933 C 3053.52 -1.9906 0.349233 0
M  V30 32934 C 3053.85 -1.62323 -1.08057 0
M  V30 32935 O 3053.12 -0.89326 -1.74349 0
M  V30 32936 H 3051.7 -0.736273 0.126139 0
M  V30 32937 H 3054.36 -1.672 1.00151 0
M  V30 32938 H 3053.45 -3.09061 0.434506 0
M  V30 32939 N 3053.75 -0.532597 -1.48328 0
M  V30 32940 C 3055 0.000547572 -2.028 0
M  V30 32941 C 3055.33 1.33686 -1.40861 0
M  V30 32942 O 3054.61 1.86405 -0.555294 0
M  V30 32943 C 3054.89 0.119783 -3.59901 0
M  V30 32944 C 3054.74 -1.24188 -4.32316 0
M  V30 32945 C 3056.06 0.845296 -4.31906 0
M  V30 32946 H 3053.18 -0.00127501 -0.736999 0
M  V30 32947 H 3055.82 -0.690133 -1.77023 0
M  V30 32948 H 3053.97 0.708025 -3.81994 0
M  V30 32949 H 3055.65 -1.87143 -4.21634 0
M  V30 32950 H 3053.89 -1.82308 -3.93632 0
M  V30 32951 H 3054.56 -1.11142 -5.40695 0
M  V30 32952 H 3057.04 0.346086 -4.14658 0
M  V30 32953 H 3055.91 0.897628 -5.41511 0
M  V30 32954 H 3056.17 1.89615 -3.99373 0
M  V30 32955 N 3055.23 1.55307 -0.267853 0
M  V30 32956 C 3056.18 2.18917 0.637129 0
M  V30 32957 C 3057.17 1.15151 1.12379 0
M  V30 32958 O 3058.36 1.40991 1.07007 0
M  V30 32959 C 3055.49 2.90824 1.82418 0
M  V30 32960 C 3054.57 4.0187 1.35505 0
M  V30 32961 N 3054.96 5.0221 0.601556 0
M  V30 32962 C 3053.26 4.14808 1.63861 0
M  V30 32963 C 3053.96 5.8061 0.355858 0
M  V30 32964 N 3052.94 5.35652 0.926177 0
M  V30 32965 H 3056.74 2.93851 0.053527 0
M  V30 32966 H 3054.26 1.62244 -0.0710863 0
M  V30 32967 H 3056.25 3.34838 2.48373 0
M  V30 32968 H 3054.91 2.17398 2.41181 0
M  V30 32969 H 3055.92 5.17298 0.249602 0
M  V30 32970 H 3052.6 3.52568 2.23611 0
M  V30 32971 H 3053.99 6.71445 -0.247112 0
M  V30 32972 N 3056.71 -0.00497598 1.57599 0
M  V30 32973 C 3057.94 -0.705629 1.95027 0
M  V30 32974 C 3058.36 -1.66788 0.869673 0
M  V30 32975 O 3057.72 -1.80476 -0.172628 0
M  V30 32976 C 3057.77 -1.41804 3.31548 0
M  V30 32977 O 3056.87 -2.53226 3.255 0
M  V30 32978 H 3056.21 -0.188063 0.636811 0
M  V30 32979 H 3058.74 0.046732 2.04547 0
M  V30 32980 H 3058.75 -1.78258 3.66999 0
M  V30 32981 H 3057.43 -0.712471 4.09752 0
M  V30 32982 H 3056 -2.19136 3.01718 0
M  V30 32983 N 3058.19 -1.55135 -0.277654 0
M  V30 32984 C 3059.44 -1.75175 -1.00788 0
M  V30 32985 C 3059.76 -0.553299 -1.86986 0
M  V30 32986 O 3059.03 0.431917 -1.91079 0
M  V30 32987 H 3057.61 -0.645984 -0.375118 0
M  V30 32988 H 3060.27 -1.9253 -0.303007 0
M  V30 32989 H 3059.37 -2.65073 -1.64751 0
M  V30 32990 N 3059.67 0.541953 -1.47989 0
M  V30 32991 C 3060.94 1.303 -1.45881 0
M  V30 32992 C 3061.32 2.10462 -0.163968 0
M  V30 32993 O 3060.67 2.11923 0.854442 0
M  V30 32994 C 3060.88 2.19461 -2.71363 0
M  V30 32995 C 3062.23 2.79989 -3.19204 0
M  V30 32996 O 3063.25 2.29755 -2.72197 0
M  V30 32997 O 3062.11 3.71332 -4.00967 0
M  V30 32998 H 3059.21 0.587488 -0.582054 0
M  V30 32999 H 3061.75 0.559595 -1.60208 0
M  V30 33000 H 3060.52 1.5993 -3.57125 0
M  V30 33001 H 3060.15 3.0107 -2.59697 0
M  V30 33002 N 3061.15 1.36376 0.789896 0
M  V30 33003 C 3062.11 1.30513 1.88412 0
M  V30 33004 C 3063.11 0.212928 1.59384 0
M  V30 33005 O 3064.3 0.467681 1.67805 0
M  V30 33006 C 3061.43 1.02307 3.25186 0
M  V30 33007 H 3062.62 2.27826 1.95027 0
M  V30 33008 H 3060.18 1.21142 0.987643 0
M  V30 33009 H 3060.91 0.0545056 3.24254 0
M  V30 33010 H 3060.7 1.81345 3.47644 0
M  V30 33011 H 3062.19 1.00809 4.0525 0
M  V30 33012 N 3062.62 -1.014 1.20647 0
M  V30 33013 C 3063.85 -1.78633 1.04392 0
M  V30 33014 C 3064.27 -1.84367 -0.406738 0
M  V30 33015 O 3063.62 -1.29853 -1.28236 0
M  V30 33016 C 3063.67 -3.22976 1.62384 0
M  V30 33017 O 3063.4 -3.17592 3.01773 0
M  V30 33018 C 3064.9 -4.16748 1.51117 0
M  V30 33019 H 3062.12 -0.561684 0.367086 0
M  V30 33020 H 3064.66 -1.27621 1.59791 0
M  V30 33021 H 3062.82 -3.71128 1.11099 0
M  V30 33022 H 3063.23 -4.08211 3.29339 0
M  V30 33023 H 3064.7 -5.1586 1.9645 0
M  V30 33024 H 3065.18 -4.36741 0.464088 0
M  V30 33025 H 3065.79 -3.7448 2.01606 0
M  V30 33026 N 3064.1 -1.01278 -1.2075 0
M  V30 33027 C 3065.03 -0.600104 -2.25657 0
M  V30 33028 C 3066.01 0.382951 -1.65733 0
M  V30 33029 O 3067.2 0.269222 -1.92325 0
M  V30 33030 C 3064.33 0.0662587 -3.47237 0
M  V30 33031 C 3063.28 -0.837384 -4.19728 0
M  V30 33032 C 3062.61 -0.0370042 -5.34687 0
M  V30 33033 C 3063.91 -2.14365 -4.76282 0
M  V30 33034 H 3065.6 -1.47705 -2.6043 0
M  V30 33035 H 3063.15 -0.711656 -1.25186 0
M  V30 33036 H 3065.1 0.366489 -4.19803 0
M  V30 33037 H 3063.82 0.977889 -3.11617 0
M  V30 33038 H 3062.48 -1.12156 -3.49022 0
M  V30 33039 H 3062.13 0.876157 -4.9531 0
M  V30 33040 H 3061.83 -0.638753 -5.84118 0
M  V30 33041 H 3063.36 0.256861 -6.10059 0
M  V30 33042 H 3064.77 -1.90605 -5.40687 0
M  V30 33043 H 3063.17 -2.69592 -5.36134 0
M  V30 33044 H 3064.24 -2.80923 -3.95235 0
M  V30 33045 N 3065.58 1.36456 -0.788516 0
M  V30 33046 C 3066.83 1.98514 -0.357087 0
M  V30 33047 C 3067.14 1.63287 1.07688 0
M  V30 33048 O 3068.35 2.18573 1.61053 0
M  V30 33049 C 3066.8 3.55072 -0.587512 0
M  V30 33050 C 3066.41 3.99224 -2.03283 0
M  V30 33051 C 3068.16 4.23927 -0.220543 0
M  V30 33052 C 3066.06 5.48557 -2.20996 0
M  V30 33053 H 3064.99 0.742748 -0.129775 0
M  V30 33054 H 3067.64 1.55765 -0.970022 0
M  V30 33055 H 3066.03 3.95886 0.0951222 0
M  V30 33056 H 3067.2 3.69612 -2.75179 0
M  V30 33057 H 3065.51 3.43204 -2.35796 0
M  V30 33058 H 3068.11 5.33673 -0.331179 0
M  V30 33059 H 3068.45 4.07917 0.831234 0
M  V30 33060 H 3068.99 3.88473 -0.856378 0
M  V30 33061 H 3065.73 5.69513 -3.24553 0
M  V30 33062 H 3065.25 5.79798 -1.53604 0
M  V30 33063 H 3066.93 6.14768 -2.01667 0
M  V30 33064 N 3067.06 0.540456 1.48043 0
M  V30 33065 C 3067.99 -0.205138 2.32597 0
M  V30 33066 C 3068.97 -0.925015 1.4275 0
M  V30 33067 O 3070.15 -0.908754 1.71625 0
M  V30 33068 C 3067.28 -1.24606 3.24177 0
M  V30 33069 C 3066.24 -0.643686 4.23132 0
M  V30 33070 C 3065.56 -1.78803 5.03918 0
M  V30 33071 C 3066.86 0.391531 5.2083 0
M  V30 33072 H 3068.56 0.500727 2.95183 0
M  V30 33073 H 3066.1 0.24225 1.41948 0
M  V30 33074 H 3068.06 -1.7757 3.82161 0
M  V30 33075 H 3066.78 -1.98165 2.59612 0
M  V30 33076 H 3065.44 -0.135489 3.6635 0
M  V30 33077 H 3065.09 -2.51225 4.3577 0
M  V30 33078 H 3064.79 -1.39084 5.70902 0
M  V30 33079 H 3066.31 -2.32124 5.64757 0
M  V30 33080 H 3067.73 -0.0514056 5.73277 0
M  V30 33081 H 3066.12 0.706674 5.95925 0
M  V30 33082 H 3067.19 1.29354 4.67328 0
M  V30 33083 N 3068.54 -1.55163 0.276085 0
M  V30 33084 C 3069.95 -1.85382 -0.221483 0
M  V30 33085 C 3070.3 -1.1981 -1.5537 0
M  V30 33086 O 3069.42 -0.48678 -2.10854 0
M  V30 33087 C 3070.02 -3.36327 -0.408647 0
M  V30 33088 C 3068.58 -3.66667 -0.850447 0
M  V30 33089 C 3067.72 -2.77244 0.0557047 0
M  V30 33090 H 3070.67 -1.50689 0.497845 0
M  V30 33091 H 3070.7 -3.59484 -1.24705 0
M  V30 33092 H 3070.21 -3.84022 0.561119 0
M  V30 33093 H 3068.31 -3.24471 -1.83165 0
M  V30 33094 H 3068.42 -4.74147 -0.687097 0
M  V30 33095 H 3066.79 -2.50497 -0.460775 0
M  V30 33096 H 3067.57 -3.27754 1.02137 0
M  V30 33097 N 3070.01 -0.00338196 -1.576 0
M  V30 33098 C 3070.98 0.971801 -2.07578 0
M  V30 33099 C 3071.98 1.27036 -0.985819 0
M  V30 33100 O 3073.17 1.21498 -1.24835 0
M  V30 33101 C 3070.3 2.29576 -2.52007 0
M  V30 33102 H 3071.49 0.53943 -2.95009 0
M  V30 33103 H 3069.04 0.244159 -1.54381 0
M  V30 33104 H 3069.78 2.77495 -1.6783 0
M  V30 33105 H 3069.56 2.09225 -3.31613 0
M  V30 33106 H 3071.05 2.99525 -2.90988 0
M  V30 33107 N 3071.49 1.5528 0.269423 0
M  V30 33108 C 3072.42 1.84821 1.3555 0
M  V30 33109 C 3073.44 0.732939 1.45368 0
M  V30 33110 O 3074.63 1.01083 1.47121 0
M  V30 33111 C 3071.73 1.99935 2.73641 0
M  V30 33112 C 3070.9 3.30622 2.8637 0
M  V30 33113 C 3069.96 3.35756 4.05159 0
M  V30 33114 O 3068.98 4.09111 3.95749 0
M  V30 33115 N 3070.19 2.63417 5.17293 0
M  V30 33116 H 3072.95 2.78565 1.10552 0
M  V30 33117 H 3070.51 1.55241 0.459539 0
M  V30 33118 H 3072.5 2.00736 3.51408 0
M  V30 33119 H 3071.07 1.13041 2.91446 0
M  V30 33120 H 3070.29 3.4233 1.95459 0
M  V30 33121 H 3071.58 4.16804 2.91808 0
M  V30 33122 H 3070.98 2.0351 5.27826 0
M  V30 33123 H 3069.54 2.69937 5.93277 0
M  V30 33124 N 3072.97 -0.534097 1.48274 0
M  V30 33125 C 3073.92 -1.66003 1.62929 0
M  V30 33126 C 3074.91 -1.61981 0.495843 0
M  V30 33127 O 3076.12 -1.66888 0.674429 0
M  V30 33128 H 3072.49 -0.549689 0.513172 0
M  V30 33129 H 3074.46 -1.50785 2.57501 0
M  V30 33130 C 3073.21 -3.04289 1.68237 0
M  V30 33131 H 3072.54 -3.08076 2.54813 0
M  V30 33132 H 3073.98 -3.82697 1.82535 0
M  V30 33133 C 3072.43 -3.34269 0.420213 0
M  V30 33134 O 3072.96 -3.98956 -0.468698 0
M  V30 33135 N 3071.17 -2.89117 0.293166 0
M  V30 33136 H 3070.72 -2.36654 1.01749 0
M  V30 33137 H 3070.68 -3.09546 -0.550322 0
M  V30 33138 N 3074.45 -1.36793 -0.782652 0
M  V30 33139 C 3075.7 -1.30726 -1.53603 0
M  V30 33140 C 3076.01 0.109262 -1.95295 0
M  V30 33141 O 3077.22 0.29235 -2.69921 0
M  V30 33142 C 3075.67 -2.29398 -2.77317 0
M  V30 33143 C 3075.28 -3.76521 -2.42767 0
M  V30 33144 C 3077.02 -2.3232 -3.55285 0
M  V30 33145 C 3074.93 -4.66953 -3.62917 0
M  V30 33146 H 3073.86 -0.485804 -0.576637 0
M  V30 33147 H 3076.51 -1.62193 -0.858227 0
M  V30 33148 H 3074.89 -1.90933 -3.4693 0
M  V30 33149 H 3076.07 -4.23761 -1.81007 0
M  V30 33150 H 3074.38 -3.76439 -1.77996 0
M  V30 33151 H 3076.98 -2.97091 -4.44568 0
M  V30 33152 H 3077.32 -1.33367 -3.94359 0
M  V30 33153 H 3077.86 -2.69437 -2.92658 0
M  V30 33154 H 3074.59 -5.66995 -3.28934 0
M  V30 33155 H 3074.11 -4.24425 -4.2382 0
M  V30 33156 H 3075.79 -4.83555 -4.29864 0
M  V30 33157 N 3075.93 1.00759 -1.21184 0
M  V30 33158 C 3077.16 1.77819 -1.05185 0
M  V30 33159 C 3077.56 1.84891 0.401495 0
M  V30 33160 O 3076.91 1.30746 1.2904 0
M  V30 33161 C 3076.97 3.23371 -1.57071 0
M  V30 33162 C 3076.63 3.39883 -3.05497 0
M  V30 33163 C 3077.63 3.28374 -4.03071 0
M  V30 33164 C 3075.32 3.65409 -3.44647 0
M  V30 33165 C 3077.31 3.4215 -5.37784 0
M  V30 33166 C 3075 3.78827 -4.79513 0
M  V30 33167 C 3075.99 3.67204 -5.75891 0
M  V30 33168 O 3075.68 3.80199 -7.0831 0
M  V30 33169 H 3075.41 0.565757 -0.369993 0
M  V30 33170 H 3077.97 1.27652 -1.60917 0
M  V30 33171 H 3076.2 3.74662 -0.957339 0
M  V30 33172 H 3077.89 3.82097 -1.36956 0
M  V30 33173 H 3078.65 3.08582 -3.74169 0
M  V30 33174 H 3074.53 3.73539 -2.70166 0
M  V30 33175 H 3078.08 3.32995 -6.12993 0
M  V30 33176 H 3073.97 3.98123 -5.08103 0
M  V30 33177 H 3074.74 3.97163 -7.15684 0
M  V30 33178 N 3077.4 1.01917 1.20211 0
M  V30 33179 C 3078.65 0.71104 1.89926 0
M  V30 33180 C 3078.98 -0.757638 1.78811 0
M  V30 33181 O 3078.26 -1.55071 1.17402 0
M  V30 33182 C 3078.54 1.15059 3.41223 0
M  V30 33183 C 3078.39 2.67977 3.61259 0
M  V30 33184 C 3079.71 0.723846 4.34107 0
M  V30 33185 H 3076.83 0.259781 0.689698 0
M  V30 33186 H 3079.47 1.26737 1.41555 0
M  V30 33187 H 3077.62 0.677267 3.82551 0
M  V30 33188 H 3079.3 3.23182 3.29167 0
M  V30 33189 H 3077.54 3.08829 3.04642 0
M  V30 33190 H 3078.21 2.93787 4.67326 0
M  V30 33191 H 3080.69 1.1308 4.0044 0
M  V30 33192 H 3079.56 1.0594 5.38579 0
M  V30 33193 H 3079.82 -0.374346 4.40512 0
M  V30 33194 N 3078.88 -1.36036 0.795742 0
M  V30 33195 C 3079.79 -2.33747 0.199825 0
M  V30 33196 C 3080.81 -1.61346 -0.651408 0
M  V30 33197 O 3081.98 -1.93292 -0.56571 0
M  V30 33198 C 3079.05 -3.40544 -0.650415 0
M  V30 33199 C 3078.11 -4.28736 0.220049 0
M  V30 33200 C 3077.34 -5.30432 -0.589705 0
M  V30 33201 O 3077.57 -5.40409 -1.82523 0
M  V30 33202 O 3076.5 -6.01898 0.0137245 0
M  V30 33203 H 3080.33 -2.86488 1.00787 0
M  V30 33204 H 3077.91 -1.38616 0.557317 0
M  V30 33205 H 3079.79 -4.05826 -1.13505 0
M  V30 33206 H 3078.47 -2.90092 -1.43625 0
M  V30 33207 H 3077.38 -3.66472 0.75158 0
M  V30 33208 H 3078.71 -4.82556 0.969553 0
M  V30 33209 N 3080.36 -0.5483 -1.47755 0
M  V30 33210 C 3081.59 -0.0255236 -2.06884 0
M  V30 33211 C 3082 1.2642 -1.40227 0
M  V30 33212 O 3081.36 1.75636 -0.495807 0
M  V30 33213 C 3081.41 0.18307 -3.61036 0
M  V30 33214 O 3081.13 -1.05557 -4.25193 0
M  V30 33215 C 3082.63 0.744145 -4.3701 0
M  V30 33216 H 3079.85 -0.0418007 -0.669697 0
M  V30 33217 H 3082.4 -0.759171 -1.89886 0
M  V30 33218 H 3080.55 0.866819 -3.77578 0
M  V30 33219 H 3080.97 -0.84772 -5.17604 0
M  V30 33220 H 3082.44 0.839433 -5.4558 0
M  V30 33221 H 3082.92 1.75336 -4.02683 0
M  V30 33222 H 3083.52 0.0963795 -4.25191 0
M  V30 33223 N 3081.84 1.55014 -0.28431 0
M  V30 33224 C 3082.79 2.1958 0.613875 0
M  V30 33225 C 3083.77 1.16337 1.11151 0
M  V30 33226 O 3084.96 1.42118 1.05506 0
M  V30 33227 C 3082.09 2.92742 1.79324 0
M  V30 33228 C 3081.18 4.03284 1.31235 0
M  V30 33229 N 3081.57 5.0282 0.548256 0
M  V30 33230 C 3079.87 4.16522 1.59452 0
M  V30 33231 C 3080.57 5.80955 0.294256 0
M  V30 33232 N 3079.55 5.36604 0.869312 0
M  V30 33233 H 3083.35 2.93891 0.0223572 0
M  V30 33234 H 3080.86 1.6216 -0.0882904 0
M  V30 33235 H 3082.86 3.37453 2.44808 0
M  V30 33236 H 3081.52 2.19944 2.38861 0
M  V30 33237 H 3082.53 5.17534 0.194721 0
M  V30 33238 H 3079.21 3.5492 2.19859 0
M  V30 33239 H 3080.6 6.71146 -0.318313 0
M  V30 33240 N 3083.32 0.0117398 1.57596 0
M  V30 33241 C 3084.73 -0.344479 1.55838 0
M  V30 33242 C 3084.93 -1.74034 1.0156 0
M  V30 33243 O 3083.99 -2.43867 0.654606 0
M  V30 33244 C 3085.3 -0.208971 2.99973 0
M  V30 33245 C 3086.85 -0.283037 3.11718 0
M  V30 33246 C 3087.32 -0.176519 4.5766 0
M  V30 33247 N 3088.82 -0.234052 4.62608 0
M  V30 33248 C 3089.55 -0.175151 5.73132 0
M  V30 33249 N 3089.05 -0.066167 6.92768 0
M  V30 33250 N 3090.84 -0.227874 5.61638 0
M  V30 33251 H 3082.99 0.924726 1.91213 0
M  V30 33252 H 3085.25 0.355546 0.878801 0
M  V30 33253 H 3084.96 0.751886 3.43569 0
M  V30 33254 H 3084.83 -0.986286 3.64077 0
M  V30 33255 H 3087.22 -1.23434 2.68045 0
M  V30 33256 H 3087.3 0.524354 2.50368 0
M  V30 33257 H 3086.95 0.771294 5.02009 0
M  V30 33258 H 3086.88 -1.00255 5.16969 0
M  V30 33259 H 3089.37 -0.319137 3.7655 0
M  V30 33260 H 3089.68 -0.0274407 7.72795 0
M  V30 33261 H 3088.02 -0.0316281 6.94993 0
M  V30 33262 H 3091.22 -0.311294 4.67064 0
M  V30 33263 H 3091.39 -0.178507 6.47754 0
M  V30 33264 N 3084.79 -1.55421 -0.261185 0
M  V30 33265 C 3085.74 -1.89109 -1.32311 0
M  V30 33266 C 3086.71 -0.743794 -1.48516 0
M  V30 33267 O 3087.9 -0.996151 -1.62731 0
M  V30 33268 C 3085.04 -2.17881 -2.67622 0
M  V30 33269 C 3084.15 -3.45342 -2.59543 0
M  V30 33270 C 3083.28 -3.63755 -3.87112 0
M  V30 33271 C 3082.32 -4.84867 -3.73591 0
M  V30 33272 N 3081.46 -4.99875 -4.9302 0
M  V30 33273 H 3086.3 -2.79677 -1.02882 0
M  V30 33274 H 3083.84 -1.38457 -0.496787 0
M  V30 33275 H 3085.8 -2.32565 -3.46366 0
M  V30 33276 H 3084.43 -1.30534 -2.9523 0
M  V30 33277 H 3083.48 -3.39067 -1.72446 0
M  V30 33278 H 3084.79 -4.34226 -2.45457 0
M  V30 33279 H 3083.94 -3.7832 -4.74298 0
M  V30 33280 H 3082.68 -2.73078 -4.04079 0
M  V30 33281 H 3081.69 -4.70293 -2.84789 0
M  V30 33282 H 3082.91 -5.7699 -3.58133 0
M  V30 33283 H 3080.86 -4.12132 -5.10376 0
M  V30 33284 H 3080.78 -5.82824 -4.8151 0
M  V30 33285 H 3082.04 -5.18838 -5.81745 0
M  V30 33286 N 3086.27 0.526227 -1.48555 0
M  V30 33287 C 3087.52 1.27835 -1.56017 0
M  V30 33288 C 3087.83 1.94114 -0.240677 0
M  V30 33289 O 3089.04 2.70809 -0.193573 0
M  V30 33290 C 3087.5 2.31975 -2.75165 0
M  V30 33291 C 3087.1 1.71748 -4.13771 0
M  V30 33292 C 3088.85 3.08173 -2.91942 0
M  V30 33293 C 3086.76 2.7385 -5.24175 0
M  V30 33294 H 3085.69 0.480785 -0.580829 0
M  V30 33295 H 3088.34 0.555304 -1.74896 0
M  V30 33296 H 3086.72 3.07331 -2.49727 0
M  V30 33297 H 3087.89 1.02555 -4.49243 0
M  V30 33298 H 3086.21 1.08029 -4.02143 0
M  V30 33299 H 3088.8 3.84477 -3.71593 0
M  V30 33300 H 3089.15 3.64263 -2.0154 0
M  V30 33301 H 3089.68 2.39931 -3.17298 0
M  V30 33302 H 3086.42 2.22575 -6.16555 0
M  V30 33303 H 3085.94 3.4136 -4.93187 0
M  V30 33304 H 3087.62 3.36764 -5.52448 0
M  V30 33305 N 3087.75 1.37206 0.775387 0
M  V30 33306 C 3088.7 1.32674 1.88855 0
M  V30 33307 C 3089.67 0.192928 1.64976 0
M  V30 33308 O 3090.85 0.381706 1.86943 0
M  V30 33309 C 3087.99 1.13593 3.25869 0
M  V30 33310 C 3087.11 2.36173 3.61727 0
M  V30 33311 C 3086.24 2.09993 4.87931 0
M  V30 33312 C 3085.28 3.28459 5.16509 0
M  V30 33313 N 3084.42 3.01853 6.339 0
M  V30 33314 H 3089.26 2.2785 1.92064 0
M  V30 33315 H 3086.79 1.13227 0.939046 0
M  V30 33316 H 3088.75 1.00553 4.04901 0
M  V30 33317 H 3087.38 0.22067 3.22045 0
M  V30 33318 H 3086.43 2.59967 2.77708 0
M  V30 33319 H 3087.75 3.24535 3.78786 0
M  V30 33320 H 3086.9 1.93963 5.74859 0
M  V30 33321 H 3085.64 1.18964 4.72968 0
M  V30 33322 H 3084.64 3.45032 4.28057 0
M  V30 33323 H 3085.87 4.20334 5.33382 0
M  V30 33324 H 3083.81 2.1345 6.20302 0
M  V30 33325 H 3083.73 3.83757 6.51357 0
M  V30 33326 H 3085 2.89433 7.23774 0
M  V30 33327 N 3089.23 -1.00115 1.21716 0
M  V30 33328 C 3090.18 -2.08967 0.979874 0
M  V30 33329 C 3091.15 -1.65825 -0.0955033 0
M  V30 33330 O 3092.33 -1.90728 0.0524077 0
M  V30 33331 C 3089.47 -3.40611 0.554817 0
M  V30 33332 C 3088.58 -3.97142 1.70006 0
M  V30 33333 C 3087.72 -5.16911 1.22379 0
M  V30 33334 C 3086.76 -5.6556 2.34111 0
M  V30 33335 N 3085.89 -6.76575 1.87591 0
M  V30 33336 H 3090.73 -2.28599 1.91171 0
M  V30 33337 H 3088.27 -1.12083 0.952665 0
M  V30 33338 H 3090.23 -4.16194 0.289599 0
M  V30 33339 H 3088.86 -3.21004 -0.340016 0
M  V30 33340 H 3087.91 -3.18509 2.07981 0
M  V30 33341 H 3089.22 -4.29237 2.54082 0
M  V30 33342 H 3088.38 -5.99753 0.915463 0
M  V30 33343 H 3087.12 -4.8642 0.353131 0
M  V30 33344 H 3086.12 -4.81312 2.65743 0
M  V30 33345 H 3087.35 -5.98079 3.2168 0
M  V30 33346 H 3085.29 -6.47883 1.02874 0
M  V30 33347 H 3085.21 -7.07944 2.65237 0
M  V30 33348 H 3086.48 -7.62944 1.59803 0
M  V30 33349 N 3090.71 -1.02553 -1.19669 0
M  V30 33350 C 3091.96 -0.715305 -1.8859 0
M  V30 33351 C 3092.27 0.75895 -1.80276 0
M  V30 33352 O 3093.48 1.18209 -2.44416 0
M  V30 33353 C 3091.93 -1.22911 -3.38262 0
M  V30 33354 C 3091.54 -2.73091 -3.55142 0
M  V30 33355 C 3093.28 -0.994722 -4.12681 0
M  V30 33356 C 3091.19 -3.17906 -4.98688 0
M  V30 33357 H 3090.12 -0.263869 -0.706321 0
M  V30 33358 H 3092.77 -1.23939 -1.3532 0
M  V30 33359 H 3091.15 -0.632961 -3.90909 0
M  V30 33360 H 3092.33 -3.38332 -3.12839 0
M  V30 33361 H 3090.64 -2.94771 -2.94107 0
M  V30 33362 H 3093.24 -1.30487 -5.18534 0
M  V30 33363 H 3093.58 0.0685734 -4.16244 0
M  V30 33364 H 3094.12 -1.5547 -3.66161 0
M  V30 33365 H 3090.85 -4.2355 -5.00285 0
M  V30 33366 H 3090.37 -2.57391 -5.41766 0
M  V30 33367 H 3092.05 -3.11055 -5.67322 0
M  V30 33368 N 3092.19 1.35612 -0.802945 0
M  V30 33369 C 3093.41 2.03645 -0.392882 0
M  V30 33370 C 3093.84 1.60122 0.987047 0
M  V30 33371 O 3093.19 0.77613 1.63847 0
M  V30 33372 C 3093.24 3.57387 -0.480271 0
M  V30 33373 O 3092.35 4.09263 0.507679 0
M  V30 33374 H 3091.69 0.643262 -0.164652 0
M  V30 33375 H 3094.22 1.73285 -1.08782 0
M  V30 33376 H 3094.23 4.06507 -0.348754 0
M  V30 33377 H 3092.9 3.88415 -1.48682 0
M  V30 33378 H 3091.48 3.71377 0.336704 0
M  V30 33379 N 3093.66 0.556128 1.47462 0
M  V30 33380 C 3094.57 -0.195337 2.33785 0
M  V30 33381 C 3095.59 -0.912974 1.48124 0
M  V30 33382 O 3096.77 -0.882109 1.81055 0
M  V30 33383 C 3093.83 -1.21277 3.24797 0
M  V30 33384 C 3092.89 -0.502672 4.26347 0
M  V30 33385 C 3092.12 -1.47163 5.1301 0
M  V30 33386 O 3092.35 -2.70637 5.02107 0
M  V30 33387 O 3091.28 -0.99671 5.9359 0
M  V30 33388 H 3095.11 0.512729 2.99341 0
M  V30 33389 H 3092.69 0.316755 1.46003 0
M  V30 33390 H 3094.57 -1.80009 3.81018 0
M  V30 33391 H 3093.25 -1.90277 2.61871 0
M  V30 33392 H 3092.16 0.125823 3.73888 0
M  V30 33393 H 3093.49 0.145866 4.91984 0
M  V30 33394 N 3095.14 -1.54861 0.292527 0
M  V30 33395 C 3096.09 -2.23202 -0.587326 0
M  V30 33396 C 3097.06 -1.21159 -1.13621 0
M  V30 33397 O 3098.24 -1.49754 -1.1823 0
M  V30 33398 C 3095.38 -2.97001 -1.75739 0
M  V30 33399 C 3094.5 -4.138 -1.24071 0
M  V30 33400 C 3093.63 -4.75201 -2.37397 0
M  V30 33401 C 3092.67 -5.84161 -1.82819 0
M  V30 33402 N 3091.81 -6.39552 -2.89685 0
M  V30 33403 H 3096.65 -2.98 0.00207445 0
M  V30 33404 H 3094.18 -1.47094 0.0127918 0
M  V30 33405 H 3096.14 -3.38015 -2.44544 0
M  V30 33406 H 3094.77 -2.24595 -2.31856 0
M  V30 33407 H 3093.82 -3.77786 -0.445201 0
M  V30 33408 H 3095.14 -4.92325 -0.801099 0
M  V30 33409 H 3094.29 -5.19025 -3.14163 0
M  V30 33410 H 3093.03 -3.9599 -2.84681 0
M  V30 33411 H 3092.03 -5.3977 -1.04539 0
M  V30 33412 H 3093.26 -6.65251 -1.36449 0
M  V30 33413 H 3091.21 -5.63228 -3.36318 0
M  V30 33414 H 3091.12 -7.134 -2.50194 0
M  V30 33415 H 3092.39 -6.88034 -3.66374 0
M  V30 33416 N 3096.62 -0.0200973 -1.57587 0
M  V30 33417 C 3097.87 0.659788 -1.90603 0
M  V30 33418 C 3098.18 1.73807 -0.897247 0
M  V30 33419 O 3099.39 2.47398 -1.11833 0
M  V30 33420 C 3097.84 1.22478 -3.38419 0
M  V30 33421 C 3097.45 0.18026 -4.47637 0
M  V30 33422 C 3099.2 1.8817 -3.80516 0
M  V30 33423 C 3097.1 0.756379 -5.86543 0
M  V30 33424 H 3096.03 0.250203 -0.711277 0
M  V30 33425 H 3098.68 -0.0839265 -1.83308 0
M  V30 33426 H 3097.07 2.01981 -3.40616 0
M  V30 33427 H 3098.24 -0.591653 -4.56986 0
M  V30 33428 H 3096.55 -0.377375 -4.14686 0
M  V30 33429 H 3099.15 2.32214 -4.81644 0
M  V30 33430 H 3099.49 2.72067 -3.15095 0
M  V30 33431 H 3100.03 1.1537 -3.80703 0
M  V30 33432 H 3096.77 -0.044262 -6.55485 0
M  V30 33433 H 3096.29 1.49699 -5.80819 0
M  V30 33434 H 3097.97 1.24889 -6.34832 0
M  V30 33435 N 3098.1 1.55557 0.252939 0
M  V30 33436 C 3099.32 1.81492 1.00376 0
M  V30 33437 C 3099.75 0.596349 1.78396 0
M  V30 33438 O 3099.11 -0.454504 1.75511 0
M  V30 33439 C 3099.15 3.051 1.92215 0
M  V30 33440 O 3098.26 2.81592 3.01297 0
M  V30 33441 H 3097.6 0.599279 0.285939 0
M  V30 33442 H 3100.13 2.02733 0.275759 0
M  V30 33443 H 3100.14 3.34372 2.33794 0
M  V30 33444 H 3098.81 3.93433 1.34845 0
M  V30 33445 H 3097.39 2.63471 2.63889 0
M  V30 33446 N 3099.58 -0.518341 1.48832 0
M  V30 33447 C 3100.52 -1.62175 1.64219 0
M  V30 33448 C 3101.49 -1.58893 0.48397 0
M  V30 33449 O 3102.68 -1.77142 0.708888 0
M  V30 33450 C 3099.82 -3.00396 1.69872 0
M  V30 33451 C 3098.93 -3.13824 2.96881 0
M  V30 33452 C 3098.07 -4.42674 2.93621 0
M  V30 33453 C 3097.1 -4.49673 4.15284 0
M  V30 33454 N 3096.24 -5.69927 4.10034 0
M  V30 33455 H 3101.08 -1.48364 2.58442 0
M  V30 33456 H 3098.62 -0.72213 1.28155 0
M  V30 33457 H 3100.58 -3.80487 1.71131 0
M  V30 33458 H 3099.21 -3.12951 0.791304 0
M  V30 33459 H 3098.26 -2.26909 3.05314 0
M  V30 33460 H 3099.57 -3.14856 3.86868 0
M  V30 33461 H 3098.72 -5.31068 2.93346 0
M  V30 33462 H 3097.46 -4.4418 2.01383 0
M  V30 33463 H 3096.47 -3.59684 4.15822 0
M  V30 33464 H 3097.69 -4.49895 5.08695 0
M  V30 33465 H 3095.64 -5.72308 3.20623 0
M  V30 33466 H 3095.56 -5.72502 4.93738 0
M  V30 33467 H 3096.82 -6.60576 4.13836 0
M  V30 33468 N 3101.05 -1.37615 -0.7681 0
M  V30 33469 C 3102.28 -1.364 -1.56236 0
M  V30 33470 C 3102.7 0.0475508 -1.8804 0
M  V30 33471 O 3102.06 1.02561 -1.49502 0
M  V30 33472 C 3102.11 -2.21294 -2.84712 0
M  V30 33473 O 3101.21 -1.62007 -3.79246 0
M  V30 33474 H 3100.55 -0.465899 -0.473111 0
M  V30 33475 H 3103.08 -1.81187 -0.950383 0
M  V30 33476 H 3103.09 -2.34638 -3.3378 0
M  V30 33477 H 3101.77 -3.23894 -2.60893 0
M  V30 33478 H 3100.35 -1.57725 -3.37901 0
M  V30 33479 N 3102.53 0.994677 -1.22245 0
M  V30 33480 C 3103.46 2.10277 -1.01517 0
M  V30 33481 C 3104.44 1.69982 0.0633067 0
M  V30 33482 O 3105.63 1.9395 -0.0985609 0
M  V30 33483 C 3102.76 3.42248 -0.59022 0
M  V30 33484 C 3101.71 3.96384 -1.61443 0
M  V30 33485 C 3101.04 5.24382 -1.04537 0
M  V30 33486 C 3102.34 4.2727 -3.00395 0
M  V30 33487 H 3104.03 2.27876 -1.94198 0
M  V30 33488 H 3101.58 1.09506 -0.935113 0
M  V30 33489 H 3103.53 4.19176 -0.432328 0
M  V30 33490 H 3102.25 3.24472 0.372251 0
M  V30 33491 H 3100.91 3.21586 -1.76006 0
M  V30 33492 H 3100.56 5.02945 -0.0743109 0
M  V30 33493 H 3100.26 5.61568 -1.72959 0
M  V30 33494 H 3101.79 6.03945 -0.899028 0
M  V30 33495 H 3103.2 4.95002 -2.89216 0
M  V30 33496 H 3101.6 4.75625 -3.65925 0
M  V30 33497 H 3102.67 3.35119 -3.50462 0
M  V30 33498 N 3104.01 1.03186 1.19123 0
M  V30 33499 C 3104.96 0.60882 2.24491 0
M  V30 33500 C 3105.95 -0.360036 1.6553 0
M  V30 33501 O 3107.16 -0.228289 1.78546 0
M  V30 33502 H 3103.53 0.178628 0.730476 0
M  V30 33503 H 3105.5 1.50807 2.57487 0
M  V30 33504 C 3104.25 -0.0214515 3.47693 0
M  V30 33505 H 3103.58 0.715093 3.93353 0
M  V30 33506 H 3105.02 -0.280354 4.23072 0
M  V30 33507 C 3103.47 -1.26891 3.1209 0
M  V30 33508 O 3104 -2.36065 3.25017 0
M  V30 33509 N 3102.21 -1.15881 2.66496 0
M  V30 33510 H 3101.76 -0.270418 2.56177 0
M  V30 33511 H 3101.72 -1.9944 2.43045 0
M  V30 33512 N 3105.49 -1.35184 0.810125 0
M  V30 33513 C 3106.74 -1.97921 0.388624 0
M  V30 33514 C 3107.05 -1.6498 -1.05076 0
M  V30 33515 O 3108.26 -2.21108 -1.57555 0
M  V30 33516 C 3106.71 -3.54093 0.643926 0
M  V30 33517 C 3106.32 -3.9594 2.09609 0
M  V30 33518 C 3108.06 -4.23522 0.287958 0
M  V30 33519 C 3105.97 -5.44972 2.29695 0
M  V30 33520 H 3104.9 -0.740589 0.141575 0
M  V30 33521 H 3107.55 -1.54202 0.99468 0
M  V30 33522 H 3105.93 -3.95987 -0.0321282 0
M  V30 33523 H 3107.11 -3.65187 2.81025 0
M  V30 33524 H 3105.42 -3.3941 2.41226 0
M  V30 33525 H 3108.02 -5.33079 0.416039 0
M  V30 33526 H 3108.36 -4.09188 -0.766233 0
M  V30 33527 H 3108.9 -3.87061 0.918072 0
M  V30 33528 H 3105.64 -5.64278 3.33573 0
M  V30 33529 H 3105.16 -5.77281 1.62808 0
M  V30 33530 H 3106.83 -6.11482 2.11422 0
M  V30 33531 N 3106.97 -0.56394 -1.47165 0
M  V30 33532 C 3108.19 -0.0455063 -2.0735 0
M  V30 33533 C 3108.62 1.2418 -1.41283 0
M  V30 33534 O 3107.97 1.7455 -0.490115 0
M  V30 33535 C 3108.02 0.126389 -3.60378 0
M  V30 33536 O 3107.13 1.18739 -3.94936 0
M  V30 33537 H 3106.47 -0.0543493 -0.661772 0
M  V30 33538 H 3109 -0.781541 -1.89085 0
M  V30 33539 H 3109.01 0.338483 -4.06594 0
M  V30 33540 H 3107.68 -0.813802 -4.0786 0
M  V30 33541 H 3106.26 0.955254 -3.60457 0
M  V30 33542 N 3108.44 1.54704 -0.300735 0
M  V30 33543 C 3109.69 1.99739 0.308009 0
M  V30 33544 C 3110.01 1.19064 1.54431 0
M  V30 33545 O 3109.28 0.286541 1.93793 0
M  V30 33546 H 3107.86 0.737812 0.116798 0
M  V30 33547 H 3110.53 1.90496 -0.412004 0
M  V30 33548 H 3109.62 3.06659 0.580233 0
M  V30 33549 N 3109.92 0.0284543 1.57574 0
M  V30 33550 C 3111.33 -0.510471 1.79586 0
M  V30 33551 C 3111.68 -1.7229 0.938656 0
M  V30 33552 O 3110.81 -2.15887 0.148878 0
M  V30 33553 C 3111.4 -0.932855 3.25704 0
M  V30 33554 C 3109.96 -1.4169 3.48713 0
M  V30 33555 C 3109.11 -0.381308 2.74666 0
M  V30 33556 H 3112.06 0.254492 1.56646 0
M  V30 33557 H 3112.08 -1.79726 3.35379 0
M  V30 33558 H 3111.59 -0.0502353 3.88067 0
M  V30 33559 H 3109.7 -2.31947 2.91602 0
M  V30 33560 H 3109.81 -1.42473 4.57426 0
M  V30 33561 H 3108.17 -0.849258 2.40124 0
M  V30 33562 H 3108.96 0.492835 3.39744 0
M  V30 33563 N 3111.4 -1.55689 -0.244686 0
M  V30 33564 C 3112.65 -1.77624 -0.972414 0
M  V30 33565 C 3112.98 -0.593169 -1.85234 0
M  V30 33566 O 3112.23 0.42343 -1.91064 0
M  V30 33567 C 3112.53 -3.05086 -1.86164 0
M  V30 33568 C 3112.2 -4.36332 -1.13689 0
M  V30 33569 C 3110.86 -4.71997 -0.936596 0
M  V30 33570 C 3113.21 -5.17459 -0.62336 0
M  V30 33571 C 3110.54 -5.86322 -0.210509 0
M  V30 33572 C 3112.89 -6.32537 0.0892698 0
M  V30 33573 C 3111.55 -6.66821 0.301021 0
M  V30 33574 H 3110.82 -0.649973 -0.355832 0
M  V30 33575 H 3113.47 -1.8996 -0.242339 0
M  V30 33576 H 3111.78 -2.87771 -2.65885 0
M  V30 33577 H 3113.47 -3.19257 -2.42644 0
M  V30 33578 H 3110.06 -4.08315 -1.30294 0
M  V30 33579 H 3114.25 -4.90359 -0.765639 0
M  V30 33580 H 3109.5 -6.11389 -0.0359987 0
M  V30 33581 H 3113.68 -6.9464 0.494807 0
M  V30 33582 H 3111.3 -7.55256 0.865598 0
M  V30 33583 N 3112.88 0.510441 -1.49105 0
M  V30 33584 C 3113.83 1.63389 -1.6555 0
M  V30 33585 C 3114.82 1.61171 -0.52155 0
M  V30 33586 O 3116.03 1.65793 -0.700894 0
M  V30 33587 H 3112.4 0.541455 -0.521853 0
M  V30 33588 H 3114.37 1.46669 -2.59867 0
M  V30 33589 C 3113.12 3.01574 -1.73056 0
M  V30 33590 H 3112.44 3.03983 -2.59682 0
M  V30 33591 H 3113.88 3.79744 -1.886 0
M  V30 33592 C 3112.34 3.33558 -0.473339 0
M  V30 33593 O 3112.87 3.99651 0.405169 0
M  V30 33594 N 3111.08 2.88614 -0.339125 0
M  V30 33595 H 3110.63 2.35005 -1.05501 0
M  V30 33596 H 3110.58 3.10382 0.501006 0
M  V30 33597 N 3114.36 1.38021 0.760791 0
M  V30 33598 C 3115.61 1.33153 1.51503 0
M  V30 33599 C 3115.92 -0.078178 1.95444 0
M  V30 33600 O 3117.12 -0.249371 2.70352 0
M  V30 33601 C 3115.58 2.33781 2.73632 0
M  V30 33602 C 3115.19 3.80336 2.36746 0
M  V30 33603 C 3116.93 2.37943 3.51544 0
M  V30 33604 C 3114.84 4.72667 3.55443 0
M  V30 33605 H 3113.77 0.494917 0.568835 0
M  V30 33606 H 3116.42 1.63538 0.832314 0
M  V30 33607 H 3114.8 1.96428 3.43849 0
M  V30 33608 H 3115.98 4.26587 1.74242 0
M  V30 33609 H 3114.29 3.79223 1.71984 0
M  V30 33610 H 3116.89 3.04126 4.39785 0
M  V30 33611 H 3117.23 1.39624 3.92187 0
M  V30 33612 H 3117.76 2.74059 2.88334 0
M  V30 33613 H 3114.5 5.72156 3.19872 0
M  V30 33614 H 3114.02 4.31114 4.17014 0
M  V30 33615 H 3115.7 4.90333 4.22117 0
M  V30 33616 N 3115.83 -0.98818 1.22771 0
M  V30 33617 C 3116.77 -2.08136 0.959794 0
M  V30 33618 C 3117.78 -1.62677 -0.0633501 0
M  V30 33619 O 3118.97 -1.77677 0.171234 0
M  V30 33620 C 3116.07 -3.36253 0.422783 0
M  V30 33621 C 3115.24 -4.1072 1.50426 0
M  V30 33622 C 3114.3 -5.17116 0.973498 0
M  V30 33623 O 3113.33 -5.44433 1.66076 0
M  V30 33624 N 3114.53 -5.80146 -0.202685 0
M  V30 33625 H 3117.29 -2.31699 1.90094 0
M  V30 33626 H 3114.85 -1.15429 1.13524 0
M  V30 33627 H 3116.85 -4.04665 0.0529225 0
M  V30 33628 H 3115.42 -3.09717 -0.423587 0
M  V30 33629 H 3114.64 -3.36871 2.04723 0
M  V30 33630 H 3115.92 -4.57241 2.23177 0
M  V30 33631 H 3115.32 -5.60328 -0.777757 0
M  V30 33632 H 3113.88 -6.49771 -0.513884 0
M  V30 33633 N 3117.31 -1.03816 -1.18575 0
M  V30 33634 C 3118.56 -0.740069 -1.88492 0
M  V30 33635 C 3118.89 0.732024 -1.80199 0
M  V30 33636 O 3118.14 1.54969 -1.19512 0
M  V30 33637 C 3118.44 -1.14843 -3.38446 0
M  V30 33638 C 3118.11 -2.62038 -3.66943 0
M  V30 33639 C 3116.77 -3.02251 -3.7443 0
M  V30 33640 C 3119.12 -3.57223 -3.79527 0
M  V30 33641 C 3116.45 -4.36543 -3.91979 0
M  V30 33642 C 3118.8 -4.9123 -3.98592 0
M  V30 33643 C 3117.47 -5.31118 -4.04314 0
M  V30 33644 H 3116.74 -0.270811 -0.689741 0
M  V30 33645 H 3119.38 -1.30272 -1.40362 0
M  V30 33646 H 3117.69 -0.504541 -3.88538 0
M  V30 33647 H 3119.38 -0.895179 -3.9088 0
M  V30 33648 H 3115.97 -2.29889 -3.6173 0
M  V30 33649 H 3120.16 -3.27302 -3.73077 0
M  V30 33650 H 3115.41 -4.66969 -3.94652 0
M  V30 33651 H 3119.59 -5.64892 -4.07271 0
M  V30 33652 H 3117.22 -6.35185 -4.17664 0
M  V30 33653 N 3118.79 1.34753 -0.817283 0
M  V30 33654 C 3120.04 1.97712 -0.399115 0
M  V30 33655 C 3120.35 1.65535 1.042 0
M  V30 33656 O 3121.56 2.2194 1.5638 0
M  V30 33657 C 3120.01 3.53746 -0.662696 0
M  V30 33658 C 3119.62 3.94822 -2.11706 0
M  V30 33659 C 3121.37 4.23364 -0.310414 0
M  V30 33660 C 3119.27 5.43746 -2.32582 0
M  V30 33661 H 3118.2 0.739828 -0.145501 0
M  V30 33662 H 3120.85 1.53673 -1.00284 0
M  V30 33663 H 3119.24 3.95998 0.0111276 0
M  V30 33664 H 3120.41 3.63692 -2.82957 0
M  V30 33665 H 3118.73 3.38125 -2.43023 0
M  V30 33666 H 3121.32 5.32851 -0.444304 0
M  V30 33667 H 3121.67 4.09588 0.744522 0
M  V30 33668 H 3122.2 3.86569 -0.938586 0
M  V30 33669 H 3118.94 5.62501 -3.36561 0
M  V30 33670 H 3118.46 5.7641 -1.65868 0
M  V30 33671 H 3120.14 6.10352 -2.14662 0
M  V30 33672 N 3120.27 0.571737 1.46864 0
M  V30 33673 C 3121.51 0.0556846 2.04324 0
M  V30 33674 C 3121.87 -1.27574 1.43488 0
M  V30 33675 O 3123.07 -1.88036 1.92083 0
M  V30 33676 C 3121.35 -0.0205635 3.57394 0
M  V30 33677 S 3122.9 -0.480633 4.3616 0
M  V30 33678 H 3119.72 0.0321592 0.710272 0
M  V30 33679 H 3122.32 0.761756 1.80049 0
M  V30 33680 H 3121.03 0.952579 3.99192 0
M  V30 33681 H 3120.56 -0.749745 3.8619 0
M  V30 33682 H 3122.57 -1.73755 4.64783 0
M  V30 33683 N 3121.75 -1.54542 0.308935 0
M  V30 33684 C 3122.7 -2.20529 -0.578863 0
M  V30 33685 C 3123.68 -1.1809 -1.09286 0
M  V30 33686 O 3124.87 -1.43779 -1.03231 0
M  V30 33687 C 3122 -2.95558 -1.74644 0
M  V30 33688 C 3121.09 -4.05321 -1.24802 0
M  V30 33689 N 3121.48 -5.03628 -0.468192 0
M  V30 33690 C 3119.78 -4.19006 -1.52806 0
M  V30 33691 C 3120.48 -5.8135 -0.201794 0
M  V30 33692 N 3119.45 -5.37919 -0.783833 0
M  V30 33693 H 3123.26 -2.9389 0.0244012 0
M  V30 33694 H 3120.77 -1.61999 0.114077 0
M  V30 33695 H 3122.77 -3.41305 -2.39408 0
M  V30 33696 H 3121.43 -2.23716 -2.35332 0
M  V30 33697 H 3122.44 -5.17778 -0.112362 0
M  V30 33698 H 3119.12 -3.58373 -2.14185 0
M  V30 33699 H 3120.51 -6.70554 0.425047 0
M  V30 33700 N 3123.23 -0.0368104 -1.57557 0
M  V30 33701 C 3124.16 0.971359 -2.07599 0
M  V30 33702 C 3125.17 1.28395 -1.00092 0
M  V30 33703 O 3126.36 1.24726 -1.27694 0
M  V30 33704 C 3123.46 2.29675 -2.49204 0
M  V30 33705 C 3122.63 2.16819 -3.79879 0
M  V30 33706 C 3121.69 3.32358 -4.07951 0
M  V30 33707 O 3120.72 3.08901 -4.78088 0
M  V30 33708 N 3121.92 4.56391 -3.5873 0
M  V30 33709 H 3124.68 0.544337 -2.94715 0
M  V30 33710 H 3122.25 0.149771 -1.61206 0
M  V30 33711 H 3124.24 3.0581 -2.6507 0
M  V30 33712 H 3122.81 2.63992 -1.67412 0
M  V30 33713 H 3122.03 1.25364 -3.73735 0
M  V30 33714 H 3123.32 2.05441 -4.6548 0
M  V30 33715 H 3122.71 4.78342 -3.02003 0
M  V30 33716 H 3121.27 5.29668 -3.79861 0
M  V30 33717 N 3124.7 1.55817 0.236426 0
M  V30 33718 C 3125.65 1.92028 1.31256 0
M  V30 33719 C 3126.65 0.800544 1.4929 0
M  V30 33720 O 3127.85 0.985256 1.50641 0
M  V30 33721 H 3124.23 0.610027 0.43974 0
M  V30 33722 H 3126.2 2.81853 0.979877 0
M  V30 33723 C 3124.95 2.24051 2.65888 0
M  V30 33724 H 3124.27 3.09718 2.52814 0
M  V30 33725 H 3125.71 2.53283 3.40035 0
M  V30 33726 C 3124.17 1.06045 3.19775 0
M  V30 33727 O 3124.7 0.313856 4.00472 0
M  V30 33728 N 3122.9 0.848258 2.77944 0
M  V30 33729 H 3122.45 1.45709 2.1243 0
M  V30 33730 H 3122.41 0.0603977 3.14342 0
M  V30 33731 N 3126.18 -0.502526 1.49373 0
M  V30 33732 C 3127.09 -1.63065 1.68662 0
M  V30 33733 C 3128.11 -1.64426 0.569211 0
M  V30 33734 O 3129.28 -1.82875 0.843728 0
M  V30 33735 C 3126.35 -2.99438 1.7475 0
M  V30 33736 C 3125.41 -3.08716 2.98317 0
M  V30 33737 C 3124.64 -4.38584 3.04105 0
M  V30 33738 O 3124.87 -5.27293 2.17528 0
M  V30 33739 O 3123.8 -4.52802 3.96552 0
M  V30 33740 H 3127.63 -1.49722 2.64229 0
M  V30 33741 H 3125.21 -0.678647 1.33097 0
M  V30 33742 H 3127.09 -3.80493 1.81116 0
M  V30 33743 H 3125.77 -3.13047 0.82362 0
M  V30 33744 H 3124.67 -2.26855 2.97469 0
M  V30 33745 H 3126.01 -3.00034 3.9018 0
M  V30 33746 N 3127.66 -1.38422 -0.75346 0
M  V30 33747 C 3128.91 -1.33954 -1.50795 0
M  V30 33748 C 3129.22 0.0678121 -1.95482 0
M  V30 33749 O 3130.43 0.23503 -2.70481 0
M  V30 33750 C 3128.88 -2.35229 -2.72388 0
M  V30 33751 C 3128.49 -3.81586 -2.34726 0
M  V30 33752 C 3130.24 -2.39804 -3.50277 0
M  V30 33753 C 3128.14 -4.74546 -3.52931 0
M  V30 33754 H 3127.07 -0.497926 -0.566203 0
M  V30 33755 H 3129.72 -1.63977 -0.82363 0
M  V30 33756 H 3128.11 -1.98249 -3.42802 0
M  V30 33757 H 3129.28 -4.27505 -1.71977 0
M  V30 33758 H 3127.59 -3.8013 -1.69971 0
M  V30 33759 H 3130.19 -3.06454 -4.38166 0
M  V30 33760 H 3130.53 -1.41701 -3.91441 0
M  V30 33761 H 3131.07 -2.75584 -2.86877 0
M  V30 33762 H 3127.81 -5.73844 -3.16833 0
M  V30 33763 H 3127.33 -4.33319 -4.14722 0
M  V30 33764 H 3129.01 -4.92565 -4.1951 0
M  V30 33765 N 3129.14 0.981655 -1.23294 0
M  V30 33766 C 3130.08 2.07381 -1.01299 0
M  V30 33767 C 3131.05 1.65956 0.0691098 0
M  V30 33768 O 3132.24 1.9062 -0.0827443 0
M  V30 33769 C 3129.38 3.39685 -0.608936 0
M  V30 33770 C 3128.49 3.94387 -1.76303 0
M  V30 33771 C 3127.63 5.14898 -1.30587 0
M  V30 33772 C 3126.67 5.61764 -2.43079 0
M  V30 33773 N 3125.8 6.73505 -1.98331 0
M  V30 33774 H 3130.64 2.25529 -1.94784 0
M  V30 33775 H 3128.18 1.10554 -0.970376 0
M  V30 33776 H 3130.14 4.1568 -0.355775 0
M  V30 33777 H 3128.77 3.21505 0.288904 0
M  V30 33778 H 3127.82 3.1516 -2.13022 0
M  V30 33779 H 3129.13 4.2514 -2.60878 0
M  V30 33780 H 3128.29 5.98221 -1.01076 0
M  V30 33781 H 3127.03 4.85796 -0.430471 0
M  V30 33782 H 3126.03 4.77023 -2.73366 0
M  V30 33783 H 3127.26 5.92886 -3.31154 0
M  V30 33784 H 3125.2 6.46165 -1.13169 0
M  V30 33785 H 3125.12 7.03635 -2.76466 0
M  V30 33786 H 3126.39 7.60305 -1.7192 0
M  V30 33787 N 3130.62 1.04444 1.18022 0
M  V30 33788 C 3131.86 0.745218 1.87428 0
M  V30 33789 C 3132.18 -0.730174 1.8146 0
M  V30 33790 O 3133.38 -1.14305 2.46265 0
M  V30 33791 C 3131.84 1.28277 3.36263 0
M  V30 33792 C 3131.45 2.78706 3.50752 0
M  V30 33793 C 3133.19 1.06025 4.11046 0
M  V30 33794 C 3131.1 3.258 4.93567 0
M  V30 33795 H 3130.03 0.275073 0.702034 0
M  V30 33796 H 3132.68 1.26076 1.33331 0
M  V30 33797 H 3131.06 0.695071 3.89852 0
M  V30 33798 H 3132.24 3.43266 3.07417 0
M  V30 33799 H 3130.55 2.99413 2.8938 0
M  V30 33800 H 3133.15 1.3872 5.16392 0
M  V30 33801 H 3133.49 -0.00234398 4.163 0
M  V30 33802 H 3134.02 1.61276 3.63641 0
M  V30 33803 H 3130.76 4.31456 4.93484 0
M  V30 33804 H 3130.28 2.65977 5.37602 0
M  V30 33805 H 3131.96 3.20041 5.62301 0
M  V30 33806 N 3132.09 -1.34317 0.824418 0
M  V30 33807 C 3133.34 -1.97497 0.409594 0
M  V30 33808 C 3133.66 -1.66085 -1.0332 0
M  V30 33809 O 3134.86 -2.22766 -1.55201 0
M  V30 33810 C 3133.32 -3.5339 0.681446 0
M  V30 33811 C 3132.93 -3.93694 2.13796 0
M  V30 33812 C 3134.67 -4.23193 0.332862 0
M  V30 33813 C 3132.58 -5.42505 2.35463 0
M  V30 33814 H 3131.51 -0.739046 0.149422 0
M  V30 33815 H 3134.16 -1.53139 1.01098 0
M  V30 33816 H 3132.54 -3.95999 0.00987336 0
M  V30 33817 H 3133.71 -3.62186 2.84882 0
M  V30 33818 H 3132.03 -3.36832 2.44813 0
M  V30 33819 H 3134.63 -5.32608 0.472556 0
M  V30 33820 H 3134.97 -4.09977 -0.72279 0
M  V30 33821 H 3135.5 -3.86066 0.959073 0
M  V30 33822 H 3132.24 -5.60708 3.39539 0
M  V30 33823 H 3131.76 -5.75522 1.68922 0
M  V30 33824 H 3133.44 -6.09205 2.17896 0
M  V30 33825 N 3133.57 -0.579517 -1.46558 0
M  V30 33826 C 3134.48 0.158119 -2.34067 0
M  V30 33827 C 3135.5 0.889294 -1.49558 0
M  V30 33828 O 3136.67 0.853193 -1.82435 0
M  V30 33829 C 3133.74 1.16094 -3.26685 0
M  V30 33830 C 3132.8 0.43478 -4.27093 0
M  V30 33831 C 3132.03 1.38983 -5.15286 0
M  V30 33832 O 3132.26 2.62615 -5.06349 0
M  V30 33833 O 3131.19 0.902149 -5.95101 0
M  V30 33834 H 3135.02 -0.560286 -2.98487 0
M  V30 33835 H 3132.6 -0.339943 -1.45481 0
M  V30 33836 H 3134.48 1.73925 -3.83833 0
M  V30 33837 H 3133.16 1.86087 -2.64865 0
M  V30 33838 H 3132.06 -0.185289 -3.73641 0
M  V30 33839 H 3133.4 -0.224118 -4.91689 0
M  V30 33840 N 3135.05 1.54376 -0.317127 0
M  V30 33841 C 3136.29 2.0236 0.288047 0
M  V30 33842 C 3136.65 1.20041 1.49847 0
M  V30 33843 O 3137.86 1.57797 2.17608 0
M  V30 33844 C 3136.13 3.51979 0.62013 0
M  V30 33845 S 3137.69 4.21905 1.20587 0
M  V30 33846 H 3134.5 0.705594 0.0875107 0
M  V30 33847 H 3137.11 1.9028 -0.448752 0
M  V30 33848 H 3135.81 4.09517 -0.269054 0
M  V30 33849 H 3135.34 3.68127 1.3873 0
M  V30 33850 H 3137.36 4.29027 2.493 0
M  V30 33851 N 3136.53 0.0451655 1.57535 0
M  V30 33852 C 3137.48 -0.949168 2.12352 0
M  V30 33853 C 3138.47 -1.32626 1.05389 0
M  V30 33854 O 3139.68 -1.30661 1.23805 0
M  V30 33855 H 3136.05 -0.323934 0.678654 0
M  V30 33856 H 3138.02 -0.461666 2.94807 0
M  V30 33857 C 3136.77 -2.21683 2.67866 0
M  V30 33858 H 3136.09 -1.93544 3.49829 0
M  V30 33859 H 3137.53 -2.8943 3.09849 0
M  V30 33860 C 3135.99 -2.95745 1.61358 0
M  V30 33861 O 3136.52 -3.8846 1.02282 0
M  V30 33862 N 3134.73 -2.58367 1.33021 0
M  V30 33863 H 3134.28 -1.83048 1.81249 0
M  V30 33864 H 3134.23 -3.08229 0.619866 0
M  V30 33865 N 3138.01 -1.5594 -0.228159 0
M  V30 33866 C 3138.94 -1.94893 -1.28604 0
M  V30 33867 C 3139.92 -0.816271 -1.49235 0
M  V30 33868 O 3141.1 -1.07806 -1.61529 0
M  V30 33869 C 3138.23 -2.2599 -2.63715 0
M  V30 33870 C 3137.19 -3.41685 -2.57751 0
M  V30 33871 C 3136.51 -3.5837 -3.96831 0
M  V30 33872 C 3137.81 -4.76846 -2.13107 0
M  V30 33873 H 3139.51 -2.83508 -0.962481 0
M  V30 33874 H 3137.05 -1.36403 -0.461553 0
M  V30 33875 H 3139.01 -2.51832 -3.37874 0
M  V30 33876 H 3137.73 -1.34222 -2.97745 0
M  V30 33877 H 3136.39 -3.15881 -1.8605 0
M  V30 33878 H 3136.04 -2.63989 -4.28157 0
M  V30 33879 H 3135.74 -4.36183 -3.93724 0
M  V30 33880 H 3137.26 -3.86554 -4.72661 0
M  V30 33881 H 3138.67 -5.01937 -2.77006 0
M  V30 33882 H 3137.07 -5.57895 -2.21074 0
M  V30 33883 H 3138.14 -4.72647 -1.08317 0
M  V30 33884 N 3139.48 0.494597 -1.49638 0
M  V30 33885 C 3140.9 0.826337 -1.36542 0
M  V30 33886 C 3141.1 1.9742 -0.403421 0
M  V30 33887 O 3140.16 2.51976 0.16257 0
M  V30 33888 C 3141.47 1.16052 -2.77403 0
M  V30 33889 C 3143.02 1.26835 -2.8615 0
M  V30 33890 C 3143.49 1.63579 -4.27792 0
M  V30 33891 N 3144.98 1.70616 -4.30633 0
M  V30 33892 C 3145.72 2.00504 -5.37202 0
M  V30 33893 N 3145.21 2.28573 -6.54008 0
M  V30 33894 N 3147.01 2.01809 -5.24623 0
M  V30 33895 H 3139.16 -0.262227 -2.10775 0
M  V30 33896 H 3141.42 -0.0547401 -0.946418 0
M  V30 33897 H 3141.13 0.390373 -3.49527 0
M  V30 33898 H 3141 2.10243 -3.13173 0
M  V30 33899 H 3143.39 2.02921 -2.1426 0
M  V30 33900 H 3143.47 0.306795 -2.53954 0
M  V30 33901 H 3143.11 0.880419 -5.00211 0
M  V30 33902 H 3143.04 2.60846 -4.57457 0
M  V30 33903 H 3145.53 1.51059 -3.46395 0
M  V30 33904 H 3145.85 2.50585 -7.31045 0
M  V30 33905 H 3144.19 2.26015 -6.57223 0
M  V30 33906 H 3147.38 1.79362 -4.32374 0
M  V30 33907 H 3147.56 2.24768 -6.07769 0
M  V30 33908 N 3140.96 1.3882 0.746109 0
M  V30 33909 C 3141.93 1.36441 1.84165 0
M  V30 33910 C 3142.93 0.263527 1.58626 0
M  V30 33911 O 3144.12 0.52083 1.66232 0
M  V30 33912 C 3141.25 1.12601 3.21767 0
M  V30 33913 H 3142.44 2.33915 1.8768 0
M  V30 33914 H 3139.99 1.24222 0.948603 0
M  V30 33915 H 3140.73 0.157637 3.23917 0
M  V30 33916 H 3140.51 1.92313 3.41699 0
M  V30 33917 H 3142 1.1365 4.01838 0
M  V30 33918 N 3142.44 -0.975103 1.23812 0
M  V30 33919 C 3143.67 -1.75756 1.10112 0
M  V30 33920 C 3144.09 -1.84948 -0.34289 0
M  V30 33921 O 3143.45 -1.31498 -1.24812 0
M  V30 33922 C 3143.5 -3.15991 1.7373 0
M  V30 33923 O 3142.6 -4.00016 1.00304 0
M  V30 33924 H 3141.94 -0.540537 0.385636 0
M  V30 33925 H 3144.47 -1.22369 1.63973 0
M  V30 33926 H 3144.48 -3.66547 1.79185 0
M  V30 33927 H 3143.16 -3.08616 2.788 0
M  V30 33928 H 3141.73 -3.58513 1.02581 0
M  V30 33929 N 3143.92 -1.05068 -1.17467 0
M  V30 33930 C 3145.33 -0.771794 -1.39698 0
M  V30 33931 C 3145.53 0.634348 -1.91254 0
M  V30 33932 O 3144.59 1.39695 -2.10336 0
M  V30 33933 C 3145.9 -1.82635 -2.38883 0
M  V30 33934 C 3147.45 -1.84842 -2.52591 0
M  V30 33935 C 3147.93 -2.89317 -3.55049 0
M  V30 33936 N 3149.42 -2.88272 -3.62565 0
M  V30 33937 C 3150.15 -3.65759 -4.41597 0
M  V30 33938 N 3149.65 -4.53028 -5.24154 0
M  V30 33939 N 3151.44 -3.54205 -4.36458 0
M  V30 33940 H 3143.59 -1.95794 -0.82332 0
M  V30 33941 H 3145.86 -0.847744 -0.424305 0
M  V30 33942 H 3145.56 -2.83549 -2.0807 0
M  V30 33943 H 3145.44 -1.66693 -3.38369 0
M  V30 33944 H 3147.82 -0.845938 -2.82715 0
M  V30 33945 H 3147.9 -2.04862 -1.53184 0
M  V30 33946 H 3147.55 -3.89751 -3.25664 0
M  V30 33947 H 3147.48 -2.6655 -4.54157 0
M  V30 33948 H 3149.97 -2.24995 -3.03621 0
M  V30 33949 H 3150.28 -5.0884 -5.81637 0
M  V30 33950 H 3148.63 -4.5709 -5.23539 0
M  V30 33951 H 3151.82 -2.85422 -3.71015 0
M  V30 33952 H 3151.99 -4.1484 -4.97807 0
M  V30 33953 N 3145.4 1.33878 -0.831529 0
M  V30 33954 C 3146.62 2.02233 -0.436961 0
M  V30 33955 C 3147.04 1.62591 0.95966 0
M  V30 33956 O 3146.4 0.835605 1.62246 0
M  V30 33957 C 3146.45 3.57452 -0.539492 0
M  V30 33958 O 3146.17 3.9566 -1.88108 0
M  V30 33959 C 3147.67 4.43076 -0.14093 0
M  V30 33960 H 3144.89 0.647963 -0.174314 0
M  V30 33961 H 3147.43 1.70967 -1.12207 0
M  V30 33962 H 3145.59 3.87277 0.0976279 0
M  V30 33963 H 3146 4.90359 -1.8614 0
M  V30 33964 H 3147.48 5.5137 -0.263736 0
M  V30 33965 H 3147.95 4.29533 0.91643 0
M  V30 33966 H 3148.56 4.18595 -0.752191 0
M  V30 33967 N 3146.87 0.587281 1.46249 0
M  V30 33968 C 3148.12 0.0746102 2.02363 0
M  V30 33969 C 3148.45 -1.2871 1.45822 0
M  V30 33970 O 3147.7 -1.85787 0.614955 0
M  V30 33971 C 3148 -0.0362652 3.57382 0
M  V30 33972 C 3147.67 1.25845 4.32983 0
M  V30 33973 C 3146.33 1.61314 4.53355 0
M  V30 33974 C 3148.68 2.11502 4.76357 0
M  V30 33975 C 3146.01 2.82232 5.14356 0
M  V30 33976 C 3148.36 3.31651 5.38693 0
M  V30 33977 C 3147.03 3.67397 5.57293 0
M  V30 33978 H 3146.3 0.0273018 0.740497 0
M  V30 33979 H 3148.94 0.764834 1.75563 0
M  V30 33980 H 3147.25 -0.809644 3.83343 0
M  V30 33981 H 3148.95 -0.448768 3.98481 0
M  V30 33982 H 3145.54 0.972324 4.17425 0
M  V30 33983 H 3149.72 1.85402 4.60369 0
M  V30 33984 H 3144.98 3.1006 5.26947 0
M  V30 33985 H 3149.15 3.9829 5.7126 0
M  V30 33986 H 3146.78 4.61183 6.04329 0
M  V30 33987 N 3148.35 -1.54206 0.325309 0
M  V30 33988 C 3149.76 -1.85992 -0.162393 0
M  V30 33989 C 3150.11 -1.24693 -1.5148 0
M  V30 33990 O 3149.24 -0.553615 -2.09199 0
M  V30 33991 C 3149.83 -3.37456 -0.301441 0
M  V30 33992 C 3148.39 -3.69187 -0.733365 0
M  V30 33993 C 3147.54 -2.76926 0.14388 0
M  V30 33994 H 3150.49 -1.49029 0.545534 0
M  V30 33995 H 3150.51 -3.6327 -1.13205 0
M  V30 33996 H 3150.02 -3.82043 0.683009 0
M  V30 33997 H 3148.13 -3.30134 -1.7275 0
M  V30 33998 H 3148.24 -4.76093 -0.535903 0
M  V30 33999 H 3146.6 -2.51837 -0.380848 0
M  V30 34000 H 3147.39 -3.24339 1.12513 0
M  V30 34001 N 3149.83 -0.0535194 -1.57509 0
M  V30 34002 C 3151.08 0.619738 -1.92784 0
M  V30 34003 C 3151.41 1.70712 -0.932076 0
M  V30 34004 O 3150.66 1.95622 0.0552547 0
M  V30 34005 C 3150.96 1.25245 -3.34736 0
M  V30 34006 C 3150.63 0.293034 -4.49947 0
M  V30 34007 C 3149.29 0.0290377 -4.81191 0
M  V30 34008 C 3151.64 -0.364363 -5.19925 0
M  V30 34009 C 3148.97 -0.899751 -5.7976 0
M  V30 34010 C 3151.32 -1.28136 -6.19487 0
M  V30 34011 C 3149.98 -1.554 -6.49159 0
M  V30 34012 H 3149.25 0.226778 -0.705445 0
M  V30 34013 H 3151.9 -0.120499 -1.91121 0
M  V30 34014 H 3150.21 2.06801 -3.32777 0
M  V30 34015 H 3151.9 1.78036 -3.59311 0
M  V30 34016 H 3148.49 0.508978 -4.25567 0
M  V30 34017 H 3152.68 -0.173499 -4.95997 0
M  V30 34018 H 3147.93 -1.11843 -6.01083 0
M  V30 34019 H 3152.11 -1.79681 -6.72821 0
M  V30 34020 H 3149.73 -2.27533 -7.2535 0
M  V30 34021 N 3151.31 1.56059 0.219886 0
M  V30 34022 C 3152.56 1.78347 0.942087 0
M  V30 34023 C 3152.87 0.622377 1.85434 0
M  V30 34024 O 3154.08 0.728932 2.61532 0
M  V30 34025 C 3152.53 3.15846 1.72538 0
M  V30 34026 C 3152.14 4.39684 0.859186 0
M  V30 34027 C 3153.89 3.47459 2.4387 0
M  V30 34028 C 3151.79 5.68208 1.63993 0
M  V30 34029 H 3150.72 0.664932 0.355502 0
M  V30 34030 H 3153.37 1.82451 0.195931 0
M  V30 34031 H 3151.76 3.05922 2.51451 0
M  V30 34032 H 3152.93 4.60668 0.110481 0
M  V30 34033 H 3151.24 4.156 0.257912 0
M  V30 34034 H 3153.84 4.40709 3.02787 0
M  V30 34035 H 3154.18 2.70036 3.16838 0
M  V30 34036 H 3154.72 3.58719 1.71946 0
M  V30 34037 H 3151.46 6.48528 0.953492 0
M  V30 34038 H 3150.98 5.51283 2.3632 0
M  V30 34039 H 3152.66 6.08442 2.20017 0
M  V30 34040 N 3152.79 -0.486655 1.49898 0
M  V30 34041 C 3154.01 -1.2682 1.64108 0
M  V30 34042 C 3154.44 -1.85392 0.317999 0
M  V30 34043 O 3153.8 -1.66553 -0.716231 0
M  V30 34044 C 3153.84 -2.36394 2.72305 0
M  V30 34045 O 3152.95 -3.4063 2.32475 0
M  V30 34046 H 3152.29 -0.373783 0.548801 0
M  V30 34047 H 3154.82 -0.580983 1.96178 0
M  V30 34048 H 3154.83 -2.81943 2.94911 0
M  V30 34049 H 3153.5 -1.93131 3.68338 0
M  V30 34050 H 3152.08 -3.00901 2.20257 0
M  V30 34051 N 3154.27 -1.39214 -0.738737 0
M  V30 34052 C 3155.21 -1.37635 -1.85271 0
M  V30 34053 C 3156.18 -0.236601 -1.64406 0
M  V30 34054 O 3157.37 -0.431136 -1.85865 0
M  V30 34055 C 3154.51 -1.22193 -3.22743 0
M  V30 34056 C 3153.62 -2.45681 -3.55338 0
M  V30 34057 C 3152.76 -2.22856 -4.82192 0
M  V30 34058 C 3151.79 -3.42038 -5.07619 0
M  V30 34059 N 3150.93 -3.18554 -6.25674 0
M  V30 34060 H 3155.77 -2.32862 -1.85955 0
M  V30 34061 H 3153.31 -1.15677 -0.908696 0
M  V30 34062 H 3155.27 -1.11253 -4.02093 0
M  V30 34063 H 3153.9 -0.305977 -3.21347 0
M  V30 34064 H 3152.95 -2.67238 -2.70717 0
M  V30 34065 H 3154.26 -3.34463 -3.70048 0
M  V30 34066 H 3153.41 -2.09136 -5.69515 0
M  V30 34067 H 3152.15 -1.31462 -4.69648 0
M  V30 34068 H 3151.16 -3.5626 -4.18759 0
M  V30 34069 H 3152.38 -4.34328 -5.2205 0
M  V30 34070 H 3150.33 -2.29821 -6.14425 0
M  V30 34071 H 3150.25 -4.00892 -6.40954 0
M  V30 34072 H 3151.51 -3.0852 -7.15846 0
M  V30 34073 N 3155.74 0.968523 -1.24328 0
M  V30 34074 C 3156.71 2.04452 -1.03595 0
M  V30 34075 C 3157.71 1.60799 0.00645263 0
M  V30 34076 O 3158.9 1.72615 -0.234434 0
M  V30 34077 C 3156.03 3.36101 -0.569979 0
M  V30 34078 H 3157.22 2.24279 -1.99096 0
M  V30 34079 H 3154.77 1.14364 -1.06539 0
M  V30 34080 H 3155.51 3.21967 0.388268 0
M  V30 34081 H 3155.29 3.6913 -1.32233 0
M  V30 34082 H 3156.78 4.15212 -0.445927 0
M  V30 34083 N 3157.22 1.0569 1.16908 0
M  V30 34084 C 3158.15 0.683442 2.23274 0
M  V30 34085 C 3159.13 -0.321176 1.6704 0
M  V30 34086 O 3160.32 -0.197657 1.93192 0
M  V30 34087 C 3157.45 0.0626616 3.47243 0
M  V30 34088 C 3156.4 0.992586 4.16331 0
M  V30 34089 C 3155.73 0.235424 5.34181 0
M  V30 34090 C 3157.03 2.31894 4.67998 0
M  V30 34091 H 3158.72 1.57269 2.54768 0
M  V30 34092 H 3156.27 0.757627 1.22458 0
M  V30 34093 H 3158.22 -0.210429 4.20874 0
M  V30 34094 H 3156.94 -0.861561 3.15031 0
M  V30 34095 H 3155.6 1.25032 3.44619 0
M  V30 34096 H 3155.25 -0.691722 4.98221 0
M  V30 34097 H 3154.95 0.855104 5.81345 0
M  V30 34098 H 3156.48 -0.0302644 6.10592 0
M  V30 34099 H 3157.89 2.10541 5.33241 0
M  V30 34100 H 3156.29 2.89305 5.25759 0
M  V30 34101 H 3157.36 2.95398 3.84536 0
M  V30 34102 N 3158.7 -1.33435 0.838617 0
M  V30 34103 C 3159.65 -2.3114 0.260198 0
M  V30 34104 C 3160.64 -1.58125 -0.607678 0
M  V30 34105 O 3161.85 -1.72995 -0.497268 0
M  V30 34106 H 3158.22 -0.749149 0.0654163 0
M  V30 34107 H 3160.19 -2.77433 1.09879 0
M  V30 34108 C 3158.94 -3.4332 -0.550174 0
M  V30 34109 H 3158.27 -3.99653 0.108332 0
M  V30 34110 H 3159.71 -4.13882 -0.920742 0
M  V30 34111 C 3158.16 -2.89152 -1.72895 0
M  V30 34112 O 3158.69 -2.8532 -2.82764 0
M  V30 34113 N 3156.9 -2.45764 -1.55076 0
M  V30 34114 H 3156.45 -2.49081 -0.657011 0
M  V30 34115 H 3156.41 -2.09874 -2.34095 0
M  V30 34116 N 3160.18 -0.595029 -1.45935 0
M  V30 34117 C 3161.11 0.118669 -2.33198 0
M  V30 34118 C 3162.09 0.871398 -1.46084 0
M  V30 34119 O 3163.27 0.84443 -1.7488 0
M  V30 34120 C 3160.4 1.12489 -3.28578 0
M  V30 34121 C 3159.36 0.4862 -4.25229 0
M  V30 34122 C 3158.68 1.59977 -5.10207 0
M  V30 34123 C 3159.98 -0.584564 -5.19018 0
M  V30 34124 H 3161.68 -0.609938 -2.93121 0
M  V30 34125 H 3159.22 -0.294766 -1.40951 0
M  V30 34126 H 3161.18 1.63264 -3.88488 0
M  V30 34127 H 3159.9 1.88393 -2.66788 0
M  V30 34128 H 3158.56 -0.000572401 -3.666 0
M  V30 34129 H 3158.21 2.34878 -4.44793 0
M  V30 34130 H 3157.91 1.178 -5.75671 0
M  V30 34131 H 3159.43 2.11004 -5.72983 0
M  V30 34132 H 3160.85 -0.161398 -5.73073 0
M  V30 34133 H 3159.24 -0.927361 -5.92891 0
M  V30 34134 H 3160.31 -1.46609 -4.62205 0
M  V30 34135 N 3161.66 1.54031 -0.333483 0
M  V30 34136 C 3162.6 2.26164 0.543374 0
M  V30 34137 C 3163.6 1.27936 1.11034 0
M  V30 34138 O 3164.8 1.45679 1.05724 0
M  V30 34139 H 3161.18 0.726573 0.193897 0
M  V30 34140 H 3163.15 2.98273 -0.0871576 0
M  V30 34141 C 3161.9 3.03997 1.68764 0
M  V30 34142 H 3161.22 3.79405 1.26063 0
M  V30 34143 H 3162.66 3.57699 2.27656 0
M  V30 34144 C 3161.12 2.12889 2.61113 0
M  V30 34145 O 3161.65 1.7183 3.63094 0
M  V30 34146 N 3159.86 1.78174 2.2957 0
M  V30 34147 H 3159.4 2.11761 1.4668 0
M  V30 34148 H 3159.36 1.17495 2.9162 0
M  V30 34149 N 3163.13 0.0618717 1.57479 0
M  V30 34150 C 3164.38 -0.609506 1.93109 0
M  V30 34151 C 3164.71 -1.70215 0.941116 0
M  V30 34152 O 3163.96 -1.95649 -0.0448796 0
M  V30 34153 C 3164.26 -1.23468 3.35396 0
M  V30 34154 C 3163.93 -0.269168 4.50096 0
M  V30 34155 C 3162.59 -0.00351858 4.812 0
M  V30 34156 C 3164.94 0.391931 5.19724 0
M  V30 34157 C 3162.27 0.930484 5.79274 0
M  V30 34158 C 3164.62 1.31419 6.18799 0
M  V30 34159 C 3163.29 1.58841 6.48325 0
M  V30 34160 H 3162.56 -0.223034 0.706638 0
M  V30 34161 H 3165.2 0.130633 1.91054 0
M  V30 34162 H 3163.51 -2.05033 3.33869 0
M  V30 34163 H 3165.21 -1.76128 3.6025 0
M  V30 34164 H 3161.8 -0.486402 4.25831 0
M  V30 34165 H 3165.98 0.1998 4.95898 0
M  V30 34166 H 3161.24 1.15029 6.00482 0
M  V30 34167 H 3165.41 1.83246 6.71858 0
M  V30 34168 H 3163.04 2.31376 7.24133 0
M  V30 34169 N 3164.61 -1.56173 -0.211607 0
M  V30 34170 C 3165.86 -1.78844 -0.932616 0
M  V30 34171 C 3166.17 -0.632202 -1.85101 0
M  V30 34172 O 3167.38 -0.742792 -2.61141 0
M  V30 34173 C 3165.84 -3.16756 -1.70861 0
M  V30 34174 C 3165.44 -4.40133 -0.835856 0
M  V30 34175 C 3167.19 -3.48747 -2.42024 0
M  V30 34176 C 3165.1 -5.6907 -1.60977 0
M  V30 34177 H 3164.03 -0.666808 -0.351971 0
M  V30 34178 H 3166.68 -1.82552 -0.186252 0
M  V30 34179 H 3165.06 -3.07252 -2.49825 0
M  V30 34180 H 3166.23 -4.6072 -0.0860489 0
M  V30 34181 H 3164.55 -4.15731 -0.235868 0
M  V30 34182 H 3167.14 -4.42308 -3.00445 0
M  V30 34183 H 3167.49 -2.71712 -3.15402 0
M  V30 34184 H 3168.02 -3.59626 -1.70041 0
M  V30 34185 H 3164.76 -6.49025 -0.919085 0
M  V30 34186 H 3164.28 -5.52528 -2.33393 0
M  V30 34187 H 3165.96 -6.096 -2.16787 0
M  V30 34188 N 3166.09 0.478699 -1.50154 0
M  V30 34189 C 3167.37 1.23996 -1.51276 0
M  V30 34190 C 3167.75 2.09577 -0.253085 0
M  V30 34191 O 3167.1 2.15357 0.763789 0
M  V30 34192 C 3167.31 2.07754 -2.80427 0
M  V30 34193 C 3168.65 2.66199 -3.30792 0
M  V30 34194 O 3169.68 2.18003 -2.81697 0
M  V30 34195 O 3168.54 3.53992 -4.16356 0
M  V30 34196 H 3165.63 0.562273 -0.606447 0
M  V30 34197 H 3168.18 0.491142 -1.62437 0
M  V30 34198 H 3166.95 1.44639 -3.63587 0
M  V30 34199 H 3166.57 2.89785 -2.72233 0
M  V30 34200 N 3167.57 1.39603 0.731343 0
M  V30 34201 C 3168.5 1.41355 1.85852 0
M  V30 34202 C 3169.48 0.27643 1.67839 0
M  V30 34203 O 3170.66 0.48278 1.88103 0
M  V30 34204 C 3167.79 1.25989 3.23642 0
M  V30 34205 C 3166.75 2.37138 3.563 0
M  V30 34206 C 3166.07 2.06859 4.93065 0
M  V30 34207 C 3167.37 3.79458 3.589 0
M  V30 34208 H 3169.07 2.35684 1.84644 0
M  V30 34209 H 3166.61 1.13444 0.886935 0
M  V30 34210 H 3168.57 1.25834 4.02174 0
M  V30 34211 H 3167.29 0.281292 3.25386 0
M  V30 34212 H 3165.95 2.36516 2.80099 0
M  V30 34213 H 3165.6 1.07429 4.91394 0
M  V30 34214 H 3165.3 2.81315 5.15883 0
M  V30 34215 H 3166.82 2.0836 5.7395 0
M  V30 34216 H 3168.24 3.81989 4.27501 0
M  V30 34217 H 3166.63 4.53304 3.93238 0
M  V30 34218 H 3167.7 4.10173 2.58624 0
M  V30 34219 N 3169.05 -0.961916 1.2484 0
M  V30 34220 C 3170.01 -2.039 1.04677 0
M  V30 34221 C 3171.01 -1.608 0.002075 0
M  V30 34222 O 3172.2 -1.72489 0.243585 0
M  V30 34223 C 3169.33 -3.35794 0.587795 0
M  V30 34224 H 3170.52 -2.2322 2.00282 0
M  V30 34225 H 3168.08 -1.13798 1.07144 0
M  V30 34226 H 3168.81 -3.22169 -0.371188 0
M  V30 34227 H 3168.6 -3.68423 1.34189 0
M  V30 34228 H 3170.09 -4.1497 0.46794 0
M  V30 34229 N 3170.52 -1.06308 -1.16346 0
M  V30 34230 C 3171.75 -0.800647 -1.90781 0
M  V30 34231 C 3172.17 0.645002 -1.77441 0
M  V30 34232 O 3171.52 1.44158 -1.11914 0
M  V30 34233 C 3171.58 -1.18627 -3.41482 0
M  V30 34234 O 3171.3 -2.57519 -3.54423 0
M  V30 34235 C 3172.8 -0.951601 -4.32966 0
M  V30 34236 H 3170.02 -0.290258 -0.604972 0
M  V30 34237 H 3172.56 -1.41675 -1.47474 0
M  V30 34238 H 3170.72 -0.6147 -3.82492 0
M  V30 34239 H 3171.13 -2.72962 -4.47875 0
M  V30 34240 H 3172.6 -1.27105 -5.37167 0
M  V30 34241 H 3173.08 0.112657 -4.39055 0
M  V30 34242 H 3173.69 -1.50756 -3.97684 0
M  V30 34243 N 3172 1.32989 -0.845682 0
M  V30 34244 C 3173.42 1.50389 -0.534356 0
M  V30 34245 C 3173.62 1.78394 0.936908 0
M  V30 34246 O 3172.67 1.84821 1.72039 0
M  V30 34247 C 3173.99 2.65402 -1.41359 0
M  V30 34248 C 3175.54 2.79287 -1.41308 0
M  V30 34249 C 3176.01 3.97369 -2.27731 0
M  V30 34250 N 3177.5 4.04616 -2.25478 0
M  V30 34251 C 3178.24 4.95196 -2.89082 0
M  V30 34252 N 3177.73 5.90845 -3.61765 0
M  V30 34253 N 3179.53 4.88247 -2.78517 0
M  V30 34254 H 3171.68 1.13075 -1.798 0
M  V30 34255 H 3173.94 0.556511 -0.767463 0
M  V30 34256 H 3173.65 2.51409 -2.4594 0
M  V30 34257 H 3173.52 3.60971 -1.09452 0
M  V30 34258 H 3175.91 2.92708 -0.37495 0
M  V30 34259 H 3175.99 1.84458 -1.77225 0
M  V30 34260 H 3175.63 3.84707 -3.31606 0
M  V30 34261 H 3175.56 4.91456 -1.89151 0
M  V30 34262 H 3178.05 3.36167 -1.72628 0
M  V30 34263 H 3178.37 6.56639 -4.07486 0
M  V30 34264 H 3176.71 5.90899 -3.65873 0
M  V30 34265 H 3179.9 4.12489 -2.21292 0
M  V30 34266 H 3180.07 5.58639 -3.2837 0
M  V30 34267 N 3173.48 0.60276 1.45618 0
M  V30 34268 C 3174.73 0.0936749 2.01482 0
M  V30 34269 C 3175.04 -1.28171 1.47755 0
M  V30 34270 O 3176.25 -1.88325 1.95565 0
M  V30 34271 C 3174.7 0.116801 3.5971 0
M  V30 34272 C 3174.31 1.49174 4.22435 0
M  V30 34273 C 3176.06 -0.337294 4.23158 0
M  V30 34274 C 3173.96 1.47151 5.72801 0
M  V30 34275 H 3172.89 0.0312514 0.753352 0
M  V30 34276 H 3175.54 0.757377 1.67141 0
M  V30 34277 H 3173.93 -0.61346 3.91219 0
M  V30 34278 H 3175.1 2.24332 4.02507 0
M  V30 34279 H 3173.42 1.88752 3.71162 0
M  V30 34280 H 3176.01 -0.371534 5.33408 0
M  V30 34281 H 3176.36 -1.35899 3.93493 0
M  V30 34282 H 3176.89 0.339544 3.96348 0
M  V30 34283 H 3173.63 2.47065 6.07156 0
M  V30 34284 H 3173.15 0.762433 5.94934 0
M  V30 34285 H 3174.83 1.19306 6.35905 0
M  V30 34286 N 3174.96 -1.53852 0.341647 0
M  V30 34287 C 3175.89 -2.27898 -0.508391 0
M  V30 34288 C 3176.87 -1.29386 -1.10423 0
M  V30 34289 O 3178.05 -1.58226 -1.12597 0
M  V30 34290 C 3175.18 -3.05036 -1.66042 0
M  V30 34291 C 3174.14 -4.11037 -1.19302 0
M  V30 34292 C 3173.46 -4.76119 -2.43342 0
M  V30 34293 C 3174.76 -5.21467 -0.29486 0
M  V30 34294 H 3176.46 -2.992 0.109304 0
M  V30 34295 H 3174 -1.43899 0.05401 0
M  V30 34296 H 3175.96 -3.55574 -2.26152 0
M  V30 34297 H 3174.68 -2.31383 -2.30499 0
M  V30 34298 H 3173.34 -3.61409 -0.614745 0
M  V30 34299 H 3172.99 -3.99061 -3.06201 0
M  V30 34300 H 3172.69 -5.47733 -2.12751 0
M  V30 34301 H 3174.21 -5.29439 -3.04181 0
M  V30 34302 H 3175.63 -5.67652 -0.80275 0
M  V30 34303 H 3174.02 -6.00045 -0.0809166 0
M  V30 34304 H 3175.09 -4.80256 0.669517 0
M  V30 34305 N 3176.44 -0.0702223 -1.57443 0
M  V30 34306 C 3177.37 0.933484 -2.08234 0
M  V30 34307 C 3178.35 1.2921 -0.987096 0
M  V30 34308 O 3179.53 1.40167 -1.26037 0
M  V30 34309 C 3176.66 2.24205 -2.5387 0
M  V30 34310 C 3175.7 2.03512 -3.74814 0
M  V30 34311 S 3176.54 1.29592 -5.19583 0
M  V30 34312 C 3177.69 2.61732 -5.68549 0
M  V30 34313 H 3177.93 0.501303 -2.93043 0
M  V30 34314 H 3175.46 0.142506 -1.53741 0
M  V30 34315 H 3177.42 2.99414 -2.80823 0
M  V30 34316 H 3176.08 2.64548 -1.69331 0
M  V30 34317 H 3175.27 3.00351 -4.04729 0
M  V30 34318 H 3174.87 1.36439 -3.48225 0
M  V30 34319 H 3177.17 3.57826 -5.75297 0
M  V30 34320 H 3178.11 2.36428 -6.67463 0
M  V30 34321 H 3178.52 2.68864 -4.96359 0
M  V30 34322 N 3177.91 1.56283 0.203321 0
M  V30 34323 C 3179.16 1.79784 0.923151 0
M  V30 34324 C 3179.48 0.641882 1.84133 0
M  V30 34325 O 3178.75 -0.340259 1.92922 0
M  V30 34326 H 3177.33 0.663146 0.34387 0
M  V30 34327 H 3180 1.93757 0.210803 0
M  V30 34328 H 3179.09 2.72631 1.51916 0
M  V30 34329 N 3179.39 -0.470729 1.50406 0
M  V30 34330 C 3180.62 -1.24425 1.64931 0
M  V30 34331 C 3181.03 -1.86261 0.332172 0
M  V30 34332 O 3180.37 -1.70009 -0.695889 0
M  V30 34333 C 3180.44 -2.39288 2.68294 0
M  V30 34334 C 3180.1 -1.98086 4.11839 0
M  V30 34335 C 3181.1 -1.50317 4.97695 0
M  V30 34336 C 3178.78 -2.06795 4.57756 0
M  V30 34337 C 3180.78 -1.11802 6.27518 0
M  V30 34338 C 3178.46 -1.67891 5.87585 0
M  V30 34339 C 3179.46 -1.20473 6.72291 0
M  V30 34340 O 3179.15 -0.821078 7.99696 0
M  V30 34341 H 3178.88 -0.382432 0.557424 0
M  V30 34342 H 3181.44 -0.568257 1.97383 0
M  V30 34343 H 3179.67 -3.10059 2.31085 0
M  V30 34344 H 3181.35 -3.0125 2.72035 0
M  V30 34345 H 3182.12 -1.4301 4.63436 0
M  V30 34346 H 3178 -2.42653 3.9197 0
M  V30 34347 H 3181.54 -0.747195 6.93587 0
M  V30 34348 H 3177.44 -1.74858 6.21365 0
M  V30 34349 H 3178.21 -0.949895 8.12969 0
M  V30 34350 N 3180.87 -1.39989 -0.72393 0
M  V30 34351 C 3182.15 -1.28318 -1.47627 0
M  V30 34352 C 3182.53 0.102265 -2.10852 0
M  V30 34353 O 3181.88 1.11441 -1.99482 0
M  V30 34354 C 3182.09 -2.41579 -2.51874 0
M  V30 34355 C 3183.43 -2.8142 -3.17943 0
M  V30 34356 O 3184.46 -2.4111 -2.62191 0
M  V30 34357 O 3183.32 -3.51035 -4.18852 0
M  V30 34358 H 3180.41 -0.503471 -0.656084 0
M  V30 34359 H 3182.96 -1.5189 -0.756813 0
M  V30 34360 H 3181.73 -3.34152 -2.03612 0
M  V30 34361 H 3181.35 -2.19733 -3.31366 0
M  V30 34362 N 3182.35 0.955282 -1.25348 0
M  V30 34363 C 3183.6 1.70233 -1.10221 0
M  V30 34364 C 3183.93 1.90907 0.356091 0
M  V30 34365 O 3183.2 1.47956 1.26251 0
M  V30 34366 C 3183.49 3.08565 -1.85632 0
M  V30 34367 C 3183.34 2.95305 -3.39286 0
M  V30 34368 C 3184.66 4.08445 -1.63893 0
M  V30 34369 H 3181.78 0.617845 -0.401791 0
M  V30 34370 H 3184.42 1.11046 -1.54172 0
M  V30 34371 H 3182.57 3.59091 -1.48276 0
M  V30 34372 H 3184.24 2.5211 -3.86314 0
M  V30 34373 H 3182.48 2.31238 -3.67031 0
M  V30 34374 H 3183.16 3.93357 -3.87265 0
M  V30 34375 H 3185.63 3.66826 -1.96412 0
M  V30 34376 H 3184.51 5.03278 -2.19095 0
M  V30 34377 H 3184.77 4.38278 -0.580098 0
M  V30 34378 N 3183.83 1.06924 1.1578 0
M  V30 34379 C 3184.77 0.685698 2.20379 0
M  V30 34380 C 3185.74 -0.320787 1.62973 0
M  V30 34381 O 3186.93 -0.208224 1.8966 0
M  V30 34382 C 3184.07 0.0850586 3.44995 0
M  V30 34383 C 3183.18 1.14249 4.16619 0
M  V30 34384 C 3182.32 0.507319 5.28772 0
M  V30 34385 C 3181.36 1.54784 5.92206 0
M  V30 34386 N 3180.49 0.935566 6.95839 0
M  V30 34387 H 3185.33 1.58205 2.52537 0
M  V30 34388 H 3182.87 0.790886 1.2403 0
M  V30 34389 H 3184.83 -0.280772 4.16254 0
M  V30 34390 H 3183.46 -0.77467 3.13367 0
M  V30 34391 H 3182.51 1.62595 3.439 0
M  V30 34392 H 3183.82 1.93162 4.5988 0
M  V30 34393 H 3182.98 0.0888785 6.06635 0
M  V30 34394 H 3181.72 -0.313618 4.86691 0
M  V30 34395 H 3180.72 1.97611 5.13059 0
M  V30 34396 H 3181.95 2.37099 6.36365 0
M  V30 34397 H 3179.89 0.135455 6.5586 0
M  V30 34398 H 3179.81 1.66199 7.37505 0
M  V30 34399 H 3181.08 0.542483 7.7761 0
M  V30 34400 N 3185.31 -1.32538 0.852723 0
M  V30 34401 C 3186.72 -1.79598 0.510043 0
M  V30 34402 C 3187.07 -1.70432 -0.971972 0
M  V30 34403 O 3186.19 -1.26176 -1.75808 0
M  V30 34404 C 3186.79 -3.26097 0.919043 0
M  V30 34405 C 3185.35 -3.71119 0.628292 0
M  V30 34406 C 3184.49 -2.53683 1.11984 0
M  V30 34407 H 3187.44 -1.19864 1.04011 0
M  V30 34408 H 3187.47 -3.79776 0.234644 0
M  V30 34409 H 3186.98 -3.32736 1.99771 0
M  V30 34410 H 3185.08 -3.69996 -0.439735 0
M  V30 34411 H 3185.19 -4.64003 1.19323 0
M  V30 34412 H 3183.56 -2.48906 0.540176 0
M  V30 34413 H 3184.34 -2.63077 2.20557 0
M  V30 34414 N 3186.78 -0.610474 -1.45296 0
M  V30 34415 C 3188.03 -0.104359 -2.0143 0
M  V30 34416 C 3188.35 1.27386 -1.48433 0
M  V30 34417 O 3189.55 1.87286 -1.96561 0
M  V30 34418 C 3188.01 -0.135876 -3.59643 0
M  V30 34419 C 3187.62 -1.51412 -4.21638 0
M  V30 34420 C 3189.36 0.314848 -4.23331 0
M  V30 34421 C 3187.27 -1.50186 -5.72012 0
M  V30 34422 H 3186.2 -0.0352462 -0.753176 0
M  V30 34423 H 3188.85 -0.76623 -1.66737 0
M  V30 34424 H 3187.23 0.592704 -3.91539 0
M  V30 34425 H 3188.4 -2.26464 -4.01311 0
M  V30 34426 H 3186.72 -1.90718 -3.70156 0
M  V30 34427 H 3189.32 0.343241 -5.33597 0
M  V30 34428 H 3189.66 1.33811 -3.94209 0
M  V30 34429 H 3190.19 -0.360558 -3.96163 0
M  V30 34430 H 3186.93 -2.50282 -6.05838 0
M  V30 34431 H 3186.45 -0.793973 -5.94522 0
M  V30 34432 H 3188.13 -1.22676 -6.35263 0
M  V30 34433 N 3188.26 1.53669 -0.349801 0
M  V30 34434 C 3189.21 2.26728 0.519356 0
M  V30 34435 C 3190.2 1.29107 1.09671 0
M  V30 34436 O 3191.41 1.46792 1.04173 0
M  V30 34437 H 3187.78 0.728588 0.18618 0
M  V30 34438 H 3189.76 2.98163 -0.118789 0
M  V30 34439 C 3188.5 3.0577 1.6553 0
M  V30 34440 H 3187.83 3.80721 1.22031 0
M  V30 34441 H 3189.27 3.60094 2.23849 0
M  V30 34442 C 3187.73 2.15646 2.5884 0
M  V30 34443 O 3188.26 1.75671 3.61251 0
M  V30 34444 N 3186.46 1.80599 2.27667 0
M  V30 34445 H 3186.01 2.13305 1.44426 0
M  V30 34446 H 3185.97 1.20582 2.90357 0
M  V30 34447 N 3189.74 0.0785709 1.57404 0
M  V30 34448 C 3190.99 -0.588592 1.92921 0
M  V30 34449 C 3191.3 -1.70357 0.961136 0
M  V30 34450 O 3192.51 -2.43076 1.20938 0
M  V30 34451 C 3190.96 -1.09833 3.42731 0
M  V30 34452 C 3190.57 -0.0139985 4.47998 0
M  V30 34453 C 3192.32 -1.73917 3.87238 0
M  V30 34454 C 3190.22 -0.538166 5.88946 0
M  V30 34455 H 3189.15 -0.223632 0.720073 0
M  V30 34456 H 3191.8 0.151902 1.8287 0
M  V30 34457 H 3190.19 -1.892 3.47878 0
M  V30 34458 H 3191.36 0.760853 4.54475 0
M  V30 34459 H 3189.67 0.531023 4.13 0
M  V30 34460 H 3192.27 -2.14178 4.89931 0
M  V30 34461 H 3192.61 -2.60185 3.24976 0
M  V30 34462 H 3193.15 -1.01161 3.84722 0
M  V30 34463 H 3189.89 0.287511 6.54869 0
M  V30 34464 H 3189.41 -1.28039 5.85974 0
M  V30 34465 H 3191.09 -1.01242 6.3903 0
M  V30 34466 N 3191.22 -1.56389 -0.19503 0
M  V30 34467 C 3192.44 -1.85092 -0.935713 0
M  V30 34468 C 3192.87 -0.662149 -1.7606 0
M  V30 34469 O 3192.23 0.389052 -1.77076 0
M  V30 34470 C 3192.27 -3.12023 -1.80759 0
M  V30 34471 O 3191.38 -2.9258 -2.90638 0
M  V30 34472 H 3190.72 -0.609478 -0.2635 0
M  V30 34473 H 3193.25 -2.03617 -0.200326 0
M  V30 34474 H 3193.26 -3.42818 -2.21223 0
M  V30 34475 H 3191.93 -3.98167 -1.2015 0
M  V30 34476 H 3190.51 -2.73083 -2.53929 0
M  V30 34477 N 3192.7 0.462746 -1.50653 0
M  V30 34478 C 3193.63 1.56757 -1.73059 0
M  V30 34479 C 3194.61 1.59916 -0.579727 0
M  V30 34480 O 3195.79 1.7605 -0.81976 0
M  V30 34481 C 3192.92 2.95027 -1.83239 0
M  V30 34482 C 3191.88 3.06734 -2.98494 0
M  V30 34483 C 3191.2 4.46733 -2.93826 0
M  V30 34484 C 3192.5 2.83173 -4.38874 0
M  V30 34485 H 3194.2 1.3826 -2.65565 0
M  V30 34486 H 3191.74 0.6637 -1.27793 0
M  V30 34487 H 3193.69 3.72254 -1.97497 0
M  V30 34488 H 3192.42 3.14699 -0.873613 0
M  V30 34489 H 3191.08 2.31941 -2.83899 0
M  V30 34490 H 3190.73 4.63336 -1.95777 0
M  V30 34491 H 3190.43 4.555 -3.71205 0
M  V30 34492 H 3191.95 5.25968 -3.10144 0
M  V30 34493 H 3193.36 3.50145 -4.53951 0
M  V30 34494 H 3191.76 3.03377 -5.17767 0
M  V30 34495 H 3192.83 1.78964 -4.50666 0
M  V30 34496 N 3194.17 1.40371 0.716495 0
M  V30 34497 C 3195.42 1.37905 1.47191 0
M  V30 34498 C 3195.74 -0.0159595 1.95593 0
M  V30 34499 O 3196.94 -0.163234 2.71009 0
M  V30 34500 C 3195.4 2.42368 2.66056 0
M  V30 34501 C 3195.01 3.87675 2.24526 0
M  V30 34502 C 3196.75 2.49007 3.43796 0
M  V30 34503 C 3194.66 4.83736 3.40225 0
M  V30 34504 H 3193.59 0.512763 0.552802 0
M  V30 34505 H 3196.24 1.66103 0.779865 0
M  V30 34506 H 3194.62 2.07268 3.37426 0
M  V30 34507 H 3195.79 4.31914 1.60582 0
M  V30 34508 H 3194.11 3.84503 1.59833 0
M  V30 34509 H 3196.71 3.17964 4.29887 0
M  V30 34510 H 3197.05 1.5203 3.87547 0
M  V30 34511 H 3197.58 2.83093 2.79469 0
M  V30 34512 H 3194.32 5.82043 3.01507 0
M  V30 34513 H 3193.84 4.44163 4.03088 0
M  V30 34514 H 3195.52 5.03514 4.06303 0
M  V30 34515 N 3195.65 -0.948621 1.25853 0
M  V30 34516 C 3196.93 -1.6707 1.0172 0
M  V30 34517 C 3197.31 -2.06145 -0.454713 0
M  V30 34518 O 3196.66 -1.77948 -1.43342 0
M  V30 34519 C 3196.87 -2.88848 1.95877 0
M  V30 34520 C 3198.22 -3.60667 2.24064 0
M  V30 34521 O 3199.24 -2.9894 1.93683 0
M  V30 34522 O 3198.1 -4.71829 2.75754 0
M  V30 34523 H 3195.19 -0.73128 0.38621 0
M  V30 34524 H 3197.74 -1.00101 1.37032 0
M  V30 34525 H 3196.51 -2.56809 2.95237 0
M  V30 34526 H 3196.13 -3.63545 1.60998 0
M  V30 34527 N 3197.13 -1.07536 -1.15212 0
M  V30 34528 C 3198.06 -0.718876 -2.22159 0
M  V30 34529 C 3199.04 0.294561 -1.6753 0
M  V30 34530 O 3200.23 0.166897 -1.93482 0
M  V30 34531 C 3197.36 -0.117897 -3.471 0
M  V30 34532 C 3196.31 -1.0587 -4.14699 0
M  V30 34533 C 3195.64 -0.320378 -5.33739 0
M  V30 34534 C 3196.94 -2.39311 -4.6425 0
M  V30 34535 H 3198.63 -1.61302 -2.52234 0
M  V30 34536 H 3196.18 -0.777014 -1.21237 0
M  V30 34537 H 3198.13 0.143445 -4.21156 0
M  V30 34538 H 3196.85 0.811333 -3.16362 0
M  V30 34539 H 3195.51 -1.30499 -3.42587 0
M  V30 34540 H 3195.16 0.612372 -4.99258 0
M  V30 34541 H 3194.86 -0.947483 -5.79911 0
M  V30 34542 H 3196.38 -0.0668794 -6.10563 0
M  V30 34543 H 3197.8 -2.18997 -5.29824 0
M  V30 34544 H 3196.2 -2.97633 -5.2109 0
M  V30 34545 H 3197.27 -3.01478 -3.79788 0
M  V30 34546 N 3198.61 1.32084 -0.85974 0
M  V30 34547 C 3199.52 2.32528 -0.311121 0
M  V30 34548 C 3200.53 1.64271 0.573686 0
M  V30 34549 O 3201.71 1.95771 0.472843 0
M  V30 34550 C 3198.78 3.4326 0.487196 0
M  V30 34551 C 3197.84 4.27198 -0.424354 0
M  V30 34552 C 3197.07 5.32642 0.335957 0
M  V30 34553 O 3197.29 5.48502 1.56531 0
M  V30 34554 O 3196.23 6.01147 -0.300882 0
M  V30 34555 H 3200.05 2.81353 -1.14341 0
M  V30 34556 H 3197.64 1.35799 -0.622818 0
M  V30 34557 H 3199.52 4.10779 0.940131 0
M  V30 34558 H 3198.19 2.96615 1.2962 0
M  V30 34559 H 3197.1 3.62469 -0.925573 0
M  V30 34560 H 3198.43 4.77381 -1.19868 0
M  V30 34561 N 3200.09 0.618171 1.4497 0
M  V30 34562 C 3201.32 0.124022 2.06227 0
M  V30 34563 C 3201.72 -1.20131 1.46168 0
M  V30 34564 O 3201.07 -1.74498 0.57413 0
M  V30 34565 C 3201.13 -0.0788466 3.59414 0
M  V30 34566 C 3200.79 1.16631 4.41867 0
M  V30 34567 C 3201.79 2.08698 4.76173 0
M  V30 34568 C 3199.48 1.3981 4.8245 0
M  V30 34569 C 3201.47 3.22263 5.49932 0
M  V30 34570 C 3199.16 2.53675 5.55961 0
M  V30 34571 C 3200.15 3.44729 5.89619 0
M  V30 34572 O 3199.84 4.5661 6.61636 0
M  V30 34573 H 3199.57 0.070894 0.672272 0
M  V30 34574 H 3202.13 0.848901 1.87037 0
M  V30 34575 H 3200.36 -0.858734 3.77045 0
M  V30 34576 H 3202.05 -0.52592 4.02478 0
M  V30 34577 H 3202.81 1.9202 4.45369 0
M  V30 34578 H 3198.69 0.698325 4.5568 0
M  V30 34579 H 3202.24 3.93357 5.76122 0
M  V30 34580 H 3198.13 2.70302 5.8618 0
M  V30 34581 H 3198.9 4.55426 6.80095 0
M  V30 34582 N 3201.56 -1.53481 0.357946 0
M  V30 34583 C 3202.79 -2.0556 -0.235104 0
M  V30 34584 C 3203.21 -1.23198 -1.43066 0
M  V30 34585 O 3202.56 -0.270773 -1.8048 0
M  V30 34586 C 3202.62 -3.5586 -0.636084 0
M  V30 34587 O 3202.34 -4.35099 0.51194 0
M  V30 34588 C 3203.84 -4.24166 -1.28833 0
M  V30 34589 H 3201.06 -0.669632 -0.0428328 0
M  V30 34590 H 3203.6 -1.97932 0.514105 0
M  V30 34591 H 3201.76 -3.63663 -1.33522 0
M  V30 34592 H 3202.17 -5.24158 0.18942 0
M  V30 34593 H 3203.64 -5.30673 -1.51953 0
M  V30 34594 H 3204.12 -3.77409 -2.24631 0
M  V30 34595 H 3204.73 -4.20595 -0.630841 0
M  V30 34596 N 3203.04 -0.0869173 -1.5736 0
M  V30 34597 C 3204.01 0.860402 -2.12438 0
M  V30 34598 C 3205.01 1.21632 -1.05177 0
M  V30 34599 O 3206.2 1.1471 -1.311 0
M  V30 34600 C 3203.33 2.15895 -2.63822 0
M  V30 34601 H 3204.52 0.382293 -2.97453 0
M  V30 34602 H 3202.07 0.161981 -1.55458 0
M  V30 34603 H 3202.81 2.68209 -1.82303 0
M  V30 34604 H 3202.59 1.91353 -3.42237 0
M  V30 34605 H 3204.08 2.8368 -3.06457 0
M  V30 34606 N 3204.52 1.5649 0.186734 0
M  V30 34607 C 3205.77 1.81379 0.907162 0
M  V30 34608 C 3206.1 0.662315 1.82557 0
M  V30 34609 O 3205.37 -0.336665 1.91564 0
M  V30 34610 C 3205.66 3.16574 1.71618 0
M  V30 34611 C 3205.51 4.42227 0.821931 0
M  V30 34612 C 3206.83 3.48547 2.68707 0
M  V30 34613 H 3203.95 0.659812 0.328355 0
M  V30 34614 H 3206.59 1.89201 0.174109 0
M  V30 34615 H 3204.74 3.10038 2.34113 0
M  V30 34616 H 3206.41 4.60817 0.211041 0
M  V30 34617 H 3204.66 4.33608 0.129102 0
M  V30 34618 H 3205.33 5.33339 1.42317 0
M  V30 34619 H 3207.8 3.55437 2.16341 0
M  V30 34620 H 3206.68 4.44248 3.2239 0
M  V30 34621 H 3206.94 2.72465 3.4816 0
M  V30 34622 N 3206 -0.45475 1.50897 0
M  V30 34623 C 3206.95 -1.55064 1.7095 0
M  V30 34624 C 3207.92 -1.56697 0.550926 0
M  V30 34625 O 3209.1 -1.73976 0.783382 0
M  V30 34626 C 3206.24 -2.9292 1.8246 0
M  V30 34627 C 3205.35 -3.0095 3.09924 0
M  V30 34628 C 3204.49 -4.29822 3.12132 0
M  V30 34629 C 3203.53 -4.31654 4.33983 0
M  V30 34630 N 3202.66 -5.52023 4.33838 0
M  V30 34631 H 3207.5 -1.37269 2.64502 0
M  V30 34632 H 3205.04 -0.667125 1.31102 0
M  V30 34633 H 3207 -3.72886 1.87115 0
M  V30 34634 H 3205.63 -3.09313 0.923325 0
M  V30 34635 H 3204.68 -2.13756 3.14663 0
M  V30 34636 H 3205.99 -2.98165 3.99874 0
M  V30 34637 H 3205.15 -5.18148 3.15607 0
M  V30 34638 H 3203.89 -4.35239 2.20041 0
M  V30 34639 H 3202.89 -3.41723 4.30703 0
M  V30 34640 H 3204.12 -4.27915 5.27319 0
M  V30 34641 H 3202.06 -5.58195 3.44608 0
M  V30 34642 H 3201.98 -5.51046 5.17576 0
M  V30 34643 H 3203.25 -6.42429 4.41481 0
M  V30 34644 N 3207.48 -1.40749 -0.709041 0
M  V30 34645 C 3208.44 -1.41275 -1.80482 0
M  V30 34646 C 3209.44 -0.305491 -1.57871 0
M  V30 34647 O 3210.63 -0.56472 -1.64792 0
M  V30 34648 C 3207.76 -1.21093 -3.18668 0
M  V30 34649 H 3208.95 -2.38809 -1.81412 0
M  V30 34650 H 3206.51 -1.26694 -0.915334 0
M  V30 34651 H 3207.24 -0.243462 -3.23385 0
M  V30 34652 H 3207.03 -2.01305 -3.3648 0
M  V30 34653 H 3208.52 -1.24264 -3.98683 0
M  V30 34654 N 3208.96 0.941933 -1.26354 0
M  V30 34655 C 3210.37 1.50285 -1.10776 0
M  V30 34656 C 3210.72 1.937 0.312194 0
M  V30 34657 O 3209.84 1.7984 1.20361 0
M  V30 34658 C 3210.44 2.7312 -2.00477 0
M  V30 34659 C 3209 3.25481 -1.89047 0
M  V30 34660 C 3208.14 1.98264 -1.93873 0
M  V30 34661 H 3211.09 0.757498 -1.39455 0
M  V30 34662 H 3211.12 3.47399 -1.55222 0
M  V30 34663 H 3210.63 2.4149 -3.03816 0
M  V30 34664 H 3208.73 3.61903 -0.886405 0
M  V30 34665 H 3208.84 3.92638 -2.74539 0
M  V30 34666 H 3207.21 2.14129 -1.37916 0
M  V30 34667 H 3207.99 1.68967 -2.9884 0
M  V30 34668 N 3210.43 1.08146 1.1464 0
M  V30 34669 C 3211.68 0.80447 1.84963 0
M  V30 34670 C 3212 -0.672074 1.83691 0
M  V30 34671 O 3213.2 -1.06413 2.49777 0
M  V30 34672 C 3211.66 1.3891 3.32012 0
M  V30 34673 C 3211.27 2.89724 3.41708 0
M  V30 34674 C 3213.01 1.19048 4.07465 0
M  V30 34675 C 3210.92 3.41337 4.82952 0
M  V30 34676 H 3209.85 0.297268 0.692927 0
M  V30 34677 H 3212.5 1.30254 1.29252 0
M  V30 34678 H 3210.88 0.818748 3.87444 0
M  V30 34679 H 3212.05 3.52872 2.96341 0
M  V30 34680 H 3210.37 3.08468 2.79708 0
M  V30 34681 H 3212.97 1.55078 5.11718 0
M  V30 34682 H 3213.31 0.1301 4.16097 0
M  V30 34683 H 3213.84 1.72763 3.58326 0
M  V30 34684 H 3210.58 4.46937 4.79507 0
M  V30 34685 H 3210.1 2.82946 5.28868 0
M  V30 34686 H 3211.78 3.37768 5.51835 0
M  V30 34687 N 3211.91 -1.31626 0.866732 0
M  V30 34688 C 3213.16 -1.96825 0.476061 0
M  V30 34689 C 3213.49 -1.68531 -0.970964 0
M  V30 34690 O 3212.74 -0.97258 -1.69822 0
M  V30 34691 C 3213.04 -3.50947 0.67608 0
M  V30 34692 C 3212.71 -3.99254 2.0954 0
M  V30 34693 C 3211.37 -4.12156 2.48356 0
M  V30 34694 C 3213.72 -4.24704 3.02119 0
M  V30 34695 C 3211.05 -4.47858 3.78999 0
M  V30 34696 C 3213.4 -4.61868 4.32274 0
M  V30 34697 C 3212.06 -4.72977 4.71009 0
M  V30 34698 H 3211.33 -0.720232 0.174203 0
M  V30 34699 H 3213.98 -1.56818 1.0991 0
M  V30 34700 H 3212.29 -3.91788 -0.0301178 0
M  V30 34701 H 3213.98 -3.99437 0.353675 0
M  V30 34702 H 3210.57 -3.89705 1.78403 0
M  V30 34703 H 3214.76 -4.14233 2.73358 0
M  V30 34704 H 3210.01 -4.54655 4.08777 0
M  V30 34705 H 3214.19 -4.80513 5.04064 0
M  V30 34706 H 3211.81 -5.00397 5.72282 0
M  V30 34707 N 3213.39 -0.62585 -1.4464 0
M  V30 34708 C 3214.61 -0.13341 -2.0697 0
M  V30 34709 C 3215.04 1.18076 -1.46423 0
M  V30 34710 O 3214.4 1.72314 -0.563706 0
M  V30 34711 C 3214.45 -0.0265731 -3.6059 0
M  V30 34712 O 3213.55 1.01882 -3.99617 0
M  V30 34713 H 3212.89 -0.0823684 -0.658871 0
M  V30 34714 H 3215.42 -0.861035 -1.856 0
M  V30 34715 H 3215.43 0.165728 -4.07663 0
M  V30 34716 H 3214.11 -0.986057 -4.04042 0
M  V30 34717 H 3212.68 0.801513 -3.64184 0
M  V30 34718 N 3214.87 1.53289 -0.36608 0
M  V30 34719 C 3216.11 2.01263 0.223457 0
M  V30 34720 C 3216.44 1.25333 1.48734 0
M  V30 34721 O 3215.7 0.335375 1.92805 0
M  V30 34722 C 3216 3.52972 0.560843 0
M  V30 34723 C 3215.66 4.46772 -0.608769 0
M  V30 34724 C 3214.32 4.72134 -0.929692 0
M  V30 34725 C 3216.68 5.02258 -1.39234 0
M  V30 34726 C 3214 5.50234 -2.03615 0
M  V30 34727 C 3216.36 5.81567 -2.48922 0
M  V30 34728 C 3215.02 6.05216 -2.81549 0
M  V30 34729 H 3214.29 0.736475 0.0817688 0
M  V30 34730 H 3216.94 1.84894 -0.498646 0
M  V30 34731 H 3215.24 3.67292 1.36397 0
M  V30 34732 H 3216.94 3.87566 1.02924 0
M  V30 34733 H 3213.53 4.2718 -0.348604 0
M  V30 34734 H 3217.71 4.8261 -1.15765 0
M  V30 34735 H 3212.97 5.66776 -2.29291 0
M  V30 34736 H 3217.14 6.2357 -3.10055 0
M  V30 34737 H 3214.77 6.65519 -3.67408 0
M  V30 34738 N 3216.35 0.0952613 1.57312 0
M  V30 34739 C 3217.29 -0.881129 2.15265 0
M  V30 34740 C 3218.29 -1.29206 1.09555 0
M  V30 34741 O 3219.49 -1.26657 1.27899 0
M  V30 34742 H 3215.87 -0.302179 0.688616 0
M  V30 34743 H 3217.84 -0.367642 2.96127 0
M  V30 34744 C 3216.59 -2.13048 2.74783 0
M  V30 34745 H 3215.91 -1.82317 3.5581 0
M  V30 34746 H 3217.35 -2.79425 3.189 0
M  V30 34747 C 3215.81 -2.90462 1.70686 0
M  V30 34748 O 3216.34 -3.85009 1.14589 0
M  V30 34749 N 3214.55 -2.54005 1.41173 0
M  V30 34750 H 3214.09 -1.77189 1.86981 0
M  V30 34751 H 3214.05 -3.06101 0.717613 0
M  V30 34752 N 3217.82 -1.56587 -0.178432 0
M  V30 34753 C 3219.24 -1.50545 -0.52993 0
M  V30 34754 C 3219.44 -0.798269 -1.85013 0
M  V30 34755 O 3218.5 -0.355683 -2.49982 0
M  V30 34756 C 3219.81 -2.95262 -0.569262 0
M  V30 34757 C 3221.36 -3.06028 -0.656954 0
M  V30 34758 C 3221.83 -4.52189 -0.727244 0
M  V30 34759 N 3223.32 -4.56408 -0.790325 0
M  V30 34760 C 3224.06 -5.66835 -0.865165 0
M  V30 34761 N 3223.55 -6.86913 -0.901278 0
M  V30 34762 N 3225.35 -5.54789 -0.903639 0
M  V30 34763 H 3217.5 -2.00971 0.687339 0
M  V30 34764 H 3219.76 -0.91527 0.246952 0
M  V30 34765 H 3219.47 -3.5013 0.331996 0
M  V30 34766 H 3219.34 -3.49523 -1.41822 0
M  V30 34767 H 3221.73 -2.512 -1.54864 0
M  V30 34768 H 3221.81 -2.54865 0.21854 0
M  V30 34769 H 3221.45 -5.07647 0.160156 0
M  V30 34770 H 3221.38 -5.01102 -1.61878 0
M  V30 34771 H 3223.87 -3.69952 -0.770989 0
M  V30 34772 H 3224.19 -7.66822 -0.95936 0
M  V30 34773 H 3222.53 -6.89537 -0.869674 0
M  V30 34774 H 3225.72 -4.59899 -0.872378 0
M  V30 34775 H 3225.9 -6.40872 -0.958502 0
M  V30 34776 N 3219.3 0.446741 -1.51136 0
M  V30 34777 C 3220.23 1.54913 -1.74712 0
M  V30 34778 C 3221.21 1.59292 -0.596656 0
M  V30 34779 O 3222.4 1.75171 -0.838386 0
M  V30 34780 C 3219.53 2.93067 -1.86358 0
M  V30 34781 C 3218.48 3.0355 -3.0173 0
M  V30 34782 C 3217.81 4.43591 -2.98548 0
M  V30 34783 C 3219.11 2.78502 -4.41853 0
M  V30 34784 H 3220.8 1.35435 -2.67016 0
M  V30 34785 H 3218.35 0.650108 -1.2849 0
M  V30 34786 H 3220.3 3.70138 -2.01435 0
M  V30 34787 H 3219.02 3.13755 -0.906942 0
M  V30 34788 H 3217.68 2.28917 -2.86343 0
M  V30 34789 H 3217.33 4.61233 -2.00681 0
M  V30 34790 H 3217.03 4.51537 -3.76015 0
M  V30 34791 H 3218.56 5.22649 -3.15705 0
M  V30 34792 H 3219.97 3.45311 -4.57639 0
M  V30 34793 H 3218.37 2.97868 -5.20955 0
M  V30 34794 H 3219.44 1.74174 -4.52539 0
M  V30 34795 N 3220.78 1.41123 0.701567 0
M  V30 34796 C 3221.73 1.38969 1.80753 0
M  V30 34797 C 3222.71 0.264992 1.58703 0
M  V30 34798 O 3223.91 0.505198 1.69637 0
M  V30 34799 C 3221.03 1.26842 3.19008 0
M  V30 34800 C 3220.12 2.4415 3.46773 0
M  V30 34801 N 3220.51 3.69623 3.45272 0
M  V30 34802 C 3218.81 2.37833 3.77295 0
M  V30 34803 C 3219.51 4.47391 3.71774 0
M  V30 34804 N 3218.49 3.77422 3.91221 0
M  V30 34805 H 3222.29 2.33907 1.77946 0
M  V30 34806 H 3219.8 1.35094 0.901301 0
M  V30 34807 H 3221.8 1.2338 3.98225 0
M  V30 34808 H 3220.46 0.328834 3.23031 0
M  V30 34809 H 3221.47 4.02591 3.25792 0
M  V30 34810 H 3218.15 1.52315 3.88724 0
M  V30 34811 H 3219.54 5.56301 3.768 0
M  V30 34812 N 3222.26 -0.935219 1.26852 0
M  V30 34813 C 3223.51 -1.67876 1.12525 0
M  V30 34814 C 3223.83 -1.92173 -0.33086 0
M  V30 34815 O 3223.1 -1.52265 -1.23256 0
M  V30 34816 H 3221.68 -0.622162 0.413429 0
M  V30 34817 H 3224.34 -1.12337 1.59269 0
M  V30 34818 H 3223.43 -2.65006 1.64858 0
M  V30 34819 N 3223.74 -1.08752 -1.14065 0
M  V30 34820 C 3224.96 -0.841072 -1.8958 0
M  V30 34821 C 3225.39 0.601404 -1.78227 0
M  V30 34822 O 3224.74 1.42179 -1.12493 0
M  V30 34823 C 3224.79 -1.27219 -3.37413 0
M  V30 34824 O 3223.9 -0.426318 -4.10191 0
M  V30 34825 H 3223.24 -0.305183 -0.589711 0
M  V30 34826 H 3225.77 -1.44986 -1.44361 0
M  V30 34827 H 3225.78 -1.25458 -3.88232 0
M  V30 34828 H 3224.45 -2.32274 -3.44995 0
M  V30 34829 H 3223.03 -0.50765 -3.69428 0
M  V30 34830 N 3225.21 1.31165 -0.873701 0
M  V30 34831 C 3226.49 1.91318 -0.407013 0
M  V30 34832 C 3226.87 1.79482 1.11127 0
M  V30 34833 O 3226.22 1.20487 1.94153 0
M  V30 34834 C 3226.43 3.37394 -0.892543 0
M  V30 34835 C 3227.78 4.14494 -0.920868 0
M  V30 34836 O 3228.8 3.46191 -0.838446 0
M  V30 34837 O 3227.66 5.36498 -1.04079 0
M  V30 34838 H 3224.75 0.817884 -0.122454 0
M  V30 34839 H 3227.3 1.39808 -0.961859 0
M  V30 34840 H 3226.07 3.4004 -1.93619 0
M  V30 34841 H 3225.7 3.96341 -0.316219 0
M  V30 34842 N 3226.69 0.633512 1.44307 0
M  V30 34843 C 3227.93 0.142295 2.03904 0
M  V30 34844 C 3228.3 -1.21373 1.4877 0
M  V30 34845 O 3229.5 -1.7972 1.99885 0
M  V30 34846 C 3227.77 0.131038 3.5716 0
M  V30 34847 S 3229.33 -0.29521 4.37806 0
M  V30 34848 H 3226.15 0.0622553 0.708269 0
M  V30 34849 H 3228.75 0.837436 1.76656 0
M  V30 34850 H 3227.45 1.12103 3.94792 0
M  V30 34851 H 3226.98 -0.585274 3.89022 0
M  V30 34852 H 3229 -1.53885 4.71735 0
M  V30 34853 N 3228.17 -1.53093 0.374204 0
M  V30 34854 C 3229.42 -2.00562 -0.213946 0
M  V30 34855 C 3229.73 -1.26536 -1.49158 0
M  V30 34856 O 3230.94 -1.64638 -2.15886 0
M  V30 34857 C 3229.39 -3.573 -0.431813 0
M  V30 34858 C 3229 -4.40212 0.831692 0
M  V30 34859 C 3230.75 -4.13101 -0.977149 0
M  V30 34860 C 3228.65 -5.8852 0.582934 0
M  V30 34861 H 3227.58 -0.749337 -0.0837255 0
M  V30 34862 H 3230.23 -1.76718 0.494276 0
M  V30 34863 H 3228.62 -3.77332 -1.20151 0
M  V30 34864 H 3229.79 -4.31951 1.60484 0
M  V30 34865 H 3228.11 -3.95558 1.30087 0
M  V30 34866 H 3230.7 -5.21546 -1.17872 0
M  V30 34867 H 3231.05 -3.68238 -1.94182 0
M  V30 34868 H 3231.58 -3.969 -0.267403 0
M  V30 34869 H 3228.32 -6.37677 1.51818 0
M  V30 34870 H 3227.84 -5.99608 -0.15156 0
M  V30 34871 H 3229.52 -6.46654 0.211718 0
M  V30 34872 N 3229.65 -0.103603 -1.57259 0
M  V30 34873 C 3230.58 0.849192 -2.17511 0
M  V30 34874 C 3231.56 1.28822 -1.11081 0
M  V30 34875 O 3232.74 1.35359 -1.39254 0
M  V30 34876 C 3229.87 2.10517 -2.76224 0
M  V30 34877 C 3228.83 1.80447 -3.88102 0
M  V30 34878 C 3228.15 3.12945 -4.33555 0
M  V30 34879 C 3229.45 1.08478 -5.10911 0
M  V30 34880 H 3231.15 0.347165 -2.9738 0
M  V30 34881 H 3228.69 0.165543 -1.43045 0
M  V30 34882 H 3230.65 2.77616 -3.17029 0
M  V30 34883 H 3229.37 2.63017 -1.93622 0
M  V30 34884 H 3228.03 1.15743 -3.47849 0
M  V30 34885 H 3227.68 3.63349 -3.47831 0
M  V30 34886 H 3227.38 2.93605 -5.08989 0
M  V30 34887 H 3228.9 3.81188 -4.76999 0
M  V30 34888 H 3230.32 1.65702 -5.48831 0
M  V30 34889 H 3228.71 0.992869 -5.91829 0
M  V30 34890 H 3229.78 0.0689256 -4.84851 0
M  V30 34891 N 3231.13 1.56679 0.170126 0
M  V30 34892 C 3232.37 1.81702 0.884809 0
M  V30 34893 C 3232.7 0.680795 1.8273 0
M  V30 34894 O 3231.97 -0.29926 1.93601 0
M  V30 34895 H 3230.55 0.670291 0.329726 0
M  V30 34896 H 3233.21 1.9416 0.169657 0
M  V30 34897 H 3232.3 2.75792 1.46099 0
M  V30 34898 N 3232.6 -0.43872 1.5137 0
M  V30 34899 C 3233.85 -1.19003 1.64214 0
M  V30 34900 C 3234.18 -1.90897 0.35664 0
M  V30 34901 O 3233.46 -1.8354 -0.64369 0
M  V30 34902 C 3233.74 -2.20812 2.84454 0
M  V30 34903 C 3233.59 -1.5301 4.22975 0
M  V30 34904 C 3234.91 -3.21808 3.00213 0
M  V30 34905 H 3232.03 -0.431278 0.597636 0
M  V30 34906 H 3234.67 -0.479454 1.83851 0
M  V30 34907 H 3232.82 -2.81413 2.67841 0
M  V30 34908 H 3234.5 -0.957575 4.51252 0
M  V30 34909 H 3232.74 -0.832481 4.25737 0
M  V30 34910 H 3233.41 -2.27149 5.03098 0
M  V30 34911 H 3235.89 -2.7126 3.15527 0
M  V30 34912 H 3234.76 -3.90339 3.85911 0
M  V30 34913 H 3235.02 -3.87832 2.12223 0
M  V30 34914 N 3234.08 -1.41493 -0.694073 0
M  V30 34915 C 3234.99 -1.45821 -1.83775 0
M  V30 34916 C 3236.01 -0.348669 -1.70471 0
M  V30 34917 O 3237.18 -0.596621 -1.9236 0
M  V30 34918 C 3234.25 -1.33973 -3.19769 0
M  V30 34919 C 3233.31 -2.55256 -3.45171 0
M  V30 34920 C 3232.54 -2.43963 -4.74676 0
M  V30 34921 O 3232.77 -1.46501 -5.51265 0
M  V30 34922 O 3231.7 -3.33748 -5.00895 0
M  V30 34923 H 3235.53 -2.42313 -1.8308 0
M  V30 34924 H 3233.11 -1.23048 -0.847328 0
M  V30 34925 H 3234.99 -1.29655 -4.00958 0
M  V30 34926 H 3233.67 -0.405982 -3.21144 0
M  V30 34927 H 3232.58 -2.6515 -2.63906 0
M  V30 34928 H 3233.91 -3.47464 -3.48611 0
M  V30 34929 N 3235.56 0.928479 -1.27346 0
M  V30 34930 C 3236.49 2.02957 -1.04325 0
M  V30 34931 C 3237.47 1.6256 0.0360832 0
M  V30 34932 O 3238.66 1.88185 -0.108905 0
M  V30 34933 C 3235.78 3.33655 -0.582388 0
M  V30 34934 C 3234.83 3.9303 -1.65618 0
M  V30 34935 S 3235.66 4.25717 -3.24847 0
M  V30 34936 C 3236.82 5.59497 -2.8056 0
M  V30 34937 H 3237.05 2.22172 -1.97552 0
M  V30 34938 H 3234.58 1.07149 -1.11168 0
M  V30 34939 H 3236.54 4.09226 -0.323167 0
M  V30 34940 H 3235.2 3.12364 0.329803 0
M  V30 34941 H 3234.4 4.87344 -1.285 0
M  V30 34942 H 3234 3.24042 -1.86743 0
M  V30 34943 H 3236.29 6.3876 -2.25814 0
M  V30 34944 H 3237.23 6.01513 -3.73614 0
M  V30 34945 H 3237.64 5.19981 -2.19726 0
M  V30 34946 N 3237.04 1.09355 1.13486 0
M  V30 34947 C 3237.99 0.732289 2.18875 0
M  V30 34948 C 3238.96 -0.286146 1.63617 0
M  V30 34949 O 3240.14 -0.167948 1.90059 0
M  V30 34950 C 3237.28 0.158218 3.44737 0
M  V30 34951 C 3236.39 1.23061 4.14102 0
M  V30 34952 C 3235.53 0.619365 5.27577 0
M  V30 34953 C 3234.57 1.67311 5.8879 0
M  V30 34954 N 3233.7 1.08295 6.93698 0
M  V30 34955 H 3238.54 1.63526 2.49125 0
M  V30 34956 H 3236.08 0.817017 1.22324 0
M  V30 34957 H 3238.04 -0.192415 4.16756 0
M  V30 34958 H 3236.67 -0.708026 3.14939 0
M  V30 34959 H 3235.72 1.69853 3.40373 0
M  V30 34960 H 3237.03 2.02873 4.5568 0
M  V30 34961 H 3236.19 0.217535 6.0631 0
M  V30 34962 H 3234.93 -0.210313 4.87246 0
M  V30 34963 H 3233.93 2.08449 5.08752 0
M  V30 34964 H 3235.16 2.50544 6.31193 0
M  V30 34965 H 3233.1 0.274542 6.55425 0
M  V30 34966 H 3233.02 1.81805 7.33814 0
M  V30 34967 H 3234.29 0.707304 7.76284 0
M  V30 34968 N 3238.52 -1.307 0.880644 0
M  V30 34969 C 3239.74 -2.01008 0.510944 0
M  V30 34970 C 3240.17 -1.65604 -0.892012 0
M  V30 34971 O 3239.53 -0.870337 -1.59043 0
M  V30 34972 C 3239.57 -3.53979 0.687821 0
M  V30 34973 O 3238.68 -4.11527 -0.268203 0
M  V30 34974 H 3238.02 -0.632568 0.201876 0
M  V30 34975 H 3240.55 -1.66648 1.187 0
M  V30 34976 H 3240.56 -4.03782 0.585166 0
M  V30 34977 H 3239.23 -3.79086 1.71075 0
M  V30 34978 H 3237.81 -3.72708 -0.119608 0
M  V30 34979 N 3240 -0.641156 -1.43969 0
M  V30 34980 C 3241.22 -0.157043 -2.06303 0
M  V30 34981 C 3241.64 1.17246 -1.47983 0
M  V30 34982 O 3241 1.72127 -0.606501 0
M  V30 34983 C 3241.05 -0.046906 -3.6147 0
M  V30 34984 O 3240.77 -1.32384 -4.1762 0
M  V30 34985 C 3242.27 0.464717 -4.40857 0
M  V30 34986 H 3239.49 -0.0843063 -0.665683 0
M  V30 34987 H 3242.03 -0.878395 -1.84674 0
M  V30 34988 H 3240.19 0.624939 -3.82326 0
M  V30 34989 H 3240.6 -1.17518 -5.11165 0
M  V30 34990 H 3242.08 0.490765 -5.49814 0
M  V30 34991 H 3242.55 1.49372 -4.13019 0
M  V30 34992 H 3243.16 -0.174221 -4.24943 0
M  V30 34993 N 3241.47 1.52892 -0.382318 0
M  V30 34994 C 3242.72 2.01091 0.201699 0
M  V30 34995 C 3243.04 1.27082 1.47902 0
M  V30 34996 O 3242.31 0.388864 1.92002 0
M  V30 34997 H 3240.89 0.742966 0.0775242 0
M  V30 34998 H 3243.55 1.88044 -0.512402 0
M  V30 34999 H 3242.65 3.09303 0.416864 0
M  V30 35000 N 3242.95 0.111941 1.57202 0
M  V30 35001 C 3243.86 -0.854715 2.18476 0
M  V30 35002 C 3244.88 -1.2979 1.15891 0
M  V30 35003 O 3246.05 -1.36234 1.48332 0
M  V30 35004 C 3243.12 -2.08965 2.76649 0
M  V30 35005 C 3242.18 -1.69906 3.94247 0
M  V30 35006 C 3241.41 -2.87512 4.49636 0
M  V30 35007 O 3241.64 -4.02734 4.03933 0
M  V30 35008 O 3240.57 -2.65005 5.40422 0
M  V30 35009 H 3244.4 -0.363299 3.01519 0
M  V30 35010 H 3241.98 -0.113303 1.4897 0
M  V30 35011 H 3243.86 -2.81305 3.1376 0
M  V30 35012 H 3242.54 -2.57126 1.96641 0
M  V30 35013 H 3241.44 -0.94695 3.61917 0
M  V30 35014 H 3242.78 -1.26493 4.75668 0
M  V30 35015 N 3244.43 -1.56767 -0.161814 0
M  V30 35016 C 3245.68 -1.82799 -0.878192 0
M  V30 35017 C 3246.01 -0.691274 -1.8148 0
M  V30 35018 O 3245.28 0.306146 -1.92075 0
M  V30 35019 C 3245.57 -3.19265 -1.6656 0
M  V30 35020 C 3245.42 -4.43478 -0.751473 0
M  V30 35021 C 3246.74 -3.52777 -2.63128 0
M  V30 35022 H 3243.86 -0.664952 -0.317816 0
M  V30 35023 H 3246.5 -1.89454 -0.143987 0
M  V30 35024 H 3244.65 -3.13723 -2.29151 0
M  V30 35025 H 3246.32 -4.61094 -0.137702 0
M  V30 35026 H 3244.56 -4.33758 -0.0601023 0
M  V30 35027 H 3245.24 -5.35535 -1.33814 0
M  V30 35028 H 3247.71 -3.58834 -2.10659 0
M  V30 35029 H 3246.59 -4.49321 -3.15281 0
M  V30 35030 H 3246.85 -2.77969 -3.43781 0
M  V30 35031 N 3245.91 0.430686 -1.51601 0
M  V30 35032 C 3246.87 1.50579 -1.72797 0
M  V30 35033 C 3247.87 1.4927 -0.597929 0
M  V30 35034 O 3249.06 1.51174 -0.865561 0
M  V30 35035 C 3246.19 2.9009 -1.79054 0
M  V30 35036 H 3247.39 1.33086 -2.68753 0
M  V30 35037 H 3244.94 0.659797 -1.41691 0
M  V30 35038 H 3245.67 3.1298 -0.849364 0
M  V30 35039 H 3245.46 2.92445 -2.61187 0
M  V30 35040 H 3246.95 3.68069 -1.97269 0
M  V30 35041 N 3247.39 1.4186 0.686559 0
M  V30 35042 C 3248.63 1.43176 1.45877 0
M  V30 35043 C 3248.99 0.0423397 1.91953 0
M  V30 35044 O 3250.19 -0.0697358 2.6871 0
M  V30 35045 C 3248.46 2.41795 2.63192 0
M  V30 35046 S 3250.02 2.61716 3.52207 0
M  V30 35047 H 3246.84 0.507086 0.498383 0
M  V30 35048 H 3249.44 1.7837 0.800281 0
M  V30 35049 H 3248.14 3.41533 2.2756 0
M  V30 35050 H 3247.68 2.07986 3.33924 0
M  V30 35051 H 3249.69 1.89133 4.58741 0
M  V30 35052 N 3248.86 -0.921712 1.27837 0
M  V30 35053 C 3250.11 -1.67003 1.14526 0
M  V30 35054 C 3250.44 -1.9205 -0.307742 0
M  V30 35055 O 3249.69 -1.5132 -1.241 0
M  V30 35056 C 3249.99 -3.03922 1.88059 0
M  V30 35057 C 3249.66 -2.98564 3.37891 0
M  V30 35058 C 3248.32 -2.9681 3.78757 0
M  V30 35059 C 3250.67 -2.89406 4.33467 0
M  V30 35060 C 3248 -2.83689 5.13554 0
M  V30 35061 C 3250.35 -2.77826 5.68327 0
M  V30 35062 C 3249.02 -2.74425 6.08479 0
M  V30 35063 H 3248.29 -0.611109 0.419079 0
M  V30 35064 H 3250.93 -1.07446 1.58517 0
M  V30 35065 H 3249.24 -3.67218 1.36594 0
M  V30 35066 H 3250.94 -3.6071 1.75183 0
M  V30 35067 H 3247.53 -3.0072 3.05394 0
M  V30 35068 H 3251.71 -2.89855 4.02862 0
M  V30 35069 H 3246.97 -2.79446 5.43801 0
M  V30 35070 H 3251.14 -2.69706 6.42053 0
M  V30 35071 H 3248.77 -2.64015 7.12882 0
M  V30 35072 N 3250.34 -1.09956 -1.12905 0
M  V30 35073 C 3251.59 -0.837287 -1.8394 0
M  V30 35074 C 3251.91 0.638951 -1.84235 0
M  V30 35075 O 3251.18 1.46376 -1.30196 0
M  V30 35076 H 3249.76 -0.306755 -0.68111 0
M  V30 35077 H 3252.42 -1.38882 -1.3674 0
M  V30 35078 H 3251.52 -1.1957 -2.88287 0
M  V30 35079 N 3251.82 1.30231 -0.887563 0
M  V30 35080 C 3252.75 2.30509 -0.372521 0
M  V30 35081 C 3253.73 1.61099 0.546008 0
M  V30 35082 O 3254.92 1.8869 0.459312 0
M  V30 35083 C 3252.05 3.44853 0.411544 0
M  V30 35084 C 3251 4.25979 -0.415458 0
M  V30 35085 C 3250.33 5.324 0.495369 0
M  V30 35086 C 3251.63 4.95254 -1.65895 0
M  V30 35087 H 3253.32 2.73838 -1.2105 0
M  V30 35088 H 3250.87 1.31647 -0.583521 0
M  V30 35089 H 3252.82 4.14071 0.782511 0
M  V30 35090 H 3251.54 3.00336 1.28319 0
M  V30 35091 H 3250.2 3.58452 -0.768597 0
M  V30 35092 H 3249.85 4.8413 1.3648 0
M  V30 35093 H 3249.55 5.87575 -0.0541917 0
M  V30 35094 H 3251.07 6.04473 0.862795 0
M  V30 35095 H 3252.49 5.56974 -1.35842 0
M  V30 35096 H 3250.88 5.60305 -2.14891 0
M  V30 35097 H 3251.95 4.21233 -2.40189 0
M  V30 35098 N 3253.3 0.648782 1.43627 0
M  V30 35099 C 3254.25 -0.0574952 2.32529 0
M  V30 35100 C 3255.24 -0.817673 1.48359 0
M  V30 35101 O 3256.45 -0.728576 1.64596 0
M  V30 35102 H 3252.82 -0.0373748 0.751071 0
M  V30 35103 H 3254.79 0.710113 2.89827 0
M  V30 35104 C 3253.54 -1.0133 3.32607 0
M  V30 35105 H 3252.86 -0.437785 3.97396 0
M  V30 35106 H 3254.3 -1.47665 3.97456 0
M  V30 35107 C 3252.76 -2.10717 2.62868 0
M  V30 35108 O 3253.29 -3.19038 2.44086 0
M  V30 35109 N 3251.5 -1.87148 2.22315 0
M  V30 35110 H 3251.05 -0.990602 2.37792 0
M  V30 35111 H 3251 -2.60533 1.75983 0
M  V30 35112 N 3254.78 -1.52688 0.390421 0
M  V30 35113 C 3255.72 -2.26485 -0.444189 0
M  V30 35114 C 3256.69 -1.28139 -1.05686 0
M  V30 35115 O 3257.88 -1.5697 -1.08467 0
M  V30 35116 C 3255.02 -3.07576 -1.56496 0
M  V30 35117 C 3254.13 -4.20853 -0.975037 0
M  V30 35118 C 3253.27 -4.89337 -2.06695 0
M  V30 35119 C 3252.31 -5.94605 -1.45298 0
M  V30 35120 N 3251.44 -6.56681 -2.48425 0
M  V30 35121 H 3256.28 -2.97383 0.191587 0
M  V30 35122 H 3253.82 -1.46715 0.106313 0
M  V30 35123 H 3255.78 -3.52883 -2.22552 0
M  V30 35124 H 3254.41 -2.38885 -2.17103 0
M  V30 35125 H 3253.46 -3.79852 -0.204042 0
M  V30 35126 H 3254.77 -4.96423 -0.486377 0
M  V30 35127 H 3253.93 -5.37953 -2.80519 0
M  V30 35128 H 3252.66 -4.13293 -2.58921 0
M  V30 35129 H 3251.67 -5.45326 -0.699995 0
M  V30 35130 H 3252.89 -6.72582 -0.938657 0
M  V30 35131 H 3250.84 -5.83477 -2.99818 0
M  V30 35132 H 3250.76 -7.27867 -2.04318 0
M  V30 35133 H 3252.03 -7.09941 -3.21876 0
M  V30 35134 N 3256.25 -0.120276 -1.5714 0
M  V30 35135 C 3257.48 0.544311 -1.99301 0
M  V30 35136 C 3257.89 1.60683 -0.998886 0
M  V30 35137 O 3257.24 1.83693 0.0161874 0
M  V30 35138 C 3257.3 1.22802 -3.37876 0
M  V30 35139 C 3256.96 0.313294 -4.55925 0
M  V30 35140 C 3257.96 -0.448592 -5.17961 0
M  V30 35141 C 3255.64 0.223993 -5.018 0
M  V30 35142 C 3257.64 -1.2875 -6.24261 0
M  V30 35143 C 3255.32 -0.618543 -6.07962 0
M  V30 35144 C 3256.32 -1.37292 -6.69059 0
M  V30 35145 O 3256.01 -2.20146 -7.73169 0
M  V30 35146 H 3255.74 0.148584 -0.659469 0
M  V30 35147 H 3258.3 -0.203815 -2.04386 0
M  V30 35148 H 3256.53 2.02324 -3.29548 0
M  V30 35149 H 3258.22 1.78964 -3.64317 0
M  V30 35150 H 3258.98 -0.38948 -4.83434 0
M  V30 35151 H 3254.86 0.80086 -4.5399 0
M  V30 35152 H 3258.4 -1.87679 -6.7188 0
M  V30 35153 H 3254.3 -0.679045 -6.41918 0
M  V30 35154 H 3255.07 -2.13102 -7.90272 0
M  V30 35155 N 3257.73 1.56851 0.153498 0
M  V30 35156 C 3258.64 2.01031 1.20928 0
M  V30 35157 C 3259.66 0.924624 1.474 0
M  V30 35158 O 3260.83 1.23361 1.59198 0
M  V30 35159 C 3257.9 2.37651 2.52434 0
M  V30 35160 C 3256.96 3.60136 2.33667 0
M  V30 35161 C 3256.19 3.95 3.58902 0
M  V30 35162 O 3256.42 3.30607 4.64817 0
M  V30 35163 O 3255.35 4.88276 3.51951 0
M  V30 35164 H 3259.18 2.91144 0.864222 0
M  V30 35165 H 3256.76 1.44955 0.36173 0
M  V30 35166 H 3258.64 2.62094 3.29977 0
M  V30 35167 H 3257.32 1.50695 2.86483 0
M  V30 35168 H 3256.23 3.40889 1.54097 0
M  V30 35169 H 3257.56 4.4769 2.04536 0
M  V30 35170 N 3259.21 -0.42264 1.51827 0
M  V30 35171 C 3260.17 -1.4966 1.73593 0
M  V30 35172 C 3261.17 -1.48951 0.605837 0
M  V30 35173 O 3262.36 -1.50713 0.873566 0
M  V30 35174 C 3259.5 -2.89137 1.8059 0
M  V30 35175 H 3260.69 -1.31659 2.69455 0
M  V30 35176 H 3258.24 -0.652273 1.42039 0
M  V30 35177 H 3258.98 -3.12525 0.86595 0
M  V30 35178 H 3258.76 -2.91056 2.62734 0
M  V30 35179 H 3260.25 -3.67018 1.99218 0
M  V30 35180 N 3260.69 -1.42222 -0.679027 0
M  V30 35181 C 3261.62 -1.48155 -1.80478 0
M  V30 35182 C 3262.6 -0.338532 -1.66697 0
M  V30 35183 O 3263.78 -0.552261 -1.86182 0
M  V30 35184 C 3260.91 -1.37914 -3.18743 0
M  V30 35185 C 3259.87 -2.50198 -3.47253 0
M  V30 35186 C 3259.19 -2.25016 -4.85048 0
M  V30 35187 C 3260.49 -3.92517 -3.44569 0
M  V30 35188 H 3262.19 -2.42374 -1.7577 0
M  V30 35189 H 3259.73 -1.16657 -0.84422 0
M  V30 35190 H 3261.69 -1.40673 -3.97227 0
M  V30 35191 H 3260.41 -0.401863 -3.24118 0
M  V30 35192 H 3259.07 -2.46749 -2.71128 0
M  V30 35193 H 3258.72 -1.25593 -4.87068 0
M  V30 35194 H 3258.42 -3.00268 -5.05087 0
M  V30 35195 H 3259.94 -2.29518 -5.65821 0
M  V30 35196 H 3261.36 -3.97592 -4.13029 0
M  V30 35197 H 3259.75 -4.67586 -3.76143 0
M  V30 35198 H 3260.82 -4.19489 -2.43223 0
M  V30 35199 N 3262.17 0.91492 -1.28324 0
M  V30 35200 C 3263.1 2.03396 -1.14684 0
M  V30 35201 C 3264.08 1.70041 -0.0449238 0
M  V30 35202 O 3265.26 1.9293 -0.221706 0
M  V30 35203 C 3262.39 3.37802 -0.806682 0
M  V30 35204 C 3261.35 3.85314 -1.86325 0
M  V30 35205 C 3260.67 5.16672 -1.37675 0
M  V30 35206 C 3261.97 4.07302 -3.2696 0
M  V30 35207 H 3263.67 2.15065 -2.08297 0
M  V30 35208 H 3261.21 1.03338 -1.00286 0
M  V30 35209 H 3263.17 4.15578 -0.698033 0
M  V30 35210 H 3261.89 3.26182 0.165146 0
M  V30 35211 H 3260.55 3.09741 -1.96102 0
M  V30 35212 H 3260.2 5.01454 -0.394015 0
M  V30 35213 H 3259.9 5.49432 -2.08323 0
M  V30 35214 H 3261.42 5.97005 -1.28129 0
M  V30 35215 H 3262.83 4.75607 -3.2011 0
M  V30 35216 H 3261.23 4.51391 -3.95432 0
M  V30 35217 H 3262.3 3.12152 -3.71065 0
M  V30 35218 N 3263.64 1.10553 1.1232 0
M  V30 35219 C 3264.59 0.755463 2.18086 0
M  V30 35220 C 3265.56 -0.268776 1.63911 0
M  V30 35221 O 3266.75 -0.14778 1.90227 0
M  V30 35222 C 3263.89 0.194773 3.4455 0
M  V30 35223 C 3263 1.27446 4.12773 0
M  V30 35224 C 3262.13 0.675286 5.2689 0
M  V30 35225 C 3261.17 1.73547 5.86982 0
M  V30 35226 N 3260.31 1.15647 6.9251 0
M  V30 35227 H 3265.15 1.66159 2.47376 0
M  V30 35228 H 3262.69 0.829945 1.21451 0
M  V30 35229 H 3264.65 -0.148202 4.16937 0
M  V30 35230 H 3263.28 -0.674583 3.15673 0
M  V30 35231 H 3262.33 1.73454 3.38553 0
M  V30 35232 H 3263.64 2.07695 4.53502 0
M  V30 35233 H 3262.79 0.28183 6.06045 0
M  V30 35234 H 3261.53 -0.158623 4.87442 0
M  V30 35235 H 3260.54 2.13834 5.06513 0
M  V30 35236 H 3261.76 2.57224 6.285 0
M  V30 35237 H 3259.71 0.344043 6.55097 0
M  V30 35238 H 3259.63 1.89578 7.31844 0
M  V30 35239 H 3260.89 0.789599 7.75491 0
M  V30 35240 N 3265.12 -1.29758 0.894457 0
M  V30 35241 C 3266.35 -2.00455 0.532235 0
M  V30 35242 C 3266.77 -1.66541 -0.874398 0
M  V30 35243 O 3266.13 -0.887157 -1.58111 0
M  V30 35244 C 3266.18 -3.5323 0.725326 0
M  V30 35245 O 3265.28 -4.11788 -0.22454 0
M  V30 35246 H 3264.62 -0.630391 0.208573 0
M  V30 35247 H 3267.15 -1.6538 1.20461 0
M  V30 35248 H 3267.16 -4.03139 0.62796 0
M  V30 35249 H 3265.84 -3.7725 1.75086 0
M  V30 35250 H 3264.42 -3.72814 -0.0800706 0
M  V30 35251 N 3266.6 -0.65639 -1.4328 0
M  V30 35252 C 3267.53 0.0196551 -2.33492 0
M  V30 35253 C 3268.51 0.808654 -1.49649 0
M  V30 35254 O 3269.7 0.769498 -1.78304 0
M  V30 35255 C 3266.83 0.984515 -3.33053 0
M  V30 35256 C 3265.78 0.305408 -4.26909 0
M  V30 35257 C 3265.11 1.38193 -5.16533 0
M  V30 35258 C 3266.41 -0.804172 -5.16072 0
M  V30 35259 H 3268.1 -0.733712 -2.90271 0
M  V30 35260 H 3265.65 -0.354283 -1.39574 0
M  V30 35261 H 3267.6 1.4664 -3.95063 0
M  V30 35262 H 3266.32 1.76908 -2.74538 0
M  V30 35263 H 3264.98 -0.156059 -3.66268 0
M  V30 35264 H 3264.63 2.15802 -4.54355 0
M  V30 35265 H 3264.33 0.932776 -5.80149 0
M  V30 35266 H 3265.85 1.86512 -5.81417 0
M  V30 35267 H 3267.27 -0.404312 -5.71873 0
M  V30 35268 H 3265.67 -1.17799 -5.88424 0
M  V30 35269 H 3266.74 -1.66081 -4.55571 0
M  V30 35270 N 3268.08 1.52478 -0.398513 0
M  V30 35271 C 3269.33 2.00877 0.182011 0
M  V30 35272 C 3269.64 1.28893 1.47126 0
M  V30 35273 O 3270.85 1.68051 2.13239 0
M  V30 35274 C 3269.3 3.57942 0.374915 0
M  V30 35275 C 3268.91 4.38833 -0.901621 0
M  V30 35276 C 3270.66 4.14603 0.911305 0
M  V30 35277 C 3268.56 5.87518 -0.676489 0
M  V30 35278 H 3267.49 0.750574 0.0717936 0
M  V30 35279 H 3270.14 1.75909 -0.522328 0
M  V30 35280 H 3268.53 3.79196 1.14133 0
M  V30 35281 H 3269.7 4.29343 -1.67336 0
M  V30 35282 H 3268.01 3.93438 -1.36364 0
M  V30 35283 H 3270.61 5.23355 1.0956 0
M  V30 35284 H 3270.95 3.7128 1.88299 0
M  V30 35285 H 3271.49 3.97275 0.204226 0
M  V30 35286 H 3268.23 6.35181 -1.61944 0
M  V30 35287 H 3267.75 5.99774 0.0561488 0
M  V30 35288 H 3269.43 6.46235 -0.314568 0
M  V30 35289 N 3269.56 0.128608 1.57074 0
M  V30 35290 C 3270.52 -0.803776 2.14644 0
M  V30 35291 C 3271.52 -1.18801 1.08365 0
M  V30 35292 O 3272.71 -1.11194 1.34095 0
M  V30 35293 C 3269.84 -2.08824 2.69454 0
M  V30 35294 H 3271.04 -0.303294 2.98362 0
M  V30 35295 H 3268.59 -0.120708 1.55833 0
M  V30 35296 H 3269.32 -2.63281 1.8935 0
M  V30 35297 H 3269.11 -1.82212 3.4719 0
M  V30 35298 H 3270.6 -2.75455 3.1387 0
M  V30 35299 N 3271.04 -1.5693 -0.145178 0
M  V30 35300 C 3272.26 -1.8761 -0.872365 0
M  V30 35301 C 3272.68 -0.717006 -1.74655 0
M  V30 35302 O 3272.04 0.313168 -1.79793 0
M  V30 35303 C 3272.09 -3.17549 -1.72756 0
M  V30 35304 O 3271.81 -4.28993 -0.888605 0
M  V30 35305 C 3273.31 -3.61756 -2.56218 0
M  V30 35306 H 3270.53 -0.621819 -0.252155 0
M  V30 35307 H 3273.07 -2.04038 -0.13742 0
M  V30 35308 H 3271.23 -3.02869 -2.41555 0
M  V30 35309 H 3271.64 -5.03306 -1.47592 0
M  V30 35310 H 3273.12 -4.55508 -3.11796 0
M  V30 35311 H 3273.59 -2.87133 -3.32342 0
M  V30 35312 H 3274.2 -3.79136 -1.92707 0
M  V30 35313 N 3272.51 0.414582 -1.52049 0
M  V30 35314 C 3273.76 1.15974 -1.65513 0
M  V30 35315 C 3274.08 1.91167 -0.384737 0
M  V30 35316 O 3273.35 1.86479 0.600214 0
M  V30 35317 H 3271.93 0.431105 -0.610047 0
M  V30 35318 H 3274.59 0.473106 -1.89071 0
M  V30 35319 H 3273.69 1.87682 -2.49363 0
M  V30 35320 N 3273.99 1.4258 0.671475 0
M  V30 35321 C 3274.92 1.40752 1.79622 0
M  V30 35322 C 3275.9 0.27134 1.6032 0
M  V30 35323 O 3277.09 0.462082 1.82749 0
M  V30 35324 C 3274.21 1.20158 3.1667 0
M  V30 35325 C 3273.26 2.36813 3.54714 0
M  V30 35326 S 3274.09 3.99349 3.56764 0
M  V30 35327 C 3275.25 3.81104 4.96498 0
M  V30 35328 H 3275.48 2.3593 1.80899 0
M  V30 35329 H 3273.01 1.29392 0.842447 0
M  V30 35330 H 3274.97 1.08963 3.95774 0
M  V30 35331 H 3273.63 0.2656 3.12975 0
M  V30 35332 H 3272.83 2.1816 4.54337 0
M  V30 35333 H 3272.43 2.44539 2.82978 0
M  V30 35334 H 3274.72 3.423 5.84668 0
M  V30 35335 H 3275.66 4.80415 5.20199 0
M  V30 35336 H 3276.07 3.13906 4.69173 0
M  V30 35337 N 3275.47 -0.908102 1.28807 0
M  V30 35338 C 3276.42 -2.01123 1.13218 0
M  V30 35339 C 3277.39 -1.66077 0.0277649 0
M  V30 35340 O 3278.57 -1.89814 0.193741 0
M  V30 35341 C 3275.71 -3.35557 0.805946 0
M  V30 35342 C 3274.82 -3.83438 1.98997 0
M  V30 35343 C 3273.96 -5.06409 1.60385 0
M  V30 35344 C 3273 -5.46636 2.75418 0
M  V30 35345 N 3272.14 -6.60796 2.37261 0
M  V30 35346 H 3276.98 -2.13789 2.07602 0
M  V30 35347 H 3274.51 -1.04708 1.03318 0
M  V30 35348 H 3276.47 -4.12899 0.597524 0
M  V30 35349 H 3275.1 -3.22642 -0.100966 0
M  V30 35350 H 3274.15 -3.02204 2.31035 0
M  V30 35351 H 3275.46 -4.09207 2.85221 0
M  V30 35352 H 3274.62 -5.9131 1.35782 0
M  V30 35353 H 3273.36 -4.8246 0.712972 0
M  V30 35354 H 3272.36 -4.60273 3.00713 0
M  V30 35355 H 3273.59 -5.7257 3.65158 0
M  V30 35356 H 3271.53 -6.38467 1.50649 0
M  V30 35357 H 3271.45 -6.86319 3.1702 0
M  V30 35358 H 3272.72 -7.48988 2.15956 0
M  V30 35359 N 3276.95 -1.11147 -1.11732 0
M  V30 35360 C 3277.88 -0.78919 -2.19759 0
M  V30 35361 C 3278.86 0.241113 -1.68382 0
M  V30 35362 O 3280.04 0.105257 -1.93915 0
M  V30 35363 C 3277.17 -0.228265 -3.46549 0
M  V30 35364 C 3276.13 -1.19009 -4.11121 0
M  V30 35365 C 3275.45 -0.490021 -5.3245 0
M  V30 35366 C 3276.75 -2.53959 -4.56401 0
M  V30 35367 H 3278.45 -1.69245 -2.46975 0
M  V30 35368 H 3275.99 -0.815191 -1.18704 0
M  V30 35369 H 3277.95 0.00938501 -4.21399 0
M  V30 35370 H 3276.67 0.710274 -3.18783 0
M  V30 35371 H 3275.33 -1.41332 -3.38261 0
M  V30 35372 H 3274.98 0.453227 -5.00954 0
M  V30 35373 H 3274.68 -1.1315 -5.76603 0
M  V30 35374 H 3276.2 -0.261092 -6.10042 0
M  V30 35375 H 3277.62 -2.35742 -5.22588 0
M  V30 35376 H 3276.01 -3.1406 -5.11357 0
M  V30 35377 H 3277.08 -3.13408 -3.70004 0
M  V30 35378 N 3278.43 1.29282 -0.901326 0
M  V30 35379 C 3279.84 1.77581 -0.576349 0
M  V30 35380 C 3280.19 1.73922 0.908048 0
M  V30 35381 O 3279.31 1.32614 1.71004 0
M  V30 35382 C 3279.91 3.22461 -1.03944 0
M  V30 35383 C 3278.47 3.68532 -0.765597 0
M  V30 35384 C 3277.61 2.49352 -1.21322 0
M  V30 35385 H 3280.56 1.15921 -1.08388 0
M  V30 35386 H 3280.59 3.78643 -0.375433 0
M  V30 35387 H 3280.1 3.25092 -2.11983 0
M  V30 35388 H 3278.2 3.71373 0.30211 0
M  V30 35389 H 3278.31 4.59255 -1.36462 0
M  V30 35390 H 3276.68 2.4673 -0.632184 0
M  V30 35391 H 3277.46 2.5471 -2.30169 0
M  V30 35392 N 3279.9 0.663979 1.4293 0
M  V30 35393 C 3280.85 -0.0210359 2.3079 0
M  V30 35394 C 3281.82 -0.803771 1.45357 0
M  V30 35395 O 3283.01 -0.778206 1.74208 0
M  V30 35396 C 3280.15 -0.973965 3.31071 0
M  V30 35397 C 3279.26 -0.186197 4.31599 0
M  V30 35398 C 3278.39 -1.1339 5.18957 0
M  V30 35399 C 3277.43 -0.337185 6.11171 0
M  V30 35400 N 3276.57 -1.23703 6.91116 0
M  V30 35401 H 3281.41 0.734046 2.88818 0
M  V30 35402 H 3278.95 0.373736 1.42273 0
M  V30 35403 H 3280.9 -1.54017 3.8773 0
M  V30 35404 H 3279.53 -1.6958 2.74668 0
M  V30 35405 H 3278.59 0.496468 3.77146 0
M  V30 35406 H 3279.9 0.43284 4.96918 0
M  V30 35407 H 3279.05 -1.77039 5.80295 0
M  V30 35408 H 3277.79 -1.78683 4.53788 0
M  V30 35409 H 3276.8 0.312588 5.48911 0
M  V30 35410 H 3278.02 0.311499 6.78385 0
M  V30 35411 H 3275.97 -1.87657 6.28587 0
M  V30 35412 H 3275.88 -0.672814 7.53 0
M  V30 35413 H 3277.15 -1.86133 7.56951 0
M  V30 35414 N 3281.38 -1.52265 0.406593 0
M  V30 35415 C 3282.33 -2.26944 -0.420142 0
M  V30 35416 C 3283.3 -1.29253 -1.04321 0
M  V30 35417 O 3284.48 -1.58111 -1.06796 0
M  V30 35418 C 3281.62 -3.09219 -1.53224 0
M  V30 35419 C 3280.74 -4.21863 -0.930345 0
M  V30 35420 C 3279.87 -4.91502 -2.01493 0
M  V30 35421 C 3278.91 -5.96112 -1.38984 0
M  V30 35422 N 3278.05 -6.59278 -2.41446 0
M  V30 35423 H 3282.89 -2.97164 0.223118 0
M  V30 35424 H 3280.42 -1.46594 0.121868 0
M  V30 35425 H 3282.38 -3.55224 -2.18797 0
M  V30 35426 H 3281.01 -2.41175 -2.14557 0
M  V30 35427 H 3280.06 -3.80047 -0.163742 0
M  V30 35428 H 3281.38 -4.96911 -0.433698 0
M  V30 35429 H 3280.53 -5.40899 -2.74798 0
M  V30 35430 H 3279.27 -4.16016 -2.54523 0
M  V30 35431 H 3278.27 -5.46037 -0.642117 0
M  V30 35432 H 3279.5 -6.73539 -0.867268 0
M  V30 35433 H 3277.45 -5.86624 -2.93613 0
M  V30 35434 H 3277.36 -7.29993 -1.96586 0
M  V30 35435 H 3278.63 -7.13315 -3.14328 0
M  V30 35436 N 3282.86 -0.136936 -1.57004 0
M  V30 35437 C 3284.09 0.527173 -2.00588 0
M  V30 35438 C 3284.51 1.58281 -1.01631 0
M  V30 35439 O 3283.87 1.81298 0.00943748 0
M  V30 35440 C 3283.92 1.11378 -3.42969 0
M  V30 35441 O 3283.02 2.22892 -3.46977 0
M  V30 35442 H 3282.36 0.129965 -0.651157 0
M  V30 35443 H 3284.89 -0.230703 -2.03295 0
M  V30 35444 H 3284.9 1.44492 -3.81557 0
M  V30 35445 H 3283.58 0.340663 -4.14502 0
M  V30 35446 H 3282.15 1.91082 -3.20222 0
M  V30 35447 N 3284.34 1.57005 0.136853 0
M  V30 35448 C 3285.59 1.8309 0.846225 0
M  V30 35449 C 3285.9 0.719797 1.81874 0
M  V30 35450 O 3287.11 0.86654 2.573 0
M  V30 35451 C 3285.56 3.24548 1.55553 0
M  V30 35452 C 3285.17 4.4362 0.624911 0
M  V30 35453 C 3286.91 3.59897 2.25109 0
M  V30 35454 C 3284.82 5.76102 1.33643 0
M  V30 35455 H 3283.75 0.682841 0.319756 0
M  V30 35456 H 3286.4 1.83233 0.0989419 0
M  V30 35457 H 3284.78 3.18821 2.34881 0
M  V30 35458 H 3285.96 4.60606 -0.133864 0
M  V30 35459 H 3284.27 4.16383 0.0372484 0
M  V30 35460 H 3286.87 4.56139 2.79 0
M  V30 35461 H 3287.21 2.86451 3.02079 0
M  V30 35462 H 3287.75 3.67329 1.52689 0
M  V30 35463 H 3284.49 6.52671 0.608381 0
M  V30 35464 H 3284.01 5.63035 2.06766 0
M  V30 35465 H 3285.68 6.19249 1.87456 0
M  V30 35466 N 3285.82 -0.406513 1.52267 0
M  V30 35467 C 3286.75 -1.50226 1.78758 0
M  V30 35468 C 3287.73 -1.57654 0.63868 0
M  V30 35469 O 3288.91 -1.72886 0.884535 0
M  V30 35470 C 3286.04 -2.88023 1.94062 0
M  V30 35471 C 3285 -2.95444 3.09672 0
M  V30 35472 C 3284.32 -4.3552 3.10204 0
M  V30 35473 C 3285.62 -2.66689 4.49081 0
M  V30 35474 H 3287.32 -1.28308 2.70513 0
M  V30 35475 H 3284.86 -0.615813 1.30168 0
M  V30 35476 H 3286.82 -3.64667 2.11177 0
M  V30 35477 H 3285.54 -3.1124 0.98981 0
M  V30 35478 H 3284.2 -2.21245 2.92312 0
M  V30 35479 H 3283.85 -4.55751 2.12839 0
M  V30 35480 H 3283.55 -4.41409 3.87855 0
M  V30 35481 H 3285.07 -5.14095 3.29452 0
M  V30 35482 H 3286.48 -3.33056 4.66633 0
M  V30 35483 H 3284.88 -2.83951 5.2867 0
M  V30 35484 H 3285.95 -1.62114 4.56998 0
M  V30 35485 N 3287.29 -1.42934 -0.663904 0
M  V30 35486 C 3288.54 -1.43273 -1.41971 0
M  V30 35487 C 3288.86 -0.0566447 -1.95518 0
M  V30 35488 O 3290.06 0.0625385 -2.71428 0
M  V30 35489 C 3288.52 -2.52075 -2.56877 0
M  V30 35490 C 3288.13 -3.95741 -2.09983 0
M  V30 35491 C 3289.87 -2.61595 -3.34317 0
M  V30 35492 C 3287.78 -4.9603 -3.22037 0
M  V30 35493 H 3286.71 -0.532927 -0.53339 0
M  V30 35494 H 3289.36 -1.68883 -0.717679 0
M  V30 35495 H 3287.74 -2.19648 -3.29501 0
M  V30 35496 H 3288.91 -4.37577 -1.44442 0
M  V30 35497 H 3287.23 -3.9017 -1.45452 0
M  V30 35498 H 3289.83 -3.337 -4.1779 0
M  V30 35499 H 3290.17 -1.66309 -3.81637 0
M  V30 35500 H 3290.7 -2.93271 -2.6877 0
M  V30 35501 H 3287.44 -5.92832 -2.79697 0
M  V30 35502 H 3286.96 -4.58817 -3.86325 0
M  V30 35503 H 3288.64 -5.18247 -3.87336 0
M  V30 35504 N 3288.77 0.901258 -1.29287 0
M  V30 35505 C 3290 1.69037 -1.20172 0
M  V30 35506 C 3290.42 1.86633 0.234476 0
M  V30 35507 O 3289.78 1.38551 1.16933 0
M  V30 35508 C 3289.83 3.05325 -1.91857 0
M  V30 35509 O 3288.93 3.93488 -1.23455 0
M  V30 35510 H 3288.27 0.517134 -0.416495 0
M  V30 35511 H 3290.8 1.126 -1.70828 0
M  V30 35512 H 3290.81 3.55477 -2.00251 0
M  V30 35513 H 3289.49 2.91836 -2.96319 0
M  V30 35514 H 3288.07 3.51922 -1.23309 0
M  V30 35515 N 3290.25 1.11738 1.11141 0
M  V30 35516 C 3291.5 0.862907 1.8231 0
M  V30 35517 C 3291.81 -0.613294 1.85737 0
M  V30 35518 O 3293.02 -0.984124 2.53036 0
M  V30 35519 C 3291.47 1.49402 3.27425 0
M  V30 35520 C 3291.08 3.00448 3.32317 0
M  V30 35521 C 3292.83 1.31951 4.03471 0
M  V30 35522 C 3290.73 3.56529 4.71848 0
M  V30 35523 H 3289.66 0.319162 0.683119 0
M  V30 35524 H 3292.31 1.343 1.25043 0
M  V30 35525 H 3290.7 0.941595 3.84643 0
M  V30 35526 H 3291.87 3.62122 2.84964 0
M  V30 35527 H 3290.19 3.17211 2.69753 0
M  V30 35528 H 3292.78 1.7128 5.06525 0
M  V30 35529 H 3293.13 0.262412 4.15472 0
M  V30 35530 H 3293.66 1.84075 3.52649 0
M  V30 35531 H 3290.4 4.61966 4.65046 0
M  V30 35532 H 3289.92 2.99628 5.19599 0
M  V30 35533 H 3291.6 3.55154 5.40809 0
M  V30 35534 N 3291.73 -1.28802 0.90817 0
M  V30 35535 C 3292.68 -2.27468 0.390774 0
M  V30 35536 C 3293.65 -1.57359 -0.531737 0
M  V30 35537 O 3294.83 -1.85292 -0.455144 0
M  V30 35538 C 3291.97 -3.43131 -0.368098 0
M  V30 35539 C 3291.08 -4.28003 0.586278 0
M  V30 35540 C 3290.22 -5.30858 -0.190487 0
M  V30 35541 C 3289.26 -6.0739 0.757865 0
M  V30 35542 N 3288.39 -7.02098 0.0149722 0
M  V30 35543 H 3293.23 -2.71103 1.23721 0
M  V30 35544 H 3290.77 -1.3333 0.621405 0
M  V30 35545 H 3292.73 -4.08977 -0.824217 0
M  V30 35546 H 3291.36 -3.00502 -1.17893 0
M  V30 35547 H 3290.41 -3.62252 1.16092 0
M  V30 35548 H 3291.72 -4.8124 1.31185 0
M  V30 35549 H 3290.88 -6.02562 -0.707422 0
M  V30 35550 H 3289.62 -4.78375 -0.94915 0
M  V30 35551 H 3288.62 -5.34543 1.28623 0
M  V30 35552 H 3289.85 -6.61963 1.51599 0
M  V30 35553 H 3287.79 -6.51972 -0.725802 0
M  V30 35554 H 3287.71 -7.52931 0.680479 0
M  V30 35555 H 3288.98 -7.78009 -0.48195 0
M  V30 35556 N 3293.21 -0.67155 -1.42576 0
M  V30 35557 C 3294.15 0.0204945 -2.32591 0
M  V30 35558 C 3295.15 0.793967 -1.49641 0
M  V30 35559 O 3296.35 0.702298 -1.65734 0
M  V30 35560 H 3292.73 0.0254212 -0.75157 0
M  V30 35561 H 3294.7 -0.756132 -2.88661 0
M  V30 35562 C 3293.45 0.960258 -3.34177 0
M  V30 35563 H 3292.77 0.374507 -3.98042 0
M  V30 35564 H 3294.21 1.41323 -3.99755 0
M  V30 35565 C 3292.67 2.06509 -2.66187 0
M  V30 35566 O 3293.2 3.15114 -2.4913 0
M  V30 35567 N 3291.41 1.83587 -2.25265 0
M  V30 35568 H 3290.95 0.952647 -2.39337 0
M  V30 35569 H 3290.91 2.577 -1.80106 0
M  V30 35570 N 3294.68 1.52047 -0.414663 0
M  V30 35571 C 3295.61 2.30064 0.399079 0
M  V30 35572 C 3296.6 1.34507 1.04124 0
M  V30 35573 O 3297.78 1.63418 1.0492 0
M  V30 35574 C 3294.91 3.12611 1.513 0
M  V30 35575 C 3293.86 4.16261 0.995548 0
M  V30 35576 C 3293.19 4.87186 2.20348 0
M  V30 35577 C 3294.49 5.2228 0.045726 0
M  V30 35578 H 3296.18 2.98338 -0.251932 0
M  V30 35579 H 3293.73 1.43477 -0.122604 0
M  V30 35580 H 3295.68 3.65959 2.0893 0
M  V30 35581 H 3294.41 2.42117 2.19197 0
M  V30 35582 H 3293.07 3.6393 0.441612 0
M  V30 35583 H 3292.71 4.13216 2.86813 0
M  V30 35584 H 3292.41 5.57259 1.86375 0
M  V30 35585 H 3293.94 5.43349 2.78575 0
M  V30 35586 H 3295.35 5.70836 0.531001 0
M  V30 35587 H 3293.75 5.99748 -0.205465 0
M  V30 35588 H 3294.82 4.76514 -0.897891 0
M  V30 35589 N 3296.16 0.145261 1.56929 0
M  V30 35590 C 3297.11 -0.812198 2.17959 0
M  V30 35591 C 3298.1 -1.25655 1.1361 0
M  V30 35592 O 3299.31 -1.22523 1.31864 0
M  V30 35593 H 3295.69 -0.280118 0.697881 0
M  V30 35594 H 3297.66 -0.273245 2.97146 0
M  V30 35595 C 3296.41 -2.04198 2.81422 0
M  V30 35596 H 3295.73 -1.70905 3.6143 0
M  V30 35597 H 3297.17 -2.69138 3.27629 0
M  V30 35598 C 3295.63 -2.84885 1.7984 0
M  V30 35599 O 3296.16 -3.81169 1.2678 0
M  V30 35600 N 3294.36 -2.49385 1.49183 0
M  V30 35601 H 3293.91 -1.71151 1.92523 0
M  V30 35602 H 3293.87 -3.03663 0.814633 0
M  V30 35603 N 3297.64 -1.57075 -0.128525 0
M  V30 35604 C 3298.59 -2.00613 -1.17716 0
M  V30 35605 C 3299.58 -0.901485 -1.43421 0
M  V30 35606 O 3300.79 -1.08669 -1.43496 0
M  V30 35607 H 3297.16 -0.638871 -0.396672 0
M  V30 35608 H 3299.14 -2.87933 -0.783387 0
M  V30 35609 C 3297.88 -2.41835 -2.49822 0
M  V30 35610 H 3297.21 -3.26398 -2.30878 0
M  V30 35611 H 3298.65 -2.76105 -3.21779 0
M  V30 35612 C 3297.11 -1.27822 -3.1171 0
M  V30 35613 O 3297.64 -0.588987 -3.97359 0
M  V30 35614 N 3295.84 -1.03771 -2.7144 0
M  V30 35615 H 3295.39 -1.59997 -2.01888 0
M  V30 35616 H 3295.35 -0.276798 -3.13179 0
M  V30 35617 N 3299.12 0.398432 -1.5248 0
M  V30 35618 C 3300.07 1.48612 -1.76587 0
M  V30 35619 C 3301.04 1.54545 -0.608704 0
M  V30 35620 O 3302.22 1.70949 -0.847413 0
M  V30 35621 C 3299.36 2.85947 -1.93206 0
M  V30 35622 C 3298.47 2.8924 -3.2088 0
M  V30 35623 C 3297.61 4.17941 -3.2787 0
M  V30 35624 C 3296.65 4.1525 -4.49704 0
M  V30 35625 N 3295.79 5.35541 -4.54027 0
M  V30 35626 H 3300.63 1.27357 -2.69414 0
M  V30 35627 H 3298.16 0.618008 -1.33488 0
M  V30 35628 H 3300.12 3.65684 -2.00825 0
M  V30 35629 H 3298.75 3.05673 -1.03749 0
M  V30 35630 H 3297.8 2.0193 -3.22379 0
M  V30 35631 H 3299.11 2.83118 -4.10665 0
M  V30 35632 H 3298.27 5.06077 -3.3462 0
M  V30 35633 H 3297.01 4.26773 -2.36043 0
M  V30 35634 H 3296.01 3.25503 -4.43089 0
M  V30 35635 H 3297.24 4.08049 -5.42838 0
M  V30 35636 H 3295.18 5.4502 -3.65088 0
M  V30 35637 H 3295.1 5.31457 -5.37671 0
M  V30 35638 H 3296.37 6.25601 -4.6502 0
M  V30 35639 N 3300.6 1.43284 0.656314 0
M  V30 35640 C 3301.53 1.51007 1.78098 0
M  V30 35641 C 3302.51 0.365009 1.66138 0
M  V30 35642 O 3303.69 0.581811 1.8528 0
M  V30 35643 C 3300.82 1.42967 3.16509 0
M  V30 35644 C 3299.78 2.55691 3.43229 0
M  V30 35645 C 3299.1 2.32705 4.81407 0
M  V30 35646 C 3300.4 3.97949 3.38281 0
M  V30 35647 H 3302.1 2.4514 1.71892 0
M  V30 35648 H 3299.64 1.17986 0.825554 0
M  V30 35649 H 3301.6 1.46975 3.94938 0
M  V30 35650 H 3300.32 0.453376 3.23438 0
M  V30 35651 H 3298.98 2.51031 2.67168 0
M  V30 35652 H 3298.63 1.33325 4.85009 0
M  V30 35653 H 3298.33 3.08266 5.00246 0
M  V30 35654 H 3299.85 2.38491 5.62098 0
M  V30 35655 H 3301.27 4.04113 4.06652 0
M  V30 35656 H 3299.66 4.73511 3.68656 0
M  V30 35657 H 3300.73 4.23305 2.36518 0
M  V30 35658 N 3302.08 -0.894389 1.29763 0
M  V30 35659 C 3303.04 -1.98065 1.15338 0
M  V30 35660 C 3304.04 -1.60563 0.0873086 0
M  V30 35661 O 3305.23 -1.70955 0.334675 0
M  V30 35662 C 3302.36 -3.32206 0.764966 0
M  V30 35663 H 3303.55 -2.12289 2.11833 0
M  V30 35664 H 3301.11 -1.07958 1.13025 0
M  V30 35665 H 3301.84 -3.23683 -0.199891 0
M  V30 35666 H 3301.63 -3.60792 1.5353 0
M  V30 35667 H 3303.12 -4.11906 0.687249 0
M  V30 35668 N 3303.55 -1.12326 -1.10547 0
M  V30 35669 C 3304.8 -0.877849 -1.82483 0
M  V30 35670 C 3305.13 0.59634 -1.85132 0
M  V30 35671 O 3304.38 1.45677 -1.30678 0
M  V30 35672 C 3304.68 -1.39632 -3.28995 0
M  V30 35673 C 3304.35 -2.88535 -3.46495 0
M  V30 35674 C 3303.01 -3.29193 -3.50978 0
M  V30 35675 C 3305.36 -3.84391 -3.51984 0
M  V30 35676 C 3302.69 -4.64416 -3.58517 0
M  V30 35677 C 3305.04 -5.19444 -3.61055 0
M  V30 35678 C 3303.71 -5.59646 -3.63803 0
M  V30 35679 H 3302.98 -0.321228 -0.667753 0
M  V30 35680 H 3305.62 -1.40325 -1.30312 0
M  V30 35681 H 3303.93 -0.791359 -3.83725 0
M  V30 35682 H 3305.63 -1.18266 -3.83163 0
M  V30 35683 H 3302.22 -2.56088 -3.43681 0
M  V30 35684 H 3306.4 -3.54075 -3.47771 0
M  V30 35685 H 3301.66 -4.94957 -3.58926 0
M  V30 35686 H 3305.83 -5.93546 -3.64247 0
M  V30 35687 H 3303.46 -6.64417 -3.69397 0
M  V30 35688 N 3305.03 1.28319 -0.914988 0
M  V30 35689 C 3305.94 2.30999 -0.409464 0
M  V30 35690 C 3306.96 1.66556 0.503497 0
M  V30 35691 O 3308.13 1.976 0.389385 0
M  V30 35692 C 3305.2 3.45017 0.341169 0
M  V30 35693 C 3304.26 4.25013 -0.605161 0
M  V30 35694 C 3303.49 5.33587 0.109744 0
M  V30 35695 O 3303.72 5.54647 1.33127 0
M  V30 35696 O 3302.65 5.9933 -0.555579 0
M  V30 35697 H 3306.48 2.76251 -1.26172 0
M  V30 35698 H 3304.06 1.33035 -0.679855 0
M  V30 35699 H 3305.94 4.14397 0.765059 0
M  V30 35700 H 3304.62 3.01845 1.16923 0
M  V30 35701 H 3303.52 3.58217 -1.07848 0
M  V30 35702 H 3304.86 4.71867 -1.40008 0
M  V30 35703 N 3306.51 0.679102 1.42218 0
M  V30 35704 C 3307.42 0.00350043 2.346 0
M  V30 35705 C 3308.44 -0.784154 1.55329 0
M  V30 35706 O 3309.61 -0.725491 1.87879 0
M  V30 35707 C 3306.68 -0.933135 3.33906 0
M  V30 35708 C 3305.74 -0.139532 4.29073 0
M  V30 35709 C 3304.97 -1.03156 5.23636 0
M  V30 35710 O 3305.19 -2.27109 5.23238 0
M  V30 35711 O 3304.13 -0.490053 5.99902 0
M  V30 35712 H 3307.95 0.764577 2.93918 0
M  V30 35713 H 3305.54 0.439354 1.42794 0
M  V30 35714 H 3307.42 -1.4707 3.94903 0
M  V30 35715 H 3306.1 -1.67399 2.77055 0
M  V30 35716 H 3305 0.442242 3.71477 0
M  V30 35717 H 3306.34 0.5623 4.88978 0
M  V30 35718 N 3307.99 -1.51825 0.42272 0
M  V30 35719 C 3309.4 -1.86649 -0.0437801 0
M  V30 35720 C 3309.75 -1.34074 -1.43243 0
M  V30 35721 O 3308.87 -0.685537 -2.05254 0
M  V30 35722 C 3309.47 -3.3869 -0.0862207 0
M  V30 35723 C 3308.03 -3.73103 -0.497091 0
M  V30 35724 C 3307.18 -2.75451 0.319703 0
M  V30 35725 H 3310.13 -1.45258 0.639207 0
M  V30 35726 H 3310.15 -3.69734 -0.898735 0
M  V30 35727 H 3309.66 -3.76926 0.924591 0
M  V30 35728 H 3307.76 -3.40452 -1.51405 0
M  V30 35729 H 3307.87 -4.78538 -0.232041 0
M  V30 35730 H 3306.24 -2.53749 -0.219918 0
M  V30 35731 H 3307.02 -3.16527 1.32912 0
M  V30 35732 N 3309.47 -0.153581 -1.5685 0
M  V30 35733 C 3310.71 0.495881 -1.96335 0
M  V30 35734 C 3311.04 1.64439 -1.03876 0
M  V30 35735 O 3310.3 1.95577 -0.0692654 0
M  V30 35736 C 3310.59 1.03704 -3.42024 0
M  V30 35737 C 3310.26 0.00629123 -4.509 0
M  V30 35738 C 3308.92 -0.277041 -4.80402 0
M  V30 35739 C 3311.27 -0.694278 -5.16555 0
M  V30 35740 C 3308.6 -1.26664 -5.72864 0
M  V30 35741 C 3310.95 -1.67273 -6.10084 0
M  V30 35742 C 3309.62 -1.9637 -6.37962 0
M  V30 35743 H 3308.89 0.181456 -0.718439 0
M  V30 35744 H 3311.54 -0.241801 -1.89967 0
M  V30 35745 H 3309.84 1.85219 -3.45255 0
M  V30 35746 H 3311.54 1.54824 -3.69906 0
M  V30 35747 H 3308.13 0.237303 -4.27943 0
M  V30 35748 H 3312.31 -0.488583 -4.93889 0
M  V30 35749 H 3307.57 -1.49843 -5.92754 0
M  V30 35750 H 3311.74 -2.22106 -6.60032 0
M  V30 35751 H 3309.37 -2.73202 -7.09412 0
M  V30 35752 N 3310.94 1.57141 0.120193 0
M  V30 35753 C 3311.88 1.969 1.17316 0
M  V30 35754 C 3312.89 0.868158 1.3772 0
M  V30 35755 O 3314.08 1.14645 1.36816 0
M  V30 35756 C 3311.18 2.25106 2.53339 0
M  V30 35757 C 3310.35 3.56412 2.53553 0
M  V30 35758 C 3309.41 3.72845 3.71313 0
M  V30 35759 O 3308.44 4.44969 3.54953 0
M  V30 35760 N 3309.64 3.11523 4.8983 0
M  V30 35761 H 3312.4 2.87834 0.834972 0
M  V30 35762 H 3309.96 1.58915 0.30948 0
M  V30 35763 H 3311.96 2.33316 3.30675 0
M  V30 35764 H 3310.53 1.40305 2.79344 0
M  V30 35765 H 3309.75 3.59401 1.6194 0
M  V30 35766 H 3311.03 4.4272 2.50752 0
M  V30 35767 H 3310.43 2.52892 5.06026 0
M  V30 35768 H 3308.99 3.25256 5.64847 0
M  V30 35769 N 3312.42 -0.39034 1.5269 0
M  V30 35770 C 3313.35 -1.48322 1.80341 0
M  V30 35771 C 3314.33 -1.56968 0.655365 0
M  V30 35772 O 3315.52 -1.71938 0.902822 0
M  V30 35773 C 3312.65 -2.85948 1.97106 0
M  V30 35774 C 3311.6 -2.92143 3.12788 0
M  V30 35775 C 3310.93 -4.32205 3.14806 0
M  V30 35776 C 3312.23 -2.61911 4.51885 0
M  V30 35777 H 3313.92 -1.25432 2.71859 0
M  V30 35778 H 3311.47 -0.601972 1.30814 0
M  V30 35779 H 3313.42 -3.62407 2.15033 0
M  V30 35780 H 3312.15 -3.10173 1.02277 0
M  V30 35781 H 3310.8 -2.18132 2.94642 0
M  V30 35782 H 3310.45 -4.53467 2.17661 0
M  V30 35783 H 3310.15 -4.37271 3.92515 0
M  V30 35784 H 3311.68 -5.10572 3.34886 0
M  V30 35785 H 3313.09 -3.28088 4.7014 0
M  V30 35786 H 3311.49 -2.78328 5.31652 0
M  V30 35787 H 3312.56 -1.57258 4.58692 0
M  V30 35788 N 3313.9 -1.4363 -0.648706 0
M  V30 35789 C 3314.83 -1.5195 -1.77295 0
M  V30 35790 C 3315.81 -0.373814 -1.65942 0
M  V30 35791 O 3317 -0.591629 -1.84969 0
M  V30 35792 C 3314.13 -1.44643 -3.15746 0
M  V30 35793 C 3313.08 -2.57508 -3.41868 0
M  V30 35794 C 3312.41 -2.35254 -4.80166 0
M  V30 35795 C 3313.71 -3.99737 -3.36166 0
M  V30 35796 H 3315.4 -2.46048 -1.70589 0
M  V30 35797 H 3312.95 -1.18422 -0.819285 0
M  V30 35798 H 3314.9 -1.49067 -3.94153 0
M  V30 35799 H 3313.62 -0.470523 -3.23193 0
M  V30 35800 H 3312.28 -2.52444 -2.65833 0
M  V30 35801 H 3311.93 -1.35896 -4.84295 0
M  V30 35802 H 3311.63 -3.10914 -4.98604 0
M  V30 35803 H 3313.15 -2.41469 -5.60825 0
M  V30 35804 H 3314.57 -4.06264 -4.04503 0
M  V30 35805 H 3312.97 -4.75459 -3.6614 0
M  V30 35806 H 3314.04 -4.24553 -2.3427 0
M  V30 35807 N 3315.38 0.887495 -1.30236 0
M  V30 35808 C 3316.63 1.63908 -1.18913 0
M  V30 35809 C 3316.95 1.92798 0.256715 0
M  V30 35810 O 3316.21 1.54557 1.20045 0
M  V30 35811 C 3316.51 2.98829 -1.96051 0
M  V30 35812 C 3316.17 2.89501 -3.45688 0
M  V30 35813 C 3314.84 2.86664 -3.86494 0
M  V30 35814 C 3317.19 2.77812 -4.40988 0
M  V30 35815 C 3314.52 2.69973 -5.20895 0
M  V30 35816 C 3316.87 2.6266 -5.75493 0
M  V30 35817 C 3315.53 2.58196 -6.15541 0
M  V30 35818 H 3314.8 0.599783 -0.435134 0
M  V30 35819 H 3317.45 1.03206 -1.6131 0
M  V30 35820 H 3315.75 3.63468 -1.46282 0
M  V30 35821 H 3317.45 3.55939 -1.84685 0
M  V30 35822 H 3314.04 2.92517 -3.1326 0
M  V30 35823 H 3318.22 2.79072 -4.10405 0
M  V30 35824 H 3313.48 2.6493 -5.51019 0
M  V30 35825 H 3317.65 2.52588 -6.48978 0
M  V30 35826 H 3315.28 2.45021 -7.19631 0
M  V30 35827 N 3316.86 1.12911 1.0995 0
M  V30 35828 C 3317.79 0.824052 2.18476 0
M  V30 35829 C 3318.77 -0.214295 1.68745 0
M  V30 35830 O 3319.95 -0.074394 1.94057 0
M  V30 35831 C 3317.08 0.283369 3.46142 0
M  V30 35832 C 3316.04 1.25535 4.09176 0
M  V30 35833 C 3315.36 0.574667 5.31603 0
M  V30 35834 C 3316.66 2.61188 4.52303 0
M  V30 35835 H 3318.36 1.73153 2.44251 0
M  V30 35836 H 3315.9 0.833973 1.17392 0
M  V30 35837 H 3317.86 0.0576571 4.21361 0
M  V30 35838 H 3316.58 -0.659469 3.19873 0
M  V30 35839 H 3315.24 1.46696 3.3597 0
M  V30 35840 H 3314.89 -0.373472 5.01612 0
M  V30 35841 H 3314.59 1.22309 5.7473 0
M  V30 35842 H 3316.11 0.358111 6.09549 0
M  V30 35843 H 3317.52 2.44027 5.18772 0
M  V30 35844 H 3315.92 3.22155 5.06296 0
M  V30 35845 H 3316.99 3.19255 3.64971 0
M  V30 35846 N 3318.33 -1.27832 0.92178 0
M  V30 35847 C 3319.27 -2.25331 0.360723 0
M  V30 35848 C 3320.25 -1.53386 -0.539583 0
M  V30 35849 O 3321.43 -1.82249 -0.481428 0
M  V30 35850 C 3318.56 -3.3523 -0.483567 0
M  V30 35851 C 3317.6 -4.25041 0.352479 0
M  V30 35852 S 3318.44 -5.05601 1.7643 0
M  V30 35853 C 3319.59 -6.18989 0.927529 0
M  V30 35854 H 3319.82 -2.72572 1.18708 0
M  V30 35855 H 3317.36 -1.36396 0.723564 0
M  V30 35856 H 3319.32 -3.99 -0.964844 0
M  V30 35857 H 3317.98 -2.8664 -1.28439 0
M  V30 35858 H 3317.17 -5.03145 -0.293469 0
M  V30 35859 H 3316.77 -3.66036 0.767708 0
M  V30 35860 H 3319.06 -6.77309 0.160817 0
M  V30 35861 H 3320.01 -6.87848 1.68138 0
M  V30 35862 H 3320.41 -5.62522 0.472155 0
M  V30 35863 N 3319.81 -0.686634 -1.41856 0
M  V30 35864 C 3321.06 -0.213414 -2.0097 0
M  V30 35865 C 3321.38 1.18818 -1.5462 0
M  V30 35866 O 3320.65 1.80006 -0.772948 0
M  V30 35867 H 3319.23 -0.0759099 -0.743133 0
M  V30 35868 H 3321.89 -0.885794 -1.73608 0
M  V30 35869 H 3320.99 -0.223881 -3.11296 0
M  V30 35870 N 3321.29 1.51599 -0.430766 0
M  V30 35871 C 3322.54 2.0203 0.137894 0
M  V30 35872 C 3322.87 1.31529 1.43284 0
M  V30 35873 O 3322.12 0.416848 1.91209 0
M  V30 35874 C 3322.42 3.55033 0.410631 0
M  V30 35875 C 3322.09 4.43788 -0.797712 0
M  V30 35876 C 3320.75 4.67766 -1.1291 0
M  V30 35877 C 3323.1 4.95901 -1.60411 0
M  V30 35878 C 3320.43 5.41103 -2.26769 0
M  V30 35879 C 3322.78 5.70486 -2.73364 0
M  V30 35880 C 3321.44 5.9273 -3.06965 0
M  V30 35881 H 3320.71 0.73928 0.0504588 0
M  V30 35882 H 3323.36 1.82613 -0.576617 0
M  V30 35883 H 3321.67 3.72746 1.20696 0
M  V30 35884 H 3323.36 3.91583 0.863938 0
M  V30 35885 H 3319.95 4.25317 -0.529472 0
M  V30 35886 H 3324.14 4.77265 -1.3613 0
M  V30 35887 H 3319.39 5.56541 -2.53124 0
M  V30 35888 H 3323.57 6.09858 -3.36223 0
M  V30 35889 H 3321.19 6.49337 -3.95304 0
M  V30 35890 N 3322.77 0.161897 1.56766 0
M  V30 35891 C 3324 -0.491992 2.00965 0
M  V30 35892 C 3324.41 -1.57436 1.04209 0
M  V30 35893 O 3323.77 -1.82453 0.0414318 0
M  V30 35894 C 3323.82 -1.07898 3.45022 0
M  V30 35895 O 3323.54 -0.0398315 4.38082 0
M  V30 35896 C 3325.04 -1.81202 4.04575 0
M  V30 35897 H 3322.26 -0.126785 0.658913 0
M  V30 35898 H 3324.81 0.260859 2.02829 0
M  V30 35899 H 3322.96 -1.78237 3.43963 0
M  V30 35900 H 3323.37 -0.471894 5.22373 0
M  V30 35901 H 3324.85 -2.17545 5.07325 0
M  V30 35902 H 3325.33 -2.70352 3.4613 0
M  V30 35903 H 3325.93 -1.15527 4.09309 0
M  V30 35904 N 3324.25 -1.57203 -0.111858 0
M  V30 35905 C 3325.5 -1.84413 -0.81699 0
M  V30 35906 C 3325.81 -0.74864 -1.80706 0
M  V30 35907 O 3327.01 -0.907364 -2.55889 0
M  V30 35908 C 3325.47 -3.26981 -1.50371 0
M  V30 35909 C 3325.08 -4.44558 -0.554256 0
M  V30 35910 C 3326.82 -3.63433 -2.19355 0
M  V30 35911 C 3324.73 -5.78155 -1.2446 0
M  V30 35912 H 3323.66 -0.687842 -0.308852 0
M  V30 35913 H 3326.31 -1.83367 -0.0697786 0
M  V30 35914 H 3324.69 -3.22518 -2.29779 0
M  V30 35915 H 3325.87 -4.60334 0.207126 0
M  V30 35916 H 3324.18 -4.1639 0.0289993 0
M  V30 35917 H 3326.78 -4.6052 -2.71708 0
M  V30 35918 H 3327.12 -2.91221 -2.97483 0
M  V30 35919 H 3327.65 -3.69712 -1.46826 0
M  V30 35920 H 3324.39 -6.53556 -0.504469 0
M  V30 35921 H 3323.91 -5.66253 -1.97782 0
M  V30 35922 H 3325.59 -6.22153 -1.7758 0
M  V30 35923 N 3325.72 0.382237 -1.52894 0
M  V30 35924 C 3326.95 1.14597 -1.71904 0
M  V30 35925 C 3327.36 1.84008 -0.440202 0
M  V30 35926 O 3326.71 1.73777 0.595585 0
M  V30 35927 C 3326.77 2.23239 -2.81789 0
M  V30 35928 C 3326.43 1.73737 -4.22687 0
M  V30 35929 C 3327.43 1.21045 -5.05613 0
M  V30 35930 C 3325.11 1.79755 -4.69035 0
M  V30 35931 C 3327.11 0.750257 -6.32969 0
M  V30 35932 C 3324.79 1.33348 -5.96374 0
M  V30 35933 C 3325.79 0.810713 -6.78171 0
M  V30 35934 O 3325.48 0.353436 -8.03123 0
M  V30 35935 H 3325.21 0.349282 -0.578773 0
M  V30 35936 H 3327.77 0.45221 -2.0036 0
M  V30 35937 H 3326 2.96059 -2.48769 0
M  V30 35938 H 3327.69 2.84877 -2.89136 0
M  V30 35939 H 3328.45 1.15747 -4.70986 0
M  V30 35940 H 3324.33 2.19387 -4.05451 0
M  V30 35941 H 3327.87 0.341543 -6.96763 0
M  V30 35942 H 3323.77 1.38333 -6.30503 0
M  V30 35943 H 3324.54 0.474295 -8.17125 0
M  V30 35944 N 3327.2 1.43972 0.64108 0
M  V30 35945 C 3328.17 1.49726 1.73536 0
M  V30 35946 C 3329.17 0.380466 1.56234 0
M  V30 35947 O 3330.36 0.642702 1.6191 0
M  V30 35948 C 3327.49 1.36159 3.12528 0
M  V30 35949 H 3328.68 2.47192 1.69812 0
M  V30 35950 H 3326.23 1.30917 0.853844 0
M  V30 35951 H 3326.97 0.397476 3.21855 0
M  V30 35952 H 3326.75 2.17129 3.26492 0
M  V30 35953 H 3328.24 1.43144 3.923 0
M  V30 35954 N 3328.68 -0.880575 1.30704 0
M  V30 35955 C 3329.91 -1.66578 1.22717 0
M  V30 35956 C 3330.32 -1.87637 -0.20927 0
M  V30 35957 O 3329.68 -1.42699 -1.13769 0
M  V30 35958 C 3329.73 -3.0397 1.95664 0
M  V30 35959 O 3329.45 -2.83859 3.337 0
M  V30 35960 C 3330.95 -3.98407 1.94387 0
M  V30 35961 H 3328.17 -0.519665 0.424487 0
M  V30 35962 H 3330.72 -1.09987 1.72404 0
M  V30 35963 H 3328.87 -3.57281 1.49764 0
M  V30 35964 H 3329.29 -3.71051 3.70704 0
M  V30 35965 H 3330.76 -4.92163 2.49959 0
M  V30 35966 H 3331.24 -4.29374 0.923843 0
M  V30 35967 H 3331.84 -3.51032 2.40118 0
M  V30 35968 N 3330.16 -1.13492 -1.09349 0
M  V30 35969 C 3331.07 -0.826405 -2.19563 0
M  V30 35970 C 3332.09 0.189309 -1.72967 0
M  V30 35971 O 3333.26 0.0201679 -2.0139 0
M  V30 35972 C 3330.33 -0.297746 -3.45419 0
M  V30 35973 C 3329.39 -1.3748 -4.06691 0
M  V30 35974 C 3328.62 -0.871276 -5.2654 0
M  V30 35975 O 3328.84 0.290858 -5.69658 0
M  V30 35976 O 3327.78 -1.64594 -5.78958 0
M  V30 35977 H 3331.6 -1.74722 -2.48406 0
M  V30 35978 H 3329.19 -0.912435 -1.183 0
M  V30 35979 H 3331.07 -0.00836886 -4.21399 0
M  V30 35980 H 3329.75 0.59548 -3.18176 0
M  V30 35981 H 3328.65 -1.71751 -3.32344 0
M  V30 35982 H 3329.99 -2.2422 -4.38162 0
M  V30 35983 N 3331.64 1.27341 -0.928546 0
M  V30 35984 C 3332.89 1.93945 -0.568301 0
M  V30 35985 C 3333.21 1.73327 0.89347 0
M  V30 35986 O 3332.48 1.0815 1.63342 0
M  V30 35987 H 3331.06 0.717693 -0.207186 0
M  V30 35988 H 3333.72 1.55034 -1.18112 0
M  V30 35989 H 3332.81 3.02317 -0.775299 0
M  V30 35990 N 3333.12 0.694147 1.4149 0
M  V30 35991 C 3334.34 0.233503 2.05578 0
M  V30 35992 C 3334.76 -1.11673 1.52232 0
M  V30 35993 O 3334.12 -1.69758 0.669967 0
M  V30 35994 C 3334.17 0.181031 3.61046 0
M  V30 35995 O 3333.89 1.47792 4.12419 0
M  V30 35996 C 3335.39 -0.300776 4.42278 0
M  V30 35997 H 3332.61 0.108955 0.662095 0
M  V30 35998 H 3335.15 0.946331 1.81287 0
M  V30 35999 H 3333.31 -0.482611 3.84382 0
M  V30 36000 H 3333.72 1.36409 5.06451 0
M  V30 36001 H 3335.2 -0.286367 5.51257 0
M  V30 36002 H 3335.67 -1.33941 4.18278 0
M  V30 36003 H 3336.28 0.331816 4.24004 0
M  V30 36004 N 3334.59 -1.51368 0.438799 0
M  V30 36005 C 3335.82 -2.06218 -0.125628 0
M  V30 36006 C 3336.23 -1.30611 -1.36884 0
M  V30 36007 O 3335.57 -0.359465 -1.80149 0
M  V30 36008 C 3335.64 -3.55838 -0.511783 0
M  V30 36009 C 3335.3 -4.52708 0.624835 0
M  V30 36010 C 3336.3 -4.97869 1.4974 0
M  V30 36011 C 3333.98 -4.95792 0.805982 0
M  V30 36012 C 3335.98 -5.84787 2.5358 0
M  V30 36013 C 3333.66 -5.82499 1.84765 0
M  V30 36014 C 3334.66 -6.26895 2.71094 0
M  V30 36015 O 3334.35 -7.1188 3.73472 0
M  V30 36016 H 3334.08 -0.675915 -0.0107108 0
M  V30 36017 H 3336.64 -1.95911 0.617106 0
M  V30 36018 H 3334.87 -3.63934 -1.30724 0
M  V30 36019 H 3336.55 -3.93197 -1.00754 0
M  V30 36020 H 3337.32 -4.65278 1.36899 0
M  V30 36021 H 3333.2 -4.60776 0.143601 0
M  V30 36022 H 3336.74 -6.19361 3.20995 0
M  V30 36023 H 3332.64 -6.14503 1.97625 0
M  V30 36024 H 3333.41 -7.30062 3.70071 0
M  V30 36025 N 3336.07 -0.170208 -1.56678 0
M  V30 36026 C 3337.35 0.521328 -1.88525 0
M  V30 36027 C 3337.73 1.81386 -1.07992 0
M  V30 36028 O 3337.08 2.2784 -0.17351 0
M  V30 36029 C 3337.29 0.764307 -3.40528 0
M  V30 36030 C 3338.63 1.0948 -4.10243 0
M  V30 36031 O 3339.66 0.852884 -3.45839 0
M  V30 36032 O 3338.52 1.55115 -5.24025 0
M  V30 36033 H 3335.61 0.268601 -0.782165 0
M  V30 36034 H 3338.16 -0.208561 -1.68414 0
M  V30 36035 H 3336.93 -0.149484 -3.91014 0
M  V30 36036 H 3336.55 1.54755 -3.66247 0
M  V30 36037 N 3337.55 1.5726 0.10352 0
M  V30 36038 C 3338.8 1.85658 0.808544 0
M  V30 36039 C 3339.12 0.757533 1.79142 0
M  V30 36040 O 3338.38 -0.249688 1.94101 0
M  V30 36041 C 3338.68 3.20608 1.5794 0
M  V30 36042 C 3338.34 4.44796 0.739424 0
M  V30 36043 C 3337.01 4.78513 0.507837 0
M  V30 36044 C 3339.36 5.2097 0.154942 0
M  V30 36045 C 3336.69 5.85836 -0.318232 0
M  V30 36046 C 3339.04 6.29164 -0.658402 0
M  V30 36047 C 3337.7 6.61403 -0.90016 0
M  V30 36048 H 3336.97 0.67937 0.295867 0
M  V30 36049 H 3339.62 1.91371 0.0703267 0
M  V30 36050 H 3337.92 3.10541 2.38896 0
M  V30 36051 H 3339.62 3.39806 2.12915 0
M  V30 36052 H 3336.21 4.18388 0.930029 0
M  V30 36053 H 3340.4 4.95261 0.321043 0
M  V30 36054 H 3335.65 6.0923 -0.514603 0
M  V30 36055 H 3339.83 6.87364 -1.11821 0
M  V30 36056 H 3337.45 7.44395 -1.54207 0
M  V30 36057 N 3339.03 -0.374123 1.53095 0
M  V30 36058 C 3340.26 -1.13684 1.7251 0
M  V30 36059 C 3340.67 -1.83772 0.449954 0
M  V30 36060 O 3340.01 -1.7409 -0.586361 0
M  V30 36061 C 3340.07 -2.21741 2.82968 0
M  V30 36062 C 3339.73 -1.71493 4.23602 0
M  V30 36063 C 3340.73 -1.18362 5.06248 0
M  V30 36064 C 3338.42 -1.77265 4.69981 0
M  V30 36065 C 3340.41 -0.716679 6.33358 0
M  V30 36066 C 3338.1 -1.30183 5.97072 0
M  V30 36067 C 3339.1 -0.774736 6.78592 0
M  V30 36068 O 3338.78 -0.310839 8.03299 0
M  V30 36069 H 3338.52 -0.346208 0.580617 0
M  V30 36070 H 3341.07 -0.441578 2.00597 0
M  V30 36071 H 3339.3 -2.94736 2.50335 0
M  V30 36072 H 3340.99 -2.8334 2.90643 0
M  V30 36073 H 3341.75 -1.13248 4.71593 0
M  V30 36074 H 3337.63 -2.17233 4.06609 0
M  V30 36075 H 3341.18 -0.304587 6.96935 0
M  V30 36076 H 3337.07 -1.34988 6.31228 0
M  V30 36077 H 3337.84 -0.430954 8.17365 0
M  V30 36078 N 3340.51 -1.4431 -0.633436 0
M  V30 36079 C 3341.73 -1.50671 -1.42524 0
M  V30 36080 C 3342.16 -0.131894 -1.87637 0
M  V30 36081 O 3341.51 0.878449 -1.58597 0
M  V30 36082 C 3341.56 -2.47424 -2.62324 0
M  V30 36083 O 3340.67 -1.97417 -3.62078 0
M  V30 36084 H 3340.01 -0.508872 -0.426551 0
M  V30 36085 H 3342.54 -1.89421 -0.773359 0
M  V30 36086 H 3342.55 -2.65384 -3.09896 0
M  V30 36087 H 3341.22 -3.47287 -2.28834 0
M  V30 36088 H 3339.8 -1.89213 -3.2133 0
M  V30 36089 N 3341.98 0.873632 -1.3117 0
M  V30 36090 C 3342.93 1.9805 -1.18511 0
M  V30 36091 C 3343.9 1.65945 -0.0717875 0
M  V30 36092 O 3345.09 1.89233 -0.243998 0
M  V30 36093 C 3342.23 3.33302 -0.89463 0
M  V30 36094 C 3341.34 3.78027 -2.09093 0
M  V30 36095 C 3340.47 5.01979 -1.73755 0
M  V30 36096 C 3339.51 5.39142 -2.89815 0
M  V30 36097 N 3338.65 6.54274 -2.54697 0
M  V30 36098 H 3343.49 2.08209 -2.13197 0
M  V30 36099 H 3341.03 1.01932 -1.06058 0
M  V30 36100 H 3342.99 4.1117 -0.706786 0
M  V30 36101 H 3341.62 3.22796 0.0153881 0
M  V30 36102 H 3340.67 2.95972 -2.38966 0
M  V30 36103 H 3341.98 4.01501 -2.9597 0
M  V30 36104 H 3341.13 5.87503 -1.51412 0
M  V30 36105 H 3339.87 4.804 -0.840638 0
M  V30 36106 H 3338.88 4.52139 -3.12811 0
M  V30 36107 H 3340.1 5.62687 -3.8021 0
M  V30 36108 H 3338.05 6.34249 -1.67524 0
M  V30 36109 H 3337.97 6.77673 -3.35105 0
M  V30 36110 H 3339.23 7.42999 -2.35738 0
M  V30 36111 N 3343.46 1.1407 1.08746 0
M  V30 36112 C 3344.71 0.906769 1.81063 0
M  V30 36113 C 3345.04 -0.566812 1.86058 0
M  V30 36114 O 3344.29 -1.4358 1.32979 0
M  V30 36115 C 3344.59 1.44848 3.26732 0
M  V30 36116 C 3344.26 2.94011 3.4186 0
M  V30 36117 C 3342.92 3.34735 3.45697 0
M  V30 36118 C 3345.27 3.89943 3.45824 0
M  V30 36119 C 3342.6 4.70061 3.51083 0
M  V30 36120 C 3344.95 5.25122 3.52746 0
M  V30 36121 C 3343.62 5.65363 3.54854 0
M  V30 36122 H 3342.89 0.33181 0.662558 0
M  V30 36123 H 3345.53 1.4238 1.28063 0
M  V30 36124 H 3343.84 0.852306 3.82417 0
M  V30 36125 H 3345.53 1.24347 3.81233 0
M  V30 36126 H 3342.12 2.61524 3.39563 0
M  V30 36127 H 3346.31 3.59563 3.42094 0
M  V30 36128 H 3341.56 5.00604 3.51006 0
M  V30 36129 H 3345.74 5.99266 3.54758 0
M  V30 36130 H 3343.37 6.70209 3.5878 0
M  V30 36131 N 3344.94 -1.26847 0.935286 0
M  V30 36132 C 3345.87 -2.28968 0.457817 0
M  V30 36133 C 3346.85 -1.63014 -0.485841 0
M  V30 36134 O 3348.04 -1.90265 -0.388964 0
M  V30 36135 C 3345.17 -3.46143 -0.283271 0
M  V30 36136 C 3344.12 -4.24143 0.573271 0
M  V30 36137 C 3343.45 -5.33872 -0.297431 0
M  V30 36138 C 3344.75 -4.88755 1.84162 0
M  V30 36139 H 3346.44 -2.69157 1.3113 0
M  V30 36140 H 3343.99 -1.29391 0.631979 0
M  V30 36141 H 3345.94 -4.1669 -0.628292 0
M  V30 36142 H 3344.66 -3.04892 -1.17084 0
M  V30 36143 H 3343.32 -3.55353 0.901105 0
M  V30 36144 H 3342.97 -4.88862 -1.18418 0
M  V30 36145 H 3342.67 -5.86969 0.272229 0
M  V30 36146 H 3344.19 -6.07259 -0.637854 0
M  V30 36147 H 3345.61 -5.51548 1.5642 0
M  V30 36148 H 3344.01 -5.51944 2.35538 0
M  V30 36149 H 3345.08 -4.12028 2.55657 0
M  V30 36150 N 3346.42 -0.701641 -1.4112 0
M  V30 36151 C 3347.33 -0.0408228 -2.34564 0
M  V30 36152 C 3348.34 0.759343 -1.56557 0
M  V30 36153 O 3349.52 0.695509 -1.8901 0
M  V30 36154 C 3346.59 0.879895 -3.35349 0
M  V30 36155 C 3345.65 0.0712524 -4.29241 0
M  V30 36156 C 3344.88 0.948119 -5.25211 0
M  V30 36157 O 3345.1 2.18756 -5.26784 0
M  V30 36158 O 3344.04 0.394552 -6.00605 0
M  V30 36159 H 3347.86 -0.81124 -2.92665 0
M  V30 36160 H 3345.45 -0.462016 -1.42077 0
M  V30 36161 H 3347.33 1.40769 -3.97193 0
M  V30 36162 H 3346 1.6297 -2.79683 0
M  V30 36163 H 3344.91 -0.501285 -3.70726 0
M  V30 36164 H 3346.24 -0.640021 -4.88021 0
M  V30 36165 N 3347.9 1.51133 -0.446821 0
M  V30 36166 C 3349.12 2.07069 0.117205 0
M  V30 36167 C 3349.55 1.31112 1.34875 0
M  V30 36168 O 3348.9 0.351751 1.77855 0
M  V30 36169 C 3348.95 3.58278 0.408553 0
M  V30 36170 O 3348.06 3.84411 1.49338 0
M  V30 36171 H 3347.4 0.663996 -0.00229625 0
M  V30 36172 H 3349.93 1.9463 -0.630884 0
M  V30 36173 H 3349.94 4.02688 0.656228 0
M  V30 36174 H 3348.61 4.12985 -0.491516 0
M  V30 36175 H 3347.19 3.51858 1.23493 0
M  V30 36176 N 3349.37 0.178515 1.56586 0
M  V30 36177 C 3350.62 -0.464583 1.97099 0
M  V30 36178 C 3350.95 -1.62765 1.06479 0
M  V30 36179 O 3350.2 -1.95442 0.100371 0
M  V30 36180 C 3350.5 -0.982492 3.4363 0
M  V30 36181 C 3350.17 0.0654438 4.50853 0
M  V30 36182 C 3348.83 0.353433 4.799 0
M  V30 36183 C 3351.18 0.77637 5.15385 0
M  V30 36184 C 3348.51 1.35761 5.70776 0
M  V30 36185 C 3350.86 1.76958 6.07345 0
M  V30 36186 C 3349.53 2.06494 6.34757 0
M  V30 36187 H 3348.8 -0.170003 0.721235 0
M  V30 36188 H 3351.44 0.271992 1.89559 0
M  V30 36189 H 3349.75 -1.79703 3.48158 0
M  V30 36190 H 3351.45 -1.4892 3.72322 0
M  V30 36191 H 3348.04 -0.169191 4.28266 0
M  V30 36192 H 3352.22 0.567094 4.93049 0
M  V30 36193 H 3347.48 1.59255 5.90295 0
M  V30 36194 H 3351.65 2.32578 6.56415 0
M  V30 36195 H 3349.28 2.84453 7.04975 0
M  V30 36196 N 3350.85 -1.57312 -0.0951784 0
M  V30 36197 C 3351.8 -2.03065 -1.13434 0
M  V30 36198 C 3352.79 -0.931704 -1.41477 0
M  V30 36199 O 3354 -1.11688 -1.41159 0
M  V30 36200 H 3350.38 -0.647141 -0.383031 0
M  V30 36201 H 3352.35 -2.8953 -0.722135 0
M  V30 36202 C 3351.1 -2.4708 -2.44636 0
M  V30 36203 H 3350.42 -3.31222 -2.23902 0
M  V30 36204 H 3351.86 -2.82869 -3.1585 0
M  V30 36205 C 3350.32 -1.34405 -3.08929 0
M  V30 36206 O 3350.85 -0.67314 -3.9602 0
M  V30 36207 N 3349.05 -1.09506 -2.69178 0
M  V30 36208 H 3348.6 -1.64243 -1.98449 0
M  V30 36209 H 3348.56 -0.343165 -3.12522 0
M  V30 36210 N 3352.33 0.365999 -1.53291 0
M  V30 36211 C 3353.58 1.11033 -1.69704 0
M  V30 36212 C 3353.91 1.88978 -0.447314 0
M  V30 36213 O 3353.18 1.86402 0.555388 0
M  V30 36214 C 3353.47 2.06989 -2.94665 0
M  V30 36215 C 3353.32 1.32655 -4.29794 0
M  V30 36216 C 3354.64 3.07118 -3.15225 0
M  V30 36217 H 3351.76 0.402273 -0.617532 0
M  V30 36218 H 3354.4 0.39119 -1.85929 0
M  V30 36219 H 3352.55 2.68313 -2.80963 0
M  V30 36220 H 3354.22 0.741186 -4.55307 0
M  V30 36221 H 3352.47 0.628408 -4.29224 0
M  V30 36222 H 3353.14 2.02887 -5.13362 0
M  V30 36223 H 3355.61 2.55897 -3.28109 0
M  V30 36224 H 3354.49 3.71482 -4.04095 0
M  V30 36225 H 3354.75 3.77265 -2.30486 0
M  V30 36226 N 3353.81 1.44644 0.625774 0
M  V30 36227 C 3354.76 1.52229 1.75866 0
M  V30 36228 C 3355.75 0.393579 1.64764 0
M  V30 36229 O 3356.96 0.568748 1.70778 0
M  V30 36230 H 3353.33 0.477794 0.580704 0
M  V30 36231 H 3355.3 2.47567 1.66592 0
M  V30 36232 C 3354.05 1.48879 3.14214 0
M  V30 36233 H 3353.37 2.35049 3.23407 0
M  V30 36234 H 3354.81 1.58246 3.93363 0
M  V30 36235 C 3353.27 0.210358 3.36243 0
M  V30 36236 O 3353.8 -0.717265 3.95244 0
M  V30 36237 N 3352.01 0.111795 2.90385 0
M  V30 36238 H 3351.56 0.867508 2.42553 0
M  V30 36239 H 3351.51 -0.742817 3.05499 0
M  V30 36240 N 3355.29 -0.866663 1.31631 0
M  V30 36241 C 3356.23 -1.97419 1.19559 0
M  V30 36242 C 3357.2 -1.65904 0.0805869 0
M  V30 36243 O 3358.39 -1.89101 0.25403 0
M  V30 36244 C 3355.53 -3.32823 0.912293 0
M  V30 36245 C 3354.64 -3.76912 2.11095 0
M  V30 36246 C 3353.78 -5.0105 1.76415 0
M  V30 36247 C 3352.82 -5.37597 2.9267 0
M  V30 36248 N 3351.95 -6.52914 2.58163 0
M  V30 36249 H 3356.79 -2.07076 2.14298 0
M  V30 36250 H 3354.33 -1.01368 1.06597 0
M  V30 36251 H 3356.29 -4.10789 0.728582 0
M  V30 36252 H 3354.92 -3.228 0.00173078 0
M  V30 36253 H 3353.97 -2.94701 2.40532 0
M  V30 36254 H 3355.28 -3.99926 2.98096 0
M  V30 36255 H 3354.44 -5.86691 1.54526 0
M  V30 36256 H 3353.17 -4.79948 0.866103 0
M  V30 36257 H 3352.18 -4.50474 3.15204 0
M  V30 36258 H 3353.4 -5.60663 3.83189 0
M  V30 36259 H 3351.35 -6.33352 1.70886 0
M  V30 36260 H 3351.27 -6.75886 3.38694 0
M  V30 36261 H 3352.54 -7.41739 2.39675 0
M  V30 36262 N 3356.77 -1.14645 -1.0814 0
M  V30 36263 C 3358.01 -0.914549 -1.80223 0
M  V30 36264 C 3358.33 0.560236 -1.86779 0
M  V30 36265 O 3357.6 1.40722 -1.36287 0
M  V30 36266 H 3356.18 -0.335367 -0.667486 0
M  V30 36267 H 3358.85 -1.44556 -1.30727 0
M  V30 36268 H 3357.94 -1.3169 -2.82956 0
M  V30 36269 N 3358.24 1.26349 -0.942 0
M  V30 36270 C 3359.47 1.98341 -0.606266 0
M  V30 36271 C 3359.89 1.69672 0.811985 0
M  V30 36272 O 3359.25 0.945228 1.5471 0
M  V30 36273 C 3359.3 3.50295 -0.855926 0
M  V30 36274 O 3358.4 4.12338 0.0715526 0
M  V30 36275 H 3357.74 0.622216 -0.231826 0
M  V30 36276 H 3360.27 1.60795 -1.26516 0
M  V30 36277 H 3360.28 4.0053 -0.777149 0
M  V30 36278 H 3358.96 3.70492 -1.88967 0
M  V30 36279 H 3357.54 3.72854 -0.0583521 0
M  V30 36280 N 3359.72 0.709115 1.40746 0
M  V30 36281 C 3360.67 0.052399 2.30741 0
M  V30 36282 C 3361.64 -0.757119 1.47841 0
M  V30 36283 O 3362.82 -0.722389 1.76596 0
M  V30 36284 C 3359.96 -0.868144 3.34002 0
M  V30 36285 C 3359.08 -0.0487927 4.31972 0
M  V30 36286 C 3358.21 -0.968219 5.22302 0
M  V30 36287 C 3357.25 -0.142575 6.11934 0
M  V30 36288 N 3356.39 -1.01653 6.94702 0
M  V30 36289 H 3361.23 0.825559 2.86336 0
M  V30 36290 H 3358.76 0.41881 1.41012 0
M  V30 36291 H 3360.72 -1.41604 3.92434 0
M  V30 36292 H 3359.35 -1.60756 2.79924 0
M  V30 36293 H 3358.4 0.616203 3.75376 0
M  V30 36294 H 3359.72 0.590712 4.9529 0
M  V30 36295 H 3358.87 -1.58487 5.85634 0
M  V30 36296 H 3357.61 -1.64156 4.59243 0
M  V30 36297 H 3356.61 0.487062 5.47638 0
M  V30 36298 H 3357.84 0.527165 6.77051 0
M  V30 36299 H 3355.79 -1.67564 6.34238 0
M  V30 36300 H 3355.7 -0.432912 7.54759 0
M  V30 36301 H 3356.97 -1.61957 7.62489 0
M  V30 36302 N 3361.2 -1.50894 0.454829 0
M  V30 36303 C 3362.45 -2.02224 -0.105735 0
M  V30 36304 C 3362.77 -1.33792 -1.41174 0
M  V30 36305 O 3362.03 -0.447215 -1.90522 0
M  V30 36306 C 3362.33 -3.55642 -0.354097 0
M  V30 36307 C 3361.99 -4.42462 0.868214 0
M  V30 36308 C 3360.66 -4.6591 1.20338 0
M  V30 36309 C 3363.01 -4.93286 1.6828 0
M  V30 36310 C 3360.34 -5.37427 2.35349 0
M  V30 36311 C 3362.69 -5.66065 2.82406 0
M  V30 36312 C 3361.35 -5.87771 3.16356 0
M  V30 36313 H 3360.62 -0.739989 -0.0386911 0
M  V30 36314 H 3363.27 -1.81672 0.605596 0
M  V30 36315 H 3361.57 -3.74619 -1.14751 0
M  V30 36316 H 3363.27 -3.92908 -0.801531 0
M  V30 36317 H 3359.86 -4.24421 0.597069 0
M  V30 36318 H 3364.05 -4.75039 1.43706 0
M  V30 36319 H 3359.3 -5.52444 2.61946 0
M  V30 36320 H 3363.48 -6.04432 3.45883 0
M  V30 36321 H 3361.1 -6.42966 4.05585 0
M  V30 36322 N 3362.68 -0.186817 -1.56489 0
M  V30 36323 C 3363.63 0.749986 -2.15312 0
M  V30 36324 C 3364.61 1.18209 -1.09158 0
M  V30 36325 O 3365.8 1.14186 -1.35242 0
M  V30 36326 C 3362.93 1.97279 -2.80955 0
M  V30 36327 C 3362.02 1.56197 -3.94288 0
M  V30 36328 N 3362.41 0.861617 -4.98407 0
M  V30 36329 C 3360.71 1.85187 -4.05736 0
M  V30 36330 C 3361.41 0.656976 -5.77978 0
M  V30 36331 N 3360.38 1.20317 -5.30118 0
M  V30 36332 H 3364.19 0.206096 -2.93176 0
M  V30 36333 H 3361.7 0.0132877 -1.62395 0
M  V30 36334 H 3363.7 2.65431 -3.21484 0
M  V30 36335 H 3362.36 2.52148 -2.04576 0
M  V30 36336 H 3363.37 0.517976 -5.15303 0
M  V30 36337 H 3360.05 2.41624 -3.40476 0
M  V30 36338 H 3361.44 0.102005 -6.71823 0
M  V30 36339 N 3364.16 1.57361 0.0868344 0
M  V30 36340 C 3365.09 1.99344 1.13113 0
M  V30 36341 C 3366.1 0.897175 1.35848 0
M  V30 36342 O 3367.29 1.17522 1.34354 0
M  V30 36343 C 3364.39 2.30429 2.48507 0
M  V30 36344 C 3363.56 3.6171 2.45936 0
M  V30 36345 C 3362.62 3.80637 3.6332 0
M  V30 36346 O 3361.65 4.52398 3.45435 0
M  V30 36347 N 3362.85 3.21843 4.83112 0
M  V30 36348 H 3365.61 2.8954 0.773731 0
M  V30 36349 H 3363.18 1.59535 0.275703 0
M  V30 36350 H 3365.17 2.40277 3.25651 0
M  V30 36351 H 3363.74 1.46198 2.76306 0
M  V30 36352 H 3362.96 3.62755 1.5428 0
M  V30 36353 H 3364.25 4.47939 2.41305 0
M  V30 36354 H 3363.64 2.63569 5.00548 0
M  V30 36355 H 3362.2 3.37164 5.57821 0
M  V30 36356 N 3365.63 -0.357865 1.53483 0
M  V30 36357 C 3367.05 -0.700048 1.43428 0
M  V30 36358 C 3367.25 -1.92986 0.579527 0
M  V30 36359 O 3366.31 -2.52416 0.064953 0
M  V30 36360 C 3367.62 -0.906049 2.86725 0
M  V30 36361 C 3369.17 -1.00557 2.96407 0
M  V30 36362 C 3369.64 -1.24399 4.40782 0
M  V30 36363 N 3371.13 -1.31152 4.44245 0
M  V30 36364 C 3371.87 -1.51324 5.53072 0
M  V30 36365 N 3371.36 -1.68762 6.71931 0
M  V30 36366 N 3373.16 -1.53756 5.40662 0
M  V30 36367 H 3365.31 0.45093 2.07558 0
M  V30 36368 H 3367.57 0.139727 0.937646 0
M  V30 36369 H 3367.28 -0.0740961 3.51622 0
M  V30 36370 H 3367.15 -1.81193 3.30831 0
M  V30 36371 H 3369.54 -1.82806 2.31659 0
M  V30 36372 H 3369.62 -0.0769063 2.55684 0
M  V30 36373 H 3369.26 -0.426486 5.06106 0
M  V30 36374 H 3369.19 -2.186 4.79084 0
M  V30 36375 H 3371.68 -1.19258 3.58589 0
M  V30 36376 H 3372 -1.83749 7.50637 0
M  V30 36377 H 3370.34 -1.65925 6.74903 0
M  V30 36378 H 3373.53 -1.39705 4.46766 0
M  V30 36379 H 3373.71 -1.69135 6.25538 0
M  V30 36380 N 3367.11 -1.44974 -0.618094 0
M  V30 36381 C 3368.04 -1.55676 -1.74032 0
M  V30 36382 C 3369.02 -0.408929 -1.65111 0
M  V30 36383 O 3370.21 -0.63073 -1.83672 0
M  V30 36384 C 3367.34 -1.51308 -3.12607 0
M  V30 36385 C 3366.29 -2.64701 -3.36329 0
M  V30 36386 C 3365.62 -2.45386 -4.75068 0
M  V30 36387 C 3366.92 -4.06778 -3.27611 0
M  V30 36388 H 3368.61 -2.49611 -1.65332 0
M  V30 36389 H 3366.16 -1.20133 -0.793982 0
M  V30 36390 H 3368.11 -1.57394 -3.90903 0
M  V30 36391 H 3366.83 -0.538971 -3.22122 0
M  V30 36392 H 3365.49 -2.58026 -2.60419 0
M  V30 36393 H 3365.14 -1.46138 -4.81303 0
M  V30 36394 H 3364.84 -3.21421 -4.91897 0
M  V30 36395 H 3366.37 -2.5331 -5.55577 0
M  V30 36396 H 3367.78 -4.14753 -3.95794 0
M  V30 36397 H 3366.18 -4.83119 -3.55972 0
M  V30 36398 H 3367.25 -4.29427 -2.25212 0
M  V30 36399 N 3368.59 0.85967 -1.32089 0
M  V30 36400 C 3369.84 1.60833 -1.21719 0
M  V30 36401 C 3370.15 1.94349 0.22087 0
M  V30 36402 O 3371.36 2.67805 0.446375 0
M  V30 36403 C 3369.81 2.89993 -2.13148 0
M  V30 36404 C 3369.42 2.63921 -3.62008 0
M  V30 36405 C 3371.17 3.68001 -2.11603 0
M  V30 36406 C 3369.07 3.89051 -4.45414 0
M  V30 36407 H 3368 0.603499 -0.452001 0
M  V30 36408 H 3370.65 0.94966 -1.57015 0
M  V30 36409 H 3369.04 3.57291 -1.70761 0
M  V30 36410 H 3370.21 2.04966 -4.12705 0
M  V30 36411 H 3368.52 1.99252 -3.65633 0
M  V30 36412 H 3371.12 4.60845 -2.71157 0
M  V30 36413 H 3371.46 4.01346 -1.10575 0
M  V30 36414 H 3372 3.076 -2.52244 0
M  V30 36415 H 3368.74 3.60849 -5.47237 0
M  V30 36416 H 3368.26 4.4742 -3.99469 0
M  V30 36417 H 3369.94 4.56838 -4.58157 0
M  V30 36418 N 3370.07 1.15217 1.0753 0
M  V30 36419 C 3371.01 0.84728 2.14685 0
M  V30 36420 C 3371.98 -0.199014 1.64903 0
M  V30 36421 O 3373.17 -0.0669651 1.90682 0
M  V30 36422 C 3370.31 0.340733 3.43414 0
M  V30 36423 C 3369.42 1.44838 4.06996 0
M  V30 36424 C 3368.56 0.898151 5.23552 0
M  V30 36425 C 3367.6 1.98286 5.79093 0
M  V30 36426 N 3366.73 1.44914 6.86982 0
M  V30 36427 H 3371.57 1.76502 2.40106 0
M  V30 36428 H 3369.11 0.88071 1.17822 0
M  V30 36429 H 3371.07 0.0287689 4.1719 0
M  V30 36430 H 3369.7 -0.540088 3.1825 0
M  V30 36431 H 3368.75 1.87657 3.30891 0
M  V30 36432 H 3370.06 2.26742 4.44285 0
M  V30 36433 H 3369.22 0.538621 6.04304 0
M  V30 36434 H 3367.96 0.0482609 4.87676 0
M  V30 36435 H 3366.96 2.35124 4.96988 0
M  V30 36436 H 3368.19 2.8365 6.17025 0
M  V30 36437 H 3366.13 0.621582 6.53049 0
M  V30 36438 H 3366.05 2.20447 7.23145 0
M  V30 36439 H 3367.32 1.1178 7.71444 0
M  V30 36440 N 3371.55 -1.25848 0.948687 0
M  V30 36441 C 3372.79 -1.93685 0.601159 0
M  V30 36442 C 3373.13 -1.74181 -0.858749 0
M  V30 36443 O 3372.4 -1.08333 -1.61537 0
M  V30 36444 C 3372.68 -3.4725 0.953391 0
M  V30 36445 C 3372.54 -3.76006 2.46859 0
M  V30 36446 C 3373.86 -4.37538 0.474175 0
M  V30 36447 H 3370.97 -0.703437 0.219876 0
M  V30 36448 H 3373.62 -1.48577 1.18426 0
M  V30 36449 H 3371.77 -3.85801 0.457182 0
M  V30 36450 H 3373.44 -3.47127 3.03811 0
M  V30 36451 H 3371.68 -3.2182 2.90885 0
M  V30 36452 H 3372.35 -4.83376 2.66555 0
M  V30 36453 H 3374.83 -4.06256 0.899736 0
M  V30 36454 H 3373.7 -5.4376 0.749382 0
M  V30 36455 H 3373.97 -4.37647 -0.625884 0
M  V30 36456 N 3373.02 -0.716569 -1.40368 0
M  V30 36457 C 3373.97 -0.041057 -2.27963 0
M  V30 36458 C 3374.96 0.73155 -1.43308 0
M  V30 36459 O 3376.15 0.603589 -1.66391 0
M  V30 36460 C 3373.28 0.879212 -3.31851 0
M  V30 36461 C 3372.37 0.101739 -4.23978 0
M  V30 36462 N 3372.76 -0.915524 -4.97445 0
M  V30 36463 C 3371.05 0.334149 -4.44746 0
M  V30 36464 C 3371.76 -1.38276 -5.65026 0
M  V30 36465 N 3370.73 -0.704737 -5.39012 0
M  V30 36466 H 3374.53 -0.820703 -2.82209 0
M  V30 36467 H 3372.05 -0.549244 -1.5283 0
M  V30 36468 H 3374.04 1.37848 -3.93451 0
M  V30 36469 H 3372.7 1.65822 -2.79165 0
M  V30 36470 H 3373.72 -1.2964 -5.01412 0
M  V30 36471 H 3370.39 1.08941 -4.03036 0
M  V30 36472 H 3371.78 -2.22808 -6.33882 0
M  V30 36473 N 3374.5 1.50651 -0.462825 0
M  V30 36474 C 3375.45 2.29956 0.349744 0
M  V30 36475 C 3376.44 1.36886 0.997923 0
M  V30 36476 O 3377.65 1.54115 0.929972 0
M  V30 36477 H 3374.03 0.740392 0.131622 0
M  V30 36478 H 3376 2.96461 -0.339632 0
M  V30 36479 C 3374.75 3.17206 1.42392 0
M  V30 36480 H 3374.07 3.88724 0.934542 0
M  V30 36481 H 3375.51 3.75706 1.96522 0
M  V30 36482 C 3373.97 2.34252 2.42131 0
M  V30 36483 O 3374.5 2.01984 3.47225 0
M  V30 36484 N 3372.7 1.96989 2.13644 0
M  V30 36485 H 3372.25 2.2343 1.28205 0
M  V30 36486 H 3372.21 1.41788 2.80613 0
M  V30 36487 N 3375.98 0.195113 1.56388 0
M  V30 36488 C 3376.93 -0.725754 2.19092 0
M  V30 36489 C 3377.9 -1.20975 1.13816 0
M  V30 36490 O 3379.08 -1.27364 1.42067 0
M  V30 36491 C 3376.22 -1.93968 2.8543 0
M  V30 36492 C 3375.34 -1.49705 4.05231 0
M  V30 36493 C 3374.47 -2.66648 4.59426 0
M  V30 36494 C 3373.51 -2.18991 5.71585 0
M  V30 36495 N 3372.65 -3.29112 6.20185 0
M  V30 36496 H 3377.49 -0.184282 2.9743 0
M  V30 36497 H 3375.02 -0.0792176 1.46887 0
M  V30 36498 H 3376.98 -2.65202 3.22061 0
M  V30 36499 H 3375.61 -2.45447 2.09656 0
M  V30 36500 H 3374.66 -0.680575 3.74262 0
M  V30 36501 H 3375.98 -1.1074 4.86352 0
M  V30 36502 H 3375.13 -3.46005 4.98363 0
M  V30 36503 H 3373.87 -3.08886 3.77413 0
M  V30 36504 H 3372.87 -1.38088 5.32176 0
M  V30 36505 H 3374.1 -1.77783 6.55416 0
M  V30 36506 H 3372.04 -3.70881 5.41094 0
M  V30 36507 H 3371.96 -2.94316 6.96358 0
M  V30 36508 H 3373.23 -4.08683 6.63776 0
M  V30 36509 N 3377.46 -1.57404 -0.0784879 0
M  V30 36510 C 3378.41 -2.04257 -1.11274 0
M  V30 36511 C 3379.4 -0.946657 -1.4048 0
M  V30 36512 O 3380.61 -1.13179 -1.39966 0
M  V30 36513 H 3376.98 -0.651167 -0.376146 0
M  V30 36514 H 3378.95 -2.9028 -0.691386 0
M  V30 36515 C 3377.7 -2.4966 -2.42002 0
M  V30 36516 H 3377.02 -3.33578 -2.20377 0
M  V30 36517 H 3378.46 -2.86203 -3.12832 0
M  V30 36518 C 3376.92 -1.37674 -3.07486 0
M  V30 36519 O 3377.45 -0.715106 -3.95284 0
M  V30 36520 N 3375.66 -1.12354 -2.68002 0
M  V30 36521 H 3375.21 -1.66339 -1.96695 0
M  V30 36522 H 3375.16 -0.376293 -3.1214 0
M  V30 36523 N 3378.94 0.34972 -1.53671 0
M  V30 36524 C 3379.9 1.41207 -1.80536 0
M  V30 36525 C 3380.9 1.4589 -0.676213 0
M  V30 36526 O 3382.09 1.46374 -0.944479 0
M  V30 36527 C 3379.22 2.80191 -1.9418 0
M  V30 36528 H 3380.41 1.18653 -2.7543 0
M  V30 36529 H 3377.97 0.583762 -1.44989 0
M  V30 36530 H 3378.7 3.08037 -1.01407 0
M  V30 36531 H 3378.49 2.78189 -2.76321 0
M  V30 36532 H 3379.98 3.57095 -2.16502 0
M  V30 36533 N 3380.41 1.45299 0.610397 0
M  V30 36534 C 3381.32 1.56288 1.74961 0
M  V30 36535 C 3382.34 0.447465 1.68148 0
M  V30 36536 O 3383.52 0.707758 1.88554 0
M  V30 36537 C 3380.58 1.52388 3.11414 0
M  V30 36538 C 3379.64 2.74946 3.29702 0
M  V30 36539 C 3378.88 2.71223 4.59645 0
M  V30 36540 O 3379.1 1.78392 5.41786 0
M  V30 36541 O 3378.03 3.62384 4.80585 0
M  V30 36542 H 3381.86 2.52574 1.68641 0
M  V30 36543 H 3379.44 1.27778 0.774146 0
M  V30 36544 H 3381.33 1.52811 3.92717 0
M  V30 36545 H 3380 0.592528 3.18231 0
M  V30 36546 H 3378.91 2.80086 2.47998 0
M  V30 36547 H 3380.24 3.67198 3.2776 0
M  V30 36548 N 3381.89 -0.852653 1.32543 0
M  V30 36549 C 3382.84 -1.9828 1.21605 0
M  V30 36550 C 3383.83 -1.68971 0.120414 0
M  V30 36551 O 3385.04 -1.77754 0.283472 0
M  V30 36552 H 3381.42 -0.65067 0.377005 0
M  V30 36553 H 3383.39 -2.04632 2.17183 0
M  V30 36554 C 3382.14 -3.34241 0.958024 0
M  V30 36555 H 3381.46 -3.57324 1.7933 0
M  V30 36556 H 3382.9 -4.1386 0.921746 0
M  V30 36557 C 3381.36 -3.35188 -0.339212 0
M  V30 36558 O 3381.89 -3.7832 -1.35043 0
M  V30 36559 N 3380.09 -2.88338 -0.361893 0
M  V30 36560 H 3379.64 -2.53432 0.461542 0
M  V30 36561 H 3379.6 -2.89354 -1.22971 0
M  V30 36562 N 3383.37 -1.15786 -1.06918 0
M  V30 36563 C 3384.62 -0.929975 -1.78981 0
M  V30 36564 C 3384.93 0.543936 -1.87885 0
M  V30 36565 O 3386.14 0.889533 -2.56514 0
M  V30 36566 C 3384.59 -1.61451 -3.21654 0
M  V30 36567 C 3384.2 -3.12575 -3.20937 0
M  V30 36568 C 3385.95 -1.46835 -3.98296 0
M  V30 36569 C 3383.85 -3.73796 -4.58291 0
M  V30 36570 H 3382.78 -0.344296 -0.670803 0
M  V30 36571 H 3385.43 -1.38848 -1.19973 0
M  V30 36572 H 3383.82 -1.0837 -3.80883 0
M  V30 36573 H 3384.99 -3.72448 -2.71328 0
M  V30 36574 H 3383.31 -3.27004 -2.57794 0
M  V30 36575 H 3385.9 -1.89961 -4.99819 0
M  V30 36576 H 3386.25 -0.416431 -4.14212 0
M  V30 36577 H 3386.78 -1.97037 -3.45574 0
M  V30 36578 H 3383.52 -4.78908 -4.4758 0
M  V30 36579 H 3383.04 -3.18707 -5.0812 0
M  V30 36580 H 3384.72 -3.74981 -5.27256 0
M  V30 36581 N 3384.85 1.25343 -0.955348 0
M  V30 36582 C 3386.07 1.97687 -0.627268 0
M  V30 36583 C 3386.5 1.70523 0.793943 0
M  V30 36584 O 3385.86 0.961583 1.53699 0
M  V30 36585 C 3385.9 3.49367 -0.893031 0
M  V30 36586 O 3385.01 4.12391 0.0278147 0
M  V30 36587 H 3384.35 0.619722 -0.238413 0
M  V30 36588 H 3386.88 1.59444 -1.28214 0
M  V30 36589 H 3386.89 3.99683 -0.819587 0
M  V30 36590 H 3385.56 3.68467 -1.92885 0
M  V30 36591 H 3384.14 3.72771 -0.097895 0
M  V30 36592 N 3386.33 0.724003 1.39986 0
M  V30 36593 C 3387.74 0.338494 1.83606 0
M  V30 36594 C 3388.09 -1.12829 1.60512 0
M  V30 36595 O 3387.21 -1.86918 1.09044 0
M  V30 36596 C 3387.81 0.607591 3.33307 0
M  V30 36597 C 3386.37 0.275698 3.75389 0
M  V30 36598 C 3385.52 0.875745 2.63108 0
M  V30 36599 H 3388.47 0.922505 1.29134 0
M  V30 36600 H 3388.49 -0.124357 3.80297 0
M  V30 36601 H 3388 1.6752 3.50084 0
M  V30 36602 H 3386.1 -0.786515 3.64204 0
M  V30 36603 H 3386.21 0.750576 4.73184 0
M  V30 36604 H 3384.58 0.303166 2.52889 0
M  V30 36605 H 3385.36 1.94779 2.82694 0
M  V30 36606 N 3387.81 -1.50403 0.470808 0
M  V30 36607 C 3388.75 -2.30138 -0.337544 0
M  V30 36608 C 3389.75 -1.37414 -0.990649 0
M  V30 36609 O 3390.95 -1.54606 -0.921786 0
M  V30 36610 H 3387.33 -0.741079 -0.127693 0
M  V30 36611 H 3389.3 -2.96277 0.355349 0
M  V30 36612 C 3388.05 -3.17957 -1.40708 0
M  V30 36613 H 3387.37 -3.89214 -0.913914 0
M  V30 36614 H 3388.81 -3.76743 -1.94527 0
M  V30 36615 C 3387.27 -2.35533 -2.40885 0
M  V30 36616 O 3387.8 -2.03822 -3.46149 0
M  V30 36617 N 3386.01 -1.98119 -2.12596 0
M  V30 36618 H 3385.55 -2.24107 -1.27019 0
M  V30 36619 H 3385.51 -1.43274 -2.79857 0
M  V30 36620 N 3389.28 -0.203404 -1.56282 0
M  V30 36621 C 3390.51 0.438536 -2.02199 0
M  V30 36622 C 3390.93 1.54617 -1.08346 0
M  V30 36623 O 3390.28 1.82279 -0.0897915 0
M  V30 36624 C 3390.33 0.987123 -3.47762 0
M  V30 36625 O 3390.06 -0.0763322 -4.38033 0
M  V30 36626 C 3391.56 1.70412 -4.09237 0
M  V30 36627 H 3388.78 0.10927 -0.662043 0
M  V30 36628 H 3391.32 -0.314544 -2.02066 0
M  V30 36629 H 3389.48 1.69055 -3.48567 0
M  V30 36630 H 3389.89 0.33323 -5.2344 0
M  V30 36631 H 3391.36 2.04018 -5.12914 0
M  V30 36632 H 3391.84 2.6108 -3.53177 0
M  V30 36633 H 3392.45 1.04634 -4.12228 0
M  V30 36634 N 3390.76 1.57444 0.0701393 0
M  V30 36635 C 3391.99 1.91558 0.78186 0
M  V30 36636 C 3392.4 0.799519 1.71035 0
M  V30 36637 O 3391.76 -0.22703 1.81082 0
M  V30 36638 C 3391.81 3.2543 1.57409 0
M  V30 36639 O 3391.53 4.32745 0.682915 0
M  V30 36640 C 3393.03 3.73568 2.38666 0
M  V30 36641 H 3390.25 0.633142 0.2222 0
M  V30 36642 H 3392.8 2.04461 0.0399145 0
M  V30 36643 H 3390.95 3.14049 2.2683 0
M  V30 36644 H 3391.37 5.09774 1.23411 0
M  V30 36645 H 3392.84 4.69865 2.89708 0
M  V30 36646 H 3393.32 3.02662 3.18264 0
M  V30 36647 H 3393.92 3.87899 1.74398 0
M  V30 36648 N 3392.24 -0.341566 1.53854 0
M  V30 36649 C 3393.52 -1.09872 1.61825 0
M  V30 36650 C 3393.9 -2.06448 0.440747 0
M  V30 36651 O 3393.24 -2.21359 -0.566794 0
M  V30 36652 C 3393.45 -1.81662 2.97993 0
M  V30 36653 C 3394.8 -2.35335 3.53416 0
M  V30 36654 O 3395.83 -1.91756 3.0018 0
M  V30 36655 O 3394.69 -3.15068 4.46536 0
M  V30 36656 H 3391.78 -0.505389 0.654608 0
M  V30 36657 H 3394.33 -0.342899 1.662 0
M  V30 36658 H 3393.1 -1.11317 3.75132 0
M  V30 36659 H 3392.72 -2.64098 2.97217 0
M  V30 36660 N 3393.72 -1.45621 -0.602683 0
M  V30 36661 C 3394.65 -1.57513 -1.72371 0
M  V30 36662 C 3395.63 -0.426418 -1.64668 0
M  V30 36663 O 3396.81 -0.650176 -1.82993 0
M  V30 36664 C 3393.94 -1.54615 -3.10984 0
M  V30 36665 C 3392.9 -2.68254 -3.33502 0
M  V30 36666 C 3392.22 -2.50411 -4.72439 0
M  V30 36667 C 3393.52 -4.1023 -3.23278 0
M  V30 36668 H 3395.22 -2.51351 -1.62675 0
M  V30 36669 H 3392.76 -1.20968 -0.781196 0
M  V30 36670 H 3394.72 -1.61532 -3.89211 0
M  V30 36671 H 3393.44 -0.573106 -3.21532 0
M  V30 36672 H 3392.1 -2.60774 -2.57668 0
M  V30 36673 H 3391.75 -1.51234 -4.79726 0
M  V30 36674 H 3391.45 -3.2662 -4.8846 0
M  V30 36675 H 3392.97 -2.59189 -5.52859 0
M  V30 36676 H 3394.39 -4.18927 -3.91373 0
M  V30 36677 H 3392.78 -4.86867 -3.50828 0
M  V30 36678 H 3393.85 -4.31792 -2.20644 0
M  V30 36679 N 3395.2 0.845612 -1.32993 0
M  V30 36680 C 3396.44 1.59533 -1.23418 0
M  V30 36681 C 3396.76 1.94572 0.200244 0
M  V30 36682 O 3397.96 2.68264 0.417946 0
M  V30 36683 C 3396.42 2.87716 -2.16212 0
M  V30 36684 C 3396.03 2.60067 -3.64787 0
M  V30 36685 C 3397.77 3.65736 -2.15494 0
M  V30 36686 C 3395.68 3.84305 -4.49515 0
M  V30 36687 H 3394.61 0.598671 -0.458376 0
M  V30 36688 H 3397.26 0.932953 -1.58013 0
M  V30 36689 H 3395.64 3.55459 -1.74541 0
M  V30 36690 H 3396.82 2.00577 -4.14856 0
M  V30 36691 H 3395.13 1.95362 -3.67726 0
M  V30 36692 H 3397.73 4.57943 -2.76029 0
M  V30 36693 H 3398.07 4.00151 -1.14825 0
M  V30 36694 H 3398.6 3.04908 -2.55492 0
M  V30 36695 H 3395.34 3.55025 -5.51033 0
M  V30 36696 H 3394.86 4.43157 -4.04192 0
M  V30 36697 H 3396.54 4.51953 -4.62977 0
M  V30 36698 N 3396.67 1.16351 1.06302 0
M  V30 36699 C 3397.61 0.813497 2.13208 0
M  V30 36700 C 3398.58 -0.214811 1.61175 0
M  V30 36701 O 3399.77 -0.0989127 1.8824 0
M  V30 36702 C 3396.9 0.211558 3.38039 0
M  V30 36703 C 3395.94 1.21346 4.08873 0
M  V30 36704 S 3396.77 2.7601 4.58889 0
M  V30 36705 C 3397.93 2.17265 5.86981 0
M  V30 36706 H 3398.16 1.71894 2.42569 0
M  V30 36707 H 3395.7 0.986978 1.18735 0
M  V30 36708 H 3397.65 -0.129277 4.10296 0
M  V30 36709 H 3396.32 -0.671651 3.06835 0
M  V30 36710 H 3395.51 0.740719 4.98527 0
M  V30 36711 H 3395.11 1.49938 3.42629 0
M  V30 36712 H 3397.4 1.54126 6.59736 0
M  V30 36713 H 3398.35 3.05128 6.38985 0
M  V30 36714 H 3398.75 1.61151 5.41009 0
M  V30 36715 N 3398.15 -1.24835 0.961982 0
M  V30 36716 C 3399.1 -2.27608 0.479322 0
M  V30 36717 C 3400.09 -1.63197 -0.454196 0
M  V30 36718 O 3401.3 -1.76947 -0.330115 0
M  V30 36719 H 3397.67 -0.739504 0.136523 0
M  V30 36720 H 3399.65 -2.65697 1.35822 0
M  V30 36721 C 3398.39 -3.47001 -0.220438 0
M  V30 36722 H 3397.72 -3.96801 0.488764 0
M  V30 36723 H 3399.16 -4.20774 -0.522063 0
M  V30 36724 C 3397.62 -3.04315 -1.44547 0
M  V30 36725 O 3398.15 -3.10972 -2.54282 0
M  V30 36726 N 3396.35 -2.59426 -1.30945 0
M  V30 36727 H 3395.9 -2.54209 -0.416611 0
M  V30 36728 H 3395.86 -2.31231 -2.13025 0
M  V30 36729 N 3399.63 -0.731417 -1.396 0
M  V30 36730 C 3400.58 -0.0652332 -2.27907 0
M  V30 36731 C 3401.56 0.716309 -1.44076 0
M  V30 36732 O 3402.76 0.585907 -1.67021 0
M  V30 36733 C 3399.88 0.843965 -3.32764 0
M  V30 36734 C 3398.97 0.0567643 -4.24062 0
M  V30 36735 N 3399.36 -0.968233 -4.96446 0
M  V30 36736 C 3397.66 0.286959 -4.45076 0
M  V30 36737 C 3398.36 -1.44261 -5.63528 0
M  V30 36738 N 3397.34 -0.761866 -5.38235 0
M  V30 36739 H 3401.14 -0.850589 -2.81322 0
M  V30 36740 H 3398.65 -0.565423 -1.52239 0
M  V30 36741 H 3400.65 1.33667 -3.94891 0
M  V30 36742 H 3399.31 1.62852 -2.80908 0
M  V30 36743 H 3400.32 -1.3495 -5.00009 0
M  V30 36744 H 3397 1.0466 -4.04169 0
M  V30 36745 H 3398.39 -2.29519 -6.31483 0
M  V30 36746 N 3401.11 1.50152 -0.478778 0
M  V30 36747 C 3402.06 2.2869 0.311386 0
M  V30 36748 C 3403.03 1.34083 0.980352 0
M  V30 36749 O 3404.21 1.63027 0.991309 0
M  V30 36750 C 3401.35 3.16177 1.38297 0
M  V30 36751 C 3400.46 4.25822 0.728009 0
M  V30 36752 C 3399.6 5.00555 1.77814 0
M  V30 36753 C 3398.64 6.02065 1.10384 0
M  V30 36754 N 3397.77 6.70047 2.09716 0
M  V30 36755 H 3402.61 2.95761 -0.364644 0
M  V30 36756 H 3400.15 1.45846 -0.191671 0
M  V30 36757 H 3402.11 3.65258 2.01599 0
M  V30 36758 H 3400.74 2.51137 2.02806 0
M  V30 36759 H 3399.79 3.80396 -0.0177695 0
M  V30 36760 H 3401.1 4.98414 0.196121 0
M  V30 36761 H 3400.26 5.53393 2.48678 0
M  V30 36762 H 3399 4.27686 2.34384 0
M  V30 36763 H 3398 5.48479 0.380864 0
M  V30 36764 H 3399.23 6.7691 0.544926 0
M  V30 36765 H 3397.17 5.99964 2.6529 0
M  V30 36766 H 3397.09 7.38541 1.61533 0
M  V30 36767 H 3398.36 7.275 2.79937 0
M  V30 36768 N 3402.59 0.211689 1.56172 0
M  V30 36769 C 3403.83 -0.423297 1.98333 0
M  V30 36770 C 3404.17 -1.60113 1.09898 0
M  V30 36771 O 3403.44 -1.93885 0.154511 0
M  V30 36772 C 3403.72 -0.867409 3.49497 0
M  V30 36773 C 3403.58 0.313381 4.48707 0
M  V30 36774 C 3404.9 -1.72709 4.04796 0
M  V30 36775 H 3402.01 -0.152389 0.721073 0
M  V30 36776 H 3404.66 0.305945 1.87521 0
M  V30 36777 H 3402.81 -1.48878 3.58842 0
M  V30 36778 H 3404.48 0.951371 4.51383 0
M  V30 36779 H 3402.72 0.962454 4.22988 0
M  V30 36780 H 3403.39 -0.0401432 5.51985 0
M  V30 36781 H 3405.87 -1.20289 3.98334 0
M  V30 36782 H 3404.74 -2.00675 5.10902 0
M  V30 36783 H 3405.01 -2.68703 3.51071 0
M  V30 36784 N 3404.06 -1.57479 -0.0617887 0
M  V30 36785 C 3404.97 -2.0774 -1.09002 0
M  V30 36786 C 3405.99 -1.00899 -1.41758 0
M  V30 36787 O 3407.17 -1.32433 -1.51735 0
M  V30 36788 C 3404.23 -2.51965 -2.38149 0
M  V30 36789 C 3403.29 -3.73147 -2.12273 0
M  V30 36790 C 3402.53 -4.15254 -3.35261 0
M  V30 36791 O 3402.75 -3.57145 -4.44751 0
M  V30 36792 O 3401.68 -5.07966 -3.22885 0
M  V30 36793 H 3405.51 -2.95688 -0.693007 0
M  V30 36794 H 3403.09 -1.46817 -0.276602 0
M  V30 36795 H 3404.98 -2.80887 -3.14134 0
M  V30 36796 H 3403.65 -1.67142 -2.7721 0
M  V30 36797 H 3402.56 -3.49293 -1.3396 0
M  V30 36798 H 3403.89 -4.58853 -1.78086 0
M  V30 36799 N 3405.54 0.333401 -1.54033 0
M  V30 36800 C 3406.48 1.43341 -1.77563 0
M  V30 36801 C 3407.45 1.50102 -0.625153 0
M  V30 36802 O 3408.64 1.67663 -0.861474 0
M  V30 36803 C 3405.76 2.81508 -1.88337 0
M  V30 36804 C 3404.81 2.92325 -3.10561 0
M  V30 36805 S 3405.64 2.57747 -4.6939 0
M  V30 36806 C 3406.8 3.98003 -4.83057 0
M  V30 36807 H 3407.03 1.23168 -2.70586 0
M  V30 36808 H 3404.57 0.529666 -1.45031 0
M  V30 36809 H 3406.52 3.61103 -1.9523 0
M  V30 36810 H 3405.18 2.98971 -0.963083 0
M  V30 36811 H 3404.38 3.93591 -3.14805 0
M  V30 36812 H 3403.98 2.2069 -3.01947 0
M  V30 36813 H 3406.27 4.92643 -4.6509 0
M  V30 36814 H 3407.21 3.98747 -5.85155 0
M  V30 36815 H 3407.62 3.865 -4.11434 0
M  V30 36816 N 3407.02 1.45939 0.594952 0
M  V30 36817 C 3408.27 1.50837 1.35559 0
M  V30 36818 C 3408.6 0.1546 1.93584 0
M  V30 36819 O 3407.87 -0.83251 1.75783 0
M  V30 36820 C 3408.16 2.59744 2.49409 0
M  V30 36821 C 3408.01 4.04609 1.96499 0
M  V30 36822 C 3409.33 2.64831 3.515 0
M  V30 36823 H 3406.45 0.549143 0.49154 0
M  V30 36824 H 3409.09 1.77813 0.669505 0
M  V30 36825 H 3407.24 2.36872 3.07935 0
M  V30 36826 H 3408.91 4.3873 1.42525 0
M  V30 36827 H 3407.16 4.14667 1.2741 0
M  V30 36828 H 3407.83 4.7652 2.78627 0
M  V30 36829 H 3410.3 2.85359 3.02836 0
M  V30 36830 H 3409.18 3.42875 4.28635 0
M  V30 36831 H 3409.44 1.70406 4.07939 0
M  V30 36832 N 3408.5 -0.838547 1.3344 0
M  V30 36833 C 3409.75 -1.58877 1.24262 0
M  V30 36834 C 3410.06 -1.94676 -0.189923 0
M  V30 36835 O 3411.27 -2.68482 -0.403713 0
M  V30 36836 C 3409.72 -2.86565 2.17735 0
M  V30 36837 C 3409.33 -2.58129 3.66161 0
M  V30 36838 C 3411.07 -3.64588 2.17431 0
M  V30 36839 C 3408.98 -3.81915 4.51547 0
M  V30 36840 H 3407.91 -0.596232 0.461545 0
M  V30 36841 H 3410.56 -0.92456 1.58506 0
M  V30 36842 H 3408.94 -3.54529 1.76424 0
M  V30 36843 H 3410.12 -1.98375 4.15914 0
M  V30 36844 H 3408.43 -1.93409 3.68757 0
M  V30 36845 H 3411.03 -4.56473 2.78454 0
M  V30 36846 H 3411.37 -3.99536 1.16946 0
M  V30 36847 H 3411.91 -3.03549 2.57105 0
M  V30 36848 H 3408.65 -3.52098 5.52908 0
M  V30 36849 H 3408.17 -4.41008 4.06537 0
M  V30 36850 H 3409.84 -4.49492 4.65367 0
M  V30 36851 N 3409.98 -1.16914 -1.05683 0
M  V30 36852 C 3410.92 -0.877441 -2.15415 0
M  V30 36853 C 3411.92 0.155956 -1.68681 0
M  V30 36854 O 3413.12 0.00934992 -1.79998 0
M  V30 36855 H 3409.5 -0.266181 -0.703315 0
M  V30 36856 H 3411.47 -1.81016 -2.37225 0
M  V30 36857 C 3410.22 -0.401757 -3.45371 0
M  V30 36858 H 3409.54 -1.18838 -3.8173 0
M  V30 36859 H 3410.98 -0.236493 -4.2334 0
M  V30 36860 C 3409.44 0.879753 -3.25211 0
M  V30 36861 O 3409.97 1.94765 -3.51325 0
M  V30 36862 N 3408.18 0.825948 -2.78615 0
M  V30 36863 H 3407.72 -0.0432891 -2.57564 0
M  V30 36864 H 3407.68 1.68386 -2.65506 0
M  V30 36865 N 3411.45 1.24323 -0.968589 0
M  V30 36866 C 3412.7 1.91722 -0.626553 0
M  V30 36867 C 3413.02 1.76539 0.842219 0
M  V30 36868 O 3414.22 2.38635 1.29482 0
M  V30 36869 C 3412.68 3.43627 -1.06998 0
M  V30 36870 C 3412.29 3.67494 -2.56227 0
M  V30 36871 C 3414.03 4.16872 -0.80113 0
M  V30 36872 C 3411.94 5.12975 -2.94297 0
M  V30 36873 H 3410.87 0.717861 -0.230633 0
M  V30 36874 H 3413.52 1.40954 -1.17491 0
M  V30 36875 H 3411.9 3.93436 -0.449919 0
M  V30 36876 H 3413.07 3.28281 -3.2337 0
M  V30 36877 H 3411.39 3.07537 -2.80731 0
M  V30 36878 H 3413.99 5.24056 -1.06156 0
M  V30 36879 H 3414.33 4.15471 0.262669 0
M  V30 36880 H 3414.86 3.73015 -1.3822 0
M  V30 36881 H 3411.6 5.19499 -3.99752 0
M  V30 36882 H 3411.12 5.53183 -2.31838 0
M  V30 36883 H 3412.8 5.81214 -2.84252 0
M  V30 36884 N 3412.93 0.73881 1.3921 0
M  V30 36885 C 3414.16 0.298787 2.04731 0
M  V30 36886 C 3414.58 -1.06773 1.55708 0
M  V30 36887 O 3413.93 -1.6754 0.723635 0
M  V30 36888 C 3413.98 0.295803 3.60288 0
M  V30 36889 O 3413.7 1.60838 4.07508 0
M  V30 36890 C 3415.21 -0.159916 4.43011 0
M  V30 36891 H 3412.43 0.129964 0.658294 0
M  V30 36892 H 3414.97 1.00353 1.78184 0
M  V30 36893 H 3413.12 -0.360078 3.85723 0
M  V30 36894 H 3413.54 1.52452 5.01855 0
M  V30 36895 H 3415.01 -0.110844 5.51889 0
M  V30 36896 H 3415.49 -1.20566 4.22328 0
M  V30 36897 H 3416.1 0.466541 4.22733 0
M  V30 36898 N 3414.41 -1.49895 0.486734 0
M  V30 36899 C 3415.69 -1.95199 -0.125148 0
M  V30 36900 C 3416.07 -1.42774 -1.55496 0
M  V30 36901 O 3415.42 -0.635361 -2.19489 0
M  V30 36902 C 3415.63 -3.48961 -0.0524368 0
M  V30 36903 C 3416.97 -4.23957 -0.23352 0
M  V30 36904 O 3418 -3.55969 -0.128295 0
M  V30 36905 O 3416.86 -5.44663 -0.447767 0
M  V30 36906 H 3413.95 -0.820545 -0.103127 0
M  V30 36907 H 3416.5 -1.606 0.548254 0
M  V30 36908 H 3415.27 -3.79712 0.94523 0
M  V30 36909 H 3414.89 -3.90139 -0.766614 0
M  V30 36910 N 3415.89 -0.219968 -1.56057 0
M  V30 36911 C 3417.12 0.417066 -2.02653 0
M  V30 36912 C 3417.53 1.5346 -1.0998 0
M  V30 36913 O 3416.89 1.82173 -0.10912 0
M  V30 36914 C 3416.94 0.950183 -3.48789 0
M  V30 36915 O 3416.66 -0.122787 -4.37928 0
M  V30 36916 C 3418.16 1.66062 -4.11021 0
M  V30 36917 H 3415.38 0.102242 -0.663165 0
M  V30 36918 H 3417.93 -0.335958 -2.01722 0
M  V30 36919 H 3416.08 1.65349 -3.50341 0
M  V30 36920 H 3416.5 0.277693 -5.23764 0
M  V30 36921 H 3417.97 1.98566 -5.15049 0
M  V30 36922 H 3418.45 2.5732 -3.55926 0
M  V30 36923 H 3419.05 1.00256 -4.13315 0
M  V30 36924 N 3417.37 1.57509 0.0534363 0
M  V30 36925 C 3418.3 2.07979 1.06147 0
M  V30 36926 C 3419.28 0.977072 1.39238 0
M  V30 36927 O 3420.46 1.2509 1.48547 0
M  V30 36928 C 3417.59 2.53899 2.36965 0
M  V30 36929 C 3416.55 3.68214 2.1818 0
M  V30 36930 C 3415.87 4.00254 3.54544 0
M  V30 36931 C 3417.17 4.97577 1.58791 0
M  V30 36932 H 3418.87 2.92448 0.641432 0
M  V30 36933 H 3416.41 1.40687 0.307098 0
M  V30 36934 H 3418.37 2.87823 3.07792 0
M  V30 36935 H 3417.09 1.66481 2.80983 0
M  V30 36936 H 3415.75 3.34602 1.4979 0
M  V30 36937 H 3415.4 3.09939 3.96165 0
M  V30 36938 H 3415.1 4.77238 3.42808 0
M  V30 36939 H 3416.62 4.3669 4.26772 0
M  V30 36940 H 3418.04 5.29613 2.19506 0
M  V30 36941 H 3416.43 5.79008 1.577 0
M  V30 36942 H 3417.5 4.81757 0.551169 0
M  V30 36943 N 3418.85 -0.325228 1.54208 0
M  V30 36944 C 3419.79 -1.40018 1.83477 0
M  V30 36945 C 3420.76 -1.51464 0.681746 0
M  V30 36946 O 3421.95 -1.66711 0.92801 0
M  V30 36947 C 3419.09 -2.76403 2.06629 0
M  V30 36948 C 3418.2 -2.73601 3.34315 0
M  V30 36949 C 3417.34 -4.01822 3.47437 0
M  V30 36950 C 3416.37 -3.93321 4.69004 0
M  V30 36951 N 3415.51 -5.13269 4.79061 0
M  V30 36952 H 3420.35 -1.14358 2.75184 0
M  V30 36953 H 3417.89 -0.553615 1.36285 0
M  V30 36954 H 3419.85 -3.55686 2.18044 0
M  V30 36955 H 3418.48 -3.00375 1.18215 0
M  V30 36956 H 3417.53 -1.86319 3.31647 0
M  V30 36957 H 3418.84 -2.63202 4.23705 0
M  V30 36958 H 3417.99 -4.89536 3.58384 0
M  V30 36959 H 3416.73 -4.15025 2.56136 0
M  V30 36960 H 3415.74 -3.03992 4.58115 0
M  V30 36961 H 3416.96 -3.81685 5.61688 0
M  V30 36962 H 3414.91 -5.26981 3.90675 0
M  V30 36963 H 3414.83 -5.05198 5.62415 0
M  V30 36964 H 3416.09 -6.02702 4.94339 0
M  V30 36965 N 3420.32 -1.46252 -0.587204 0
M  V30 36966 C 3421.55 -1.54892 -1.37172 0
M  V30 36967 C 3421.97 -0.188478 -1.87857 0
M  V30 36968 O 3421.32 0.81348 -1.63367 0
M  V30 36969 C 3421.37 -2.55004 -2.56232 0
M  V30 36970 O 3421.1 -3.85764 -2.07649 0
M  V30 36971 C 3422.6 -2.73541 -3.48841 0
M  V30 36972 H 3419.82 -0.523938 -0.419201 0
M  V30 36973 H 3422.36 -1.9162 -0.714273 0
M  V30 36974 H 3420.52 -2.21292 -3.17976 0
M  V30 36975 H 3420.93 -4.40213 -2.85153 0
M  V30 36976 H 3422.4 -3.47521 -4.28874 0
M  V30 36977 H 3422.88 -1.80289 -4.0049 0
M  V30 36978 H 3423.49 -3.08331 -2.92937 0
M  V30 36979 N 3421.8 0.831459 -1.33883 0
M  V30 36980 C 3422.75 1.9418 -1.24752 0
M  V30 36981 C 3423.72 1.65632 -0.124545 0
M  V30 36982 O 3424.9 1.88361 -0.304078 0
M  V30 36983 C 3422.04 3.30287 -1.00021 0
M  V30 36984 C 3421.16 3.71183 -2.21014 0
M  V30 36985 C 3420.29 4.96197 -1.89638 0
M  V30 36986 C 3419.33 5.29649 -3.0682 0
M  V30 36987 N 3418.47 6.45839 -2.75383 0
M  V30 36988 H 3423.31 2.01321 -2.19713 0
M  V30 36989 H 3420.84 0.985062 -1.09247 0
M  V30 36990 H 3422.8 4.08713 -0.837239 0
M  V30 36991 H 3421.43 3.22682 -0.0873149 0
M  V30 36992 H 3420.48 2.8822 -2.48261 0
M  V30 36993 H 3421.8 3.91882 -3.08594 0
M  V30 36994 H 3420.95 5.82388 -1.70026 0
M  V30 36995 H 3419.69 4.77483 -0.993048 0
M  V30 36996 H 3418.69 4.41958 -3.27037 0
M  V30 36997 H 3419.92 5.50307 -3.97919 0
M  V30 36998 H 3417.87 6.28598 -1.87618 0
M  V30 36999 H 3417.78 6.66669 -3.56495 0
M  V30 37000 H 3419.05 7.35123 -2.59257 0
M  V30 37001 N 3423.28 1.17472 1.05062 0
M  V30 37002 C 3424.53 0.965342 1.78351 0
M  V30 37003 C 3424.86 -0.504674 1.87528 0
M  V30 37004 O 3424.13 -1.37463 1.37602 0
M  V30 37005 C 3424.42 1.60868 3.2217 0
M  V30 37006 C 3424.27 3.15088 3.20997 0
M  V30 37007 C 3425.59 1.31365 4.20037 0
M  V30 37008 H 3422.71 0.352113 0.647445 0
M  V30 37009 H 3425.35 1.44991 1.22791 0
M  V30 37010 H 3423.5 1.19665 3.69611 0
M  V30 37011 H 3425.17 3.65358 2.81622 0
M  V30 37012 H 3423.41 3.47771 2.59303 0
M  V30 37013 H 3424.09 3.55232 4.2251 0
M  V30 37014 H 3426.56 1.67047 3.81096 0
M  V30 37015 H 3425.44 1.78962 5.18906 0
M  V30 37016 H 3425.7 0.234684 4.41477 0
M  V30 37017 N 3424.76 -1.23807 0.975168 0
M  V30 37018 C 3425.98 -1.96664 0.658639 0
M  V30 37019 C 3426.41 -1.71765 -0.766714 0
M  V30 37020 O 3425.77 -0.985914 -1.52149 0
M  V30 37021 C 3425.81 -3.47902 0.948499 0
M  V30 37022 O 3424.92 -4.12383 0.0377966 0
M  V30 37023 H 3424.26 -0.615851 0.248242 0
M  V30 37024 H 3426.79 -1.57384 1.30734 0
M  V30 37025 H 3426.8 -3.98329 0.88307 0
M  V30 37026 H 3425.47 -3.65352 1.98723 0
M  V30 37027 H 3424.05 -3.72569 0.157187 0
M  V30 37028 N 3426.24 -0.746182 -1.38816 0
M  V30 37029 C 3427.46 -0.308338 -2.05095 0
M  V30 37030 C 3427.89 1.05241 -1.55903 0
M  V30 37031 O 3427.24 1.66916 -0.707715 0
M  V30 37032 C 3427.29 -0.33208 -3.59068 0
M  V30 37033 O 3426.4 0.676476 -4.06814 0
M  V30 37034 H 3425.74 -0.137912 -0.64952 0
M  V30 37035 H 3428.27 -1.01523 -1.77635 0
M  V30 37036 H 3428.28 -0.180365 -4.07601 0
M  V30 37037 H 3426.95 -1.32494 -3.94231 0
M  V30 37038 H 3425.53 0.489981 -3.69667 0
M  V30 37039 N 3427.71 1.49635 -0.494676 0
M  V30 37040 C 3428.66 2.30646 0.300888 0
M  V30 37041 C 3429.66 1.38972 0.968662 0
M  V30 37042 O 3430.86 1.56053 0.897073 0
M  V30 37043 H 3427.24 0.743017 0.115887 0
M  V30 37044 H 3429.21 2.95674 -0.402439 0
M  V30 37045 C 3427.96 3.20155 1.35632 0
M  V30 37046 H 3427.28 3.90619 0.851878 0
M  V30 37047 H 3428.72 3.7979 1.88508 0
M  V30 37048 C 3427.18 2.39336 2.37108 0
M  V30 37049 O 3427.71 2.09304 3.42863 0
M  V30 37050 N 3425.91 2.01476 2.09417 0
M  V30 37051 H 3425.46 2.261 1.23437 0
M  V30 37052 H 3425.42 1.47708 2.77542 0
M  V30 37053 N 3429.19 0.228241 1.55939 0
M  V30 37054 C 3430.44 -0.400849 1.98085 0
M  V30 37055 C 3430.76 -1.59817 1.1173 0
M  V30 37056 O 3430.03 -1.94919 0.195828 0
M  V30 37057 H 3428.61 -0.151089 0.731561 0
M  V30 37058 H 3431.27 0.322692 1.9221 0
M  V30 37059 H 3430.37 -0.722653 3.03618 0
M  V30 37060 N 3430.67 -1.57536 -0.0450825 0
M  V30 37061 C 3431.9 -1.92498 -0.750197 0
M  V30 37062 C 3432.31 -0.824976 -1.70267 0
M  V30 37063 O 3431.65 0.208624 -1.82512 0
M  V30 37064 C 3431.71 -3.23144 -1.57538 0
M  V30 37065 C 3431.38 -4.5013 -0.789416 0
M  V30 37066 C 3432.37 -5.1981 -0.0967453 0
M  V30 37067 C 3430.06 -4.96689 -0.748688 0
M  V30 37068 C 3432.05 -6.34317 0.62613 0
M  V30 37069 C 3429.74 -6.11096 -0.0220577 0
M  V30 37070 C 3430.74 -6.79763 0.664126 0
M  V30 37071 O 3430.43 -7.91984 1.37899 0
M  V30 37072 H 3430.16 -0.640264 -0.216884 0
M  V30 37073 H 3432.71 -2.05397 -0.0115219 0
M  V30 37074 H 3430.94 -3.06528 -2.35749 0
M  V30 37075 H 3432.63 -3.43553 -2.16162 0
M  V30 37076 H 3433.4 -4.84853 -0.119344 0
M  V30 37077 H 3429.28 -4.43096 -1.27227 0
M  V30 37078 H 3432.82 -6.8785 1.16227 0
M  V30 37079 H 3428.72 -6.455 0.00252053 0
M  V30 37080 H 3429.49 -8.08254 1.29101 0
M  V30 37081 N 3432.15 0.317045 -1.54378 0
M  V30 37082 C 3433.1 1.39043 -1.84216 0
M  V30 37083 C 3434.07 1.51101 -0.689769 0
M  V30 37084 O 3435.25 1.66217 -0.936838 0
M  V30 37085 C 3432.39 2.75303 -2.08092 0
M  V30 37086 C 3431.5 2.71824 -3.35761 0
M  V30 37087 C 3430.64 3.99974 -3.49563 0
M  V30 37088 C 3429.68 3.90828 -4.71083 0
M  V30 37089 N 3428.81 5.10721 -4.81776 0
M  V30 37090 H 3433.65 1.12897 -2.75787 0
M  V30 37091 H 3431.19 0.54638 -1.36576 0
M  V30 37092 H 3433.15 3.54525 -2.19927 0
M  V30 37093 H 3431.78 2.99744 -1.19806 0
M  V30 37094 H 3430.83 1.84557 -3.3263 0
M  V30 37095 H 3432.14 2.60952 -4.25095 0
M  V30 37096 H 3431.3 4.87629 -3.60976 0
M  V30 37097 H 3430.04 4.13661 -2.58333 0
M  V30 37098 H 3429.04 3.01558 -4.5972 0
M  V30 37099 H 3430.27 3.78701 -5.63704 0
M  V30 37100 H 3428.21 5.24902 -3.93465 0
M  V30 37101 H 3428.13 5.02209 -5.65086 0
M  V30 37102 H 3429.4 6.00072 -4.97528 0
M  V30 37103 N 3433.63 1.46561 0.57944 0
M  V30 37104 C 3434.88 1.51307 1.33376 0
M  V30 37105 C 3435.19 0.170541 1.94855 0
M  V30 37106 O 3436.39 0.0958181 2.71331 0
M  V30 37107 C 3434.85 2.66623 2.41744 0
M  V30 37108 C 3434.46 4.07311 1.86553 0
M  V30 37109 C 3436.2 2.80642 3.18497 0
M  V30 37110 C 3434.11 5.13962 2.92569 0
M  V30 37111 H 3433.04 0.563118 0.501412 0
M  V30 37112 H 3435.69 1.7278 0.617994 0
M  V30 37113 H 3434.07 2.38486 3.16134 0
M  V30 37114 H 3435.25 4.45254 1.18684 0
M  V30 37115 H 3433.56 3.97987 1.22457 0
M  V30 37116 H 3436.16 3.5749 3.97624 0
M  V30 37117 H 3436.5 1.88277 3.71292 0
M  V30 37118 H 3437.03 3.08442 2.51214 0
M  V30 37119 H 3433.77 6.08131 2.44658 0
M  V30 37120 H 3433.29 4.8056 3.58918 0
M  V30 37121 H 3434.97 5.39948 3.56462 0
M  V30 37122 N 3435.1 -0.824347 1.34322 0
M  V30 37123 C 3436.52 -1.11725 1.13972 0
M  V30 37124 C 3436.72 -2.01411 -0.0597243 0
M  V30 37125 O 3435.78 -2.41545 -0.735674 0
M  V30 37126 C 3437.09 -1.76533 2.43426 0
M  V30 37127 C 3438.64 -1.89035 2.49469 0
M  V30 37128 C 3439.11 -2.57259 3.78922 0
M  V30 37129 N 3440.6 -2.6476 3.80074 0
M  V30 37130 C 3441.34 -3.18274 4.76958 0
M  V30 37131 N 3440.83 -3.72363 5.84224 0
M  V30 37132 N 3442.63 -3.16662 4.64416 0
M  V30 37133 H 3434.78 -0.227765 2.11175 0
M  V30 37134 H 3437.04 -0.163599 0.933777 0
M  V30 37135 H 3436.75 -1.18096 3.3128 0
M  V30 37136 H 3436.62 -2.76415 2.5666 0
M  V30 37137 H 3439.01 -2.46621 1.62056 0
M  V30 37138 H 3439.09 -0.880593 2.40165 0
M  V30 37139 H 3438.73 -2.00328 4.66724 0
M  V30 37140 H 3438.66 -3.58735 3.85508 0
M  V30 37141 H 3441.15 -2.26419 3.0256 0
M  V30 37142 H 3441.47 -4.11443 6.54167 0
M  V30 37143 H 3439.81 -3.7061 5.8794 0
M  V30 37144 H 3443 -2.73672 3.79765 0
M  V30 37145 H 3443.18 -3.58063 5.40088 0
M  V30 37146 N 3436.58 -1.18028 -1.04437 0
M  V30 37147 C 3438 -0.929165 -1.29764 0
M  V30 37148 C 3438.2 0.407402 -1.97339 0
M  V30 37149 O 3437.25 1.14261 -2.25168 0
M  V30 37150 C 3438.57 -2.09201 -2.15999 0
M  V30 37151 C 3440.12 -2.12989 -2.29357 0
M  V30 37152 C 3440.59 -3.28681 -3.18956 0
M  V30 37153 N 3442.08 -3.28518 -3.26543 0
M  V30 37154 C 3442.82 -4.14678 -3.96017 0
M  V30 37155 N 3442.31 -5.10964 -4.67854 0
M  V30 37156 N 3444.11 -4.02604 -3.92259 0
M  V30 37157 H 3436.26 -2.04047 -0.589804 0
M  V30 37158 H 3438.52 -0.891373 -0.322737 0
M  V30 37159 H 3438.23 -3.05842 -1.73648 0
M  V30 37160 H 3438.1 -2.04948 -3.16664 0
M  V30 37161 H 3440.49 -1.16929 -2.70946 0
M  V30 37162 H 3440.57 -2.21301 -1.28295 0
M  V30 37163 H 3440.21 -4.25011 -2.7808 0
M  V30 37164 H 3440.14 -3.17605 -4.20041 0
M  V30 37165 H 3442.63 -2.58809 -2.75366 0
M  V30 37166 H 3442.95 -5.73088 -5.1845 0
M  V30 37167 H 3441.29 -5.14927 -4.66771 0
M  V30 37168 H 3444.48 -3.26671 -3.35267 0
M  V30 37169 H 3444.65 -4.69969 -4.46132 0
M  V30 37170 N 3438.06 1.23288 -0.98172 0
M  V30 37171 C 3438.99 2.27111 -0.542481 0
M  V30 37172 C 3439.97 1.64705 0.425005 0
M  V30 37173 O 3441.16 1.91577 0.318081 0
M  V30 37174 C 3438.29 3.46956 0.154607 0
M  V30 37175 C 3437.24 4.21723 -0.730294 0
M  V30 37176 C 3436.57 5.34608 0.0990826 0
M  V30 37177 C 3437.87 4.81584 -2.02175 0
M  V30 37178 H 3439.56 2.64104 -1.41029 0
M  V30 37179 H 3437.11 1.26956 -0.679566 0
M  V30 37180 H 3439.06 4.18735 0.473208 0
M  V30 37181 H 3437.78 3.09027 1.05688 0
M  V30 37182 H 3436.44 3.51764 -1.03237 0
M  V30 37183 H 3436.09 4.9292 1.00193 0
M  V30 37184 H 3435.79 5.85554 -0.489891 0
M  V30 37185 H 3437.31 6.09208 0.412034 0
M  V30 37186 H 3438.73 5.45363 -1.76783 0
M  V30 37187 H 3437.13 5.42822 -2.55861 0
M  V30 37188 H 3438.2 4.02256 -2.70773 0
M  V30 37189 N 3439.54 0.753533 1.38418 0
M  V30 37190 C 3440.5 0.134062 2.28808 0
M  V30 37191 C 3441.5 -0.647557 1.47185 0
M  V30 37192 O 3442.69 -0.473831 1.67632 0
M  V30 37193 C 3439.82 -0.818522 3.30928 0
M  V30 37194 H 3441.02 0.930636 2.85095 0
M  V30 37195 H 3438.57 0.52054 1.47377 0
M  V30 37196 H 3439.3 -1.64077 2.7973 0
M  V30 37197 H 3439.09 -0.260457 3.91234 0
M  V30 37198 H 3440.58 -1.24795 3.98517 0
M  V30 37199 N 3441.02 -1.49371 0.502605 0
M  V30 37200 C 3442.24 -2.07361 -0.0402723 0
M  V30 37201 C 3442.67 -1.36028 -1.29916 0
M  V30 37202 O 3442.02 -0.417519 -1.76427 0
M  V30 37203 C 3442.07 -3.59548 -0.275298 0
M  V30 37204 O 3441.18 -3.89689 -1.34968 0
M  V30 37205 H 3440.52 -0.663453 0.0269384 0
M  V30 37206 H 3443.05 -1.92155 0.702686 0
M  V30 37207 H 3443.06 -4.04846 -0.50632 0
M  V30 37208 H 3441.73 -4.10877 0.644455 0
M  V30 37209 H 3440.31 -3.56199 -1.10349 0
M  V30 37210 N 3442.49 -0.236508 -1.55815 0
M  V30 37211 C 3443.77 0.4409 -1.90566 0
M  V30 37212 C 3444.15 1.76643 -1.15588 0
M  V30 37213 O 3443.5 2.26899 -0.269989 0
M  V30 37214 C 3443.71 0.61919 -3.43463 0
M  V30 37215 C 3445.06 0.919817 -4.14517 0
M  V30 37216 O 3446.08 0.705435 -3.49145 0
M  V30 37217 O 3444.94 1.32749 -5.30132 0
M  V30 37218 H 3442.03 0.235185 -0.792854 0
M  V30 37219 H 3444.58 -0.279803 -1.67377 0
M  V30 37220 H 3443.35 -0.315192 -3.90028 0
M  V30 37221 H 3442.98 1.39082 -3.72481 0
M  V30 37222 N 3443.97 1.57557 0.0367273 0
M  V30 37223 C 3445.22 1.8892 0.729072 0
M  V30 37224 C 3445.55 0.832832 1.75767 0
M  V30 37225 O 3444.8 -0.167139 1.94985 0
M  V30 37226 C 3445.1 3.27018 1.442 0
M  V30 37227 C 3444.77 4.47532 0.550105 0
M  V30 37228 C 3443.43 4.80236 0.304426 0
M  V30 37229 C 3445.78 5.21158 -0.066158 0
M  V30 37230 C 3443.11 5.83959 -0.566419 0
M  V30 37231 C 3445.46 6.25806 -0.92466 0
M  V30 37232 C 3444.13 6.5699 -1.17987 0
M  V30 37233 H 3443.4 0.691307 0.266787 0
M  V30 37234 H 3446.04 1.91497 -0.0109035 0
M  V30 37235 H 3444.35 3.20394 2.2551 0
M  V30 37236 H 3446.04 3.48531 1.98311 0
M  V30 37237 H 3442.63 4.21956 0.75174 0
M  V30 37238 H 3446.82 4.96177 0.110697 0
M  V30 37239 H 3442.07 6.065 -0.772535 0
M  V30 37240 H 3446.25 6.82003 -1.40873 0
M  V30 37241 H 3443.88 7.37185 -1.8564 0
M  V30 37242 N 3445.45 -0.308854 1.54544 0
M  V30 37243 C 3446.38 -1.40209 1.81312 0
M  V30 37244 C 3447.4 -1.47186 0.695706 0
M  V30 37245 O 3448.59 -1.49646 0.97306 0
M  V30 37246 C 3445.69 -2.78641 1.92906 0
M  V30 37247 C 3444.86 -2.94691 3.23227 0
M  V30 37248 C 3443.92 -4.13573 3.25336 0
M  V30 37249 O 3442.94 -4.06032 3.98907 0
M  V30 37250 N 3444.15 -5.23829 2.50167 0
M  V30 37251 H 3446.91 -1.17605 2.75661 0
M  V30 37252 H 3444.47 -0.498898 1.54021 0
M  V30 37253 H 3446.46 -3.56402 1.91727 0
M  V30 37254 H 3445.03 -2.94228 1.05587 0
M  V30 37255 H 3444.25 -2.04108 3.37244 0
M  V30 37256 H 3445.54 -3.0232 4.09243 0
M  V30 37257 H 3444.94 -5.32834 1.90011 0
M  V30 37258 H 3443.5 -5.99954 2.54751 0
M  V30 37259 N 3446.93 -1.46867 -0.571659 0
M  V30 37260 C 3448.18 -1.52974 -1.33142 0
M  V30 37261 C 3448.51 -0.185378 -1.93313 0
M  V30 37262 O 3447.78 0.804439 -1.77085 0
M  V30 37263 C 3448.07 -2.63679 -2.45246 0
M  V30 37264 C 3447.92 -4.07684 -1.90037 0
M  V30 37265 C 3449.24 -2.7039 -3.47243 0
M  V30 37266 H 3446.36 -0.556893 -0.482741 0
M  V30 37267 H 3449 -1.78856 -0.641132 0
M  V30 37268 H 3447.15 -2.41741 -3.04128 0
M  V30 37269 H 3448.82 -4.40942 -1.35527 0
M  V30 37270 H 3447.06 -4.16642 -1.20797 0
M  V30 37271 H 3447.74 -4.80892 -2.71011 0
M  V30 37272 H 3450.21 -2.9014 -2.98258 0
M  V30 37273 H 3449.09 -3.4965 -4.23126 0
M  V30 37274 H 3449.35 -1.76875 -4.05176 0
M  V30 37275 N 3448.41 0.817212 -1.34757 0
M  V30 37276 C 3449.82 1.39042 -1.24596 0
M  V30 37277 C 3450.17 1.95794 0.12615 0
M  V30 37278 O 3449.29 1.90493 1.02671 0
M  V30 37279 C 3449.89 2.52768 -2.25597 0
M  V30 37280 C 3448.45 3.05981 -2.1921 0
M  V30 37281 C 3447.6 1.78883 -2.11887 0
M  V30 37282 H 3450.55 0.62113 -1.4604 0
M  V30 37283 H 3450.57 3.31023 -1.87628 0
M  V30 37284 H 3450.08 2.11433 -3.2545 0
M  V30 37285 H 3448.18 3.51806 -1.22731 0
M  V30 37286 H 3448.29 3.64683 -3.10713 0
M  V30 37287 H 3446.66 2.00009 -1.57697 0
M  V30 37288 H 3447.44 1.39714 -3.13584 0
M  V30 37289 N 3449.89 1.1858 1.0381 0
M  V30 37290 C 3450.82 0.938703 2.138 0
M  V30 37291 C 3451.8 -0.124546 1.69643 0
M  V30 37292 O 3452.98 0.0285762 1.94179 0
M  V30 37293 C 3450.11 0.466453 3.44153 0
M  V30 37294 C 3449.07 1.47048 4.01946 0
M  V30 37295 C 3448.39 0.855651 5.27809 0
M  V30 37296 C 3449.69 2.84796 4.37822 0
M  V30 37297 H 3451.39 1.85856 2.34729 0
M  V30 37298 H 3448.93 0.895027 1.12806 0
M  V30 37299 H 3450.88 0.28093 4.20463 0
M  V30 37300 H 3449.61 -0.488984 3.22919 0
M  V30 37301 H 3448.27 1.64299 3.27722 0
M  V30 37302 H 3447.92 -0.107054 5.02886 0
M  V30 37303 H 3447.62 1.52602 5.67438 0
M  V30 37304 H 3449.14 0.680716 6.06794 0
M  V30 37305 H 3450.55 2.71182 5.05107 0
M  V30 37306 H 3448.95 3.4854 4.88508 0
M  V30 37307 H 3450.02 3.38153 3.47535 0
M  V30 37308 N 3451.36 -1.22766 0.988245 0
M  V30 37309 C 3452.61 -1.90701 0.656974 0
M  V30 37310 C 3452.93 -1.77857 -0.814027 0
M  V30 37311 O 3454.13 -2.40665 -1.25669 0
M  V30 37312 C 3452.59 -3.41881 1.12451 0
M  V30 37313 C 3452.2 -3.63371 2.62041 0
M  V30 37314 C 3453.94 -4.15545 0.86735 0
M  V30 37315 C 3451.85 -5.08228 3.02421 0
M  V30 37316 H 3450.78 -0.714101 0.242024 0
M  V30 37317 H 3453.43 -1.39067 1.19719 0
M  V30 37318 H 3451.81 -3.9267 0.512455 0
M  V30 37319 H 3452.98 -3.23095 3.28552 0
M  V30 37320 H 3451.3 -3.03032 2.85588 0
M  V30 37321 H 3453.9 -5.22301 1.1448 0
M  V30 37322 H 3454.24 -4.15836 -0.196538 0
M  V30 37323 H 3454.77 -3.70769 1.44137 0
M  V30 37324 H 3451.51 -5.13073 4.07966 0
M  V30 37325 H 3451.03 -5.49424 2.4061 0
M  V30 37326 H 3452.71 -5.76618 2.93462 0
M  V30 37327 N 3452.84 -0.760864 -1.38017 0
M  V30 37328 C 3454.07 -0.331321 -2.0423 0
M  V30 37329 C 3454.48 1.04282 -1.57387 0
M  V30 37330 O 3453.84 1.66368 -0.750198 0
M  V30 37331 C 3453.89 -0.353085 -3.59772 0
M  V30 37332 O 3453.61 -1.67301 -4.04898 0
M  V30 37333 C 3455.11 0.0894163 -4.4321 0
M  V30 37334 H 3452.33 -0.14042 -0.656143 0
M  V30 37335 H 3454.88 -1.03175 -1.76565 0
M  V30 37336 H 3453.03 0.298668 -3.86247 0
M  V30 37337 H 3453.45 -1.60417 -4.99366 0
M  V30 37338 H 3454.92 0.0230292 -5.51995 0
M  V30 37339 H 3455.4 1.13831 -4.24192 0
M  V30 37340 H 3456 -0.533736 -4.21938 0
M  V30 37341 N 3454.32 1.49102 -0.510519 0
M  V30 37342 C 3455.27 2.30952 0.276408 0
M  V30 37343 C 3456.26 1.39992 0.953868 0
M  V30 37344 O 3457.47 1.56996 0.880471 0
M  V30 37345 H 3453.84 0.744204 0.108 0
M  V30 37346 H 3455.81 2.9523 -0.433776 0
M  V30 37347 C 3454.56 3.21576 1.32229 0
M  V30 37348 H 3453.89 3.915 0.8104 0
M  V30 37349 H 3455.33 3.81768 1.8447 0
M  V30 37350 C 3453.78 2.41837 2.34556 0
M  V30 37351 O 3454.31 2.12928 3.40624 0
M  V30 37352 N 3452.52 2.03686 2.07269 0
M  V30 37353 H 3452.07 2.27396 1.21032 0
M  V30 37354 H 3452.03 1.50643 2.7596 0
M  V30 37355 N 3455.8 0.244768 1.55688 0
M  V30 37356 C 3456.73 -0.696273 2.17318 0
M  V30 37357 C 3457.71 -1.17439 1.12458 0
M  V30 37358 O 3458.89 -1.25291 1.40834 0
M  V30 37359 C 3456.02 -1.94601 2.77215 0
M  V30 37360 C 3455.07 -1.60595 3.9511 0
M  V30 37361 S 3455.9 -0.710432 5.30767 0
M  V30 37362 C 3457.05 -1.96922 5.94115 0
M  V30 37363 H 3457.29 -0.172513 2.96799 0
M  V30 37364 H 3454.82 0.0292427 1.54372 0
M  V30 37365 H 3456.78 -2.66349 3.1236 0
M  V30 37366 H 3455.44 -2.4409 1.97684 0
M  V30 37367 H 3454.63 -2.53509 4.35602 0
M  V30 37368 H 3454.23 -0.968922 3.61231 0
M  V30 37369 H 3456.53 -2.91671 6.11501 0
M  V30 37370 H 3457.47 -1.60782 6.89605 0
M  V30 37371 H 3457.88 -2.12034 5.23165 0
M  V30 37372 N 3457.28 -1.57574 -0.0283712 0
M  V30 37373 C 3458.22 -2.06603 -1.02877 0
M  V30 37374 C 3459.19 -0.955332 -1.35877 0
M  V30 37375 O 3460.38 -1.22594 -1.46203 0
M  V30 37376 C 3457.52 -2.55077 -2.32443 0
M  V30 37377 C 3456.63 -3.7994 -2.05595 0
M  V30 37378 C 3455.77 -4.17024 -3.29036 0
M  V30 37379 C 3454.8 -5.34803 -2.97746 0
M  V30 37380 N 3453.94 -5.67315 -4.1364 0
M  V30 37381 H 3458.78 -2.91821 -0.603721 0
M  V30 37382 H 3456.32 -1.44283 -0.286478 0
M  V30 37383 H 3458.28 -2.81249 -3.08147 0
M  V30 37384 H 3456.91 -1.72776 -2.72669 0
M  V30 37385 H 3455.96 -3.60849 -1.20384 0
M  V30 37386 H 3457.27 -4.65762 -1.78514 0
M  V30 37387 H 3456.42 -4.44328 -4.13107 0
M  V30 37388 H 3455.16 -3.29855 -3.59231 0
M  V30 37389 H 3454.17 -5.07251 -2.12076 0
M  V30 37390 H 3455.39 -6.23625 -2.68828 0
M  V30 37391 H 3453.34 -4.83105 -4.43786 0
M  V30 37392 H 3453.26 -6.47648 -3.89985 0
M  V30 37393 H 3454.52 -5.99195 -4.98583 0
M  V30 37394 N 3458.75 0.300654 -1.54706 0
M  V30 37395 C 3459.68 1.37555 -1.88682 0
M  V30 37396 C 3460.66 1.5288 -0.745767 0
M  V30 37397 O 3461.85 1.66382 -1.00153 0
M  V30 37398 C 3458.98 2.7397 -2.13443 0
M  V30 37399 C 3457.93 2.73409 -3.29289 0
M  V30 37400 C 3457.26 4.13116 -3.39469 0
M  V30 37401 C 3458.56 2.3512 -4.66386 0
M  V30 37402 H 3460.25 1.09368 -2.78709 0
M  V30 37403 H 3457.8 0.52468 -1.34101 0
M  V30 37404 H 3459.75 3.49253 -2.35797 0
M  V30 37405 H 3458.48 3.03682 -1.20187 0
M  V30 37406 H 3457.14 2.00582 -3.06859 0
M  V30 37407 H 3456.78 4.40006 -2.43729 0
M  V30 37408 H 3456.48 4.13642 -4.17341 0
M  V30 37409 H 3458.01 4.90179 -3.64084 0
M  V30 37410 H 3459.42 3.00119 -4.88468 0
M  V30 37411 H 3457.82 2.46858 -5.46975 0
M  V30 37412 H 3458.89 1.30248 -4.6708 0
M  V30 37413 N 3460.23 1.47168 0.563863 0
M  V30 37414 C 3461.47 1.55024 1.33218 0
M  V30 37415 C 3461.84 0.204869 1.90904 0
M  V30 37416 O 3463.04 0.158248 2.68334 0
M  V30 37417 C 3461.31 2.63231 2.41752 0
M  V30 37418 S 3462.87 2.90624 3.2876 0
M  V30 37419 H 3459.69 0.547499 0.453614 0
M  V30 37420 H 3462.29 1.8451 0.646233 0
M  V30 37421 H 3460.99 3.5959 1.97796 0
M  V30 37422 H 3460.52 2.35538 3.15096 0
M  V30 37423 H 3462.54 2.27331 4.41061 0
M  V30 37424 N 3461.71 -0.810054 1.35188 0
M  V30 37425 C 3462.94 -1.60357 1.31531 0
M  V30 37426 C 3463.36 -1.87805 -0.105352 0
M  V30 37427 O 3462.72 -1.46277 -1.0711 0
M  V30 37428 C 3462.77 -2.91383 2.12435 0
M  V30 37429 O 3461.87 -3.84048 1.50269 0
M  V30 37430 H 3461.21 -0.487214 0.45113 0
M  V30 37431 H 3463.74 -1.00565 1.78179 0
M  V30 37432 H 3463.75 -3.40837 2.24263 0
M  V30 37433 H 3462.43 -2.7073 3.15719 0
M  V30 37434 H 3461 -3.42592 1.47259 0
M  V30 37435 N 3463.19 -1.19129 -1.0318 0
M  V30 37436 C 3464.12 -0.950028 -2.133 0
M  V30 37437 C 3465.1 0.115547 -1.69707 0
M  V30 37438 O 3466.28 -0.0388736 -1.94161 0
M  V30 37439 C 3463.41 -0.484697 -3.43901 0
M  V30 37440 C 3462.37 -1.49177 -4.01161 0
M  V30 37441 C 3461.69 -0.883629 -5.27348 0
M  V30 37442 C 3462.99 -2.87114 -4.36306 0
M  V30 37443 H 3464.69 -1.87099 -2.3374 0
M  V30 37444 H 3462.23 -0.900997 -1.1233 0
M  V30 37445 H 3464.19 -0.303224 -4.20308 0
M  V30 37446 H 3462.91 0.471852 -3.23174 0
M  V30 37447 H 3461.57 -1.66034 -3.26846 0
M  V30 37448 H 3461.22 0.0803828 -5.02936 0
M  V30 37449 H 3460.92 -1.55609 -5.66621 0
M  V30 37450 H 3462.44 -0.712886 -6.06424 0
M  V30 37451 H 3463.86 -2.73857 -5.03662 0
M  V30 37452 H 3462.25 -3.51126 -4.86652 0
M  V30 37453 H 3463.32 -3.39991 -3.45737 0
M  V30 37454 N 3464.67 1.2224 -0.994741 0
M  V30 37455 C 3465.91 1.91037 -0.671635 0
M  V30 37456 C 3466.24 1.77443 0.796511 0
M  V30 37457 O 3465.5 1.13847 1.59177 0
M  V30 37458 C 3465.8 3.42366 -1.02567 0
M  V30 37459 C 3465.46 3.76151 -2.48639 0
M  V30 37460 C 3464.12 3.85083 -2.88556 0
M  V30 37461 C 3466.48 3.92159 -3.43309 0
M  V30 37462 C 3463.8 4.07462 -4.22128 0
M  V30 37463 C 3466.16 4.16042 -4.76542 0
M  V30 37464 C 3464.82 4.23198 -5.16197 0
M  V30 37465 H 3464.09 0.699056 -0.245769 0
M  V30 37466 H 3466.74 1.44967 -1.25127 0
M  V30 37467 H 3465.04 3.90104 -0.364141 0
M  V30 37468 H 3466.74 3.93854 -0.753681 0
M  V30 37469 H 3463.33 3.69783 -2.16699 0
M  V30 37470 H 3467.51 3.84634 -3.1364 0
M  V30 37471 H 3462.77 4.1123 -4.52438 0
M  V30 37472 H 3466.94 4.27371 -5.49842 0
M  V30 37473 H 3464.57 4.40292 -6.19715 0
M  V30 37474 N 3466.14 0.768172 1.37611 0
M  V30 37475 C 3467.39 0.327578 1.99022 0
M  V30 37476 C 3467.71 -1.101 1.61671 0
M  V30 37477 O 3468.91 -1.6428 2.16158 0
M  V30 37478 C 3467.37 0.534736 3.55905 0
M  V30 37479 C 3466.98 1.97334 4.02198 0
M  V30 37480 C 3468.72 0.157586 4.24207 0
M  V30 37481 C 3466.63 2.12829 5.51777 0
M  V30 37482 H 3465.56 0.118735 0.744593 0
M  V30 37483 H 3468.21 0.946792 1.57188 0
M  V30 37484 H 3466.59 -0.153881 3.95701 0
M  V30 37485 H 3467.76 2.69662 3.73656 0
M  V30 37486 H 3466.08 2.30675 3.46667 0
M  V30 37487 H 3468.68 0.251918 5.34106 0
M  V30 37488 H 3469.02 -0.891698 4.06638 0
M  V30 37489 H 3469.55 0.798614 3.89701 0
M  V30 37490 H 3466.29 3.16063 5.74268 0
M  V30 37491 H 3465.81 1.4498 5.82015 0
M  V30 37492 H 3467.49 1.92519 6.17694 0
M  V30 37493 N 3467.62 -1.48829 0.518419 0
M  V30 37494 C 3468.9 -1.95421 -0.0837154 0
M  V30 37495 C 3469.28 -1.4604 -1.52432 0
M  V30 37496 O 3468.63 -0.681774 -2.18092 0
M  V30 37497 C 3468.84 -3.48993 0.0215947 0
M  V30 37498 C 3470.19 -4.24357 -0.14354 0
M  V30 37499 O 3471.21 -3.56161 -0.0527597 0
M  V30 37500 O 3470.07 -5.4549 -0.332135 0
M  V30 37501 H 3467.16 -0.822548 -0.0856987 0
M  V30 37502 H 3469.71 -1.59401 0.582197 0
M  V30 37503 H 3468.48 -3.77621 1.02556 0
M  V30 37504 H 3468.1 -3.91678 -0.683687 0
M  V30 37505 N 3469.1 -0.253021 -1.55556 0
M  V30 37506 C 3470.33 0.37693 -2.03946 0
M  V30 37507 C 3470.75 1.50306 -1.13091 0
M  V30 37508 O 3470.11 1.80868 -0.125071 0
M  V30 37509 C 3470.16 0.856301 -3.50285 0
M  V30 37510 O 3469.26 1.9654 -3.62555 0
M  V30 37511 H 3468.6 0.0813055 -0.659003 0
M  V30 37512 H 3471.13 -0.380866 -2.01024 0
M  V30 37513 H 3471.14 1.15791 -3.91224 0
M  V30 37514 H 3469.82 0.0322571 -4.15887 0
M  V30 37515 H 3468.39 1.66802 -3.33514 0
M  V30 37516 N 3470.58 1.57587 0.0200142 0
M  V30 37517 C 3471.51 2.10183 1.01712 0
M  V30 37518 C 3472.49 1.00639 1.37134 0
M  V30 37519 O 3473.67 1.28213 1.4586 0
M  V30 37520 C 3470.8 2.58869 2.31526 0
M  V30 37521 C 3469.76 3.72759 2.1032 0
M  V30 37522 C 3469.08 4.07684 3.45974 0
M  V30 37523 C 3470.38 5.00833 1.48201 0
M  V30 37524 H 3472.08 2.93743 0.579255 0
M  V30 37525 H 3469.62 1.41307 0.277187 0
M  V30 37526 H 3471.58 2.94287 3.01618 0
M  V30 37527 H 3470.3 1.72404 2.77389 0
M  V30 37528 H 3468.96 3.37704 1.42659 0
M  V30 37529 H 3468.61 3.18272 3.89502 0
M  V30 37530 H 3468.31 4.84403 3.32608 0
M  V30 37531 H 3469.83 4.45644 4.17413 0
M  V30 37532 H 3471.25 5.3415 2.08222 0
M  V30 37533 H 3469.64 5.82223 1.45383 0
M  V30 37534 H 3470.71 4.82818 0.448857 0
M  V30 37535 N 3472.06 -0.292445 1.54863 0
M  V30 37536 C 3473.29 -1.0438 1.78293 0
M  V30 37537 C 3473.69 -1.81128 0.546735 0
M  V30 37538 O 3473.04 -1.76954 -0.493255 0
M  V30 37539 C 3473.1 -2.0643 2.94325 0
M  V30 37540 C 3472.76 -1.48798 4.32097 0
M  V30 37541 C 3473.76 -0.9136 5.1181 0
M  V30 37542 C 3471.45 -1.52103 4.78717 0
M  V30 37543 C 3473.44 -0.379942 6.36267 0
M  V30 37544 C 3471.13 -0.983507 6.03134 0
M  V30 37545 C 3472.12 -0.413941 6.81744 0
M  V30 37546 O 3471.81 0.115409 8.03817 0
M  V30 37547 H 3471.54 -0.314944 0.598153 0
M  V30 37548 H 3474.1 -0.334625 2.02656 0
M  V30 37549 H 3472.33 -2.81051 2.65607 0
M  V30 37550 H 3474.02 -2.67535 3.05253 0
M  V30 37551 H 3474.78 -0.880904 4.76933 0
M  V30 37552 H 3470.66 -1.95375 4.17552 0
M  V30 37553 H 3474.21 0.0652707 6.97569 0
M  V30 37554 H 3470.1 -1.01338 6.37496 0
M  V30 37555 H 3470.87 0.00291883 8.185 0
M  V30 37556 N 3473.53 -1.47465 -0.55605 0
M  V30 37557 C 3474.95 -1.33009 -0.882091 0
M  V30 37558 C 3475.15 -0.321442 -1.9892 0
M  V30 37559 O 3474.21 0.266624 -2.51088 0
M  V30 37560 C 3475.52 -2.72367 -1.27423 0
M  V30 37561 C 3477.07 -2.8066 -1.38559 0
M  V30 37562 C 3477.54 -4.20662 -1.81128 0
M  V30 37563 N 3479.03 -4.23209 -1.88277 0
M  V30 37564 C 3479.77 -5.28451 -2.22546 0
M  V30 37565 N 3479.26 -6.43997 -2.55421 0
M  V30 37566 N 3481.06 -5.1583 -2.2333 0
M  V30 37567 H 3473.21 -2.11679 0.174847 0
M  V30 37568 H 3475.47 -0.947872 0.0155588 0
M  V30 37569 H 3475.18 -3.47614 -0.534569 0
M  V30 37570 H 3475.05 -3.04212 -2.23013 0
M  V30 37571 H 3477.44 -2.05686 -2.11607 0
M  V30 37572 H 3477.52 -2.52468 -0.411543 0
M  V30 37573 H 3477.16 -4.96143 -1.0865 0
M  V30 37574 H 3477.09 -4.4628 -2.79538 0
M  V30 37575 H 3479.58 -3.39853 -1.65253 0
M  V30 37576 H 3479.9 -7.20058 -2.806 0
M  V30 37577 H 3478.24 -6.47315 -2.52998 0
M  V30 37578 H 3481.43 -4.24587 -1.97087 0
M  V30 37579 H 3481.61 -5.97955 -2.49707 0
M  V30 37580 N 3475.01 0.802873 -1.35616 0
M  V30 37581 C 3475.96 1.9149 -1.28842 0
M  V30 37582 C 3476.93 1.65331 -0.15965 0
M  V30 37583 O 3478.12 1.87674 -0.343964 0
M  V30 37584 C 3475.26 3.28091 -1.07005 0
M  V30 37585 C 3474.37 3.66412 -2.28837 0
M  V30 37586 C 3473.5 4.92062 -2.0012 0
M  V30 37587 C 3472.54 5.23021 -3.17986 0
M  V30 37588 N 3471.68 6.39853 -2.89021 0
M  V30 37589 H 3476.52 1.96616 -2.23934 0
M  V30 37590 H 3474.06 0.961668 -1.11312 0
M  V30 37591 H 3476.01 4.06845 -0.923745 0
M  V30 37592 H 3474.64 3.22424 -0.155741 0
M  V30 37593 H 3473.7 2.82889 -2.54319 0
M  V30 37594 H 3475.01 3.85248 -3.16837 0
M  V30 37595 H 3474.16 5.78651 -1.82342 0
M  V30 37596 H 3472.9 4.75269 -1.09411 0
M  V30 37597 H 3471.91 4.34922 -3.36338 0
M  V30 37598 H 3473.13 5.41742 -4.09502 0
M  V30 37599 H 3471.08 6.24477 -2.00909 0
M  V30 37600 H 3470.99 6.58957 -3.70556 0
M  V30 37601 H 3472.26 7.29459 -2.74792 0
M  V30 37602 N 3476.49 1.19674 1.02547 0
M  V30 37603 C 3477.74 1.00147 1.76002 0
M  V30 37604 C 3478.07 -0.46739 1.88801 0
M  V30 37605 O 3477.32 -1.36329 1.40403 0
M  V30 37606 C 3477.62 1.61964 3.18594 0
M  V30 37607 C 3477.29 3.11719 3.25795 0
M  V30 37608 C 3475.95 3.52589 3.27467 0
M  V30 37609 C 3478.3 4.07726 3.24668 0
M  V30 37610 C 3475.63 4.8801 3.25673 0
M  V30 37611 C 3477.98 5.43082 3.24414 0
M  V30 37612 C 3476.64 5.83378 3.24386 0
M  V30 37613 H 3475.91 0.366465 0.644038 0
M  V30 37614 H 3478.56 1.48968 1.20336 0
M  V30 37615 H 3476.87 1.05382 3.77362 0
M  V30 37616 H 3478.56 1.4438 3.74106 0
M  V30 37617 H 3475.15 2.79155 3.25223 0
M  V30 37618 H 3479.34 3.77191 3.22554 0
M  V30 37619 H 3474.59 5.18507 3.23977 0
M  V30 37620 H 3478.77 6.17228 3.22493 0
M  V30 37621 H 3476.39 6.88285 3.2275 0
M  V30 37622 N 3477.97 -1.21711 1.00121 0
M  V30 37623 C 3479.19 -1.95223 0.700206 0
M  V30 37624 C 3479.62 -1.73352 -0.730107 0
M  V30 37625 O 3478.98 -1.01797 -1.50024 0
M  V30 37626 C 3479.03 -3.45812 1.02208 0
M  V30 37627 O 3478.13 -4.1221 0.125261 0
M  V30 37628 H 3477.47 -0.610447 0.261249 0
M  V30 37629 H 3480 -1.54575 1.34043 0
M  V30 37630 H 3480.01 -3.96366 0.967362 0
M  V30 37631 H 3478.69 -3.61054 2.06428 0
M  V30 37632 H 3477.26 -3.72151 0.236179 0
M  V30 37633 N 3479.45 -0.775459 -1.37202 0
M  V30 37634 C 3480.86 -0.455515 -1.52962 0
M  V30 37635 C 3481.06 1.02831 -1.73286 0
M  V30 37636 O 3480.12 1.81408 -1.75635 0
M  V30 37637 C 3481.43 -1.27382 -2.72387 0
M  V30 37638 C 3482.98 -1.26609 -2.8625 0
M  V30 37639 C 3483.46 -2.06782 -4.08662 0
M  V30 37640 N 3484.95 -2.04156 -4.15782 0
M  V30 37641 C 3485.68 -2.62969 -5.09544 0
M  V30 37642 N 3485.18 -3.30585 -6.08839 0
M  V30 37643 N 3486.97 -2.52779 -5.02055 0
M  V30 37644 H 3479.12 -1.73683 -1.22262 0
M  V30 37645 H 3481.38 -0.737519 -0.595625 0
M  V30 37646 H 3481.09 -2.32549 -2.63845 0
M  V30 37647 H 3480.96 -0.905532 -3.66169 0
M  V30 37648 H 3483.35 -0.222396 -2.94261 0
M  V30 37649 H 3483.43 -1.67404 -1.93415 0
M  V30 37650 H 3483.08 -3.11175 -4.01413 0
M  V30 37651 H 3483.01 -1.63367 -5.00618 0
M  V30 37652 H 3485.5 -1.54932 -3.4468 0
M  V30 37653 H 3485.81 -3.72827 -6.76919 0
M  V30 37654 H 3484.16 -3.34685 -6.09107 0
M  V30 37655 H 3487.35 -1.99566 -4.23428 0
M  V30 37656 H 3487.52 -2.98908 -5.74942 0
M  V30 37657 N 3480.93 1.48552 -0.526305 0
M  V30 37658 C 3481.86 2.27538 0.275539 0
M  V30 37659 C 3482.87 1.3514 0.907796 0
M  V30 37660 O 3484.06 1.60221 0.786859 0
M  V30 37661 C 3481.16 3.08399 1.4051 0
M  V30 37662 C 3480.33 4.28549 0.875448 0
M  V30 37663 C 3479.39 4.91252 1.88568 0
M  V30 37664 O 3478.42 5.50577 1.44409 0
M  V30 37665 N 3479.62 4.83164 3.21765 0
M  V30 37666 H 3482.38 2.96994 -0.401855 0
M  V30 37667 H 3479.95 1.57838 -0.360406 0
M  V30 37668 H 3481.94 3.47217 2.079 0
M  V30 37669 H 3480.51 2.41388 1.98622 0
M  V30 37670 H 3479.73 3.94192 0.0256587 0
M  V30 37671 H 3481.02 5.06333 0.500404 0
M  V30 37672 H 3480.41 4.3611 3.60311 0
M  V30 37673 H 3478.97 5.26092 3.84799 0
M  V30 37674 N 3482.4 0.261267 1.55419 0
M  V30 37675 C 3483.35 -0.632177 2.21973 0
M  V30 37676 C 3484.32 -1.16039 1.18845 0
M  V30 37677 O 3485.51 -1.21223 1.47341 0
M  V30 37678 C 3482.65 -1.81688 2.934 0
M  V30 37679 C 3481.76 -1.32383 4.11216 0
M  V30 37680 C 3480.89 -2.46922 4.70322 0
M  V30 37681 C 3479.93 -1.94551 5.80359 0
M  V30 37682 N 3479.07 -3.02511 6.33586 0
M  V30 37683 H 3483.91 -0.0579656 2.97944 0
M  V30 37684 H 3481.45 -0.0168467 1.4709 0
M  V30 37685 H 3483.4 -2.51304 3.3302 0
M  V30 37686 H 3482.03 -2.36334 2.19878 0
M  V30 37687 H 3481.09 -0.521225 3.76812 0
M  V30 37688 H 3482.4 -0.900128 4.90611 0
M  V30 37689 H 3481.55 -3.24556 5.1259 0
M  V30 37690 H 3480.29 -2.92601 3.90174 0
M  V30 37691 H 3479.3 -1.15392 5.37554 0
M  V30 37692 H 3480.52 -1.49825 6.62366 0
M  V30 37693 H 3478.47 -3.47598 5.56338 0
M  V30 37694 H 3478.38 -2.64516 7.08214 0
M  V30 37695 H 3479.65 -3.80162 6.80512 0
M  V30 37696 N 3483.88 -1.57596 -0.0116567 0
M  V30 37697 C 3484.79 -2.11102 -1.02338 0
M  V30 37698 C 3485.81 -1.05358 -1.38476 0
M  V30 37699 O 3486.98 -1.37194 -1.47444 0
M  V30 37700 C 3484.05 -2.59414 -2.30012 0
M  V30 37701 C 3483.11 -3.79712 -2.00294 0
M  V30 37702 C 3482.34 -4.25709 -3.21881 0
M  V30 37703 O 3482.57 -3.71113 -4.33164 0
M  V30 37704 O 3481.5 -5.17981 -3.06561 0
M  V30 37705 H 3485.33 -2.97743 -0.598585 0
M  V30 37706 H 3482.91 -1.47623 -0.229753 0
M  V30 37707 H 3484.79 -2.90739 -3.05039 0
M  V30 37708 H 3483.47 -1.75876 -2.71752 0
M  V30 37709 H 3482.37 -3.53378 -1.22779 0
M  V30 37710 H 3483.71 -4.64286 -1.63398 0
M  V30 37711 N 3485.36 0.284228 -1.55016 0
M  V30 37712 C 3486.78 0.630819 -1.46604 0
M  V30 37713 C 3486.98 1.90002 -0.670943 0
M  V30 37714 O 3486.03 2.51819 -0.18531 0
M  V30 37715 C 3487.34 0.768217 -2.90721 0
M  V30 37716 C 3488.89 0.863008 -3.00867 0
M  V30 37717 C 3489.37 1.03227 -4.46215 0
M  V30 37718 N 3490.86 1.09807 -4.49996 0
M  V30 37719 C 3491.59 1.24764 -5.59662 0
M  V30 37720 N 3491.09 1.36511 -6.79218 0
M  V30 37721 N 3492.88 1.27785 -5.47382 0
M  V30 37722 H 3485.03 -0.549445 -2.0517 0
M  V30 37723 H 3487.3 -0.184304 -0.929912 0
M  V30 37724 H 3487 -0.0937517 -3.51575 0
M  V30 37725 H 3486.88 1.65203 -3.39099 0
M  V30 37726 H 3489.26 1.71545 -2.40117 0
M  V30 37727 H 3489.34 -0.0451716 -2.5576 0
M  V30 37728 H 3488.99 0.184531 -5.07565 0
M  V30 37729 H 3488.92 1.95493 -4.88968 0
M  V30 37730 H 3491.41 1.02014 -3.6387 0
M  V30 37731 H 3491.72 1.47726 -7.58549 0
M  V30 37732 H 3490.07 1.33536 -6.82051 0
M  V30 37733 H 3493.26 1.1823 -4.52923 0
M  V30 37734 H 3493.43 1.39097 -6.32895 0
M  V30 37735 N 3486.84 1.47758 0.548222 0
M  V30 37736 C 3487.78 1.60918 1.65451 0
M  V30 37737 C 3488.75 0.451859 1.59836 0
M  V30 37738 O 3489.94 0.673054 1.78535 0
M  V30 37739 C 3487.08 1.63785 3.03757 0
M  V30 37740 C 3486.19 2.90498 3.19742 0
M  V30 37741 C 3485.33 2.84643 4.485 0
M  V30 37742 C 3484.37 4.0614 4.57948 0
M  V30 37743 N 3483.5 3.98468 5.78072 0
M  V30 37744 H 3488.34 2.554 1.53541 0
M  V30 37745 H 3485.88 1.26674 0.747803 0
M  V30 37746 H 3487.84 1.6343 3.83857 0
M  V30 37747 H 3486.47 0.728091 3.14482 0
M  V30 37748 H 3485.52 3.0068 2.33014 0
M  V30 37749 H 3486.83 3.80446 3.22587 0
M  V30 37750 H 3485.99 2.82587 5.3687 0
M  V30 37751 H 3484.73 1.92393 4.48148 0
M  V30 37752 H 3483.73 4.08491 3.67988 0
M  V30 37753 H 3484.96 4.99528 4.60053 0
M  V30 37754 H 3482.9 3.09027 5.78652 0
M  V30 37755 H 3482.82 4.82103 5.82333 0
M  V30 37756 H 3484.09 4.00443 6.68779 0
M  V30 37757 N 3488.32 -0.79567 1.3604 0
M  V30 37758 C 3489.54 -1.58953 1.33225 0
M  V30 37759 C 3489.97 -1.87906 -0.0854266 0
M  V30 37760 O 3489.32 -1.47405 -1.05553 0
M  V30 37761 C 3489.37 -2.89113 2.15513 0
M  V30 37762 O 3488.48 -3.82433 1.54333 0
M  V30 37763 H 3487.82 -0.482402 0.456272 0
M  V30 37764 H 3490.35 -0.986695 1.79236 0
M  V30 37765 H 3490.36 -3.3844 2.27865 0
M  V30 37766 H 3489.03 -2.67366 3.18572 0
M  V30 37767 H 3487.61 -3.41011 1.50885 0
M  V30 37768 N 3489.79 -1.20217 -1.0191 0
M  V30 37769 C 3491.04 -1.01079 -1.75469 0
M  V30 37770 C 3491.37 0.45737 -1.89046 0
M  V30 37771 O 3490.62 1.35582 -1.41124 0
M  V30 37772 C 3490.92 -1.63651 -3.17731 0
M  V30 37773 C 3490.59 -3.13442 -3.24137 0
M  V30 37774 C 3489.25 -3.5432 -3.25593 0
M  V30 37775 C 3491.6 -4.09442 -3.22501 0
M  V30 37776 C 3488.93 -4.89731 -3.2308 0
M  V30 37777 C 3491.28 -5.44795 -3.2153 0
M  V30 37778 C 3489.95 -5.8509 -3.21288 0
M  V30 37779 H 3489.22 -0.369875 -0.642085 0
M  V30 37780 H 3491.86 -1.49605 -1.19544 0
M  V30 37781 H 3490.17 -1.07382 -3.76798 0
M  V30 37782 H 3491.87 -1.46362 -3.73335 0
M  V30 37783 H 3488.46 -2.80876 -3.23738 0
M  V30 37784 H 3492.64 -3.78896 -3.20549 0
M  V30 37785 H 3487.9 -5.20217 -3.21222 0
M  V30 37786 H 3492.07 -6.1893 -3.19216 0
M  V30 37787 H 3489.7 -6.89987 -3.19095 0
M  V30 37788 N 3491.27 1.21178 -1.00765 0
M  V30 37789 C 3492.5 1.94026 -0.709749 0
M  V30 37790 C 3492.91 1.74462 0.732104 0
M  V30 37791 O 3492.25 1.05006 1.50729 0
M  V30 37792 C 3492.32 3.46602 -0.95433 0
M  V30 37793 C 3491.98 3.89918 -2.38354 0
M  V30 37794 C 3492.98 3.96406 -3.3639 0
M  V30 37795 C 3490.66 4.22158 -2.7219 0
M  V30 37796 C 3492.66 4.3453 -4.66329 0
M  V30 37797 C 3490.34 4.59959 -4.02344 0
M  V30 37798 C 3491.34 4.66116 -4.99224 0
M  V30 37799 O 3491.03 5.03054 -6.2705 0
M  V30 37800 H 3490.76 0.623768 -0.260556 0
M  V30 37801 H 3493.31 1.54869 -1.34924 0
M  V30 37802 H 3491.54 3.85841 -0.257666 0
M  V30 37803 H 3493.23 4.00671 -0.649403 0
M  V30 37804 H 3494 3.71672 -3.11585 0
M  V30 37805 H 3489.88 4.16562 -1.97476 0
M  V30 37806 H 3493.42 4.3925 -5.41945 0
M  V30 37807 H 3489.32 4.84148 -4.26933 0
M  V30 37808 H 3490.09 5.21078 -6.31205 0
M  V30 37809 N 3492.75 0.782725 1.36789 0
M  V30 37810 C 3493.98 0.36377 2.03677 0
M  V30 37811 C 3494.39 -1.01765 1.59026 0
M  V30 37812 O 3493.75 -1.65153 0.77657 0
M  V30 37813 C 3493.8 0.410276 3.59164 0
M  V30 37814 O 3493.52 1.73721 4.02185 0
M  V30 37815 C 3495.02 -0.0188941 4.43296 0
M  V30 37816 H 3492.24 0.150841 0.653826 0
M  V30 37817 H 3494.79 1.05971 1.74901 0
M  V30 37818 H 3492.94 -0.237181 3.86673 0
M  V30 37819 H 3493.36 1.68341 4.96751 0
M  V30 37820 H 3494.83 0.0647914 5.51962 0
M  V30 37821 H 3495.31 -1.07068 4.2595 0
M  V30 37822 H 3495.91 0.600795 4.21035 0
M  V30 37823 N 3494.23 -1.48271 0.534176 0
M  V30 37824 C 3495.48 -2.017 -0.000415173 0
M  V30 37825 C 3495.79 -1.41615 -1.34924 0
M  V30 37826 O 3497 -1.86567 -1.97243 0
M  V30 37827 C 3495.45 -3.59864 -0.0511251 0
M  V30 37828 C 3495.06 -4.28934 1.29306 0
M  V30 37829 C 3496.8 -4.21124 -0.534323 0
M  V30 37830 C 3494.71 -5.79041 1.2027 0
M  V30 37831 H 3493.64 -0.75399 -0.00392518 0
M  V30 37832 H 3496.29 -1.70492 0.678584 0
M  V30 37833 H 3494.67 -3.87932 -0.79529 0
M  V30 37834 H 3495.85 -4.12533 2.05312 0
M  V30 37835 H 3494.16 -3.79563 1.71233 0
M  V30 37836 H 3496.76 -5.31094 -0.619955 0
M  V30 37837 H 3497.1 -3.86726 -1.54107 0
M  V30 37838 H 3497.64 -3.97501 0.154284 0
M  V30 37839 H 3494.38 -6.18021 2.18474 0
M  V30 37840 H 3493.9 -5.97843 0.484076 0
M  V30 37841 H 3495.57 -6.40778 0.895118 0
M  V30 37842 N 3495.71 -0.269505 -1.55279 0
M  V30 37843 C 3496.65 0.620396 -2.22305 0
M  V30 37844 C 3497.62 1.15407 -1.19459 0
M  V30 37845 O 3498.81 1.2044 -1.47982 0
M  V30 37846 C 3495.95 1.80129 -2.9436 0
M  V30 37847 C 3495.06 1.302 -4.11912 0
M  V30 37848 C 3494.2 2.44425 -4.71625 0
M  V30 37849 C 3493.24 1.91471 -5.81382 0
M  V30 37850 N 3492.37 2.99147 -6.35181 0
M  V30 37851 H 3497.21 0.0421641 -2.9797 0
M  V30 37852 H 3494.75 0.00904587 -1.47097 0
M  V30 37853 H 3496.71 2.49534 -3.34348 0
M  V30 37854 H 3495.34 2.35164 -2.21128 0
M  V30 37855 H 3494.39 0.501235 -3.77083 0
M  V30 37856 H 3495.7 0.874097 -4.91081 0
M  V30 37857 H 3494.86 3.21833 -5.14304 0
M  V30 37858 H 3493.59 2.90528 -3.9172 0
M  V30 37859 H 3492.6 1.1254 -5.38159 0
M  V30 37860 H 3493.82 1.4631 -6.63152 0
M  V30 37861 H 3491.77 3.44643 -5.58173 0
M  V30 37862 H 3491.69 2.60757 -7.09607 0
M  V30 37863 H 3492.96 3.76548 -6.82519 0
M  V30 37864 N 3497.18 1.576 0.00329885 0
M  V30 37865 C 3498.41 1.95102 0.703553 0
M  V30 37866 C 3498.83 0.871447 1.66696 0
M  V30 37867 O 3498.19 -0.170707 1.80495 0
M  V30 37868 C 3498.24 3.31699 1.41451 0
M  V30 37869 O 3497.34 3.25769 2.5288 0
M  V30 37870 H 3496.69 0.637011 0.187385 0
M  V30 37871 H 3499.22 2.04542 -0.0489087 0
M  V30 37872 H 3499.23 3.67188 1.77867 0
M  V30 37873 H 3497.9 4.09828 0.70811 0
M  V30 37874 H 3496.48 3.01951 2.18815 0
M  V30 37875 N 3498.66 -0.276003 1.55164 0
M  V30 37876 C 3499.89 -1.02483 1.7939 0
M  V30 37877 C 3500.3 -1.80538 0.565915 0
M  V30 37878 O 3499.64 -1.77467 -0.474459 0
M  V30 37879 C 3499.71 -2.03297 2.96498 0
M  V30 37880 C 3499.37 -1.44207 4.33651 0
M  V30 37881 C 3500.37 -0.859265 5.1275 0
M  V30 37882 C 3498.05 -1.47017 4.80303 0
M  V30 37883 C 3500.05 -0.312436 6.36634 0
M  V30 37884 C 3497.73 -0.919481 6.04143 0
M  V30 37885 C 3498.73 -0.341609 6.82145 0
M  V30 37886 O 3498.42 0.200658 8.0365 0
M  V30 37887 H 3498.15 -0.308582 0.601459 0
M  V30 37888 H 3500.7 -0.313112 2.02999 0
M  V30 37889 H 3498.93 -2.78218 2.68573 0
M  V30 37890 H 3500.62 -2.64283 3.08074 0
M  V30 37891 H 3501.39 -0.830269 4.7784 0
M  V30 37892 H 3497.27 -1.90935 4.19601 0
M  V30 37893 H 3500.81 0.139254 6.97461 0
M  V30 37894 H 3496.71 -0.945707 6.38535 0
M  V30 37895 H 3497.48 0.0897315 8.18451 0
M  V30 37896 N 3500.14 -1.48046 -0.540378 0
M  V30 37897 C 3501.42 -1.46019 -1.30145 0
M  V30 37898 C 3501.8 -0.166208 -2.10445 0
M  V30 37899 O 3501.15 0.852186 -2.12014 0
M  V30 37900 C 3501.36 -2.71596 -2.19172 0
M  V30 37901 C 3502.7 -3.19502 -2.79649 0
M  V30 37902 O 3503.73 -2.72441 -2.29465 0
M  V30 37903 O 3502.59 -4.01362 -3.70905 0
M  V30 37904 H 3499.68 -0.582679 -0.586868 0
M  V30 37905 H 3502.23 -1.60268 -0.55789 0
M  V30 37906 H 3501 -3.57295 -1.5955 0
M  V30 37907 H 3500.62 -2.60017 -3.00794 0
M  V30 37908 N 3501.62 0.788444 -1.3646 0
M  V30 37909 C 3502.53 1.93242 -1.33021 0
M  V30 37910 C 3503.54 1.72443 -0.232242 0
M  V30 37911 O 3504.72 1.95964 -0.464777 0
M  V30 37912 C 3501.79 3.28119 -1.11976 0
M  V30 37913 C 3500.85 3.61689 -2.31256 0
M  V30 37914 C 3500.08 4.9013 -2.11206 0
M  V30 37915 O 3500.3 5.59933 -1.08774 0
M  V30 37916 O 3499.24 5.22379 -2.99005 0
M  V30 37917 H 3503.06 1.99094 -2.29337 0
M  V30 37918 H 3500.65 0.928835 -1.17017 0
M  V30 37919 H 3502.53 4.08829 -1.02161 0
M  V30 37920 H 3501.2 3.23158 -0.187228 0
M  V30 37921 H 3500.11 2.81282 -2.4664 0
M  V30 37922 H 3501.44 3.71375 -3.23019 0
M  V30 37923 N 3503.1 1.20755 1.01271 0
M  V30 37924 C 3504.33 1.0443 1.78263 0
M  V30 37925 C 3504.73 -0.409329 1.84719 0
M  V30 37926 O 3504.08 -1.29593 1.30197 0
M  V30 37927 C 3504.14 1.55699 3.24034 0
M  V30 37928 C 3503.8 3.04053 3.41175 0
M  V30 37929 C 3504.8 4.01675 3.3008 0
M  V30 37930 C 3502.49 3.43095 3.66866 0
M  V30 37931 C 3504.48 5.36329 3.44427 0
M  V30 37932 C 3502.17 4.77903 3.80857 0
M  V30 37933 C 3503.16 5.74329 3.69642 0
M  V30 37934 O 3502.85 7.06692 3.83199 0
M  V30 37935 H 3502.58 0.367592 0.56732 0
M  V30 37936 H 3505.14 1.60374 1.28333 0
M  V30 37937 H 3503.37 0.941448 3.75065 0
M  V30 37938 H 3505.06 1.35335 3.82674 0
M  V30 37939 H 3505.82 3.72857 3.10165 0
M  V30 37940 H 3501.7 2.6858 3.74681 0
M  V30 37941 H 3505.25 6.11576 3.3559 0
M  V30 37942 H 3501.14 5.0641 4.00273 0
M  V30 37943 H 3501.91 7.13994 4.00193 0
M  V30 37944 N 3504.58 -1.20642 1.01406 0
M  V30 37945 C 3505.82 -1.89264 0.697277 0
M  V30 37946 C 3506.14 -1.79543 -0.776118 0
M  V30 37947 O 3507.34 -2.43276 -1.20536 0
M  V30 37948 C 3505.8 -3.39419 1.19677 0
M  V30 37949 C 3505.41 -3.57731 2.69689 0
M  V30 37950 C 3507.15 -4.13611 0.955298 0
M  V30 37951 C 3505.06 -5.01699 3.13133 0
M  V30 37952 H 3503.99 -0.708807 0.257117 0
M  V30 37953 H 3506.64 -1.36496 1.22642 0
M  V30 37954 H 3505.02 -3.91495 0.595631 0
M  V30 37955 H 3506.2 -3.16053 3.35331 0
M  V30 37956 H 3504.51 -2.96906 2.91952 0
M  V30 37957 H 3507.11 -5.19755 1.25533 0
M  V30 37958 H 3507.45 -4.16159 -0.108289 0
M  V30 37959 H 3507.98 -3.67628 1.51969 0
M  V30 37960 H 3504.72 -5.04304 4.18757 0
M  V30 37961 H 3504.24 -5.44197 2.5221 0
M  V30 37962 H 3505.92 -5.70264 3.05627 0
M  V30 37963 N 3506.05 -0.789968 -1.36372 0
M  V30 37964 C 3507.28 -0.373431 -2.0401 0
M  V30 37965 C 3507.7 1.00228 -1.59173 0
M  V30 37966 O 3507.06 1.6458 -0.76046 0
M  V30 37967 C 3507.11 -0.446146 -3.57829 0
M  V30 37968 O 3506.21 0.546708 -4.0876 0
M  V30 37969 H 3505.55 -0.158506 -0.644804 0
M  V30 37970 H 3508.08 -1.07123 -1.74315 0
M  V30 37971 H 3508.09 -0.309949 -4.06821 0
M  V30 37972 H 3506.77 -1.44969 -3.89816 0
M  V30 37973 H 3505.35 0.372126 -3.71039 0
M  V30 37974 N 3507.53 1.47986 -0.542031 0
M  V30 37975 C 3508.46 2.32619 0.202662 0
M  V30 37976 C 3509.44 1.42848 0.923496 0
M  V30 37977 O 3510.63 1.71722 0.906927 0
M  V30 37978 C 3507.76 3.24309 1.24261 0
M  V30 37979 C 3506.71 4.232 0.639183 0
M  V30 37980 C 3506.04 5.04108 1.78266 0
M  V30 37981 C 3507.34 5.20788 -0.397073 0
M  V30 37982 H 3509.03 2.9513 -0.503868 0
M  V30 37983 H 3506.58 1.41922 -0.243761 0
M  V30 37984 H 3508.53 3.8235 1.77163 0
M  V30 37985 H 3507.25 2.59822 1.97888 0
M  V30 37986 H 3505.91 3.66364 0.131591 0
M  V30 37987 H 3505.56 4.36037 2.50761 0
M  V30 37988 H 3505.26 5.7105 1.38477 0
M  V30 37989 H 3506.79 5.65004 2.31523 0
M  V30 37990 H 3508.2 5.73282 0.045305 0
M  V30 37991 H 3506.6 5.95849 -0.713015 0
M  V30 37992 H 3507.67 4.6719 -1.29851 0
M  V30 37993 N 3509.01 0.277736 1.55133 0
M  V30 37994 C 3510.26 -0.338796 1.9995 0
M  V30 37995 C 3510.59 -1.55308 1.1659 0
M  V30 37996 O 3509.86 -1.93056 0.236605 0
M  V30 37997 C 3510.15 -0.718395 3.52861 0
M  V30 37998 C 3510 0.503411 4.46974 0
M  V30 37999 C 3511.32 -1.55384 4.11757 0
M  V30 38000 H 3508.44 -0.121669 0.726888 0
M  V30 38001 H 3511.08 0.385203 1.86054 0
M  V30 38002 H 3509.23 -1.33525 3.64833 0
M  V30 38003 H 3510.9 1.14196 4.46942 0
M  V30 38004 H 3509.14 1.14099 4.18526 0
M  V30 38005 H 3509.82 0.194009 5.51659 0
M  V30 38006 H 3512.29 -1.03286 4.03077 0
M  V30 38007 H 3511.17 -1.78826 5.18953 0
M  V30 38008 H 3511.43 -2.53571 3.62152 0
M  V30 38009 O 3510.53 -1.60862 0.143465 0
M  V30 38010 H 3511.22 -1.88374 -0.451111 0
M  V30 END ATOM
M  V30 BEGIN BOND
M  V30 END BOND
M  V30 END CTAB
M  END
$$$$
