drugbank_target|P49424 Mannan endo-1,4-beta-mannosidase (DB02680; DB03814; DB04084; DB04483)
 OpenBabel12092120023D

  0  0  0     0  0            999 V3000
M  V30 BEGIN CTAB
M  V30 COUNTS 6602 6696 0 0 0
M  V30 BEGIN ATOM
M  V30 1 H -0.908 1.98254 -0.117106 0
M  V30 2 N 0 1.576 0 0
M  V30 3 C 0.933 2.03868 1.02534 0
M  V30 4 C 1.911 0.928543 1.3348 0
M  V30 5 O 3.095 1.19667 1.45644 0
M  V30 6 C 0.222 2.43627 2.35294 0
M  V30 7 C -0.732 3.65373 2.2001 0
M  V30 8 S 0.101 5.13292 1.52614 0
M  V30 9 C 1.257 5.56322 2.86805 0
M  V30 10 H 1.49 2.90518 0.631377 0
M  V30 11 H -0.977 1.52953 0.210867 0
M  V30 12 H 0.981 2.67203 3.11629 0
M  V30 13 H -0.358 1.57376 2.7183 0
M  V30 14 H -1.165 3.90944 3.18086 0
M  V30 15 H -1.563 3.418 1.51819 0
M  V30 16 H 0.729 5.58782 3.83104 0
M  V30 17 H 1.672 6.56266 2.65933 0
M  V30 18 H 2.08 4.83886 2.90714 0
M  V30 19 N 1.4781 -0.272755 1.55222 0
M  V30 20 C 2.4251 -1.33716 1.88119 0
M  V30 21 C 3.3951 -1.49066 0.73271 0
M  V30 22 O 4.5801 -1.63469 0.984002 0
M  V30 23 C 1.7201 -2.69238 2.15882 0
M  V30 24 C 0.8331 -2.62108 3.43399 0
M  V30 25 C -0.0319 -3.89811 3.60861 0
M  V30 26 C -0.9929 -3.77193 4.8207 0
M  V30 27 N -1.8559 -4.9673 4.96189 0
M  V30 28 H 2.9841 -1.04962 2.78903 0
M  V30 29 H 0.5211 -0.507088 1.38083 0
M  V30 30 H 2.4791 -3.48089 2.29978 0
M  V30 31 H 1.1091 -2.96194 1.28331 0
M  V30 32 H 0.1611 -1.74967 3.37773 0
M  V30 33 H 1.4731 -2.48685 4.32386 0
M  V30 34 H 0.6271 -4.77103 3.74777 0
M  V30 35 H -0.6339 -4.06102 2.7006 0
M  V30 36 H -1.6289 -2.88284 4.68159 0
M  V30 37 H -0.4039 -3.62421 5.74307 0
M  V30 38 H -2.4579 -5.13431 4.08319 0
M  V30 39 H -2.5409 -4.85839 5.79221 0
M  V30 40 H -1.2729 -5.85594 5.1449 0
M  V30 41 N 2.9562 -1.48159 -0.537278 0
M  V30 42 C 4.1842 -1.59454 -1.31841 0
M  V30 43 C 4.5992 -0.252065 -1.8711 0
M  V30 44 O 3.9562 0.757621 -1.66031 0
M  V30 45 C 4.0072 -2.63546 -2.47439 0
M  V30 46 O 3.7282 -3.92583 -1.94449 0
M  V30 47 C 5.2292 -2.85212 -3.39366 0
M  V30 48 H 2.4492 -0.53785 -0.401196 0
M  V30 49 H 4.9932 -1.93932 -0.648891 0
M  V30 50 H 3.1482 -2.31946 -3.1029 0
M  V30 51 H 3.5622 -4.49629 -2.70063 0
M  V30 52 H 5.0362 -3.61863 -4.16844 0
M  V30 53 H 5.5132 -1.93765 -3.94147 0
M  V30 54 H 6.1192 -3.18086 -2.82314 0
M  V30 55 N 4.4343 0.785586 -1.36625 0
M  V30 56 C 5.6833 1.53883 -1.30396 0
M  V30 57 C 5.9963 1.95271 0.113452 0
M  V30 58 O 7.2023 2.69858 0.298142 0
M  V30 59 C 5.6583 2.77808 -2.28802 0
M  V30 60 C 5.2663 2.43574 -3.75999 0
M  V30 61 C 7.0103 3.55783 -2.31558 0
M  V30 62 C 4.9173 3.63919 -4.66173 0
M  V30 63 H 3.8473 0.577678 -0.484566 0
M  V30 64 H 6.4983 0.861705 -1.62009 0
M  V30 65 H 4.8803 3.47339 -1.90188 0
M  V30 66 H 6.0543 1.81916 -4.23371 0
M  V30 67 H 4.3693 1.78803 -3.76056 0
M  V30 68 H 6.9663 4.45205 -2.96137 0
M  V30 69 H 7.3093 3.94644 -1.3252 0
M  V30 70 H 7.8423 2.93235 -2.68809 0
M  V30 71 H 4.5813 3.3015 -5.66287 0
M  V30 72 H 4.1013 4.2473 -4.23515 0
M  V30 73 H 5.7803 4.30901 -4.82632 0
M  V30 74 N 5.9124 1.20967 1.01018 0
M  V30 75 C 7.1404 1.04956 1.78303 0
M  V30 76 C 7.5554 -0.400915 1.84494 0
M  V30 77 O 6.9124 -1.27826 1.30257 0
M  V30 78 C 6.9634 1.63403 3.22462 0
M  V30 79 O 6.6844 3.02775 3.16637 0
M  V30 80 C 8.1854 1.52432 4.16268 0
M  V30 81 H 5.4054 0.368858 0.560522 0
M  V30 82 H 7.9494 1.60193 1.27116 0
M  V30 83 H 6.1044 1.1227 3.70775 0
M  V30 84 H 6.5184 3.30626 4.07169 0
M  V30 85 H 7.9924 1.98078 5.15237 0
M  V30 86 H 8.4694 0.477875 4.36592 0
M  V30 87 H 9.0754 2.02787 3.73841 0
M  V30 88 N 7.3905 -1.2043 1.01659 0
M  V30 89 C 8.6185 -1.93777 0.725132 0
M  V30 90 C 9.0335 -1.74772 -0.714166 0
M  V30 91 O 8.3905 -1.06169 -1.4844 0
M  V30 92 C 8.4415 -3.45876 1.05129 0
M  V30 93 O 8.1625 -3.6426 2.43406 0
M  V30 94 C 9.6635 -4.36368 0.780891 0
M  V30 95 H 6.8835 -0.615901 0.266284 0
M  V30 96 H 9.4275 -1.52922 1.35776 0
M  V30 97 H 7.5825 -3.8461 0.464065 0
M  V30 98 H 7.9965 -4.58246 2.55169 0
M  V30 99 H 9.4705 -5.41743 1.05918 0
M  V30 100 H 9.9475 -4.38275 -0.284937 0
M  V30 101 H 10.5535 -4.03296 1.35027 0
M  V30 102 N 8.8686 -0.792821 -1.36206 0
M  V30 103 C 9.8316 -0.199459 -2.2833 0
M  V30 104 C 10.8316 0.605189 -1.48977 0
M  V30 105 O 12.0216 0.425685 -1.68919 0
M  V30 106 C 9.1536 0.723523 -3.33134 0
M  V30 107 H 10.3466 -1.01181 -2.82316 0
M  V30 108 H 7.8996 -0.562485 -1.45828 0
M  V30 109 H 8.6346 1.56008 -2.84309 0
M  V30 110 H 8.4196 0.148436 -3.91819 0
M  V30 111 H 9.9096 1.13344 -4.01924 0
M  V30 112 N 10.3467 1.47872 -0.545128 0
M  V30 113 C 11.7627 1.5829 -0.204032 0
M  V30 114 C 11.9627 1.54529 1.29317 0
M  V30 115 O 11.0187 1.44232 2.07252 0
M  V30 116 C 12.3317 2.89304 -0.819987 0
M  V30 117 C 13.8797 3.02864 -0.790105 0
M  V30 118 C 14.3547 4.3656 -1.38491 0
M  V30 119 N 15.8457 4.43165 -1.34755 0
M  V30 120 C 16.5807 5.45153 -1.77753 0
M  V30 121 N 16.0767 6.54016 -2.2855 0
M  V30 122 N 17.8697 5.36125 -1.68897 0
M  V30 123 H 10.0207 1.4856 -1.51802 0
M  V30 124 H 12.2837 0.706305 -0.632327 0
M  V30 125 H 11.9897 2.97757 -1.87173 0
M  V30 126 H 11.8637 3.75957 -0.305915 0
M  V30 127 H 14.2507 2.94014 0.252913 0
M  V30 128 H 14.3317 2.17782 -1.34181 0
M  V30 129 H 13.9757 4.46164 -2.42693 0
M  V30 130 H 13.9057 5.20353 -0.808754 0
M  V30 131 H 16.3967 3.65083 -0.975855 0
M  V30 132 H 16.7097 7.27994 -2.59314 0
M  V30 133 H 15.0547 6.54938 -2.32553 0
M  V30 134 H 18.2457 4.49975 -1.28998 0
M  V30 135 H 18.4187 6.15472 -2.02726 0
M  V30 136 N 11.8248 0.280983 1.55075 0
M  V30 137 C 12.7548 -0.597469 2.25727 0
M  V30 138 C 13.7358 -1.15417 1.24952 0
M  V30 139 O 14.9208 -1.18722 1.53684 0
M  V30 140 C 12.0508 -1.7789 2.98283 0
M  V30 141 C 11.0048 -1.35347 4.06036 0
M  V30 142 C 10.3308 -2.61846 4.66198 0
M  V30 143 C 11.6308 -0.499354 5.19907 0
M  V30 144 H 13.3248 -0.00824265 2.99399 0
M  V30 145 H 10.8708 -0.0025244 1.44 0
M  V30 146 H 12.8238 -2.39937 3.46422 0
M  V30 147 H 11.5478 -2.39405 2.22155 0
M  V30 148 H 10.2068 -0.756156 3.58717 0
M  V30 149 H 9.8548 -3.21632 3.86732 0
M  V30 150 H 9.5548 -2.3409 5.38958 0
M  V30 151 H 11.0788 -3.24732 5.1709 0
M  V30 152 H 12.4928 -1.02498 5.64063 0
M  V30 153 H 10.8898 -0.316424 5.99265 0
M  V30 154 H 11.9598 0.480459 4.82514 0
M  V30 155 N 13.3029 -1.57598 0.00835791 0
M  V30 156 C 14.7139 -1.7892 -0.53333 0
M  V30 157 C 15.0649 -0.916609 -1.73473 0
M  V30 158 O 14.1899 -0.121336 -2.1606 0
M  V30 159 C 14.7849 -3.24488 -0.974313 0
M  V30 160 C 13.3439 -3.46878 -1.46125 0
M  V30 161 C 12.4909 -2.74157 -0.416302 0
M  V30 162 H 15.4419 -1.56958 0.234495 0
M  V30 163 H 15.4629 -3.3306 -1.83988 0
M  V30 164 H 14.9749 -3.87972 -0.099718 0
M  V30 165 H 13.0759 -2.8862 -2.35646 0
M  V30 166 H 13.1889 -4.55572 -1.48295 0
M  V30 167 H 11.5529 -2.39022 -0.87981 0
M  V30 168 H 12.3359 -3.40345 0.44947 0
M  V30 169 N 14.781 0.264519 -1.55364 0
M  V30 170 C 16.027 0.992314 -1.77552 0
M  V30 171 C 16.382 1.83626 -0.574379 0
M  V30 172 O 15.675 1.86648 0.432782 0
M  V30 173 C 15.869 1.9004 -3.02687 0
M  V30 174 C 15.698 1.14583 -4.34857 0
M  V30 175 C 14.468 0.858068 -4.97961 0
M  V30 176 C 16.666 0.532069 -5.1154 0
M  V30 177 N 14.648 0.0775974 -6.13851 0
M  V30 178 C 16.019 -0.113823 -6.19896 0
M  V30 179 C 18.074 0.440763 -4.95945 0
M  V30 180 C 16.777 -0.842231 -7.14352 0
M  V30 181 C 18.803 -0.274072 -5.90765 0
M  V30 182 C 18.165 -0.90867 -6.98515 0
M  V30 183 H 14.264 0.344811 -0.701875 0
M  V30 184 H 16.848 0.267141 -1.92859 0
M  V30 185 H 15.019 2.59775 -2.88741 0
M  V30 186 H 16.751 2.56243 -3.13243 0
M  V30 187 H 13.506 1.16547 -4.59036 0
M  V30 188 H 13.93 -0.300216 -6.76334 0
M  V30 189 H 18.572 0.917064 -4.12735 0
M  V30 190 H 16.29 -1.33019 -7.97077 0
M  V30 191 H 19.876 -0.345151 -5.80775 0
M  V30 192 H 18.756 -1.45299 -7.70622 0
M  V30 193 N 16.2591 1.48442 0.529413 0
M  V30 194 C 17.2221 1.62524 1.61612 0
M  V30 195 C 18.2221 0.498509 1.52877 0
M  V30 196 O 19.4121 0.76431 1.56537 0
M  V30 197 C 16.5441 1.59597 3.01233 0
M  V30 198 H 17.7371 2.59423 1.50465 0
M  V30 199 H 15.2901 1.37047 0.751514 0
M  V30 200 H 16.0251 0.641781 3.17886 0
M  V30 201 H 15.8101 2.41397 3.08982 0
M  V30 202 H 17.3001 1.72646 3.80241 0
M  V30 203 N 17.7372 -0.778329 1.37039 0
M  V30 204 C 18.7002 -1.87301 1.32102 0
M  V30 205 C 19.7002 -1.59198 0.226405 0
M  V30 206 O 20.8902 -1.67403 0.481861 0
M  V30 207 C 18.0222 -3.24309 1.05055 0
M  V30 208 H 19.2152 -1.93093 2.29467 0
M  V30 209 H 16.7682 -0.977358 1.21973 0
M  V30 210 H 17.5032 -3.24196 0.0819373 0
M  V30 211 H 17.2882 -3.46098 1.84279 0
M  V30 212 H 18.7782 -4.04382 1.04234 0
M  V30 213 N 19.2153 -1.21501 -1.00376 0
M  V30 214 C 20.1473 -0.933174 -2.09343 0
M  V30 215 C 21.1603 0.0840896 -1.62583 0
M  V30 216 O 22.3493 -0.148563 -1.77881 0
M  V30 217 C 19.4493 -0.379869 -3.36764 0
M  V30 218 C 18.6223 -1.45176 -4.12605 0
M  V30 219 C 17.6813 -0.907476 -5.18316 0
M  V30 220 O 16.7073 -1.5912 -5.46507 0
M  V30 221 N 17.9093 0.276649 -5.7984 0
M  V30 222 H 20.6743 -1.87124 -2.34104 0
M  V30 223 H 18.2353 -1.12043 -1.16867 0
M  V30 224 H 20.2273 -0.00131488 -4.047 0
M  V30 225 H 18.7973 0.463048 -3.09151 0
M  V30 226 H 18.0173 -2.00411 -3.39454 0
M  V30 227 H 19.3053 -2.17328 -4.6005 0
M  V30 228 H 18.7033 0.849147 -5.59291 0
M  V30 229 H 17.2603 0.596702 -6.49063 0
M  V30 230 N 20.6934 1.19889 -1.02296 0
M  V30 231 C 21.9184 1.9393 -0.735237 0
M  V30 232 C 22.3434 1.74639 0.698782 0
M  V30 233 O 21.7014 1.04481 1.48167 0
M  V30 234 C 21.7494 3.43916 -1.08417 0
M  V30 235 O 20.8534 4.11917 -0.199446 0
M  V30 236 H 20.1944 0.605645 -0.272196 0
M  V30 237 H 22.7244 1.52137 -1.36804 0
M  V30 238 H 22.7344 3.9456 -1.03856 0
M  V30 239 H 21.4094 3.5728 -2.12894 0
M  V30 240 H 19.9864 3.71666 -0.303136 0
M  V30 241 N 22.1715 0.800033 1.35784 0
M  V30 242 C 23.4185 0.377342 1.98953 0
M  V30 243 C 23.7465 -1.05378 1.6348 0
M  V30 244 O 23.0015 -1.74459 0.886707 0
M  V30 245 C 23.3005 0.500276 3.53881 0
M  V30 246 C 22.9665 1.89375 4.09204 0
M  V30 247 C 21.6285 2.27499 4.24025 0
M  V30 248 C 23.9805 2.8057 4.39238 0
M  V30 249 C 21.3085 3.562 4.66195 0
M  V30 250 C 23.6605 4.0871 4.82844 0
M  V30 251 C 22.3245 4.46843 4.95871 0
M  V30 252 H 21.5945 0.138079 0.728021 0
M  V30 253 H 24.2415 1.01955 1.62103 0
M  V30 254 H 22.5465 -0.225405 3.91151 0
M  V30 255 H 24.2435 0.154097 4.00704 0
M  V30 256 H 20.8335 1.58753 3.98115 0
M  V30 257 H 25.0175 2.52367 4.27346 0
M  V30 258 H 20.2735 3.85602 4.74469 0
M  V30 259 H 24.4475 4.79481 5.05046 0
M  V30 260 H 22.0745 5.46623 5.28306 0
M  V30 261 N 23.6496 -1.47581 0.552962 0
M  V30 262 C 24.6126 -2.28439 -0.186605 0
M  V30 263 C 25.6126 -1.36706 -0.84665 0
M  V30 264 O 26.8026 -1.59378 -0.703164 0
M  V30 265 C 23.9346 -3.16264 -1.2724 0
M  V30 266 H 25.1276 -2.95294 0.523609 0
M  V30 267 H 22.6806 -1.532 0.309745 0
M  V30 268 H 23.4156 -2.54091 -2.01514 0
M  V30 269 H 23.2006 -3.83769 -0.803968 0
M  V30 270 H 24.6906 -3.77198 -1.79196 0
M  V30 271 N 25.1277 -0.289203 -1.54924 0
M  V30 272 C 26.0577 0.58549 -2.2604 0
M  V30 273 C 27.0387 1.14753 -1.25562 0
M  V30 274 O 28.2237 1.17906 -1.54311 0
M  V30 275 C 25.3537 1.76305 -2.99222 0
M  V30 276 C 24.3077 1.33191 -4.06748 0
M  V30 277 C 23.6337 2.5937 -4.6758 0
M  V30 278 C 24.9337 0.471775 -5.20165 0
M  V30 279 H 26.6277 -0.00763532 -2.99399 0
M  V30 280 H 24.1737 -0.00511229 -1.43999 0
M  V30 281 H 26.1267 2.38097 -3.47689 0
M  V30 282 H 24.8507 2.38223 -2.23422 0
M  V30 283 H 23.5097 0.737121 -3.59113 0
M  V30 284 H 23.1577 3.19576 -3.88433 0
M  V30 285 H 22.8577 2.31228 -5.40192 0
M  V30 286 H 24.3817 3.21985 -5.18804 0
M  V30 287 H 25.7957 0.995056 -5.64599 0
M  V30 288 H 24.1927 0.284639 -5.99425 0
M  V30 289 H 25.2627 -0.506041 -4.82252 0
M  V30 290 N 26.6058 1.57591 -0.0167156 0
M  V30 291 C 27.8538 1.90906 0.663285 0
M  V30 292 C 28.1748 0.892509 1.73376 0
M  V30 293 O 27.4448 -0.0677623 1.95783 0
M  V30 294 H 26.0248 0.704637 0.247983 0
M  V30 295 H 28.6868 1.94803 -0.0615909 0
M  V30 296 H 27.7828 2.9116 1.12393 0
M  V30 297 N 28.0839 -0.256276 1.55502 0
M  V30 298 C 29.3329 -0.983486 1.76098 0
M  V30 299 C 29.6459 -1.86837 0.578896 0
M  V30 300 O 30.8519 -2.63163 0.667648 0
M  V30 301 C 29.3079 -1.79868 3.1173 0
M  V30 302 C 28.9159 -0.961648 4.37557 0
M  V30 303 C 30.6599 -2.51919 3.41668 0
M  V30 304 C 28.5669 -1.77219 5.64223 0
M  V30 305 H 27.4969 -0.370936 0.656447 0
M  V30 306 H 30.1479 -0.238492 1.81944 0
M  V30 307 H 28.5299 -2.58527 2.99966 0
M  V30 308 H 29.7039 -0.218048 4.60284 0
M  V30 309 H 28.0189 -0.354913 4.14885 0
M  V30 310 H 30.6159 -3.12998 4.33516 0
M  V30 311 H 30.9589 -3.23059 2.62562 0
M  V30 312 H 31.4919 -1.80278 3.54605 0
M  V30 313 H 28.2309 -1.10471 6.46124 0
M  V30 314 H 27.7509 -2.49132 5.45613 0
M  V30 315 H 29.4299 -2.34169 6.03137 0
M  V30 316 N 29.562 -1.4872 -0.521534 0
M  V30 317 C 30.802 -1.58771 -1.28729 0
M  V30 318 C 31.166 -0.259394 -1.9024 0
M  V30 319 O 32.367 -0.234942 -2.67771 0
M  V30 320 C 30.638 -2.70039 -2.34124 0
M  V30 321 S 32.197 -2.9991 -3.20312 0
M  V30 322 H 29.015 -0.560251 -0.437767 0
M  V30 323 H 31.617 -1.86283 -0.593188 0
M  V30 324 H 30.321 -3.65101 -1.87429 0
M  V30 325 H 29.852 -2.44455 -3.08229 0
M  V30 326 H 31.867 -2.39855 -4.34378 0
M  V30 327 N 31.0401 0.771051 -1.3745 0
M  V30 328 C 31.9701 1.89827 -1.3597 0
M  V30 329 C 32.9511 1.68562 -0.228216 0
M  V30 330 O 34.1361 1.8941 -0.428675 0
M  V30 331 C 31.2661 3.2712 -1.16662 0
M  V30 332 C 30.2201 3.6295 -2.2683 0
M  V30 333 C 29.5461 4.98791 -1.92644 0
M  V30 334 C 30.8461 3.69627 -3.69017 0
M  V30 335 H 32.5401 1.91323 -2.30295 0
M  V30 336 H 30.0861 0.919082 -1.10855 0
M  V30 337 H 32.0391 4.05615 -1.14256 0
M  V30 338 H 30.7631 3.26059 -0.187926 0
M  V30 339 H 29.4221 2.86763 -2.28392 0
M  V30 340 H 29.0701 4.94271 -0.933021 0
M  V30 341 H 28.7701 5.23733 -2.66416 0
M  V30 342 H 30.2941 5.79685 -1.91826 0
M  V30 343 H 31.7081 4.38273 -3.69581 0
M  V30 344 H 30.1051 4.06067 -4.41848 0
M  V30 345 H 31.1751 2.70273 -4.02592 0
M  V30 346 N 32.5182 1.22032 0.997298 0
M  V30 347 C 33.7672 1.03637 1.73038 0
M  V30 348 C 34.0802 -0.429475 1.90827 0
M  V30 349 O 35.2862 -0.732995 2.61418 0
M  V30 350 C 33.7422 1.80582 3.11317 0
M  V30 351 C 33.3502 3.31387 3.01474 0
M  V30 352 C 35.0942 1.70621 3.88701 0
M  V30 353 C 33.0012 4.00791 4.3488 0
M  V30 354 H 31.9312 0.384179 0.648785 0
M  V30 355 H 34.5822 1.4584 1.11368 0
M  V30 356 H 32.9642 1.31175 3.73643 0
M  V30 357 H 34.1382 3.88155 2.4834 0
M  V30 358 H 32.4532 3.41976 2.37575 0
M  V30 359 H 35.0502 2.19799 4.87434 0
M  V30 360 H 35.3932 0.665823 4.10941 0
M  V30 361 H 35.9262 2.17547 3.33044 0
M  V30 362 H 32.6652 5.05064 4.1784 0
M  V30 363 H 32.1852 3.48811 4.87945 0
M  V30 364 H 33.8642 4.06139 5.03647 0
M  V30 365 N 33.9963 -1.19345 1.0293 0
M  V30 366 C 34.9593 -2.20793 0.615069 0
M  V30 367 C 35.9593 -1.57553 -0.321533 0
M  V30 368 O 37.1493 -1.73862 -0.108483 0
M  V30 369 C 34.2813 -3.40754 -0.0999222 0
M  V30 370 H 35.4743 -2.58955 1.51269 0
M  V30 371 H 33.0273 -1.3303 0.820534 0
M  V30 372 H 33.7623 -3.0811 -1.01187 0
M  V30 373 H 33.5473 -3.87889 0.57309 0
M  V30 374 H 35.0373 -4.15898 -0.376645 0
M  V30 375 N 35.4744 -0.807222 -1.35358 0
M  V30 376 C 36.4044 -0.232509 -2.3234 0
M  V30 377 C 37.3854 0.642386 -1.57504 0
M  V30 378 O 38.5704 0.572526 -1.85569 0
M  V30 379 C 35.7004 0.619238 -3.41735 0
M  V30 380 C 34.6544 -0.157215 -4.27711 0
M  V30 381 C 33.9804 0.816273 -5.28433 0
M  V30 382 C 35.2804 -1.35656 -5.04376 0
M  V30 383 H 36.9744 -1.04276 -2.80654 0
M  V30 384 H 34.5204 -0.50288 -1.34934 0
M  V30 385 H 36.4734 1.03137 -4.08584 0
M  V30 386 H 35.1974 1.46239 -2.92031 0
M  V30 387 H 33.8564 -0.550525 -3.62443 0
M  V30 388 H 33.5044 1.65494 -4.74996 0
M  V30 389 H 33.2044 0.301067 -5.86828 0
M  V30 390 H 34.7284 1.22659 -5.98153 0
M  V30 391 H 36.1424 -1.01927 -5.64166 0
M  V30 392 H 34.5394 -1.8063 -5.7227 0
M  V30 393 H 35.6094 -2.14288 -4.34981 0
M  V30 394 N 36.9525 1.47285 -0.560781 0
M  V30 395 C 37.8825 2.32857 0.173105 0
M  V30 396 C 38.8635 1.44009 0.905281 0
M  V30 397 O 40.0485 1.7286 0.885046 0
M  V30 398 C 37.1785 3.25861 1.20133 0
M  V30 399 C 36.1325 4.23978 0.585388 0
M  V30 400 C 35.4585 5.06332 1.7185 0
M  V30 401 C 36.7585 5.20242 -0.463178 0
M  V30 402 H 38.4525 2.94466 -0.541307 0
M  V30 403 H 35.9985 1.41601 -0.261764 0
M  V30 404 H 37.9515 3.84569 1.72293 0
M  V30 405 H 36.6755 2.62315 1.94573 0
M  V30 406 H 35.3345 3.66501 0.085054 0
M  V30 407 H 34.9825 4.39186 2.45203 0
M  V30 408 H 34.6825 5.72762 1.31213 0
M  V30 409 H 36.2065 5.67899 2.24329 0
M  V30 410 H 37.6205 5.73293 -0.027502 0
M  V30 411 H 36.0175 5.94896 -0.788627 0
M  V30 412 H 37.0875 4.65504 -1.35773 0
M  V30 413 N 38.4306 0.297415 1.54768 0
M  V30 414 C 39.6786 -0.312295 1.99673 0
M  V30 415 C 39.9996 -1.54686 1.18732 0
M  V30 416 O 39.2696 -1.93854 0.282382 0
M  V30 417 H 37.8496 -0.118381 0.73756 0
M  V30 418 H 40.5116 0.407915 1.90583 0
M  V30 419 H 39.6076 -0.586813 3.06534 0
M  V30 420 N 39.9087 -1.5758 0.0250728 0
M  V30 421 C 41.1487 -1.93497 -0.65865 0
M  V30 422 C 41.5127 -0.901409 -1.69525 0
M  V30 423 O 42.7137 -1.14664 -2.43116 0
M  V30 424 C 40.9847 -3.34352 -1.26267 0
M  V30 425 S 42.5437 -3.92191 -1.96803 0
M  V30 426 H 39.3617 -0.67709 -0.216958 0
M  V30 427 H 41.9637 -1.95303 0.0877692 0
M  V30 428 H 40.6677 -4.07395 -0.495741 0
M  V30 429 H 40.1987 -3.3598 -2.04648 0
M  V30 430 H 42.2137 -3.75298 -3.24601 0
M  V30 431 N 41.3868 0.248026 -1.55636 0
M  V30 432 C 42.3348 1.32683 -1.91045 0
M  V30 433 C 43.3288 1.49883 -0.789401 0
M  V30 434 O 44.5348 1.51371 -0.974007 0
M  V30 435 H 40.9098 0.444272 -0.606734 0
M  V30 436 H 42.8808 1.00085 -2.81115 0
M  V30 437 C 41.6298 2.6755 -2.22064 0
M  V30 438 H 40.9528 2.55114 -3.07826 0
M  V30 439 H 42.3928 3.41912 -2.50743 0
M  V30 440 C 40.8518 3.20556 -1.0366 0
M  V30 441 O 41.3818 4.00695 -0.284016 0
M  V30 442 N 39.5878 2.78568 -0.82753 0
M  V30 443 H 39.1348 2.1351 -1.44123 0
M  V30 444 H 39.0928 3.14378 -0.0369803 0
M  V30 445 N 42.8649 1.48995 0.513639 0
M  V30 446 C 43.8149 1.61127 1.61314 0
M  V30 447 C 44.7989 0.467521 1.53958 0
M  V30 448 O 45.9909 0.719826 1.61702 0
M  V30 449 C 43.1199 1.66937 2.99978 0
M  V30 450 C 42.2059 2.86847 3.12377 0
M  V30 451 N 42.5969 4.11078 2.94701 0
M  V30 452 C 40.8949 2.84521 3.43459 0
M  V30 453 C 41.5959 4.91615 3.10949 0
M  V30 454 N 40.5719 4.24739 3.3926 0
M  V30 455 H 44.3739 2.54909 1.46282 0
M  V30 456 H 41.8879 1.45593 0.719483 0
M  V30 457 H 43.8849 1.73725 3.78979 0
M  V30 458 H 42.5449 0.742831 3.16089 0
M  V30 459 H 43.5559 4.41258 2.71131 0
M  V30 460 H 40.2329 2.01192 3.65825 0
M  V30 461 H 41.6229 6.00264 3.01882 0
M  V30 462 N 44.343 -0.763751 1.37857 0
M  V30 463 C 45.306 -1.85889 1.34081 0
M  V30 464 C 46.306 -1.58949 0.243277 0
M  V30 465 O 47.496 -1.66882 0.499589 0
M  V30 466 C 44.628 -3.23176 1.08489 0
M  V30 467 H 45.821 -1.90648 2.31502 0
M  V30 468 H 43.374 -0.964367 1.23003 0
M  V30 469 H 44.109 -3.24091 0.116318 0
M  V30 470 H 43.894 -3.44124 1.8794 0
M  V30 471 H 45.384 -4.03254 1.08517 0
M  V30 472 N 45.8211 -1.22559 -0.990812 0
M  V30 473 C 46.7841 -0.998863 -2.0629 0
M  V30 474 C 47.7841 0.0354834 -1.60761 0
M  V30 475 O 48.9741 -0.203231 -1.7301 0
M  V30 476 C 46.1061 -0.509203 -3.37076 0
M  V30 477 H 47.2991 -1.95014 -2.27837 0
M  V30 478 H 44.8521 -1.04456 -1.16269 0
M  V30 479 H 45.5871 0.446335 -3.21214 0
M  V30 480 H 45.3721 -1.25547 -3.71457 0
M  V30 481 H 46.8621 -0.370888 -4.1595 0
M  V30 482 N 47.2992 1.18797 -1.03562 0
M  V30 483 C 48.2472 2.24297 -0.615905 0
M  V30 484 C 49.2412 1.65643 0.354808 0
M  V30 485 O 50.4472 1.78618 0.22265 0
M  V30 486 H 46.8222 0.729909 -0.180934 0
M  V30 487 H 48.7932 2.5701 -1.5162 0
M  V30 488 C 47.5422 3.47698 0.0104735 0
M  V30 489 H 46.8652 3.93125 -0.727509 0
M  V30 490 H 48.3052 4.23159 0.266995 0
M  V30 491 C 46.7642 3.12489 1.25905 0
M  V30 492 O 47.2942 3.25761 2.35038 0
M  V30 493 N 45.5002 2.6686 1.15039 0
M  V30 494 H 45.0472 2.56261 0.262328 0
M  V30 495 H 45.0052 2.43674 1.98672 0
M  V30 496 N 48.7773 0.814389 1.34928 0
M  V30 497 C 49.7243 0.22822 2.29669 0
M  V30 498 C 50.6943 -0.642164 1.53184 0
M  V30 499 O 51.8793 -0.585605 1.81591 0
M  V30 500 C 49.0193 -0.61089 3.3965 0
M  V30 501 C 48.1323 0.280792 4.31086 0
M  V30 502 C 47.2673 -0.567067 5.28165 0
M  V30 503 C 46.3063 0.324531 6.11239 0
M  V30 504 N 45.4433 -0.483756 7.00431 0
M  V30 505 H 50.2833 1.04153 2.79206 0
M  V30 506 H 47.8203 0.525133 1.37407 0
M  V30 507 H 49.7783 -1.11263 4.0209 0
M  V30 508 H 48.4083 -1.38939 2.91369 0
M  V30 509 H 47.4603 0.900688 3.69583 0
M  V30 510 H 48.7723 0.966723 4.89342 0
M  V30 511 H 47.9263 -1.13363 5.96015 0
M  V30 512 H 46.6653 -1.28654 4.70425 0
M  V30 513 H 45.6703 0.903298 5.42329 0
M  V30 514 H 46.8953 1.04198 6.71059 0
M  V30 515 H 44.8413 -1.18706 6.45171 0
M  V30 516 H 44.7583 0.143965 7.55863 0
M  V30 517 H 46.0263 -1.03334 7.7262 0
M  V30 518 N 50.2554 -1.46986 0.568584 0
M  V30 519 C 51.4804 -2.07335 0.0520528 0
M  V30 520 C 51.9054 -1.41675 -1.23733 0
M  V30 521 O 51.2634 -0.495623 -1.74394 0
M  V30 522 C 51.3114 -3.60417 -0.11501 0
M  V30 523 O 50.4154 -3.95309 -1.17492 0
M  V30 524 H 49.7564 -0.661597 0.0564385 0
M  V30 525 H 52.2864 -1.88837 0.787507 0
M  V30 526 H 52.2964 -4.06698 -0.325644 0
M  V30 527 H 50.9714 -4.07601 0.826675 0
M  V30 528 H 49.5484 -3.60757 -0.943869 0
M  V30 529 N 51.7335 -0.305618 -1.54608 0
M  V30 530 C 52.9585 0.307562 -2.05107 0
M  V30 531 C 53.3835 1.46385 -1.18123 0
M  V30 532 O 52.7415 1.8034 -0.186324 0
M  V30 533 C 52.7895 0.73704 -3.52987 0
M  V30 534 O 51.8935 1.84134 -3.6901 0
M  V30 535 H 51.2345 0.0589143 -0.661381 0
M  V30 536 H 53.7645 -0.448807 -1.99617 0
M  V30 537 H 53.7745 1.02459 -3.94925 0
M  V30 538 H 52.4495 -0.108773 -4.15758 0
M  V30 539 H 51.0265 1.55398 -3.38978 0
M  V30 540 N 53.2116 1.57565 -0.0334293 0
M  V30 541 C 54.1746 2.09393 0.932048 0
M  V30 542 C 55.1746 1.00986 1.25134 0
M  V30 543 O 56.3646 1.27129 1.19096 0
M  V30 544 C 53.4966 2.56338 2.2473 0
M  V30 545 H 54.6896 2.95984 0.483085 0
M  V30 546 H 52.2426 1.54819 0.21468 0
M  V30 547 H 52.9776 1.7309 2.74245 0
M  V30 548 H 52.7626 3.35542 2.02865 0
M  V30 549 H 54.2526 2.96646 2.93923 0
M  V30 550 N 54.6897 -0.239769 1.55765 0
M  V30 551 C 55.9147 -0.988373 1.82335 0
M  V30 552 C 56.3397 -1.77886 0.611421 0
M  V30 553 O 55.6977 -1.75889 -0.439639 0
M  V30 554 C 55.7457 -1.89627 3.06715 0
M  V30 555 O 54.8497 -2.98904 2.84131 0
M  V30 556 H 54.1907 -0.280858 0.601677 0
M  V30 557 H 56.7207 -0.258597 2.02959 0
M  V30 558 H 56.7307 -2.30957 3.36338 0
M  V30 559 H 55.4057 -1.31511 3.9456 0
M  V30 560 H 53.9827 -2.61651 2.65694 0
M  V30 561 N 56.1678 -1.49265 -0.50573 0
M  V30 562 C 57.5838 -1.35923 -0.836486 0
M  V30 563 C 57.7838 -0.388704 -1.97715 0
M  V30 564 O 56.8398 0.181336 -2.51848 0
M  V30 565 C 58.1528 -2.76531 -1.18115 0
M  V30 566 C 59.7008 -2.85197 -1.28964 0
M  V30 567 C 60.1758 -4.26561 -1.66761 0
M  V30 568 N 61.6668 -4.2935 -1.73819 0
M  V30 569 C 62.4018 -5.35693 -2.045 0
M  V30 570 N 61.8978 -6.52287 -2.33438 0
M  V30 571 N 63.6908 -5.23105 -2.05711 0
M  V30 572 H 55.8418 -2.10965 0.246519 0
M  V30 573 H 58.1048 -0.9468 0.0476887 0
M  V30 574 H 57.8108 -3.49226 -0.416398 0
M  V30 575 H 57.6848 -3.11599 -2.1257 0
M  V30 576 H 60.0718 -2.12742 -2.04511 0
M  V30 577 H 60.1528 -2.53718 -0.325704 0
M  V30 578 H 59.7968 -4.99541 -0.917656 0
M  V30 579 H 59.7268 -4.55502 -2.64246 0
M  V30 580 H 62.2178 -3.4526 -1.53635 0
M  V30 581 H 62.5308 -7.29158 -2.56024 0
M  V30 582 H 60.8758 -6.55521 -2.30905 0
M  V30 583 H 64.0668 -4.31026 -1.82577 0
M  V30 584 H 64.2398 -6.06078 -2.29289 0
M  V30 585 N 57.6459 0.756429 -1.3826 0
M  V30 586 C 58.6089 1.85176 -1.35065 0
M  V30 587 C 59.6089 1.58818 -0.251703 0
M  V30 588 O 60.7989 1.66615 -0.508433 0
M  V30 589 C 57.9309 3.22596 -1.10201 0
M  V30 590 H 59.1239 1.89417 -2.3251 0
M  V30 591 H 56.6769 0.95783 -1.23512 0
M  V30 592 H 57.4119 3.24025 -0.133504 0
M  V30 593 H 57.1969 3.43122 -1.89762 0
M  V30 594 H 58.6869 4.02673 -1.10654 0
M  V30 595 N 59.124 1.23083 0.984299 0
M  V30 596 C 60.401 0.9689 1.69917 0
M  V30 597 C 60.781 -0.513604 2.04757 0
M  V30 598 O 60.129 -1.48383 1.73767 0
M  V30 599 C 60.339 1.87518 2.94343 0
M  V30 600 C 61.687 2.13636 3.6694 0
M  V30 601 O 62.711 1.85036 3.04368 0
M  V30 602 O 61.57 2.62119 4.79537 0
M  V30 603 H 58.664 0.365095 0.742048 0
M  V30 604 H 61.21 1.34107 1.03987 0
M  V30 605 H 59.982 2.87756 2.65164 0
M  V30 606 H 59.605 1.50514 3.6801 0
M  V30 607 N 60.6021 -1.18246 1.0419 0
M  V30 608 C 61.8481 -1.88536 0.747122 0
M  V30 609 C 62.1811 -1.80223 -0.723409 0
M  V30 610 O 61.4561 -1.20337 -1.52804 0
M  V30 611 C 61.7391 -3.38968 1.21544 0
M  V30 612 C 61.5921 -3.56084 2.74816 0
M  V30 613 C 62.9111 -4.32648 0.806482 0
M  V30 614 H 60.0301 -0.684619 0.272883 0
M  V30 615 H 62.6721 -1.39113 1.29413 0
M  V30 616 H 60.8221 -3.8119 0.750081 0
M  V30 617 H 62.4941 -3.22946 3.29399 0
M  V30 618 H 60.7371 -2.98699 3.14582 0
M  V30 619 H 61.4081 -4.61639 3.02644 0
M  V30 620 H 63.8841 -3.98211 1.20695 0
M  V30 621 H 62.7601 -5.36462 1.1619 0
M  V30 622 H 63.0211 -4.41146 -0.29029 0
M  V30 623 N 62.0802 -0.821533 -1.34494 0
M  V30 624 C 63.0272 -0.240397 -2.29545 0
M  V30 625 C 63.9972 0.634031 -1.53523 0
M  V30 626 O 65.1822 0.575966 -1.81899 0
M  V30 627 C 62.3222 0.592869 -3.39969 0
M  V30 628 C 61.4352 -0.30365 -4.30932 0
M  V30 629 C 60.5702 0.539049 -5.28458 0
M  V30 630 C 59.6092 -0.356942 -6.11058 0
M  V30 631 N 58.7462 0.446603 -7.00678 0
M  V30 632 H 63.5862 -1.05632 -2.7865 0
M  V30 633 H 61.1232 -0.532413 -1.37127 0
M  V30 634 H 63.0812 1.09129 -4.02675 0
M  V30 635 H 61.7112 1.37392 -2.92102 0
M  V30 636 H 60.7632 -0.920276 -3.691 0
M  V30 637 H 62.0752 -0.992661 -4.88823 0
M  V30 638 H 61.2292 1.102 -5.96608 0
M  V30 639 H 59.9682 1.26157 -4.71101 0
M  V30 640 H 58.9732 -0.932047 -5.41842 0
M  V30 641 H 60.1982 -1.07755 -6.70497 0
M  V30 642 H 58.1442 1.15282 -6.45791 0
M  V30 643 H 58.0612 -0.184048 -7.55776 0
M  V30 644 H 59.3292 0.992352 -7.73158 0
M  V30 645 N 63.5583 1.46682 -0.576371 0
M  V30 646 C 64.9693 1.86112 -0.148091 0
M  V30 647 C 65.3203 1.48073 1.2872 0
M  V30 648 O 64.4453 0.892656 1.97131 0
M  V30 649 C 65.0403 3.37786 -0.261982 0
M  V30 650 C 63.5993 3.76235 0.111384 0
M  V30 651 C 62.7463 2.70713 -0.60083 0
M  V30 652 H 65.6973 1.37927 -0.78497 0
M  V30 653 H 65.7183 3.77007 0.514364 0
M  V30 654 H 65.2303 3.6544 -1.30671 0
M  V30 655 H 63.3313 3.54198 1.15649 0
M  V30 656 H 63.4443 4.78391 -0.26052 0
M  V30 657 H 61.8083 2.54666 -0.0417783 0
M  V30 658 H 62.5913 3.01208 -1.64708 0
M  V30 659 N 65.0364 0.313813 1.54444 0
M  V30 660 C 66.2824 -0.292108 2.00685 0
M  V30 661 C 66.6154 -1.52548 1.20177 0
M  V30 662 O 65.8904 -1.92452 0.281531 0
M  V30 663 C 66.1734 -0.635968 3.5444 0
M  V30 664 C 66.0264 0.607437 4.4568 0
M  V30 665 C 67.3454 -1.45747 4.15266 0
M  V30 666 H 64.4644 -0.104697 0.729526 0
M  V30 667 H 67.1064 0.428457 1.85106 0
M  V30 668 H 65.2564 -1.24986 3.67846 0
M  V30 669 H 66.9284 1.24581 4.44159 0
M  V30 670 H 65.1714 1.23822 4.15753 0
M  V30 671 H 65.8424 0.322515 5.51057 0
M  V30 672 H 68.3184 -0.938645 4.05375 0
M  V30 673 H 67.1944 -1.66683 5.2298 0
M  V30 674 H 67.4554 -2.45063 3.67963 0
M  V30 675 N 66.5145 -1.57545 0.0417849 0
M  V30 676 C 67.7425 -1.96624 -0.643928 0
M  V30 677 C 68.1575 -0.918897 -1.64929 0
M  V30 678 O 67.5145 0.0979323 -1.82237 0
M  V30 679 C 67.5655 -3.35781 -1.33914 0
M  V30 680 O 67.2865 -4.365 -0.374048 0
M  V30 681 C 68.7875 -3.89566 -2.1155 0
M  V30 682 H 66.0075 -0.647316 -0.176702 0
M  V30 683 H 68.5515 -2.04229 0.105304 0
M  V30 684 H 66.7065 -3.29357 -2.03968 0
M  V30 685 H 67.1205 -5.17248 -0.869179 0
M  V30 686 H 68.5945 -4.89242 -2.55628 0
M  V30 687 H 69.0715 -3.24488 -2.9598 0
M  V30 688 H 69.6775 -3.99298 -1.46427 0
M  V30 689 N 67.9926 0.231505 -1.5589 0
M  V30 690 C 69.2386 0.95877 -1.78705 0
M  V30 691 C 69.5716 1.8438 -0.609725 0
M  V30 692 O 68.8466 1.90521 0.391426 0
M  V30 693 C 69.1296 1.8062 -3.11526 0
M  V30 694 C 68.9826 0.948328 -4.39689 0
M  V30 695 C 70.3016 2.78585 -3.40703 0
M  V30 696 H 67.4206 0.347129 -0.650131 0
M  V30 697 H 70.0626 0.228259 -1.88624 0
M  V30 698 H 68.2126 2.42902 -3.03201 0
M  V30 699 H 69.8846 0.343016 -4.60023 0
M  V30 700 H 68.1276 0.253314 -4.3306 0
M  V30 701 H 68.7986 1.57543 -5.29041 0
M  V30 702 H 71.2746 2.26439 -3.49091 0
M  V30 703 H 70.1506 3.34988 -4.34826 0
M  V30 704 H 70.4116 3.55825 -2.62375 0
M  V30 705 N 69.4707 1.49531 0.497807 0
M  V30 706 C 70.4177 1.66436 1.59899 0
M  V30 707 C 71.3877 0.505793 1.58212 0
M  V30 708 O 72.5727 0.733202 1.7615 0
M  V30 709 C 69.7127 1.7399 2.98029 0
M  V30 710 C 68.8257 3.01172 3.09708 0
M  V30 711 C 67.9607 2.99686 4.38591 0
M  V30 712 C 66.9997 4.21434 4.43914 0
M  V30 713 N 66.1367 4.1784 5.64229 0
M  V30 714 H 70.9767 2.60459 1.44793 0
M  V30 715 H 68.5137 1.29137 0.704423 0
M  V30 716 H 70.4717 1.76352 3.78095 0
M  V30 717 H 69.1017 0.834301 3.11832 0
M  V30 718 H 68.1537 3.08408 2.22685 0
M  V30 719 H 69.4657 3.91165 3.09502 0
M  V30 720 H 68.6197 3.00628 5.2698 0
M  V30 721 H 67.3587 2.07477 4.41367 0
M  V30 722 H 66.3637 4.20733 3.53926 0
M  V30 723 H 67.5887 5.14839 4.42851 0
M  V30 724 H 65.5347 3.28469 5.67841 0
M  V30 725 H 65.4517 5.01571 5.65652 0
M  V30 726 H 66.7197 4.22889 6.54817 0
M  V30 727 N 70.9488 -0.749086 1.3866 0
M  V30 728 C 71.8788 -1.8764 1.38973 0
M  V30 729 C 72.8598 -1.68178 0.255004 0
M  V30 730 O 74.0448 -1.88704 0.458754 0
M  V30 731 C 71.1748 -3.25222 1.21851 0
M  V30 732 C 70.1288 -3.59295 2.32575 0
M  V30 733 C 69.4548 -4.95663 2.00555 0
M  V30 734 C 70.7548 -3.63709 3.7485 0
M  V30 735 H 72.4488 -1.87635 2.3331 0
M  V30 736 H 69.9948 -0.901329 1.12303 0
M  V30 737 H 71.9478 -4.03746 1.20695 0
M  V30 738 H 70.6718 -3.25719 0.239775 0
M  V30 739 H 69.3308 -2.83093 2.32925 0
M  V30 740 H 68.9788 -4.92724 1.01154 0
M  V30 741 H 68.6788 -5.19429 2.74714 0
M  V30 742 H 70.2028 -5.7656 2.01024 0
M  V30 743 H 71.6168 -4.32338 3.76506 0
M  V30 744 H 70.0138 -3.98986 4.48252 0
M  V30 745 H 71.0838 -2.63834 4.06841 0
M  V30 746 N 72.4269 -1.23603 -0.977757 0
M  V30 747 C 73.6729 -1.07129 -1.72195 0
M  V30 748 C 74.0059 0.390501 -1.90233 0
M  V30 749 O 73.2809 1.28902 -1.45653 0
M  V30 750 C 73.5639 -1.80031 -3.11867 0
M  V30 751 C 73.4169 -3.33899 -3.01383 0
M  V30 752 C 74.7359 -1.56492 -4.11337 0
M  V30 753 H 71.8549 -0.390571 -0.624999 0
M  V30 754 H 74.4969 -1.52142 -1.13811 0
M  V30 755 H 72.6469 -1.41768 -3.6171 0
M  V30 756 H 74.3189 -3.81699 -2.59043 0
M  V30 757 H 72.5619 -3.62796 -2.37827 0
M  V30 758 H 73.2329 -3.801 -4.00285 0
M  V30 759 H 75.7089 -1.89757 -3.70313 0
M  V30 760 H 74.5849 -2.09973 -5.07151 0
M  V30 761 H 74.8459 -0.500874 -4.39254 0
M  V30 762 N 73.905 1.17692 -1.04816 0
M  V30 763 C 75.182 1.83768 -0.669963 0
M  V30 764 C 75.562 1.93232 0.849986 0
M  V30 765 O 74.91 1.46397 1.75443 0
M  V30 766 C 75.12 3.21641 -1.35455 0
M  V30 767 C 76.468 3.97592 -1.49017 0
M  V30 768 O 77.492 3.31107 -1.31326 0
M  V30 769 O 76.351 5.16729 -1.77914 0
M  V30 770 H 73.445 0.792799 -0.235368 0
M  V30 771 H 75.991 1.25021 -1.14751 0
M  V30 772 H 74.763 3.097 -2.39168 0
M  V30 773 H 74.386 3.88052 -0.866107 0
M  V30 774 N 75.3831 0.828654 1.34056 0
M  V30 775 C 76.6081 0.431637 2.02859 0
M  V30 776 C 77.0331 -0.956339 1.61975 0
M  V30 777 O 76.3911 -1.62338 0.807228 0
M  V30 778 C 76.4391 0.548323 3.56407 0
M  V30 779 O 75.5431 -0.429556 4.10157 0
M  V30 780 H 74.8841 0.176886 0.640006 0
M  V30 781 H 77.4141 1.12066 1.71179 0
M  V30 782 H 77.4241 0.426196 4.05768 0
M  V30 783 H 76.0991 1.5606 3.8551 0
M  V30 784 H 74.6761 -0.265836 3.71951 0
M  V30 785 N 76.8612 -1.46375 0.584142 0
M  V30 786 C 77.7932 -2.28443 -0.186119 0
M  V30 787 C 78.8062 -1.38596 -0.854115 0
M  V30 788 O 79.9952 -1.63183 -0.723438 0
M  V30 789 C 77.0952 -3.13671 -1.28311 0
M  V30 790 C 76.2682 -4.31652 -0.706758 0
M  V30 791 C 75.3272 -4.98267 -1.69163 0
M  V30 792 O 74.3532 -5.55815 -1.22712 0
M  V30 793 N 75.5552 -4.95408 -3.02575 0
M  V30 794 H 78.3202 -2.9519 0.517986 0
M  V30 795 H 75.8812 -1.56303 0.42201 0
M  V30 796 H 77.8732 -3.55101 -1.94128 0
M  V30 797 H 76.4432 -2.48989 -1.89005 0
M  V30 798 H 75.6632 -3.93989 0.128908 0
M  V30 799 H 76.9512 -5.07906 -0.301506 0
M  V30 800 H 76.3492 -4.49902 -3.42936 0
M  V30 801 H 74.9062 -5.40774 -3.63877 0
M  V30 802 N 78.3393 -0.321999 -1.54275 0
M  V30 803 C 79.3023 0.531975 -2.22941 0
M  V30 804 C 80.3023 1.04478 -1.22234 0
M  V30 805 O 81.4923 0.937452 -1.46825 0
M  V30 806 C 78.6243 1.73874 -2.93224 0
M  V30 807 H 79.8173 -0.0682612 -2.99822 0
M  V30 808 H 77.3703 -0.0730644 -1.56129 0
M  V30 809 H 78.1053 2.37825 -2.20476 0
M  V30 810 H 77.8903 1.37847 -3.6707 0
M  V30 811 H 79.3803 2.34496 -3.45545 0
M  V30 812 N 79.8174 1.5752 -0.0501392 0
M  V30 813 C 81.0454 1.96963 0.633492 0
M  V30 814 C 81.4604 0.927631 1.6444 0
M  V30 815 O 80.8174 -0.0882665 1.82286 0
M  V30 816 C 80.8684 3.36487 1.32132 0
M  V30 817 O 80.5894 4.36693 0.350894 0
M  V30 818 C 82.0904 3.90682 2.09481 0
M  V30 819 H 79.3104 0.648244 0.173266 0
M  V30 820 H 81.8544 2.0417 -0.116134 0
M  V30 821 H 80.0094 3.30434 2.02218 0
M  V30 822 H 80.4234 5.17702 0.841735 0
M  V30 823 H 81.8974 4.90591 2.5303 0
M  V30 824 H 82.3744 3.26053 2.94255 0
M  V30 825 H 82.9804 4.00069 1.44307 0
M  V30 826 N 81.2955 -0.223234 1.56011 0
M  V30 827 C 82.2285 -1.30377 1.87289 0
M  V30 828 C 83.2065 -1.45286 0.730112 0
M  V30 829 O 84.3905 -1.61126 0.978302 0
M  V30 830 C 81.5175 -2.67431 2.07843 0
M  V30 831 C 80.5635 -2.69546 3.30526 0
M  V30 832 S 81.3965 -2.23781 4.865 0
M  V30 833 C 82.5525 -3.62714 5.10088 0
M  V30 834 H 82.7855 -1.03652 2.78646 0
M  V30 835 H 80.3185 -0.425393 1.48424 0
M  V30 836 H 82.2765 -3.46336 2.20368 0
M  V30 837 H 80.9375 -2.91381 1.17285 0
M  V30 838 H 80.1305 -3.70255 3.41947 0
M  V30 839 H 79.7325 -1.98703 3.16849 0
M  V30 840 H 82.0245 -4.58391 4.98883 0
M  V30 841 H 82.9675 -3.5621 6.11981 0
M  V30 842 H 83.3755 -3.56323 4.37829 0
M  V30 843 N 82.7736 -1.49793 -0.48987 0
M  V30 844 C 83.6836 -1.70036 -1.61632 0
M  V30 845 C 84.6996 -0.583102 -1.63939 0
M  V30 846 O 85.8756 -0.859169 -1.82154 0
M  V30 847 C 82.9406 -1.77277 -2.97949 0
M  V30 848 C 82.0016 -3.00918 -3.06181 0
M  V30 849 C 81.2346 -3.07804 -4.35996 0
M  V30 850 O 81.4576 -2.21982 -5.25433 0
M  V30 851 O 80.3916 -4.00369 -4.49431 0
M  V30 852 H 84.2176 -2.65486 -1.47482 0
M  V30 853 H 81.8026 -1.33666 -0.667362 0
M  V30 854 H 83.6846 -1.84329 -3.78947 0
M  V30 855 H 82.3596 -0.850076 -3.12339 0
M  V30 856 H 81.2666 -2.99377 -2.2433 0
M  V30 857 H 82.5996 -3.92704 -2.96723 0
M  V30 858 N 84.2517 0.741722 -1.39055 0
M  V30 859 C 85.4797 1.53098 -1.39171 0
M  V30 860 C 85.8947 1.88794 0.0155099 0
M  V30 861 O 85.2517 1.53626 0.985159 0
M  V30 862 C 85.3027 2.82274 -2.2584 0
M  V30 863 O 85.0237 2.48097 -3.61081 0
M  V30 864 C 86.5247 3.76343 -2.34266 0
M  V30 865 H 83.7447 0.473335 -0.4756 0
M  V30 866 H 86.2887 0.917045 -1.82785 0
M  V30 867 H 84.4437 3.40015 -1.85656 0
M  V30 868 H 84.8577 3.31029 -4.06842 0
M  V30 869 H 86.3317 4.63898 -2.9917 0
M  V30 870 H 86.8087 4.17619 -1.35982 0
M  V30 871 H 87.4147 3.24523 -2.74891 0
M  V30 872 N 85.7298 1.2412 0.971189 0
M  V30 873 C 87.1458 1.00584 1.23916 0
M  V30 874 C 87.3458 -0.287481 1.99439 0
M  V30 875 O 86.4018 -1.00454 2.31658 0
M  V30 876 C 87.7148 2.21864 2.0297 0
M  V30 877 C 89.2628 2.26452 2.16076 0
M  V30 878 C 89.7378 3.47343 2.98524 0
M  V30 879 N 91.2288 3.47639 3.06107 0
M  V30 880 C 91.9638 4.37837 3.70251 0
M  V30 881 N 91.4598 5.38286 4.36142 0
M  V30 882 N 93.2528 4.25558 3.67228 0
M  V30 883 H 85.4038 2.07236 0.465499 0
M  V30 884 H 87.6668 0.909236 0.268315 0
M  V30 885 H 87.3728 3.15771 1.54861 0
M  V30 886 H 87.2468 2.23698 3.03709 0
M  V30 887 H 89.6338 1.33078 2.6339 0
M  V30 888 H 89.7148 2.28645 1.14696 0
M  V30 889 H 89.3588 4.41029 2.51905 0
M  V30 890 H 89.2888 3.42393 4.00093 0
M  V30 891 H 91.7798 2.74966 2.59233 0
M  V30 892 H 92.0928 6.03352 4.82894 0
M  V30 893 H 90.4378 5.42176 4.34822 0
M  V30 894 H 93.6288 3.46322 3.14927 0
M  V30 895 H 93.8018 4.96054 4.16935 0
M  V30 896 N 87.2079 -1.17134 1.05439 0
M  V30 897 C 88.4329 -1.91913 0.786396 0
M  V30 898 C 88.8579 -1.7643 -0.652234 0
M  V30 899 O 88.2159 -1.08372 -1.45345 0
M  V30 900 C 88.2639 -3.40921 1.17497 0
M  V30 901 O 87.3679 -4.11244 0.308589 0
M  V30 902 H 86.7089 -0.598215 0.288158 0
M  V30 903 H 89.2389 -1.48457 1.4079 0
M  V30 904 H 89.2489 -3.91668 1.14281 0
M  V30 905 H 87.9239 -3.5151 2.22292 0
M  V30 906 H 86.5009 -3.70731 0.40157 0
M  V30 907 N 88.686 -0.835752 -1.33615 0
M  V30 908 C 89.616 -0.281739 -2.31794 0
M  V30 909 C 90.597 0.608833 -1.58831 0
M  V30 910 O 91.782 0.533035 -1.86741 0
M  V30 911 C 88.912 0.546612 -3.42971 0
M  V30 912 C 87.866 -0.247904 -4.27281 0
M  V30 913 C 87.192 0.704001 -5.30045 0
M  V30 914 C 88.492 -1.46324 -5.01385 0
M  V30 915 H 90.186 -1.10206 -2.78379 0
M  V30 916 H 87.732 -0.531388 -1.33837 0
M  V30 917 H 89.685 0.944467 -4.1068 0
M  V30 918 H 88.409 1.40011 -2.95067 0
M  V30 919 H 87.068 -0.627281 -3.61194 0
M  V30 920 H 86.716 1.55381 -4.78399 0
M  V30 921 H 86.416 0.176524 -5.87335 0
M  V30 922 H 87.94 1.09944 -6.0062 0
M  V30 923 H 89.354 -1.13871 -5.61877 0
M  V30 924 H 87.751 -1.92728 -5.6831 0
M  V30 925 H 88.821 -2.23467 -4.30338 0
M  V30 926 N 90.1641 1.46063 -0.591896 0
M  V30 927 C 91.4111 2.02338 -0.0809991 0
M  V30 928 C 91.7391 1.46228 1.28249 0
M  V30 929 O 90.9941 0.620818 1.85592 0
M  V30 930 C 91.2931 3.57391 0.0249813 0
M  V30 931 C 90.9591 4.32583 -1.27211 0
M  V30 932 C 89.6211 4.52844 -1.62745 0
M  V30 933 C 91.9731 4.75687 -2.13005 0
M  V30 934 C 89.3011 5.13462 -2.83855 0
M  V30 935 C 91.6531 5.37644 -3.3335 0
M  V30 936 C 90.3171 5.5613 -3.69155 0
M  V30 937 H 89.5871 0.740407 -0.0296397 0
M  V30 938 H 92.2341 1.75321 -0.770374 0
M  V30 939 H 90.5391 3.83597 0.797537 0
M  V30 940 H 92.2361 3.98621 0.436184 0
M  V30 941 H 88.8261 4.17116 -0.985499 0
M  V30 942 H 93.0101 4.59782 -1.86855 0
M  V30 943 H 88.2661 5.25965 -3.11722 0
M  V30 944 H 92.4401 5.7 -4.00092 0
M  V30 945 H 90.0671 6.0287 -4.63089 0
M  V30 946 N 91.6422 0.330177 1.54103 0
M  V30 947 C 92.6052 -0.520144 2.2322 0
M  V30 948 C 93.6052 -1.03828 1.22786 0
M  V30 949 O 94.7952 -0.929652 1.4732 0
M  V30 950 C 91.9272 -1.72317 2.94142 0
M  V30 951 H 93.1202 0.0841605 2.99782 0
M  V30 952 H 90.6732 0.0813433 1.56088 0
M  V30 953 H 91.4082 -2.36653 2.21734 0
M  V30 954 H 91.1932 -1.35898 3.67796 0
M  V30 955 H 92.6832 -2.3266 3.46784 0
M  V30 956 N 93.1203 -1.57491 0.0584922 0
M  V30 957 C 94.3673 -1.92978 -0.613648 0
M  V30 958 C 94.6953 -0.937461 -1.70417 0
M  V30 959 O 93.9503 0.049078 -1.95638 0
M  V30 960 C 94.2493 -3.3513 -1.24188 0
M  V30 961 C 93.9153 -4.50037 -0.278826 0
M  V30 962 C 92.5773 -4.81198 -0.0138447 0
M  V30 963 C 94.9293 -5.19807 0.380777 0
M  V30 964 C 92.2573 -5.79473 0.918052 0
M  V30 965 C 94.6093 -6.19079 1.30091 0
M  V30 966 C 93.2733 -6.48665 1.57449 0
M  V30 967 H 92.5433 -0.706157 -0.22455 0
M  V30 968 H 95.1903 -1.91082 0.126533 0
M  V30 969 H 93.4953 -3.33429 -2.05749 0
M  V30 970 H 95.1923 -3.59871 -1.769 0
M  V30 971 H 91.7823 -4.25726 -0.495539 0
M  V30 972 H 95.9663 -4.95939 0.189158 0
M  V30 973 H 91.2223 -6.00727 1.1374 0
M  V30 974 H 95.3963 -6.7225 1.81804 0
M  V30 975 H 93.0233 -7.24628 2.29822 0
M  V30 976 N 94.5984 0.214957 -1.56127 0
M  V30 977 C 95.5314 1.29382 -1.87977 0
M  V30 978 C 96.5094 1.44897 -0.737807 0
M  V30 979 O 97.6934 1.60605 -0.986833 0
M  V30 980 C 94.8204 2.66325 -2.09258 0
M  V30 981 C 93.8664 2.67789 -3.31951 0
M  V30 982 S 94.6994 2.21198 -4.8768 0
M  V30 983 C 95.8554 3.60003 -5.12004 0
M  V30 984 H 96.0884 1.02173 -2.79192 0
M  V30 985 H 93.6214 0.417516 -1.48648 0
M  V30 986 H 95.5794 3.45162 -2.22201 0
M  V30 987 H 94.2404 2.90755 -1.18829 0
M  V30 988 H 93.4334 3.68436 -3.43906 0
M  V30 989 H 93.0354 1.9702 -3.17898 0
M  V30 990 H 95.3274 4.55739 -5.01307 0
M  V30 991 H 96.2704 3.52959 -6.13861 0
M  V30 992 H 96.6784 3.53996 -4.39712 0
M  V30 993 N 96.0765 1.50051 0.48192 0
M  V30 994 C 97.0085 1.64263 1.59844 0
M  V30 995 C 98.0215 0.52451 1.54119 0
M  V30 996 O 99.2105 0.797293 1.59704 0
M  V30 997 C 96.3105 1.60102 2.98698 0
M  V30 998 C 95.4835 2.87767 3.29407 0
M  V30 999 C 94.5425 2.76397 4.47762 0
M  V30 1000 O 93.5685 3.50348 4.48603 0
M  V30 1001 N 94.7705 1.89222 5.48794 0
M  V30 1002 H 97.5355 2.60566 1.48073 0
M  V30 1003 H 95.0965 1.47379 0.670149 0
M  V30 1004 H 97.0885 1.50123 3.75826 0
M  V30 1005 H 95.6585 0.715798 3.04294 0
M  V30 1006 H 94.8785 3.11954 2.40994 0
M  V30 1007 H 96.1665 3.72365 3.4673 0
M  V30 1008 H 95.5645 1.28434 5.50928 0
M  V30 1009 H 94.1215 1.85154 6.24949 0
M  V30 1010 N 97.5546 -0.734337 1.39446 0
M  V30 1011 C 98.4646 -1.87879 1.40495 0
M  V30 1012 C 99.4806 -1.714 0.299672 0
M  V30 1013 O 100.657 -1.93991 0.541249 0
M  V30 1014 C 97.7216 -3.23477 1.24754 0
M  V30 1015 C 96.7826 -3.52344 2.45259 0
M  V30 1016 C 96.0156 -4.81473 2.30259 0
M  V30 1017 O 96.2386 -5.55237 1.30643 0
M  V30 1018 O 95.1726 -5.10254 3.19256 0
M  V30 1019 H 98.9986 -1.89949 2.36966 0
M  V30 1020 H 96.5836 -0.882243 1.20569 0
M  V30 1021 H 98.4656 -4.04509 1.18111 0
M  V30 1022 H 97.1406 -3.22176 0.313781 0
M  V30 1023 H 96.0476 -2.71396 2.57478 0
M  V30 1024 H 97.3806 -3.58426 3.37331 0
M  V30 1025 N 99.0327 -1.24633 -0.964593 0
M  V30 1026 C 99.9647 -0.999302 -2.06268 0
M  V30 1027 C 100.978 0.0323226 -1.62768 0
M  V30 1028 O 102.167 -0.205079 -1.77318 0
M  V30 1029 C 99.2667 -0.486816 -3.35385 0
M  V30 1030 C 98.4397 -1.5823 -4.07777 0
M  V30 1031 C 97.4987 -1.07191 -5.15166 0
M  V30 1032 O 96.5247 -1.76426 -5.41168 0
M  V30 1033 N 97.7267 0.0920373 -5.80427 0
M  V30 1034 H 100.492 -1.94477 -2.28033 0
M  V30 1035 H 98.0527 -1.15704 -1.13244 0
M  V30 1036 H 100.045 -0.130066 -4.04491 0
M  V30 1037 H 98.6147 0.364459 -3.10468 0
M  V30 1038 H 97.8347 -2.11109 -3.32906 0
M  V30 1039 H 99.1227 -2.31854 -4.52903 0
M  V30 1040 H 98.5207 0.670784 -5.61709 0
M  V30 1041 H 97.0777 0.389905 -6.50633 0
M  V30 1042 N 100.511 1.16574 -1.06058 0
M  V30 1043 C 101.927 1.3904 -0.783585 0
M  V30 1044 C 102.127 1.91784 0.618145 0
M  V30 1045 O 101.183 2.11511 1.37911 0
M  V30 1046 C 102.496 2.37329 -1.84649 0
M  V30 1047 C 104.044 2.51018 -1.86973 0
M  V30 1048 C 104.519 3.52588 -2.92311 0
M  V30 1049 N 106.01 3.60113 -2.91329 0
M  V30 1050 C 106.745 4.38486 -3.69482 0
M  V30 1051 N 106.241 5.20302 -4.57447 0
M  V30 1052 N 108.034 4.33446 -3.57885 0
M  V30 1053 H 100.185 0.806725 -1.96483 0
M  V30 1054 H 102.448 0.417117 -0.851303 0
M  V30 1055 H 102.154 2.05663 -2.85299 0
M  V30 1056 H 102.028 3.36946 -1.6955 0
M  V30 1057 H 104.415 2.81989 -0.869827 0
M  V30 1058 H 104.496 1.51445 -2.0615 0
M  V30 1059 H 104.14 3.22354 -3.92492 0
M  V30 1060 H 104.07 4.51886 -2.70383 0
M  V30 1061 H 106.561 3.01707 -2.27555 0
M  V30 1062 H 106.874 5.77311 -5.13743 0
M  V30 1063 H 105.219 5.19653 -4.61503 0
M  V30 1064 H 108.41 3.68586 -2.88551 0
M  V30 1065 H 108.583 4.94279 -4.19037 0
M  V30 1066 N 101.989 0.842826 1.3317 0
M  V30 1067 C 103.405 0.531128 1.50503 0
M  V30 1068 C 103.605 -0.940734 1.78192 0
M  V30 1069 O 102.661 -1.72436 1.84451 0
M  V30 1070 C 103.974 1.40789 2.65705 0
M  V30 1071 C 105.522 1.40708 2.79589 0
M  V30 1072 C 105.997 2.26878 3.97857 0
M  V30 1073 N 107.488 2.24609 4.05099 0
M  V30 1074 C 108.223 2.88019 4.95815 0
M  V30 1075 N 107.719 3.60496 5.9162 0
M  V30 1076 N 109.512 2.77469 4.88843 0
M  V30 1077 H 101.663 1.79557 1.1346 0
M  V30 1078 H 103.926 0.766267 0.558156 0
M  V30 1079 H 103.632 2.454 2.51936 0
M  V30 1080 H 103.506 1.08677 3.61205 0
M  V30 1081 H 105.893 0.368668 2.92788 0
M  V30 1082 H 105.974 1.76829 1.84838 0
M  V30 1083 H 105.618 3.3078 3.85418 0
M  V30 1084 H 105.548 1.88096 4.91861 0
M  V30 1085 H 108.039 1.71906 3.36536 0
M  V30 1086 H 108.352 4.06076 6.57512 0
M  V30 1087 H 106.697 3.64604 5.91683 0
M  V30 1088 H 109.888 2.20406 4.12963 0
M  V30 1089 H 110.061 3.2717 5.59342 0
M  V30 1090 N 103.467 -1.45747 0.599634 0
M  V30 1091 C 104.417 -2.27538 -0.145107 0
M  V30 1092 C 105.401 -1.3686 -0.846055 0
M  V30 1093 O 106.593 -1.6091 -0.737357 0
M  V30 1094 C 103.722 -3.23569 -1.14708 0
M  V30 1095 C 102.808 -4.21734 -0.447383 0
M  V30 1096 N 103.199 -5.03257 0.506535 0
M  V30 1097 C 101.497 -4.40536 -0.695966 0
M  V30 1098 C 102.198 -5.74426 0.917068 0
M  V30 1099 N 101.174 -5.42966 0.26253 0
M  V30 1100 H 104.976 -2.87965 0.587672 0
M  V30 1101 H 102.49 -1.56803 0.422697 0
M  V30 1102 H 104.487 -3.8089 -1.69495 0
M  V30 1103 H 103.147 -2.64702 -1.8805 0
M  V30 1104 H 104.158 -5.10319 0.882899 0
M  V30 1105 H 100.835 -3.92802 -1.41467 0
M  V30 1106 H 102.225 -6.4995 1.70338 0
M  V30 1107 N 104.945 -0.338344 -1.53925 0
M  V30 1108 C 106.17 0.263987 -2.05713 0
M  V30 1109 C 106.595 1.43847 -1.21201 0
M  V30 1110 O 105.953 1.79904 -0.224535 0
M  V30 1111 C 106.001 0.662 -3.54471 0
M  V30 1112 O 105.105 1.76265 -3.72833 0
M  V30 1113 H 104.446 0.0448722 -0.662482 0
M  V30 1114 H 106.976 -0.491048 -1.9862 0
M  V30 1115 H 106.986 0.940594 -3.9701 0
M  V30 1116 H 105.661 -0.196937 -4.15433 0
M  V30 1117 H 104.238 1.48173 -3.42198 0
M  V30 1118 N 106.423 1.57458 -0.0668435 0
M  V30 1119 C 107.672 1.92477 0.602947 0
M  V30 1120 C 107.985 0.948419 1.71068 0
M  V30 1121 O 109.191 1.19124 2.43971 0
M  V30 1122 C 107.647 3.41903 1.12383 0
M  V30 1123 C 107.255 4.47975 0.04737 0
M  V30 1124 C 108.999 3.85931 1.76797 0
M  V30 1125 C 106.906 5.88529 0.582022 0
M  V30 1126 H 105.836 0.718387 0.22899 0
M  V30 1127 H 108.487 1.82978 -0.138276 0
M  V30 1128 H 106.869 3.46459 1.91787 0
M  V30 1129 H 108.043 4.55029 -0.726978 0
M  V30 1130 H 106.358 4.13384 -0.500243 0
M  V30 1131 H 108.955 4.88322 2.17821 0
M  V30 1132 H 109.298 3.23029 2.62599 0
M  V30 1133 H 109.831 3.83958 1.04024 0
M  V30 1134 H 106.57 6.55065 -0.238721 0
M  V30 1135 H 106.09 5.85004 1.324 0
M  V30 1136 H 107.769 6.38258 1.05999 0
M  V30 1137 N 107.901 -0.206675 1.56239 0
M  V30 1138 C 108.834 -1.28383 1.88661 0
M  V30 1139 C 109.812 -1.44504 0.745481 0
M  V30 1140 O 110.996 -1.60079 0.995336 0
M  V30 1141 C 108.123 -2.65211 2.10667 0
M  V30 1142 C 107.169 -2.66025 3.33366 0
M  V30 1143 S 108.002 -2.18609 4.88846 0
M  V30 1144 C 109.158 -3.57283 5.13906 0
M  V30 1145 H 109.391 -1.00691 2.7973 0
M  V30 1146 H 106.924 -0.409627 1.48867 0
M  V30 1147 H 108.882 -3.43979 2.24029 0
M  V30 1148 H 107.543 -2.90121 1.20369 0
M  V30 1149 H 106.736 -3.66607 3.45855 0
M  V30 1150 H 106.338 -1.95331 3.18938 0
M  V30 1151 H 108.63 -4.53074 5.03717 0
M  V30 1152 H 109.573 -3.49699 6.15724 0
M  V30 1153 H 109.981 -3.51659 4.41583 0
M  V30 1154 N 109.379 -1.50304 -0.473955 0
M  V30 1155 C 110.626 -1.6115 -1.22625 0
M  V30 1156 C 110.954 -0.310517 -1.92005 0
M  V30 1157 O 110.209 0.703419 -1.82621 0
M  V30 1158 C 110.508 -2.73938 -2.29549 0
M  V30 1159 C 110.174 -4.14519 -1.7744 0
M  V30 1160 C 108.836 -4.5277 -1.62949 0
M  V30 1161 C 111.188 -5.02392 -1.3875 0
M  V30 1162 C 108.516 -5.76639 -1.08187 0
M  V30 1163 C 110.868 -6.26805 -0.854309 0
M  V30 1164 C 109.532 -6.63861 -0.696011 0
M  V30 1165 H 108.802 -0.589691 -0.448715 0
M  V30 1166 H 111.449 -1.84228 -0.522705 0
M  V30 1167 H 109.754 -2.44937 -3.05799 0
M  V30 1168 H 111.451 -2.79534 -2.87509 0
M  V30 1169 H 108.041 -3.8434 -1.89685 0
M  V30 1170 H 112.225 -4.73474 -1.4878 0
M  V30 1171 H 107.481 -6.04027 -0.946666 0
M  V30 1172 H 111.655 -6.94258 -0.545843 0
M  V30 1173 H 109.282 -7.59722 -0.26952 0
M  V30 1174 N 110.857 0.726932 -1.39834 0
M  V30 1175 C 112.105 1.4837 -1.37225 0
M  V30 1176 C 112.426 1.94979 0.0284857 0
M  V30 1177 O 111.696 1.69555 0.981213 0
M  V30 1178 H 110.276 0.55043 -0.505011 0
M  V30 1179 H 112.938 0.862468 -1.74778 0
M  V30 1180 H 112.034 2.36198 -2.04003 0
M  V30 1181 N 112.336 1.25143 0.95797 0
M  V30 1182 C 113.286 1.01924 2.0395 0
M  V30 1183 C 114.27 -0.0427175 1.60843 0
M  V30 1184 O 115.462 0.17221 1.7616 0
M  V30 1185 C 112.591 0.636373 3.3735 0
M  V30 1186 C 111.677 1.73492 3.8699 0
M  V30 1187 N 112.068 2.96945 4.0946 0
M  V30 1188 C 110.366 1.61467 4.15746 0
M  V30 1189 C 111.067 3.68228 4.50315 0
M  V30 1190 N 110.043 2.95833 4.56053 0
M  V30 1191 H 113.845 1.95653 2.19311 0
M  V30 1192 H 111.359 1.15413 1.14253 0
M  V30 1193 H 113.356 0.451233 4.14451 0
M  V30 1194 H 112.016 -0.293621 3.2337 0
M  V30 1195 H 113.027 3.33025 3.96629 0
M  V30 1196 H 109.704 0.753394 4.10646 0
M  V30 1197 H 111.094 4.74178 4.76031 0
M  V30 1198 N 113.814 -1.1601 1.06675 0
M  V30 1199 C 114.746 -2.20115 0.638921 0
M  V30 1200 C 115.759 -1.59916 -0.305057 0
M  V30 1201 O 116.948 -1.78245 -0.0954446 0
M  V30 1202 C 114.048 -3.38798 -0.0830083 0
M  V30 1203 C 113.221 -4.2855 0.875426 0
M  V30 1204 C 112.28 -5.25849 0.192042 0
M  V30 1205 O 111.306 -5.63102 0.830921 0
M  V30 1206 N 112.508 -5.70648 -1.06493 0
M  V30 1207 H 115.273 -2.57439 1.53444 0
M  V30 1208 H 112.834 -1.31057 0.950557 0
M  V30 1209 H 114.826 -4.00936 -0.550685 0
M  V30 1210 H 113.396 -2.99947 -0.880386 0
M  V30 1211 H 112.616 -3.63617 1.52238 0
M  V30 1212 H 113.904 -4.85393 1.52548 0
M  V30 1213 H 113.302 -5.42482 -1.60405 0
M  V30 1214 H 111.859 -6.34859 -1.47641 0
M  V30 1215 N 115.292 -0.849877 -1.32721 0
M  V30 1216 C 116.242 -0.262892 -2.26479 0
M  V30 1217 C 117.226 0.588493 -1.49752 0
M  V30 1218 O 118.418 0.438659 -1.71478 0
M  V30 1219 C 115.547 0.551818 -3.38836 0
M  V30 1220 C 114.633 -0.311689 -4.22953 0
M  V30 1221 N 115.024 -1.39567 -4.86163 0
M  V30 1222 C 113.322 -0.100611 -4.45887 0
M  V30 1223 C 114.023 -1.92651 -5.48872 0
M  V30 1224 N 112.999 -1.22637 -5.29586 0
M  V30 1225 H 116.801 -1.09166 -2.72873 0
M  V30 1226 H 114.315 -0.695486 -1.46754 0
M  V30 1227 H 116.312 0.988713 -4.05006 0
M  V30 1228 H 114.972 1.37844 -2.93988 0
M  V30 1229 H 115.983 -1.77859 -4.86402 0
M  V30 1230 H 112.66 0.691681 -4.11731 0
M  V30 1231 H 114.05 -2.83487 -6.09167 0
M  V30 1232 N 116.77 1.45427 -0.607355 0
M  V30 1233 C 117.68 2.34325 0.113463 0
M  V30 1234 C 118.696 1.51226 0.860617 0
M  V30 1235 O 119.872 1.84029 0.818255 0
M  V30 1236 C 116.937 3.28839 1.09844 0
M  V30 1237 C 115.998 4.27844 0.353271 0
M  V30 1238 C 115.231 5.17842 1.29133 0
M  V30 1239 O 115.454 5.11264 2.52913 0
M  V30 1240 O 114.388 5.96713 0.788523 0
M  V30 1241 H 118.214 2.97364 -0.617094 0
M  V30 1242 H 115.799 1.44807 -0.367619 0
M  V30 1243 H 117.681 3.8708 1.66575 0
M  V30 1244 H 116.356 2.68365 1.81003 0
M  V30 1245 H 115.263 3.7322 -0.256494 0
M  V30 1246 H 116.596 4.91173 -0.317822 0
M  V30 1247 N 118.248 0.346503 1.53744 0
M  V30 1248 C 119.476 -0.25041 2.05379 0
M  V30 1249 C 119.891 -1.43979 1.22129 0
M  V30 1250 O 119.248 -1.80677 0.257321 0
M  V30 1251 C 119.299 -0.662575 3.55376 0
M  V30 1252 O 119.02 0.479515 4.35468 0
M  V30 1253 C 120.521 -1.31989 4.23195 0
M  V30 1254 H 117.741 -0.0478198 0.669294 0
M  V30 1255 H 120.285 0.499346 1.9831 0
M  V30 1256 H 118.44 -1.36227 3.62658 0
M  V30 1257 H 118.854 0.15037 5.24284 0
M  V30 1258 H 120.328 -1.55902 5.29527 0
M  V30 1259 H 120.805 -2.27436 3.75725 0
M  V30 1260 H 121.411 -0.662154 4.20114 0
M  V30 1261 N 119.726 -1.57421 0.075193 0
M  V30 1262 C 120.954 -1.97946 -0.602076 0
M  V30 1263 C 121.369 -0.953674 -1.62943 0
M  V30 1264 O 120.726 0.0592551 -1.82404 0
M  V30 1265 C 120.777 -3.38546 -1.26762 0
M  V30 1266 O 120.498 -4.37195 -0.281376 0
M  V30 1267 C 121.999 -3.93966 -2.03239 0
M  V30 1268 H 119.219 -0.650918 -0.162931 0
M  V30 1269 H 121.763 -2.03959 0.148601 0
M  V30 1270 H 119.918 -3.33609 -1.96936 0
M  V30 1271 H 120.332 -5.18975 -0.759267 0
M  V30 1272 H 121.806 -4.94555 -2.45193 0
M  V30 1273 H 122.283 -3.30693 -2.8903 0
M  V30 1274 H 122.889 -4.02315 -1.37924 0
M  V30 1275 N 121.204 0.198386 -1.56346 0
M  V30 1276 C 122.136 1.26987 -1.90806 0
M  V30 1277 C 123.149 1.41877 -0.798419 0
M  V30 1278 O 124.338 1.42362 -1.07682 0
M  V30 1279 C 121.438 2.64246 -2.12196 0
M  V30 1280 C 120.611 2.71007 -3.43328 0
M  V30 1281 C 119.67 3.89439 -3.5387 0
M  V30 1282 O 118.696 3.76695 -4.26719 0
M  V30 1283 N 119.898 5.04752 -2.86715 0
M  V30 1284 H 122.663 0.977433 -2.83313 0
M  V30 1285 H 120.224 0.388322 -1.57174 0
M  V30 1286 H 122.216 3.41896 -2.1654 0
M  V30 1287 H 120.786 2.85992 -1.26204 0
M  V30 1288 H 120.006 1.79657 -3.50881 0
M  V30 1289 H 121.294 2.72512 -4.29668 0
M  V30 1290 H 120.692 5.18004 -2.2735 0
M  V30 1291 H 119.249 5.8036 -2.96691 0
M  V30 1292 N 122.682 1.50554 0.465978 0
M  V30 1293 C 123.93 1.61479 1.21528 0
M  V30 1294 C 124.251 0.319596 1.92363 0
M  V30 1295 O 123.521 -0.663194 1.84333 0
M  V30 1296 H 122.101 0.595055 0.451573 0
M  V30 1297 H 124.763 1.87355 0.53704 0
M  V30 1298 H 123.859 2.42846 1.96042 0
M  V30 1299 N 124.16 -0.719506 1.40217 0
M  V30 1300 C 125.09 -1.8465 1.42922 0
M  V30 1301 C 126.071 -1.67599 0.29062 0
M  V30 1302 O 127.256 -1.87688 0.498677 0
M  V30 1303 C 124.386 -3.22565 1.28722 0
M  V30 1304 C 123.34 -3.54281 2.40144 0
M  V30 1305 C 122.666 -4.91298 2.11023 0
M  V30 1306 C 123.966 -3.55676 3.82481 0
M  V30 1307 H 125.66 -1.82644 2.37237 0
M  V30 1308 H 123.206 -0.877305 1.1419 0
M  V30 1309 H 125.159 -4.01095 1.29232 0
M  V30 1310 H 123.883 -3.25137 0.308811 0
M  V30 1311 H 122.542 -2.78088 2.38877 0
M  V30 1312 H 122.19 -4.90468 1.11582 0
M  V30 1313 H 121.89 -5.13485 2.8567 0
M  V30 1314 H 123.414 -5.72166 2.13209 0
M  V30 1315 H 124.828 -4.24254 3.85592 0
M  V30 1316 H 123.225 -3.89388 4.56614 0
M  V30 1317 H 124.295 -2.55144 4.12346 0
M  V30 1318 N 125.638 -1.25649 -0.95132 0
M  V30 1319 C 126.866 -1.13343 -1.73092 0
M  V30 1320 C 127.281 0.312434 -1.86197 0
M  V30 1321 O 126.638 1.21465 -1.36207 0
M  V30 1322 C 126.689 -1.78602 -3.14299 0
M  V30 1323 O 126.41 -3.17537 -3.01831 0
M  V30 1324 C 127.911 -1.72119 -4.08522 0
M  V30 1325 H 125.131 -0.395181 -0.542285 0
M  V30 1326 H 127.675 -1.66076 -1.19328 0
M  V30 1327 H 125.83 -1.29832 -3.64996 0
M  V30 1328 H 126.244 -3.49676 -3.90931 0
M  V30 1329 H 127.718 -2.22435 -5.052 0
M  V30 1330 H 128.195 -0.685635 -4.33815 0
M  V30 1331 H 128.801 -2.20393 -3.63741 0
M  V30 1332 N 127.117 1.15442 -1.07289 0
M  V30 1333 C 128.366 1.85557 -0.790669 0
M  V30 1334 C 128.679 1.83186 0.685739 0
M  V30 1335 O 129.885 2.48977 1.0827 0
M  V30 1336 C 128.341 3.33038 -1.36433 0
M  V30 1337 C 127.949 3.43856 -2.8717 0
M  V30 1338 C 129.693 4.0834 -1.1601 0
M  V30 1339 C 127.6 4.85482 -3.3773 0
M  V30 1340 H 126.53 0.695122 -0.292098 0
M  V30 1341 H 129.181 1.30219 -1.29287 0
M  V30 1342 H 127.563 3.88043 -0.789864 0
M  V30 1343 H 128.737 2.98961 -3.50655 0
M  V30 1344 H 127.052 2.81998 -3.06376 0
M  V30 1345 H 129.649 5.12859 -1.51262 0
M  V30 1346 H 129.992 4.16182 -0.0991007 0
M  V30 1347 H 130.525 3.59603 -1.70089 0
M  V30 1348 H 127.264 4.82823 -4.43353 0
M  V30 1349 H 126.784 5.30961 -2.78999 0
M  V30 1350 H 128.463 5.54335 -3.33648 0
M  V30 1351 N 128.595 0.856903 1.32268 0
M  V30 1352 C 129.823 0.475439 2.01363 0
M  V30 1353 C 130.238 -0.928486 1.64392 0
M  V30 1354 O 129.595 -1.60624 0.866387 0
M  V30 1355 C 129.646 0.607545 3.56358 0
M  V30 1356 O 129.367 1.95617 3.92002 0
M  V30 1357 C 130.868 0.225382 4.42727 0
M  V30 1358 H 128.088 0.186636 0.644521 0
M  V30 1359 H 130.632 1.15446 1.68797 0
M  V30 1360 H 128.787 -0.0237719 3.87393 0
M  V30 1361 H 129.201 1.95455 4.86721 0
M  V30 1362 H 130.675 0.368813 5.50767 0
M  V30 1363 H 131.152 -0.834369 4.31202 0
M  V30 1364 H 131.758 0.831864 4.17085 0
M  V30 1365 N 130.073 -1.45103 0.615059 0
M  V30 1366 C 131.489 -1.57137 0.279322 0
M  V30 1367 C 131.689 -1.60523 -1.21797 0
M  V30 1368 O 130.745 -1.53956 -2.00134 0
M  V30 1369 C 132.058 -2.85062 0.957083 0
M  V30 1370 C 133.606 -2.98749 0.933706 0
M  V30 1371 C 134.081 -4.29455 1.59162 0
M  V30 1372 N 135.572 -4.36231 1.55746 0
M  V30 1373 C 136.307 -5.36051 2.0356 0
M  V30 1374 N 135.803 -6.42367 2.59494 0
M  V30 1375 N 137.596 -5.27456 1.94284 0
M  V30 1376 H 129.747 -1.41148 1.58717 0
M  V30 1377 H 132.01 -0.675331 0.665306 0
M  V30 1378 H 131.716 -2.88488 2.01166 0
M  V30 1379 H 131.59 -3.7407 0.48494 0
M  V30 1380 H 133.977 -2.94886 -0.112347 0
M  V30 1381 H 134.058 -2.11132 1.44419 0
M  V30 1382 H 133.702 -4.34077 2.63704 0
M  V30 1383 H 133.632 -5.15901 1.0561 0
M  V30 1384 H 136.123 -3.60011 1.14893 0
M  V30 1385 H 136.436 -7.14793 2.93752 0
M  V30 1386 H 134.781 -6.43097 2.63537 0
M  V30 1387 H 137.972 -4.43308 1.5032 0
M  V30 1388 H 138.145 -6.05099 2.3186 0
M  V30 1389 N 131.551 -0.354651 -1.53558 0
M  V30 1390 C 132.779 0.239515 -2.05509 0
M  V30 1391 C 133.194 1.4333 -1.2289 0
M  V30 1392 O 132.551 1.80538 -0.266899 0
M  V30 1393 C 132.602 0.643719 -3.55723 0
M  V30 1394 O 132.323 -0.502602 -4.35207 0
M  V30 1395 C 133.824 1.29743 -4.23889 0
M  V30 1396 H 131.044 0.0442697 -0.669538 0
M  V30 1397 H 133.588 -0.509856 -1.98042 0
M  V30 1398 H 131.743 1.34302 -3.63376 0
M  V30 1399 H 132.157 -0.178172 -5.24197 0
M  V30 1400 H 133.631 1.53091 -5.30346 0
M  V30 1401 H 134.108 2.25441 -3.76926 0
M  V30 1402 H 134.714 0.639865 -4.20459 0
M  V30 1403 N 133.029 1.57378 -0.0835403 0
M  V30 1404 C 134.306 1.85363 0.624507 0
M  V30 1405 C 134.686 0.978239 1.87066 0
M  V30 1406 O 134.034 0.0475908 2.2845 0
M  V30 1407 C 134.244 3.35795 0.950947 0
M  V30 1408 C 135.592 4.03581 1.31939 0
M  V30 1409 O 136.616 3.40609 1.04232 0
M  V30 1410 O 135.475 5.14672 1.83779 0
M  V30 1411 H 132.569 0.766162 0.311329 0
M  V30 1412 H 135.115 1.69307 -0.115362 0
M  V30 1413 H 133.887 3.91244 0.0663899 0
M  V30 1414 H 133.51 3.57154 1.74719 0
M  V30 1415 N 134.507 -0.190092 1.56449 0
M  V30 1416 C 135.755 -0.907908 1.80559 0
M  V30 1417 C 136.076 -1.83583 0.657438 0
M  V30 1418 O 135.346 -1.93203 -0.323924 0
M  V30 1419 H 133.926 -0.338247 0.666032 0
M  V30 1420 H 136.588 -0.194403 1.93928 0
M  V30 1421 H 135.684 -1.49604 2.73907 0
M  V30 1422 N 135.985 -1.50799 -0.457987 0
M  V30 1423 C 137.213 -1.66218 -1.23203 0
M  V30 1424 C 137.628 -0.350894 -1.85511 0
M  V30 1425 O 136.985 0.668546 -1.69814 0
M  V30 1426 C 137.036 -2.76291 -2.33121 0
M  V30 1427 O 136.757 -4.02338 -1.73366 0
M  V30 1428 C 138.258 -3.028 -3.2377 0
M  V30 1429 H 135.478 -0.558361 -0.372121 0
M  V30 1430 H 138.022 -1.97099 -0.545179 0
M  V30 1431 H 136.177 -2.48068 -2.97558 0
M  V30 1432 H 136.591 -4.63312 -2.4585 0
M  V30 1433 H 138.065 -3.8345 -3.97077 0
M  V30 1434 H 138.542 -2.14385 -3.83322 0
M  V30 1435 H 139.148 -3.32604 -2.65056 0
M  V30 1436 N 137.463 0.71206 -1.40597 0
M  V30 1437 C 138.395 1.83704 -1.37061 0
M  V30 1438 C 139.408 1.60453 -0.275426 0
M  V30 1439 O 140.597 1.70262 -0.53602 0
M  V30 1440 C 137.697 3.20172 -1.11099 0
M  V30 1441 C 136.87 3.7059 -2.3234 0
M  V30 1442 C 135.929 4.85681 -2.02485 0
M  V30 1443 O 134.955 4.9815 -2.75382 0
M  V30 1444 N 136.157 5.71735 -1.00497 0
M  V30 1445 H 138.922 1.87235 -2.34016 0
M  V30 1446 H 136.483 0.893739 -1.34996 0
M  V30 1447 H 138.475 3.94768 -0.891064 0
M  V30 1448 H 137.045 3.11767 -0.227989 0
M  V30 1449 H 136.265 2.87085 -2.7014 0
M  V30 1450 H 137.553 4.01011 -3.13157 0
M  V30 1451 H 136.951 5.64275 -0.401298 0
M  V30 1452 H 135.508 6.463 -0.844942 0
M  V30 1453 N 138.941 1.26152 0.944643 0
M  V30 1454 C 140.166 1.14363 1.7302 0
M  V30 1455 C 140.591 -0.29772 1.85729 0
M  V30 1456 O 139.949 -1.2157 1.34501 0
M  V30 1457 C 139.997 1.81378 3.11664 0
M  V30 1458 O 139.101 1.10022 3.97453 0
M  V30 1459 H 138.442 0.398694 0.53098 0
M  V30 1460 H 140.972 1.66906 1.18337 0
M  V30 1461 H 140.982 1.88064 3.62072 0
M  V30 1462 H 139.657 2.86237 3.0173 0
M  V30 1463 H 138.234 1.11287 3.55907 0
M  V30 1464 N 140.419 -1.14872 1.07899 0
M  V30 1465 C 141.696 -1.81928 0.71845 0
M  V30 1466 C 142.076 -1.95417 -0.798455 0
M  V30 1467 O 141.424 -1.50997 -1.715 0
M  V30 1468 C 141.634 -3.17937 1.43935 0
M  V30 1469 C 142.982 -3.93501 1.59506 0
M  V30 1470 O 144.006 -3.27509 1.40058 0
M  V30 1471 O 142.865 -5.1183 1.91551 0
M  V30 1472 H 139.959 -0.78628 0.256305 0
M  V30 1473 H 142.505 -1.21934 1.18026 0
M  V30 1474 H 141.277 -3.0325 2.47295 0
M  V30 1475 H 140.9 -3.85619 0.968687 0
M  V30 1476 N 141.898 -0.863906 -1.31812 0
M  V30 1477 C 143.126 -0.486111 -2.01108 0
M  V30 1478 C 143.541 0.919755 -1.64882 0
M  V30 1479 O 142.898 1.60162 -0.874893 0
M  V30 1480 C 142.949 -0.626435 -3.56031 0
M  V30 1481 O 142.67 -1.97693 -3.90959 0
M  V30 1482 C 144.171 -0.248857 -4.42601 0
M  V30 1483 H 141.391 -0.190052 -0.643523 0
M  V30 1484 H 143.935 -1.1634 -1.68182 0
M  V30 1485 H 142.09 0.00322717 -3.874 0
M  V30 1486 H 142.504 -1.98034 -4.85678 0
M  V30 1487 H 143.978 -0.398016 -5.50563 0
M  V30 1488 H 144.455 0.811489 -4.31638 0
M  V30 1489 H 145.061 -0.853971 -4.16638 0
M  V30 1490 N 143.376 1.44774 -0.622745 0
M  V30 1491 C 144.623 2.02121 -0.1239 0
M  V30 1492 C 144.951 1.48915 1.25118 0
M  V30 1493 O 144.206 0.660045 1.84233 0
M  V30 1494 C 144.505 3.57364 -0.0508323 0
M  V30 1495 C 144.171 4.29787 -1.36358 0
M  V30 1496 C 142.833 4.4929 -1.72314 0
M  V30 1497 C 145.185 4.71062 -2.23048 0
M  V30 1498 C 142.513 5.07325 -2.94682 0
M  V30 1499 C 144.865 5.30452 -3.44679 0
M  V30 1500 C 143.529 5.48175 -3.80868 0
M  V30 1501 H 142.799 0.739612 -0.0453381 0
M  V30 1502 H 145.446 1.73648 -0.807389 0
M  V30 1503 H 143.751 3.85202 0.715991 0
M  V30 1504 H 145.448 3.99456 0.351533 0
M  V30 1505 H 142.038 4.14932 -1.07375 0
M  V30 1506 H 146.222 4.55715 -1.96565 0
M  V30 1507 H 141.478 5.19235 -3.22809 0
M  V30 1508 H 145.652 5.61385 -4.12092 0
M  V30 1509 H 143.279 5.92912 -4.75773 0
M  V30 1510 N 144.854 0.36279 1.53368 0
M  V30 1511 C 145.802 -0.500155 2.27159 0
M  V30 1512 C 146.796 -1.08575 1.3003 0
M  V30 1513 O 148.002 -1.02927 1.47668 0
M  V30 1514 H 144.377 -0.180009 0.730138 0
M  V30 1515 H 146.348 0.14401 2.98052 0
M  V30 1516 C 145.097 -1.62937 3.07159 0
M  V30 1517 H 144.42 -1.18806 3.8174 0
M  V30 1518 H 145.86 -2.20795 3.61975 0
M  V30 1519 C 144.319 -2.57007 2.17829 0
M  V30 1520 O 144.849 -3.59752 1.78721 0
M  V30 1521 N 143.055 -2.26131 1.82518 0
M  V30 1522 H 142.602 -1.42616 2.14519 0
M  V30 1523 H 142.56 -2.89327 1.23034 0
M  V30 1524 N 146.332 -1.57332 0.0918853 0
M  V30 1525 C 147.295 -2.12708 -0.85369 0
M  V30 1526 C 148.295 -1.05561 -1.213 0
M  V30 1527 O 149.485 -1.31461 -1.14296 0
M  V30 1528 C 146.617 -2.64503 -2.15061 0
M  V30 1529 H 147.81 -2.97573 -0.3729 0
M  V30 1530 H 145.363 -1.55509 -0.157072 0
M  V30 1531 H 146.098 -1.83149 -2.67632 0
M  V30 1532 H 145.883 -3.4284 -1.90272 0
M  V30 1533 H 147.373 -3.07351 -2.82711 0
M  V30 1534 N 147.81 0.181792 -1.56548 0
M  V30 1535 C 149.056 0.901431 -1.81665 0
M  V30 1536 C 149.389 1.82347 -0.668075 0
M  V30 1537 O 148.664 1.91669 0.330615 0
M  V30 1538 C 148.947 1.70618 -3.17115 0
M  V30 1539 C 148.8 0.807964 -4.42484 0
M  V30 1540 C 150.119 2.67605 -3.49393 0
M  V30 1541 H 147.238 0.32627 -0.660846 0
M  V30 1542 H 149.88 0.168134 -1.89255 0
M  V30 1543 H 148.03 2.33133 -3.10775 0
M  V30 1544 H 149.702 0.19649 -4.60881 0
M  V30 1545 H 147.945 0.115411 -4.33646 0
M  V30 1546 H 148.616 1.40632 -5.33785 0
M  V30 1547 H 151.092 2.15218 -3.56118 0
M  V30 1548 H 149.968 3.20985 -4.45264 0
M  V30 1549 H 150.229 3.47298 -2.73563 0
M  V30 1550 N 149.288 1.51039 0.449983 0
M  V30 1551 C 150.536 1.62759 1.19808 0
M  V30 1552 C 150.857 0.339981 1.92013 0
M  V30 1553 O 150.127 -0.643606 1.85026 0
M  V30 1554 H 148.707 0.599811 0.445237 0
M  V30 1555 H 151.369 1.87914 0.517138 0
M  V30 1556 H 150.465 2.44911 1.93455 0
M  V30 1557 N 150.766 -0.704594 1.40972 0
M  V30 1558 C 152.043 -1.45847 1.30338 0
M  V30 1559 C 152.423 -2.10973 -0.0732344 0
M  V30 1560 O 151.771 -2.00997 -1.08685 0
M  V30 1561 C 151.981 -2.48525 2.45023 0
M  V30 1562 C 153.329 -3.1404 2.8577 0
M  V30 1563 O 154.353 -2.58848 2.44696 0
M  V30 1564 O 153.212 -4.13981 3.56766 0
M  V30 1565 H 150.306 -0.649092 0.512454 0
M  V30 1566 H 152.852 -0.735836 1.52917 0
M  V30 1567 H 151.624 -1.98994 3.36923 0
M  V30 1568 H 151.247 -3.2831 2.24272 0
M  V30 1569 N 152.244 -1.26651 -0.937939 0
M  V30 1570 C 153.491 -1.12387 -1.6845 0
M  V30 1571 C 153.819 0.332208 -1.91642 0
M  V30 1572 O 153.074 1.2602 -1.49725 0
M  V30 1573 C 153.373 -1.84168 -3.06295 0
M  V30 1574 C 153.039 -3.34056 -3.02849 0
M  V30 1575 C 151.701 -3.74942 -3.01616 0
M  V30 1576 C 154.053 -4.29741 -2.9491 0
M  V30 1577 C 151.381 -5.09894 -2.90215 0
M  V30 1578 C 153.733 -5.64738 -2.8505 0
M  V30 1579 C 152.397 -6.0493 -2.82162 0
M  V30 1580 H 151.667 -0.411252 -0.616403 0
M  V30 1581 H 154.314 -1.57134 -1.09459 0
M  V30 1582 H 152.619 -1.319 -3.6893 0
M  V30 1583 H 154.316 -1.70569 -3.62915 0
M  V30 1584 H 150.906 -3.01534 -3.0459 0
M  V30 1585 H 155.09 -3.99133 -2.94969 0
M  V30 1586 H 150.346 -5.40194 -2.86358 0
M  V30 1587 H 154.52 -6.38561 -2.77872 0
M  V30 1588 H 152.147 -7.09457 -2.73084 0
M  V30 1589 N 153.722 1.14298 -1.08507 0
M  V30 1590 C 154.685 2.17607 -0.719711 0
M  V30 1591 C 155.685 1.58907 0.245997 0
M  V30 1592 O 156.875 1.74181 0.0254081 0
M  V30 1593 C 154.007 3.40842 -0.0627695 0
M  V30 1594 H 155.2 2.51443 -1.63452 0
M  V30 1595 H 152.753 1.28963 -0.88307 0
M  V30 1596 H 153.488 3.12587 0.863716 0
M  V30 1597 H 153.273 3.84713 -0.757504 0
M  V30 1598 H 154.763 4.17221 0.177786 0
M  V30 1599 N 155.201 0.870884 1.31352 0
M  V30 1600 C 156.164 0.332243 2.26779 0
M  V30 1601 C 157.164 -0.517302 1.52252 0
M  V30 1602 O 158.354 -0.326477 1.71113 0
M  V30 1603 C 155.486 -0.528066 3.36785 0
M  V30 1604 H 156.679 1.17469 2.75937 0
M  V30 1605 H 154.232 0.64655 1.423 0
M  V30 1606 H 154.967 -1.39167 2.92922 0
M  V30 1607 H 154.752 0.0802582 3.92018 0
M  V30 1608 H 156.242 -0.897179 4.07849 0
M  V30 1609 N 156.679 -1.44442 0.630414 0
M  V30 1610 C 157.925 -2.02351 0.134816 0
M  V30 1611 C 158.258 -1.4947 -1.23986 0
M  V30 1612 O 157.533 -0.678475 -1.82283 0
M  V30 1613 C 157.816 -3.59898 0.120707 0
M  V30 1614 C 157.669 -4.23063 1.52767 0
M  V30 1615 C 158.988 -4.36585 -0.555127 0
M  V30 1616 H 156.107 -0.73527 0.0504646 0
M  V30 1617 H 158.749 -1.72022 0.806751 0
M  V30 1618 H 156.899 -3.85868 -0.451477 0
M  V30 1619 H 158.571 -4.08202 2.14869 0
M  V30 1620 H 156.814 -3.80586 2.08175 0
M  V30 1621 H 157.485 -5.32071 1.46984 0
M  V30 1622 H 159.961 -4.16044 -0.0685429 0
M  V30 1623 H 158.837 -5.46294 -0.534185 0
M  V30 1624 H 159.098 -4.11138 -1.62535 0
M  V30 1625 N 158.157 -0.370918 -1.53173 0
M  V30 1626 C 159.387 0.217389 -2.05453 0
M  V30 1627 C 159.795 1.42568 -1.24382 0
M  V30 1628 O 159.138 1.81571 -0.278839 0
M  V30 1629 C 159.2 0.669827 -3.53205 0
M  V30 1630 C 158.864 -0.4225 -4.55043 0
M  V30 1631 C 159.861 -1.27407 -5.04047 0
M  V30 1632 C 157.546 -0.58427 -4.9889 0
M  V30 1633 C 159.54 -2.27271 -5.95505 0
M  V30 1634 C 157.227 -1.58627 -5.90153 0
M  V30 1635 C 158.225 -2.42892 -6.38351 0
M  V30 1636 O 157.913 -3.41382 -7.27814 0
M  V30 1637 H 157.645 0.0408171 -0.674767 0
M  V30 1638 H 160.199 -0.5292 -1.98466 0
M  V30 1639 H 158.429 1.4681 -3.57748 0
M  V30 1640 H 160.118 1.18173 -3.88317 0
M  V30 1641 H 160.884 -1.16031 -4.70916 0
M  V30 1642 H 156.763 0.061851 -4.60959 0
M  V30 1643 H 160.307 -2.93079 -6.33049 0
M  V30 1644 H 156.204 -1.70048 -6.22699 0
M  V30 1645 H 156.972 -3.37173 -7.45826 0
M  V30 1646 N 159.635 1.57281 -0.100228 0
M  V30 1647 C 160.883 1.94153 0.561157 0
M  V30 1648 C 161.204 0.983157 1.68401 0
M  V30 1649 O 160.474 0.0361132 1.95867 0
M  V30 1650 H 159.054 0.716791 0.210283 0
M  V30 1651 H 161.716 1.94202 -0.164765 0
M  V30 1652 H 160.812 2.96709 0.968008 0
M  V30 1653 N 161.113 -0.173488 1.56642 0
M  V30 1654 C 162.359 -0.887108 1.83035 0
M  V30 1655 C 162.714 -1.79965 0.680461 0
M  V30 1656 O 162.007 -1.88854 -0.323225 0
M  V30 1657 C 162.201 -1.72069 3.13252 0
M  V30 1658 C 162.03 -0.89035 4.40798 0
M  V30 1659 C 160.8 -0.566282 5.02117 0
M  V30 1660 C 162.998 -0.232921 5.13772 0
M  V30 1661 N 160.98 0.280427 6.13259 0
M  V30 1662 C 162.351 0.475046 6.18177 0
M  V30 1663 C 164.406 -0.150863 4.97671 0
M  V30 1664 C 163.109 1.25729 7.08227 0
M  V30 1665 C 165.135 0.618039 5.88162 0
M  V30 1666 C 164.497 1.31438 6.92029 0
M  V30 1667 H 160.596 -0.303303 0.720785 0
M  V30 1668 H 163.18 -0.154244 1.94088 0
M  V30 1669 H 161.351 -2.42499 3.03395 0
M  V30 1670 H 163.083 -2.37545 3.2765 0
M  V30 1671 H 159.838 -0.895852 4.6505 0
M  V30 1672 H 160.262 0.694027 6.73433 0
M  V30 1673 H 164.904 -0.674868 4.17379 0
M  V30 1674 H 162.622 1.79265 7.87966 0
M  V30 1675 H 166.208 0.683173 5.77775 0
M  V30 1676 H 165.088 1.89981 7.6084 0
M  V30 1677 N 162.591 -1.51276 -0.441967 0
M  V30 1678 C 163.868 -1.54252 -1.20273 0
M  V30 1679 C 164.248 -0.30408 -2.08898 0
M  V30 1680 O 163.596 0.711084 -2.17154 0
M  V30 1681 C 163.806 -2.85406 -2.00859 0
M  V30 1682 C 165.154 -3.37181 -2.58059 0
M  V30 1683 O 166.178 -2.86925 -2.11074 0
M  V30 1684 O 165.037 -4.24858 -3.43741 0
M  V30 1685 H 162.131 -0.619969 -0.547328 0
M  V30 1686 H 164.677 -1.63586 -0.451413 0
M  V30 1687 H 163.449 -3.67003 -1.35736 0
M  V30 1688 H 163.072 -2.79213 -2.83065 0
M  V30 1689 N 164.069 0.697108 -1.41344 0
M  V30 1690 C 165.297 1.48593 -1.43972 0
M  V30 1691 C 165.712 1.88747 -0.0445612 0
M  V30 1692 O 165.069 1.56682 0.935785 0
M  V30 1693 C 165.12 2.74946 -2.34706 0
M  V30 1694 O 164.841 2.36484 -3.68791 0
M  V30 1695 C 166.342 3.687 -2.46121 0
M  V30 1696 H 163.562 0.457964 -0.490418 0
M  V30 1697 H 166.106 0.858429 -1.8561 0
M  V30 1698 H 164.261 3.33937 -1.9638 0
M  V30 1699 H 164.675 3.17918 -4.17167 0
M  V30 1700 H 166.149 4.54145 -3.13777 0
M  V30 1701 H 166.626 4.13081 -1.49199 0
M  V30 1702 H 167.232 3.15613 -2.85076 0
M  V30 1703 N 165.547 1.27147 0.931209 0
M  V30 1704 C 166.477 1.12081 2.04842 0
M  V30 1705 C 167.458 0.0232364 1.70084 0
M  V30 1706 O 168.643 0.197085 1.93197 0
M  V30 1707 C 165.773 0.76354 3.38803 0
M  V30 1708 C 164.727 1.81396 3.87659 0
M  V30 1709 C 164.053 1.31075 5.18385 0
M  V30 1710 C 165.353 3.21739 4.11438 0
M  V30 1711 H 167.047 2.05537 2.17703 0
M  V30 1712 H 164.593 0.989603 1.04608 0
M  V30 1713 H 166.546 0.644982 4.16435 0
M  V30 1714 H 165.27 -0.206727 3.25945 0
M  V30 1715 H 163.929 1.92136 3.12217 0
M  V30 1716 H 163.577 0.330037 5.01916 0
M  V30 1717 H 163.277 2.013 5.52044 0
M  V30 1718 H 164.801 1.20506 5.98591 0
M  V30 1719 H 166.215 3.14019 4.79651 0
M  V30 1720 H 164.612 3.89644 4.56397 0
M  V30 1721 H 165.682 3.67054 3.16859 0
M  V30 1722 N 167.025 -1.13721 1.09112 0
M  V30 1723 C 168.25 -1.89314 0.847053 0
M  V30 1724 C 168.675 -1.78416 -0.595774 0
M  V30 1725 O 168.033 -1.12942 -1.41823 0
M  V30 1726 C 168.081 -3.3701 1.28284 0
M  V30 1727 O 167.185 -4.10054 0.439267 0
M  V30 1728 H 166.526 -0.588745 0.307044 0
M  V30 1729 H 169.056 -1.43902 1.45442 0
M  V30 1730 H 169.066 -3.87834 1.26683 0
M  V30 1731 H 167.741 -3.4426 2.33363 0
M  V30 1732 H 166.318 -3.69266 0.519312 0
M  V30 1733 N 168.503 -0.877838 -1.30888 0
M  V30 1734 C 169.752 -0.488793 -1.95688 0
M  V30 1735 C 170.065 0.965485 -1.70111 0
M  V30 1736 O 171.271 1.46104 -2.28836 0
M  V30 1737 C 169.727 -0.823201 -3.50359 0
M  V30 1738 C 169.335 -2.29477 -3.84765 0
M  V30 1739 C 171.079 -0.503009 -4.21509 0
M  V30 1740 C 168.986 -2.57118 -5.32583 0
M  V30 1741 H 167.916 -0.179062 -0.732429 0
M  V30 1742 H 170.567 -1.07183 -1.48943 0
M  V30 1743 H 168.949 -0.169331 -3.95638 0
M  V30 1744 H 170.123 -2.99236 -3.5042 0
M  V30 1745 H 168.438 -2.58178 -3.267 0
M  V30 1746 H 171.035 -0.68665 -5.30273 0
M  V30 1747 H 171.378 0.557109 -4.12555 0
M  V30 1748 H 171.911 -1.11376 -3.8189 0
M  V30 1749 H 168.65 -3.61843 -5.4658 0
M  V30 1750 H 168.17 -1.91961 -5.68253 0
M  V30 1751 H 169.849 -2.42251 -5.99936 0
M  V30 1752 N 169.982 1.44106 -0.638065 0
M  V30 1753 C 171.228 2.02277 -0.145546 0
M  V30 1754 C 171.561 1.50125 1.23191 0
M  V30 1755 O 170.836 0.688133 1.8192 0
M  V30 1756 C 171.119 3.59829 -0.139791 0
M  V30 1757 C 170.972 4.22247 -1.55008 0
M  V30 1758 C 172.291 4.36873 0.531966 0
M  V30 1759 H 169.41 0.734992 -0.0543632 0
M  V30 1760 H 172.052 1.71592 -0.815863 0
M  V30 1761 H 170.202 3.86102 0.431007 0
M  V30 1762 H 171.874 4.07057 -2.1703 0
M  V30 1763 H 170.117 3.79476 -2.10191 0
M  V30 1764 H 170.788 5.31284 -1.49804 0
M  V30 1765 H 173.264 4.16074 0.0464781 0
M  V30 1766 H 172.14 5.4657 0.505206 0
M  V30 1767 H 172.401 4.11995 1.60352 0
M  V30 1768 N 171.46 0.379036 1.52974 0
M  V30 1769 C 172.423 -0.448865 2.24762 0
M  V30 1770 C 173.423 -0.998689 1.26027 0
M  V30 1771 O 174.613 -0.882313 1.50203 0
M  V30 1772 C 171.745 -1.62872 2.99476 0
M  V30 1773 H 172.938 0.179491 2.99362 0
M  V30 1774 H 170.491 0.13096 1.5575 0
M  V30 1775 H 171.226 -2.29479 2.29151 0
M  V30 1776 H 171.011 -1.24128 3.71934 0
M  V30 1777 H 172.501 -2.2151 3.5401 0
M  V30 1778 N 172.938 -1.57226 0.108567 0
M  V30 1779 C 174.349 -1.8195 -0.418464 0
M  V30 1780 C 174.7 -1.02508 -1.67292 0
M  V30 1781 O 173.825 -0.258496 -2.14851 0
M  V30 1782 C 174.42 -3.30028 -0.765979 0
M  V30 1783 C 172.979 -3.55469 -1.23769 0
M  V30 1784 C 172.126 -2.7625 -0.241106 0
M  V30 1785 H 175.077 -1.55149 0.33384 0
M  V30 1786 H 175.098 -3.44086 -1.62434 0
M  V30 1787 H 174.61 -3.87821 0.147219 0
M  V30 1788 H 172.711 -3.03022 -2.16814 0
M  V30 1789 H 172.824 -4.6408 -1.19022 0
M  V30 1790 H 171.188 -2.44133 -0.72602 0
M  V30 1791 H 171.971 -3.36797 0.665007 0
M  V30 1792 N 174.416 0.165178 -1.56732 0
M  V30 1793 C 175.363 1.2044 -1.96883 0
M  V30 1794 C 176.333 1.43664 -0.833657 0
M  V30 1795 O 177.518 1.56302 -1.09427 0
M  V30 1796 C 174.658 2.53727 -2.33916 0
M  V30 1797 C 173.771 2.3783 -3.6064 0
M  V30 1798 C 172.906 3.64026 -3.86857 0
M  V30 1799 C 171.945 3.43088 -5.06909 0
M  V30 1800 N 171.082 4.61369 -5.29229 0
M  V30 1801 H 175.922 0.854996 -2.85471 0
M  V30 1802 H 173.459 0.41076 -1.41249 0
M  V30 1803 H 175.417 3.31419 -2.53411 0
M  V30 1804 H 174.047 2.8665 -1.48431 0
M  V30 1805 H 173.099 1.51282 -3.49024 0
M  V30 1806 H 174.411 2.18308 -4.4849 0
M  V30 1807 H 173.565 4.50152 -4.06753 0
M  V30 1808 H 172.304 3.86533 -2.97394 0
M  V30 1809 H 171.309 2.55349 -4.86906 0
M  V30 1810 H 172.534 3.21997 -5.97909 0
M  V30 1811 H 170.48 4.84084 -4.42718 0
M  V30 1812 H 170.397 4.44783 -6.11313 0
M  V30 1813 H 171.665 5.48761 -5.53608 0
M  V30 1814 N 175.894 1.51508 0.433938 0
M  V30 1815 C 176.857 1.72473 1.50949 0
M  V30 1816 C 177.857 0.594725 1.49398 0
M  V30 1817 O 179.047 0.862315 1.5136 0
M  V30 1818 C 176.179 1.78431 2.90474 0
M  V30 1819 H 177.372 2.68467 1.33662 0
M  V30 1820 H 174.925 1.41549 0.662836 0
M  V30 1821 H 175.66 0.842645 3.13161 0
M  V30 1822 H 175.445 2.60558 2.93005 0
M  V30 1823 H 176.935 1.96479 3.68491 0
M  V30 1824 N 177.372 -0.689602 1.41712 0
M  V30 1825 C 178.282 -1.83314 1.46401 0
M  V30 1826 C 179.298 -1.7036 0.35405 0
M  V30 1827 O 180.474 -1.92171 0.602692 0
M  V30 1828 C 177.539 -3.19344 1.34982 0
M  V30 1829 C 176.6 -3.44363 2.56344 0
M  V30 1830 C 175.833 -4.73904 2.45461 0
M  V30 1831 O 176.056 -5.508 1.48241 0
M  V30 1832 O 174.99 -4.99839 3.35328 0
M  V30 1833 H 178.816 -1.82314 2.42889 0
M  V30 1834 H 176.401 -0.843438 1.23315 0
M  V30 1835 H 178.283 -4.00547 1.3092 0
M  V30 1836 H 176.958 -3.21014 0.41612 0
M  V30 1837 H 175.865 -2.63067 2.65982 0
M  V30 1838 H 177.198 -3.47512 3.48563 0
M  V30 1839 N 178.85 -1.27639 -0.924453 0
M  V30 1840 C 180.098 -1.13941 -1.66918 0
M  V30 1841 C 180.419 0.314589 -1.92446 0
M  V30 1842 O 179.689 1.21964 -1.53303 0
M  V30 1843 H 178.269 -0.418678 -0.618642 0
M  V30 1844 H 180.931 -1.60213 -1.10985 0
M  V30 1845 H 180.027 -1.67094 -2.63602 0
M  V30 1846 N 180.328 1.1314 -1.09713 0
M  V30 1847 C 181.605 1.80762 -0.747302 0
M  V30 1848 C 181.985 1.96663 0.767265 0
M  V30 1849 O 181.333 1.53706 1.69076 0
M  V30 1850 C 181.543 3.15606 -1.48975 0
M  V30 1851 C 182.891 3.90914 -1.65746 0
M  V30 1852 O 183.915 3.25239 -1.45251 0
M  V30 1853 O 182.774 5.08718 -1.9967 0
M  V30 1854 H 179.868 0.782103 -0.268782 0
M  V30 1855 H 182.414 1.20041 -1.19951 0
M  V30 1856 H 181.186 2.99278 -2.52088 0
M  V30 1857 H 180.809 3.84029 -1.02991 0
M  V30 1858 N 181.806 0.884767 1.30421 0
M  V30 1859 C 183.055 0.499164 1.95426 0
M  V30 1860 C 183.368 -0.95645 1.70621 0
M  V30 1861 O 184.574 -1.44889 2.29607 0
M  V30 1862 C 183.03 0.84177 3.49917 0
M  V30 1863 C 182.638 2.31514 3.83543 0
M  V30 1864 C 184.382 0.525355 4.21237 0
M  V30 1865 C 182.289 2.59939 5.31212 0
M  V30 1866 H 181.219 0.182944 0.73147 0
M  V30 1867 H 183.87 1.07971 1.48373 0
M  V30 1868 H 182.252 0.190311 3.95542 0
M  V30 1869 H 183.426 3.0109 3.48829 0
M  V30 1870 H 181.741 2.59907 3.25326 0
M  V30 1871 H 184.338 0.714762 5.29901 0
M  V30 1872 H 184.681 -0.535222 4.12845 0
M  V30 1873 H 185.214 1.134 3.81294 0
M  V30 1874 H 181.953 3.64736 5.44654 0
M  V30 1875 H 181.473 1.94972 5.67227 0
M  V30 1876 H 183.152 2.45429 5.98643 0
M  V30 1877 N 183.284 -1.43765 0.645699 0
M  V30 1878 C 184.53 -2.02197 0.156271 0
M  V30 1879 C 184.863 -1.50776 -1.22393 0
M  V30 1880 O 184.138 -0.697771 -1.81553 0
M  V30 1881 C 184.421 -3.59749 0.158872 0
M  V30 1882 C 184.274 -4.21419 1.57245 0
M  V30 1883 C 185.593 -4.37149 -0.50879 0
M  V30 1884 H 182.712 -0.734694 0.0582602 0
M  V30 1885 H 185.354 -1.71157 0.824951 0
M  V30 1886 H 183.504 -3.86325 -0.410525 0
M  V30 1887 H 185.176 -4.059 2.19186 0
M  V30 1888 H 183.419 -3.78356 2.122 0
M  V30 1889 H 184.09 -5.30482 1.52619 0
M  V30 1890 H 186.566 -4.16093 -0.024412 0
M  V30 1891 H 185.442 -5.4683 -0.476213 0
M  V30 1892 H 185.703 -4.12839 -1.58165 0
M  V30 1893 N 184.763 -0.387143 -1.52771 0
M  V30 1894 C 185.726 0.436939 -2.24997 0
M  V30 1895 C 186.726 0.991991 -1.26555 0
M  V30 1896 O 187.916 0.874335 -1.50669 0
M  V30 1897 C 185.048 1.61281 -3.00335 0
M  V30 1898 H 186.241 -0.195365 -2.99263 0
M  V30 1899 H 183.794 -0.139218 -1.55679 0
M  V30 1900 H 184.529 2.2826 -2.30364 0
M  V30 1901 H 184.314 1.22154 -3.72587 0
M  V30 1902 H 185.804 2.19629 -3.5518 0
M  V30 1903 N 186.241 1.57166 -0.116904 0
M  V30 1904 C 187.173 2.12271 0.864507 0
M  V30 1905 C 188.186 1.06494 1.23138 0
M  V30 1906 O 189.375 1.33873 1.18069 0
M  V30 1907 C 186.475 2.60564 2.16702 0
M  V30 1908 C 185.648 3.90416 1.97216 0
M  V30 1909 C 184.707 4.24329 3.11178 0
M  V30 1910 O 183.733 4.93182 2.84184 0
M  V30 1911 N 184.935 3.8148 4.37554 0
M  V30 1912 H 187.7 2.97102 0.393726 0
M  V30 1913 H 185.261 1.61759 0.0675805 0
M  V30 1914 H 187.253 2.80282 2.91932 0
M  V30 1915 H 185.823 1.80623 2.55135 0
M  V30 1916 H 185.043 3.79627 1.06192 0
M  V30 1917 H 186.331 4.75327 1.81499 0
M  V30 1918 H 185.729 3.25943 4.62361 0
M  V30 1919 H 184.286 4.06311 5.09661 0
M  V30 1920 N 187.719 -0.156864 1.56817 0
M  V30 1921 C 188.965 -0.872416 1.83076 0
M  V30 1922 C 189.298 -1.81261 0.697001 0
M  V30 1923 O 188.573 -1.92171 -0.30008 0
M  V30 1924 C 188.856 -1.65551 3.19789 0
M  V30 1925 C 188.709 -0.737467 4.43713 0
M  V30 1926 C 190.028 -2.62012 3.53606 0
M  V30 1927 H 187.147 -0.315715 0.665953 0
M  V30 1928 H 189.789 -0.138004 1.89498 0
M  V30 1929 H 187.939 -2.28159 3.14445 0
M  V30 1930 H 189.611 -0.123143 4.61136 0
M  V30 1931 H 187.854 -0.0464067 4.33775 0
M  V30 1932 H 188.525 -1.32122 5.35955 0
M  V30 1933 H 191.001 -2.09525 3.59497 0
M  V30 1934 H 189.877 -3.13861 4.50314 0
M  V30 1935 H 190.138 -3.42902 2.79053 0
M  V30 1936 N 189.197 -1.51736 -0.425897 0
M  V30 1937 C 190.144 -1.73875 -1.51776 0
M  V30 1938 C 191.114 -0.580702 -1.55618 0
M  V30 1939 O 192.299 -0.81641 -1.72451 0
M  V30 1940 C 189.439 -1.88012 -2.89388 0
M  V30 1941 C 188.552 -3.15606 -2.94986 0
M  V30 1942 C 187.687 -3.20271 -4.23793 0
M  V30 1943 C 186.726 -4.42134 -4.23302 0
M  V30 1944 N 185.863 -4.44284 -5.43651 0
M  V30 1945 H 190.703 -2.67071 -1.32201 0
M  V30 1946 H 188.24 -1.32351 -0.642008 0
M  V30 1947 H 190.198 -1.9419 -3.69251 0
M  V30 1948 H 188.828 -0.98213 -3.07496 0
M  V30 1949 H 187.88 -3.18681 -2.07717 0
M  V30 1950 H 189.192 -4.05486 -2.90486 0
M  V30 1951 H 188.346 -3.25428 -5.12036 0
M  V30 1952 H 187.085 -2.28299 -4.30965 0
M  V30 1953 H 186.09 -4.3714 -3.3345 0
M  V30 1954 H 187.315 -5.35382 -4.17783 0
M  V30 1955 H 185.261 -3.55188 -5.51523 0
M  V30 1956 H 185.178 -5.27988 -5.41078 0
M  V30 1957 H 186.446 -4.53649 -6.33895 0
M  V30 1958 N 190.675 0.682077 -1.42076 0
M  V30 1959 C 191.622 1.79578 -1.44984 0
M  V30 1960 C 192.592 1.6332 -0.302614 0
M  V30 1961 O 193.777 1.83978 -0.505633 0
M  V30 1962 C 190.917 3.1756 -1.35091 0
M  V30 1963 C 190.03 3.45156 -2.59791 0
M  V30 1964 C 189.165 4.72826 -2.42093 0
M  V30 1965 C 188.204 4.93433 -3.62202 0
M  V30 1966 N 187.341 6.12338 -3.43491 0
M  V30 1967 H 192.181 1.76427 -2.40161 0
M  V30 1968 H 189.718 0.861376 -1.19242 0
M  V30 1969 H 191.676 3.97287 -1.27354 0
M  V30 1970 H 190.306 3.19854 -0.435133 0
M  V30 1971 H 189.358 2.59736 -2.77923 0
M  V30 1972 H 190.67 3.5628 -3.49094 0
M  V30 1973 H 189.824 5.60631 -2.319 0
M  V30 1974 H 188.563 4.63973 -1.50268 0
M  V30 1975 H 187.568 4.04073 -3.72834 0
M  V30 1976 H 188.793 5.04136 -4.54998 0
M  V30 1977 H 186.739 6.04672 -2.54377 0
M  V30 1978 H 186.656 6.2429 -4.26377 0
M  V30 1979 H 187.924 7.02841 -3.37097 0
M  V30 1980 N 192.153 1.28127 0.917671 0
M  V30 1981 C 193.116 1.11744 2.00115 0
M  V30 1982 C 194.116 0.0583052 1.60694 0
M  V30 1983 O 195.306 0.303755 1.71531 0
M  V30 1984 C 192.438 0.704862 3.33533 0
M  V30 1985 H 193.631 2.07966 2.16079 0
M  V30 1986 H 191.184 1.11058 1.09981 0
M  V30 1987 H 191.919 -0.258299 3.2327 0
M  V30 1988 H 191.704 1.4699 3.63505 0
M  V30 1989 H 193.194 0.612768 4.1308 0
M  V30 1990 N 193.631 -1.12557 1.10312 0
M  V30 1991 C 194.861 -1.87592 0.865617 0
M  V30 1992 C 195.269 -1.79851 -0.587389 0
M  V30 1993 O 194.612 -1.16949 -1.41664 0
M  V30 1994 C 194.674 -3.37665 1.23381 0
M  V30 1995 C 194.338 -3.69181 2.69359 0
M  V30 1996 C 195.335 -3.67652 3.67597 0
M  V30 1997 C 193.02 -3.98555 3.05711 0
M  V30 1998 C 195.014 -3.95053 5.00212 0
M  V30 1999 C 192.701 -4.25616 4.38514 0
M  V30 2000 C 193.699 -4.23851 5.35574 0
M  V30 2001 O 193.387 -4.50242 6.65986 0
M  V30 2002 H 193.119 -0.600442 0.310557 0
M  V30 2003 H 195.673 -1.4335 1.47105 0
M  V30 2004 H 193.903 -3.82454 0.571467 0
M  V30 2005 H 195.592 -3.94041 0.973994 0
M  V30 2006 H 196.358 -3.45024 3.40857 0
M  V30 2007 H 192.237 -3.99071 2.30789 0
M  V30 2008 H 195.781 -3.93591 5.75962 0
M  V30 2009 H 191.678 -4.47718 4.64994 0
M  V30 2010 H 192.446 -4.67867 6.71597 0
M  V30 2011 N 195.109 -0.891671 -1.2995 0
M  V30 2012 C 196.072 -0.36828 -2.26222 0
M  V30 2013 C 197.072 0.493014 -1.53056 0
M  V30 2014 O 198.262 0.299213 -1.71611 0
M  V30 2015 C 195.394 0.47442 -3.37583 0
M  V30 2016 H 196.587 -1.21844 -2.74033 0
M  V30 2017 H 194.14 -0.669107 -1.41254 0
M  V30 2018 H 194.875 1.34489 -2.95099 0
M  V30 2019 H 194.66 -0.142615 -3.91841 0
M  V30 2020 H 196.15 0.83218 -4.09224 0
M  V30 2021 N 196.587 1.43421 -0.653314 0
M  V30 2022 C 198.003 1.56341 -0.320886 0
M  V30 2023 C 198.203 1.63696 1.17499 0
M  V30 2024 O 197.259 1.59208 1.95982 0
M  V30 2025 C 198.572 2.82424 -1.03233 0
M  V30 2026 C 200.12 2.96168 -1.01259 0
M  V30 2027 C 200.595 4.25084 -1.70492 0
M  V30 2028 N 202.086 4.31948 -1.67257 0
M  V30 2029 C 202.821 5.30466 -2.17701 0
M  V30 2030 N 202.317 6.35261 -2.76434 0
M  V30 2031 N 204.11 5.2212 -2.082 0
M  V30 2032 H 196.261 1.3689 -1.62403 0
M  V30 2033 H 198.524 0.657455 -0.682977 0
M  V30 2034 H 198.23 2.83053 -2.08744 0
M  V30 2035 H 198.104 3.72653 -0.583948 0
M  V30 2036 H 200.491 2.9508 0.0341235 0
M  V30 2037 H 200.572 2.07229 -1.49966 0
M  V30 2038 H 200.216 4.26932 -2.7512 0
M  V30 2039 H 200.146 5.1292 -1.19251 0
M  V30 2040 H 202.637 3.56838 -1.24398 0
M  V30 2041 H 202.95 7.06754 -3.12601 0
M  V30 2042 H 201.295 6.35884 -2.80495 0
M  V30 2043 H 204.486 4.39166 -1.62021 0
M  V30 2044 H 204.659 5.98739 -2.47822 0
M  V30 2045 N 198.065 0.39524 1.52563 0
M  V30 2046 C 199.313 -0.184678 2.01254 0
M  V30 2047 C 199.634 -1.46822 1.28329 0
M  V30 2048 O 198.904 -1.91666 0.405094 0
M  V30 2049 H 197.484 -0.0712355 0.743596 0
M  V30 2050 H 200.146 0.528293 1.87603 0
M  V30 2051 H 199.242 -0.390681 3.09645 0
M  V30 2052 N 199.544 -1.57102 0.125237 0
M  V30 2053 C 200.792 -1.95021 -0.530198 0
M  V30 2054 C 201.113 -1.00982 -1.66816 0
M  V30 2055 O 200.383 -0.0672693 -1.95784 0
M  V30 2056 H 198.963 -0.720046 -0.198853 0
M  V30 2057 H 201.625 -1.93916 0.19564 0
M  V30 2058 H 200.721 -2.98211 -0.920681 0
M  V30 2059 N 201.022 0.148545 -1.56898 0
M  V30 2060 C 202.271 0.85984 -1.82454 0
M  V30 2061 C 202.584 1.82406 -0.706229 0
M  V30 2062 O 203.79 2.57938 -0.847349 0
M  V30 2063 C 202.246 1.57967 -3.2338 0
M  V30 2064 C 201.854 0.65794 -4.43142 0
M  V30 2065 C 203.598 2.27784 -3.58211 0
M  V30 2066 C 201.505 1.3793 -5.75091 0
M  V30 2067 H 200.435 0.324834 -0.68044 0
M  V30 2068 H 203.086 0.112588 -1.83154 0
M  V30 2069 H 201.468 2.37249 -3.17063 0
M  V30 2070 H 202.642 -0.0995497 -4.60692 0
M  V30 2071 H 200.957 0.0682643 -4.16344 0
M  V30 2072 H 203.554 2.8239 -4.54048 0
M  V30 2073 H 203.897 3.04204 -2.84193 0
M  V30 2074 H 204.43 1.55421 -3.66182 0
M  V30 2075 H 201.169 0.656982 -6.52199 0
M  V30 2076 H 200.689 2.10954 -5.61479 0
M  V30 2077 H 202.368 1.92063 -6.17835 0
M  V30 2078 N 202.5 1.5196 0.417844 0
M  V30 2079 C 203.749 1.6482 1.16264 0
M  V30 2080 C 204.062 0.379886 1.91876 0
M  V30 2081 O 205.268 0.388154 2.68711 0
M  V30 2082 C 203.724 2.91161 2.1155 0
M  V30 2083 C 203.332 4.25068 1.41495 0
M  V30 2084 C 205.076 3.13383 2.86341 0
M  V30 2085 C 202.983 5.42541 2.35379 0
M  V30 2086 H 201.913 0.613954 0.437694 0
M  V30 2087 H 204.564 1.78442 0.427871 0
M  V30 2088 H 202.946 2.71218 2.88543 0
M  V30 2089 H 204.12 4.55463 0.699263 0
M  V30 2090 H 202.435 4.0888 0.787792 0
M  V30 2091 H 205.032 3.98324 3.5671 0
M  V30 2092 H 205.375 2.27256 3.48798 0
M  V30 2093 H 205.908 3.33757 2.1645 0
M  V30 2094 H 202.647 6.30987 1.77582 0
M  V30 2095 H 202.167 5.16497 3.04945 0
M  V30 2096 H 203.846 5.75272 2.96093 0
M  V30 2097 N 203.978 -0.674533 1.42435 0
M  V30 2098 C 205.206 -1.46283 1.46317 0
M  V30 2099 C 205.621 -1.88653 0.0745836 0
M  V30 2100 O 204.978 -1.58151 -0.91074 0
M  V30 2101 C 205.029 -2.71178 2.3905 0
M  V30 2102 O 204.75 -2.30586 3.72507 0
M  V30 2103 C 206.251 -3.64738 2.51955 0
M  V30 2104 H 203.471 -0.450104 0.497642 0
M  V30 2105 H 206.015 -0.828792 1.86953 0
M  V30 2106 H 204.17 -3.3077 2.01667 0
M  V30 2107 H 204.584 -3.11241 4.22172 0
M  V30 2108 H 206.058 -4.49096 3.20962 0
M  V30 2109 H 206.535 -4.10656 1.55752 0
M  V30 2110 H 207.141 -3.11038 2.90061 0
M  V30 2111 N 205.456 -1.28612 -0.910864 0
M  V30 2112 C 206.702 -1.16106 -1.66274 0
M  V30 2113 C 207.035 0.289113 -1.92036 0
M  V30 2114 O 206.31 1.21 -1.52281 0
M  V30 2115 C 206.593 -1.96309 -3.01885 0
M  V30 2116 C 206.446 -3.49405 -2.8326 0
M  V30 2117 C 207.765 -1.78076 -4.02463 0
M  V30 2118 H 204.884 -0.423152 -0.603417 0
M  V30 2119 H 207.526 -1.57961 -1.05586 0
M  V30 2120 H 205.676 -1.60742 -3.53687 0
M  V30 2121 H 207.348 -3.94894 -2.38446 0
M  V30 2122 H 205.591 -3.74893 -2.18261 0
M  V30 2123 H 206.262 -4.00784 -3.79574 0
M  V30 2124 H 208.738 -2.0912 -3.59733 0
M  V30 2125 H 207.614 -2.36561 -4.95308 0
M  V30 2126 H 207.875 -0.733008 -4.35981 0
M  V30 2127 N 206.934 1.1197 -1.10907 0
M  V30 2128 C 208.159 1.87942 -0.877064 0
M  V30 2129 C 208.584 1.79341 0.567314 0
M  V30 2130 O 207.942 1.15184 1.40009 0
M  V30 2131 C 207.99 3.34926 -1.33629 0
M  V30 2132 O 207.094 4.09303 -0.504447 0
M  V30 2133 H 206.435 0.583785 -0.316371 0
M  V30 2134 H 208.965 1.4157 -1.47712 0
M  V30 2135 H 208.975 3.8577 -1.32837 0
M  V30 2136 H 207.65 3.40504 -2.3881 0
M  V30 2137 H 206.227 3.68393 -0.577993 0
M  V30 2138 N 208.412 0.89855 1.29475 0
M  V30 2139 C 209.637 0.538561 2.00285 0
M  V30 2140 C 210.062 -0.869135 1.66816 0
M  V30 2141 O 209.42 -1.57831 0.892145 0
M  V30 2142 C 209.468 0.736475 3.52999 0
M  V30 2143 O 208.572 -0.211537 4.11857 0
M  V30 2144 H 207.913 0.210563 0.62973 0
M  V30 2145 H 210.443 1.20982 1.64998 0
M  V30 2146 H 210.453 0.640685 4.02938 0
M  V30 2147 H 209.128 1.76276 3.76696 0
M  V30 2148 H 207.705 -0.0682991 3.72837 0
M  V30 2149 N 209.89 -1.43072 0.660911 0
M  V30 2150 C 210.84 -2.27948 -0.04847 0
M  V30 2151 C 211.824 -1.40325 -0.787246 0
M  V30 2152 O 213.016 -1.63893 -0.668446 0
M  V30 2153 C 210.145 -3.28143 -1.00881 0
M  V30 2154 C 209.231 -4.23252 -0.268108 0
M  V30 2155 N 209.622 -5.00656 0.719528 0
M  V30 2156 C 207.92 -4.43092 -0.508493 0
M  V30 2157 C 208.621 -5.70019 1.15988 0
M  V30 2158 N 207.597 -5.41364 0.492584 0
M  V30 2159 H 211.399 -2.85213 0.709279 0
M  V30 2160 H 208.913 -1.54869 0.488822 0
M  V30 2161 H 210.91 -3.87736 -1.53188 0
M  V30 2162 H 209.57 -2.7244 -1.76654 0
M  V30 2163 H 210.581 -5.06115 1.09855 0
M  V30 2164 H 207.258 -3.98449 -1.24679 0
M  V30 2165 H 208.648 -6.4214 1.97751 0
M  V30 2166 N 211.368 -0.403325 -1.52352 0
M  V30 2167 C 212.615 0.174347 -2.01748 0
M  V30 2168 C 212.943 1.45636 -1.2892 0
M  V30 2169 O 212.198 1.9193 -0.382258 0
M  V30 2170 C 212.497 0.474665 -3.54234 0
M  V30 2171 C 212.163 -0.717458 -4.45155 0
M  V30 2172 C 210.825 -1.04447 -4.69728 0
M  V30 2173 C 213.177 -1.51432 -4.98716 0
M  V30 2174 C 210.505 -2.16963 -5.45109 0
M  V30 2175 C 212.857 -2.6302 -5.75329 0
M  V30 2176 C 211.521 -2.96213 -5.98175 0
M  V30 2177 H 210.791 0.0637981 -0.738248 0
M  V30 2178 H 213.438 -0.543553 -1.83624 0
M  V30 2179 H 211.743 1.27406 -3.70506 0
M  V30 2180 H 213.44 0.934496 -3.89959 0
M  V30 2181 H 210.03 -0.452596 -4.26204 0
M  V30 2182 H 214.214 -1.27491 -4.79645 0
M  V30 2183 H 209.47 -2.43034 -5.61021 0
M  V30 2184 H 213.644 -3.25158 -6.15829 0
M  V30 2185 H 211.271 -3.83516 -6.56368 0
M  V30 2186 N 212.846 1.57033 -0.133567 0
M  V30 2187 C 214.123 1.87256 0.56522 0
M  V30 2188 C 214.503 1.03726 1.83859 0
M  V30 2189 O 213.851 0.120247 2.28183 0
M  V30 2190 C 214.061 3.3865 0.843636 0
M  V30 2191 C 215.409 4.07574 1.19032 0
M  V30 2192 O 216.433 3.43752 0.933429 0
M  V30 2193 O 215.292 5.20259 1.67312 0
M  V30 2194 H 212.386 0.775678 0.286796 0
M  V30 2195 H 214.932 1.68855 -0.169168 0
M  V30 2196 H 213.704 3.91257 -0.0581149 0
M  V30 2197 H 213.327 3.62532 1.63268 0
M  V30 2198 N 214.325 -0.140222 1.56975 0
M  V30 2199 C 215.273 -1.19207 1.99731 0
M  V30 2200 C 216.267 -1.44089 0.890777 0
M  V30 2201 O 217.473 -1.44301 1.07597 0
M  V30 2202 H 213.848 -0.40142 0.635898 0
M  V30 2203 H 215.819 -0.804813 2.87342 0
M  V30 2204 C 214.568 -2.51617 2.39967 0
M  V30 2205 H 213.891 -2.33303 3.24669 0
M  V30 2206 H 215.331 -3.23827 2.73701 0
M  V30 2207 C 213.79 -3.12654 1.25496 0
M  V30 2208 O 214.32 -3.97786 0.559371 0
M  V30 2209 N 212.526 -2.72206 1.01746 0
M  V30 2210 H 212.073 -2.03074 1.58489 0
M  V30 2211 H 212.031 -3.13377 0.253461 0
M  V30 2212 N 215.803 -1.52179 -0.40978 0
M  V30 2213 C 217.214 -1.58377 -0.988615 0
M  V30 2214 C 217.565 -0.423879 -1.91566 0
M  V30 2215 O 216.69 0.455844 -2.11544 0
M  V30 2216 C 217.285 -2.87044 -1.79976 0
M  V30 2217 C 215.844 -2.95722 -2.32863 0
M  V30 2218 C 214.991 -2.53309 -1.12828 0
M  V30 2219 H 217.942 -1.57558 -0.190039 0
M  V30 2220 H 217.963 -2.7236 -2.65707 0
M  V30 2221 H 217.475 -3.71444 -1.12478 0
M  V30 2222 H 215.576 -2.15814 -3.03735 0
M  V30 2223 H 215.689 -3.99951 -2.63773 0
M  V30 2224 H 214.053 -2.07142 -1.48204 0
M  V30 2225 H 214.836 -3.40082 -0.46897 0
M  V30 2226 N 217.281 0.66697 -1.42791 0
M  V30 2227 C 218.228 1.7803 -1.4688 0
M  V30 2228 C 219.198 1.6299 -0.319919 0
M  V30 2229 O 220.383 1.83432 -0.525118 0
M  V30 2230 C 217.523 3.1611 -1.38451 0
M  V30 2231 C 216.636 3.42381 -2.63437 0
M  V30 2232 C 215.771 4.70232 -2.47094 0
M  V30 2233 C 214.81 4.89564 -3.67415 0
M  V30 2234 N 213.947 6.08661 -3.49966 0
M  V30 2235 H 218.787 1.7387 -2.42019 0
M  V30 2236 H 216.324 0.84868 -1.20149 0
M  V30 2237 H 218.282 3.95914 -1.31561 0
M  V30 2238 H 216.912 3.19374 -0.469033 0
M  V30 2239 H 215.964 2.56774 -2.80662 0
M  V30 2240 H 217.276 3.52557 -3.52853 0
M  V30 2241 H 216.43 5.5814 -2.37834 0
M  V30 2242 H 215.169 4.62353 -1.5518 0
M  V30 2243 H 214.174 4.00096 -3.77099 0
M  V30 2244 H 215.399 4.99282 -4.6032 0
M  V30 2245 H 213.345 6.0194 -2.60776 0
M  V30 2246 H 213.262 6.19733 -4.32975 0
M  V30 2247 H 214.53 6.99226 -3.44532 0
M  V30 2248 N 218.759 1.29093 0.90403 0
M  V30 2249 C 219.987 1.19689 1.68766 0
M  V30 2250 C 220.402 -0.243113 1.87228 0
M  V30 2251 O 219.759 -1.16326 1.40621 0
M  V30 2252 C 219.81 1.90144 3.07453 0
M  V30 2253 O 219.531 3.2852 2.89838 0
M  V30 2254 C 221.032 1.87162 4.01852 0
M  V30 2255 H 218.252 0.415035 0.527244 0
M  V30 2256 H 220.796 1.7039 1.13082 0
M  V30 2257 H 218.951 1.43289 3.59926 0
M  V30 2258 H 219.365 3.63944 3.77684 0
M  V30 2259 H 220.839 2.41032 4.96596 0
M  V30 2260 H 221.316 0.84617 4.30972 0
M  V30 2261 H 221.922 2.33741 3.5531 0
M  V30 2262 N 220.237 -1.11381 1.11499 0
M  V30 2263 C 221.514 -1.7955 0.775965 0
M  V30 2264 C 221.894 -1.97859 -0.73588 0
M  V30 2265 O 221.242 -1.56376 -1.66609 0
M  V30 2266 C 221.452 -3.13196 1.53977 0
M  V30 2267 C 222.8 -3.88227 1.71944 0
M  V30 2268 O 223.824 -3.22887 1.50407 0
M  V30 2269 O 222.683 -5.05477 2.07738 0
M  V30 2270 H 219.777 -0.777728 0.28119 0
M  V30 2271 H 222.323 -1.18118 1.21845 0
M  V30 2272 H 221.095 -2.95229 2.56818 0
M  V30 2273 H 220.718 -3.82342 1.09088 0
M  V30 2274 N 221.715 -0.905404 -1.28997 0
M  V30 2275 C 222.943 -0.549846 -1.9946 0
M  V30 2276 C 223.358 0.866834 -1.67724 0
M  V30 2277 O 222.715 1.57298 -0.925404 0
M  V30 2278 C 222.766 -0.739387 -3.53858 0
M  V30 2279 O 222.487 -2.10031 -3.84472 0
M  V30 2280 C 223.988 -0.389541 -4.41585 0
M  V30 2281 H 221.208 -0.210429 -0.637151 0
M  V30 2282 H 223.752 -1.21632 -1.64396 0
M  V30 2283 H 221.907 -0.120023 -3.87214 0
M  V30 2284 H 222.321 -2.13385 -4.79132 0
M  V30 2285 H 223.795 -0.572972 -5.49018 0
M  V30 2286 H 224.272 0.673756 -4.34001 0
M  V30 2287 H 224.878 -0.986089 -4.1371 0
M  V30 2288 N 223.193 1.4272 -0.668489 0
M  V30 2289 C 224.125 2.2914 0.052613 0
M  V30 2290 C 225.138 1.43339 0.771857 0
M  V30 2291 O 226.327 1.67123 0.627067 0
M  V30 2292 C 223.427 3.20618 1.09804 0
M  V30 2293 C 222.6 4.35039 0.45389 0
M  V30 2294 C 221.659 5.07282 1.39825 0
M  V30 2295 O 220.685 5.62024 0.900978 0
M  V30 2296 N 221.887 5.12206 2.73176 0
M  V30 2297 H 224.652 2.91668 -0.689209 0
M  V30 2298 H 222.213 1.53577 -0.512422 0
M  V30 2299 H 224.205 3.65815 1.73094 0
M  V30 2300 H 222.775 2.59585 1.74167 0
M  V30 2301 H 221.995 3.92567 -0.358396 0
M  V30 2302 H 223.283 5.088 0.00486972 0
M  V30 2303 H 222.681 4.6913 3.16122 0
M  V30 2304 H 221.238 5.61069 3.31729 0
M  V30 2305 N 224.671 0.411399 1.52136 0
M  V30 2306 C 225.618 -0.412975 2.27075 0
M  V30 2307 C 226.588 -1.03912 1.29582 0
M  V30 2308 O 227.773 -1.06296 1.58448 0
M  V30 2309 C 224.913 -1.52247 3.09701 0
M  V30 2310 C 224.026 -0.917021 4.22155 0
M  V30 2311 C 223.161 -1.9994 4.92135 0
M  V30 2312 C 222.2 -1.37101 5.96548 0
M  V30 2313 N 221.337 -2.39364 6.60038 0
M  V30 2314 H 226.177 0.232499 2.97092 0
M  V30 2315 H 223.714 0.126496 1.46555 0
M  V30 2316 H 225.672 -2.17674 3.55913 0
M  V30 2317 H 224.302 -2.13794 2.41851 0
M  V30 2318 H 223.354 -0.151742 3.80097 0
M  V30 2319 H 224.666 -0.418006 4.97045 0
M  V30 2320 H 223.82 -2.73088 5.41763 0
M  V30 2321 H 222.559 -2.53208 4.16818 0
M  V30 2322 H 221.564 -0.624873 5.46237 0
M  V30 2323 H 222.789 -0.845998 6.7381 0
M  V30 2324 H 220.735 -2.91759 5.87548 0
M  V30 2325 H 220.652 -1.9428 7.3061 0
M  V30 2326 H 221.92 -3.12074 7.14304 0
M  V30 2327 N 226.149 -1.5696 0.141893 0
M  V30 2328 C 227.397 -1.95573 -0.509484 0
M  V30 2329 C 227.718 -1.02746 -1.65736 0
M  V30 2330 O 226.988 -0.0880311 -1.95702 0
M  V30 2331 H 225.568 -0.722115 -0.191205 0
M  V30 2332 H 228.23 -1.93697 0.216196 0
M  V30 2333 H 227.326 -2.99171 -0.889 0
M  V30 2334 N 227.627 0.131896 -1.57047 0
M  V30 2335 C 228.873 0.843179 -1.84441 0
M  V30 2336 C 229.206 1.80129 -0.725749 0
M  V30 2337 O 228.481 1.92624 0.269469 0
M  V30 2338 C 228.764 1.60442 -3.22382 0
M  V30 2339 C 228.617 0.666782 -4.4483 0
M  V30 2340 C 229.936 2.56354 -3.5773 0
M  V30 2341 H 227.055 0.305081 -0.670891 0
M  V30 2342 H 229.697 0.107839 -1.89694 0
M  V30 2343 H 227.847 2.23128 -3.18035 0
M  V30 2344 H 229.519 0.0497646 -4.61273 0
M  V30 2345 H 227.762 -0.022609 -4.33794 0
M  V30 2346 H 228.433 1.23579 -5.37989 0
M  V30 2347 H 230.909 2.0378 -3.62785 0
M  V30 2348 H 229.785 3.06657 -4.5525 0
M  V30 2349 H 230.046 3.38419 -2.84473 0
M  V30 2350 N 229.106 1.52395 0.401703 0
M  V30 2351 C 230.352 1.68019 1.14635 0
M  V30 2352 C 230.707 0.408722 1.88009 0
M  V30 2353 O 230 -0.597133 1.82057 0
M  V30 2354 C 230.194 2.84578 2.16217 0
M  V30 2355 C 230.023 4.22938 1.5282 0
M  V30 2356 C 228.793 4.88352 1.29772 0
M  V30 2357 C 230.991 5.04778 0.985094 0
M  V30 2358 N 228.973 6.10726 0.623455 0
M  V30 2359 C 230.344 6.1845 0.438172 0
M  V30 2360 C 232.399 4.90057 0.880275 0
M  V30 2361 C 231.102 7.19013 -0.203306 0
M  V30 2362 C 233.128 5.9086 0.252639 0
M  V30 2363 C 232.49 7.03829 -0.283573 0
M  V30 2364 H 228.589 0.668413 0.405892 0
M  V30 2365 H 231.173 1.89717 0.437674 0
M  V30 2366 H 229.344 2.64483 2.84435 0
M  V30 2367 H 231.076 2.89202 2.83098 0
M  V30 2368 H 227.831 4.46846 1.56926 0
M  V30 2369 H 228.255 6.76323 0.302733 0
M  V30 2370 H 232.897 4.02938 1.28065 0
M  V30 2371 H 230.615 8.05751 -0.615726 0
M  V30 2372 H 234.201 5.81543 0.172954 0
M  V30 2373 H 233.081 7.80493 -0.761575 0
M  V30 2374 N 230.584 -0.659388 1.43143 0
M  V30 2375 C 231.995 -1.24041 1.39537 0
M  V30 2376 C 232.346 -1.95963 0.0963364 0
M  V30 2377 O 231.471 -2.00892 -0.804438 0
M  V30 2378 C 232.066 -2.25601 2.52764 0
M  V30 2379 C 230.625 -2.79195 2.52443 0
M  V30 2380 C 229.772 -1.53743 2.30778 0
M  V30 2381 H 232.723 -0.451792 1.52133 0
M  V30 2382 H 232.744 -3.07651 2.23899 0
M  V30 2383 H 232.256 -1.73226 3.47296 0
M  V30 2384 H 230.357 -3.35649 1.61773 0
M  V30 2385 H 230.47 -3.2716 3.50004 0
M  V30 2386 H 228.834 -1.80869 1.79328 0
M  V30 2387 H 229.617 -1.03312 3.27386 0
M  V30 2388 N 232.062 -1.29571 -0.897171 0
M  V30 2389 C 233.308 -1.17863 -1.65034 0
M  V30 2390 C 233.641 0.268729 -1.92332 0
M  V30 2391 O 232.916 1.19378 -1.53555 0
M  V30 2392 C 233.199 -1.995 -2.99786 0
M  V30 2393 C 233.052 -3.5239 -2.79538 0
M  V30 2394 C 234.371 -1.82335 -4.00552 0
M  V30 2395 H 231.49 -0.429528 -0.598895 0
M  V30 2396 H 234.132 -1.59072 -1.03905 0
M  V30 2397 H 232.282 -1.64485 -3.51962 0
M  V30 2398 H 233.954 -3.97401 -2.34244 0
M  V30 2399 H 232.197 -3.77187 -2.14273 0
M  V30 2400 H 232.868 -4.04787 -3.75302 0
M  V30 2401 H 235.344 -2.12924 -3.57495 0
M  V30 2402 H 234.22 -2.41801 -4.92771 0
M  V30 2403 H 234.481 -0.779209 -4.35179 0
M  V30 2404 N 233.54 1.10788 -1.12088 0
M  V30 2405 C 234.788 1.8231 -0.872205 0
M  V30 2406 C 235.109 1.85419 0.603709 0
M  V30 2407 O 234.379 1.32963 1.43867 0
M  V30 2408 H 232.959 0.675137 -0.319686 0
M  V30 2409 H 235.621 1.34068 -1.41463 0
M  V30 2410 H 234.717 2.85955 -1.25045 0
M  V30 2411 N 235.018 0.912232 1.28515 0
M  V30 2412 C 236.246 0.560416 1.99166 0
M  V30 2413 C 236.661 -0.857927 1.68182 0
M  V30 2414 O 236.018 -1.56805 0.933733 0
M  V30 2415 C 236.069 0.758142 3.53461 0
M  V30 2416 O 235.79 2.12067 3.83352 0
M  V30 2417 C 237.291 0.412954 4.41372 0
M  V30 2418 H 234.511 0.213805 0.636026 0
M  V30 2419 H 237.055 1.22502 1.63749 0
M  V30 2420 H 235.21 0.140556 3.87145 0
M  V30 2421 H 235.624 2.15923 4.77993 0
M  V30 2422 H 237.098 0.60208 5.48707 0
M  V30 2423 H 237.575 -0.65073 4.34353 0
M  V30 2424 H 238.181 1.00802 4.13182 0
M  V30 2425 N 236.496 -1.42363 0.676048 0
M  V30 2426 C 237.721 -2.06377 0.205705 0
M  V30 2427 C 238.146 -1.50463 -1.12883 0
M  V30 2428 O 237.504 -0.623619 -1.70237 0
M  V30 2429 C 237.552 -3.60277 0.152655 0
M  V30 2430 O 236.656 -4.02935 -0.87845 0
M  V30 2431 H 235.997 -0.655588 0.105359 0
M  V30 2432 H 238.527 -1.82475 0.925412 0
M  V30 2433 H 238.537 -4.07993 -0.0230675 0
M  V30 2434 H 237.212 -4.00346 1.12675 0
M  V30 2435 H 235.789 -3.66764 -0.673668 0
M  V30 2436 N 237.974 -0.419461 -1.51915 0
M  V30 2437 C 239.22 0.145505 -2.02879 0
M  V30 2438 C 239.575 1.41926 -1.29903 0
M  V30 2439 O 238.868 1.87383 -0.399782 0
M  V30 2440 C 239.062 0.437067 -3.54717 0
M  V30 2441 C 238.891 -0.806877 -4.42402 0
M  V30 2442 C 237.661 -1.33514 -4.87342 0
M  V30 2443 C 239.859 -1.68796 -4.85811 0
M  V30 2444 N 237.841 -2.53349 -5.59185 0
M  V30 2445 C 239.212 -2.73247 -5.56539 0
M  V30 2446 C 241.267 -1.70449 -4.67816 0
M  V30 2447 C 239.97 -3.79276 -6.11181 0
M  V30 2448 C 241.996 -2.75403 -5.23361 0
M  V30 2449 C 241.358 -3.78575 -5.9402 0
M  V30 2450 H 237.457 0.0145424 -0.781865 0
M  V30 2451 H 240.041 -0.576126 -1.85981 0
M  V30 2452 H 238.212 1.12774 -3.71667 0
M  V30 2453 H 239.944 0.99182 -3.92358 0
M  V30 2454 H 236.699 -0.891657 -4.65131 0
M  V30 2455 H 237.123 -3.14066 -5.99743 0
M  V30 2456 H 241.765 -0.920209 -4.12664 0
M  V30 2457 H 239.483 -4.58554 -6.65397 0
M  V30 2458 H 243.069 -2.77603 -5.113 0
M  V30 2459 H 241.949 -4.58453 -6.36231 0
M  V30 2460 N 239.452 1.56882 -0.150215 0
M  V30 2461 C 240.729 1.87844 0.545327 0
M  V30 2462 C 241.109 1.0567 1.82749 0
M  V30 2463 O 240.457 0.144442 2.28043 0
M  V30 2464 C 240.667 3.39526 0.80767 0
M  V30 2465 C 242.015 4.08814 1.14703 0
M  V30 2466 O 243.039 3.44723 0.896917 0
M  V30 2467 O 241.898 5.22004 1.61784 0
M  V30 2468 H 238.992 0.778677 0.278553 0
M  V30 2469 H 241.538 1.68666 -0.187068 0
M  V30 2470 H 240.31 3.91173 -0.0996096 0
M  V30 2471 H 239.933 3.64243 1.59413 0
M  V30 2472 N 240.93 -0.123565 1.57115 0
M  V30 2473 C 241.862 -1.17739 1.96648 0
M  V30 2474 C 242.875 -1.37906 0.865201 0
M  V30 2475 O 244.064 -1.37062 1.14351 0
M  V30 2476 C 241.164 -2.53821 2.24562 0
M  V30 2477 C 240.337 -2.54317 3.55867 0
M  V30 2478 C 239.396 -3.72112 3.72047 0
M  V30 2479 O 238.422 -3.55907 4.44206 0
M  V30 2480 N 239.624 -4.90498 3.10471 0
M  V30 2481 H 242.389 -0.841147 2.87654 0
M  V30 2482 H 239.95 -0.31289 1.58848 0
M  V30 2483 H 241.942 -3.31175 2.32606 0
M  V30 2484 H 240.512 -2.79645 1.39705 0
M  V30 2485 H 239.732 -1.62711 3.59053 0
M  V30 2486 H 241.02 -2.51701 4.42181 0
M  V30 2487 H 240.418 -5.06567 2.51806 0
M  V30 2488 H 238.975 -5.65544 3.24043 0
M  V30 2489 N 242.408 -1.52605 -0.393616 0
M  V30 2490 C 243.636 -1.71294 -1.16043 0
M  V30 2491 C 244.051 -0.429259 -1.83855 0
M  V30 2492 O 243.408 0.595921 -1.72496 0
M  V30 2493 C 243.459 -2.8593 -2.21193 0
M  V30 2494 O 243.18 -4.09329 -1.56146 0
M  V30 2495 C 244.681 -3.16259 -3.10636 0
M  V30 2496 H 241.901 -0.573641 -0.348104 0
M  V30 2497 H 244.445 -1.99234 -0.461092 0
M  V30 2498 H 242.6 -2.60465 -2.86769 0
M  V30 2499 H 243.014 -4.73323 -2.25978 0
M  V30 2500 H 244.488 -3.99946 -3.80456 0
M  V30 2501 H 244.965 -2.3045 -3.73884 0
M  V30 2502 H 245.571 -3.43547 -2.50711 0
M  V30 2503 N 243.887 0.651787 -1.4349 0
M  V30 2504 C 245.298 1.233 -1.40193 0
M  V30 2505 C 245.649 1.9591 -0.106727 0
M  V30 2506 O 244.774 2.01316 0.793773 0
M  V30 2507 C 245.369 2.24257 -2.53957 0
M  V30 2508 C 243.928 2.77852 -2.5392 0
M  V30 2509 C 243.075 1.52517 -2.3159 0
M  V30 2510 H 246.026 0.443717 -1.52371 0
M  V30 2511 H 246.047 3.0646 -2.25528 0
M  V30 2512 H 245.559 1.71382 -3.4821 0
M  V30 2513 H 243.66 3.34786 -1.63551 0
M  V30 2514 H 243.773 3.25299 -3.51735 0
M  V30 2515 H 242.137 1.79915 -1.80285 0
M  V30 2516 H 242.92 1.01574 -3.27929 0
M  V30 2517 N 245.365 1.30045 0.890287 0
M  V30 2518 C 246.328 1.15963 1.977 0
M  V30 2519 C 247.328 0.0923777 1.60534 0
M  V30 2520 O 248.518 0.340071 1.70848 0
M  V30 2521 C 245.65 0.775451 3.31963 0
M  V30 2522 H 246.843 2.12502 2.11619 0
M  V30 2523 H 244.396 1.13366 1.07601 0
M  V30 2524 H 245.131 -0.189671 3.23745 0
M  V30 2525 H 244.916 1.54668 3.60306 0
M  V30 2526 H 246.406 0.700251 4.11687 0
M  V30 2527 N 246.843 -1.10192 1.12674 0
M  V30 2528 C 248.089 -1.82475 0.884915 0
M  V30 2529 C 248.422 -1.85093 -0.58773 0
M  V30 2530 O 247.697 -1.3134 -1.43457 0
M  V30 2531 C 247.98 -3.29018 1.46353 0
M  V30 2532 C 247.833 -3.34718 3.00473 0
M  V30 2533 C 249.152 -4.25473 1.12519 0
M  V30 2534 H 246.271 -0.662492 0.322915 0
M  V30 2535 H 248.913 -1.2913 1.39375 0
M  V30 2536 H 247.063 -3.74576 1.03077 0
M  V30 2537 H 248.735 -2.97622 3.52447 0
M  V30 2538 H 246.978 -2.74541 3.35872 0
M  V30 2539 H 247.649 -4.37918 3.36053 0
M  V30 2540 H 250.125 -3.88161 1.499 0
M  V30 2541 H 249.001 -5.26365 1.55663 0
M  V30 2542 H 249.262 -4.42084 0.0377407 0
M  V30 2543 N 248.321 -0.919034 -1.28029 0
M  V30 2544 C 249.567 -0.555757 -1.95036 0
M  V30 2545 C 249.9 0.899198 -1.72128 0
M  V30 2546 O 249.175 1.64023 -1.04531 0
M  V30 2547 C 249.458 -0.872024 -3.49382 0
M  V30 2548 C 249.311 -2.3801 -3.81669 0
M  V30 2549 C 250.63 -0.37185 -4.38526 0
M  V30 2550 H 247.749 -0.203386 -0.708381 0
M  V30 2551 H 250.391 -1.14924 -1.51303 0
M  V30 2552 H 248.541 -0.366946 -3.86763 0
M  V30 2553 H 250.213 -2.9562 -3.54128 0
M  V30 2554 H 248.456 -2.83289 -3.28526 0
M  V30 2555 H 249.127 -2.55192 -4.8947 0
M  V30 2556 H 251.603 -0.804602 -4.08247 0
M  V30 2557 H 250.479 -0.622173 -5.45362 0
M  V30 2558 H 250.74 0.727934 -4.36066 0
M  V30 2559 N 249.799 1.42003 -0.683588 0
M  V30 2560 C 251.076 1.95112 -0.138075 0
M  V30 2561 C 251.456 1.62359 1.34918 0
M  V30 2562 O 250.804 0.924311 2.08971 0
M  V30 2563 C 251.014 3.46505 -0.416581 0
M  V30 2564 C 252.362 4.23254 -0.337834 0
M  V30 2565 O 253.386 3.54468 -0.35082 0
M  V30 2566 O 252.245 5.45743 -0.287596 0
M  V30 2567 H 249.339 0.826961 -0.00797996 0
M  V30 2568 H 251.885 1.51784 -0.758924 0
M  V30 2569 H 250.657 3.63582 -1.4465 0
M  V30 2570 H 250.28 3.969 0.235839 0
M  V30 2571 N 251.277 0.427512 1.51691 0
M  V30 2572 C 252.502 -0.143601 2.06902 0
M  V30 2573 C 252.927 -1.36536 1.29382 0
M  V30 2574 O 252.285 -1.78289 0.329043 0
M  V30 2575 C 252.333 -0.454207 3.57728 0
M  V30 2576 O 251.437 -1.54228 3.82475 0
M  V30 2577 H 250.778 -0.00617128 0.663971 0
M  V30 2578 H 253.308 0.606014 1.95419 0
M  V30 2579 H 253.318 -0.707525 4.01818 0
M  V30 2580 H 251.993 0.438812 4.13579 0
M  V30 2581 H 250.57 -1.2797 3.50254 0
M  V30 2582 N 252.755 -1.56801 0.158532 0
M  V30 2583 C 253.685 -2.20347 -0.772609 0
M  V30 2584 C 254.666 -1.15518 -1.24859 0
M  V30 2585 O 255.851 -1.43902 -1.30406 0
M  V30 2586 C 252.981 -2.83417 -2.00729 0
M  V30 2587 C 251.935 -3.94174 -1.66765 0
M  V30 2588 C 251.261 -4.44233 -2.97592 0
M  V30 2589 C 252.561 -5.14392 -0.905447 0
M  V30 2590 H 254.255 -2.98413 -0.242959 0
M  V30 2591 H 251.801 -1.43537 -0.115419 0
M  V30 2592 H 253.754 -3.26543 -2.6636 0
M  V30 2593 H 252.478 -2.02701 -2.56086 0
M  V30 2594 H 251.137 -3.51684 -1.03508 0
M  V30 2595 H 250.785 -3.60325 -3.50963 0
M  V30 2596 H 250.485 -5.18945 -2.75626 0
M  V30 2597 H 252.009 -4.90037 -3.64274 0
M  V30 2598 H 253.423 -5.5429 -1.46408 0
M  V30 2599 H 251.82 -5.9494 -0.7853 0
M  V30 2600 H 252.89 -4.84795 0.100668 0
M  V30 2601 N 254.233 0.115231 -1.57178 0
M  V30 2602 C 255.644 0.67197 -1.74188 0
M  V30 2603 C 255.995 1.80125 -0.777777 0
M  V30 2604 O 255.12 2.16346 0.0484376 0
M  V30 2605 C 255.715 1.22573 -3.1585 0
M  V30 2606 C 254.274 1.72872 -3.34353 0
M  V30 2607 C 253.421 0.629972 -2.70049 0
M  V30 2608 H 256.372 -0.110712 -1.58313 0
M  V30 2609 H 256.393 2.09535 -3.17609 0
M  V30 2610 H 255.905 0.403598 -3.85996 0
M  V30 2611 H 254.006 2.5755 -2.69256 0
M  V30 2612 H 254.119 1.83557 -4.42542 0
M  V30 2613 H 252.483 1.0645 -2.31388 0
M  V30 2614 H 253.266 -0.181241 -3.42821 0
M  V30 2615 N 255.711 1.52812 0.385517 0
M  V30 2616 C 256.959 1.67694 1.12797 0
M  V30 2617 C 257.28 0.421115 1.90399 0
M  V30 2618 O 256.55 -0.564551 1.87589 0
M  V30 2619 H 255.13 0.618155 0.419396 0
M  V30 2620 H 257.792 1.89938 0.436972 0
M  V30 2621 H 256.888 2.52896 1.82894 0
M  V30 2622 N 257.189 -0.644168 1.43834 0
M  V30 2623 C 258.437 -1.40117 1.45642 0
M  V30 2624 C 258.758 -1.94814 0.0852413 0
M  V30 2625 O 258.028 -1.74988 -0.880688 0
M  V30 2626 H 256.608 -0.52005 0.536243 0
M  V30 2627 H 259.27 -0.7591 1.7951 0
M  V30 2628 H 258.366 -2.23902 2.17427 0
M  V30 2629 N 258.668 -1.30515 -0.883378 0
M  V30 2630 C 259.631 -1.1701 -1.97082 0
M  V30 2631 C 260.631 -0.10089 -1.60483 0
M  V30 2632 O 261.821 -0.349127 -1.70666 0
M  V30 2633 C 258.953 -0.793045 -3.31547 0
M  V30 2634 H 260.146 -2.13622 -2.10489 0
M  V30 2635 H 257.699 -1.13935 -1.06998 0
M  V30 2636 H 258.434 0.172499 -3.23841 0
M  V30 2637 H 258.219 -1.56576 -3.5948 0
M  V30 2638 H 259.709 -0.722073 -4.1131 0
M  V30 2639 N 260.146 1.09593 -1.13257 0
M  V30 2640 C 261.376 1.85231 -0.915049 0
M  V30 2641 C 261.784 1.81345 0.539498 0
M  V30 2642 O 261.127 1.20664 1.38513 0
M  V30 2643 C 261.189 3.34275 -1.3229 0
M  V30 2644 C 260.853 3.6191 -2.79052 0
M  V30 2645 C 261.85 3.57777 -3.77216 0
M  V30 2646 C 259.535 3.90309 -3.16171 0
M  V30 2647 C 261.529 3.81652 -5.1051 0
M  V30 2648 C 259.216 4.13839 -4.49644 0
M  V30 2649 C 260.214 4.09502 -5.46623 0
M  V30 2650 O 259.902 4.32426 -6.77689 0
M  V30 2651 H 259.634 0.591997 -0.326367 0
M  V30 2652 H 262.188 1.394 -1.50854 0
M  V30 2653 H 260.418 3.80805 -0.672667 0
M  V30 2654 H 262.107 3.9132 -1.07812 0
M  V30 2655 H 262.873 3.35865 -3.49885 0
M  V30 2656 H 258.752 3.92811 -2.41289 0
M  V30 2657 H 262.296 3.78182 -5.86195 0
M  V30 2658 H 258.193 4.35232 -4.767 0
M  V30 2659 H 258.961 4.49896 -6.83766 0
M  V30 2660 N 261.624 0.925811 1.2754 0
M  V30 2661 C 262.572 0.413897 2.28888 0
M  V30 2662 C 263.566 -0.500779 1.61829 0
M  V30 2663 O 264.772 -0.38069 1.75928 0
M  V30 2664 H 261.147 0.115274 0.743112 0
M  V30 2665 H 263.118 1.28151 2.69481 0
M  V30 2666 C 261.867 -0.319792 3.46226 0
M  V30 2667 H 261.19 0.374846 3.98039 0
M  V30 2668 H 262.63 -0.642435 4.19105 0
M  V30 2669 C 261.089 -1.53209 3.00048 0
M  V30 2670 O 261.619 -2.6309 3.03557 0
M  V30 2671 N 259.825 -1.38326 2.55566 0
M  V30 2672 H 259.372 -0.489292 2.5291 0
M  V30 2673 H 259.33 -2.19564 2.25031 0
M  V30 2674 N 263.102 -1.41638 0.69111 0
M  V30 2675 C 264.513 -1.84346 0.295517 0
M  V30 2676 C 264.864 -1.57833 -1.16547 0
M  V30 2677 O 263.989 -1.04648 -1.89414 0
M  V30 2678 C 264.584 -3.34636 0.529575 0
M  V30 2679 C 263.143 -3.7593 0.187944 0
M  V30 2680 C 262.29 -2.65082 0.814052 0
M  V30 2681 H 265.241 -1.31253 0.892092 0
M  V30 2682 H 265.262 -3.79903 -0.213148 0
M  V30 2683 H 264.774 -3.53901 1.59297 0
M  V30 2684 H 262.875 -3.62268 -0.871367 0
M  V30 2685 H 262.988 -4.74808 0.63985 0
M  V30 2686 H 261.352 -2.53528 0.244017 0
M  V30 2687 H 262.135 -2.87167 1.88123 0
M  V30 2688 N 264.58 -0.43555 -1.51462 0
M  V30 2689 C 265.826 0.131709 -2.02372 0
M  V30 2690 C 266.159 1.42516 -1.3192 0
M  V30 2691 O 265.434 1.89606 -0.433573 0
M  V30 2692 C 265.717 0.352301 -3.58373 0
M  V30 2693 C 265.57 -0.959676 -4.39443 0
M  V30 2694 C 266.889 1.12286 -4.25535 0
M  V30 2695 H 264.008 0.0463936 -0.735538 0
M  V30 2696 H 266.65 -0.574197 -1.81116 0
M  V30 2697 H 264.8 0.9536 -3.76615 0
M  V30 2698 H 266.472 -1.59482 -4.32855 0
M  V30 2699 H 264.715 -1.56468 -4.04599 0
M  V30 2700 H 265.386 -0.759394 -5.46752 0
M  V30 2701 H 267.862 0.613545 -4.11552 0
M  V30 2702 H 266.738 1.24598 -5.34571 0
M  V30 2703 H 266.999 2.15048 -3.86273 0
M  V30 2704 N 266.058 1.56714 -0.166846 0
M  V30 2705 C 266.988 2.20754 0.760913 0
M  V30 2706 C 267.969 1.16178 1.24244 0
M  V30 2707 O 269.154 1.44592 1.29641 0
M  V30 2708 C 266.284 2.84478 1.99223 0
M  V30 2709 C 265.238 3.95053 1.64672 0
M  V30 2710 C 264.564 4.45805 2.95232 0
M  V30 2711 C 265.864 5.14865 0.878155 0
M  V30 2712 H 267.558 2.98537 0.22713 0
M  V30 2713 H 265.104 1.43596 0.107805 0
M  V30 2714 H 267.057 3.27951 2.64624 0
M  V30 2715 H 265.781 2.04056 2.55007 0
M  V30 2716 H 264.44 3.52228 1.01641 0
M  V30 2717 H 264.088 3.62181 3.49047 0
M  V30 2718 H 263.788 5.204 2.7287 0
M  V30 2719 H 265.312 4.91962 3.6167 0
M  V30 2720 H 266.726 5.55059 1.43466 0
M  V30 2721 H 265.123 5.95348 0.753738 0
M  V30 2722 H 266.193 4.84735 -0.126377 0
M  V30 2723 N 267.536 -0.106894 1.57237 0
M  V30 2724 C 268.484 -1.14944 2.02215 0
M  V30 2725 C 269.478 -1.42167 0.92114 0
M  V30 2726 O 270.684 -1.41987 1.10634 0
M  V30 2727 H 267.059 -0.387841 0.64427 0
M  V30 2728 H 269.03 -0.743683 2.88984 0
M  V30 2729 C 267.779 -2.4647 2.4525 0
M  V30 2730 H 267.102 -2.26363 3.29545 0
M  V30 2731 H 268.542 -3.17948 2.80508 0
M  V30 2732 C 267.001 -3.09921 1.321 0
M  V30 2733 O 267.531 -3.9651 0.643622 0
M  V30 2734 N 265.737 -2.69986 1.07497 0
M  V30 2735 H 265.284 -1.99667 1.62761 0
M  V30 2736 H 265.242 -3.12769 0.319876 0
M  V30 2737 N 269.014 -1.53014 -0.377408 0
M  V30 2738 C 270.262 -1.6829 -1.11906 0
M  V30 2739 C 270.583 -0.431206 -1.90173 0
M  V30 2740 O 269.853 0.554595 -1.87886 0
M  V30 2741 H 268.433 -0.620371 -0.416112 0
M  V30 2742 H 271.095 -1.90167 -0.426893 0
M  V30 2743 H 270.191 -2.53862 -1.8155 0
M  V30 2744 N 270.492 0.636531 -1.44174 0
M  V30 2745 C 271.722 1.42146 -1.49927 0
M  V30 2746 C 272.13 1.88812 -0.121063 0
M  V30 2747 O 271.473 1.61126 0.882267 0
M  V30 2748 C 271.535 2.67883 -2.39748 0
M  V30 2749 C 271.199 2.43048 -3.8701 0
M  V30 2750 C 272.196 2.05216 -4.77684 0
M  V30 2751 C 269.881 2.56856 -4.3166 0
M  V30 2752 C 271.875 1.81512 -6.11009 0
M  V30 2753 C 269.562 2.32766 -5.65034 0
M  V30 2754 C 270.56 1.95152 -6.54526 0
M  V30 2755 O 270.248 1.71326 -7.85431 0
M  V30 2756 H 269.98 0.442567 -0.51099 0
M  V30 2757 H 272.534 0.786158 -1.8976 0
M  V30 2758 H 270.764 3.34032 -1.94832 0
M  V30 2759 H 272.453 3.29874 -2.36513 0
M  V30 2760 H 273.219 1.94111 -4.44462 0
M  V30 2761 H 269.098 2.85104 -3.62266 0
M  V30 2762 H 272.642 1.52077 -6.80822 0
M  V30 2763 H 268.539 2.43479 -5.97819 0
M  V30 2764 H 269.307 1.85616 -7.97176 0
M  V30 2765 N 271.97 1.30982 0.876444 0
M  V30 2766 C 272.9 1.20668 1.99903 0
M  V30 2767 C 273.881 0.095354 1.69833 0
M  V30 2768 O 275.066 0.27885 1.92188 0
M  V30 2769 C 272.196 0.90655 3.3526 0
M  V30 2770 C 271.15 1.97675 3.79617 0
M  V30 2771 C 270.476 1.52943 5.1236 0
M  V30 2772 C 271.776 3.389 3.97422 0
M  V30 2773 H 273.47 2.14586 2.0879 0
M  V30 2774 H 271.016 1.03308 1.00317 0
M  V30 2775 H 272.969 0.821025 4.13324 0
M  V30 2776 H 271.693 -0.0682969 3.26529 0
M  V30 2777 H 270.352 2.05205 3.03787 0
M  V30 2778 H 270 0.54262 5.00065 0
M  V30 2779 H 269.7 2.24532 5.43009 0
M  V30 2780 H 271.224 1.45786 5.92941 0
M  V30 2781 H 272.638 3.34081 4.659 0
M  V30 2782 H 271.035 4.0865 4.3946 0
M  V30 2783 H 272.105 3.80163 3.01006 0
M  V30 2784 N 273.449 -1.08991 1.13837 0
M  V30 2785 C 274.726 -1.77863 0.813876 0
M  V30 2786 C 275.106 -1.99375 -0.693746 0
M  V30 2787 O 274.454 -1.59875 -1.63255 0
M  V30 2788 C 274.664 -3.0986 1.60586 0
M  V30 2789 C 276.012 -3.84493 1.8014 0
M  V30 2790 O 277.036 -3.19624 1.57222 0
M  V30 2791 O 275.895 -5.00957 2.18413 0
M  V30 2792 H 272.989 -0.771589 0.297624 0
M  V30 2793 H 275.535 -1.15507 1.24323 0
M  V30 2794 H 274.307 -2.89715 2.63022 0
M  V30 2795 H 273.93 -3.79942 1.17173 0
M  V30 2796 N 274.927 -0.932562 -1.27047 0
M  V30 2797 C 275.859 -0.392734 -2.2581 0
M  V30 2798 C 276.872 0.479241 -1.55586 0
M  V30 2799 O 278.061 0.291078 -1.76111 0
M  V30 2800 C 275.161 0.455456 -3.35826 0
M  V30 2801 C 274.334 -0.398355 -4.35582 0
M  V30 2802 C 273.393 0.387985 -5.24768 0
M  V30 2803 O 272.419 -0.206003 -5.68827 0
M  V30 2804 N 273.621 1.68664 -5.55457 0
M  V30 2805 H 276.386 -1.24173 -2.72766 0
M  V30 2806 H 273.947 -0.800511 -1.40725 0
M  V30 2807 H 275.939 0.988692 -3.92437 0
M  V30 2808 H 274.509 1.20522 -2.88432 0
M  V30 2809 H 273.729 -1.11286 -3.78165 0
M  V30 2810 H 275.017 -0.981889 -4.99236 0
M  V30 2811 H 274.415 2.19147 -5.21528 0
M  V30 2812 H 272.972 2.1663 -6.14748 0
M  V30 2813 N 276.405 1.4127 -0.698611 0
M  V30 2814 C 277.651 2.01478 -0.231207 0
M  V30 2815 C 277.984 1.55215 1.16713 0
M  V30 2816 O 277.259 0.764672 1.78838 0
M  V30 2817 C 277.542 3.58912 -0.292281 0
M  V30 2818 C 277.395 4.15293 -1.72778 0
M  V30 2819 C 278.714 4.38736 0.346194 0
M  V30 2820 H 275.833 0.732025 -0.0854878 0
M  V30 2821 H 278.475 1.67977 -0.887906 0
M  V30 2822 H 276.625 3.87582 0.26686 0
M  V30 2823 H 278.297 3.97486 -2.341 0
M  V30 2824 H 276.54 3.7022 -2.26096 0
M  V30 2825 H 277.211 5.24452 -1.72202 0
M  V30 2826 H 279.687 4.15897 -0.130035 0
M  V30 2827 H 278.563 5.48221 0.272932 0
M  V30 2828 H 278.824 4.18425 1.42734 0
M  V30 2829 N 277.883 0.443576 1.51229 0
M  V30 2830 C 278.846 -0.353132 2.26463 0
M  V30 2831 C 279.846 -0.944338 1.3015 0
M  V30 2832 O 281.036 -0.817813 1.5381 0
M  V30 2833 C 278.168 -1.50023 3.06114 0
M  V30 2834 H 279.361 0.3063 2.98332 0
M  V30 2835 H 276.914 0.196902 1.55055 0
M  V30 2836 H 277.649 -2.19553 2.38677 0
M  V30 2837 H 277.434 -1.08241 3.76864 0
M  V30 2838 H 278.924 -2.06296 3.63087 0
M  V30 2839 N 279.361 -1.56624 0.175154 0
M  V30 2840 C 280.271 -2.21741 -0.766042 0
M  V30 2841 C 281.287 -1.21023 -1.25018 0
M  V30 2842 O 282.463 -1.53697 -1.3015 0
M  V30 2843 C 279.528 -2.84839 -1.97655 0
M  V30 2844 C 278.589 -4.00769 -1.53892 0
M  V30 2845 C 277.822 -4.60849 -2.69173 0
M  V30 2846 O 278.045 -4.19823 -3.86141 0
M  V30 2847 O 276.979 -5.50655 -2.43028 0
M  V30 2848 H 280.805 -3.02738 -0.241585 0
M  V30 2849 H 278.39 -1.49305 -0.053222 0
M  V30 2850 H 280.272 -3.24834 -2.68442 0
M  V30 2851 H 278.947 -2.06836 -2.48999 0
M  V30 2852 H 277.854 -3.65436 -0.80044 0
M  V30 2853 H 279.187 -4.80376 -1.07236 0
M  V30 2854 N 280.839 0.0985539 -1.57292 0
M  V30 2855 C 282.085 0.798769 -1.87059 0
M  V30 2856 C 282.44 1.76514 -0.76555 0
M  V30 2857 O 281.733 1.90181 0.232752 0
M  V30 2858 C 281.927 1.56927 -3.21105 0
M  V30 2859 C 281.756 0.679026 -4.44544 0
M  V30 2860 C 280.526 0.326071 -5.04247 0
M  V30 2861 C 282.724 -0.0124715 -5.14298 0
M  V30 2862 N 280.706 -0.572702 -6.11223 0
M  V30 2863 C 282.077 -0.769446 -6.15207 0
M  V30 2864 C 284.132 -0.0867545 -4.97824 0
M  V30 2865 C 282.835 -1.59376 -7.01421 0
M  V30 2866 C 284.861 -0.897955 -5.84543 0
M  V30 2867 C 284.223 -1.64306 -6.84969 0
M  V30 2868 H 280.322 0.268568 -0.734435 0
M  V30 2869 H 282.906 0.0614664 -1.94603 0
M  V30 2870 H 281.077 2.27748 -3.1462 0
M  V30 2871 H 282.809 2.21641 -3.38611 0
M  V30 2872 H 279.564 0.67295 -4.68795 0
M  V30 2873 H 279.988 -1.01454 -6.69355 0
M  V30 2874 H 284.63 0.474963 -4.20124 0
M  V30 2875 H 282.348 -2.16655 -7.78515 0
M  V30 2876 H 285.934 -0.958059 -5.73858 0
M  V30 2877 H 284.814 -2.26065 -7.50909 0
M  V30 2878 N 282.317 1.53212 0.369288 0
M  V30 2879 C 283.28 1.7872 1.43498 0
M  V30 2880 C 284.28 0.657554 1.46741 0
M  V30 2881 O 285.47 0.925736 1.47566 0
M  V30 2882 C 282.602 1.90591 2.82645 0
M  V30 2883 H 283.795 2.73894 1.22156 0
M  V30 2884 H 281.348 1.44233 0.602203 0
M  V30 2885 H 282.083 0.974709 3.09306 0
M  V30 2886 H 281.868 2.72751 2.8169 0
M  V30 2887 H 283.358 2.11931 3.59826 0
M  V30 2888 N 283.795 -0.628877 1.44509 0
M  V30 2889 C 284.743 -1.76193 1.51852 0
M  V30 2890 C 285.737 -1.64849 0.390042 0
M  V30 2891 O 286.943 -1.709 0.565082 0
M  V30 2892 H 283.318 -0.581728 0.476547 0
M  V30 2893 H 285.289 -1.67123 2.47209 0
M  V30 2894 C 284.038 -3.14533 1.48204 0
M  V30 2895 H 283.361 -3.23911 2.34354 0
M  V30 2896 H 284.801 -3.93701 1.57402 0
M  V30 2897 C 283.26 -3.36287 0.203142 0
M  V30 2898 O 283.79 -3.9509 -0.725745 0
M  V30 2899 N 281.996 -2.90408 0.105563 0
M  V30 2900 H 281.543 -2.42739 0.862301 0
M  V30 2901 H 281.501 -3.05339 -0.749371 0
M  V30 2902 N 285.273 -1.31445 -0.869486 0
M  V30 2903 C 286.221 -1.19067 -1.99814 0
M  V30 2904 C 287.215 -0.0988569 -1.69111 0
M  V30 2905 O 288.421 -0.260781 -1.78101 0
M  V30 2906 H 284.796 -0.368677 -0.655425 0
M  V30 2907 H 286.767 -2.14555 -2.07385 0
M  V30 2908 C 285.516 -0.915323 -3.35436 0
M  V30 2909 H 284.839 -1.74759 -3.59582 0
M  V30 2910 H 286.279 -0.868895 -4.15001 0
M  V30 2911 C 284.738 0.381928 -3.34728 0
M  V30 2912 O 285.268 1.39857 -3.76567 0
M  V30 2913 N 283.474 0.398633 -2.87853 0
M  V30 2914 H 283.021 -0.429186 -2.54 0
M  V30 2915 H 282.979 1.26651 -2.87762 0
M  V30 2916 N 286.751 1.08385 -1.14413 0
M  V30 2917 C 287.681 2.17321 -0.854044 0
M  V30 2918 C 288.662 1.69024 0.191049 0
M  V30 2919 O 289.847 1.94141 0.0476779 0
M  V30 2920 C 286.977 3.45719 -0.330983 0
M  V30 2921 C 285.931 4.07409 -1.31155 0
M  V30 2922 C 285.257 5.30762 -0.64778 0
M  V30 2923 C 286.557 4.48665 -2.67388 0
M  V30 2924 H 288.251 2.41845 -1.76498 0
M  V30 2925 H 285.797 1.16233 -0.850051 0
M  V30 2926 H 287.75 4.21241 -0.115645 0
M  V30 2927 H 286.474 3.2075 0.615381 0
M  V30 2928 H 285.133 3.33919 -1.51306 0
M  V30 2929 H 284.781 5.02078 0.304398 0
M  V30 2930 H 284.481 5.72992 -1.30207 0
M  V30 2931 H 286.005 6.08998 -0.441972 0
M  V30 2932 H 287.419 5.15364 -2.51143 0
M  V30 2933 H 285.816 5.01814 -3.29093 0
M  V30 2934 H 286.886 3.60543 -3.24248 0
M  V30 2935 N 288.23 0.939286 1.26551 0
M  V30 2936 C 289.177 0.446088 2.26448 0
M  V30 2937 C 290.147 -0.493234 1.58608 0
M  V30 2938 O 291.332 -0.409857 1.86346 0
M  V30 2939 C 288.472 -0.284375 3.43926 0
M  V30 2940 C 287.585 0.690399 4.26448 0
M  V30 2941 C 286.72 -0.0610712 5.31165 0
M  V30 2942 C 285.759 0.905649 6.05363 0
M  V30 2943 N 284.896 0.186055 7.01853 0
M  V30 2944 H 289.736 1.30291 2.68008 0
M  V30 2945 H 287.273 0.65371 1.31776 0
M  V30 2946 H 289.231 -0.724313 4.10864 0
M  V30 2947 H 287.861 -1.10535 3.03285 0
M  V30 2948 H 286.913 1.24885 3.59316 0
M  V30 2949 H 288.225 1.42873 4.779 0
M  V30 2950 H 287.379 -0.56038 6.04106 0
M  V30 2951 H 286.118 -0.832297 4.80546 0
M  V30 2952 H 285.123 1.4161 5.3125 0
M  V30 2953 H 286.348 1.67685 6.58072 0
M  V30 2954 H 284.294 -0.566714 6.53548 0
M  V30 2955 H 284.211 0.863752 7.51049 0
M  V30 2956 H 285.479 -0.292221 7.78952 0
M  V30 2957 N 289.708 -1.40897 0.706093 0
M  V30 2958 C 290.985 -1.94868 0.169099 0
M  V30 2959 C 291.365 -1.64485 -1.32318 0
M  V30 2960 O 290.713 -0.95744 -2.07474 0
M  V30 2961 C 290.923 -3.45798 0.471654 0
M  V30 2962 C 292.271 -4.22663 0.405127 0
M  V30 2963 O 293.295 -3.53865 0.407168 0
M  V30 2964 O 292.154 -5.45216 0.374383 0
M  V30 2965 H 289.248 -0.82673 0.0211352 0
M  V30 2966 H 291.794 -1.50558 0.782976 0
M  V30 2967 H 290.566 -3.61235 1.50416 0
M  V30 2968 H 290.189 -3.97225 -0.172666 0
M  V30 2969 N 291.186 -0.45159 -1.50991 0
M  V30 2970 C 292.096 0.358431 -2.31846 0
M  V30 2971 C 293.112 1.01438 -1.41373 0
M  V30 2972 O 294.288 1.00663 -1.74439 0
M  V30 2973 C 291.353 1.43704 -3.15515 0
M  V30 2974 C 290.414 0.799742 -4.21785 0
M  V30 2975 C 289.647 1.82696 -5.01456 0
M  V30 2976 O 289.87 3.05105 -4.81941 0
M  V30 2977 O 288.804 1.40958 -5.85162 0
M  V30 2978 H 292.63 -0.302032 -3.02194 0
M  V30 2979 H 290.215 -0.213825 -1.47862 0
M  V30 2980 H 292.097 2.06227 -3.67489 0
M  V30 2981 H 290.772 2.08133 -2.47916 0
M  V30 2982 H 289.679 0.136084 -3.73852 0
M  V30 2983 H 291.012 0.198718 -4.91799 0
M  V30 2984 N 292.664 1.56529 -0.183458 0
M  V30 2985 C 293.596 2.15747 0.773697 0
M  V30 2986 C 294.609 1.1162 1.1851 0
M  V30 2987 O 295.798 1.3876 1.12285 0
M  V30 2988 C 292.898 2.6952 2.05456 0
M  V30 2989 C 292.071 3.98429 1.8048 0
M  V30 2990 C 291.13 4.37145 2.92901 0
M  V30 2991 O 290.156 5.04791 2.6301 0
M  V30 2992 N 291.358 3.99695 4.2098 0
M  V30 2993 H 294.123 2.98505 0.26736 0
M  V30 2994 H 291.684 1.619 -0.0010878 0
M  V30 2995 H 293.676 2.92412 2.79781 0
M  V30 2996 H 292.246 1.91282 2.47245 0
M  V30 2997 H 291.466 3.8379 0.899947 0
M  V30 2998 H 292.754 4.82597 1.61175 0
M  V30 2999 H 292.152 3.4526 4.48121 0
M  V30 3000 H 290.709 4.27562 4.9197 0
M  V30 3001 N 294.142 -0.090211 1.57342 0
M  V30 3002 C 295.39 -0.791241 1.85967 0
M  V30 3003 C 295.711 -1.7903 0.772859 0
M  V30 3004 O 294.981 -1.94872 -0.200398 0
M  V30 3005 H 293.561 -0.295205 0.686195 0
M  V30 3006 H 296.223 -0.0706782 1.94772 0
M  V30 3007 H 295.319 -1.31882 2.82867 0
M  V30 3008 N 295.62 -1.53406 -0.361157 0
M  V30 3009 C 297.036 -1.43277 -0.703124 0
M  V30 3010 C 297.236 -0.575384 -1.9311 0
M  V30 3011 O 296.292 -0.0595362 -2.5243 0
M  V30 3012 C 297.605 -2.8653 -0.9122 0
M  V30 3013 C 299.153 -2.96191 -1.01193 0
M  V30 3014 C 299.628 -4.40514 -1.25345 0
M  V30 3015 N 301.119 -4.43962 -1.32105 0
M  V30 3016 C 301.854 -5.52746 -1.5251 0
M  V30 3017 N 301.35 -6.71567 -1.70203 0
M  V30 3018 N 303.143 -5.40331 -1.54916 0
M  V30 3019 H 295.294 -2.07654 0.446475 0
M  V30 3020 H 297.557 -0.937944 0.137715 0
M  V30 3021 H 297.263 -3.51605 -0.0816414 0
M  V30 3022 H 297.137 -3.30441 -1.81903 0
M  V30 3023 H 299.524 -2.31266 -1.83303 0
M  V30 3024 H 299.605 -2.55667 -0.0823929 0
M  V30 3025 H 299.249 -5.06014 -0.437346 0
M  V30 3026 H 299.179 -4.78614 -2.19627 0
M  V30 3027 H 301.67 -3.58332 -1.20028 0
M  V30 3028 H 301.983 -7.50241 -1.85359 0
M  V30 3029 H 300.328 -6.74545 -1.67373 0
M  V30 3030 H 303.519 -4.46465 -1.40663 0
M  V30 3031 H 303.692 -6.25173 -1.70477 0
M  V30 3032 N 297.098 0.621204 -1.44841 0
M  V30 3033 C 298.028 1.74366 -1.55303 0
M  V30 3034 C 299.009 1.65199 -0.405385 0
M  V30 3035 O 300.194 1.83807 -0.626787 0
M  V30 3036 C 297.324 3.12931 -1.50637 0
M  V30 3037 C 296.278 3.36896 -2.63979 0
M  V30 3038 C 295.604 4.75594 -2.44366 0
M  V30 3039 C 296.904 3.28483 -4.06074 0
M  V30 3040 H 298.598 1.65867 -2.49256 0
M  V30 3041 H 296.144 0.796558 -1.19962 0
M  V30 3042 H 298.097 3.9124 -1.56555 0
M  V30 3043 H 296.821 3.22237 -0.532057 0
M  V30 3044 H 295.48 2.60972 -2.57467 0
M  V30 3045 H 295.128 4.81616 -1.45105 0
M  V30 3046 H 294.828 4.92586 -3.20364 0
M  V30 3047 H 296.352 5.5612 -2.52117 0
M  V30 3048 H 297.766 3.96684 -4.13902 0
M  V30 3049 H 296.163 3.57008 -4.82354 0
M  V30 3050 H 297.233 2.26133 -4.28943 0
M  V30 3051 N 298.576 1.31904 0.862503 0
M  V30 3052 C 299.825 1.21373 1.61094 0
M  V30 3053 C 300.138 -0.22504 1.94301 0
M  V30 3054 O 301.344 -0.452121 2.67709 0
M  V30 3055 C 299.8 2.12525 2.9045 0
M  V30 3056 C 299.408 3.61441 2.64697 0
M  V30 3057 C 301.152 2.10813 3.68454 0
M  V30 3058 C 299.059 4.44578 3.90006 0
M  V30 3059 H 297.989 0.450705 0.604468 0
M  V30 3060 H 300.64 1.56811 0.953027 0
M  V30 3061 H 299.022 1.69994 3.57656 0
M  V30 3062 H 300.196 4.12264 2.05851 0
M  V30 3063 H 298.511 3.65205 2.00036 0
M  V30 3064 H 301.108 2.70167 4.61426 0
M  V30 3065 H 301.451 1.09713 4.01583 0
M  V30 3066 H 301.984 2.51583 3.08141 0
M  V30 3067 H 298.723 5.46461 3.62023 0
M  V30 3068 H 298.243 3.98508 4.48276 0
M  V30 3069 H 299.922 4.57176 4.5782 0
M  V30 3070 N 300.054 -1.07777 1.14986 0
M  V30 3071 C 301.465 -1.61766 0.932127 0
M  V30 3072 C 301.816 -1.88974 -0.527581 0
M  V30 3073 O 300.941 -1.65198 -1.39781 0
M  V30 3074 C 301.536 -2.93891 1.68563 0
M  V30 3075 C 300.095 -3.44639 1.5133 0
M  V30 3076 C 299.242 -2.18767 1.704 0
M  V30 3077 H 302.193 -0.909201 1.30074 0
M  V30 3078 H 302.214 -3.62623 1.15259 0
M  V30 3079 H 301.726 -2.74057 2.74799 0
M  V30 3080 H 299.827 -3.69564 0.474702 0
M  V30 3081 H 299.94 -4.20966 2.28746 0
M  V30 3082 H 298.304 -2.28253 1.13016 0
M  V30 3083 H 299.087 -2.01433 2.77992 0
M  V30 3084 N 301.532 -0.945985 -1.26051 0
M  V30 3085 C 302.778 -0.597002 -1.93814 0
M  V30 3086 C 303.111 0.862484 -1.73997 0
M  V30 3087 O 302.386 1.61769 -1.07986 0
M  V30 3088 C 302.669 -0.945937 -3.47454 0
M  V30 3089 C 302.522 -2.46052 -3.76535 0
M  V30 3090 C 303.841 -0.464785 -4.37639 0
M  V30 3091 H 300.96 -0.218366 -0.703907 0
M  V30 3092 H 303.602 -1.18107 -1.48831 0
M  V30 3093 H 301.752 -0.448902 -3.85898 0
M  V30 3094 H 303.424 -3.03065 -3.47778 0
M  V30 3095 H 301.667 -2.90194 -3.22444 0
M  V30 3096 H 302.338 -2.65517 -4.83947 0
M  V30 3097 H 304.814 -0.891016 -4.06448 0
M  V30 3098 H 303.69 -0.737712 -5.4392 0
M  V30 3099 H 303.951 0.635274 -4.37512 0
M  V30 3100 N 303.011 1.40521 -0.713556 0
M  V30 3101 C 304.26 2.00155 -0.249192 0
M  V30 3102 C 304.573 1.57224 1.16362 0
M  V30 3103 O 305.779 2.09542 1.72639 0
M  V30 3104 C 304.235 3.5773 -0.3946 0
M  V30 3105 C 303.843 4.09635 -1.81392 0
M  V30 3106 C 305.587 4.24499 0.00907364 0
M  V30 3107 C 303.494 5.59707 -1.91003 0
M  V30 3108 H 302.424 0.74868 -0.0894114 0
M  V30 3109 H 305.075 1.60784 -0.884352 0
M  V30 3110 H 303.457 3.94792 0.30911 0
M  V30 3111 H 304.631 3.83955 -2.54785 0
M  V30 3112 H 302.946 3.55456 -2.16888 0
M  V30 3113 H 305.543 5.34683 -0.0420404 0
M  V30 3114 H 305.886 4.02824 1.05065 0
M  V30 3115 H 306.419 3.92536 -0.645007 0
M  V30 3116 H 303.158 5.86234 -2.93275 0
M  V30 3117 H 302.678 5.87258 -1.22019 0
M  V30 3118 H 304.357 6.24776 -1.6812 0
M  V30 3119 N 304.489 0.459591 1.5075 0
M  V30 3120 C 305.736 -0.0993495 2.02256 0
M  V30 3121 C 306.064 -1.40751 1.34237 0
M  V30 3122 O 305.319 -1.90379 0.453228 0
M  V30 3123 C 305.618 -0.342866 3.55752 0
M  V30 3124 C 305.284 0.88218 4.42186 0
M  V30 3125 C 303.946 1.21808 4.65528 0
M  V30 3126 C 306.298 1.69837 4.92752 0
M  V30 3127 C 303.626 2.37045 5.36681 0
M  V30 3128 C 305.978 2.84192 5.65171 0
M  V30 3129 C 304.642 3.1821 5.8677 0
M  V30 3130 H 303.912 -0.0363545 0.740108 0
M  V30 3131 H 306.559 0.611329 1.8148 0
M  V30 3132 H 304.864 -1.13567 3.7498 0
M  V30 3133 H 306.561 -0.789121 3.93159 0
M  V30 3134 H 303.151 0.610467 4.2423 0
M  V30 3135 H 307.335 1.45205 4.74583 0
M  V30 3136 H 302.591 2.63689 5.51614 0
M  V30 3137 H 306.765 3.4779 6.03337 0
M  V30 3138 H 304.392 4.07613 6.41682 0
M  V30 3139 N 305.967 -1.56429 0.191757 0
M  V30 3140 C 307.383 -1.58754 -0.164137 0
M  V30 3141 C 307.583 -1.20782 -1.61288 0
M  V30 3142 O 306.639 -0.928999 -2.34789 0
M  V30 3143 C 307.952 -3.00396 0.135195 0
M  V30 3144 C 309.5 -3.1291 0.0750351 0
M  V30 3145 C 309.975 -4.56679 0.347632 0
M  V30 3146 N 311.466 -4.62252 0.296131 0
M  V30 3147 C 312.201 -5.71379 0.480948 0
M  V30 3148 N 311.697 -6.88986 0.725933 0
M  V30 3149 N 313.49 -5.60563 0.415435 0
M  V30 3150 H 305.641 -1.79393 1.13718 0
M  V30 3151 H 307.904 -0.832414 0.453643 0
M  V30 3152 H 307.61 -3.32726 1.13958 0
M  V30 3153 H 307.484 -3.72963 -0.563773 0
M  V30 3154 H 309.871 -2.80394 -0.919948 0
M  V30 3155 H 309.952 -2.42736 0.807029 0
M  V30 3156 H 309.596 -4.89907 1.33992 0
M  V30 3157 H 309.526 -5.25039 -0.405212 0
M  V30 3158 H 312.017 -3.7773 0.113259 0
M  V30 3159 H 312.33 -7.68046 0.855857 0
M  V30 3160 H 310.675 -6.90801 0.762788 0
M  V30 3161 H 313.866 -4.67561 0.224486 0
M  V30 3162 H 314.039 -6.45551 0.562889 0
M  V30 3163 N 307.445 0.0818655 -1.57387 0
M  V30 3164 C 308.375 1.09885 -2.06028 0
M  V30 3165 C 309.356 1.4098 -0.951774 0
M  V30 3166 O 310.541 1.50781 -1.22387 0
M  V30 3167 C 307.671 2.4151 -2.4958 0
M  V30 3168 C 306.625 2.24792 -3.64215 0
M  V30 3169 C 305.951 3.61712 -3.93787 0
M  V30 3170 C 307.251 1.67749 -4.94629 0
M  V30 3171 H 308.945 0.694128 -2.91243 0
M  V30 3172 H 306.491 0.332448 -1.4011 0
M  V30 3173 H 308.444 3.12939 -2.82219 0
M  V30 3174 H 307.168 2.83943 -1.61381 0
M  V30 3175 H 305.827 1.55807 -3.31843 0
M  V30 3176 H 305.475 4.01697 -3.02735 0
M  V30 3177 H 305.175 3.51368 -4.70971 0
M  V30 3178 H 306.699 4.34587 -4.28913 0
M  V30 3179 H 308.113 2.29032 -5.25564 0
M  V30 3180 H 306.51 1.68128 -5.76067 0
M  V30 3181 H 307.58 0.638059 -4.80684 0
M  V30 3182 N 308.923 1.53595 0.353017 0
M  V30 3183 C 310.153 1.74058 1.11299 0
M  V30 3184 C 310.561 0.475205 1.83135 0
M  V30 3185 O 309.904 -0.562344 1.74881 0
M  V30 3186 C 309.966 2.85994 2.17825 0
M  V30 3187 C 309.63 4.25923 1.65647 0
M  V30 3188 C 310.627 5.07829 1.11383 0
M  V30 3189 C 308.312 4.72377 1.7078 0
M  V30 3190 C 310.306 6.34285 0.629439 0
M  V30 3191 C 307.993 5.98808 1.21953 0
M  V30 3192 C 308.991 6.79594 0.681265 0
M  V30 3193 O 308.679 8.03651 0.200248 0
M  V30 3194 H 308.411 0.585327 0.338183 0
M  V30 3195 H 310.965 2.01186 0.413927 0
M  V30 3196 H 309.195 2.54368 2.91262 0
M  V30 3197 H 310.884 2.94515 2.79313 0
M  V30 3198 H 311.65 4.73107 1.06746 0
M  V30 3199 H 307.529 4.0956 2.11617 0
M  V30 3200 H 311.073 6.97288 0.208636 0
M  V30 3201 H 306.97 6.33026 1.26287 0
M  V30 3202 H 307.738 8.1788 0.318416 0
M  V30 3203 N 310.401 -0.613514 1.45168 0
M  V30 3204 C 311.351 -1.71871 1.49815 0
M  V30 3205 C 312.335 -1.56774 0.362021 0
M  V30 3206 O 313.527 -1.66212 0.608493 0
M  V30 3207 C 310.656 -3.1061 1.46207 0
M  V30 3208 C 309.742 -3.31114 2.64999 0
M  V30 3209 N 310.133 -3.21904 3.90143 0
M  V30 3210 C 308.431 -3.61966 2.6057 0
M  V30 3211 C 309.132 -3.43577 4.69393 0
M  V30 3212 N 308.108 -3.67287 4.00751 0
M  V30 3213 H 311.91 -1.63235 2.444 0
M  V30 3214 H 309.424 -0.816577 1.40377 0
M  V30 3215 H 311.421 -3.8989 1.4762 0
M  V30 3216 H 310.081 -3.20399 0.52673 0
M  V30 3217 H 311.092 -3.00436 4.21852 0
M  V30 3218 H 307.769 -3.78629 1.75916 0
M  V30 3219 H 309.159 -3.41901 5.78406 0
M  V30 3220 N 311.879 -1.3236 -0.855495 0
M  V30 3221 C 312.789 -1.23221 -1.99634 0
M  V30 3222 C 313.805 -0.145983 -1.73387 0
M  V30 3223 O 314.981 -0.366502 -1.98037 0
M  V30 3224 C 312.046 -0.954782 -3.33294 0
M  V30 3225 C 311.107 -2.12937 -3.72769 0
M  V30 3226 C 310.34 -1.86508 -5.00051 0
M  V30 3227 O 310.563 -0.807231 -5.64659 0
M  V30 3228 O 309.497 -2.72591 -5.36636 0
M  V30 3229 H 313.323 -2.19126 -2.1028 0
M  V30 3230 H 310.908 -1.12241 -0.986018 0
M  V30 3231 H 312.79 -0.816519 -4.13414 0
M  V30 3232 H 311.465 -0.0258854 -3.2369 0
M  V30 3233 H 310.372 -2.3231 -2.93228 0
M  V30 3234 H 311.705 -3.04102 -3.87018 0
M  V30 3235 N 313.357 1.07166 -1.15556 0
M  V30 3236 C 314.305 2.16517 -0.8499 0
M  V30 3237 C 315.299 1.68468 0.177454 0
M  V30 3238 O 316.505 1.79971 0.0323026 0
M  V30 3239 H 312.88 0.706652 -0.25719 0
M  V30 3240 H 314.851 2.39514 -1.77976 0
M  V30 3241 C 313.6 3.45855 -0.357682 0
M  V30 3242 H 312.923 3.83214 -1.13961 0
M  V30 3243 H 314.363 4.23607 -0.182489 0
M  V30 3244 C 312.822 3.24062 0.921152 0
M  V30 3245 O 313.352 3.48813 1.9923 0
M  V30 3246 N 311.558 2.77539 0.86141 0
M  V30 3247 H 311.105 2.57598 -0.0104408 0
M  V30 3248 H 311.063 2.63337 1.71758 0
M  V30 3249 N 314.835 0.952656 1.25548 0
M  V30 3250 C 316.063 0.623496 1.97282 0
M  V30 3251 C 316.478 -0.803987 1.70826 0
M  V30 3252 O 315.835 -1.53755 0.983147 0
M  V30 3253 C 315.886 0.870209 3.5087 0
M  V30 3254 O 315.607 2.24156 3.76412 0
M  V30 3255 C 317.108 0.553164 4.39835 0
M  V30 3256 H 314.328 0.233931 0.628902 0
M  V30 3257 H 316.872 1.27649 1.59768 0
M  V30 3258 H 315.027 0.263652 3.86502 0
M  V30 3259 H 315.441 2.31021 4.70882 0
M  V30 3260 H 316.915 0.776342 5.46513 0
M  V30 3261 H 317.392 -0.512215 4.36203 0
M  V30 3262 H 317.998 1.13896 4.09766 0
M  V30 3263 N 316.313 -1.40141 0.720998 0
M  V30 3264 C 317.561 -2.0039 0.262323 0
M  V30 3265 C 317.882 -1.57469 -1.15015 0
M  V30 3266 O 317.152 -0.816582 -1.78069 0
M  V30 3267 H 315.732 -0.741063 0.093996 0
M  V30 3268 H 318.394 -1.71398 0.927835 0
M  V30 3269 H 317.49 -3.10658 0.299671 0
M  V30 3270 N 317.792 -0.46758 -1.50504 0
M  V30 3271 C 319.017 0.0886943 -2.0721 0
M  V30 3272 C 319.442 1.33057 -1.32956 0
M  V30 3273 O 318.8 1.77354 -0.376197 0
M  V30 3274 C 318.848 0.359202 -3.58806 0
M  V30 3275 O 317.952 1.44034 -3.8643 0
M  V30 3276 H 317.293 -0.0114349 -0.663902 0
M  V30 3277 H 319.823 -0.657613 -1.93744 0
M  V30 3278 H 319.833 0.600742 -4.03553 0
M  V30 3279 H 318.508 -0.548311 -4.1227 0
M  V30 3280 H 317.085 1.18638 -3.53524 0
M  V30 3281 N 319.27 1.56325 -0.20005 0
M  V30 3282 C 320.516 1.98772 0.431408 0
M  V30 3283 C 320.871 1.0849 1.58895 0
M  V30 3284 O 320.164 0.130331 1.91156 0
M  V30 3285 C 320.358 3.4495 0.935103 0
M  V30 3286 C 320.187 4.49371 -0.172096 0
M  V30 3287 C 318.957 5.0134 -0.631377 0
M  V30 3288 C 321.155 5.04822 -0.982806 0
M  V30 3289 N 319.137 5.89433 -1.71588 0
M  V30 3290 C 320.508 5.89632 -1.91661 0
M  V30 3291 C 322.563 4.87242 -1.02467 0
M  V30 3292 C 321.266 6.58741 -2.88881 0
M  V30 3293 C 323.292 5.57094 -1.98494 0
M  V30 3294 C 322.654 6.41655 -2.90617 0
M  V30 3295 H 318.753 0.771922 0.125144 0
M  V30 3296 H 321.337 1.92266 -0.306883 0
M  V30 3297 H 319.508 3.51946 1.64282 0
M  V30 3298 H 321.24 3.74354 1.53758 0
M  V30 3299 H 317.995 4.73071 -0.223827 0
M  V30 3300 H 318.419 6.38182 -2.25948 0
M  V30 3301 H 323.061 4.21538 -0.326408 0
M  V30 3302 H 320.779 7.23641 -3.5968 0
M  V30 3303 H 324.365 5.45466 -2.0238 0
M  V30 3304 H 323.245 6.94755 -3.63711 0
M  V30 3305 N 320.748 -0.0735177 1.57428 0
M  V30 3306 C 321.995 -0.772999 1.87166 0
M  V30 3307 C 322.323 -1.77665 0.791551 0
M  V30 3308 O 321.578 -1.94541 -0.212636 0
M  V30 3309 C 321.877 -1.51799 3.23561 0
M  V30 3310 C 321.543 -0.654484 4.46125 0
M  V30 3311 C 320.205 -0.416511 4.79394 0
M  V30 3312 C 322.557 -0.0555862 5.2117 0
M  V30 3313 C 319.885 0.429869 5.85123 0
M  V30 3314 C 322.237 0.778239 6.27795 0
M  V30 3315 C 320.901 1.0261 6.59566 0
M  V30 3316 H 320.171 -0.282861 0.684888 0
M  V30 3317 H 322.818 -0.0338272 1.9147 0
M  V30 3318 H 321.123 -2.32932 3.1504 0
M  V30 3319 H 322.82 -2.06397 3.43804 0
M  V30 3320 H 319.41 -0.850091 4.20085 0
M  V30 3321 H 323.594 -0.226558 4.95783 0
M  V30 3322 H 318.85 0.630665 6.08139 0
M  V30 3323 H 323.024 1.24906 6.85107 0
M  V30 3324 H 320.651 1.68371 7.4132 0
M  V30 3325 N 322.226 -1.5378 -0.344866 0
M  V30 3326 C 323.472 -1.72158 -1.0832 0
M  V30 3327 C 323.827 -0.478218 -1.86362 0
M  V30 3328 O 323.12 0.529152 -1.84148 0
M  V30 3329 C 323.314 -2.92407 -2.05506 0
M  V30 3330 C 323.143 -4.28318 -1.37017 0
M  V30 3331 C 321.913 -4.92832 -1.11558 0
M  V30 3332 C 324.111 -5.08086 -0.797071 0
M  V30 3333 N 322.093 -6.12619 -0.396358 0
M  V30 3334 C 323.464 -6.1965 -0.208336 0
M  V30 3335 C 325.519 -4.92986 -0.697787 0
M  V30 3336 C 324.222 -7.17763 0.470023 0
M  V30 3337 C 326.248 -5.91391 -0.033171 0
M  V30 3338 C 325.61 -7.02292 0.544599 0
M  V30 3339 H 321.709 -0.683017 -0.380805 0
M  V30 3340 H 324.293 -1.91211 -0.366961 0
M  V30 3341 H 322.464 -2.74857 -2.74423 0
M  V30 3342 H 324.196 -2.9951 -2.72169 0
M  V30 3343 H 320.951 -4.52362 -1.40234 0
M  V30 3344 H 321.375 -6.7698 -0.0515119 0
M  V30 3345 H 326.017 -4.07414 -1.13022 0
M  V30 3346 H 323.735 -8.0291 0.914351 0
M  V30 3347 H 327.321 -5.81784 0.0430009 0
M  V30 3348 H 326.201 -7.77129 1.05073 0
M  V30 3349 N 323.704 0.605807 -1.45491 0
M  V30 3350 C 324.95 1.36481 -1.50813 0
M  V30 3351 C 325.305 1.91826 -0.148469 0
M  V30 3352 O 324.598 1.72211 0.839869 0
M  V30 3353 C 324.792 2.53012 -2.52428 0
M  V30 3354 C 324.621 2.09078 -3.98141 0
M  V30 3355 C 323.391 1.95167 -4.66088 0
M  V30 3356 C 325.589 1.66438 -4.86624 0
M  V30 3357 N 323.571 1.45062 -5.96515 0
M  V30 3358 C 324.942 1.27761 -6.06694 0
M  V30 3359 C 326.997 1.54046 -4.7347 0
M  V30 3360 C 325.7 0.779286 -7.15066 0
M  V30 3361 C 327.726 1.05618 -5.81892 0
M  V30 3362 C 327.088 0.67906 -7.01119 0
M  V30 3363 H 323.187 0.493267 -0.606805 0
M  V30 3364 H 325.771 0.692347 -1.81974 0
M  V30 3365 H 323.942 3.17851 -2.23215 0
M  V30 3366 H 325.674 3.19897 -2.47887 0
M  V30 3367 H 322.429 2.16407 -4.21266 0
M  V30 3368 H 322.853 1.22237 -6.65873 0
M  V30 3369 H 327.495 1.81827 -3.81705 0
M  V30 3370 H 325.213 0.489026 -8.06619 0
M  V30 3371 H 328.799 0.964529 -5.73749 0
M  V30 3372 H 327.679 0.310091 -7.83587 0
M  V30 3373 N 325.182 1.32811 0.848464 0
M  V30 3374 C 326.43 1.23479 1.59991 0
M  V30 3375 C 326.751 -0.201853 1.93952 0
M  V30 3376 O 326.021 -1.12818 1.60153 0
M  V30 3377 H 324.601 0.454034 0.593179 0
M  V30 3378 H 327.263 1.66412 1.01455 0
M  V30 3379 H 326.359 1.82178 2.53412 0
M  V30 3380 N 326.66 -1.06551 1.16123 0
M  V30 3381 C 327.937 -1.76097 0.85142 0
M  V30 3382 C 328.317 -2.00802 -0.6513 0
M  V30 3383 O 327.665 -1.63302 -1.59827 0
M  V30 3384 C 327.875 -3.06384 1.67122 0
M  V30 3385 C 329.223 -3.80585 1.88255 0
M  V30 3386 O 330.247 -3.16218 1.63966 0
M  V30 3387 O 329.106 -4.96212 2.2899 0
M  V30 3388 H 326.2 -0.765102 0.313923 0
M  V30 3389 H 328.746 -1.12844 1.26745 0
M  V30 3390 H 327.518 -2.84071 2.69108 0
M  V30 3391 H 327.141 -3.77371 1.25206 0
M  V30 3392 N 328.138 -0.959301 -1.25041 0
M  V30 3393 C 329.085 -0.482057 -2.2571 0
M  V30 3394 C 330.055 0.467939 -1.59372 0
M  V30 3395 O 331.24 0.380159 -1.86974 0
M  V30 3396 C 328.38 0.229623 -3.44335 0
M  V30 3397 C 327.493 -0.758156 -4.25295 0
M  V30 3398 C 326.628 -0.0234403 -5.31195 0
M  V30 3399 C 325.667 -1.00184 -6.03846 0
M  V30 3400 N 324.804 -0.29769 -7.01469 0
M  V30 3401 H 329.644 -1.34538 -2.65901 0
M  V30 3402 H 327.181 -0.674592 -1.3072 0
M  V30 3403 H 329.139 0.658856 -4.11965 0
M  V30 3404 H 327.769 1.05696 -3.05005 0
M  V30 3405 H 326.821 -1.30586 -3.57284 0
M  V30 3406 H 328.133 -1.50458 -4.75567 0
M  V30 3407 H 327.287 0.464201 -6.04922 0
M  V30 3408 H 326.026 0.755741 -4.81809 0
M  V30 3409 H 325.031 -1.50044 -5.2893 0
M  V30 3410 H 326.256 -1.78133 -6.55321 0
M  V30 3411 H 324.202 0.462668 -6.54366 0
M  V30 3412 H 324.119 -0.983128 -7.4958 0
M  V30 3413 H 325.387 0.16826 -7.79318 0
M  V30 3414 N 329.616 1.39756 -0.72842 0
M  V30 3415 C 330.548 2.29157 -0.0446202 0
M  V30 3416 C 331.561 1.46484 0.710367 0
M  V30 3417 O 332.75 1.69632 0.55562 0
M  V30 3418 C 329.85 3.24987 0.961071 0
M  V30 3419 C 329.023 4.36572 0.268967 0
M  V30 3420 C 328.082 5.12756 1.18184 0
M  V30 3421 O 327.108 5.6534 0.661794 0
M  V30 3422 N 328.31 5.23331 2.51206 0
M  V30 3423 H 331.075 2.88482 -0.812295 0
M  V30 3424 H 328.636 1.51265 -0.577098 0
M  V30 3425 H 330.628 3.72827 1.57423 0
M  V30 3426 H 329.198 2.66739 1.63 0
M  V30 3427 H 328.418 3.90694 -0.524574 0
M  V30 3428 H 329.706 5.08363 -0.210934 0
M  V30 3429 H 329.104 4.82116 2.9594 0
M  V30 3430 H 327.661 5.74634 3.07634 0
M  V30 3431 N 331.094 0.475555 1.50254 0
M  V30 3432 C 332.319 -0.0777042 2.07254 0
M  V30 3433 C 332.744 -1.3235 1.3366 0
M  V30 3434 O 332.102 -1.77152 0.385597 0
M  V30 3435 C 332.15 -0.340169 3.58992 0
M  V30 3436 O 331.254 -1.41982 3.87188 0
M  V30 3437 H 330.595 0.0149556 0.663832 0
M  V30 3438 H 333.125 0.667878 1.93392 0
M  V30 3439 H 333.135 -0.579332 4.03866 0
M  V30 3440 H 331.81 0.570167 4.11973 0
M  V30 3441 H 330.387 -1.16762 3.54148 0
M  V30 3442 N 332.573 -1.56217 0.208337 0
M  V30 3443 C 333.801 -2.02337 -0.43215 0
M  V30 3444 C 334.216 -1.08834 -1.54275 0
M  V30 3445 O 333.573 -0.0955462 -1.8225 0
M  V30 3446 C 333.624 -3.48072 -0.976138 0
M  V30 3447 O 333.345 -4.38007 0.0901621 0
M  V30 3448 C 334.846 -4.09773 -1.69119 0
M  V30 3449 H 332.066 -0.662385 -0.10718 0
M  V30 3450 H 334.61 -2.01966 0.320923 0
M  V30 3451 H 332.765 -3.49099 -1.67954 0
M  V30 3452 H 333.179 -5.23543 -0.316701 0
M  V30 3453 H 334.653 -5.13556 -2.02397 0
M  V30 3454 H 335.13 -3.53999 -2.59964 0
M  V30 3455 H 335.736 -4.12556 -1.03332 0
M  V30 3456 N 334.051 0.0651679 -1.57465 0
M  V30 3457 C 335.462 0.616213 -1.76238 0
M  V30 3458 C 335.813 1.7756 -0.834689 0
M  V30 3459 O 334.938 2.1639 -0.0204156 0
M  V30 3460 C 335.533 1.12462 -3.1959 0
M  V30 3461 C 334.092 1.62147 -3.39684 0
M  V30 3462 C 333.239 0.543739 -2.71917 0
M  V30 3463 H 336.19 -0.161022 -1.57881 0
M  V30 3464 H 336.211 1.99324 -3.24114 0
M  V30 3465 H 335.723 0.280592 -3.87084 0
M  V30 3466 H 333.824 2.48854 -2.77313 0
M  V30 3467 H 333.937 1.69385 -4.48158 0
M  V30 3468 H 332.301 0.990352 -2.34657 0
M  V30 3469 H 333.084 -0.290216 -3.42071 0
M  V30 3470 N 335.529 1.53961 0.336706 0
M  V30 3471 C 336.439 1.85432 1.43708 0
M  V30 3472 C 337.455 0.745053 1.57242 0
M  V30 3473 O 338.631 1.03804 1.72588 0
M  V30 3474 C 335.696 2.06349 2.78605 0
M  V30 3475 C 334.757 3.30191 2.74358 0
M  V30 3476 C 333.99 3.50101 4.02822 0
M  V30 3477 O 334.213 2.7371 5.00439 0
M  V30 3478 O 333.147 4.43547 4.06878 0
M  V30 3479 H 336.973 2.78975 1.20028 0
M  V30 3480 H 334.558 1.39701 0.52952 0
M  V30 3481 H 336.44 2.21513 3.58483 0
M  V30 3482 H 335.115 1.15995 3.02203 0
M  V30 3483 H 334.022 3.20425 1.93078 0
M  V30 3484 H 335.355 4.2056 2.55715 0
M  V30 3485 N 337.007 -0.598083 1.45811 0
M  V30 3486 C 337.939 -1.72231 1.51225 0
M  V30 3487 C 338.952 -1.57757 0.402059 0
M  V30 3488 O 340.141 -1.65464 0.669624 0
M  V30 3489 C 337.241 -3.10331 1.3619 0
M  V30 3490 C 336.414 -3.50955 2.61054 0
M  V30 3491 C 335.473 -4.68055 2.40439 0
M  V30 3492 O 334.499 -4.74691 3.14097 0
M  V30 3493 N 335.701 -5.61941 1.45612 0
M  V30 3494 H 338.466 -1.68046 2.48154 0
M  V30 3495 H 336.027 -0.783637 1.41671 0
M  V30 3496 H 338.019 -3.86439 1.20195 0
M  V30 3497 H 336.589 -3.0897 0.475015 0
M  V30 3498 H 335.809 -2.64711 2.92099 0
M  V30 3499 H 337.097 -3.74858 3.44034 0
M  V30 3500 H 336.495 -5.59301 0.848431 0
M  V30 3501 H 335.052 -6.37542 1.35585 0
M  V30 3502 N 338.485 -1.33259 -0.841409 0
M  V30 3503 C 339.715 -1.2742 -1.62628 0
M  V30 3504 C 340.123 0.157604 -1.88542 0
M  V30 3505 O 339.466 1.10938 -1.46419 0
M  V30 3506 C 339.528 -1.97797 -3.00194 0
M  V30 3507 C 339.192 -3.47109 -2.97261 0
M  V30 3508 C 340.189 -4.42358 -2.73159 0
M  V30 3509 C 337.874 -3.89247 -3.17478 0
M  V30 3510 C 339.868 -5.77718 -2.69296 0
M  V30 3511 C 337.555 -5.24713 -3.13241 0
M  V30 3512 C 338.553 -6.1876 -2.89181 0
M  V30 3513 O 338.241 -7.51745 -2.84843 0
M  V30 3514 H 337.973 -0.440436 -0.512827 0
M  V30 3515 H 340.527 -1.76153 -1.05638 0
M  V30 3516 H 338.757 -1.43652 -3.59028 0
M  V30 3517 H 340.446 -1.8549 -3.61038 0
M  V30 3518 H 341.212 -4.11127 -2.57294 0
M  V30 3519 H 337.091 -3.16456 -3.35226 0
M  V30 3520 H 340.635 -6.51097 -2.50436 0
M  V30 3521 H 336.532 -5.55569 -3.28654 0
M  V30 3522 H 337.3 -7.61262 -3.00702 0
M  V30 3523 N 339.963 1.05934 -1.16686 0
M  V30 3524 C 340.91 2.13499 -0.876748 0
M  V30 3525 C 341.88 1.65162 0.176299 0
M  V30 3526 O 343.065 1.90757 0.0407143 0
M  V30 3527 C 340.205 3.42912 -0.387967 0
M  V30 3528 C 339.318 4.04964 -1.50426 0
M  V30 3529 C 338.453 5.22266 -0.970125 0
M  V30 3530 C 337.492 5.76309 -2.06238 0
M  V30 3531 N 336.629 6.84922 -1.54356 0
M  V30 3532 H 341.469 2.37654 -1.7979 0
M  V30 3533 H 339.006 1.16598 -0.896843 0
M  V30 3534 H 340.964 4.17111 -0.086186 0
M  V30 3535 H 339.594 3.18963 0.496235 0
M  V30 3536 H 338.646 3.28277 -1.92193 0
M  V30 3537 H 339.958 4.41122 -2.32836 0
M  V30 3538 H 339.112 6.03506 -0.621743 0
M  V30 3539 H 337.851 4.87564 -0.115377 0
M  V30 3540 H 336.856 4.93704 -2.41942 0
M  V30 3541 H 338.081 6.13062 -2.92115 0
M  V30 3542 H 336.027 6.52131 -0.711406 0
M  V30 3543 H 335.944 7.20043 -2.30379 0
M  V30 3544 H 337.212 7.69832 -1.22387 0
M  V30 3545 N 341.441 0.965919 1.2453 0
M  V30 3546 C 342.373 0.452465 2.2469 0
M  V30 3547 C 343.386 -0.437821 1.56802 0
M  V30 3548 O 344.575 -0.244283 1.76821 0
M  V30 3549 C 341.675 -0.366258 3.36915 0
M  V30 3550 C 340.848 0.513701 4.34373 0
M  V30 3551 C 339.907 -0.248716 5.25612 0
M  V30 3552 O 338.933 0.356745 5.68081 0
M  V30 3553 N 340.135 -1.53877 5.59734 0
M  V30 3554 H 342.9 1.31361 2.69378 0
M  V30 3555 H 340.461 0.837541 1.38553 0
M  V30 3556 H 342.453 -0.884297 3.94921 0
M  V30 3557 H 341.023 -1.12832 2.91526 0
M  V30 3558 H 340.243 1.21273 3.75082 0
M  V30 3559 H 341.531 1.11391 4.96457 0
M  V30 3560 H 340.929 -2.05243 5.27154 0
M  V30 3561 H 339.486 -2.00254 6.20275 0
M  V30 3562 N 342.919 -1.39368 0.735821 0
M  V30 3563 C 343.849 -2.33234 0.111506 0
M  V30 3564 C 344.83 -1.53954 -0.723334 0
M  V30 3565 O 346.015 -1.82344 -0.668147 0
M  V30 3566 C 343.145 -3.38057 -0.795917 0
M  V30 3567 C 342.099 -4.2795 -0.065172 0
M  V30 3568 C 341.425 -5.23479 -1.08967 0
M  V30 3569 C 342.725 -5.10741 1.09273 0
M  V30 3570 H 344.419 -2.85692 0.895571 0
M  V30 3571 H 341.965 -1.37364 0.432109 0
M  V30 3572 H 343.918 -4.02675 -1.24221 0
M  V30 3573 H 342.642 -2.8404 -1.61211 0
M  V30 3574 H 341.301 -3.64813 0.361511 0
M  V30 3575 H 340.949 -4.65758 -1.89944 0
M  V30 3576 H 340.649 -5.84472 -0.605489 0
M  V30 3577 H 342.173 -5.90974 -1.53565 0
M  V30 3578 H 343.587 -5.68699 0.724841 0
M  V30 3579 H 341.984 -5.8088 1.50659 0
M  V30 3580 H 343.054 -4.45525 1.91404 0
M  V30 3581 N 344.397 -0.483516 -1.5 0
M  V30 3582 C 345.644 0.0671597 -2.02389 0
M  V30 3583 C 345.972 1.38597 -1.36459 0
M  V30 3584 O 345.227 1.89634 -0.483458 0
M  V30 3585 C 345.526 0.286226 -3.56252 0
M  V30 3586 C 345.192 -0.952416 -4.40726 0
M  V30 3587 C 343.854 -1.29199 -4.63531 0
M  V30 3588 C 346.206 -1.77655 -4.89988 0
M  V30 3589 C 343.534 -2.45553 -5.32842 0
M  V30 3590 C 345.886 -2.93147 -5.60578 0
M  V30 3591 C 344.55 -3.27505 -5.81633 0
M  V30 3592 H 343.82 0.0245755 -0.740592 0
M  V30 3593 H 346.467 -0.640124 -1.80485 0
M  V30 3594 H 344.772 1.07587 -3.76739 0
M  V30 3595 H 346.469 0.726473 -3.94365 0
M  V30 3596 H 343.059 -0.677881 -4.23205 0
M  V30 3597 H 347.243 -1.52737 -4.72213 0
M  V30 3598 H 342.499 -2.72431 -5.47349 0
M  V30 3599 H 346.673 -3.57344 -5.97727 0
M  V30 3600 H 344.3 -4.1777 -6.35116 0
M  V30 3601 N 345.875 1.56104 -0.216619 0
M  V30 3602 C 347.291 1.58995 0.13886 0
M  V30 3603 C 347.491 1.23333 1.59346 0
M  V30 3604 O 346.547 0.966234 2.33281 0
M  V30 3605 C 347.86 3.00143 -0.182968 0
M  V30 3606 C 349.408 3.12751 -0.124807 0
M  V30 3607 C 349.883 4.56068 -0.420241 0
M  V30 3608 N 351.374 4.61723 -0.369634 0
M  V30 3609 C 352.109 5.70542 -0.571789 0
M  V30 3610 N 351.605 6.87744 -0.835453 0
M  V30 3611 N 353.398 5.59831 -0.504563 0
M  V30 3612 H 345.549 1.77562 -1.16557 0
M  V30 3613 H 347.812 0.825091 -0.466828 0
M  V30 3614 H 347.518 3.30871 -1.19237 0
M  V30 3615 H 347.392 3.73813 0.504367 0
M  V30 3616 H 349.779 2.81822 0.875223 0
M  V30 3617 H 349.86 2.41421 -0.845544 0
M  V30 3618 H 349.504 4.87713 -1.41769 0
M  V30 3619 H 349.434 5.25617 0.321631 0
M  V30 3620 H 351.925 3.77502 -0.173338 0
M  V30 3621 H 352.238 7.66587 -0.977938 0
M  V30 3622 H 350.583 6.895 -0.872592 0
M  V30 3623 H 353.774 4.67145 -0.298842 0
M  V30 3624 H 353.947 6.44573 -0.665519 0
M  V30 3625 N 347.353 -0.0568162 1.57498 0
M  V30 3626 C 348.583 -0.764515 1.91934 0
M  V30 3627 C 348.991 -1.70877 0.81227 0
M  V30 3628 O 348.334 -1.82351 -0.222213 0
M  V30 3629 C 348.396 -1.5994 3.21962 0
M  V30 3630 C 348.06 -0.822925 4.4953 0
M  V30 3631 C 349.057 -0.135464 5.19723 0
M  V30 3632 C 346.742 -0.785666 4.96117 0
M  V30 3633 C 348.736 0.578861 6.34766 0
M  V30 3634 C 346.423 -0.0675784 6.11063 0
M  V30 3635 C 347.421 0.613471 6.80239 0
M  V30 3636 O 347.109 1.31996 7.92989 0
M  V30 3637 H 346.841 -0.221647 0.63863 0
M  V30 3638 H 349.395 -0.0268218 2.05382 0
M  V30 3639 H 347.625 -2.38026 3.04763 0
M  V30 3640 H 349.314 -2.18715 3.41934 0
M  V30 3641 H 350.08 -0.155458 4.84751 0
M  V30 3642 H 345.959 -1.30524 4.42136 0
M  V30 3643 H 349.503 1.111 6.88696 0
M  V30 3644 H 345.4 -0.0455636 6.45484 0
M  V30 3645 H 346.168 1.23077 8.09194 0
M  V30 3646 N 348.832 -1.54138 -0.328536 0
M  V30 3647 C 350.057 -1.76378 -1.09112 0
M  V30 3648 C 350.482 -0.508596 -1.81094 0
M  V30 3649 O 349.84 0.539598 -1.73084 0
M  V30 3650 C 349.888 -2.95358 -2.06872 0
M  V30 3651 O 348.992 -2.66556 -3.14677 0
M  V30 3652 H 348.333 -0.584614 -0.314838 0
M  V30 3653 H 350.863 -2.01146 -0.374348 0
M  V30 3654 H 350.873 -3.22566 -2.4983 0
M  V30 3655 H 349.548 -3.86385 -1.5388 0
M  V30 3656 H 348.125 -2.50282 -2.7643 0
M  V30 3657 N 350.31 0.590341 -1.46126 0
M  V30 3658 C 351.556 1.35082 -1.51264 0
M  V30 3659 C 351.889 1.93534 -0.160711 0
M  V30 3660 O 351.164 1.76045 0.826956 0
M  V30 3661 C 351.447 2.48588 -2.6053 0
M  V30 3662 C 351.3 1.95221 -4.05227 0
M  V30 3663 C 352.619 3.50662 -2.6594 0
M  V30 3664 H 349.738 0.489803 -0.550692 0
M  V30 3665 H 352.38 0.663887 -1.78024 0
M  V30 3666 H 350.53 3.07186 -2.37843 0
M  V30 3667 H 352.202 1.41139 -4.39178 0
M  V30 3668 H 350.445 1.26101 -4.15068 0
M  V30 3669 H 351.116 2.77121 -4.77397 0
M  V30 3670 H 353.592 3.01934 -2.86313 0
M  V30 3671 H 352.468 4.27551 -3.44226 0
M  V30 3672 H 352.729 4.07399 -1.71694 0
M  V30 3673 N 351.788 1.33704 0.83433 0
M  V30 3674 C 352.698 1.26382 1.97648 0
M  V30 3675 C 353.714 0.173548 1.73132 0
M  V30 3676 O 354.89 0.397962 1.97429 0
M  V30 3677 C 351.955 1.00769 3.31733 0
M  V30 3678 C 351.016 2.1884 3.69334 0
M  V30 3679 C 350.249 1.9444 4.9702 0
M  V30 3680 O 350.472 0.896961 5.63303 0
M  V30 3681 O 349.406 2.81093 5.32231 0
M  V30 3682 H 353.232 2.22444 2.06767 0
M  V30 3683 H 350.817 1.13795 0.968037 0
M  V30 3684 H 352.699 0.882186 4.12062 0
M  V30 3685 H 351.374 0.0773783 3.23608 0
M  V30 3686 H 350.281 2.36946 2.89495 0
M  V30 3687 H 351.614 3.10221 3.82131 0
M  V30 3688 N 353.266 -1.05314 1.17247 0
M  V30 3689 C 354.496 -1.81707 0.983166 0
M  V30 3690 C 354.904 -1.83222 -0.471822 0
M  V30 3691 O 354.247 -1.25721 -1.3394 0
M  V30 3692 C 354.309 -3.29134 1.44606 0
M  V30 3693 C 353.973 -3.51304 2.92292 0
M  V30 3694 C 354.97 -3.4353 3.90235 0
M  V30 3695 C 352.655 -3.78306 3.30439 0
M  V30 3696 C 354.649 -3.62442 5.24323 0
M  V30 3697 C 352.336 -3.96866 4.64694 0
M  V30 3698 C 353.334 -3.88933 5.61445 0
M  V30 3699 O 353.022 -4.06976 6.93272 0
M  V30 3700 H 352.754 -0.579476 0.348114 0
M  V30 3701 H 355.308 -1.33705 1.55924 0
M  V30 3702 H 353.538 -3.78046 0.813537 0
M  V30 3703 H 355.227 -3.87049 1.22262 0
M  V30 3704 H 355.993 -3.22648 3.62109 0
M  V30 3705 H 351.872 -3.83585 2.55702 0
M  V30 3706 H 355.416 -3.56165 5.99827 0
M  V30 3707 H 351.313 -4.1724 4.92525 0
M  V30 3708 H 352.081 -4.24209 6.99992 0
M  V30 3709 N 354.744 -0.972509 -1.24016 0
M  V30 3710 C 355.674 -0.525548 -2.27509 0
M  V30 3711 C 356.655 0.437262 -1.64384 0
M  V30 3712 O 357.84 0.332343 -1.91335 0
M  V30 3713 C 354.97 0.180448 -3.46831 0
M  V30 3714 C 353.924 -0.698859 -4.22256 0
M  V30 3715 C 353.25 0.138903 -5.3452 0
M  V30 3716 C 354.55 -1.98582 -4.83076 0
M  V30 3717 H 356.244 -1.39058 -2.65148 0
M  V30 3718 H 353.79 -0.67009 -1.27459 0
M  V30 3719 H 355.743 0.504387 -4.18371 0
M  V30 3720 H 354.467 1.07987 -3.08231 0
M  V30 3721 H 353.126 -1.00614 -3.52523 0
M  V30 3722 H 352.774 1.03862 -4.9216 0
M  V30 3723 H 352.474 -0.446259 -5.85903 0
M  V30 3724 H 353.998 0.457404 -6.08884 0
M  V30 3725 H 355.412 -1.72715 -5.46665 0
M  V30 3726 H 353.809 -2.5181 -5.44713 0
M  V30 3727 H 354.879 -2.67769 -4.04262 0
M  V30 3728 N 356.222 1.38976 -0.743202 0
M  V30 3729 C 357.638 1.53984 -0.419664 0
M  V30 3730 C 357.838 1.70837 1.0685 0
M  V30 3731 O 356.894 1.7135 1.8546 0
M  V30 3732 C 358.207 2.75287 -1.20985 0
M  V30 3733 C 359.755 2.89129 -1.19889 0
M  V30 3734 C 360.23 4.13381 -1.97181 0
M  V30 3735 N 361.721 4.20437 -1.94389 0
M  V30 3736 C 362.456 5.15547 -2.50996 0
M  V30 3737 N 361.952 6.16395 -3.16274 0
M  V30 3738 N 363.745 5.07822 -2.40984 0
M  V30 3739 H 355.896 1.26285 -1.7078 0
M  V30 3740 H 358.159 0.612689 -0.723406 0
M  V30 3741 H 357.865 2.69204 -2.26323 0
M  V30 3742 H 357.739 3.68184 -0.819759 0
M  V30 3743 H 360.126 2.947 -0.153606 0
M  V30 3744 H 360.207 1.97272 -1.62841 0
M  V30 3745 H 359.851 4.08572 -3.01714 0
M  V30 3746 H 359.781 5.04298 -1.51629 0
M  V30 3747 H 362.272 3.48205 -1.46839 0
M  V30 3748 H 362.585 6.85443 -3.56915 0
M  V30 3749 H 360.93 6.16758 -3.20367 0
M  V30 3750 H 364.121 4.27973 -1.89622 0
M  V30 3751 H 364.294 5.81767 -2.85397 0
M  V30 3752 N 357.7 0.491464 1.49741 0
M  V30 3753 C 358.977 -0.118984 1.95238 0
M  V30 3754 C 359.357 -1.55044 1.43264 0
M  V30 3755 O 358.705 -2.19287 0.642287 0
M  V30 3756 C 358.915 -0.0414187 3.48975 0
M  V30 3757 C 360.263 -0.220133 4.24029 0
M  V30 3758 O 361.287 -0.117055 3.56008 0
M  V30 3759 O 360.146 -0.430567 5.44801 0
M  V30 3760 H 357.24 -0.100536 0.820866 0
M  V30 3761 H 359.786 0.553322 1.60426 0
M  V30 3762 H 358.558 0.957214 3.79412 0
M  V30 3763 H 358.181 -0.754292 3.9038 0
M  V30 3764 N 359.178 -1.55987 0.224894 0
M  V30 3765 C 360.424 -1.98684 -0.406502 0
M  V30 3766 C 360.757 -1.11248 -1.59177 0
M  V30 3767 O 360.032 -0.170909 -1.93748 0
M  V30 3768 C 360.315 -3.50218 -0.837808 0
M  V30 3769 C 360.168 -4.48426 0.351332 0
M  V30 3770 C 361.487 -4.06243 -1.69278 0
M  V30 3771 H 358.606 -0.722337 -0.146283 0
M  V30 3772 H 361.248 -1.87255 0.321799 0
M  V30 3773 H 359.398 -3.60089 -1.45837 0
M  V30 3774 H 361.07 -4.50562 0.989526 0
M  V30 3775 H 359.313 -4.22159 0.998207 0
M  V30 3776 H 359.984 -5.52 0.00655905 0
M  V30 3777 H 362.46 -3.99337 -1.16914 0
M  V30 3778 H 361.336 -5.12581 -1.96346 0
M  V30 3779 H 361.597 -3.53332 -2.65723 0
M  V30 3780 N 360.656 0.0484629 -1.57525 0
M  V30 3781 C 361.603 1.05504 -2.05275 0
M  V30 3782 C 362.573 1.37084 -0.937927 0
M  V30 3783 O 363.758 1.47754 -1.2072 0
M  V30 3784 C 360.898 2.35676 -2.52093 0
M  V30 3785 C 360.011 2.10423 -3.77288 0
M  V30 3786 C 359.146 3.34327 -4.12794 0
M  V30 3787 C 358.185 3.04542 -5.30962 0
M  V30 3788 N 357.322 4.20841 -5.61994 0
M  V30 3789 H 362.162 0.640885 -2.91027 0
M  V30 3790 H 359.699 0.304854 -1.43906 0
M  V30 3791 H 361.657 3.11709 -2.77297 0
M  V30 3792 H 360.287 2.7485 -1.69285 0
M  V30 3793 H 359.339 1.24976 -3.59284 0
M  V30 3794 H 360.651 1.84438 -4.63448 0
M  V30 3795 H 359.805 4.1874 -4.39024 0
M  V30 3796 H 358.544 3.63408 -3.25247 0
M  V30 3797 H 357.549 2.18528 -5.04505 0
M  V30 3798 H 358.774 2.76758 -6.20146 0
M  V30 3799 H 356.72 4.4991 -4.77406 0
M  V30 3800 H 356.637 3.98212 -6.42622 0
M  V30 3801 H 357.905 5.06184 -5.92789 0
M  V30 3802 N 362.134 1.5431 0.320358 0
M  V30 3803 C 363.382 1.72327 1.05583 0
M  V30 3804 C 363.703 0.50149 1.88441 0
M  V30 3805 O 362.973 -0.48448 1.89815 0
M  V30 3806 H 361.553 0.635387 0.3928 0
M  V30 3807 H 364.215 1.91621 0.356019 0
M  V30 3808 H 363.311 2.60426 1.72003 0
M  V30 3809 N 363.613 -0.582584 1.46437 0
M  V30 3810 C 364.859 -1.34278 1.51978 0
M  V30 3811 C 365.192 -1.93446 0.170973 0
M  V30 3812 O 364.467 -1.76481 -0.817608 0
M  V30 3813 C 364.75 -2.47203 2.61845 0
M  V30 3814 C 364.603 -1.93069 4.06257 0
M  V30 3815 C 365.922 -3.49247 2.67795 0
M  V30 3816 H 363.041 -0.486876 0.553282 0
M  V30 3817 H 365.683 -0.654437 1.78374 0
M  V30 3818 H 363.833 -3.0592 2.39469 0
M  V30 3819 H 365.505 -1.38808 4.3992 0
M  V30 3820 H 363.748 -1.23898 4.1573 0
M  V30 3821 H 364.419 -2.74586 4.7886 0
M  V30 3822 H 366.895 -3.00411 2.8791 0
M  V30 3823 H 365.771 -4.25719 3.46489 0
M  V30 3824 H 366.032 -4.06482 1.73852 0
M  V30 3825 N 365.091 -1.34144 -0.827227 0
M  V30 3826 C 366.507 -1.13732 -1.11969 0
M  V30 3827 C 366.707 0.0640463 -2.01398 0
M  V30 3828 O 365.763 0.740856 -2.41387 0
M  V30 3829 C 367.076 -2.43047 -1.77055 0
M  V30 3830 C 368.624 -2.49063 -1.89569 0
M  V30 3831 C 369.099 -3.78369 -2.58072 0
M  V30 3832 N 370.59 -3.79505 -2.65575 0
M  V30 3833 C 371.325 -4.76274 -3.19297 0
M  V30 3834 N 370.821 -5.83424 -3.73616 0
M  V30 3835 N 372.614 -4.63735 -3.17658 0
M  V30 3836 H 364.765 -2.11126 -0.232296 0
M  V30 3837 H 367.028 -0.933424 -0.165602 0
M  V30 3838 H 366.734 -3.31025 -1.18807 0
M  V30 3839 H 366.608 -2.56066 -2.76966 0
M  V30 3840 H 368.995 -1.61527 -2.46968 0
M  V30 3841 H 369.076 -2.39975 -0.885745 0
M  V30 3842 H 368.72 -4.66293 -2.01329 0
M  V30 3843 H 368.65 -3.84737 -3.59562 0
M  V30 3844 H 371.141 -3.02074 -2.27068 0
M  V30 3845 H 371.454 -6.53282 -4.12846 0
M  V30 3846 H 369.799 -5.87143 -3.71871 0
M  V30 3847 H 372.99 -3.79177 -2.74486 0
M  V30 3848 H 373.163 -5.39318 -3.59221 0
M  V30 3849 N 366.569 1.04691 -1.17803 0
M  V30 3850 C 367.517 2.14665 -0.895635 0
M  V30 3851 C 368.511 1.68806 0.141679 0
M  V30 3852 O 369.717 1.79999 -0.00587914 0
M  V30 3853 H 366.092 0.701038 -0.272121 0
M  V30 3854 H 368.063 2.35685 -1.83017 0
M  V30 3855 C 366.812 3.45019 -0.430962 0
M  V30 3856 H 366.135 3.8071 -1.22064 0
M  V30 3857 H 367.575 4.23125 -0.272301 0
M  V30 3858 C 366.034 3.25943 0.852207 0
M  V30 3859 O 366.564 3.5296 1.91786 0
M  V30 3860 N 364.77 2.79304 0.802346 0
M  V30 3861 H 364.317 2.57518 -0.0650788 0
M  V30 3862 H 364.275 2.66921 1.66134 0
M  V30 3863 N 368.047 0.979072 1.23499 0
M  V30 3864 C 369.294 0.647219 1.91878 0
M  V30 3865 C 369.622 -0.819074 1.76413 0
M  V30 3866 O 368.877 -1.60616 1.11808 0
M  V30 3867 C 369.176 0.981932 3.43646 0
M  V30 3868 C 368.842 2.43822 3.79291 0
M  V30 3869 C 367.504 2.83622 3.88731 0
M  V30 3870 C 369.856 3.3828 3.96505 0
M  V30 3871 C 367.184 4.16897 4.12812 0
M  V30 3872 C 369.536 4.71197 4.22085 0
M  V30 3873 C 368.2 5.10758 4.29747 0
M  V30 3874 H 367.47 0.236834 0.702133 0
M  V30 3875 H 370.117 1.23268 1.46551 0
M  V30 3876 H 368.422 0.314365 3.90537 0
M  V30 3877 H 370.119 0.703395 3.94783 0
M  V30 3878 H 366.709 2.11966 3.72516 0
M  V30 3879 H 370.893 3.0871 3.88603 0
M  V30 3880 H 366.149 4.47157 4.16966 0
M  V30 3881 H 370.323 5.44348 4.34348 0
M  V30 3882 H 367.95 6.1405 4.48159 0
M  V30 3883 N 369.525 -1.3858 0.750561 0
M  V30 3884 C 370.455 -2.33102 0.136237 0
M  V30 3885 C 371.436 -1.54713 -0.706965 0
M  V30 3886 O 372.621 -1.83043 -0.648769 0
M  V30 3887 C 369.751 -3.38882 -0.760017 0
M  V30 3888 C 368.705 -4.27995 -0.0197785 0
M  V30 3889 C 368.031 -5.24605 -1.03408 0
M  V30 3890 C 369.331 -5.09554 1.14684 0
M  V30 3891 H 371.025 -2.84726 0.925822 0
M  V30 3892 H 368.571 -1.36898 0.446654 0
M  V30 3893 H 370.524 -4.0397 -1.19943 0
M  V30 3894 H 369.248 -2.85734 -1.58189 0
M  V30 3895 H 367.907 -3.64409 0.400184 0
M  V30 3896 H 367.555 -4.67746 -1.84994 0
M  V30 3897 H 367.255 -5.85081 -0.543464 0
M  V30 3898 H 368.779 -5.9257 -1.47288 0
M  V30 3899 H 370.193 -5.67899 0.785118 0
M  V30 3900 H 368.59 -5.7925 1.56812 0
M  V30 3901 H 369.66 -4.4347 1.96118 0
M  V30 3902 N 371.003 -0.499398 -1.49478 0
M  V30 3903 C 372.233 0.0424839 -2.06556 0
M  V30 3904 C 372.641 1.31514 -1.36018 0
M  V30 3905 O 371.984 1.78555 -0.431718 0
M  V30 3906 C 372.046 0.368074 -3.57611 0
M  V30 3907 C 371.71 -0.806631 -4.49825 0
M  V30 3908 C 372.707 -1.69667 -4.91436 0
M  V30 3909 C 370.392 -1.00498 -4.92144 0
M  V30 3910 C 372.386 -2.76923 -5.74101 0
M  V30 3911 C 370.073 -2.08072 -5.74586 0
M  V30 3912 C 371.071 -2.96119 -6.15469 0
M  V30 3913 O 370.759 -4.01836 -6.96264 0
M  V30 3914 H 370.491 -0.0165165 -0.675798 0
M  V30 3915 H 373.045 -0.695497 -1.93267 0
M  V30 3916 H 371.275 1.15963 -3.68903 0
M  V30 3917 H 372.964 0.848381 -3.96935 0
M  V30 3918 H 373.73 -1.55524 -4.59388 0
M  V30 3919 H 369.609 -0.329036 -4.59824 0
M  V30 3920 H 373.153 -3.45676 -6.05932 0
M  V30 3921 H 369.05 -2.22211 -6.06047 0
M  V30 3922 H 369.818 -3.9917 -7.14567 0
M  V30 3923 N 372.481 1.55866 -0.233164 0
M  V30 3924 C 373.444 2.1953 0.658715 0
M  V30 3925 C 374.444 1.16053 1.11303 0
M  V30 3926 O 375.634 1.41218 1.01996 0
M  V30 3927 C 372.766 2.82791 1.90373 0
M  V30 3928 H 373.959 2.99721 0.10347 0
M  V30 3929 H 371.512 1.56291 0.0164245 0
M  V30 3930 H 372.247 2.06501 2.50056 0
M  V30 3931 H 372.032 3.58578 1.58632 0
M  V30 3932 H 373.522 3.31556 2.53891 0
M  V30 3933 N 373.959 -0.0401083 1.57549 0
M  V30 3934 C 375.189 -0.744115 1.92734 0
M  V30 3935 C 375.597 -1.70005 0.830348 0
M  V30 3936 O 374.94 -1.82576 -0.20286 0
M  V30 3937 C 375.002 -1.56516 3.2364 0
M  V30 3938 C 374.666 -0.7752 4.50377 0
M  V30 3939 C 375.663 -0.0803326 5.19838 0
M  V30 3940 C 373.348 -0.733002 4.96923 0
M  V30 3941 C 375.342 0.646154 6.34116 0
M  V30 3942 C 373.029 -0.00276321 6.111 0
M  V30 3943 C 374.027 0.685585 6.7955 0
M  V30 3944 O 373.715 1.40399 7.91545 0
M  V30 3945 H 373.447 -0.214861 0.640945 0
M  V30 3946 H 376.001 -0.00503675 2.05399 0
M  V30 3947 H 374.231 -2.3478 3.07271 0
M  V30 3948 H 375.92 -2.15076 3.44234 0
M  V30 3949 H 376.686 -0.104035 4.84888 0
M  V30 3950 H 372.565 -1.25827 4.43496 0
M  V30 3951 H 376.109 1.18398 6.87479 0
M  V30 3952 H 372.006 0.0229012 6.45496 0
M  V30 3953 H 372.774 1.31653 8.07843 0
M  V30 3954 N 375.437 -1.54477 -0.31217 0
M  V30 3955 C 376.662 -1.77526 -1.07235 0
M  V30 3956 C 377.087 -0.527775 -1.80544 0
M  V30 3957 O 376.445 0.52121 -1.73646 0
M  V30 3958 C 376.493 -2.97535 -2.03728 0
M  V30 3959 O 375.597 -2.69878 -3.11833 0
M  V30 3960 H 374.938 -0.58792 -0.30862 0
M  V30 3961 H 377.468 -2.01532 -0.352993 0
M  V30 3962 H 377.478 -3.25198 -2.46395 0
M  V30 3963 H 376.153 -3.87996 -1.49774 0
M  V30 3964 H 374.73 -2.53199 -2.7376 0
M  V30 3965 N 376.915 0.57481 -1.46744 0
M  V30 3966 C 378.326 1.15695 -1.46532 0
M  V30 3967 C 378.677 1.95068 -0.210425 0
M  V30 3968 O 377.802 2.05241 0.685944 0
M  V30 3969 C 378.397 2.1048 -2.65487 0
M  V30 3970 C 376.956 2.64002 -2.68291 0
M  V30 3971 C 376.103 1.40026 -2.39349 0
M  V30 3972 H 379.054 0.362325 -1.54509 0
M  V30 3973 H 379.075 2.94074 -2.41455 0
M  V30 3974 H 378.587 1.52683 -3.56805 0
M  V30 3975 H 376.688 3.25646 -1.81067 0
M  V30 3976 H 376.801 3.06197 -3.68483 0
M  V30 3977 H 375.165 1.70106 -1.89568 0
M  V30 3978 H 375.948 0.840485 -3.32852 0
M  V30 3979 N 378.394 1.34581 0.820102 0
M  V30 3980 C 379.342 1.26401 1.95258 0
M  V30 3981 C 380.336 0.161553 1.68628 0
M  V30 3982 O 381.542 0.326703 1.7701 0
M  V30 3983 H 377.917 0.392749 0.64129 0
M  V30 3984 H 379.888 2.22105 1.99279 0
M  V30 3985 C 378.637 1.03919 3.31807 0
M  V30 3986 H 377.96 1.87984 3.52848 0
M  V30 3987 H 379.4 1.02232 4.11491 0
M  V30 3988 C 377.859 -0.257433 3.35915 0
M  V30 3989 O 378.389 -1.25784 3.81499 0
M  V30 3990 N 376.595 -0.291524 2.89134 0
M  V30 3991 H 376.142 0.523161 2.52232 0
M  V30 3992 H 376.1 -1.15883 2.92264 0
M  V30 3993 N 379.872 -1.04064 1.18357 0
M  V30 3994 C 380.82 -2.14187 0.907007 0
M  V30 3995 C 381.814 -1.68879 -0.132725 0
M  V30 3996 O 383.02 -1.79993 0.0154248 0
M  V30 3997 H 379.395 -0.699585 0.275835 0
M  V30 3998 H 381.366 -2.34711 1.84264 0
M  V30 3999 C 380.115 -3.44785 0.449254 0
M  V30 4000 H 379.438 -3.80058 1.24081 0
M  V30 4001 H 380.878 -4.22974 0.294737 0
M  V30 4002 C 379.337 -3.26391 -0.834909 0
M  V30 4003 O 379.867 -3.53973 -1.89911 0
M  V30 4004 N 378.073 -2.79726 -0.787523 0
M  V30 4005 H 377.62 -2.5748 0.0787347 0
M  V30 4006 H 377.578 -2.67798 -1.64716 0
M  V30 4007 N 381.35 -0.985608 -1.22978 0
M  V30 4008 C 382.597 -0.657386 -1.91532 0
M  V30 4009 C 382.925 0.809707 -1.76845 0
M  V30 4010 O 382.18 1.60021 -1.12658 0
M  V30 4011 C 382.479 -1.00014 -3.43121 0
M  V30 4012 C 382.145 -2.4583 -3.77993 0
M  V30 4013 C 380.807 -2.85679 -3.87222 0
M  V30 4014 C 383.159 -3.40378 -3.94705 0
M  V30 4015 C 380.487 -4.19081 -4.10595 0
M  V30 4016 C 382.839 -4.73429 -4.1958 0
M  V30 4017 C 381.503 -5.1303 -4.27032 0
M  V30 4018 H 380.773 -0.240555 -0.700867 0
M  V30 4019 H 383.42 -1.24044 -1.45895 0
M  V30 4020 H 381.725 -0.335072 -3.90365 0
M  V30 4021 H 383.422 -0.724322 -3.94404 0
M  V30 4022 H 380.012 -2.13939 -3.71387 0
M  V30 4023 H 384.196 -3.10766 -3.8696 0
M  V30 4024 H 379.452 -4.49362 -4.14589 0
M  V30 4025 H 383.626 -5.46644 -4.31455 0
M  V30 4026 H 381.253 -6.16418 -4.44896 0
M  V30 4027 N 382.828 1.3818 -0.7579 0
M  V30 4028 C 384.074 2.0078 -0.325423 0
M  V30 4029 C 384.429 1.59085 1.08211 0
M  V30 4030 O 383.722 0.820394 1.73148 0
M  V30 4031 C 383.916 3.55252 -0.391218 0
M  V30 4032 C 383.745 4.11947 -1.8036 0
M  V30 4033 C 382.515 4.43519 -2.42113 0
M  V30 4034 C 384.713 4.33908 -2.76095 0
M  V30 4035 N 382.695 4.85847 -3.75267 0
M  V30 4036 C 384.066 4.78692 -3.94023 0
M  V30 4037 C 386.121 4.16015 -2.73561 0
M  V30 4038 C 384.824 5.07459 -5.09782 0
M  V30 4039 C 386.85 4.45909 -3.88483 0
M  V30 4040 C 386.212 4.90921 -5.0515 0
M  V30 4041 H 382.311 0.764215 -0.165831 0
M  V30 4042 H 384.895 1.67724 -0.988776 0
M  V30 4043 H 383.066 3.87646 0.241886 0
M  V30 4044 H 384.798 4.04653 0.061989 0
M  V30 4045 H 381.553 4.32113 -1.93842 0
M  V30 4046 H 381.977 5.11339 -4.4369 0
M  V30 4047 H 386.619 3.80399 -1.84544 0
M  V30 4048 H 384.337 5.4197 -5.99412 0
M  V30 4049 H 387.923 4.33666 -3.87847 0
M  V30 4050 H 386.803 5.1361 -5.92599 0
M  V30 4051 N 384.306 0.507319 1.49211 0
M  V30 4052 C 385.583 -0.0982702 1.95353 0
M  V30 4053 C 385.963 -1.53516 1.449 0
M  V30 4054 O 385.311 -2.18594 0.66551 0
M  V30 4055 C 385.521 -0.00440283 3.49 0
M  V30 4056 C 386.869 -0.175147 4.24239 0
M  V30 4057 O 387.893 -0.0792891 3.56112 0
M  V30 4058 O 386.752 -0.37276 5.45227 0
M  V30 4059 H 383.846 -0.0918236 0.821887 0
M  V30 4060 H 386.392 0.570307 1.5983 0
M  V30 4061 H 385.164 0.997402 3.78375 0
M  V30 4062 H 384.787 -0.712845 3.91158 0
M  V30 4063 N 385.784 -1.5574 0.241426 0
M  V30 4064 C 387.03 -1.99104 -0.385406 0
M  V30 4065 C 387.363 -1.1293 -1.57988 0
M  V30 4066 O 386.638 -0.191449 -1.93555 0
M  V30 4067 C 386.921 -3.51087 -0.800616 0
M  V30 4068 C 386.774 -4.48028 0.398874 0
M  V30 4069 C 388.093 -4.08015 -1.64959 0
M  V30 4070 H 385.212 -0.723848 -0.138614 0
M  V30 4071 H 387.854 -1.86903 0.341642 0
M  V30 4072 H 386.004 -3.61615 -1.4201 0
M  V30 4073 H 387.676 -4.49487 1.03726 0
M  V30 4074 H 385.919 -4.21077 1.04293 0
M  V30 4075 H 386.59 -5.51962 0.0651056 0
M  V30 4076 H 389.066 -4.00555 -1.12672 0
M  V30 4077 H 387.942 -5.14635 -1.90898 0
M  V30 4078 H 388.203 -3.56131 -2.61961 0
M  V30 4079 N 387.262 0.0317525 -1.57568 0
M  V30 4080 C 388.49 0.734949 -1.93407 0
M  V30 4081 C 388.905 1.69036 -0.84096 0
M  V30 4082 O 388.262 1.81582 0.182836 0
M  V30 4083 C 388.313 1.49432 -3.29169 0
M  V30 4084 O 388.034 0.577261 -4.3428 0
M  V30 4085 C 389.535 2.29492 -3.79273 0
M  V30 4086 H 386.755 0.206706 -0.638368 0
M  V30 4087 H 389.299 -0.00992046 -2.04498 0
M  V30 4088 H 387.454 2.1911 -3.19483 0
M  V30 4089 H 387.868 1.10952 -5.1263 0
M  V30 4090 H 389.342 2.78172 -4.76785 0
M  V30 4091 H 389.819 3.10794 -3.10328 0
M  V30 4092 H 390.425 1.64894 -3.92033 0
M  V30 4093 N 388.74 1.54641 0.303973 0
M  V30 4094 C 389.65 1.88439 1.39743 0
M  V30 4095 C 390.666 0.778239 1.55626 0
M  V30 4096 O 391.842 1.07442 1.70347 0
M  V30 4097 C 388.907 2.12212 2.74166 0
M  V30 4098 C 387.968 3.35936 2.67293 0
M  V30 4099 C 387.201 3.58566 3.95305 0
M  V30 4100 O 387.424 2.84263 4.9452 0
M  V30 4101 O 386.358 4.52078 3.97378 0
M  V30 4102 H 390.184 2.81458 1.14083 0
M  V30 4103 H 387.769 1.40793 0.499768 0
M  V30 4104 H 389.651 2.29067 3.53704 0
M  V30 4105 H 388.326 1.22379 2.99675 0
M  V30 4106 H 387.233 3.24448 1.86237 0
M  V30 4107 H 388.566 4.2589 2.46736 0
M  V30 4108 N 390.218 -0.567019 1.47046 0
M  V30 4109 C 391.181 -1.65696 1.58359 0
M  V30 4110 C 392.181 -1.54097 0.459441 0
M  V30 4111 O 393.371 -1.58432 0.724225 0
M  V30 4112 C 390.503 -3.05197 1.51879 0
M  V30 4113 H 391.696 -1.57019 2.5551 0
M  V30 4114 H 389.249 -0.786148 1.3509 0
M  V30 4115 H 389.984 -3.19417 0.560673 0
M  V30 4116 H 389.769 -3.15025 2.33455 0
M  V30 4117 H 391.259 -3.84511 1.62913 0
M  V30 4118 N 391.696 -1.35014 -0.812953 0
M  V30 4119 C 392.644 -1.27435 -1.94585 0
M  V30 4120 C 393.638 -0.170494 -1.6854 0
M  V30 4121 O 394.844 -0.336085 -1.76835 0
M  V30 4122 H 391.219 -0.396144 -0.639198 0
M  V30 4123 H 393.19 -2.23158 -1.98098 0
M  V30 4124 C 391.939 -1.05677 -3.31252 0
M  V30 4125 H 391.262 -1.89853 -3.51846 0
M  V30 4126 H 392.702 -1.04413 -4.10943 0
M  V30 4127 C 391.161 0.239615 -3.36047 0
M  V30 4128 O 391.691 1.23759 -3.8216 0
M  V30 4129 N 389.897 0.276186 -2.89285 0
M  V30 4130 H 389.444 -0.53653 -2.51951 0
M  V30 4131 H 389.402 1.14332 -2.92875 0
M  V30 4132 N 393.175 1.03435 -1.18907 0
M  V30 4133 C 394.405 1.8012 -1.01195 0
M  V30 4134 C 394.813 1.8395 0.442613 0
M  V30 4135 O 394.156 1.27836 1.31923 0
M  V30 4136 C 394.218 3.26792 -1.49823 0
M  V30 4137 C 393.882 3.46609 -2.97844 0
M  V30 4138 C 394.879 3.37278 -3.95651 0
M  V30 4139 C 392.564 3.73001 -3.36416 0
M  V30 4140 C 394.558 3.54054 -5.30023 0
M  V30 4141 C 392.245 3.89423 -4.70949 0
M  V30 4142 C 393.243 3.79951 -5.67562 0
M  V30 4143 O 392.931 3.95895 -6.99659 0
M  V30 4144 H 392.663 0.573865 -0.357289 0
M  V30 4145 H 395.217 1.31207 -1.58031 0
M  V30 4146 H 393.447 3.76703 -0.873578 0
M  V30 4147 H 395.136 3.85055 -1.28404 0
M  V30 4148 H 395.902 3.16846 -3.67197 0
M  V30 4149 H 391.781 3.79469 -2.61772 0
M  V30 4150 H 395.325 3.46577 -6.05417 0
M  V30 4151 H 391.222 4.09351 -4.99101 0
M  V30 4152 H 391.99 4.13019 -7.06653 0
M  V30 4153 N 394.653 0.992116 1.22453 0
M  V30 4154 C 395.583 0.561677 2.26644 0
M  V30 4155 C 396.564 -0.411055 1.65059 0
M  V30 4156 O 397.749 -0.301861 1.9184 0
M  V30 4157 C 394.879 -0.125247 3.47074 0
M  V30 4158 C 393.833 0.765948 4.21091 0
M  V30 4159 C 393.159 -0.0538484 5.34673 0
M  V30 4160 C 394.459 2.06242 4.79856 0
M  V30 4161 H 396.153 1.43259 2.62902 0
M  V30 4162 H 393.699 0.690283 1.26377 0
M  V30 4163 H 395.652 -0.437764 4.1912 0
M  V30 4164 H 394.376 -1.03069 3.0991 0
M  V30 4165 H 393.035 1.0621 3.50878 0
M  V30 4166 H 392.683 -0.960188 4.9375 0
M  V30 4167 H 392.383 0.539415 5.85119 0
M  V30 4168 H 393.907 -0.360477 6.09535 0
M  V30 4169 H 395.321 1.8139 5.43848 0
M  V30 4170 H 393.718 2.60444 5.40638 0
M  V30 4171 H 394.788 2.74167 3.99951 0
M  V30 4172 N 396.131 -1.37776 0.765217 0
M  V30 4173 C 397.041 -2.34135 0.147666 0
M  V30 4174 C 398.057 -1.59854 -0.687215 0
M  V30 4175 O 399.233 -1.91983 -0.608659 0
M  V30 4176 C 396.298 -3.3901 -0.72617 0
M  V30 4177 C 395.359 -4.2912 0.124417 0
M  V30 4178 C 394.592 -5.28986 -0.707807 0
M  V30 4179 O 394.815 -5.36205 -1.94525 0
M  V30 4180 O 393.749 -6.01779 -0.12046 0
M  V30 4181 H 397.575 -2.88664 0.943758 0
M  V30 4182 H 395.16 -1.39824 0.526277 0
M  V30 4183 H 397.042 -4.03195 -1.22524 0
M  V30 4184 H 395.717 -2.86819 -1.50056 0
M  V30 4185 H 394.624 -3.68057 0.669696 0
M  V30 4186 H 395.957 -4.84598 0.861736 0
M  V30 4187 N 397.609 -0.515225 -1.4894 0
M  V30 4188 C 399.025 -0.172099 -1.58669 0
M  V30 4189 C 399.225 1.32405 -1.51892 0
M  V30 4190 O 398.281 2.10116 -1.40027 0
M  V30 4191 C 399.594 -0.761533 -2.90897 0
M  V30 4192 C 401.142 -0.728926 -3.04394 0
M  V30 4193 C 401.617 -1.29667 -4.39261 0
M  V30 4194 N 403.108 -1.25799 -4.4579 0
M  V30 4195 C 403.843 -1.66733 -5.48623 0
M  V30 4196 N 403.339 -2.15327 -6.58488 0
M  V30 4197 N 405.132 -1.58061 -5.39419 0
M  V30 4198 H 397.283 -1.48778 -1.51588 0
M  V30 4199 H 399.546 -0.617968 -0.718901 0
M  V30 4200 H 399.252 -1.81136 -3.01468 0
M  V30 4201 H 399.126 -0.230106 -3.76497 0
M  V30 4202 H 401.513 0.312098 -2.93445 0
M  V30 4203 H 401.594 -1.29766 -2.20442 0
M  V30 4204 H 401.238 -2.33655 -4.50963 0
M  V30 4205 H 401.168 -0.703752 -5.21876 0
M  V30 4206 H 403.659 -0.902102 -3.66975 0
M  V30 4207 H 403.972 -2.44594 -7.33071 0
M  V30 4208 H 402.317 -2.19311 -6.59491 0
M  V30 4209 H 405.508 -1.19906 -4.52482 0
M  V30 4210 H 405.681 -1.90284 -6.19432 0
M  V30 4211 N 399.087 1.5561 -0.249682 0
M  V30 4212 C 400.317 2.03116 0.377803 0
M  V30 4213 C 400.725 1.12822 1.51881 0
M  V30 4214 O 400.068 0.13562 1.83199 0
M  V30 4215 C 400.13 3.46866 0.944693 0
M  V30 4216 C 399.794 4.56955 -0.0644259 0
M  V30 4217 C 400.791 5.12485 -0.874957 0
M  V30 4218 C 398.476 5.01936 -0.19132 0
M  V30 4219 C 400.47 6.11491 -1.79881 0
M  V30 4220 C 398.157 6.00773 -1.11868 0
M  V30 4221 C 399.155 6.5543 -1.92095 0
M  V30 4222 O 398.843 7.5234 -2.83267 0
M  V30 4223 H 398.575 0.669489 0.0935961 0
M  V30 4224 H 401.129 2.02004 -0.371966 0
M  V30 4225 H 399.359 3.45136 1.74407 0
M  V30 4226 H 401.048 3.77856 1.48255 0
M  V30 4227 H 401.814 4.78564 -0.787523 0
M  V30 4228 H 397.693 4.59055 0.423072 0
M  V30 4229 H 401.237 6.54078 -2.42543 0
M  V30 4230 H 397.134 6.34114 -1.20703 0
M  V30 4231 H 397.902 7.69966 -2.7766 0
M  V30 4232 N 400.565 -0.0233959 1.57583 0
M  V30 4233 C 401.976 -0.56927 1.77809 0
M  V30 4234 C 402.327 -1.75284 0.881472 0
M  V30 4235 O 401.452 -2.1626 0.0777805 0
M  V30 4236 C 402.047 -1.03949 3.22459 0
M  V30 4237 C 400.606 -1.53084 3.43864 0
M  V30 4238 C 399.753 -0.471454 2.73263 0
M  V30 4239 H 402.704 0.202825 1.57399 0
M  V30 4240 H 402.725 -1.90661 3.29285 0
M  V30 4241 H 402.237 -0.177865 3.87692 0
M  V30 4242 H 400.338 -2.41414 2.83814 0
M  V30 4243 H 400.451 -1.57443 4.52491 0
M  V30 4244 H 398.815 -0.927788 2.37201 0
M  V30 4245 H 399.598 0.380808 3.41181 0
M  V30 4246 N 402.043 -1.548 -0.295768 0
M  V30 4247 C 403.291 -1.73985 -1.02828 0
M  V30 4248 C 403.612 -0.531406 -1.87619 0
M  V30 4249 O 402.882 0.454221 -1.90561 0
M  V30 4250 H 401.462 -0.641556 -0.382642 0
M  V30 4251 H 404.124 -1.92163 -0.325489 0
M  V30 4252 H 403.22 -2.63129 -1.67838 0
M  V30 4253 N 403.521 0.559213 -1.47345 0
M  V30 4254 C 404.798 1.31997 -1.44348 0
M  V30 4255 C 405.178 2.1064 -0.139358 0
M  V30 4256 O 404.526 2.1091 0.879153 0
M  V30 4257 C 404.736 2.22618 -2.68779 0
M  V30 4258 C 406.084 2.83701 -3.1591 0
M  V30 4259 O 407.108 2.32921 -2.69493 0
M  V30 4260 O 405.967 3.75993 -3.966 0
M  V30 4261 H 403.061 0.594251 -0.575147 0
M  V30 4262 H 405.607 0.578282 -1.59543 0
M  V30 4263 H 404.379 1.64093 -3.55231 0
M  V30 4264 H 404.002 3.04085 -2.5616 0
M  V30 4265 N 404.999 1.35443 0.805782 0
M  V30 4266 C 405.909 1.30546 1.94923 0
M  V30 4267 C 406.925 0.210233 1.72725 0
M  V30 4268 O 408.101 0.43975 1.9654 0
M  V30 4269 C 405.166 1.07782 3.29521 0
M  V30 4270 C 404.227 2.26625 3.64609 0
M  V30 4271 C 403.46 2.04938 4.92784 0
M  V30 4272 O 403.683 1.01624 5.61274 0
M  V30 4273 O 402.617 2.9232 5.26149 0
M  V30 4274 H 406.443 2.26779 2.02002 0
M  V30 4275 H 404.028 1.15823 0.943682 0
M  V30 4276 H 405.91 0.969392 4.10098 0
M  V30 4277 H 404.585 0.146003 3.23371 0
M  V30 4278 H 403.492 2.43033 2.84404 0
M  V30 4279 H 404.825 3.18257 3.75464 0
M  V30 4280 N 406.477 -1.02803 1.19454 0
M  V30 4281 C 407.723 -1.76598 1.0092 0
M  V30 4282 C 408.078 -1.86939 -0.455142 0
M  V30 4283 O 407.371 -1.37575 -1.33355 0
M  V30 4284 C 407.565 -3.18941 1.6128 0
M  V30 4285 C 407.394 -3.22476 3.13431 0
M  V30 4286 C 406.164 -3.30375 3.82336 0
M  V30 4287 C 408.362 -3.09451 4.10785 0
M  V30 4288 N 406.344 -3.23292 5.21877 0
M  V30 4289 C 407.715 -3.10012 5.36929 0
M  V30 4290 C 409.77 -2.93585 4.02135 0
M  V30 4291 C 408.473 -2.96334 6.55423 0
M  V30 4292 C 410.499 -2.81256 5.20239 0
M  V30 4293 C 409.861 -2.82472 6.45282 0
M  V30 4294 H 405.96 -0.657447 0.423424 0
M  V30 4295 H 408.544 -1.22369 1.5144 0
M  V30 4296 H 406.715 -3.71489 1.1336 0
M  V30 4297 H 408.447 -3.81102 1.36173 0
M  V30 4298 H 405.202 -3.3663 3.33132 0
M  V30 4299 H 405.626 -3.23156 5.94894 0
M  V30 4300 H 410.268 -2.91466 3.0628 0
M  V30 4301 H 407.986 -2.97203 7.51463 0
M  V30 4302 H 411.572 -2.70014 5.15348 0
M  V30 4303 H 410.452 -2.73036 7.35133 0
M  V30 4304 N 407.956 -0.998596 -1.21925 0
M  V30 4305 C 409.202 -0.678667 -1.91107 0
M  V30 4306 C 409.535 0.78791 -1.77498 0
M  V30 4307 O 408.81 1.57043 -1.1475 0
M  V30 4308 C 409.093 -1.09245 -3.43129 0
M  V30 4309 C 408.946 -2.61801 -3.6576 0
M  V30 4310 C 410.265 -0.649984 -4.35274 0
M  V30 4311 H 407.384 -0.248025 -0.694012 0
M  V30 4312 H 410.026 -1.24314 -1.43688 0
M  V30 4313 H 408.176 -0.612171 -3.83647 0
M  V30 4314 H 409.848 -3.17543 -3.34611 0
M  V30 4315 H 408.091 -3.03609 -3.09845 0
M  V30 4316 H 408.762 -2.85804 -4.7225 0
M  V30 4317 H 411.238 -1.0626 -4.02303 0
M  V30 4318 H 410.114 -0.967743 -5.40302 0
M  V30 4319 H 410.375 0.449139 -4.39813 0
M  V30 4320 N 409.434 1.37368 -0.772513 0
M  V30 4321 C 410.711 1.93839 -0.26188 0
M  V30 4322 C 411.091 1.7061 1.24319 0
M  V30 4323 O 410.439 1.05534 2.02669 0
M  V30 4324 C 410.649 3.43154 -0.636102 0
M  V30 4325 C 411.997 4.20249 -0.606324 0
M  V30 4326 O 413.021 3.5152 -0.575538 0
M  V30 4327 O 411.88 5.42809 -0.634086 0
M  V30 4328 H 408.974 0.82478 -0.0605555 0
M  V30 4329 H 411.52 1.4665 -0.853917 0
M  V30 4330 H 410.292 3.53647 -1.6748 0
M  V30 4331 H 409.915 3.97596 -0.0170516 0
M  V30 4332 N 410.912 0.523116 1.48665 0
M  V30 4333 C 412.158 -0.0134963 2.02796 0
M  V30 4334 C 412.491 -1.34582 1.40004 0
M  V30 4335 O 411.766 -1.86756 0.543381 0
M  V30 4336 C 412.049 -0.14276 3.59817 0
M  V30 4337 C 411.902 1.21425 4.331 0
M  V30 4338 C 413.221 -0.872856 4.31357 0
M  V30 4339 H 410.34 -0.00343074 0.736992 0
M  V30 4340 H 412.982 0.678816 1.7746 0
M  V30 4341 H 411.132 -0.732401 3.81534 0
M  V30 4342 H 412.804 1.84447 4.2282 0
M  V30 4343 H 411.047 1.79791 3.94788 0
M  V30 4344 H 411.718 1.07687 5.41394 0
M  V30 4345 H 414.194 -0.372555 4.14429 0
M  V30 4346 H 413.07 -0.932185 5.40927 0
M  V30 4347 H 413.331 -1.92161 3.98154 0
M  V30 4348 N 412.39 -1.55475 0.257931 0
M  V30 4349 C 413.32 -2.24815 -0.630912 0
M  V30 4350 C 414.301 -1.23224 -1.17259 0
M  V30 4351 O 415.486 -1.51904 -1.20991 0
M  V30 4352 C 412.616 -2.95609 -1.82298 0
M  V30 4353 C 411.57 -4.03982 -1.41359 0
M  V30 4354 C 410.896 -4.6226 -2.68738 0
M  V30 4355 C 412.196 -5.19109 -0.57648 0
M  V30 4356 H 413.89 -2.99354 -0.0526878 0
M  V30 4357 H 411.436 -1.4398 -0.023901 0
M  V30 4358 H 413.389 -3.42822 -2.45054 0
M  V30 4359 H 412.113 -2.18577 -2.42676 0
M  V30 4360 H 410.772 -3.57555 -0.809324 0
M  V30 4361 H 410.42 -3.81915 -3.27338 0
M  V30 4362 H 410.12 -5.35424 -2.42065 0
M  V30 4363 H 411.644 -5.12212 -3.32372 0
M  V30 4364 H 413.058 -5.62479 -1.10861 0
M  V30 4365 H 411.455 -5.98729 -0.405351 0
M  V30 4366 H 412.525 -4.83174 0.408776 0
M  V30 4367 N 413.868 0.0150385 -1.57593 0
M  V30 4368 C 415.116 0.701613 -1.8953 0
M  V30 4369 C 415.437 1.75139 -0.857396 0
M  V30 4370 O 414.707 1.95607 0.107194 0
M  V30 4371 H 413.287 0.26213 -0.699498 0
M  V30 4372 H 415.949 -0.0223304 -1.94887 0
M  V30 4373 H 415.045 1.18236 -2.88837 0
M  V30 4374 N 415.346 1.54954 0.287554 0
M  V30 4375 C 416.593 1.74873 1.02106 0
M  V30 4376 C 416.921 0.541829 1.86801 0
M  V30 4377 O 416.176 -0.475992 1.89823 0
M  V30 4378 C 416.475 2.99833 1.94512 0
M  V30 4379 C 416.141 4.33029 1.25686 0
M  V30 4380 C 414.803 4.69233 1.06649 0
M  V30 4381 C 417.155 5.15542 0.765913 0
M  V30 4382 C 414.483 5.85518 0.372222 0
M  V30 4383 C 416.835 6.32542 0.0853101 0
M  V30 4384 C 415.499 6.67398 -0.1169 0
M  V30 4385 H 414.769 0.639906 0.373632 0
M  V30 4386 H 417.416 1.89219 0.294665 0
M  V30 4387 H 415.721 2.80325 2.73725 0
M  V30 4388 H 417.418 3.1244 2.51361 0
M  V30 4389 H 414.008 4.04564 1.41512 0
M  V30 4390 H 418.192 4.88059 0.90066 0
M  V30 4391 H 413.448 6.11057 0.204695 0
M  V30 4392 H 417.622 6.95741 -0.302936 0
M  V30 4393 H 415.249 7.57357 -0.656859 0
M  V30 4394 N 416.824 -0.551391 1.4764 0
M  V30 4395 C 418.101 -1.31229 1.45046 0
M  V30 4396 C 418.481 -2.10563 0.150527 0
M  V30 4397 O 417.829 -2.11374 -0.867956 0
M  V30 4398 C 418.039 -2.21189 2.69956 0
M  V30 4399 C 419.387 -2.82021 3.1741 0
M  V30 4400 O 420.411 -2.31488 2.70724 0
M  V30 4401 O 419.27 -3.73885 3.98588 0
M  V30 4402 H 416.364 -0.591193 0.578291 0
M  V30 4403 H 418.91 -0.569813 1.59847 0
M  V30 4404 H 417.682 -1.62207 3.56096 0
M  V30 4405 H 417.305 -3.02722 2.57769 0
M  V30 4406 N 418.302 -1.35869 -0.798587 0
M  V30 4407 C 419.53 -1.32722 -1.58722 0
M  V30 4408 C 419.945 0.0935631 -1.88568 0
M  V30 4409 O 419.302 1.04784 -1.49421 0
M  V30 4410 C 419.353 -2.13974 -2.91371 0
M  V30 4411 O 419.074 -3.50514 -2.62815 0
M  V30 4412 C 420.575 -2.18504 -3.85708 0
M  V30 4413 H 417.795 -0.45562 -0.492596 0
M  V30 4414 H 420.339 -1.78837 -0.991843 0
M  V30 4415 H 418.494 -1.71438 -3.47402 0
M  V30 4416 H 418.908 -3.92806 -3.47568 0
M  V30 4417 H 420.382 -2.79732 -4.75872 0
M  V30 4418 H 420.859 -1.18597 -4.22885 0
M  V30 4419 H 421.465 -2.61236 -3.35612 0
M  V30 4420 N 419.78 1.02168 -1.19998 0
M  V30 4421 C 421.01 1.79036 -1.031 0
M  V30 4422 C 421.418 1.84409 0.423078 0
M  V30 4423 O 420.761 1.29228 1.30559 0
M  V30 4424 C 420.823 3.25185 -1.53281 0
M  V30 4425 C 420.487 3.43431 -3.01503 0
M  V30 4426 C 421.484 3.33063 -3.99206 0
M  V30 4427 C 419.169 3.69412 -3.40353 0
M  V30 4428 C 421.163 3.48413 -5.33748 0
M  V30 4429 C 418.85 3.84406 -4.75053 0
M  V30 4430 C 419.848 3.7391 -5.71559 0
M  V30 4431 O 419.536 3.88452 -7.03818 0
M  V30 4432 H 419.268 0.570043 -0.363355 0
M  V30 4433 H 421.822 1.29524 -1.59414 0
M  V30 4434 H 420.052 3.75756 -0.913483 0
M  V30 4435 H 421.741 3.83671 -1.32481 0
M  V30 4436 H 422.507 3.12934 -3.70537 0
M  V30 4437 H 418.386 3.76671 -2.65782 0
M  V30 4438 H 421.93 3.40137 -6.09059 0
M  V30 4439 H 417.827 4.04035 -5.03415 0
M  V30 4440 H 418.595 4.055 -7.10993 0
M  V30 4441 N 421.258 1.00505 1.21394 0
M  V30 4442 C 422.506 0.686415 1.90086 0
M  V30 4443 C 422.827 -0.785264 1.7849 0
M  V30 4444 O 422.097 -1.56387 1.17983 0
M  V30 4445 H 420.677 0.2509 0.703604 0
M  V30 4446 H 423.339 1.27417 1.47482 0
M  V30 4447 H 422.435 0.959621 2.96981 0
M  V30 4448 N 422.737 -1.36956 0.779787 0
M  V30 4449 C 424.148 -1.82094 0.412156 0
M  V30 4450 C 424.499 -1.64926 -1.06273 0
M  V30 4451 O 423.624 -1.16483 -1.82375 0
M  V30 4452 C 424.219 -3.3059 0.741319 0
M  V30 4453 C 422.778 -3.73974 0.426641 0
M  V30 4454 C 421.925 -2.59368 0.980987 0
M  V30 4455 H 424.876 -1.25314 0.973758 0
M  V30 4456 H 424.897 -3.80489 0.028887 0
M  V30 4457 H 424.409 -3.43054 1.81482 0
M  V30 4458 H 422.51 -3.67076 -0.639215 0
M  V30 4459 H 422.623 -4.69778 0.940515 0
M  V30 4460 H 420.987 -2.51463 0.404757 0
M  V30 4461 H 421.77 -2.74621 2.06005 0
M  V30 4462 N 424.215 -0.530993 -1.48385 0
M  V30 4463 C 425.461 0.00274135 -2.028 0
M  V30 4464 C 425.794 1.33838 -1.40716 0
M  V30 4465 O 425.069 1.86465 -0.553277 0
M  V30 4466 C 425.352 0.123676 -3.59888 0
M  V30 4467 C 425.205 -1.2372 -4.3245 0
M  V30 4468 C 426.524 0.849967 -4.31814 0
M  V30 4469 H 423.643 -0.000477758 -0.737 0
M  V30 4470 H 426.285 -0.688217 -1.77098 0
M  V30 4471 H 424.435 0.712157 -3.81917 0
M  V30 4472 H 426.107 -1.86687 -4.21836 0
M  V30 4473 H 424.35 -1.81882 -3.93829 0
M  V30 4474 H 425.021 -1.10557 -5.40815 0
M  V30 4475 H 427.497 0.350572 -4.14621 0
M  V30 4476 H 426.373 0.903486 -5.41413 0
M  V30 4477 H 426.634 1.90047 -3.99167 0
M  V30 4478 N 425.693 1.55336 -0.266172 0
M  V30 4479 C 426.656 2.20878 0.612001 0
M  V30 4480 C 427.656 1.18388 1.08816 0
M  V30 4481 O 428.846 1.4335 0.989774 0
M  V30 4482 C 425.978 2.86765 1.84332 0
M  V30 4483 H 427.171 2.99873 0.0398718 0
M  V30 4484 H 424.724 1.56291 -0.0167309 0
M  V30 4485 H 425.459 2.11759 2.45619 0
M  V30 4486 H 425.244 3.61862 1.5099 0
M  V30 4487 H 426.734 3.36867 2.46801 0
M  V30 4488 N 427.171 -0.0066808 1.57599 0
M  V30 4489 C 428.448 -0.729586 1.81484 0
M  V30 4490 C 428.828 -1.92359 0.869558 0
M  V30 4491 O 428.176 -2.28348 -0.0832533 0
M  V30 4492 C 428.386 -1.1416 3.29801 0
M  V30 4493 C 429.734 -1.54823 3.95367 0
M  V30 4494 O 430.758 -1.23558 3.34084 0
M  V30 4495 O 429.617 -2.12937 5.03309 0
M  V30 4496 H 426.711 -0.354674 0.747085 0
M  V30 4497 H 429.257 0.0182609 1.6969 0
M  V30 4498 H 428.029 -0.290231 3.90222 0
M  V30 4499 H 427.652 -1.94876 3.46568 0
M  V30 4500 N 428.649 -1.55105 -0.279332 0
M  V30 4501 C 429.597 -1.88333 -1.36505 0
M  V30 4502 C 430.591 -0.759043 -1.51443 0
M  V30 4503 O 431.797 -0.943312 -1.53302 0
M  V30 4504 H 428.172 -0.59766 -0.456406 0
M  V30 4505 H 430.143 -2.79041 -1.05728 0
M  V30 4506 C 428.892 -2.16628 -2.7197 0
M  V30 4507 H 428.215 -3.02624 -2.61264 0
M  V30 4508 H 429.655 -2.43803 -3.46895 0
M  V30 4509 C 428.114 -0.971807 -3.22579 0
M  V30 4510 O 428.644 -0.203228 -4.01186 0
M  V30 4511 N 426.85 -0.771238 -2.80179 0
M  V30 4512 H 426.397 -1.39792 -2.1637 0
M  V30 4513 H 426.355 0.0263667 -3.14389 0
M  V30 4514 N 430.127 0.543554 -1.4793 0
M  V30 4515 C 431.09 1.63156 -1.60975 0
M  V30 4516 C 432.09 1.53346 -0.483899 0
M  V30 4517 O 433.28 1.5726 -0.749339 0
M  V30 4518 C 430.412 3.02743 -1.56716 0
M  V30 4519 H 431.605 1.52934 -2.57975 0
M  V30 4520 H 429.158 0.764557 -1.36324 0
M  V30 4521 H 429.893 3.18484 -0.611418 0
M  V30 4522 H 429.678 3.11272 -2.38438 0
M  V30 4523 H 431.168 3.81871 -1.6901 0
M  V30 4524 N 431.605 1.3629 0.791371 0
M  V30 4525 C 432.882 1.20962 1.53712 0
M  V30 4526 C 433.262 -0.205021 2.10102 0
M  V30 4527 O 432.61 -1.21042 1.93807 0
M  V30 4528 C 432.82 2.29002 2.63361 0
M  V30 4529 C 434.168 2.65572 3.31295 0
M  V30 4530 O 435.192 2.2803 2.73643 0
M  V30 4531 O 434.051 3.3018 4.35481 0
M  V30 4532 H 431.145 0.47086 0.679867 0
M  V30 4533 H 433.691 1.48016 0.830021 0
M  V30 4534 H 432.463 3.2382 2.19674 0
M  V30 4535 H 432.086 2.03303 3.41692 0
M  V30 4536 N 433.083 -1.0153 1.20538 0
M  V30 4537 C 434.329 -1.75517 1.02787 0
M  V30 4538 C 434.684 -1.87411 -0.435289 0
M  V30 4539 O 433.977 -1.38982 -1.31889 0
M  V30 4540 C 434.171 -3.17213 1.64654 0
M  V30 4541 C 434 -3.19134 3.16834 0
M  V30 4542 C 432.77 -3.26301 3.85818 0
M  V30 4543 C 434.968 -3.05077 4.14044 0
M  V30 4544 N 432.95 -3.17739 5.25276 0
M  V30 4545 C 434.321 -3.04299 5.40187 0
M  V30 4546 C 436.376 -2.89303 4.05226 0
M  V30 4547 C 435.079 -2.89365 6.58529 0
M  V30 4548 C 437.105 -2.75723 5.23193 0
M  V30 4549 C 436.467 -2.75612 6.48242 0
M  V30 4550 H 432.566 -0.652919 0.430373 0
M  V30 4551 H 435.15 -1.20755 1.52729 0
M  V30 4552 H 433.321 -3.70266 1.17294 0
M  V30 4553 H 435.053 -3.79637 1.40208 0
M  V30 4554 H 431.808 -3.33078 3.36684 0
M  V30 4555 H 432.232 -3.16829 5.98288 0
M  V30 4556 H 436.874 -2.88201 3.09354 0
M  V30 4557 H 434.592 -2.89216 7.54573 0
M  V30 4558 H 438.178 -2.64533 5.18183 0
M  V30 4559 H 437.058 -2.65224 7.37988 0
M  V30 4560 N 434.561 -1.01147 -1.20859 0
M  V30 4561 C 435.808 -0.697865 -1.90095 0
M  V30 4562 C 436.136 0.772014 -1.78522 0
M  V30 4563 O 435.391 1.57595 -1.16027 0
M  V30 4564 C 435.69 -1.0727 -3.40922 0
M  V30 4565 C 435.356 -2.53792 -3.72693 0
M  V30 4566 C 434.018 -2.93829 -3.81075 0
M  V30 4567 C 436.37 -3.48674 -3.87397 0
M  V30 4568 C 433.698 -4.27696 -4.01613 0
M  V30 4569 C 436.05 -4.82223 -4.09444 0
M  V30 4570 C 434.714 -5.21973 -4.16054 0
M  V30 4571 H 433.984 -0.255367 -0.695607 0
M  V30 4572 H 436.631 -1.27111 -1.43231 0
M  V30 4573 H 434.936 -0.417799 -3.89566 0
M  V30 4574 H 436.633 -0.807818 -3.92779 0
M  V30 4575 H 433.223 -2.21768 -3.66765 0
M  V30 4576 H 437.407 -3.18904 -3.80281 0
M  V30 4577 H 432.663 -4.58055 -4.04964 0
M  V30 4578 H 436.837 -5.55672 -4.19763 0
M  V30 4579 H 434.464 -6.25717 -4.31721 0
M  V30 4580 N 436.039 1.36541 -0.78704 0
M  V30 4581 C 437.455 1.52571 -0.46844 0
M  V30 4582 C 437.655 1.7415 1.01361 0
M  V30 4583 O 436.711 1.77163 1.79915 0
M  V30 4584 C 438.024 2.71299 -1.29682 0
M  V30 4585 C 439.572 2.85169 -1.29027 0
M  V30 4586 C 440.047 4.06898 -2.10233 0
M  V30 4587 N 441.538 4.1404 -2.07666 0
M  V30 4588 C 442.273 5.07301 -2.67271 0
M  V30 4589 N 441.769 6.06021 -3.35724 0
M  V30 4590 N 443.562 4.99898 -2.57018 0
M  V30 4591 H 435.713 1.20788 -1.74711 0
M  V30 4592 H 437.976 0.589364 -0.742532 0
M  V30 4593 H 437.682 2.61868 -2.34773 0
M  V30 4594 H 437.556 3.6539 -0.936479 0
M  V30 4595 H 439.943 2.94062 -0.247284 0
M  V30 4596 H 440.024 1.91992 -1.69035 0
M  V30 4597 H 439.668 3.98766 -3.1456 0
M  V30 4598 H 439.598 4.99218 -1.67597 0
M  V30 4599 H 442.089 3.43357 -1.57843 0
M  V30 4600 H 442.402 6.73741 -3.78541 0
M  V30 4601 H 440.747 6.06253 -3.39826 0
M  V30 4602 H 443.938 4.21724 -2.03142 0
M  V30 4603 H 444.111 5.72392 -3.03761 0
M  V30 4604 N 437.518 0.538854 1.48102 0
M  V30 4605 C 438.466 -0.232325 2.31437 0
M  V30 4606 C 439.46 -0.927004 1.41785 0
M  V30 4607 O 440.666 -0.850378 1.58646 0
M  V30 4608 H 437.041 -0.0937916 0.746128 0
M  V30 4609 H 439.012 0.489986 2.9435 0
M  V30 4610 C 437.761 -1.26074 3.24038 0
M  V30 4611 H 437.084 -0.735609 3.92974 0
M  V30 4612 H 438.524 -1.77157 3.85216 0
M  V30 4613 C 436.983 -2.29902 2.46265 0
M  V30 4614 O 437.513 -3.36502 2.19384 0
M  V30 4615 N 435.719 -2.03348 2.07601 0
M  V30 4616 H 435.266 -1.16675 2.29662 0
M  V30 4617 H 435.224 -2.73038 1.55877 0
M  V30 4618 N 438.996 -1.55193 0.274407 0
M  V30 4619 C 440.242 -1.99877 -0.343086 0
M  V30 4620 C 440.575 -1.16256 -1.55558 0
M  V30 4621 O 439.85 -0.232462 -1.93106 0
M  V30 4622 C 440.133 -3.52706 -0.725965 0
M  V30 4623 C 439.986 -4.47081 0.493818 0
M  V30 4624 C 441.305 -4.11422 -1.56268 0
M  V30 4625 H 438.424 -0.726625 -0.123229 0
M  V30 4626 H 441.066 -1.86136 0.38121 0
M  V30 4627 H 439.216 -3.64546 -1.34307 0
M  V30 4628 H 440.888 -4.47186 1.13237 0
M  V30 4629 H 439.131 -4.1877 1.13201 0
M  V30 4630 H 439.802 -5.51699 0.18217 0
M  V30 4631 H 442.278 -4.02855 -1.04151 0
M  V30 4632 H 441.154 -5.18568 -1.79939 0
M  V30 4633 H 441.415 -3.61607 -2.54348 0
M  V30 4634 N 440.474 -0.00167713 -1.576 0
M  V30 4635 C 441.72 0.683832 -1.90923 0
M  V30 4636 C 442.053 1.7333 -0.875799 0
M  V30 4637 O 441.328 1.94215 0.10525 0
M  V30 4638 C 441.611 1.32543 -3.3482 0
M  V30 4639 C 441.464 0.287387 -4.48881 0
M  V30 4640 C 442.783 2.25114 -3.78169 0
M  V30 4641 H 439.902 0.247125 -0.694333 0
M  V30 4642 H 442.544 -0.0533149 -1.89925 0
M  V30 4643 H 440.694 1.95372 -3.35801 0
M  V30 4644 H 442.366 -0.341346 -4.60035 0
M  V30 4645 H 440.609 -0.39017 -4.32042 0
M  V30 4646 H 441.28 0.775393 -5.46527 0
M  V30 4647 H 443.756 1.723 -3.7875 0
M  V30 4648 H 442.632 2.66971 -4.79602 0
M  V30 4649 H 442.893 3.13092 -3.12131 0
M  V30 4650 N 441.952 1.55251 0.271103 0
M  V30 4651 C 442.915 1.87484 1.31842 0
M  V30 4652 C 443.915 0.749545 1.42262 0
M  V30 4653 O 445.105 1.01771 1.4138 0
M  V30 4654 C 442.237 2.0818 2.69951 0
M  V30 4655 H 443.43 2.81108 1.0449 0
M  V30 4656 H 440.983 1.47771 0.509258 0
M  V30 4657 H 441.718 1.16944 3.02481 0
M  V30 4658 H 441.503 2.90114 2.63774 0
M  V30 4659 H 442.993 2.34385 3.4562 0
M  V30 4660 N 443.43 -0.535701 1.48216 0
M  V30 4661 C 444.378 -1.66179 1.62749 0
M  V30 4662 C 445.372 -1.62034 0.49409 0
M  V30 4663 O 446.578 -1.6696 0.672624 0
M  V30 4664 H 442.953 -0.550244 0.512578 0
M  V30 4665 H 444.924 -1.51063 2.57337 0
M  V30 4666 C 443.673 -3.04471 1.67907 0
M  V30 4667 H 442.996 -3.08351 2.54479 0
M  V30 4668 H 444.436 -3.82894 1.82121 0
M  V30 4669 C 442.895 -3.34314 0.416596 0
M  V30 4670 O 443.425 -3.98905 -0.473014 0
M  V30 4671 N 441.631 -2.89149 0.290038 0
M  V30 4672 H 441.178 -2.36764 1.01493 0
M  V30 4673 H 441.136 -3.09486 -0.55367 0
M  V30 4674 N 444.908 -1.36708 -0.784132 0
M  V30 4675 C 445.871 -1.31307 -1.87859 0
M  V30 4676 C 446.871 -0.219654 -1.59293 0
M  V30 4677 O 448.061 -0.47476 -1.67606 0
M  V30 4678 C 445.193 -1.03679 -3.24751 0
M  V30 4679 H 446.386 -2.28647 -1.94064 0
M  V30 4680 H 443.939 -1.21558 -0.98252 0
M  V30 4681 H 444.674 -0.0681936 -3.24228 0
M  V30 4682 H 444.459 -1.82811 -3.46876 0
M  V30 4683 H 445.949 -1.02518 -4.04821 0
M  V30 4684 N 446.386 1.0089 -1.21074 0
M  V30 4685 C 447.349 2.0775 -0.968129 0
M  V30 4686 C 448.349 1.6069 0.0593445 0
M  V30 4687 O 449.539 1.73293 -0.177525 0
M  V30 4688 C 446.671 3.37794 -0.459108 0
M  V30 4689 H 447.864 2.30707 -1.9161 0
M  V30 4690 H 445.417 1.17807 -1.02719 0
M  V30 4691 H 446.152 3.20516 0.49397 0
M  V30 4692 H 445.937 3.7328 -1.20019 0
M  V30 4693 H 447.427 4.16454 -0.309099 0
M  V30 4694 N 447.864 1.01787 1.20321 0
M  V30 4695 C 448.794 0.609625 2.25401 0
M  V30 4696 C 449.775 -0.375951 1.65893 0
M  V30 4697 O 450.96 -0.261101 1.92437 0
M  V30 4698 C 448.09 -0.0515995 3.47262 0
M  V30 4699 C 447.044 0.855095 4.19371 0
M  V30 4700 C 446.37 0.0595757 5.34667 0
M  V30 4701 C 447.67 2.16374 4.75373 0
M  V30 4702 H 449.364 1.48803 2.59804 0
M  V30 4703 H 446.91 0.716934 1.24884 0
M  V30 4704 H 448.863 -0.348764 4.19954 0
M  V30 4705 H 447.587 -0.964726 3.12027 0
M  V30 4706 H 446.246 1.13628 3.48546 0
M  V30 4707 H 445.894 -0.85524 4.95676 0
M  V30 4708 H 445.594 0.663406 5.83843 0
M  V30 4709 H 447.118 -0.231105 6.10162 0
M  V30 4710 H 448.532 1.92885 5.39878 0
M  V30 4711 H 446.929 2.71853 5.34991 0
M  V30 4712 H 447.999 2.82589 3.94045 0
M  V30 4713 N 449.342 -1.36122 0.79427 0
M  V30 4714 C 450.588 -1.99406 0.369452 0
M  V30 4715 C 450.921 -1.62886 -1.05743 0
M  V30 4716 O 450.196 -0.886053 -1.73145 0
M  V30 4717 C 450.479 -3.56046 0.538833 0
M  V30 4718 C 450.332 -4.02404 2.00976 0
M  V30 4719 C 451.651 -4.40079 -0.0431359 0
M  V30 4720 H 448.77 -0.724397 0.135712 0
M  V30 4721 H 451.412 -1.61461 1.00151 0
M  V30 4722 H 449.562 -3.885 0.000771004 0
M  V30 4723 H 451.234 -3.80415 2.60926 0
M  V30 4724 H 449.477 -3.53765 2.51063 0
M  V30 4725 H 450.148 -5.11344 2.07922 0
M  V30 4726 H 452.624 -4.14013 0.416228 0
M  V30 4727 H 451.5 -5.48799 0.105374 0
M  V30 4728 H 451.761 -4.27264 -1.13571 0
M  V30 4729 N 450.82 -0.546701 -1.47814 0
M  V30 4730 C 451.783 0.196287 -2.28358 0
M  V30 4731 C 452.783 0.852437 -1.36346 0
M  V30 4732 O 453.973 0.709913 -1.59078 0
M  V30 4733 C 451.105 1.28579 -3.15722 0
M  V30 4734 H 452.298 -0.511086 -2.95513 0
M  V30 4735 H 449.851 -0.303248 -1.5333 0
M  V30 4736 H 450.586 2.0259 -2.53235 0
M  V30 4737 H 450.371 0.820229 -3.83425 0
M  V30 4738 H 451.861 1.80793 -3.76435 0
M  V30 4739 N 452.299 1.55045 -0.282633 0
M  V30 4740 C 453.715 1.59441 0.0712997 0
M  V30 4741 C 453.915 1.2998 1.53972 0
M  V30 4742 O 452.971 1.06431 2.28973 0
M  V30 4743 C 454.284 2.99097 -0.310104 0
M  V30 4744 C 455.832 3.1194 -0.257343 0
M  V30 4745 C 456.307 4.53875 -0.613297 0
M  V30 4746 N 457.798 4.5974 -0.565134 0
M  V30 4747 C 458.533 5.67603 -0.81326 0
M  V30 4748 N 458.029 6.83582 -1.1264 0
M  V30 4749 N 459.822 5.57187 -0.741553 0
M  V30 4750 H 451.973 1.72458 -1.23984 0
M  V30 4751 H 454.236 0.804549 -0.501403 0
M  V30 4752 H 453.942 3.25516 -1.33163 0
M  V30 4753 H 453.816 3.75616 0.345366 0
M  V30 4754 H 456.203 2.85281 0.754905 0
M  V30 4755 H 456.284 2.37618 -0.947178 0
M  V30 4756 H 455.928 4.81261 -1.62327 0
M  V30 4757 H 455.858 5.26508 0.09841 0
M  V30 4758 H 458.349 3.76427 -0.333294 0
M  V30 4759 H 458.662 7.6175 -1.30219 0
M  V30 4760 H 457.007 6.85179 -1.16425 0
M  V30 4761 H 460.198 4.65457 -0.496705 0
M  V30 4762 H 460.371 6.41171 -0.938306 0
M  V30 4763 N 453.777 0.010035 1.57597 0
M  V30 4764 C 454.71 -1.01234 2.04516 0
M  V30 4765 C 455.688 -1.32886 0.937024 0
M  V30 4766 O 456.872 -1.44879 1.20592 0
M  V30 4767 C 453.999 -2.33738 2.45121 0
M  V30 4768 C 453.045 -2.17679 3.66767 0
M  V30 4769 S 453.878 -1.49343 5.14254 0
M  V30 4770 C 455.034 -2.83256 5.58137 0
M  V30 4771 H 455.267 -0.612866 2.90914 0
M  V30 4772 H 452.8 -0.201124 1.53084 0
M  V30 4773 H 454.758 -3.09922 2.69182 0
M  V30 4774 H 453.419 -2.70823 1.59103 0
M  V30 4775 H 452.612 -3.1559 3.92962 0
M  V30 4776 H 452.214 -1.4964 3.42759 0
M  V30 4777 H 454.506 -3.79538 5.6121 0
M  V30 4778 H 455.449 -2.61749 6.57946 0
M  V30 4779 H 455.857 -2.87627 4.85727 0
M  V30 4780 N 455.255 -1.55392 -0.262866 0
M  V30 4781 C 456.218 -1.88181 -1.30846 0
M  V30 4782 C 457.218 -0.757079 -1.41862 0
M  V30 4783 O 458.408 -1.02519 -1.40838 0
M  V30 4784 C 455.54 -2.09609 -2.68844 0
M  V30 4785 H 456.733 -2.81659 -1.02997 0
M  V30 4786 H 454.286 -1.48039 -0.501414 0
M  V30 4787 H 455.021 -1.18547 -3.01856 0
M  V30 4788 H 454.806 -2.91508 -2.62231 0
M  V30 4789 H 456.296 -2.36215 -3.44372 0
M  V30 4790 N 456.733 0.527833 -1.48498 0
M  V30 4791 C 457.643 1.65907 -1.65867 0
M  V30 4792 C 458.659 1.6537 -0.541192 0
M  V30 4793 O 459.835 1.84282 -0.812534 0
M  V30 4794 C 456.9 3.02364 -1.69637 0
M  V30 4795 C 455.961 3.1374 -2.93028 0
M  V30 4796 C 455.194 4.43688 -2.96609 0
M  V30 4797 O 455.417 5.30913 -2.08538 0
M  V30 4798 O 454.351 4.59475 -3.88802 0
M  V30 4799 H 458.177 1.5419 -2.61647 0
M  V30 4800 H 455.762 0.701163 -1.31924 0
M  V30 4801 H 457.644 3.83515 -1.74625 0
M  V30 4802 H 456.319 3.14401 -0.770312 0
M  V30 4803 H 455.226 2.31877 -2.93571 0
M  V30 4804 H 456.559 3.06621 -3.85026 0
M  V30 4805 N 458.211 1.37122 0.776871 0
M  V30 4806 C 459.174 1.32301 1.8716 0
M  V30 4807 C 460.174 0.228099 1.59174 0
M  V30 4808 O 461.364 0.483642 1.67352 0
M  V30 4809 C 458.496 1.054 3.24197 0
M  V30 4810 H 459.689 2.29673 1.92848 0
M  V30 4811 H 457.242 1.22077 0.97606 0
M  V30 4812 H 457.977 0.0853872 3.24188 0
M  V30 4813 H 457.762 1.84648 3.45901 0
M  V30 4814 H 459.252 1.04664 4.04271 0
M  V30 4815 N 459.689 -1.00246 1.21608 0
M  V30 4816 C 461.105 -1.26435 0.973975 0
M  V30 4817 C 461.305 -1.98642 -0.338143 0
M  V30 4818 O 460.361 -2.29026 -1.06317 0
M  V30 4819 C 461.674 -2.08551 2.16626 0
M  V30 4820 C 463.222 -2.21769 2.20879 0
M  V30 4821 C 463.697 -3.07267 3.39633 0
M  V30 4822 N 465.188 -3.14855 3.39736 0
M  V30 4823 C 465.923 -3.81274 4.28273 0
M  V30 4824 N 465.419 -4.497 5.27012 0
M  V30 4825 N 467.212 -3.7794 4.16074 0
M  V30 4826 H 459.363 -0.518089 2.05984 0
M  V30 4827 H 461.626 -0.291368 0.902113 0
M  V30 4828 H 461.332 -1.62847 3.11727 0
M  V30 4829 H 461.206 -3.09303 2.15897 0
M  V30 4830 H 463.593 -2.66691 1.26332 0
M  V30 4831 H 463.674 -1.20478 2.25652 0
M  V30 4832 H 463.318 -2.63047 4.34475 0
M  V30 4833 H 463.248 -4.08678 3.321 0
M  V30 4834 H 465.739 -2.66147 2.6828 0
M  V30 4835 H 466.052 -4.98092 5.90867 0
M  V30 4836 H 464.397 -4.48479 5.30935 0
M  V30 4837 H 467.588 -3.23638 3.38195 0
M  V30 4838 H 467.761 -4.29424 4.85282 0
M  V30 4839 N 461.167 -1.02423 -1.1978 0
M  V30 4840 C 462.415 -0.716569 -1.8897 0
M  V30 4841 C 462.736 0.756769 -1.79716 0
M  V30 4842 O 462.006 1.5449 -1.20456 0
M  V30 4843 H 460.586 -0.262062 -0.699523 0
M  V30 4844 H 463.248 -1.29747 -1.45436 0
M  V30 4845 H 462.344 -1.00675 -2.95417 0
M  V30 4846 N 462.645 1.35699 -0.801477 0
M  V30 4847 C 463.592 2.29876 -0.206294 0
M  V30 4848 C 464.562 1.52565 0.656752 0
M  V30 4849 O 465.747 1.81024 0.602906 0
M  V30 4850 C 462.887 3.39052 0.643272 0
M  V30 4851 C 462 4.31335 -0.239644 0
M  V30 4852 C 461.135 5.27599 0.61744 0
M  V30 4853 C 460.174 6.11521 -0.26619 0
M  V30 4854 N 459.311 6.99938 0.550571 0
M  V30 4855 H 464.151 2.80187 -1.01484 0
M  V30 4856 H 461.688 1.37902 -0.511997 0
M  V30 4857 H 463.646 4.0101 1.15094 0
M  V30 4858 H 462.276 2.9003 1.41713 0
M  V30 4859 H 461.328 3.70426 -0.865381 0
M  V30 4860 H 462.64 4.90243 -0.919985 0
M  V30 4861 H 461.794 5.94906 1.19045 0
M  V30 4862 H 460.533 4.69176 1.33137 0
M  V30 4863 H 459.538 5.43166 -0.851507 0
M  V30 4864 H 460.763 6.72022 -0.9779 0
M  V30 4865 H 458.709 6.44008 1.24856 0
M  V30 4866 H 458.626 7.55966 -0.071832 0
M  V30 4867 H 459.894 7.71599 1.10702 0
M  V30 4868 N 464.123 0.554532 1.47522 0
M  V30 4869 C 465.372 0.0273458 2.01681 0
M  V30 4870 C 465.685 -1.32962 1.43459 0
M  V30 4871 O 466.891 -1.94657 1.89265 0
M  V30 4872 C 465.347 -0.00159057 3.599 0
M  V30 4873 C 464.955 1.35197 4.27113 0
M  V30 4874 C 466.699 -0.476311 4.21819 0
M  V30 4875 C 464.606 1.28229 5.77331 0
M  V30 4876 H 463.536 0.00645269 0.753972 0
M  V30 4877 H 466.187 0.701985 1.69542 0
M  V30 4878 H 464.569 -0.741821 3.8899 0
M  V30 4879 H 465.743 2.1097 4.09668 0
M  V30 4880 H 464.058 1.76441 3.77171 0
M  V30 4881 H 466.655 -0.5468 5.31897 0
M  V30 4882 H 466.998 -1.4877 3.8881 0
M  V30 4883 H 467.531 0.20898 3.97251 0
M  V30 4884 H 464.27 2.26959 6.14955 0
M  V30 4885 H 463.79 0.566314 5.97121 0
M  V30 4886 H 465.469 0.983226 6.39485 0
M  V30 4887 N 465.601 -1.54893 0.290851 0
M  V30 4888 C 467.012 -1.85584 -0.203816 0
M  V30 4889 C 467.363 -1.21285 -1.54222 0
M  V30 4890 O 466.488 -0.506841 -2.10381 0
M  V30 4891 C 467.083 -3.367 -0.376595 0
M  V30 4892 C 465.642 -3.6746 -0.815485 0
M  V30 4893 C 464.789 -2.77178 0.0821087 0
M  V30 4894 H 467.74 -1.50208 0.512175 0
M  V30 4895 H 467.761 -3.60656 -1.21275 0
M  V30 4896 H 467.273 -3.8347 0.59767 0
M  V30 4897 H 465.374 -3.26201 -1.80066 0
M  V30 4898 H 465.487 -4.7478 -0.641905 0
M  V30 4899 H 463.851 -2.50925 -0.436895 0
M  V30 4900 H 464.634 -3.26767 1.05254 0
M  V30 4901 N 467.08 -0.0183926 -1.57589 0
M  V30 4902 C 468.326 0.663543 -1.91638 0
M  V30 4903 C 468.659 1.72392 -0.894134 0
M  V30 4904 O 467.934 1.94316 0.0846449 0
M  V30 4905 C 468.217 1.28984 -3.36207 0
M  V30 4906 C 468.07 0.239761 -4.49161 0
M  V30 4907 C 469.389 2.2109 -3.80536 0
M  V30 4908 H 466.508 0.239746 -0.696915 0
M  V30 4909 H 469.15 -0.073456 -1.89858 0
M  V30 4910 H 467.3 1.91799 -3.37854 0
M  V30 4911 H 468.972 -0.390119 -4.59647 0
M  V30 4912 H 467.215 -0.435972 -4.31604 0
M  V30 4913 H 467.886 0.717383 -5.47319 0
M  V30 4914 H 470.362 1.68273 -3.80557 0
M  V30 4915 H 469.238 2.61869 -4.82406 0
M  V30 4916 H 469.499 3.09764 -3.15434 0
M  V30 4917 N 468.558 1.5553 0.254621 0
M  V30 4918 C 469.807 1.76202 0.981612 0
M  V30 4919 C 470.12 0.580883 1.86776 0
M  V30 4920 O 471.326 0.670448 2.63092 0
M  V30 4921 C 469.782 3.11921 1.79537 0
M  V30 4922 C 469.39 4.37659 0.956991 0
M  V30 4923 C 471.134 3.41936 2.51555 0
M  V30 4924 C 469.041 5.64411 1.76619 0
M  V30 4925 H 467.971 0.656841 0.370237 0
M  V30 4926 H 470.622 1.81969 0.236556 0
M  V30 4927 H 469.004 3.00241 2.58208 0
M  V30 4928 H 470.178 4.60307 0.21315 0
M  V30 4929 H 468.493 4.14922 0.350497 0
M  V30 4930 H 471.09 4.33849 3.12536 0
M  V30 4931 H 471.433 2.62905 3.22779 0
M  V30 4932 H 471.966 3.54797 1.799 0
M  V30 4933 H 468.705 6.46241 1.09783 0
M  V30 4934 H 468.225 5.45877 2.48551 0
M  V30 4935 H 469.904 6.03386 2.33527 0
M  V30 4936 N 470.036 -0.519951 1.48776 0
M  V30 4937 C 471.261 -1.30447 1.6124 0
M  V30 4938 C 471.686 -1.86055 0.276591 0
M  V30 4939 O 471.044 -1.64915 -0.753183 0
M  V30 4940 C 471.092 -2.42406 2.66967 0
M  V30 4941 O 470.196 -3.45728 2.24824 0
M  V30 4942 H 469.537 -0.385924 0.540332 0
M  V30 4943 H 472.067 -0.624572 1.94834 0
M  V30 4944 H 472.077 -2.88447 2.88552 0
M  V30 4945 H 470.752 -2.01294 3.63941 0
M  V30 4946 H 469.329 -3.05737 2.13494 0
M  V30 4947 N 471.514 -1.37532 -0.769588 0
M  V30 4948 C 472.424 -1.35668 -1.91393 0
M  V30 4949 C 473.44 -0.255954 -1.72107 0
M  V30 4950 O 474.616 -0.491704 -1.95305 0
M  V30 4951 C 471.681 -1.16481 -3.26547 0
M  V30 4952 C 470.742 -2.36212 -3.58472 0
M  V30 4953 C 469.975 -2.17932 -4.87177 0
M  V30 4954 O 470.198 -1.1647 -5.58382 0
M  V30 4955 O 469.132 -3.06167 -5.18214 0
M  V30 4956 H 472.958 -2.32055 -1.95918 0
M  V30 4957 H 470.543 -1.18284 -0.912641 0
M  V30 4958 H 472.425 -1.07778 -4.07384 0
M  V30 4959 H 471.1 -0.231687 -3.2287 0
M  V30 4960 H 470.007 -2.50488 -2.77861 0
M  V30 4961 H 471.34 -3.281 -3.66894 0
M  V30 4962 N 472.992 0.995999 -1.22138 0
M  V30 4963 C 474.241 1.72928 -1.03821 0
M  V30 4964 C 474.554 1.90872 0.427444 0
M  V30 4965 O 475.76 2.61496 0.730212 0
M  V30 4966 C 474.216 3.11124 -1.80913 0
M  V30 4967 C 473.824 3.01122 -3.31707 0
M  V30 4968 C 475.568 3.8852 -1.71035 0
M  V30 4969 C 473.475 4.34453 -4.01253 0
M  V30 4970 H 472.405 0.648376 -0.384869 0
M  V30 4971 H 475.056 1.11213 -1.45959 0
M  V30 4972 H 473.438 3.73503 -1.31573 0
M  V30 4973 H 474.612 2.47926 -3.88419 0
M  V30 4974 H 472.927 2.3721 -3.42228 0
M  V30 4975 H 475.524 4.872 -2.20318 0
M  V30 4976 H 475.867 4.1087 -0.670196 0
M  V30 4977 H 476.4 3.32812 -2.17902 0
M  V30 4978 H 473.139 4.17303 -5.05508 0
M  V30 4979 H 472.659 4.87574 -3.49331 0
M  V30 4980 H 474.338 5.03215 -4.06674 0
M  V30 4981 N 474.47 1.03057 1.19235 0
M  V30 4982 C 475.718 0.726581 1.88587 0
M  V30 4983 C 476.039 -0.747227 1.80115 0
M  V30 4984 O 475.309 -1.53849 1.21274 0
M  V30 4985 H 473.889 0.265768 0.698124 0
M  V30 4986 H 476.551 1.30516 1.44746 0
M  V30 4987 H 475.647 1.0224 2.94879 0
M  V30 4988 N 475.948 -1.35272 0.808662 0
M  V30 4989 C 477.197 -1.97963 0.386483 0
M  V30 4990 C 477.51 -1.64866 -1.05255 0
M  V30 4991 O 478.716 -2.20937 -1.57794 0
M  V30 4992 C 477.172 -3.54162 0.640096 0
M  V30 4993 C 476.78 -3.96166 2.0918 0
M  V30 4994 C 478.524 -4.23553 0.283376 0
M  V30 4995 C 476.431 -5.4522 2.29106 0
M  V30 4996 H 475.361 -0.740742 0.140774 0
M  V30 4997 H 478.012 -1.5431 0.993012 0
M  V30 4998 H 476.394 -3.95983 -0.0364117 0
M  V30 4999 H 477.568 -3.65491 2.80629 0
M  V30 5000 H 475.883 -3.3967 2.40859 0
M  V30 5001 H 478.48 -5.33124 0.410273 0
M  V30 5002 H 478.823 -4.09105 -0.770659 0
M  V30 5003 H 479.356 -3.8716 0.913884 0
M  V30 5004 H 476.095 -5.64638 3.32962 0
M  V30 5005 H 475.615 -5.77457 1.62184 0
M  V30 5006 H 477.294 -6.1171 2.1076 0
M  V30 5007 N 477.426 -0.562348 -1.47226 0
M  V30 5008 C 478.842 -0.222492 -1.58042 0
M  V30 5009 C 479.042 1.27505 -1.56028 0
M  V30 5010 O 478.098 2.05555 -1.46641 0
M  V30 5011 C 479.411 -0.853694 -2.88327 0
M  V30 5012 C 480.959 -0.825397 -3.01921 0
M  V30 5013 C 481.434 -1.43576 -4.34914 0
M  V30 5014 N 482.925 -1.39918 -4.41562 0
M  V30 5015 C 483.66 -1.84103 -5.43041 0
M  V30 5016 N 483.156 -2.36167 -6.51304 0
M  V30 5017 N 484.949 -1.75142 -5.34118 0
M  V30 5018 H 477.1 -1.53525 -1.46778 0
M  V30 5019 H 479.363 -0.640527 -0.698877 0
M  V30 5020 H 479.069 -1.90635 -2.95552 0
M  V30 5021 H 478.943 -0.34977 -3.75575 0
M  V30 5022 H 481.33 0.218583 -2.94289 0
M  V30 5023 H 481.411 -1.36713 -2.16202 0
M  V30 5024 H 481.055 -2.47884 -4.43301 0
M  V30 5025 H 480.985 -0.869427 -5.19373 0
M  V30 5026 H 483.476 -1.0184 -3.63919 0
M  V30 5027 H 483.789 -2.67793 -7.24919 0
M  V30 5028 H 482.134 -2.40181 -6.52179 0
M  V30 5029 H 485.325 -1.34241 -4.48439 0
M  V30 5030 H 485.498 -2.09895 -6.13065 0
M  V30 5031 N 478.904 1.54736 -0.299062 0
M  V30 5032 C 479.867 2.22127 0.565012 0
M  V30 5033 C 480.867 1.20669 1.06281 0
M  V30 5034 O 482.057 1.45417 0.959145 0
M  V30 5035 C 479.189 2.90611 1.78208 0
M  V30 5036 H 480.382 2.99891 -0.0237448 0
M  V30 5037 H 477.935 1.5622 -0.0498788 0
M  V30 5038 H 478.67 2.16921 2.41072 0
M  V30 5039 H 478.455 3.64984 1.43281 0
M  V30 5040 H 479.945 3.42026 2.396 0
M  V30 5041 N 480.382 0.0267497 1.57577 0
M  V30 5042 C 481.793 -0.512413 1.79531 0
M  V30 5043 C 482.144 -1.72391 0.936791 0
M  V30 5044 O 481.269 -2.15903 0.146543 0
M  V30 5045 C 481.864 -0.936378 3.25603 0
M  V30 5046 C 480.423 -1.42067 3.4856 0
M  V30 5047 C 479.57 -0.384278 2.74624 0
M  V30 5048 H 482.521 0.252797 1.56674 0
M  V30 5049 H 482.542 -1.80088 3.35184 0
M  V30 5050 H 482.054 -0.0544332 3.88062 0
M  V30 5051 H 480.155 -2.32262 2.9135 0
M  V30 5052 H 480.268 -1.42968 4.57271 0
M  V30 5053 H 478.632 -0.851855 2.40032 0
M  V30 5054 H 479.415 0.489159 3.39797 0
M  V30 5055 N 481.861 -1.55662 -0.24637 0
M  V30 5056 C 483.138 -1.68272 -0.997198 0
M  V30 5057 C 483.518 -0.566785 -2.03349 0
M  V30 5058 O 482.866 0.429688 -2.24424 0
M  V30 5059 C 483.076 -3.08594 -1.63006 0
M  V30 5060 C 484.424 -3.6721 -2.13171 0
M  V30 5061 O 485.448 -3.11397 -1.72946 0
M  V30 5062 O 484.307 -4.65054 -2.87031 0
M  V30 5063 H 481.401 -0.684429 -0.464205 0
M  V30 5064 H 483.947 -1.67993 -0.240114 0
M  V30 5065 H 482.719 -3.81264 -0.880527 0
M  V30 5066 H 482.342 -3.12886 -2.45333 0
M  V30 5067 N 483.339 0.512053 -1.4905 0
M  V30 5068 C 484.588 1.26343 -1.57227 0
M  V30 5069 C 484.901 1.93876 -0.259155 0
M  V30 5070 O 486.107 2.70612 -0.219358 0
M  V30 5071 C 484.563 2.29343 -2.77362 0
M  V30 5072 C 484.171 1.67799 -4.15388 0
M  V30 5073 C 485.915 3.05378 -2.94864 0
M  V30 5074 C 483.822 2.68845 -5.2676 0
M  V30 5075 H 482.752 0.475231 -0.585382 0
M  V30 5076 H 485.403 0.53862 -1.75417 0
M  V30 5077 H 483.785 3.04938 -2.52643 0
M  V30 5078 H 484.959 0.982715 -4.50199 0
M  V30 5079 H 483.274 1.04194 -4.03153 0
M  V30 5080 H 485.871 3.80921 -3.75238 0
M  V30 5081 H 486.214 3.62327 -2.05 0
M  V30 5082 H 486.747 2.36898 -3.19569 0
M  V30 5083 H 483.486 2.16692 -6.18647 0
M  V30 5084 H 483.006 3.36647 -4.96416 0
M  V30 5085 H 484.685 3.31487 -5.5563 0
M  V30 5086 N 484.817 1.37938 0.762283 0
M  V30 5087 C 485.727 1.36681 1.90671 0
M  V30 5088 C 486.743 0.265078 1.71969 0
M  V30 5089 O 487.919 0.502055 1.95042 0
M  V30 5090 C 484.984 1.18211 3.25925 0
M  V30 5091 C 484.045 2.3811 3.57214 0
M  V30 5092 C 483.278 2.20512 4.86014 0
M  V30 5093 O 483.501 1.19429 5.57757 0
M  V30 5094 O 482.435 3.08911 5.16583 0
M  V30 5095 H 486.261 2.33091 1.94685 0
M  V30 5096 H 483.846 1.18767 0.906356 0
M  V30 5097 H 485.728 1.09937 4.06807 0
M  V30 5098 H 484.403 0.248807 3.22742 0
M  V30 5099 H 483.31 2.51958 2.76529 0
M  V30 5100 H 484.643 3.30041 3.65149 0
M  V30 5101 N 486.295 -0.989507 1.22664 0
M  V30 5102 C 487.258 -2.06183 1.00106 0
M  V30 5103 C 488.258 -1.60765 -0.0337726 0
M  V30 5104 O 489.448 -1.72989 0.205072 0
M  V30 5105 C 486.58 -3.37021 0.51279 0
M  V30 5106 H 487.773 -2.27629 1.95256 0
M  V30 5107 H 485.326 -1.16158 1.0458 0
M  V30 5108 H 486.061 -3.21261 -0.442917 0
M  V30 5109 H 485.846 -3.71323 1.25942 0
M  V30 5110 H 487.336 -4.1591 0.375315 0
M  V30 5111 N 487.773 -1.03688 -1.18687 0
M  V30 5112 C 489.021 -0.736572 -1.88199 0
M  V30 5113 C 489.342 0.737665 -1.80509 0
M  V30 5114 O 488.612 1.53204 -1.22088 0
M  V30 5115 H 487.192 -0.269466 -0.696704 0
M  V30 5116 H 489.854 -1.31282 -1.44052 0
M  V30 5117 H 488.95 -1.03802 -2.94332 0
M  V30 5118 N 489.251 1.34841 -0.815825 0
M  V30 5119 C 490.181 2.32187 -0.247298 0
M  V30 5120 C 491.162 1.5791 0.632344 0
M  V30 5121 O 492.347 1.8593 0.560698 0
M  V30 5122 C 489.477 3.42122 0.597466 0
M  V30 5123 C 488.431 4.27602 -0.184446 0
M  V30 5124 C 487.757 5.28942 0.782609 0
M  V30 5125 C 489.057 5.03502 -1.38865 0
M  V30 5126 H 490.751 2.79985 -1.06061 0
M  V30 5127 H 488.297 1.34611 -0.511461 0
M  V30 5128 H 490.25 4.09232 1.00533 0
M  V30 5129 H 488.974 2.92956 1.44376 0
M  V30 5130 H 487.633 3.62085 -0.573592 0
M  V30 5131 H 487.281 4.7604 1.62466 0
M  V30 5132 H 486.981 5.87008 0.263695 0
M  V30 5133 H 488.505 5.98922 1.18848 0
M  V30 5134 H 489.919 5.63506 -1.05518 0
M  V30 5135 H 488.316 5.71108 -1.8427 0
M  V30 5136 H 489.386 4.33608 -2.17054 0
M  V30 5137 N 490.729 0.570148 1.46925 0
M  V30 5138 C 491.959 0.0561151 2.06524 0
M  V30 5139 C 492.367 -1.24874 1.42137 0
M  V30 5140 O 491.71 -1.76292 0.516417 0
M  V30 5141 C 491.772 -0.197035 3.5896 0
M  V30 5142 C 491.436 1.02033 4.45464 0
M  V30 5143 C 492.433 1.92921 4.82781 0
M  V30 5144 C 490.118 1.23864 4.86788 0
M  V30 5145 C 492.112 3.03999 5.60235 0
M  V30 5146 C 489.799 2.35249 5.64004 0
M  V30 5147 C 490.797 3.25146 6.0064 0
M  V30 5148 O 490.485 4.34598 6.76299 0
M  V30 5149 H 490.217 0.0487409 0.674241 0
M  V30 5150 H 492.771 0.786915 1.89728 0
M  V30 5151 H 491.001 -0.982299 3.74016 0
M  V30 5152 H 492.69 -0.658032 4.00531 0
M  V30 5153 H 493.456 1.77265 4.51444 0
M  V30 5154 H 489.335 0.54805 4.57731 0
M  V30 5155 H 492.879 3.74192 5.8875 0
M  V30 5156 H 488.776 2.50873 5.94755 0
M  V30 5157 H 489.544 4.32808 6.94708 0
M  V30 5158 N 492.207 -1.54576 0.307264 0
M  V30 5159 C 493.484 -1.92377 -0.353605 0
M  V30 5160 C 493.864 -1.23517 -1.71192 0
M  V30 5161 O 493.212 -0.373101 -2.25433 0
M  V30 5162 C 493.422 -3.45928 -0.462039 0
M  V30 5163 C 494.77 -4.18278 -0.729975 0
M  V30 5164 O 495.794 -3.51997 -0.545605 0
M  V30 5165 O 494.653 -5.3563 -1.08454 0
M  V30 5166 H 491.747 -0.802747 -0.198812 0
M  V30 5167 H 494.293 -1.65929 0.355783 0
M  V30 5168 H 493.065 -3.88187 0.492592 0
M  V30 5169 H 492.688 -3.78431 -1.21965 0
M  V30 5170 N 493.685 -0.035106 -1.57561 0
M  V30 5171 C 494.633 0.962707 -2.11742 0
M  V30 5172 C 495.627 1.33296 -1.0454 0
M  V30 5173 O 496.833 1.31449 -1.22968 0
M  V30 5174 H 493.208 0.32826 -0.676572 0
M  V30 5175 H 495.179 0.48048 -2.94506 0
M  V30 5176 C 493.928 2.23388 -2.66445 0
M  V30 5177 H 493.251 1.95774 -3.48587 0
M  V30 5178 H 494.691 2.91402 -3.07995 0
M  V30 5179 C 493.15 2.96769 -1.59467 0
M  V30 5180 O 493.68 3.89105 -0.998 0
M  V30 5181 N 491.886 2.59212 -1.31369 0
M  V30 5182 H 491.433 1.84202 -1.80076 0
M  V30 5183 H 491.391 3.08618 -0.600173 0
M  V30 5184 N 495.163 1.55791 0.238111 0
M  V30 5185 C 496.095 1.87513 1.31802 0
M  V30 5186 C 497.108 0.762053 1.43863 0
M  V30 5187 O 498.297 1.04024 1.45056 0
M  V30 5188 C 495.397 2.05402 2.69561 0
M  V30 5189 C 494.57 3.3632 2.79656 0
M  V30 5190 C 493.629 3.43844 3.98319 0
M  V30 5191 O 492.655 4.16994 3.87433 0
M  V30 5192 N 493.857 2.73777 5.11885 0
M  V30 5193 H 496.622 2.80734 1.04922 0
M  V30 5194 H 494.183 1.56135 0.428196 0
M  V30 5195 H 496.175 2.07769 3.47296 0
M  V30 5196 H 494.745 1.18884 2.89111 0
M  V30 5197 H 493.965 3.46195 1.88528 0
M  V30 5198 H 495.253 4.22594 2.83358 0
M  V30 5199 H 494.651 2.14094 5.23622 0
M  V30 5200 H 493.208 2.81825 5.87723 0
M  V30 5201 N 496.642 -0.504142 1.49319 0
M  V30 5202 C 497.888 -1.25767 1.59857 0
M  V30 5203 C 498.243 -1.90348 0.280262 0
M  V30 5204 O 497.536 -1.77588 -0.719241 0
M  V30 5205 C 497.73 -2.35021 2.69258 0
M  V30 5206 C 497.559 -1.81154 4.11598 0
M  V30 5207 C 496.329 -1.62596 4.78425 0
M  V30 5208 C 498.527 -1.3252 4.96934 0
M  V30 5209 N 496.509 -1.03625 6.05091 0
M  V30 5210 C 497.88 -0.856633 6.14054 0
M  V30 5211 C 499.935 -1.21063 4.82958 0
M  V30 5212 C 498.638 -0.284841 7.18736 0
M  V30 5213 C 500.664 -0.652815 5.87786 0
M  V30 5214 C 500.026 -0.194461 7.04132 0
M  V30 5215 H 496.125 -0.450293 0.639343 0
M  V30 5216 H 498.709 -0.565344 1.86311 0
M  V30 5217 H 496.88 -3.01719 2.44581 0
M  V30 5218 H 498.612 -3.02061 2.69335 0
M  V30 5219 H 495.367 -1.86873 4.35173 0
M  V30 5220 H 495.791 -0.76076 6.72712 0
M  V30 5221 H 500.433 -1.551 3.93324 0
M  V30 5222 H 498.151 0.0677979 8.08072 0
M  V30 5223 H 501.737 -0.566994 5.79031 0
M  V30 5224 H 500.617 0.230442 7.83861 0
M  V30 5225 N 498.12 -1.38341 -0.754957 0
M  V30 5226 C 499.35 -1.37504 -1.54195 0
M  V30 5227 C 499.758 0.0373787 -1.89163 0
M  V30 5228 O 499.101 1.01402 -1.53178 0
M  V30 5229 C 499.163 -2.16488 -2.87008 0
M  V30 5230 C 498.827 -3.65311 -2.74585 0
M  V30 5231 C 499.824 -4.58834 -2.44474 0
M  V30 5232 C 497.509 -4.08649 -2.9208 0
M  V30 5233 C 499.503 -5.93675 -2.32011 0
M  V30 5234 C 497.19 -5.43571 -2.79237 0
M  V30 5235 C 498.188 -6.35898 -2.49245 0
M  V30 5236 O 497.876 -7.68338 -2.36458 0
M  V30 5237 H 497.608 -0.472159 -0.483779 0
M  V30 5238 H 500.162 -1.82515 -0.94221 0
M  V30 5239 H 498.392 -1.66194 -3.49166 0
M  V30 5240 H 500.081 -2.08076 -3.4851 0
M  V30 5241 H 500.847 -4.26657 -2.30627 0
M  V30 5242 H 496.726 -3.37134 -3.14422 0
M  V30 5243 H 500.27 -6.65706 -2.08522 0
M  V30 5244 H 496.167 -5.75345 -2.92657 0
M  V30 5245 H 496.935 -7.78845 -2.5168 0
M  V30 5246 N 499.598 0.982988 -1.23187 0
M  V30 5247 C 501.014 1.2487 -0.993967 0
M  V30 5248 C 501.214 1.99155 0.306498 0
M  V30 5249 O 500.27 2.30688 1.0266 0
M  V30 5250 C 501.583 2.05078 -2.19917 0
M  V30 5251 C 503.131 2.18227 -2.2438 0
M  V30 5252 C 503.606 3.01825 -3.44479 0
M  V30 5253 N 505.097 3.09411 -3.44702 0
M  V30 5254 C 505.832 3.74412 -4.34285 0
M  V30 5255 N 505.328 4.41259 -5.341 0
M  V30 5256 N 507.121 3.71273 -4.22035 0
M  V30 5257 H 499.272 0.485253 -2.06783 0
M  V30 5258 H 501.535 0.276979 -0.906635 0
M  V30 5259 H 501.241 1.57867 -3.14279 0
M  V30 5260 H 501.115 3.05829 -2.2079 0
M  V30 5261 H 503.502 2.64648 -1.30559 0
M  V30 5262 H 503.583 1.16873 -2.2754 0
M  V30 5263 H 503.227 2.56102 -4.38605 0
M  V30 5264 H 503.157 4.03342 -3.38559 0
M  V30 5265 H 505.648 2.61845 -2.7248 0
M  V30 5266 H 505.961 4.88629 -5.98717 0
M  V30 5267 H 504.306 4.39975 -5.38002 0
M  V30 5268 H 507.497 3.18217 -3.43301 0
M  V30 5269 H 507.67 4.21649 -4.92053 0
M  V30 5270 N 501.076 1.04316 1.18135 0
M  V30 5271 C 502.023 0.636398 2.21853 0
M  V30 5272 C 502.993 -0.357039 1.62217 0
M  V30 5273 O 504.178 -0.250453 1.89149 0
M  V30 5274 C 501.318 0.00812779 3.45099 0
M  V30 5275 C 500.431 1.04933 4.19062 0
M  V30 5276 C 499.566 0.389313 5.29771 0
M  V30 5277 C 498.605 1.41544 5.9551 0
M  V30 5278 N 497.742 0.78021 6.97751 0
M  V30 5279 H 502.582 1.52536 2.56002 0
M  V30 5280 H 500.119 0.76304 1.25762 0
M  V30 5281 H 502.077 -0.373497 4.15525 0
M  V30 5282 H 500.707 -0.844336 3.11562 0
M  V30 5283 H 499.759 1.54888 3.47439 0
M  V30 5284 H 501.071 1.82862 4.64072 0
M  V30 5285 H 500.225 -0.0463805 6.06682 0
M  V30 5286 H 498.964 -0.422038 4.8587 0
M  V30 5287 H 497.969 1.86124 5.17337 0
M  V30 5288 H 499.194 2.22854 6.41493 0
M  V30 5289 H 497.14 -0.0107899 6.55999 0
M  V30 5290 H 497.057 1.49716 7.41027 0
M  V30 5291 H 498.325 0.368996 7.78626 0
M  V30 5292 N 502.554 -1.34406 0.822964 0
M  V30 5293 C 503.484 -2.32052 0.259608 0
M  V30 5294 C 504.465 -1.58243 -0.623961 0
M  V30 5295 O 505.65 -1.86224 -0.55083 0
M  V30 5296 C 502.78 -3.42434 -0.579314 0
M  V30 5297 C 501.734 -4.27499 0.20712 0
M  V30 5298 C 501.06 -5.29349 -0.754547 0
M  V30 5299 C 502.36 -5.02758 1.41533 0
M  V30 5300 H 504.054 -2.79418 1.07545 0
M  V30 5301 H 501.6 -1.34338 0.518593 0
M  V30 5302 H 503.553 -4.0976 -0.983612 0
M  V30 5303 H 502.277 -2.93717 -1.4282 0
M  V30 5304 H 500.936 -3.61776 0.592787 0
M  V30 5305 H 500.584 -4.76895 -1.59939 0
M  V30 5306 H 500.284 -5.8714 -0.232561 0
M  V30 5307 H 501.808 -5.99544 -1.1567 0
M  V30 5308 H 503.222 -5.62938 1.08504 0
M  V30 5309 H 501.619 -5.70123 1.87296 0
M  V30 5310 H 502.689 -4.32451 2.1935 0
M  V30 5311 N 504.032 -0.577932 -1.46621 0
M  V30 5312 C 505.281 -0.0594281 -2.01612 0
M  V30 5313 C 505.594 1.30663 -1.45556 0
M  V30 5314 O 506.8 1.91621 -1.92337 0
M  V30 5315 C 505.256 -0.0556666 -3.59857 0
M  V30 5316 C 504.864 -1.41975 -4.24908 0
M  V30 5317 C 506.608 0.409143 -4.22524 0
M  V30 5318 C 504.515 -1.37397 -5.75218 0
M  V30 5319 H 503.445 -0.0184469 -0.753774 0
M  V30 5320 H 506.096 -0.728869 -1.68404 0
M  V30 5321 H 504.478 0.679843 -3.90121 0
M  V30 5322 H 505.652 -2.17461 -4.0626 0
M  V30 5323 H 503.967 -1.82419 -3.74316 0
M  V30 5324 H 506.564 0.46211 -5.32699 0
M  V30 5325 H 506.907 1.42565 -3.91128 0
M  V30 5326 H 507.44 -0.272152 -3.96868 0
M  V30 5327 H 504.179 -2.36714 -6.11267 0
M  V30 5328 H 503.699 -0.661239 -5.96144 0
M  V30 5329 H 505.378 -1.08484 -6.3784 0
M  V30 5330 N 505.51 1.54411 -0.315457 0
M  V30 5331 C 506.735 2.05299 0.294496 0
M  V30 5332 C 507.16 1.19052 1.4563 0
M  V30 5333 O 506.518 0.197804 1.80218 0
M  V30 5334 C 506.566 3.5345 0.714549 0
M  V30 5335 O 505.67 3.70175 1.81781 0
M  V30 5336 H 505.011 0.661743 0.0547019 0
M  V30 5337 H 507.541 1.99327 -0.461508 0
M  V30 5338 H 507.551 3.9557 0.999426 0
M  V30 5339 H 506.226 4.1568 -0.135244 0
M  V30 5340 H 504.803 3.3996 1.53236 0
M  V30 5341 N 506.988 0.0434614 1.5754 0
M  V30 5342 C 508.236 -0.630786 1.92004 0
M  V30 5343 C 508.557 -1.71836 0.921807 0
M  V30 5344 O 507.827 -1.9587 -0.034522 0
M  V30 5345 H 506.407 -0.235988 0.708745 0
M  V30 5346 H 509.069 0.0946462 1.9467 0
M  V30 5347 H 508.165 -1.07434 2.93026 0
M  V30 5348 N 508.466 -1.55915 -0.229846 0
M  V30 5349 C 509.396 -1.94754 -1.28815 0
M  V30 5350 C 510.377 -0.814657 -1.49323 0
M  V30 5351 O 511.562 -1.07631 -1.61645 0
M  V30 5352 C 508.692 -2.25705 -2.63959 0
M  V30 5353 C 507.646 -3.41406 -2.5812 0
M  V30 5354 C 506.972 -3.57941 -3.97218 0
M  V30 5355 C 508.272 -4.76616 -2.13623 0
M  V30 5356 H 509.966 -2.83404 -0.965547 0
M  V30 5357 H 507.512 -1.36353 -0.463028 0
M  V30 5358 H 509.465 -2.51467 -3.38146 0
M  V30 5359 H 508.189 -1.339 -2.9789 0
M  V30 5360 H 506.848 -3.1568 -1.86391 0
M  V30 5361 H 506.496 -2.63526 -4.28443 0
M  V30 5362 H 506.196 -4.35757 -3.94195 0
M  V30 5363 H 507.72 -3.86042 -4.73079 0
M  V30 5364 H 509.134 -5.01637 -2.77549 0
M  V30 5365 H 507.531 -5.57655 -2.21677 0
M  V30 5366 H 508.601 -4.7253 -1.08829 0
M  V30 5367 N 509.944 0.496216 -1.49584 0
M  V30 5368 C 510.891 1.59722 -1.66606 0
M  V30 5369 C 511.861 1.58158 -0.507477 0
M  V30 5370 O 513.046 1.76072 -0.735076 0
M  V30 5371 C 510.186 2.97844 -1.74308 0
M  V30 5372 C 509.299 3.09388 -3.01502 0
M  V30 5373 C 508.434 4.38271 -3.00153 0
M  V30 5374 C 507.473 4.43466 -4.21906 0
M  V30 5375 N 506.61 5.63784 -4.1844 0
M  V30 5376 H 511.45 1.44515 -2.60613 0
M  V30 5377 H 508.987 0.703048 -1.29212 0
M  V30 5378 H 510.945 3.77907 -1.76754 0
M  V30 5379 H 509.575 3.11743 -0.837619 0
M  V30 5380 H 508.627 2.22357 -3.08645 0
M  V30 5381 H 509.939 3.09085 -3.91494 0
M  V30 5382 H 509.093 5.2666 -3.01188 0
M  V30 5383 H 507.832 4.41146 -2.07947 0
M  V30 5384 H 506.837 3.53478 -4.21109 0
M  V30 5385 H 508.062 4.42303 -5.1531 0
M  V30 5386 H 506.008 5.67491 -3.29074 0
M  V30 5387 H 505.925 5.65118 -5.02173 0
M  V30 5388 H 507.193 6.54367 -4.23585 0
M  V30 5389 N 511.423 1.38739 0.74761 0
M  V30 5390 C 512.386 1.36241 1.84312 0
M  V30 5391 C 513.386 0.261811 1.58654 0
M  V30 5392 O 514.576 0.519031 1.66288 0
M  V30 5393 C 511.708 1.12253 3.21888 0
M  V30 5394 H 512.901 2.33712 1.87933 0
M  V30 5395 H 510.454 1.2412 0.949946 0
M  V30 5396 H 511.189 0.154133 3.23934 0
M  V30 5397 H 510.974 1.91943 3.41907 0
M  V30 5398 H 512.464 1.13215 4.0196 0
M  V30 5399 N 512.901 -0.976442 1.23707 0
M  V30 5400 C 514.178 -1.69296 0.979699 0
M  V30 5401 C 514.558 -2.0508 -0.500555 0
M  V30 5402 O 513.906 -1.74708 -1.47273 0
M  V30 5403 C 514.116 -2.93143 1.89389 0
M  V30 5404 C 515.464 -3.65572 2.15968 0
M  V30 5405 O 516.488 -3.03184 1.86971 0
M  V30 5406 O 515.347 -4.77859 2.65167 0
M  V30 5407 H 512.441 -0.739708 0.369812 0
M  V30 5408 H 514.987 -1.03131 1.34767 0
M  V30 5409 H 513.759 -2.63327 2.89439 0
M  V30 5410 H 513.382 -3.67044 1.52854 0
M  V30 5411 N 514.379 -1.04941 -1.1758 0
M  V30 5412 C 515.79 -0.784501 -1.69418 0
M  V30 5413 C 516.141 0.693625 -1.8353 0
M  V30 5414 O 515.266 1.53925 -1.52106 0
M  V30 5415 C 515.861 -1.41746 -3.07723 0
M  V30 5416 C 514.42 -1.20066 -3.56737 0
M  V30 5417 C 513.567 -1.5026 -2.33061 0
M  V30 5418 H 516.518 -1.21469 -1.02133 0
M  V30 5419 H 516.539 -0.825381 -3.7144 0
M  V30 5420 H 516.051 -2.49325 -2.9742 0
M  V30 5421 H 514.152 -0.144006 -3.72322 0
M  V30 5422 H 514.265 -1.90384 -4.39648 0
M  V30 5423 H 512.629 -0.922598 -2.37403 0
M  V30 5424 H 513.412 -2.58967 -2.25368 0
M  V30 5425 N 515.857 1.33968 -0.830081 0
M  V30 5426 C 517.134 1.92554 -0.343858 0
M  V30 5427 C 517.514 1.7573 1.16971 0
M  V30 5428 O 516.862 1.14035 1.98011 0
M  V30 5429 C 517.072 3.40147 -0.781073 0
M  V30 5430 C 518.42 4.17299 -0.78402 0
M  V30 5431 O 519.444 3.48762 -0.724112 0
M  V30 5432 O 518.303 5.39631 -0.863739 0
M  V30 5433 H 515.397 0.821469 -0.0954827 0
M  V30 5434 H 517.943 1.42897 -0.915348 0
M  V30 5435 H 516.715 3.46225 -1.82329 0
M  V30 5436 H 516.338 3.97166 -0.18567 0
M  V30 5437 N 517.335 0.585699 1.46312 0
M  V30 5438 C 518.298 -0.135673 2.28798 0
M  V30 5439 C 519.298 -0.815988 1.38558 0
M  V30 5440 O 520.488 -0.667487 1.60904 0
M  V30 5441 C 517.62 -1.20163 3.1902 0
M  V30 5442 H 518.813 0.589257 2.94054 0
M  V30 5443 H 516.366 0.343794 1.52472 0
M  V30 5444 H 517.101 -1.95804 2.58517 0
M  V30 5445 H 516.886 -0.718282 3.85465 0
M  V30 5446 H 518.376 -1.70749 3.81096 0
M  V30 5447 N 518.813 -1.54241 0.323641 0
M  V30 5448 C 520.229 -1.59574 -0.0290018 0
M  V30 5449 C 520.429 -1.34017 -1.50472 0
M  V30 5450 O 519.485 -1.12464 -2.26071 0
M  V30 5451 C 520.798 -2.98169 0.389295 0
M  V30 5452 C 522.346 -3.11148 0.339958 0
M  V30 5453 C 522.821 -4.5209 0.733418 0
M  V30 5454 N 524.312 -4.5808 0.686827 0
M  V30 5455 C 525.047 -5.65248 0.963464 0
M  V30 5456 N 524.543 -6.80355 1.30724 0
M  V30 5457 N 526.336 -5.55025 0.88902 0
M  V30 5458 H 518.487 -1.6911 1.28512 0
M  V30 5459 H 520.75 -0.790972 0.522558 0
M  V30 5460 H 520.456 -3.21871 1.41746 0
M  V30 5461 H 520.33 -3.76399 -0.245657 0
M  V30 5462 H 522.717 -2.87182 -0.679002 0
M  V30 5463 H 522.798 -2.35023 1.00985 0
M  V30 5464 H 522.442 -4.76788 1.75029 0
M  V30 5465 H 522.372 -5.26584 0.0412189 0
M  V30 5466 H 524.863 -3.75411 0.43298 0
M  V30 5467 H 525.176 -7.58029 1.5037 0
M  V30 5468 H 523.521 -6.81851 1.3455 0
M  V30 5469 H 526.712 -4.63977 0.619939 0
M  V30 5470 H 526.885 -6.38458 1.10797 0
M  V30 5471 N 520.291 -0.0518155 -1.57515 0
M  V30 5472 C 521.201 0.937539 -2.15052 0
M  V30 5473 C 522.217 1.34121 -1.10849 0
M  V30 5474 O 523.393 1.418 -1.4302 0
M  V30 5475 C 520.458 2.19379 -2.68466 0
M  V30 5476 C 519.519 1.84841 -3.87469 0
M  V30 5477 C 518.752 3.04477 -4.38326 0
M  V30 5478 O 518.975 4.17868 -3.88256 0
M  V30 5479 O 517.909 2.85453 -5.29906 0
M  V30 5480 H 521.735 0.478201 -2.99912 0
M  V30 5481 H 519.32 0.17012 -1.48428 0
M  V30 5482 H 521.202 2.93084 -3.02787 0
M  V30 5483 H 519.877 2.64449 -1.86677 0
M  V30 5484 H 518.784 1.08449 -3.58036 0
M  V30 5485 H 520.117 1.44569 -4.7049 0
M  V30 5486 N 521.769 1.56035 0.221574 0
M  V30 5487 C 523.018 1.78245 0.944016 0
M  V30 5488 C 523.331 0.620371 1.85501 0
M  V30 5489 O 524.537 0.726103 2.6161 0
M  V30 5490 C 522.993 3.15659 1.7288 0
M  V30 5491 C 522.601 4.39591 0.863942 0
M  V30 5492 C 524.345 3.47195 2.44246 0
M  V30 5493 C 522.252 5.6803 1.64607 0
M  V30 5494 H 521.182 0.664547 0.356222 0
M  V30 5495 H 523.833 1.8243 0.197904 0
M  V30 5496 H 522.215 3.0565 2.51781 0
M  V30 5497 H 523.389 4.60655 0.115464 0
M  V30 5498 H 521.704 4.15572 0.262407 0
M  V30 5499 H 524.301 4.40381 3.03263 0
M  V30 5500 H 524.644 2.69693 3.1713 0
M  V30 5501 H 525.177 3.58533 1.72334 0
M  V30 5502 H 521.916 6.48425 0.960507 0
M  V30 5503 H 521.436 5.51027 2.36917 0
M  V30 5504 H 523.115 6.08203 2.20675 0
M  V30 5505 N 523.247 -0.488276 1.49845 0
M  V30 5506 C 524.21 -1.57069 1.66919 0
M  V30 5507 C 525.21 -1.51445 0.540479 0
M  V30 5508 O 526.4 -1.5437 0.807188 0
M  V30 5509 C 523.532 -2.96718 1.67844 0
M  V30 5510 H 524.725 -1.43254 2.63474 0
M  V30 5511 H 522.278 -0.713435 1.39068 0
M  V30 5512 H 523.013 -3.15996 0.7292 0
M  V30 5513 H 522.798 -3.02208 2.49826 0
M  V30 5514 H 524.288 -3.75335 1.83066 0
M  V30 5515 N 524.725 -1.39134 -0.740242 0
M  V30 5516 C 525.972 -1.36071 -1.49969 0
M  V30 5517 C 526.3 0.0450245 -1.94448 0
M  V30 5518 O 525.555 1.02482 -1.66721 0
M  V30 5519 C 525.854 -2.27457 -2.75678 0
M  V30 5520 C 525.52 -3.75185 -2.50094 0
M  V30 5521 C 524.182 -4.15439 -2.42825 0
M  V30 5522 C 526.534 -4.68643 -2.28086 0
M  V30 5523 C 523.862 -5.4722 -2.11584 0
M  V30 5524 C 526.214 -6.00695 -1.98363 0
M  V30 5525 C 524.878 -6.40018 -1.8956 0
M  V30 5526 H 524.148 -0.497921 -0.548777 0
M  V30 5527 H 526.795 -1.71599 -0.85007 0
M  V30 5528 H 525.1 -1.8503 -3.45356 0
M  V30 5529 H 526.797 -2.22384 -3.33686 0
M  V30 5530 H 523.387 -3.43279 -2.56627 0
M  V30 5531 H 527.571 -4.3838 -2.32672 0
M  V30 5532 H 522.827 -5.76615 -2.03287 0
M  V30 5533 H 527.001 -6.72644 -1.80341 0
M  V30 5534 H 524.628 -7.42051 -1.65117 0
M  V30 5535 N 526.204 0.969867 -1.24223 0
M  V30 5536 C 527.134 2.08191 -1.05729 0
M  V30 5537 C 528.115 1.70075 0.0290765 0
M  V30 5538 O 529.3 1.93712 -0.137583 0
M  V30 5539 C 526.43 3.40991 -0.658995 0
M  V30 5540 C 525.384 3.93054 -1.69389 0
M  V30 5541 C 524.71 5.22171 -1.15072 0
M  V30 5542 C 526.01 4.21137 -3.08935 0
M  V30 5543 H 527.704 2.23921 -1.98746 0
M  V30 5544 H 525.25 1.07602 -0.956967 0
M  V30 5545 H 527.203 4.18221 -0.51662 0
M  V30 5546 H 525.927 3.25155 0.30686 0
M  V30 5547 H 524.586 3.17977 -1.82444 0
M  V30 5548 H 524.234 5.02694 -0.175539 0
M  V30 5549 H 523.934 5.57973 -1.84229 0
M  V30 5550 H 525.458 6.02013 -1.02042 0
M  V30 5551 H 526.872 4.8908 -2.99121 0
M  V30 5552 H 525.269 4.68163 -3.75425 0
M  V30 5553 H 526.339 3.27996 -3.57137 0
M  V30 5554 N 527.682 1.05563 1.17022 0
M  V30 5555 C 528.612 0.681026 2.23348 0
M  V30 5556 C 529.593 -0.322983 1.67005 0
M  V30 5557 O 530.778 -0.199746 1.9317 0
M  V30 5558 C 527.908 0.0589053 3.4725 0
M  V30 5559 C 526.862 0.988082 4.16438 0
M  V30 5560 C 526.188 0.229646 5.34207 0
M  V30 5561 C 527.488 2.31388 4.68249 0
M  V30 5562 H 529.182 1.56993 2.54938 0
M  V30 5563 H 526.728 0.756302 1.2254 0
M  V30 5564 H 528.681 -0.214982 4.20851 0
M  V30 5565 H 527.405 -0.864968 3.14938 0
M  V30 5566 H 526.064 1.24659 3.44754 0
M  V30 5567 H 525.712 -0.697111 4.98146 0
M  V30 5568 H 525.412 0.848815 5.81437 0
M  V30 5569 H 526.936 -0.0368694 6.10589 0
M  V30 5570 H 528.35 2.09964 5.33468 0
M  V30 5571 H 526.747 2.88736 5.26072 0
M  V30 5572 H 527.817 2.94982 3.84855 0
M  V30 5573 N 529.16 -1.33526 0.837174 0
M  V30 5574 C 530.406 -1.9813 0.432704 0
M  V30 5575 C 530.739 -1.66168 -1.00508 0
M  V30 5576 O 530.014 -0.94069 -1.70239 0
M  V30 5577 C 530.297 -3.54151 0.651834 0
M  V30 5578 C 530.15 -3.95806 2.13676 0
M  V30 5579 C 531.469 -4.39993 0.0968937 0
M  V30 5580 H 528.588 -0.719713 0.15869 0
M  V30 5581 H 531.23 -1.58193 1.05237 0
M  V30 5582 H 529.38 -3.88301 0.124369 0
M  V30 5583 H 531.052 -3.71921 2.72896 0
M  V30 5584 H 529.295 -3.45599 2.62191 0
M  V30 5585 H 529.966 -5.0447 2.24084 0
M  V30 5586 H 532.442 -4.12479 0.547733 0
M  V30 5587 H 531.318 -5.48186 0.279917 0
M  V30 5588 H 531.579 -4.3066 -0.9992 0
M  V30 5589 N 530.638 -0.59345 -1.46 0
M  V30 5590 C 531.884 -0.0916503 -2.03193 0
M  V30 5591 C 532.239 1.25839 -1.45541 0
M  V30 5592 O 531.532 1.81455 -0.615191 0
M  V30 5593 C 531.726 0.021178 -3.57394 0
M  V30 5594 C 531.555 -1.31638 -4.30002 0
M  V30 5595 C 530.325 -1.89336 -4.68487 0
M  V30 5596 C 532.523 -2.242 -4.62859 0
M  V30 5597 N 530.505 -3.1672 -5.25891 0
M  V30 5598 C 531.876 -3.36175 -5.20948 0
M  V30 5599 C 533.931 -2.23748 -4.44794 0
M  V30 5600 C 532.634 -4.47844 -5.62875 0
M  V30 5601 C 534.66 -3.34454 -4.87744 0
M  V30 5602 C 534.022 -4.4515 -5.45913 0
M  V30 5603 H 530.121 -0.0765713 -0.778242 0
M  V30 5604 H 532.705 -0.788705 -1.7801 0
M  V30 5605 H 530.876 0.687423 -3.82268 0
M  V30 5606 H 532.608 0.528343 -4.01236 0
M  V30 5607 H 529.363 -1.42704 -4.51589 0
M  V30 5608 H 529.787 -3.81746 -5.59106 0
M  V30 5609 H 534.429 -1.39433 -3.99147 0
M  V30 5610 H 532.147 -5.32894 -6.07495 0
M  V30 5611 H 535.733 -3.35234 -4.75509 0
M  V30 5612 H 534.613 -5.29398 -5.78539 0
M  V30 5613 N 532.116 1.54067 -0.331816 0
M  V30 5614 C 533.532 1.59587 0.0205388 0
M  V30 5615 C 533.732 1.34813 1.49759 0
M  V30 5616 O 532.788 1.13661 2.25471 0
M  V30 5617 C 534.101 2.97959 -0.405103 0
M  V30 5618 C 535.649 3.10964 -0.356454 0
M  V30 5619 C 536.124 4.51694 -0.757384 0
M  V30 5620 N 537.615 4.57709 -0.71111 0
M  V30 5621 C 538.35 5.64729 -0.993427 0
M  V30 5622 N 537.846 6.79652 -1.3433 0
M  V30 5623 N 539.639 5.54546 -0.918442 0
M  V30 5624 H 531.79 1.68426 -1.29407 0
M  V30 5625 H 534.053 0.78819 -0.526745 0
M  V30 5626 H 533.759 3.21115 -1.43451 0
M  V30 5627 H 533.633 3.76524 0.225692 0
M  V30 5628 H 536.02 2.87538 0.663763 0
M  V30 5629 H 536.101 2.34484 -1.02229 0
M  V30 5630 H 535.745 4.75853 -1.77555 0
M  V30 5631 H 535.675 5.26555 -0.0691444 0
M  V30 5632 H 538.166 3.75176 -0.452883 0
M  V30 5633 H 538.479 7.57221 -1.54388 0
M  V30 5634 H 536.824 6.81128 -1.38164 0
M  V30 5635 H 540.015 4.63641 -0.644536 0
M  V30 5636 H 540.188 6.37861 -1.14181 0
M  V30 5637 N 533.594 0.0601682 1.57485 0
M  V30 5638 C 534.542 -0.928899 2.13247 0
M  V30 5639 C 535.536 -1.31616 1.06647 0
M  V30 5640 O 536.742 -1.29476 1.25043 0
M  V30 5641 H 533.117 -0.317455 0.681708 0
M  V30 5642 H 535.088 -0.433566 2.95233 0
M  V30 5643 C 533.837 -2.19121 2.69965 0
M  V30 5644 H 533.16 -1.90204 3.51657 0
M  V30 5645 H 534.6 -2.86465 3.12592 0
M  V30 5646 C 533.059 -2.94195 1.64168 0
M  V30 5647 O 533.589 -3.87468 1.05978 0
M  V30 5648 N 531.795 -2.57089 1.35476 0
M  V30 5649 H 531.342 -1.81314 1.82984 0
M  V30 5650 H 531.3 -3.07624 0.649196 0
M  V30 5651 N 535.072 -1.5615 -0.213296 0
M  V30 5652 C 536.035 -1.92249 -1.24792 0
M  V30 5653 C 537.035 -0.801828 -1.39382 0
M  V30 5654 O 538.225 -1.06948 -1.37506 0
M  V30 5655 C 535.357 -2.18056 -2.62039 0
M  V30 5656 H 536.55 -2.84793 -0.939845 0
M  V30 5657 H 534.103 -1.49559 -0.454062 0
M  V30 5658 H 534.838 -1.2809 -2.97932 0
M  V30 5659 H 534.623 -2.99703 -2.52825 0
M  V30 5660 H 536.113 -2.47051 -3.36683 0
M  V30 5661 N 536.55 0.480323 -1.50102 0
M  V30 5662 C 537.961 1.06142 -1.53593 0
M  V30 5663 C 538.312 1.93335 -0.334055 0
M  V30 5664 O 537.437 2.09188 0.55403 0
M  V30 5665 C 538.032 1.9317 -2.78336 0
M  V30 5666 C 536.591 2.46405 -2.84538 0
M  V30 5667 C 535.738 1.24521 -2.4777 0
M  V30 5668 H 538.689 0.26333 -1.565 0
M  V30 5669 H 538.71 2.78123 -2.59669 0
M  V30 5670 H 538.222 1.29683 -3.65792 0
M  V30 5671 H 536.323 3.13472 -2.01411 0
M  V30 5672 H 536.436 2.82143 -3.87211 0
M  V30 5673 H 534.8 1.57706 -2.00003 0
M  V30 5674 H 535.583 0.627102 -3.37524 0
M  V30 5675 N 538.028 1.39524 0.732853 0
M  V30 5676 C 538.96 1.34318 1.85718 0
M  V30 5677 C 539.973 0.251576 1.60844 0
M  V30 5678 O 541.162 0.510685 1.71039 0
M  V30 5679 C 538.262 1.06334 3.21786 0
M  V30 5680 C 537.435 2.26813 3.73998 0
M  V30 5681 C 536.494 1.95253 4.88634 0
M  V30 5682 O 535.52 2.67957 5.02183 0
M  V30 5683 N 536.722 0.919984 5.73164 0
M  V30 5684 H 539.487 2.3121 1.90688 0
M  V30 5685 H 537.048 1.33654 0.91368 0
M  V30 5686 H 539.04 0.832363 3.96048 0
M  V30 5687 H 537.61 0.181682 3.12072 0
M  V30 5688 H 536.83 2.65849 2.91064 0
M  V30 5689 H 538.118 3.0717 4.05616 0
M  V30 5690 H 537.516 0.317487 5.64808 0
M  V30 5691 H 536.073 0.748905 6.47483 0
M  V30 5692 N 539.506 -0.963266 1.24736 0
M  V30 5693 C 540.754 -1.70343 1.08755 0
M  V30 5694 C 541.075 -1.91387 -0.373619 0
M  V30 5695 O 540.345 -1.4948 -1.2662 0
M  V30 5696 H 538.925 -0.631224 0.399456 0
M  V30 5697 H 541.587 -1.15859 1.56725 0
M  V30 5698 H 540.683 -2.68616 1.58909 0
M  V30 5699 N 540.985 -1.06182 -1.16461 0
M  V30 5700 C 542.231 -0.779015 -1.87241 0
M  V30 5701 C 542.564 0.692715 -1.81425 0
M  V30 5702 O 541.839 1.5074 -1.22913 0
M  V30 5703 C 542.122 -1.2728 -3.36856 0
M  V30 5704 C 541.975 -2.80821 -3.51368 0
M  V30 5705 C 543.294 -0.879799 -4.31216 0
M  V30 5706 H 540.413 -0.284464 -0.679889 0
M  V30 5707 H 543.055 -1.31755 -1.36896 0
M  V30 5708 H 541.205 -0.814673 -3.79862 0
M  V30 5709 H 542.877 -3.34833 -3.17308 0
M  V30 5710 H 541.12 -3.19606 -2.93316 0
M  V30 5711 H 541.791 -3.10435 -4.56436 0
M  V30 5712 H 544.267 -1.27436 -3.96105 0
M  V30 5713 H 543.143 -1.25278 -5.34412 0
M  V30 5714 H 543.404 0.215372 -4.41575 0
M  V30 5715 N 542.463 1.3308 -0.844243 0
M  V30 5716 C 543.874 1.7992 -0.498566 0
M  V30 5717 C 544.225 1.69808 0.982834 0
M  V30 5718 O 543.35 1.25051 1.7661 0
M  V30 5719 C 543.945 3.26677 -0.898204 0
M  V30 5720 C 542.504 3.71513 -0.604583 0
M  V30 5721 C 541.651 2.54393 -1.10362 0
M  V30 5722 H 544.602 1.20526 -1.03244 0
M  V30 5723 H 544.623 3.79918 -0.21039 0
M  V30 5724 H 544.135 3.34004 -1.97643 0
M  V30 5725 H 542.236 3.69708 0.46335 0
M  V30 5726 H 542.349 4.64755 -1.16358 0
M  V30 5727 H 540.713 2.49246 -0.524273 0
M  V30 5728 H 541.496 2.6448 -2.18873 0
M  V30 5729 N 543.941 0.601185 1.45683 0
M  V30 5730 C 545.189 0.0936957 2.01883 0
M  V30 5731 C 545.51 -1.2779 1.47291 0
M  V30 5732 O 544.78 -1.84279 0.664691 0
M  V30 5733 H 543.36 0.0316466 0.746329 0
M  V30 5734 H 546.022 0.781137 1.78562 0
M  V30 5735 H 545.118 0.0386297 3.12076 0
M  V30 5736 N 545.419 -1.53889 0.339982 0
M  V30 5737 C 546.83 -1.86139 -0.144671 0
M  V30 5738 C 547.181 -1.2613 -1.50285 0
M  V30 5739 O 546.306 -0.573515 -2.08662 0
M  V30 5740 C 546.901 -3.37728 -0.269285 0
M  V30 5741 C 545.46 -3.69868 -0.698168 0
M  V30 5742 C 544.607 -2.76777 0.170249 0
M  V30 5743 H 547.558 -1.48503 0.559704 0
M  V30 5744 H 547.579 -3.64331 -1.0974 0
M  V30 5745 H 547.091 -3.81375 0.719366 0
M  V30 5746 H 545.192 -3.31764 -1.69597 0
M  V30 5747 H 545.305 -4.76582 -0.490533 0
M  V30 5748 H 543.669 -2.52188 -0.356844 0
M  V30 5749 H 544.452 -3.23253 1.15597 0
M  V30 5750 N 546.897 -0.0685191 -1.57451 0
M  V30 5751 C 547.845 0.917577 -2.13736 0
M  V30 5752 C 548.839 1.31049 -1.07344 0
M  V30 5753 O 550.045 1.28811 -1.25728 0
M  V30 5754 H 546.42 0.313835 -0.683382 0
M  V30 5755 H 548.391 0.417903 -2.95459 0
M  V30 5756 C 547.14 2.17686 -2.71123 0
M  V30 5757 H 546.463 1.88336 -3.52661 0
M  V30 5758 H 547.903 2.84803 -3.14107 0
M  V30 5759 C 546.362 2.9332 -1.65726 0
M  V30 5760 O 546.892 3.86901 -1.08031 0
M  V30 5761 N 545.098 2.56367 -1.36837 0
M  V30 5762 H 544.645 1.80341 -1.83943 0
M  V30 5763 H 544.603 3.07276 -0.665501 0
M  V30 5764 N 548.375 1.56261 0.205012 0
M  V30 5765 C 549.623 1.79684 0.925096 0
M  V30 5766 C 549.944 0.63989 1.84202 0
M  V30 5767 O 549.214 -0.342345 1.92885 0
M  V30 5768 H 547.794 0.662774 0.344587 0
M  V30 5769 H 550.456 1.93734 0.212899 0
M  V30 5770 H 549.552 2.72467 1.52211 0
M  V30 5771 N 549.853 -0.472356 1.50355 0
M  V30 5772 C 551.081 -1.24784 1.65035 0
M  V30 5773 C 551.496 -1.85837 0.333176 0
M  V30 5774 O 550.853 -1.69168 -0.68472 0
M  V30 5775 C 550.904 -2.35747 2.74054 0
M  V30 5776 O 550.625 -1.77197 4.00665 0
M  V30 5777 C 552.126 -3.26645 2.99696 0
M  V30 5778 H 549.346 -0.377432 0.554785 0
M  V30 5779 H 551.89 -0.563962 1.9657 0
M  V30 5780 H 550.045 -2.99912 2.45217 0
M  V30 5781 H 550.459 -2.5026 4.60945 0
M  V30 5782 H 551.933 -4.00718 3.79644 0
M  V30 5783 H 552.41 -3.8535 2.10718 0
M  V30 5784 H 553.016 -2.68218 3.3006 0
M  V30 5785 N 551.331 -1.39911 -0.725443 0
M  V30 5786 C 552.263 -1.35301 -1.85003 0
M  V30 5787 C 553.276 -0.260102 -1.60709 0
M  V30 5788 O 554.465 -0.519749 -1.70766 0
M  V30 5789 C 551.565 -1.08039 -3.21218 0
M  V30 5790 C 550.738 -2.28793 -3.7279 0
M  V30 5791 C 549.797 -1.97841 -4.87591 0
M  V30 5792 O 548.823 -2.70616 -5.00755 0
M  V30 5793 N 550.025 -0.950367 -5.72668 0
M  V30 5794 H 552.79 -2.32218 -1.89459 0
M  V30 5795 H 550.351 -1.34137 -0.90658 0
M  V30 5796 H 552.343 -0.853354 -3.95601 0
M  V30 5797 H 550.913 -0.198229 -3.11971 0
M  V30 5798 H 550.133 -2.67388 -2.8965 0
M  V30 5799 H 551.421 -3.09317 -4.03981 0
M  V30 5800 H 550.819 -0.347436 -5.64632 0
M  V30 5801 H 549.376 -0.783232 -6.47077 0
M  V30 5802 N 552.809 0.956637 -1.25245 0
M  V30 5803 C 554.055 1.70352 -1.10036 0
M  V30 5804 C 554.388 1.90869 0.358156 0
M  V30 5805 O 553.663 1.47819 1.26411 0
M  V30 5806 C 553.946 3.08766 -1.85298 0
M  V30 5807 C 553.799 2.95672 -3.38966 0
M  V30 5808 C 555.118 4.08622 -1.63451 0
M  V30 5809 H 552.237 0.618279 -0.401123 0
M  V30 5810 H 554.879 1.11212 -1.54051 0
M  V30 5811 H 553.029 3.59252 -1.47887 0
M  V30 5812 H 554.701 2.52527 -3.86041 0
M  V30 5813 H 552.944 2.31634 -3.6678 0
M  V30 5814 H 553.615 3.93776 -3.86839 0
M  V30 5815 H 556.091 3.67038 -1.96015 0
M  V30 5816 H 554.967 5.03514 -2.18551 0
M  V30 5817 H 555.228 4.3834 -0.575357 0
M  V30 5818 N 554.287 1.06798 1.15896 0
M  V30 5819 C 555.698 0.811355 1.68149 0
M  V30 5820 C 556.049 -0.664339 1.8461 0
M  V30 5821 O 555.174 -1.51485 1.54535 0
M  V30 5822 C 555.769 1.46624 3.05429 0
M  V30 5823 C 554.328 1.25726 3.54781 0
M  V30 5824 C 553.475 1.53949 2.3064 0
M  V30 5825 H 556.426 1.23078 1.00187 0
M  V30 5826 H 556.447 0.88437 3.7008 0
M  V30 5827 H 555.959 2.54025 2.93416 0
M  V30 5828 H 554.06 0.20322 3.72045 0
M  V30 5829 H 554.173 1.97354 4.36564 0
M  V30 5830 H 552.537 0.96025 2.35905 0
M  V30 5831 H 553.32 2.6252 2.2122 0
M  V30 5832 N 555.766 -1.3263 0.851289 0
M  V30 5833 C 556.716 -2.26451 0.265302 0
M  V30 5834 C 557.7 -1.49814 -0.586899 0
M  V30 5835 O 558.892 -1.71525 -0.436834 0
M  V30 5836 C 556.021 -3.38895 -0.548212 0
M  V30 5837 C 555.107 -4.2292 0.316189 0
M  V30 5838 N 555.498 -4.86014 1.40084 0
M  V30 5839 C 553.796 -4.45876 0.105356 0
M  V30 5840 C 554.497 -5.48667 1.93235 0
M  V30 5841 N 553.473 -5.29455 1.232 0
M  V30 5842 H 557.275 -2.72757 1.09457 0
M  V30 5843 H 554.789 -1.4668 0.697047 0
M  V30 5844 H 556.786 -4.05111 -0.984402 0
M  V30 5845 H 555.446 -2.94135 -1.37531 0
M  V30 5846 H 556.457 -4.86212 1.78377 0
M  V30 5847 H 553.134 -4.11804 -0.687299 0
M  V30 5848 H 554.524 -6.08865 2.84135 0
M  V30 5849 N 557.244 -0.608902 -1.45362 0
M  V30 5850 C 558.474 -0.110852 -2.06302 0
M  V30 5851 C 558.882 1.21062 -1.45398 0
M  V30 5852 O 558.225 1.74861 -0.562976 0
M  V30 5853 C 558.287 0.101793 -3.59356 0
M  V30 5854 C 557.951 -1.13808 -4.42602 0
M  V30 5855 C 558.948 -2.05653 -4.77496 0
M  V30 5856 C 556.633 -1.36727 -4.83333 0
M  V30 5857 C 558.627 -3.18745 -5.51978 0
M  V30 5858 C 556.314 -2.5012 -5.57569 0
M  V30 5859 C 557.312 -3.40957 -5.91809 0
M  V30 5860 O 557 -4.52376 -6.64538 0
M  V30 5861 H 556.732 -0.0666001 -0.672711 0
M  V30 5862 H 559.286 -0.836942 -1.87575 0
M  V30 5863 H 557.516 0.88279 -3.76489 0
M  V30 5864 H 559.205 0.551607 -4.02134 0
M  V30 5865 H 559.971 -1.89172 -4.46586 0
M  V30 5866 H 555.85 -0.669216 -4.56117 0
M  V30 5867 H 559.394 -3.8967 -5.78622 0
M  V30 5868 H 555.291 -2.66553 -5.87894 0
M  V30 5869 H 556.059 -4.51075 -6.82989 0
M  V30 5870 N 558.722 1.53707 -0.348139 0
M  V30 5871 C 559.968 2.01979 0.239986 0
M  V30 5872 C 560.323 1.23141 1.47831 0
M  V30 5873 O 559.616 0.311936 1.89044 0
M  V30 5874 C 559.81 3.52292 0.602061 0
M  V30 5875 C 559.639 4.45684 -0.599625 0
M  V30 5876 C 558.409 4.9304 -1.10635 0
M  V30 5877 C 560.607 4.93156 -1.4595 0
M  V30 5878 N 558.589 5.70394 -2.26988 0
M  V30 5879 C 559.96 5.6868 -2.46988 0
M  V30 5880 C 562.015 4.75257 -1.48441 0
M  V30 5881 C 560.718 6.28208 -3.50353 0
M  V30 5882 C 562.744 5.35639 -2.50689 0
M  V30 5883 C 562.106 6.11034 -3.50453 0
M  V30 5884 H 558.205 0.780335 0.0509992 0
M  V30 5885 H 560.789 1.88466 -0.488742 0
M  V30 5886 H 558.96 3.66002 1.29989 0
M  V30 5887 H 560.692 3.87304 1.17377 0
M  V30 5888 H 557.447 4.68784 -0.67371 0
M  V30 5889 H 557.871 6.13741 -2.85747 0
M  V30 5890 H 562.513 4.16508 -0.726707 0
M  V30 5891 H 560.231 6.86064 -4.27015 0
M  V30 5892 H 563.817 5.23693 -2.53449 0
M  V30 5893 H 562.697 6.56925 -4.28275 0
M  V30 5894 N 560.2 0.0768682 1.57412 0
M  V30 5895 C 561.446 -0.591961 1.93968 0
M  V30 5896 C 561.779 -1.68954 0.9575 0
M  V30 5897 O 561.054 -1.94496 -0.0124675 0
M  V30 5898 C 561.337 -1.16418 3.40762 0
M  V30 5899 C 561.19 -0.0728933 4.49741 0
M  V30 5900 C 562.509 -2.06814 3.88479 0
M  V30 5901 H 559.628 -0.213716 0.705333 0
M  V30 5902 H 562.27 0.14387 1.89455 0
M  V30 5903 H 560.42 -1.79128 3.4474 0
M  V30 5904 H 562.092 0.560446 4.57883 0
M  V30 5905 H 560.335 0.595859 4.29688 0
M  V30 5906 H 561.006 -0.513755 5.49604 0
M  V30 5907 H 563.482 -1.54033 3.8654 0
M  V30 5908 H 562.358 -2.43785 4.91793 0
M  V30 5909 H 562.619 -2.97844 3.26713 0
M  V30 5910 N 561.678 -1.56367 -0.196722 0
M  V30 5911 C 563.089 -1.70462 -0.761545 0
M  V30 5912 C 563.44 -0.683161 -1.83922 0
M  V30 5913 O 562.565 0.160753 -2.15802 0
M  V30 5914 C 563.16 -3.09057 -1.38814 0
M  V30 5915 C 561.719 -3.24922 -1.90007 0
M  V30 5916 C 560.866 -2.66412 -0.769399 0
M  V30 5917 H 563.817 -1.58675 0.0283263 0
M  V30 5918 H 563.838 -3.06296 -2.2575 0
M  V30 5919 H 563.35 -3.83378 -0.603559 0
M  V30 5920 H 561.451 -2.55514 -2.71189 0
M  V30 5921 H 561.564 -4.3241 -2.06297 0
M  V30 5922 H 559.928 -2.25546 -1.18326 0
M  V30 5923 H 560.711 -3.433 0.00291773 0
M  V30 5924 N 563.156 0.464375 -1.50603 0
M  V30 5925 C 564.119 1.54393 -1.69397 0
M  V30 5926 C 565.119 1.50566 -0.564504 0
M  V30 5927 O 566.309 1.53066 -0.831645 0
M  V30 5928 C 563.441 2.9401 -1.72543 0
M  V30 5929 H 564.634 1.39044 -2.65719 0
M  V30 5930 H 562.187 0.69122 -1.40185 0
M  V30 5931 H 562.922 3.14795 -0.77938 0
M  V30 5932 H 562.707 2.98195 -2.54602 0
M  V30 5933 H 564.197 3.72375 -1.89015 0
M  V30 5934 N 564.634 1.40294 0.718013 0
M  V30 5935 C 565.582 1.40536 1.85344 0
M  V30 5936 C 566.576 0.286192 1.66965 0
M  V30 5937 O 567.782 0.457105 1.74099 0
M  V30 5938 H 564.157 0.439236 0.61039 0
M  V30 5939 H 566.128 2.36275 1.82255 0
M  V30 5940 C 564.877 1.28245 3.23185 0
M  V30 5941 H 564.2 2.1364 3.37932 0
M  V30 5942 H 565.64 1.32474 4.02774 0
M  V30 5943 C 564.099 -0.0075503 3.36899 0
M  V30 5944 O 564.629 -0.971391 3.89778 0
M  V30 5945 N 562.835 -0.0762479 2.905 0
M  V30 5946 H 562.382 0.708819 2.47656 0
M  V30 5947 H 562.34 -0.938846 3.00055 0
M  V30 5948 N 566.112 -0.949982 1.2575 0
M  V30 5949 C 567.528 -1.22191 1.02672 0
M  V30 5950 C 567.728 -1.99898 -0.253588 0
M  V30 5951 O 566.784 -2.33329 -0.965076 0
M  V30 5952 C 568.097 -1.99175 2.25277 0
M  V30 5953 C 569.645 -2.12201 2.30087 0
M  V30 5954 C 570.12 -2.92586 3.5236 0
M  V30 5955 N 571.611 -3.00163 3.52784 0
M  V30 5956 C 572.346 -3.62766 4.44059 0
M  V30 5957 N 571.842 -4.26943 5.45611 0
M  V30 5958 N 573.635 -3.59953 4.3173 0
M  V30 5959 H 565.786 -0.430258 2.07996 0
M  V30 5960 H 568.049 -0.252844 0.91366 0
M  V30 5961 H 567.755 -1.49479 3.18354 0
M  V30 5962 H 567.629 -2.99868 2.28821 0
M  V30 5963 H 570.016 -2.61093 1.3753 0
M  V30 5964 H 570.097 -1.10799 2.30559 0
M  V30 5965 H 569.741 -2.44383 4.45241 0
M  V30 5966 H 569.671 -3.94224 3.49134 0
M  V30 5967 H 572.162 -2.54529 2.79327 0
M  V30 5968 H 572.475 -4.72583 6.11461 0
M  V30 5969 H 570.82 -4.25557 5.49478 0
M  V30 5970 H 574.011 -3.09003 3.51617 0
M  V30 5971 H 574.184 -4.08455 5.03059 0
M  V30 5972 N 567.59 -1.07411 -1.15328 0
M  V30 5973 C 569.001 -0.820261 -1.67716 0
M  V30 5974 C 569.352 0.654539 -1.8496 0
M  V30 5975 O 568.477 1.50664 -1.55337 0
M  V30 5976 C 569.072 -1.48242 -3.04647 0
M  V30 5977 C 567.631 -1.27606 -3.5411 0
M  V30 5978 C 566.778 -1.5517 -2.29821 0
M  V30 5979 H 569.729 -1.23608 -0.995332 0
M  V30 5980 H 569.75 -0.903984 -3.69606 0
M  V30 5981 H 569.262 -2.55578 -2.92064 0
M  V30 5982 H 567.363 -0.222948 -3.71932 0
M  V30 5983 H 567.476 -1.99667 -4.35511 0
M  V30 5984 H 565.84 -0.972747 -2.35393 0
M  V30 5985 H 566.623 -2.63689 -2.19824 0
M  V30 5986 N 569.068 1.32177 -0.85831 0
M  V30 5987 C 569.978 2.32561 -0.308606 0
M  V30 5988 C 570.994 1.64209 0.575462 0
M  V30 5989 O 572.17 1.95719 0.474961 0
M  V30 5990 C 569.235 3.43207 0.490909 0
M  V30 5991 C 568.296 4.27243 -0.419733 0
M  V30 5992 C 567.529 5.32605 0.341719 0
M  V30 5993 O 567.752 5.48332 1.57125 0
M  V30 5994 O 566.686 6.0118 -0.294379 0
M  V30 5995 H 570.512 2.81477 -1.14037 0
M  V30 5996 H 568.097 1.35866 -0.621349 0
M  V30 5997 H 569.979 4.10677 0.944574 0
M  V30 5998 H 568.654 2.96474 1.29941 0
M  V30 5999 H 567.561 3.62569 -0.921652 0
M  V30 6000 H 568.894 4.7751 -1.19352 0
M  V30 6001 N 570.547 0.616602 1.45037 0
M  V30 6002 C 571.495 -0.109318 2.32343 0
M  V30 6003 C 572.489 -0.850543 1.465 0
M  V30 6004 O 573.695 -0.765088 1.62931 0
M  V30 6005 H 570.07 -0.0541091 0.750051 0
M  V30 6006 H 572.041 0.645326 2.91338 0
M  V30 6007 C 570.79 -1.0872 3.30266 0
M  V30 6008 H 570.113 -0.526267 3.96321 0
M  V30 6009 H 571.553 -1.56489 3.94065 0
M  V30 6010 C 570.012 -2.16525 2.58105 0
M  V30 6011 O 570.542 -3.244 2.36913 0
M  V30 6012 N 568.748 -1.92057 2.18088 0
M  V30 6013 H 568.295 -1.04337 2.35524 0
M  V30 6014 H 568.253 -2.64391 1.70131 0
M  V30 6015 N 572.025 -1.5352 0.356285 0
M  V30 6016 C 573.274 -2.00298 -0.237373 0
M  V30 6017 C 573.587 -1.24784 -1.50627 0
M  V30 6018 O 574.793 -1.62103 -2.17795 0
M  V30 6019 C 573.249 -3.56771 -0.473545 0
M  V30 6020 C 572.857 -4.41154 0.780183 0
M  V30 6021 C 574.601 -4.1193 -1.02537 0
M  V30 6022 C 572.508 -5.89161 0.514108 0
M  V30 6023 H 571.438 -0.748307 -0.092478 0
M  V30 6024 H 574.089 -1.77283 0.473588 0
M  V30 6025 H 572.471 -3.75902 -1.24553 0
M  V30 6026 H 573.645 -4.33797 1.55425 0
M  V30 6027 H 571.96 -3.97052 1.25455 0
M  V30 6028 H 574.557 -5.20133 -1.2396 0
M  V30 6029 H 574.9 -3.65943 -1.98473 0
M  V30 6030 H 575.433 -3.96561 -0.313775 0
M  V30 6031 H 572.172 -6.39408 1.44355 0
M  V30 6032 H 571.692 -5.9939 -0.221632 0
M  V30 6033 H 573.371 -6.46857 0.136122 0
M  V30 6034 N 573.503 -0.0852151 -1.57369 0
M  V30 6035 C 574.451 0.894856 -2.14698 0
M  V30 6036 C 575.445 1.29903 -1.08727 0
M  V30 6037 O 576.651 1.27471 -1.27088 0
M  V30 6038 H 573.026 0.306569 -0.686673 0
M  V30 6039 H 574.997 0.386542 -2.95886 0
M  V30 6040 C 573.746 2.14798 -2.73417 0
M  V30 6041 H 573.069 1.84585 -3.54638 0
M  V30 6042 H 574.509 2.81456 -3.1711 0
M  V30 6043 C 572.968 2.91546 -1.68828 0
M  V30 6044 O 573.498 3.85733 -1.12129 0
M  V30 6045 N 571.704 2.54901 -1.39549 0
M  V30 6046 H 571.251 1.7838 -1.85845 0
M  V30 6047 H 571.209 3.06553 -0.698054 0
M  V30 6048 N 574.981 1.5647 0.188427 0
M  V30 6049 C 575.929 1.95971 1.25293 0
M  V30 6050 C 576.923 0.846047 1.4676 0
M  V30 6051 O 578.129 1.03109 1.47542 0
M  V30 6052 H 574.504 0.623253 0.420784 0
M  V30 6053 H 576.475 2.84731 0.892792 0
M  V30 6054 C 575.224 2.32116 2.58877 0
M  V30 6055 H 574.547 3.17341 2.43176 0
M  V30 6056 H 575.987 2.63613 3.3209 0
M  V30 6057 C 574.446 1.15823 3.16365 0
M  V30 6058 O 574.976 0.436785 3.99318 0
M  V30 6059 N 573.182 0.933278 2.75206 0
M  V30 6060 H 572.729 1.52169 2.07852 0
M  V30 6061 H 572.687 0.156976 3.14008 0
M  V30 6062 N 576.459 -0.456382 1.50847 0
M  V30 6063 C 577.707 -1.20497 1.62249 0
M  V30 6064 C 578.028 -1.92156 0.331839 0
M  V30 6065 O 577.298 -1.84751 -0.651443 0
M  V30 6066 H 575.878 -0.447775 0.597918 0
M  V30 6067 H 578.54 -0.525099 1.87693 0
M  V30 6068 H 577.636 -1.94492 2.44089 0
M  V30 6069 N 577.937 -1.40673 -0.710563 0
M  V30 6070 C 579.165 -1.42547 -1.4996 0
M  V30 6071 C 579.58 -0.0265485 -1.88781 0
M  V30 6072 O 578.937 0.950694 -1.55782 0
M  V30 6073 C 578.988 -2.32071 -2.77173 0
M  V30 6074 O 578.709 -3.66518 -2.39992 0
M  V30 6075 C 580.21 -2.42591 -3.71032 0
M  V30 6076 H 577.43 -0.486025 -0.462623 0
M  V30 6077 H 579.974 -1.84783 -0.876102 0
M  V30 6078 H 578.129 -1.93184 -3.35795 0
M  V30 6079 H 578.543 -4.14115 -3.21884 0
M  V30 6080 H 580.017 -3.09429 -4.57119 0
M  V30 6081 H 580.494 -1.4525 -4.14486 0
M  V30 6082 H 581.1 -2.82051 -3.18319 0
M  V30 6083 N 579.415 0.9433 -1.26252 0
M  V30 6084 C 580.345 2.05902 -1.10122 0
M  V30 6085 C 581.326 1.70099 -0.00700552 0
M  V30 6086 O 582.511 1.93377 -0.178641 0
M  V30 6087 C 579.641 3.39516 -0.731175 0
M  V30 6088 C 578.595 3.89372 -1.77688 0
M  V30 6089 C 577.921 5.19613 -1.26122 0
M  V30 6090 C 579.221 4.14489 -3.17799 0
M  V30 6091 H 580.915 2.19655 -2.03451 0
M  V30 6092 H 578.461 1.05548 -0.979576 0
M  V30 6093 H 580.414 4.17031 -0.605215 0
M  V30 6094 H 579.138 3.25733 0.23782 0
M  V30 6095 H 577.797 3.14036 -1.89148 0
M  V30 6096 H 577.445 5.02208 -0.282128 0
M  V30 6097 H 577.145 5.53939 -1.96023 0
M  V30 6098 H 578.669 5.99713 -1.14789 0
M  V30 6099 H 580.083 4.82625 -3.09428 0
M  V30 6100 H 578.48 4.60094 -3.85271 0
M  V30 6101 H 579.55 3.20347 -3.64014 0
M  V30 6102 N 580.893 1.08022 1.14757 0
M  V30 6103 C 581.803 0.718292 2.23333 0
M  V30 6104 C 582.819 -0.273477 1.71837 0
M  V30 6105 O 583.995 -0.118406 2.01052 0
M  V30 6106 C 581.06 0.128855 3.4646 0
M  V30 6107 C 580.121 1.17473 4.12915 0
M  V30 6108 C 579.354 0.61333 5.30164 0
M  V30 6109 O 579.577 -0.568458 5.6756 0
M  V30 6110 O 578.511 1.3615 5.86299 0
M  V30 6111 H 582.337 1.62394 2.56636 0
M  V30 6112 H 579.922 0.853628 1.22611 0
M  V30 6113 H 581.804 -0.197249 4.20938 0
M  V30 6114 H 580.479 -0.750014 3.14891 0
M  V30 6115 H 579.386 1.5533 3.40328 0
M  V30 6116 H 580.719 2.02574 4.48581 0
M  V30 6117 N 582.371 -1.3172 0.865308 0
M  V30 6118 C 583.648 -1.91574 0.394789 0
M  V30 6119 C 584.028 -1.78769 -1.12271 0
M  V30 6120 O 583.376 -1.19245 -1.94918 0
M  V30 6121 C 583.586 -3.37957 0.870982 0
M  V30 6122 C 584.934 -4.15073 0.894384 0
M  V30 6123 O 585.958 -3.4672 0.816325 0
M  V30 6124 O 584.817 -5.37151 1.00651 0
M  V30 6125 H 581.911 -0.818649 0.117229 0
M  V30 6126 H 584.457 -1.4042 0.952913 0
M  V30 6127 H 583.229 -3.41269 1.91444 0
M  V30 6128 H 582.852 -3.96534 0.290907 0
M  V30 6129 N 583.85 -0.624285 -1.44708 0
M  V30 6130 C 585.096 -0.126051 -2.02107 0
M  V30 6131 C 585.425 1.2496 -1.49048 0
M  V30 6132 O 584.68 1.84163 -0.662005 0
M  V30 6133 C 584.979 -0.0546353 -3.57358 0
M  V30 6134 C 584.644 -1.36815 -4.29642 0
M  V30 6135 C 583.307 -1.72792 -4.49106 0
M  V30 6136 C 585.659 -2.23549 -4.70824 0
M  V30 6137 C 582.986 -2.95222 -5.07012 0
M  V30 6138 C 585.339 -3.45243 -5.30085 0
M  V30 6139 C 584.003 -3.81452 -5.47769 0
M  V30 6140 H 583.273 -0.0461252 -0.739563 0
M  V30 6141 H 585.92 -0.809236 -1.73562 0
M  V30 6142 H 584.225 0.711891 -3.85278 0
M  V30 6143 H 585.922 0.347282 -3.99493 0
M  V30 6144 H 582.512 -1.07817 -4.14817 0
M  V30 6145 H 586.696 -1.9705 -4.55505 0
M  V30 6146 H 581.952 -3.23361 -5.18891 0
M  V30 6147 H 586.125 -4.12689 -5.60946 0
M  V30 6148 H 583.753 -4.76403 -5.92405 0
M  V30 6149 N 585.328 1.53329 -0.364422 0
M  V30 6150 C 586.26 2.23286 0.517293 0
M  V30 6151 C 587.273 1.24657 1.04711 0
M  V30 6152 O 588.462 1.50887 0.95369 0
M  V30 6153 C 585.562 2.91604 1.72685 0
M  V30 6154 C 584.735 4.1673 1.32873 0
M  V30 6155 C 583.794 4.68269 2.40022 0
M  V30 6156 O 582.82 5.31976 2.02461 0
M  V30 6157 N 584.022 4.45983 3.7159 0
M  V30 6158 H 586.787 2.99588 -0.0819391 0
M  V30 6159 H 584.348 1.60787 -0.189544 0
M  V30 6160 H 586.34 3.22992 2.4384 0
M  V30 6161 H 584.91 2.18763 2.23297 0
M  V30 6162 H 584.13 3.91657 0.447069 0
M  V30 6163 H 585.418 4.98078 1.03902 0
M  V30 6164 H 584.816 3.95077 4.04883 0
M  V30 6165 H 583.373 4.81924 4.38854 0
M  V30 6166 N 586.806 0.0935595 1.57322 0
M  V30 6167 C 587.769 -0.851426 2.12799 0
M  V30 6168 C 588.769 -1.21187 1.0569 0
M  V30 6169 O 589.959 -1.14156 1.31583 0
M  V30 6170 C 587.091 -2.14779 2.64731 0
M  V30 6171 H 588.284 -0.369733 2.97612 0
M  V30 6172 H 585.837 -0.155417 1.55525 0
M  V30 6173 H 586.572 -2.67437 1.83434 0
M  V30 6174 H 586.357 -1.89907 3.43042 0
M  V30 6175 H 587.847 -2.82383 3.07651 0
M  V30 6176 N 588.284 -1.56567 -0.180126 0
M  V30 6177 C 589.531 -1.81492 -0.898167 0
M  V30 6178 C 589.859 -0.669225 -1.82624 0
M  V30 6179 O 589.114 0.344096 -1.92651 0
M  V30 6180 C 589.413 -3.1252 -1.73395 0
M  V30 6181 C 589.079 -4.40658 -0.955567 0
M  V30 6182 C 587.741 -4.75465 -0.740707 0
M  V30 6183 C 590.093 -5.19593 -0.408948 0
M  V30 6184 C 587.421 -5.86691 0.0320128 0
M  V30 6185 C 589.773 -6.31627 0.350638 0
M  V30 6186 C 588.437 -6.65007 0.576378 0
M  V30 6187 H 587.707 -0.664125 -0.328662 0
M  V30 6188 H 590.354 -1.908 -0.163616 0
M  V30 6189 H 588.659 -2.98515 -2.53763 0
M  V30 6190 H 590.356 -3.29013 -2.29241 0
M  V30 6191 H 586.946 -4.13352 -1.13306 0
M  V30 6192 H 591.13 -4.93104 -0.562307 0
M  V30 6193 H 586.386 -6.11016 0.216735 0
M  V30 6194 H 590.56 -6.92001 0.781497 0
M  V30 6195 H 588.187 -7.51033 1.17703 0
M  V30 6196 N 589.762 0.448376 -1.51087 0
M  V30 6197 C 590.992 1.21965 -1.66757 0
M  V30 6198 C 591.4 1.85748 -0.359753 0
M  V30 6199 O 590.743 1.71022 0.670604 0
M  V30 6200 C 590.805 2.35284 -2.71812 0
M  V30 6201 C 590.469 1.91957 -4.1473 0
M  V30 6202 C 591.466 1.42921 -4.9987 0
M  V30 6203 C 589.151 1.99985 -4.60772 0
M  V30 6204 C 591.145 1.02485 -6.29107 0
M  V30 6205 C 588.832 1.5916 -5.90009 0
M  V30 6206 C 589.83 1.10491 -6.74004 0
M  V30 6207 O 589.518 0.702413 -8.00825 0
M  V30 6208 H 589.25 0.374125 -0.563034 0
M  V30 6209 H 591.804 0.538927 -1.98204 0
M  V30 6210 H 590.034 3.06599 -2.35657 0
M  V30 6211 H 591.723 2.97184 -2.76472 0
M  V30 6212 H 592.489 1.36123 -4.65506 0
M  V30 6213 H 588.368 2.36814 -3.95525 0
M  V30 6214 H 591.912 0.644271 -6.94619 0
M  V30 6215 H 587.809 1.65626 -6.2389 0
M  V30 6216 H 588.577 0.829248 -8.14288 0
M  V30 6217 N 591.24 1.41047 0.703093 0
M  V30 6218 C 592.203 1.42036 1.79884 0
M  V30 6219 C 593.203 0.312153 1.57741 0
M  V30 6220 O 594.393 0.571672 1.64553 0
M  V30 6221 C 591.525 1.22437 3.18154 0
M  V30 6222 H 592.718 2.39572 1.80403 0
M  V30 6223 H 590.271 1.27079 0.909977 0
M  V30 6224 H 591.006 0.257112 3.23279 0
M  V30 6225 H 590.791 2.02723 3.35627 0
M  V30 6226 H 592.281 1.25946 3.98155 0
M  V30 6227 N 592.718 -0.936591 1.26751 0
M  V30 6228 C 593.995 -1.66094 1.03306 0
M  V30 6229 C 594.375 -2.06568 -0.435058 0
M  V30 6230 O 593.723 -1.79305 -1.41641 0
M  V30 6231 C 593.933 -2.86969 1.98619 0
M  V30 6232 C 595.281 -3.58516 2.27489 0
M  V30 6233 O 596.305 -2.97082 1.96522 0
M  V30 6234 O 595.164 -4.69181 2.80235 0
M  V30 6235 H 592.258 -0.727568 0.393158 0
M  V30 6236 H 594.804 -0.987914 1.3798 0
M  V30 6237 H 593.576 -2.53985 2.9767 0
M  V30 6238 H 593.199 -3.61996 1.64454 0
M  V30 6239 N 594.196 -1.08629 -1.14182 0
M  V30 6240 C 595.106 -0.730126 -2.22949 0
M  V30 6241 C 596.122 0.26436 -1.7198 0
M  V30 6242 O 597.298 0.107742 -2.01112 0
M  V30 6243 C 594.363 -0.147227 -3.46387 0
M  V30 6244 C 593.424 -1.19662 -4.12286 0
M  V30 6245 C 592.657 -0.641437 -5.29831 0
M  V30 6246 O 592.88 0.538351 -5.67854 0
M  V30 6247 O 591.814 -1.39257 -5.85569 0
M  V30 6248 H 595.64 -1.63753 -2.55771 0
M  V30 6249 H 593.225 -0.860118 -1.22157 0
M  V30 6250 H 595.107 0.174923 -4.21037 0
M  V30 6251 H 593.782 0.733304 -3.15285 0
M  V30 6252 H 592.689 -1.57133 -3.395 0
M  V30 6253 H 594.022 -2.0495 -4.475 0
M  V30 6254 N 595.674 1.31259 -0.872281 0
M  V30 6255 C 596.921 1.96622 -0.484365 0
M  V30 6256 C 597.249 1.68939 0.963841 0
M  V30 6257 O 596.504 0.97974 1.6941 0
M  V30 6258 C 596.803 3.50659 -0.690889 0
M  V30 6259 C 596.469 3.98366 -2.11224 0
M  V30 6260 C 595.131 4.11104 -2.50094 0
M  V30 6261 C 597.483 4.23425 -3.0391 0
M  V30 6262 C 594.811 4.46254 -3.80887 0
M  V30 6263 C 597.163 4.60039 -4.3422 0
M  V30 6264 C 595.827 4.70984 -4.73001 0
M  V30 6265 H 595.097 0.71949 -0.177242 0
M  V30 6266 H 597.744 1.56353 -1.10571 0
M  V30 6267 H 596.049 3.91798 0.0135782 0
M  V30 6268 H 597.746 3.99284 -0.370534 0
M  V30 6269 H 594.336 3.88949 -1.80047 0
M  V30 6270 H 598.52 4.13075 -2.75104 0
M  V30 6271 H 593.776 4.52926 -4.10692 0
M  V30 6272 H 597.95 4.78381 -5.06088 0
M  V30 6273 H 595.577 4.97977 -5.7439 0
M  V30 6274 N 597.152 0.631951 1.44375 0
M  V30 6275 C 598.38 0.143867 2.06399 0
M  V30 6276 C 598.795 -1.18188 1.47231 0
M  V30 6277 O 598.152 -1.72511 0.595498 0
M  V30 6278 C 598.203 0.0238253 3.61492 0
M  V30 6279 O 597.924 1.29715 4.18456 0
M  V30 6280 C 599.425 -0.492856 4.40552 0
M  V30 6281 H 596.645 0.0800542 0.666207 0
M  V30 6282 H 599.189 0.866586 1.85231 0
M  V30 6283 H 597.344 -0.649338 3.81919 0
M  V30 6284 H 597.758 1.14252 5.11905 0
M  V30 6285 H 599.232 -0.525861 5.49489 0
M  V30 6286 H 599.709 -1.52006 4.12057 0
M  V30 6287 H 600.315 0.147085 4.25046 0
M  V30 6288 N 598.631 -1.53133 0.372548 0
M  V30 6289 C 599.594 -2.24569 -0.458389 0
M  V30 6290 C 600.594 -1.25603 -1.00402 0
M  V30 6291 O 601.784 -1.49827 -0.888672 0
M  V30 6292 C 598.916 -2.98783 -1.6414 0
M  V30 6293 H 600.109 -2.99436 0.166799 0
M  V30 6294 H 597.662 -1.55805 0.124357 0
M  V30 6295 H 598.397 -2.28176 -2.30448 0
M  V30 6296 H 598.182 -3.71404 -1.25704 0
M  V30 6297 H 599.672 -3.53068 -2.23008 0
M  V30 6298 N 600.109 -0.101901 -1.5727 0
M  V30 6299 C 601.356 0.560197 -1.94597 0
M  V30 6300 C 601.684 1.67767 -0.984101 0
M  V30 6301 O 600.939 1.95699 -0.00489193 0
M  V30 6302 C 601.238 1.14898 -3.38427 0
M  V30 6303 C 600.904 0.154613 -4.50635 0
M  V30 6304 C 599.566 -0.118861 -4.81053 0
M  V30 6305 C 601.918 -0.523979 -5.18559 0
M  V30 6306 C 599.246 -1.0775 -5.76721 0
M  V30 6307 C 601.598 -1.47114 -6.15256 0
M  V30 6308 C 600.262 -1.75278 -6.44076 0
M  V30 6309 H 599.532 0.204991 -0.712081 0
M  V30 6310 H 602.179 -0.17918 -1.9066 0
M  V30 6311 H 600.484 1.96476 -3.38976 0
M  V30 6312 H 602.181 1.66909 -3.64613 0
M  V30 6313 H 598.771 0.377948 -4.2693 0
M  V30 6314 H 602.955 -0.325851 -4.95229 0
M  V30 6315 H 598.211 -1.30263 -5.97362 0
M  V30 6316 H 602.385 -2.00274 -6.66981 0
M  V30 6317 H 600.012 -2.49717 -7.18015 0
M  V30 6318 N 601.587 1.56661 0.17182 0
M  V30 6319 C 602.535 1.97289 1.23207 0
M  V30 6320 C 603.529 0.861566 1.45854 0
M  V30 6321 O 604.735 1.04668 1.4644 0
M  V30 6322 H 601.11 0.627681 0.41415 0
M  V30 6323 H 603.081 2.85662 0.862542 0
M  V30 6324 C 601.83 2.34849 2.564 0
M  V30 6325 H 601.153 3.19903 2.39797 0
M  V30 6326 H 602.593 2.67121 3.29276 0
M  V30 6327 C 601.052 1.19172 3.15119 0
M  V30 6328 O 601.582 0.479113 3.98833 0
M  V30 6329 N 599.788 0.962415 2.74201 0
M  V30 6330 H 599.335 1.54365 2.06226 0
M  V30 6331 H 599.293 0.190272 3.13824 0
M  V30 6332 N 603.065 -0.440357 1.51323 0
M  V30 6333 C 604.481 -0.7766 1.39431 0
M  V30 6334 C 604.681 -1.95838 0.474296 0
M  V30 6335 O 603.737 -2.52398 -0.0716692 0
M  V30 6336 C 605.05 -1.05981 2.81405 0
M  V30 6337 C 606.598 -1.16442 2.90534 0
M  V30 6338 C 607.073 -1.48058 4.33408 0
M  V30 6339 N 608.564 -1.54988 4.36501 0
M  V30 6340 C 609.299 -1.81017 5.44078 0
M  V30 6341 N 608.795 -2.04858 6.61819 0
M  V30 6342 N 610.588 -1.82774 5.31554 0
M  V30 6343 H 602.739 0.338006 2.09693 0
M  V30 6344 H 605.002 0.0888072 0.943831 0
M  V30 6345 H 604.708 -0.264173 3.50706 0
M  V30 6346 H 604.582 -1.98822 3.20546 0
M  V30 6347 H 606.969 -1.95068 2.21432 0
M  V30 6348 H 607.05 -0.215088 2.54894 0
M  V30 6349 H 606.694 -0.699605 5.03059 0
M  V30 6350 H 606.624 -2.44192 4.66559 0
M  V30 6351 H 609.115 -1.38479 3.51613 0
M  V30 6352 H 609.428 -2.2408 7.396 0
M  V30 6353 H 607.773 -2.02187 6.6494 0
M  V30 6354 H 610.964 -1.63665 4.38556 0
M  V30 6355 H 611.137 -2.02722 6.15474 0
M  V30 6356 N 604.543 -1.41418 -0.695603 0
M  V30 6357 C 605.82 -1.31264 -1.45014 0
M  V30 6358 C 606.2 0.0597994 -2.11015 0
M  V30 6359 O 605.548 1.07403 -2.01685 0
M  V30 6360 C 605.758 -2.466 -2.4696 0
M  V30 6361 C 607.106 -2.87763 -3.12214 0
M  V30 6362 O 608.13 -2.46339 -2.57285 0
M  V30 6363 O 606.989 -3.59395 -4.11701 0
M  V30 6364 H 604.083 -0.516576 -0.645816 0
M  V30 6365 H 606.629 -1.53382 -0.726084 0
M  V30 6366 H 605.401 -3.38183 -1.96845 0
M  V30 6367 H 605.024 -2.26358 -3.26876 0
M  V30 6368 N 606.021 0.929856 -1.27246 0
M  V30 6369 C 607.27 1.67182 -1.12842 0
M  V30 6370 C 607.583 1.9287 0.325666 0
M  V30 6371 O 608.789 2.64999 0.590572 0
M  V30 6372 C 607.245 3.01097 -1.97151 0
M  V30 6373 C 606.853 2.83115 -3.47203 0
M  V30 6374 C 608.597 3.78907 -1.91389 0
M  V30 6375 C 606.504 4.12573 -4.23719 0
M  V30 6376 H 605.434 0.627064 -0.418697 0
M  V30 6377 H 608.085 1.0332 -1.51649 0
M  V30 6378 H 606.467 3.66004 -1.51186 0
M  V30 6379 H 607.641 2.26989 -4.01015 0
M  V30 6380 H 605.956 2.18736 -3.54321 0
M  V30 6381 H 608.553 4.74837 -2.45834 0
M  V30 6382 H 608.896 4.0674 -0.887047 0
M  V30 6383 H 609.429 3.20794 -2.35237 0
M  V30 6384 H 606.168 3.8992 -5.26918 0
M  V30 6385 H 605.688 4.68371 -3.74685 0
M  V30 6386 H 607.367 4.8095 -4.32777 0
M  V30 6387 N 607.499 1.09233 1.13605 0
M  V30 6388 C 608.409 0.741939 2.22559 0
M  V30 6389 C 609.425 -0.255236 1.72118 0
M  V30 6390 O 610.601 -0.0970747 2.01166 0
M  V30 6391 C 607.666 0.165595 3.46304 0
M  V30 6392 C 606.727 1.21846 4.11645 0
M  V30 6393 C 605.96 0.669526 5.29484 0
M  V30 6394 O 606.183 -0.508228 5.68131 0
M  V30 6395 O 605.117 1.42361 5.84822 0
M  V30 6396 H 608.943 1.65107 2.54899 0
M  V30 6397 H 606.528 0.866584 1.21699 0
M  V30 6398 H 608.41 -0.152592 4.21124 0
M  V30 6399 H 607.085 -0.716573 3.15669 0
M  V30 6400 H 605.992 1.58931 3.38662 0
M  V30 6401 H 607.325 2.07321 4.46407 0
M  V30 6402 N 608.977 -1.30795 0.87923 0
M  V30 6403 C 609.909 -2.27241 0.299025 0
M  V30 6404 C 610.922 -1.53472 -0.543166 0
M  V30 6405 O 612.111 -1.74756 -0.363651 0
M  V30 6406 C 609.211 -3.33655 -0.593931 0
M  V30 6407 C 608.384 -4.36857 0.2179 0
M  V30 6408 C 607.443 -5.22715 -0.604646 0
M  V30 6409 O 606.469 -5.69192 -0.0293838 0
M  V30 6410 N 607.671 -5.48008 -1.91488 0
M  V30 6411 H 610.436 -2.77667 1.12788 0
M  V30 6412 H 607.997 -1.43914 0.741637 0
M  V30 6413 H 609.989 -3.88013 -1.15012 0
M  V30 6414 H 608.559 -2.83202 -1.32346 0
M  V30 6415 H 607.779 -3.82444 0.955536 0
M  V30 6416 H 609.067 -5.02869 0.774614 0
M  V30 6417 H 608.465 -5.1202 -2.40525 0
M  V30 6418 H 607.022 -6.05264 -2.41864 0
M  V30 6419 N 610.455 -0.639598 -1.44038 0
M  V30 6420 C 611.701 -0.147698 -2.02261 0
M  V30 6421 C 612.034 1.23031 -1.50256 0
M  V30 6422 O 611.309 1.81847 -0.690068 0
M  V30 6423 C 611.592 -0.14362 -3.59813 0
M  V30 6424 C 611.445 -1.55458 -4.22082 0
M  V30 6425 C 612.764 0.527317 -4.36929 0
M  V30 6426 H 609.883 -0.0551453 -0.734934 0
M  V30 6427 H 612.525 -0.817688 -1.71505 0
M  V30 6428 H 610.675 0.426898 -3.86147 0
M  V30 6429 H 612.347 -2.17464 -4.06826 0
M  V30 6430 H 610.59 -2.10594 -3.79253 0
M  V30 6431 H 611.261 -1.50369 -5.31124 0
M  V30 6432 H 613.737 0.0420504 -4.16079 0
M  V30 6433 H 612.613 0.499389 -5.46624 0
M  V30 6434 H 612.874 1.59914 -4.12165 0
M  V30 6435 N 611.933 1.52934 -0.380664 0
M  V30 6436 C 613.163 2.05587 0.204302 0
M  V30 6437 C 613.571 1.25288 1.41773 0
M  V30 6438 O 612.914 0.290394 1.8139 0
M  V30 6439 C 612.976 3.53624 0.647324 0
M  V30 6440 C 612.64 4.54765 -0.451465 0
M  V30 6441 C 613.637 5.03226 -1.30614 0
M  V30 6442 C 611.322 4.98508 -0.616025 0
M  V30 6443 C 613.316 5.94046 -2.31058 0
M  V30 6444 C 611.003 5.89131 -1.62381 0
M  V30 6445 C 612.001 6.36792 -2.46952 0
M  V30 6446 O 611.689 7.25626 -3.46009 0
M  V30 6447 H 611.421 0.675013 0.0365198 0
M  V30 6448 H 613.975 1.98125 -0.541827 0
M  V30 6449 H 612.205 3.58676 1.44529 0
M  V30 6450 H 613.894 3.89061 1.15698 0
M  V30 6451 H 614.66 4.70167 -1.19027 0
M  V30 6452 H 610.539 4.60989 0.0324987 0
M  V30 6453 H 614.083 6.3117 -2.97104 0
M  V30 6454 H 609.98 6.21603 -1.7401 0
M  V30 6455 H 610.748 7.43664 -3.41916 0
M  V30 6456 N 613.412 0.11024 1.57214 0
M  V30 6457 C 614.344 -0.873497 2.11902 0
M  V30 6458 C 615.357 -1.23588 1.05971 0
M  V30 6459 O 616.546 -1.18636 1.33371 0
M  V30 6460 C 613.646 -2.17805 2.59643 0
M  V30 6461 C 612.819 -1.98869 3.89576 0
M  V30 6462 C 611.878 -3.12974 4.23006 0
M  V30 6463 O 610.904 -2.86272 4.91973 0
M  V30 6464 N 612.106 -4.39167 3.79622 0
M  V30 6465 H 614.871 -0.406317 2.96933 0
M  V30 6466 H 612.432 -0.074437 1.61729 0
M  V30 6467 H 614.424 -2.93117 2.79042 0
M  V30 6468 H 612.994 -2.55899 1.7954 0
M  V30 6469 H 612.214 -1.078 3.79174 0
M  V30 6470 H 613.502 -1.83512 4.74553 0
M  V30 6471 H 612.9 -4.63739 3.2398 0
M  V30 6472 H 611.457 -5.11379 4.04147 0
M  V30 6473 N 614.89 -1.56749 -0.16351 0
M  V30 6474 C 616.306 -1.51043 -0.515567 0
M  V30 6475 C 616.506 -0.815855 -1.84245 0
M  V30 6476 O 615.562 -0.379477 -2.49632 0
M  V30 6477 C 616.875 -2.95791 -0.541114 0
M  V30 6478 C 618.423 -3.0664 -0.627776 0
M  V30 6479 C 618.898 -4.52861 -0.684141 0
M  V30 6480 N 620.389 -4.5714 -0.746818 0
M  V30 6481 C 621.124 -5.67634 -0.811137 0
M  V30 6482 N 620.62 -6.8774 -0.835811 0
M  V30 6483 N 622.413 -5.55624 -0.850756 0
M  V30 6484 H 614.564 -2.00307 0.70645 0
M  V30 6485 H 616.827 -0.912876 0.255659 0
M  V30 6486 H 616.533 -3.49797 0.365329 0
M  V30 6487 H 616.407 -3.50858 -1.38487 0
M  V30 6488 H 618.794 -2.52663 -1.52464 0
M  V30 6489 H 618.875 -2.54645 0.242805 0
M  V30 6490 H 618.519 -5.07472 0.2085 0
M  V30 6491 H 618.449 -5.02621 -1.57098 0
M  V30 6492 H 620.94 -3.70669 -0.735717 0
M  V30 6493 H 621.253 -7.67701 -0.886279 0
M  V30 6494 H 619.598 -6.90334 -0.803958 0
M  V30 6495 H 622.789 -4.60709 -0.828535 0
M  V30 6496 H 622.962 -6.41756 -0.897418 0
M  V30 6497 N 616.368 0.432326 -1.51554 0
M  V30 6498 C 617.779 1.01202 -1.56892 0
M  V30 6499 C 618.13 1.92175 -0.395394 0
M  V30 6500 O 617.255 2.10844 0.487198 0
M  V30 6501 C 617.85 1.84217 -2.8434 0
M  V30 6502 C 616.409 2.37228 -2.92233 0
M  V30 6503 C 615.556 1.16576 -2.51606 0
M  V30 6504 H 618.507 0.213407 -1.57259 0
M  V30 6505 H 618.528 2.69721 -2.68385 0
M  V30 6506 H 618.04 1.17979 -3.69733 0
M  V30 6507 H 616.141 3.06905 -2.11282 0
M  V30 6508 H 616.254 2.69682 -3.95991 0
M  V30 6509 H 614.618 1.51263 -2.04919 0
M  V30 6510 H 615.401 0.519404 -3.39348 0
M  V30 6511 N 617.846 1.41785 0.688094 0
M  V30 6512 C 619.074 1.44915 1.47673 0
M  V30 6513 C 619.489 0.0565786 1.88715 0
M  V30 6514 O 618.846 -0.92579 1.57275 0
M  V30 6515 C 618.897 2.36452 2.73446 0
M  V30 6516 O 618.618 3.7029 2.34131 0
M  V30 6517 C 620.119 2.48463 3.67125 0
M  V30 6518 H 617.339 0.493324 0.454832 0
M  V30 6519 H 619.883 1.86153 0.846594 0
M  V30 6520 H 618.038 1.98502 3.3268 0
M  V30 6521 H 618.452 4.19183 3.15255 0
M  V30 6522 H 619.926 3.16662 4.52138 0
M  V30 6523 H 620.403 1.51826 4.12123 0
M  V30 6524 H 621.009 2.8708 3.13792 0
M  V30 6525 N 619.324 -0.923095 1.27737 0
M  V30 6526 C 620.254 -2.04124 1.13383 0
M  V30 6527 C 621.235 -1.70066 0.0340658 0
M  V30 6528 O 622.42 -1.93068 0.209383 0
M  V30 6529 C 619.55 -3.3831 0.785097 0
M  V30 6530 C 618.504 -3.86496 1.8386 0
M  V30 6531 C 617.83 -5.1754 1.34373 0
M  V30 6532 C 619.13 -4.09381 3.24353 0
M  V30 6533 H 620.824 -2.1639 2.06919 0
M  V30 6534 H 618.37 -1.03976 0.996243 0
M  V30 6535 H 620.323 -4.16016 0.671485 0
M  V30 6536 H 619.047 -3.2607 -0.185969 0
M  V30 6537 H 617.706 -3.10987 1.9412 0
M  V30 6538 H 617.354 -5.01696 0.361989 0
M  V30 6539 H 617.054 -5.50751 2.04811 0
M  V30 6540 H 618.578 -5.97811 1.24315 0
M  V30 6541 H 619.992 -4.77641 3.17067 0
M  V30 6542 H 618.389 -4.53906 3.92542 0
M  V30 6543 H 619.459 -3.14515 3.69064 0
M  V30 6544 N 620.802 -1.09834 -1.13024 0
M  V30 6545 C 622.051 -0.831806 -1.83749 0
M  V30 6546 C 622.364 0.644763 -1.84668 0
M  V30 6547 O 623.57 1.02697 -2.51327 0
M  V30 6548 C 622.026 -1.43817 -3.29916 0
M  V30 6549 C 621.634 -2.94759 -3.37374 0
M  V30 6550 C 623.378 -1.25077 -4.05655 0
M  V30 6551 C 621.285 -3.48461 -4.77838 0
M  V30 6552 H 620.215 -0.30751 -0.688443 0
M  V30 6553 H 622.866 -1.32156 -1.27307 0
M  V30 6554 H 621.248 -0.876106 -3.86187 0
M  V30 6555 H 622.422 -3.57228 -2.91076 0
M  V30 6556 H 620.737 -3.12581 -2.75103 0
M  V30 6557 H 623.334 -1.62649 -5.09362 0
M  V30 6558 H 623.677 -0.191782 -4.15858 0
M  V30 6559 H 624.21 -1.78057 -3.55725 0
M  V30 6560 H 620.949 -4.53998 -4.72828 0
M  V30 6561 H 620.469 -2.90757 -5.24615 0
M  V30 6562 H 622.148 -3.45914 -5.46766 0
M  V30 6563 N 622.28 1.30327 -0.886154 0
M  V30 6564 C 623.526 1.96388 -0.505941 0
M  V30 6565 C 623.859 1.69784 0.942712 0
M  V30 6566 O 623.134 1.00322 1.6663 0
M  V30 6567 C 623.417 3.51488 -0.782826 0
M  V30 6568 C 623.27 3.87603 -2.28219 0
M  V30 6569 C 624.589 4.39331 -0.260128 0
M  V30 6570 H 621.708 0.713327 -0.185292 0
M  V30 6571 H 624.35 1.54178 -1.11036 0
M  V30 6572 H 622.5 3.87572 -0.268399 0
M  V30 6573 H 624.172 3.61537 -2.86512 0
M  V30 6574 H 622.415 3.3563 -2.74837 0
M  V30 6575 H 623.086 4.95806 -2.42653 0
M  V30 6576 H 625.562 4.10162 -0.700444 0
M  V30 6577 H 624.438 5.46769 -0.483179 0
M  V30 6578 H 624.699 4.34072 0.838674 0
M  V30 6579 N 623.758 0.647228 1.43697 0
M  V30 6580 C 624.705 -0.0480092 2.3075 0
M  V30 6581 C 625.675 -0.820705 1.44408 0
M  V30 6582 O 626.86 -0.798515 1.73287 0
M  V30 6583 C 624 -1.01259 3.2991 0
M  V30 6584 C 623.113 -0.236629 4.31351 0
M  V30 6585 C 622.248 -1.19447 5.17596 0
M  V30 6586 C 621.287 -0.408595 6.10735 0
M  V30 6587 N 620.424 -1.31772 6.89623 0
M  V30 6588 H 625.264 0.700238 2.89656 0
M  V30 6589 H 622.801 0.357082 1.427 0
M  V30 6590 H 624.759 -1.58538 3.85903 0
M  V30 6591 H 623.389 -1.72778 2.72667 0
M  V30 6592 H 622.441 0.452353 3.77701 0
M  V30 6593 H 623.753 0.374731 4.9739 0
M  V30 6594 H 622.907 -1.83809 5.78186 0
M  V30 6595 H 621.646 -1.83975 4.51669 0
M  V30 6596 H 620.651 0.24841 5.49239 0
M  V30 6597 H 621.876 0.232188 6.78703 0
M  V30 6598 H 619.822 -1.94991 6.2635 0
M  V30 6599 H 619.739 -0.760779 7.52162 0
M  V30 6600 H 621.007 -1.94967 7.54724 0
M  V30 6601 O 625.275 -1.52523 0.530952 0
M  V30 6602 H 625.966 -1.93688 0.0212942 0
M  V30 END ATOM
M  V30 BEGIN BOND
M  V30 END BOND
M  V30 END CTAB
M  END
$$$$
