drugbank_target|Q9X0N8 6-phosphogluconolactonase (DB01942; DB04272)
 OpenBabel12092120023D

  0  0  0     0  0            999 V3000
M  V30 BEGIN CTAB
M  V30 COUNTS 3605 3645 0 0 0
M  V30 BEGIN ATOM
M  V30 1 H -0.908 1.98254 -0.117106 0
M  V30 2 N 0 1.576 0 0
M  V30 3 C 0.933 2.03868 1.02534 0
M  V30 4 C 1.911 0.928543 1.3348 0
M  V30 5 O 3.095 1.19667 1.45644 0
M  V30 6 C 0.222 2.43627 2.35294 0
M  V30 7 C -0.732 3.65373 2.2001 0
M  V30 8 S 0.101 5.13292 1.52614 0
M  V30 9 C 1.257 5.56322 2.86805 0
M  V30 10 H 1.49 2.90518 0.631377 0
M  V30 11 H -0.977 1.52953 0.210867 0
M  V30 12 H 0.981 2.67203 3.11629 0
M  V30 13 H -0.358 1.57376 2.7183 0
M  V30 14 H -1.165 3.90944 3.18086 0
M  V30 15 H -1.563 3.418 1.51819 0
M  V30 16 H 0.729 5.58782 3.83104 0
M  V30 17 H 1.672 6.56266 2.65933 0
M  V30 18 H 2.08 4.83886 2.90714 0
M  V30 19 N 1.4781 -0.272755 1.55222 0
M  V30 20 C 2.3881 -1.35918 1.91216 0
M  V30 21 C 3.4041 -1.54026 0.809436 0
M  V30 22 O 4.5801 -1.68148 1.10852 0
M  V30 23 C 1.6451 -2.69834 2.17693 0
M  V30 24 C 0.7061 -2.6047 3.41253 0
M  V30 25 C -0.0609 -3.88 3.66458 0
M  V30 26 O 0.1621 -4.88693 2.94169 0
M  V30 27 O -0.9039 -3.88189 4.59992 0
M  V30 28 H 2.9221 -1.0839 2.83699 0
M  V30 29 H 0.5071 -0.471301 1.41771 0
M  V30 30 H 2.3891 -3.49017 2.36147 0
M  V30 31 H 1.0641 -2.97148 1.28392 0
M  V30 32 H -0.0289 -1.79663 3.28134 0
M  V30 33 H 1.3041 -2.38106 4.30774 0
M  V30 34 N 2.9562 -1.48159 -0.537278 0
M  V30 35 C 3.9032 -1.62138 -1.64256 0
M  V30 36 C 4.8732 -0.463668 -1.59497 0
M  V30 37 O 6.0582 -0.686241 -1.78032 0
M  V30 38 C 3.1982 -1.66028 -3.02537 0
M  V30 39 C 2.3112 -2.92855 -3.17585 0
M  V30 40 C 1.4462 -2.87952 -4.46382 0
M  V30 41 C 0.4852 -4.09516 -4.54932 0
M  V30 42 N -0.3778 -4.02733 -5.75109 0
M  V30 43 H 4.4622 -2.56529 -1.51647 0
M  V30 44 H 1.9992 -1.27224 -0.738414 0
M  V30 45 H 3.9572 -1.66265 -3.82638 0
M  V30 46 H 2.5872 -0.751331 -3.13934 0
M  V30 47 H 1.6392 -3.02395 -2.30784 0
M  V30 48 H 2.9512 -3.82822 -3.19764 0
M  V30 49 H 2.1052 -2.8655 -5.34765 0
M  V30 50 H 0.8442 -1.95702 -4.46712 0
M  V30 51 H -0.1508 -4.11201 -3.64957 0
M  V30 52 H 1.0742 -5.02917 -4.56346 0
M  V30 53 H -0.9798 -3.13299 -5.76351 0
M  V30 54 H -1.0628 -4.86397 -5.78752 0
M  V30 55 H 0.2052 -4.05379 -6.65799 0
M  V30 56 N 4.4343 0.785586 -1.36625 0
M  V30 57 C 5.6623 1.57448 -1.3423 0
M  V30 58 C 6.0773 1.88649 0.0755653 0
M  V30 59 O 5.4343 1.50414 1.03354 0
M  V30 60 C 5.4853 2.89316 -2.16745 0
M  V30 61 O 5.2063 2.59459 -3.53005 0
M  V30 62 C 6.7073 3.83606 -2.22174 0
M  V30 63 H 3.9273 0.488226 -0.4603 0
M  V30 64 H 6.4713 0.974733 -1.79775 0
M  V30 65 H 4.6263 3.4575 -1.74745 0
M  V30 66 H 5.0403 3.43804 -3.96105 0
M  V30 67 H 6.5143 4.73181 -2.8426 0
M  V30 68 H 6.9913 4.21734 -1.22627 0
M  V30 69 H 7.5973 3.33104 -2.64427 0
M  V30 70 N 5.9124 1.20967 1.01018 0
M  V30 71 C 7.1584 1.02526 1.74975 0
M  V30 72 C 7.4914 -0.4408 1.89131 0
M  V30 73 O 6.7664 -1.32718 1.42184 0
M  V30 74 C 7.0494 1.71699 3.1653 0
M  V30 75 C 6.9024 3.25791 3.10129 0
M  V30 76 C 8.2214 1.45531 4.15342 0
M  V30 77 H 5.3404 0.373863 0.635134 0
M  V30 78 H 7.9824 1.49071 1.17805 0
M  V30 79 H 6.1324 1.32128 3.65341 0
M  V30 80 H 7.8044 3.74697 2.69072 0
M  V30 81 H 6.0474 3.56363 2.47362 0
M  V30 82 H 6.7184 3.69353 4.10222 0
M  V30 83 H 9.1944 1.79872 3.75213 0
M  V30 84 H 8.0704 1.96453 5.1254 0
M  V30 85 H 8.3314 0.384237 4.40427 0
M  V30 86 N 7.3905 -1.2043 1.01659 0
M  V30 87 C 8.6395 -1.89118 0.701237 0
M  V30 88 C 8.9525 -1.79705 -0.772358 0
M  V30 89 O 10.1585 -2.43528 -1.20026 0
M  V30 90 C 8.6145 -3.39168 1.20388 0
M  V30 91 C 8.2225 -3.57166 2.70438 0
M  V30 92 C 9.9665 -4.1341 0.963953 0
M  V30 93 C 7.8735 -5.01042 3.14183 0
M  V30 94 H 6.8035 -0.708267 0.2586 0
M  V30 95 H 9.4545 -1.36239 1.22927 0
M  V30 96 H 7.8365 -3.91369 0.603824 0
M  V30 97 H 9.0105 -3.15351 3.35992 0
M  V30 98 H 7.3255 -2.96294 2.92572 0
M  V30 99 H 9.9225 -5.19491 1.26621 0
M  V30 100 H 10.2655 -4.16181 -0.099578 0
M  V30 101 H 10.7985 -3.67309 1.52738 0
M  V30 102 H 7.5375 -5.03426 4.19812 0
M  V30 103 H 7.0575 -5.43668 2.53348 0
M  V30 104 H 8.7365 -5.69623 3.0682 0
M  V30 105 N 8.8686 -0.792821 -1.36206 0
M  V30 106 C 10.0986 -0.378275 -2.03107 0
M  V30 107 C 10.5066 1.01119 -1.59911 0
M  V30 108 O 9.8496 1.66052 -0.785658 0
M  V30 109 C 9.9116 -0.366535 -3.57627 0
M  V30 110 C 9.5756 -1.70416 -4.24037 0
M  V30 111 C 10.5726 -2.6602 -4.46687 0
M  V30 112 C 8.2576 -1.98439 -4.6144 0
M  V30 113 C 10.2516 -3.8784 -5.05825 0
M  V30 114 C 7.9386 -3.20525 -5.20295 0
M  V30 115 C 8.9366 -4.15044 -5.42427 0
M  V30 116 O 8.6246 -5.34978 -6.00045 0
M  V30 117 H 8.3566 -0.153543 -0.658332 0
M  V30 118 H 10.9106 -1.07383 -1.75094 0
M  V30 119 H 9.1406 0.385539 -3.84773 0
M  V30 120 H 10.8296 0.0238088 -4.05893 0
M  V30 121 H 11.5956 -2.45658 -4.18183 0
M  V30 122 H 7.4746 -1.25686 -4.43536 0
M  V30 123 H 11.0186 -4.61628 -5.23015 0
M  V30 124 H 6.9156 -3.40764 -5.48225 0
M  V30 125 H 7.6836 -5.36088 -6.18508 0
M  V30 126 N 10.3467 1.47872 -0.545128 0
M  V30 127 C 11.2767 2.32661 0.197793 0
M  V30 128 C 12.2577 1.43041 0.920504 0
M  V30 129 O 13.4427 1.71912 0.90333 0
M  V30 130 C 10.5727 3.24569 1.23582 0
M  V30 131 C 9.5267 4.23333 0.630323 0
M  V30 132 C 8.8527 5.0448 1.77211 0
M  V30 133 C 10.1527 5.20704 -0.407974 0
M  V30 134 H 11.8467 2.95024 -0.510045 0
M  V30 135 H 9.3927 1.4187 -0.246731 0
M  V30 136 H 11.3457 3.8272 1.76362 0
M  V30 137 H 10.0697 2.60236 1.97344 0
M  V30 138 H 8.7287 3.6639 0.123922 0
M  V30 139 H 8.3767 4.36561 2.49847 0
M  V30 140 H 8.0767 5.71339 1.37281 0
M  V30 141 H 9.6007 5.65487 2.3034 0
M  V30 142 H 11.0147 5.7329 0.033305 0
M  V30 143 H 9.4117 5.95699 -0.725486 0
M  V30 144 H 10.4817 4.66917 -1.30828 0
M  V30 145 N 11.8248 0.280983 1.55075 0
M  V30 146 C 12.7548 -0.597469 2.25727 0
M  V30 147 C 13.7358 -1.15417 1.24952 0
M  V30 148 O 14.9208 -1.18722 1.53684 0
M  V30 149 C 12.0508 -1.7789 2.98283 0
M  V30 150 C 11.0048 -1.35347 4.06036 0
M  V30 151 C 10.3308 -2.61846 4.66198 0
M  V30 152 C 11.6308 -0.499354 5.19907 0
M  V30 153 H 13.3248 -0.00824265 2.99399 0
M  V30 154 H 10.8708 -0.0025244 1.44 0
M  V30 155 H 12.8238 -2.39937 3.46422 0
M  V30 156 H 11.5478 -2.39405 2.22155 0
M  V30 157 H 10.2068 -0.756156 3.58717 0
M  V30 158 H 9.8548 -3.21632 3.86732 0
M  V30 159 H 9.5548 -2.3409 5.38958 0
M  V30 160 H 11.0788 -3.24732 5.1709 0
M  V30 161 H 12.4928 -1.02498 5.64063 0
M  V30 162 H 10.8898 -0.316424 5.99265 0
M  V30 163 H 11.9598 0.480459 4.82514 0
M  V30 164 N 13.3029 -1.57598 0.00835791 0
M  V30 165 C 14.2129 -2.12385 -0.996487 0
M  V30 166 C 15.2289 -1.07108 -1.37127 0
M  V30 167 O 16.4049 -1.39055 -1.4569 0
M  V30 168 C 13.4699 -2.62314 -2.26699 0
M  V30 169 C 12.5309 -3.82225 -1.95456 0
M  V30 170 C 11.7639 -4.29763 -3.16449 0
M  V30 171 O 11.9869 -3.76584 -4.28416 0
M  V30 172 O 10.9209 -5.21832 -2.99958 0
M  V30 173 H 14.7469 -2.98479 -0.560725 0
M  V30 174 H 12.3319 -1.47903 -0.210987 0
M  V30 175 H 14.2139 -2.94589 -3.01322 0
M  V30 176 H 12.8889 -1.79313 -2.69497 0
M  V30 177 H 11.7959 -3.54909 -1.18282 0
M  V30 178 H 13.1289 -4.66324 -1.57489 0
M  V30 179 N 14.781 0.264519 -1.55364 0
M  V30 180 C 16.058 1.01677 -1.67096 0
M  V30 181 C 16.438 2.03996 -0.543015 0
M  V30 182 O 15.786 2.23907 0.45585 0
M  V30 183 C 15.996 1.66596 -3.0667 0
M  V30 184 C 17.344 2.17442 -3.64697 0
M  V30 185 O 18.368 1.76568 -3.09358 0
M  V30 186 O 17.227 2.92439 -4.61673 0
M  V30 187 H 14.321 0.472161 -0.678965 0
M  V30 188 H 16.867 0.259703 -1.67701 0
M  V30 189 H 15.639 0.924962 -3.80211 0
M  V30 190 H 15.262 2.48968 -3.10001 0
M  V30 191 N 16.2591 1.48442 0.529413 0
M  V30 192 C 17.5071 1.56179 1.28267 0
M  V30 193 C 17.8281 0.237721 1.93546 0
M  V30 194 O 17.0981 -0.740779 1.81354 0
M  V30 195 H 15.6781 0.575367 0.476405 0
M  V30 196 H 18.3401 1.84909 0.61602 0
M  V30 197 H 17.4361 2.34312 2.06165 0
M  V30 198 N 17.7372 -0.778329 1.37039 0
M  V30 199 C 18.9672 -1.56507 1.34868 0
M  V30 200 C 19.3752 -1.89072 -0.0694802 0
M  V30 201 O 18.7182 -1.51434 -1.03987 0
M  V30 202 C 18.7802 -2.90641 2.11585 0
M  V30 203 C 18.4442 -2.80746 3.60598 0
M  V30 204 C 19.4412 -2.52226 4.54618 0
M  V30 205 C 17.1262 -2.98974 4.03633 0
M  V30 206 C 19.1202 -2.42054 5.89651 0
M  V30 207 C 16.8072 -2.88423 5.38754 0
M  V30 208 C 17.8052 -2.60002 6.31576 0
M  V30 209 O 17.4932 -2.49465 7.64214 0
M  V30 210 H 17.2252 -0.491723 0.463879 0
M  V30 211 H 19.7792 -0.973053 1.80889 0
M  V30 212 H 18.0092 -3.51936 1.60243 0
M  V30 213 H 19.6982 -3.51992 2.0213 0
M  V30 214 H 20.4642 -2.37835 4.22681 0
M  V30 215 H 16.3432 -3.20099 3.31749 0
M  V30 216 H 19.8872 -2.19791 6.62071 0
M  V30 217 H 15.7842 -3.0238 5.70295 0
M  V30 218 H 16.5522 -2.64864 7.74461 0
M  V30 219 N 19.2153 -1.21501 -1.00376 0
M  V30 220 C 20.4613 -1.03452 -1.74429 0
M  V30 221 C 20.7943 0.430764 -1.89362 0
M  V30 222 O 20.0693 1.31962 -1.42886 0
M  V30 223 C 20.3523 -1.73375 -3.15615 0
M  V30 224 C 20.2053 -3.27431 -3.08397 0
M  V30 225 C 21.5243 -1.47732 -4.14564 0
M  V30 226 H 18.6433 -0.377226 -0.633143 0
M  V30 227 H 21.2853 -1.49693 -1.17013 0
M  V30 228 H 19.4353 -1.34064 -3.64636 0
M  V30 229 H 21.1073 -3.76119 -2.67081 0
M  V30 230 H 19.3503 -3.5767 -2.45468 0
M  V30 231 H 20.0213 -3.71524 -4.08258 0
M  V30 232 H 22.4973 -1.8186 -3.74254 0
M  V30 233 H 21.3733 -1.99169 -5.11491 0
M  V30 234 H 21.6343 -0.407589 -4.40217 0
M  V30 235 N 20.6934 1.19889 -1.02296 0
M  V30 236 C 21.9704 1.85148 -0.630832 0
M  V30 237 C 22.3504 1.91385 0.890782 0
M  V30 238 O 21.6984 1.42642 1.78509 0
M  V30 239 C 21.9084 3.24442 -1.28602 0
M  V30 240 C 23.2564 4.00663 -1.4055 0
M  V30 241 O 24.2804 3.33818 -1.24273 0
M  V30 242 O 23.1394 5.20387 -1.66913 0
M  V30 243 H 20.2334 0.797613 -0.218499 0
M  V30 244 H 22.7794 1.27427 -1.12074 0
M  V30 245 H 21.5514 3.14704 -2.32545 0
M  V30 246 H 21.1744 3.89802 -0.7836 0
M  V30 247 N 22.1715 0.800033 1.35784 0
M  V30 248 C 23.4185 0.377342 1.98953 0
M  V30 249 C 23.7465 -1.05378 1.6348 0
M  V30 250 O 23.0015 -1.74459 0.886707 0
M  V30 251 C 23.3005 0.500276 3.53881 0
M  V30 252 C 22.9665 1.89375 4.09204 0
M  V30 253 C 21.6285 2.27499 4.24025 0
M  V30 254 C 23.9805 2.8057 4.39238 0
M  V30 255 C 21.3085 3.562 4.66195 0
M  V30 256 C 23.6605 4.0871 4.82844 0
M  V30 257 C 22.3245 4.46843 4.95871 0
M  V30 258 H 21.5945 0.138079 0.728021 0
M  V30 259 H 24.2415 1.01955 1.62103 0
M  V30 260 H 22.5465 -0.225405 3.91151 0
M  V30 261 H 24.2435 0.154097 4.00704 0
M  V30 262 H 20.8335 1.58753 3.98115 0
M  V30 263 H 25.0175 2.52367 4.27346 0
M  V30 264 H 20.2735 3.85602 4.74469 0
M  V30 265 H 24.4475 4.79481 5.05046 0
M  V30 266 H 22.0745 5.46623 5.28306 0
M  V30 267 N 23.6496 -1.47581 0.552962 0
M  V30 268 C 24.8956 -2.02782 0.0273648 0
M  V30 269 C 25.2286 -1.42687 -1.31734 0
M  V30 270 O 24.5036 -0.580897 -1.85623 0
M  V30 271 C 24.7866 -3.60031 -0.0702371 0
M  V30 272 C 24.6396 -4.30566 1.30126 0
M  V30 273 C 25.9586 -4.33028 -0.785771 0
M  V30 274 H 23.0776 -0.736912 0.0114185 0
M  V30 275 H 25.7196 -1.76056 0.714432 0
M  V30 276 H 23.8696 -3.82932 -0.655382 0
M  V30 277 H 25.5416 -4.19018 1.92929 0
M  V30 278 H 23.7846 -3.91086 1.87709 0
M  V30 279 H 24.4556 -5.39114 1.18573 0
M  V30 280 H 26.9316 -4.15095 -0.288982 0
M  V30 281 H 25.8076 -5.42695 -0.823013 0
M  V30 282 H 26.0686 -4.01945 -1.841 0
M  V30 283 N 25.1277 -0.289203 -1.54924 0
M  V30 284 C 26.3737 0.323998 -2.00195 0
M  V30 285 C 26.7067 1.54441 -1.17735 0
M  V30 286 O 25.9817 1.92875 -0.250878 0
M  V30 287 C 26.2647 0.692276 -3.53383 0
M  V30 288 C 26.1177 -0.536457 -4.46589 0
M  V30 289 C 27.4367 1.52335 -4.12895 0
M  V30 290 H 24.5557 0.116289 -0.727768 0
M  V30 291 H 27.1977 -0.398954 -1.85764 0
M  V30 292 H 25.3477 1.30822 -3.65811 0
M  V30 293 H 27.0197 -1.17499 -4.46085 0
M  V30 294 H 25.2627 -1.17192 -4.1767 0
M  V30 295 H 25.9337 -0.234806 -5.515 0
M  V30 296 H 28.4097 1.00302 -4.0383 0
M  V30 297 H 27.2857 1.74982 -5.20262 0
M  V30 298 H 27.5467 2.50886 -3.64018 0
M  V30 299 N 26.6058 1.57591 -0.0167156 0
M  V30 300 C 27.5158 2.1291 0.98521 0
M  V30 301 C 28.5318 1.07834 1.36557 0
M  V30 302 O 29.7078 1.39826 1.44951 0
M  V30 303 C 26.7728 2.63512 2.25305 0
M  V30 304 C 25.8338 3.83256 1.93426 0
M  V30 305 C 25.0668 4.31435 3.14165 0
M  V30 306 O 25.2898 3.78851 4.26413 0
M  V30 307 O 24.2238 5.23416 2.97186 0
M  V30 308 H 28.0498 2.98772 0.544888 0
M  V30 309 H 25.6348 1.48012 0.203141 0
M  V30 310 H 27.5168 2.96183 2.99756 0
M  V30 311 H 26.1918 1.8074 2.68542 0
M  V30 312 H 25.0988 3.55531 1.16398 0
M  V30 313 H 26.4318 4.67153 1.55013 0
M  V30 314 N 28.0839 -0.256276 1.55502 0
M  V30 315 C 29.0309 -1.31714 1.89526 0
M  V30 316 C 30.0009 -1.4828 0.748479 0
M  V30 317 O 31.1859 -1.62416 1.00128 0
M  V30 318 C 28.3259 -2.66933 2.18725 0
M  V30 319 C 27.4389 -2.58452 3.4616 0
M  V30 320 C 26.5739 -3.85961 3.64976 0
M  V30 321 C 25.6129 -3.72059 4.86044 0
M  V30 322 N 24.7499 -4.9144 5.01429 0
M  V30 323 H 29.5899 -1.01998 2.80001 0
M  V30 324 H 27.1269 -0.492413 1.38613 0
M  V30 325 H 29.0849 -3.4563 2.33657 0
M  V30 326 H 27.7149 -2.94816 1.31466 0
M  V30 327 H 26.7669 -1.71374 3.3961 0
M  V30 328 H 28.0789 -2.44085 4.34999 0
M  V30 329 H 27.2329 -4.73101 3.79816 0
M  V30 330 H 25.9719 -4.03215 2.74353 0
M  V30 331 H 24.9769 -2.83302 4.7119 0
M  V30 332 H 26.2019 -3.56309 5.78118 0
M  V30 333 H 24.1479 -5.09072 4.13741 0
M  V30 334 H 24.0649 -4.79668 5.84341 0
M  V30 335 H 25.3329 -5.80104 5.20672 0
M  V30 336 N 29.562 -1.4872 -0.521534 0
M  V30 337 C 30.811 -1.56419 -1.27341 0
M  V30 338 C 31.124 -0.246805 -1.94037 0
M  V30 339 O 32.33 -0.202122 -2.70747 0
M  V30 340 C 30.786 -2.75896 -2.31105 0
M  V30 341 C 30.394 -4.14311 -1.70441 0
M  V30 342 C 32.138 -2.92913 -3.07249 0
M  V30 343 C 30.045 -5.25038 -2.72194 0
M  V30 344 H 28.975 -0.582344 -0.478949 0
M  V30 345 H 31.626 -1.75071 -0.549779 0
M  V30 346 H 30.008 -2.50697 -3.06541 0
M  V30 347 H 31.182 -4.49564 -1.01136 0
M  V30 348 H 29.497 -4.02482 -1.06759 0
M  V30 349 H 32.094 -3.72805 -3.83302 0
M  V30 350 H 32.437 -2.02689 -3.63625 0
M  V30 351 H 32.97 -3.18054 -2.38928 0
M  V30 352 H 29.709 -6.17255 -2.20627 0
M  V30 353 H 29.229 -4.94263 -3.39801 0
M  V30 354 H 30.908 -5.53508 -3.35019 0
M  V30 355 N 31.0401 0.771051 -1.3745 0
M  V30 356 C 32.4561 1.07171 -1.18265 0
M  V30 357 C 32.6561 2.01491 -0.019287 0
M  V30 358 O 31.7121 2.44244 0.640408 0
M  V30 359 C 33.0251 1.66854 -2.50161 0
M  V30 360 C 34.5731 1.79109 -2.56689 0
M  V30 361 C 35.0481 2.42205 -3.88717 0
M  V30 362 N 36.5391 2.49655 -3.90162 0
M  V30 363 C 37.2741 2.9933 -4.8907 0
M  V30 364 N 36.7701 3.49172 -5.98374 0
M  V30 365 N 38.5631 2.9821 -4.76474 0
M  V30 366 H 30.7141 0.144796 -2.11906 0
M  V30 367 H 32.9771 0.126863 -0.939473 0
M  V30 368 H 32.6831 1.05017 -3.35655 0
M  V30 369 H 32.5571 2.6614 -2.673 0
M  V30 370 H 34.9441 2.40077 -1.71601 0
M  V30 371 H 35.0251 0.785757 -2.43433 0
M  V30 372 H 34.6691 1.81875 -4.74219 0
M  V30 373 H 34.5991 3.43345 -3.99276 0
M  V30 374 H 37.0901 2.14383 -3.11205 0
M  V30 375 H 37.4031 3.8548 -6.69795 0
M  V30 376 H 35.7481 3.47275 -6.02018 0
M  V30 377 H 38.9391 2.58572 -3.90203 0
M  V30 378 H 39.1121 3.36613 -5.53711 0
M  V30 379 N 32.5182 1.22032 0.997298 0
M  V30 380 C 33.7462 1.06841 1.7718 0
M  V30 381 C 34.1612 -0.381325 1.84909 0
M  V30 382 O 33.5182 -1.26437 1.31605 0
M  V30 383 C 33.5692 1.66814 3.20711 0
M  V30 384 O 33.2902 3.06116 3.13408 0
M  V30 385 C 34.7912 1.56838 4.14628 0
M  V30 386 H 32.0112 0.374782 0.556578 0
M  V30 387 H 34.5552 1.61532 1.2541 0
M  V30 388 H 32.7102 1.16196 3.69564 0
M  V30 389 H 33.1242 3.34926 4.0364 0
M  V30 390 H 34.5982 2.03532 5.13107 0
M  V30 391 H 35.0752 0.524155 4.36061 0
M  V30 392 H 35.6812 2.06741 3.7167 0
M  V30 393 N 33.9963 -1.19345 1.0293 0
M  V30 394 C 34.9433 -2.2258 0.610464 0
M  V30 395 C 35.9133 -1.6179 -0.375946 0
M  V30 396 O 37.0983 -1.88844 -0.272511 0
M  V30 397 C 34.2383 -3.45085 -0.0321473 0
M  V30 398 C 33.3513 -4.20258 1.00035 0
M  V30 399 C 32.4863 -5.3019 0.32746 0
M  V30 400 C 31.5253 -5.97121 1.34584 0
M  V30 401 N 30.6623 -6.98615 0.698726 0
M  V30 402 H 35.5023 -2.57764 1.49538 0
M  V30 403 H 33.0393 -1.26644 0.748311 0
M  V30 404 H 34.9973 -4.15061 -0.421966 0
M  V30 405 H 33.6273 -3.10555 -0.88064 0
M  V30 406 H 32.6793 -3.49223 1.50823 0
M  V30 407 H 33.9913 -4.66175 1.77433 0
M  V30 408 H 33.1453 -6.06587 -0.11718 0
M  V30 409 H 31.8843 -4.85345 -0.478713 0
M  V30 410 H 30.8893 -5.19474 1.80074 0
M  V30 411 H 32.1143 -6.4405 2.15352 0
M  V30 412 H 30.0603 -6.55942 -0.0873471 0
M  V30 413 H 29.9773 -7.42724 1.41058 0
M  V30 414 H 31.2453 -7.79004 0.278102 0
M  V30 415 N 35.4744 -0.807222 -1.35358 0
M  V30 416 C 36.4074 -0.163572 -2.27613 0
M  V30 417 C 37.3854 0.670817 -1.48118 0
M  V30 418 O 38.5694 0.63796 -1.77376 0
M  V30 419 C 35.6964 0.773015 -3.29761 0
M  V30 420 C 34.7424 0.0181653 -4.26496 0
M  V30 421 S 35.5754 -1.31831 -5.19019 0
M  V30 422 C 36.7314 -0.38619 -6.24707 0
M  V30 423 H 36.9644 -0.945757 -2.81856 0
M  V30 424 H 34.4974 -0.602315 -1.42167 0
M  V30 425 H 36.4554 1.30788 -3.89108 0
M  V30 426 H 35.1164 1.52859 -2.74396 0
M  V30 427 H 34.3094 0.729534 -4.98692 0
M  V30 428 H 33.9114 -0.446761 -3.71322 0
M  V30 429 H 36.2034 0.428295 -6.76145 0
M  V30 430 H 37.1464 -1.07736 -6.99856 0
M  V30 431 H 37.5544 0.018398 -5.64497 0
M  V30 432 N 36.9525 1.47285 -0.560781 0
M  V30 433 C 37.8625 2.33846 0.187954 0
M  V30 434 C 38.8785 1.48412 0.908293 0
M  V30 435 O 40.0545 1.81332 0.876388 0
M  V30 436 C 37.1195 3.25178 1.2025 0
M  V30 437 C 36.1805 4.26504 0.489208 0
M  V30 438 C 35.4135 5.13472 1.45542 0
M  V30 439 O 35.6365 5.02959 2.6905 0
M  V30 440 O 34.5705 5.93902 0.977963 0
M  V30 441 H 38.3965 2.99177 -0.522177 0
M  V30 442 H 35.9815 1.45903 -0.321364 0
M  V30 443 H 37.8635 3.81584 1.78805 0
M  V30 444 H 36.5385 2.6247 1.89449 0
M  V30 445 H 35.4455 3.73847 -0.137627 0
M  V30 446 H 36.7785 4.91935 -0.161399 0
M  V30 447 N 38.4306 0.297415 1.54768 0
M  V30 448 C 39.3776 -0.580276 2.23386 0
M  V30 449 C 40.3476 -1.13238 1.21517 0
M  V30 450 O 41.5326 -1.17757 1.50126 0
M  V30 451 C 38.6726 -1.74801 2.97555 0
M  V30 452 C 37.7856 -1.22764 4.1419 0
M  V30 453 C 36.9206 -2.35895 4.75949 0
M  V30 454 C 35.9596 -1.80974 5.84735 0
M  V30 455 N 35.0966 -2.87664 6.40464 0
M  V30 456 H 39.9366 0.0114833 2.97998 0
M  V30 457 H 37.4736 0.0174361 1.4709 0
M  V30 458 H 39.4316 -2.43475 3.38786 0
M  V30 459 H 38.0616 -2.31145 2.25326 0
M  V30 460 H 37.1136 -0.433271 3.77924 0
M  V30 461 H 38.4256 -0.785551 4.92575 0
M  V30 462 H 37.5796 -3.12523 5.20014 0
M  V30 463 H 36.3186 -2.83429 3.96887 0
M  V30 464 H 35.3236 -1.02834 5.40097 0
M  V30 465 H 36.5486 -1.34348 6.65678 0
M  V30 466 H 34.4946 -3.34538 5.64287 0
M  V30 467 H 34.4116 -2.4794 7.14186 0
M  V30 468 H 35.6796 -3.642 6.89187 0
M  V30 469 N 39.9087 -1.5758 0.0250728 0
M  V30 470 C 40.8387 -2.13007 -0.956575 0
M  V30 471 C 41.8197 -1.0452 -1.342 0
M  V30 472 O 43.0047 -1.32332 -1.42133 0
M  V30 473 C 40.1347 -2.65386 -2.24026 0
M  V30 474 C 39.0887 -3.78623 -1.99571 0
M  V30 475 C 38.4147 -4.17414 -3.3417 0
M  V30 476 C 39.7147 -5.04867 -1.33814 0
M  V30 477 H 41.4087 -2.9528 -0.494991 0
M  V30 478 H 38.9547 -1.42042 -0.236651 0
M  V30 479 H 40.9077 -3.02794 -2.93076 0
M  V30 480 H 39.6317 -1.80268 -2.72343 0
M  V30 481 H 38.2907 -3.41646 -1.32941 0
M  V30 482 H 37.9387 -3.29284 -3.80238 0
M  V30 483 H 37.6387 -4.93719 -3.18615 0
M  V30 484 H 39.1627 -4.57402 -4.04495 0
M  V30 485 H 40.5767 -5.39888 -1.92857 0
M  V30 486 H 38.9737 -5.86144 -1.28669 0
M  V30 487 H 40.0437 -4.83904 -0.310561 0
M  V30 488 N 41.3868 0.248026 -1.55636 0
M  V30 489 C 42.3168 1.31079 -1.93237 0
M  V30 490 C 43.2978 1.50264 -0.797174 0
M  V30 491 O 44.4828 1.62891 -1.05737 0
M  V30 492 C 41.6128 2.66575 -2.22609 0
M  V30 493 C 40.5668 2.62087 -3.3837 0
M  V30 494 C 39.8928 4.01369 -3.53281 0
M  V30 495 C 41.1928 2.19171 -4.7409 0
M  V30 496 H 42.8868 0.998556 -2.82257 0
M  V30 497 H 40.4328 0.47891 -1.35803 0
M  V30 498 H 42.3858 3.41057 -2.47503 0
M  V30 499 H 41.1098 2.99432 -1.30414 0
M  V30 500 H 39.7688 1.90063 -3.13483 0
M  V30 501 H 39.4168 4.31489 -2.58508 0
M  V30 502 H 39.1168 3.99254 -4.31127 0
M  V30 503 H 40.6408 4.77552 -3.80495 0
M  V30 504 H 42.0548 2.83384 -4.98363 0
M  V30 505 H 40.4518 2.2817 -5.5503 0
M  V30 506 H 41.5218 1.14336 -4.71227 0
M  V30 507 N 42.8649 1.48995 0.513639 0
M  V30 508 C 43.7749 1.67443 1.64317 0
M  V30 509 C 44.7909 0.556947 1.64846 0
M  V30 510 O 45.9669 0.830082 1.83498 0
M  V30 511 C 43.0319 1.72515 3.00732 0
M  V30 512 C 42.0929 2.96009 3.1093 0
M  V30 513 C 41.3259 3.00829 4.40837 0
M  V30 514 O 41.5489 2.13594 5.28898 0
M  V30 515 O 40.4829 3.93168 4.55744 0
M  V30 516 H 44.3089 2.63106 1.51687 0
M  V30 517 H 41.8939 1.32588 0.688543 0
M  V30 518 H 43.7759 1.78277 3.81831 0
M  V30 519 H 42.4509 0.800278 3.13651 0
M  V30 520 H 41.3579 2.9577 2.29065 0
M  V30 521 H 42.6909 3.87934 3.02933 0
M  V30 522 N 44.343 -0.763751 1.37857 0
M  V30 523 C 45.253 -1.90817 1.36478 0
M  V30 524 C 46.269 -1.71997 0.263248 0
M  V30 525 O 47.445 -1.95095 0.499979 0
M  V30 526 C 44.51 -3.2605 1.17864 0
M  V30 527 C 43.571 -3.57467 2.3773 0
M  V30 528 C 42.804 -4.86249 2.19995 0
M  V30 529 O 43.027 -5.57884 1.18836 0
M  V30 530 O 41.961 -5.16911 3.08361 0
M  V30 531 H 45.787 -1.94933 2.32884 0
M  V30 532 H 43.372 -0.907619 1.1867 0
M  V30 533 H 45.254 -4.06924 1.09504 0
M  V30 534 H 43.929 -3.22769 0.245372 0
M  V30 535 H 42.836 -2.76796 2.51664 0
M  V30 536 H 44.169 -3.655 3.29652 0
M  V30 537 N 45.8211 -1.22559 -0.990812 0
M  V30 538 C 46.7681 -0.997519 -2.0813 0
M  V30 539 C 47.7381 0.0814702 -1.659 0
M  V30 540 O 48.9231 -0.0685424 -1.90677 0
M  V30 541 C 46.0631 -0.583615 -3.40129 0
M  V30 542 C 45.1761 -1.7336 -3.9569 0
M  V30 543 C 44.3111 -1.26748 -5.15857 0
M  V30 544 C 43.3501 -2.38888 -5.63559 0
M  V30 545 N 42.4871 -1.93308 -6.74964 0
M  V30 546 H 47.3271 -1.93099 -2.26973 0
M  V30 547 H 44.8641 -0.962114 -1.11273 0
M  V30 548 H 46.8221 -0.324801 -4.15934 0
M  V30 549 H 45.4521 0.312845 -3.2128 0
M  V30 550 H 44.5041 -2.10669 -3.16738 0
M  V30 551 H 45.8161 -2.57704 -4.27071 0
M  V30 552 H 44.9701 -0.966173 -5.98957 0
M  V30 553 H 43.7091 -0.394272 -4.86104 0
M  V30 554 H 42.7141 -2.69805 -4.79046 0
M  V30 555 H 43.9391 -3.26728 -5.95336 0
M  V30 556 H 41.8851 -1.08352 -6.4699 0
M  V30 557 H 41.8021 -2.71217 -7.05675 0
M  V30 558 H 43.0701 -1.66252 -7.61564 0
M  V30 559 N 47.2992 1.18797 -1.03562 0
M  V30 560 C 48.5762 1.84469 -0.650434 0
M  V30 561 C 48.9562 1.92319 0.870433 0
M  V30 562 O 48.3042 1.44528 1.76986 0
M  V30 563 C 48.5142 3.2306 -1.32036 0
M  V30 564 C 49.8622 3.9915 -1.44792 0
M  V30 565 O 50.8862 3.32481 -1.27806 0
M  V30 566 O 49.7452 5.18587 -1.72423 0
M  V30 567 H 46.8392 0.795251 -0.226946 0
M  V30 568 H 49.3852 1.26231 -1.13419 0
M  V30 569 H 48.1572 3.1222 -2.3587 0
M  V30 570 H 47.7802 3.88949 -0.8249 0
M  V30 571 N 48.7773 0.814389 1.34928 0
M  V30 572 C 49.7243 0.22822 2.29669 0
M  V30 573 C 50.6943 -0.642164 1.53184 0
M  V30 574 O 51.8793 -0.585605 1.81591 0
M  V30 575 C 49.0193 -0.61089 3.3965 0
M  V30 576 C 48.1323 0.280792 4.31086 0
M  V30 577 C 47.2673 -0.567067 5.28165 0
M  V30 578 C 46.3063 0.324531 6.11239 0
M  V30 579 N 45.4433 -0.483756 7.00431 0
M  V30 580 H 50.2833 1.04153 2.79206 0
M  V30 581 H 47.8203 0.525133 1.37407 0
M  V30 582 H 49.7783 -1.11263 4.0209 0
M  V30 583 H 48.4083 -1.38939 2.91369 0
M  V30 584 H 47.4603 0.900688 3.69583 0
M  V30 585 H 48.7723 0.966723 4.89342 0
M  V30 586 H 47.9263 -1.13363 5.96015 0
M  V30 587 H 46.6653 -1.28654 4.70425 0
M  V30 588 H 45.6703 0.903298 5.42329 0
M  V30 589 H 46.8953 1.04198 6.71059 0
M  V30 590 H 44.8413 -1.18706 6.45171 0
M  V30 591 H 44.7583 0.143965 7.55863 0
M  V30 592 H 46.0263 -1.03334 7.7262 0
M  V30 593 N 50.2554 -1.46986 0.568584 0
M  V30 594 C 51.5044 -2.01646 0.0465894 0
M  V30 595 C 51.8174 -1.44721 -1.31587 0
M  V30 596 O 53.0234 -1.91113 -1.92842 0
M  V30 597 C 51.4794 -3.59885 0.032752 0
M  V30 598 C 51.0874 -4.25804 1.39266 0
M  V30 599 C 52.8314 -4.22255 -0.436038 0
M  V30 600 C 50.7384 -5.76081 1.33732 0
M  V30 601 H 49.6684 -0.753876 0.013647 0
M  V30 602 H 52.3194 -1.68864 0.718131 0
M  V30 603 H 50.7014 -3.8968 -0.704669 0
M  V30 604 H 51.8754 -4.07637 2.1487 0
M  V30 605 H 50.1904 -3.7547 1.80032 0
M  V30 606 H 52.7874 -5.32394 -0.49602 0
M  V30 607 H 53.1304 -3.90212 -1.45053 0
M  V30 608 H 53.6634 -3.97033 0.246877 0
M  V30 609 H 50.4024 -6.12761 2.32817 0
M  V30 610 H 49.9224 -5.96553 0.623267 0
M  V30 611 H 51.6014 -6.38518 1.0442 0
M  V30 612 N 51.7335 -0.305618 -1.54608 0
M  V30 613 C 52.9805 0.302298 -2.00231 0
M  V30 614 C 53.3085 1.5354 -1.19398 0
M  V30 615 O 52.5635 1.93973 -0.259423 0
M  V30 616 C 52.8625 0.698983 -3.50498 0
M  V30 617 C 52.5285 -0.432903 -4.48817 0
M  V30 618 C 51.1905 -0.743622 -4.75419 0
M  V30 619 C 53.5425 -1.19409 -5.07337 0
M  V30 620 C 50.8705 -1.81857 -5.57804 0
M  V30 621 C 53.2225 -2.25899 -5.90891 0
M  V30 622 C 51.8865 -2.57572 -6.15803 0
M  V30 623 H 51.1565 0.110619 -0.732697 0
M  V30 624 H 53.8035 -0.425674 -1.86709 0
M  V30 625 H 52.1085 1.50711 -3.61654 0
M  V30 626 H 53.8055 1.1806 -3.83227 0
M  V30 627 H 50.3955 -0.18063 -4.28219 0
M  V30 628 H 54.5795 -0.967295 -4.86782 0
M  V30 629 H 49.8355 -2.06864 -5.75341 0
M  V30 630 H 54.0095 -2.85335 -6.35261 0
M  V30 631 H 51.6365 -3.40998 -6.7943 0
M  V30 632 N 53.2116 1.57565 -0.0334293 0
M  V30 633 C 54.4576 1.92262 0.645226 0
M  V30 634 C 54.7906 0.910543 1.71531 0
M  V30 635 O 54.0656 -0.066099 1.94388 0
M  V30 636 C 54.3486 3.37422 1.2577 0
M  V30 637 C 54.2016 4.49369 0.196891 0
M  V30 638 C 55.5206 3.82628 2.17449 0
M  V30 639 H 52.6396 0.699171 0.233085 0
M  V30 640 H 55.2816 1.89779 -0.0915694 0
M  V30 641 H 53.4316 3.39669 1.88566 0
M  V30 642 H 55.1036 4.59254 -0.433962 0
M  V30 643 H 53.3466 4.31168 -0.477137 0
M  V30 644 H 54.0176 5.47978 0.665124 0
M  V30 645 H 56.4936 3.82145 1.64634 0
M  V30 646 H 55.3696 4.84883 2.57254 0
M  V30 647 H 55.6306 3.18376 3.0674 0
M  V30 648 N 54.6897 -0.239769 1.55765 0
M  V30 649 C 55.9357 -0.968234 1.78194 0
M  V30 650 C 56.2687 -1.84701 0.599938 0
M  V30 651 O 55.5437 -1.9031 -0.401524 0
M  V30 652 C 55.8267 -1.8227 3.10564 0
M  V30 653 C 55.6797 -0.971633 4.3918 0
M  V30 654 C 56.9987 -2.80388 3.39221 0
M  V30 655 H 54.1177 -0.350572 0.648281 0
M  V30 656 H 56.7597 -0.238259 1.885 0
M  V30 657 H 54.9097 -2.44507 3.01908 0
M  V30 658 H 56.5817 -0.367408 4.59835 0
M  V30 659 H 54.8247 -0.276276 4.32919 0
M  V30 660 H 55.4957 -1.60346 5.28198 0
M  V30 661 H 57.9717 -2.28287 3.47885 0
M  V30 662 H 56.8477 -3.3729 4.33044 0
M  V30 663 H 57.1087 -3.57212 2.60484 0
M  V30 664 N 56.1678 -1.49265 -0.50573 0
M  V30 665 C 57.0978 -1.68495 -1.61653 0
M  V30 666 C 58.0788 -0.53366 -1.61512 0
M  V30 667 O 59.2638 -0.76897 -1.78327 0
M  V30 668 C 56.3938 -1.74709 -3.00157 0
M  V30 669 C 55.3478 -2.89581 -3.15162 0
M  V30 670 C 54.6738 -2.80903 -4.5497 0
M  V30 671 C 55.9738 -4.30578 -2.95634 0
M  V30 672 H 57.6678 -2.61493 -1.45814 0
M  V30 673 H 55.2138 -1.25838 -0.70005 0
M  V30 674 H 57.1668 -1.86748 -3.77761 0
M  V30 675 H 55.8908 -0.783067 -3.17074 0
M  V30 676 H 54.5498 -2.77136 -2.39982 0
M  V30 677 H 54.1978 -1.82419 -4.68756 0
M  V30 678 H 53.8978 -3.57999 -4.65951 0
M  V30 679 H 55.4218 -2.94944 -5.34641 0
M  V30 680 H 56.8358 -4.4373 -3.63011 0
M  V30 681 H 55.2328 -5.0886 -3.18091 0
M  V30 682 H 56.3028 -4.45352 -1.91806 0
M  V30 683 N 57.6459 0.756429 -1.3826 0
M  V30 684 C 58.6089 1.85176 -1.35065 0
M  V30 685 C 59.6089 1.58818 -0.251703 0
M  V30 686 O 60.7989 1.66615 -0.508433 0
M  V30 687 C 57.9309 3.22596 -1.10201 0
M  V30 688 H 59.1239 1.89417 -2.3251 0
M  V30 689 H 56.6769 0.95783 -1.23512 0
M  V30 690 H 57.4119 3.24025 -0.133504 0
M  V30 691 H 57.1969 3.43122 -1.89762 0
M  V30 692 H 58.6869 4.02673 -1.10654 0
M  V30 693 N 59.124 1.23083 0.984299 0
M  V30 694 C 60.372 1.05848 1.72165 0
M  V30 695 C 60.693 -0.406049 1.90726 0
M  V30 696 O 59.963 -1.29139 1.47309 0
M  V30 697 H 58.543 0.388685 0.637913 0
M  V30 698 H 61.205 1.54736 1.18503 0
M  V30 699 H 60.301 1.54327 2.71274 0
M  V30 700 N 60.6021 -1.18246 1.0419 0
M  V30 701 C 61.8501 -1.87886 0.744543 0
M  V30 702 C 62.1711 -1.8082 -0.730006 0
M  V30 703 O 61.4411 -1.22736 -1.52685 0
M  V30 704 H 60.0211 -0.695556 0.272417 0
M  V30 705 H 62.6831 -1.43494 1.31892 0
M  V30 706 H 61.7791 -2.9389 1.05049 0
M  V30 707 N 62.0802 -0.821533 -1.34494 0
M  V30 708 C 63.4962 -0.507117 -1.51329 0
M  V30 709 C 63.6962 0.968964 -1.76673 0
M  V30 710 O 62.7522 1.75348 -1.81685 0
M  V30 711 C 64.0652 -1.36544 -2.67911 0
M  V30 712 C 65.6132 -1.36242 -2.81793 0
M  V30 713 C 66.0882 -2.2052 -4.01416 0
M  V30 714 N 67.5792 -2.18136 -4.08621 0
M  V30 715 C 68.3142 -2.80095 -5.00334 0
M  V30 716 N 67.8102 -3.51039 -5.9728 0
M  V30 717 N 69.6032 -2.69656 -4.93196 0
M  V30 718 H 61.7542 -1.77729 -1.16302 0
M  V30 719 H 64.0172 -0.757291 -0.570276 0
M  V30 720 H 63.7232 -2.41361 -2.55808 0
M  V30 721 H 63.5972 -1.02917 -3.62888 0
M  V30 722 H 65.9842 -0.322041 -2.93338 0
M  V30 723 H 66.0652 -1.73866 -1.87628 0
M  V30 724 H 65.7092 -3.24607 -3.90631 0
M  V30 725 H 65.6392 -1.80247 -4.94791 0
M  V30 726 H 68.1302 -1.6653 -3.39229 0
M  V30 727 H 68.4432 -3.95565 -6.63889 0
M  V30 728 H 66.7882 -3.55145 -5.97409 0
M  V30 729 H 69.9792 -2.13808 -4.16418 0
M  V30 730 H 70.1522 -3.1823 -5.64476 0
M  V30 731 N 63.5583 1.46682 -0.576371 0
M  V30 732 C 64.7863 2.06798 -0.0649635 0
M  V30 733 C 65.2013 1.42612 1.23723 0
M  V30 734 O 64.5583 0.529203 1.74659 0
M  V30 735 C 64.6093 3.6132 0.114202 0
M  V30 736 O 64.3303 4.23104 -1.13644 0
M  V30 737 C 65.8313 4.38349 0.66069 0
M  V30 738 H 63.0513 0.668778 -0.0545616 0
M  V30 739 H 65.5953 1.88404 -0.795237 0
M  V30 740 H 63.7503 3.79162 0.794673 0
M  V30 741 H 64.1643 5.15894 -0.946253 0
M  V30 742 H 65.6383 5.47081 0.73526 0
M  V30 743 H 66.1153 4.05953 1.67627 0
M  V30 744 H 66.7213 4.25297 0.0152951 0
M  V30 745 N 65.0364 0.313813 1.54444 0
M  V30 746 C 66.4474 -0.176243 1.85866 0
M  V30 747 C 66.7984 -1.52405 1.23561 0
M  V30 748 O 65.9234 -2.09605 0.538016 0
M  V30 749 C 66.5184 -0.32657 3.37222 0
M  V30 750 C 65.0774 -0.760846 3.6863 0
M  V30 751 C 64.2244 0.123247 2.77026 0
M  V30 752 H 67.1754 0.534418 1.49431 0
M  V30 753 H 67.1964 -1.15908 3.62416 0
M  V30 754 H 66.7084 0.654531 3.82541 0
M  V30 755 H 64.8094 -1.75204 3.28838 0
M  V30 756 H 64.9224 -0.571353 4.75681 0
M  V30 757 H 63.2864 -0.399597 2.51546 0
M  V30 758 H 64.0694 1.10094 3.25168 0
M  V30 759 N 66.5145 -1.57545 0.0417849 0
M  V30 760 C 67.4445 -2.14009 -0.933929 0
M  V30 761 C 68.4255 -1.05938 -1.33083 0
M  V30 762 O 69.6105 -1.33833 -1.40721 0
M  V30 763 C 66.7405 -2.67747 -2.21199 0
M  V30 764 C 65.6945 -3.80718 -1.95544 0
M  V30 765 C 65.0205 -4.20935 -3.29724 0
M  V30 766 C 66.3205 -5.06258 -1.28452 0
M  V30 767 H 68.0145 -2.95788 -0.463645 0
M  V30 768 H 65.5605 -1.42285 -0.221573 0
M  V30 769 H 67.5135 -3.05886 -2.89848 0
M  V30 770 H 66.2375 -1.83147 -2.70416 0
M  V30 771 H 64.8965 -3.43037 -1.2931 0
M  V30 772 H 64.5445 -3.33298 -3.76724 0
M  V30 773 H 64.2445 -4.9707 -3.13361 0
M  V30 774 H 65.7685 -4.61666 -3.9962 0
M  V30 775 H 67.1825 -5.41903 -1.8712 0
M  V30 776 H 65.5795 -5.87475 -1.22445 0
M  V30 777 H 66.6495 -4.84207 -0.259219 0
M  V30 778 N 67.9926 0.231505 -1.5589 0
M  V30 779 C 69.4036 0.799327 -1.68724 0
M  V30 780 C 69.7546 1.85398 -0.642022 0
M  V30 781 O 68.8796 2.1539 0.208784 0
M  V30 782 C 69.4746 1.45664 -3.05888 0
M  V30 783 C 68.0336 1.97197 -3.20609 0
M  V30 784 C 67.1806 0.828552 -2.64632 0
M  V30 785 H 70.1316 0.00702616 -1.58698 0
M  V30 786 H 70.1526 2.32517 -3.01191 0
M  V30 787 H 69.6646 0.688808 -3.81939 0
M  V30 788 H 67.7656 2.76813 -2.4941 0
M  V30 789 H 67.8786 2.15878 -4.27707 0
M  V30 790 H 66.2426 1.23321 -2.22854 0
M  V30 791 H 67.0256 0.0735544 -3.43221 0
M  V30 792 N 69.4707 1.49531 0.497807 0
M  V30 793 C 70.7167 1.59415 1.25358 0
M  V30 794 C 71.0497 0.281422 1.9215 0
M  V30 795 O 70.3247 -0.715249 1.80871 0
M  V30 796 C 70.6077 2.75566 2.3181 0
M  V30 797 C 70.4607 4.16642 1.69498 0
M  V30 798 C 71.7797 2.87347 3.33346 0
M  V30 799 H 68.8987 0.580244 0.454408 0
M  V30 800 H 71.5407 1.81827 0.551262 0
M  V30 801 H 69.6907 2.56587 2.91711 0
M  V30 802 H 71.3627 4.47145 1.13399 0
M  V30 803 H 69.6057 4.22141 0.998978 0
M  V30 804 H 70.2767 4.93792 2.46725 0
M  V30 805 H 72.7527 3.04634 2.83438 0
M  V30 806 H 71.6287 3.70289 4.05188 0
M  V30 807 H 71.8897 1.96834 3.95865 0
M  V30 808 N 70.9488 -0.749086 1.3866 0
M  V30 809 C 72.1788 -1.53611 1.38157 0
M  V30 810 C 72.5868 -1.89177 -0.0293595 0
M  V30 811 O 71.9298 -1.53606 -1.00752 0
M  V30 812 C 71.9918 -2.86087 2.17702 0
M  V30 813 C 71.6558 -2.73034 3.66472 0
M  V30 814 C 72.6528 -2.42526 4.59866 0
M  V30 815 C 70.3378 -2.90345 4.09884 0
M  V30 816 C 72.3318 -2.29492 5.94653 0
M  V30 817 C 70.0188 -2.7693 5.4475 0
M  V30 818 C 71.0168 -2.46547 6.36949 0
M  V30 819 O 70.7048 -2.33199 7.69333 0
M  V30 820 H 70.4368 -0.481773 0.474205 0
M  V30 821 H 72.9908 -0.934465 1.82912 0
M  V30 822 H 71.2208 -3.48458 1.67672 0
M  V30 823 H 72.9098 -3.47625 2.09551 0
M  V30 824 H 73.6758 -2.28816 4.27631 0
M  V30 825 H 69.5548 -3.1299 3.38464 0
M  V30 826 H 73.0988 -2.05698 6.66584 0
M  V30 827 H 68.9958 -2.90215 5.76581 0
M  V30 828 H 69.7638 -2.48376 7.79905 0
M  V30 829 N 72.4269 -1.23603 -0.977757 0
M  V30 830 C 73.3369 -1.03632 -2.1047 0
M  V30 831 C 74.3529 0.0199435 -1.73989 0
M  V30 832 O 75.5289 -0.176076 -2.00629 0
M  V30 833 C 72.5939 -0.63276 -3.40877 0
M  V30 834 C 71.6549 -1.76437 -3.91367 0
M  V30 835 C 70.8879 -1.37997 -5.15551 0
M  V30 836 O 71.1109 -0.265357 -5.69782 0
M  V30 837 O 70.0449 -2.20201 -5.60174 0
M  V30 838 H 73.8709 -1.98086 -2.30208 0
M  V30 839 H 71.4559 -1.02332 -1.08851 0
M  V30 840 H 73.3379 -0.418761 -4.19314 0
M  V30 841 H 72.0129 0.282754 -3.22463 0
M  V30 842 H 70.9199 -2.03304 -3.14036 0
M  V30 843 H 72.2529 -2.6583 -4.14241 0
M  V30 844 N 73.905 1.17692 -1.04816 0
M  V30 845 C 74.852 2.21581 -0.645797 0
M  V30 846 C 75.822 1.62367 0.350159 0
M  V30 847 O 77.007 1.89254 0.242433 0
M  V30 848 C 74.147 3.45092 -0.0227568 0
M  V30 849 C 73.26 4.18613 -1.06709 0
M  V30 850 C 72.395 5.29602 -0.411767 0
M  V30 851 C 71.434 5.94904 -1.44067 0
M  V30 852 N 70.571 6.97414 -0.809781 0
M  V30 853 H 75.411 2.55353 -1.5362 0
M  V30 854 H 72.948 1.25438 -0.768364 0
M  V30 855 H 74.906 4.15679 0.35588 0
M  V30 856 H 73.536 3.11917 0.831122 0
M  V30 857 H 72.588 3.46779 -1.5636 0
M  V30 858 H 73.9 4.63293 -1.84827 0
M  V30 859 H 73.054 6.06696 0.0206623 0
M  V30 860 H 71.793 4.86045 0.401438 0
M  V30 861 H 70.798 5.16544 -1.88316 0
M  V30 862 H 72.023 6.40542 -2.25571 0
M  V30 863 H 69.969 6.55998 -0.0170186 0
M  V30 864 H 69.886 7.40386 -1.52856 0
M  V30 865 H 71.154 7.78463 -0.401999 0
M  V30 866 N 75.3831 0.828654 1.34056 0
M  V30 867 C 76.3131 0.269443 2.3194 0
M  V30 868 C 77.2941 -0.617247 1.58506 0
M  V30 869 O 78.4791 -0.542931 1.86456 0
M  V30 870 C 75.6091 -0.564793 3.42677 0
M  V30 871 C 74.5631 0.225241 4.27407 0
M  V30 872 C 73.8891 -0.7321 5.29664 0
M  V30 873 C 75.1891 1.43663 5.02154 0
M  V30 874 H 76.8831 1.08728 2.7896 0
M  V30 875 H 74.4291 0.524283 1.34117 0
M  V30 876 H 76.3821 -0.966233 4.10173 0
M  V30 877 H 75.1061 -1.41574 2.9432 0
M  V30 878 H 73.7651 0.608117 3.61521 0
M  V30 879 H 73.4131 -1.57916 4.77568 0
M  V30 880 H 73.1131 -0.20767 5.87233 0
M  V30 881 H 74.6371 -1.13128 6.00029 0
M  V30 882 H 76.0511 1.1089 5.62473 0
M  V30 883 H 74.4481 1.89711 5.69324 0
M  V30 884 H 75.5181 2.21181 4.31517 0
M  V30 885 N 76.8612 -1.46375 0.584142 0
M  V30 886 C 77.8242 -2.28784 -0.138108 0
M  V30 887 C 78.8242 -1.38471 -0.817462 0
M  V30 888 O 80.0142 -1.60833 -0.669199 0
M  V30 889 C 77.1462 -3.18892 -1.20503 0
M  V30 890 H 78.3392 -2.94117 0.586127 0
M  V30 891 H 75.8922 -1.52509 0.342171 0
M  V30 892 H 76.6272 -2.58309 -1.96079 0
M  V30 893 H 76.4122 -3.85388 -0.722384 0
M  V30 894 H 77.9022 -3.80914 -1.71155 0
M  V30 895 N 78.3393 -0.321999 -1.54275 0
M  V30 896 C 79.2493 0.553631 -2.27974 0
M  V30 897 C 80.2653 1.13054 -1.32268 0
M  V30 898 O 81.4413 1.15084 -1.6528 0
M  V30 899 C 78.5063 1.69927 -3.02201 0
M  V30 900 C 77.5673 1.15433 -4.1349 0
M  V30 901 C 76.8003 2.24537 -4.84168 0
M  V30 902 O 77.0233 3.44852 -4.5435 0
M  V30 903 O 75.9573 1.90044 -5.7111 0
M  V30 904 H 79.7833 -0.0448345 -3.03667 0
M  V30 905 H 77.3683 -0.0877418 -1.49142 0
M  V30 906 H 79.2503 2.3663 -3.48689 0
M  V30 907 H 77.9253 2.28395 -2.29385 0
M  V30 908 H 76.8323 0.452436 -3.71354 0
M  V30 909 H 78.1653 0.614805 -4.88345 0
M  V30 910 N 79.8174 1.5752 -0.0501392 0
M  V30 911 C 80.7494 2.08413 0.95376 0
M  V30 912 C 81.7624 1.01175 1.27544 0
M  V30 913 O 82.9514 1.28744 1.23641 0
M  V30 914 C 80.0514 2.51138 2.27559 0
M  V30 915 C 79.2244 3.817 2.13598 0
M  V30 916 C 78.2834 4.10749 3.28895 0
M  V30 917 O 77.3094 4.80685 3.04845 0
M  V30 918 N 78.5114 3.62579 4.5334 0
M  V30 919 H 81.2764 2.95165 0.519383 0
M  V30 920 H 78.8374 1.61327 0.136127 0
M  V30 921 H 80.8294 2.67648 3.03557 0
M  V30 922 H 79.3994 1.6964 2.62567 0
M  V30 923 H 78.6194 3.74782 1.22197 0
M  V30 924 H 79.9074 4.67201 2.01496 0
M  V30 925 H 79.3054 3.06039 4.75769 0
M  V30 926 H 77.8624 3.84329 5.26436 0
M  V30 927 N 81.2955 -0.223234 1.56011 0
M  V30 928 C 82.2425 -1.27664 1.92277 0
M  V30 929 C 83.2125 -1.46659 0.779763 0
M  V30 930 O 84.3975 -1.60256 1.03551 0
M  V30 931 C 81.5375 -2.62234 2.24338 0
M  V30 932 C 80.6505 -2.51051 3.51564 0
M  V30 933 C 79.7855 -3.78133 3.7308 0
M  V30 934 C 78.8245 -3.61665 4.93827 0
M  V30 935 N 77.9615 -4.80693 5.11741 0
M  V30 936 H 82.8015 -0.960358 2.82101 0
M  V30 937 H 80.3385 -0.462901 1.39627 0
M  V30 938 H 82.2965 -3.40596 2.40936 0
M  V30 939 H 80.9265 -2.91961 1.3769 0
M  V30 940 H 79.9785 -1.64132 3.43169 0
M  V30 941 H 81.2905 -2.34803 4.40079 0
M  V30 942 H 80.4445 -4.64938 3.89766 0
M  V30 943 H 79.1835 -3.97304 2.82844 0
M  V30 944 H 78.1885 -2.73244 4.77093 0
M  V30 945 H 79.4135 -3.43966 5.85546 0
M  V30 946 H 77.3595 -5.00181 4.24446 0
M  V30 947 H 77.2765 -4.67165 5.94384 0
M  V30 948 H 78.5445 -5.6893 5.3286 0
M  V30 949 N 82.7736 -1.49793 -0.48987 0
M  V30 950 C 84.0206 -1.59841 -1.24327 0
M  V30 951 C 84.3486 -0.290135 -1.92324 0
M  V30 952 O 83.6036 0.722749 -1.81865 0
M  V30 953 C 83.9026 -2.71488 -2.32441 0
M  V30 954 C 83.5686 -4.12614 -1.81826 0
M  V30 955 C 82.2306 -4.51017 -1.67742 0
M  V30 956 C 84.5826 -5.00892 -1.4407 0
M  V30 957 C 81.9106 -5.75459 -1.14297 0
M  V30 958 C 84.2626 -6.25863 -0.920742 0
M  V30 959 C 82.9266 -6.63086 -0.766383 0
M  V30 960 H 82.1966 -0.584899 -0.454944 0
M  V30 961 H 84.8436 -1.83663 -0.542215 0
M  V30 962 H 83.1486 -2.4168 -3.0838 0
M  V30 963 H 84.8456 -2.76469 -2.90458 0
M  V30 964 H 81.4356 -3.82307 -1.93751 0
M  V30 965 H 85.6196 -4.7187 -1.53794 0
M  V30 966 H 80.8756 -6.02989 -1.01068 0
M  V30 967 H 85.0496 -6.9364 -0.619448 0
M  V30 968 H 82.6766 -7.59393 -0.350083 0
M  V30 969 N 84.2517 0.741722 -1.39055 0
M  V30 970 C 85.6627 1.31966 -1.32068 0
M  V30 971 C 86.0137 1.96192 0.0180797 0
M  V30 972 O 85.1387 1.95861 0.920196 0
M  V30 973 C 85.7337 2.39954 -2.39181 0
M  V30 974 C 84.2927 2.93438 -2.35735 0
M  V30 975 C 83.4397 1.66936 -2.21422 0
M  V30 976 H 86.3907 0.539721 -1.4924 0
M  V30 977 H 86.4117 3.20182 -2.05581 0
M  V30 978 H 85.9237 1.9318 -3.36605 0
M  V30 979 H 84.0247 3.4451 -1.41929 0
M  V30 980 H 84.1377 3.4701 -3.30335 0
M  V30 981 H 82.5017 1.91016 -1.68478 0
M  V30 982 H 83.2847 1.22224 -3.20806 0
M  V30 983 N 85.7298 1.2412 0.971189 0
M  V30 984 C 86.9758 1.09048 1.71698 0
M  V30 985 C 87.3308 -0.367442 1.88859 0
M  V30 986 O 86.6238 -1.26792 1.43646 0
M  V30 987 C 86.8178 1.75983 3.11071 0
M  V30 988 C 86.6468 3.28133 3.07504 0
M  V30 989 C 85.4168 3.97331 3.1218 0
M  V30 990 C 87.6148 4.24773 2.89952 0
M  V30 991 N 85.5968 5.3639 2.98596 0
M  V30 992 C 86.9678 5.50806 2.84627 0
M  V30 993 C 89.0228 4.15392 2.74506 0
M  V30 994 C 87.7258 6.68533 2.65437 0
M  V30 995 C 89.7518 5.32793 2.56682 0
M  V30 996 C 89.1138 6.57756 2.52063 0
M  V30 997 H 85.2128 0.453632 0.636979 0
M  V30 998 H 87.7968 1.56983 1.15171 0
M  V30 999 H 85.9678 1.30566 3.65796 0
M  V30 1000 H 87.6998 1.53803 3.74335 0
M  V30 1001 H 84.4548 3.48473 3.20724 0
M  V30 1002 H 84.8788 6.09321 2.95054 0
M  V30 1003 H 89.5208 3.19543 2.76861 0
M  V30 1004 H 87.2388 7.64509 2.61825 0
M  V30 1005 H 90.8248 5.27383 2.4568 0
M  V30 1006 H 89.7048 7.4707 2.38446 0
M  V30 1007 N 87.2079 -1.17134 1.05439 0
M  V30 1008 C 88.1559 -2.23289 0.651511 0
M  V30 1009 C 89.1499 -1.66186 -0.328411 0
M  V30 1010 O 90.3559 -1.78949 -0.194206 0
M  V30 1011 H 86.7309 -0.726938 0.192523 0
M  V30 1012 H 88.7019 -2.54565 1.55689 0
M  V30 1013 C 87.4509 -3.47671 0.0448436 0
M  V30 1014 H 86.7739 -3.91918 0.78996 0
M  V30 1015 H 88.2139 -4.2353 -0.19964 0
M  V30 1016 C 86.6729 -3.14453 -1.20918 0
M  V30 1017 O 87.2029 -3.29459 -2.29825 0
M  V30 1018 N 85.4089 -2.68657 -1.10779 0
M  V30 1019 H 84.9559 -2.56646 -0.221526 0
M  V30 1020 H 84.9139 -2.46804 -1.9477 0
M  V30 1021 N 88.686 -0.835752 -1.33615 0
M  V30 1022 C 90.102 -0.523139 -1.50783 0
M  V30 1023 C 90.302 0.950171 -1.77691 0
M  V30 1024 O 89.358 1.73411 -1.83534 0
M  V30 1025 C 90.671 -1.39378 -2.66448 0
M  V30 1026 C 92.219 -1.39223 -2.80332 0
M  V30 1027 C 92.694 -2.24765 -3.99055 0
M  V30 1028 N 94.185 -2.22458 -4.06284 0
M  V30 1029 C 94.92 -2.85386 -4.97336 0
M  V30 1030 N 94.416 -3.57354 -5.93523 0
M  V30 1031 N 96.209 -2.74872 -4.90308 0
M  V30 1032 H 88.36 -1.78952 -1.14411 0
M  V30 1033 H 90.623 -0.763297 -0.562212 0
M  V30 1034 H 90.329 -2.44061 -2.53234 0
M  V30 1035 H 90.203 -1.0676 -3.61776 0
M  V30 1036 H 92.59 -0.353136 -2.92979 0
M  V30 1037 H 92.671 -1.75846 -1.85773 0
M  V30 1038 H 92.315 -3.28732 -3.87167 0
M  V30 1039 H 92.245 -1.85485 -4.92852 0
M  V30 1040 H 94.736 -1.70119 -3.37443 0
M  V30 1041 H 95.049 -4.02584 -6.59656 0
M  V30 1042 H 93.394 -3.61461 -5.93608 0
M  V30 1043 H 96.585 -2.18213 -4.14126 0
M  V30 1044 H 96.758 -3.24199 -5.61069 0
M  V30 1045 N 90.1641 1.46063 -0.591896 0
M  V30 1046 C 91.4131 2.01547 -0.0786637 0
M  V30 1047 C 91.7261 1.46796 1.29268 0
M  V30 1048 O 92.9321 1.94157 1.89777 0
M  V30 1049 C 91.3881 3.59787 -0.0900024 0
M  V30 1050 C 90.9961 4.23534 -1.46023 0
M  V30 1051 C 92.7401 4.22895 0.368806 0
M  V30 1052 C 90.6471 5.73881 -1.4288 0
M  V30 1053 H 89.5771 0.753564 -0.0256388 0
M  V30 1054 H 92.2281 1.677 -0.744905 0
M  V30 1055 H 90.6101 3.90752 0.642586 0
M  V30 1056 H 91.7841 4.04167 -2.21328 0
M  V30 1057 H 90.0991 3.72558 -1.85982 0
M  V30 1058 H 92.6961 5.33116 0.411258 0
M  V30 1059 H 93.0391 3.9247 1.38827 0
M  V30 1060 H 93.5721 3.9659 -0.31001 0
M  V30 1061 H 90.3111 6.0898 -2.42536 0
M  V30 1062 H 89.8311 5.95486 -0.718095 0
M  V30 1063 H 91.5101 6.36776 -1.14565 0
M  V30 1064 N 91.6422 0.330177 1.54103 0
M  V30 1065 C 92.5922 -0.548456 2.21305 0
M  V30 1066 C 93.5762 -1.07651 1.19583 0
M  V30 1067 O 94.7682 -1.01243 1.45186 0
M  V30 1068 C 91.8972 -1.70559 2.97934 0
M  V30 1069 C 90.9832 -1.19212 4.07 0
M  V30 1070 N 91.3742 -0.398831 5.04225 0
M  V30 1071 C 89.6722 -1.47024 4.2107 0
M  V30 1072 C 90.3732 -0.121761 5.81573 0
M  V30 1073 N 89.3492 -0.709722 5.38947 0
M  V30 1074 H 93.1512 0.0648483 2.93828 0
M  V30 1075 H 90.6652 0.136363 1.61826 0
M  V30 1076 H 92.6622 -2.34688 3.44568 0
M  V30 1077 H 91.3222 -2.32231 2.26934 0
M  V30 1078 H 92.3332 -0.0410869 5.17884 0
M  V30 1079 H 89.0102 -2.09232 3.61287 0
M  V30 1080 H 90.4002 0.517298 6.69906 0
M  V30 1081 N 93.1203 -1.57491 0.0584922 0
M  V30 1082 C 94.3673 -1.92978 -0.613648 0
M  V30 1083 C 94.6953 -0.937461 -1.70417 0
M  V30 1084 O 93.9503 0.049078 -1.95638 0
M  V30 1085 C 94.2493 -3.3513 -1.24188 0
M  V30 1086 C 93.9153 -4.50037 -0.278826 0
M  V30 1087 C 92.5773 -4.81198 -0.0138447 0
M  V30 1088 C 94.9293 -5.19807 0.380777 0
M  V30 1089 C 92.2573 -5.79473 0.918052 0
M  V30 1090 C 94.6093 -6.19079 1.30091 0
M  V30 1091 C 93.2733 -6.48665 1.57449 0
M  V30 1092 H 92.5433 -0.706157 -0.22455 0
M  V30 1093 H 95.1903 -1.91082 0.126533 0
M  V30 1094 H 93.4953 -3.33429 -2.05749 0
M  V30 1095 H 95.1923 -3.59871 -1.769 0
M  V30 1096 H 91.7823 -4.25726 -0.495539 0
M  V30 1097 H 95.9663 -4.95939 0.189158 0
M  V30 1098 H 91.2223 -6.00727 1.1374 0
M  V30 1099 H 95.3963 -6.7225 1.81804 0
M  V30 1100 H 93.0233 -7.24628 2.29822 0
M  V30 1101 N 94.5984 0.214957 -1.56127 0
M  V30 1102 C 95.8454 0.938372 -1.79446 0
M  V30 1103 C 96.1734 1.8407 -0.628378 0
M  V30 1104 O 95.4284 1.91837 0.386925 0
M  V30 1105 C 95.7274 1.80314 -3.0858 0
M  V30 1106 C 95.3934 1.05349 -4.3842 0
M  V30 1107 C 94.0554 0.846435 -4.73697 0
M  V30 1108 C 96.4074 0.524588 -5.18553 0
M  V30 1109 C 93.7354 0.098683 -5.86617 0
M  V30 1110 C 96.0874 -0.209853 -6.32252 0
M  V30 1111 C 94.7514 -0.428102 -6.66126 0
M  V30 1112 H 94.0214 0.343375 -0.656639 0
M  V30 1113 H 96.6684 0.206077 -1.90388 0
M  V30 1114 H 94.9734 2.6035 -2.92789 0
M  V30 1115 H 96.6704 2.36513 -3.23825 0
M  V30 1116 H 93.2604 1.22486 -4.10725 0
M  V30 1117 H 97.4444 0.672008 -4.91729 0
M  V30 1118 H 92.7004 -0.0805753 -6.11347 0
M  V30 1119 H 96.8744 -0.627157 -6.9357 0
M  V30 1120 H 94.5014 -1.00944 -7.53468 0
M  V30 1121 N 96.0765 1.50051 0.48192 0
M  V30 1122 C 97.0065 1.71046 1.58951 0
M  V30 1123 C 97.9875 0.559288 1.60642 0
M  V30 1124 O 99.1725 0.797243 1.77081 0
M  V30 1125 C 96.3025 1.79462 2.97339 0
M  V30 1126 C 95.2565 2.94558 3.10515 0
M  V30 1127 C 94.5825 2.88105 4.50444 0
M  V30 1128 C 95.8825 4.35227 2.88747 0
M  V30 1129 H 97.5765 2.6378 1.41635 0
M  V30 1130 H 95.1225 1.26936 0.679942 0
M  V30 1131 H 97.0755 1.92734 3.74742 0
M  V30 1132 H 95.7995 0.833412 3.15788 0
M  V30 1133 H 94.4585 2.80918 2.35543 0
M  V30 1134 H 94.1065 1.89853 4.65795 0
M  V30 1135 H 93.8065 3.65366 4.60197 0
M  V30 1136 H 95.3305 3.03412 5.29881 0
M  V30 1137 H 96.7445 4.49449 3.55905 0
M  V30 1138 H 95.1415 5.13856 3.09955 0
M  V30 1139 H 96.2115 4.48347 1.84696 0
M  V30 1140 N 97.5546 -0.734337 1.39446 0
M  V30 1141 C 98.7796 -1.52866 1.40167 0
M  V30 1142 C 99.2046 -1.881 -0.00171513 0
M  V30 1143 O 98.5626 -1.51957 -0.988879 0
M  V30 1144 C 98.6106 -2.79235 2.28167 0
M  V30 1145 O 97.7146 -3.75185 1.71201 0
M  V30 1146 H 97.0556 -0.461618 0.477289 0
M  V30 1147 H 99.5856 -0.905949 1.8345 0
M  V30 1148 H 99.5956 -3.27963 2.42702 0
M  V30 1149 H 98.2706 -2.52923 3.30156 0
M  V30 1150 H 96.8476 -3.33958 1.65912 0
M  V30 1151 N 99.0327 -1.24633 -0.964593 0
M  V30 1152 C 100.31 -0.995809 -1.68354 0
M  V30 1153 C 100.69 0.480964 -2.05548 0
M  V30 1154 O 100.038 1.45599 -1.76105 0
M  V30 1155 C 100.248 -1.92177 -2.91323 0
M  V30 1156 C 101.596 -2.19446 -3.63495 0
M  V30 1157 O 102.62 -1.89855 -3.01386 0
M  V30 1158 O 101.479 -2.69714 -4.75307 0
M  V30 1159 H 98.5727 -0.376854 -0.736146 0
M  V30 1160 H 101.119 -1.35745 -1.0184 0
M  V30 1161 H 99.8907 -2.91938 -2.60553 0
M  V30 1162 H 99.5137 -1.56349 -3.65569 0
M  V30 1163 N 100.511 1.16574 -1.06058 0
M  V30 1164 C 101.421 2.2452 -0.680282 0
M  V30 1165 C 102.437 1.71348 0.302604 0
M  V30 1166 O 103.613 2.00822 0.152513 0
M  V30 1167 C 100.678 3.46629 -0.0700315 0
M  V30 1168 C 99.7388 4.14849 -1.10448 0
M  V30 1169 C 98.9718 5.31129 -0.523256 0
M  V30 1170 O 99.1948 5.66514 0.664709 0
M  V30 1171 O 98.1288 5.88526 -1.26179 0
M  V30 1172 H 101.955 2.59355 -1.58015 0
M  V30 1173 H 99.5398 1.24043 -0.832694 0
M  V30 1174 H 101.422 4.20543 0.268667 0
M  V30 1175 H 100.097 3.13573 0.803353 0
M  V30 1176 H 99.0038 3.42916 -1.49532 0
M  V30 1177 H 100.337 4.51954 -1.94931 0
M  V30 1178 N 101.989 0.842826 1.3317 0
M  V30 1179 C 103.405 0.531128 1.50503 0
M  V30 1180 C 103.605 -0.940734 1.78192 0
M  V30 1181 O 102.661 -1.72436 1.84451 0
M  V30 1182 C 103.974 1.40789 2.65705 0
M  V30 1183 C 105.522 1.40708 2.79589 0
M  V30 1184 C 105.997 2.26878 3.97857 0
M  V30 1185 N 107.488 2.24609 4.05099 0
M  V30 1186 C 108.223 2.88019 4.95815 0
M  V30 1187 N 107.719 3.60496 5.9162 0
M  V30 1188 N 109.512 2.77469 4.88843 0
M  V30 1189 H 101.663 1.79557 1.1346 0
M  V30 1190 H 103.926 0.766267 0.558156 0
M  V30 1191 H 103.632 2.454 2.51936 0
M  V30 1192 H 103.506 1.08677 3.61205 0
M  V30 1193 H 105.893 0.368668 2.92788 0
M  V30 1194 H 105.974 1.76829 1.84838 0
M  V30 1195 H 105.618 3.3078 3.85418 0
M  V30 1196 H 105.548 1.88096 4.91861 0
M  V30 1197 H 108.039 1.71906 3.36536 0
M  V30 1198 H 108.352 4.06076 6.57512 0
M  V30 1199 H 106.697 3.64604 5.91683 0
M  V30 1200 H 109.888 2.20406 4.12963 0
M  V30 1201 H 110.061 3.2717 5.59342 0
M  V30 1202 N 103.467 -1.45747 0.599634 0
M  V30 1203 C 104.697 -2.06369 0.0977132 0
M  V30 1204 C 105.105 -1.44624 -1.21985 0
M  V30 1205 O 104.448 -0.551831 -1.75216 0
M  V30 1206 C 104.51 -3.59284 -0.124673 0
M  V30 1207 C 104.174 -4.43318 1.10987 0
M  V30 1208 C 105.171 -4.78796 2.02609 0
M  V30 1209 C 102.856 -4.84194 1.33647 0
M  V30 1210 C 104.85 -5.53997 3.15224 0
M  V30 1211 C 102.537 -5.5915 2.46565 0
M  V30 1212 C 103.535 -5.93968 3.37182 0
M  V30 1213 O 103.223 -6.67405 4.48136 0
M  V30 1214 H 102.955 -0.673122 0.0623153 0
M  V30 1215 H 105.509 -1.88104 0.824981 0
M  V30 1216 H 103.739 -3.75919 -0.906745 0
M  V30 1217 H 105.428 -4.01775 -0.577201 0
M  V30 1218 H 106.194 -4.47781 1.86325 0
M  V30 1219 H 102.073 -4.56534 0.64016 0
M  V30 1220 H 105.617 -5.81091 3.85978 0
M  V30 1221 H 101.514 -5.89579 2.62805 0
M  V30 1222 H 102.282 -6.85847 4.46717 0
M  V30 1223 N 104.945 -0.338344 -1.53925 0
M  V30 1224 C 106.191 0.260143 -2.01125 0
M  V30 1225 C 106.524 1.50617 -1.22589 0
M  V30 1226 O 105.799 1.91979 -0.312113 0
M  V30 1227 C 106.082 0.579499 -3.55407 0
M  V30 1228 C 105.935 -0.678264 -4.44657 0
M  V30 1229 C 107.254 1.39122 -4.17532 0
M  V30 1230 H 104.373 0.0930772 -0.731099 0
M  V30 1231 H 107.015 -0.457852 -1.84401 0
M  V30 1232 H 105.165 1.19118 -3.69788 0
M  V30 1233 H 106.837 -1.31631 -4.42121 0
M  V30 1234 H 105.08 -1.3042 -4.13731 0
M  V30 1235 H 105.751 -0.410143 -5.50474 0
M  V30 1236 H 108.227 0.874035 -4.06817 0
M  V30 1237 H 107.103 1.58342 -5.25565 0
M  V30 1238 H 107.364 2.39178 -3.71815 0
M  V30 1239 N 106.423 1.57458 -0.0668435 0
M  V30 1240 C 107.834 1.80776 0.466558 0
M  V30 1241 C 108.185 0.980361 1.69951 0
M  V30 1242 O 107.31 0.201441 2.1546 0
M  V30 1243 C 107.905 3.27881 0.85321 0
M  V30 1244 C 106.464 3.52062 1.3315 0
M  V30 1245 C 105.611 2.75513 0.314264 0
M  V30 1246 H 108.562 1.5598 -0.292588 0
M  V30 1247 H 108.583 3.39659 1.715 0
M  V30 1248 H 108.095 3.88075 -0.0443439 0
M  V30 1249 H 106.196 2.97167 2.24772 0
M  V30 1250 H 106.309 4.60762 1.31285 0
M  V30 1251 H 104.673 2.42123 0.790492 0
M  V30 1252 H 105.456 3.38442 -0.575477 0
M  V30 1253 N 107.901 -0.206675 1.56239 0
M  V30 1254 C 108.831 -1.25909 1.96645 0
M  V30 1255 C 109.812 -1.48097 0.836734 0
M  V30 1256 O 110.997 -1.6003 1.10019 0
M  V30 1257 C 108.127 -2.6058 2.29599 0
M  V30 1258 C 107.081 -2.53024 3.452 0
M  V30 1259 C 106.407 -3.91861 3.63798 0
M  V30 1260 C 107.707 -2.06524 4.79734 0
M  V30 1261 H 109.401 -0.923369 2.84806 0
M  V30 1262 H 106.947 -0.442735 1.37025 0
M  V30 1263 H 108.9 -3.34375 2.56459 0
M  V30 1264 H 107.624 -2.95869 1.38307 0
M  V30 1265 H 106.283 -1.81684 3.18412 0
M  V30 1266 H 105.931 -4.24483 2.69857 0
M  V30 1267 H 105.631 -3.87683 4.4156 0
M  V30 1268 H 107.155 -4.67296 3.93022 0
M  V30 1269 H 108.569 -2.70072 5.05702 0
M  V30 1270 H 106.966 -2.13374 5.60885 0
M  V30 1271 H 108.036 -1.01802 4.74093 0
M  V30 1272 N 109.379 -1.50304 -0.473955 0
M  V30 1273 C 110.656 -1.51667 -1.23518 0
M  V30 1274 C 111.036 -0.259701 -2.09496 0
M  V30 1275 O 110.384 0.756986 -2.15597 0
M  V30 1276 C 110.594 -2.81082 -2.06868 0
M  V30 1277 C 111.942 -3.31631 -2.65153 0
M  V30 1278 O 112.966 -2.82384 -2.17113 0
M  V30 1279 O 111.825 -4.17471 -3.52675 0
M  V30 1280 H 108.919 -0.60822 -0.560355 0
M  V30 1281 H 111.465 -1.62592 -0.486011 0
M  V30 1282 H 110.237 -3.64041 -1.4349 0
M  V30 1283 H 109.86 -2.73146 -2.88924 0
M  V30 1284 N 110.857 0.726932 -1.39834 0
M  V30 1285 C 112.082 1.52121 -1.40976 0
M  V30 1286 C 112.507 1.88098 -0.00826029 0
M  V30 1287 O 111.865 1.52479 0.980807 0
M  V30 1288 C 111.913 2.78021 -2.29644 0
M  V30 1289 O 111.017 3.74272 -1.73188 0
M  V30 1290 H 110.358 0.45908 -0.479731 0
M  V30 1291 H 112.888 0.896207 -1.83927 0
M  V30 1292 H 112.898 3.26671 -2.44438 0
M  V30 1293 H 111.573 2.51169 -3.31492 0
M  V30 1294 H 110.15 3.33073 -1.6768 0
M  V30 1295 N 112.336 1.25143 0.95797 0
M  V30 1296 C 113.613 1.00472 1.67823 0
M  V30 1297 C 113.993 -0.470056 2.058 0
M  V30 1298 O 113.341 -1.44663 1.76875 0
M  V30 1299 C 113.551 1.9372 2.90299 0
M  V30 1300 C 114.899 2.21371 3.62326 0
M  V30 1301 O 115.923 1.91451 3.00375 0
M  V30 1302 O 114.782 2.72231 4.7387 0
M  V30 1303 H 111.876 0.380752 0.734137 0
M  V30 1304 H 114.422 1.36283 1.01119 0
M  V30 1305 H 113.194 2.93316 2.59001 0
M  V30 1306 H 112.817 1.58286 3.64735 0
M  V30 1307 N 113.814 -1.1601 1.06675 0
M  V30 1308 C 114.746 -2.20115 0.638921 0
M  V30 1309 C 115.759 -1.59916 -0.305057 0
M  V30 1310 O 116.948 -1.78245 -0.0954446 0
M  V30 1311 C 114.048 -3.38798 -0.0830083 0
M  V30 1312 C 113.221 -4.2855 0.875426 0
M  V30 1313 C 112.28 -5.25849 0.192042 0
M  V30 1314 O 111.306 -5.63102 0.830921 0
M  V30 1315 N 112.508 -5.70648 -1.06493 0
M  V30 1316 H 115.273 -2.57439 1.53444 0
M  V30 1317 H 112.834 -1.31057 0.950557 0
M  V30 1318 H 114.826 -4.00936 -0.550685 0
M  V30 1319 H 113.396 -2.99947 -0.880386 0
M  V30 1320 H 112.616 -3.63617 1.52238 0
M  V30 1321 H 113.904 -4.85393 1.52548 0
M  V30 1322 H 113.302 -5.42482 -1.60405 0
M  V30 1323 H 111.859 -6.34859 -1.47641 0
M  V30 1324 N 115.292 -0.849877 -1.32721 0
M  V30 1325 C 116.517 -0.463856 -2.02146 0
M  V30 1326 C 116.942 0.930449 -1.63476 0
M  V30 1327 O 116.3 1.61033 -0.832952 0
M  V30 1328 C 116.348 -0.604955 -3.55489 0
M  V30 1329 O 115.452 0.36425 -4.10788 0
M  V30 1330 H 114.793 -0.187046 -0.637111 0
M  V30 1331 H 117.323 -1.14775 -1.69375 0
M  V30 1332 H 117.333 -0.490696 -4.05038 0
M  V30 1333 H 116.008 -1.62174 -3.82978 0
M  V30 1334 H 114.585 0.206628 -3.72327 0
M  V30 1335 N 116.77 1.45427 -0.607355 0
M  V30 1336 C 117.718 2.32269 0.12411 0
M  V30 1337 C 118.712 1.45955 0.859854 0
M  V30 1338 O 119.918 1.6244 0.775447 0
M  V30 1339 H 116.293 0.749691 0.0588839 0
M  V30 1340 H 118.264 2.91743 -0.626762 0
M  V30 1341 C 117.013 3.29567 1.1082 0
M  V30 1342 H 116.336 3.95978 0.551492 0
M  V30 1343 H 117.776 3.93061 1.58995 0
M  V30 1344 C 116.235 2.56722 2.18164 0
M  V30 1345 O 116.765 2.34842 3.25902 0
M  V30 1346 N 114.971 2.16861 1.93442 0
M  V30 1347 H 114.518 2.34855 1.05834 0
M  V30 1348 H 114.476 1.68444 2.65469 0
M  V30 1349 N 118.248 0.346503 1.53744 0
M  V30 1350 C 119.495 -0.249104 2.00962 0
M  V30 1351 C 119.823 -1.5032 1.23426 0
M  V30 1352 O 119.078 -1.93217 0.310761 0
M  V30 1353 C 119.377 -0.605809 3.52228 0
M  V30 1354 C 119.043 0.551747 4.47512 0
M  V30 1355 C 117.705 0.86941 4.73281 0
M  V30 1356 C 120.057 1.32818 5.03993 0
M  V30 1357 C 117.385 1.96582 5.52786 0
M  V30 1358 C 119.737 2.41486 5.84694 0
M  V30 1359 C 118.401 2.73808 6.08757 0
M  V30 1360 H 117.671 -0.0911538 0.735372 0
M  V30 1361 H 120.318 0.475027 1.85515 0
M  V30 1362 H 118.623 -1.4107 3.65522 0
M  V30 1363 H 120.32 -1.07858 3.86222 0
M  V30 1364 H 116.91 0.294102 4.2759 0
M  V30 1365 H 121.094 1.09602 4.84047 0
M  V30 1366 H 116.35 2.22045 5.69654 0
M  V30 1367 H 120.524 3.02078 6.27473 0
M  V30 1368 H 118.151 3.58892 6.7015 0
M  V30 1369 N 119.726 -1.57421 0.075193 0
M  V30 1370 C 121.142 -1.57099 -0.281444 0
M  V30 1371 C 121.342 -1.08486 -1.69803 0
M  V30 1372 O 120.398 -0.752279 -2.41033 0
M  V30 1373 C 121.711 -3.00571 -0.0880041 0
M  V30 1374 C 123.259 -3.12605 -0.157281 0
M  V30 1375 C 123.734 -4.57999 0.0079207 0
M  V30 1376 N 125.225 -4.63176 -0.0475725 0
M  V30 1377 C 125.96 -5.73373 0.0557876 0
M  V30 1378 N 125.456 -6.92473 0.21286 0
M  V30 1379 N 127.249 -5.621 -0.00152098 0
M  V30 1380 H 119.4 -1.87335 1.00098 0
M  V30 1381 H 121.663 -0.86377 0.390646 0
M  V30 1382 H 121.369 -3.40262 0.889629 0
M  V30 1383 H 121.243 -3.67754 -0.838875 0
M  V30 1384 H 123.63 -2.72798 -1.1254 0
M  V30 1385 H 123.711 -2.48053 0.62475 0
M  V30 1386 H 123.355 -4.98496 0.972824 0
M  V30 1387 H 123.285 -5.20586 -0.793556 0
M  V30 1388 H 125.776 -3.7753 -0.167244 0
M  V30 1389 H 126.089 -7.72279 0.283781 0
M  V30 1390 H 124.434 -6.94556 0.248267 0
M  V30 1391 H 127.625 -4.67938 -0.122958 0
M  V30 1392 H 127.798 -6.47948 0.0824844 0
M  V30 1393 N 121.204 0.198386 -1.56346 0
M  V30 1394 C 122.152 1.26538 -1.95169 0
M  V30 1395 C 123.146 1.47295 -0.836685 0
M  V30 1396 O 124.352 1.48195 -1.02167 0
M  V30 1397 H 120.727 0.424744 -0.620561 0
M  V30 1398 H 122.698 0.910904 -2.84157 0
M  V30 1399 C 121.447 2.6035 -2.30463 0
M  V30 1400 H 120.77 2.45192 -3.15786 0
M  V30 1401 H 122.21 3.33762 -2.61494 0
M  V30 1402 C 120.669 3.17096 -1.13806 0
M  V30 1403 O 121.199 3.99588 -0.41135 0
M  V30 1404 N 119.405 2.75795 -0.915736 0
M  V30 1405 H 118.952 2.08816 -1.50843 0
M  V30 1406 H 118.91 3.14101 -0.136979 0
M  V30 1407 N 122.682 1.50554 0.465978 0
M  V30 1408 C 123.931 1.61038 1.21448 0
M  V30 1409 C 124.244 0.31865 1.92987 0
M  V30 1410 O 125.45 0.302469 2.6981 0
M  V30 1411 C 123.906 2.84283 2.20706 0
M  V30 1412 C 123.514 4.20352 1.54946 0
M  V30 1413 C 125.258 3.04115 2.96166 0
M  V30 1414 C 123.165 5.34778 2.5252 0
M  V30 1415 H 122.095 0.599718 0.457005 0
M  V30 1416 H 124.746 1.7699 0.484424 0
M  V30 1417 H 123.128 2.61901 2.97025 0
M  V30 1418 H 124.302 4.53008 0.843811 0
M  V30 1419 H 122.617 4.06167 0.917475 0
M  V30 1420 H 125.214 3.86774 3.69202 0
M  V30 1421 H 125.557 2.16045 3.55852 0
M  V30 1422 H 126.09 3.26702 2.26959 0
M  V30 1423 H 122.829 6.25018 1.97566 0
M  V30 1424 H 122.349 5.06534 3.21222 0
M  V30 1425 H 124.028 5.65561 3.14245 0
M  V30 1426 N 124.16 -0.719506 1.40217 0
M  V30 1427 C 125.108 -1.85493 1.40339 0
M  V30 1428 C 126.102 -1.66995 0.284415 0
M  V30 1429 O 127.308 -1.74148 0.455252 0
M  V30 1430 H 123.683 -0.610857 0.438586 0
M  V30 1431 H 125.654 -1.82506 2.36081 0
M  V30 1432 C 124.403 -3.23321 1.27901 0
M  V30 1433 H 123.726 -3.38159 2.1328 0
M  V30 1434 H 125.166 -4.02914 1.32045 0
M  V30 1435 C 123.625 -3.36898 -0.0111355 0
M  V30 1436 O 124.155 -3.89674 -0.975538 0
M  V30 1437 N 122.361 -2.90492 -0.0793393 0
M  V30 1438 H 121.908 -2.47731 0.706183 0
M  V30 1439 H 121.866 -2.99955 -0.942038 0
M  V30 1440 N 125.638 -1.25649 -0.95132 0
M  V30 1441 C 126.548 -1.08073 -2.08224 0
M  V30 1442 C 127.564 -0.0169666 -1.73992 0
M  V30 1443 O 128.74 -0.218593 -2.0021 0
M  V30 1444 C 125.805 -0.704922 -3.39458 0
M  V30 1445 C 124.866 -1.84699 -3.87537 0
M  V30 1446 C 124.099 -1.48902 -5.12508 0
M  V30 1447 O 124.322 -0.386156 -5.69091 0
M  V30 1448 O 123.256 -2.32033 -5.55378 0
M  V30 1449 H 127.082 -2.02924 -2.25954 0
M  V30 1450 H 124.667 -1.04618 -1.06656 0
M  V30 1451 H 126.549 -0.507609 -4.18332 0
M  V30 1452 H 125.224 0.214291 -3.2299 0
M  V30 1453 H 124.131 -2.09919 -3.09653 0
M  V30 1454 H 125.464 -2.74557 -4.08509 0
M  V30 1455 N 127.117 1.15442 -1.07289 0
M  V30 1456 C 128.363 1.86489 -0.796846 0
M  V30 1457 C 128.696 1.82078 0.675371 0
M  V30 1458 O 127.971 1.24346 1.4956 0
M  V30 1459 C 128.254 3.35626 -1.30489 0
M  V30 1460 C 128.107 3.48673 -2.84161 0
M  V30 1461 C 129.426 4.30357 -0.920907 0
M  V30 1462 H 126.545 0.677144 -0.290939 0
M  V30 1463 H 129.187 1.35633 -1.33056 0
M  V30 1464 H 127.337 3.79068 -0.850883 0
M  V30 1465 H 129.009 3.14099 -3.37846 0
M  V30 1466 H 127.252 2.90253 -3.22391 0
M  V30 1467 H 127.923 4.53453 -3.14777 0
M  V30 1468 H 130.399 3.94871 -1.3121 0
M  V30 1469 H 129.275 5.33193 -1.30372 0
M  V30 1470 H 129.536 4.4176 0.173226 0
M  V30 1471 N 128.595 0.856903 1.32268 0
M  V30 1472 C 129.525 0.31858 2.31316 0
M  V30 1473 C 130.506 -0.583487 1.59779 0
M  V30 1474 O 131.691 -0.503259 1.87566 0
M  V30 1475 C 128.821 -0.491979 3.43798 0
M  V30 1476 C 127.775 0.315849 4.26833 0
M  V30 1477 C 127.101 -0.619586 5.31098 0
M  V30 1478 C 128.401 1.54282 4.98993 0
M  V30 1479 H 130.095 1.14621 2.76591 0
M  V30 1480 H 127.641 0.552613 1.32974 0
M  V30 1481 H 129.594 -0.879012 4.1213 0
M  V30 1482 H 128.318 -1.35299 2.97257 0
M  V30 1483 H 126.977 0.684664 3.6015 0
M  V30 1484 H 126.625 -1.47751 4.8081 0
M  V30 1485 H 126.325 -0.0830621 5.87541 0
M  V30 1486 H 127.849 -1.00375 6.02293 0
M  V30 1487 H 129.263 1.22796 5.59995 0
M  V30 1488 H 127.66 2.01745 5.65172 0
M  V30 1489 H 128.73 2.30285 4.26728 0
M  V30 1490 N 130.073 -1.45103 0.615059 0
M  V30 1491 C 131.32 -2.02183 0.113179 0
M  V30 1492 C 131.648 -1.48249 -1.25906 0
M  V30 1493 O 130.903 -0.650265 -1.84581 0
M  V30 1494 C 131.202 -3.57386 0.0318797 0
M  V30 1495 C 130.868 -4.30505 1.34077 0
M  V30 1496 C 129.53 -4.50197 1.69929 0
M  V30 1497 C 131.882 -4.72238 2.20546 0
M  V30 1498 C 129.21 -5.08881 2.91988 0
M  V30 1499 C 131.562 -5.32272 3.41861 0
M  V30 1500 C 130.226 -5.50187 3.77956 0
M  V30 1501 H 129.496 -0.739842 0.0414151 0
M  V30 1502 H 132.143 -1.74073 0.798168 0
M  V30 1503 H 130.448 -3.84817 -0.736409 0
M  V30 1504 H 132.145 -3.99264 -0.372712 0
M  V30 1505 H 128.735 -4.15496 1.05173 0
M  V30 1506 H 132.919 -4.56751 1.94146 0
M  V30 1507 H 128.175 -5.20939 3.2005 0
M  V30 1508 H 132.349 -5.63563 4.09109 0
M  V30 1509 H 129.976 -5.95427 4.72622 0
M  V30 1510 N 131.551 -0.354651 -1.53558 0
M  V30 1511 C 132.776 0.242153 -2.05981 0
M  V30 1512 C 133.201 1.42553 -1.2272 0
M  V30 1513 O 132.559 1.79656 -0.243604 0
M  V30 1514 C 132.607 0.624367 -3.55154 0
M  V30 1515 O 131.711 1.72301 -3.74681 0
M  V30 1516 H 131.052 0.0378432 -0.662921 0
M  V30 1517 H 133.582 -0.512087 -1.98088 0
M  V30 1518 H 133.592 0.898433 -3.97985 0
M  V30 1519 H 132.267 -0.240989 -4.15201 0
M  V30 1520 H 130.844 1.44535 -3.4375 0
M  V30 1521 N 133.029 1.57378 -0.0835403 0
M  V30 1522 C 134.445 1.57246 0.273109 0
M  V30 1523 C 134.645 1.09385 1.69225 0
M  V30 1524 O 133.701 0.765051 2.40631 0
M  V30 1525 C 135.014 3.00614 0.0720628 0
M  V30 1526 C 136.562 3.12684 0.1407 0
M  V30 1527 C 137.037 4.57989 -0.0322094 0
M  V30 1528 N 138.528 4.63194 0.0230085 0
M  V30 1529 C 139.263 5.73335 -0.0861941 0
M  V30 1530 N 138.759 6.9235 -0.24958 0
M  V30 1531 N 140.552 5.62093 -0.0282886 0
M  V30 1532 H 132.703 1.86801 -1.0109 0
M  V30 1533 H 134.966 0.861687 -0.395222 0
M  V30 1534 H 134.672 3.39786 -0.907662 0
M  V30 1535 H 134.546 3.68193 0.81936 0
M  V30 1536 H 136.933 2.73391 1.11092 0
M  V30 1537 H 137.014 2.47719 -0.637896 0
M  V30 1538 H 136.658 4.97973 -0.999247 0
M  V30 1539 H 136.588 5.21 0.765937 0
M  V30 1540 H 139.079 3.77613 0.14722 0
M  V30 1541 H 139.392 7.72117 -0.324733 0
M  V30 1542 H 137.737 6.94415 -0.285097 0
M  V30 1543 H 140.928 4.67997 0.0981408 0
M  V30 1544 H 141.101 6.47895 -0.116845 0
M  V30 1545 N 134.507 -0.190092 1.56449 0
M  V30 1546 C 135.47 -1.21925 1.9408 0
M  V30 1547 C 136.47 -1.38176 0.822431 0
M  V30 1548 O 137.66 -1.35903 1.08977 0
M  V30 1549 C 134.792 -2.58773 2.21922 0
M  V30 1550 H 135.985 -0.897464 2.86157 0
M  V30 1551 H 133.538 -0.43181 1.50217 0
M  V30 1552 H 134.273 -2.95998 1.32499 0
M  V30 1553 H 134.058 -2.48348 3.03424 0
M  V30 1554 H 135.548 -3.32978 2.52022 0
M  V30 1555 N 135.985 -1.50799 -0.457987 0
M  V30 1556 C 136.932 -1.70617 -1.5543 0
M  V30 1557 C 137.902 -0.547562 -1.56815 0
M  V30 1558 O 139.087 -0.779647 -1.74144 0
M  V30 1559 C 136.227 -1.81831 -2.93311 0
M  V30 1560 C 135.34 -3.09278 -3.01615 0
M  V30 1561 C 134.475 -3.11209 -4.30491 0
M  V30 1562 C 133.514 -4.33055 -4.32585 0
M  V30 1563 N 132.651 -4.32652 -5.52952 0
M  V30 1564 H 137.491 -2.64207 -1.37836 0
M  V30 1565 H 135.028 -1.30959 -0.669937 0
M  V30 1566 H 136.986 -1.86314 -3.73287 0
M  V30 1567 H 135.616 -0.916685 -3.0951 0
M  V30 1568 H 134.668 -3.14203 -2.1443 0
M  V30 1569 H 135.98 -3.99233 -2.99022 0
M  V30 1570 H 135.134 -3.14494 -5.18824 0
M  V30 1571 H 133.873 -2.19106 -4.35711 0
M  V30 1572 H 132.878 -4.29969 -3.42647 0
M  V30 1573 H 134.103 -5.264 -4.29046 0
M  V30 1574 H 132.049 -3.43409 -5.58933 0
M  V30 1575 H 131.966 -5.16392 -5.52155 0
M  V30 1576 H 133.234 -4.40101 -6.43375 0
M  V30 1577 N 137.463 0.71206 -1.40597 0
M  V30 1578 C 138.712 1.46754 -1.38369 0
M  V30 1579 C 139.025 1.95598 0.0097839 0
M  V30 1580 O 140.231 2.71059 0.154677 0
M  V30 1581 C 138.687 2.65289 -2.43207 0
M  V30 1582 C 138.295 2.23301 -3.88382 0
M  V30 1583 C 140.039 3.43008 -2.50091 0
M  V30 1584 C 137.946 3.38696 -4.84808 0
M  V30 1585 H 136.876 0.55118 -0.514506 0
M  V30 1586 H 139.527 0.774616 -1.66349 0
M  V30 1587 H 137.909 3.36769 -2.08332 0
M  V30 1588 H 139.083 1.59218 -4.32419 0
M  V30 1589 H 137.398 1.58618 -3.85006 0
M  V30 1590 H 139.995 4.28881 -3.1932 0
M  V30 1591 H 140.338 3.87065 -1.53253 0
M  V30 1592 H 140.871 2.78574 -2.83974 0
M  V30 1593 H 137.61 2.99668 -5.82992 0
M  V30 1594 H 137.13 4.01683 -4.45433 0
M  V30 1595 H 138.809 4.04712 -5.04794 0
M  V30 1596 N 138.941 1.26152 0.944643 0
M  V30 1597 C 140.352 1.10454 1.50522 0
M  V30 1598 C 140.703 -0.31635 1.93633 0
M  V30 1599 O 139.828 -1.20746 1.79581 0
M  V30 1600 C 140.423 1.99891 2.73549 0
M  V30 1601 C 138.982 1.88348 3.25886 0
M  V30 1602 C 138.129 1.93447 1.9868 0
M  V30 1603 H 141.08 1.39292 0.760489 0
M  V30 1604 H 141.101 1.54477 3.47732 0
M  V30 1605 H 140.613 3.03297 2.42141 0
M  V30 1606 H 138.714 0.878636 3.62092 0
M  V30 1607 H 138.827 2.73696 3.93227 0
M  V30 1608 H 137.191 1.37456 2.14425 0
M  V30 1609 H 137.974 2.98476 1.69607 0
M  V30 1610 N 140.419 -1.14872 1.07899 0
M  V30 1611 C 141.644 -1.90202 0.826926 0
M  V30 1612 C 142.069 -1.77774 -0.614664 0
M  V30 1613 O 141.427 -1.11431 -1.43013 0
M  V30 1614 C 141.475 -3.38352 1.24702 0
M  V30 1615 O 140.579 -4.10497 0.39575 0
M  V30 1616 H 139.92 -0.591968 0.300782 0
M  V30 1617 H 142.45 -1.45437 1.43907 0
M  V30 1618 H 142.46 -3.89156 1.22563 0
M  V30 1619 H 141.135 -3.46715 2.29698 0
M  V30 1620 H 139.712 -3.69796 0.480117 0
M  V30 1621 N 141.898 -0.863906 -1.31812 0
M  V30 1622 C 143.146 -0.470904 -1.96537 0
M  V30 1623 C 143.467 0.978771 -1.68657 0
M  V30 1624 O 142.737 1.6853 -0.998717 0
M  V30 1625 H 141.317 -0.171148 -0.72713 0
M  V30 1626 H 143.979 -1.10236 -1.60729 0
M  V30 1627 H 143.075 -0.623616 -3.05806 0
M  V30 1628 N 143.376 1.44774 -0.622745 0
M  V30 1629 C 144.324 2.32387 0.0994683 0
M  V30 1630 C 145.318 1.46859 0.844326 0
M  V30 1631 O 146.524 1.63254 0.758174 0
M  V30 1632 H 142.899 0.750273 0.0509291 0
M  V30 1633 H 144.87 2.91062 -0.65767 0
M  V30 1634 C 143.619 3.30723 1.07319 0
M  V30 1635 H 142.942 3.96541 0.509462 0
M  V30 1636 H 144.382 3.94725 1.54817 0
M  V30 1637 C 142.841 2.59021 2.15429 0
M  V30 1638 O 143.371 2.38286 3.23393 0
M  V30 1639 N 141.577 2.189 1.91131 0
M  V30 1640 H 141.124 2.35964 1.03337 0
M  V30 1641 H 141.082 1.71251 2.63668 0
M  V30 1642 N 144.854 0.36279 1.53368 0
M  V30 1643 C 146.1 -0.228113 2.01513 0
M  V30 1644 C 146.433 -1.48648 1.2497 0
M  V30 1645 O 145.708 -1.91459 0.342616 0
M  V30 1646 C 145.991 -0.522884 3.56284 0
M  V30 1647 C 145.844 0.74892 4.43521 0
M  V30 1648 C 147.163 -1.32461 4.19693 0
M  V30 1649 H 144.282 -0.0814343 0.732487 0
M  V30 1650 H 146.924 0.48713 1.83649 0
M  V30 1651 H 145.074 -1.1322 3.71636 0
M  V30 1652 H 146.746 1.38648 4.39971 0
M  V30 1653 H 144.989 1.36986 4.11603 0
M  V30 1654 H 145.66 0.497667 5.49752 0
M  V30 1655 H 148.136 -0.809203 4.08156 0
M  V30 1656 H 147.012 -1.49961 5.28018 0
M  V30 1657 H 147.273 -2.33232 3.75573 0
M  V30 1658 N 146.332 -1.57332 0.0918853 0
M  V30 1659 C 147.282 -2.10385 -0.87876 0
M  V30 1660 C 148.266 -1.01814 -1.24591 0
M  V30 1661 O 149.458 -1.28093 -1.22152 0
M  V30 1662 C 146.587 -2.68517 -2.13901 0
M  V30 1663 C 145.673 -3.84126 -1.79744 0
M  V30 1664 N 146.064 -4.92288 -1.1613 0
M  V30 1665 C 144.362 -3.93801 -2.09373 0
M  V30 1666 C 145.063 -5.7295 -1.00513 0
M  V30 1667 N 144.039 -5.21876 -1.5214 0
M  V30 1668 H 147.841 -2.91395 -0.38293 0
M  V30 1669 H 145.355 -1.62017 -0.111423 0
M  V30 1670 H 147.352 -3.04852 -2.84378 0
M  V30 1671 H 146.012 -1.88961 -2.64053 0
M  V30 1672 H 147.023 -5.1123 -0.828504 0
M  V30 1673 H 143.7 -3.25249 -2.61762 0
M  V30 1674 H 145.09 -6.69978 -0.507902 0
M  V30 1675 N 147.81 0.181792 -1.56548 0
M  V30 1676 C 149.04 0.914618 -1.85252 0
M  V30 1677 C 149.448 1.76791 -0.673914 0
M  V30 1678 O 148.791 1.80009 0.366416 0
M  V30 1679 C 148.853 1.85019 -3.08234 0
M  V30 1680 C 148.517 1.17754 -4.41569 0
M  V30 1681 C 149.514 0.548035 -5.17003 0
M  V30 1682 C 147.199 1.17742 -4.88305 0
M  V30 1683 C 149.193 -0.0726128 -6.37359 0
M  V30 1684 C 146.88 0.552946 -6.08593 0
M  V30 1685 C 147.878 -0.070978 -6.82963 0
M  V30 1686 O 147.566 -0.685635 -8.00971 0
M  V30 1687 H 147.298 0.271695 -0.618998 0
M  V30 1688 H 149.852 0.189944 -2.0452 0
M  V30 1689 H 148.082 2.61491 -2.84885 0
M  V30 1690 H 149.771 2.45195 -3.23472 0
M  V30 1691 H 150.537 0.540174 -4.81982 0
M  V30 1692 H 146.416 1.65246 -4.30366 0
M  V30 1693 H 149.96 -0.560213 -6.95347 0
M  V30 1694 H 145.857 0.558354 -6.43081 0
M  V30 1695 H 146.625 -0.58385 -8.16415 0
M  V30 1696 N 149.288 1.51039 0.449983 0
M  V30 1697 C 150.534 1.63322 1.20223 0
M  V30 1698 C 150.867 0.34241 1.91158 0
M  V30 1699 O 150.142 -0.657344 1.83055 0
M  V30 1700 C 150.425 2.82801 2.22925 0
M  V30 1701 C 150.278 4.21823 1.56157 0
M  V30 1702 C 151.597 2.97807 3.24035 0
M  V30 1703 H 148.716 0.594407 0.435718 0
M  V30 1704 H 151.358 1.83489 0.493136 0
M  V30 1705 H 149.508 2.65738 2.834 0
M  V30 1706 H 151.18 4.50526 0.991162 0
M  V30 1707 H 149.423 4.25105 0.864172 0
M  V30 1708 H 150.094 5.01391 2.30891 0
M  V30 1709 H 152.57 3.13497 2.73603 0
M  V30 1710 H 151.446 3.82992 3.93202 0
M  V30 1711 H 151.707 2.09328 3.89402 0
M  V30 1712 N 150.766 -0.704594 1.40972 0
M  V30 1713 C 152.043 -1.45847 1.30338 0
M  V30 1714 C 152.423 -2.10973 -0.0732344 0
M  V30 1715 O 151.771 -2.00997 -1.08685 0
M  V30 1716 C 151.981 -2.48525 2.45023 0
M  V30 1717 C 153.329 -3.1404 2.8577 0
M  V30 1718 O 154.353 -2.58848 2.44696 0
M  V30 1719 O 153.212 -4.13981 3.56766 0
M  V30 1720 H 150.306 -0.649092 0.512454 0
M  V30 1721 H 152.852 -0.735836 1.52917 0
M  V30 1722 H 151.624 -1.98994 3.36923 0
M  V30 1723 H 151.247 -3.2831 2.24272 0
M  V30 1724 N 152.244 -1.26651 -0.937939 0
M  V30 1725 C 153.472 -1.15173 -1.7188 0
M  V30 1726 C 153.887 0.292668 -1.86518 0
M  V30 1727 O 153.244 1.20014 -1.37488 0
M  V30 1728 C 153.295 -1.81925 -3.12387 0
M  V30 1729 O 153.016 -3.2072 -2.98446 0
M  V30 1730 C 154.517 -1.76442 -4.06673 0
M  V30 1731 H 151.737 -0.400911 -0.538063 0
M  V30 1732 H 154.281 -1.67332 -1.1756 0
M  V30 1733 H 152.436 -1.33696 -3.63599 0
M  V30 1734 H 152.85 -3.53802 -3.872 0
M  V30 1735 H 154.324 -2.27781 -5.02812 0
M  V30 1736 H 154.801 -0.731608 -4.33064 0
M  V30 1737 H 155.407 -2.24238 -3.61382 0
M  V30 1738 N 153.722 1.14298 -1.08507 0
M  V30 1739 C 154.947 1.8976 -0.837001 0
M  V30 1740 C 155.372 1.78097 0.605228 0
M  V30 1741 O 154.73 1.12188 1.4242 0
M  V30 1742 C 154.778 3.37685 -1.26495 0
M  V30 1743 O 153.882 4.10281 -0.417514 0
M  V30 1744 H 153.223 0.590365 -0.303917 0
M  V30 1745 H 155.753 1.44672 -1.44676 0
M  V30 1746 H 155.763 3.88501 -1.24625 0
M  V30 1747 H 154.438 3.45492 -2.31534 0
M  V30 1748 H 153.015 3.69536 -0.499722 0
M  V30 1749 N 155.201 0.870884 1.31352 0
M  V30 1750 C 156.131 0.343096 2.30966 0
M  V30 1751 C 157.112 -0.566507 1.60389 0
M  V30 1752 O 158.297 -0.483336 1.88089 0
M  V30 1753 C 155.427 -0.455487 3.443 0
M  V30 1754 C 154.381 0.361103 4.26474 0
M  V30 1755 C 153.707 -0.563221 5.31725 0
M  V30 1756 C 155.007 1.59566 4.97329 0
M  V30 1757 H 156.701 1.17548 2.75359 0
M  V30 1758 H 154.247 0.566686 1.32381 0
M  V30 1759 H 156.2 -0.83525 4.13039 0
M  V30 1760 H 154.924 -1.32139 2.98675 0
M  V30 1761 H 153.583 0.722825 3.59403 0
M  V30 1762 H 153.231 -1.42643 4.82351 0
M  V30 1763 H 152.931 -0.0207409 5.87596 0
M  V30 1764 H 154.455 -0.939808 6.03324 0
M  V30 1765 H 155.869 1.28728 5.58661 0
M  V30 1766 H 154.266 2.07728 5.63 0
M  V30 1767 H 155.336 2.34798 4.24262 0
M  V30 1768 N 156.679 -1.44442 0.630414 0
M  V30 1769 C 158.09 -1.85434 0.217063 0
M  V30 1770 C 158.441 -1.52748 -1.23136 0
M  V30 1771 O 157.566 -0.965205 -1.93682 0
M  V30 1772 C 158.161 -3.36581 0.387168 0
M  V30 1773 C 156.72 -3.76389 0.0283297 0
M  V30 1774 C 155.867 -2.68296 0.700889 0
M  V30 1775 H 158.818 -1.34919 0.83562 0
M  V30 1776 H 158.839 -3.78657 -0.374086 0
M  V30 1777 H 158.351 -3.60339 1.44144 0
M  V30 1778 H 156.452 -3.58246 -1.02423 0
M  V30 1779 H 156.565 -4.77095 0.437892 0
M  V30 1780 H 154.929 -2.54335 0.136267 0
M  V30 1781 H 155.712 -2.94887 1.75774 0
M  V30 1782 N 158.157 -0.370918 -1.53173 0
M  V30 1783 C 159.406 0.218249 -2.00516 0
M  V30 1784 C 159.719 1.49429 -1.26215 0
M  V30 1785 O 160.925 2.16239 -1.64174 0
M  V30 1786 C 159.381 0.43948 -3.57207 0
M  V30 1787 C 158.989 -0.822244 -4.4039 0
M  V30 1788 C 160.733 0.986012 -4.1289 0
M  V30 1789 C 158.64 -0.570304 -5.88644 0
M  V30 1790 H 157.57 0.0853333 -0.749156 0
M  V30 1791 H 160.221 -0.490483 -1.76823 0
M  V30 1792 H 158.603 1.20961 -3.77074 0
M  V30 1793 H 159.777 -1.59557 -4.32294 0
M  V30 1794 H 158.092 -1.29238 -3.95836 0
M  V30 1795 H 160.689 1.18991 -5.21292 0
M  V30 1796 H 161.032 1.94972 -3.6782 0
M  V30 1797 H 161.565 0.27592 -3.96842 0
M  V30 1798 H 158.304 -1.50449 -6.38001 0
M  V30 1799 H 157.824 0.164427 -5.99575 0
M  V30 1800 H 159.503 -0.19784 -6.46697 0
M  V30 1801 N 159.635 1.57281 -0.100228 0
M  V30 1802 C 160.545 2.17833 0.870965 0
M  V30 1803 C 161.561 1.14921 1.30649 0
M  V30 1804 O 162.737 1.47313 1.37335 0
M  V30 1805 C 159.802 2.75085 2.1102 0
M  V30 1806 C 158.863 3.9297 1.72838 0
M  V30 1807 C 158.096 4.47482 2.90854 0
M  V30 1808 O 158.319 4.00922 4.05731 0
M  V30 1809 O 157.253 5.38433 2.69023 0
M  V30 1810 H 161.079 3.0124 0.38575 0
M  V30 1811 H 158.664 1.48881 0.124397 0
M  V30 1812 H 160.546 3.11656 2.83634 0
M  V30 1813 H 159.221 1.94721 2.58584 0
M  V30 1814 H 158.128 3.61201 0.973883 0
M  V30 1815 H 159.461 4.74713 1.30033 0
M  V30 1816 N 161.113 -0.173488 1.56642 0
M  V30 1817 C 162.06 -1.21482 1.96242 0
M  V30 1818 C 163.03 -1.44104 0.826027 0
M  V30 1819 O 164.215 -1.5688 1.08597 0
M  V30 1820 C 161.355 -2.54964 2.32567 0
M  V30 1821 C 160.468 -2.39739 3.59373 0
M  V30 1822 C 159.603 -3.66072 3.84921 0
M  V30 1823 C 158.642 -3.45771 5.05083 0
M  V30 1824 N 157.779 -4.64169 5.26775 0
M  V30 1825 H 162.619 -0.870123 2.85014 0
M  V30 1826 H 160.156 -0.418245 1.41029 0
M  V30 1827 H 162.114 -3.32758 2.5165 0
M  V30 1828 H 160.744 -2.87433 1.46908 0
M  V30 1829 H 159.796 -1.53131 3.48217 0
M  V30 1830 H 161.108 -2.20683 4.47326 0
M  V30 1831 H 160.262 -4.52303 4.0436 0
M  V30 1832 H 159.001 -3.88105 2.9534 0
M  V30 1833 H 158.006 -2.57927 4.85545 0
M  V30 1834 H 159.231 -3.25163 5.96193 0
M  V30 1835 H 157.177 -4.86425 4.40144 0
M  V30 1836 H 157.094 -4.48019 6.08946 0
M  V30 1837 H 158.362 -5.51689 5.5069 0
M  V30 1838 N 162.591 -1.51276 -0.441967 0
M  V30 1839 C 163.554 -1.7167 -1.51862 0
M  V30 1840 C 164.554 -0.586793 -1.49711 0
M  V30 1841 O 165.744 -0.854276 -1.51815 0
M  V30 1842 C 162.876 -1.76889 -2.91416 0
M  V30 1843 H 164.069 -2.67754 -1.35084 0
M  V30 1844 H 161.622 -1.41196 -0.670333 0
M  V30 1845 H 162.357 -0.826026 -3.13604 0
M  V30 1846 H 162.142 -2.59001 -2.94382 0
M  V30 1847 H 163.632 -1.94522 -3.69528 0
M  V30 1848 N 164.069 0.697108 -1.41344 0
M  V30 1849 C 165.309 1.46939 -1.42085 0
M  V30 1850 C 165.673 1.9198 -0.0280397 0
M  V30 1851 O 166.874 2.6865 0.0897504 0
M  V30 1852 C 165.145 2.64985 -2.39828 0
M  V30 1853 S 166.704 3.54147 -2.59085 0
M  V30 1854 H 163.522 0.502146 -0.503359 0
M  V30 1855 H 166.124 0.813546 -1.77769 0
M  V30 1856 H 164.828 2.30098 -3.39828 0
M  V30 1857 H 164.359 3.35464 -2.05493 0
M  V30 1858 H 166.374 4.60137 -1.85711 0
M  V30 1859 N 165.547 1.27147 0.931209 0
M  V30 1860 C 166.457 1.11372 2.06478 0
M  V30 1861 C 167.473 0.044645 1.73943 0
M  V30 1862 O 168.649 0.250417 1.99837 0
M  V30 1863 C 165.714 0.758838 3.38294 0
M  V30 1864 C 164.775 1.90841 3.84549 0
M  V30 1865 C 164.008 1.57036 5.10074 0
M  V30 1866 O 164.231 0.476645 5.68405 0
M  V30 1867 O 163.165 2.40839 5.51616 0
M  V30 1868 H 166.991 2.06493 2.22698 0
M  V30 1869 H 164.576 1.06301 1.04978 0
M  V30 1870 H 166.458 0.574098 4.17471 0
M  V30 1871 H 165.133 -0.162879 3.2329 0
M  V30 1872 H 164.04 2.14819 3.06274 0
M  V30 1873 H 165.373 2.81021 4.04089 0
M  V30 1874 N 167.025 -1.13721 1.09112 0
M  V30 1875 C 167.972 -2.19031 0.727591 0
M  V30 1876 C 168.942 -1.63555 -0.289656 0
M  V30 1877 O 170.127 -1.90023 -0.172026 0
M  V30 1878 C 167.267 -3.4477 0.15082 0
M  V30 1879 C 166.38 -4.14365 1.22172 0
M  V30 1880 C 165.515 -5.27709 0.608042 0
M  V30 1881 C 164.554 -5.89147 1.66047 0
M  V30 1882 N 163.691 -6.93929 1.06806 0
M  V30 1883 H 168.531 -2.49475 1.62991 0
M  V30 1884 H 166.068 -1.22499 0.81439 0
M  V30 1885 H 168.026 -4.16714 -0.201358 0
M  V30 1886 H 166.656 -3.14787 -0.714783 0
M  V30 1887 H 165.708 -3.40737 1.69122 0
M  V30 1888 H 167.02 -4.56114 2.01895 0
M  V30 1889 H 166.174 -6.06355 0.204523 0
M  V30 1890 H 164.913 -4.872 -0.220769 0
M  V30 1891 H 163.918 -5.09198 2.07357 0
M  V30 1892 H 165.143 -6.31729 2.49189 0
M  V30 1893 H 163.089 -6.55483 0.260476 0
M  V30 1894 H 163.006 -7.34202 1.8023 0
M  V30 1895 H 164.274 -7.76434 0.690644 0
M  V30 1896 N 168.503 -0.877838 -1.30888 0
M  V30 1897 C 169.733 -0.506678 -2.00291 0
M  V30 1898 C 170.141 0.907449 -1.66018 0
M  V30 1899 O 169.484 1.60719 -0.88967 0
M  V30 1900 C 169.546 -0.59323 -3.54572 0
M  V30 1901 C 169.21 -1.97038 -4.12341 0
M  V30 1902 C 170.207 -2.93889 -4.28865 0
M  V30 1903 C 167.892 -2.27383 -4.47886 0
M  V30 1904 C 169.886 -4.19224 -4.80136 0
M  V30 1905 C 167.573 -3.52965 -4.98857 0
M  V30 1906 C 168.571 -4.48701 -5.14934 0
M  V30 1907 O 168.259 -5.72056 -5.64808 0
M  V30 1908 H 167.991 -0.1951 -0.647234 0
M  V30 1909 H 170.545 -1.18301 -1.6791 0
M  V30 1910 H 168.775 0.140057 -3.86446 0
M  V30 1911 H 170.464 -0.234372 -4.05223 0
M  V30 1912 H 171.23 -2.71756 -4.01714 0
M  V30 1913 H 167.109 -1.53639 -4.34645 0
M  V30 1914 H 170.653 -4.93956 -4.92599 0
M  V30 1915 H 166.55 -3.74939 -5.25443 0
M  V30 1916 H 167.318 -5.74337 -5.83163 0
M  V30 1917 N 169.982 1.44106 -0.638065 0
M  V30 1918 C 170.892 2.34513 0.0637334 0
M  V30 1919 C 171.908 1.53018 0.828346 0
M  V30 1920 O 173.084 1.85723 0.779036 0
M  V30 1921 C 170.149 3.31095 1.02844 0
M  V30 1922 C 169.21 4.28497 0.26244 0
M  V30 1923 C 168.443 5.20465 1.1812 0
M  V30 1924 O 168.666 5.16514 2.42011 0
M  V30 1925 O 167.6 5.98251 0.661774 0
M  V30 1926 H 171.426 2.95989 -0.68003 0
M  V30 1927 H 169.011 1.43994 -0.398252 0
M  V30 1928 H 170.893 3.90526 1.58327 0
M  V30 1929 H 169.568 2.72144 1.7527 0
M  V30 1930 H 168.475 3.72592 -0.335602 0
M  V30 1931 H 169.808 4.90388 -0.421936 0
M  V30 1932 N 171.46 0.379036 1.52974 0
M  V30 1933 C 172.876 0.0285448 1.59574 0
M  V30 1934 C 173.076 -1.45542 1.39355 0
M  V30 1935 O 172.132 -2.2187 1.20541 0
M  V30 1936 C 173.445 0.496535 2.96572 0
M  V30 1937 C 174.993 0.451909 3.0972 0
M  V30 1938 C 175.468 0.895924 4.49152 0
M  V30 1939 N 176.959 0.851522 4.55306 0
M  V30 1940 C 177.694 1.16661 5.61407 0
M  V30 1941 N 177.19 1.55166 6.752 0
M  V30 1942 N 178.983 1.08853 5.51459 0
M  V30 1943 H 171.134 1.34525 1.64367 0
M  V30 1944 H 173.397 0.550733 0.771619 0
M  V30 1945 H 173.103 1.53258 3.16552 0
M  V30 1946 H 172.977 -0.109802 3.7704 0
M  V30 1947 H 175.364 -0.575029 2.89443 0
M  V30 1948 H 175.445 1.09392 2.3123 0
M  V30 1949 H 175.089 1.92104 4.70168 0
M  V30 1950 H 175.019 0.23103 5.26093 0
M  V30 1951 H 177.51 0.568038 3.73606 0
M  V30 1952 H 177.823 1.776 7.52116 0
M  V30 1953 H 176.168 1.59044 6.76557 0
M  V30 1954 H 179.359 0.786803 4.6144 0
M  V30 1955 H 179.532 1.33742 6.34048 0
M  V30 1956 N 172.938 -1.57226 0.108567 0
M  V30 1957 C 173.848 -2.18292 -0.859401 0
M  V30 1958 C 174.864 -1.15612 -1.30038 0
M  V30 1959 O 176.04 -1.48039 -1.36552 0
M  V30 1960 C 173.105 -2.762 -2.09558 0
M  V30 1961 C 172.166 -3.93881 -1.70752 0
M  V30 1962 C 171.399 -4.49018 -2.88477 0
M  V30 1963 O 171.622 -4.03068 -4.036 0
M  V30 1964 O 170.556 -5.39852 -2.66164 0
M  V30 1965 H 174.382 -3.01441 -0.369769 0
M  V30 1966 H 171.967 -1.48945 -0.1165 0
M  V30 1967 H 173.849 -3.13156 -2.81978 0
M  V30 1968 H 172.524 -1.96089 -2.57548 0
M  V30 1969 H 171.431 -3.61713 -0.954714 0
M  V30 1970 H 172.764 -4.75396 -1.27513 0
M  V30 1971 N 174.416 0.165178 -1.56732 0
M  V30 1972 C 175.665 0.879143 -1.81532 0
M  V30 1973 C 175.978 1.83144 -0.686842 0
M  V30 1974 O 177.184 2.58823 -0.819944 0
M  V30 1975 C 175.64 1.61388 -3.21686 0
M  V30 1976 C 175.248 0.704904 -4.4242 0
M  V30 1977 C 176.992 2.3157 -3.55774 0
M  V30 1978 C 174.899 1.44022 -5.73595 0
M  V30 1979 H 173.829 0.332033 -0.676957 0
M  V30 1980 H 176.48 0.132008 -1.83025 0
M  V30 1981 H 174.862 2.40599 -3.14529 0
M  V30 1982 H 176.036 -0.0506815 -4.60772 0
M  V30 1983 H 174.351 0.112419 -4.16248 0
M  V30 1984 H 176.948 2.8719 -4.51028 0
M  V30 1985 H 177.291 3.07201 -2.8095 0
M  V30 1986 H 177.824 1.59297 -3.64513 0
M  V30 1987 H 174.563 0.72612 -6.51466 0
M  V30 1988 H 174.083 2.16898 -5.5921 0
M  V30 1989 H 175.762 1.98606 -6.15764 0
M  V30 1990 N 175.894 1.51508 0.433938 0
M  V30 1991 C 177.31 1.39759 0.770682 0
M  V30 1992 C 177.51 0.482594 1.95636 0
M  V30 1993 O 176.566 -0.0609691 2.52426 0
M  V30 1994 C 177.879 2.81851 1.04787 0
M  V30 1995 C 179.427 2.91025 1.1521 0
M  V30 1996 C 179.902 4.34032 1.46219 0
M  V30 1997 N 181.393 4.37154 1.53136 0
M  V30 1998 C 182.128 5.4484 1.78709 0
M  V30 1999 N 181.624 6.62682 2.02051 0
M  V30 2000 N 183.417 5.32324 1.80519 0
M  V30 2001 H 175.568 2.09548 -0.346892 0
M  V30 2002 H 177.831 0.943446 -0.0928074 0
M  V30 2003 H 177.537 3.50815 0.249304 0
M  V30 2004 H 177.411 3.21386 1.97461 0
M  V30 2005 H 179.798 2.22257 1.94128 0
M  V30 2006 H 179.879 2.54983 0.204281 0
M  V30 2007 H 179.523 5.03351 0.678274 0
M  V30 2008 H 179.453 4.6759 2.42212 0
M  V30 2009 H 181.944 3.52197 1.36987 0
M  V30 2010 H 182.257 7.40543 2.20943 0
M  V30 2011 H 180.602 6.65791 1.99366 0
M  V30 2012 H 183.793 4.39246 1.61805 0
M  V30 2013 H 183.966 6.16328 2.00111 0
M  V30 2014 N 177.372 -0.689602 1.41712 0
M  V30 2015 C 178.597 -1.48329 1.44959 0
M  V30 2016 C 179.022 -1.8801 0.0581283 0
M  V30 2017 O 178.38 -1.55026 -0.940035 0
M  V30 2018 C 178.428 -2.71835 2.36935 0
M  V30 2019 O 177.532 -3.69549 1.8305 0
M  V30 2020 H 176.873 -0.446199 0.491734 0
M  V30 2021 H 179.403 -0.847127 1.86239 0
M  V30 2022 H 179.413 -3.20076 2.53013 0
M  V30 2023 H 178.088 -2.42291 3.38035 0
M  V30 2024 H 176.665 -3.2851 1.76452 0
M  V30 2025 N 178.85 -1.27639 -0.924453 0
M  V30 2026 C 179.813 -1.10681 -2.00705 0
M  V30 2027 C 180.813 -0.0497823 -1.60723 0
M  V30 2028 O 182.003 -0.294654 -1.7169 0
M  V30 2029 C 179.135 -0.687164 -3.33902 0
M  V30 2030 H 180.328 -2.06817 -2.17179 0
M  V30 2031 H 177.881 -1.10473 -1.10569 0
M  V30 2032 H 178.616 0.275439 -3.23128 0
M  V30 2033 H 178.401 -1.45061 -3.6428 0
M  V30 2034 H 179.891 -0.590853 -4.13399 0
M  V30 2035 N 180.328 1.1314 -1.09713 0
M  V30 2036 C 181.556 1.88321 -0.856898 0
M  V30 2037 C 181.971 1.79276 0.592073 0
M  V30 2038 O 181.328 1.16142 1.40774 0
M  V30 2039 C 181.379 3.37812 -1.28706 0
M  V30 2040 O 181.1 3.46627 -2.67921 0
M  V30 2041 C 182.601 4.29952 -1.07964 0
M  V30 2042 H 179.821 0.596094 -0.308079 0
M  V30 2043 H 182.365 1.43205 -1.45988 0
M  V30 2044 H 180.52 3.805 -0.727912 0
M  V30 2045 H 180.934 4.39579 -2.8613 0
M  V30 2046 H 182.408 5.33159 -1.42986 0
M  V30 2047 H 182.885 4.39196 -0.0176577 0
M  V30 2048 H 183.491 3.93036 -1.62489 0
M  V30 2049 N 181.806 0.884767 1.30421 0
M  V30 2050 C 183.083 0.423185 1.90967 0
M  V30 2051 C 183.463 -1.09605 1.80416 0
M  V30 2052 O 182.811 -1.93126 1.22125 0
M  V30 2053 C 183.021 0.921056 3.36627 0
M  V30 2054 C 184.369 0.955903 4.137 0
M  V30 2055 O 185.393 0.867706 3.4547 0
M  V30 2056 O 184.252 1.08614 5.35598 0
M  V30 2057 H 181.346 0.129369 0.816819 0
M  V30 2058 H 183.892 0.973653 1.3899 0
M  V30 2059 H 182.664 1.96489 3.3839 0
M  V30 2060 H 182.287 0.349741 3.96059 0
M  V30 2061 N 183.284 -1.43765 0.645699 0
M  V30 2062 C 184.216 -2.29027 -0.0890605 0
M  V30 2063 C 185.229 -1.42093 -0.794563 0
M  V30 2064 O 186.418 -1.66104 -0.653575 0
M  V30 2065 C 183.518 -3.18831 -1.14891 0
M  V30 2066 C 182.691 -4.34261 -0.523043 0
M  V30 2067 C 181.75 -5.04994 -1.47878 0
M  V30 2068 O 180.776 -5.6052 -0.990277 0
M  V30 2069 N 181.978 -5.07795 -2.81291 0
M  V30 2070 H 184.743 -2.92727 0.64272 0
M  V30 2071 H 182.304 -1.54373 0.487924 0
M  V30 2072 H 184.296 -3.63015 -1.78892 0
M  V30 2073 H 182.866 -2.56782 -1.78275 0
M  V30 2074 H 182.086 -3.93088 0.295896 0
M  V30 2075 H 183.374 -5.08728 -0.0858147 0
M  V30 2076 H 182.772 -4.64042 -3.23546 0
M  V30 2077 H 181.329 -5.55721 -3.40614 0
M  V30 2078 N 184.763 -0.387143 -1.52771 0
M  V30 2079 C 186.01 0.195735 -2.01552 0
M  V30 2080 C 186.338 1.46995 -1.27369 0
M  V30 2081 O 185.593 1.92325 -0.361879 0
M  V30 2082 C 185.892 0.512209 -3.53711 0
M  V30 2083 C 185.558 -0.670202 -4.45891 0
M  V30 2084 C 184.22 -0.994586 -4.70809 0
M  V30 2085 C 186.572 -1.46134 -5.00294 0
M  V30 2086 C 183.9 -2.11169 -5.4738 0
M  V30 2087 C 186.252 -2.56903 -5.78086 0
M  V30 2088 C 184.916 -2.89852 -6.01284 0
M  V30 2089 H 184.186 0.0716246 -0.73753 0
M  V30 2090 H 186.833 -0.524046 -1.8419 0
M  V30 2091 H 185.138 1.31329 -3.69134 0
M  V30 2092 H 186.835 0.975804 -3.88946 0
M  V30 2093 H 183.425 -0.407366 -4.2666 0
M  V30 2094 H 187.609 -1.22397 -4.80971 0
M  V30 2095 H 182.865 -2.3707 -5.63567 0
M  V30 2096 H 187.039 -3.18608 -6.19243 0
M  V30 2097 H 184.666 -3.76533 -6.60399 0
M  V30 2098 N 186.241 1.57166 -0.116904 0
M  V30 2099 C 187.518 1.86645 0.585049 0
M  V30 2100 C 187.898 1.0177 1.84949 0
M  V30 2101 O 187.246 0.0960379 2.28298 0
M  V30 2102 C 187.456 3.37736 0.879507 0
M  V30 2103 C 188.804 4.06289 1.23348 0
M  V30 2104 O 189.828 3.42743 0.969836 0
M  V30 2105 O 188.687 5.18455 1.7282 0
M  V30 2106 H 185.781 0.772593 0.295007 0
M  V30 2107 H 188.327 1.69025 -0.151249 0
M  V30 2108 H 187.099 3.91296 -0.0166136 0
M  V30 2109 H 186.722 3.6078 1.67103 0
M  V30 2110 N 187.719 -0.156864 1.56817 0
M  V30 2111 C 188.649 -1.19589 2.00551 0
M  V30 2112 C 189.63 -1.4536 0.883426 0
M  V30 2113 O 190.815 -1.56449 1.15054 0
M  V30 2114 C 187.945 -2.53143 2.37773 0
M  V30 2115 C 186.899 -2.41913 3.53075 0
M  V30 2116 C 186.225 -3.80088 3.76081 0
M  V30 2117 C 187.525 -1.91157 4.86062 0
M  V30 2118 H 189.219 -0.832293 2.87599 0
M  V30 2119 H 186.765 -0.398918 1.38364 0
M  V30 2120 H 188.718 -3.26047 2.66967 0
M  V30 2121 H 187.442 -2.91319 1.4765 0
M  V30 2122 H 186.101 -1.71462 3.24031 0
M  V30 2123 H 185.749 -4.15683 2.83225 0
M  V30 2124 H 185.449 -3.73439 4.53671 0
M  V30 2125 H 186.973 -4.54556 4.0769 0
M  V30 2126 H 188.387 -2.53846 5.14038 0
M  V30 2127 H 186.784 -1.95422 5.67389 0
M  V30 2128 H 187.854 -0.866673 4.77092 0
M  V30 2129 N 189.197 -1.51736 -0.425897 0
M  V30 2130 C 190.16 -1.73271 -1.50032 0
M  V30 2131 C 191.16 -0.602639 -1.4908 0
M  V30 2132 O 192.35 -0.87033 -1.509 0
M  V30 2133 C 189.482 -1.79969 -2.89523 0
M  V30 2134 H 190.675 -2.69172 -1.32237 0
M  V30 2135 H 188.228 -1.41899 -0.65532 0
M  V30 2136 H 188.963 -0.859241 -3.1271 0
M  V30 2137 H 188.748 -2.62109 -2.91619 0
M  V30 2138 H 190.238 -1.9843 -3.67444 0
M  V30 2139 N 190.675 0.682077 -1.42076 0
M  V30 2140 C 191.924 1.43786 -1.41451 0
M  V30 2141 C 192.237 1.95574 -0.0317074 0
M  V30 2142 O 193.443 2.71326 0.0971462 0
M  V30 2143 C 191.899 2.60071 -2.48779 0
M  V30 2144 C 191.507 2.15013 -3.93031 0
M  V30 2145 C 193.251 3.37626 -2.57311 0
M  V30 2146 C 191.158 3.28336 -4.91883 0
M  V30 2147 H 190.088 0.540143 -0.526082 0
M  V30 2148 H 192.739 0.739157 -1.67955 0
M  V30 2149 H 191.121 3.32275 -2.15429 0
M  V30 2150 H 192.295 1.5001 -4.35699 0
M  V30 2151 H 190.61 1.50416 -3.88284 0
M  V30 2152 H 193.207 4.22012 -3.28345 0
M  V30 2153 H 193.55 3.83727 -1.61429 0
M  V30 2154 H 194.083 2.72488 -2.89819 0
M  V30 2155 H 190.822 2.87234 -5.89217 0
M  V30 2156 H 190.342 3.92145 -4.53853 0
M  V30 2157 H 192.021 3.93913 -5.13265 0
M  V30 2158 N 192.153 1.28127 0.917671 0
M  V30 2159 C 193.083 1.14248 2.03641 0
M  V30 2160 C 194.064 0.0412748 1.7005 0
M  V30 2161 O 195.249 0.217566 1.92977 0
M  V30 2162 C 192.379 0.799431 3.37974 0
M  V30 2163 C 191.333 1.85497 3.85713 0
M  V30 2164 C 190.659 1.36565 5.16966 0
M  V30 2165 C 191.959 3.26085 4.08002 0
M  V30 2166 H 193.653 2.07835 2.15511 0
M  V30 2167 H 191.199 1.00064 1.03553 0
M  V30 2168 H 193.152 0.689114 4.15727 0
M  V30 2169 H 191.876 -0.172145 3.26146 0
M  V30 2170 H 190.535 1.95437 3.10161 0
M  V30 2171 H 190.183 0.383253 5.01538 0
M  V30 2172 H 189.883 2.07143 5.49878 0
M  V30 2173 H 191.407 1.26848 5.97279 0
M  V30 2174 H 192.821 3.19089 4.76293 0
M  V30 2175 H 191.218 3.94462 4.52238 0
M  V30 2176 H 192.288 3.70394 3.12948 0
M  V30 2177 N 193.631 -1.12557 1.10312 0
M  V30 2178 C 194.879 -1.83675 0.843091 0
M  V30 2179 C 195.2 -1.84435 -0.633131 0
M  V30 2180 O 194.47 -1.30657 -1.45964 0
M  V30 2181 H 193.05 -0.680138 0.308904 0
M  V30 2182 H 195.712 -1.36301 1.39313 0
M  V30 2183 H 194.808 -2.87908 1.2048 0
M  V30 2184 N 195.109 -0.891671 -1.2995 0
M  V30 2185 C 196.042 -0.307994 -2.26112 0
M  V30 2186 C 197.02 0.575262 -1.52084 0
M  V30 2187 O 198.204 0.523864 -1.81074 0
M  V30 2188 C 195.331 0.561734 -3.34009 0
M  V30 2189 C 194.377 -0.253107 -4.25748 0
M  V30 2190 S 195.21 -1.64572 -5.09584 0
M  V30 2191 C 196.366 -0.782699 -6.20987 0
M  V30 2192 H 196.599 -1.12309 -2.75271 0
M  V30 2193 H 194.132 -0.691509 -1.38049 0
M  V30 2194 H 196.09 1.05777 -3.96638 0
M  V30 2195 H 194.751 1.35099 -2.83561 0
M  V30 2196 H 193.944 0.410908 -5.02322 0
M  V30 2197 H 193.546 -0.682004 -3.67729 0
M  V30 2198 H 195.838 -0.00257476 -6.775 0
M  V30 2199 H 196.781 -1.52026 -6.91588 0
M  V30 2200 H 197.189 -0.340638 -5.63471 0
M  V30 2201 N 196.587 1.43421 -0.653314 0
M  V30 2202 C 197.835 2.01414 -0.166415 0
M  V30 2203 C 198.156 1.51803 1.22397 0
M  V30 2204 O 197.426 0.730693 1.81763 0
M  V30 2205 H 196.006 0.744703 -0.0585319 0
M  V30 2206 H 198.668 1.75629 -0.845003 0
M  V30 2207 H 197.764 3.11734 -0.151111 0
M  V30 2208 N 198.065 0.39524 1.52563 0
M  V30 2209 C 199.476 -0.0774719 1.86539 0
M  V30 2210 C 199.827 -1.45641 1.31466 0
M  V30 2211 O 198.952 -2.06459 0.648367 0
M  V30 2212 C 199.547 -0.147356 3.38479 0
M  V30 2213 C 198.106 -0.564373 3.72145 0
M  V30 2214 C 197.253 0.269919 2.75983 0
M  V30 2215 H 200.204 0.612876 1.46388 0
M  V30 2216 H 200.225 -0.965343 3.68051 0
M  V30 2217 H 199.737 0.856387 3.78534 0
M  V30 2218 H 197.838 -1.57527 3.37663 0
M  V30 2219 H 197.951 -0.318402 4.78041 0
M  V30 2220 H 196.315 -0.265696 2.5331 0
M  V30 2221 H 197.098 1.27175 3.18875 0
M  V30 2222 N 199.544 -1.57102 0.125237 0
M  V30 2223 C 200.821 -1.86953 -0.575142 0
M  V30 2224 C 201.201 -1.02749 -1.84407 0
M  V30 2225 O 200.549 -0.108144 -2.28244 0
M  V30 2226 C 200.759 -3.38198 -0.861583 0
M  V30 2227 C 202.107 -4.06937 -1.21192 0
M  V30 2228 O 203.131 -3.43252 -0.951645 0
M  V30 2229 O 201.99 -5.19364 -1.70068 0
M  V30 2230 H 199.084 -0.774147 -0.290906 0
M  V30 2231 H 201.63 -1.68942 0.160211 0
M  V30 2232 H 200.402 -3.91282 0.0373647 0
M  V30 2233 H 200.025 -3.61661 -1.65188 0
M  V30 2234 N 201.022 0.148545 -1.56898 0
M  V30 2235 C 202.27 0.859717 -1.82902 0
M  V30 2236 C 202.591 1.81775 -0.70588 0
M  V30 2237 O 201.861 1.93994 0.272586 0
M  V30 2238 H 200.441 0.320469 -0.674766 0
M  V30 2239 H 203.103 0.142918 -1.94375 0
M  V30 2240 H 202.199 1.4229 -2.77777 0
M  V30 2241 N 202.5 1.5196 0.417844 0
M  V30 2242 C 203.45 1.7106 1.5074 0
M  V30 2243 C 204.434 0.564487 1.50673 0
M  V30 2244 O 205.626 0.821206 1.56797 0
M  V30 2245 C 202.755 1.85677 2.88754 0
M  V30 2246 C 201.841 3.06133 2.93502 0
M  V30 2247 N 202.232 4.28987 2.67962 0
M  V30 2248 C 200.53 3.05787 3.24669 0
M  V30 2249 C 201.231 5.10395 2.79055 0
M  V30 2250 N 200.207 4.45455 3.11561 0
M  V30 2251 H 204.009 2.63696 1.29775 0
M  V30 2252 H 201.523 1.49873 0.625436 0
M  V30 2253 H 203.52 1.97475 3.67164 0
M  V30 2254 H 202.18 0.942348 3.10725 0
M  V30 2255 H 203.191 4.57607 2.4252 0
M  V30 2256 H 199.868 2.2405 3.52289 0
M  V30 2257 H 201.258 6.18247 2.63097 0
M  V30 2258 N 203.978 -0.674533 1.42435 0
M  V30 2259 C 205.224 -1.43671 1.43131 0
M  V30 2260 C 205.557 -1.94142 0.0476021 0
M  V30 2261 O 204.832 -1.70924 -0.928188 0
M  V30 2262 C 205.115 -2.63355 2.45594 0
M  V30 2263 C 204.968 -2.18514 3.93156 0
M  V30 2264 C 206.287 -3.65571 2.45043 0
M  V30 2265 H 203.406 -0.521077 0.521198 0
M  V30 2266 H 206.048 -0.766551 1.7385 0
M  V30 2267 H 204.198 -3.2053 2.19528 0
M  V30 2268 H 205.87 -1.66504 4.30202 0
M  V30 2269 H 204.113 -1.50086 4.07009 0
M  V30 2270 H 204.784 -3.04484 4.60428 0
M  V30 2271 H 207.26 -3.18113 2.68223 0
M  V30 2272 H 206.136 -4.46893 3.18713 0
M  V30 2273 H 206.397 -4.16716 1.47649 0
M  V30 2274 N 205.456 -1.28612 -0.910864 0
M  V30 2275 C 206.419 -1.12803 -1.9952 0
M  V30 2276 C 207.419 -0.0668264 -1.60661 0
M  V30 2277 O 208.609 -0.312847 -1.71368 0
M  V30 2278 C 205.741 -0.72254 -3.33155 0
M  V30 2279 H 206.934 -2.09109 -2.14973 0
M  V30 2280 H 204.487 -1.11639 -1.09391 0
M  V30 2281 H 205.222 0.241152 -3.23402 0
M  V30 2282 H 205.007 -1.48916 -3.62721 0
M  V30 2283 H 206.497 -0.634666 -4.12749 0
M  V30 2284 N 206.934 1.1197 -1.10907 0
M  V30 2285 C 208.159 1.87942 -0.877064 0
M  V30 2286 C 208.584 1.79341 0.567314 0
M  V30 2287 O 207.942 1.15184 1.40009 0
M  V30 2288 C 207.99 3.34926 -1.33629 0
M  V30 2289 O 207.094 4.09303 -0.504447 0
M  V30 2290 H 206.435 0.583785 -0.316371 0
M  V30 2291 H 208.965 1.4157 -1.47712 0
M  V30 2292 H 208.975 3.8577 -1.32837 0
M  V30 2293 H 207.65 3.40504 -2.3881 0
M  V30 2294 H 206.227 3.68393 -0.577993 0
M  V30 2295 N 208.412 0.89855 1.29475 0
M  V30 2296 C 209.661 0.519863 1.94885 0
M  V30 2297 C 209.974 -0.9383 1.71625 0
M  V30 2298 O 211.18 -1.42445 2.31131 0
M  V30 2299 C 209.636 0.878836 3.49005 0
M  V30 2300 C 209.244 2.35569 3.81066 0
M  V30 2301 C 210.988 0.570004 4.20656 0
M  V30 2302 C 208.895 2.65558 5.28425 0
M  V30 2303 H 207.825 0.190692 0.729488 0
M  V30 2304 H 210.476 1.09539 1.47219 0
M  V30 2305 H 208.858 0.232253 3.95318 0
M  V30 2306 H 210.032 3.04773 3.45616 0
M  V30 2307 H 208.347 2.63343 3.22552 0
M  V30 2308 H 210.944 0.770925 5.29113 0
M  V30 2309 H 211.287 -0.491404 4.1339 0
M  V30 2310 H 211.82 1.17438 3.8007 0
M  V30 2311 H 208.559 3.70493 5.40754 0
M  V30 2312 H 208.079 2.00977 5.65127 0
M  V30 2313 H 209.758 2.51765 5.96006 0
M  V30 2314 N 209.89 -1.43072 0.660911 0
M  V30 2315 C 211.137 -2.01721 0.177445 0
M  V30 2316 C 211.465 -1.5218 -1.21126 0
M  V30 2317 O 210.72 -0.708659 -1.82419 0
M  V30 2318 C 211.019 -3.57103 0.145563 0
M  V30 2319 C 210.685 -4.26021 1.47705 0
M  V30 2320 C 209.347 -4.44563 1.84165 0
M  V30 2321 C 211.699 -4.64983 2.35458 0
M  V30 2322 C 209.027 -4.99334 3.0803 0
M  V30 2323 C 211.379 -5.21127 3.58622 0
M  V30 2324 C 210.043 -5.37884 3.95268 0
M  V30 2325 H 209.313 -0.73815 0.0649317 0
M  V30 2326 H 211.96 -1.71446 0.853144 0
M  V30 2327 H 210.265 -3.86965 -0.61361 0
M  V30 2328 H 211.962 -4.00248 -0.2455 0
M  V30 2329 H 208.552 -4.11939 1.18339 0
M  V30 2330 H 212.736 -4.50343 2.08579 0
M  V30 2331 H 207.992 -5.10493 3.36462 0
M  V30 2332 H 212.166 -5.50262 4.26831 0
M  V30 2333 H 209.793 -5.80089 4.91325 0
M  V30 2334 N 211.368 -0.403325 -1.52352 0
M  V30 2335 C 212.645 0.232611 -1.94212 0
M  V30 2336 C 213.025 1.63133 -1.33981 0
M  V30 2337 O 212.373 2.22659 -0.513344 0
M  V30 2338 C 212.583 0.244811 -3.4814 0
M  V30 2339 C 213.931 0.46698 -4.22024 0
M  V30 2340 O 214.955 0.324419 -3.5472 0
M  V30 2341 O 213.814 0.74747 -5.41364 0
M  V30 2342 H 210.908 0.148223 -0.813609 0
M  V30 2343 H 213.454 -0.458848 -1.63379 0
M  V30 2344 H 212.226 -0.734378 -3.84347 0
M  V30 2345 H 211.849 0.980611 -3.85318 0
M  V30 2346 N 212.846 1.57033 -0.133567 0
M  V30 2347 C 213.776 2.1909 0.807567 0
M  V30 2348 C 214.757 1.13517 1.26681 0
M  V30 2349 O 215.942 1.41809 1.32679 0
M  V30 2350 C 213.072 2.80188 2.05212 0
M  V30 2351 C 212.026 3.91471 1.73015 0
M  V30 2352 C 211.352 4.39443 3.04622 0
M  V30 2353 C 212.652 5.12886 0.987168 0
M  V30 2354 H 214.346 2.97988 0.290403 0
M  V30 2355 H 211.892 1.43335 0.138239 0
M  V30 2356 H 213.845 3.22264 2.71521 0
M  V30 2357 H 212.569 1.98601 2.59278 0
M  V30 2358 H 211.228 3.49993 1.0909 0
M  V30 2359 H 210.876 3.54695 3.56651 0
M  V30 2360 H 210.576 5.14495 2.83847 0
M  V30 2361 H 212.1 4.8418 3.72024 0
M  V30 2362 H 213.514 5.51891 1.55208 0
M  V30 2363 H 211.911 5.93615 0.87985 0
M  V30 2364 H 212.981 4.84894 -0.0235286 0
M  V30 2365 N 214.325 -0.140222 1.56975 0
M  V30 2366 C 215.235 -1.19223 2.02047 0
M  V30 2367 C 216.251 -1.46612 0.937062 0
M  V30 2368 O 217.427 -1.58148 1.24704 0
M  V30 2369 C 214.492 -2.50414 2.39778 0
M  V30 2370 C 213.553 -2.30612 3.621 0
M  V30 2371 C 212.786 -3.55547 3.98023 0
M  V30 2372 O 213.009 -4.62004 3.34528 0
M  V30 2373 O 211.943 -3.47808 4.91237 0
M  V30 2374 H 215.769 -0.839559 2.91865 0
M  V30 2375 H 213.354 -0.349453 1.45256 0
M  V30 2376 H 215.236 -3.27747 2.64877 0
M  V30 2377 H 213.911 -2.85198 1.53114 0
M  V30 2378 H 212.818 -1.51207 3.4218 0
M  V30 2379 H 214.151 -2.00741 4.49404 0
M  V30 2380 N 215.803 -1.52179 -0.40978 0
M  V30 2381 C 217.031 -1.70054 -1.17853 0
M  V30 2382 C 217.446 -0.409735 -1.843 0
M  V30 2383 O 216.803 0.614183 -1.71855 0
M  V30 2384 C 216.854 -2.83568 -2.24213 0
M  V30 2385 O 216.575 -4.0765 -1.60478 0
M  V30 2386 C 218.076 -3.12947 -3.13973 0
M  V30 2387 H 215.296 -0.569917 -0.354169 0
M  V30 2388 H 217.84 -1.98734 -0.482198 0
M  V30 2389 H 215.995 -2.57409 -2.89516 0
M  V30 2390 H 216.409 -4.70899 -2.30986 0
M  V30 2391 H 217.883 -3.95889 -3.84677 0
M  V30 2392 H 218.36 -2.26472 -3.76307 0
M  V30 2393 H 218.966 -3.40868 -2.5434 0
M  V30 2394 N 217.281 0.66697 -1.42791 0
M  V30 2395 C 218.529 1.42417 -1.43394 0
M  V30 2396 C 218.85 1.94925 -0.0542373 0
M  V30 2397 O 218.12 1.73564 0.908415 0
M  V30 2398 H 216.7 0.528515 -0.527902 0
M  V30 2399 H 219.362 0.787562 -1.78279 0
M  V30 2400 H 218.458 2.27333 -2.13837 0
M  V30 2401 N 218.759 1.29093 0.90403 0
M  V30 2402 C 219.707 1.13727 2.02901 0
M  V30 2403 C 220.701 0.0539853 1.69314 0
M  V30 2404 O 221.907 0.213469 1.7873 0
M  V30 2405 H 218.282 0.35117 0.664969 0
M  V30 2406 H 220.253 2.08982 2.13001 0
M  V30 2407 C 219.002 0.826066 3.37745 0
M  V30 2408 H 218.325 1.65164 3.64089 0
M  V30 2409 H 219.765 0.758559 4.17159 0
M  V30 2410 C 218.224 -0.470541 3.33598 0
M  V30 2411 O 218.754 -1.49792 3.72727 0
M  V30 2412 N 216.96 -0.474812 2.86695 0
M  V30 2413 H 216.507 0.361692 2.55048 0
M  V30 2414 H 216.465 -1.34236 2.84303 0
M  V30 2415 N 220.237 -1.11381 1.11499 0
M  V30 2416 C 221.184 -2.17439 0.773887 0
M  V30 2417 C 222.154 -1.64132 -0.254899 0
M  V30 2418 O 223.339 -1.90345 -0.13168 0
M  V30 2419 C 220.479 -3.44373 0.223917 0
M  V30 2420 C 219.592 -4.1168 1.30934 0
M  V30 2421 C 218.727 -5.263 0.71984 0
M  V30 2422 C 217.766 -5.85493 1.78507 0
M  V30 2423 N 216.903 -6.91507 1.21502 0
M  V30 2424 H 221.743 -2.45962 1.68246 0
M  V30 2425 H 219.28 -1.20744 0.840191 0
M  V30 2426 H 221.238 -4.17047 -0.112921 0
M  V30 2427 H 219.868 -3.16232 -0.647851 0
M  V30 2428 H 218.92 -3.37073 1.76312 0
M  V30 2429 H 220.232 -4.51729 2.11524 0
M  V30 2430 H 219.386 -6.05785 0.333094 0
M  V30 2431 H 218.125 -4.87559 -0.117377 0
M  V30 2432 H 217.13 -5.04686 2.18111 0
M  V30 2433 H 218.355 -6.26301 2.62533 0
M  V30 2434 H 216.301 -6.54783 0.399455 0
M  V30 2435 H 216.218 -7.30214 1.95763 0
M  V30 2436 H 217.486 -7.74795 0.855181 0
M  V30 2437 N 221.715 -0.905404 -1.28997 0
M  V30 2438 C 222.992 -0.453513 -1.9027 0
M  V30 2439 C 223.372 1.06721 -1.82137 0
M  V30 2440 O 222.72 1.91159 -1.25182 0
M  V30 2441 C 222.93 -0.974494 -3.35119 0
M  V30 2442 C 224.278 -1.0216 -4.12127 0
M  V30 2443 O 225.302 -0.922557 -3.44046 0
M  V30 2444 O 224.161 -1.17121 -5.33802 0
M  V30 2445 H 221.255 -0.142347 -0.814657 0
M  V30 2446 H 223.801 -0.995642 -1.37423 0
M  V30 2447 H 222.573 -2.01848 -3.35221 0
M  V30 2448 H 222.196 -0.412706 -3.95452 0
M  V30 2449 N 223.193 1.4272 -0.668489 0
M  V30 2450 C 224.141 2.32586 0.0254857 0
M  V30 2451 C 225.135 1.49471 0.797176 0
M  V30 2452 O 226.341 1.65583 0.705853 0
M  V30 2453 H 222.716 0.751514 0.0270339 0
M  V30 2454 H 224.687 2.88823 -0.749936 0
M  V30 2455 C 223.436 3.3397 0.967427 0
M  V30 2456 H 222.759 3.97961 0.383048 0
M  V30 2457 H 224.199 3.9945 1.42181 0
M  V30 2458 C 222.658 2.65744 2.0708 0
M  V30 2459 O 223.188 2.48454 3.15648 0
M  V30 2460 N 221.394 2.2487 1.8407 0
M  V30 2461 H 220.941 2.39132 0.95778 0
M  V30 2462 H 220.899 1.79552 2.58086 0
M  V30 2463 N 224.671 0.411399 1.52136 0
M  V30 2464 C 225.601 -0.404015 2.29978 0
M  V30 2465 C 226.582 -1.04412 1.34284 0
M  V30 2466 O 227.767 -1.0527 1.63192 0
M  V30 2467 C 224.897 -1.5197 3.12286 0
M  V30 2468 C 223.851 -1.00448 4.16046 0
M  V30 2469 C 223.177 -2.21393 4.86712 0
M  V30 2470 C 224.477 -0.0569336 5.22269 0
M  V30 2471 H 226.171 0.245529 2.98392 0
M  V30 2472 H 223.717 0.119525 1.43503 0
M  V30 2473 H 225.67 -2.09715 3.6551 0
M  V30 2474 H 224.394 -2.19716 2.41646 0
M  V30 2475 H 223.053 -0.449421 3.63835 0
M  V30 2476 H 222.701 -2.87699 4.12599 0
M  V30 2477 H 222.401 -1.87571 5.56858 0
M  V30 2478 H 223.925 -2.7974 5.4275 0
M  V30 2479 H 225.339 -0.54325 5.7072 0
M  V30 2480 H 223.736 0.192594 5.99791 0
M  V30 2481 H 224.806 0.887663 4.76706 0
M  V30 2482 N 226.149 -1.5696 0.141893 0
M  V30 2483 C 227.395 -1.9625 -0.511248 0
M  V30 2484 C 227.728 -1.02654 -1.64851 0
M  V30 2485 O 227.003 -0.0679676 -1.94381 0
M  V30 2486 C 227.286 -3.45285 -1.02227 0
M  V30 2487 C 227.139 -4.49658 0.113138 0
M  V30 2488 C 228.458 -3.96698 -1.90574 0
M  V30 2489 H 225.577 -0.713567 -0.184367 0
M  V30 2490 H 228.219 -1.88698 0.222087 0
M  V30 2491 H 226.369 -3.51852 -1.64719 0
M  V30 2492 H 228.041 -4.55174 0.749302 0
M  V30 2493 H 226.284 -4.26857 0.773026 0
M  V30 2494 H 226.955 -5.51258 -0.286053 0
M  V30 2495 H 229.431 -3.92578 -1.37918 0
M  V30 2496 H 228.307 -5.01453 -2.2324 0
M  V30 2497 H 228.568 -3.3875 -2.84079 0
M  V30 2498 N 227.627 0.131896 -1.57047 0
M  V30 2499 C 228.855 0.856461 -1.88341 0
M  V30 2500 C 229.27 1.74042 -0.731757 0
M  V30 2501 O 228.627 1.80051 0.297945 0
M  V30 2502 C 228.678 1.70064 -3.18999 0
M  V30 2503 O 228.399 0.852278 -4.2973 0
M  V30 2504 C 229.9 2.53148 -3.63911 0
M  V30 2505 H 227.12 0.246885 -0.62393 0
M  V30 2506 H 229.664 0.120152 -2.04147 0
M  V30 2507 H 227.819 2.38984 -3.04902 0
M  V30 2508 H 228.233 1.43329 -5.04537 0
M  V30 2509 H 229.707 3.07931 -4.58129 0
M  V30 2510 H 230.184 3.29901 -2.89935 0
M  V30 2511 H 230.79 1.89492 -3.80753 0
M  V30 2512 N 229.106 1.52395 0.401703 0
M  V30 2513 C 230.353 1.66817 1.14796 0
M  V30 2514 C 230.681 0.401772 1.90305 0
M  V30 2515 O 229.936 -0.615487 1.85769 0
M  V30 2516 C 230.235 2.84578 2.16217 0
M  V30 2517 C 229.901 4.22513 1.5746 0
M  V30 2518 C 228.563 4.60029 1.41161 0
M  V30 2519 C 230.915 5.0844 1.14622 0
M  V30 2520 C 228.243 5.81144 0.80552 0
M  V30 2521 C 230.595 6.30167 0.55428 0
M  V30 2522 C 229.259 6.66426 0.378482 0
M  V30 2523 H 228.529 0.610428 0.420069 0
M  V30 2524 H 231.176 1.86512 0.434212 0
M  V30 2525 H 229.481 2.59248 2.93764 0
M  V30 2526 H 231.178 2.92933 2.73845 0
M  V30 2527 H 227.768 3.92953 1.71132 0
M  V30 2528 H 231.952 4.80034 1.26021 0
M  V30 2529 H 227.208 6.07855 0.657399 0
M  V30 2530 H 231.382 6.96071 0.213983 0
M  V30 2531 H 229.009 7.60143 -0.0932606 0
M  V30 2532 N 230.584 -0.659388 1.43143 0
M  V30 2533 C 231.812 -1.44723 1.47861 0
M  V30 2534 C 232.227 -1.88563 0.0945886 0
M  V30 2535 O 231.584 -1.59108 -0.893915 0
M  V30 2536 C 231.635 -2.68627 2.41913 0
M  V30 2537 O 231.356 -2.26623 3.74932 0
M  V30 2538 C 232.857 -3.62045 2.55809 0
M  V30 2539 H 230.077 -0.444801 0.502387 0
M  V30 2540 H 232.621 -0.808916 1.87821 0
M  V30 2541 H 230.776 -3.28613 2.05164 0
M  V30 2542 H 231.19 -3.06745 4.2545 0
M  V30 2543 H 232.664 -4.45666 3.25708 0
M  V30 2544 H 233.141 -4.08981 1.60099 0
M  V30 2545 H 233.747 -3.07944 2.93344 0
M  V30 2546 N 232.062 -1.29571 -0.897171 0
M  V30 2547 C 233.339 -1.08365 -1.62839 0
M  V30 2548 C 233.719 0.371331 -2.07808 0
M  V30 2549 O 233.067 1.3606 -1.83576 0
M  V30 2550 C 233.277 -2.0735 -2.80726 0
M  V30 2551 C 234.625 -2.38406 -3.51351 0
M  V30 2552 O 235.649 -2.05564 -2.90898 0
M  V30 2553 O 234.508 -2.9453 -4.60341 0
M  V30 2554 H 231.602 -0.415345 -0.715134 0
M  V30 2555 H 234.148 -1.40952 -0.945018 0
M  V30 2556 H 232.92 -3.05339 -2.44711 0
M  V30 2557 H 232.543 -1.75507 -3.56767 0
M  V30 2558 N 233.54 1.10788 -1.12088 0
M  V30 2559 C 234.951 1.64181 -0.88891 0
M  V30 2560 C 235.302 1.87508 0.577498 0
M  V30 2561 O 234.427 1.61434 1.44112 0
M  V30 2562 C 235.022 2.98257 -1.60712 0
M  V30 2563 C 233.581 3.4853 -1.42139 0
M  V30 2564 C 232.728 2.23208 -1.6454 0
M  V30 2565 H 235.679 0.943368 -1.27618 0
M  V30 2566 H 235.7 3.65552 -1.05604 0
M  V30 2567 H 235.212 2.81246 -2.67436 0
M  V30 2568 H 233.313 3.70692 -0.376552 0
M  V30 2569 H 233.426 4.26882 -2.17505 0
M  V30 2570 H 231.79 2.31169 -1.06925 0
M  V30 2571 H 232.573 2.08733 -2.72554 0
M  V30 2572 N 235.018 0.912232 1.28515 0
M  V30 2573 C 236.243 0.559774 1.99703 0
M  V30 2574 C 236.668 -0.851393 1.67729 0
M  V30 2575 O 236.026 -1.56875 0.908834 0
M  V30 2576 C 236.074 0.773874 3.52198 0
M  V30 2577 O 235.178 -0.167842 4.12058 0
M  V30 2578 H 234.519 0.21723 0.627461 0
M  V30 2579 H 237.049 1.22725 1.63706 0
M  V30 2580 H 237.059 0.683386 4.02236 0
M  V30 2581 H 235.734 1.80261 3.74805 0
M  V30 2582 H 234.311 -0.0287509 3.72889 0
M  V30 2583 N 236.496 -1.42363 0.676048 0
M  V30 2584 C 237.744 -2.01123 0.198437 0
M  V30 2585 C 238.065 -1.53731 -1.19966 0
M  V30 2586 O 237.335 -0.759518 -1.80577 0
M  V30 2587 H 235.915 -0.743678 0.0703721 0
M  V30 2588 H 238.577 -1.74263 0.872837 0
M  V30 2589 H 237.673 -3.11454 0.200686 0
M  V30 2590 N 237.974 -0.419461 -1.51915 0
M  V30 2591 C 239.251 0.211999 -1.94448 0
M  V30 2592 C 239.631 1.61703 -1.35703 0
M  V30 2593 O 238.979 2.22102 -0.536931 0
M  V30 2594 C 239.189 0.207872 -3.4838 0
M  V30 2595 C 240.537 0.422192 -4.22496 0
M  V30 2596 O 241.561 0.286778 -3.55044 0
M  V30 2597 O 240.42 0.690009 -5.42126 0
M  V30 2598 H 237.514 0.139586 -0.815135 0
M  V30 2599 H 240.06 -0.476151 -1.62883 0
M  V30 2600 H 238.832 -0.775102 -3.83546 0
M  V30 2601 H 238.455 0.939688 -3.86336 0
M  V30 2602 N 239.452 1.56882 -0.150215 0
M  V30 2603 C 240.863 1.82995 0.370076 0
M  V30 2604 C 241.214 1.06907 1.64515 0
M  V30 2605 O 240.339 0.315369 2.1409 0
M  V30 2606 C 240.934 3.31942 0.678208 0
M  V30 2607 C 239.493 3.58625 1.14301 0
M  V30 2608 C 238.64 2.76792 0.167778 0
M  V30 2609 H 241.591 1.54209 -0.374858 0
M  V30 2610 H 241.612 3.48272 1.53254 0
M  V30 2611 H 241.124 3.87294 -0.249991 0
M  V30 2612 H 239.225 3.08664 2.08704 0
M  V30 2613 H 239.338 4.67073 1.06676 0
M  V30 2614 H 237.702 2.45972 0.661037 0
M  V30 2615 H 238.485 3.34916 -0.754069 0
M  V30 2616 N 240.93 -0.123565 1.57115 0
M  V30 2617 C 241.877 -1.15177 2.00007 0
M  V30 2618 C 242.847 -1.41403 0.871454 0
M  V30 2619 O 244.032 -1.53346 1.13533 0
M  V30 2620 C 241.172 -2.47436 2.40561 0
M  V30 2621 C 240.285 -2.28184 3.66819 0
M  V30 2622 C 239.42 -3.53641 3.96373 0
M  V30 2623 C 238.459 -3.29528 5.15827 0
M  V30 2624 N 237.596 -4.47175 5.41275 0
M  V30 2625 H 242.436 -0.779008 2.87638 0
M  V30 2626 H 239.973 -0.373166 1.42288 0
M  V30 2627 H 241.931 -3.24584 2.62109 0
M  V30 2628 H 240.561 -2.82614 1.55978 0
M  V30 2629 H 239.613 -1.41976 3.52912 0
M  V30 2630 H 240.925 -2.0634 4.5412 0
M  V30 2631 H 240.079 -4.39209 4.18545 0
M  V30 2632 H 238.818 -3.78512 3.07538 0
M  V30 2633 H 237.823 -2.42349 4.93505 0
M  V30 2634 H 239.048 -3.06031 6.06236 0
M  V30 2635 H 236.994 -4.72175 4.55397 0
M  V30 2636 H 236.911 -4.28419 6.22891 0
M  V30 2637 H 238.179 -5.3389 5.67963 0
M  V30 2638 N 242.408 -1.52605 -0.393616 0
M  V30 2639 C 243.654 -1.67672 -1.14079 0
M  V30 2640 C 243.987 -0.413121 -1.89755 0
M  V30 2641 O 243.262 0.588952 -1.85369 0
M  V30 2642 C 243.545 -2.9088 -2.12276 0
M  V30 2643 C 243.398 -4.27329 -1.40394 0
M  V30 2644 C 244.717 -3.09628 -3.12759 0
M  V30 2645 H 241.836 -0.610168 -0.413356 0
M  V30 2646 H 244.478 -1.85193 -0.424696 0
M  V30 2647 H 242.628 -2.76073 -2.73342 0
M  V30 2648 H 244.3 -4.53894 -0.82327 0
M  V30 2649 H 242.543 -4.2802 -0.705801 0
M  V30 2650 H 243.214 -5.09615 -2.12123 0
M  V30 2651 H 245.69 -3.23436 -2.61779 0
M  V30 2652 H 244.566 -3.97322 -3.78717 0
M  V30 2653 H 244.827 -2.23637 -3.81365 0
M  V30 2654 N 243.887 0.651787 -1.4349 0
M  V30 2655 C 245.298 1.233 -1.40193 0
M  V30 2656 C 245.649 1.9591 -0.106727 0
M  V30 2657 O 244.774 2.01316 0.793773 0
M  V30 2658 C 245.369 2.24257 -2.53957 0
M  V30 2659 C 243.928 2.77852 -2.5392 0
M  V30 2660 C 243.075 1.52517 -2.3159 0
M  V30 2661 H 246.026 0.443717 -1.52371 0
M  V30 2662 H 246.047 3.0646 -2.25528 0
M  V30 2663 H 245.559 1.71382 -3.4821 0
M  V30 2664 H 243.66 3.34786 -1.63551 0
M  V30 2665 H 243.773 3.25299 -3.51735 0
M  V30 2666 H 242.137 1.79915 -1.80285 0
M  V30 2667 H 242.92 1.01574 -3.27929 0
M  V30 2668 N 245.365 1.30045 0.890287 0
M  V30 2669 C 246.781 1.08261 1.17268 0
M  V30 2670 C 246.981 -0.160063 2.00863 0
M  V30 2671 O 246.037 -0.855181 2.37577 0
M  V30 2672 C 247.35 2.34323 1.8845 0
M  V30 2673 C 248.898 2.39735 2.01237 0
M  V30 2674 C 249.373 3.65625 2.7583 0
M  V30 2675 N 250.864 3.66402 2.83379 0
M  V30 2676 C 251.599 4.60498 3.41657 0
M  V30 2677 N 251.095 5.64933 4.01026 0
M  V30 2678 N 252.888 4.48051 3.39421 0
M  V30 2679 H 245.039 2.09777 0.332762 0
M  V30 2680 H 247.302 0.92446 0.209948 0
M  V30 2681 H 247.008 3.2498 1.34465 0
M  V30 2682 H 246.882 2.4256 2.88867 0
M  V30 2683 H 249.269 1.4956 2.54393 0
M  V30 2684 H 249.35 2.35476 0.999232 0
M  V30 2685 H 248.994 4.56156 2.23347 0
M  V30 2686 H 248.924 3.67144 3.77509 0
M  V30 2687 H 251.415 2.90896 2.41222 0
M  V30 2688 H 251.728 6.32841 4.43545 0
M  V30 2689 H 250.073 5.68732 3.99461 0
M  V30 2690 H 253.264 3.65649 2.92264 0
M  V30 2691 H 253.437 5.21565 3.84544 0
M  V30 2692 N 246.843 -1.10192 1.12674 0
M  V30 2693 C 248.089 -1.82475 0.884915 0
M  V30 2694 C 248.422 -1.85093 -0.58773 0
M  V30 2695 O 247.697 -1.3134 -1.43457 0
M  V30 2696 C 247.98 -3.29018 1.46353 0
M  V30 2697 C 247.833 -3.34718 3.00473 0
M  V30 2698 C 249.152 -4.25473 1.12519 0
M  V30 2699 H 246.271 -0.662492 0.322915 0
M  V30 2700 H 248.913 -1.2913 1.39375 0
M  V30 2701 H 247.063 -3.74576 1.03077 0
M  V30 2702 H 248.735 -2.97622 3.52447 0
M  V30 2703 H 246.978 -2.74541 3.35872 0
M  V30 2704 H 247.649 -4.37918 3.36053 0
M  V30 2705 H 250.125 -3.88161 1.499 0
M  V30 2706 H 249.001 -5.26365 1.55663 0
M  V30 2707 H 249.262 -4.42084 0.0377407 0
M  V30 2708 N 248.321 -0.919034 -1.28029 0
M  V30 2709 C 249.549 -0.570971 -1.98866 0
M  V30 2710 C 249.964 0.848996 -1.68634 0
M  V30 2711 O 249.321 1.56307 -0.942036 0
M  V30 2712 C 249.372 -0.776876 -3.53054 0
M  V30 2713 O 249.093 -2.14097 -3.82222 0
M  V30 2714 C 250.594 -0.436356 -4.41147 0
M  V30 2715 H 247.814 -0.217175 -0.634883 0
M  V30 2716 H 250.358 -1.23368 -1.63097 0
M  V30 2717 H 248.513 -0.161085 -3.87065 0
M  V30 2718 H 248.927 -2.18455 -4.76841 0
M  V30 2719 H 250.401 -0.63117 -5.4838 0
M  V30 2720 H 250.878 0.627686 -4.34692 0
M  V30 2721 H 251.484 -1.02991 -4.12641 0
M  V30 2722 N 249.799 1.42003 -0.683588 0
M  V30 2723 C 250.729 2.33487 -0.024866 0
M  V30 2724 C 251.71 1.51163 0.779975 0
M  V30 2725 O 252.895 1.79739 0.735362 0
M  V30 2726 C 250.025 3.3487 0.920836 0
M  V30 2727 C 248.979 4.27414 0.223958 0
M  V30 2728 C 248.305 5.19074 1.2832 0
M  V30 2729 C 249.605 5.14445 -0.90242 0
M  V30 2730 H 251.299 2.88819 -0.788921 0
M  V30 2731 H 248.845 1.38873 -0.38083 0
M  V30 2732 H 250.798 3.97787 1.39081 0
M  V30 2733 H 249.522 2.77861 1.71642 0
M  V30 2734 H 248.181 3.65904 -0.225864 0
M  V30 2735 H 247.829 4.58387 2.071 0
M  V30 2736 H 247.529 5.81822 0.821995 0
M  V30 2737 H 249.053 5.84867 1.75392 0
M  V30 2738 H 250.467 5.70998 -0.513272 0
M  V30 2739 H 248.864 5.86072 -1.28997 0
M  V30 2740 H 249.934 4.52322 -1.74737 0
M  V30 2741 N 251.277 0.427512 1.51691 0
M  V30 2742 C 252.505 -0.141191 2.06418 0
M  V30 2743 C 252.92 -1.37303 1.29589 0
M  V30 2744 O 252.277 -1.79059 0.352732 0
M  V30 2745 C 252.328 -0.473266 3.58389 0
M  V30 2746 O 252.049 0.709673 4.32314 0
M  V30 2747 C 253.55 -1.09371 4.29596 0
M  V30 2748 H 250.77 -0.0122747 0.670888 0
M  V30 2749 H 253.314 0.603764 1.95384 0
M  V30 2750 H 251.469 -1.16812 3.69369 0
M  V30 2751 H 251.883 0.42807 5.2275 0
M  V30 2752 H 253.357 -1.27613 5.37046 0
M  V30 2753 H 253.834 -2.072 3.87253 0
M  V30 2754 H 254.44 -0.43853 4.23033 0
M  V30 2755 N 252.755 -1.56801 0.158532 0
M  V30 2756 C 254.002 -1.9649 -0.489679 0
M  V30 2757 C 254.33 -1.04394 -1.6411 0
M  V30 2758 O 253.585 -0.0754401 -1.95555 0
M  V30 2759 C 253.884 -3.4235 -1.02623 0
M  V30 2760 C 253.55 -4.50899 0.00794526 0
M  V30 2761 C 252.212 -4.80312 0.292207 0
M  V30 2762 C 254.564 -5.16333 0.710584 0
M  V30 2763 C 251.892 -5.72461 1.28472 0
M  V30 2764 C 254.244 -6.09553 1.69199 0
M  V30 2765 C 252.908 -6.37339 1.98383 0
M  V30 2766 H 252.178 -0.719009 -0.179186 0
M  V30 2767 H 254.825 -1.8989 0.247798 0
M  V30 2768 H 253.13 -3.45838 -1.84128 0
M  V30 2769 H 254.827 -3.70393 -1.53656 0
M  V30 2770 H 251.417 -4.28015 -0.22379 0
M  V30 2771 H 255.601 -4.93732 0.504174 0
M  V30 2772 H 250.857 -5.92278 1.51714 0
M  V30 2773 H 255.031 -6.59327 2.24189 0
M  V30 2774 H 252.658 -7.08546 2.7544 0
M  V30 2775 N 254.233 0.115231 -1.57178 0
M  V30 2776 C 255.649 0.468877 -1.52557 0
M  V30 2777 C 255.849 1.81649 -0.872125 0
M  V30 2778 O 254.905 2.48347 -0.45606 0
M  V30 2779 C 256.218 0.4499 -2.97315 0
M  V30 2780 C 257.766 0.533185 -3.08425 0
M  V30 2781 C 258.241 0.54456 -4.54751 0
M  V30 2782 N 259.732 0.605892 -4.5922 0
M  V30 2783 C 260.467 0.636203 -5.6986 0
M  V30 2784 N 259.963 0.623931 -6.89985 0
M  V30 2785 N 261.756 0.679496 -5.57978 0
M  V30 2786 H 253.907 -0.767712 -1.9804 0
M  V30 2787 H 256.17 -0.283609 -0.904583 0
M  V30 2788 H 255.876 -0.472721 -3.48509 0
M  V30 2789 H 255.75 1.27632 -3.5495 0
M  V30 2790 H 258.137 1.44623 -2.57232 0
M  V30 2791 H 258.218 -0.320995 -2.53778 0
M  V30 2792 H 257.862 -0.364452 -5.06591 0
M  V30 2793 H 257.792 1.41568 -5.07214 0
M  V30 2794 H 260.283 0.621386 -3.72756 0
M  V30 2795 H 260.596 0.649787 -7.70063 0
M  V30 2796 H 258.941 0.591296 -6.9248 0
M  V30 2797 H 262.132 0.686472 -4.63039 0
M  V30 2798 H 262.305 0.69965 -6.44212 0
M  V30 2799 N 255.711 1.52812 0.385517 0
M  V30 2800 C 256.674 1.77188 1.45386 0
M  V30 2801 C 257.674 0.641953 1.4743 0
M  V30 2802 O 258.864 0.910033 1.4854 0
M  V30 2803 C 255.996 1.87582 2.8465 0
M  V30 2804 H 257.189 2.72583 1.25054 0
M  V30 2805 H 254.742 1.43586 0.617467 0
M  V30 2806 H 255.477 0.941849 3.10322 0
M  V30 2807 H 255.262 2.69748 2.84567 0
M  V30 2808 H 256.752 2.08102 3.62054 0
M  V30 2809 N 257.189 -0.644168 1.43834 0
M  V30 2810 C 258.119 -1.76814 1.52509 0
M  V30 2811 C 259.1 -1.65823 0.379052 0
M  V30 2812 O 260.285 -1.84781 0.597466 0
M  V30 2813 C 257.415 -3.15288 1.4564 0
M  V30 2814 C 256.369 -3.41053 2.58586 0
M  V30 2815 C 255.695 -4.79421 2.36769 0
M  V30 2816 C 256.995 -3.34902 4.00797 0
M  V30 2817 H 258.689 -1.69812 2.46586 0
M  V30 2818 H 256.235 -0.815542 1.1868 0
M  V30 2819 H 258.188 -3.93681 1.50311 0
M  V30 2820 H 256.912 -3.23043 0.480725 0
M  V30 2821 H 255.571 -2.65035 2.53282 0
M  V30 2822 H 255.219 -4.83863 1.37424 0
M  V30 2823 H 254.919 -4.9762 3.12487 0
M  V30 2824 H 256.443 -5.6006 2.43238 0
M  V30 2825 H 257.857 -4.03218 4.07539 0
M  V30 2826 H 256.254 -3.64637 4.76613 0
M  V30 2827 H 257.324 -2.32928 4.25291 0
M  V30 2828 N 258.668 -1.30515 -0.883378 0
M  V30 2829 C 259.616 -1.16941 -2.01066 0
M  V30 2830 C 260.61 -0.0809148 -1.69207 0
M  V30 2831 O 261.816 -0.241877 -1.78367 0
M  V30 2832 H 258.191 -0.361705 -0.659298 0
M  V30 2833 H 260.162 -2.12344 -2.09649 0
M  V30 2834 C 258.911 -0.879694 -3.36388 0
M  V30 2835 H 258.234 -1.70936 -3.61415 0
M  V30 2836 H 259.674 -0.82483 -4.159 0
M  V30 2837 C 258.133 0.417409 -3.34304 0
M  V30 2838 O 258.663 1.43843 -3.75063 0
M  V30 2839 N 256.869 0.429141 -2.87414 0
M  V30 2840 H 256.416 -0.402222 -2.5444 0
M  V30 2841 H 256.374 1.29696 -2.86403 0
M  V30 2842 N 260.146 1.09593 -1.13257 0
M  V30 2843 C 261.374 1.855 -0.916378 0
M  V30 2844 C 261.789 1.81069 0.534738 0
M  V30 2845 O 261.146 1.20562 1.37007 0
M  V30 2846 C 261.197 3.33546 -1.39388 0
M  V30 2847 O 260.918 3.37927 -2.78813 0
M  V30 2848 C 262.419 4.26299 -1.21588 0
M  V30 2849 H 259.639 0.585991 -0.326887 0
M  V30 2850 H 262.183 1.38488 -1.5047 0
M  V30 2851 H 260.338 3.77992 -0.848597 0
M  V30 2852 H 260.752 4.30254 -2.9997 0
M  V30 2853 H 262.226 5.28341 -1.59876 0
M  V30 2854 H 262.703 4.38918 -0.157376 0
M  V30 2855 H 263.309 3.87668 -1.7491 0
M  V30 2856 N 261.624 0.925811 1.2754 0
M  V30 2857 C 262.849 0.580924 1.99098 0
M  V30 2858 C 263.274 -0.833555 1.68622 0
M  V30 2859 O 262.632 -1.55903 0.925422 0
M  V30 2860 C 262.68 0.811186 3.51358 0
M  V30 2861 O 261.784 -0.124129 4.12213 0
M  V30 2862 H 261.125 0.223873 0.625122 0
M  V30 2863 H 263.655 1.24455 1.62395 0
M  V30 2864 H 263.665 0.72601 4.01489 0
M  V30 2865 H 262.34 1.84227 3.72872 0
M  V30 2866 H 260.917 0.0108006 3.72898 0
M  V30 2867 N 263.102 -1.41638 0.69111 0
M  V30 2868 C 264.032 -2.3347 0.037248 0
M  V30 2869 C 265.013 -1.51575 -0.771947 0
M  V30 2870 O 266.198 -1.80126 -0.72582 0
M  V30 2871 C 263.328 -3.35354 -0.903064 0
M  V30 2872 C 262.282 -4.27526 -0.201288 0
M  V30 2873 C 261.608 -5.19747 -1.25565 0
M  V30 2874 C 262.908 -5.13959 0.929689 0
M  V30 2875 H 264.602 -2.88397 0.804227 0
M  V30 2876 H 262.148 -1.38669 0.388189 0
M  V30 2877 H 264.101 -3.98519 -1.36969 0
M  V30 2878 H 262.825 -2.78767 -1.70166 0
M  V30 2879 H 261.484 -3.65779 0.245265 0
M  V30 2880 H 261.132 -4.59479 -2.04666 0
M  V30 2881 H 260.832 -5.8225 -0.791128 0
M  V30 2882 H 262.356 -5.85789 -1.72288 0
M  V30 2883 H 263.77 -5.70718 0.543546 0
M  V30 2884 H 262.167 -5.85379 1.32103 0
M  V30 2885 H 263.237 -4.51389 1.77133 0
M  V30 2886 N 264.58 -0.43555 -1.51462 0
M  V30 2887 C 265.81 0.130053 -2.0619 0
M  V30 2888 C 266.218 1.37164 -1.30317 0
M  V30 2889 O 265.561 1.80225 -0.355598 0
M  V30 2890 C 265.623 0.519418 -3.55728 0
M  V30 2891 C 265.287 -0.615119 -4.52841 0
M  V30 2892 C 266.284 -1.48671 -4.9819 0
M  V30 2893 C 263.969 -0.795341 -4.95963 0
M  V30 2894 C 265.963 -2.52324 -5.8533 0
M  V30 2895 C 263.65 -1.83514 -5.82894 0
M  V30 2896 C 264.648 -2.69748 -6.27475 0
M  V30 2897 O 264.336 -3.71944 -7.1268 0
M  V30 2898 H 264.068 0.0121612 -0.675891 0
M  V30 2899 H 266.622 -0.6129 -1.96043 0
M  V30 2900 H 264.852 1.31505 -3.63653 0
M  V30 2901 H 266.541 1.01597 -3.92979 0
M  V30 2902 H 267.307 -1.359 -4.65571 0
M  V30 2903 H 263.186 -0.133713 -4.60806 0
M  V30 2904 H 266.73 -3.19665 -6.20048 0
M  V30 2905 H 262.627 -1.96306 -6.14926 0
M  V30 2906 H 263.395 -3.68503 -7.30854 0
M  V30 2907 N 266.058 1.56714 -0.166846 0
M  V30 2908 C 267.304 1.97039 0.479962 0
M  V30 2909 C 267.637 1.05264 1.63197 0
M  V30 2910 O 266.912 0.0988833 1.94248 0
M  V30 2911 C 267.195 3.46867 0.967212 0
M  V30 2912 C 267.048 4.49421 -0.18466 0
M  V30 2913 C 268.367 3.9968 1.84238 0
M  V30 2914 H 265.486 0.71641 0.172992 0
M  V30 2915 H 268.128 1.8832 -0.252079 0
M  V30 2916 H 266.278 3.54428 1.59101 0
M  V30 2917 H 267.95 4.53924 -0.821621 0
M  V30 2918 H 266.193 4.25573 -0.840837 0
M  V30 2919 H 266.864 5.51644 0.198317 0
M  V30 2920 H 269.34 3.94723 1.31655 0
M  V30 2921 H 268.216 5.04941 2.15234 0
M  V30 2922 H 268.477 3.43226 2.78654 0
M  V30 2923 N 267.536 -0.106894 1.57237 0
M  V30 2924 C 268.466 -1.13148 2.04254 0
M  V30 2925 C 269.447 -1.42476 0.929224 0
M  V30 2926 O 270.632 -1.52709 1.19973 0
M  V30 2927 C 267.762 -2.4545 2.45706 0
M  V30 2928 C 266.716 -2.30558 3.60592 0
M  V30 2929 C 266.042 -3.67931 3.87983 0
M  V30 2930 C 267.342 -1.75597 4.91897 0
M  V30 2931 H 269.036 -0.740374 2.90101 0
M  V30 2932 H 266.582 -0.354696 1.39563 0
M  V30 2933 H 268.535 -3.17389 2.77205 0
M  V30 2934 H 267.259 -2.86475 1.56843 0
M  V30 2935 H 265.918 -1.61067 3.29322 0
M  V30 2936 H 265.566 -4.06462 2.96306 0
M  V30 2937 H 265.266 -3.58817 4.65322 0
M  V30 2938 H 266.79 -4.41356 4.21945 0
M  V30 2939 H 268.204 -2.37364 5.21854 0
M  V30 2940 H 266.601 -1.77272 5.73319 0
M  V30 2941 H 267.671 -0.714451 4.79608 0
M  V30 2942 N 269.014 -1.53014 -0.377408 0
M  V30 2943 C 270.261 -1.68623 -1.12128 0
M  V30 2944 C 270.589 -0.431997 -1.89642 0
M  V30 2945 O 269.844 0.585855 -1.86725 0
M  V30 2946 C 270.143 -2.87982 -2.11663 0
M  V30 2947 C 269.809 -4.24964 -1.50719 0
M  V30 2948 C 268.471 -4.62217 -1.33825 0
M  V30 2949 C 270.823 -5.10199 -1.06519 0
M  V30 2950 C 268.151 -5.82352 -0.712963 0
M  V30 2951 C 270.503 -6.30969 -0.453955 0
M  V30 2952 C 269.167 -6.66944 -0.272411 0
M  V30 2953 H 268.437 -0.617034 -0.410305 0
M  V30 2954 H 271.084 -1.8718 -0.404484 0
M  V30 2955 H 269.389 -2.63889 -2.89603 0
M  V30 2956 H 271.086 -2.97253 -2.6915 0
M  V30 2957 H 267.676 -3.95626 -1.64858 0
M  V30 2958 H 271.86 -4.81978 -1.18368 0
M  V30 2959 H 267.116 -6.08824 -0.560611 0
M  V30 2960 H 271.29 -6.96324 -0.103217 0
M  V30 2961 H 268.917 -7.59898 0.214181 0
M  V30 2962 N 270.492 0.636531 -1.44174 0
M  V30 2963 C 271.422 1.76003 -1.53444 0
M  V30 2964 C 272.403 1.65619 -0.387841 0
M  V30 2965 O 273.588 1.84461 -0.607257 0
M  V30 2966 C 270.718 3.14511 -1.4731 0
M  V30 2967 C 269.672 3.39677 -2.60391 0
M  V30 2968 C 268.998 4.78159 -2.39308 0
M  V30 2969 C 270.298 3.32772 -4.02567 0
M  V30 2970 H 271.992 1.68501 -2.47483 0
M  V30 2971 H 269.538 0.809237 -1.19111 0
M  V30 2972 H 271.491 3.92878 -1.52397 0
M  V30 2973 H 270.215 3.22783 -0.49785 0
M  V30 2974 H 268.874 2.63688 -2.54684 0
M  V30 2975 H 268.522 4.83128 -1.39988 0
M  V30 2976 H 268.222 4.95956 -3.15122 0
M  V30 2977 H 269.746 5.58762 -2.46205 0
M  V30 2978 H 271.16 4.01051 -4.09672 0
M  V30 2979 H 269.557 3.62104 -4.7854 0
M  V30 2980 H 270.627 2.30669 -4.2652 0
M  V30 2981 N 271.97 1.30982 0.876444 0
M  V30 2982 C 273.219 1.19658 1.62373 0
M  V30 2983 C 273.532 -0.245636 1.94052 0
M  V30 2984 O 274.738 -0.48049 2.67214 0
M  V30 2985 C 273.194 2.09433 2.92687 0
M  V30 2986 C 272.802 3.58613 2.68516 0
M  V30 2987 C 274.546 2.06893 3.70669 0
M  V30 2988 C 272.453 4.40416 3.94699 0
M  V30 2989 H 271.383 0.444268 0.609214 0
M  V30 2990 H 274.034 1.55791 0.969605 0
M  V30 2991 H 272.416 1.66191 3.59439 0
M  V30 2992 H 273.59 4.10058 2.10212 0
M  V30 2993 H 271.905 3.63063 2.03898 0
M  V30 2994 H 274.502 2.65258 4.64265 0
M  V30 2995 H 274.845 1.05448 4.02724 0
M  V30 2996 H 275.378 2.48301 3.10792 0
M  V30 2997 H 272.117 5.42591 3.67798 0
M  V30 2998 H 271.637 3.93731 4.52477 0
M  V30 2999 H 273.316 4.52294 4.62644 0
M  V30 3000 N 273.449 -1.08991 1.13837 0
M  V30 3001 C 274.865 -1.33312 0.877506 0
M  V30 3002 C 275.065 -1.95587 -0.48456 0
M  V30 3003 O 274.121 -2.20509 -1.23013 0
M  V30 3004 C 275.434 -2.24045 2.0056 0
M  V30 3005 C 276.982 -2.37542 2.03821 0
M  V30 3006 C 277.457 -3.31614 3.15905 0
M  V30 3007 N 278.948 -3.39189 3.15445 0
M  V30 3008 C 279.683 -4.11992 3.98811 0
M  V30 3009 N 279.179 -4.87553 4.92203 0
M  V30 3010 N 280.972 -4.07762 3.86894 0
M  V30 3011 H 273.123 -0.669456 2.01574 0
M  V30 3012 H 275.386 -0.357482 0.878015 0
M  V30 3013 H 275.092 -1.85521 2.98789 0
M  V30 3014 H 274.966 -3.24466 1.92359 0
M  V30 3015 H 277.353 -2.75327 1.06202 0
M  V30 3016 H 277.434 -1.36884 2.16093 0
M  V30 3017 H 277.078 -2.94551 4.13766 0
M  V30 3018 H 277.008 -4.32186 3.0087 0
M  V30 3019 H 279.499 -2.85314 2.47799 0
M  V30 3020 H 279.812 -5.40549 5.52292 0
M  V30 3021 H 278.157 -4.86627 4.96205 0
M  V30 3022 H 281.348 -3.47833 3.13257 0
M  V30 3023 H 281.521 -4.64238 4.52092 0
M  V30 3024 N 274.927 -0.932562 -1.27047 0
M  V30 3025 C 276.175 -0.574422 -1.93765 0
M  V30 3026 C 276.496 0.887993 -1.73608 0
M  V30 3027 O 275.766 1.62999 -1.08665 0
M  V30 3028 H 274.346 -0.209451 -0.717035 0
M  V30 3029 H 277.008 -1.18601 -1.5466 0
M  V30 3030 H 276.104 -0.784841 -3.02071 0
M  V30 3031 N 276.405 1.4127 -0.698611 0
M  V30 3032 C 277.352 2.30773 -0.0352094 0
M  V30 3033 C 278.322 1.47273 0.768111 0
M  V30 3034 O 279.507 1.76053 0.735524 0
M  V30 3035 C 276.647 3.33346 0.893 0
M  V30 3036 C 275.76 4.31924 0.0809695 0
M  V30 3037 C 274.895 5.21566 1.0071 0
M  V30 3038 C 273.934 6.11811 0.188155 0
M  V30 3039 N 273.071 6.93926 1.06825 0
M  V30 3040 H 277.911 2.86943 -0.804207 0
M  V30 3041 H 275.448 1.4132 -0.408294 0
M  V30 3042 H 277.406 3.91368 1.44523 0
M  V30 3043 H 276.036 2.78719 1.62836 0
M  V30 3044 H 275.088 3.75825 -0.588224 0
M  V30 3045 H 276.4 4.95716 -0.553801 0
M  V30 3046 H 275.554 5.84437 1.62845 0
M  V30 3047 H 274.293 4.58008 1.67572 0
M  V30 3048 H 273.298 5.47986 -0.446254 0
M  V30 3049 H 274.523 6.77425 -0.476716 0
M  V30 3050 H 272.469 6.32973 1.72283 0
M  V30 3051 H 272.386 7.54416 0.489123 0
M  V30 3052 H 273.654 7.61262 1.67632 0
M  V30 3053 N 277.883 0.443576 1.51229 0
M  V30 3054 C 278.793 -0.370721 2.31652 0
M  V30 3055 C 279.809 -1.02186 1.40833 0
M  V30 3056 O 280.985 -1.01586 1.73903 0
M  V30 3057 C 278.05 -1.45376 3.14749 0
M  V30 3058 C 277.111 -0.822099 4.21355 0
M  V30 3059 C 276.344 -1.85353 5.0048 0
M  V30 3060 O 276.567 -3.07656 4.80316 0
M  V30 3061 O 275.501 -1.4406 5.84406 0
M  V30 3062 H 279.327 0.286002 3.0235 0
M  V30 3063 H 276.912 0.20598 1.47973 0
M  V30 3064 H 278.794 -2.08173 3.66391 0
M  V30 3065 H 277.469 -2.09445 2.46809 0
M  V30 3066 H 276.376 -0.155909 3.73775 0
M  V30 3067 H 277.709 -0.224797 4.91686 0
M  V30 3068 N 279.361 -1.56624 0.175154 0
M  V30 3069 C 280.308 -2.18149 -0.753634 0
M  V30 3070 C 281.278 -1.12265 -1.22417 0
M  V30 3071 O 282.463 -1.40432 -1.29165 0
M  V30 3072 C 279.603 -2.82933 -1.97592 0
M  V30 3073 C 278.716 -4.03289 -1.5486 0
M  V30 3074 C 277.851 -4.55988 -2.72485 0
M  V30 3075 C 276.89 -5.68746 -2.26262 0
M  V30 3076 N 276.027 -6.15938 -3.36994 0
M  V30 3077 H 280.867 -2.9717 -0.222195 0
M  V30 3078 H 278.404 -1.46774 -0.0979422 0
M  V30 3079 H 280.362 -3.18653 -2.69288 0
M  V30 3080 H 278.992 -2.06509 -2.481 0
M  V30 3081 H 278.044 -3.73364 -0.728246 0
M  V30 3082 H 279.356 -4.849 -1.16933 0
M  V30 3083 H 278.51 -4.9391 -3.52332 0
M  V30 3084 H 277.249 -3.73443 -3.13674 0
M  V30 3085 H 276.254 -5.30372 -1.44863 0
M  V30 3086 H 277.479 -6.53095 -1.86127 0
M  V30 3087 H 275.425 -5.36321 -3.77751 0
M  V30 3088 H 275.342 -6.92548 -3.03172 0
M  V30 3089 H 276.61 -6.58511 -4.17114 0
M  V30 3090 N 280.839 0.0985539 -1.57292 0
M  V30 3091 C 282.088 0.801358 -1.85098 0
M  V30 3092 C 282.401 1.80066 -0.763902 0
M  V30 3093 O 283.607 2.55112 -0.928981 0
M  V30 3094 C 282.063 1.47599 -3.28242 0
M  V30 3095 C 281.671 0.516624 -4.45011 0
M  V30 3096 C 283.415 2.16272 -3.65276 0
M  V30 3097 C 281.322 1.19564 -5.79188 0
M  V30 3098 H 280.252 0.303022 -0.69043 0
M  V30 3099 H 282.903 0.0542623 -1.8342 0
M  V30 3100 H 281.285 2.27042 -3.2445 0
M  V30 3101 H 282.459 -0.246065 -4.60143 0
M  V30 3102 H 280.774 -0.064227 -4.1635 0
M  V30 3103 H 283.371 2.67802 -4.62803 0
M  V30 3104 H 283.714 2.95009 -2.93727 0
M  V30 3105 H 284.247 1.43693 -3.70941 0
M  V30 3106 H 280.986 0.449157 -6.53959 0
M  V30 3107 H 280.506 1.92984 -5.67906 0
M  V30 3108 H 282.185 1.7231 -6.23633 0
M  V30 3109 N 282.317 1.53212 0.369288 0
M  V30 3110 C 283.265 1.80054 1.47253 0
M  V30 3111 C 284.259 0.669456 1.55611 0
M  V30 3112 O 285.465 0.852328 1.58541 0
M  V30 3113 H 281.84 0.570034 0.490475 0
M  V30 3114 H 283.811 2.72403 1.21817 0
M  V30 3115 C 282.56 2.00403 2.84137 0
M  V30 3116 H 281.883 2.86876 2.78464 0
M  V30 3117 H 283.323 2.23164 3.60519 0
M  V30 3118 C 281.782 0.782081 3.27697 0
M  V30 3119 O 282.312 -0.0310205 4.01688 0
M  V30 3120 N 280.518 0.606573 2.84199 0
M  V30 3121 H 280.065 1.26939 2.24152 0
M  V30 3122 H 280.023 -0.20962 3.137 0
M  V30 3123 N 283.795 -0.628877 1.44509 0
M  V30 3124 C 285.211 -0.947305 1.28446 0
M  V30 3125 C 285.411 -2.00275 0.221872 0
M  V30 3126 O 284.467 -2.49447 -0.391471 0
M  V30 3127 C 285.78 -1.40843 2.65676 0
M  V30 3128 C 287.328 -1.52379 2.73404 0
M  V30 3129 C 287.803 -2.01875 4.11109 0
M  V30 3130 N 289.294 -2.09142 4.13296 0
M  V30 3131 C 290.029 -2.48615 5.16699 0
M  V30 3132 N 289.525 -2.87209 6.30462 0
M  V30 3133 N 291.318 -2.48768 5.04054 0
M  V30 3134 H 283.469 0.0690977 2.12288 0
M  V30 3135 H 285.732 -0.0317164 0.947469 0
M  V30 3136 H 285.438 -0.707206 3.44516 0
M  V30 3137 H 285.312 -2.37902 2.92716 0
M  V30 3138 H 287.699 -2.21598 1.9488 0
M  V30 3139 H 287.78 -0.536898 2.50102 0
M  V30 3140 H 287.424 -1.3325 4.90109 0
M  V30 3141 H 287.354 -3.0144 4.31789 0
M  V30 3142 H 289.845 -1.81991 3.31191 0
M  V30 3143 H 290.158 -3.16149 7.05174 0
M  V30 3144 H 288.503 -2.84955 6.33897 0
M  V30 3145 H 291.694 -2.18009 4.14234 0
M  V30 3146 H 291.867 -2.79207 5.84763 0
M  V30 3147 N 285.273 -1.31445 -0.869486 0
M  V30 3148 C 286.203 -1.21727 -1.99261 0
M  V30 3149 C 287.184 -0.104359 -1.6978 0
M  V30 3150 O 288.369 -0.289038 -1.92037 0
M  V30 3151 C 285.499 -0.924317 -3.34774 0
M  V30 3152 C 284.453 -1.99685 -3.78563 0
M  V30 3153 C 283.779 -1.55658 -5.11541 0
M  V30 3154 C 285.079 -3.41003 -3.95619 0
M  V30 3155 H 286.773 -2.1569 -2.07649 0
M  V30 3156 H 284.319 -1.03839 -0.997675 0
M  V30 3157 H 286.272 -0.842934 -4.12883 0
M  V30 3158 H 284.996 0.0509793 -3.2656 0
M  V30 3159 H 283.655 -2.06813 -3.02694 0
M  V30 3160 H 283.303 -0.569132 -4.9977 0
M  V30 3161 H 283.003 -2.27409 -5.41811 0
M  V30 3162 H 284.527 -1.48928 -5.92159 0
M  V30 3163 H 285.941 -3.36547 -4.64122 0
M  V30 3164 H 284.338 -4.10975 -4.37286 0
M  V30 3165 H 285.408 -3.81754 -2.98985 0
M  V30 3166 N 286.751 1.08385 -1.14413 0
M  V30 3167 C 287.979 1.84517 -0.936001 0
M  V30 3168 C 288.394 1.81626 0.515503 0
M  V30 3169 O 287.751 1.22008 1.35721 0
M  V30 3170 C 287.802 3.32049 -1.42918 0
M  V30 3171 O 287.523 3.34951 -2.82381 0
M  V30 3172 C 289.024 4.24986 -1.26103 0
M  V30 3173 H 286.244 0.582491 -0.333084 0
M  V30 3174 H 288.788 1.36885 -1.5193 0
M  V30 3175 H 286.943 3.7707 -0.888641 0
M  V30 3176 H 287.357 4.27048 -3.04517 0
M  V30 3177 H 288.831 5.26615 -1.6547 0
M  V30 3178 H 289.308 4.38726 -0.20392 0
M  V30 3179 H 289.914 3.85791 -1.79012 0
M  V30 3180 N 288.23 0.939286 1.26551 0
M  V30 3181 C 289.14 0.453432 2.30176 0
M  V30 3182 C 290.156 -0.471649 1.67486 0
M  V30 3183 O 291.332 -0.35164 1.98306 0
M  V30 3184 C 288.397 -0.275326 3.45605 0
M  V30 3185 C 287.458 0.686084 4.23782 0
M  V30 3186 C 286.691 -0.00798994 5.33699 0
M  V30 3187 O 286.914 -1.22528 5.57085 0
M  V30 3188 O 285.848 0.669746 5.98162 0
M  V30 3189 H 289.674 1.31416 2.73795 0
M  V30 3190 H 287.259 0.705095 1.31715 0
M  V30 3191 H 289.141 -0.685911 4.1578 0
M  V30 3192 H 287.816 -1.11147 3.0402 0
M  V30 3193 H 286.723 1.14658 3.56096 0
M  V30 3194 H 288.056 1.48979 4.69112 0
M  V30 3195 N 289.708 -1.40897 0.706093 0
M  V30 3196 C 290.957 -2.00284 0.238574 0
M  V30 3197 C 291.27 -1.56604 -1.17194 0
M  V30 3198 O 292.476 -2.08624 -1.73748 0
M  V30 3199 C 290.932 -3.57934 0.375623 0
M  V30 3200 C 290.54 -4.10591 1.79217 0
M  V30 3201 C 292.284 -4.24488 -0.0315857 0
M  V30 3202 C 290.191 -5.60712 1.88032 0
M  V30 3203 H 289.121 -0.749144 0.0854398 0
M  V30 3204 H 291.772 -1.61251 0.875813 0
M  V30 3205 H 290.154 -3.94622 -0.330042 0
M  V30 3206 H 291.328 -3.85301 2.52745 0
M  V30 3207 H 289.643 -3.56601 2.15 0
M  V30 3208 H 292.24 -5.34698 0.0136842 0
M  V30 3209 H 292.583 -4.02261 -1.072 0
M  V30 3210 H 293.116 -3.92873 0.624181 0
M  V30 3211 H 289.855 -5.87781 2.90161 0
M  V30 3212 H 289.375 -5.87896 1.18903 0
M  V30 3213 H 291.054 -6.25658 1.64805 0
M  V30 3214 N 291.186 -0.45159 -1.50991 0
M  V30 3215 C 292.116 0.342898 -2.30969 0
M  V30 3216 C 293.097 1.00815 -1.37005 0
M  V30 3217 O 294.282 1.00907 -1.65926 0
M  V30 3218 C 291.412 1.43637 -3.16205 0
M  V30 3219 C 290.366 0.893818 -4.18563 0
M  V30 3220 C 289.692 2.08411 -4.92411 0
M  V30 3221 C 290.992 -0.0815568 -5.22236 0
M  V30 3222 H 292.686 -0.324556 -2.97636 0
M  V30 3223 H 290.232 -0.157531 -1.43136 0
M  V30 3224 H 292.185 1.9995 -3.70942 0
M  V30 3225 H 290.909 2.13232 -2.47386 0
M  V30 3226 H 289.568 0.352798 -3.64898 0
M  V30 3227 H 289.216 2.76658 -4.20082 0
M  V30 3228 H 288.916 1.72741 -5.61636 0
M  V30 3229 H 290.44 2.65251 -5.49976 0
M  V30 3230 H 291.854 0.391742 -5.7196 0
M  V30 3231 H 290.251 -0.351551 -5.99069 0
M  V30 3232 H 291.321 -1.01374 -4.74185 0
M  V30 3233 N 292.664 1.56529 -0.183458 0
M  V30 3234 C 293.611 2.18546 0.742055 0
M  V30 3235 C 294.581 1.12912 1.2182 0
M  V30 3236 O 295.766 1.41115 1.28418 0
M  V30 3237 C 292.906 2.83977 1.96089 0
M  V30 3238 C 292.019 4.04105 1.52719 0
M  V30 3239 C 291.154 4.57427 2.70063 0
M  V30 3240 C 290.193 5.69938 2.23243 0
M  V30 3241 N 289.33 6.17717 3.33722 0
M  V30 3242 H 294.17 2.97284 0.206432 0
M  V30 3243 H 291.707 1.46823 0.0901571 0
M  V30 3244 H 293.665 3.20077 2.67594 0
M  V30 3245 H 292.295 2.07822 2.47002 0
M  V30 3246 H 291.347 3.73745 0.708436 0
M  V30 3247 H 292.659 4.85513 1.1436 0
M  V30 3248 H 291.813 4.95772 3.49708 0
M  V30 3249 H 290.552 3.75101 3.11689 0
M  V30 3250 H 289.557 5.31133 1.42048 0
M  V30 3251 H 290.782 6.54073 1.82661 0
M  V30 3252 H 288.728 5.38317 3.74902 0
M  V30 3253 H 288.645 6.94146 2.99495 0
M  V30 3254 H 289.913 6.60713 4.13616 0
M  V30 3255 N 294.142 -0.090211 1.57342 0
M  V30 3256 C 295.419 -0.824761 1.77361 0
M  V30 3257 C 295.799 -1.96698 0.76637 0
M  V30 3258 O 295.147 -2.27586 -0.204179 0
M  V30 3259 C 295.357 -1.31481 3.23286 0
M  V30 3260 C 296.705 -1.75563 3.86604 0
M  V30 3261 O 297.729 -1.41093 3.27065 0
M  V30 3262 O 296.588 -2.39317 4.91314 0
M  V30 3263 H 293.682 -0.393776 0.727234 0
M  V30 3264 H 296.228 -0.0717138 1.69548 0
M  V30 3265 H 295 -0.496671 3.88135 0
M  V30 3266 H 294.623 -2.12973 3.35751 0
M  V30 3267 N 295.62 -1.53406 -0.361157 0
M  V30 3268 C 296.848 -1.73717 -1.12383 0
M  V30 3269 C 297.263 -0.468161 -1.82904 0
M  V30 3270 O 296.62 0.559198 -1.73722 0
M  V30 3271 C 296.671 -2.90558 -2.15078 0
M  V30 3272 O 296.392 -4.12549 -1.47428 0
M  V30 3273 C 297.893 -3.22777 -3.03858 0
M  V30 3274 H 295.113 -0.580896 -0.335858 0
M  V30 3275 H 297.657 -2.00167 -0.418728 0
M  V30 3276 H 295.812 -2.66489 -2.8118 0
M  V30 3277 H 296.226 -4.78009 -2.15887 0
M  V30 3278 H 297.7 -4.07927 -3.71887 0
M  V30 3279 H 298.177 -2.38329 -3.68912 0
M  V30 3280 H 298.783 -3.48787 -2.43367 0
M  V30 3281 N 297.098 0.621204 -1.44841 0
M  V30 3282 C 298.509 1.20298 -1.42777 0
M  V30 3283 C 298.86 1.95639 -0.148259 0
M  V30 3284 O 297.985 2.02955 0.750892 0
M  V30 3285 C 298.58 2.1882 -2.58657 0
M  V30 3286 C 297.139 2.72403 -2.59756 0
M  V30 3287 C 296.286 1.4757 -2.34773 0
M  V30 3288 H 299.237 0.411297 -1.53278 0
M  V30 3289 H 299.258 3.01607 -2.31977 0
M  V30 3290 H 298.77 1.63957 -3.51766 0
M  V30 3291 H 296.871 3.31242 -1.70615 0
M  V30 3292 H 296.984 3.17765 -3.58556 0
M  V30 3293 H 295.348 1.76051 -1.8406 0
M  V30 3294 H 296.131 0.945954 -3.3001 0
M  V30 3295 N 298.576 1.31904 0.862503 0
M  V30 3296 C 299.506 1.22782 1.98612 0
M  V30 3297 C 300.487 0.113362 1.69722 0
M  V30 3298 O 301.672 0.299218 1.91881 0
M  V30 3299 C 298.802 0.942058 3.34279 0
M  V30 3300 C 297.756 2.0169 3.77499 0
M  V30 3301 C 297.082 1.58369 5.10709 0
M  V30 3302 C 298.382 3.43096 3.93805 0
M  V30 3303 H 300.076 2.16788 2.06502 0
M  V30 3304 H 297.622 1.04366 0.992154 0
M  V30 3305 H 299.575 0.864818 4.1243 0
M  V30 3306 H 298.299 -0.0336603 3.26583 0
M  V30 3307 H 296.958 2.08416 3.01593 0
M  V30 3308 H 296.606 0.595628 4.99461 0
M  V30 3309 H 296.306 2.30279 5.40597 0
M  V30 3310 H 297.83 1.52067 5.91361 0
M  V30 3311 H 299.244 3.39003 4.62331 0
M  V30 3312 H 297.641 4.13288 4.35101 0
M  V30 3313 H 298.711 3.83334 2.96957 0
M  V30 3314 N 300.054 -1.07777 1.14986 0
M  V30 3315 C 301.465 -1.61766 0.932127 0
M  V30 3316 C 301.816 -1.88974 -0.527581 0
M  V30 3317 O 300.941 -1.65198 -1.39781 0
M  V30 3318 C 301.536 -2.93891 1.68563 0
M  V30 3319 C 300.095 -3.44639 1.5133 0
M  V30 3320 C 299.242 -2.18767 1.704 0
M  V30 3321 H 302.193 -0.909201 1.30074 0
M  V30 3322 H 302.214 -3.62623 1.15259 0
M  V30 3323 H 301.726 -2.74057 2.74799 0
M  V30 3324 H 299.827 -3.69564 0.474702 0
M  V30 3325 H 299.94 -4.20966 2.28746 0
M  V30 3326 H 298.304 -2.28253 1.13016 0
M  V30 3327 H 299.087 -2.01433 2.77992 0
M  V30 3328 N 301.532 -0.945985 -1.26051 0
M  V30 3329 C 302.495 -0.463897 -2.24456 0
M  V30 3330 C 303.495 0.427655 -1.55009 0
M  V30 3331 O 304.685 0.226157 -1.72726 0
M  V30 3332 C 301.817 0.330812 -3.39291 0
M  V30 3333 H 303.01 -1.33357 -2.68619 0
M  V30 3334 H 300.563 -0.728416 -1.38289 0
M  V30 3335 H 301.298 1.21852 -3.00537 0
M  V30 3336 H 301.083 -0.308679 -3.90883 0
M  V30 3337 H 302.573 0.657865 -4.12386 0
M  V30 3338 N 303.011 1.40521 -0.713556 0
M  V30 3339 C 304.241 2.0494 -0.261395 0
M  V30 3340 C 304.649 1.53861 1.10107 0
M  V30 3341 O 303.992 0.689321 1.70276 0
M  V30 3342 C 304.054 3.59138 -0.161227 0
M  V30 3343 C 303.718 4.33096 -1.45865 0
M  V30 3344 C 304.715 4.61182 -2.40016 0
M  V30 3345 C 302.4 4.72043 -1.71701 0
M  V30 3346 C 304.394 5.27196 -3.58251 0
M  V30 3347 C 302.081 5.37789 -2.90218 0
M  V30 3348 C 303.079 5.65295 -3.83315 0
M  V30 3349 O 302.767 6.29683 -4.99754 0
M  V30 3350 H 302.499 0.666041 -0.115608 0
M  V30 3351 H 305.053 1.80954 -0.971849 0
M  V30 3352 H 303.283 3.81936 0.605153 0
M  V30 3353 H 304.972 4.05091 0.256105 0
M  V30 3354 H 305.738 4.31559 -2.21318 0
M  V30 3355 H 301.617 4.50003 -1.00092 0
M  V30 3356 H 305.161 5.48582 -4.30934 0
M  V30 3357 H 301.058 5.66831 -3.08825 0
M  V30 3358 H 301.826 6.4818 -4.99805 0
M  V30 3359 N 304.489 0.459591 1.5075 0
M  V30 3360 C 305.736 -0.0993495 2.02256 0
M  V30 3361 C 306.064 -1.40751 1.34237 0
M  V30 3362 O 305.319 -1.90379 0.453228 0
M  V30 3363 C 305.618 -0.342866 3.55752 0
M  V30 3364 C 305.284 0.88218 4.42186 0
M  V30 3365 C 303.946 1.21808 4.65528 0
M  V30 3366 C 306.298 1.69837 4.92752 0
M  V30 3367 C 303.626 2.37045 5.36681 0
M  V30 3368 C 305.978 2.84192 5.65171 0
M  V30 3369 C 304.642 3.1821 5.8677 0
M  V30 3370 H 303.912 -0.0363545 0.740108 0
M  V30 3371 H 306.559 0.611329 1.8148 0
M  V30 3372 H 304.864 -1.13567 3.7498 0
M  V30 3373 H 306.561 -0.789121 3.93159 0
M  V30 3374 H 303.151 0.610467 4.2423 0
M  V30 3375 H 307.335 1.45205 4.74583 0
M  V30 3376 H 302.591 2.63689 5.51614 0
M  V30 3377 H 306.765 3.4779 6.03337 0
M  V30 3378 H 304.392 4.07613 6.41682 0
M  V30 3379 N 305.967 -1.56429 0.191757 0
M  V30 3380 C 307.213 -1.97777 -0.448554 0
M  V30 3381 C 307.546 -1.07847 -1.61501 0
M  V30 3382 O 306.821 -0.129774 -1.94067 0
M  V30 3383 C 307.104 -3.48362 -0.911906 0
M  V30 3384 C 306.957 -4.4907 0.256136 0
M  V30 3385 C 308.276 -4.02561 -1.77857 0
M  V30 3386 H 305.395 -0.719071 -0.161572 0
M  V30 3387 H 308.037 -1.87896 0.282007 0
M  V30 3388 H 306.187 -3.56914 -1.53442 0
M  V30 3389 H 307.859 -4.5256 0.893733 0
M  V30 3390 H 306.102 -4.24181 0.908436 0
M  V30 3391 H 306.773 -5.51889 -0.11053 0
M  V30 3392 H 309.249 -3.96767 -1.25359 0
M  V30 3393 H 308.125 -5.08301 -2.07174 0
M  V30 3394 H 308.386 -3.47616 -2.73158 0
M  V30 3395 N 307.445 0.0818655 -1.57387 0
M  V30 3396 C 308.861 0.436412 -1.53517 0
M  V30 3397 C 309.061 1.79758 -0.910459 0
M  V30 3398 O 308.117 2.47324 -0.508636 0
M  V30 3399 C 309.43 0.386734 -2.98203 0
M  V30 3400 C 310.978 0.467644 -3.09487 0
M  V30 3401 C 311.453 0.447978 -4.55804 0
M  V30 3402 N 312.944 0.508348 -4.60402 0
M  V30 3403 C 313.679 0.515184 -5.71081 0
M  V30 3404 N 313.175 0.477435 -6.91153 0
M  V30 3405 N 314.968 0.560988 -5.59294 0
M  V30 3406 H 307.119 -0.809546 -1.96367 0
M  V30 3407 H 309.382 -0.302733 -0.898363 0
M  V30 3408 H 309.088 -0.546539 -3.47427 0
M  V30 3409 H 308.962 1.20075 -3.57578 0
M  V30 3410 H 311.349 1.39134 -2.60242 0
M  V30 3411 H 311.43 -0.374753 -2.5304 0
M  V30 3412 H 311.074 -0.471826 -5.05704 0
M  V30 3413 H 311.004 1.30777 -5.10103 0
M  V30 3414 H 313.495 0.54218 -3.7399 0
M  V30 3415 H 313.808 0.486299 -7.71268 0
M  V30 3416 H 312.153 0.444278 -6.93579 0
M  V30 3417 H 315.344 0.5881 -4.64391 0
M  V30 3418 H 315.517 0.562846 -6.45551 0
M  V30 3419 N 308.923 1.53595 0.353017 0
M  V30 3420 C 310.171 1.70049 1.09215 0
M  V30 3421 C 310.492 0.461406 1.89463 0
M  V30 3422 O 309.762 -0.524633 1.88744 0
M  V30 3423 H 308.342 0.626912 0.40619 0
M  V30 3424 H 311.004 1.90822 0.396585 0
M  V30 3425 H 310.1 2.56718 1.77488 0
M  V30 3426 N 310.401 -0.613514 1.45168 0
M  V30 3427 C 311.348 -1.72456 1.53387 0
M  V30 3428 C 312.318 -1.6169 0.380191 0
M  V30 3429 O 313.503 -1.81356 0.592836 0
M  V30 3430 C 310.643 -3.10753 1.50088 0
M  V30 3431 C 309.756 -3.32368 2.75963 0
M  V30 3432 C 308.891 -4.60737 2.64376 0
M  V30 3433 C 307.93 -4.7559 3.85332 0
M  V30 3434 N 307.067 -5.95253 3.72315 0
M  V30 3435 H 311.907 -1.64768 2.48305 0
M  V30 3436 H 309.444 -0.803503 1.23216 0
M  V30 3437 H 311.402 -3.90758 1.46164 0
M  V30 3438 H 310.032 -3.17413 0.587243 0
M  V30 3439 H 309.084 -2.4618 2.89999 0
M  V30 3440 H 310.396 -3.39218 3.65695 0
M  V30 3441 H 309.55 -5.48928 2.58385 0
M  V30 3442 H 308.289 -4.56275 1.72233 0
M  V30 3443 H 307.294 -3.85824 3.91688 0
M  V30 3444 H 308.519 -4.81854 4.78533 0
M  V30 3445 H 306.465 -5.91847 2.82937 0
M  V30 3446 H 306.382 -6.03236 4.55677 0
M  V30 3447 H 307.65 -6.85958 3.70246 0
M  V30 3448 N 311.879 -1.3236 -0.855495 0
M  V30 3449 C 312.789 -1.23221 -1.99634 0
M  V30 3450 C 313.805 -0.145983 -1.73387 0
M  V30 3451 O 314.981 -0.366502 -1.98037 0
M  V30 3452 C 312.046 -0.954782 -3.33294 0
M  V30 3453 C 311.107 -2.12937 -3.72769 0
M  V30 3454 C 310.34 -1.86508 -5.00051 0
M  V30 3455 O 310.563 -0.807231 -5.64659 0
M  V30 3456 O 309.497 -2.72591 -5.36636 0
M  V30 3457 H 313.323 -2.19126 -2.1028 0
M  V30 3458 H 310.908 -1.12241 -0.986018 0
M  V30 3459 H 312.79 -0.816519 -4.13414 0
M  V30 3460 H 311.465 -0.0258854 -3.2369 0
M  V30 3461 H 310.372 -2.3231 -2.93228 0
M  V30 3462 H 311.705 -3.04102 -3.87018 0
M  V30 3463 N 313.357 1.07166 -1.15556 0
M  V30 3464 C 314.304 2.14417 -0.854055 0
M  V30 3465 C 315.274 1.64965 0.193806 0
M  V30 3466 O 316.459 1.90703 0.0609443 0
M  V30 3467 C 313.599 3.43304 -0.351574 0
M  V30 3468 C 312.712 4.06537 -1.46123 0
M  V30 3469 C 311.847 5.23266 -0.914677 0
M  V30 3470 C 310.886 5.78464 -2.00114 0
M  V30 3471 N 310.023 6.86521 -1.47083 0
M  V30 3472 H 314.863 2.39548 -1.77259 0
M  V30 3473 H 312.4 1.17543 -0.884425 0
M  V30 3474 H 314.358 4.17179 -0.0419409 0
M  V30 3475 H 312.988 3.18419 0.530037 0
M  V30 3476 H 312.04 3.30297 -1.88701 0
M  V30 3477 H 313.352 4.43567 -2.28144 0
M  V30 3478 H 312.506 6.04131 -0.557698 0
M  V30 3479 H 311.245 4.87658 -0.0636583 0
M  V30 3480 H 310.25 4.96243 -2.36692 0
M  V30 3481 H 311.475 6.16126 -2.85597 0
M  V30 3482 H 309.421 6.52849 -0.642198 0
M  V30 3483 H 309.338 7.22446 -2.22729 0
M  V30 3484 H 310.606 7.71087 -1.14215 0
M  V30 3485 N 314.835 0.952656 1.25548 0
M  V30 3486 C 316.063 0.623496 1.97282 0
M  V30 3487 C 316.478 -0.803987 1.70826 0
M  V30 3488 O 315.835 -1.53755 0.983147 0
M  V30 3489 C 315.886 0.870209 3.5087 0
M  V30 3490 O 315.607 2.24156 3.76412 0
M  V30 3491 C 317.108 0.553164 4.39835 0
M  V30 3492 H 314.328 0.233931 0.628902 0
M  V30 3493 H 316.872 1.27649 1.59768 0
M  V30 3494 H 315.027 0.263652 3.86502 0
M  V30 3495 H 315.441 2.31021 4.70882 0
M  V30 3496 H 316.915 0.776342 5.46513 0
M  V30 3497 H 317.392 -0.512215 4.36203 0
M  V30 3498 H 317.998 1.13896 4.09766 0
M  V30 3499 N 316.313 -1.40141 0.720998 0
M  V30 3500 C 317.559 -2.01084 0.263231 0
M  V30 3501 C 317.892 -1.57052 -1.14229 0
M  V30 3502 O 317.167 -0.793027 -1.77599 0
M  V30 3503 C 317.45 -3.58401 0.349344 0
M  V30 3504 C 317.303 -4.12491 1.79363 0
M  V30 3505 C 318.622 -4.39231 -0.276351 0
M  V30 3506 H 315.741 -0.730572 0.0971228 0
M  V30 3507 H 318.383 -1.66543 0.914518 0
M  V30 3508 H 316.533 -3.87958 -0.205165 0
M  V30 3509 H 318.205 -3.93711 2.40394 0
M  V30 3510 H 316.448 -3.66576 2.31958 0
M  V30 3511 H 317.119 -5.21646 1.80524 0
M  V30 3512 H 319.595 -4.15637 0.196184 0
M  V30 3513 H 318.471 -5.48586 -0.185681 0
M  V30 3514 H 318.732 -4.20643 -1.36059 0
M  V30 3515 N 317.792 -0.46758 -1.50504 0
M  V30 3516 C 319.038 0.0808869 -2.03239 0
M  V30 3517 C 319.393 1.37721 -1.34353 0
M  V30 3518 O 318.686 1.86016 -0.459194 0
M  V30 3519 C 318.88 0.323995 -3.55928 0
M  V30 3520 C 318.709 -0.947215 -4.39611 0
M  V30 3521 C 317.479 -1.48951 -4.82848 0
M  V30 3522 C 319.677 -1.84166 -4.80195 0
M  V30 3523 N 317.659 -2.71011 -5.50842 0
M  V30 3524 C 319.03 -2.90815 -5.47564 0
M  V30 3525 C 321.085 -1.85246 -4.62156 0
M  V30 3526 C 319.788 -3.98529 -5.98805 0
M  V30 3527 C 321.814 -2.91914 -5.14335 0
M  V30 3528 C 321.176 -3.97282 -5.81676 0
M  V30 3529 H 317.275 -0.0103394 -0.781932 0
M  V30 3530 H 319.859 -0.635003 -1.84054 0
M  V30 3531 H 318.03 1.00892 -3.75067 0
M  V30 3532 H 319.762 0.866492 -3.95315 0
M  V30 3533 H 316.517 -1.03918 -4.62058 0
M  V30 3534 H 316.941 -3.32988 -5.89447 0
M  V30 3535 H 321.583 -1.05103 -4.09528 0
M  V30 3536 H 319.301 -4.79491 -6.50472 0
M  V30 3537 H 322.887 -2.93729 -5.0221 0
M  V30 3538 H 321.767 -4.78462 -6.21324 0
M  V30 3539 N 319.27 1.56325 -0.20005 0
M  V30 3540 C 320.517 1.97719 0.437411 0
M  V30 3541 C 320.845 1.08709 1.61284 0
M  V30 3542 O 320.1 0.127261 1.95286 0
M  V30 3543 C 320.399 3.4495 0.935103 0
M  V30 3544 C 320.065 4.5072 -0.12749 0
M  V30 3545 C 318.727 4.79368 -0.419451 0
M  V30 3546 C 321.079 5.14268 -0.847231 0
M  V30 3547 C 318.407 5.68854 -1.43604 0
M  V30 3548 C 320.759 6.04852 -1.85301 0
M  V30 3549 C 319.423 6.31855 -2.15211 0
M  V30 3550 H 318.693 0.723507 0.16006 0
M  V30 3551 H 321.34 1.89166 -0.298056 0
M  V30 3552 H 319.645 3.50599 1.74894 0
M  V30 3553 H 321.342 3.74337 1.43781 0
M  V30 3554 H 317.932 4.28458 0.11023 0
M  V30 3555 H 322.116 4.92222 -0.634901 0
M  V30 3556 H 317.372 5.88047 -1.67364 0
M  V30 3557 H 321.546 6.53152 -2.41591 0
M  V30 3558 H 319.173 7.00994 -2.94129 0
M  V30 3559 N 320.748 -0.0735177 1.57428 0
M  V30 3560 C 321.994 -0.774145 1.87443 0
M  V30 3561 C 322.327 -1.77311 0.792103 0
M  V30 3562 O 321.602 -1.93492 -0.197793 0
M  V30 3563 C 321.885 -1.48367 3.28115 0
M  V30 3564 C 321.738 -0.501227 4.46999 0
M  V30 3565 C 323.057 -2.429 3.66998 0
M  V30 3566 H 320.176 -0.279971 0.681752 0
M  V30 3567 H 322.818 -0.0373616 1.89963 0
M  V30 3568 H 320.968 -2.11171 3.26097 0
M  V30 3569 H 322.64 0.121468 4.6114 0
M  V30 3570 H 320.883 0.183593 4.33411 0
M  V30 3571 H 321.554 -1.03526 5.42205 0
M  V30 3572 H 324.03 -1.90175 3.70098 0
M  V30 3573 H 322.906 -2.89549 4.66318 0
M  V30 3574 H 323.167 -3.27628 2.96837 0
M  V30 3575 N 322.226 -1.5378 -0.344866 0
M  V30 3576 C 323.474 -1.70625 -1.08311 0
M  V30 3577 C 323.795 -0.471447 -1.89215 0
M  V30 3578 O 323.065 0.514616 -1.8902 0
M  V30 3579 H 321.645 -0.629058 -0.402859 0
M  V30 3580 H 324.307 -1.9103 -0.386459 0
M  V30 3581 H 323.403 -2.57656 -1.76124 0
M  V30 3582 N 323.704 0.605807 -1.45491 0
M  V30 3583 C 324.651 1.7164 -1.54299 0
M  V30 3584 C 325.621 1.61486 -0.388761 0
M  V30 3585 O 326.806 1.81039 -0.602445 0
M  V30 3586 C 323.946 3.09953 -1.51734 0
M  V30 3587 C 323.059 3.309 -2.77721 0
M  V30 3588 C 322.194 4.59329 -2.66816 0
M  V30 3589 C 321.233 4.7354 -3.87848 0
M  V30 3590 N 320.37 5.9327 -3.75467 0
M  V30 3591 H 325.21 1.63449 -2.49176 0
M  V30 3592 H 322.747 0.796957 -1.23641 0
M  V30 3593 H 324.705 3.89977 -1.48235 0
M  V30 3594 H 323.335 3.17098 -0.604068 0
M  V30 3595 H 322.387 2.44639 -2.913 0
M  V30 3596 H 323.699 3.37274 -3.67488 0
M  V30 3597 H 322.853 5.4755 -2.61292 0
M  V30 3598 H 321.592 4.55355 -1.74651 0
M  V30 3599 H 320.597 3.83741 -3.93729 0
M  V30 3600 H 321.822 4.79309 -4.81082 0
M  V30 3601 H 319.768 5.90338 -2.86072 0
M  V30 3602 H 319.685 6.00811 -4.5887 0
M  V30 3603 H 320.953 6.83984 -3.73879 0
M  V30 3604 O 325.221 1.43044 0.749719 0
M  V30 3605 H 325.912 1.3401 1.3986 0
M  V30 END ATOM
M  V30 BEGIN BOND
M  V30 END BOND
M  V30 END CTAB
M  END
$$$$
