drugbank_target|P15291 Beta-1,4-galactosyltransferase 1 (DB00141; DB02696; DB03013; DB03501; DB03685; DB03814)
 OpenBabel12092119283D

  0  0  0     0  0            999 V3000
M  V30 BEGIN CTAB
M  V30 COUNTS 6164 6244 0 0 0
M  V30 BEGIN ATOM
M  V30 1 H -0.908 1.98254 -0.117106 0
M  V30 2 N 0 1.576 0 0
M  V30 3 C 0.933 2.03868 1.02534 0
M  V30 4 C 1.911 0.928543 1.3348 0
M  V30 5 O 3.095 1.19667 1.45644 0
M  V30 6 C 0.222 2.43627 2.35294 0
M  V30 7 C -0.732 3.65373 2.2001 0
M  V30 8 S 0.101 5.13292 1.52614 0
M  V30 9 C 1.257 5.56322 2.86805 0
M  V30 10 H 1.49 2.90518 0.631377 0
M  V30 11 H -0.977 1.52953 0.210867 0
M  V30 12 H 0.981 2.67203 3.11629 0
M  V30 13 H -0.358 1.57376 2.7183 0
M  V30 14 H -1.165 3.90944 3.18086 0
M  V30 15 H -1.563 3.418 1.51819 0
M  V30 16 H 0.729 5.58782 3.83104 0
M  V30 17 H 1.672 6.56266 2.65933 0
M  V30 18 H 2.08 4.83886 2.90714 0
M  V30 19 N 1.4781 -0.272755 1.55222 0
M  V30 20 C 2.8941 -0.619959 1.47067 0
M  V30 21 C 3.0941 -1.895 0.684978 0
M  V30 22 O 2.1501 -2.51675 0.203931 0
M  V30 23 C 3.4631 -0.746693 2.91282 0
M  V30 24 C 5.0111 -0.840731 3.01497 0
M  V30 25 C 5.4861 -0.99924 4.46967 0
M  V30 26 N 6.9771 -1.06476 4.50796 0
M  V30 27 C 7.7121 -1.20621 5.6057 0
M  V30 28 N 7.2081 -1.31483 6.80209 0
M  V30 29 N 9.0011 -1.23733 5.48312 0
M  V30 30 H 1.1521 0.564606 2.04758 0
M  V30 31 H 3.4151 0.191177 0.928523 0
M  V30 32 H 3.1211 0.119753 3.51496 0
M  V30 33 H 2.9951 -1.6269 3.40311 0
M  V30 34 H 5.3821 -1.69764 2.41379 0
M  V30 35 H 5.4631 0.0640874 2.5572 0
M  V30 36 H 5.1071 -0.146984 5.07687 0
M  V30 37 H 5.0371 -1.91871 4.90401 0
M  V30 38 H 7.5281 -0.993196 3.64615 0
M  V30 39 H 7.8411 -1.42111 7.59621 0
M  V30 40 H 6.1861 -1.28487 6.8302 0
M  V30 41 H 9.3771 -1.14877 4.53785 0
M  V30 42 H 9.5501 -1.34412 6.33906 0
M  V30 43 N 2.9562 -1.48159 -0.537278 0
M  V30 44 C 3.8862 -1.65029 -1.6519 0
M  V30 45 C 4.8672 -0.499281 -1.62607 0
M  V30 46 O 6.0522 -0.730972 -1.79918 0
M  V30 47 C 3.1822 -1.68303 -3.03795 0
M  V30 48 C 2.1362 -2.8283 -3.21234 0
M  V30 49 C 1.4622 -2.71189 -4.60826 0
M  V30 50 C 2.7622 -4.24211 -3.04701 0
M  V30 51 H 4.4562 -2.58341 -1.51328 0
M  V30 52 H 2.0022 -1.24325 -0.726585 0
M  V30 53 H 3.9552 -1.78693 -3.81637 0
M  V30 54 H 2.6792 -0.715635 -3.18663 0
M  V30 55 H 1.3382 -2.71983 -2.45807 0
M  V30 56 H 0.9862 -1.72435 -4.7252 0
M  V30 57 H 0.6862 -3.48035 -4.7344 0
M  V30 58 H 2.2102 -2.83537 -5.40777 0
M  V30 59 H 3.6242 -4.3593 -3.72341 0
M  V30 60 H 2.0212 -5.01998 -3.28813 0
M  V30 61 H 3.0912 -4.41184 -2.01209 0
M  V30 62 N 4.4343 0.785586 -1.36625 0
M  V30 63 C 5.8503 1.08419 -1.17122 0
M  V30 64 C 6.0503 2.015 0.00208491 0
M  V30 65 O 5.1063 2.43551 0.666278 0
M  V30 66 C 6.4193 1.69498 -2.48377 0
M  V30 67 C 7.9673 1.81821 -2.54775 0
M  V30 68 C 8.4423 2.46315 -3.86126 0
M  V30 69 N 9.9333 2.53779 -3.87492 0
M  V30 70 C 10.6683 3.045 -4.85868 0
M  V30 71 N 10.1643 3.55499 -5.94637 0
M  V30 72 N 11.9573 3.03247 -4.73284 0
M  V30 73 H 4.1083 0.167264 -2.1174 0
M  V30 74 H 6.3713 0.13682 -0.938075 0
M  V30 75 H 6.0773 1.08571 -3.34522 0
M  V30 76 H 5.9513 2.6896 -2.64462 0
M  V30 77 H 8.3383 2.41884 -1.69045 0
M  V30 78 H 8.4193 0.811532 -2.42586 0
M  V30 79 H 8.0633 1.86895 -4.72263 0
M  V30 80 H 7.9933 3.47561 -3.95612 0
M  V30 81 H 10.4843 2.17672 -3.08913 0
M  V30 82 H 10.7973 3.92562 -6.65669 0
M  V30 83 H 9.1423 3.5364 -5.98301 0
M  V30 84 H 12.3333 2.62696 -3.87438 0
M  V30 85 H 12.5063 3.42467 -5.50109 0
M  V30 86 N 5.9124 1.20967 1.01018 0
M  V30 87 C 6.8224 0.980157 2.13143 0
M  V30 88 C 7.8384 -0.0660665 1.73875 0
M  V30 89 O 9.0144 0.122821 2.01025 0
M  V30 90 C 6.0794 0.54216 3.42435 0
M  V30 91 C 5.1404 1.65999 3.95908 0
M  V30 92 C 4.3734 1.2428 5.19028 0
M  V30 93 O 4.5964 0.114196 5.70286 0
M  V30 94 O 3.5304 2.05271 5.65816 0
M  V30 95 H 7.3564 1.91913 2.35379 0
M  V30 96 H 4.9414 0.994099 1.11526 0
M  V30 97 H 6.8234 0.30744 4.20277 0
M  V30 98 H 5.4984 -0.36815 3.216 0
M  V30 99 H 4.4054 1.94906 3.19316 0
M  V30 100 H 5.7384 2.54753 4.21143 0
M  V30 101 N 7.3905 -1.2043 1.01659 0
M  V30 102 C 8.8015 -1.71517 0.737482 0
M  V30 103 C 9.1525 -1.81547 -0.743973 0
M  V30 104 O 8.2775 -1.47803 -1.58061 0
M  V30 105 C 8.8725 -3.11515 1.33206 0
M  V30 106 C 7.4315 -3.59912 1.10183 0
M  V30 107 C 6.5785 -2.37116 1.43776 0
M  V30 108 H 9.5295 -1.05444 1.18606 0
M  V30 109 H 9.5505 -3.73575 0.722636 0
M  V30 110 H 9.0625 -3.04182 2.41028 0
M  V30 111 H 7.1635 -3.72577 0.0412756 0
M  V30 112 H 7.2765 -4.44731 1.78188 0
M  V30 113 H 5.6405 -2.39857 0.856778 0
M  V30 114 H 6.4235 -2.32424 2.52654 0
M  V30 115 N 8.8686 -0.792821 -1.36206 0
M  V30 116 C 9.7986 -0.207853 -2.32573 0
M  V30 117 C 10.7796 0.659055 -1.56813 0
M  V30 118 O 11.9646 0.592176 -1.84951 0
M  V30 119 C 9.0946 0.655449 -3.41059 0
M  V30 120 C 8.0486 -0.111842 -4.27854 0
M  V30 121 C 7.3746 0.872274 -5.27537 0
M  V30 122 C 8.6746 -1.30299 -5.05786 0
M  V30 123 H 10.3686 -1.01294 -2.81744 0
M  V30 124 H 7.9146 -0.48854 -1.3546 0
M  V30 125 H 9.8676 1.07464 -4.07467 0
M  V30 126 H 8.5916 1.49328 -2.90463 0
M  V30 127 H 7.2506 -0.512053 -3.63006 0
M  V30 128 H 6.8986 1.70523 -4.73214 0
M  V30 129 H 6.5986 0.363291 -5.86476 0
M  V30 130 H 8.1226 1.28996 -5.96818 0
M  V30 131 H 9.5366 -0.959379 -5.65216 0
M  V30 132 H 7.9336 -1.7455 -5.74154 0
M  V30 133 H 9.0036 -2.09663 -4.37229 0
M  V30 134 N 10.3467 1.47872 -0.545128 0
M  V30 135 C 11.2767 2.32661 0.197793 0
M  V30 136 C 12.2577 1.43041 0.920504 0
M  V30 137 O 13.4427 1.71912 0.90333 0
M  V30 138 C 10.5727 3.24569 1.23582 0
M  V30 139 C 9.5267 4.23333 0.630323 0
M  V30 140 C 8.8527 5.0448 1.77211 0
M  V30 141 C 10.1527 5.20704 -0.407974 0
M  V30 142 H 11.8467 2.95024 -0.510045 0
M  V30 143 H 9.3927 1.4187 -0.246731 0
M  V30 144 H 11.3457 3.8272 1.76362 0
M  V30 145 H 10.0697 2.60236 1.97344 0
M  V30 146 H 8.7287 3.6639 0.123922 0
M  V30 147 H 8.3767 4.36561 2.49847 0
M  V30 148 H 8.0767 5.71339 1.37281 0
M  V30 149 H 9.6007 5.65487 2.3034 0
M  V30 150 H 11.0147 5.7329 0.033305 0
M  V30 151 H 9.4117 5.95699 -0.725486 0
M  V30 152 H 10.4817 4.66917 -1.30828 0
M  V30 153 N 11.8248 0.280983 1.55075 0
M  V30 154 C 13.0498 -0.340154 2.04592 0
M  V30 155 C 13.4748 -1.48246 1.15779 0
M  V30 156 O 12.8328 -1.80614 0.15761 0
M  V30 157 C 12.8808 -0.793104 3.5177 0
M  V30 158 O 11.9848 -1.89981 3.66034 0
M  V30 159 H 11.3258 -0.0694289 0.66036 0
M  V30 160 H 13.8558 0.416993 2.00306 0
M  V30 161 H 13.8658 -1.08729 3.93245 0
M  V30 162 H 12.5408 0.0426163 4.15878 0
M  V30 163 H 11.1178 -1.60771 3.36463 0
M  V30 164 N 13.3029 -1.57598 0.00835791 0
M  V30 165 C 14.5509 -1.90551 -0.6734 0
M  V30 166 C 14.8719 -0.883301 -1.73847 0
M  V30 167 O 14.1419 0.0781442 -1.95744 0
M  V30 168 H 12.7219 -0.703312 -0.251717 0
M  V30 169 H 15.3839 -1.94833 0.0512592 0
M  V30 170 H 14.4799 -2.9056 -1.13935 0
M  V30 171 N 14.781 0.264519 -1.55364 0
M  V30 172 C 16.006 1.01726 -1.80739 0
M  V30 173 C 16.431 1.78836 -0.583044 0
M  V30 174 O 15.789 1.75167 0.467566 0
M  V30 175 C 15.837 1.94482 -3.03659 0
M  V30 176 O 14.941 3.03386 -2.7934 0
M  V30 177 H 14.282 0.290395 -0.597132 0
M  V30 178 H 16.812 0.290854 -2.02522 0
M  V30 179 H 16.822 2.36278 -3.32621 0
M  V30 180 H 15.497 1.37772 -3.92418 0
M  V30 181 H 14.074 2.65844 -2.61498 0
M  V30 182 N 16.2591 1.48442 0.529413 0
M  V30 183 C 17.2221 1.62524 1.61612 0
M  V30 184 C 18.2221 0.498509 1.52877 0
M  V30 185 O 19.4121 0.76431 1.56537 0
M  V30 186 C 16.5441 1.59597 3.01233 0
M  V30 187 H 17.7371 2.59423 1.50465 0
M  V30 188 H 15.2901 1.37047 0.751514 0
M  V30 189 H 16.0251 0.641781 3.17886 0
M  V30 190 H 15.8101 2.41397 3.08982 0
M  V30 191 H 17.3001 1.72646 3.80241 0
M  V30 192 N 17.7372 -0.778329 1.37039 0
M  V30 193 C 18.7002 -1.87301 1.32102 0
M  V30 194 C 19.7002 -1.59198 0.226405 0
M  V30 195 O 20.8902 -1.67403 0.481861 0
M  V30 196 C 18.0222 -3.24309 1.05055 0
M  V30 197 H 19.2152 -1.93093 2.29467 0
M  V30 198 H 16.7682 -0.977358 1.21973 0
M  V30 199 H 17.5032 -3.24196 0.0819373 0
M  V30 200 H 17.2882 -3.46098 1.84279 0
M  V30 201 H 18.7782 -4.04382 1.04234 0
M  V30 202 N 19.2153 -1.21501 -1.00376 0
M  V30 203 C 20.1483 -0.918669 -2.08892 0
M  V30 204 C 21.1263 0.134277 -1.62045 0
M  V30 205 O 22.3103 0.00504255 -1.88499 0
M  V30 206 C 19.4373 -0.379645 -3.36566 0
M  V30 207 C 18.4833 -1.41559 -4.02323 0
M  V30 208 S 19.3163 -2.98521 -4.44574 0
M  V30 209 C 20.4723 -2.46228 -5.75433 0
M  V30 210 H 20.7053 -1.83761 -2.33707 0
M  V30 211 H 18.2383 -1.04489 -1.13673 0
M  V30 212 H 20.1963 -0.0752195 -4.10431 0
M  V30 213 H 18.8573 0.518008 -3.09799 0
M  V30 214 H 18.0503 -0.988076 -4.9422 0
M  V30 215 H 17.6523 -1.66815 -3.34737 0
M  V30 216 H 19.9443 -1.86791 -6.51241 0
M  V30 217 H 20.8873 -3.36572 -6.22997 0
M  V30 218 H 21.2953 -1.87894 -5.32312 0
M  V30 219 N 20.6934 1.19889 -1.02296 0
M  V30 220 C 22.1044 1.71124 -0.746568 0
M  V30 221 C 22.4554 1.81939 0.734335 0
M  V30 222 O 21.5804 1.48639 1.57275 0
M  V30 223 C 22.1754 3.10804 -1.34857 0
M  V30 224 C 20.7344 3.59323 -1.1209 0
M  V30 225 C 19.8814 2.3635 -1.45031 0
M  V30 226 H 22.8324 1.04813 -1.19163 0
M  V30 227 H 22.8534 3.73186 -0.742437 0
M  V30 228 H 22.3654 3.029 -2.42638 0
M  V30 229 H 20.4664 3.7255 -0.0610337 0
M  V30 230 H 20.5794 4.4378 -1.80544 0
M  V30 231 H 18.9434 2.39399 -0.869487 0
M  V30 232 H 19.7264 2.31081 -2.53883 0
M  V30 233 N 22.1715 0.800033 1.35784 0
M  V30 234 C 23.4195 0.376597 1.9856 0
M  V30 235 C 23.7405 -1.05812 1.63795 0
M  V30 236 O 23.0105 -1.73103 0.917171 0
M  V30 237 H 21.5905 0.136261 0.734467 0
M  V30 238 H 24.2525 1.02442 1.65806 0
M  V30 239 H 23.3485 0.477002 3.08433 0
M  V30 240 N 23.6496 -1.47581 0.552962 0
M  V30 241 C 24.6126 -2.28439 -0.186605 0
M  V30 242 C 25.6126 -1.36706 -0.84665 0
M  V30 243 O 26.8026 -1.59378 -0.703164 0
M  V30 244 C 23.9346 -3.16264 -1.2724 0
M  V30 245 H 25.1276 -2.95294 0.523609 0
M  V30 246 H 22.6806 -1.532 0.309745 0
M  V30 247 H 23.4156 -2.54091 -2.01514 0
M  V30 248 H 23.2006 -3.83769 -0.803968 0
M  V30 249 H 24.6906 -3.77198 -1.79196 0
M  V30 250 N 25.1277 -0.289203 -1.54924 0
M  V30 251 C 26.3527 0.329299 -2.04769 0
M  V30 252 C 26.7777 1.4763 -1.16564 0
M  V30 253 O 26.1357 1.80527 -0.167186 0
M  V30 254 C 26.1837 0.774438 -3.52186 0
M  V30 255 O 25.2877 1.88038 -3.67036 0
M  V30 256 H 24.6287 0.0659259 -0.660719 0
M  V30 257 H 27.1587 -0.42761 -2.00082 0
M  V30 258 H 27.1687 1.06642 -3.93816 0
M  V30 259 H 25.8437 -0.0646707 -4.1585 0
M  V30 260 H 24.4207 1.58985 -3.3731 0
M  V30 261 N 26.6058 1.57591 -0.0167156 0
M  V30 262 C 27.5358 2.12496 0.967858 0
M  V30 263 C 28.5168 1.03807 1.34752 0
M  V30 264 O 29.7018 1.31577 1.42833 0
M  V30 265 C 26.8318 2.64194 2.25431 0
M  V30 266 C 25.7858 3.77559 2.01576 0
M  V30 267 C 25.1118 4.15636 3.36379 0
M  V30 268 C 26.4118 5.04151 1.36489 0
M  V30 269 H 28.1058 2.95013 0.510643 0
M  V30 270 H 25.6518 1.41915 0.244181 0
M  V30 271 H 27.6048 3.01236 2.94678 0
M  V30 272 H 26.3288 1.78821 2.73296 0
M  V30 273 H 24.9878 3.40937 1.34751 0
M  V30 274 H 24.6358 3.27263 3.81979 0
M  V30 275 H 24.3358 4.92022 3.21229 0
M  V30 276 H 25.8598 4.5525 4.06915 0
M  V30 277 H 27.2738 5.38857 1.95718 0
M  V30 278 H 25.6708 5.85453 1.31776 0
M  V30 279 H 26.7408 4.83733 0.336219 0
M  V30 280 N 28.0839 -0.256276 1.55502 0
M  V30 281 C 29.0159 -1.33981 1.85962 0
M  V30 282 C 30.0289 -1.44743 0.745212 0
M  V30 283 O 31.2179 -1.4626 1.02324 0
M  V30 284 C 28.3179 -2.7194 2.02242 0
M  V30 285 C 27.4909 -2.83562 3.33033 0
M  V30 286 C 26.5499 -4.02304 3.39172 0
M  V30 287 O 25.5759 -3.92273 4.12444 0
M  V30 288 N 26.7779 -5.15045 2.67784 0
M  V30 289 H 29.5429 -1.08191 2.7949 0
M  V30 290 H 27.1039 -0.446388 1.55624 0
M  V30 291 H 29.0959 -3.49697 2.03701 0
M  V30 292 H 27.6659 -2.90479 1.15502 0
M  V30 293 H 26.8859 -1.92555 3.43971 0
M  V30 294 H 28.1739 -2.88271 4.19258 0
M  V30 295 H 27.5719 -5.26085 2.07968 0
M  V30 296 H 26.1289 -5.90972 2.74947 0
M  V30 297 N 29.562 -1.4872 -0.521534 0
M  V30 298 C 30.978 -1.35028 -0.850855 0
M  V30 299 C 31.178 -0.367712 -1.98116 0
M  V30 300 O 30.234 0.208037 -2.51642 0
M  V30 301 C 31.547 -2.75263 -1.21041 0
M  V30 302 C 33.095 -2.83813 -1.31981 0
M  V30 303 C 33.57 -4.24769 -1.71276 0
M  V30 304 N 35.061 -4.27482 -1.78363 0
M  V30 305 C 35.796 -5.33494 -2.1017 0
M  V30 306 N 35.292 -6.49775 -2.40343 0
M  V30 307 N 37.085 -5.20894 -2.11248 0
M  V30 308 H 29.236 -2.11214 0.22413 0
M  V30 309 H 31.499 -0.947252 0.0376439 0
M  V30 310 H 31.205 -3.48765 -0.453415 0
M  V30 311 H 31.079 -3.09327 -2.15863 0
M  V30 312 H 33.466 -2.10561 -2.06756 0
M  V30 313 H 33.547 -2.53358 -0.352596 0
M  V30 314 H 33.191 -4.9854 -0.970588 0
M  V30 315 H 33.121 -4.52673 -2.69062 0
M  V30 316 H 35.612 -3.43611 -1.57288 0
M  V30 317 H 35.925 -7.26402 -2.63743 0
M  V30 318 H 34.27 -6.53035 -2.37844 0
M  V30 319 H 37.461 -4.29065 -1.87139 0
M  V30 320 H 37.634 -6.03612 -2.35704 0
M  V30 321 N 31.0401 0.771051 -1.3745 0
M  V30 322 C 32.0031 1.86598 -1.33093 0
M  V30 323 C 33.0031 1.59076 -0.234845 0
M  V30 324 O 34.1931 1.67145 -0.490732 0
M  V30 325 C 31.3251 3.23747 -1.06773 0
M  V30 326 H 32.5181 1.91873 -2.30488 0
M  V30 327 H 30.0711 0.970876 -1.2249 0
M  V30 328 H 30.8061 3.24148 -0.099129 0
M  V30 329 H 30.5911 3.45115 -1.86112 0
M  V30 330 H 32.0811 4.03824 -1.06377 0
M  V30 331 N 32.5182 1.22032 0.997298 0
M  V30 332 C 33.7582 1.05375 1.75144 0
M  V30 333 C 34.1222 -0.404696 1.87686 0
M  V30 334 O 35.3232 -0.691998 2.5974 0
M  V30 335 C 33.5942 1.74046 3.12158 0
M  V30 336 S 35.1532 1.72745 4.03366 0
M  V30 337 H 31.9712 0.377449 0.602539 0
M  V30 338 H 34.5732 1.54902 1.19272 0
M  V30 339 H 33.2772 2.79332 3.00669 0
M  V30 340 H 32.8082 1.24731 3.73103 0
M  V30 341 H 34.8232 0.774015 4.90126 0
M  V30 342 N 33.9963 -1.19345 1.0293 0
M  V30 343 C 35.4123 -1.41069 0.746446 0
M  V30 344 C 35.6123 -1.90078 -0.668776 0
M  V30 345 O 34.6683 -2.0778 -1.4347 0
M  V30 346 C 35.9813 -2.42141 1.78292 0
M  V30 347 C 37.5293 -2.55887 1.80252 0
M  V30 348 C 38.0043 -3.60214 2.8286 0
M  V30 349 N 39.4953 -3.67711 2.81679 0
M  V30 350 C 40.2303 -4.48128 3.57727 0
M  V30 351 N 39.7263 -5.32248 4.43491 0
M  V30 352 N 41.5193 -4.42782 3.46267 0
M  V30 353 H 33.6703 -0.858536 1.94275 0
M  V30 354 H 35.9333 -0.439541 0.839945 0
M  V30 355 H 35.6393 -2.13155 2.79746 0
M  V30 356 H 35.5133 -3.41323 1.60557 0
M  V30 357 H 37.9003 -2.84196 0.794757 0
M  V30 358 H 37.9813 -1.56858 2.02062 0
M  V30 359 H 37.6253 -3.32647 3.83807 0
M  V30 360 H 37.5553 -4.58895 2.58307 0
M  V30 361 H 40.0463 -3.07634 2.19476 0
M  V30 362 H 40.3593 -5.90729 4.98256 0
M  V30 363 H 38.7043 -5.31707 4.47564 0
M  V30 364 H 41.8953 -3.76107 2.78677 0
M  V30 365 H 42.0683 -5.05215 4.05785 0
M  V30 366 N 35.4744 -0.807222 -1.35358 0
M  V30 367 C 36.4044 -0.232509 -2.3234 0
M  V30 368 C 37.3854 0.642386 -1.57504 0
M  V30 369 O 38.5704 0.572526 -1.85569 0
M  V30 370 C 35.7004 0.619238 -3.41735 0
M  V30 371 C 34.6544 -0.157215 -4.27711 0
M  V30 372 C 33.9804 0.816273 -5.28433 0
M  V30 373 C 35.2804 -1.35656 -5.04376 0
M  V30 374 H 36.9744 -1.04276 -2.80654 0
M  V30 375 H 34.5204 -0.50288 -1.34934 0
M  V30 376 H 36.4734 1.03137 -4.08584 0
M  V30 377 H 35.1974 1.46239 -2.92031 0
M  V30 378 H 33.8564 -0.550525 -3.62443 0
M  V30 379 H 33.5044 1.65494 -4.74996 0
M  V30 380 H 33.2044 0.301067 -5.86828 0
M  V30 381 H 34.7284 1.22659 -5.98153 0
M  V30 382 H 36.1424 -1.01927 -5.64166 0
M  V30 383 H 34.5394 -1.8063 -5.7227 0
M  V30 384 H 35.6094 -2.14288 -4.34981 0
M  V30 385 N 36.9525 1.47285 -0.560781 0
M  V30 386 C 37.8825 2.32857 0.173105 0
M  V30 387 C 38.8635 1.44009 0.905281 0
M  V30 388 O 40.0485 1.7286 0.885046 0
M  V30 389 C 37.1785 3.25861 1.20133 0
M  V30 390 C 36.1325 4.23978 0.585388 0
M  V30 391 C 35.4585 5.06332 1.7185 0
M  V30 392 C 36.7585 5.20242 -0.463178 0
M  V30 393 H 38.4525 2.94466 -0.541307 0
M  V30 394 H 35.9985 1.41601 -0.261764 0
M  V30 395 H 37.9515 3.84569 1.72293 0
M  V30 396 H 36.6755 2.62315 1.94573 0
M  V30 397 H 35.3345 3.66501 0.085054 0
M  V30 398 H 34.9825 4.39186 2.45203 0
M  V30 399 H 34.6825 5.72762 1.31213 0
M  V30 400 H 36.2065 5.67899 2.24329 0
M  V30 401 H 37.6205 5.73293 -0.027502 0
M  V30 402 H 36.0175 5.94896 -0.788627 0
M  V30 403 H 37.0875 4.65504 -1.35773 0
M  V30 404 N 38.4306 0.297415 1.54768 0
M  V30 405 C 39.6766 -0.313376 2.00364 0
M  V30 406 C 40.0096 -1.53815 1.18553 0
M  V30 407 O 39.2846 -1.92739 0.261103 0
M  V30 408 C 39.5676 -0.673525 3.53745 0
M  V30 409 C 39.4206 0.560133 4.46299 0
M  V30 410 C 40.7396 -1.50143 4.13697 0
M  V30 411 H 37.8586 -0.112428 0.728374 0
M  V30 412 H 40.5006 0.4088 1.8555 0
M  V30 413 H 38.6506 -1.28881 3.665 0
M  V30 414 H 40.3226 1.19863 4.45455 0
M  V30 415 H 38.5656 1.19405 4.17043 0
M  V30 416 H 39.2366 0.26405 5.51368 0
M  V30 417 H 41.7126 -0.981588 4.04356 0
M  V30 418 H 40.5886 -1.72221 5.21182 0
M  V30 419 H 40.8496 -2.48952 3.65343 0
M  V30 420 N 39.9087 -1.5758 0.0250728 0
M  V30 421 C 40.8717 -2.08896 -0.943139 0
M  V30 422 C 41.8717 -1.00321 -1.25668 0
M  V30 423 O 43.0617 -1.26495 -1.19769 0
M  V30 424 C 40.1937 -2.55143 -2.26086 0
M  V30 425 H 41.3867 -2.95723 -0.498775 0
M  V30 426 H 38.9397 -1.54703 -0.222888 0
M  V30 427 H 39.6747 -1.71633 -2.75159 0
M  V30 428 H 39.4597 -3.34461 -2.04641 0
M  V30 429 H 40.9497 -2.95083 -2.95492 0
M  V30 430 N 41.3868 0.248026 -1.55636 0
M  V30 431 C 42.6328 0.97767 -1.77678 0
M  V30 432 C 42.9658 1.85016 -0.590135 0
M  V30 433 O 42.2408 1.90095 0.411611 0
M  V30 434 C 42.5238 1.83914 -3.09593 0
M  V30 435 C 42.3768 0.99491 -4.38659 0
M  V30 436 C 43.6958 2.82183 -3.37729 0
M  V30 437 H 40.8148 0.354005 -0.646413 0
M  V30 438 H 43.4568 0.248253 -1.88371 0
M  V30 439 H 41.6068 2.46104 -3.00608 0
M  V30 440 H 43.2788 0.391789 -4.59633 0
M  V30 441 H 41.5218 0.299231 -4.32767 0
M  V30 442 H 42.1928 1.63145 -5.2734 0
M  V30 443 H 44.6688 2.30129 -3.4667 0
M  V30 444 H 43.5448 3.39582 -4.31249 0
M  V30 445 H 43.8058 3.58588 -2.58586 0
M  V30 446 N 42.8649 1.48995 0.513639 0
M  V30 447 C 44.1049 1.59452 1.27885 0
M  V30 448 C 44.4689 0.269479 1.90099 0
M  V30 449 O 45.6699 0.249139 2.67643 0
M  V30 450 C 43.9409 2.71277 2.32688 0
M  V30 451 S 45.4999 3.01604 3.18717 0
M  V30 452 H 42.3179 0.562565 0.434789 0
M  V30 453 H 44.9199 1.86595 0.583301 0
M  V30 454 H 43.6239 3.66089 1.8549 0
M  V30 455 H 43.1549 2.46086 3.06929 0
M  V30 456 H 45.1699 2.42155 4.331 0
M  V30 457 N 44.343 -0.763751 1.37857 0
M  V30 458 C 45.306 -1.85889 1.34081 0
M  V30 459 C 46.306 -1.58949 0.243277 0
M  V30 460 O 47.496 -1.66882 0.499589 0
M  V30 461 C 44.628 -3.23176 1.08489 0
M  V30 462 H 45.821 -1.90648 2.31502 0
M  V30 463 H 43.374 -0.964367 1.23003 0
M  V30 464 H 44.109 -3.24091 0.116318 0
M  V30 465 H 43.894 -3.44124 1.8794 0
M  V30 466 H 45.384 -4.03254 1.08517 0
M  V30 467 N 45.8211 -1.22559 -0.990812 0
M  V30 468 C 46.7511 -1.0218 -2.09956 0
M  V30 469 C 47.7321 0.0579394 -1.70001 0
M  V30 470 O 48.9171 -0.104684 -1.93918 0
M  V30 471 C 46.0471 -0.601023 -3.4206 0
M  V30 472 C 45.0011 -1.62694 -3.95872 0
M  V30 473 C 44.3271 -1.06193 -5.24049 0
M  V30 474 C 45.6271 -3.01743 -4.2632 0
M  V30 475 H 47.3211 -1.94916 -2.27262 0
M  V30 476 H 44.8671 -0.938566 -1.09211 0
M  V30 477 H 46.8201 -0.445561 -4.19038 0
M  V30 478 H 45.5441 0.362005 -3.24588 0
M  V30 479 H 44.2031 -1.77021 -3.21028 0
M  V30 480 H 43.8511 -0.0901903 -5.02919 0
M  V30 481 H 43.5511 -1.74732 -5.61019 0
M  V30 482 H 45.0751 -0.918092 -6.03658 0
M  V30 483 H 46.4891 -2.90777 -4.94087 0
M  V30 484 H 44.8861 -3.67425 -4.74467 0
M  V30 485 H 45.9561 -3.51518 -3.34011 0
M  V30 486 N 47.2992 1.18797 -1.03562 0
M  V30 487 C 48.2492 2.20161 -0.592724 0
M  V30 488 C 49.2332 1.56772 0.362133 0
M  V30 489 O 50.4252 1.76062 0.182009 0
M  V30 490 C 47.5542 3.43266 0.0481024 0
M  V30 491 C 46.6402 4.13786 -0.9296 0
M  V30 492 N 47.0312 4.60388 -2.09467 0
M  V30 493 C 45.3292 4.39572 -0.754499 0
M  V30 494 C 46.0302 5.14619 -2.71187 0
M  V30 495 N 45.0062 5.05826 -1.991 0
M  V30 496 H 48.8082 2.53877 -1.48066 0
M  V30 497 H 46.3222 1.34946 -0.903514 0
M  V30 498 H 48.3192 4.15136 0.383058 0
M  V30 499 H 46.9792 3.11048 0.931636 0
M  V30 500 H 47.9902 4.54999 -2.47379 0
M  V30 501 H 44.6672 4.17425 0.0793713 0
M  V30 502 H 46.0572 5.60917 -3.69895 0
M  V30 503 N 48.7773 0.814389 1.34928 0
M  V30 504 C 49.7073 0.244827 2.32213 0
M  V30 505 C 50.6883 -0.634024 1.57842 0
M  V30 506 O 51.8733 -0.562676 1.8587 0
M  V30 507 C 49.0033 -0.601106 3.42058 0
M  V30 508 C 47.9573 0.179896 4.27622 0
M  V30 509 C 47.2833 -0.788237 5.28858 0
M  V30 510 C 48.5833 1.38329 5.03649 0
M  V30 511 H 50.2773 1.05763 2.80097 0
M  V30 512 H 47.8233 0.510029 1.34665 0
M  V30 513 H 49.7763 -1.00968 4.09125 0
M  V30 514 H 48.5003 -1.44688 2.92802 0
M  V30 515 H 47.1593 0.569739 3.62146 0
M  V30 516 H 46.8073 -1.62973 4.75866 0
M  V30 517 H 46.5073 -0.269942 5.8698 0
M  V30 518 H 48.0313 -1.19485 5.98795 0
M  V30 519 H 49.4453 1.04918 5.63618 0
M  V30 520 H 47.8423 1.83662 5.71304 0
M  V30 521 H 48.9123 2.16592 4.33839 0
M  V30 522 N 50.2554 -1.46986 0.568584 0
M  V30 523 C 51.5034 -2.02041 0.0487022 0
M  V30 524 C 51.8244 -1.44408 -1.31039 0
M  V30 525 O 51.0944 -0.623477 -1.85714 0
M  V30 526 H 49.6744 -0.746849 0.015014 0
M  V30 527 H 52.3364 -1.80257 0.741168 0
M  V30 528 H 51.4324 -3.12085 -0.0308961 0
M  V30 529 N 51.7335 -0.305618 -1.54608 0
M  V30 530 C 52.9795 0.302746 -2.00528 0
M  V30 531 C 53.3125 1.53184 -1.19367 0
M  V30 532 O 52.5875 1.92598 -0.271321 0
M  V30 533 C 52.8705 0.654756 -3.54097 0
M  V30 534 C 52.7235 -0.583793 -4.45995 0
M  V30 535 C 54.0425 1.47947 -4.14487 0
M  V30 536 H 51.1615 0.108564 -0.72896 0
M  V30 537 H 53.8035 -0.418634 -1.85331 0
M  V30 538 H 51.9535 1.26935 -3.67178 0
M  V30 539 H 53.6255 -1.22224 -4.44814 0
M  V30 540 H 51.8685 -1.21615 -4.16404 0
M  V30 541 H 52.5395 -0.293287 -5.5122 0
M  V30 542 H 55.0155 0.96013 -4.04871 0
M  V30 543 H 53.8915 1.69454 -5.22088 0
M  V30 544 H 54.1525 2.47011 -3.66658 0
M  V30 545 N 53.2116 1.57565 -0.0334293 0
M  V30 546 C 54.4396 1.9628 0.654347 0
M  V30 547 C 54.8546 0.910138 1.65414 0
M  V30 548 O 54.2116 -0.107595 1.82183 0
M  V30 549 C 54.2626 3.35067 1.35693 0
M  V30 550 O 53.9836 4.36296 0.397191 0
M  V30 551 C 55.4846 3.88439 2.13613 0
M  V30 552 H 52.7046 0.646369 0.180132 0
M  V30 553 H 55.2486 2.04282 -0.0944721 0
M  V30 554 H 53.4036 3.2827 2.05712 0
M  V30 555 H 53.8176 5.1678 0.896597 0
M  V30 556 H 55.2916 4.8788 2.58219 0
M  V30 557 H 55.7686 3.22914 2.97696 0
M  V30 558 H 56.3746 3.98516 1.48543 0
M  V30 559 N 54.6897 -0.239769 1.55765 0
M  V30 560 C 55.6197 -1.30052 1.9393 0
M  V30 561 C 56.6007 -1.49839 0.805132 0
M  V30 562 O 57.7857 -1.62328 1.06599 0
M  V30 563 C 54.9157 -2.65391 2.2402 0
M  V30 564 C 53.8697 -2.60289 3.39755 0
M  V30 565 C 53.1957 -3.99489 3.55405 0
M  V30 566 C 54.4957 -2.16654 4.75246 0
M  V30 567 H 56.1897 -0.983573 2.82783 0
M  V30 568 H 53.7357 -0.471701 1.36055 0
M  V30 569 H 55.6887 -3.3974 2.49308 0
M  V30 570 H 54.4127 -2.98736 1.32 0
M  V30 571 H 53.0717 -1.88398 3.14487 0
M  V30 572 H 52.7197 -4.30112 2.60793 0
M  V30 573 H 52.4197 -3.96962 4.33238 0
M  V30 574 H 53.9437 -4.75528 3.83022 0
M  V30 575 H 55.3577 -2.80737 4.99859 0
M  V30 576 H 53.7547 -2.25223 5.56232 0
M  V30 577 H 54.8247 -1.11835 4.71827 0
M  V30 578 N 56.1678 -1.49265 -0.50573 0
M  V30 579 C 57.4138 -1.58748 -1.26202 0
M  V30 580 C 57.7468 -0.271227 -1.92297 0
M  V30 581 O 57.0218 0.724831 -1.80489 0
M  V30 582 C 57.3048 -2.74332 -2.33268 0
M  V30 583 C 57.1578 -4.15737 -1.71705 0
M  V30 584 C 58.4768 -2.85576 -3.34865 0
M  V30 585 H 55.5958 -0.577826 -0.457478 0
M  V30 586 H 58.2378 -1.81532 -0.560897 0
M  V30 587 H 56.3878 -2.55036 -2.93068 0
M  V30 588 H 58.0598 -4.46537 -1.15769 0
M  V30 589 H 56.3028 -4.21605 -1.02135 0
M  V30 590 H 56.9738 -4.92477 -2.49341 0
M  V30 591 H 59.4498 -3.03127 -2.8505 0
M  V30 592 H 58.3258 -3.68135 -4.07146 0
M  V30 593 H 58.5868 -1.94732 -3.96903 0
M  V30 594 N 57.6459 0.756429 -1.3826 0
M  V30 595 C 58.8759 1.54341 -1.3734 0
M  V30 596 C 59.2839 1.89159 0.0393917 0
M  V30 597 O 58.6269 1.5307 1.01565 0
M  V30 598 C 58.6889 2.87238 -2.16182 0
M  V30 599 C 58.3529 2.74973 -3.65019 0
M  V30 600 C 59.3499 2.44962 -4.58574 0
M  V30 601 C 57.0349 2.92515 -4.08338 0
M  V30 602 C 59.0289 2.32642 -5.93428 0
M  V30 603 C 56.7159 2.79815 -5.43274 0
M  V30 604 C 57.7139 2.49921 -6.35632 0
M  V30 605 O 57.4019 2.37275 -7.68086 0
M  V30 606 H 57.1339 0.484281 -0.471643 0
M  V30 607 H 59.6879 0.944152 -1.82414 0
M  V30 608 H 57.9179 3.49342 -1.65822 0
M  V30 609 H 59.6069 3.48731 -2.07705 0
M  V30 610 H 60.3729 2.31081 -4.26412 0
M  V30 611 H 56.2519 3.14781 -3.368 0
M  V30 612 H 59.7959 2.0923 -6.65484 0
M  V30 613 H 55.6929 2.93269 -5.75034 0
M  V30 614 H 56.4609 2.52509 -7.78577 0
M  V30 615 N 59.124 1.23083 0.984299 0
M  V30 616 C 60.354 1.08556 1.75781 0
M  V30 617 C 60.762 -0.366171 1.85623 0
M  V30 618 O 60.105 -1.26524 1.33182 0
M  V30 619 C 60.167 1.63208 3.20318 0
M  V30 620 C 59.831 3.11922 3.33997 0
M  V30 621 C 60.828 4.09259 3.2063 0
M  V30 622 C 58.513 3.51552 3.58771 0
M  V30 623 C 60.507 5.4421 3.31835 0
M  V30 624 C 58.194 4.86649 3.69616 0
M  V30 625 C 59.192 5.82787 3.56157 0
M  V30 626 O 58.88 7.15431 3.66626 0
M  V30 627 H 58.612 0.380713 0.5586 0
M  V30 628 H 61.166 1.63321 1.2456 0
M  V30 629 H 59.396 1.0286 3.72769 0
M  V30 630 H 61.085 1.44216 3.79416 0
M  V30 631 H 61.851 3.79984 3.01392 0
M  V30 632 H 57.73 2.77239 3.6832 0
M  V30 633 H 61.274 6.1923 3.21247 0
M  V30 634 H 57.171 5.15601 3.88363 0
M  V30 635 H 57.939 7.23127 3.83445 0
M  V30 636 N 60.6021 -1.18246 1.0419 0
M  V30 637 C 61.5321 -2.24127 0.654914 0
M  V30 638 C 62.5131 -1.66617 -0.342451 0
M  V30 639 O 63.6981 -1.92924 -0.222277 0
M  V30 640 C 60.8281 -3.47295 0.0183757 0
M  V30 641 C 59.7821 -4.17563 0.939414 0
M  V30 642 C 59.1081 -5.34438 0.167286 0
M  V30 643 C 60.4081 -4.70917 2.25908 0
M  V30 644 H 62.1021 -2.56753 1.54007 0
M  V30 645 H 59.6481 -1.23414 0.74195 0
M  V30 646 H 61.6011 -4.20572 -0.264082 0
M  V30 647 H 60.3251 -3.13907 -0.901664 0
M  V30 648 H 58.9841 -3.46186 1.20628 0
M  V30 649 H 58.6321 -4.97298 -0.7552 0
M  V30 650 H 58.3321 -5.82388 0.780901 0
M  V30 651 H 59.8561 -6.10504 -0.108125 0
M  V30 652 H 61.2701 -5.35882 2.03724 0
M  V30 653 H 59.6671 -5.29406 2.82577 0
M  V30 654 H 60.7371 -3.88272 2.9047 0
M  V30 655 N 62.0802 -0.821533 -1.34494 0
M  V30 656 C 63.0432 -0.247847 -2.27856 0
M  V30 657 C 64.0432 0.573453 -1.50227 0
M  V30 658 O 65.2332 0.389759 -1.69784 0
M  V30 659 C 62.3652 0.652698 -3.34593 0
M  V30 660 H 63.5582 -1.07146 -2.80107 0
M  V30 661 H 61.1112 -0.593291 -1.44602 0
M  V30 662 H 61.8462 1.49943 -2.87555 0
M  V30 663 H 61.6312 0.065292 -3.92046 0
M  V30 664 H 63.1212 1.04793 -4.04238 0
M  V30 665 N 63.5583 1.46682 -0.576371 0
M  V30 666 C 64.8063 2.02013 -0.0594163 0
M  V30 667 C 65.1273 1.45101 1.30271 0
M  V30 668 O 64.3973 0.633317 1.8538 0
M  V30 669 H 62.9773 0.746759 -0.0189745 0
M  V30 670 H 65.6393 1.79862 -0.750717 0
M  V30 671 H 64.7353 3.12097 0.014345 0
M  V30 672 N 65.0364 0.313813 1.54444 0
M  V30 673 C 66.4524 -0.0391619 1.59552 0
M  V30 674 C 66.6524 -1.51322 1.33056 0
M  V30 675 O 65.7084 -2.26782 1.11022 0
M  V30 676 C 67.0214 0.370302 2.98411 0
M  V30 677 C 68.5694 0.320139 3.11358 0
M  V30 678 C 69.0444 0.704617 4.52547 0
M  V30 679 N 70.5354 0.657645 4.58508 0
M  V30 680 C 71.2704 0.927453 5.6585 0
M  V30 681 N 70.7664 1.26389 6.81174 0
M  V30 682 N 72.5594 0.853662 5.5558 0
M  V30 683 H 64.7104 1.27433 1.69925 0
M  V30 684 H 66.9734 0.517511 0.794284 0
M  V30 685 H 66.6794 1.39694 3.22767 0
M  V30 686 H 66.5534 -0.269619 3.76235 0
M  V30 687 H 68.9404 -0.697275 2.86744 0
M  V30 688 H 69.0214 0.99486 2.35661 0
M  V30 689 H 68.6654 1.7199 4.77893 0
M  V30 690 H 68.5954 0.00768843 5.26599 0
M  V30 691 H 71.0864 0.409067 3.75679 0
M  V30 692 H 71.3994 1.4554 7.58972 0
M  V30 693 H 69.7444 1.30206 6.82694 0
M  V30 694 H 72.9354 0.590383 4.64362 0
M  V30 695 H 73.1084 1.0673 6.3915 0
M  V30 696 N 66.5145 -1.57545 0.0417849 0
M  V30 697 C 67.7915 -1.83642 -0.673433 0
M  V30 698 C 68.1715 -0.928298 -1.89594 0
M  V30 699 O 67.5195 0.0129955 -2.28496 0
M  V30 700 C 67.7295 -3.33155 -1.03964 0
M  V30 701 C 69.0775 -3.99941 -1.42592 0
M  V30 702 O 70.1015 -3.37725 -1.13226 0
M  V30 703 O 68.9605 -5.09619 -1.9736 0
M  V30 704 H 66.0545 -0.757638 -0.331533 0
M  V30 705 H 68.6005 -1.69554 0.070433 0
M  V30 706 H 67.3725 -3.9093 -0.170098 0
M  V30 707 H 66.9955 -3.52396 -1.84126 0
M  V30 708 N 67.9926 0.231505 -1.5589 0
M  V30 709 C 68.9226 1.29022 -1.94617 0
M  V30 710 C 69.9036 1.4941 -0.813067 0
M  V30 711 O 71.0886 1.6176 -1.07459 0
M  V30 712 C 68.2186 2.64199 -2.25424 0
M  V30 713 C 67.1726 2.58484 -3.41131 0
M  V30 714 C 66.4986 3.97599 -3.57518 0
M  V30 715 C 67.7986 2.1413 -4.76388 0
M  V30 716 H 69.4926 0.968563 -2.83301 0
M  V30 717 H 67.0386 0.464479 -1.36303 0
M  V30 718 H 68.9916 3.38413 -2.51107 0
M  V30 719 H 67.7156 2.98032 -1.33583 0
M  V30 720 H 66.3746 1.86727 -3.15481 0
M  V30 721 H 66.0226 4.28723 -2.6307 0
M  V30 722 H 65.7226 3.94659 -4.35337 0
M  V30 723 H 67.2466 4.7349 -3.85538 0
M  V30 724 H 68.6606 2.78083 -5.01341 0
M  V30 725 H 67.0576 2.2227 -5.57419 0
M  V30 726 H 68.1276 1.09331 -4.72414 0
M  V30 727 N 69.4707 1.49531 0.497807 0
M  V30 728 C 70.6957 1.63159 1.28039 0
M  V30 729 C 71.1207 0.30418 1.85624 0
M  V30 730 O 70.4787 -0.728618 1.66015 0
M  V30 731 C 70.5267 2.70537 2.38416 0
M  V30 732 O 69.6307 2.29931 3.42353 0
M  V30 733 H 68.9717 0.546001 0.377861 0
M  V30 734 H 71.5017 1.9574 0.59558 0
M  V30 735 H 71.5117 2.92802 2.84132 0
M  V30 736 H 70.1867 3.6689 1.95869 0
M  V30 737 H 68.7637 2.18009 3.02533 0
M  V30 738 N 70.9488 -0.749086 1.3866 0
M  V30 739 C 72.3648 -1.05276 1.19955 0
M  V30 740 C 72.5648 -2.01435 0.05134 0
M  V30 741 O 71.6208 -2.45232 -0.60147 0
M  V30 742 C 72.9338 -1.62853 2.52783 0
M  V30 743 C 74.4818 -1.75002 2.59506 0
M  V30 744 C 74.9568 -2.35991 3.92521 0
M  V30 745 N 76.4478 -2.43416 3.94085 0
M  V30 746 C 77.1828 -2.91511 4.9377 0
M  V30 747 N 76.6788 -3.39608 6.03853 0
M  V30 748 N 78.4718 -2.90592 4.81157 0
M  V30 749 H 70.6228 -0.111066 2.12109 0
M  V30 750 H 72.8858 -0.111901 0.941373 0
M  V30 751 H 72.5918 -0.99664 3.37283 0
M  V30 752 H 72.4658 -2.61854 2.715 0
M  V30 753 H 74.8528 -2.37317 1.75398 0
M  V30 754 H 74.9338 -0.74693 2.44652 0
M  V30 755 H 74.5778 -1.74308 4.77053 0
M  V30 756 H 74.5078 -3.3695 4.04688 0
M  V30 757 H 76.9988 -2.09405 3.14576 0
M  V30 758 H 77.3118 -3.74775 6.75843 0
M  V30 759 H 75.6568 -3.37653 6.07466 0
M  V30 760 H 78.8478 -2.52332 3.94267 0
M  V30 761 H 79.0208 -3.27762 5.58996 0
M  V30 762 N 72.4269 -1.23603 -0.977757 0
M  V30 763 C 73.3569 -1.04401 -2.0886 0
M  V30 764 C 74.3379 0.0399052 -1.70053 0
M  V30 765 O 75.5229 -0.125246 -1.93796 0
M  V30 766 C 72.6529 -0.637269 -3.41403 0
M  V30 767 C 71.6069 -1.66883 -3.94124 0
M  V30 768 C 70.9329 -1.11745 -5.22893 0
M  V30 769 C 72.2329 -3.06247 -4.23096 0
M  V30 770 H 73.9269 -1.97316 -2.25182 0
M  V30 771 H 71.4729 -0.950096 -1.08209 0
M  V30 772 H 73.4259 -0.48998 -4.18542 0
M  V30 773 H 72.1499 0.327557 -3.24953 0
M  V30 774 H 70.8089 -1.80416 -3.19133 0
M  V30 775 H 70.4569 -0.143527 -5.02795 0
M  V30 776 H 70.1569 -1.80672 -5.59134 0
M  V30 777 H 71.6809 -0.982067 -6.02651 0
M  V30 778 H 73.0949 -2.96001 -4.90975 0
M  V30 779 H 71.4919 -3.72436 -4.70544 0
M  V30 780 H 72.5619 -3.55041 -3.30263 0
M  V30 781 N 73.905 1.17692 -1.04816 0
M  V30 782 C 75.316 1.69501 -0.782698 0
M  V30 783 C 75.667 1.83456 0.695577 0
M  V30 784 O 74.792 1.51942 1.54086 0
M  V30 785 C 75.387 3.07874 -1.41419 0
M  V30 786 C 73.946 3.56864 -1.19686 0
M  V30 787 C 73.093 2.3322 -1.50012 0
M  V30 788 H 76.044 1.02262 -1.2136 0
M  V30 789 H 76.065 3.71528 -0.821428 0
M  V30 790 H 75.577 2.97685 -2.49009 0
M  V30 791 H 73.678 3.72337 -0.140043 0
M  V30 792 H 73.791 4.39851 -1.89916 0
M  V30 793 H 72.155 2.37501 -0.920071 0
M  V30 794 H 72.938 2.25644 -2.58727 0
M  V30 795 N 75.3831 0.828654 1.34056 0
M  V30 796 C 76.3151 0.212052 2.28217 0
M  V30 797 C 77.3281 -0.601362 1.51286 0
M  V30 798 O 78.5171 -0.430104 1.73241 0
M  V30 799 C 75.6171 -0.72088 3.31144 0
M  V30 800 C 74.7901 0.0509587 4.3737 0
M  V30 801 C 73.8491 -0.803766 5.20025 0
M  V30 802 O 72.8751 -0.246667 5.68665 0
M  V30 803 N 74.0771 -2.1227 5.40298 0
M  V30 804 H 76.8421 1.02105 2.81771 0
M  V30 805 H 74.4031 0.686153 1.46641 0
M  V30 806 H 76.3951 -1.29742 3.8334 0
M  V30 807 H 74.9651 -1.43061 2.77943 0
M  V30 808 H 74.1851 0.808831 3.85813 0
M  V30 809 H 75.4731 0.582065 5.0546 0
M  V30 810 H 74.8711 -2.59898 5.02464 0
M  V30 811 H 73.4281 -2.64796 5.95589 0
M  V30 812 N 76.8612 -1.46375 0.584142 0
M  V30 813 C 77.7912 -2.33103 -0.136037 0
M  V30 814 C 78.7722 -1.45431 -0.882255 0
M  V30 815 O 79.9572 -1.74246 -0.857434 0
M  V30 816 C 77.0872 -3.27731 -1.14933 0
M  V30 817 C 76.0412 -4.24855 -0.517862 0
M  V30 818 C 75.3672 -5.09001 -1.63773 0
M  V30 819 C 76.6672 -5.19439 0.545886 0
M  V30 820 H 78.3612 -2.93568 0.588086 0
M  V30 821 H 75.9072 -1.41166 0.284259 0
M  V30 822 H 77.8602 -3.87261 -1.66153 0
M  V30 823 H 76.5842 -2.65377 -1.90375 0
M  V30 824 H 75.2432 -3.6659 -0.0267361 0
M  V30 825 H 74.8912 -4.43031 -2.38185 0
M  V30 826 H 74.5912 -5.74777 -1.22085 0
M  V30 827 H 76.1152 -5.71396 -2.15266 0
M  V30 828 H 77.5292 -5.73177 0.118704 0
M  V30 829 H 75.9262 -5.93566 0.88317 0
M  V30 830 H 76.9962 -4.63285 1.43162 0
M  V30 831 N 78.3393 -0.321999 -1.54275 0
M  V30 832 C 79.5853 0.281461 -2.00837 0
M  V30 833 C 79.9183 1.51909 -1.20985 0
M  V30 834 O 79.1933 1.923 -0.291733 0
M  V30 835 C 79.4763 0.617162 -3.54772 0
M  V30 836 C 79.3293 -0.631064 -4.45351 0
M  V30 837 C 80.6483 1.43542 -4.16033 0
M  V30 838 H 77.7673 0.100826 -0.730071 0
M  V30 839 H 80.4093 -0.438268 -1.84876 0
M  V30 840 H 78.5593 1.23034 -3.68504 0
M  V30 841 H 80.2313 -1.26934 -4.43492 0
M  V30 842 H 78.4743 -1.26025 -4.15091 0
M  V30 843 H 79.1453 -0.351735 -5.50878 0
M  V30 844 H 81.6213 0.917134 -4.05867 0
M  V30 845 H 80.4973 1.63907 -5.23856 0
M  V30 846 H 80.7583 2.43108 -3.69257 0
M  V30 847 N 79.8174 1.5752 -0.0501392 0
M  V30 848 C 81.0654 1.9227 0.622642 0
M  V30 849 C 81.3864 0.929083 1.71444 0
M  V30 850 O 80.6564 -0.0262186 1.95882 0
M  V30 851 H 79.2364 0.709739 0.232981 0
M  V30 852 H 81.8984 1.94628 -0.102898 0
M  V30 853 H 80.9944 2.93479 1.06191 0
M  V30 854 N 81.2955 -0.223234 1.56011 0
M  V30 855 C 82.5415 -0.949279 1.79211 0
M  V30 856 C 82.8745 -1.84054 0.619494 0
M  V30 857 O 82.1495 -1.90726 -0.381317 0
M  V30 858 C 82.4325 -1.78965 3.12479 0
M  V30 859 C 82.2855 -0.924997 4.40186 0
M  V30 860 C 83.6045 -2.76774 3.42175 0
M  V30 861 H 80.7235 -0.343676 0.651963 0
M  V30 862 H 83.3655 -0.218253 1.88742 0
M  V30 863 H 81.5155 -2.41291 3.04485 0
M  V30 864 H 83.1875 -0.318615 4.60198 0
M  V30 865 H 81.4305 -0.230344 4.33188 0
M  V30 866 H 82.1015 -1.54735 5.29869 0
M  V30 867 H 84.5775 -2.24584 3.50287 0
M  V30 868 H 83.4535 -3.32678 4.36597 0
M  V30 869 H 83.7145 -3.54429 2.64258 0
M  V30 870 N 82.7736 -1.49793 -0.48987 0
M  V30 871 C 83.9986 -1.63836 -1.27172 0
M  V30 872 C 84.4236 -0.31402 -1.8546 0
M  V30 873 O 83.7816 0.719803 -1.66399 0
M  V30 874 C 83.8296 -2.71797 -2.36978 0
M  V30 875 O 82.9336 -2.31744 -3.41128 0
M  V30 876 H 82.2746 -0.547997 -0.37496 0
M  V30 877 H 84.8046 -1.96053 -0.585191 0
M  V30 878 H 84.8146 -2.94305 -2.82575 0
M  V30 879 H 83.4896 -3.67923 -1.93921 0
M  V30 880 H 82.0666 -2.1961 -3.01373 0
M  V30 881 N 84.2517 0.741722 -1.39055 0
M  V30 882 C 85.4797 1.53098 -1.39171 0
M  V30 883 C 85.8947 1.88794 0.0155099 0
M  V30 884 O 85.2517 1.53626 0.985159 0
M  V30 885 C 85.3027 2.82274 -2.2584 0
M  V30 886 O 85.0237 2.48097 -3.61081 0
M  V30 887 C 86.5247 3.76343 -2.34266 0
M  V30 888 H 83.7447 0.473335 -0.4756 0
M  V30 889 H 86.2887 0.917045 -1.82785 0
M  V30 890 H 84.4437 3.40015 -1.85656 0
M  V30 891 H 84.8577 3.31029 -4.06842 0
M  V30 892 H 86.3317 4.63898 -2.9917 0
M  V30 893 H 86.8087 4.17619 -1.35982 0
M  V30 894 H 87.4147 3.24523 -2.74891 0
M  V30 895 N 85.7298 1.2412 0.971189 0
M  V30 896 C 87.1408 1.07236 1.52831 0
M  V30 897 C 87.4918 -0.357352 1.92918 0
M  V30 898 O 86.6168 -1.24528 1.76979 0
M  V30 899 C 87.2118 1.94043 2.77728 0
M  V30 900 C 85.7708 1.81394 3.29808 0
M  V30 901 C 84.9178 1.89189 2.02738 0
M  V30 902 H 87.8688 1.37648 0.789864 0
M  V30 903 H 87.8898 1.47066 3.5093 0
M  V30 904 H 87.4018 2.98093 2.4852 0
M  V30 905 H 85.5028 0.801634 3.63874 0
M  V30 906 H 85.6158 2.65294 3.98944 0
M  V30 907 H 83.9798 1.32877 2.17292 0
M  V30 908 H 84.7628 2.94812 1.759 0
M  V30 909 N 87.2079 -1.17134 1.05439 0
M  V30 910 C 88.1379 -2.2342 0.678649 0
M  V30 911 C 89.1189 -1.66971 -0.32476 0
M  V30 912 O 90.3039 -1.93149 -0.201802 0
M  V30 913 C 87.4339 -3.47256 0.0552099 0
M  V30 914 C 86.3879 -4.16543 0.98365 0
M  V30 915 C 85.7139 -5.34231 0.223961 0
M  V30 916 C 87.0139 -4.68495 2.3089 0
M  V30 917 H 88.7079 -2.55105 1.56722 0
M  V30 918 H 86.2539 -1.2262 0.754998 0
M  V30 919 H 88.2069 -4.20828 -0.21946 0
M  V30 920 H 86.9309 -3.14846 -0.868319 0
M  V30 921 H 85.5899 -3.44887 1.24293 0
M  V30 922 H 85.2379 -4.98071 -0.702412 0
M  V30 923 H 84.9379 -5.81527 0.842627 0
M  V30 924 H 86.4619 -6.10585 -0.0433671 0
M  V30 925 H 87.8759 -5.33691 2.09396 0
M  V30 926 H 86.2729 -5.26379 2.88176 0
M  V30 927 H 87.3429 -3.85169 2.94572 0
M  V30 928 N 88.686 -0.835752 -1.33615 0
M  V30 929 C 89.618 -0.224151 -2.28101 0
M  V30 930 C 90.631 0.593331 -1.51603 0
M  V30 931 O 91.82 0.420911 -1.73466 0
M  V30 932 C 88.92 0.703309 -3.31522 0
M  V30 933 C 88.093 -0.0741528 -4.37337 0
M  V30 934 C 87.152 0.776176 -5.20444 0
M  V30 935 O 86.178 0.216506 -5.68788 0
M  V30 936 N 87.38 2.09401 -5.41416 0
M  V30 937 H 90.145 -1.03598 -2.81225 0
M  V30 938 H 87.706 -0.69392 -1.46275 0
M  V30 939 H 89.698 1.27707 -3.84022 0
M  V30 940 H 88.268 1.41585 -2.78698 0
M  V30 941 H 87.488 -0.82928 -3.85378 0
M  V30 942 H 88.776 -0.608863 -5.05144 0
M  V30 943 H 88.174 2.57229 -5.03835 0
M  V30 944 H 86.731 2.61633 -5.96985 0
M  V30 945 N 90.1641 1.46063 -0.591896 0
M  V30 946 C 91.4121 2.01938 -0.0808391 0
M  V30 947 C 91.7331 1.46475 1.28725 0
M  V30 948 O 91.0031 0.652944 1.84698 0
M  V30 949 H 89.5831 0.746516 -0.0268938 0
M  V30 950 H 92.2451 1.79055 -0.769752 0
M  V30 951 H 91.3411 3.12094 -0.0187578 0
M  V30 952 N 91.6422 0.330177 1.54103 0
M  V30 953 C 92.8902 -0.269871 2.0029 0
M  V30 954 C 93.2112 -1.52133 1.21986 0
M  V30 955 O 92.4812 -1.93212 0.323438 0
M  V30 956 H 91.0612 -0.10271 0.739905 0
M  V30 957 H 93.7232 0.448249 1.89675 0
M  V30 958 H 92.8192 -0.52166 3.07709 0
M  V30 959 N 93.1203 -1.57491 0.0584922 0
M  V30 960 C 94.3453 -1.97711 -0.62652 0
M  V30 961 C 94.7703 -0.936132 -1.63151 0
M  V30 962 O 94.1283 0.099811 -1.81025 0
M  V30 963 C 94.1763 -3.36989 -1.28338 0
M  V30 964 O 93.2803 -3.35433 -2.39913 0
M  V30 965 H 92.6213 -0.643868 -0.162266 0
M  V30 966 H 95.1513 -2.04193 0.129064 0
M  V30 967 H 95.1613 -3.73879 -1.63335 0
M  V30 968 H 93.8363 -4.12289 -0.546889 0
M  V30 969 H 92.4133 -3.10298 -2.06809 0
M  V30 970 N 94.5984 0.214957 -1.56127 0
M  V30 971 C 95.5464 1.28601 -1.93816 0
M  V30 972 C 96.5404 1.48175 -0.821016 0
M  V30 973 O 97.7464 1.49271 -1.0059 0
M  V30 974 H 94.1214 0.431302 -0.616022 0
M  V30 975 H 96.0924 0.940991 -2.83175 0
M  V30 976 C 94.8414 2.62779 -2.27689 0
M  V30 977 H 94.1644 2.48527 -3.13168 0
M  V30 978 H 95.6044 3.36517 -2.57939 0
M  V30 979 C 94.0634 3.18285 -1.10436 0
M  V30 980 O 94.5934 4.00002 -0.368945 0
M  V30 981 N 92.7994 2.7675 -0.886433 0
M  V30 982 H 92.3464 2.10404 -1.48619 0
M  V30 983 H 92.3044 3.14229 -0.103656 0
M  V30 984 N 96.0765 1.50051 0.48192 0
M  V30 985 C 97.3015 1.64508 1.26301 0
M  V30 986 C 97.7265 0.323851 1.85291 0
M  V30 987 O 97.0845 -0.710969 1.66778 0
M  V30 988 C 97.1325 2.7305 2.35533 0
M  V30 989 O 96.2365 2.3355 3.39895 0
M  V30 990 H 95.5775 0.549978 0.372048 0
M  V30 991 H 98.1075 1.9636 0.574786 0
M  V30 992 H 98.1175 2.95799 2.8101 0
M  V30 993 H 96.7925 3.68946 1.91967 0
M  V30 994 H 95.3695 2.21205 3.00204 0
M  V30 995 N 97.5546 -0.734337 1.39446 0
M  V30 996 C 98.5176 -1.83004 1.37994 0
M  V30 997 C 99.5176 -1.58397 0.276938 0
M  V30 998 O 100.708 -1.65785 0.534875 0
M  V30 999 C 97.8396 -3.20802 1.1532 0
M  V30 1000 H 99.0326 -1.85694 2.35494 0
M  V30 1001 H 96.5856 -0.938059 1.25021 0
M  V30 1002 H 97.3206 -3.23772 0.185036 0
M  V30 1003 H 97.1056 -3.4006 1.95197 0
M  V30 1004 H 98.5956 -4.00862 1.17046 0
M  V30 1005 N 99.0327 -1.24633 -0.964593 0
M  V30 1006 C 99.9957 -1.0424 -2.04124 0
M  V30 1007 C 100.996 0.00137563 -1.608 0
M  V30 1008 O 102.186 -0.239883 -1.7254 0
M  V30 1009 C 99.3177 -0.580588 -3.3592 0
M  V30 1010 H 100.511 -1.99803 -2.23649 0
M  V30 1011 H 98.0637 -1.06899 -1.14027 0
M  V30 1012 H 98.7987 0.3781 -3.22088 0
M  V30 1013 H 98.5837 -1.33398 -3.6871 0
M  V30 1014 H 100.074 -0.459034 -4.15069 0
M  V30 1015 N 100.511 1.16574 -1.06058 0
M  V30 1016 C 101.474 2.19085 -0.673392 0
M  V30 1017 C 102.474 1.5835 0.279648 0
M  V30 1018 O 103.664 1.74088 0.0623488 0
M  V30 1019 C 100.796 3.40899 0.00954234 0
M  V30 1020 H 101.989 2.54853 -1.58081 0
M  V30 1021 H 99.5418 1.30808 -0.855516 0
M  V30 1022 H 100.277 3.10684 0.929826 0
M  V30 1023 H 100.062 3.86233 -0.67573 0
M  V30 1024 H 101.552 4.1675 0.266245 0
M  V30 1025 N 101.989 0.842826 1.3317 0
M  V30 1026 C 103.238 0.436738 1.96915 0
M  V30 1027 C 103.551 -1.01025 1.67491 0
M  V30 1028 O 104.757 -1.5212 2.24881 0
M  V30 1029 C 103.213 0.730021 3.52418 0
M  V30 1030 C 102.821 2.19195 3.90714 0
M  V30 1031 C 104.565 0.391076 4.22695 0
M  V30 1032 C 102.472 2.42907 5.39212 0
M  V30 1033 H 101.402 0.15958 0.736919 0
M  V30 1034 H 104.053 1.03196 1.51733 0
M  V30 1035 H 102.435 0.0643755 3.95948 0
M  V30 1036 H 103.609 2.8984 3.58231 0
M  V30 1037 H 101.924 2.49425 3.33431 0
M  V30 1038 H 104.521 0.545817 5.31907 0
M  V30 1039 H 104.864 -0.666294 4.10933 0
M  V30 1040 H 105.397 1.01212 3.84709 0
M  V30 1041 H 102.136 3.47224 5.55982 0
M  V30 1042 H 101.656 1.76827 5.73142 0
M  V30 1043 H 103.335 2.2626 6.06148 0
M  V30 1044 N 103.467 -1.45747 0.599634 0
M  V30 1045 C 104.715 -2.01893 0.0915472 0
M  V30 1046 C 105.036 -1.47155 -1.27946 0
M  V30 1047 O 104.306 -0.66273 -1.84349 0
M  V30 1048 H 102.886 -0.746363 0.0308524 0
M  V30 1049 H 105.548 -1.78645 0.779237 0
M  V30 1050 H 104.644 -3.1208 0.0353086 0
M  V30 1051 N 104.945 -0.338344 -1.53925 0
M  V30 1052 C 105.877 0.555117 -2.22376 0
M  V30 1053 C 106.89 1.06812 -1.22862 0
M  V30 1054 O 108.079 0.979163 -1.49247 0
M  V30 1055 C 105.179 1.77609 -2.88631 0
M  V30 1056 C 104.352 1.39927 -4.14414 0
M  V30 1057 C 103.411 2.47936 -4.64127 0
M  V30 1058 O 102.437 2.11461 -5.28463 0
M  V30 1059 N 103.639 3.79107 -4.39612 0
M  V30 1060 H 106.404 -0.0310778 -2.99684 0
M  V30 1061 H 103.965 -0.162226 -1.61085 0
M  V30 1062 H 105.957 2.49287 -3.18807 0
M  V30 1063 H 104.527 2.26978 -2.14941 0
M  V30 1064 H 103.747 0.513481 -3.90841 0
M  V30 1065 H 105.035 1.12341 -4.96243 0
M  V30 1066 H 104.433 4.11531 -3.88148 0
M  V30 1067 H 102.99 4.4697 -4.74406 0
M  V30 1068 N 106.423 1.57458 -0.0668435 0
M  V30 1069 C 107.648 1.9804 0.616027 0
M  V30 1070 C 108.073 0.944771 1.62652 0
M  V30 1071 O 107.431 -0.0902094 1.81075 0
M  V30 1072 C 107.479 3.37665 1.26549 0
M  V30 1073 O 106.583 3.36701 2.38131 0
M  V30 1074 H 105.924 0.644719 0.158849 0
M  V30 1075 H 108.454 2.04121 -0.139891 0
M  V30 1076 H 108.464 3.7474 1.6135 0
M  V30 1077 H 107.139 4.12573 0.525016 0
M  V30 1078 H 105.716 3.1139 2.0516 0
M  V30 1079 N 107.901 -0.206675 1.56239 0
M  V30 1080 C 109.126 -0.949474 1.8439 0
M  V30 1081 C 109.551 -1.76549 0.649016 0
M  V30 1082 O 108.909 -1.76782 -0.402231 0
M  V30 1083 C 108.957 -1.83078 3.10668 0
M  V30 1084 O 108.061 -2.9281 2.90407 0
M  V30 1085 H 107.402 -0.268033 0.607499 0
M  V30 1086 H 109.932 -0.215488 2.03462 0
M  V30 1087 H 109.942 -2.2377 3.41161 0
M  V30 1088 H 108.617 -1.23112 3.97261 0
M  V30 1089 H 107.194 -2.55956 2.71184 0
M  V30 1090 N 109.379 -1.50304 -0.473955 0
M  V30 1091 C 110.627 -1.60832 -1.22382 0
M  V30 1092 C 110.948 -0.30939 -1.9253 0
M  V30 1093 O 110.218 0.67296 -1.83978 0
M  V30 1094 H 108.798 -0.592652 -0.454723 0
M  V30 1095 H 111.46 -1.87068 -0.546968 0
M  V30 1096 H 110.556 -2.41803 -1.97327 0
M  V30 1097 N 110.857 0.726932 -1.39834 0
M  V30 1098 C 111.767 1.87131 -1.41489 0
M  V30 1099 C 112.783 1.71239 -0.308757 0
M  V30 1100 O 113.959 1.93701 -0.551529 0
M  V30 1101 C 111.024 3.22811 -1.26468 0
M  V30 1102 C 110.085 3.51039 -2.47124 0
M  V30 1103 C 109.318 4.80245 -2.3281 0
M  V30 1104 O 109.541 5.54537 -1.33585 0
M  V30 1105 O 108.475 5.08554 -3.21957 0
M  V30 1106 H 112.301 1.8869 -2.3797 0
M  V30 1107 H 109.886 0.875837 -1.21035 0
M  V30 1108 H 111.768 4.03877 -1.20255 0
M  V30 1109 H 110.443 3.22005 -0.330862 0
M  V30 1110 H 109.35 2.70027 -2.58914 0
M  V30 1111 H 110.683 3.56632 -3.39227 0
M  V30 1112 N 112.336 1.25143 0.95797 0
M  V30 1113 C 113.266 1.07711 2.07173 0
M  V30 1114 C 114.247 -0.0128462 1.70095 0
M  V30 1115 O 115.432 0.156061 1.93572 0
M  V30 1116 C 112.562 0.691503 3.40346 0
M  V30 1117 C 111.516 1.73132 3.9142 0
M  V30 1118 C 110.842 1.20049 5.21049 0
M  V30 1119 C 112.142 3.1294 4.1817 0
M  V30 1120 H 113.836 2.00873 2.22014 0
M  V30 1121 H 111.382 0.967191 1.06684 0
M  V30 1122 H 113.335 0.556505 4.17709 0
M  V30 1123 H 112.059 -0.275819 3.25433 0
M  V30 1124 H 110.718 1.8547 3.16222 0
M  V30 1125 H 110.366 0.223499 5.02503 0
M  V30 1126 H 110.066 1.89545 5.56189 0
M  V30 1127 H 111.59 1.07782 6.01012 0
M  V30 1128 H 113.004 3.03775 4.86203 0
M  V30 1129 H 111.401 3.79875 4.64559 0
M  V30 1130 H 112.471 3.6025 3.24573 0
M  V30 1131 N 113.814 -1.1601 1.06675 0
M  V30 1132 C 115.23 -1.38622 0.790948 0
M  V30 1133 C 115.43 -1.92109 -0.607965 0
M  V30 1134 O 114.486 -2.12239 -1.36787 0
M  V30 1135 C 115.799 -2.36347 1.85905 0
M  V30 1136 C 117.347 -2.50023 1.88301 0
M  V30 1137 C 117.822 -3.51033 2.94176 0
M  V30 1138 N 119.313 -3.58563 2.93235 0
M  V30 1139 C 120.048 -4.36521 3.71803 0
M  V30 1140 N 119.544 -5.17869 4.602 0
M  V30 1141 N 121.337 -4.31541 3.60178 0
M  V30 1142 H 113.488 -0.796294 1.96908 0
M  V30 1143 H 115.751 -0.412597 0.853503 0
M  V30 1144 H 115.457 -2.04147 2.86386 0
M  V30 1145 H 115.331 -3.36042 1.71334 0
M  V30 1146 H 117.718 -2.81524 0.884769 0
M  V30 1147 H 117.799 -1.5035 2.06951 0
M  V30 1148 H 117.443 -3.20268 3.94196 0
M  V30 1149 H 117.373 -4.50445 2.72776 0
M  V30 1150 H 119.864 -3.00496 2.29152 0
M  V30 1151 H 120.177 -5.74578 5.16797 0
M  V30 1152 H 118.522 -5.17199 4.64253 0
M  V30 1153 H 121.713 -3.67051 2.90502 0
M  V30 1154 H 121.886 -4.9205 4.21653 0
M  V30 1155 N 115.292 -0.849877 -1.32721 0
M  V30 1156 C 116.52 -0.464754 -2.01613 0
M  V30 1157 C 116.935 0.937191 -1.63897 0
M  V30 1158 O 116.292 1.61081 -0.857856 0
M  V30 1159 C 116.343 -0.588638 -3.56675 0
M  V30 1160 O 116.064 -1.93535 -3.93034 0
M  V30 1161 C 117.565 -0.2019 -4.4284 0
M  V30 1162 H 114.785 -0.183215 -0.645502 0
M  V30 1163 H 117.329 -1.1455 -1.69407 0
M  V30 1164 H 115.484 0.0443159 -3.87375 0
M  V30 1165 H 115.898 -1.92871 -4.87751 0
M  V30 1166 H 117.372 -0.339599 -5.50954 0
M  V30 1167 H 117.849 0.857224 -4.30753 0
M  V30 1168 H 118.455 -0.809733 -4.17521 0
M  V30 1169 N 116.77 1.45427 -0.607355 0
M  V30 1170 C 118.018 2.01841 -0.102253 0
M  V30 1171 C 118.339 1.47832 1.27164 0
M  V30 1172 O 117.609 0.672497 1.83995 0
M  V30 1173 H 116.189 0.746188 -0.0348101 0
M  V30 1174 H 118.851 1.78229 -0.7887 0
M  V30 1175 H 117.947 3.12057 -0.0518585 0
M  V30 1176 N 118.248 0.346503 1.53744 0
M  V30 1177 C 119.496 -0.248612 2.00565 0
M  V30 1178 C 119.817 -1.5083 1.23593 0
M  V30 1179 O 119.087 -1.92858 0.343912 0
M  V30 1180 H 117.667 -0.0948564 0.740953 0
M  V30 1181 H 120.329 0.468341 1.89189 0
M  V30 1182 H 119.425 -0.488994 3.08245 0
M  V30 1183 N 119.726 -1.57421 0.075193 0
M  V30 1184 C 120.689 -2.11791 -0.876203 0
M  V30 1185 C 121.689 -1.04268 -1.22412 0
M  V30 1186 O 122.879 -1.30242 -1.15684 0
M  V30 1187 C 120.011 -2.62207 -2.17854 0
M  V30 1188 H 121.204 -2.9716 -0.40444 0
M  V30 1189 H 118.757 -1.55333 -0.173557 0
M  V30 1190 H 119.492 -1.803 -2.6956 0
M  V30 1191 H 119.277 -3.40802 -1.93897 0
M  V30 1192 H 120.767 -3.04335 -2.85955 0
M  V30 1193 N 121.204 0.198386 -1.56346 0
M  V30 1194 C 122.62 0.549085 -1.49857 0
M  V30 1195 C 122.82 1.86016 -0.774611 0
M  V30 1196 O 121.876 2.50416 -0.323776 0
M  V30 1197 C 123.189 0.606868 -2.94512 0
M  V30 1198 C 124.737 0.695925 -3.05165 0
M  V30 1199 C 125.212 0.784848 -4.51225 0
M  V30 1200 N 126.703 0.848463 -4.55363 0
M  V30 1201 C 127.438 0.937378 -5.65686 0
M  V30 1202 N 126.934 0.9888 -6.85707 0
M  V30 1203 N 128.727 0.974312 -5.53592 0
M  V30 1204 H 120.878 -0.661655 -2.01831 0
M  V30 1205 H 123.141 -0.235261 -0.918344 0
M  V30 1206 H 122.847 -0.28732 -3.50524 0
M  V30 1207 H 122.721 1.46268 -3.47686 0
M  V30 1208 H 125.108 1.58055 -2.49204 0
M  V30 1209 H 125.189 -0.186022 -2.55123 0
M  V30 1210 H 124.833 -0.0954072 -5.0781 0
M  V30 1211 H 124.763 1.68255 -4.98997 0
M  V30 1212 H 127.254 0.818103 -3.68938 0
M  V30 1213 H 127.567 1.05707 -7.65536 0
M  V30 1214 H 125.912 0.957534 -6.88372 0
M  V30 1215 H 129.103 0.930954 -4.58749 0
M  V30 1216 H 129.276 1.04015 -6.39597 0
M  V30 1217 N 122.682 1.50554 0.465978 0
M  V30 1218 C 124.093 1.54599 1.04671 0
M  V30 1219 C 124.444 0.352488 1.93008 0
M  V30 1220 O 123.569 -0.534044 2.09707 0
M  V30 1221 C 124.164 2.80166 1.90505 0
M  V30 1222 C 122.723 2.86876 2.43678 0
M  V30 1223 C 121.87 2.48947 1.22151 0
M  V30 1224 H 124.821 1.56744 0.248384 0
M  V30 1225 H 124.842 2.62311 2.75633 0
M  V30 1226 H 124.354 3.67013 1.26186 0
M  V30 1227 H 122.455 2.04393 3.11536 0
M  V30 1228 H 122.568 3.89885 2.78436 0
M  V30 1229 H 120.932 2.01498 1.5579 0
M  V30 1230 H 121.715 3.38107 0.594866 0
M  V30 1231 N 124.16 -0.719506 1.40217 0
M  V30 1232 C 125.571 -1.29848 1.34151 0
M  V30 1233 C 125.922 -1.96196 0.0131349 0
M  V30 1234 O 125.047 -1.973 -0.88892 0
M  V30 1235 C 125.642 -2.36118 2.42968 0
M  V30 1236 C 124.201 -2.8965 2.40374 0
M  V30 1237 C 123.348 -1.63393 2.24049 0
M  V30 1238 H 126.299 -0.51591 1.5008 0
M  V30 1239 H 126.32 -3.16871 2.10649 0
M  V30 1240 H 125.832 -1.878 3.39636 0
M  V30 1241 H 123.933 -3.42208 1.47392 0
M  V30 1242 H 124.046 -3.4171 3.35814 0
M  V30 1243 H 122.41 -1.88312 1.71495 0
M  V30 1244 H 123.193 -1.17104 3.2271 0
M  V30 1245 N 125.638 -1.25649 -0.95132 0
M  V30 1246 C 127.049 -1.09654 -1.51106 0
M  V30 1247 C 127.4 0.326615 -1.93462 0
M  V30 1248 O 126.525 1.21697 -1.78938 0
M  V30 1249 C 127.12 -1.98437 -2.74605 0
M  V30 1250 C 125.679 -1.86618 -3.2688 0
M  V30 1251 C 124.826 -1.9239 -1.99703 0
M  V30 1252 H 127.777 -1.38887 -0.767865 0
M  V30 1253 H 127.798 -1.5263 -3.48546 0
M  V30 1254 H 127.31 -3.02009 -2.43746 0
M  V30 1255 H 125.411 -0.859421 -3.62553 0
M  V30 1256 H 125.524 -2.71607 -3.94673 0
M  V30 1257 H 123.888 -1.36317 -2.15151 0
M  V30 1258 H 124.671 -2.97573 -1.71188 0
M  V30 1259 N 127.117 1.15442 -1.07289 0
M  V30 1260 C 128.528 1.67803 -0.818475 0
M  V30 1261 C 128.879 1.8489 0.656507 0
M  V30 1262 O 128.004 1.55176 1.50829 0
M  V30 1263 C 128.599 3.04805 -1.47917 0
M  V30 1264 C 127.158 3.54245 -1.27229 0
M  V30 1265 C 126.305 2.29986 -1.54925 0
M  V30 1266 H 129.256 0.996646 -1.23502 0
M  V30 1267 H 129.277 3.69702 -0.90005 0
M  V30 1268 H 128.789 2.92336 -2.55267 0
M  V30 1269 H 126.89 3.71956 -0.21899 0
M  V30 1270 H 127.003 4.35723 -1.99203 0
M  V30 1271 H 125.367 2.35496 -0.970242 0
M  V30 1272 H 126.15 2.20105 -2.63455 0
M  V30 1273 N 128.595 0.856903 1.32268 0
M  V30 1274 C 129.525 0.31858 2.31316 0
M  V30 1275 C 130.506 -0.583487 1.59779 0
M  V30 1276 O 131.691 -0.503259 1.87566 0
M  V30 1277 C 128.821 -0.491979 3.43798 0
M  V30 1278 C 127.775 0.315849 4.26833 0
M  V30 1279 C 127.101 -0.619586 5.31098 0
M  V30 1280 C 128.401 1.54282 4.98993 0
M  V30 1281 H 130.095 1.14621 2.76591 0
M  V30 1282 H 127.641 0.552613 1.32974 0
M  V30 1283 H 129.594 -0.879012 4.1213 0
M  V30 1284 H 128.318 -1.35299 2.97257 0
M  V30 1285 H 126.977 0.684664 3.6015 0
M  V30 1286 H 126.625 -1.47751 4.8081 0
M  V30 1287 H 126.325 -0.0830621 5.87541 0
M  V30 1288 H 127.849 -1.00375 6.02293 0
M  V30 1289 H 129.263 1.22796 5.59995 0
M  V30 1290 H 127.66 2.01745 5.65172 0
M  V30 1291 H 128.73 2.30285 4.26728 0
M  V30 1292 N 130.073 -1.45103 0.615059 0
M  V30 1293 C 131.321 -2.01784 0.112955 0
M  V30 1294 C 131.642 -1.48504 -1.26378 0
M  V30 1295 O 130.912 -0.682245 -1.83636 0
M  V30 1296 H 129.492 -0.745993 0.0387668 0
M  V30 1297 H 132.154 -1.77808 0.798141 0
M  V30 1298 H 131.25 -3.12025 0.0684069 0
M  V30 1299 N 131.551 -0.354651 -1.53558 0
M  V30 1300 C 132.514 0.484566 -2.24019 0
M  V30 1301 C 133.514 1.01861 -1.24422 0
M  V30 1302 O 134.704 0.906097 -1.4878 0
M  V30 1303 C 131.836 1.67615 -2.96847 0
M  V30 1304 H 133.029 -0.131843 -2.9961 0
M  V30 1305 H 130.582 -0.106165 -1.55939 0
M  V30 1306 H 131.317 2.33095 -2.25471 0
M  V30 1307 H 131.102 1.30029 -3.69912 0
M  V30 1308 H 132.592 2.27114 -3.50441 0
M  V30 1309 N 133.029 1.57378 -0.0835403 0
M  V30 1310 C 134.254 1.98682 0.594987 0
M  V30 1311 C 134.679 0.961969 1.61641 0
M  V30 1312 O 134.037 -0.0709989 1.81161 0
M  V30 1313 C 134.085 3.38988 1.2296 0
M  V30 1314 O 133.189 3.39208 2.34546 0
M  V30 1315 H 132.53 0.646368 0.152002 0
M  V30 1316 H 135.06 2.03961 -0.161533 0
M  V30 1317 H 135.07 3.76431 1.57366 0
M  V30 1318 H 133.745 4.13107 0.481228 0
M  V30 1319 H 132.322 3.13548 2.01846 0
M  V30 1320 N 134.507 -0.190092 1.56449 0
M  V30 1321 C 135.732 -0.929864 1.85387 0
M  V30 1322 C 136.157 -1.7585 0.667704 0
M  V30 1323 O 135.515 -1.77198 -0.383459 0
M  V30 1324 C 135.563 -1.79773 3.12593 0
M  V30 1325 O 134.667 -2.89713 2.93496 0
M  V30 1326 H 134.008 -0.261574 0.610307 0
M  V30 1327 H 136.538 -0.193896 2.03679 0
M  V30 1328 H 136.548 -2.20139 3.43515 0
M  V30 1329 H 135.223 -1.18892 3.98544 0
M  V30 1330 H 133.8 -2.53065 2.73884 0
M  V30 1331 N 135.985 -1.50799 -0.457987 0
M  V30 1332 C 136.917 -1.66786 -1.57211 0
M  V30 1333 C 137.93 -0.548962 -1.53265 0
M  V30 1334 O 139.119 -0.8226 -1.58416 0
M  V30 1335 C 136.219 -1.64834 -2.96113 0
M  V30 1336 C 135.392 -2.92971 -3.24787 0
M  V30 1337 C 134.451 -2.83485 -4.43309 0
M  V30 1338 O 133.477 -3.5744 -4.42973 0
M  V30 1339 N 134.679 -1.97929 -5.45714 0
M  V30 1340 H 137.444 -2.62889 -1.43909 0
M  V30 1341 H 135.005 -1.48427 -0.646617 0
M  V30 1342 H 136.997 -1.56084 -3.7339 0
M  V30 1343 H 135.567 -0.764118 -3.03117 0
M  V30 1344 H 134.787 -3.15749 -2.36 0
M  V30 1345 H 136.075 -3.77834 -3.40762 0
M  V30 1346 H 135.473 -1.37182 -5.48815 0
M  V30 1347 H 134.03 -1.95073 -6.21924 0
M  V30 1348 N 137.463 0.71206 -1.40597 0
M  V30 1349 C 138.874 1.29135 -1.34837 0
M  V30 1350 C 139.225 1.96186 -0.0235395 0
M  V30 1351 O 138.35 1.97768 0.878444 0
M  V30 1352 C 138.945 2.34827 -2.44217 0
M  V30 1353 C 137.504 2.88371 -2.41907 0
M  V30 1354 C 136.651 1.62202 -2.24913 0
M  V30 1355 H 139.602 0.507944 -1.50352 0
M  V30 1356 H 139.623 3.15749 -2.12327 0
M  V30 1357 H 139.135 1.85996 -3.40627 0
M  V30 1358 H 137.236 3.41422 -1.49204 0
M  V30 1359 H 137.349 3.39925 -3.37621 0
M  V30 1360 H 135.713 1.874 -1.72492 0
M  V30 1361 H 136.496 1.15391 -3.23326 0
M  V30 1362 N 138.941 1.26152 0.944643 0
M  V30 1363 C 140.357 1.03189 1.21754 0
M  V30 1364 C 140.557 -0.245112 2.00004 0
M  V30 1365 O 139.613 -0.955176 2.33736 0
M  V30 1366 C 140.926 2.26119 1.98219 0
M  V30 1367 C 142.474 2.30984 2.11224 0
M  V30 1368 C 142.949 3.53597 2.91089 0
M  V30 1369 N 144.44 3.54053 2.98664 0
M  V30 1370 C 145.175 4.45593 3.60881 0
M  V30 1371 N 144.671 5.47416 4.24626 0
M  V30 1372 N 146.464 4.33252 3.58119 0
M  V30 1373 H 138.615 2.08177 0.421437 0
M  V30 1374 H 140.878 0.914723 0.248969 0
M  V30 1375 H 140.584 3.18984 1.48128 0
M  V30 1376 H 140.458 2.3009 2.98895 0
M  V30 1377 H 142.845 1.38635 2.60508 0
M  V30 1378 H 142.926 2.31026 1.09821 0
M  V30 1379 H 142.57 4.46273 2.42493 0
M  V30 1380 H 142.5 3.50802 3.92741 0
M  V30 1381 H 144.991 2.80403 2.53343 0
M  V30 1382 H 145.304 6.13459 4.69987 0
M  V30 1383 H 143.649 5.51278 4.23223 0
M  V30 1384 H 146.84 3.52924 3.0751 0
M  V30 1385 H 147.013 5.04786 4.06319 0
M  V30 1386 N 140.419 -1.14872 1.07899 0
M  V30 1387 C 141.83 -1.67367 0.827363 0
M  V30 1388 C 142.181 -1.85236 -0.646693 0
M  V30 1389 O 141.306 -1.55974 -1.50004 0
M  V30 1390 C 141.901 -3.04016 1.49532 0
M  V30 1391 C 140.46 -3.53566 1.29106 0
M  V30 1392 C 139.607 -2.29161 1.56143 0
M  V30 1393 H 142.558 -0.990083 1.24028 0
M  V30 1394 H 142.579 -3.69219 0.919643 0
M  V30 1395 H 142.091 -2.90978 2.56814 0
M  V30 1396 H 140.192 -3.71835 0.238713 0
M  V30 1397 H 140.305 -4.34661 2.01511 0
M  V30 1398 H 138.669 -2.34978 0.982717 0
M  V30 1399 H 139.452 -2.18705 2.64619 0
M  V30 1400 N 141.898 -0.863906 -1.31812 0
M  V30 1401 C 143.146 -0.470904 -1.96537 0
M  V30 1402 C 143.467 0.978771 -1.68657 0
M  V30 1403 O 142.737 1.6853 -0.998717 0
M  V30 1404 H 141.317 -0.171148 -0.72713 0
M  V30 1405 H 143.979 -1.10236 -1.60729 0
M  V30 1406 H 143.075 -0.623616 -3.05806 0
M  V30 1407 N 143.376 1.44774 -0.622745 0
M  V30 1408 C 144.624 2.01721 -0.123655 0
M  V30 1409 C 144.945 1.49172 1.25589 0
M  V30 1410 O 144.215 0.691974 1.83272 0
M  V30 1411 H 142.795 0.745777 -0.0427225 0
M  V30 1412 H 145.457 1.77382 -0.807559 0
M  V30 1413 H 144.553 3.11984 -0.0849534 0
M  V30 1414 N 144.854 0.36279 1.53368 0
M  V30 1415 C 146.131 -0.284021 1.93527 0
M  V30 1416 C 146.511 -1.66628 1.29608 0
M  V30 1417 O 145.859 -2.23942 0.45413 0
M  V30 1418 C 146.069 -0.337028 3.47369 0
M  V30 1419 C 147.417 -0.578708 4.20638 0
M  V30 1420 O 148.441 -0.418352 3.53735 0
M  V30 1421 O 147.3 -0.89074 5.39192 0
M  V30 1422 H 144.394 -0.169743 0.809393 0
M  V30 1423 H 146.94 0.41537 1.64538 0
M  V30 1424 H 145.712 0.632217 3.86159 0
M  V30 1425 H 145.335 -1.08243 3.82582 0
M  V30 1426 N 146.332 -1.57332 0.0918853 0
M  V30 1427 C 147.557 -1.98995 -0.584442 0
M  V30 1428 C 147.982 -0.970528 -1.61128 0
M  V30 1429 O 147.34 0.0613904 -1.81196 0
M  V30 1430 C 147.388 -3.39636 -1.21161 0
M  V30 1431 O 146.492 -3.40447 -2.32744 0
M  V30 1432 H 145.833 -0.647165 -0.148572 0
M  V30 1433 H 148.363 -2.03873 0.172347 0
M  V30 1434 H 148.373 -3.7726 -1.55367 0
M  V30 1435 H 147.048 -4.13356 -0.459313 0
M  V30 1436 H 145.625 -3.14614 -2.0018 0
M  V30 1437 N 147.81 0.181792 -1.56548 0
M  V30 1438 C 149.035 0.920019 -1.85877 0
M  V30 1439 C 149.46 1.75494 -0.677021 0
M  V30 1440 O 148.818 1.77399 0.374056 0
M  V30 1441 C 148.866 1.78112 -3.13542 0
M  V30 1442 O 147.97 2.88152 -2.95029 0
M  V30 1443 H 147.311 0.258334 -0.611686 0
M  V30 1444 H 149.841 0.183092 -2.03779 0
M  V30 1445 H 149.851 2.18314 -3.44678 0
M  V30 1446 H 148.526 1.16777 -3.99169 0
M  V30 1447 H 147.103 2.51609 -2.75222 0
M  V30 1448 N 149.288 1.51039 0.449983 0
M  V30 1449 C 150.699 1.557 1.03026 0
M  V30 1450 C 151.05 0.372939 1.92623 0
M  V30 1451 O 150.175 -0.511771 2.10261 0
M  V30 1452 C 150.77 2.82171 1.87523 0
M  V30 1453 C 149.329 2.89444 2.40622 0
M  V30 1454 C 148.476 2.50228 1.19504 0
M  V30 1455 H 151.427 1.56999 0.231745 0
M  V30 1456 H 151.448 2.65219 2.72835 0
M  V30 1457 H 150.96 3.68331 1.22286 0
M  V30 1458 H 149.061 2.07685 3.0935 0
M  V30 1459 H 149.174 3.92816 2.74285 0
M  V30 1460 H 147.538 2.03139 1.53644 0
M  V30 1461 H 148.321 3.38719 0.558972 0
M  V30 1462 N 150.766 -0.704594 1.40972 0
M  V30 1463 C 152.012 -1.46675 1.40051 0
M  V30 1464 C 152.345 -1.94199 0.00641102 0
M  V30 1465 O 151.62 -1.68916 -0.964235 0
M  V30 1466 C 151.903 -2.68505 2.39952 0
M  V30 1467 C 151.756 -2.26805 3.88432 0
M  V30 1468 C 153.075 -3.70686 2.37233 0
M  V30 1469 H 150.194 -0.532015 0.510028 0
M  V30 1470 H 152.836 -0.803255 1.72185 0
M  V30 1471 H 150.986 -3.25114 2.1268 0
M  V30 1472 H 152.658 -1.75592 4.26574 0
M  V30 1473 H 150.901 -1.58685 4.03734 0
M  V30 1474 H 151.572 -3.14181 4.53866 0
M  V30 1475 H 154.048 -3.23731 2.61415 0
M  V30 1476 H 152.924 -4.53553 3.09162 0
M  V30 1477 H 153.185 -4.19754 1.38777 0
M  V30 1478 N 152.244 -1.26651 -0.937939 0
M  V30 1479 C 153.49 -1.12553 -1.687 0
M  V30 1480 C 153.823 0.329782 -1.91379 0
M  V30 1481 O 153.098 1.24202 -1.4968 0
M  V30 1482 C 153.381 -1.89862 -3.05981 0
M  V30 1483 C 153.234 -3.43318 -2.90607 0
M  V30 1484 C 154.553 -1.69499 -4.0615 0
M  V30 1485 H 151.672 -0.410257 -0.612257 0
M  V30 1486 H 154.314 -1.55685 -1.08913 0
M  V30 1487 H 152.464 -1.53204 -3.57017 0
M  V30 1488 H 154.136 -3.89747 -2.46769 0
M  V30 1489 H 152.379 -3.70179 -2.26164 0
M  V30 1490 H 153.05 -3.92642 -3.8799 0
M  V30 1491 H 155.526 -2.01442 -3.64088 0
M  V30 1492 H 154.402 -2.26002 -5.00214 0
M  V30 1493 H 154.663 -0.640365 -4.37438 0
M  V30 1494 N 153.722 1.14298 -1.08507 0
M  V30 1495 C 154.999 1.81544 -0.728088 0
M  V30 1496 C 155.379 1.95838 0.78808 0
M  V30 1497 O 154.727 1.51904 1.70697 0
M  V30 1498 C 154.937 3.17169 -1.45619 0
M  V30 1499 C 156.285 3.9265 -1.61591 0
M  V30 1500 O 157.309 3.26762 -1.41793 0
M  V30 1501 O 156.168 5.10807 -1.94263 0
M  V30 1502 H 153.262 0.78491 -0.260471 0
M  V30 1503 H 155.808 1.21307 -1.18671 0
M  V30 1504 H 154.58 3.01934 -2.489 0
M  V30 1505 H 154.203 3.851 -0.989124 0
M  V30 1506 N 155.201 0.870884 1.31352 0
M  V30 1507 C 156.426 0.495957 2.01383 0
M  V30 1508 C 156.851 -0.904324 1.64935 0
M  V30 1509 O 156.209 -1.59687 0.858466 0
M  V30 1510 C 156.257 0.661433 3.54482 0
M  V30 1511 O 155.361 -0.298851 4.11316 0
M  V30 1512 H 154.702 0.197158 0.634054 0
M  V30 1513 H 157.232 1.17455 1.67527 0
M  V30 1514 H 157.242 0.555072 4.04207 0
M  V30 1515 H 155.917 1.68246 3.8035 0
M  V30 1516 H 154.494 -0.147368 3.72609 0
M  V30 1517 N 156.679 -1.44442 0.630414 0
M  V30 1518 C 157.927 -2.01653 0.134351 0
M  V30 1519 C 158.248 -1.49836 -1.24796 0
M  V30 1520 O 157.518 -0.701684 -1.82902 0
M  V30 1521 H 156.098 -0.74554 0.0466769 0
M  V30 1522 H 158.76 -1.76952 0.816955 0
M  V30 1523 H 157.856 -3.11935 0.101498 0
M  V30 1524 N 158.157 -0.370918 -1.53173 0
M  V30 1525 C 159.568 0.107139 -1.86392 0
M  V30 1526 C 159.919 1.47714 -1.29132 0
M  V30 1527 O 159.044 2.07464 -0.615439 0
M  V30 1528 C 159.639 0.201187 -3.38202 0
M  V30 1529 C 158.198 0.623507 -3.712 0
M  V30 1530 C 157.345 -0.225978 -2.76378 0
M  V30 1531 H 160.296 -0.58951 -1.47345 0
M  V30 1532 H 160.317 1.02377 -3.66468 0
M  V30 1533 H 159.829 -0.796058 -3.79848 0
M  V30 1534 H 157.93 1.62879 -3.35114 0
M  V30 1535 H 158.043 0.394414 -4.77474 0
M  V30 1536 H 156.407 0.305962 -2.52856 0
M  V30 1537 H 157.19 -1.22086 -3.20858 0
M  V30 1538 N 159.635 1.57281 -0.100228 0
M  V30 1539 C 160.883 1.94153 0.561157 0
M  V30 1540 C 161.204 0.983157 1.68401 0
M  V30 1541 O 160.474 0.0361132 1.95867 0
M  V30 1542 H 159.054 0.716791 0.210283 0
M  V30 1543 H 161.716 1.94202 -0.164765 0
M  V30 1544 H 160.812 2.96709 0.968008 0
M  V30 1545 N 161.113 -0.173488 1.56642 0
M  V30 1546 C 162.524 -0.736155 1.71574 0
M  V30 1547 C 162.875 -1.82888 0.710389 0
M  V30 1548 O 162 -2.16017 -0.1287 0
M  V30 1549 C 162.595 -1.34211 3.11083 0
M  V30 1550 C 161.154 -1.85162 3.27707 0
M  V30 1551 C 160.301 -0.729765 2.67525 0
M  V30 1552 H 163.252 0.0518786 1.58615 0
M  V30 1553 H 163.273 -2.21178 3.09613 0
M  V30 1554 H 162.785 -0.546579 3.84232 0
M  V30 1555 H 160.886 -2.67366 2.59512 0
M  V30 1556 H 160.999 -1.99855 4.35425 0
M  V30 1557 H 159.363 -1.14965 2.27278 0
M  V30 1558 H 160.146 0.0538806 3.43258 0
M  V30 1559 N 162.591 -1.51276 -0.441967 0
M  V30 1560 C 163.554 -1.7167 -1.51862 0
M  V30 1561 C 164.554 -0.586793 -1.49711 0
M  V30 1562 O 165.744 -0.854276 -1.51815 0
M  V30 1563 C 162.876 -1.76889 -2.91416 0
M  V30 1564 H 164.069 -2.67754 -1.35084 0
M  V30 1565 H 161.622 -1.41196 -0.670333 0
M  V30 1566 H 162.357 -0.826026 -3.13604 0
M  V30 1567 H 162.142 -2.59001 -2.94382 0
M  V30 1568 H 163.632 -1.94522 -3.69528 0
M  V30 1569 N 164.069 0.697108 -1.41344 0
M  V30 1570 C 165.294 1.49096 -1.44171 0
M  V30 1571 C 165.719 1.88038 -0.0481568 0
M  V30 1572 O 165.077 1.54525 0.948243 0
M  V30 1573 C 165.125 2.73088 -2.3549 0
M  V30 1574 O 164.229 3.70514 -1.81088 0
M  V30 1575 H 163.57 0.448801 -0.489361 0
M  V30 1576 H 166.1 0.856992 -1.85787 0
M  V30 1577 H 166.11 3.21413 -2.51312 0
M  V30 1578 H 164.785 2.44081 -3.36745 0
M  V30 1579 H 163.362 3.29441 -1.74708 0
M  V30 1580 N 165.547 1.27147 0.931209 0
M  V30 1581 C 166.495 1.09398 2.05268 0
M  V30 1582 C 167.489 0.0180591 1.6939 0
M  V30 1583 O 168.695 0.17551 1.79142 0
M  V30 1584 H 165.07 0.336986 0.672268 0
M  V30 1585 H 167.041 2.04416 2.17386 0
M  V30 1586 C 165.79 0.75424 3.39421 0
M  V30 1587 H 165.113 1.57404 3.67511 0
M  V30 1588 H 166.553 0.669903 4.18674 0
M  V30 1589 C 165.012 -0.541197 3.32525 0
M  V30 1590 O 165.542 -1.57664 3.69466 0
M  V30 1591 N 163.748 -0.535517 2.85623 0
M  V30 1592 H 163.295 0.307511 2.55758 0
M  V30 1593 H 163.253 -1.40236 2.81392 0
M  V30 1594 N 167.025 -1.13721 1.09112 0
M  V30 1595 C 167.955 -2.21148 0.749385 0
M  V30 1596 C 168.936 -1.6792 -0.271475 0
M  V30 1597 O 170.121 -1.93693 -0.140251 0
M  V30 1598 C 167.251 -3.46905 0.165659 0
M  V30 1599 C 166.205 -4.13203 1.11567 0
M  V30 1600 C 165.531 -5.33248 0.393809 0
M  V30 1601 C 166.831 -4.60912 2.45678 0
M  V30 1602 H 168.525 -2.4999 1.64758 0
M  V30 1603 H 166.071 -1.20156 0.793626 0
M  V30 1604 H 168.024 -4.21313 -0.085466 0
M  V30 1605 H 166.748 -3.17449 -0.767714 0
M  V30 1606 H 165.407 -3.40758 1.35202 0
M  V30 1607 H 165.055 -5.00054 -0.543599 0
M  V30 1608 H 164.755 -5.78552 1.02721 0
M  V30 1609 H 166.279 -6.10413 0.150908 0
M  V30 1610 H 167.693 -5.26759 2.26269 0
M  V30 1611 H 166.09 -5.16944 3.04776 0
M  V30 1612 H 167.16 -3.75603 3.06677 0
M  V30 1613 N 168.503 -0.877838 -1.30888 0
M  V30 1614 C 169.731 -0.507414 -2.00581 0
M  V30 1615 C 170.146 0.902216 -1.65848 0
M  V30 1616 O 169.503 1.59225 -0.891831 0
M  V30 1617 C 169.554 -0.664162 -3.55347 0
M  V30 1618 O 169.275 -2.01829 -3.8884 0
M  V30 1619 C 170.776 -0.295787 -4.42312 0
M  V30 1620 H 167.996 -0.196866 -0.641471 0
M  V30 1621 H 170.54 -1.18117 -1.66939 0
M  V30 1622 H 168.695 -0.0378619 -3.87381 0
M  V30 1623 H 169.109 -2.03174 -4.8355 0
M  V30 1624 H 170.583 -0.456388 -5.5011 0
M  V30 1625 H 171.06 0.765663 -4.32475 0
M  V30 1626 H 171.666 -0.898113 -4.15709 0
M  V30 1627 N 169.982 1.44106 -0.638065 0
M  V30 1628 C 171.207 2.0685 -0.150916 0
M  V30 1629 C 171.632 1.47417 1.16833 0
M  V30 1630 O 170.99 0.578264 1.71831 0
M  V30 1631 C 171.038 3.60555 -0.05708 0
M  V30 1632 O 170.142 4.00465 0.984972 0
M  V30 1633 H 169.483 0.658151 -0.0879399 0
M  V30 1634 H 172.013 1.84865 -0.876707 0
M  V30 1635 H 172.023 4.07789 0.131232 0
M  V30 1636 H 170.698 4.03193 -1.02021 0
M  V30 1637 H 169.275 3.64849 0.770672 0
M  V30 1638 N 171.46 0.379036 1.52974 0
M  V30 1639 C 172.706 -0.206727 2.01744 0
M  V30 1640 C 173.039 -1.47314 1.26539 0
M  V30 1641 O 172.314 -1.91084 0.362903 0
M  V30 1642 C 172.597 -0.485066 3.56818 0
M  V30 1643 C 172.45 0.795919 4.42702 0
M  V30 1644 C 173.769 -1.28003 4.21074 0
M  V30 1645 H 170.888 -0.0736607 0.73331 0
M  V30 1646 H 173.53 0.506581 1.83122 0
M  V30 1647 H 171.68 -1.09272 3.72816 0
M  V30 1648 H 173.352 1.43307 4.38476 0
M  V30 1649 H 171.595 1.41344 4.10127 0
M  V30 1650 H 172.266 0.555947 5.49193 0
M  V30 1651 H 174.742 -0.765867 4.08991 0
M  V30 1652 H 173.618 -1.44352 5.29579 0
M  V30 1653 H 173.879 -2.29236 3.78026 0
M  V30 1654 N 172.938 -1.57226 0.108567 0
M  V30 1655 C 174.349 -1.8195 -0.418464 0
M  V30 1656 C 174.7 -1.02508 -1.67292 0
M  V30 1657 O 173.825 -0.258496 -2.14851 0
M  V30 1658 C 174.42 -3.30028 -0.765979 0
M  V30 1659 C 172.979 -3.55469 -1.23769 0
M  V30 1660 C 172.126 -2.7625 -0.241106 0
M  V30 1661 H 175.077 -1.55149 0.33384 0
M  V30 1662 H 175.098 -3.44086 -1.62434 0
M  V30 1663 H 174.61 -3.87821 0.147219 0
M  V30 1664 H 172.711 -3.03022 -2.16814 0
M  V30 1665 H 172.824 -4.6408 -1.19022 0
M  V30 1666 H 171.188 -2.44133 -0.72602 0
M  V30 1667 H 171.971 -3.36797 0.665007 0
M  V30 1668 N 174.416 0.165178 -1.56732 0
M  V30 1669 C 175.662 0.882112 -1.82611 0
M  V30 1670 C 175.995 1.81628 -0.687378 0
M  V30 1671 O 175.27 1.92009 0.310267 0
M  V30 1672 C 175.553 1.67245 -3.18906 0
M  V30 1673 C 175.406 0.760987 -4.43316 0
M  V30 1674 C 176.725 2.63884 -3.52212 0
M  V30 1675 H 173.844 0.319242 -0.664269 0
M  V30 1676 H 176.486 0.148052 -1.89422 0
M  V30 1677 H 174.636 2.29824 -3.1323 0
M  V30 1678 H 176.308 0.147596 -4.61064 0
M  V30 1679 H 174.551 0.0694102 -4.33744 0
M  V30 1680 H 175.222 1.34962 -5.35247 0
M  V30 1681 H 177.698 2.11429 -3.58381 0
M  V30 1682 H 176.574 3.16245 -4.48643 0
M  V30 1683 H 176.835 3.44377 -2.77231 0
M  V30 1684 N 175.894 1.51508 0.433938 0
M  V30 1685 C 177.305 1.56784 1.01369 0
M  V30 1686 C 177.656 0.393349 1.92217 0
M  V30 1687 O 176.781 -0.489441 2.10792 0
M  V30 1688 C 177.376 2.84144 1.8452 0
M  V30 1689 C 175.935 2.9198 2.37539 0
M  V30 1690 C 175.082 2.51482 1.16843 0
M  V30 1691 H 178.033 1.57236 0.215081 0
M  V30 1692 H 178.054 2.68098 2.70007 0
M  V30 1693 H 177.566 3.69607 1.18373 0
M  V30 1694 H 175.667 2.10955 3.0713 0
M  V30 1695 H 175.78 3.95704 2.70103 0
M  V30 1696 H 174.144 2.04758 1.51481 0
M  V30 1697 H 174.927 3.39293 0.523015 0
M  V30 1698 N 177.372 -0.689602 1.41712 0
M  V30 1699 C 178.322 -1.79571 1.40493 0
M  V30 1700 C 179.306 -1.58473 0.278409 0
M  V30 1701 O 180.498 -1.69204 0.519532 0
M  V30 1702 C 177.627 -3.17923 1.29536 0
M  V30 1703 C 176.713 -3.44695 2.47075 0
M  V30 1704 N 177.104 -3.42132 3.72531 0
M  V30 1705 C 175.402 -3.75269 2.41017 0
M  V30 1706 C 176.103 -3.67976 4.50521 0
M  V30 1707 N 175.079 -3.88014 3.80718 0
M  V30 1708 H 178.881 -1.75961 2.35404 0
M  V30 1709 H 176.395 -0.889839 1.35851 0
M  V30 1710 H 178.392 -3.97167 1.26745 0
M  V30 1711 H 177.052 -3.22741 0.356153 0
M  V30 1712 H 178.063 -3.22375 4.05333 0
M  V30 1713 H 174.74 -3.87421 1.55599 0
M  V30 1714 H 176.13 -3.7208 5.59469 0
M  V30 1715 N 178.85 -1.27639 -0.924453 0
M  V30 1716 C 180.078 -1.16989 -1.70649 0
M  V30 1717 C 180.493 0.272869 -1.86818 0
M  V30 1718 O 179.85 1.18549 -1.38753 0
M  V30 1719 C 179.901 -1.85229 -3.10439 0
M  V30 1720 O 179.622 -3.23868 -2.95028 0
M  V30 1721 C 181.123 -1.80746 -4.04779 0
M  V30 1722 H 178.343 -0.406595 -0.53378 0
M  V30 1723 H 180.887 -1.68569 -1.15778 0
M  V30 1724 H 179.042 -1.37545 -3.6216 0
M  V30 1725 H 179.456 -3.57889 -3.83426 0
M  V30 1726 H 180.93 -2.33101 -5.00368 0
M  V30 1727 H 181.407 -0.777499 -4.32263 0
M  V30 1728 H 182.013 -2.28059 -3.58984 0
M  V30 1729 N 180.328 1.1314 -1.09713 0
M  V30 1730 C 181.556 1.88321 -0.856898 0
M  V30 1731 C 181.971 1.79276 0.592073 0
M  V30 1732 O 181.328 1.16142 1.40774 0
M  V30 1733 C 181.379 3.37812 -1.28706 0
M  V30 1734 O 181.1 3.46627 -2.67921 0
M  V30 1735 C 182.601 4.29952 -1.07964 0
M  V30 1736 H 179.821 0.596094 -0.308079 0
M  V30 1737 H 182.365 1.43205 -1.45988 0
M  V30 1738 H 180.52 3.805 -0.727912 0
M  V30 1739 H 180.934 4.39579 -2.8613 0
M  V30 1740 H 182.408 5.33159 -1.42986 0
M  V30 1741 H 182.885 4.39196 -0.0176577 0
M  V30 1742 H 183.491 3.93036 -1.62489 0
M  V30 1743 N 181.806 0.884767 1.30421 0
M  V30 1744 C 182.769 0.356277 2.26414 0
M  V30 1745 C 183.769 -0.501124 1.52792 0
M  V30 1746 O 184.959 -0.30831 1.7145 0
M  V30 1747 C 182.091 -0.492316 3.37326 0
M  V30 1748 H 183.284 1.20389 2.74675 0
M  V30 1749 H 180.837 0.661607 1.41607 0
M  V30 1750 H 181.572 -1.36052 2.94381 0
M  V30 1751 H 181.357 0.121832 3.91911 0
M  V30 1752 H 182.847 -0.853871 4.08777 0
M  V30 1753 N 183.284 -1.43765 0.645699 0
M  V30 1754 C 184.214 -2.33471 -0.0370477 0
M  V30 1755 C 185.195 -1.49042 -0.819779 0
M  V30 1756 O 186.38 -1.77726 -0.782758 0
M  V30 1757 C 183.51 -3.32311 -1.0093 0
M  V30 1758 C 182.464 -4.2667 -0.337201 0
M  V30 1759 C 181.79 -5.1549 -1.42037 0
M  V30 1760 C 183.09 -5.16657 0.765706 0
M  V30 1761 H 184.784 -2.90809 0.712069 0
M  V30 1762 H 182.33 -1.39834 0.343876 0
M  V30 1763 H 184.283 -3.9396 -1.49578 0
M  V30 1764 H 183.007 -2.73213 -1.78948 0
M  V30 1765 H 181.666 -3.66374 0.128771 0
M  V30 1766 H 181.314 -4.52735 -2.1918 0
M  V30 1767 H 181.014 -5.79438 -0.975966 0
M  V30 1768 H 182.538 -5.80012 -1.90838 0
M  V30 1769 H 183.952 -5.72158 0.361702 0
M  V30 1770 H 182.349 -5.89286 1.13413 0
M  V30 1771 H 183.419 -4.56796 1.62683 0
M  V30 1772 N 184.763 -0.387143 -1.52771 0
M  V30 1773 C 185.988 0.198407 -2.06449 0
M  V30 1774 C 186.413 1.39918 -1.25716 0
M  V30 1775 O 185.771 1.79099 -0.281657 0
M  V30 1776 C 185.819 0.548893 -3.56398 0
M  V30 1777 O 184.923 1.64315 -3.78252 0
M  V30 1778 H 184.264 0.0237731 -0.663574 0
M  V30 1779 H 186.794 -0.553989 -1.96957 0
M  V30 1780 H 186.804 0.813812 -3.99801 0
M  V30 1781 H 185.479 -0.329005 -4.14597 0
M  V30 1782 H 184.056 1.37211 -3.46738 0
M  V30 1783 N 186.241 1.57166 -0.116904 0
M  V30 1784 C 187.171 2.18222 0.830759 0
M  V30 1785 C 188.152 1.12167 1.27877 0
M  V30 1786 O 189.337 1.40394 1.34176 0
M  V30 1787 C 186.467 2.77996 2.08172 0
M  V30 1788 C 185.421 3.89614 1.77157 0
M  V30 1789 C 184.747 4.36187 3.09265 0
M  V30 1790 C 186.047 5.1181 1.04151 0
M  V30 1791 H 187.741 2.97664 0.321992 0
M  V30 1792 H 185.287 1.4318 0.153434 0
M  V30 1793 H 187.24 3.19366 2.74924 0
M  V30 1794 H 185.964 1.9584 2.6137 0
M  V30 1795 H 184.623 3.48816 1.12796 0
M  V30 1796 H 184.271 3.50893 3.60393 0
M  V30 1797 H 183.971 5.11455 2.89288 0
M  V30 1798 H 185.495 4.80207 3.77139 0
M  V30 1799 H 186.909 5.50214 1.61052 0
M  V30 1800 H 185.306 5.92648 0.942762 0
M  V30 1801 H 186.376 4.84892 0.0279022 0
M  V30 1802 N 187.719 -0.156864 1.56817 0
M  V30 1803 C 189.13 -0.717916 1.72345 0
M  V30 1804 C 189.481 -1.82124 0.729747 0
M  V30 1805 O 188.606 -2.16141 -0.105781 0
M  V30 1806 C 189.201 -1.30904 3.12489 0
M  V30 1807 C 187.76 -1.81676 3.29653 0
M  V30 1808 C 186.907 -0.701349 2.68284 0
M  V30 1809 H 189.858 0.0686989 1.58551 0
M  V30 1810 H 189.879 -2.17882 3.11942 0
M  V30 1811 H 189.391 -0.505796 3.8479 0
M  V30 1812 H 187.492 -2.64598 2.62333 0
M  V30 1813 H 187.605 -1.95226 4.3752 0
M  V30 1814 H 185.969 -1.12548 2.28484 0
M  V30 1815 H 186.752 0.0902846 3.43181 0
M  V30 1816 N 189.197 -1.51736 -0.425897 0
M  V30 1817 C 190.16 -1.73271 -1.50032 0
M  V30 1818 C 191.16 -0.602639 -1.4908 0
M  V30 1819 O 192.35 -0.87033 -1.509 0
M  V30 1820 C 189.482 -1.79969 -2.89523 0
M  V30 1821 H 190.675 -2.69172 -1.32237 0
M  V30 1822 H 188.228 -1.41899 -0.65532 0
M  V30 1823 H 188.963 -0.859241 -3.1271 0
M  V30 1824 H 188.748 -2.62109 -2.91619 0
M  V30 1825 H 190.238 -1.9843 -3.67444 0
M  V30 1826 N 190.675 0.682077 -1.42076 0
M  V30 1827 C 191.915 1.45424 -1.43636 0
M  V30 1828 C 192.279 1.91939 -0.0484001 0
M  V30 1829 O 193.48 2.6873 0.0612514 0
M  V30 1830 C 191.751 2.62427 -2.42625 0
M  V30 1831 S 193.31 3.51379 -2.62827 0
M  V30 1832 H 190.128 0.496779 -0.508657 0
M  V30 1833 H 192.73 0.794645 -1.78621 0
M  V30 1834 H 191.434 2.26481 -3.42249 0
M  V30 1835 H 190.965 3.33266 -2.09039 0
M  V30 1836 H 192.98 4.58141 -1.9058 0
M  V30 1837 N 192.153 1.28127 0.917671 0
M  V30 1838 C 193.564 1.13622 1.48145 0
M  V30 1839 C 193.915 -0.275207 1.9426 0
M  V30 1840 O 193.04 -1.1691 1.82102 0
M  V30 1841 C 193.635 2.05648 2.69248 0
M  V30 1842 C 192.194 1.95219 3.21818 0
M  V30 1843 C 191.341 1.97618 1.94532 0
M  V30 1844 H 194.292 1.40874 0.730772 0
M  V30 1845 H 194.313 1.61818 3.44377 0
M  V30 1846 H 193.825 3.08365 2.35653 0
M  V30 1847 H 191.926 0.955244 3.60147 0
M  V30 1848 H 192.039 2.81976 3.87333 0
M  V30 1849 H 190.403 1.41973 2.11461 0
M  V30 1850 H 191.186 3.02007 1.63238 0
M  V30 1851 N 193.631 -1.12557 1.10312 0
M  V30 1852 C 194.541 -2.21841 0.763142 0
M  V30 1853 C 195.557 -1.72354 -0.238801 0
M  V30 1854 O 196.733 -2.01249 -0.0778746 0
M  V30 1855 C 193.798 -3.46131 0.198632 0
M  V30 1856 C 192.859 -4.10464 1.25769 0
M  V30 1857 C 192.092 -5.28821 0.72002 0
M  V30 1858 O 192.315 -5.6859 -0.453993 0
M  V30 1859 O 191.249 -5.83437 1.47935 0
M  V30 1860 H 195.075 -2.53312 1.67532 0
M  V30 1861 H 192.66 -1.20867 0.878157 0
M  V30 1862 H 194.542 -4.2125 -0.112401 0
M  V30 1863 H 193.217 -3.16338 -0.686419 0
M  V30 1864 H 192.124 -3.3713 1.62156 0
M  V30 1865 H 193.457 -4.44408 2.11571 0
M  V30 1866 N 195.109 -0.891671 -1.2995 0
M  V30 1867 C 196.019 -0.367691 -2.31701 0
M  V30 1868 C 197.035 0.533486 -1.6562 0
M  V30 1869 O 198.211 0.424997 -1.96865 0
M  V30 1870 C 195.276 0.403406 -3.44345 0
M  V30 1871 C 194.337 -0.528328 -4.26037 0
M  V30 1872 C 193.57 0.206063 -5.33302 0
M  V30 1873 O 193.793 1.43119 -5.52153 0
M  V30 1874 O 192.727 -0.447281 -6.00236 0
M  V30 1875 H 196.553 -1.21163 -2.78484 0
M  V30 1876 H 194.138 -0.655725 -1.34241 0
M  V30 1877 H 196.02 0.839753 -4.12948 0
M  V30 1878 H 194.695 1.22354 -2.99685 0
M  V30 1879 H 193.602 -1.01362 -3.60106 0
M  V30 1880 H 194.935 -1.31465 -4.74318 0
M  V30 1881 N 196.587 1.43421 -0.653314 0
M  V30 1882 C 197.812 2.06678 -0.172846 0
M  V30 1883 C 198.237 1.48648 1.15262 0
M  V30 1884 O 197.595 0.596457 1.71208 0
M  V30 1885 C 197.643 3.60474 -0.0953184 0
M  V30 1886 O 196.747 4.01487 0.942442 0
M  V30 1887 H 196.088 0.657181 -0.0949155 0
M  V30 1888 H 198.618 1.83925 -0.896265 0
M  V30 1889 H 198.628 4.07905 0.0879728 0
M  V30 1890 H 197.303 4.02088 -1.06291 0
M  V30 1891 H 195.88 3.65646 0.731932 0
M  V30 1892 N 198.065 0.39524 1.52563 0
M  V30 1893 C 199.476 -0.0774719 1.86539 0
M  V30 1894 C 199.827 -1.45641 1.31466 0
M  V30 1895 O 198.952 -2.06459 0.648367 0
M  V30 1896 C 199.547 -0.147356 3.38479 0
M  V30 1897 C 198.106 -0.564373 3.72145 0
M  V30 1898 C 197.253 0.269919 2.75983 0
M  V30 1899 H 200.204 0.612876 1.46388 0
M  V30 1900 H 200.225 -0.965343 3.68051 0
M  V30 1901 H 199.737 0.856387 3.78534 0
M  V30 1902 H 197.838 -1.57527 3.37663 0
M  V30 1903 H 197.951 -0.318402 4.78041 0
M  V30 1904 H 196.315 -0.265696 2.5331 0
M  V30 1905 H 197.098 1.27175 3.18875 0
M  V30 1906 N 199.544 -1.57102 0.125237 0
M  V30 1907 C 200.474 -2.18659 -0.819174 0
M  V30 1908 C 201.455 -1.12843 -1.27281 0
M  V30 1909 O 202.64 -1.41104 -1.33429 0
M  V30 1910 C 199.77 -2.79096 -2.06695 0
M  V30 1911 C 198.724 -3.90548 -1.75088 0
M  V30 1912 C 198.05 -4.37821 -3.06948 0
M  V30 1913 C 199.35 -5.12356 -1.01435 0
M  V30 1914 H 201.044 -2.9783 -0.306202 0
M  V30 1915 H 198.59 -1.4326 -0.145839 0
M  V30 1916 H 200.543 -3.2082 -2.73226 0
M  V30 1917 H 199.267 -1.97223 -2.60328 0
M  V30 1918 H 197.926 -3.49409 -1.10944 0
M  V30 1919 H 197.574 -3.52799 -3.58527 0
M  V30 1920 H 197.274 -5.12982 -2.86571 0
M  V30 1921 H 198.798 -4.822 -3.74587 0
M  V30 1922 H 200.212 -5.5106 -1.58132 0
M  V30 1923 H 198.609 -5.9314 -0.911319 0
M  V30 1924 H 199.679 -4.849 -0.00218681 0
M  V30 1925 N 201.022 0.148545 -1.56898 0
M  V30 1926 C 201.952 1.18524 -2.01182 0
M  V30 1927 C 202.933 1.4489 -0.891123 0
M  V30 1928 O 204.118 1.55836 -1.15882 0
M  V30 1929 C 201.248 2.51879 -2.39112 0
M  V30 1930 C 200.202 2.40038 -3.54353 0
M  V30 1931 C 199.528 3.78089 -3.78091 0
M  V30 1932 C 200.828 1.88577 -4.87069 0
M  V30 1933 H 202.522 0.817029 -2.88036 0
M  V30 1934 H 200.068 0.391575 -1.38574 0
M  V30 1935 H 202.021 3.24627 -2.68692 0
M  V30 1936 H 200.745 2.90532 -1.49193 0
M  V30 1937 H 199.404 1.69742 -3.24936 0
M  V30 1938 H 199.052 4.14175 -2.85426 0
M  V30 1939 H 198.752 3.71028 -4.55645 0
M  V30 1940 H 200.276 4.52387 -4.10095 0
M  V30 1941 H 201.69 2.51117 -5.15377 0
M  V30 1942 H 200.087 1.9241 -5.68417 0
M  V30 1943 H 201.157 0.84136 -4.77545 0
M  V30 1944 N 202.5 1.5196 0.417844 0
M  V30 1945 C 203.746 1.65836 1.16732 0
M  V30 1946 C 204.079 0.382881 1.90388 0
M  V30 1947 O 203.354 -0.618368 1.84408 0
M  V30 1948 C 203.637 2.87466 2.16876 0
M  V30 1949 C 203.49 4.25041 1.47174 0
M  V30 1950 C 204.809 3.04613 3.17646 0
M  V30 1951 H 201.928 0.603515 0.423011 0
M  V30 1952 H 204.57 1.84494 0.454105 0
M  V30 1953 H 202.72 2.71689 2.777 0
M  V30 1954 H 204.392 4.52527 0.895376 0
M  V30 1955 H 202.635 4.26843 0.773806 0
M  V30 1956 H 203.306 5.06176 2.20204 0
M  V30 1957 H 205.782 3.1923 2.66892 0
M  V30 1958 H 204.658 3.91247 3.8499 0
M  V30 1959 H 204.919 2.17541 3.84874 0
M  V30 1960 N 203.978 -0.674533 1.42435 0
M  V30 1961 C 205.226 -1.43175 1.42637 0
M  V30 1962 C 205.547 -1.94951 0.0438992 0
M  V30 1963 O 204.817 -1.7308 -0.917607 0
M  V30 1964 H 203.397 -0.531307 0.525092 0
M  V30 1965 H 206.059 -0.797006 1.77859 0
M  V30 1966 H 205.155 -2.28463 2.12629 0
M  V30 1967 N 205.456 -1.28612 -0.910864 0
M  V30 1968 C 206.867 -1.14406 -1.47541 0
M  V30 1969 C 207.218 0.264901 -1.94403 0
M  V30 1970 O 206.343 1.15942 -1.82719 0
M  V30 1971 C 206.938 -2.07073 -2.68153 0
M  V30 1972 C 205.497 -1.96923 -3.20778 0
M  V30 1973 C 204.644 -1.98646 -1.93481 0
M  V30 1974 H 207.595 -1.41259 -0.723291 0
M  V30 1975 H 207.616 -1.63642 -3.43514 0
M  V30 1976 H 207.128 -3.09611 -2.34015 0
M  V30 1977 H 205.229 -0.97433 -3.59635 0
M  V30 1978 H 205.342 -2.84026 -3.85832 0
M  V30 1979 H 203.706 -1.43093 -2.10705 0
M  V30 1980 H 204.489 -3.02868 -1.61634 0
M  V30 1981 N 206.934 1.1197 -1.10907 0
M  V30 1982 C 207.867 2.16998 -0.706192 0
M  V30 1983 C 208.845 1.59903 0.294897 0
M  V30 1984 O 210.029 1.87513 0.192636 0
M  V30 1985 C 207.156 3.38673 -0.0427664 0
M  V30 1986 C 206.202 4.14414 -1.00811 0
M  V30 1987 S 207.035 4.72079 -2.52789 0
M  V30 1988 C 208.191 5.97083 -1.87731 0
M  V30 1989 H 208.424 2.50837 -1.59587 0
M  V30 1990 H 205.957 1.23508 -0.926555 0
M  V30 1991 H 207.915 4.09142 0.333668 0
M  V30 1992 H 206.576 3.03105 0.823788 0
M  V30 1993 H 205.769 5.016 -0.491259 0
M  V30 1994 H 205.371 3.49678 -1.3267 0
M  V30 1995 H 207.663 6.66599 -1.21044 0
M  V30 1996 H 208.606 6.53403 -2.72892 0
M  V30 1997 H 209.014 5.4837 -1.33979 0
M  V30 1998 N 208.412 0.89855 1.29475 0
M  V30 1999 C 209.342 0.39201 2.30186 0
M  V30 2000 C 210.323 -0.532359 1.61555 0
M  V30 2001 O 211.508 -0.443331 1.89072 0
M  V30 2002 C 208.638 -0.382353 3.45189 0
M  V30 2003 C 207.592 0.451483 4.25612 0
M  V30 2004 C 206.918 -0.450307 5.328 0
M  V30 2005 C 208.218 1.70079 4.93832 0
M  V30 2006 H 209.912 1.23362 2.72804 0
M  V30 2007 H 207.458 0.594638 1.31149 0
M  V30 2008 H 209.411 -0.747451 4.14718 0
M  V30 2009 H 208.135 -1.25774 3.01411 0
M  V30 2010 H 206.794 0.798897 3.57789 0
M  V30 2011 H 206.442 -1.32379 4.85268 0
M  V30 2012 H 206.142 0.103902 5.87508 0
M  V30 2013 H 207.666 -0.811623 6.05182 0
M  V30 2014 H 209.08 1.40549 5.55805 0
M  V30 2015 H 207.477 2.19623 5.58467 0
M  V30 2016 H 208.547 2.43744 4.19186 0
M  V30 2017 N 209.89 -1.43072 0.660911 0
M  V30 2018 C 211.139 -2.00942 0.174735 0
M  V30 2019 C 211.452 -1.52797 -1.22117 0
M  V30 2020 O 212.658 -2.02991 -1.80297 0
M  V30 2021 C 211.114 -3.58948 0.261559 0
M  V30 2022 C 210.722 -4.16085 1.66064 0
M  V30 2023 C 212.466 -4.24173 -0.166617 0
M  V30 2024 C 210.373 -5.6641 1.70098 0
M  V30 2025 H 209.303 -0.751483 0.0615631 0
M  V30 2026 H 211.954 -1.63955 0.824069 0
M  V30 2027 H 210.336 -3.93372 -0.455421 0
M  V30 2028 H 211.51 -3.93147 2.40359 0
M  V30 2029 H 209.825 -3.6326 2.03546 0
M  V30 2030 H 212.422 -5.34471 -0.156433 0
M  V30 2031 H 212.765 -3.98647 -1.19943 0
M  V30 2032 H 213.298 -3.94659 0.498875 0
M  V30 2033 H 210.037 -5.96715 2.71315 0
M  V30 2034 H 209.557 -5.91382 1.00139 0
M  V30 2035 H 211.236 -6.30585 1.44816 0
M  V30 2036 N 211.368 -0.403325 -1.52352 0
M  V30 2037 C 212.278 0.432009 -2.30588 0
M  V30 2038 C 213.294 1.05884 -1.38075 0
M  V30 2039 O 214.47 1.06161 -1.71148 0
M  V30 2040 C 211.535 1.53669 -3.10784 0
M  V30 2041 C 210.596 0.933525 -4.19027 0
M  V30 2042 C 209.829 1.98557 -4.9539 0
M  V30 2043 O 210.052 3.20283 -4.71991 0
M  V30 2044 O 208.986 1.59504 -5.80381 0
M  V30 2045 H 212.812 -0.205739 -3.03002 0
M  V30 2046 H 210.397 -0.166675 -1.48467 0
M  V30 2047 H 212.279 2.17814 -3.60742 0
M  V30 2048 H 210.954 2.15915 -2.41169 0
M  V30 2049 H 209.861 0.254954 -3.7323 0
M  V30 2050 H 211.194 0.35508 -4.90918 0
M  V30 2051 N 212.846 1.57033 -0.133567 0
M  V30 2052 C 214.093 1.95686 0.520877 0
M  V30 2053 C 214.421 1.0177 1.6575 0
M  V30 2054 O 213.676 0.0443195 1.9565 0
M  V30 2055 C 213.975 3.40674 1.08057 0
M  V30 2056 C 213.641 4.50855 0.0637899 0
M  V30 2057 C 212.303 4.80716 -0.215757 0
M  V30 2058 C 214.655 5.17398 -0.62835 0
M  V30 2059 C 211.983 5.74433 -1.19348 0
M  V30 2060 C 214.335 6.12167 -1.5948 0
M  V30 2061 C 212.999 6.40414 -1.88218 0
M  V30 2062 H 212.269 0.716067 0.190602 0
M  V30 2063 H 214.916 1.9026 -0.217556 0
M  V30 2064 H 213.221 3.42865 1.89606 0
M  V30 2065 H 214.918 3.67902 1.59529 0
M  V30 2066 H 211.508 4.27605 0.291855 0
M  V30 2067 H 215.692 4.94472 -0.425562 0
M  V30 2068 H 210.948 5.94616 -1.42272 0
M  V30 2069 H 215.122 6.6281 -2.13671 0
M  V30 2070 H 212.749 7.12838 -2.64133 0
M  V30 2071 N 214.325 -0.140222 1.56975 0
M  V30 2072 C 215.273 -1.19207 1.99731 0
M  V30 2073 C 216.267 -1.44089 0.890777 0
M  V30 2074 O 217.473 -1.44301 1.07597 0
M  V30 2075 H 213.848 -0.40142 0.635898 0
M  V30 2076 H 215.819 -0.804813 2.87342 0
M  V30 2077 C 214.568 -2.51617 2.39967 0
M  V30 2078 H 213.891 -2.33303 3.24669 0
M  V30 2079 H 215.331 -3.23827 2.73701 0
M  V30 2080 C 213.79 -3.12654 1.25496 0
M  V30 2081 O 214.32 -3.97786 0.559371 0
M  V30 2082 N 212.526 -2.72206 1.01746 0
M  V30 2083 H 212.073 -2.03074 1.58489 0
M  V30 2084 H 212.031 -3.13377 0.253461 0
M  V30 2085 N 215.803 -1.52179 -0.40978 0
M  V30 2086 C 216.736 -1.70196 -1.52015 0
M  V30 2087 C 217.714 -0.549542 -1.53032 0
M  V30 2088 O 218.898 -0.776815 -1.71749 0
M  V30 2089 C 216.025 -1.74069 -2.90547 0
M  V30 2090 C 215.071 -2.95601 -3.07445 0
M  V30 2091 S 215.904 -4.55956 -2.80827 0
M  V30 2092 C 217.06 -4.62614 -4.21591 0
M  V30 2093 H 217.293 -2.64109 -1.36504 0
M  V30 2094 H 214.826 -1.4221 -0.601312 0
M  V30 2095 H 216.784 -1.76985 -3.70387 0
M  V30 2096 H 215.445 -0.812835 -3.034 0
M  V30 2097 H 214.638 -2.94791 -4.08796 0
M  V30 2098 H 214.24 -2.90569 -2.35469 0
M  V30 2099 H 216.532 -4.39951 -5.15218 0
M  V30 2100 H 217.475 -5.64548 -4.27424 0
M  V30 2101 H 217.883 -3.91654 -4.06531 0
M  V30 2102 N 217.281 0.66697 -1.42791 0
M  V30 2103 C 218.692 1.2478 -1.38877 0
M  V30 2104 C 219.043 1.96012 -0.0859426 0
M  V30 2105 O 218.168 2.00463 0.815081 0
M  V30 2106 C 218.763 2.26938 -2.51564 0
M  V30 2107 C 217.322 2.80529 -2.50959 0
M  V30 2108 C 216.469 1.54965 -2.29959 0
M  V30 2109 H 219.42 0.459853 -1.51892 0
M  V30 2110 H 219.441 3.08834 -2.22265 0
M  V30 2111 H 218.953 1.75065 -3.46372 0
M  V30 2112 H 217.054 3.36502 -1.59991 0
M  V30 2113 H 217.167 3.29012 -3.48265 0
M  V30 2114 H 215.531 1.81817 -1.78366 0
M  V30 2115 H 216.314 1.05047 -3.26833 0
M  V30 2116 N 218.759 1.29093 0.90403 0
M  V30 2117 C 220.005 1.16986 1.65656 0
M  V30 2118 C 220.338 -0.278925 1.92186 0
M  V30 2119 O 219.613 -1.2019 1.5292 0
M  V30 2120 C 219.896 1.97908 3.0084 0
M  V30 2121 C 219.749 3.50903 2.81403 0
M  V30 2122 C 221.068 1.80208 4.01513 0
M  V30 2123 H 218.187 0.426346 0.601164 0
M  V30 2124 H 220.829 1.58518 1.04747 0
M  V30 2125 H 218.979 1.62616 3.52829 0
M  V30 2126 H 220.651 3.96153 2.36348 0
M  V30 2127 H 218.894 3.76045 2.1627 0
M  V30 2128 H 219.565 4.02791 3.77443 0
M  V30 2129 H 222.041 2.11025 3.58619 0
M  V30 2130 H 220.917 2.39184 4.94047 0
M  V30 2131 H 221.178 0.756119 4.35586 0
M  V30 2132 N 220.237 -1.11381 1.11499 0
M  V30 2133 C 221.514 -1.7955 0.775965 0
M  V30 2134 C 221.894 -1.97859 -0.73588 0
M  V30 2135 O 221.242 -1.56376 -1.66609 0
M  V30 2136 C 221.452 -3.13196 1.53977 0
M  V30 2137 C 222.8 -3.88227 1.71944 0
M  V30 2138 O 223.824 -3.22887 1.50407 0
M  V30 2139 O 222.683 -5.05477 2.07738 0
M  V30 2140 H 219.777 -0.777728 0.28119 0
M  V30 2141 H 222.323 -1.18118 1.21845 0
M  V30 2142 H 221.095 -2.95229 2.56818 0
M  V30 2143 H 220.718 -3.82342 1.09088 0
M  V30 2144 N 221.715 -0.905404 -1.28997 0
M  V30 2145 C 222.645 -0.404212 -2.29975 0
M  V30 2146 C 223.626 0.523784 -1.61835 0
M  V30 2147 O 224.811 0.433298 -1.89304 0
M  V30 2148 C 221.941 0.364042 -3.45387 0
M  V30 2149 C 220.895 -0.474048 -4.25367 0
M  V30 2150 C 220.221 0.422045 -5.33032 0
M  V30 2151 C 221.521 -1.72696 -4.92923 0
M  V30 2152 H 223.215 -1.24807 -2.72146 0
M  V30 2153 H 220.761 -0.601585 -1.30832 0
M  V30 2154 H 222.714 0.725447 -4.15109 0
M  V30 2155 H 221.438 1.24174 -3.02074 0
M  V30 2156 H 220.097 -0.81786 -3.57361 0
M  V30 2157 H 219.745 1.29804 -4.85963 0
M  V30 2158 H 219.445 -0.135057 -5.87445 0
M  V30 2159 H 220.969 0.779517 -6.05604 0
M  V30 2160 H 222.383 -1.43495 -5.55051 0
M  V30 2161 H 220.78 -2.22582 -5.57295 0
M  V30 2162 H 221.85 -2.45964 -4.17887 0
M  V30 2163 N 223.193 1.4272 -0.668489 0
M  V30 2164 C 224.103 2.34596 0.0139753 0
M  V30 2165 C 225.119 1.5474 0.795703 0
M  V30 2166 O 226.295 1.87334 0.739466 0
M  V30 2167 C 223.36 3.33202 0.957982 0
M  V30 2168 C 222.421 4.28957 0.17149 0
M  V30 2169 C 221.654 5.22853 1.07053 0
M  V30 2170 O 221.877 5.21531 2.31001 0
M  V30 2171 O 220.811 5.9952 0.534727 0
M  V30 2172 H 224.637 2.9448 -0.742661 0
M  V30 2173 H 222.222 1.43117 -0.428705 0
M  V30 2174 H 224.104 3.93796 1.50008 0
M  V30 2175 H 222.779 2.758 1.69458 0
M  V30 2176 H 221.686 3.71796 -0.414558 0
M  V30 2177 H 223.019 4.89383 -0.52586 0
M  V30 2178 N 224.671 0.411399 1.52136 0
M  V30 2179 C 225.601 -0.404015 2.29978 0
M  V30 2180 C 226.582 -1.04412 1.34284 0
M  V30 2181 O 227.767 -1.0527 1.63192 0
M  V30 2182 C 224.897 -1.5197 3.12286 0
M  V30 2183 C 223.851 -1.00448 4.16046 0
M  V30 2184 C 223.177 -2.21393 4.86712 0
M  V30 2185 C 224.477 -0.0569336 5.22269 0
M  V30 2186 H 226.171 0.245529 2.98392 0
M  V30 2187 H 223.717 0.119525 1.43503 0
M  V30 2188 H 225.67 -2.09715 3.6551 0
M  V30 2189 H 224.394 -2.19716 2.41646 0
M  V30 2190 H 223.053 -0.449421 3.63835 0
M  V30 2191 H 222.701 -2.87699 4.12599 0
M  V30 2192 H 222.401 -1.87571 5.56858 0
M  V30 2193 H 223.925 -2.7974 5.4275 0
M  V30 2194 H 225.339 -0.54325 5.7072 0
M  V30 2195 H 223.736 0.192594 5.99791 0
M  V30 2196 H 224.806 0.887663 4.76706 0
M  V30 2197 N 226.149 -1.5696 0.141893 0
M  V30 2198 C 227.395 -1.9625 -0.511248 0
M  V30 2199 C 227.728 -1.02654 -1.64851 0
M  V30 2200 O 227.003 -0.0679676 -1.94381 0
M  V30 2201 C 227.286 -3.45285 -1.02227 0
M  V30 2202 C 227.139 -4.49658 0.113138 0
M  V30 2203 C 228.458 -3.96698 -1.90574 0
M  V30 2204 H 225.577 -0.713567 -0.184367 0
M  V30 2205 H 228.219 -1.88698 0.222087 0
M  V30 2206 H 226.369 -3.51852 -1.64719 0
M  V30 2207 H 228.041 -4.55174 0.749302 0
M  V30 2208 H 226.284 -4.26857 0.773026 0
M  V30 2209 H 226.955 -5.51258 -0.286053 0
M  V30 2210 H 229.431 -3.92578 -1.37918 0
M  V30 2211 H 228.307 -5.01453 -2.2324 0
M  V30 2212 H 228.568 -3.3875 -2.84079 0
M  V30 2213 N 227.627 0.131896 -1.57047 0
M  V30 2214 C 228.59 1.14638 -1.98471 0
M  V30 2215 C 229.59 1.35029 -0.873148 0
M  V30 2216 O 230.78 1.31764 -1.13946 0
M  V30 2217 C 227.912 2.50358 -2.31373 0
M  V30 2218 H 229.105 0.79064 -2.8929 0
M  V30 2219 H 226.658 0.375761 -1.51716 0
M  V30 2220 H 227.393 2.90876 -1.43393 0
M  V30 2221 H 227.178 2.36915 -3.12432 0
M  V30 2222 H 228.668 3.23395 -2.64207 0
M  V30 2223 N 229.106 1.52395 0.401703 0
M  V30 2224 C 230.053 1.76268 1.48991 0
M  V30 2225 C 231.023 0.605386 1.54675 0
M  V30 2226 O 232.208 0.843742 1.7113 0
M  V30 2227 C 229.348 1.92592 2.86361 0
M  V30 2228 C 228.461 3.20259 2.89928 0
M  V30 2229 C 227.596 3.26972 4.18644 0
M  V30 2230 C 226.635 4.48812 4.16214 0
M  V30 2231 N 225.772 4.52877 5.36514 0
M  V30 2232 H 230.612 2.6914 1.27935 0
M  V30 2233 H 228.149 1.33355 0.620871 0
M  V30 2234 H 230.107 2.0004 3.66115 0
M  V30 2235 H 228.737 1.03093 3.05895 0
M  V30 2236 H 227.789 3.21945 2.02621 0
M  V30 2237 H 229.101 4.10056 2.83999 0
M  V30 2238 H 228.255 3.33533 5.06794 0
M  V30 2239 H 226.994 2.35126 4.27278 0
M  V30 2240 H 225.999 4.4239 3.26453 0
M  V30 2241 H 227.224 5.41961 4.09213 0
M  V30 2242 H 225.17 3.63917 5.45802 0
M  V30 2243 H 225.087 5.36529 5.32609 0
M  V30 2244 H 226.355 4.63676 6.26597 0
M  V30 2245 N 230.584 -0.659388 1.43143 0
M  V30 2246 C 231.516 -1.7849 1.43784 0
M  V30 2247 C 232.529 -1.5932 0.334787 0
M  V30 2248 O 233.718 -1.68155 0.598842 0
M  V30 2249 C 230.818 -3.15828 1.22906 0
M  V30 2250 C 229.991 -3.61711 2.45934 0
M  V30 2251 C 229.05 -4.77831 2.20371 0
M  V30 2252 O 228.076 -4.87586 2.93681 0
M  V30 2253 N 229.278 -5.67611 1.21647 0
M  V30 2254 H 232.043 -1.7842 2.40803 0
M  V30 2255 H 229.604 -0.84302 1.3822 0
M  V30 2256 H 231.596 -3.91189 1.03697 0
M  V30 2257 H 230.166 -3.10707 0.343542 0
M  V30 2258 H 229.386 -2.76861 2.80609 0
M  V30 2259 H 230.674 -3.89112 3.27825 0
M  V30 2260 H 230.072 -5.62397 0.610449 0
M  V30 2261 H 228.629 -6.42719 1.08423 0
M  V30 2262 N 232.062 -1.29571 -0.897171 0
M  V30 2263 C 233.01 -1.14802 -2.02295 0
M  V30 2264 C 234.004 -0.0629637 -1.69283 0
M  V30 2265 O 235.21 -0.222945 -1.78614 0
M  V30 2266 H 231.585 -0.354692 -0.663097 0
M  V30 2267 H 233.556 -2.10108 -2.11889 0
M  V30 2268 C 232.305 -0.843966 -3.37302 0
M  V30 2269 H 231.628 -1.67093 -3.63208 0
M  V30 2270 H 233.068 -0.780672 -4.16751 0
M  V30 2271 C 231.527 0.452843 -3.33843 0
M  V30 2272 O 232.057 1.47813 -3.73516 0
M  V30 2273 N 230.263 0.459601 -2.86943 0
M  V30 2274 H 229.81 -0.375213 -2.54853 0
M  V30 2275 H 229.768 1.32726 -2.85011 0
M  V30 2276 N 233.54 1.10788 -1.12088 0
M  V30 2277 C 234.951 1.64181 -0.88891 0
M  V30 2278 C 235.302 1.87508 0.577498 0
M  V30 2279 O 234.427 1.61434 1.44112 0
M  V30 2280 C 235.022 2.98257 -1.60712 0
M  V30 2281 C 233.581 3.4853 -1.42139 0
M  V30 2282 C 232.728 2.23208 -1.6454 0
M  V30 2283 H 235.679 0.943368 -1.27618 0
M  V30 2284 H 235.7 3.65552 -1.05604 0
M  V30 2285 H 235.212 2.81246 -2.67436 0
M  V30 2286 H 233.313 3.70692 -0.376552 0
M  V30 2287 H 233.426 4.26882 -2.17505 0
M  V30 2288 H 231.79 2.31169 -1.06925 0
M  V30 2289 H 232.573 2.08733 -2.72554 0
M  V30 2290 N 235.018 0.912232 1.28515 0
M  V30 2291 C 235.966 0.389597 2.29314 0
M  V30 2292 C 236.96 -0.517915 1.61289 0
M  V30 2293 O 238.166 -0.399328 1.75515 0
M  V30 2294 H 234.541 0.107386 0.744293 0
M  V30 2295 H 236.512 1.25286 2.70825 0
M  V30 2296 C 235.261 -0.356496 3.45868 0
M  V30 2297 H 234.584 0.332608 3.98414 0
M  V30 2298 H 236.024 -0.686851 4.184 0
M  V30 2299 C 234.483 -1.56383 2.98406 0
M  V30 2300 O 235.013 -2.66294 3.00749 0
M  V30 2301 N 233.219 -1.41029 2.54085 0
M  V30 2302 H 232.766 -0.516089 2.52377 0
M  V30 2303 H 232.724 -2.21939 2.22689 0
M  V30 2304 N 236.496 -1.42363 0.676048 0
M  V30 2305 C 237.742 -2.0182 0.199125 0
M  V30 2306 C 238.075 -1.53339 -1.19168 0
M  V30 2307 O 237.35 -0.736124 -1.80032 0
M  V30 2308 C 237.633 -3.59331 0.235144 0
M  V30 2309 C 237.486 -4.17989 1.66149 0
M  V30 2310 C 238.805 -4.3813 -0.41595 0
M  V30 2311 H 235.924 -0.733293 0.0738311 0
M  V30 2312 H 238.566 -1.69368 0.86107 0
M  V30 2313 H 236.716 -3.87109 -0.328487 0
M  V30 2314 H 238.388 -4.0116 2.27747 0
M  V30 2315 H 236.631 -3.7377 2.20178 0
M  V30 2316 H 237.302 -5.27126 1.63837 0
M  V30 2317 H 239.778 -4.16051 0.0638529 0
M  V30 2318 H 238.654 -5.47717 -0.360115 0
M  V30 2319 H 238.915 -4.16101 -1.49373 0
M  V30 2320 N 237.974 -0.419461 -1.51915 0
M  V30 2321 C 238.921 0.400927 -2.27291 0
M  V30 2322 C 239.891 1.03224 -1.30131 0
M  V30 2323 O 241.076 1.05455 -1.59009 0
M  V30 2324 C 238.216 1.50603 -3.10504 0
M  V30 2325 C 237.329 0.89462 -4.22635 0
M  V30 2326 C 236.464 1.97328 -4.93189 0
M  V30 2327 C 235.503 1.33935 -5.97267 0
M  V30 2328 N 234.64 2.3586 -6.61298 0
M  V30 2329 H 239.48 -0.248251 -2.96964 0
M  V30 2330 H 237.017 -0.134266 -1.46486 0
M  V30 2331 H 238.975 2.15783 -3.57062 0
M  V30 2332 H 237.605 2.12509 -2.42981 0
M  V30 2333 H 236.657 0.131583 -3.80172 0
M  V30 2334 H 237.969 0.391641 -4.9726 0
M  V30 2335 H 237.123 2.70211 -5.43204 0
M  V30 2336 H 235.862 2.50994 -4.18155 0
M  V30 2337 H 234.867 0.595896 -5.46561 0
M  V30 2338 H 236.092 0.810252 -6.74249 0
M  V30 2339 H 234.038 2.88639 -5.89087 0
M  V30 2340 H 233.955 1.90403 -7.3163 0
M  V30 2341 H 235.223 3.08282 -7.15949 0
M  V30 2342 N 239.452 1.56882 -0.150215 0
M  V30 2343 C 240.385 2.12712 0.826358 0
M  V30 2344 C 241.363 1.05154 1.24022 0
M  V30 2345 O 242.547 1.33004 1.33575 0
M  V30 2346 C 239.674 2.64945 2.11002 0
M  V30 2347 C 238.72 3.8468 1.84183 0
M  V30 2348 S 239.553 5.25502 1.02995 0
M  V30 2349 C 240.709 5.81125 2.32474 0
M  V30 2350 H 240.942 2.95214 0.351598 0
M  V30 2351 H 238.475 1.54267 0.0641211 0
M  V30 2352 H 240.433 2.95689 2.84742 0
M  V30 2353 H 239.094 1.82568 2.55593 0
M  V30 2354 H 238.287 4.19482 2.79375 0
M  V30 2355 H 237.889 3.54714 1.1855 0
M  V30 2356 H 240.181 5.92753 3.281 0
M  V30 2357 H 241.124 6.78625 2.02171 0
M  V30 2358 H 241.532 5.09392 2.43269 0
M  V30 2359 N 240.93 -0.123565 1.57115 0
M  V30 2360 C 242.178 -0.83051 1.84247 0
M  V30 2361 C 242.499 -1.80629 0.73471 0
M  V30 2362 O 241.769 -1.94403 -0.241688 0
M  V30 2363 H 240.349 -0.309694 0.679778 0
M  V30 2364 H 243.011 -0.111976 1.94578 0
M  V30 2365 H 242.107 -1.37852 2.80006 0
M  V30 2366 N 242.408 -1.52605 -0.393616 0
M  V30 2367 C 243.656 -1.67093 -1.13685 0
M  V30 2368 C 243.977 -0.411011 -1.90619 0
M  V30 2369 O 243.247 0.574491 -1.87287 0
M  V30 2370 H 241.827 -0.615923 -0.422668 0
M  V30 2371 H 244.489 -1.89704 -0.447039 0
M  V30 2372 H 243.585 -2.51922 -1.84232 0
M  V30 2373 N 243.887 0.651787 -1.4349 0
M  V30 2374 C 245.303 0.96762 -1.26922 0
M  V30 2375 C 245.503 2.00602 -0.189982 0
M  V30 2376 O 244.559 2.48793 0.431107 0
M  V30 2377 C 245.872 1.45052 -2.63401 0
M  V30 2378 C 247.42 1.5671 -2.70945 0
M  V30 2379 C 247.895 2.0839 -4.07845 0
M  V30 2380 N 249.386 2.1569 -4.09917 0
M  V30 2381 C 250.121 2.56804 -5.12679 0
M  V30 2382 N 249.617 2.97203 -6.25813 0
M  V30 2383 N 251.41 2.56756 -5.00033 0
M  V30 2384 H 243.561 -0.0353158 -2.12371 0
M  V30 2385 H 245.824 0.0467858 -0.946845 0
M  V30 2386 H 245.53 0.761926 -3.43348 0
M  V30 2387 H 245.404 2.42529 -2.88894 0
M  V30 2388 H 247.791 2.2467 -1.9133 0
M  V30 2389 H 247.872 0.57662 -2.49216 0
M  V30 2390 H 247.516 1.41031 -4.87927 0
M  V30 2391 H 247.446 3.08271 -4.26938 0
M  V30 2392 H 249.937 1.87237 -3.28254 0
M  V30 2393 H 250.25 3.27328 -7.00055 0
M  V30 2394 H 248.595 2.95004 -6.29283 0
M  V30 2395 H 251.786 2.24572 -4.10713 0
M  V30 2396 H 251.959 2.88475 -5.80247 0
M  V30 2397 N 245.365 1.30045 0.890287 0
M  V30 2398 C 246.595 1.21296 1.67245 0
M  V30 2399 C 247.003 -0.227471 1.87828 0
M  V30 2400 O 246.346 -1.16296 1.422 0
M  V30 2401 C 246.408 1.86519 3.07329 0
M  V30 2402 C 246.072 3.35837 3.09939 0
M  V30 2403 C 247.069 4.31915 2.89389 0
M  V30 2404 C 244.754 3.77196 3.31706 0
M  V30 2405 C 246.748 5.67325 2.90552 0
M  V30 2406 C 244.435 5.12725 3.32499 0
M  V30 2407 C 245.433 6.076 3.11947 0
M  V30 2408 O 245.121 7.40655 3.12547 0
M  V30 2409 H 244.853 0.4211 0.528821 0
M  V30 2410 H 247.407 1.72111 1.12103 0
M  V30 2411 H 245.637 1.30228 3.64112 0
M  V30 2412 H 247.326 1.71963 3.67673 0
M  V30 2413 H 248.092 4.01294 2.72375 0
M  V30 2414 H 243.971 3.03796 3.4674 0
M  V30 2415 H 247.515 6.41354 2.74429 0
M  V30 2416 H 243.412 5.42988 3.49047 0
M  V30 2417 H 244.18 7.49577 3.28749 0
M  V30 2418 N 246.843 -1.10192 1.12674 0
M  V30 2419 C 247.806 -2.14786 0.799979 0
M  V30 2420 C 248.806 -1.59711 -0.18685 0
M  V30 2421 O 249.996 -1.74156 0.0392558 0
M  V30 2422 C 247.128 -3.40374 0.189228 0
M  V30 2423 H 248.321 -2.45203 1.72671 0
M  V30 2424 H 245.874 -1.25597 0.930326 0
M  V30 2425 H 246.609 -3.15577 -0.747107 0
M  V30 2426 H 246.394 -3.81637 0.899766 0
M  V30 2427 H 247.884 -4.17594 -0.0228143 0
M  V30 2428 N 248.321 -0.919034 -1.28029 0
M  V30 2429 C 249.732 -0.600735 -1.76771 0
M  V30 2430 C 250.083 0.884024 -1.75156 0
M  V30 2431 O 249.208 1.69163 -1.34956 0
M  V30 2432 C 249.803 -1.08372 -3.21 0
M  V30 2433 C 248.362 -0.816248 -3.67443 0
M  V30 2434 C 247.509 -1.24742 -2.47658 0
M  V30 2435 H 250.46 -1.09974 -1.14418 0
M  V30 2436 H 250.481 -0.427512 -3.78091 0
M  V30 2437 H 249.993 -2.16437 -3.22144 0
M  V30 2438 H 248.094 0.250968 -3.71754 0
M  V30 2439 H 248.207 -1.4277 -4.57333 0
M  V30 2440 H 246.571 -0.666083 -2.45836 0
M  V30 2441 H 247.354 -2.33653 -2.51518 0
M  V30 2442 N 249.799 1.42003 -0.683588 0
M  V30 2443 C 251.215 1.55625 -0.353976 0
M  V30 2444 C 251.415 1.66151 1.14 0
M  V30 2445 O 250.471 1.63329 1.92561 0
M  V30 2446 C 251.784 2.80171 -1.092 0
M  V30 2447 C 253.332 2.93954 -1.07518 0
M  V30 2448 C 253.807 4.21372 -1.79471 0
M  V30 2449 N 255.298 4.28303 -1.76381 0
M  V30 2450 C 256.033 5.25729 -2.28904 0
M  V30 2451 N 255.529 6.29254 -2.89846 0
M  V30 2452 N 257.322 5.17586 -2.19228 0
M  V30 2453 H 249.473 1.33415 -1.6527 0
M  V30 2454 H 251.736 0.64282 -0.696769 0
M  V30 2455 H 251.442 2.78561 -2.14701 0
M  V30 2456 H 251.316 3.7133 -0.662862 0
M  V30 2457 H 253.703 2.95086 -0.028475 0
M  V30 2458 H 253.784 2.04002 -1.54328 0
M  V30 2459 H 253.428 4.21001 -2.84114 0
M  V30 2460 H 253.358 5.10275 -1.30104 0
M  V30 2461 H 255.849 3.54119 -1.31939 0
M  V30 2462 H 256.162 6.99964 -3.27522 0
M  V30 2463 H 254.507 6.29791 -2.93919 0
M  V30 2464 H 257.698 4.35631 -1.71299 0
M  V30 2465 H 257.871 5.93348 -2.60466 0
M  V30 2466 N 251.277 0.427512 1.51691 0
M  V30 2467 C 252.554 -0.201684 1.94557 0
M  V30 2468 C 252.934 -1.60981 1.36559 0
M  V30 2469 O 252.282 -2.21814 0.548702 0
M  V30 2470 C 252.492 -0.189394 3.48486 0
M  V30 2471 C 253.84 -0.39978 4.22714 0
M  V30 2472 O 254.864 -0.267945 3.55191 0
M  V30 2473 O 253.723 -0.661249 5.42485 0
M  V30 2474 H 250.817 -0.135261 0.815864 0
M  V30 2475 H 253.363 0.484782 1.62628 0
M  V30 2476 H 252.135 0.795431 3.8313 0
M  V30 2477 H 251.758 -0.919187 3.86829 0
M  V30 2478 N 252.755 -1.56801 0.158532 0
M  V30 2479 C 253.995 -1.98383 -0.49229 0
M  V30 2480 C 254.359 -1.04184 -1.61275 0
M  V30 2481 O 255.56 -1.34856 -2.32524 0
M  V30 2482 C 253.831 -3.4385 -0.974766 0
M  V30 2483 S 255.39 -4.07459 -1.62857 0
M  V30 2484 H 252.208 -0.693041 -0.158794 0
M  V30 2485 H 254.81 -1.93856 0.252974 0
M  V30 2486 H 253.514 -4.10131 -0.148688 0
M  V30 2487 H 253.045 -3.52115 -1.75438 0
M  V30 2488 H 255.06 -4.01458 -2.91627 0
M  V30 2489 N 254.233 0.115231 -1.57178 0
M  V30 2490 C 255.479 0.82357 -1.85325 0
M  V30 2491 C 255.812 1.79349 -0.744814 0
M  V30 2492 O 255.087 1.92899 0.249024 0
M  V30 2493 C 255.37 1.57014 -3.24066 0
M  V30 2494 C 255.223 0.619565 -4.45513 0
M  V30 2495 C 256.542 2.52545 -3.60429 0
M  V30 2496 H 253.661 0.297948 -0.674089 0
M  V30 2497 H 256.303 0.0877138 -1.89797 0
M  V30 2498 H 254.453 2.19742 -3.20383 0
M  V30 2499 H 256.125 0.000837639 -4.613 0
M  V30 2500 H 254.368 -0.0686174 -4.33746 0
M  V30 2501 H 255.039 1.17866 -5.3927 0
M  V30 2502 H 257.515 1.9992 -3.64926 0
M  V30 2503 H 256.391 3.01811 -4.58477 0
M  V30 2504 H 256.652 3.35383 -2.88047 0
M  V30 2505 N 255.711 1.52812 0.385517 0
M  V30 2506 C 256.936 1.72207 1.15583 0
M  V30 2507 C 257.361 0.441034 1.82857 0
M  V30 2508 O 256.719 -0.603465 1.70962 0
M  V30 2509 C 256.767 2.87476 2.17692 0
M  V30 2510 O 255.871 2.54693 3.24354 0
M  V30 2511 H 255.212 0.572526 0.336319 0
M  V30 2512 H 257.742 1.99618 0.448744 0
M  V30 2513 H 257.752 3.13072 2.6163 0
M  V30 2514 H 256.427 3.80408 1.68115 0
M  V30 2515 H 255.004 2.3985 2.85529 0
M  V30 2516 N 257.189 -0.644168 1.43834 0
M  V30 2517 C 258.6 -1.22554 1.40845 0
M  V30 2518 C 258.951 -1.9585 0.117115 0
M  V30 2519 O 258.076 -2.01734 -0.783086 0
M  V30 2520 C 258.671 -2.22907 2.55143 0
M  V30 2521 C 257.23 -2.76501 2.5539 0
M  V30 2522 C 256.377 -1.51287 2.32396 0
M  V30 2523 H 259.328 -0.43563 1.52604 0
M  V30 2524 H 259.349 -3.05259 2.2715 0
M  V30 2525 H 258.861 -1.69533 3.49114 0
M  V30 2526 H 256.962 -3.33914 1.65324 0
M  V30 2527 H 257.075 -3.23429 3.53455 0
M  V30 2528 H 255.439 -1.78957 1.81236 0
M  V30 2529 H 256.222 -0.998336 3.28463 0
M  V30 2530 N 258.668 -1.30515 -0.883378 0
M  V30 2531 C 259.618 -1.13641 -1.9766 0
M  V30 2532 C 260.602 -0.0511314 -1.60819 0
M  V30 2533 O 261.794 -0.274623 -1.74857 0
M  V30 2534 C 258.923 -0.831976 -3.33066 0
M  V30 2535 C 258.009 -1.95759 -3.76217 0
M  V30 2536 N 258.4 -3.20313 -3.9145 0
M  V30 2537 C 256.698 -1.85431 -4.05625 0
M  V30 2538 C 257.399 -3.93856 -4.2808 0
M  V30 2539 N 256.375 -3.21919 -4.38029 0
M  V30 2540 H 260.177 -2.08106 -2.07531 0
M  V30 2541 H 257.691 -1.21877 -1.0733 0
M  V30 2542 H 259.688 -0.692102 -4.11115 0
M  V30 2543 H 258.348 0.104588 -3.24532 0
M  V30 2544 H 259.359 -3.55583 -3.76538 0
M  V30 2545 H 256.036 -0.991531 -4.05555 0
M  V30 2546 H 257.426 -5.01125 -4.47575 0
M  V30 2547 N 260.146 1.09593 -1.13257 0
M  V30 2548 C 261.093 2.1618 -0.808381 0
M  V30 2549 C 262.063 1.64517 0.228754 0
M  V30 2550 O 263.248 1.9053 0.101381 0
M  V30 2551 C 260.388 3.43973 -0.278675 0
M  V30 2552 C 259.501 4.09545 -1.37466 0
M  V30 2553 C 258.636 5.25088 -0.803479 0
M  V30 2554 C 257.675 5.82579 -1.87799 0
M  V30 2555 N 256.812 6.89486 -1.32488 0
M  V30 2556 H 261.652 2.43254 -1.72138 0
M  V30 2557 H 259.189 1.19392 -0.859294 0
M  V30 2558 H 261.147 4.17174 0.0465583 0
M  V30 2559 H 259.777 3.17223 0.597459 0
M  V30 2560 H 258.829 3.34226 -1.81652 0
M  V30 2561 H 260.141 4.48307 -2.18684 0
M  V30 2562 H 259.295 6.05178 -0.429427 0
M  V30 2563 H 258.034 4.87684 0.0397956 0
M  V30 2564 H 257.039 5.01152 -2.26113 0
M  V30 2565 H 258.264 6.22045 -2.72463 0
M  V30 2566 H 256.21 6.54064 -0.503575 0
M  V30 2567 H 256.127 7.27007 -2.07355 0
M  V30 2568 H 257.395 7.73336 -0.978336 0
M  V30 2569 N 261.624 0.925811 1.2754 0
M  V30 2570 C 262.87 0.566092 1.94739 0
M  V30 2571 C 263.203 -0.890057 1.72603 0
M  V30 2572 O 262.478 -1.63467 1.05399 0
M  V30 2573 C 262.761 0.89054 3.48915 0
M  V30 2574 C 262.614 2.4003 3.80402 0
M  V30 2575 C 263.933 0.395101 4.38323 0
M  V30 2576 H 261.052 0.20714 0.707292 0
M  V30 2577 H 263.694 1.15725 1.50691 0
M  V30 2578 H 261.844 0.387452 3.86563 0
M  V30 2579 H 263.516 2.97494 3.52555 0
M  V30 2580 H 261.759 2.85028 3.2702 0
M  V30 2581 H 262.43 2.57785 4.8811 0
M  V30 2582 H 264.906 0.826241 4.07814 0
M  V30 2583 H 263.782 0.651086 5.45025 0
M  V30 2584 H 264.043 -0.704798 4.36446 0
M  V30 2585 N 263.102 -1.41638 0.69111 0
M  V30 2586 C 264.065 -2.29178 0.0319786 0
M  V30 2587 C 265.065 -1.44153 -0.712496 0
M  V30 2588 O 266.255 -1.65354 -0.548053 0
M  V30 2589 C 263.387 -3.26952 -0.965161 0
M  V30 2590 H 264.58 -2.88959 0.802681 0
M  V30 2591 H 262.133 -1.4955 0.454356 0
M  V30 2592 H 262.868 -2.72142 -1.76378 0
M  V30 2593 H 262.653 -3.89685 -0.434522 0
M  V30 2594 H 264.143 -3.92561 -1.42428 0
M  V30 2595 N 264.58 -0.43555 -1.51462 0
M  V30 2596 C 265.829 0.133007 -2.01261 0
M  V30 2597 C 266.142 1.43942 -1.32439 0
M  V30 2598 O 267.348 2.09081 -1.73198 0
M  V30 2599 C 265.804 0.287581 -3.58749 0
M  V30 2600 C 265.412 -1.00829 -4.36506 0
M  V30 2601 C 267.156 0.810004 -4.167 0
M  V30 2602 C 265.063 -0.819454 -5.85695 0
M  V30 2603 H 263.993 0.0534822 -0.752101 0
M  V30 2604 H 266.644 -0.565038 -1.74584 0
M  V30 2605 H 265.026 1.04859 -3.81865 0
M  V30 2606 H 266.2 -1.77749 -4.25138 0
M  V30 2607 H 264.515 -1.45911 -3.89999 0
M  V30 2608 H 267.112 0.967743 -5.2587 0
M  V30 2609 H 267.455 1.79196 -3.75758 0
M  V30 2610 H 267.988 0.107357 -3.97655 0
M  V30 2611 H 264.727 -1.77374 -6.31046 0
M  V30 2612 H 264.247 -0.0900208 -5.99732 0
M  V30 2613 H 265.926 -0.471949 -6.45276 0
M  V30 2614 N 266.058 1.56714 -0.166846 0
M  V30 2615 C 267.307 1.95922 0.479318 0
M  V30 2616 C 267.62 1.05529 1.6469 0
M  V30 2617 O 268.826 1.34399 2.35901 0
M  V30 2618 C 267.282 3.48359 0.90412 0
M  V30 2619 C 266.89 4.47369 -0.237621 0
M  V30 2620 C 268.634 3.96394 1.51896 0
M  V30 2621 C 266.541 5.91039 0.206561 0
M  V30 2622 H 265.471 0.731495 0.18284 0
M  V30 2623 H 268.122 1.81728 -0.254363 0
M  V30 2624 H 266.504 3.57955 1.69365 0
M  V30 2625 H 267.678 4.49485 -1.01489 0
M  V30 2626 H 265.993 4.09366 -0.762128 0
M  V30 2627 H 268.59 5.01186 1.86325 0
M  V30 2628 H 268.933 3.39075 2.41524 0
M  V30 2629 H 269.466 3.89796 0.79395 0
M  V30 2630 H 266.205 6.52221 -0.654834 0
M  V30 2631 H 265.725 5.9224 0.949282 0
M  V30 2632 H 267.404 6.43707 0.651939 0
M  V30 2633 N 267.536 -0.106894 1.57237 0
M  V30 2634 C 268.785 -0.811163 1.8467 0
M  V30 2635 C 269.098 -1.80469 0.754342 0
M  V30 2636 O 270.304 -2.55601 0.915439 0
M  V30 2637 C 268.76 -1.49337 3.27454 0
M  V30 2638 C 268.368 -0.540217 4.44731 0
M  V30 2639 C 270.112 -2.18206 3.64124 0
M  V30 2640 C 268.019 -1.22634 5.78545 0
M  V30 2641 H 266.949 -0.306679 0.688813 0
M  V30 2642 H 269.6 -0.0639887 1.83388 0
M  V30 2643 H 267.982 -2.2876 3.23241 0
M  V30 2644 H 269.156 0.221659 4.60267 0
M  V30 2645 H 267.471 0.042146 4.16379 0
M  V30 2646 H 270.068 -2.70253 4.61376 0
M  V30 2647 H 270.411 -2.96562 2.92158 0
M  V30 2648 H 270.944 -1.45658 3.70174 0
M  V30 2649 H 267.683 -0.483832 6.53712 0
M  V30 2650 H 267.203 -1.95993 5.66874 0
M  V30 2651 H 268.882 -1.75615 6.2271 0
M  V30 2652 N 269.014 -1.53014 -0.377408 0
M  V30 2653 C 270.425 -1.60438 -0.954798 0
M  V30 2654 C 270.776 -0.464418 -1.90624 0
M  V30 2655 O 269.901 0.41087 -2.12464 0
M  V30 2656 C 270.496 -2.90797 -1.73847 0
M  V30 2657 C 269.055 -3.00595 -2.26538 0
M  V30 2658 C 268.202 -2.55645 -1.07429 0
M  V30 2659 H 271.153 -1.57926 -0.156575 0
M  V30 2660 H 271.174 -2.77935 -2.5987 0
M  V30 2661 H 270.686 -3.73746 -1.04574 0
M  V30 2662 H 268.787 -2.22208 -2.99089 0
M  V30 2663 H 268.9 -4.05456 -2.5523 0
M  V30 2664 H 267.264 -2.10239 -1.43777 0
M  V30 2665 H 268.047 -3.41 -0.396728 0
M  V30 2666 N 270.492 0.636531 -1.44174 0
M  V30 2667 C 271.739 1.39619 -1.46672 0
M  V30 2668 C 272.067 1.94257 -0.0972691 0
M  V30 2669 O 271.322 1.73768 0.900175 0
M  V30 2670 C 271.621 2.58309 -2.47005 0
M  V30 2671 C 271.287 2.21992 -3.92467 0
M  V30 2672 C 269.949 2.118 -4.32081 0
M  V30 2673 C 272.301 1.9321 -4.84065 0
M  V30 2674 C 269.629 1.71007 -5.61225 0
M  V30 2675 C 271.981 1.53911 -6.13591 0
M  V30 2676 C 270.645 1.42257 -6.52165 0
M  V30 2677 H 269.915 0.510902 -0.536712 0
M  V30 2678 H 272.562 0.722328 -1.77355 0
M  V30 2679 H 270.867 3.30903 -2.09786 0
M  V30 2680 H 272.564 3.16533 -2.46186 0
M  V30 2681 H 269.154 2.30841 -3.61124 0
M  V30 2682 H 273.338 1.99997 -4.54219 0
M  V30 2683 H 268.594 1.60583 -5.89935 0
M  V30 2684 H 272.768 1.30677 -6.8403 0
M  V30 2685 H 270.395 1.10419 -7.52138 0
M  V30 2686 N 271.97 1.30982 0.876444 0
M  V30 2687 C 273.386 1.09498 1.16113 0
M  V30 2688 C 273.586 -0.13875 2.01022 0
M  V30 2689 O 272.642 -0.829935 2.38471 0
M  V30 2690 C 273.955 2.36308 1.85954 0
M  V30 2691 C 275.503 2.41856 1.98683 0
M  V30 2692 C 275.978 3.6853 2.71937 0
M  V30 2693 N 277.469 3.69387 2.79477 0
M  V30 2694 C 278.204 4.64096 3.36753 0
M  V30 2695 N 277.7 5.69155 3.95012 0
M  V30 2696 N 279.493 4.51626 3.3465 0
M  V30 2697 H 271.644 2.10118 0.310494 0
M  V30 2698 H 273.907 0.926634 0.200131 0
M  V30 2699 H 273.613 3.26388 1.31011 0
M  V30 2700 H 273.487 2.4561 2.86278 0
M  V30 2701 H 275.874 1.52249 2.52793 0
M  V30 2702 H 275.955 2.36523 0.9742 0
M  V30 2703 H 275.599 4.58499 2.18496 0
M  V30 2704 H 275.529 3.71127 3.73593 0
M  V30 2705 H 278.02 2.93438 2.38123 0
M  V30 2706 H 278.333 6.3751 4.36808 0
M  V30 2707 H 276.678 5.72937 3.93406 0
M  V30 2708 H 279.869 3.68728 2.8837 0
M  V30 2709 H 280.042 5.25614 3.7899 0
M  V30 2710 N 273.449 -1.08991 1.13837 0
M  V30 2711 C 274.397 -2.17841 0.815347 0
M  V30 2712 C 275.391 -1.68164 -0.204233 0
M  V30 2713 O 276.597 -1.79897 -0.0609304 0
M  V30 2714 H 272.972 -0.710654 0.245915 0
M  V30 2715 H 274.943 -2.42315 1.74143 0
M  V30 2716 C 273.692 -3.46381 0.302614 0
M  V30 2717 H 273.015 -3.84979 1.0785 0
M  V30 2718 H 274.455 -4.23844 0.115074 0
M  V30 2719 C 272.914 -3.22556 -0.972591 0
M  V30 2720 O 273.444 -3.45599 -2.04754 0
M  V30 2721 N 271.65 -2.76134 -0.905455 0
M  V30 2722 H 271.197 -2.57582 -0.0305421 0
M  V30 2723 H 271.155 -2.60571 -1.75926 0
M  V30 2724 N 274.927 -0.932562 -1.27047 0
M  V30 2725 C 276.343 -0.633544 -1.46487 0
M  V30 2726 C 276.543 0.815746 -1.84249 0
M  V30 2727 O 275.599 1.59319 -1.95892 0
M  V30 2728 C 276.912 -1.58758 -2.55375 0
M  V30 2729 C 278.46 -1.59634 -2.69232 0
M  V30 2730 C 278.935 -2.53747 -3.81283 0
M  V30 2731 N 280.426 -2.51982 -3.88664 0
M  V30 2732 C 281.161 -3.21491 -4.74796 0
M  V30 2733 N 280.657 -4.00395 -5.65381 0
M  V30 2734 N 282.45 -3.10485 -4.68568 0
M  V30 2735 H 274.601 -1.86946 -1.00821 0
M  V30 2736 H 276.864 -0.802897 -0.504044 0
M  V30 2737 H 276.57 -2.62172 -2.34432 0
M  V30 2738 H 276.444 -1.33301 -3.52861 0
M  V30 2739 H 278.831 -0.569488 -2.89553 0
M  V30 2740 H 278.912 -1.89142 -1.72218 0
M  V30 2741 H 278.556 -3.56545 -3.61715 0
M  V30 2742 H 278.486 -2.21532 -4.77735 0
M  V30 2743 H 280.977 -1.94681 -3.23895 0
M  V30 2744 H 281.29 -4.50406 -6.27976 0
M  V30 2745 H 279.635 -4.04498 -5.65161 0
M  V30 2746 H 282.826 -2.48331 -3.96799 0
M  V30 2747 H 282.999 -3.64925 -5.35475 0
M  V30 2748 N 276.405 1.4127 -0.698611 0
M  V30 2749 C 277.337 2.292 0.00399731 0
M  V30 2750 C 278.35 1.44944 0.741279 0
M  V30 2751 O 279.539 1.68416 0.591477 0
M  V30 2752 C 276.639 3.22875 1.02979 0
M  V30 2753 C 275.812 4.35904 0.36151 0
M  V30 2754 C 274.871 5.10134 1.29033 0
M  V30 2755 O 273.897 5.63809 0.781562 0
M  V30 2756 N 275.099 5.17885 2.6225 0
M  V30 2757 H 277.864 2.9014 -0.750921 0
M  V30 2758 H 275.425 1.52455 -0.544882 0
M  V30 2759 H 277.417 3.69404 1.65296 0
M  V30 2760 H 275.987 2.63221 1.68622 0
M  V30 2761 H 275.207 3.91719 -0.441584 0
M  V30 2762 H 276.495 5.08696 -0.103055 0
M  V30 2763 H 275.893 4.7573 3.061 0
M  V30 2764 H 274.45 5.6798 3.19754 0
M  V30 2765 N 277.883 0.443576 1.51229 0
M  V30 2766 C 278.793 -0.370721 2.31652 0
M  V30 2767 C 279.809 -1.02186 1.40833 0
M  V30 2768 O 280.985 -1.01586 1.73903 0
M  V30 2769 C 278.05 -1.45376 3.14749 0
M  V30 2770 C 277.111 -0.822099 4.21355 0
M  V30 2771 C 276.344 -1.85353 5.0048 0
M  V30 2772 O 276.567 -3.07656 4.80316 0
M  V30 2773 O 275.501 -1.4406 5.84406 0
M  V30 2774 H 279.327 0.286002 3.0235 0
M  V30 2775 H 276.912 0.20598 1.47973 0
M  V30 2776 H 278.794 -2.08173 3.66391 0
M  V30 2777 H 277.469 -2.09445 2.46809 0
M  V30 2778 H 276.376 -0.155909 3.73775 0
M  V30 2779 H 277.709 -0.224797 4.91686 0
M  V30 2780 N 279.361 -1.56624 0.175154 0
M  V30 2781 C 280.311 -2.14747 -0.766004 0
M  V30 2782 C 281.295 -1.08275 -1.19018 0
M  V30 2783 O 282.487 -1.34388 -1.15191 0
M  V30 2784 C 279.616 -2.79478 -1.99366 0
M  V30 2785 C 278.702 -3.93114 -1.5913 0
M  V30 2786 N 279.093 -4.97752 -0.89872 0
M  V30 2787 C 277.391 -4.04345 -1.88204 0
M  V30 2788 C 278.092 -5.77473 -0.700012 0
M  V30 2789 N 277.068 -5.29207 -1.24263 0
M  V30 2790 H 280.87 -2.93015 -0.22793 0
M  V30 2791 H 278.384 -1.6238 -0.0253843 0
M  V30 2792 H 280.381 -3.19498 -2.67818 0
M  V30 2793 H 279.041 -2.02692 -2.53665 0
M  V30 2794 H 280.052 -5.14903 -0.556347 0
M  V30 2795 H 276.729 -3.38667 -2.44153 0
M  V30 2796 H 278.119 -6.71728 -0.152047 0
M  V30 2797 N 280.839 0.0985539 -1.57292 0
M  V30 2798 C 281.769 1.12064 -2.04851 0
M  V30 2799 C 282.75 1.41981 -0.936767 0
M  V30 2800 O 283.935 1.52071 -1.20781 0
M  V30 2801 C 281.065 2.44144 -2.47004 0
M  V30 2802 C 280.019 2.28643 -3.6181 0
M  V30 2803 C 279.345 3.65869 -3.89929 0
M  V30 2804 C 280.645 1.72986 -4.92822 0
M  V30 2805 H 282.339 0.724979 -2.9049 0
M  V30 2806 H 279.885 0.34729 -1.39749 0
M  V30 2807 H 281.838 3.15914 -2.78884 0
M  V30 2808 H 280.562 2.85639 -1.5836 0
M  V30 2809 H 279.221 1.59318 -3.30172 0
M  V30 2810 H 278.869 4.04885 -2.98458 0
M  V30 2811 H 278.569 3.56344 -4.67218 0
M  V30 2812 H 280.093 4.39112 -4.2428 0
M  V30 2813 H 281.507 2.34593 -5.23105 0
M  V30 2814 H 279.904 1.74229 -5.74251 0
M  V30 2815 H 280.974 0.689007 -4.7998 0
M  V30 2816 N 282.317 1.53212 0.369288 0
M  V30 2817 C 283.264 1.79388 1.45219 0
M  V30 2818 C 284.234 0.638059 1.53356 0
M  V30 2819 O 285.419 0.879852 1.69302 0
M  V30 2820 C 282.559 1.98623 2.82211 0
M  V30 2821 C 281.672 3.26337 2.8307 0
M  V30 2822 C 280.807 3.35779 4.11614 0
M  V30 2823 C 279.846 4.5754 4.06601 0
M  V30 2824 N 278.983 4.64155 5.26787 0
M  V30 2825 H 283.823 2.71794 1.22198 0
M  V30 2826 H 281.36 1.34642 0.592444 0
M  V30 2827 H 283.318 2.07761 3.61789 0
M  V30 2828 H 281.948 1.09558 3.03639 0
M  V30 2829 H 281 3.26171 1.95747 0
M  V30 2830 H 282.312 4.15988 2.75237 0
M  V30 2831 H 281.466 3.44208 4.99606 0
M  V30 2832 H 280.205 2.44137 4.22195 0
M  V30 2833 H 279.21 4.49215 3.16996 0
M  V30 2834 H 280.435 5.50519 3.97625 0
M  V30 2835 H 278.381 3.75413 5.3796 0
M  V30 2836 H 278.298 5.47706 5.21109 0
M  V30 2837 H 279.566 4.76863 6.16621 0
M  V30 2838 N 283.795 -0.628877 1.44509 0
M  V30 2839 C 285.025 -1.41349 1.50678 0
M  V30 2840 C 285.433 -1.88745 0.131075 0
M  V30 2841 O 284.776 -1.61592 -0.87371 0
M  V30 2842 C 284.838 -2.66608 2.41165 0
M  V30 2843 C 284.502 -2.40993 3.88293 0
M  V30 2844 C 285.499 -2.0268 4.78766 0
M  V30 2845 C 283.184 -2.54563 4.33016 0
M  V30 2846 C 285.178 -1.78269 6.11963 0
M  V30 2847 C 282.865 -2.29766 5.6626 0
M  V30 2848 C 283.863 -1.91678 6.55552 0
M  V30 2849 O 283.551 -1.67158 7.86329 0
M  V30 2850 H 283.283 -0.439851 0.51333 0
M  V30 2851 H 285.837 -0.776084 1.90174 0
M  V30 2852 H 284.067 -3.32994 1.96601 0
M  V30 2853 H 285.756 -3.28615 2.38259 0
M  V30 2854 H 286.522 -1.91751 4.45485 0
M  V30 2855 H 282.401 -2.83179 3.63773 0
M  V30 2856 H 285.945 -1.48465 6.81619 0
M  V30 2857 H 281.842 -2.40306 5.99102 0
M  V30 2858 H 282.61 -1.81386 7.98149 0
M  V30 2859 N 285.273 -1.31445 -0.869486 0
M  V30 2860 C 286.519 -1.22347 -1.62489 0
M  V30 2861 C 286.874 0.216204 -1.91181 0
M  V30 2862 O 286.167 1.14977 -1.53268 0
M  V30 2863 C 286.361 -2.00145 -2.96102 0
M  V30 2864 C 286.19 -3.51531 -2.80456 0
M  V30 2865 C 284.96 -4.20882 -2.79618 0
M  V30 2866 C 287.158 -4.46471 -2.5528 0
M  V30 2867 N 285.14 -5.58421 -2.55027 0
M  V30 2868 C 286.511 -5.71682 -2.39957 0
M  V30 2869 C 288.566 -4.35892 -2.40629 0
M  V30 2870 C 287.269 -6.87511 -2.11472 0
M  V30 2871 C 289.295 -5.51505 -2.13532 0
M  V30 2872 C 288.657 -6.75707 -1.98998 0
M  V30 2873 H 284.756 -0.502815 -0.598917 0
M  V30 2874 H 287.34 -1.65639 -1.02332 0
M  V30 2875 H 285.511 -1.59221 -3.54264 0
M  V30 2876 H 287.243 -1.83063 -3.60929 0
M  V30 2877 H 283.998 -3.72857 -2.92018 0
M  V30 2878 H 284.422 -6.30841 -2.45701 0
M  V30 2879 H 289.064 -3.40533 -2.50593 0
M  V30 2880 H 286.782 -7.82897 -2.00245 0
M  V30 2881 H 290.368 -5.45238 -2.02995 0
M  V30 2882 H 289.248 -7.63655 -1.78326 0
M  V30 2883 N 286.751 1.08385 -1.14413 0
M  V30 2884 C 287.681 2.17321 -0.854044 0
M  V30 2885 C 288.662 1.69024 0.191049 0
M  V30 2886 O 289.847 1.94141 0.0476779 0
M  V30 2887 C 286.977 3.45719 -0.330983 0
M  V30 2888 C 285.931 4.07409 -1.31155 0
M  V30 2889 C 285.257 5.30762 -0.64778 0
M  V30 2890 C 286.557 4.48665 -2.67388 0
M  V30 2891 H 288.251 2.41845 -1.76498 0
M  V30 2892 H 285.797 1.16233 -0.850051 0
M  V30 2893 H 287.75 4.21241 -0.115645 0
M  V30 2894 H 286.474 3.2075 0.615381 0
M  V30 2895 H 285.133 3.33919 -1.51306 0
M  V30 2896 H 284.781 5.02078 0.304398 0
M  V30 2897 H 284.481 5.72992 -1.30207 0
M  V30 2898 H 286.005 6.08998 -0.441972 0
M  V30 2899 H 287.419 5.15364 -2.51143 0
M  V30 2900 H 285.816 5.01814 -3.29093 0
M  V30 2901 H 286.886 3.60543 -3.24248 0
M  V30 2902 N 288.23 0.939286 1.26551 0
M  V30 2903 C 289.46 0.601663 1.97645 0
M  V30 2904 C 289.868 -0.827206 1.70159 0
M  V30 2905 O 289.211 -1.56291 0.965338 0
M  V30 2906 C 289.273 0.761725 3.51337 0
M  V30 2907 C 288.937 2.16487 4.0247 0
M  V30 2908 C 289.934 3.14016 4.14355 0
M  V30 2909 C 287.619 2.48494 4.36527 0
M  V30 2910 C 289.613 4.41654 4.59587 0
M  V30 2911 C 287.3 3.76364 4.81449 0
M  V30 2912 C 288.298 4.72758 4.92939 0
M  V30 2913 O 287.986 5.98352 5.36871 0
M  V30 2914 H 287.718 0.225758 0.637189 0
M  V30 2915 H 290.272 1.26178 1.62075 0
M  V30 2916 H 288.502 0.0444808 3.86674 0
M  V30 2917 H 290.191 0.427442 4.03643 0
M  V30 2918 H 290.957 2.90613 3.8829 0
M  V30 2919 H 286.836 1.74202 4.26819 0
M  V30 2920 H 290.38 5.16896 4.68471 0
M  V30 2921 H 286.277 3.99582 5.06956 0
M  V30 2922 H 287.045 6.01507 5.55096 0
M  V30 2923 N 289.708 -1.40897 0.706093 0
M  V30 2924 C 290.938 -2.05075 0.250523 0
M  V30 2925 C 291.346 -1.53275 -1.10921 0
M  V30 2926 O 290.689 -0.680281 -1.7064 0
M  V30 2927 C 290.751 -3.59219 0.142178 0
M  V30 2928 C 290.415 -4.33864 1.43566 0
M  V30 2929 C 291.412 -4.62448 2.37566 0
M  V30 2930 C 289.097 -4.72946 1.69195 0
M  V30 2931 C 291.091 -5.29088 3.5545 0
M  V30 2932 C 288.778 -5.3932 2.87362 0
M  V30 2933 C 289.776 -5.6732 3.80312 0
M  V30 2934 O 289.464 -6.32325 4.96408 0
M  V30 2935 H 289.196 -0.666645 0.112074 0
M  V30 2936 H 291.75 -1.81467 0.962239 0
M  V30 2937 H 289.98 -3.81609 -0.6254 0
M  V30 2938 H 291.669 -4.0495 -0.277584 0
M  V30 2939 H 292.435 -4.32727 2.19027 0
M  V30 2940 H 288.314 -4.50527 0.977042 0
M  V30 2941 H 291.858 -5.50859 4.28018 0
M  V30 2942 H 287.755 -5.68461 3.05814 0
M  V30 2943 H 288.523 -6.50821 4.9636 0
M  V30 2944 N 291.186 -0.45159 -1.50991 0
M  V30 2945 C 292.116 0.342898 -2.30969 0
M  V30 2946 C 293.097 1.00815 -1.37005 0
M  V30 2947 O 294.282 1.00907 -1.65926 0
M  V30 2948 C 291.412 1.43637 -3.16205 0
M  V30 2949 C 290.366 0.893818 -4.18563 0
M  V30 2950 C 289.692 2.08411 -4.92411 0
M  V30 2951 C 290.992 -0.0815568 -5.22236 0
M  V30 2952 H 292.686 -0.324556 -2.97636 0
M  V30 2953 H 290.232 -0.157531 -1.43136 0
M  V30 2954 H 292.185 1.9995 -3.70942 0
M  V30 2955 H 290.909 2.13232 -2.47386 0
M  V30 2956 H 289.568 0.352798 -3.64898 0
M  V30 2957 H 289.216 2.76658 -4.20082 0
M  V30 2958 H 288.916 1.72741 -5.61636 0
M  V30 2959 H 290.44 2.65251 -5.49976 0
M  V30 2960 H 291.854 0.391742 -5.7196 0
M  V30 2961 H 290.251 -0.351551 -5.99069 0
M  V30 2962 H 291.321 -1.01374 -4.74185 0
M  V30 2963 N 292.664 1.56529 -0.183458 0
M  V30 2964 C 293.614 2.1515 0.754605 0
M  V30 2965 C 294.598 1.08904 1.18443 0
M  V30 2966 O 295.79 1.34997 1.14476 0
M  V30 2967 C 292.919 2.80531 1.97881 0
M  V30 2968 C 292.005 3.93952 1.57043 0
M  V30 2969 N 292.396 4.98221 0.87231 0
M  V30 2970 C 290.694 4.05338 1.86057 0
M  V30 2971 C 291.395 5.77836 0.669377 0
M  V30 2972 N 290.371 5.29858 1.21454 0
M  V30 2973 H 294.173 2.93132 0.212387 0
M  V30 2974 H 291.687 1.62391 0.0167725 0
M  V30 2975 H 293.684 3.20914 2.6612 0
M  V30 2976 H 292.344 2.04035 2.52586 0
M  V30 2977 H 293.355 5.15191 0.529033 0
M  V30 2978 H 290.032 3.39957 2.42354 0
M  V30 2979 H 291.422 6.71799 0.116422 0
M  V30 2980 N 294.142 -0.090211 1.57342 0
M  V30 2981 C 295.553 -0.644173 1.75235 0
M  V30 2982 C 295.904 -1.78865 0.806335 0
M  V30 2983 O 295.029 -2.16395 -0.0140128 0
M  V30 2984 C 295.624 -1.17532 3.1776 0
M  V30 2985 C 294.183 -1.67531 3.37061 0
M  V30 2986 C 293.33 -0.58693 2.71017 0
M  V30 2987 H 296.281 0.135884 1.58117 0
M  V30 2988 H 296.302 -2.04455 3.20902 0
M  V30 2989 H 295.814 -0.342138 3.86589 0
M  V30 2990 H 293.915 -2.53234 2.73319 0
M  V30 2991 H 294.028 -1.76493 4.45406 0
M  V30 2992 H 292.392 -1.02756 2.33052 0
M  V30 2993 H 293.175 0.235758 3.4249 0
M  V30 2994 N 295.62 -1.53406 -0.361157 0
M  V30 2995 C 296.866 -1.70054 -1.10496 0
M  V30 2996 C 297.199 -0.453278 -1.88836 0
M  V30 2997 O 296.474 0.5495 -1.86576 0
M  V30 2998 C 296.757 -2.95317 -2.06058 0
M  V30 2999 C 296.61 -4.3021 -1.31298 0
M  V30 3000 C 297.929 -3.16193 -3.06121 0
M  V30 3001 H 295.048 -0.618799 -0.400321 0
M  V30 3002 H 297.69 -1.86052 -0.385318 0
M  V30 3003 H 295.84 -2.81809 -2.67425 0
M  V30 3004 H 297.512 -4.55538 -0.726807 0
M  V30 3005 H 295.755 -4.29421 -0.614853 0
M  V30 3006 H 296.426 -5.14 -2.01265 0
M  V30 3007 H 298.902 -3.28916 -2.5486 0
M  V30 3008 H 297.778 -4.05266 -3.70204 0
M  V30 3009 H 298.039 -2.31676 -3.76535 0
M  V30 3010 N 297.098 0.621204 -1.44841 0
M  V30 3011 C 298.028 1.74366 -1.55303 0
M  V30 3012 C 299.009 1.65199 -0.405385 0
M  V30 3013 O 300.194 1.83807 -0.626787 0
M  V30 3014 C 297.324 3.12931 -1.50637 0
M  V30 3015 C 296.278 3.36896 -2.63979 0
M  V30 3016 C 295.604 4.75594 -2.44366 0
M  V30 3017 C 296.904 3.28483 -4.06074 0
M  V30 3018 H 298.598 1.65867 -2.49256 0
M  V30 3019 H 296.144 0.796558 -1.19962 0
M  V30 3020 H 298.097 3.9124 -1.56555 0
M  V30 3021 H 296.821 3.22237 -0.532057 0
M  V30 3022 H 295.48 2.60972 -2.57467 0
M  V30 3023 H 295.128 4.81616 -1.45105 0
M  V30 3024 H 294.828 4.92586 -3.20364 0
M  V30 3025 H 296.352 5.5612 -2.52117 0
M  V30 3026 H 297.766 3.96684 -4.13902 0
M  V30 3027 H 296.163 3.57008 -4.82354 0
M  V30 3028 H 297.233 2.26133 -4.28943 0
M  V30 3029 N 298.576 1.31904 0.862503 0
M  V30 3030 C 299.508 1.16005 1.97675 0
M  V30 3031 C 300.521 0.0971234 1.6251 0
M  V30 3032 O 301.71 0.345337 1.75128 0
M  V30 3033 C 298.81 0.751791 3.30456 0
M  V30 3034 C 297.983 1.90133 3.93914 0
M  V30 3035 C 297.042 1.4779 5.05019 0
M  V30 3036 O 296.068 2.18872 5.25437 0
M  V30 3037 N 297.27 0.369491 5.79323 0
M  V30 3038 H 300.035 2.11982 2.11857 0
M  V30 3039 H 297.596 1.24337 1.03691 0
M  V30 3040 H 299.588 0.451084 4.02178 0
M  V30 3041 H 298.158 -0.116593 3.12382 0
M  V30 3042 H 297.378 2.36896 3.15078 0
M  V30 3043 H 298.666 2.67111 4.33047 0
M  V30 3044 H 298.064 -0.222299 5.65263 0
M  V30 3045 H 296.621 0.128354 6.51674 0
M  V30 3046 N 300.054 -1.07777 1.14986 0
M  V30 3047 C 301.47 -1.32373 0.891596 0
M  V30 3048 C 301.67 -1.9609 -0.463788 0
M  V30 3049 O 300.726 -2.21801 -1.20667 0
M  V30 3050 C 302.039 -2.21905 2.02925 0
M  V30 3051 C 303.587 -2.35367 2.06329 0
M  V30 3052 C 304.062 -3.28245 3.19405 0
M  V30 3053 N 305.553 -3.35824 3.19024 0
M  V30 3054 C 306.288 -4.07739 4.03158 0
M  V30 3055 N 305.784 -4.82306 4.97346 0
M  V30 3056 N 307.577 -4.03635 3.91197 0
M  V30 3057 H 299.728 -0.648039 2.02273 0
M  V30 3058 H 301.991 -0.348149 0.881757 0
M  V30 3059 H 301.697 -1.82342 3.0074 0
M  V30 3060 H 301.571 -3.22407 1.95789 0
M  V30 3061 H 303.958 -2.74186 1.09116 0
M  V30 3062 H 304.039 -1.34585 2.17533 0
M  V30 3063 H 303.683 -2.90146 4.16867 0
M  V30 3064 H 303.613 -4.28971 3.05437 0
M  V30 3065 H 306.104 -2.8267 2.50811 0
M  V30 3066 H 306.417 -5.34661 5.57994 0
M  V30 3067 H 304.762 -4.81337 5.01338 0
M  V30 3068 H 307.953 -3.44491 3.16928 0
M  V30 3069 H 308.126 -4.59417 4.5699 0
M  V30 3070 N 301.532 -0.945985 -1.26051 0
M  V30 3071 C 302.464 -0.416662 -2.25381 0
M  V30 3072 C 303.477 0.462712 -1.56086 0
M  V30 3073 O 304.666 0.272383 -1.7641 0
M  V30 3074 C 301.766 0.419812 -3.3629 0
M  V30 3075 C 300.939 -0.444531 -4.35135 0
M  V30 3076 C 299.998 0.332305 -5.2515 0
M  V30 3077 O 299.024 -0.266324 -5.68577 0
M  V30 3078 N 300.226 1.62763 -5.57215 0
M  V30 3079 H 302.991 -1.27059 -2.71433 0
M  V30 3080 H 300.552 -0.815392 -1.39868 0
M  V30 3081 H 302.544 0.947013 -3.93464 0
M  V30 3082 H 301.114 1.17456 -2.89694 0
M  V30 3083 H 300.334 -1.15291 -3.76964 0
M  V30 3084 H 301.622 -1.03478 -4.98166 0
M  V30 3085 H 301.02 2.13603 -5.23823 0
M  V30 3086 H 299.577 2.10097 -6.17011 0
M  V30 3087 N 303.011 1.40521 -0.713556 0
M  V30 3088 C 303.943 2.29191 -0.0203126 0
M  V30 3089 C 304.956 1.45723 0.725864 0
M  V30 3090 O 306.145 1.69033 0.573581 0
M  V30 3091 C 303.245 3.2395 0.995486 0
M  V30 3092 C 302.418 4.36262 0.315256 0
M  V30 3093 C 301.477 5.11474 1.23616 0
M  V30 3094 O 300.503 5.64606 0.721719 0
M  V30 3095 N 301.705 5.20638 2.56743 0
M  V30 3096 H 304.47 2.89327 -0.781652 0
M  V30 3097 H 302.031 1.51869 -0.561022 0
M  V30 3098 H 304.023 3.71137 1.61368 0
M  V30 3099 H 302.593 2.64995 1.6582 0
M  V30 3100 H 301.813 3.91228 -0.483106 0
M  V30 3101 H 303.101 5.08558 -0.157004 0
M  V30 3102 H 302.499 4.7895 3.01037 0
M  V30 3103 H 301.056 5.71339 3.13712 0
M  V30 3104 N 304.489 0.459591 1.5075 0
M  V30 3105 C 305.419 -0.330644 2.31147 0
M  V30 3106 C 306.4 -1.00087 1.37538 0
M  V30 3107 O 307.585 -1.00025 1.66459 0
M  V30 3108 C 304.715 -1.41958 3.16962 0
M  V30 3109 C 303.669 -0.871608 4.19031 0
M  V30 3110 C 302.995 -2.05797 4.9351 0
M  V30 3111 C 304.295 0.109251 5.22186 0
M  V30 3112 H 305.989 0.340336 2.97459 0
M  V30 3113 H 303.535 0.165119 1.4305 0
M  V30 3114 H 305.488 -1.9798 3.71997 0
M  V30 3115 H 304.212 -2.11917 2.48513 0
M  V30 3116 H 302.871 -0.333442 3.6508 0
M  V30 3117 H 302.519 -2.74427 4.21544 0
M  V30 3118 H 302.219 -1.6976 5.62544 0
M  V30 3119 H 303.743 -2.62331 5.51375 0
M  V30 3120 H 305.157 -0.361405 5.7216 0
M  V30 3121 H 303.554 0.383316 5.98875 0
M  V30 3122 H 304.624 1.03887 4.73641 0
M  V30 3123 N 305.967 -1.56429 0.191757 0
M  V30 3124 C 307.244 -1.89224 -0.495332 0
M  V30 3125 C 307.624 -1.10478 -1.79883 0
M  V30 3126 O 306.972 -0.204852 -2.2758 0
M  V30 3127 C 307.182 -3.41548 -0.717367 0
M  V30 3128 C 308.53 -4.11711 -1.03823 0
M  V30 3129 O 309.554 -3.4698 -0.805204 0
M  V30 3130 O 308.413 -5.2611 -1.47887 0
M  V30 3131 H 305.507 -0.785788 -0.25781 0
M  V30 3132 H 308.053 -1.68111 0.231721 0
M  V30 3133 H 306.825 -3.90772 0.203287 0
M  V30 3134 H 306.448 -3.68342 -1.497 0
M  V30 3135 N 307.445 0.0818655 -1.57387 0
M  V30 3136 C 308.675 0.794954 -1.90694 0
M  V30 3137 C 309.083 1.72147 -0.784982 0
M  V30 3138 O 308.426 1.81974 0.251196 0
M  V30 3139 C 308.488 1.65042 -3.19376 0
M  V30 3140 C 308.152 0.894337 -4.48164 0
M  V30 3141 C 309.149 0.21813 -5.19442 0
M  V30 3142 C 306.834 0.864495 -4.94805 0
M  V30 3143 C 308.828 -0.477802 -6.35607 0
M  V30 3144 C 306.515 0.164785 -6.10878 0
M  V30 3145 C 307.513 -0.505173 -6.81129 0
M  V30 3146 O 307.201 -1.19363 -7.94989 0
M  V30 3147 H 306.933 0.231779 -0.635023 0
M  V30 3148 H 309.487 0.059493 -2.05314 0
M  V30 3149 H 307.717 2.42844 -3.00938 0
M  V30 3150 H 309.406 2.24127 -3.38411 0
M  V30 3151 H 310.172 0.232558 -4.84442 0
M  V30 3152 H 306.051 1.37542 -4.40004 0
M  V30 3153 H 309.595 -1.00129 -6.90377 0
M  V30 3154 H 305.492 0.148249 -6.4533 0
M  V30 3155 H 306.26 -1.10188 -8.11049 0
M  V30 3156 N 308.923 1.53595 0.353017 0
M  V30 3157 C 310.171 1.70049 1.09215 0
M  V30 3158 C 310.492 0.461406 1.89463 0
M  V30 3159 O 309.762 -0.524633 1.88744 0
M  V30 3160 H 308.342 0.626912 0.40619 0
M  V30 3161 H 311.004 1.90822 0.396585 0
M  V30 3162 H 310.1 2.56718 1.77488 0
M  V30 3163 N 310.401 -0.613514 1.45168 0
M  V30 3164 C 311.65 -1.36874 1.4815 0
M  V30 3165 C 311.963 -1.952 0.124982 0
M  V30 3166 O 313.169 -2.71481 0.0324176 0
M  V30 3167 C 311.625 -2.47905 2.60904 0
M  V30 3168 C 311.233 -1.96016 4.02842 0
M  V30 3169 C 312.977 -3.24965 2.73126 0
M  V30 3170 C 310.884 -3.04494 5.06988 0
M  V30 3171 H 309.814 -0.514428 0.551253 0
M  V30 3172 H 312.465 -0.658182 1.7129 0
M  V30 3173 H 310.847 -3.21618 2.31037 0
M  V30 3174 H 312.021 -1.29051 4.4236 0
M  V30 3175 H 310.336 -1.31719 3.95018 0
M  V30 3176 H 312.933 -4.05865 3.48106 0
M  V30 3177 H 313.276 -3.75588 1.79553 0
M  V30 3178 H 313.809 -2.5835 3.0249 0
M  V30 3179 H 310.548 -2.58795 6.0225 0
M  V30 3180 H 310.068 -3.70044 4.72046 0
M  V30 3181 H 311.747 -3.68976 5.31475 0
M  V30 3182 N 311.879 -1.3236 -0.855495 0
M  V30 3183 C 313.109 -1.25688 -1.6397 0
M  V30 3184 C 313.517 0.177592 -1.88365 0
M  V30 3185 O 312.86 1.12485 -1.45234 0
M  V30 3186 C 312.922 -1.94602 -3.02275 0
M  V30 3187 C 312.586 -3.43937 -3.00926 0
M  V30 3188 C 313.583 -4.39435 -2.77835 0
M  V30 3189 C 311.268 -3.85858 -3.21588 0
M  V30 3190 C 313.262 -5.74829 -2.75409 0
M  V30 3191 C 310.949 -5.21361 -3.18789 0
M  V30 3192 C 311.947 -6.15658 -2.95727 0
M  V30 3193 O 311.635 -7.48681 -2.928 0
M  V30 3194 H 311.367 -0.434972 -0.51747 0
M  V30 3195 H 313.921 -1.75023 -1.075 0
M  V30 3196 H 312.151 -1.39836 -3.60531 0
M  V30 3197 H 313.84 -1.81651 -3.62985 0
M  V30 3198 H 314.606 -4.08374 -2.6164 0
M  V30 3199 H 310.485 -3.12883 -3.38564 0
M  V30 3200 H 314.029 -6.48404 -2.57328 0
M  V30 3201 H 309.926 -5.52052 -3.34528 0
M  V30 3202 H 310.694 -7.5803 -3.0876 0
M  V30 3203 N 313.357 1.07166 -1.15556 0
M  V30 3204 C 314.603 1.80065 -0.932984 0
M  V30 3205 C 314.936 1.86586 0.53845 0
M  V30 3206 O 314.211 1.35098 1.39924 0
M  V30 3207 C 314.494 3.25022 -1.55025 0
M  V30 3208 C 314.347 3.26634 -3.09242 0
M  V30 3209 C 315.666 4.22341 -1.2376 0
M  V30 3210 H 312.785 0.653697 -0.340366 0
M  V30 3211 H 315.427 1.25389 -1.4275 0
M  V30 3212 H 313.577 3.71712 -1.12972 0
M  V30 3213 H 315.249 2.88173 -3.60214 0
M  V30 3214 H 313.492 2.65539 -3.43033 0
M  V30 3215 H 314.163 4.28854 -3.47546 0
M  V30 3216 H 316.639 3.8405 -1.60139 0
M  V30 3217 H 315.515 5.22053 -1.69564 0
M  V30 3218 H 315.776 4.41828 -0.154938 0
M  V30 3219 N 314.835 0.952656 1.25548 0
M  V30 3220 C 316.084 0.602053 1.92505 0
M  V30 3221 C 316.397 -0.864663 1.75451 0
M  V30 3222 O 317.603 -1.32514 2.36965 0
M  V30 3223 C 316.059 1.02607 3.44963 0
M  V30 3224 C 315.667 2.51519 3.70732 0
M  V30 3225 C 317.411 0.747905 4.1786 0
M  V30 3226 C 315.318 2.87732 5.16686 0
M  V30 3227 H 314.248 0.22146 0.720744 0
M  V30 3228 H 316.899 1.15684 1.42441 0
M  V30 3229 H 315.281 0.399712 3.93978 0
M  V30 3230 H 316.455 3.19157 3.32378 0
M  V30 3231 H 314.77 2.76786 3.11092 0
M  V30 3232 H 317.367 0.994647 5.25367 0
M  V30 3233 H 317.71 -0.315629 4.15102 0
M  V30 3234 H 318.243 1.33452 3.74747 0
M  V30 3235 H 314.982 3.93095 5.24554 0
M  V30 3236 H 314.502 2.24765 5.56094 0
M  V30 3237 H 316.181 2.76817 5.84792 0
M  V30 3238 N 316.313 -1.40141 0.720998 0
M  V30 3239 C 317.261 -2.3252 0.0608547 0
M  V30 3240 C 318.255 -1.52326 -0.741152 0
M  V30 3241 O 319.461 -1.68089 -0.643911 0
M  V30 3242 H 315.836 -0.751999 0.000876664 0
M  V30 3243 H 317.807 -2.8584 0.856614 0
M  V30 3244 C 316.556 -3.37331 -0.842809 0
M  V30 3245 H 315.879 -3.99108 -0.235084 0
M  V30 3246 H 317.319 -4.04452 -1.27257 0
M  V30 3247 C 315.778 -2.73246 -1.97074 0
M  V30 3248 O 316.308 -2.59998 -3.06209 0
M  V30 3249 N 314.514 -2.31547 -1.75597 0
M  V30 3250 H 314.061 -2.42522 -0.868368 0
M  V30 3251 H 314.019 -1.89007 -2.51244 0
M  V30 3252 N 317.792 -0.46758 -1.50504 0
M  V30 3253 C 318.724 0.364655 -2.26281 0
M  V30 3254 C 319.737 0.960151 -1.31472 0
M  V30 3255 O 320.926 0.849153 -1.57008 0
M  V30 3256 C 318.026 1.52509 -3.02645 0
M  V30 3257 C 317.199 1.04302 -4.24782 0
M  V30 3258 C 316.258 2.07709 -4.8347 0
M  V30 3259 O 315.284 1.65913 -5.44483 0
M  V30 3260 N 316.486 3.40485 -4.70159 0
M  V30 3261 H 319.251 -0.28495 -2.98342 0
M  V30 3262 H 316.812 -0.298163 -1.59131 0
M  V30 3263 H 318.804 2.21371 -3.38787 0
M  V30 3264 H 317.374 2.07945 -2.33404 0
M  V30 3265 H 316.594 0.180393 -3.93787 0
M  V30 3266 H 317.882 0.698798 -5.03978 0
M  V30 3267 H 317.28 3.77155 -4.21629 0
M  V30 3268 H 315.837 4.05156 -5.1058 0
M  V30 3269 N 319.27 1.56325 -0.20005 0
M  V30 3270 C 320.233 2.18084 0.705132 0
M  V30 3271 C 321.233 1.13666 1.1374 0
M  V30 3272 O 322.423 1.39023 1.04968 0
M  V30 3273 C 319.555 2.78689 1.96329 0
M  V30 3274 H 320.748 2.99435 0.167023 0
M  V30 3275 H 318.301 1.56221 0.0495725 0
M  V30 3276 H 319.036 2.0115 2.5438 0
M  V30 3277 H 318.821 3.55133 1.66202 0
M  V30 3278 H 320.311 3.26096 2.60866 0
M  V30 3279 N 320.748 -0.0735177 1.57428 0
M  V30 3280 C 321.996 -0.771472 1.86796 0
M  V30 3281 C 322.317 -1.78201 0.791804 0
M  V30 3282 O 321.587 -1.95074 -0.179718 0
M  V30 3283 H 320.167 -0.28791 0.689287 0
M  V30 3284 H 322.829 -0.0500161 1.94836 0
M  V30 3285 H 321.925 -1.28874 2.8425 0
M  V30 3286 N 322.226 -1.5378 -0.344866 0
M  V30 3287 C 323.503 -1.61589 -1.10219 0
M  V30 3288 C 323.883 -0.436316 -2.06542 0
M  V30 3289 O 323.231 0.571543 -2.21237 0
M  V30 3290 C 323.441 -2.97602 -1.82301 0
M  V30 3291 C 324.789 -3.5291 -2.36093 0
M  V30 3292 O 325.813 -2.99768 -1.924 0
M  V30 3293 O 324.672 -4.45859 -3.16026 0
M  V30 3294 H 321.766 -0.653522 -0.506792 0
M  V30 3295 H 324.312 -1.66126 -0.346465 0
M  V30 3296 H 323.084 -3.74893 -1.12121 0
M  V30 3297 H 322.707 -2.9665 -2.64735 0
M  V30 3298 N 323.704 0.605807 -1.45491 0
M  V30 3299 C 324.932 1.39136 -1.5313 0
M  V30 3300 C 325.347 1.88082 -0.164507 0
M  V30 3301 O 324.704 1.62316 0.834247 0
M  V30 3302 C 324.755 2.59463 -2.51716 0
M  V30 3303 O 324.476 2.12551 -3.83084 0
M  V30 3304 C 325.977 3.52301 -2.6907 0
M  V30 3305 H 323.197 0.425849 -0.51855 0
M  V30 3306 H 325.741 0.73865 -1.90694 0
M  V30 3307 H 323.896 3.20772 -2.17219 0
M  V30 3308 H 324.31 2.90744 -4.36541 0
M  V30 3309 H 325.784 4.33271 -3.42024 0
M  V30 3310 H 326.261 4.02757 -1.75167 0
M  V30 3311 H 326.867 2.96845 -3.04571 0
M  V30 3312 N 325.182 1.32811 0.848464 0
M  V30 3313 C 326.431 1.23075 1.59798 0
M  V30 3314 C 326.744 -0.204419 1.94529 0
M  V30 3315 O 327.95 -0.423701 2.68173 0
M  V30 3316 C 326.406 2.15594 2.88179 0
M  V30 3317 C 326.014 3.64228 2.60849 0
M  V30 3318 C 327.758 2.14709 3.66197 0
M  V30 3319 C 325.665 4.48689 3.85269 0
M  V30 3320 H 324.595 0.457091 0.599653 0
M  V30 3321 H 327.246 1.57813 0.936342 0
M  V30 3322 H 325.628 1.73778 3.55833 0
M  V30 3323 H 326.802 4.14424 2.01467 0
M  V30 3324 H 325.117 3.67306 1.96151 0
M  V30 3325 H 327.714 2.75046 4.58534 0
M  V30 3326 H 328.057 1.13966 4.00397 0
M  V30 3327 H 328.59 2.54837 3.05455 0
M  V30 3328 H 325.329 5.5027 3.56207 0
M  V30 3329 H 324.849 4.03241 4.44024 0
M  V30 3330 H 326.528 4.62006 4.52946 0
M  V30 3331 N 326.66 -1.06551 1.16123 0
M  V30 3332 C 327.907 -1.79302 0.941126 0
M  V30 3333 C 328.235 -1.87105 -0.531235 0
M  V30 3334 O 327.49 -1.35692 -1.41018 0
M  V30 3335 C 327.789 -3.23911 1.51052 0
M  V30 3336 C 327.455 -3.36193 3.00475 0
M  V30 3337 C 326.117 -3.39252 3.41265 0
M  V30 3338 C 328.469 -3.38326 3.96465 0
M  V30 3339 C 325.797 -3.42057 4.76669 0
M  V30 3340 C 328.149 -3.4267 5.31752 0
M  V30 3341 C 326.813 -3.4401 5.72026 0
M  V30 3342 H 326.083 -0.656111 0.344382 0
M  V30 3343 H 328.73 -1.25325 1.44796 0
M  V30 3344 H 327.035 -3.80723 0.925063 0
M  V30 3345 H 328.732 -3.78793 1.31593 0
M  V30 3346 H 325.322 -3.34516 2.6795 0
M  V30 3347 H 329.506 -3.35176 3.6602 0
M  V30 3348 H 324.762 -3.41398 5.07206 0
M  V30 3349 H 328.936 -3.43268 6.05921 0
M  V30 3350 H 326.563 -3.45937 6.76928 0
M  V30 3351 N 328.138 -0.959301 -1.25041 0
M  V30 3352 C 329.086 -0.474437 -2.2771 0
M  V30 3353 C 330.08 0.457697 -1.631 0
M  V30 3354 O 331.286 0.333912 -1.76876 0
M  V30 3355 H 327.661 -0.134936 -0.739795 0
M  V30 3356 H 329.632 -1.35251 -2.65988 0
M  V30 3357 C 328.381 0.227884 -3.46952 0
M  V30 3358 H 327.704 -0.480248 -3.96905 0
M  V30 3359 H 329.144 0.531091 -4.20661 0
M  V30 3360 C 327.603 1.452 -3.04004 0
M  V30 3361 O 328.133 2.54949 -3.10426 0
M  V30 3362 N 326.339 1.31502 -2.59144 0
M  V30 3363 H 325.886 0.422065 -2.54119 0
M  V30 3364 H 325.844 2.13521 -2.30773 0
M  V30 3365 N 329.616 1.39756 -0.72842 0
M  V30 3366 C 331.032 1.5442 -0.403308 0
M  V30 3367 C 331.232 1.69694 1.08656 0
M  V30 3368 O 330.288 1.69373 1.87267 0
M  V30 3369 C 331.601 2.76555 -1.18058 0
M  V30 3370 C 333.149 2.90384 -1.16815 0
M  V30 3371 C 333.624 4.15449 -1.92785 0
M  V30 3372 N 335.115 4.22475 -1.89918 0
M  V30 3373 C 335.85 5.1818 -2.45514 0
M  V30 3374 N 335.346 6.19714 -3.09719 0
M  V30 3375 N 337.139 5.1035 -2.35584 0
M  V30 3376 H 329.29 1.28089 -1.69431 0
M  V30 3377 H 331.553 0.620327 -0.716867 0
M  V30 3378 H 331.259 2.7159 -2.23455 0
M  V30 3379 H 331.133 3.69033 -0.780662 0
M  V30 3380 H 333.52 2.94846 -0.12234 0
M  V30 3381 H 333.601 1.98988 -1.6074 0
M  V30 3382 H 333.245 4.11749 -2.97364 0
M  V30 3383 H 333.175 5.05877 -1.46272 0
M  V30 3384 H 335.666 3.49743 -1.43138 0
M  V30 3385 H 335.979 6.8919 -3.49625 0
M  V30 3386 H 334.324 6.20121 -3.13807 0
M  V30 3387 H 337.515 4.2996 -1.85072 0
M  V30 3388 H 337.688 5.84761 -2.79211 0
M  V30 3389 N 331.094 0.475555 1.50254 0
M  V30 3390 C 332.057 -0.305016 2.27161 0
M  V30 3391 C 333.057 -0.916519 1.32123 0
M  V30 3392 O 334.247 -0.785003 1.5551 0
M  V30 3393 C 331.379 -1.43496 3.09227 0
M  V30 3394 H 332.572 0.369511 2.97615 0
M  V30 3395 H 330.125 0.229747 1.54602 0
M  V30 3396 H 330.86 -2.14441 2.43281 0
M  V30 3397 H 330.645 -1.00223 3.79075 0
M  V30 3398 H 332.135 -1.98548 3.67381 0
M  V30 3399 N 332.573 -1.56217 0.208337 0
M  V30 3400 C 333.52 -2.19699 -0.707192 0
M  V30 3401 C 334.49 -1.14836 -1.20008 0
M  V30 3402 O 335.675 -1.4314 -1.26157 0
M  V30 3403 C 332.815 -2.87061 -1.91546 0
M  V30 3404 C 331.928 -4.06483 -1.46271 0
M  V30 3405 C 331.063 -4.61665 -2.62752 0
M  V30 3406 C 330.102 -5.73417 -2.14147 0
M  V30 3407 N 329.239 -6.22948 -3.23853 0
M  V30 3408 H 334.079 -2.97575 -0.159111 0
M  V30 3409 H 331.616 -1.46948 -0.0667874 0
M  V30 3410 H 333.574 -3.24294 -2.62468 0
M  V30 3411 H 332.204 -2.11725 -2.43664 0
M  V30 3412 H 331.256 -3.74825 -0.648886 0
M  V30 3413 H 332.568 -4.87271 -1.06622 0
M  V30 3414 H 331.722 -5.01272 -3.41776 0
M  V30 3415 H 330.461 -3.80013 -3.05682 0
M  V30 3416 H 329.466 -5.33326 -1.33581 0
M  V30 3417 H 330.691 -6.56897 -1.72232 0
M  V30 3418 H 328.637 -5.44213 -3.6629 0
M  V30 3419 H 328.554 -6.98823 -2.88414 0
M  V30 3420 H 329.822 -6.6721 -4.03052 0
M  V30 3421 N 334.051 0.0651679 -1.57465 0
M  V30 3422 C 334.981 1.07693 -2.07182 0
M  V30 3423 C 335.962 1.39962 -0.966673 0
M  V30 3424 O 337.147 1.49475 -1.2398 0
M  V30 3425 C 334.277 2.3885 -2.52127 0
M  V30 3426 C 333.231 2.20917 -3.66579 0
M  V30 3427 C 332.557 3.57515 -3.97601 0
M  V30 3428 C 333.857 1.62493 -4.9638 0
M  V30 3429 H 335.551 0.663199 -2.91962 0
M  V30 3430 H 333.097 0.317569 -1.40455 0
M  V30 3431 H 335.05 3.09928 -2.85522 0
M  V30 3432 H 333.774 2.82215 -1.64384 0
M  V30 3433 H 332.433 1.52279 -3.33477 0
M  V30 3434 H 332.081 3.98463 -3.06979 0
M  V30 3435 H 331.781 3.46353 -4.74672 0
M  V30 3436 H 333.305 4.30013 -4.33499 0
M  V30 3437 H 334.719 2.23445 -5.27963 0
M  V30 3438 H 333.116 1.62009 -5.77818 0
M  V30 3439 H 334.186 0.587041 -4.81333 0
M  V30 3440 N 335.529 1.53961 0.336706 0
M  V30 3441 C 336.459 1.85417 1.41925 0
M  V30 3442 C 337.44 0.709856 1.5458 0
M  V30 3443 O 338.625 0.962396 1.68676 0
M  V30 3444 C 335.755 2.06985 2.78881 0
M  V30 3445 C 334.709 3.22813 2.81026 0
M  V30 3446 C 334.035 3.29727 4.20932 0
M  V30 3447 C 335.335 4.60767 2.45949 0
M  V30 3448 H 337.029 2.76079 1.15848 0
M  V30 3449 H 334.575 1.32839 0.555859 0
M  V30 3450 H 336.528 2.27575 3.54665 0
M  V30 3451 H 335.252 1.13061 3.06406 0
M  V30 3452 H 333.911 3.0209 2.07695 0
M  V30 3453 H 333.559 2.33385 4.45579 0
M  V30 3454 H 333.259 4.07566 4.23277 0
M  V30 3455 H 334.783 3.52536 4.98549 0
M  V30 3456 H 336.197 4.81325 3.11446 0
M  V30 3457 H 334.594 5.4106 2.59566 0
M  V30 3458 H 335.664 4.6391 1.41122 0
M  V30 3459 N 337.007 -0.598083 1.45811 0
M  V30 3460 C 337.955 -1.72932 1.55555 0
M  V30 3461 C 338.949 -1.63984 0.424921 0
M  V30 3462 O 340.155 -1.69663 0.601205 0
M  V30 3463 H 336.53 -0.571489 0.488779 0
M  V30 3464 H 338.501 -1.61842 2.50699 0
M  V30 3465 C 337.25 -3.11318 1.54843 0
M  V30 3466 H 336.573 -3.18867 2.41172 0
M  V30 3467 H 338.013 -3.90274 1.65717 0
M  V30 3468 C 336.472 -3.3578 0.274427 0
M  V30 3469 O 337.002 -3.9654 -0.641778 0
M  V30 3470 N 335.208 -2.90119 0.167139 0
M  V30 3471 H 334.755 -2.40855 0.913596 0
M  V30 3472 H 334.713 -3.0686 -0.684435 0
M  V30 3473 N 338.485 -1.33259 -0.841409 0
M  V30 3474 C 339.731 -1.24757 -1.59886 0
M  V30 3475 C 340.064 0.186913 -1.93298 0
M  V30 3476 O 339.339 1.12757 -1.5848 0
M  V30 3477 C 339.622 -2.12036 -2.91055 0
M  V30 3478 C 339.475 -3.63929 -2.6434 0
M  V30 3479 C 340.794 -1.9916 -3.92458 0
M  V30 3480 H 337.913 -0.454542 -0.580138 0
M  V30 3481 H 340.555 -1.63335 -0.970647 0
M  V30 3482 H 338.705 -1.79265 -3.44669 0
M  V30 3483 H 340.377 -4.06978 -2.17178 0
M  V30 3484 H 338.62 -3.85935 -1.98082 0
M  V30 3485 H 339.291 -4.20341 -3.57796 0
M  V30 3486 H 341.767 -2.27895 -3.48143 0
M  V30 3487 H 340.643 -2.62484 -4.82072 0
M  V30 3488 H 340.904 -0.963082 -4.31482 0
M  V30 3489 N 339.963 1.05934 -1.16686 0
M  V30 3490 C 341.211 1.78447 -0.948744 0
M  V30 3491 C 341.532 1.87813 0.524523 0
M  V30 3492 O 340.802 1.38945 1.38098 0
M  V30 3493 H 339.382 0.660971 -0.348033 0
M  V30 3494 H 342.044 1.27947 -1.47022 0
M  V30 3495 H 341.14 2.80394 -1.37061 0
M  V30 3496 N 341.441 0.965919 1.2453 0
M  V30 3497 C 342.688 0.626831 1.92554 0
M  V30 3498 C 343.016 -0.837739 1.75534 0
M  V30 3499 O 342.271 -1.61793 1.10098 0
M  V30 3500 C 342.57 0.945428 3.44669 0
M  V30 3501 C 342.236 2.39785 3.81856 0
M  V30 3502 C 340.898 2.79483 3.91718 0
M  V30 3503 C 343.25 3.34055 4.00071 0
M  V30 3504 C 340.578 4.12496 4.1721 0
M  V30 3505 C 342.93 4.66694 4.27059 0
M  V30 3506 C 341.594 5.06172 4.3514 0
M  V30 3507 H 340.864 0.229374 0.704605 0
M  V30 3508 H 343.511 1.21707 1.4785 0
M  V30 3509 H 341.816 0.272926 3.90848 0
M  V30 3510 H 343.513 0.661484 3.95507 0
M  V30 3511 H 340.103 2.08003 3.74743 0
M  V30 3512 H 344.287 3.04571 3.91855 0
M  V30 3513 H 339.543 4.42709 4.21685 0
M  V30 3514 H 343.717 5.3971 4.40097 0
M  V30 3515 H 341.344 6.09262 4.54646 0
M  V30 3516 N 342.919 -1.39368 0.735821 0
M  V30 3517 C 343.851 -2.2913 0.0567723 0
M  V30 3518 C 344.864 -1.46859 -0.702589 0
M  V30 3519 O 346.053 -1.69925 -0.546616 0
M  V30 3520 C 343.153 -3.25492 -0.943823 0
M  V30 3521 C 342.326 -4.36709 -0.24581 0
M  V30 3522 C 341.385 -5.13376 -1.15463 0
M  V30 3523 O 340.411 -5.65683 -0.631803 0
M  V30 3524 N 341.613 -5.24656 -2.48427 0
M  V30 3525 H 344.378 -2.88047 0.827582 0
M  V30 3526 H 341.939 -1.50957 0.585112 0
M  V30 3527 H 343.931 -3.73657 -1.55443 0
M  V30 3528 H 342.501 -2.676 -1.61583 0
M  V30 3529 H 341.721 -3.9041 0.545286 0
M  V30 3530 H 343.009 -5.08244 0.237891 0
M  V30 3531 H 342.407 -4.83679 -2.93379 0
M  V30 3532 H 340.964 -5.76258 -3.04582 0
M  V30 3533 N 344.397 -0.483516 -1.5 0
M  V30 3534 C 345.307 0.309172 -2.32554 0
M  V30 3535 C 346.323 0.984159 -1.43493 0
M  V30 3536 O 347.499 0.969399 -1.76535 0
M  V30 3537 C 344.564 1.36979 -3.18493 0
M  V30 3538 C 343.625 0.710095 -4.23387 0
M  V30 3539 C 342.858 1.72018 -5.05218 0
M  V30 3540 O 343.081 2.94813 -4.88305 0
M  V30 3541 O 342.015 1.28515 -5.8802 0
M  V30 3542 H 345.841 -0.366064 -3.01486 0
M  V30 3543 H 343.426 -0.24514 -1.47375 0
M  V30 3544 H 345.308 1.98385 -3.71781 0
M  V30 3545 H 343.983 2.02828 -2.52275 0
M  V30 3546 H 342.89 0.0567539 -3.74057 0
M  V30 3547 H 344.223 0.0943557 -4.9211 0
M  V30 3548 N 345.875 1.56104 -0.216619 0
M  V30 3549 C 346.838 2.18819 0.681962 0
M  V30 3550 C 347.838 1.14866 1.12528 0
M  V30 3551 O 349.028 1.40128 1.03488 0
M  V30 3552 C 346.16 2.80756 1.93362 0
M  V30 3553 H 347.353 2.99595 0.135254 0
M  V30 3554 H 344.906 1.56265 0.0330003 0
M  V30 3555 H 345.641 2.03837 2.52232 0
M  V30 3556 H 345.426 3.56876 1.62426 0
M  V30 3557 H 346.916 3.28844 2.57393 0
M  V30 3558 N 347.353 -0.0568162 1.57498 0
M  V30 3559 C 348.283 -1.06593 2.0775 0
M  V30 3560 C 349.264 -1.39448 0.974082 0
M  V30 3561 O 350.449 -1.48815 1.24771 0
M  V30 3562 C 347.579 -2.37509 2.5339 0
M  V30 3563 C 346.533 -2.1897 3.67745 0
M  V30 3564 C 345.859 -3.55402 3.99492 0
M  V30 3565 C 347.159 -1.59859 4.97235 0
M  V30 3566 H 348.853 -0.647706 2.9231 0
M  V30 3567 H 346.399 -0.310116 1.40621 0
M  V30 3568 H 348.352 -3.08409 2.87162 0
M  V30 3569 H 347.076 -2.8134 1.65878 0
M  V30 3570 H 345.735 -1.50508 3.3428 0
M  V30 3571 H 345.383 -3.9683 3.09088 0
M  V30 3572 H 345.083 -3.43831 4.76502 0
M  V30 3573 H 346.607 -4.27708 4.35773 0
M  V30 3574 H 348.021 -2.20642 5.29141 0
M  V30 3575 H 346.418 -1.58942 5.78669 0
M  V30 3576 H 347.488 -0.561506 4.81638 0
M  V30 3577 N 348.832 -1.54138 -0.328536 0
M  V30 3578 C 349.779 -1.83176 -1.40411 0
M  V30 3579 C 350.749 -0.678494 -1.5161 0
M  V30 3580 O 351.934 -0.92443 -1.6691 0
M  V30 3581 C 349.074 -2.06035 -2.76846 0
M  V30 3582 C 348.187 -3.33727 -2.74318 0
M  V30 3583 C 347.322 -3.46574 -4.02567 0
M  V30 3584 C 346.361 -4.68159 -3.94327 0
M  V30 3585 N 345.498 -4.77959 -5.14296 0
M  V30 3586 H 350.338 -2.74938 -1.14948 0
M  V30 3587 H 347.875 -1.36166 -0.556538 0
M  V30 3588 H 349.833 -2.1728 -3.56153 0
M  V30 3589 H 348.463 -1.1757 -3.00628 0
M  V30 3590 H 347.515 -3.31246 -1.8703 0
M  V30 3591 H 348.827 -4.23139 -2.64111 0
M  V30 3592 H 347.981 -3.57333 -4.90304 0
M  V30 3593 H 346.72 -2.55245 -4.15574 0
M  V30 3594 H 345.725 -4.57461 -3.04974 0
M  V30 3595 H 346.95 -5.60868 -3.82889 0
M  V30 3596 H 344.896 -3.89544 -5.27818 0
M  V30 3597 H 344.813 -5.6133 -5.06404 0
M  V30 3598 H 346.081 -4.93044 -6.03761 0
M  V30 3599 N 350.31 0.590341 -1.46126 0
M  V30 3600 C 351.587 1.35029 -1.41515 0
M  V30 3601 C 351.967 2.10888 -0.0946472 0
M  V30 3602 O 351.315 2.08998 0.923693 0
M  V30 3603 C 351.525 2.28269 -2.63997 0
M  V30 3604 C 352.873 2.90338 -3.09821 0
M  V30 3605 O 353.897 2.38585 -2.64492 0
M  V30 3606 O 352.756 3.84321 -3.88535 0
M  V30 3607 H 349.85 0.606317 -0.562413 0
M  V30 3608 H 352.396 0.611994 -1.58281 0
M  V30 3609 H 351.168 1.71591 -3.51671 0
M  V30 3610 H 350.791 3.0945 -2.49652 0
M  V30 3611 N 351.788 1.33704 0.83433 0
M  V30 3612 C 353.018 1.28281 1.6195 0
M  V30 3613 C 353.426 -0.147603 1.88623 0
M  V30 3614 O 352.769 -1.1016 1.47005 0
M  V30 3615 C 352.831 1.99386 2.99141 0
M  V30 3616 C 352.495 3.48681 2.95416 0
M  V30 3617 C 353.492 4.438 2.70809 0
M  V30 3618 C 351.177 3.90925 3.15409 0
M  V30 3619 C 353.171 5.79138 2.66229 0
M  V30 3620 C 350.858 5.26366 3.10454 0
M  V30 3621 C 351.856 6.20284 2.85895 0
M  V30 3622 O 351.544 7.53245 2.80852 0
M  V30 3623 H 351.276 0.44315 0.510484 0
M  V30 3624 H 353.83 1.76711 1.04702 0
M  V30 3625 H 352.06 1.45554 3.58261 0
M  V30 3626 H 353.749 1.87403 3.60049 0
M  V30 3627 H 354.515 4.12485 2.5511 0
M  V30 3628 H 350.394 3.18229 3.33543 0
M  V30 3629 H 353.938 6.52416 2.4698 0
M  V30 3630 H 349.835 5.57304 3.25703 0
M  V30 3631 H 350.603 7.62846 2.96661 0
M  V30 3632 N 353.266 -1.05314 1.17247 0
M  V30 3633 C 354.543 -1.75184 0.87005 0
M  V30 3634 C 354.923 -2.01481 -0.629965 0
M  V30 3635 O 354.271 -1.64988 -1.58086 0
M  V30 3636 C 354.481 -3.04594 1.70363 0
M  V30 3637 C 355.829 -3.78567 1.92281 0
M  V30 3638 O 356.853 -3.14461 1.67311 0
M  V30 3639 O 355.712 -4.93755 2.3424 0
M  V30 3640 H 352.806 -0.761729 0.322021 0
M  V30 3641 H 355.352 -1.11493 1.27935 0
M  V30 3642 H 354.124 -2.81201 2.72106 0
M  V30 3643 H 353.747 -3.76022 1.29202 0
M  V30 3644 N 354.744 -0.972509 -1.24016 0
M  V30 3645 C 355.974 -0.653853 -1.9598 0
M  V30 3646 C 356.382 0.781801 -1.72292 0
M  V30 3647 O 355.725 1.53677 -1.00644 0
M  V30 3648 C 355.787 -0.854608 -3.49194 0
M  V30 3649 C 355.451 -2.27082 -3.96589 0
M  V30 3650 C 356.448 -3.24892 -4.05883 0
M  V30 3651 C 354.133 -2.5998 -4.29786 0
M  V30 3652 C 356.127 -4.53684 -4.47716 0
M  V30 3653 C 353.814 -3.88997 -4.71301 0
M  V30 3654 C 354.812 -4.85661 -4.80232 0
M  V30 3655 O 354.5 -6.12376 -5.20818 0
M  V30 3656 H 354.232 -0.242572 -0.630979 0
M  V30 3657 H 356.786 -1.30431 -1.58673 0
M  V30 3658 H 355.016 -0.146985 -3.86421 0
M  V30 3659 H 356.705 -0.534311 -4.02368 0
M  V30 3660 H 357.471 -3.00805 -3.80449 0
M  V30 3661 H 353.35 -1.85457 -4.22051 0
M  V30 3662 H 356.894 -5.29135 -4.54601 0
M  V30 3663 H 352.791 -4.12882 -4.96184 0
M  V30 3664 H 353.559 -6.16013 -5.38953 0
M  V30 3665 N 356.222 1.38976 -0.743202 0
M  V30 3666 C 357.45 2.04636 -0.30525 0
M  V30 3667 C 357.865 1.56044 1.06281 0
M  V30 3668 O 357.222 0.728921 1.67311 0
M  V30 3669 C 357.273 3.60193 -0.307177 0
M  V30 3670 O 356.994 4.06998 -1.62124 0
M  V30 3671 C 358.495 4.4306 0.145928 0
M  V30 3672 H 355.715 0.65788 -0.132041 0
M  V30 3673 H 358.259 1.77866 -1.00915 0
M  V30 3674 H 356.414 3.85835 0.347898 0
M  V30 3675 H 356.828 5.01371 -1.54036 0
M  V30 3676 H 358.302 5.51921 0.0934183 0
M  V30 3677 H 358.779 4.22706 1.19231 0
M  V30 3678 H 359.385 4.22584 -0.479886 0
M  V30 3679 N 357.7 0.491464 1.49741 0
M  V30 3680 C 358.94 -0.0549118 2.04326 0
M  V30 3681 C 359.304 -1.35148 1.36378 0
M  V30 3682 O 360.505 -1.9815 1.81631 0
M  V30 3683 C 358.776 -0.213841 3.5676 0
M  V30 3684 S 360.335 -0.715839 4.32922 0
M  V30 3685 H 357.153 -0.00630513 0.710972 0
M  V30 3686 H 359.755 0.663257 1.83905 0
M  V30 3687 H 358.459 0.73527 4.0376 0
M  V30 3688 H 357.99 -0.957529 3.81569 0
M  V30 3689 H 360.005 -1.9864 4.54705 0
M  V30 3690 N 359.178 -1.55987 0.224894 0
M  V30 3691 C 360.425 -1.9839 -0.4059 0
M  V30 3692 C 360.753 -1.11261 -1.59535 0
M  V30 3693 O 360.008 -0.158314 -1.95059 0
M  V30 3694 C 360.307 -3.46394 -0.880106 0
M  V30 3695 C 359.973 -4.5046 0.19918 0
M  V30 3696 C 358.635 -4.7864 0.495661 0
M  V30 3697 C 360.987 -5.12855 0.928939 0
M  V30 3698 C 358.315 -5.66497 1.52636 0
M  V30 3699 C 360.667 -6.01828 1.949 0
M  V30 3700 C 359.331 -6.28351 2.25236 0
M  V30 3701 H 358.601 -0.725961 -0.148529 0
M  V30 3702 H 361.248 -1.88668 0.328113 0
M  V30 3703 H 359.553 -3.53337 -1.69294 0
M  V30 3704 H 361.25 -3.76577 -1.37808 0
M  V30 3705 H 357.84 -4.28579 -0.0420526 0
M  V30 3706 H 362.024 -4.9115 0.713129 0
M  V30 3707 H 357.28 -5.8531 1.76698 0
M  V30 3708 H 361.454 -6.49225 2.51951 0
M  V30 3709 H 359.081 -6.96226 3.05244 0
M  V30 3710 N 360.656 0.0484629 -1.57525 0
M  V30 3711 C 361.902 0.744226 -1.88651 0
M  V30 3712 C 362.235 1.76029 -0.820212 0
M  V30 3713 O 361.51 1.93782 0.166985 0
M  V30 3714 C 361.793 1.43128 -3.30434 0
M  V30 3715 C 361.646 0.43005 -4.47739 0
M  V30 3716 C 362.965 2.37031 -3.70816 0
M  V30 3717 H 360.084 0.269089 -0.68612 0
M  V30 3718 H 362.726 0.00713532 -1.89999 0
M  V30 3719 H 360.876 2.05956 -3.29415 0
M  V30 3720 H 362.548 -0.194816 -4.60888 0
M  V30 3721 H 360.791 -0.252522 -4.33064 0
M  V30 3722 H 361.462 0.948874 -5.43783 0
M  V30 3723 H 363.938 1.84263 -3.73077 0
M  V30 3724 H 362.814 2.82094 -4.70865 0
M  V30 3725 H 363.075 3.22864 -3.02012 0
M  V30 3726 N 362.134 1.5431 0.320358 0
M  V30 3727 C 363.381 1.72668 1.05792 0
M  V30 3728 C 363.709 0.502084 1.87908 0
M  V30 3729 O 362.964 -0.516149 1.88771 0
M  V30 3730 C 363.263 2.95639 2.00828 0
M  V30 3731 C 362.929 4.30265 1.34843 0
M  V30 3732 C 361.591 4.66865 1.16578 0
M  V30 3733 C 363.943 5.13801 0.875095 0
M  V30 3734 C 361.271 5.84597 0.496336 0
M  V30 3735 C 363.623 6.32219 0.219463 0
M  V30 3736 C 362.287 6.67495 0.0246915 0
M  V30 3737 H 361.557 0.631837 0.387121 0
M  V30 3738 H 364.204 1.88552 0.334735 0
M  V30 3739 H 362.509 2.74456 2.79609 0
M  V30 3740 H 364.206 3.07038 2.57932 0
M  V30 3741 H 360.796 4.01472 1.50061 0
M  V30 3742 H 364.98 4.86039 1.00398 0
M  V30 3743 H 360.236 6.10486 0.334264 0
M  V30 3744 H 364.41 6.96227 -0.155291 0
M  V30 3745 H 362.037 7.5858 -0.496065 0
M  V30 3746 N 363.613 -0.582584 1.46437 0
M  V30 3747 C 364.838 -1.37168 1.55563 0
M  V30 3748 C 365.263 -1.87061 0.19743 0
M  V30 3749 O 364.621 -1.61572 -0.822451 0
M  V30 3750 C 364.669 -2.53511 2.56446 0
M  V30 3751 O 363.773 -3.54953 2.09958 0
M  V30 3752 H 363.114 -0.408494 0.523477 0
M  V30 3753 H 365.644 -0.706646 1.9201 0
M  V30 3754 H 365.654 -3.00426 2.76058 0
M  V30 3755 H 364.329 -2.16549 3.55076 0
M  V30 3756 H 362.906 -3.14516 2.00334 0
M  V30 3757 N 365.091 -1.34144 -0.827227 0
M  V30 3758 C 366.368 -1.16844 -1.56865 0
M  V30 3759 C 366.748 0.260654 -2.09485 0
M  V30 3760 O 366.096 1.26138 -1.9053 0
M  V30 3761 C 366.306 -2.21939 -2.6934 0
M  V30 3762 C 367.654 -2.56695 -3.3822 0
M  V30 3763 O 368.678 -2.20695 -2.79593 0
M  V30 3764 O 367.537 -3.18518 -4.44082 0
M  V30 3765 H 364.631 -0.452669 -0.692112 0
M  V30 3766 H 367.177 -1.45763 -0.868973 0
M  V30 3767 H 365.949 -3.17882 -2.28182 0
M  V30 3768 H 365.572 -1.94172 -3.46962 0
M  V30 3769 N 366.569 1.04691 -1.17803 0
M  V30 3770 C 367.815 1.78045 -0.970969 0
M  V30 3771 C 368.148 1.87686 0.498751 0
M  V30 3772 O 367.423 1.38035 1.37027 0
M  V30 3773 C 367.706 3.2166 -1.61884 0
M  V30 3774 C 367.559 3.20001 -3.161 0
M  V30 3775 C 368.878 4.1962 -1.3269 0
M  V30 3776 H 365.997 0.64633 -0.354155 0
M  V30 3777 H 368.639 1.22333 -1.45378 0
M  V30 3778 H 366.789 3.69232 -1.20831 0
M  V30 3779 H 368.461 2.80467 -3.66246 0
M  V30 3780 H 366.704 2.58203 -3.48588 0
M  V30 3781 H 367.375 4.21386 -3.56564 0
M  V30 3782 H 369.851 3.80567 -1.68249 0
M  V30 3783 H 368.727 5.18339 -1.80599 0
M  V30 3784 H 368.988 4.414 -0.248622 0
M  V30 3785 N 368.047 0.979072 1.23499 0
M  V30 3786 C 369.324 0.563674 1.87302 0
M  V30 3787 C 369.704 -0.959199 1.88049 0
M  V30 3788 O 369.052 -1.83535 1.36114 0
M  V30 3789 C 369.262 1.16822 3.28867 0
M  V30 3790 C 370.61 1.26014 4.0547 0
M  V30 3791 O 371.634 1.12158 3.38082 0
M  V30 3792 O 370.493 1.48044 5.26066 0
M  V30 3793 H 367.587 0.189602 0.804972 0
M  V30 3794 H 370.133 1.07407 1.31384 0
M  V30 3795 H 368.905 2.21049 3.22883 0
M  V30 3796 H 368.528 0.642564 3.92373 0
M  V30 3797 N 369.525 -1.3858 0.750561 0
M  V30 3798 C 370.455 -2.33102 0.136237 0
M  V30 3799 C 371.436 -1.54713 -0.706965 0
M  V30 3800 O 372.621 -1.83043 -0.648769 0
M  V30 3801 C 369.751 -3.38882 -0.760017 0
M  V30 3802 C 368.705 -4.27995 -0.0197785 0
M  V30 3803 C 368.031 -5.24605 -1.03408 0
M  V30 3804 C 369.331 -5.09554 1.14684 0
M  V30 3805 H 371.025 -2.84726 0.925822 0
M  V30 3806 H 368.571 -1.36898 0.446654 0
M  V30 3807 H 370.524 -4.0397 -1.19943 0
M  V30 3808 H 369.248 -2.85734 -1.58189 0
M  V30 3809 H 367.907 -3.64409 0.400184 0
M  V30 3810 H 367.555 -4.67746 -1.84994 0
M  V30 3811 H 367.255 -5.85081 -0.543464 0
M  V30 3812 H 368.779 -5.9257 -1.47288 0
M  V30 3813 H 370.193 -5.67899 0.785118 0
M  V30 3814 H 368.59 -5.7925 1.56812 0
M  V30 3815 H 369.66 -4.4347 1.96118 0
M  V30 3816 N 371.003 -0.499398 -1.49478 0
M  V30 3817 C 372.252 0.0475259 -2.01644 0
M  V30 3818 C 372.565 1.38195 -1.38425 0
M  V30 3819 O 373.771 2.01547 -1.8191 0
M  V30 3820 C 372.227 0.135164 -3.59646 0
M  V30 3821 C 371.835 -1.19252 -4.31837 0
M  V30 3822 C 373.579 0.632538 -4.19761 0
M  V30 3823 C 371.486 -1.06713 -5.81693 0
M  V30 3824 H 370.416 0.0215349 -0.753692 0
M  V30 3825 H 373.067 -0.638577 -1.7203 0
M  V30 3826 H 371.449 0.885681 -3.85969 0
M  V30 3827 H 372.623 -1.9562 -4.17216 0
M  V30 3828 H 370.938 -1.62321 -3.83459 0
M  V30 3829 H 373.535 0.743833 -5.29501 0
M  V30 3830 H 373.878 1.63098 -3.83021 0
M  V30 3831 H 374.411 -0.0613987 -3.97753 0
M  V30 3832 H 371.15 -2.03979 -6.22955 0
M  V30 3833 H 370.67 -0.344307 -5.98811 0
M  V30 3834 H 372.349 -0.745208 -6.42694 0
M  V30 3835 N 372.481 1.55866 -0.233164 0
M  V30 3836 C 373.892 1.847 0.272554 0
M  V30 3837 C 374.243 1.15477 1.58617 0
M  V30 3838 O 373.368 0.42841 2.12117 0
M  V30 3839 C 373.963 3.35071 0.501299 0
M  V30 3840 C 372.522 3.6418 0.951304 0
M  V30 3841 C 371.669 2.77292 0.0208209 0
M  V30 3842 H 374.62 1.52005 -0.456074 0
M  V30 3843 H 374.641 3.55906 1.34577 0
M  V30 3844 H 374.153 3.85424 -0.454936 0
M  V30 3845 H 372.254 3.19293 1.92049 0
M  V30 3846 H 372.367 4.72071 0.817675 0
M  V30 3847 H 370.731 2.49131 0.529723 0
M  V30 3848 H 371.514 3.30448 -0.93054 0
M  V30 3849 N 373.959 -0.0401083 1.57549 0
M  V30 3850 C 374.892 -1.07689 2.01192 0
M  V30 3851 C 375.87 -1.358 0.894273 0
M  V30 3852 O 377.054 -1.48642 1.15921 0
M  V30 3853 C 374.181 -2.41418 2.3756 0
M  V30 3854 C 373.227 -2.29237 3.59656 0
M  V30 3855 S 374.06 -1.65628 5.09242 0
M  V30 3856 C 375.216 -3.0087 5.48843 0
M  V30 3857 H 375.449 -0.705108 2.88817 0
M  V30 3858 H 372.982 -0.249724 1.52367 0
M  V30 3859 H 374.94 -3.18329 2.59186 0
M  V30 3860 H 373.601 -2.75747 1.50407 0
M  V30 3861 H 372.794 -3.27932 3.82722 0
M  V30 3862 H 372.396 -1.60469 3.37825 0
M  V30 3863 H 374.688 -3.97201 5.48851 0
M  V30 3864 H 375.631 -2.82549 6.49286 0
M  V30 3865 H 376.039 -3.02934 4.76331 0
M  V30 3866 N 375.437 -1.54477 -0.31217 0
M  V30 3867 C 376.385 -1.85395 -1.40469 0
M  V30 3868 C 377.379 -0.726749 -1.53019 0
M  V30 3869 O 378.585 -0.910582 -1.55269 0
M  V30 3870 H 374.96 -0.587845 -0.46898 0
M  V30 3871 H 376.931 -2.76736 -1.11623 0
M  V30 3872 C 375.68 -2.10811 -2.76503 0
M  V30 3873 H 375.003 -2.97014 -2.67625 0
M  V30 3874 H 376.443 -2.3639 -3.51988 0
M  V30 3875 C 374.902 -0.903165 -3.24568 0
M  V30 3876 O 375.432 -0.118085 -4.01526 0
M  V30 3877 N 373.638 -0.711634 -2.81752 0
M  V30 3878 H 373.185 -1.35171 -2.19286 0
M  V30 3879 H 373.143 0.0930473 -3.14262 0
M  V30 3880 N 376.915 0.57481 -1.46744 0
M  V30 3881 C 378.192 1.3352 -1.4294 0
M  V30 3882 C 378.572 2.10775 -0.117009 0
M  V30 3883 O 377.92 2.09966 0.901474 0
M  V30 3884 C 378.13 2.25456 -2.66403 0
M  V30 3885 C 379.478 2.87035 -3.12883 0
M  V30 3886 O 380.502 2.35766 -2.67007 0
M  V30 3887 O 379.361 3.80179 -3.92589 0
M  V30 3888 H 376.455 0.600318 -0.568812 0
M  V30 3889 H 379.001 0.595171 -1.58921 0
M  V30 3890 H 377.773 1.67851 -3.53471 0
M  V30 3891 H 377.396 3.06785 -2.52921 0
M  V30 3892 N 378.394 1.34581 0.820102 0
M  V30 3893 C 379.344 1.22943 1.92013 0
M  V30 3894 C 380.328 0.127802 1.60392 0
M  V30 3895 O 381.52 0.357737 1.73347 0
M  V30 3896 C 378.649 0.989938 3.28717 0
M  V30 3897 C 377.735 2.13486 3.66449 0
M  V30 3898 N 378.126 3.38625 3.75722 0
M  V30 3899 C 376.424 2.04573 3.96315 0
M  V30 3900 C 377.125 4.13832 4.08801 0
M  V30 3901 N 376.101 3.42451 4.22171 0
M  V30 3902 H 379.903 2.17771 1.97365 0
M  V30 3903 H 377.417 1.2686 1.01392 0
M  V30 3904 H 379.414 0.887462 4.07345 0
M  V30 3905 H 378.074 0.0503691 3.24661 0
M  V30 3906 H 379.085 3.73143 3.59144 0
M  V30 3907 H 375.762 1.1839 4.00362 0
M  V30 3908 H 377.152 5.21909 4.23156 0
M  V30 3909 N 379.872 -1.04064 1.18357 0
M  V30 3910 C 380.82 -2.14187 0.907007 0
M  V30 3911 C 381.814 -1.68879 -0.132725 0
M  V30 3912 O 383.02 -1.79993 0.0154248 0
M  V30 3913 H 379.395 -0.699585 0.275835 0
M  V30 3914 H 381.366 -2.34711 1.84264 0
M  V30 3915 C 380.115 -3.44785 0.449254 0
M  V30 3916 H 379.438 -3.80058 1.24081 0
M  V30 3917 H 380.878 -4.22974 0.294737 0
M  V30 3918 C 379.337 -3.26391 -0.834909 0
M  V30 3919 O 379.867 -3.53973 -1.89911 0
M  V30 3920 N 378.073 -2.79726 -0.787523 0
M  V30 3921 H 377.62 -2.5748 0.0787347 0
M  V30 3922 H 377.578 -2.67798 -1.64716 0
M  V30 3923 N 381.35 -0.985608 -1.22978 0
M  V30 3924 C 382.313 -0.535071 -2.22867 0
M  V30 3925 C 383.313 0.378123 -1.56291 0
M  V30 3926 O 384.503 0.171092 -1.73358 0
M  V30 3927 C 381.635 0.222702 -3.40172 0
M  V30 3928 H 382.828 -1.41835 -2.6424 0
M  V30 3929 H 380.381 -0.772042 -1.35901 0
M  V30 3930 H 381.116 1.12229 -3.04262 0
M  V30 3931 H 380.901 -0.43288 -3.89703 0
M  V30 3932 H 382.391 0.526335 -4.1427 0
M  V30 3933 N 382.828 1.3818 -0.7579 0
M  V30 3934 C 384.058 2.04004 -0.326463 0
M  V30 3935 C 384.466 1.57286 1.05156 0
M  V30 3936 O 383.809 0.743144 1.67997 0
M  V30 3937 C 383.871 3.58444 -0.275402 0
M  V30 3938 C 383.535 4.28237 -1.59569 0
M  V30 3939 C 384.532 4.53312 -2.54566 0
M  V30 3940 C 382.217 4.66341 -1.86631 0
M  V30 3941 C 384.211 5.15531 -3.74842 0
M  V30 3942 C 381.898 5.28283 -3.0718 0
M  V30 3943 C 382.896 5.52814 -4.01106 0
M  V30 3944 O 382.584 6.13465 -5.19534 0
M  V30 3945 H 382.316 0.662026 -0.136739 0
M  V30 3946 H 384.87 1.7777 -1.02893 0
M  V30 3947 H 383.1 3.83667 0.483337 0
M  V30 3948 H 384.789 4.05701 0.127099 0
M  V30 3949 H 385.555 4.24299 -2.34936 0
M  V30 3950 H 381.434 4.46591 -1.14358 0
M  V30 3951 H 384.978 5.34594 -4.48168 0
M  V30 3952 H 380.875 5.56719 -3.26702 0
M  V30 3953 H 381.643 6.31951 -5.20173 0
M  V30 3954 N 384.306 0.507319 1.49211 0
M  V30 3955 C 385.722 0.163682 1.58758 0
M  V30 3956 C 385.922 -1.33208 1.51188 0
M  V30 3957 O 384.978 -2.10855 1.38911 0
M  V30 3958 C 386.291 0.746095 2.91297 0
M  V30 3959 C 387.839 0.712773 3.04776 0
M  V30 3960 C 388.314 1.27336 4.39943 0
M  V30 3961 N 389.805 1.23433 4.46451 0
M  V30 3962 C 390.54 1.63821 5.495 0
M  V30 3963 N 390.036 2.11832 6.5962 0
M  V30 3964 N 391.829 1.55198 5.4025 0
M  V30 3965 H 383.98 1.47972 1.52375 0
M  V30 3966 H 386.243 0.614147 0.722168 0
M  V30 3967 H 385.949 1.79534 3.02424 0
M  V30 3968 H 385.823 0.210137 3.76614 0
M  V30 3969 H 388.21 -0.327656 2.93275 0
M  V30 3970 H 388.291 1.28595 2.21127 0
M  V30 3971 H 387.935 2.3126 4.52196 0
M  V30 3972 H 387.865 0.676066 5.22242 0
M  V30 3973 H 390.356 0.882627 3.67448 0
M  V30 3974 H 390.669 2.40703 7.34358 0
M  V30 3975 H 389.014 2.1581 6.60644 0
M  V30 3976 H 392.205 1.17505 4.53112 0
M  V30 3977 H 392.378 1.86997 6.20432 0
M  V30 3978 N 385.784 -1.5574 0.241426 0
M  V30 3979 C 387.024 -2.00714 -0.38644 0
M  V30 3980 C 387.388 -1.12586 -1.55526 0
M  V30 3981 O 388.589 -1.46992 -2.25048 0
M  V30 3982 C 386.86 -3.48534 -0.791128 0
M  V30 3983 S 388.419 -4.15519 -1.41029 0
M  V30 3984 H 385.237 -0.700484 -0.121834 0
M  V30 3985 H 387.839 -1.92243 0.355377 0
M  V30 3986 H 386.543 -4.10342 0.0689225 0
M  V30 3987 H 386.074 -3.6092 -1.56526 0
M  V30 3988 H 388.089 -4.16352 -2.69936 0
M  V30 3989 N 387.262 0.0317525 -1.57568 0
M  V30 3990 C 388.509 0.723104 -1.89149 0
M  V30 3991 C 388.837 1.75504 -0.838377 0
M  V30 3992 O 388.092 1.95037 0.160982 0
M  V30 3993 C 388.391 1.43167 -3.27472 0
M  V30 3994 C 388.057 0.535972 -4.47703 0
M  V30 3995 C 386.719 0.289262 -4.8033 0
M  V30 3996 C 389.071 -0.0826125 -5.21135 0
M  V30 3997 C 386.399 -0.584853 -5.83778 0
M  V30 3998 C 388.751 -0.944414 -6.25511 0
M  V30 3999 C 387.415 -1.20061 -6.56614 0
M  V30 4000 H 386.685 0.264602 -0.692146 0
M  V30 4001 H 389.332 -0.0169496 -1.91492 0
M  V30 4002 H 387.637 2.24497 -3.21105 0
M  V30 4003 H 389.334 1.97209 -3.49155 0
M  V30 4004 H 385.924 0.738414 -4.22191 0
M  V30 4005 H 390.108 0.0950302 -4.96209 0
M  V30 4006 H 385.364 -0.79168 -6.06253 0
M  V30 4007 H 389.538 -1.43026 -6.81554 0
M  V30 4008 H 387.165 -1.87967 -7.36595 0
M  V30 4009 N 388.74 1.54641 0.303973 0
M  V30 4010 C 389.965 1.78092 1.06292 0
M  V30 4011 C 390.39 0.537342 1.80262 0
M  V30 4012 O 389.748 -0.511993 1.7392 0
M  V30 4013 C 389.796 2.98612 2.02147 0
M  V30 4014 O 388.9 2.71528 3.10397 0
M  V30 4015 H 388.241 0.589548 0.305497 0
M  V30 4016 H 390.771 2.01716 0.3423 0
M  V30 4017 H 390.781 3.265 2.44667 0
M  V30 4018 H 389.456 3.88785 1.47714 0
M  V30 4019 H 388.033 2.54648 2.72413 0
M  V30 4020 N 390.218 -0.567019 1.47046 0
M  V30 4021 C 391.15 -1.68985 1.54844 0
M  V30 4022 C 392.163 -1.56869 0.435431 0
M  V30 4023 O 393.352 -1.64006 0.70457 0
M  V30 4024 C 390.452 -3.07373 1.42742 0
M  V30 4025 C 389.625 -3.45339 2.6844 0
M  V30 4026 C 388.684 -4.62849 2.50314 0
M  V30 4027 O 387.71 -4.67922 3.24095 0
M  V30 4028 N 388.912 -5.58726 1.57499 0
M  V30 4029 H 391.677 -1.62745 2.51663 0
M  V30 4030 H 389.238 -0.753411 1.43302 0
M  V30 4031 H 391.23 -3.83803 1.28365 0
M  V30 4032 H 389.8 -3.07893 0.540445 0
M  V30 4033 H 389.02 -2.58455 2.97648 0
M  V30 4034 H 390.308 -3.67476 3.51907 0
M  V30 4035 H 389.706 -5.57376 0.966876 0
M  V30 4036 H 388.263 -6.34523 1.49078 0
M  V30 4037 N 391.696 -1.35014 -0.812953 0
M  V30 4038 C 393.107 -1.25035 -1.38648 0
M  V30 4039 C 393.458 0.119967 -1.95833 0
M  V30 4040 O 392.583 1.02069 -1.90816 0
M  V30 4041 C 393.178 -2.26394 -2.52054 0
M  V30 4042 C 391.737 -2.20175 -3.05287 0
M  V30 4043 C 390.884 -2.12451 -1.78213 0
M  V30 4044 H 393.835 -1.46235 -0.616516 0
M  V30 4045 H 393.856 -1.88672 -3.30429 0
M  V30 4046 H 393.368 -3.26116 -2.10404 0
M  V30 4047 H 391.469 -1.23841 -3.51417 0
M  V30 4048 H 391.582 -3.11863 -3.63701 0
M  V30 4049 H 389.946 -1.58328 -1.9951 0
M  V30 4050 H 390.729 -3.14024 -1.38723 0
M  V30 4051 N 393.175 1.03435 -1.18907 0
M  V30 4052 C 394.591 1.28973 -0.940111 0
M  V30 4053 C 394.791 1.97676 0.390691 0
M  V30 4054 O 393.847 2.26127 1.12352 0
M  V30 4055 C 395.16 2.14221 -2.11021 0
M  V30 4056 C 396.708 2.27547 -2.14922 0
M  V30 4057 C 397.183 3.16164 -3.31367 0
M  V30 4058 N 398.674 3.23752 -3.31269 0
M  V30 4059 C 399.409 3.92495 -4.18014 0
M  V30 4060 N 398.905 4.63515 -5.14904 0
M  V30 4061 N 400.698 3.88838 -4.05908 0
M  V30 4062 H 392.849 0.57252 -2.04538 0
M  V30 4063 H 395.112 0.315184 -0.894071 0
M  V30 4064 H 394.818 1.71054 -3.073 0
M  V30 4065 H 394.692 3.14919 -2.0762 0
M  V30 4066 H 397.079 2.69947 -1.19217 0
M  V30 4067 H 397.16 1.26418 -2.22378 0
M  V30 4068 H 396.804 2.74474 -4.27348 0
M  V30 4069 H 396.734 4.17339 -3.21148 0
M  V30 4070 H 399.225 2.73167 -2.61129 0
M  V30 4071 H 399.538 5.13583 -5.77453 0
M  V30 4072 H 397.883 4.62398 -5.18857 0
M  V30 4073 H 401.074 3.32491 -3.29495 0
M  V30 4074 H 401.247 4.4214 -4.73726 0
M  V30 4075 N 394.653 0.992116 1.22453 0
M  V30 4076 C 395.603 0.512969 2.22155 0
M  V30 4077 C 396.587 -0.418416 1.55364 0
M  V30 4078 O 397.779 -0.245363 1.75291 0
M  V30 4079 C 394.908 -0.171822 3.4287 0
M  V30 4080 C 393.994 0.779822 4.16869 0
M  V30 4081 N 394.385 1.92734 4.6764 0
M  V30 4082 C 392.683 0.59554 4.42006 0
M  V30 4083 C 393.384 2.52458 5.24061 0
M  V30 4084 N 392.36 1.80735 5.12675 0
M  V30 4085 H 396.162 1.38817 2.5905 0
M  V30 4086 H 393.676 0.854277 1.38115 0
M  V30 4087 H 395.673 -0.532469 4.13486 0
M  V30 4088 H 394.333 -1.04317 3.07487 0
M  V30 4089 H 395.344 2.30816 4.63621 0
M  V30 4090 H 392.021 -0.229805 4.16867 0
M  V30 4091 H 393.411 3.49433 5.73887 0
M  V30 4092 N 396.131 -1.37776 0.765217 0
M  V30 4093 C 397.38 -1.99092 0.323307 0
M  V30 4094 C 397.693 -1.61434 -1.10446 0
M  V30 4095 O 398.899 -2.15805 -1.64743 0
M  V30 4096 C 397.355 -3.56019 0.527098 0
M  V30 4097 C 396.963 -4.0262 1.96471 0
M  V30 4098 C 398.707 -4.2424 0.148483 0
M  V30 4099 C 396.614 -5.52233 2.11644 0
M  V30 4100 H 395.544 -0.744846 0.117137 0
M  V30 4101 H 398.195 -1.57391 0.943417 0
M  V30 4102 H 396.577 -3.95667 -0.162372 0
M  V30 4103 H 397.751 -3.74234 2.68859 0
M  V30 4104 H 396.066 -3.47161 2.29931 0
M  V30 4105 H 398.663 -5.34159 0.240456 0
M  V30 4106 H 399.006 -4.06446 -0.900422 0
M  V30 4107 H 399.539 -3.89872 0.79025 0
M  V30 4108 H 396.278 -5.74945 3.1483 0
M  V30 4109 H 395.798 -5.82324 1.4373 0
M  V30 4110 H 397.477 -6.18106 1.91193 0
M  V30 4111 N 397.609 -0.515225 -1.4894 0
M  V30 4112 C 398.834 0.022727 -2.07388 0
M  V30 4113 C 399.259 1.2876 -1.37122 0
M  V30 4114 O 398.617 1.76067 -0.432431 0
M  V30 4115 C 398.665 0.244869 -3.59768 0
M  V30 4116 O 397.769 1.31667 -3.90817 0
M  V30 4117 H 397.11 -0.0325506 -0.663202 0
M  V30 4118 H 399.64 -0.718918 -1.91553 0
M  V30 4119 H 399.65 0.47205 -4.0526 0
M  V30 4120 H 398.325 -0.679194 -4.10317 0
M  V30 4121 H 396.902 1.07331 -3.5712 0
M  V30 4122 N 399.087 1.5561 -0.249682 0
M  V30 4123 C 400.333 1.99306 0.374841 0
M  V30 4124 C 400.666 1.13767 1.57387 0
M  V30 4125 O 399.941 0.201711 1.93451 0
M  V30 4126 C 400.224 3.51507 0.781986 0
M  V30 4127 C 400.077 4.4781 -0.422629 0
M  V30 4128 C 401.396 4.08884 1.62793 0
M  V30 4129 H 398.515 0.724572 0.134773 0
M  V30 4130 H 401.157 1.86719 -0.351549 0
M  V30 4131 H 399.307 3.62363 1.4009 0
M  V30 4132 H 400.979 4.48931 -1.06108 0
M  V30 4133 H 399.222 4.20518 -1.06524 0
M  V30 4134 H 399.893 5.51919 -0.0943766 0
M  V30 4135 H 402.369 4.01147 1.10547 0
M  V30 4136 H 401.245 5.1564 1.88166 0
M  V30 4137 H 401.506 3.57515 2.60068 0
M  V30 4138 N 400.565 -0.0233959 1.57583 0
M  V30 4139 C 401.528 -1.00693 2.05897 0
M  V30 4140 C 402.528 -1.28693 0.964092 0
M  V30 4141 O 403.718 -1.23602 1.22753 0
M  V30 4142 C 400.85 -2.33825 2.4807 0
M  V30 4143 H 402.043 -0.589476 2.9405 0
M  V30 4144 H 399.596 -0.270354 1.53944 0
M  V30 4145 H 400.331 -2.80307 1.6309 0
M  V30 4146 H 400.116 -2.1483 3.2801 0
M  V30 4147 H 401.606 -3.04426 2.85857 0
M  V30 4148 N 402.043 -1.548 -0.295768 0
M  V30 4149 C 402.976 -1.81003 -1.38972 0
M  V30 4150 C 403.954 -0.661544 -1.48534 0
M  V30 4151 O 405.138 -0.902074 -1.65514 0
M  V30 4152 C 402.265 -1.95141 -2.76835 0
M  V30 4153 C 401.311 -3.17592 -2.84671 0
M  V30 4154 S 402.144 -4.75531 -2.46232 0
M  V30 4155 C 403.3 -4.92613 -3.86114 0
M  V30 4156 H 403.533 -2.73507 -1.16537 0
M  V30 4157 H 401.066 -1.46278 -0.494168 0
M  V30 4158 H 403.024 -2.03972 -3.56238 0
M  V30 4159 H 401.685 -1.03565 -2.96535 0
M  V30 4160 H 400.878 -3.24303 -3.85803 0
M  V30 4161 H 400.48 -3.07235 -2.13267 0
M  V30 4162 H 402.772 -4.76957 -4.81164 0
M  V30 4163 H 403.715 -5.94698 -3.8437 0
M  V30 4164 H 404.123 -4.2073 -3.76359 0
M  V30 4165 N 403.521 0.559213 -1.47345 0
M  V30 4166 C 404.798 1.31997 -1.44348 0
M  V30 4167 C 405.178 2.1064 -0.139358 0
M  V30 4168 O 404.526 2.1091 0.879153 0
M  V30 4169 C 404.736 2.22618 -2.68779 0
M  V30 4170 C 406.084 2.83701 -3.1591 0
M  V30 4171 O 407.108 2.32921 -2.69493 0
M  V30 4172 O 405.967 3.75993 -3.966 0
M  V30 4173 H 403.061 0.594251 -0.575147 0
M  V30 4174 H 405.607 0.578282 -1.59543 0
M  V30 4175 H 404.379 1.64093 -3.55231 0
M  V30 4176 H 404.002 3.04085 -2.5616 0
M  V30 4177 N 404.999 1.35443 0.805782 0
M  V30 4178 C 405.946 1.28431 1.91766 0
M  V30 4179 C 406.916 0.156102 1.65365 0
M  V30 4180 O 408.101 0.339936 1.87747 0
M  V30 4181 C 405.241 1.06301 3.2832 0
M  V30 4182 C 404.354 2.2805 3.66902 0
M  V30 4183 C 403.489 1.99064 4.92491 0
M  V30 4184 C 402.528 3.16863 5.23703 0
M  V30 4185 N 401.665 2.87647 6.40471 0
M  V30 4186 H 406.505 2.23511 1.97096 0
M  V30 4187 H 404.042 1.11105 0.964054 0
M  V30 4188 H 406 0.915012 4.07042 0
M  V30 4189 H 404.63 0.148822 3.22457 0
M  V30 4190 H 403.682 2.53711 2.83434 0
M  V30 4191 H 404.994 3.1601 3.85927 0
M  V30 4192 H 404.148 1.81099 5.7904 0
M  V30 4193 H 402.887 1.0839 4.75503 0
M  V30 4194 H 401.892 3.35404 4.35642 0
M  V30 4195 H 403.117 4.08339 5.4262 0
M  V30 4196 H 401.063 1.99568 6.24907 0
M  V30 4197 H 400.98 3.69141 6.59751 0
M  V30 4198 H 402.248 2.73226 7.30047 0
M  V30 4199 N 406.477 -1.02803 1.19454 0
M  V30 4200 C 407.724 -1.76217 0.997693 0
M  V30 4201 C 408.052 -1.887 -0.47144 0
M  V30 4202 O 407.307 -1.4011 -1.3663 0
M  V30 4203 C 407.606 -3.18941 1.6128 0
M  V30 4204 C 407.272 -3.26463 3.11019 0
M  V30 4205 C 405.934 -3.28223 3.51885 0
M  V30 4206 C 408.286 -3.25542 4.07028 0
M  V30 4207 C 405.614 -3.26719 4.8731 0
M  V30 4208 C 407.966 -3.25579 5.42385 0
M  V30 4209 C 406.63 -3.25637 5.82681 0
M  V30 4210 H 405.9 -0.644823 0.365082 0
M  V30 4211 H 408.547 -1.20655 1.4871 0
M  V30 4212 H 406.852 -3.77587 1.04572 0
M  V30 4213 H 408.549 -3.74415 1.43577 0
M  V30 4214 H 405.139 -3.25822 2.78457 0
M  V30 4215 H 409.323 -3.23362 3.76498 0
M  V30 4216 H 404.579 -3.25089 5.1781 0
M  V30 4217 H 408.753 -3.23817 6.16535 0
M  V30 4218 H 406.38 -3.24226 6.87591 0
M  V30 4219 N 407.956 -0.998596 -1.21925 0
M  V30 4220 C 409.204 -0.676325 -1.90448 0
M  V30 4221 C 409.525 0.794719 -1.78071 0
M  V30 4222 O 408.795 1.5701 -1.17152 0
M  V30 4223 H 407.375 -0.247165 -0.704925 0
M  V30 4224 H 410.037 -1.26633 -1.48156 0
M  V30 4225 H 409.133 -0.943858 -2.97486 0
M  V30 4226 N 409.434 1.37368 -0.772513 0
M  V30 4227 C 410.681 1.99673 -0.337182 0
M  V30 4228 C 411.009 1.61324 1.0865 0
M  V30 4229 O 410.264 0.851377 1.7621 0
M  V30 4230 C 410.563 3.54817 -0.428876 0
M  V30 4231 C 410.229 4.12936 -1.81092 0
M  V30 4232 C 408.891 4.28523 -2.1891 0
M  V30 4233 C 411.243 4.44801 -2.71664 0
M  V30 4234 C 408.571 4.73277 -3.46735 0
M  V30 4235 C 410.923 4.90981 -3.98899 0
M  V30 4236 C 409.587 5.04773 -4.36761 0
M  V30 4237 H 408.857 0.730656 -0.123384 0
M  V30 4238 H 411.504 1.64124 -0.986686 0
M  V30 4239 H 409.809 3.90618 0.304167 0
M  V30 4240 H 411.506 4.00933 -0.0733334 0
M  V30 4241 H 408.096 4.01233 -1.50699 0
M  V30 4242 H 412.28 4.32344 -2.43706 0
M  V30 4243 H 407.536 4.82142 -3.75964 0
M  V30 4244 H 411.71 5.14603 -4.69208 0
M  V30 4245 H 409.337 5.39211 -5.35868 0
M  V30 4246 N 410.912 0.523116 1.48665 0
M  V30 4247 C 412.137 -0.0117284 2.07397 0
M  V30 4248 C 412.562 -1.28031 1.37803 0
M  V30 4249 O 411.92 -1.75836 0.441762 0
M  V30 4250 C 411.968 -0.225786 3.59892 0
M  V30 4251 O 411.072 -1.29592 3.91509 0
M  V30 4252 H 410.413 0.0360673 0.66302 0
M  V30 4253 H 412.943 0.729066 1.9117 0
M  V30 4254 H 412.953 -0.450552 4.05505 0
M  V30 4255 H 411.628 0.700944 4.09951 0
M  V30 4256 H 410.205 -1.05436 3.57684 0
M  V30 4257 N 412.39 -1.55475 0.257931 0
M  V30 4258 C 413.32 -2.24815 -0.630912 0
M  V30 4259 C 414.301 -1.23224 -1.17259 0
M  V30 4260 O 415.486 -1.51904 -1.20991 0
M  V30 4261 C 412.616 -2.95609 -1.82298 0
M  V30 4262 C 411.57 -4.03982 -1.41359 0
M  V30 4263 C 410.896 -4.6226 -2.68738 0
M  V30 4264 C 412.196 -5.19109 -0.57648 0
M  V30 4265 H 413.89 -2.99354 -0.0526878 0
M  V30 4266 H 411.436 -1.4398 -0.023901 0
M  V30 4267 H 413.389 -3.42822 -2.45054 0
M  V30 4268 H 412.113 -2.18577 -2.42676 0
M  V30 4269 H 410.772 -3.57555 -0.809324 0
M  V30 4270 H 410.42 -3.81915 -3.27338 0
M  V30 4271 H 410.12 -5.35424 -2.42065 0
M  V30 4272 H 411.644 -5.12212 -3.32372 0
M  V30 4273 H 413.058 -5.62479 -1.10861 0
M  V30 4274 H 411.455 -5.98729 -0.405351 0
M  V30 4275 H 412.525 -4.83174 0.408776 0
M  V30 4276 N 413.868 0.0150385 -1.57593 0
M  V30 4277 C 415.279 0.559832 -1.78109 0
M  V30 4278 C 415.63 1.74814 -0.890756 0
M  V30 4279 O 414.755 2.16216 -0.0892482 0
M  V30 4280 C 415.35 1.02238 -3.23006 0
M  V30 4281 C 413.909 1.51258 -3.44671 0
M  V30 4282 C 413.056 0.456955 -2.73509 0
M  V30 4283 H 416.007 -0.211169 -1.57289 0
M  V30 4284 H 416.028 1.88912 -3.30292 0
M  V30 4285 H 415.54 0.157302 -3.87781 0
M  V30 4286 H 413.641 2.39905 -2.8509 0
M  V30 4287 H 413.754 1.55042 -4.5332 0
M  V30 4288 H 412.118 0.915196 -2.37689 0
M  V30 4289 H 412.901 -0.398896 -3.40975 0
M  V30 4290 N 415.346 1.54954 0.287554 0
M  V30 4291 C 416.576 1.78622 1.03816 0
M  V30 4292 C 416.984 0.552451 1.80955 0
M  V30 4293 O 416.327 -0.487665 1.77109 0
M  V30 4294 C 416.389 2.94975 2.055 0
M  V30 4295 C 416.053 4.32565 1.47433 0
M  V30 4296 C 417.05 5.12096 0.897436 0
M  V30 4297 C 414.735 4.79195 1.50591 0
M  V30 4298 C 416.729 6.36383 0.359851 0
M  V30 4299 C 414.416 6.03441 0.964459 0
M  V30 4300 C 415.414 6.81872 0.392413 0
M  V30 4301 O 415.102 8.03777 -0.140788 0
M  V30 4302 H 414.834 0.599144 0.313053 0
M  V30 4303 H 417.388 2.02761 0.328225 0
M  V30 4304 H 415.618 2.66493 2.80211 0
M  V30 4305 H 417.307 3.06097 2.6657 0
M  V30 4306 H 418.073 4.77209 0.865841 0
M  V30 4307 H 413.952 4.18167 1.94055 0
M  V30 4308 H 417.496 6.97545 -0.0872951 0
M  V30 4309 H 413.393 6.37813 0.993246 0
M  V30 4310 H 414.161 8.18495 -0.0287617 0
M  V30 4311 N 416.824 -0.551391 1.4764 0
M  V30 4312 C 418.07 -1.31024 1.54792 0
M  V30 4313 C 418.403 -1.9304 0.211967 0
M  V30 4314 O 417.678 -1.78175 -0.77999 0
M  V30 4315 C 417.961 -2.41593 2.67029 0
M  V30 4316 C 417.814 -1.84408 4.10261 0
M  V30 4317 C 419.133 -3.43488 2.75143 0
M  V30 4318 H 416.252 -0.475031 0.563485 0
M  V30 4319 H 418.894 -0.616454 1.79722 0
M  V30 4320 H 417.044 -3.00772 2.45904 0
M  V30 4321 H 418.716 -1.29445 4.42766 0
M  V30 4322 H 416.959 -1.15051 4.18265 0
M  V30 4323 H 417.63 -2.64367 4.84576 0
M  V30 4324 H 420.106 -2.94236 2.94218 0
M  V30 4325 H 418.982 -4.18274 3.55441 0
M  V30 4326 H 419.243 -4.02703 1.82435 0
M  V30 4327 N 418.302 -1.35869 -0.798587 0
M  V30 4328 C 419.234 -1.25305 -1.91915 0
M  V30 4329 C 420.247 -0.174548 -1.61862 0
M  V30 4330 O 421.436 -0.428499 -1.73281 0
M  V30 4331 C 418.536 -0.9086 -3.26493 0
M  V30 4332 C 417.709 -2.08711 -3.84394 0
M  V30 4333 C 416.768 -1.71717 -4.97393 0
M  V30 4334 O 415.794 -2.43692 -5.14396 0
M  V30 4335 N 416.996 -0.645473 -5.769 0
M  V30 4336 H 419.761 -2.21849 -2.01502 0
M  V30 4337 H 417.322 -1.29143 -0.976408 0
M  V30 4338 H 419.314 -0.642455 -3.99568 0
M  V30 4339 H 417.884 -0.0325815 -3.12583 0
M  V30 4340 H 417.104 -2.51659 -3.03416 0
M  V30 4341 H 418.392 -2.87468 -4.19809 0
M  V30 4342 H 417.79 -0.047648 -5.6568 0
M  V30 4343 H 416.347 -0.43913 -6.50319 0
M  V30 4344 N 419.78 1.02168 -1.19998 0
M  V30 4345 C 421.01 1.79036 -1.031 0
M  V30 4346 C 421.418 1.84409 0.423078 0
M  V30 4347 O 420.761 1.29228 1.30559 0
M  V30 4348 C 420.823 3.25185 -1.53281 0
M  V30 4349 C 420.487 3.43431 -3.01503 0
M  V30 4350 C 421.484 3.33063 -3.99206 0
M  V30 4351 C 419.169 3.69412 -3.40353 0
M  V30 4352 C 421.163 3.48413 -5.33748 0
M  V30 4353 C 418.85 3.84406 -4.75053 0
M  V30 4354 C 419.848 3.7391 -5.71559 0
M  V30 4355 O 419.536 3.88452 -7.03818 0
M  V30 4356 H 419.268 0.570043 -0.363355 0
M  V30 4357 H 421.822 1.29524 -1.59414 0
M  V30 4358 H 420.052 3.75756 -0.913483 0
M  V30 4359 H 421.741 3.83671 -1.32481 0
M  V30 4360 H 422.507 3.12934 -3.70537 0
M  V30 4361 H 418.386 3.76671 -2.65782 0
M  V30 4362 H 421.93 3.40137 -6.09059 0
M  V30 4363 H 417.827 4.04035 -5.03415 0
M  V30 4364 H 418.595 4.055 -7.10993 0
M  V30 4365 N 421.258 1.00505 1.21394 0
M  V30 4366 C 422.505 0.687774 1.90462 0
M  V30 4367 C 422.833 -0.78147 1.7811 0
M  V30 4368 O 422.088 -1.58208 1.1519 0
M  V30 4369 C 422.387 1.0546 3.41486 0
M  V30 4370 C 422.053 2.51812 3.74034 0
M  V30 4371 C 420.715 2.91804 3.82628 0
M  V30 4372 C 423.067 3.46614 3.8924 0
M  V30 4373 C 420.395 4.2556 4.03876 0
M  V30 4374 C 422.747 4.80044 4.11995 0
M  V30 4375 C 421.411 5.19759 4.18816 0
M  V30 4376 H 420.681 0.251674 0.696951 0
M  V30 4377 H 423.328 1.26349 1.43903 0
M  V30 4378 H 421.633 0.397133 3.89782 0
M  V30 4379 H 423.33 0.786976 3.93202 0
M  V30 4380 H 419.92 2.1982 3.67936 0
M  V30 4381 H 424.104 3.16883 3.81967 0
M  V30 4382 H 419.36 4.55901 4.07387 0
M  V30 4383 H 423.534 5.53439 4.22704 0
M  V30 4384 H 421.161 6.23418 4.35033 0
M  V30 4385 N 422.737 -1.36956 0.779787 0
M  V30 4386 C 423.985 -1.99097 0.347079 0
M  V30 4387 C 424.306 -1.62206 -1.08232 0
M  V30 4388 O 423.576 -0.891373 -1.74446 0
M  V30 4389 H 422.156 -0.736409 0.125342 0
M  V30 4390 H 424.818 -1.67308 0.999696 0
M  V30 4391 H 423.914 -3.09107 0.431162 0
M  V30 4392 N 424.215 -0.530993 -1.48385 0
M  V30 4393 C 425.463 0.00273189 -2.021 0
M  V30 4394 C 425.784 1.34672 -1.41027 0
M  V30 4395 O 425.054 1.8724 -0.576012 0
M  V30 4396 H 423.634 0.00399774 -0.746989 0
M  V30 4397 H 426.296 -0.695054 -1.82085 0
M  V30 4398 H 425.392 0.11031 -3.11905 0
M  V30 4399 N 425.693 1.55336 -0.266172 0
M  V30 4400 C 426.939 1.99692 0.353681 0
M  V30 4401 C 427.272 1.1543 1.56172 0
M  V30 4402 O 426.547 0.222218 1.93226 0
M  V30 4403 C 426.83 3.52316 0.74466 0
M  V30 4404 C 426.683 4.47337 -0.470101 0
M  V30 4405 C 428.002 4.10588 1.58447 0
M  V30 4406 H 425.121 0.725961 0.12708 0
M  V30 4407 H 427.763 1.86336 -0.371333 0
M  V30 4408 H 425.913 3.63829 1.36239 0
M  V30 4409 H 427.585 4.4778 -1.10864 0
M  V30 4410 H 425.828 4.19364 -1.10978 0
M  V30 4411 H 426.499 5.51788 -0.15291 0
M  V30 4412 H 428.975 4.02297 1.06286 0
M  V30 4413 H 427.851 5.17607 1.82686 0
M  V30 4414 H 428.112 3.60253 2.56262 0
M  V30 4415 N 427.171 -0.0066808 1.57599 0
M  V30 4416 C 428.396 -0.707738 1.94951 0
M  V30 4417 C 428.821 -1.66882 0.867868 0
M  V30 4418 O 428.179 -1.80457 -0.17458 0
M  V30 4419 C 428.227 -1.42162 3.31394 0
M  V30 4420 O 427.331 -2.53578 3.25226 0
M  V30 4421 H 426.672 -0.188752 0.636607 0
M  V30 4422 H 429.202 0.0445193 2.04552 0
M  V30 4423 H 429.212 -1.78655 3.66806 0
M  V30 4424 H 427.887 -0.716903 4.09675 0
M  V30 4425 H 426.464 -2.19463 3.01481 0
M  V30 4426 N 428.649 -1.55105 -0.279332 0
M  V30 4427 C 429.612 -1.86783 -1.32834 0
M  V30 4428 C 430.612 -0.74199 -1.42657 0
M  V30 4429 O 431.802 -1.0102 -1.41918 0
M  V30 4430 C 428.934 -2.06746 -2.71052 0
M  V30 4431 H 430.127 -2.8055 -1.05979 0
M  V30 4432 H 427.68 -1.47499 -0.517087 0
M  V30 4433 H 428.415 -1.15339 -3.03097 0
M  V30 4434 H 428.2 -2.88711 -2.65309 0
M  V30 4435 H 429.69 -2.32549 -3.46858 0
M  V30 4436 N 430.127 0.543554 -1.4793 0
M  V30 4437 C 431.057 1.65888 -1.64327 0
M  V30 4438 C 432.038 1.62818 -0.492383 0
M  V30 4439 O 433.223 1.80226 -0.723338 0
M  V30 4440 C 430.353 3.04506 -1.67013 0
M  V30 4441 C 429.307 3.2243 -2.81466 0
M  V30 4442 C 428.633 4.61972 -2.69233 0
M  V30 4443 C 429.933 3.06496 -4.22915 0
M  V30 4444 H 431.627 1.52421 -2.57698 0
M  V30 4445 H 429.173 0.731849 -1.24016 0
M  V30 4446 H 431.126 3.82391 -1.77074 0
M  V30 4447 H 429.85 3.18964 -0.70212 0
M  V30 4448 H 428.509 2.46957 -2.70938 0
M  V30 4449 H 428.157 4.73247 -1.7043 0
M  V30 4450 H 427.857 4.74911 -3.46025 0
M  V30 4451 H 429.381 5.41974 -2.81242 0
M  V30 4452 H 430.795 3.74186 -4.34348 0
M  V30 4453 H 429.192 3.30938 -5.006 0
M  V30 4454 H 430.262 2.03077 -4.40327 0
M  V30 4455 N 431.605 1.3629 0.791371 0
M  V30 4456 C 432.83 1.33726 1.58531 0
M  V30 4457 C 433.255 -0.0794933 1.87932 0
M  V30 4458 O 432.613 -1.05087 1.47738 0
M  V30 4459 C 432.661 2.16425 2.88431 0
M  V30 4460 O 431.765 1.5554 3.81944 0
M  V30 4461 H 431.106 0.457793 0.480959 0
M  V30 4462 H 433.636 1.79547 0.981031 0
M  V30 4463 H 433.646 2.28933 3.37718 0
M  V30 4464 H 432.321 3.19415 2.66359 0
M  V30 4465 H 430.898 1.51961 3.40532 0
M  V30 4466 N 433.083 -1.0153 1.20538 0
M  V30 4467 C 434.03 -2.10098 0.955383 0
M  V30 4468 C 435 -1.65702 -0.114878 0
M  V30 4469 O 436.185 -1.90776 0.0301118 0
M  V30 4470 C 433.325 -3.41236 0.514969 0
M  V30 4471 C 432.438 -3.99102 1.65353 0
M  V30 4472 C 431.573 -5.18306 1.16329 0
M  V30 4473 C 430.612 -5.68258 2.27485 0
M  V30 4474 N 429.749 -6.78722 1.7967 0
M  V30 4475 H 434.589 -2.30818 1.88486 0
M  V30 4476 H 432.126 -1.13189 0.939499 0
M  V30 4477 H 434.084 -4.16504 0.240935 0
M  V30 4478 H 432.714 -3.20585 -0.377512 0
M  V30 4479 H 431.766 -3.20918 2.04245 0
M  V30 4480 H 433.078 -4.32177 2.49047 0
M  V30 4481 H 432.232 -6.00782 0.845302 0
M  V30 4482 H 430.971 -4.86799 0.296254 0
M  V30 4483 H 429.976 -4.84385 2.60099 0
M  V30 4484 H 431.201 -6.01798 3.14667 0
M  V30 4485 H 429.147 -6.49042 0.95295 0
M  V30 4486 H 429.064 -7.10996 2.56944 0
M  V30 4487 H 430.332 -7.64759 1.50875 0
M  V30 4488 N 434.561 -1.01147 -1.20859 0
M  V30 4489 C 435.493 -0.535546 -2.22855 0
M  V30 4490 C 436.506 0.379323 -1.58319 0
M  V30 4491 O 437.695 0.178489 -1.77605 0
M  V30 4492 C 434.795 0.240962 -3.38042 0
M  V30 4493 C 433.968 -0.674562 -4.32167 0
M  V30 4494 C 433.027 0.053467 -5.26173 0
M  V30 4495 O 432.053 -0.567339 -5.66366 0
M  V30 4496 N 433.255 1.32997 -5.65059 0
M  V30 4497 H 436.02 -1.41268 -2.64317 0
M  V30 4498 H 433.581 -0.888386 -1.35349 0
M  V30 4499 H 435.573 0.737115 -3.97931 0
M  V30 4500 H 434.143 1.01935 -2.95513 0
M  V30 4501 H 433.363 -1.35111 -3.70322 0
M  V30 4502 H 434.651 -1.2974 -4.91981 0
M  V30 4503 H 434.049 1.85536 -5.34409 0
M  V30 4504 H 432.606 1.77095 -6.2728 0
M  V30 4505 N 436.039 1.36541 -0.78704 0
M  V30 4506 C 436.971 2.28761 -0.141773 0
M  V30 4507 C 437.984 1.49365 0.647599 0
M  V30 4508 O 439.173 1.71836 0.483173 0
M  V30 4509 C 436.273 3.28771 0.822368 0
M  V30 4510 C 435.446 4.3732 0.0835594 0
M  V30 4511 C 434.505 5.17307 0.963296 0
M  V30 4512 O 433.531 5.67638 0.421419 0
M  V30 4513 N 434.733 5.33515 2.28784 0
M  V30 4514 H 437.498 2.84777 -0.933919 0
M  V30 4515 H 435.059 1.48682 -0.640735 0
M  V30 4516 H 437.051 3.79169 1.41468 0
M  V30 4517 H 435.621 2.73412 1.5154 0
M  V30 4518 H 434.841 3.88118 -0.689809 0
M  V30 4519 H 436.129 5.0701 -0.426358 0
M  V30 4520 H 435.527 4.94234 2.75226 0
M  V30 4521 H 434.084 5.87165 2.82985 0
M  V30 4522 N 437.518 0.538854 1.48102 0
M  V30 4523 C 438.765 0.0080018 2.02498 0
M  V30 4524 C 439.093 -1.33437 1.41509 0
M  V30 4525 O 438.348 -1.87709 0.553507 0
M  V30 4526 C 438.647 -0.153808 3.57069 0
M  V30 4527 C 438.313 1.11533 4.36888 0
M  V30 4528 C 436.975 1.46314 4.58417 0
M  V30 4529 C 439.327 1.95718 4.83057 0
M  V30 4530 C 436.655 2.6516 5.23361 0
M  V30 4531 C 439.007 3.13751 5.49312 0
M  V30 4532 C 437.671 3.48866 5.69077 0
M  V30 4533 H 436.941 0.00292807 0.740994 0
M  V30 4534 H 439.588 0.706668 1.77984 0
M  V30 4535 H 437.893 -0.935309 3.80472 0
M  V30 4536 H 439.59 -0.579607 3.96789 0
M  V30 4537 H 436.18 0.834484 4.20398 0
M  V30 4538 H 440.364 1.70158 4.66219 0
M  V30 4539 H 435.62 2.92558 5.36861 0
M  V30 4540 H 439.794 3.79282 5.84053 0
M  V30 4541 H 437.421 4.41054 6.19173 0
M  V30 4542 N 438.996 -1.55193 0.274407 0
M  V30 4543 C 439.926 -2.25471 -0.607032 0
M  V30 4544 C 440.907 -1.24461 -1.15946 0
M  V30 4545 O 442.092 -1.53179 -1.19373 0
M  V30 4546 C 439.222 -2.97526 -1.79153 0
M  V30 4547 C 438.176 -4.05459 -1.37067 0
M  V30 4548 C 437.502 -4.65084 -2.6382 0
M  V30 4549 C 438.802 -5.19691 -0.521389 0
M  V30 4550 H 440.496 -2.99393 -0.0209343 0
M  V30 4551 H 438.042 -1.43997 -0.00862866 0
M  V30 4552 H 439.995 -3.45402 -2.41404 0
M  V30 4553 H 438.719 -2.21138 -2.40344 0
M  V30 4554 H 437.378 -3.58393 -0.771355 0
M  V30 4555 H 437.026 -3.85365 -3.23268 0
M  V30 4556 H 436.726 -5.37961 -2.36372 0
M  V30 4557 H 438.25 -5.15708 -3.26921 0
M  V30 4558 H 439.664 -5.63623 -1.04889 0
M  V30 4559 H 438.061 -5.99126 -0.341825 0
M  V30 4560 H 439.131 -4.82713 0.46 0
M  V30 4561 N 440.474 -0.00167713 -1.576 0
M  V30 4562 C 441.702 0.693759 -1.94922 0
M  V30 4563 C 442.117 1.67215 -0.876626 0
M  V30 4564 O 441.474 1.81929 0.144279 0
M  V30 4565 C 441.525 1.42416 -3.32265 0
M  V30 4566 O 441.246 0.485014 -4.35407 0
M  V30 4567 C 442.747 2.21395 -3.84056 0
M  V30 4568 H 439.967 0.193118 -0.642609 0
M  V30 4569 H 442.511 -0.0532952 -2.04431 0
M  V30 4570 H 440.666 2.12284 -3.24059 0
M  V30 4571 H 441.08 1.00053 -5.14868 0
M  V30 4572 H 442.554 2.67996 -4.82578 0
M  V30 4573 H 443.031 3.04142 -3.16851 0
M  V30 4574 H 443.637 1.56542 -3.95443 0
M  V30 4575 N 441.952 1.55251 0.271103 0
M  V30 4576 C 443.201 1.75151 1.00025 0
M  V30 4577 C 443.514 0.561041 1.87381 0
M  V30 4578 O 444.72 0.642506 2.63788 0
M  V30 4579 C 443.176 3.09999 1.82835 0
M  V30 4580 C 442.784 4.3662 1.00336 0
M  V30 4581 C 444.528 3.39249 2.55168 0
M  V30 4582 C 442.435 5.62506 1.82595 0
M  V30 4583 H 441.365 0.652877 0.377183 0
M  V30 4584 H 444.016 1.81708 0.255843 0
M  V30 4585 H 442.398 2.97485 2.61378 0
M  V30 4586 H 443.572 4.60055 0.261959 0
M  V30 4587 H 441.887 4.14527 0.394486 0
M  V30 4588 H 444.484 4.3051 3.1712 0
M  V30 4589 H 444.827 2.59467 3.2555 0
M  V30 4590 H 445.36 3.52869 1.83653 0
M  V30 4591 H 442.099 6.45041 1.16631 0
M  V30 4592 H 441.619 5.43211 2.54327 0
M  V30 4593 H 443.298 6.00875 2.39913 0
M  V30 4594 N 443.43 -0.535701 1.48216 0
M  V30 4595 C 444.378 -1.66179 1.62749 0
M  V30 4596 C 445.372 -1.62034 0.49409 0
M  V30 4597 O 446.578 -1.6696 0.672624 0
M  V30 4598 H 442.953 -0.550244 0.512578 0
M  V30 4599 H 444.924 -1.51063 2.57337 0
M  V30 4600 C 443.673 -3.04471 1.67907 0
M  V30 4601 H 442.996 -3.08351 2.54479 0
M  V30 4602 H 444.436 -3.82894 1.82121 0
M  V30 4603 C 442.895 -3.34314 0.416596 0
M  V30 4604 O 443.425 -3.98905 -0.473014 0
M  V30 4605 N 441.631 -2.89149 0.290038 0
M  V30 4606 H 441.178 -2.36764 1.01493 0
M  V30 4607 H 441.136 -3.09486 -0.55367 0
M  V30 4608 N 444.908 -1.36708 -0.784132 0
M  V30 4609 C 446.156 -1.30972 -1.53918 0
M  V30 4610 C 446.477 0.109086 -1.94695 0
M  V30 4611 O 445.747 1.05048 -1.65353 0
M  V30 4612 H 444.327 -0.481819 -0.570841 0
M  V30 4613 H 446.989 -1.71063 -0.934002 0
M  V30 4614 H 446.085 -1.94061 -2.44431 0
M  V30 4615 N 446.386 1.0089 -1.21074 0
M  V30 4616 C 447.633 1.74607 -1.0256 0
M  V30 4617 C 447.961 1.89426 0.44136 0
M  V30 4618 O 447.216 1.42266 1.34384 0
M  V30 4619 C 447.515 3.16335 -1.66334 0
M  V30 4620 C 447.181 3.21474 -3.16173 0
M  V30 4621 C 445.843 3.22583 -3.57062 0
M  V30 4622 C 448.195 3.19025 -4.12156 0
M  V30 4623 C 445.523 3.18925 -4.92446 0
M  V30 4624 C 447.875 3.16909 -5.47496 0
M  V30 4625 C 446.539 3.16326 -5.87787 0
M  V30 4626 H 445.809 0.638933 -0.375294 0
M  V30 4627 H 448.456 1.18274 -1.50611 0
M  V30 4628 H 446.761 3.75876 -1.10566 0
M  V30 4629 H 448.458 3.72083 -1.49516 0
M  V30 4630 H 445.048 3.2135 -2.83605 0
M  V30 4631 H 449.232 3.17332 -3.81595 0
M  V30 4632 H 444.488 3.16809 -5.22917 0
M  V30 4633 H 448.662 3.13968 -6.21609 0
M  V30 4634 H 446.289 3.13246 -6.92662 0
M  V30 4635 N 447.864 1.01787 1.20321 0
M  V30 4636 C 449.275 0.739307 1.71438 0
M  V30 4637 C 449.626 -0.742041 1.81627 0
M  V30 4638 O 448.751 -1.57903 1.47971 0
M  V30 4639 C 449.346 1.33538 3.11373 0
M  V30 4640 C 447.905 1.10566 3.59795 0
M  V30 4641 C 447.052 1.44028 2.36962 0
M  V30 4642 H 450.003 1.18718 1.05317 0
M  V30 4643 H 450.024 0.726611 3.73498 0
M  V30 4644 H 449.536 2.41352 3.03926 0
M  V30 4645 H 447.637 0.0452405 3.72573 0
M  V30 4646 H 447.75 1.78661 4.44542 0
M  V30 4647 H 446.114 0.85933 2.39766 0
M  V30 4648 H 446.897 2.52901 2.32155 0
M  V30 4649 N 449.342 -1.36122 0.79427 0
M  V30 4650 C 450.29 -2.31871 0.184023 0
M  V30 4651 C 451.284 -1.56041 -0.659365 0
M  V30 4652 O 452.49 -1.71266 -0.553906 0
M  V30 4653 H 448.865 -0.750896 0.0407373 0
M  V30 4654 H 450.836 -2.80898 1.00693 0
M  V30 4655 C 449.585 -3.41324 -0.662813 0
M  V30 4656 H 448.908 -3.99793 -0.0231944 0
M  V30 4657 H 450.348 -4.10629 -1.05639 0
M  V30 4658 C 448.807 -2.83308 -1.82313 0
M  V30 4659 O 449.337 -2.75863 -2.91997 0
M  V30 4660 N 447.543 -2.40529 -1.63077 0
M  V30 4661 H 447.09 -2.46785 -0.738591 0
M  V30 4662 H 447.048 -2.02059 -2.40872 0
M  V30 4663 N 450.82 -0.546701 -1.47814 0
M  V30 4664 C 451.768 0.220048 -2.31557 0
M  V30 4665 C 452.762 0.919472 -1.42275 0
M  V30 4666 O 453.968 0.841953 -1.59095 0
M  V30 4667 H 450.343 0.0898334 -0.746615 0
M  V30 4668 H 452.314 -0.505589 -2.94086 0
M  V30 4669 C 451.063 1.24353 -3.24702 0
M  V30 4670 H 450.386 0.714758 -3.93359 0
M  V30 4671 H 451.826 1.75112 -3.8615 0
M  V30 4672 C 450.285 2.28593 -2.47481 0
M  V30 4673 O 450.815 3.35334 -2.21165 0
M  V30 4674 N 449.021 2.02244 -2.08676 0
M  V30 4675 H 448.568 1.15455 -2.30278 0
M  V30 4676 H 448.526 2.72207 -1.57323 0
M  V30 4677 N 452.299 1.55045 -0.282633 0
M  V30 4678 C 453.529 2.03872 0.334635 0
M  V30 4679 C 453.937 1.16018 1.49454 0
M  V30 4680 O 453.28 0.174449 1.8287 0
M  V30 4681 C 453.342 3.48791 0.870905 0
M  V30 4682 C 453.006 4.56715 -0.161338 0
M  V30 4683 C 454.003 5.10513 -0.983466 0
M  V30 4684 C 451.688 5.01417 -0.297745 0
M  V30 4685 C 453.682 6.07538 -1.92811 0
M  V30 4686 C 451.369 5.98265 -1.24586 0
M  V30 4687 C 452.367 6.51208 -2.05954 0
M  V30 4688 O 452.055 7.46162 -2.99162 0
M  V30 4689 H 451.787 0.671324 0.0793742 0
M  V30 4690 H 454.341 2.01169 -0.41473 0
M  V30 4691 H 452.571 3.48758 1.67047 0
M  V30 4692 H 454.26 3.80916 1.40207 0
M  V30 4693 H 455.026 4.76785 -0.888856 0
M  V30 4694 H 450.905 4.59849 0.325604 0
M  V30 4695 H 454.449 6.48787 -2.56363 0
M  V30 4696 H 450.346 6.31412 -1.34126 0
M  V30 4697 H 451.114 7.63903 -2.93929 0
M  V30 4698 N 453.777 0.010035 1.57597 0
M  V30 4699 C 455.023 -0.668011 1.92118 0
M  V30 4700 C 455.378 -1.70821 0.885328 0
M  V30 4701 O 454.671 -1.91333 -0.101187 0
M  V30 4702 C 454.865 -1.34434 3.31153 0
M  V30 4703 C 454.694 -0.371176 4.48166 0
M  V30 4704 C 453.464 0.0220686 5.05295 0
M  V30 4705 C 455.662 0.366731 5.12991 0
M  V30 4706 N 453.644 0.9924 6.05826 0
M  V30 4707 C 455.015 1.19142 6.08445 0
M  V30 4708 C 457.07 0.429489 4.96044 0
M  V30 4709 C 455.773 2.07317 6.88776 0
M  V30 4710 C 457.799 1.2985 5.76969 0
M  V30 4711 C 457.161 2.11101 6.72023 0
M  V30 4712 H 453.26 -0.217337 0.751192 0
M  V30 4713 H 455.844 0.0727375 1.94564 0
M  V30 4714 H 454.015 -2.05533 3.29561 0
M  V30 4715 H 455.747 -1.97789 3.53075 0
M  V30 4716 H 452.502 -0.348409 4.72317 0
M  V30 4717 H 452.926 1.47324 6.60776 0
M  V30 4718 H 457.568 -0.18442 4.22398 0
M  V30 4719 H 455.286 2.69771 7.61741 0
M  V30 4720 H 458.872 1.3511 5.65894 0
M  V30 4721 H 457.752 2.77257 7.33552 0
M  V30 4722 N 455.255 -1.55392 -0.262866 0
M  V30 4723 C 456.503 -1.76127 -0.991147 0
M  V30 4724 C 456.824 -0.571083 -1.8645 0
M  V30 4725 O 456.094 0.413698 -1.91482 0
M  V30 4726 H 454.674 -0.649528 -0.368948 0
M  V30 4727 H 457.336 -1.9281 -0.284655 0
M  V30 4728 H 456.432 -2.6663 -1.62219 0
M  V30 4729 N 456.733 0.527833 -1.48498 0
M  V30 4730 C 457.979 1.28295 -1.57836 0
M  V30 4731 C 458.334 1.9077 -0.249943 0
M  V30 4732 O 457.627 1.76421 0.747402 0
M  V30 4733 C 457.821 2.39275 -2.65485 0
M  V30 4734 C 457.65 1.87679 -4.08664 0
M  V30 4735 C 456.42 1.70187 -4.75778 0
M  V30 4736 C 458.618 1.40409 -4.94762 0
M  V30 4737 N 456.6 1.13238 -6.03366 0
M  V30 4738 C 457.971 0.954216 -6.12613 0
M  V30 4739 C 460.026 1.28732 -4.8097 0
M  V30 4740 C 458.729 0.39915 -7.18192 0
M  V30 4741 C 460.755 0.746244 -5.86673 0
M  V30 4742 C 460.117 0.306457 -7.03733 0
M  V30 4743 H 456.216 0.460408 -0.632099 0
M  V30 4744 H 458.8 0.594913 -1.85388 0
M  V30 4745 H 456.971 3.05572 -2.3975 0
M  V30 4746 H 458.703 3.06308 -2.64495 0
M  V30 4747 H 455.458 1.93772 -4.32145 0
M  V30 4748 H 455.882 0.867687 -6.71417 0
M  V30 4749 H 460.524 1.61338 -3.90807 0
M  V30 4750 H 458.242 0.0607678 -8.08077 0
M  V30 4751 H 461.828 0.659041 -5.78055 0
M  V30 4752 H 460.708 -0.105708 -7.84129 0
M  V30 4753 N 458.211 1.37122 0.776871 0
M  V30 4754 C 459.459 1.31787 1.53221 0
M  V30 4755 C 459.78 -0.0987589 1.9475 0
M  V30 4756 O 459.05 -1.0417 1.65908 0
M  V30 4757 H 457.63 0.484839 0.568278 0
M  V30 4758 H 460.292 1.71556 0.924917 0
M  V30 4759 H 459.388 1.95355 2.43398 0
M  V30 4760 N 459.689 -1.00246 1.21608 0
M  V30 4761 C 460.937 -1.73717 1.0328 0
M  V30 4762 C 461.258 -1.90102 -0.434318 0
M  V30 4763 O 460.528 -1.45376 -1.31311 0
M  V30 4764 H 459.108 -0.643613 0.379172 0
M  V30 4765 H 461.77 -1.20787 1.52959 0
M  V30 4766 H 460.866 -2.73535 1.50283 0
M  V30 4767 N 461.167 -1.02423 -1.1978 0
M  V30 4768 C 462.077 -0.610919 -2.26506 0
M  V30 4769 C 463.093 0.355152 -1.70337 0
M  V30 4770 O 464.269 0.214195 -2.00258 0
M  V30 4771 C 461.334 0.0365921 -3.46681 0
M  V30 4772 C 460.395 -0.976389 -4.18049 0
M  V30 4773 C 459.628 -0.359683 -5.32487 0
M  V30 4774 O 459.851 0.838601 -5.64202 0
M  V30 4775 O 458.785 -1.08022 -5.92127 0
M  V30 4776 H 462.611 -1.49965 -2.64091 0
M  V30 4777 H 460.196 -0.794156 -1.26545 0
M  V30 4778 H 462.078 0.39786 -4.19518 0
M  V30 4779 H 460.753 0.899398 -3.10954 0
M  V30 4780 H 459.66 -1.38916 -3.47352 0
M  V30 4781 H 460.993 -1.80941 -4.57735 0
M  V30 4782 N 462.645 1.35699 -0.801477 0
M  V30 4783 C 463.922 1.9324 -0.302937 0
M  V30 4784 C 464.302 1.73209 1.20672 0
M  V30 4785 O 463.65 1.09809 2.00385 0
M  V30 4786 C 463.86 3.41728 -0.708747 0
M  V30 4787 C 465.208 4.18868 -0.695328 0
M  V30 4788 O 466.232 3.5022 -0.649971 0
M  V30 4789 O 465.091 5.41342 -0.749081 0
M  V30 4790 H 462.185 0.82331 -0.0780367 0
M  V30 4791 H 464.731 1.44806 -0.884832 0
M  V30 4792 H 463.503 3.50015 -1.74944 0
M  V30 4793 H 463.126 3.97471 -0.101384 0
M  V30 4794 N 464.123 0.554532 1.47522 0
M  V30 4795 C 465.4 -0.0360704 1.95567 0
M  V30 4796 C 465.78 -1.48828 1.49711 0
M  V30 4797 O 465.128 -2.16366 0.734717 0
M  V30 4798 C 465.338 0.106631 3.48837 0
M  V30 4799 C 466.686 -0.0400899 4.24581 0
M  V30 4800 O 467.71 0.0340453 3.56184 0
M  V30 4801 O 466.569 -0.199111 5.46137 0
M  V30 4802 H 463.663 -0.0656294 0.824392 0
M  V30 4803 H 466.209 0.620867 1.57935 0
M  V30 4804 H 464.981 1.11727 3.7501 0
M  V30 4805 H 464.604 -0.58804 3.93227 0
M  V30 4806 N 465.601 -1.54893 0.290851 0
M  V30 4807 C 466.878 -1.91991 -0.373989 0
M  V30 4808 C 467.258 -1.21694 -1.72493 0
M  V30 4809 O 466.606 -0.34917 -2.25816 0
M  V30 4810 C 466.816 -3.45419 -0.498703 0
M  V30 4811 C 468.164 -4.1748 -0.774298 0
M  V30 4812 O 469.188 -3.51398 -0.582908 0
M  V30 4813 O 468.047 -5.3445 -1.14129 0
M  V30 4814 H 465.141 -0.800593 -0.207315 0
M  V30 4815 H 467.687 -1.66297 0.338164 0
M  V30 4816 H 466.459 -3.88688 0.451392 0
M  V30 4817 H 466.082 -3.77117 -1.25972 0
M  V30 4818 N 467.08 -0.0183926 -1.57589 0
M  V30 4819 C 468.329 0.66185 -1.90532 0
M  V30 4820 C 468.642 1.73904 -0.895366 0
M  V30 4821 O 469.848 2.47518 -1.11566 0
M  V30 4822 C 468.304 1.22844 -3.38286 0
M  V30 4823 C 467.912 0.185103 -4.47617 0
M  V30 4824 C 469.656 1.88581 -3.80312 0
M  V30 4825 C 467.563 0.762723 -5.86461 0
M  V30 4826 H 466.493 0.250972 -0.711006 0
M  V30 4827 H 469.144 -0.0819435 -1.83317 0
M  V30 4828 H 467.526 2.0235 -3.40398 0
M  V30 4829 H 468.7 -0.58671 -4.5705 0
M  V30 4830 H 467.015 -0.372889 -4.14727 0
M  V30 4831 H 469.612 2.32735 -4.81392 0
M  V30 4832 H 469.955 2.72408 -3.14801 0
M  V30 4833 H 470.488 1.15782 -3.80578 0
M  V30 4834 H 467.227 -0.0371713 -6.55489 0
M  V30 4835 H 466.747 1.50327 -5.80656 0
M  V30 4836 H 468.426 1.25576 -6.34697 0
M  V30 4837 N 468.558 1.5553 0.254621 0
M  V30 4838 C 469.805 1.77 0.983736 0
M  V30 4839 C 470.133 0.58133 1.85609 0
M  V30 4840 O 469.388 -0.435621 1.9079 0
M  V30 4841 C 469.687 3.03891 1.88109 0
M  V30 4842 C 469.353 4.35597 1.16472 0
M  V30 4843 C 468.015 4.7139 0.966714 0
M  V30 4844 C 470.367 5.1705 0.656387 0
M  V30 4845 C 467.695 5.86176 0.247942 0
M  V30 4846 C 470.047 6.32581 -0.0488807 0
M  V30 4847 C 468.711 6.67 -0.258438 0
M  V30 4848 H 467.981 0.647688 0.359974 0
M  V30 4849 H 470.628 1.89802 0.254463 0
M  V30 4850 H 468.933 2.86068 2.67717 0
M  V30 4851 H 470.63 3.17701 2.44677 0
M  V30 4852 H 467.22 4.07475 1.32899 0
M  V30 4853 H 471.404 4.8986 0.796933 0
M  V30 4854 H 466.66 6.11354 0.075035 0
M  V30 4855 H 470.834 6.94942 -0.450444 0
M  V30 4856 H 468.461 7.55793 -0.817358 0
M  V30 4857 N 470.036 -0.519951 1.48776 0
M  V30 4858 C 470.984 -1.64443 1.64503 0
M  V30 4859 C 471.978 -1.61501 0.511248 0
M  V30 4860 O 473.184 -1.66238 0.690294 0
M  V30 4861 H 469.559 -0.544776 0.518385 0
M  V30 4862 H 471.53 -1.48325 2.58925 0
M  V30 4863 C 470.279 -3.02673 1.71127 0
M  V30 4864 H 469.602 -3.05635 2.57735 0
M  V30 4865 H 471.042 -3.80941 1.86172 0
M  V30 4866 C 469.501 -3.33854 0.452032 0
M  V30 4867 O 470.031 -3.99385 -0.430678 0
M  V30 4868 N 468.237 -2.88825 0.32069 0
M  V30 4869 H 467.784 -2.35674 1.03998 0
M  V30 4870 H 467.742 -3.10056 -0.520814 0
M  V30 4871 N 471.514 -1.37532 -0.769588 0
M  V30 4872 C 472.93 -1.18379 -1.07045 0
M  V30 4873 C 473.13 -0.0214312 -2.01489 0
M  V30 4874 O 472.186 0.637809 -2.44312 0
M  V30 4875 C 473.499 -2.50338 -1.66588 0
M  V30 4876 C 475.047 -2.56879 -1.78835 0
M  V30 4877 C 475.522 -3.88974 -2.41792 0
M  V30 4878 N 477.013 -3.90428 -2.4924 0
M  V30 4879 C 477.748 -4.89388 -2.98809 0
M  V30 4880 N 477.244 -5.98745 -3.48535 0
M  V30 4881 N 479.037 -4.76791 -2.97703 0
M  V30 4882 H 471.188 -2.11921 -0.142541 0
M  V30 4883 H 473.451 -0.939608 -0.125863 0
M  V30 4884 H 473.157 -3.35767 -1.0466 0
M  V30 4885 H 473.031 -2.67583 -2.65856 0
M  V30 4886 H 475.418 -1.71856 -2.39895 0
M  V30 4887 H 475.499 -2.43516 -0.783166 0
M  V30 4888 H 475.143 -4.74412 -1.81371 0
M  V30 4889 H 475.073 -3.99641 -3.4292 0
M  V30 4890 H 477.564 -3.11433 -2.14052 0
M  V30 4891 H 477.877 -6.70205 -3.84767 0
M  V30 4892 H 476.222 -6.02387 -3.46634 0
M  V30 4893 H 479.413 -3.90478 -2.58157 0
M  V30 4894 H 479.586 -5.54069 -3.36024 0
M  V30 4895 N 472.992 0.995999 -1.22138 0
M  V30 4896 C 473.922 2.10387 -1.01289 0
M  V30 4897 C 474.903 1.69975 0.0651454 0
M  V30 4898 O 476.088 1.9396 -0.0964628 0
M  V30 4899 C 473.218 3.42312 -0.586517 0
M  V30 4900 C 472.172 3.96558 -1.61014 0
M  V30 4901 C 471.498 5.24494 -1.0397 0
M  V30 4902 C 472.798 4.27595 -2.99933 0
M  V30 4903 H 474.492 2.28086 -1.93951 0
M  V30 4904 H 472.038 1.09607 -0.933928 0
M  V30 4905 H 473.991 4.19223 -0.427793 0
M  V30 4906 H 472.715 3.24431 0.375761 0
M  V30 4907 H 471.374 3.21776 -1.75658 0
M  V30 4908 H 471.022 5.02953 -0.0688703 0
M  V30 4909 H 470.722 5.61755 -1.72352 0
M  V30 4910 H 472.246 6.04042 -0.892494 0
M  V30 4911 H 473.66 4.95315 -2.8868 0
M  V30 4912 H 472.057 4.76021 -3.6541 0
M  V30 4913 H 473.127 3.35498 -3.50099 0
M  V30 4914 N 474.47 1.03057 1.19235 0
M  V30 4915 C 475.716 0.729098 1.89241 0
M  V30 4916 C 476.049 -0.740573 1.79525 0
M  V30 4917 O 475.324 -1.53946 1.18874 0
M  V30 4918 C 475.607 1.18304 3.40112 0
M  V30 4919 C 475.46 2.71406 3.5869 0
M  V30 4920 C 476.779 0.765161 4.33397 0
M  V30 4921 H 473.898 0.266338 0.687192 0
M  V30 4922 H 476.54 1.28079 1.40341 0
M  V30 4923 H 474.69 0.713672 3.81889 0
M  V30 4924 H 476.362 3.26303 3.26074 0
M  V30 4925 H 474.605 3.11717 3.01687 0
M  V30 4926 H 475.276 2.98225 4.64506 0
M  V30 4927 H 477.752 1.16889 3.99345 0
M  V30 4928 H 476.628 1.11065 5.37546 0
M  V30 4929 H 476.889 -0.332372 4.40849 0
M  V30 4930 N 475.948 -1.35272 0.808662 0
M  V30 4931 C 477.195 -1.98709 0.390003 0
M  V30 4932 C 477.523 -1.64148 -1.04335 0
M  V30 4933 O 476.778 -0.897797 -1.73891 0
M  V30 4934 C 477.077 -3.53556 0.522798 0
M  V30 4935 C 476.743 -4.0799 1.91977 0
M  V30 4936 C 475.405 -4.22568 2.30195 0
M  V30 4937 C 477.757 -4.37442 2.83361 0
M  V30 4938 C 475.085 -4.63918 3.59162 0
M  V30 4939 C 477.437 -4.80232 4.11776 0
M  V30 4940 C 476.101 -4.93016 4.49991 0
M  V30 4941 H 475.371 -0.727127 0.142712 0
M  V30 4942 H 478.018 -1.6145 1.02985 0
M  V30 4943 H 476.323 -3.91287 -0.200494 0
M  V30 4944 H 478.02 -4.00598 0.179608 0
M  V30 4945 H 474.61 -3.97096 1.61284 0
M  V30 4946 H 478.794 -4.25731 2.55083 0
M  V30 4947 H 474.05 -4.72005 3.88615 0
M  V30 4948 H 478.224 -5.01982 4.82687 0
M  V30 4949 H 475.851 -5.24814 5.49976 0
M  V30 4950 N 477.426 -0.562348 -1.47226 0
M  V30 4951 C 478.842 -0.222492 -1.58042 0
M  V30 4952 C 479.042 1.27505 -1.56028 0
M  V30 4953 O 478.098 2.05555 -1.46641 0
M  V30 4954 C 479.411 -0.853694 -2.88327 0
M  V30 4955 C 480.959 -0.825397 -3.01921 0
M  V30 4956 C 481.434 -1.43576 -4.34914 0
M  V30 4957 N 482.925 -1.39918 -4.41562 0
M  V30 4958 C 483.66 -1.84103 -5.43041 0
M  V30 4959 N 483.156 -2.36167 -6.51304 0
M  V30 4960 N 484.949 -1.75142 -5.34118 0
M  V30 4961 H 477.1 -1.53525 -1.46778 0
M  V30 4962 H 479.363 -0.640527 -0.698877 0
M  V30 4963 H 479.069 -1.90635 -2.95552 0
M  V30 4964 H 478.943 -0.34977 -3.75575 0
M  V30 4965 H 481.33 0.218583 -2.94289 0
M  V30 4966 H 481.411 -1.36713 -2.16202 0
M  V30 4967 H 481.055 -2.47884 -4.43301 0
M  V30 4968 H 480.985 -0.869427 -5.19373 0
M  V30 4969 H 483.476 -1.0184 -3.63919 0
M  V30 4970 H 483.789 -2.67793 -7.24919 0
M  V30 4971 H 482.134 -2.40181 -6.52179 0
M  V30 4972 H 485.325 -1.34241 -4.48439 0
M  V30 4973 H 485.498 -2.09895 -6.13065 0
M  V30 4974 N 478.904 1.54736 -0.299062 0
M  V30 4975 C 480.152 1.99706 0.31017 0
M  V30 4976 C 480.473 1.18896 1.54559 0
M  V30 4977 O 479.743 0.284445 1.93824 0
M  V30 4978 H 478.323 0.737686 0.117596 0
M  V30 4979 H 480.985 1.9054 -0.409943 0
M  V30 4980 H 480.081 3.06596 0.58355 0
M  V30 4981 N 480.382 0.0267497 1.57577 0
M  V30 4982 C 481.315 -0.99059 2.05579 0
M  V30 4983 C 482.293 -1.31884 0.951065 0
M  V30 4984 O 483.477 -1.43592 1.22121 0
M  V30 4985 C 480.604 -2.31125 2.47586 0
M  V30 4986 C 479.65 -2.13777 3.69055 0
M  V30 4987 S 480.483 -1.4388 5.15809 0
M  V30 4988 C 481.639 -2.77321 5.6111 0
M  V30 4989 H 481.872 -0.581976 2.91548 0
M  V30 4990 H 479.405 -0.184876 1.53289 0
M  V30 4991 H 481.363 -3.07049 2.72454 0
M  V30 4992 H 480.024 -2.6912 1.61967 0
M  V30 4993 H 479.217 -3.11405 3.96287 0
M  V30 4994 H 478.819 -1.45996 3.44327 0
M  V30 4995 H 481.111 -3.73565 5.65204 0
M  V30 4996 H 482.054 -2.54756 6.60685 0
M  V30 4997 H 482.462 -2.82459 4.88751 0
M  V30 4998 N 481.861 -1.55662 -0.24637 0
M  V30 4999 C 483.086 -1.81914 -0.996093 0
M  V30 5000 C 483.511 -0.603875 -1.78143 0
M  V30 5001 O 482.869 0.447091 -1.75701 0
M  V30 5002 C 482.917 -3.05908 -1.90925 0
M  V30 5003 O 482.021 -2.82861 -3.00105 0
M  V30 5004 H 481.362 -0.600481 -0.283406 0
M  V30 5005 H 483.892 -2.02848 -0.267199 0
M  V30 5006 H 483.902 -3.35356 -2.3238 0
M  V30 5007 H 482.577 -3.93999 -1.33183 0
M  V30 5008 H 481.154 -2.64583 -2.62775 0
M  V30 5009 N 483.339 0.512053 -1.4905 0
M  V30 5010 C 484.588 1.26343 -1.57227 0
M  V30 5011 C 484.901 1.93876 -0.259155 0
M  V30 5012 O 486.107 2.70612 -0.219358 0
M  V30 5013 C 484.563 2.29343 -2.77362 0
M  V30 5014 C 484.171 1.67799 -4.15388 0
M  V30 5015 C 485.915 3.05378 -2.94864 0
M  V30 5016 C 483.822 2.68845 -5.2676 0
M  V30 5017 H 482.752 0.475231 -0.585382 0
M  V30 5018 H 485.403 0.53862 -1.75417 0
M  V30 5019 H 483.785 3.04938 -2.52643 0
M  V30 5020 H 484.959 0.982715 -4.50199 0
M  V30 5021 H 483.274 1.04194 -4.03153 0
M  V30 5022 H 485.871 3.80921 -3.75238 0
M  V30 5023 H 486.214 3.62327 -2.05 0
M  V30 5024 H 486.747 2.36898 -3.19569 0
M  V30 5025 H 483.486 2.16692 -6.18647 0
M  V30 5026 H 483.006 3.36647 -4.96416 0
M  V30 5027 H 484.685 3.31487 -5.5563 0
M  V30 5028 N 484.817 1.37938 0.762283 0
M  V30 5029 C 486.042 1.37059 1.55659 0
M  V30 5030 C 486.467 -0.0396123 1.88058 0
M  V30 5031 O 485.825 -1.01929 1.49934 0
M  V30 5032 C 485.873 2.22494 2.83776 0
M  V30 5033 O 484.977 1.63607 3.78559 0
M  V30 5034 H 484.318 0.467892 0.47114 0
M  V30 5035 H 486.848 1.81587 0.942725 0
M  V30 5036 H 486.858 2.36045 3.32786 0
M  V30 5037 H 485.533 3.24993 2.59524 0
M  V30 5038 H 484.11 1.5915 3.37233 0
M  V30 5039 N 486.295 -0.989507 1.22664 0
M  V30 5040 C 487.711 -1.25395 0.987331 0
M  V30 5041 C 487.911 -1.9899 -0.317056 0
M  V30 5042 O 486.967 -2.30141 -1.03882 0
M  V30 5043 C 488.28 -2.06242 2.18826 0
M  V30 5044 C 489.828 -2.19413 2.23219 0
M  V30 5045 C 490.303 -3.03648 3.42873 0
M  V30 5046 N 491.794 -3.11234 3.43056 0
M  V30 5047 C 492.529 -3.7671 4.32293 0
M  V30 5048 N 492.025 -4.44085 5.31752 0
M  V30 5049 N 493.818 -3.73505 4.2006 0
M  V30 5050 H 485.969 -0.496212 2.06522 0
M  V30 5051 H 488.232 -0.281784 0.905153 0
M  V30 5052 H 487.938 -1.59531 3.13437 0
M  V30 5053 H 487.812 -3.06996 2.19165 0
M  V30 5054 H 490.199 -2.65336 1.29154 0
M  V30 5055 H 490.28 -1.18078 2.26917 0
M  V30 5056 H 489.924 -2.58424 4.37241 0
M  V30 5057 H 489.854 -4.05132 3.36416 0
M  V30 5058 H 492.345 -2.63287 2.71088 0
M  V30 5059 H 492.658 -4.91797 5.96117 0
M  V30 5060 H 491.003 -4.42822 5.35662 0
M  V30 5061 H 494.194 -3.20033 3.41609 0
M  V30 5062 H 494.367 -4.24253 4.8981 0
M  V30 5063 N 487.773 -1.03688 -1.18687 0
M  V30 5064 C 489.184 -0.766488 -1.70241 0
M  V30 5065 C 489.535 0.713052 -1.82784 0
M  V30 5066 O 488.66 1.55529 -1.50465 0
M  V30 5067 C 489.255 -1.38475 -3.09209 0
M  V30 5068 C 487.814 -1.16276 -3.5799 0
M  V30 5069 C 486.961 -1.4778 -2.34641 0
M  V30 5070 H 489.912 -1.20378 -1.03415 0
M  V30 5071 H 489.933 -0.785939 -3.72295 0
M  V30 5072 H 489.445 -2.46157 -3.00048 0
M  V30 5073 H 487.546 -0.104508 -3.72453 0
M  V30 5074 H 487.659 -1.8571 -4.41643 0
M  V30 5075 H 486.023 -0.897366 -2.38368 0
M  V30 5076 H 486.806 -2.56562 -2.28102 0
M  V30 5077 N 489.251 1.34841 -0.815825 0
M  V30 5078 C 490.199 2.31549 -0.220888 0
M  V30 5079 C 491.193 1.5707 0.634457 0
M  V30 5080 O 492.399 1.72125 0.526589 0
M  V30 5081 H 488.774 0.750153 -0.0526782 0
M  V30 5082 H 490.745 2.7926 -1.05149 0
M  V30 5083 C 489.494 3.42335 0.608427 0
M  V30 5084 H 488.817 3.9978 -0.0404121 0
M  V30 5085 H 490.257 4.12258 0.990931 0
M  V30 5086 C 488.716 2.86173 1.77782 0
M  V30 5087 O 489.246 2.80474 2.87571 0
M  V30 5088 N 487.452 2.43093 1.59229 0
M  V30 5089 H 486.999 2.47928 0.699237 0
M  V30 5090 H 486.957 2.05866 2.37627 0
M  V30 5091 N 490.729 0.570148 1.46925 0
M  V30 5092 C 491.692 -0.159933 2.28641 0
M  V30 5093 C 492.692 -0.830638 1.37685 0
M  V30 5094 O 493.882 -0.684516 1.60187 0
M  V30 5095 C 491.014 -1.2354 3.17727 0
M  V30 5096 H 492.207 0.558035 2.94662 0
M  V30 5097 H 489.76 0.327603 1.52828 0
M  V30 5098 H 490.495 -1.98535 2.56426 0
M  V30 5099 H 490.28 -0.759125 3.84681 0
M  V30 5100 H 491.77 -1.74782 3.79264 0
M  V30 5101 N 492.207 -1.54576 0.307264 0
M  V30 5102 C 493.453 -2.0056 -0.300612 0
M  V30 5103 C 493.786 -1.1953 -1.53057 0
M  V30 5104 O 493.061 -0.27337 -1.92569 0
M  V30 5105 C 493.344 -3.54167 -0.650987 0
M  V30 5106 C 493.197 -4.45933 0.588539 0
M  V30 5107 C 494.516 -4.14645 -1.47506 0
M  V30 5108 H 491.635 -0.729075 -0.107788 0
M  V30 5109 H 494.277 -1.85286 0.420606 0
M  V30 5110 H 492.427 -3.67313 -1.26544 0
M  V30 5111 H 494.099 -4.44683 1.22697 0
M  V30 5112 H 492.342 -4.16274 1.22058 0
M  V30 5113 H 493.013 -5.51189 0.299153 0
M  V30 5114 H 495.489 -4.04973 -0.955821 0
M  V30 5115 H 494.365 -5.22269 -1.68899 0
M  V30 5116 H 494.626 -3.66921 -2.4662 0
M  V30 5117 N 493.685 -0.035106 -1.57561 0
M  V30 5118 C 494.931 0.64318 -1.92331 0
M  V30 5119 C 495.264 1.71434 -0.912368 0
M  V30 5120 O 494.539 1.94395 0.0640303 0
M  V30 5121 C 494.822 1.25411 -3.37556 0
M  V30 5122 C 494.675 0.192109 -4.4939 0
M  V30 5123 C 495.994 2.17041 -3.82859 0
M  V30 5124 H 493.113 0.232341 -0.699419 0
M  V30 5125 H 495.755 -0.0935889 -1.89769 0
M  V30 5126 H 493.905 1.88205 -3.39869 0
M  V30 5127 H 495.577 -0.438849 -4.59208 0
M  V30 5128 H 493.82 -0.481725 -4.31117 0
M  V30 5129 H 494.491 0.659292 -5.48049 0
M  V30 5130 H 496.967 1.64228 -3.8232 0
M  V30 5131 H 495.843 2.56738 -4.85157 0
M  V30 5132 H 496.104 3.06401 -3.18702 0
M  V30 5133 N 495.163 1.55791 0.238111 0
M  V30 5134 C 496.411 1.77681 0.963001 0
M  V30 5135 C 496.732 0.600674 1.85518 0
M  V30 5136 O 496.002 -0.383182 1.92116 0
M  V30 5137 H 494.582 0.655315 0.358568 0
M  V30 5138 H 497.244 1.93239 0.253945 0
M  V30 5139 H 496.34 2.69177 1.57956 0
M  V30 5140 N 496.642 -0.504142 1.49319 0
M  V30 5141 C 498.058 -0.835039 1.36012 0
M  V30 5142 C 498.258 -1.97674 0.390808 0
M  V30 5143 O 497.314 -2.51867 -0.178655 0
M  V30 5144 C 498.627 -1.17821 2.76656 0
M  V30 5145 C 500.175 -1.2866 2.85334 0
M  V30 5146 C 500.65 -1.66307 4.26739 0
M  V30 5147 N 502.141 -1.73362 4.29534 0
M  V30 5148 C 502.876 -2.0393 5.35911 0
M  V30 5149 N 502.372 -2.32744 6.52535 0
M  V30 5150 N 504.165 -2.05155 5.23324 0
M  V30 5151 H 496.316 0.248764 2.10938 0
M  V30 5152 H 498.579 0.0486962 0.946748 0
M  V30 5153 H 498.285 -0.412682 3.4927 0
M  V30 5154 H 498.159 -2.12239 3.11825 0
M  V30 5155 H 500.546 -2.04285 2.1296 0
M  V30 5156 H 500.627 -0.323004 2.53752 0
M  V30 5157 H 500.271 -0.91234 4.99639 0
M  V30 5158 H 500.201 -2.63761 4.55782 0
M  V30 5159 H 502.692 -1.53268 3.45424 0
M  V30 5160 H 503.005 -2.55248 7.2943 0
M  V30 5161 H 501.35 -2.30207 6.55767 0
M  V30 5162 H 504.541 -1.82119 4.3122 0
M  V30 5163 H 504.714 -2.28644 6.06322 0
M  V30 5164 N 498.12 -1.38341 -0.754957 0
M  V30 5165 C 499.36 -1.35888 -1.52689 0
M  V30 5166 C 499.724 0.0513682 -1.91931 0
M  V30 5167 O 500.925 0.200761 -2.68049 0
M  V30 5168 C 499.196 -2.28666 -2.74676 0
M  V30 5169 S 500.755 -2.4422 -3.64558 0
M  V30 5170 H 497.573 -0.482165 -0.522531 0
M  V30 5171 H 500.175 -1.74253 -0.886358 0
M  V30 5172 H 498.879 -3.30023 -2.43953 0
M  V30 5173 H 498.41 -1.91445 -3.43675 0
M  V30 5174 H 500.425 -1.66525 -4.67423 0
M  V30 5175 N 499.598 0.982988 -1.23187 0
M  V30 5176 C 501.014 1.2487 -0.993967 0
M  V30 5177 C 501.214 1.99155 0.306498 0
M  V30 5178 O 500.27 2.30688 1.0266 0
M  V30 5179 C 501.583 2.05078 -2.19917 0
M  V30 5180 C 503.131 2.18227 -2.2438 0
M  V30 5181 C 503.606 3.01825 -3.44479 0
M  V30 5182 N 505.097 3.09411 -3.44702 0
M  V30 5183 C 505.832 3.74412 -4.34285 0
M  V30 5184 N 505.328 4.41259 -5.341 0
M  V30 5185 N 507.121 3.71273 -4.22035 0
M  V30 5186 H 499.272 0.485253 -2.06783 0
M  V30 5187 H 501.535 0.276979 -0.906635 0
M  V30 5188 H 501.241 1.57867 -3.14279 0
M  V30 5189 H 501.115 3.05829 -2.2079 0
M  V30 5190 H 503.502 2.64648 -1.30559 0
M  V30 5191 H 503.583 1.16873 -2.2754 0
M  V30 5192 H 503.227 2.56102 -4.38605 0
M  V30 5193 H 503.157 4.03342 -3.38559 0
M  V30 5194 H 505.648 2.61845 -2.7248 0
M  V30 5195 H 505.961 4.88629 -5.98717 0
M  V30 5196 H 504.306 4.39975 -5.38002 0
M  V30 5197 H 507.497 3.18217 -3.43301 0
M  V30 5198 H 507.67 4.21649 -4.92053 0
M  V30 5199 N 501.076 1.04316 1.18135 0
M  V30 5200 C 502.009 0.580823 2.20685 0
M  V30 5201 C 502.987 -0.385943 1.57953 0
M  V30 5202 O 504.171 -0.299654 1.86103 0
M  V30 5203 C 501.298 -0.151162 3.38363 0
M  V30 5204 C 500.344 0.769247 4.19505 0
M  V30 5205 S 501.177 2.25352 4.85774 0
M  V30 5206 C 502.333 1.53246 6.0685 0
M  V30 5207 H 502.566 1.44968 2.5956 0
M  V30 5208 H 500.099 0.85434 1.28609 0
M  V30 5209 H 502.057 -0.567315 4.06561 0
M  V30 5210 H 500.718 -0.995936 2.97892 0
M  V30 5211 H 499.911 0.203335 5.0359 0
M  V30 5212 H 499.513 1.12436 3.56699 0
M  V30 5213 H 501.805 0.82689 6.72435 0
M  V30 5214 H 502.748 2.35044 6.67952 0
M  V30 5215 H 503.156 1.0237 5.5514 0
M  V30 5216 N 502.554 -1.34406 0.822964 0
M  V30 5217 C 503.803 -1.97542 0.407458 0
M  V30 5218 C 504.116 -1.65973 -1.035 0
M  V30 5219 O 505.322 -2.22598 -1.55442 0
M  V30 5220 C 503.778 -3.53463 0.677623 0
M  V30 5221 C 503.386 -3.93925 2.1337 0
M  V30 5222 C 505.13 -4.23229 0.328284 0
M  V30 5223 C 503.037 -5.42759 2.34876 0
M  V30 5224 H 501.967 -0.739207 0.148623 0
M  V30 5225 H 504.618 -1.53248 1.00932 0
M  V30 5226 H 503 -3.96 0.00558965 0
M  V30 5227 H 504.174 -3.62494 2.8449 0
M  V30 5228 H 502.489 -3.37097 2.44448 0
M  V30 5229 H 505.086 -5.32659 0.466794 0
M  V30 5230 H 505.429 -4.09899 -0.727224 0
M  V30 5231 H 505.962 -3.86169 0.954896 0
M  V30 5232 H 502.701 -5.61075 3.38932 0
M  V30 5233 H 502.221 -5.75704 1.68299 0
M  V30 5234 H 503.9 -6.0944 2.17236 0
M  V30 5235 N 504.032 -0.577932 -1.46621 0
M  V30 5236 C 505.448 -0.239242 -1.57797 0
M  V30 5237 C 505.648 1.25843 -1.57371 0
M  V30 5238 O 504.704 2.03988 -1.48813 0
M  V30 5239 C 506.017 -0.884227 -2.87405 0
M  V30 5240 C 507.565 -0.857373 -3.01028 0
M  V30 5241 C 508.04 -1.48181 -4.33366 0
M  V30 5242 N 509.531 -1.44593 -4.40053 0
M  V30 5243 C 510.266 -1.89852 -5.41058 0
M  V30 5244 N 509.762 -2.43062 -6.48762 0
M  V30 5245 N 511.555 -1.80797 -5.3223 0
M  V30 5246 H 503.706 -1.55073 -1.45142 0
M  V30 5247 H 505.969 -0.647903 -0.692044 0
M  V30 5248 H 505.675 -1.93759 -2.93514 0
M  V30 5249 H 505.549 -0.389585 -3.75183 0
M  V30 5250 H 507.936 0.187357 -2.94505 0
M  V30 5251 H 508.017 -1.38999 -2.14739 0
M  V30 5252 H 507.661 -2.52572 -4.40647 0
M  V30 5253 H 507.591 -0.924464 -5.18422 0
M  V30 5254 H 510.082 -1.05694 -3.62819 0
M  V30 5255 H 510.395 -2.75466 -7.22038 0
M  V30 5256 H 508.74 -2.47085 -6.49595 0
M  V30 5257 H 511.931 -1.38989 -4.46989 0
M  V30 5258 H 512.104 -2.16385 -6.10804 0
M  V30 5259 N 505.51 1.54411 -0.315457 0
M  V30 5260 C 506.46 2.20772 0.569549 0
M  V30 5261 C 507.444 1.18551 1.08787 0
M  V30 5262 O 508.636 1.44213 1.02624 0
M  V30 5263 C 505.765 2.96293 1.73394 0
M  V30 5264 C 504.851 4.05844 1.2309 0
M  V30 5265 N 505.242 5.03822 0.446927 0
M  V30 5266 C 503.54 4.19648 1.51035 0
M  V30 5267 C 504.241 5.8143 0.17725 0
M  V30 5268 N 503.217 5.38245 0.761118 0
M  V30 5269 H 507.019 2.93877 -0.0368076 0
M  V30 5270 H 504.533 1.61949 -0.120915 0
M  V30 5271 H 506.53 3.42313 2.37965 0
M  V30 5272 H 505.19 2.24708 2.34386 0
M  V30 5273 H 506.201 5.17821 0.0905027 0
M  V30 5274 H 502.878 3.59274 2.1267 0
M  V30 5275 H 504.268 6.70369 -0.45335 0
M  V30 5276 N 506.988 0.0434614 1.5754 0
M  V30 5277 C 508.213 -0.645358 1.97104 0
M  V30 5278 C 508.638 -1.64037 0.920521 0
M  V30 5279 O 507.996 -1.80922 -0.11708 0
M  V30 5280 C 508.044 -1.31547 3.35749 0
M  V30 5281 O 507.148 -2.43103 3.33129 0
M  V30 5282 H 506.489 -0.168403 0.64229 0
M  V30 5283 H 509.019 0.109573 2.04306 0
M  V30 5284 H 509.029 -1.66895 3.72304 0
M  V30 5285 H 507.704 -0.586205 4.11748 0
M  V30 5286 H 506.281 -2.0976 3.0831 0
M  V30 5287 N 508.466 -1.55915 -0.229846 0
M  V30 5288 C 509.882 -1.48721 -0.579166 0
M  V30 5289 C 510.082 -0.736976 -1.87539 0
M  V30 5290 O 509.138 -0.273258 -2.51017 0
M  V30 5291 C 510.451 -2.9323 -0.666082 0
M  V30 5292 C 511.999 -3.03701 -0.757267 0
M  V30 5293 C 512.474 -4.49552 -0.8756 0
M  V30 5294 N 513.965 -4.53561 -0.940035 0
M  V30 5295 C 514.7 -5.63683 -1.05116 0
M  V30 5296 N 514.196 -6.83576 -1.12675 0
M  V30 5297 N 515.989 -5.51516 -1.08565 0
M  V30 5298 H 508.14 -2.03123 0.620857 0
M  V30 5299 H 510.403 -0.922898 0.21671 0
M  V30 5300 H 510.109 -3.51032 0.21664 0
M  V30 5301 H 509.983 -3.44668 -1.53243 0
M  V30 5302 H 512.37 -2.45969 -1.63043 0
M  V30 5303 H 512.451 -2.55446 0.134583 0
M  V30 5304 H 512.095 -5.079 -0.00692351 0
M  V30 5305 H 512.025 -4.95506 -1.78274 0
M  V30 5306 H 514.516 -3.67215 -0.892269 0
M  V30 5307 H 514.829 -7.63251 -1.21109 0
M  V30 5308 H 513.174 -6.86303 -1.09603 0
M  V30 5309 H 516.365 -4.5678 -1.02319 0
M  V30 5310 H 516.538 -6.37372 -1.1688 0
M  V30 5311 N 509.944 0.496216 -1.49584 0
M  V30 5312 C 511.221 1.25755 -1.49816 0
M  V30 5313 C 511.601 2.09859 -0.228572 0
M  V30 5314 O 510.949 2.14449 0.788908 0
M  V30 5315 C 511.159 2.11017 -2.7798 0
M  V30 5316 C 512.507 2.70047 -3.27658 0
M  V30 5317 O 513.531 2.21281 -2.79129 0
M  V30 5318 O 512.39 3.58834 -4.1219 0
M  V30 5319 H 509.484 0.569322 -0.599834 0
M  V30 5320 H 512.03 0.510094 -1.61852 0
M  V30 5321 H 510.802 1.48879 -3.61871 0
M  V30 5322 H 510.425 2.92947 -2.68827 0
M  V30 5323 N 511.423 1.38739 0.74761 0
M  V30 5324 C 512.37 1.36449 1.86146 0
M  V30 5325 C 513.34 0.226098 1.64554 0
M  V30 5326 O 514.525 0.41926 1.86137 0
M  V30 5327 C 511.665 1.2013 3.23516 0
M  V30 5328 C 510.778 2.43407 3.56899 0
M  V30 5329 C 509.913 2.19773 4.83605 0
M  V30 5330 C 508.952 3.3879 5.09792 0
M  V30 5331 N 508.089 3.14553 6.27695 0
M  V30 5332 H 512.929 2.3167 1.87438 0
M  V30 5333 H 510.466 1.15094 0.916063 0
M  V30 5334 H 512.424 1.08683 4.02795 0
M  V30 5335 H 511.054 0.285453 3.21535 0
M  V30 5336 H 510.106 2.65504 2.72418 0
M  V30 5337 H 511.418 3.32094 3.72176 0
M  V30 5338 H 510.572 2.05496 5.70838 0
M  V30 5339 H 509.311 1.28461 4.70478 0
M  V30 5340 H 508.316 3.53579 4.21025 0
M  V30 5341 H 509.541 4.30986 5.24812 0
M  V30 5342 H 507.487 2.25893 6.1588 0
M  V30 5343 H 507.404 3.96791 6.435 0
M  V30 5344 H 508.672 3.03943 7.17801 0
M  V30 5345 N 512.901 -0.976442 1.23707 0
M  V30 5346 C 513.848 -2.06952 1.02174 0
M  V30 5347 C 514.818 -1.65984 -0.0621034 0
M  V30 5348 O 516.003 -1.90584 0.0907906 0
M  V30 5349 C 513.143 -3.39425 0.62327 0
M  V30 5350 C 512.256 -3.9364 1.77966 0
M  V30 5351 C 511.391 -5.14343 1.3276 0
M  V30 5352 C 510.43 -5.60733 2.45449 0
M  V30 5353 N 509.567 -6.72662 2.01172 0
M  V30 5354 H 514.407 -2.24704 1.95734 0
M  V30 5355 H 511.944 -1.10143 0.975034 0
M  V30 5356 H 513.902 -4.15526 0.37332 0
M  V30 5357 H 512.532 -3.21624 -0.275329 0
M  V30 5358 H 511.584 -3.14258 2.14351 0
M  V30 5359 H 512.896 -4.24035 2.62671 0
M  V30 5360 H 512.05 -5.97789 1.03601 0
M  V30 5361 H 510.789 -4.8561 0.450975 0
M  V30 5362 H 509.794 -4.75865 2.75378 0
M  V30 5363 H 511.019 -5.91483 3.33654 0
M  V30 5364 H 508.965 -6.45681 1.15895 0
M  V30 5365 H 508.882 -7.02462 2.79434 0
M  V30 5366 H 510.15 -7.59572 1.75129 0
M  V30 5367 N 514.379 -1.04941 -1.1758 0
M  V30 5368 C 515.327 -0.64204 -2.23563 0
M  V30 5369 C 516.321 0.335453 -1.66045 0
M  V30 5370 O 517.527 0.20179 -1.78865 0
M  V30 5371 H 513.902 -0.18944 -0.727748 0
M  V30 5372 H 515.873 -1.54609 -2.55223 0
M  V30 5373 C 514.622 -0.0301051 -3.47687 0
M  V30 5374 H 513.945 -0.773339 -3.92249 0
M  V30 5375 H 515.385 0.217592 -4.23441 0
M  V30 5376 C 513.844 1.2225 -3.13937 0
M  V30 5377 O 514.374 2.3122 -3.28482 0
M  V30 5378 N 512.58 1.11917 -2.68185 0
M  V30 5379 H 512.127 0.232403 -2.5655 0
M  V30 5380 H 512.085 1.95814 -2.45976 0
M  V30 5381 N 515.857 1.33968 -0.830081 0
M  V30 5382 C 516.767 2.33164 -0.259207 0
M  V30 5383 C 517.783 1.62951 0.610164 0
M  V30 5384 O 518.959 1.94668 0.516369 0
M  V30 5385 C 516.024 3.42088 0.563598 0
M  V30 5386 C 515.085 4.28037 -0.329014 0
M  V30 5387 C 514.318 5.3176 0.454616 0
M  V30 5388 O 514.541 5.44876 1.6872 0
M  V30 5389 O 513.475 6.01669 -0.166794 0
M  V30 5390 H 517.301 2.83832 -1.08041 0
M  V30 5391 H 514.886 1.37154 -0.59239 0
M  V30 5392 H 516.768 4.08581 1.03147 0
M  V30 5393 H 515.443 2.93651 1.36201 0
M  V30 5394 H 514.35 3.64443 -0.844538 0
M  V30 5395 H 515.683 4.79934 -1.09196 0
M  V30 5396 N 517.335 0.585699 1.46312 0
M  V30 5397 C 518.746 0.159938 1.86014 0
M  V30 5398 C 519.097 -1.27775 1.48889 0
M  V30 5399 O 518.222 -1.96559 0.90519 0
M  V30 5400 C 518.817 0.283485 3.37612 0
M  V30 5401 C 517.376 -0.0874256 3.76298 0
M  V30 5402 C 516.523 0.618055 2.70325 0
M  V30 5403 H 519.474 0.793737 1.37425 0
M  V30 5404 H 519.495 -0.490348 3.77327 0
M  V30 5405 H 519.007 1.32995 3.64601 0
M  V30 5406 H 517.108 -1.13391 3.54927 0
M  V30 5407 H 517.221 0.290975 4.78216 0
M  V30 5408 H 515.585 0.057993 2.54634 0
M  V30 5409 H 516.368 1.66623 3.00153 0
M  V30 5410 N 518.813 -1.54241 0.323641 0
M  V30 5411 C 519.761 -2.25813 -0.557804 0
M  V30 5412 C 520.755 -1.27225 -1.11849 0
M  V30 5413 O 521.961 -1.45001 -1.06652 0
M  V30 5414 H 518.336 -0.72532 -0.198532 0
M  V30 5415 H 520.307 -2.98322 0.0681112 0
M  V30 5416 C 519.056 -3.02913 -1.70701 0
M  V30 5417 H 518.379 -3.78593 -1.28482 0
M  V30 5418 H 519.819 -3.56238 -2.29935 0
M  V30 5419 C 518.278 -2.11217 -2.62467 0
M  V30 5420 O 518.808 -1.69508 -3.64184 0
M  V30 5421 N 517.014 -1.76704 -2.30703 0
M  V30 5422 H 516.561 -2.1082 -1.48029 0
M  V30 5423 H 516.519 -1.15631 -2.92364 0
M  V30 5424 N 520.291 -0.0518155 -1.57515 0
M  V30 5425 C 521.702 0.483787 -1.80323 0
M  V30 5426 C 522.053 1.70879 -0.964099 0
M  V30 5427 O 521.178 2.15643 -0.180872 0
M  V30 5428 C 521.773 0.884459 -3.27052 0
M  V30 5429 C 520.332 1.36504 -3.50776 0
M  V30 5430 C 519.479 0.340539 -2.75201 0
M  V30 5431 H 522.43 -0.277691 -1.56252 0
M  V30 5432 H 522.451 1.74733 -3.38007 0
M  V30 5433 H 521.963 -0.00731093 -3.88099 0
M  V30 5434 H 520.064 2.27598 -2.95009 0
M  V30 5435 H 520.177 1.35675 -4.59488 0
M  V30 5436 H 518.541 0.81356 -2.41357 0
M  V30 5437 H 519.324 -0.543156 -3.38976 0
M  V30 5438 N 521.769 1.56035 0.221574 0
M  V30 5439 C 522.701 1.889 1.29805 0
M  V30 5440 C 523.714 0.777269 1.43047 0
M  V30 5441 O 524.903 1.05557 1.43945 0
M  V30 5442 C 522.003 2.0825 2.67367 0
M  V30 5443 C 521.176 3.39267 2.76073 0
M  V30 5444 C 520.235 3.48049 3.94649 0
M  V30 5445 O 519.261 4.2108 3.82988 0
M  V30 5446 N 520.463 2.79191 5.08953 0
M  V30 5447 H 523.228 2.81831 1.01938 0
M  V30 5448 H 520.789 1.5658 0.411612 0
M  V30 5449 H 522.781 2.11441 3.45072 0
M  V30 5450 H 521.351 1.21944 2.87834 0
M  V30 5451 H 520.571 3.48175 1.84846 0
M  V30 5452 H 521.859 4.25575 2.7886 0
M  V30 5453 H 521.257 2.19635 5.21322 0
M  V30 5454 H 519.814 2.88043 5.84701 0
M  V30 5455 N 523.247 -0.488276 1.49845 0
M  V30 5456 C 524.663 -0.820566 1.3689 0
M  V30 5457 C 524.863 -1.97248 0.411752 0
M  V30 5458 O 523.919 -2.52042 -0.151931 0
M  V30 5459 C 525.232 -1.1488 2.77891 0
M  V30 5460 C 526.78 -1.25626 2.86683 0
M  V30 5461 C 527.255 -1.61772 4.28479 0
M  V30 5462 N 528.746 -1.68797 4.31349 0
M  V30 5463 C 529.481 -1.98235 5.38043 0
M  V30 5464 N 528.977 -2.2581 6.54967 0
M  V30 5465 N 530.77 -1.99593 5.2547 0
M  V30 5466 H 522.921 0.271123 2.10662 0
M  V30 5467 H 525.184 0.058735 0.946179 0
M  V30 5468 H 524.89 -0.375614 3.49688 0
M  V30 5469 H 524.764 -2.08919 3.14058 0
M  V30 5470 H 527.151 -2.02014 2.15114 0
M  V30 5471 H 527.232 -0.296072 2.54081 0
M  V30 5472 H 526.876 -0.859295 5.00578 0
M  V30 5473 H 526.806 -2.58912 4.58554 0
M  V30 5474 H 529.297 -1.49595 3.4703 0
M  V30 5475 H 529.61 -2.47497 7.32096 0
M  V30 5476 H 527.955 -2.23239 6.58171 0
M  V30 5477 H 531.146 -1.77535 4.33127 0
M  V30 5478 H 531.319 -2.222 6.08713 0
M  V30 5479 N 524.725 -1.39134 -0.740242 0
M  V30 5480 C 525.972 -1.36071 -1.49969 0
M  V30 5481 C 526.3 0.0450245 -1.94448 0
M  V30 5482 O 525.555 1.02482 -1.66721 0
M  V30 5483 C 525.854 -2.27457 -2.75678 0
M  V30 5484 C 525.52 -3.75185 -2.50094 0
M  V30 5485 C 524.182 -4.15439 -2.42825 0
M  V30 5486 C 526.534 -4.68643 -2.28086 0
M  V30 5487 C 523.862 -5.4722 -2.11584 0
M  V30 5488 C 526.214 -6.00695 -1.98363 0
M  V30 5489 C 524.878 -6.40018 -1.8956 0
M  V30 5490 H 524.148 -0.497921 -0.548777 0
M  V30 5491 H 526.795 -1.71599 -0.85007 0
M  V30 5492 H 525.1 -1.8503 -3.45356 0
M  V30 5493 H 526.797 -2.22384 -3.33686 0
M  V30 5494 H 523.387 -3.43279 -2.56627 0
M  V30 5495 H 527.571 -4.3838 -2.32672 0
M  V30 5496 H 522.827 -5.76615 -2.03287 0
M  V30 5497 H 527.001 -6.72644 -1.80341 0
M  V30 5498 H 524.628 -7.42051 -1.65117 0
M  V30 5499 N 526.204 0.969867 -1.24223 0
M  V30 5500 C 527.481 1.68774 -0.988664 0
M  V30 5501 C 527.861 2.05342 0.489673 0
M  V30 5502 O 527.209 1.75486 1.46345 0
M  V30 5503 C 527.419 2.92135 -1.90941 0
M  V30 5504 C 528.767 3.64422 -2.17903 0
M  V30 5505 O 529.791 3.02188 -1.88576 0
M  V30 5506 O 528.65 4.76446 -2.67697 0
M  V30 5507 H 525.744 0.737736 -0.37373 0
M  V30 5508 H 528.29 1.02415 -1.35312 0
M  V30 5509 H 527.062 2.61788 -2.90831 0
M  V30 5510 H 526.685 3.66228 -1.54798 0
M  V30 5511 N 527.682 1.05563 1.17022 0
M  V30 5512 C 529.098 0.777684 1.39371 0
M  V30 5513 C 529.298 -0.626269 1.91521 0
M  V30 5514 O 528.354 -1.38806 2.10924 0
M  V30 5515 C 529.667 1.83642 2.3811 0
M  V30 5516 C 531.215 1.85907 2.51809 0
M  V30 5517 C 531.69 2.90813 3.53824 0
M  V30 5518 N 533.181 2.898 3.61345 0
M  V30 5519 C 533.916 3.6762 4.40049 0
M  V30 5520 N 533.412 4.55237 5.22237 0
M  V30 5521 N 535.205 3.56044 4.34959 0
M  V30 5522 H 527.356 1.9614 0.815047 0
M  V30 5523 H 529.619 0.849527 0.420722 0
M  V30 5524 H 529.325 2.84425 2.06871 0
M  V30 5525 H 529.199 1.6812 3.37662 0
M  V30 5526 H 531.586 0.857865 2.82356 0
M  V30 5527 H 531.667 2.05506 1.52318 0
M  V30 5528 H 531.311 3.91122 3.24015 0
M  V30 5529 H 531.241 2.68465 4.53028 0
M  V30 5530 H 533.732 2.26274 3.02669 0
M  V30 5531 H 534.045 5.11291 5.79484 0
M  V30 5532 H 532.39 4.59296 5.21605 0
M  V30 5533 H 535.581 2.86986 3.69806 0
M  V30 5534 H 535.754 4.16938 4.96051 0
M  V30 5535 N 529.16 -1.33526 0.837174 0
M  V30 5536 C 530.409 -1.97098 0.428387 0
M  V30 5537 C 530.722 -1.67062 -1.01734 0
M  V30 5538 O 531.928 -2.24235 -1.53072 0
M  V30 5539 C 530.384 -3.52725 0.715075 0
M  V30 5540 C 529.992 -3.9164 2.17537 0
M  V30 5541 C 531.736 -4.22857 0.373154 0
M  V30 5542 C 529.643 -5.40237 2.40619 0
M  V30 5543 H 528.573 -0.737589 0.156455 0
M  V30 5544 H 531.224 -1.52169 1.02552 0
M  V30 5545 H 529.606 -3.95971 0.0475904 0
M  V30 5546 H 530.78 -3.59456 2.88319 0
M  V30 5547 H 529.095 -3.34485 2.4801 0
M  V30 5548 H 531.692 -5.32133 0.523264 0
M  V30 5549 H 532.035 -4.10647 -0.683708 0
M  V30 5550 H 532.568 -3.85135 0.995801 0
M  V30 5551 H 529.307 -5.57449 3.44864 0
M  V30 5552 H 528.827 -5.73887 1.74396 0
M  V30 5553 H 530.506 -6.07102 2.23688 0
M  V30 5554 N 530.638 -0.59345 -1.46 0
M  V30 5555 C 531.601 0.123538 -2.28867 0
M  V30 5556 C 532.601 0.808628 -1.38989 0
M  V30 5557 O 533.791 0.658945 -1.61256 0
M  V30 5558 C 530.923 1.1847 -3.19653 0
M  V30 5559 H 532.116 -0.604843 -2.93737 0
M  V30 5560 H 529.669 -0.351875 -1.52288 0
M  V30 5561 H 530.404 1.94431 -2.59552 0
M  V30 5562 H 530.189 0.69783 -3.8584 0
M  V30 5563 H 531.679 1.68726 -3.81997 0
M  V30 5564 N 532.116 1.54067 -0.331816 0
M  V30 5565 C 533.066 2.21363 0.546101 0
M  V30 5566 C 534.05 1.19698 1.07523 0
M  V30 5567 O 535.242 1.45293 1.01088 0
M  V30 5568 C 532.371 2.98115 1.70242 0
M  V30 5569 C 531.457 4.07127 1.18779 0
M  V30 5570 N 531.848 5.04267 0.393465 0
M  V30 5571 C 530.146 4.21226 1.46576 0
M  V30 5572 C 530.847 5.81585 0.115572 0
M  V30 5573 N 529.823 5.39022 0.703987 0
M  V30 5574 H 533.625 2.93821 -0.0679751 0
M  V30 5575 H 531.139 1.61812 -0.138085 0
M  V30 5576 H 533.136 3.44818 2.34321 0
M  V30 5577 H 531.796 2.27181 2.31989 0
M  V30 5578 H 532.807 5.17888 0.0355757 0
M  V30 5579 H 529.484 3.61509 2.08848 0
M  V30 5580 H 530.874 6.6985 -0.524426 0
M  V30 5581 N 533.594 0.0601682 1.57485 0
M  V30 5582 C 534.822 -0.620937 1.97363 0
M  V30 5583 C 535.237 -1.63846 0.938082 0
M  V30 5584 O 534.594 -1.82339 -0.0766578 0
M  V30 5585 C 534.645 -1.29987 3.37321 0
M  V30 5586 O 534.366 -0.323081 4.36907 0
M  V30 5587 C 535.867 -2.06989 3.92008 0
M  V30 5588 H 533.087 -0.169135 0.649334 0
M  V30 5589 H 535.631 0.129132 2.04092 0
M  V30 5590 H 533.786 -2.0011 3.31715 0
M  V30 5591 H 534.2 -0.808754 5.18227 0
M  V30 5592 H 535.674 -2.49901 4.92192 0
M  V30 5593 H 536.151 -2.92173 3.2792 0
M  V30 5594 H 536.757 -1.41757 4.0098 0
M  V30 5595 N 535.072 -1.5615 -0.213296 0
M  V30 5596 C 536.019 -1.93086 -1.26437 0
M  V30 5597 C 536.989 -0.789086 -1.4616 0
M  V30 5598 O 538.174 -1.04569 -1.59593 0
M  V30 5599 C 535.314 -2.26003 -2.608 0
M  V30 5600 C 534.427 -3.53156 -2.48807 0
M  V30 5601 C 533.562 -3.7548 -3.7575 0
M  V30 5602 C 532.601 -4.96119 -3.58514 0
M  V30 5603 N 531.738 -5.14791 -4.77425 0
M  V30 5604 H 536.578 -2.82707 -0.942376 0
M  V30 5605 H 534.115 -1.39919 -0.454001 0
M  V30 5606 H 536.073 -2.431 -3.39055 0
M  V30 5607 H 534.703 -1.39546 -2.91079 0
M  V30 5608 H 533.755 -3.44207 -1.61944 0
M  V30 5609 H 535.067 -4.41565 -2.31996 0
M  V30 5610 H 534.221 -3.92718 -4.62447 0
M  V30 5611 H 532.96 -2.85368 -3.95495 0
M  V30 5612 H 531.965 -4.78823 -2.70201 0
M  V30 5613 H 533.19 -5.87724 -3.40231 0
M  V30 5614 H 531.136 -4.27623 -4.97468 0
M  V30 5615 H 531.053 -5.97347 -4.63371 0
M  V30 5616 H 532.321 -5.36471 -5.65525 0
M  V30 5617 N 536.55 0.480323 -1.50102 0
M  V30 5618 C 537.46 1.60547 -1.71061 0
M  V30 5619 C 538.476 1.63564 -0.593529 0
M  V30 5620 O 539.652 1.81604 -0.870751 0
M  V30 5621 C 536.717 2.96814 -1.79171 0
M  V30 5622 C 535.778 3.04259 -3.02861 0
M  V30 5623 C 535.011 4.34027 -3.10574 0
M  V30 5624 O 535.234 5.24009 -2.25323 0
M  V30 5625 O 534.168 4.46873 -4.03223 0
M  V30 5626 H 537.994 1.45788 -2.6642 0
M  V30 5627 H 535.579 0.658838 -1.34088 0
M  V30 5628 H 537.461 3.77765 -1.86738 0
M  V30 5629 H 536.136 3.11791 -0.869947 0
M  V30 5630 H 535.043 2.22419 -3.008 0
M  V30 5631 H 536.376 2.94216 -3.94586 0
M  V30 5632 N 538.028 1.39524 0.732853 0
M  V30 5633 C 539.256 1.40143 1.52209 0
M  V30 5634 C 539.671 -0.00348836 1.888 0
M  V30 5635 O 539.028 -0.975357 1.5425 0
M  V30 5636 C 539.079 2.27632 2.8083 0
M  V30 5637 O 538.8 3.62654 2.45792 0
M  V30 5638 C 540.301 2.36658 3.74844 0
M  V30 5639 H 537.521 0.478604 0.470297 0
M  V30 5640 H 540.065 1.83366 0.905388 0
M  V30 5641 H 538.22 1.87818 3.38826 0
M  V30 5642 H 538.634 4.08941 3.28431 0
M  V30 5643 H 540.108 3.02118 4.61984 0
M  V30 5644 H 540.585 1.38638 4.16745 0
M  V30 5645 H 541.191 2.76951 3.22766 0
M  V30 5646 N 539.506 -0.963266 1.24736 0
M  V30 5647 C 540.439 -2.05758 0.986852 0
M  V30 5648 C 541.417 -1.62398 -0.0809272 0
M  V30 5649 O 542.601 -1.88414 0.0569347 0
M  V30 5650 C 539.728 -3.35135 0.490095 0
M  V30 5651 C 538.774 -3.97451 1.54709 0
M  V30 5652 S 539.607 -4.34519 3.12976 0
M  V30 5653 C 540.763 -5.67026 2.65014 0
M  V30 5654 H 540.996 -2.27539 1.91346 0
M  V30 5655 H 538.529 -1.10176 1.08169 0
M  V30 5656 H 540.487 -4.09962 0.21012 0
M  V30 5657 H 539.148 -3.11335 -0.415873 0
M  V30 5658 H 538.341 -4.90704 1.15003 0
M  V30 5659 H 537.943 -3.29071 1.77731 0
M  V30 5660 H 540.235 -6.44748 2.08102 0
M  V30 5661 H 541.178 -6.11594 3.56873 0
M  V30 5662 H 541.586 -5.25847 2.05294 0
M  V30 5663 N 540.985 -1.06182 -1.16461 0
M  V30 5664 C 541.915 -0.692861 -2.22984 0
M  V30 5665 C 542.896 0.314122 -1.67174 0
M  V30 5666 O 544.081 0.189499 -1.93273 0
M  V30 5667 C 541.211 -0.07732 -3.47214 0
M  V30 5668 C 540.165 -1.01015 -4.15909 0
M  V30 5669 C 539.491 -0.257973 -5.34077 0
M  V30 5670 C 540.791 -2.33868 -4.67015 0
M  V30 5671 H 542.485 -1.58343 -2.54102 0
M  V30 5672 H 540.031 -0.76279 -1.22137 0
M  V30 5673 H 541.984 0.19266 -4.20959 0
M  V30 5674 H 540.708 0.848254 -3.15392 0
M  V30 5675 H 539.367 -1.26486 -3.44088 0
M  V30 5676 H 539.015 0.670684 -4.98509 0
M  V30 5677 H 538.715 -0.879638 -5.80979 0
M  V30 5678 H 540.239 0.00448788 -6.106 0
M  V30 5679 H 541.653 -2.1279 -5.32347 0
M  V30 5680 H 540.05 -2.91522 -5.24533 0
M  V30 5681 H 541.12 -2.97019 -3.83286 0
M  V30 5682 N 542.463 1.3308 -0.844243 0
M  V30 5683 C 543.688 2.02341 -0.455282 0
M  V30 5684 C 544.113 1.6308 0.93737 0
M  V30 5685 O 543.471 0.826118 1.61385 0
M  V30 5686 C 543.519 3.55743 -0.58988 0
M  V30 5687 O 542.623 4.1063 0.38166 0
M  V30 5688 H 541.964 0.637898 -0.184343 0
M  V30 5689 H 544.494 1.6986 -1.14056 0
M  V30 5690 H 544.504 4.05243 -0.473522 0
M  V30 5691 H 543.179 3.83662 -1.60549 0
M  V30 5692 H 541.756 3.72236 0.22241 0
M  V30 5693 N 543.941 0.601185 1.45683 0
M  V30 5694 C 545.218 0.0261659 1.95582 0
M  V30 5695 C 545.598 -1.4399 1.5437 0
M  V30 5696 O 544.946 -2.13919 0.80318 0
M  V30 5697 C 545.156 0.217557 3.48321 0
M  V30 5698 C 546.504 0.0950076 4.24494 0
M  V30 5699 O 547.528 0.147345 3.55895 0
M  V30 5700 O 546.387 -0.025261 5.46494 0
M  V30 5701 H 543.481 -0.0393688 0.826062 0
M  V30 5702 H 546.027 0.670798 1.55879 0
M  V30 5703 H 544.799 1.23601 3.71266 0
M  V30 5704 H 544.422 -0.46264 3.94899 0
M  V30 5705 N 545.419 -1.53889 0.339982 0
M  V30 5706 C 546.667 -2.00458 -0.257112 0
M  V30 5707 C 546.988 -1.22953 -1.51353 0
M  V30 5708 O 546.258 -0.335734 -1.93002 0
M  V30 5709 H 544.838 -0.740544 -0.0979965 0
M  V30 5710 H 547.5 -1.89386 0.460317 0
M  V30 5711 H 546.596 -3.08035 -0.502057 0
M  V30 5712 N 546.897 -0.0685191 -1.57451 0
M  V30 5713 C 547.827 0.89747 -2.15564 0
M  V30 5714 C 548.808 1.31266 -1.08181 0
M  V30 5715 O 549.993 1.38429 -1.36202 0
M  V30 5716 C 547.123 2.16623 -2.71463 0
M  V30 5717 C 546.077 1.89054 -3.83982 0
M  V30 5718 C 545.403 3.22532 -4.26471 0
M  V30 5719 C 546.703 1.1984 -5.08366 0
M  V30 5720 H 548.397 0.413373 -2.96533 0
M  V30 5721 H 545.943 0.197391 -1.42641 0
M  V30 5722 H 547.896 2.84614 -3.10761 0
M  V30 5723 H 546.62 2.67269 -1.8771 0
M  V30 5724 H 545.279 1.23469 -3.45183 0
M  V30 5725 H 544.927 3.71013 -3.39644 0
M  V30 5726 H 544.627 3.04879 -5.02317 0
M  V30 5727 H 546.151 3.91727 -4.68383 0
M  V30 5728 H 547.565 1.77896 -5.45001 0
M  V30 5729 H 545.962 1.12456 -5.89469 0
M  V30 5730 H 547.032 0.176996 -4.84577 0
M  V30 5731 N 548.375 1.56261 0.205012 0
M  V30 5732 C 549.323 1.94631 1.27364 0
M  V30 5733 C 550.317 0.830434 1.47649 0
M  V30 5734 O 551.523 1.01538 1.48627 0
M  V30 5735 H 547.898 0.618755 0.427371 0
M  V30 5736 H 549.869 2.83768 0.922941 0
M  V30 5737 C 548.618 2.29358 2.61324 0
M  V30 5738 H 547.941 3.14744 2.46528 0
M  V30 5739 H 549.381 2.60076 3.34868 0
M  V30 5740 C 547.84 1.12461 3.17575 0
M  V30 5741 O 548.37 0.394407 3.99759 0
M  V30 5742 N 546.576 0.904036 2.7618 0
M  V30 5743 H 546.123 1.49956 2.09454 0
M  V30 5744 H 546.081 0.123662 3.14157 0
M  V30 5745 N 549.853 -0.472356 1.50355 0
M  V30 5746 C 551.078 -1.25251 1.65309 0
M  V30 5747 C 551.503 -1.85081 0.335643 0
M  V30 5748 O 550.861 -1.67227 -0.700335 0
M  V30 5749 C 550.909 -2.3379 2.74544 0
M  V30 5750 O 550.013 -3.38401 2.35709 0
M  V30 5751 H 549.354 -0.368539 0.552336 0
M  V30 5752 H 551.884 -0.562271 1.96722 0
M  V30 5753 H 551.894 -2.79121 2.97583 0
M  V30 5754 H 550.569 -1.89614 3.70161 0
M  V30 5755 H 549.146 -2.9879 2.23112 0
M  V30 5756 N 551.331 -1.39911 -0.725443 0
M  V30 5757 C 552.261 -1.42138 -1.85254 0
M  V30 5758 C 553.242 -0.283513 -1.67721 0
M  V30 5759 O 554.427 -0.490717 -1.87898 0
M  V30 5760 C 551.557 -1.27354 -3.23107 0
M  V30 5761 C 550.511 -2.3864 -3.55296 0
M  V30 5762 C 549.837 -2.08939 -4.92188 0
M  V30 5763 C 551.137 -3.8097 -3.57295 0
M  V30 5764 H 552.831 -2.36461 -1.83648 0
M  V30 5765 H 550.377 -1.13817 -0.882138 0
M  V30 5766 H 552.33 -1.2753 -4.01639 0
M  V30 5767 H 551.054 -0.295025 -3.25265 0
M  V30 5768 H 549.713 -2.37696 -2.79099 0
M  V30 5769 H 549.361 -1.09502 -4.90936 0
M  V30 5770 H 549.061 -2.83491 -5.14691 0
M  V30 5771 H 550.585 -2.10781 -5.73065 0
M  V30 5772 H 551.999 -3.8379 -4.25885 0
M  V30 5773 H 550.396 -4.5496 -3.9132 0
M  V30 5774 H 551.466 -4.11261 -2.5689 0
M  V30 5775 N 552.809 0.956637 -1.25245 0
M  V30 5776 C 554.037 1.73571 -1.12608 0
M  V30 5777 C 554.452 1.86063 0.320324 0
M  V30 5778 O 553.809 1.35691 1.22042 0
M  V30 5779 C 553.86 3.15053 -1.77268 0
M  V30 5780 O 553.581 3.03174 -3.16255 0
M  V30 5781 C 555.082 4.09248 -1.70386 0
M  V30 5782 H 552.302 0.543955 -0.392879 0
M  V30 5783 H 554.846 1.20031 -1.65568 0
M  V30 5784 H 553.001 3.65543 -1.28284 0
M  V30 5785 H 553.415 3.9241 -3.48015 0
M  V30 5786 H 554.889 5.06138 -2.20291 0
M  V30 5787 H 555.366 4.34102 -0.667239 0
M  V30 5788 H 555.972 3.64672 -2.18849 0
M  V30 5789 N 554.287 1.06798 1.15896 0
M  V30 5790 C 555.517 0.807522 1.90165 0
M  V30 5791 C 555.925 -0.642417 1.7796 0
M  V30 5792 O 555.268 -1.45193 1.12537 0
M  V30 5793 C 555.33 1.12939 3.41299 0
M  V30 5794 C 554.994 2.57879 3.7729 0
M  V30 5795 C 555.991 3.56118 3.78782 0
M  V30 5796 C 553.676 2.93311 4.07767 0
M  V30 5797 C 555.67 4.87827 4.10248 0
M  V30 5798 C 553.357 4.25219 4.38899 0
M  V30 5799 C 554.355 5.22287 4.4012 0
M  V30 5800 O 554.043 6.51826 4.70508 0
M  V30 5801 H 553.775 0.291946 0.609708 0
M  V30 5802 H 556.329 1.42627 1.47806 0
M  V30 5803 H 554.559 0.45359 3.84031 0
M  V30 5804 H 556.248 0.852363 3.9685 0
M  V30 5805 H 557.014 3.30086 3.55342 0
M  V30 5806 H 552.893 2.18409 4.05979 0
M  V30 5807 H 556.437 5.63586 4.11116 0
M  V30 5808 H 552.334 4.51006 4.61805 0
M  V30 5809 H 553.102 6.56893 4.88298 0
M  V30 5810 N 555.766 -1.3263 0.851289 0
M  V30 5811 C 556.698 -2.27824 0.250757 0
M  V30 5812 C 557.711 -1.52285 -0.575598 0
M  V30 5813 O 558.9 -1.73946 -0.400638 0
M  V30 5814 C 556 -3.3232 -0.664571 0
M  V30 5815 C 555.173 -4.37221 0.125187 0
M  V30 5816 C 554.232 -5.21314 -0.715385 0
M  V30 5817 O 553.258 -5.69002 -0.150111 0
M  V30 5818 N 554.46 -5.43823 -2.03069 0
M  V30 5819 H 557.225 -2.79997 1.06873 0
M  V30 5820 H 554.786 -1.45455 0.710943 0
M  V30 5821 H 556.778 -3.85486 -1.23216 0
M  V30 5822 H 555.348 -2.80331 -1.38323 0
M  V30 5823 H 554.568 -3.84384 0.874199 0
M  V30 5824 H 555.856 -5.04399 0.667774 0
M  V30 5825 H 555.254 -5.06803 -2.51332 0
M  V30 5826 H 553.811 -5.99998 -2.54648 0
M  V30 5827 N 557.244 -0.608902 -1.45362 0
M  V30 5828 C 558.49 -0.104762 -2.02529 0
M  V30 5829 C 558.823 1.26191 -1.47613 0
M  V30 5830 O 558.098 1.8327 -0.65134 0
M  V30 5831 C 558.381 -0.0672661 -3.60037 0
M  V30 5832 C 558.234 -1.4647 -4.25284 0
M  V30 5833 C 559.553 0.619877 -4.35713 0
M  V30 5834 H 556.672 -0.0395438 -0.735938 0
M  V30 5835 H 559.314 -0.781126 -1.73201 0
M  V30 5836 H 557.464 0.50871 -3.85155 0
M  V30 5837 H 559.136 -2.08785 -4.11347 0
M  V30 5838 H 557.379 -2.02502 -3.83634 0
M  V30 5839 H 558.05 -1.39069 -5.34195 0
M  V30 5840 H 560.526 0.130297 -4.15896 0
M  V30 5841 H 559.402 0.615224 -5.45441 0
M  V30 5842 H 559.663 1.68621 -4.0868 0
M  V30 5843 N 558.722 1.53707 -0.348139 0
M  V30 5844 C 559.652 2.28111 0.498766 0
M  V30 5845 C 560.633 1.29851 1.09876 0
M  V30 5846 O 561.818 1.587 1.11928 0
M  V30 5847 C 558.948 3.05735 1.64753 0
M  V30 5848 C 557.902 4.11537 1.17565 0
M  V30 5849 C 557.228 4.77142 2.4133 0
M  V30 5850 C 558.528 5.21587 0.272844 0
M  V30 5851 H 560.222 2.99152 -0.121934 0
M  V30 5852 H 557.768 1.43875 -0.0600842 0
M  V30 5853 H 559.721 3.56526 2.24649 0
M  V30 5854 H 558.445 2.32354 2.2952 0
M  V30 5855 H 557.104 3.61665 0.599483 0
M  V30 5856 H 556.752 4.0035 3.04514 0
M  V30 5857 H 556.452 5.48626 2.10436 0
M  V30 5858 H 557.976 5.30719 3.01943 0
M  V30 5859 H 559.39 5.67986 0.778779 0
M  V30 5860 H 557.787 6.00074 0.0555849 0
M  V30 5861 H 558.857 4.79969 -0.689785 0
M  V30 5862 N 560.2 0.0768682 1.57412 0
M  V30 5863 C 561.477 -0.632359 1.85096 0
M  V30 5864 C 561.857 -1.87479 0.9703 0
M  V30 5865 O 561.205 -2.28469 0.0379062 0
M  V30 5866 C 561.415 -0.965174 3.35388 0
M  V30 5867 C 562.763 -1.33648 4.03018 0
M  V30 5868 O 563.787 -1.05675 3.40164 0
M  V30 5869 O 562.646 -1.85959 5.13889 0
M  V30 5870 H 559.74 -0.314574 0.764835 0
M  V30 5871 H 562.286 0.108184 1.69355 0
M  V30 5872 H 561.058 -0.0829745 3.91212 0
M  V30 5873 H 560.681 -1.76231 3.5641 0
M  V30 5874 N 561.678 -1.56367 -0.196722 0
M  V30 5875 C 562.924 -1.80796 -0.918725 0
M  V30 5876 C 563.257 -0.650645 -1.82976 0
M  V30 5877 O 562.532 0.348889 -1.91345 0
M  V30 5878 C 562.815 -3.15472 -1.73636 0
M  V30 5879 C 562.668 -4.41693 -0.85015 0
M  V30 5880 C 563.987 -3.46824 -2.70927 0
M  V30 5881 H 561.106 -0.657702 -0.332561 0
M  V30 5882 H 563.748 -1.89086 -0.186186 0
M  V30 5883 H 561.898 -3.08536 -2.36088 0
M  V30 5884 H 563.57 -4.60673 -0.240459 0
M  V30 5885 H 561.813 -4.33517 -0.156785 0
M  V30 5886 H 562.484 -5.32419 -1.45719 0
M  V30 5887 H 564.96 -3.54049 -2.18607 0
M  V30 5888 H 563.836 -4.4218 -3.25219 0
M  V30 5889 H 564.097 -2.70236 -3.49893 0
M  V30 5890 N 563.156 0.464375 -1.50603 0
M  V30 5891 C 564.088 1.57916 -1.66118 0
M  V30 5892 C 565.101 1.53497 -0.54246 0
M  V30 5893 O 566.29 1.58763 -0.815877 0
M  V30 5894 C 563.39 2.96809 -1.63577 0
M  V30 5895 C 562.563 3.26026 -2.91592 0
M  V30 5896 C 561.622 4.44506 -2.81604 0
M  V30 5897 O 560.648 4.44484 -3.55559 0
M  V30 5898 N 561.85 5.46549 -1.95614 0
M  V30 5899 H 564.615 1.45022 -2.62276 0
M  V30 5900 H 562.176 0.652903 -1.48151 0
M  V30 5901 H 564.168 3.74048 -1.54499 0
M  V30 5902 H 562.738 3.03438 -0.751262 0
M  V30 5903 H 561.958 2.37337 -3.14746 0
M  V30 5904 H 563.246 3.42361 -3.76386 0
M  V30 5905 H 562.644 5.49391 -1.34854 0
M  V30 5906 H 561.201 6.22746 -1.92435 0
M  V30 5907 N 564.634 1.40294 0.718013 0
M  V30 5908 C 566.05 1.2227 1.02577 0
M  V30 5909 C 566.25 0.0961976 2.0127 0
M  V30 5910 O 565.306 -0.546695 2.46511 0
M  V30 5911 C 566.619 2.56348 1.57182 0
M  V30 5912 C 568.167 2.6334 1.69178 0
M  V30 5913 C 568.642 3.9768 2.27188 0
M  V30 5914 N 570.133 3.99409 2.34578 0
M  V30 5915 C 570.868 5.00141 2.8044 0
M  V30 5916 N 570.364 6.11268 3.26073 0
M  V30 5917 N 572.157 4.87511 2.79802 0
M  V30 5918 H 564.308 2.12304 0.0637899 0
M  V30 5919 H 566.571 0.943632 0.0909036 0
M  V30 5920 H 566.277 3.3942 0.921262 0
M  V30 5921 H 566.151 2.77266 2.55741 0
M  V30 5922 H 568.538 1.80641 2.33351 0
M  V30 5923 H 568.619 2.46255 0.692247 0
M  V30 5924 H 568.263 4.80817 1.63638 0
M  V30 5925 H 568.193 4.12093 3.27852 0
M  V30 5926 H 570.684 3.19162 2.02346 0
M  V30 5927 H 570.997 6.84023 3.59628 0
M  V30 5928 H 569.342 6.14837 3.24038 0
M  V30 5929 H 572.533 3.9979 2.43487 0
M  V30 5930 H 572.706 5.66158 3.15228 0
M  V30 5931 N 566.112 -0.949982 1.2575 0
M  V30 5932 C 567.342 -1.72721 1.13363 0
M  V30 5933 C 567.75 -1.86562 -0.314842 0
M  V30 5934 O 567.093 -1.36621 -1.22803 0
M  V30 5935 C 567.155 -3.15695 1.7198 0
M  V30 5936 C 566.819 -3.25268 3.21014 0
M  V30 5937 C 567.816 -3.09222 4.17945 0
M  V30 5938 C 565.501 -3.4894 3.61312 0
M  V30 5939 C 567.495 -3.16701 5.53154 0
M  V30 5940 C 565.182 -3.56055 4.96657 0
M  V30 5941 C 566.18 -3.3995 5.92387 0
M  V30 5942 O 565.868 -3.46757 7.25269 0
M  V30 5943 H 565.6 -0.547888 0.395973 0
M  V30 5944 H 568.154 -1.20009 1.66694 0
M  V30 5945 H 566.384 -3.69791 1.13101 0
M  V30 5946 H 568.073 -3.75295 1.54624 0
M  V30 5947 H 568.839 -2.90798 3.88151 0
M  V30 5948 H 564.718 -3.60534 2.87291 0
M  V30 5949 H 568.262 -3.04048 6.27854 0
M  V30 5950 H 564.159 -3.73997 5.26115 0
M  V30 5951 H 564.927 -3.63358 7.33426 0
M  V30 5952 N 567.59 -1.07411 -1.15328 0
M  V30 5953 C 569.001 -0.820261 -1.67716 0
M  V30 5954 C 569.352 0.654539 -1.8496 0
M  V30 5955 O 568.477 1.50664 -1.55337 0
M  V30 5956 C 569.072 -1.48242 -3.04647 0
M  V30 5957 C 567.631 -1.27606 -3.5411 0
M  V30 5958 C 566.778 -1.5517 -2.29821 0
M  V30 5959 H 569.729 -1.23608 -0.995332 0
M  V30 5960 H 569.75 -0.903984 -3.69606 0
M  V30 5961 H 569.262 -2.55578 -2.92064 0
M  V30 5962 H 567.363 -0.222948 -3.71932 0
M  V30 5963 H 567.476 -1.99667 -4.35511 0
M  V30 5964 H 565.84 -0.972747 -2.35393 0
M  V30 5965 H 566.623 -2.63689 -2.19824 0
M  V30 5966 N 569.068 1.32177 -0.85831 0
M  V30 5967 C 569.998 2.31282 -0.321041 0
M  V30 5968 C 570.979 1.59841 0.581786 0
M  V30 5969 O 572.164 1.87619 0.501262 0
M  V30 5970 C 569.294 3.4385 0.48832 0
M  V30 5971 C 568.248 4.26799 -0.320391 0
M  V30 5972 C 567.574 5.31164 0.613934 0
M  V30 5973 C 568.874 4.98829 -1.54813 0
M  V30 5974 H 570.568 2.76469 -1.14915 0
M  V30 5975 H 568.114 1.32916 -0.554028 0
M  V30 5976 H 570.067 4.12224 0.874626 0
M  V30 5977 H 568.791 2.97401 1.34983 0
M  V30 5978 H 567.45 3.60077 -0.688497 0
M  V30 5979 H 567.098 4.80967 1.47239 0
M  V30 5980 H 566.798 5.8755 0.0768097 0
M  V30 5981 H 568.322 6.024 0.997336 0
M  V30 5982 H 569.736 5.59864 -1.23392 0
M  V30 5983 H 568.133 5.64957 -2.02346 0
M  V30 5984 H 569.203 4.26483 -2.30739 0
M  V30 5985 N 570.547 0.616602 1.45037 0
M  V30 5986 C 571.777 0.121791 2.06241 0
M  V30 5987 C 572.185 -1.20289 1.46038 0
M  V30 5988 O 571.528 -1.7456 0.572242 0
M  V30 5989 C 571.59 -0.0827345 3.59405 0
M  V30 5990 C 571.254 1.16153 4.41993 0
M  V30 5991 C 572.251 2.08183 4.76399 0
M  V30 5992 C 569.936 1.39288 4.82601 0
M  V30 5993 C 571.93 3.21668 5.5028 0
M  V30 5994 C 569.617 2.53073 5.56235 0
M  V30 5995 C 570.615 3.44091 5.89992 0
M  V30 5996 O 570.303 4.55894 6.6213 0
M  V30 5997 H 570.035 0.0701667 0.672349 0
M  V30 5998 H 572.589 0.846877 1.87129 0
M  V30 5999 H 570.819 -0.862812 3.76952 0
M  V30 6000 H 572.508 -0.530273 4.02421 0
M  V30 6001 H 573.274 1.91538 4.45576 0
M  V30 6002 H 569.153 0.693396 4.55755 0
M  V30 6003 H 572.697 3.92733 5.76547 0
M  V30 6004 H 568.594 2.69667 5.86472 0
M  V30 6005 H 569.362 4.5469 6.80587 0
M  V30 6006 N 572.025 -1.5352 0.356285 0
M  V30 6007 C 573.253 -2.05534 -0.237328 0
M  V30 6008 C 573.668 -1.23043 -1.43199 0
M  V30 6009 O 573.025 -0.268821 -1.80509 0
M  V30 6010 C 573.076 -3.55791 -0.639933 0
M  V30 6011 O 572.797 -4.35154 0.507233 0
M  V30 6012 C 574.298 -4.24027 -1.29292 0
M  V30 6013 H 571.518 -0.669585 -0.0435572 0
M  V30 6014 H 574.062 -1.97988 0.511963 0
M  V30 6015 H 572.217 -3.63518 -1.33915 0
M  V30 6016 H 572.631 -5.24178 0.18375 0
M  V30 6017 H 574.105 -5.30509 -1.52527 0
M  V30 6018 H 574.582 -3.77166 -2.25039 0
M  V30 6019 H 575.188 -4.20527 -0.63539 0
M  V30 6020 N 573.503 -0.0852151 -1.57369 0
M  V30 6021 C 574.435 0.907099 -2.10486 0
M  V30 6022 C 575.448 1.25259 -1.03991 0
M  V30 6023 O 576.637 1.20743 -1.31467 0
M  V30 6024 C 573.737 2.21908 -2.56145 0
M  V30 6025 C 572.91 2.05042 -3.86363 0
M  V30 6026 C 571.969 3.19664 -4.17973 0
M  V30 6027 O 570.995 2.94062 -4.87356 0
M  V30 6028 N 572.197 4.45151 -3.72587 0
M  V30 6029 H 574.962 0.453505 -2.96249 0
M  V30 6030 H 572.523 0.100157 -1.6159 0
M  V30 6031 H 574.515 2.97519 -2.74343 0
M  V30 6032 H 573.085 2.58723 -1.75446 0
M  V30 6033 H 572.305 1.13819 -3.77411 0
M  V30 6034 H 573.593 1.91039 -4.71574 0
M  V30 6035 H 572.991 4.68834 -3.16561 0
M  V30 6036 H 571.548 5.17744 -3.9596 0
M  V30 6037 N 574.981 1.5647 0.188427 0
M  V30 6038 C 576.23 1.80207 0.905995 0
M  V30 6039 C 576.543 0.659579 1.84144 0
M  V30 6040 O 577.749 0.781431 2.60011 0
M  V30 6041 C 576.205 3.19255 1.66145 0
M  V30 6042 C 575.813 4.41324 0.770504 0
M  V30 6043 C 577.557 3.52298 2.36826 0
M  V30 6044 C 575.464 5.71394 1.52521 0
M  V30 6045 H 574.394 0.671953 0.342045 0
M  V30 6046 H 577.045 1.82808 0.159164 0
M  V30 6047 H 575.427 3.10922 2.45242 0
M  V30 6048 H 576.601 4.60797 0.0177261 0
M  V30 6049 H 574.916 4.16035 0.174199 0
M  V30 6050 H 577.513 4.46715 2.93854 0
M  V30 6051 H 577.856 2.76359 3.11338 0
M  V30 6052 H 578.389 3.62108 1.6469 0
M  V30 6053 H 575.128 6.50316 0.82275 0
M  V30 6054 H 574.648 5.55928 2.25175 0
M  V30 6055 H 576.327 6.12747 2.07725 0
M  V30 6056 N 576.459 -0.456382 1.50847 0
M  V30 6057 C 577.687 -1.23026 1.66349 0
M  V30 6058 C 578.102 -1.85473 0.352868 0
M  V30 6059 O 577.459 -1.69885 -0.666739 0
M  V30 6060 C 577.51 -2.32827 2.76539 0
M  V30 6061 O 577.231 -1.72938 4.02522 0
M  V30 6062 C 578.732 -3.23448 3.03144 0
M  V30 6063 H 575.952 -0.371527 0.558756 0
M  V30 6064 H 578.496 -0.543082 1.97157 0
M  V30 6065 H 576.651 -2.97294 2.48384 0
M  V30 6066 H 577.065 -2.45357 4.63573 0
M  V30 6067 H 578.539 -3.96669 3.83872 0
M  V30 6068 H 579.016 -3.83094 2.14793 0
M  V30 6069 H 579.622 -2.64702 3.32886 0
M  V30 6070 N 577.937 -1.40673 -0.710563 0
M  V30 6071 C 579.183 -1.39428 -1.47267 0
M  V30 6072 C 579.516 0.00182129 -1.942 0
M  V30 6073 O 578.791 0.971387 -1.68506 0
M  V30 6074 C 579.074 -2.38812 -2.6952 0
M  V30 6075 C 578.927 -3.87467 -2.28449 0
M  V30 6076 C 580.246 -2.3566 -3.71689 0
M  V30 6077 H 577.365 -0.507768 -0.534173 0
M  V30 6078 H 580.007 -1.71843 -0.810547 0
M  V30 6079 H 578.157 -2.113 -3.26013 0
M  V30 6080 H 579.829 -4.25825 -1.77399 0
M  V30 6081 H 578.072 -4.03058 -1.60395 0
M  V30 6082 H 578.743 -4.5253 -3.16103 0
M  V30 6083 H 581.219 -2.6004 -3.24836 0
M  V30 6084 H 580.095 -3.07237 -4.54859 0
M  V30 6085 H 580.356 -1.36996 -4.20339 0
M  V30 6086 N 579.415 0.9433 -1.26252 0
M  V30 6087 C 580.692 1.66639 -1.02424 0
M  V30 6088 C 581.072 2.06335 0.446006 0
M  V30 6089 O 580.42 1.78551 1.42589 0
M  V30 6090 C 580.63 2.88019 -1.97094 0
M  V30 6091 C 581.978 3.59718 -2.25584 0
M  V30 6092 O 583.002 2.9812 -1.94943 0
M  V30 6093 O 581.861 4.7066 -2.77743 0
M  V30 6094 H 578.955 0.729643 -0.389294 0
M  V30 6095 H 581.501 0.995218 -1.37454 0
M  V30 6096 H 580.273 2.5556 -2.96319 0
M  V30 6097 H 579.896 3.62863 -1.62532 0
M  V30 6098 N 580.893 1.08022 1.14757 0
M  V30 6099 C 582.142 0.802468 1.8505 0
M  V30 6100 C 582.455 -0.674061 1.83619 0
M  V30 6101 O 583.661 -1.06683 2.49662 0
M  V30 6102 C 582.117 1.38551 3.32162 0
M  V30 6103 C 581.725 2.89354 3.42021 0
M  V30 6104 C 583.469 1.18608 4.07594 0
M  V30 6105 C 581.376 3.40815 4.83321 0
M  V30 6106 H 580.306 0.296518 0.693248 0
M  V30 6107 H 582.957 1.30114 1.29393 0
M  V30 6108 H 581.339 0.814556 3.87532 0
M  V30 6109 H 582.513 3.52552 2.96722 0
M  V30 6110 H 580.828 3.08165 2.80041 0
M  V30 6111 H 583.425 1.54525 5.11885 0
M  V30 6112 H 583.768 0.125599 4.1611 0
M  V30 6113 H 584.301 1.72375 3.58513 0
M  V30 6114 H 581.04 4.46418 4.79991 0
M  V30 6115 H 580.56 2.82374 5.29174 0
M  V30 6116 H 582.239 3.37171 5.522 0
M  V30 6117 N 582.371 -1.3172 0.865308 0
M  V30 6118 C 583.619 -1.96487 0.472995 0
M  V30 6119 C 583.94 -1.68761 -0.976975 0
M  V30 6120 O 583.21 -1.00051 -1.68424 0
M  V30 6121 H 581.79 -0.726947 0.171922 0
M  V30 6122 H 584.452 -1.60612 1.10407 0
M  V30 6123 H 583.548 -3.0574 0.62687 0
M  V30 6124 N 583.85 -0.624285 -1.44708 0
M  V30 6125 C 585.077 -0.132919 -2.06473 0
M  V30 6126 C 585.493 1.18967 -1.46602 0
M  V30 6127 O 584.85 1.72824 -0.586341 0
M  V30 6128 C 584.901 -0.00465418 -3.615 0
M  V30 6129 O 584.622 -1.27494 -4.19138 0
M  V30 6130 C 586.123 0.516213 -4.40284 0
M  V30 6131 H 583.343 -0.0765201 -0.666623 0
M  V30 6132 H 585.887 -0.856751 -1.85688 0
M  V30 6133 H 584.042 0.669583 -3.8157 0
M  V30 6134 H 584.456 -1.11536 -5.12504 0
M  V30 6135 H 585.93 0.554994 -5.49203 0
M  V30 6136 H 586.407 1.5419 -4.11245 0
M  V30 6137 H 587.013 -0.124542 -4.25118 0
M  V30 6138 N 585.328 1.53329 -0.364422 0
M  V30 6139 C 586.739 1.86345 0.115039 0
M  V30 6140 C 587.09 1.28505 1.4826 0
M  V30 6141 O 586.215 0.606639 2.07723 0
M  V30 6142 C 586.81 3.38114 0.215522 0
M  V30 6143 C 585.369 3.70932 0.639237 0
M  V30 6144 C 584.516 2.76471 -0.214261 0
M  V30 6145 H 587.467 1.47593 -0.583258 0
M  V30 6146 H 587.488 3.66031 1.0393 0
M  V30 6147 H 587 3.80182 -0.779948 0
M  V30 6148 H 585.101 3.3442 1.64298 0
M  V30 6149 H 585.214 4.77302 0.41465 0
M  V30 6150 H 583.578 2.52724 0.316678 0
M  V30 6151 H 584.361 3.21373 -1.20725 0
M  V30 6152 N 586.806 0.0935595 1.57322 0
M  V30 6153 C 588.031 -0.582324 1.99057 0
M  V30 6154 C 588.456 -1.61025 0.972242 0
M  V30 6155 O 587.814 -1.81202 -0.0594622 0
M  V30 6156 C 587.862 -1.20799 3.39765 0
M  V30 6157 O 586.966 -2.32382 3.40694 0
M  V30 6158 H 586.307 -0.147884 0.647323 0
M  V30 6159 H 588.837 0.174516 2.03854 0
M  V30 6160 H 588.847 -1.54966 3.77425 0
M  V30 6161 H 587.522 -0.454914 4.13405 0
M  V30 6162 H 586.099 -1.99845 3.14827 0
M  V30 6163 O 588.323 -1.61433 -0.0465113 0
M  V30 6164 H 589.014 -1.8177 -0.669292 0
M  V30 END ATOM
M  V30 BEGIN BOND
M  V30 END BOND
M  V30 END CTAB
M  END
$$$$
