drugbank_target|P56385 ATP synthase subunit e, mitochondrial (DB12695)
 OpenBabel12092121073D

  0  0  0     0  0            999 V3000
M  V30 BEGIN CTAB
M  V30 COUNTS 1146 1154 0 0 0
M  V30 BEGIN ATOM
M  V30 1 H -0.908 1.98254 -0.117106 0
M  V30 2 N 0 1.576 0 0
M  V30 3 C 0.933 2.03868 1.02534 0
M  V30 4 C 1.911 0.928543 1.3348 0
M  V30 5 O 3.095 1.19667 1.45644 0
M  V30 6 C 0.222 2.43627 2.35294 0
M  V30 7 C -0.732 3.65373 2.2001 0
M  V30 8 S 0.101 5.13292 1.52614 0
M  V30 9 C 1.257 5.56322 2.86805 0
M  V30 10 H 1.49 2.90518 0.631377 0
M  V30 11 H -0.977 1.52953 0.210867 0
M  V30 12 H 0.981 2.67203 3.11629 0
M  V30 13 H -0.358 1.57376 2.7183 0
M  V30 14 H -1.165 3.90944 3.18086 0
M  V30 15 H -1.563 3.418 1.51819 0
M  V30 16 H 0.729 5.58782 3.83104 0
M  V30 17 H 1.672 6.56266 2.65933 0
M  V30 18 H 2.08 4.83886 2.90714 0
M  V30 19 N 1.4781 -0.272755 1.55222 0
M  V30 20 C 2.7241 -1.00581 1.761 0
M  V30 21 C 3.0571 -1.85932 0.560625 0
M  V30 22 O 2.3321 -1.89416 -0.441801 0
M  V30 23 C 2.6151 -1.88816 3.06628 0
M  V30 24 C 2.4681 -1.06457 4.37021 0
M  V30 25 C 3.7871 -2.8752 3.33197 0
M  V30 26 H 0.9061 -0.364244 0.640699 0
M  V30 27 H 3.5481 -0.278189 1.87952 0
M  V30 28 H 1.6981 -2.50856 2.96654 0
M  V30 29 H 3.3701 -0.464863 4.58952 0
M  V30 30 H 1.6131 -0.368043 4.32236 0
M  V30 31 H 2.2841 -1.71514 5.24678 0
M  V30 32 H 4.7601 -2.35615 3.42965 0
M  V30 33 H 3.6361 -3.46399 4.25792 0
M  V30 34 H 3.8971 -3.62657 2.52849 0
M  V30 35 N 2.9562 -1.48159 -0.537278 0
M  V30 36 C 4.3672 -1.49429 -1.11928 0
M  V30 37 C 4.7182 -0.26 -1.9447 0
M  V30 38 O 3.8432 0.633489 -2.0692 0
M  V30 39 C 4.4382 -2.70758 -2.03656 0
M  V30 40 C 2.9972 -2.74923 -2.57088 0
M  V30 41 C 2.1442 -2.42835 -1.3389 0
M  V30 42 H 5.0952 -1.55381 -0.322886 0
M  V30 43 H 5.1162 -2.48861 -2.87834 0
M  V30 44 H 4.6282 -3.60575 -1.43553 0
M  V30 45 H 2.7292 -1.89296 -3.20933 0
M  V30 46 H 2.8422 -3.76157 -2.9672 0
M  V30 47 H 1.2062 -1.93836 -1.65226 0
M  V30 48 H 1.9892 -3.34884 -0.755504 0
M  V30 49 N 4.4343 0.785586 -1.36625 0
M  V30 50 C 5.8453 1.36101 -1.27803 0
M  V30 51 C 6.1963 1.96035 0.0804875 0
M  V30 52 O 5.3213 1.92834 0.982042 0
M  V30 53 C 5.9163 2.47442 -2.31426 0
M  V30 54 C 4.4753 3.00789 -2.26281 0
M  V30 55 C 3.6223 1.73896 -2.15999 0
M  V30 56 H 6.5733 0.586928 -1.47448 0
M  V30 57 H 6.5943 3.2656 -1.95291 0
M  V30 58 H 6.1063 2.03791 -3.30289 0
M  V30 59 H 4.2073 3.48851 -1.30896 0
M  V30 60 H 4.3203 3.57343 -3.19128 0
M  V30 61 H 2.6843 1.9628 -1.62316 0
M  V30 62 H 3.4673 1.32368 -3.16755 0
M  V30 63 N 5.9124 1.20967 1.01018 0
M  V30 64 C 7.1584 1.02526 1.74975 0
M  V30 65 C 7.4914 -0.4408 1.89131 0
M  V30 66 O 6.7664 -1.32718 1.42184 0
M  V30 67 C 7.0494 1.71699 3.1653 0
M  V30 68 C 6.9024 3.25791 3.10129 0
M  V30 69 C 8.2214 1.45531 4.15342 0
M  V30 70 H 5.3404 0.373863 0.635134 0
M  V30 71 H 7.9824 1.49071 1.17805 0
M  V30 72 H 6.1324 1.32128 3.65341 0
M  V30 73 H 7.8044 3.74697 2.69072 0
M  V30 74 H 6.0474 3.56363 2.47362 0
M  V30 75 H 6.7184 3.69353 4.10222 0
M  V30 76 H 9.1944 1.79872 3.75213 0
M  V30 77 H 8.0704 1.96453 5.1254 0
M  V30 78 H 8.3314 0.384237 4.40427 0
M  V30 79 N 7.3905 -1.2043 1.01659 0
M  V30 80 C 8.3225 -2.22626 0.544988 0
M  V30 81 C 9.3355 -1.58479 -0.372609 0
M  V30 82 O 10.5245 -1.77679 -0.170958 0
M  V30 83 C 7.6245 -3.38141 -0.22663 0
M  V30 84 C 6.7975 -4.31877 0.692876 0
M  V30 85 C 5.8565 -5.26191 -0.0311616 0
M  V30 86 O 4.8825 -5.6612 0.591343 0
M  V30 87 N 6.0845 -5.65618 -1.30601 0
M  V30 88 H 8.8495 -2.63716 1.42388 0
M  V30 89 H 6.4105 -1.34971 0.894116 0
M  V30 90 H 8.4025 -3.98239 -0.72024 0
M  V30 91 H 6.9725 -2.95943 -1.00681 0
M  V30 92 H 6.1925 -3.69746 1.36679 0
M  V30 93 H 7.4805 -4.91426 1.31824 0
M  V30 94 H 6.8785 -5.3519 -1.83269 0
M  V30 95 H 5.4355 -6.28025 -1.74435 0
M  V30 96 N 8.8686 -0.792821 -1.36206 0
M  V30 97 C 10.1146 -0.36733 -1.99446 0
M  V30 98 C 10.4476 1.05917 -1.62774 0
M  V30 99 O 9.7226 1.7324 -0.88421 0
M  V30 100 C 10.0056 -0.535044 -3.56103 0
M  V30 101 C 9.8586 -2.00548 -4.02617 0
M  V30 102 C 11.1776 0.0478191 -4.40074 0
M  V30 103 H 8.2966 -0.134941 -0.724541 0
M  V30 104 H 10.9386 -0.999794 -1.61568 0
M  V30 105 H 9.0886 0.00336329 -3.885 0
M  V30 106 H 10.7606 -2.60521 -3.80692 0
M  V30 107 H 9.0036 -2.50686 -3.54032 0
M  V30 108 H 9.6746 -2.07377 -5.11565 0
M  V30 109 H 12.1506 -0.411822 -4.14057 0
M  V30 110 H 11.0266 -0.0995336 -5.4881 0
M  V30 111 H 11.2876 1.14025 -4.27142 0
M  V30 112 N 10.3467 1.47872 -0.545128 0
M  V30 113 C 11.5717 2.07391 -0.0190611 0
M  V30 114 C 11.9967 1.39688 1.25971 0
M  V30 115 O 11.3547 0.467816 1.7516 0
M  V30 116 C 11.4027 3.60188 0.172335 0
M  V30 117 O 10.5067 3.9339 1.23766 0
M  V30 118 H 9.8477 0.662411 -0.0459059 0
M  V30 119 H 12.3777 1.90066 -0.757365 0
M  V30 120 H 12.3877 4.06129 0.390305 0
M  V30 121 H 11.0627 4.08865 -0.761725 0
M  V30 122 H 9.6397 3.5921 1.00114 0
M  V30 123 N 11.8248 0.280983 1.55075 0
M  V30 124 C 13.2358 -0.215629 1.85451 0
M  V30 125 C 13.5868 -1.54991 1.203 0
M  V30 126 O 12.7118 -2.10699 0.493435 0
M  V30 127 C 13.3068 -0.398026 3.36454 0
M  V30 128 C 11.8658 -0.838866 3.66933 0
M  V30 129 C 11.0128 0.064458 2.77225 0
M  V30 130 H 13.9638 0.502601 1.50531 0
M  V30 131 H 13.9848 -1.23569 3.59876 0
M  V30 132 H 13.4968 0.573241 3.83843 0
M  V30 133 H 11.5978 -1.8214 3.25048 0
M  V30 134 H 11.7108 -0.672123 4.74362 0
M  V30 135 H 10.0748 -0.452863 2.50642 0
M  V30 136 H 10.8578 1.03172 3.2743 0
M  V30 137 N 13.3029 -1.57598 0.00835791 0
M  V30 138 C 14.2329 -2.1198 -0.979113 0
M  V30 139 C 15.2139 -1.03091 -1.35301 0
M  V30 140 O 16.3989 -1.30818 -1.43528 0
M  V30 141 C 13.5289 -2.62995 -2.26828 0
M  V30 142 C 12.4829 -3.76485 -2.03576 0
M  V30 143 C 11.8089 -4.13846 -3.38579 0
M  V30 144 C 13.1089 -5.0342 -1.39161 0
M  V30 145 H 14.8029 -2.94738 -0.526281 0
M  V30 146 H 12.3489 -1.41783 -0.251704 0
M  V30 147 H 14.3019 -2.99669 -2.96271 0
M  V30 148 H 13.0259 -1.7737 -2.7424 0
M  V30 149 H 11.6849 -3.40217 -1.36557 0
M  V30 150 H 11.3329 -3.25232 -3.83709 0
M  V30 151 H 11.0329 -4.90312 -3.23834 0
M  V30 152 H 12.5569 -4.53086 -4.09323 0
M  V30 153 H 13.9709 -5.37812 -1.98573 0
M  V30 154 H 12.3679 -5.84746 -1.34878 0
M  V30 155 H 13.4379 -4.83548 -0.361868 0
M  V30 156 N 14.781 0.264519 -1.55364 0
M  V30 157 C 16.03 0.992812 -1.75574 0
M  V30 158 C 16.343 1.87142 -0.568979 0
M  V30 159 O 17.549 2.63513 -0.653682 0
M  V30 160 C 16.005 1.81519 -3.10771 0
M  V30 161 C 15.613 0.984839 -4.37041 0
M  V30 162 C 17.357 2.53727 -3.40327 0
M  V30 163 C 15.264 1.80209 -5.63275 0
M  V30 164 H 14.194 0.374412 -0.65447 0
M  V30 165 H 16.845 0.248138 -1.81815 0
M  V30 166 H 15.227 2.60115 -2.98591 0
M  V30 167 H 16.401 0.242455 -4.60162 0
M  V30 168 H 14.716 0.37691 -4.14691 0
M  V30 169 H 17.313 3.15292 -4.3185 0
M  V30 170 H 17.656 3.24447 -2.60845 0
M  V30 171 H 18.189 1.82156 -3.53644 0
M  V30 172 H 14.928 1.13896 -6.45529 0
M  V30 173 H 14.448 2.52022 -5.44284 0
M  V30 174 H 16.127 2.37364 -6.01887 0
M  V30 175 N 16.2591 1.48442 0.529413 0
M  V30 176 C 17.2061 1.63007 1.63394 0
M  V30 177 C 18.1761 0.47212 1.59249 0
M  V30 178 O 19.3611 0.695673 1.77666 0
M  V30 179 C 16.5011 1.6763 3.01653 0
M  V30 180 C 15.6141 2.94535 3.16027 0
M  V30 181 C 14.7491 2.90316 4.44849 0
M  V30 182 C 13.7881 4.11923 4.52754 0
M  V30 183 N 12.9251 4.05777 5.72965 0
M  V30 184 H 17.7651 2.5733 1.50285 0
M  V30 185 H 15.3021 1.27613 0.731656 0
M  V30 186 H 17.2601 1.68292 3.81751 0
M  V30 187 H 15.8901 0.76797 3.13532 0
M  V30 188 H 14.9421 3.03615 2.29177 0
M  V30 189 H 16.2541 3.84512 3.17729 0
M  V30 190 H 15.4081 2.89382 5.33238 0
M  V30 191 H 14.1471 1.98068 4.45668 0
M  V30 192 H 13.1521 4.13131 3.62771 0
M  V30 193 H 14.3771 5.0533 4.53672 0
M  V30 194 H 12.3231 3.16351 5.74681 0
M  V30 195 H 12.2401 4.8946 5.76164 0
M  V30 196 H 13.5081 4.08904 6.6364 0
M  V30 197 N 17.7372 -0.778329 1.37039 0
M  V30 198 C 18.6672 -1.90546 1.34962 0
M  V30 199 C 19.6482 -1.68681 0.219274 0
M  V30 200 O 20.8332 -1.89634 0.418624 0
M  V30 201 C 17.9632 -3.27734 1.14925 0
M  V30 202 C 16.9172 -3.64147 2.24902 0
M  V30 203 C 16.2432 -4.99806 1.89996 0
M  V30 204 C 17.5432 -3.71579 3.67051 0
M  V30 205 H 19.2372 -1.92541 2.29277 0
M  V30 206 H 16.7832 -0.924948 1.10366 0
M  V30 207 H 18.7362 -4.06215 1.12104 0
M  V30 208 H 17.4602 -3.26154 0.170631 0
M  V30 209 H 16.1192 -2.8797 2.26868 0
M  V30 210 H 15.7672 -4.94759 0.906796 0
M  V30 211 H 15.4672 -5.25139 2.63634 0
M  V30 212 H 16.9912 -5.80694 1.88749 0
M  V30 213 H 18.4052 -4.40227 3.67251 0
M  V30 214 H 16.8022 -4.08405 4.39688 0
M  V30 215 H 17.8722 -2.72404 4.01154 0
M  V30 216 N 19.2153 -1.21501 -1.00376 0
M  V30 217 C 20.4633 -1.03095 -1.73827 0
M  V30 218 C 20.7843 0.436341 -1.90055 0
M  V30 219 O 20.0543 1.31466 -1.45236 0
M  V30 220 H 18.6343 -0.378487 -0.644016 0
M  V30 221 H 21.2963 -1.52831 -1.20949 0
M  V30 222 H 20.3923 -1.49991 -2.73695 0
M  V30 223 N 20.6934 1.19889 -1.02296 0
M  V30 224 C 22.1094 1.41462 -0.738954 0
M  V30 225 C 22.3094 1.89721 0.678846 0
M  V30 226 O 21.3654 2.07016 1.4457 0
M  V30 227 C 22.6784 2.43083 -1.77005 0
M  V30 228 C 24.2264 2.5684 -1.78892 0
M  V30 229 C 24.7014 3.61709 -2.80945 0
M  V30 230 N 26.1924 3.69199 -2.79725 0
M  V30 231 C 26.9274 4.50019 -3.55345 0
M  V30 232 N 26.4234 5.34592 -4.40662 0
M  V30 233 N 28.2164 4.44612 -3.43914 0
M  V30 234 H 20.3674 0.868827 -1.93817 0
M  V30 235 H 22.6304 0.44399 -0.837602 0
M  V30 236 H 22.3364 2.14636 -2.78612 0
M  V30 237 H 22.2104 3.4217 -1.58744 0
M  V30 238 H 24.5974 2.84614 -0.779674 0
M  V30 239 H 24.6784 1.57927 -2.01228 0
M  V30 240 H 24.3224 3.34678 -3.82038 0
M  V30 241 H 24.2524 4.60259 -2.5587 0
M  V30 242 H 26.7434 3.08794 -2.17842 0
M  V30 243 H 27.0564 5.93363 -4.95116 0
M  V30 244 H 25.4014 5.34073 -4.44737 0
M  V30 245 H 28.5924 3.7758 -2.76679 0
M  V30 246 H 28.7654 5.0736 -4.031 0
M  V30 247 N 22.1715 0.800033 1.35784 0
M  V30 248 C 23.4015 0.389041 2.02904 0
M  V30 249 C 23.8095 -1.0027 1.60445 0
M  V30 250 O 23.1525 -1.65633 0.794453 0
M  V30 251 C 23.2145 0.385495 3.57427 0
M  V30 252 C 22.8785 1.72662 4.23127 0
M  V30 253 C 23.8755 2.68385 4.4527 0
M  V30 254 C 21.5605 2.00883 4.60381 0
M  V30 255 C 23.5545 3.90517 5.03761 0
M  V30 256 C 21.2415 3.2328 5.18588 0
M  V30 257 C 22.2395 4.17915 5.40218 0
M  V30 258 O 21.9275 5.38153 5.97199 0
M  V30 259 H 21.6595 0.157032 0.657508 0
M  V30 260 H 24.2135 1.08311 1.74522 0
M  V30 261 H 22.4435 -0.365128 3.84972 0
M  V30 262 H 24.1325 -0.00228296 4.059 0
M  V30 263 H 24.8985 2.47872 4.16874 0
M  V30 264 H 20.7775 1.28037 4.42863 0
M  V30 265 H 24.3215 4.64395 5.2056 0
M  V30 266 H 20.2185 3.43667 5.4641 0
M  V30 267 H 20.9865 5.3936 6.15656 0
M  V30 268 N 23.6496 -1.47581 0.552962 0
M  V30 269 C 24.8746 -2.07378 0.0300593 0
M  V30 270 C 25.2996 -1.40355 -1.25229 0
M  V30 271 O 24.6576 -0.477099 -1.7491 0
M  V30 272 C 24.7056 -3.60274 -0.153231 0
M  V30 273 O 23.8096 -3.94041 -1.21678 0
M  V30 274 H 23.1506 -0.662158 0.0494182 0
M  V30 275 H 25.6806 -1.89662 0.767434 0
M  V30 276 H 25.6906 -4.0633 -0.368761 0
M  V30 277 H 24.3656 -4.08455 0.783397 0
M  V30 278 H 22.9426 -3.59735 -0.982079 0
M  V30 279 N 25.1277 -0.289203 -1.54924 0
M  V30 280 C 26.0907 0.579144 -2.21762 0
M  V30 281 C 27.0907 1.07047 -1.1999 0
M  V30 282 O 28.2807 0.968384 -1.44803 0
M  V30 283 C 25.4127 1.80055 -2.8947 0
M  V30 284 H 26.6057 -0.00464908 -2.999 0
M  V30 285 H 24.1587 -0.0399306 -1.56249 0
M  V30 286 H 24.8937 2.42449 -2.15381 0
M  V30 287 H 24.6787 1.45602 -3.64064 0
M  V30 288 H 26.1687 2.41773 -3.40493 0
M  V30 289 N 26.6058 1.57591 -0.0167156 0
M  V30 290 C 27.5358 2.12496 0.967858 0
M  V30 291 C 28.5168 1.03807 1.34752 0
M  V30 292 O 29.7018 1.31577 1.42833 0
M  V30 293 C 26.8318 2.64194 2.25431 0
M  V30 294 C 25.7858 3.77559 2.01576 0
M  V30 295 C 25.1118 4.15636 3.36379 0
M  V30 296 C 26.4118 5.04151 1.36489 0
M  V30 297 H 28.1058 2.95013 0.510643 0
M  V30 298 H 25.6518 1.41915 0.244181 0
M  V30 299 H 27.6048 3.01236 2.94678 0
M  V30 300 H 26.3288 1.78821 2.73296 0
M  V30 301 H 24.9878 3.40937 1.34751 0
M  V30 302 H 24.6358 3.27263 3.81979 0
M  V30 303 H 24.3358 4.92022 3.21229 0
M  V30 304 H 25.8598 4.5525 4.06915 0
M  V30 305 H 27.2738 5.38857 1.95718 0
M  V30 306 H 25.6708 5.85453 1.31776 0
M  V30 307 H 26.7408 4.83733 0.336219 0
M  V30 308 N 28.0839 -0.256276 1.55502 0
M  V30 309 C 29.3309 -0.985619 1.76895 0
M  V30 310 C 29.6589 -1.85671 0.579355 0
M  V30 311 O 28.9139 -1.90744 -0.437651 0
M  V30 312 C 29.2129 -1.88432 3.03691 0
M  V30 313 C 28.8789 -1.16936 4.35473 0
M  V30 314 C 27.5409 -0.97173 4.71286 0
M  V30 315 C 29.8929 -0.661889 5.1698 0
M  V30 316 C 27.2209 -0.254179 5.86149 0
M  V30 317 C 29.5729 0.042149 6.32586 0
M  V30 318 C 28.2369 0.25134 6.67027 0
M  V30 319 H 27.5069 -0.360663 0.647304 0
M  V30 320 H 30.1539 -0.256483 1.89775 0
M  V30 321 H 28.4589 -2.68021 2.85783 0
M  V30 322 H 30.1559 -2.45015 3.1744 0
M  V30 323 H 26.7459 -1.33332 4.07333 0
M  V30 324 H 30.9299 -0.802145 4.89775 0
M  V30 325 H 26.1859 -0.0815408 6.11346 0
M  V30 326 H 30.3599 0.443049 6.94989 0
M  V30 327 H 27.9869 0.809314 7.5588 0
M  V30 328 N 29.562 -1.4872 -0.521534 0
M  V30 329 C 30.492 -1.66771 -1.63431 0
M  V30 330 C 31.473 -0.516499 -1.62069 0
M  V30 331 O 32.658 -0.750013 -1.79132 0
M  V30 332 C 29.788 -1.71515 -3.01993 0
M  V30 333 C 28.742 -2.86222 -3.18216 0
M  V30 334 C 28.068 -2.76061 -4.57924 0
M  V30 335 C 29.368 -4.27419 -3.00184 0
M  V30 336 H 31.062 -2.59932 -1.48579 0
M  V30 337 H 28.608 -1.25089 -0.713358 0
M  V30 338 H 30.561 -1.82731 -3.7972 0
M  V30 339 H 29.285 -0.749393 -3.17886 0
M  V30 340 H 27.944 -2.74575 -2.42908 0
M  V30 341 H 27.592 -1.77437 -4.70665 0
M  V30 342 H 27.292 -3.53037 -4.69722 0
M  V30 343 H 28.816 -2.89256 -5.37739 0
M  V30 344 H 30.23 -4.39855 -3.67697 0
M  V30 345 H 28.627 -5.05458 -3.2347 0
M  V30 346 H 29.697 -4.43293 -1.96518 0
M  V30 347 N 31.0401 0.771051 -1.3745 0
M  V30 348 C 32.2881 1.52661 -1.32435 0
M  V30 349 C 32.6091 1.9479 0.0905024 0
M  V30 350 O 31.8791 1.66348 1.03466 0
M  V30 351 H 30.4591 0.566218 -0.487244 0
M  V30 352 H 33.1211 0.917636 -1.71946 0
M  V30 353 H 32.2171 2.42568 -1.96385 0
M  V30 354 N 32.5182 1.22032 0.997298 0
M  V30 355 C 33.7642 1.04376 1.73878 0
M  V30 356 C 34.0972 -0.420716 1.89588 0
M  V30 357 O 33.3722 -1.31202 1.43583 0
M  V30 358 C 33.6552 1.75047 3.14691 0
M  V30 359 C 33.5082 3.29062 3.06656 0
M  V30 360 C 34.8272 1.49928 4.13775 0
M  V30 361 H 31.9462 0.380578 0.631133 0
M  V30 362 H 34.5882 1.50312 1.16217 0
M  V30 363 H 32.7382 1.35996 3.63919 0
M  V30 364 H 34.4102 3.7753 2.65083 0
M  V30 365 H 32.6532 3.58967 2.43568 0
M  V30 366 H 33.3242 3.73683 4.06282 0
M  V30 367 H 35.8002 1.83842 3.73285 0
M  V30 368 H 34.6762 2.01878 5.10428 0
M  V30 369 H 34.9372 0.430929 4.39995 0
M  V30 370 N 33.9963 -1.19345 1.0293 0
M  V30 371 C 34.9593 -2.20793 0.615069 0
M  V30 372 C 35.9593 -1.57553 -0.321533 0
M  V30 373 O 37.1493 -1.73862 -0.108483 0
M  V30 374 C 34.2813 -3.40754 -0.0999222 0
M  V30 375 H 35.4743 -2.58955 1.51269 0
M  V30 376 H 33.0273 -1.3303 0.820534 0
M  V30 377 H 33.7623 -3.0811 -1.01187 0
M  V30 378 H 33.5473 -3.87889 0.57309 0
M  V30 379 H 35.0373 -4.15898 -0.376645 0
M  V30 380 N 35.4744 -0.807222 -1.35358 0
M  V30 381 C 36.7044 -0.399796 -2.02695 0
M  V30 382 C 37.1124 0.994176 -1.60974 0
M  V30 383 O 36.4554 1.65209 -0.803226 0
M  V30 384 C 36.5174 -0.404445 -3.57218 0
M  V30 385 C 36.1814 -1.74904 -4.22206 0
M  V30 386 C 37.1784 -2.70743 -4.4384 0
M  V30 387 C 34.8634 -2.03322 -4.5931 0
M  V30 388 C 36.8574 -3.93183 -5.01683 0
M  V30 389 C 34.5444 -3.26026 -5.16866 0
M  V30 390 C 35.5424 -4.20774 -5.37994 0
M  V30 391 O 35.2304 -5.41312 -5.94337 0
M  V30 392 H 34.9624 -0.160517 -0.656666 0
M  V30 393 H 37.5164 -1.09235 -1.73945 0
M  V30 394 H 35.7464 0.344707 -3.85161 0
M  V30 395 H 37.4354 -0.0192429 -4.05895 0
M  V30 396 H 38.2014 -2.5008 -4.15554 0
M  V30 397 H 34.0804 -1.30384 -4.42178 0
M  V30 398 H 37.6244 -4.6715 -5.1809 0
M  V30 399 H 33.5214 -3.46559 -5.44579 0
M  V30 400 H 34.2894 -5.42618 -6.12787 0
M  V30 401 N 36.9525 1.47285 -0.560781 0
M  V30 402 C 38.2005 2.02064 -0.0379868 0
M  V30 403 C 38.5215 1.43711 1.31803 0
M  V30 404 O 37.7915 0.61362 1.86042 0
M  V30 405 H 36.3715 0.746918 -0.0110531 0
M  V30 406 H 39.0335 1.80648 -0.731598 0
M  V30 407 H 38.1295 3.12064 0.0474463 0
M  V30 408 N 38.4306 0.297415 1.54768 0
M  V30 409 C 39.3936 -0.567375 2.22066 0
M  V30 410 C 40.3936 -1.06409 1.20556 0
M  V30 411 O 41.5836 -0.960691 1.45315 0
M  V30 412 C 38.7156 -1.78517 2.90421 0
M  V30 413 H 39.9086 0.0205534 2.99893 0
M  V30 414 H 37.4616 0.0482163 1.56226 0
M  V30 415 H 38.1966 -2.41303 2.16664 0
M  V30 416 H 37.9816 -1.43669 3.64831 0
M  V30 417 H 39.4716 -2.39964 3.41771 0
M  V30 418 N 39.9087 -1.5758 0.0250728 0
M  V30 419 C 41.1367 -1.9593 -0.664747 0
M  V30 420 C 41.5517 -0.901352 -1.65895 0
M  V30 421 O 40.9087 0.117255 -1.82123 0
M  V30 422 C 40.9597 -3.34342 -1.37468 0
M  V30 423 O 40.6807 -4.36079 -0.420324 0
M  V30 424 C 42.1817 -3.873 -2.1567 0
M  V30 425 H 39.4017 -0.645405 -0.183557 0
M  V30 426 H 41.9457 -2.04329 0.0836372 0
M  V30 427 H 40.1007 -3.27175 -2.0745 0
M  V30 428 H 40.5147 -5.16297 -0.923991 0
M  V30 429 H 41.9887 -4.86504 -2.60803 0
M  V30 430 H 42.4657 -3.21331 -2.99405 0
M  V30 431 H 43.0717 -3.97723 -1.50654 0
M  V30 432 N 41.3868 0.248026 -1.55636 0
M  V30 433 C 42.8028 0.596483 -1.48035 0
M  V30 434 C 43.0028 1.88386 -0.715039 0
M  V30 435 O 42.0588 2.51319 -0.243944 0
M  V30 436 C 43.3718 0.700258 -2.92433 0
M  V30 437 C 44.9198 0.792659 -3.02797 0
M  V30 438 C 45.3948 0.928005 -4.485 0
M  V30 439 N 46.8858 0.992903 -4.52433 0
M  V30 440 C 47.6208 1.11687 -5.62418 0
M  V30 441 N 47.1168 1.20645 -6.82214 0
M  V30 442 N 48.9098 1.14994 -5.50212 0
M  V30 443 H 41.0608 -0.597109 -2.03834 0
M  V30 444 H 43.3238 -0.205925 -0.925364 0
M  V30 445 H 43.0298 -0.175658 -3.51261 0
M  V30 446 H 42.9038 1.57255 -3.42857 0
M  V30 447 H 45.2908 1.65903 -2.4405 0
M  V30 448 H 45.3718 -0.104762 -2.55585 0
M  V30 449 H 45.0158 0.0661971 -5.07857 0
M  V30 450 H 44.9458 1.84045 -4.93391 0
M  V30 451 H 47.4368 0.935064 -3.66149 0
M  V30 452 H 47.7498 1.30008 -7.61786 0
M  V30 453 H 46.0948 1.17605 -6.84977 0
M  V30 454 H 49.2858 1.07643 -4.55555 0
M  V30 455 H 49.4588 1.24311 -6.35965 0
M  V30 456 N 42.8649 1.48995 0.513639 0
M  V30 457 C 44.0949 1.61297 1.291 0
M  V30 458 C 44.5029 0.278656 1.87137 0
M  V30 459 O 43.8459 -0.744325 1.67945 0
M  V30 460 C 43.9079 2.61326 2.46879 0
M  V30 461 C 43.5719 4.05993 2.09807 0
M  V30 462 C 44.5689 4.93183 1.64519 0
M  V30 463 C 42.2539 4.51642 2.19829 0
M  V30 464 C 44.2479 6.24056 1.2974 0
M  V30 465 C 41.9349 5.82532 1.84662 0
M  V30 466 C 42.9329 6.68562 1.3969 0
M  V30 467 O 42.6209 7.97014 1.04992 0
M  V30 468 H 42.3529 0.546236 0.39825 0
M  V30 469 H 44.9069 1.95673 0.62459 0
M  V30 470 H 43.1369 2.22104 3.16554 0
M  V30 471 H 44.8259 2.6329 3.08923 0
M  V30 472 H 45.5919 4.59147 1.56233 0
M  V30 473 H 41.4709 3.84855 2.53786 0
M  V30 474 H 45.0149 6.91161 0.945659 0
M  V30 475 H 40.9119 6.16099 1.92594 0
M  V30 476 H 41.6799 8.09913 1.18249 0
M  V30 477 N 44.343 -0.763751 1.37857 0
M  V30 478 C 45.291 -1.89864 1.34367 0
M  V30 479 C 46.285 -1.67816 0.231143 0
M  V30 480 O 47.491 -1.75508 0.399617 0
M  V30 481 H 43.866 -0.624501 0.41893 0
M  V30 482 H 45.837 -1.89925 2.30155 0
M  V30 483 C 44.586 -3.27227 1.1755 0
M  V30 484 H 43.909 -3.44773 2.02414 0
M  V30 485 H 45.349 -4.06911 1.1916 0
M  V30 486 C 43.808 -3.36692 -0.118311 0
M  V30 487 O 44.338 -3.86374 -1.09902 0
M  V30 488 N 42.544 -2.90092 -0.171717 0
M  V30 489 H 42.091 -2.49853 0.627012 0
M  V30 490 H 42.049 -2.96806 -1.03699 0
M  V30 491 N 45.8211 -1.22559 -0.990812 0
M  V30 492 C 47.0511 -1.07623 -1.76355 0
M  V30 493 C 47.4591 0.37601 -1.85426 0
M  V30 494 O 46.8021 1.27228 -1.32509 0
M  V30 495 C 46.8641 -1.61507 -3.21179 0
M  V30 496 C 46.5281 -3.10146 -3.35646 0
M  V30 497 C 47.5251 -4.07553 -3.22796 0
M  V30 498 C 45.2101 -3.49644 -3.60631 0
M  V30 499 C 47.2041 -5.42442 -3.34716 0
M  V30 500 C 44.8911 -4.84682 -3.72192 0
M  V30 501 C 45.8891 -5.8089 -3.59243 0
M  V30 502 O 45.5771 -7.13476 -3.70415 0
M  V30 503 H 45.3091 -0.377745 -0.560611 0
M  V30 504 H 47.8631 -1.62658 -1.25425 0
M  V30 505 H 46.0931 -1.00881 -3.73309 0
M  V30 506 H 47.7821 -1.42202 -3.80175 0
M  V30 507 H 48.5481 -3.78381 -3.03403 0
M  V30 508 H 44.4271 -2.75282 -3.69785 0
M  V30 509 H 47.9711 -6.17518 -3.24526 0
M  V30 510 H 43.8681 -5.13534 -3.91092 0
M  V30 511 H 44.6361 -7.21083 -3.87275 0
M  V30 512 N 47.2992 1.18797 -1.03562 0
M  V30 513 C 48.2292 2.24472 -0.643019 0
M  V30 514 C 49.2102 1.66433 0.351283 0
M  V30 515 O 50.3952 1.92803 0.232505 0
M  V30 516 C 47.5252 3.473 4.24935e-05 0
M  V30 517 C 46.4792 4.18055 -0.917257 0
M  V30 518 C 45.8052 5.34519 -0.138941 0
M  V30 519 C 47.1052 4.72109 -2.23407 0
M  V30 520 H 48.7992 2.57566 -1.52643 0
M  V30 521 H 46.3452 1.23806 -0.735394 0
M  V30 522 H 48.2982 4.20426 0.286383 0
M  V30 523 H 47.0222 3.13424 0.918299 0
M  V30 524 H 45.6812 3.46821 -1.1879 0
M  V30 525 H 45.3292 4.96891 0.781562 0
M  V30 526 H 45.0292 5.82794 -0.750005 0
M  V30 527 H 46.5532 6.10438 0.1405 0
M  V30 528 H 47.9672 5.36955 -2.00879 0
M  V30 529 H 46.3642 5.30897 -2.79765 0
M  V30 530 H 47.4342 3.89807 -2.88407 0
M  V30 531 N 48.7773 0.814389 1.34928 0
M  V30 532 C 49.7243 0.22822 2.29669 0
M  V30 533 C 50.6943 -0.642164 1.53184 0
M  V30 534 O 51.8793 -0.585605 1.81591 0
M  V30 535 C 49.0193 -0.61089 3.3965 0
M  V30 536 C 48.1323 0.280792 4.31086 0
M  V30 537 C 47.2673 -0.567067 5.28165 0
M  V30 538 C 46.3063 0.324531 6.11239 0
M  V30 539 N 45.4433 -0.483756 7.00431 0
M  V30 540 H 50.2833 1.04153 2.79206 0
M  V30 541 H 47.8203 0.525133 1.37407 0
M  V30 542 H 49.7783 -1.11263 4.0209 0
M  V30 543 H 48.4083 -1.38939 2.91369 0
M  V30 544 H 47.4603 0.900688 3.69583 0
M  V30 545 H 48.7723 0.966723 4.89342 0
M  V30 546 H 47.9263 -1.13363 5.96015 0
M  V30 547 H 46.6653 -1.28654 4.70425 0
M  V30 548 H 45.6703 0.903298 5.42329 0
M  V30 549 H 46.8953 1.04198 6.71059 0
M  V30 550 H 44.8413 -1.18706 6.45171 0
M  V30 551 H 44.7583 0.143965 7.55863 0
M  V30 552 H 46.0263 -1.03334 7.7262 0
M  V30 553 N 50.2554 -1.46986 0.568584 0
M  V30 554 C 51.6664 -1.86188 0.138219 0
M  V30 555 C 52.0174 -1.47388 -1.29504 0
M  V30 556 O 51.1424 -0.88219 -1.97602 0
M  V30 557 C 51.7374 -3.3792 0.244065 0
M  V30 558 C 50.2964 -3.76171 -0.131335 0
M  V30 559 C 49.4434 -2.71027 0.586465 0
M  V30 560 H 52.3944 -1.38342 0.777645 0
M  V30 561 H 52.4154 -3.76729 -0.534351 0
M  V30 562 H 51.9274 -3.66128 1.28731 0
M  V30 563 H 50.0284 -3.5358 -1.17526 0
M  V30 564 H 50.1414 -4.78523 0.235146 0
M  V30 565 H 48.5054 -2.54684 0.0282722 0
M  V30 566 H 49.2884 -3.02077 1.63109 0
M  V30 567 N 51.7335 -0.305618 -1.54608 0
M  V30 568 C 53.1495 0.0476228 -1.59529 0
M  V30 569 C 53.3495 1.52025 -1.32252 0
M  V30 570 O 52.4055 2.27368 -1.09818 0
M  V30 571 C 53.7185 -0.354471 -2.98603 0
M  V30 572 C 55.2665 -0.303622 -3.11524 0
M  V30 573 C 55.7415 -0.680608 -4.52915 0
M  V30 574 N 57.2325 -0.63332 -4.5885 0
M  V30 575 C 57.9675 -0.897432 -5.66334 0
M  V30 576 N 57.4635 -1.22775 -6.81834 0
M  V30 577 N 59.2565 -0.824186 -5.56025 0
M  V30 578 H 51.4075 -1.2653 -1.70599 0
M  V30 579 H 53.6705 -0.513291 -0.797017 0
M  V30 580 H 53.3765 -1.3798 -3.23503 0
M  V30 581 H 53.2505 0.289568 -3.76087 0
M  V30 582 H 55.6375 0.712472 -2.8637 0
M  V30 583 H 55.7185 -0.982348 -2.36185 0
M  V30 584 H 55.3625 -1.69453 -4.78799 0
M  V30 585 H 55.2925 0.0202385 -5.26596 0
M  V30 586 H 57.7835 -0.389138 -3.75891 0
M  V30 587 H 58.0965 -1.41513 -7.59733 0
M  V30 588 H 56.4415 -1.26583 -6.83375 0
M  V30 589 H 59.6325 -0.565748 -4.64669 0
M  V30 590 H 59.8055 -1.03338 -6.39707 0
M  V30 591 N 53.2116 1.57565 -0.0334293 0
M  V30 592 C 54.1746 2.09393 0.932048 0
M  V30 593 C 55.1746 1.00986 1.25134 0
M  V30 594 O 56.3646 1.27129 1.19096 0
M  V30 595 C 53.4966 2.56338 2.2473 0
M  V30 596 H 54.6896 2.95984 0.483085 0
M  V30 597 H 52.2426 1.54819 0.21468 0
M  V30 598 H 52.9776 1.7309 2.74245 0
M  V30 599 H 52.7626 3.35542 2.02865 0
M  V30 600 H 54.2526 2.96646 2.93923 0
M  V30 601 N 54.6897 -0.239769 1.55765 0
M  V30 602 C 55.5997 -1.31831 1.94056 0
M  V30 603 C 56.6157 -1.52275 0.841925 0
M  V30 604 O 57.7917 -1.65759 1.14394 0
M  V30 605 C 54.8567 -2.65156 2.23368 0
M  V30 606 C 53.9177 -2.53173 3.46701 0
M  V30 607 C 53.1507 -3.8014 3.74606 0
M  V30 608 O 53.3737 -4.82343 3.04469 0
M  V30 609 O 52.3077 -3.78344 4.68123 0
M  V30 610 H 56.1337 -1.02347 2.85935 0
M  V30 611 H 53.7187 -0.441123 1.42739 0
M  V30 612 H 55.6007 -3.43929 2.43497 0
M  V30 613 H 54.2757 -2.94358 1.34666 0
M  V30 614 H 53.1827 -1.72662 3.31871 0
M  V30 615 H 54.5157 -2.28915 4.35728 0
M  V30 616 N 56.1678 -1.49265 -0.50573 0
M  V30 617 C 57.0778 -1.68312 -1.63427 0
M  V30 618 C 58.0938 -0.565682 -1.64548 0
M  V30 619 O 59.2698 -0.839801 -1.83055 0
M  V30 620 C 56.3348 -1.74107 -2.99813 0
M  V30 621 C 55.3958 -2.97653 -3.09356 0
M  V30 622 C 54.6288 -3.03163 -4.39236 0
M  V30 623 O 54.8518 -2.16396 -5.27758 0
M  V30 624 O 53.7858 -3.9558 -4.53652 0
M  V30 625 H 57.6118 -2.63907 -1.50289 0
M  V30 626 H 55.1968 -1.32951 -0.681502 0
M  V30 627 H 57.0788 -1.803 -3.80881 0
M  V30 628 H 55.7538 -0.816901 -3.13223 0
M  V30 629 H 54.6608 -2.96981 -2.27493 0
M  V30 630 H 55.9938 -3.89535 -3.00871 0
M  V30 631 N 57.6459 0.756429 -1.3826 0
M  V30 632 C 58.5559 1.9009 -1.37488 0
M  V30 633 C 59.5719 1.71855 -0.272366 0
M  V30 634 O 60.7479 1.94827 -0.510318 0
M  V30 635 C 57.8129 3.25421 -1.19592 0
M  V30 636 C 56.8739 3.56202 -2.39622 0
M  V30 637 C 56.1069 4.85075 -2.2257 0
M  V30 638 O 56.3299 5.57246 -1.21793 0
M  V30 639 O 55.2639 5.15269 -3.11098 0
M  V30 640 H 59.0899 1.93695 -2.33914 0
M  V30 641 H 56.6749 0.901313 -1.1915 0
M  V30 642 H 58.5569 4.06337 -1.11661 0
M  V30 643 H 57.2319 3.22634 -0.262486 0
M  V30 644 H 56.1389 2.75458 -2.53128 0
M  V30 645 H 57.4719 3.63747 -3.31586 0
M  V30 646 N 59.124 1.23083 0.984299 0
M  V30 647 C 60.54 0.992637 1.24975 0
M  V30 648 C 60.74 -0.308618 1.99123 0
M  V30 649 O 59.796 -1.02905 2.30579 0
M  V30 650 C 61.109 2.19698 2.05312 0
M  V30 651 C 62.657 2.24147 2.18465 0
M  V30 652 C 63.132 3.44157 3.02192 0
M  V30 653 N 64.623 3.44372 3.09777 0
M  V30 654 C 65.358 4.33886 3.74874 0
M  V30 655 N 64.854 5.3363 4.41827 0
M  V30 656 N 66.647 4.21639 3.71721 0
M  V30 657 H 58.798 2.06731 0.487453 0
M  V30 658 H 61.061 0.906339 0.277944 0
M  V30 659 H 60.767 3.1411 1.58201 0
M  V30 660 H 60.641 2.20465 3.06064 0
M  V30 661 H 63.028 1.30277 2.64786 0
M  V30 662 H 63.109 2.27415 1.17115 0
M  V30 663 H 62.753 4.38332 2.56568 0
M  V30 664 H 62.683 3.3813 4.03702 0
M  V30 665 H 65.174 2.72201 2.62135 0
M  V30 666 H 65.487 5.98196 4.89266 0
M  V30 667 H 63.832 5.37534 4.40548 0
M  V30 668 H 67.023 3.42962 3.18582 0
M  V30 669 H 67.196 4.91604 4.22173 0
M  V30 670 N 60.6021 -1.18246 1.0419 0
M  V30 671 C 62.0181 -1.40269 0.761366 0
M  V30 672 C 62.2181 -1.90777 -0.648578 0
M  V30 673 O 61.2741 -2.0929 -1.41258 0
M  V30 674 C 62.5871 -2.40237 1.8085 0
M  V30 675 C 64.1351 -2.53961 1.82955 0
M  V30 676 C 64.6101 -3.57194 2.86664 0
M  V30 677 N 66.1011 -3.64702 2.85563 0
M  V30 678 C 66.8361 -4.44309 3.6246 0
M  V30 679 N 66.3321 -5.27514 4.49111 0
M  V30 680 N 68.1251 -4.39084 3.50944 0
M  V30 681 H 60.2761 -0.837882 1.95175 0
M  V30 682 H 62.5391 -0.430608 0.84456 0
M  V30 683 H 62.2451 -2.10176 2.81991 0
M  V30 684 H 62.1191 -3.39601 1.64168 0
M  V30 685 H 64.5061 -2.83338 0.824855 0
M  V30 686 H 64.5871 -1.54706 2.03715 0
M  V30 687 H 64.2311 -3.28558 3.87314 0
M  V30 688 H 64.1611 -4.5613 2.6316 0
M  V30 689 H 66.6521 -3.05289 2.22727 0
M  V30 690 H 66.9651 -5.85411 5.04493 0
M  V30 691 H 65.3101 -5.2693 4.53178 0
M  V30 692 H 68.5011 -3.7313 2.82651 0
M  V30 693 H 68.6741 -5.00883 4.11121 0
M  V30 694 N 62.0802 -0.821533 -1.34494 0
M  V30 695 C 63.3292 -0.405355 -1.97585 0
M  V30 696 C 63.6422 1.03677 -1.65863 0
M  V30 697 O 64.8482 1.55679 -2.22433 0
M  V30 698 C 63.3042 -0.673861 -3.53535 0
M  V30 699 C 62.9122 -2.12951 -3.94152 0
M  V30 700 C 64.6562 -0.32378 -4.23263 0
M  V30 701 C 62.5632 -2.34298 -5.43009 0
M  V30 702 H 61.4932 -0.147836 -0.739365 0
M  V30 703 H 64.1442 -1.00769 -1.53355 0
M  V30 704 H 62.5262 -0.00137554 -3.96 0
M  V30 705 H 63.7002 -2.84104 -3.62797 0
M  V30 706 H 62.0152 -2.44089 -3.37356 0
M  V30 707 H 64.6122 -0.461126 -5.32708 0
M  V30 708 H 64.9552 0.731586 -4.09821 0
M  V30 709 H 65.4882 -0.950786 -3.8627 0
M  V30 710 H 62.2272 -3.38335 -5.61435 0
M  V30 711 H 61.7472 -1.67687 -5.75883 0
M  V30 712 H 63.4262 -2.16588 -6.09671 0
M  V30 713 N 63.5583 1.46682 -0.576371 0
M  V30 714 C 64.5213 2.28707 0.150239 0
M  V30 715 C 65.5213 1.38035 0.824794 0
M  V30 716 O 66.7113 1.60476 0.677719 0
M  V30 717 C 63.8433 3.18248 1.22192 0
M  V30 718 H 65.0363 2.94423 -0.570521 0
M  V30 719 H 62.5893 1.52688 -0.334078 0
M  V30 720 H 63.3243 2.57265 1.97447 0
M  V30 721 H 63.1093 3.85 0.742812 0
M  V30 722 H 64.5993 3.80001 1.73172 0
M  V30 723 N 65.0364 0.313813 1.54444 0
M  V30 724 C 65.9994 -0.54379 2.22656 0
M  V30 725 C 66.9994 -1.05124 1.21678 0
M  V30 726 O 68.1894 -0.945225 1.46325 0
M  V30 727 C 65.3214 -1.75427 2.92298 0
M  V30 728 H 66.5144 0.0523599 2.99854 0
M  V30 729 H 64.0674 0.0647834 1.56166 0
M  V30 730 H 64.8024 -2.38991 2.19211 0
M  V30 731 H 64.5874 -1.39791 3.66334 0
M  V30 732 H 66.0774 -2.36325 3.44297 0
M  V30 733 N 66.5145 -1.57545 0.0417849 0
M  V30 734 C 67.4245 -2.14451 -0.951213 0
M  V30 735 C 68.4405 -1.09992 -1.34825 0
M  V30 736 O 69.6165 -1.42114 -1.42708 0
M  V30 737 C 66.6815 -2.67063 -2.21084 0
M  V30 738 C 65.7425 -3.86284 -1.87304 0
M  V30 739 C 64.9755 -4.36378 -3.07261 0
M  V30 740 O 65.1985 -3.85587 -4.20332 0
M  V30 741 O 64.1325 -5.28077 -2.88822 0
M  V30 742 H 67.9585 -2.99601 -0.497287 0
M  V30 743 H 65.5435 -1.48317 -0.179567 0
M  V30 744 H 67.4255 -3.00914 -2.95006 0
M  V30 745 H 66.1005 -1.84989 -2.65633 0
M  V30 746 H 65.0075 -3.57338 -1.10727 0
M  V30 747 H 66.3405 -4.6956 -1.47562 0
M  V30 748 N 67.9926 0.231505 -1.5589 0
M  V30 749 C 68.9026 1.308 -1.94752 0
M  V30 750 C 69.9186 1.51826 -0.849989 0
M  V30 751 O 71.0946 1.6515 -1.15271 0
M  V30 752 C 68.1596 2.63968 -2.24771 0
M  V30 753 C 67.2206 2.51331 -3.48039 0
M  V30 754 C 66.4536 3.78148 -3.76616 0
M  V30 755 O 66.6766 4.80722 -3.07022 0
M  V30 756 O 65.6106 3.75857 -4.70123 0
M  V30 757 H 69.4366 1.0083 -2.86474 0
M  V30 758 H 67.0216 0.433547 -1.42971 0
M  V30 759 H 68.9036 3.42633 -2.45318 0
M  V30 760 H 67.5786 2.9364 -1.36225 0
M  V30 761 H 66.4856 1.709 -3.32782 0
M  V30 762 H 67.8186 2.26601 -4.36936 0
M  V30 763 N 69.4707 1.49531 0.497807 0
M  V30 764 C 70.4177 1.66436 1.59899 0
M  V30 765 C 71.3877 0.505793 1.58212 0
M  V30 766 O 72.5727 0.733202 1.7615 0
M  V30 767 C 69.7127 1.7399 2.98029 0
M  V30 768 C 68.8257 3.01172 3.09708 0
M  V30 769 C 67.9607 2.99686 4.38591 0
M  V30 770 C 66.9997 4.21434 4.43914 0
M  V30 771 N 66.1367 4.1784 5.64229 0
M  V30 772 H 70.9767 2.60459 1.44793 0
M  V30 773 H 68.5137 1.29137 0.704423 0
M  V30 774 H 70.4717 1.76352 3.78095 0
M  V30 775 H 69.1017 0.834301 3.11832 0
M  V30 776 H 68.1537 3.08408 2.22685 0
M  V30 777 H 69.4657 3.91165 3.09502 0
M  V30 778 H 68.6197 3.00628 5.2698 0
M  V30 779 H 67.3587 2.07477 4.41367 0
M  V30 780 H 66.3637 4.20733 3.53926 0
M  V30 781 H 67.5887 5.14839 4.42851 0
M  V30 782 H 65.5347 3.28469 5.67841 0
M  V30 783 H 65.4517 5.01571 5.65652 0
M  V30 784 H 66.7197 4.22889 6.54817 0
M  V30 785 N 70.9488 -0.749086 1.3866 0
M  V30 786 C 71.8958 -1.86291 1.36251 0
M  V30 787 C 72.8658 -1.64578 0.224347 0
M  V30 788 O 74.0508 -1.86181 0.417279 0
M  V30 789 C 71.1908 -3.23644 1.19786 0
M  V30 790 C 70.3038 -3.57158 2.43027 0
M  V30 791 C 69.4388 -4.83838 2.19258 0
M  V30 792 C 68.4778 -5.10152 3.38247 0
M  V30 793 N 67.6148 -6.28029 3.13884 0
M  V30 794 H 72.4548 -1.87685 2.3147 0
M  V30 795 H 69.9918 -0.917287 1.14997 0
M  V30 796 H 71.9498 -4.0291 1.08254 0
M  V30 797 H 70.5798 -3.21566 0.282031 0
M  V30 798 H 69.6318 -2.72701 2.65214 0
M  V30 799 H 70.9438 -3.7253 3.31697 0
M  V30 800 H 70.0978 -5.71057 2.04888 0
M  V30 801 H 68.8368 -4.70614 1.2796 0
M  V30 802 H 67.8418 -4.21401 3.53131 0
M  V30 803 H 69.0668 -5.25271 4.30427 0
M  V30 804 H 67.0128 -6.1612 2.25238 0
M  V30 805 H 66.9298 -6.43922 3.96106 0
M  V30 806 H 68.1978 -7.18124 3.03179 0
M  V30 807 N 72.4269 -1.23603 -0.977757 0
M  V30 808 C 73.3739 -1.01954 -2.07061 0
M  V30 809 C 74.3439 0.0638697 -1.65977 0
M  V30 810 O 75.5289 -0.0887624 -1.90593 0
M  V30 811 C 72.6689 -0.619658 -3.39491 0
M  V30 812 C 71.7819 -1.77547 -3.93829 0
M  V30 813 C 70.9169 -1.32212 -5.14484 0
M  V30 814 C 69.9559 -2.44852 -5.60994 0
M  V30 815 N 69.0929 -2.00456 -6.72876 0
M  V30 816 H 73.9329 -1.95495 -2.24913 0
M  V30 817 H 71.4699 -0.973861 -1.10247 0
M  V30 818 H 73.4279 -0.368898 -4.15566 0
M  V30 819 H 72.0579 0.278752 -3.21594 0
M  V30 820 H 71.1099 -2.14016 -3.14486 0
M  V30 821 H 72.4219 -2.62219 -4.24314 0
M  V30 822 H 71.5759 -1.02965 -5.97899 0
M  V30 823 H 70.3149 -0.445808 -4.85658 0
M  V30 824 H 69.3199 -2.74871 -4.76157 0
M  V30 825 H 70.5449 -3.33024 -5.91837 0
M  V30 826 H 68.4909 -1.15208 -6.45804 0
M  V30 827 H 68.4079 -2.78687 -7.02759 0
M  V30 828 H 69.6759 -1.7432 -7.59758 0
M  V30 829 N 73.905 1.17692 -1.04816 0
M  V30 830 C 74.837 2.21103 -0.603822 0
M  V30 831 C 75.85 1.59411 0.33046 0
M  V30 832 O 77.039 1.7807 0.12379 0
M  V30 833 C 74.139 3.38623 0.136898 0
M  V30 834 C 73.312 4.29888 -0.807137 0
M  V30 835 C 72.371 5.26088 -0.10836 0
M  V30 836 O 71.397 5.64353 -0.741232 0
M  V30 837 N 72.599 5.68882 1.15558 0
M  V30 838 H 75.364 2.59848 -1.49329 0
M  V30 839 H 72.925 1.32553 -0.929587 0
M  V30 840 H 74.917 4.00009 0.614401 0
M  V30 841 H 73.487 2.98508 0.927993 0
M  V30 842 H 72.707 3.65993 -1.46434 0
M  V30 843 H 73.995 4.87759 -1.44807 0
M  V30 844 H 73.393 5.39861 1.69015 0
M  V30 845 H 71.95 6.32429 1.57722 0
M  V30 846 N 75.3831 0.828654 1.34056 0
M  V30 847 C 76.6601 0.341809 1.9259 0
M  V30 848 C 77.0401 -1.17158 1.75605 0
M  V30 849 O 76.3881 -1.98132 1.13824 0
M  V30 850 C 76.5981 0.777453 3.4023 0
M  V30 851 C 77.9461 0.779579 4.17382 0
M  V30 852 O 78.9701 0.7204 3.48839 0
M  V30 853 O 77.8291 0.857996 5.39723 0
M  V30 854 H 74.9231 0.0946085 0.821571 0
M  V30 855 H 77.4691 0.913827 1.42994 0
M  V30 856 H 76.2411 1.8196 3.46419 0
M  V30 857 H 75.8641 0.181444 3.97186 0
M  V30 858 N 76.8612 -1.46375 0.584142 0
M  V30 859 C 77.7712 -2.34115 -0.150728 0
M  V30 860 C 78.7872 -1.49838 -0.884567 0
M  V30 861 O 79.9632 -1.82704 -0.847429 0
M  V30 862 C 77.0282 -3.2705 -1.15062 0
M  V30 863 C 76.0892 -4.27228 -0.421293 0
M  V30 864 C 75.3222 -5.15722 -1.37355 0
M  V30 865 O 75.5452 -5.07176 -2.61014 0
M  V30 866 O 74.4792 -5.95383 -0.883355 0
M  V30 867 H 78.3052 -2.98309 0.569708 0
M  V30 868 H 75.8902 -1.45373 0.344535 0
M  V30 869 H 77.7722 -3.84381 -1.72712 0
M  V30 870 H 76.4472 -2.65451 -1.8525 0
M  V30 871 H 75.3542 -3.7358 0.197085 0
M  V30 872 H 76.6872 -4.91616 0.239641 0
M  V30 873 N 78.3393 -0.321999 -1.54275 0
M  V30 874 C 79.2693 0.537411 -2.27231 0
M  V30 875 C 80.2503 1.12064 -1.27968 0
M  V30 876 O 81.4353 1.14606 -1.56777 0
M  V30 877 C 78.5653 1.69919 -3.02894 0
M  V30 878 C 77.5193 1.24534 -4.09482 0
M  V30 879 C 76.8453 2.49394 -4.72977 0
M  V30 880 C 78.1453 0.361335 -5.21049 0
M  V30 881 H 79.8393 -0.0711406 -2.99315 0
M  V30 882 H 77.3853 -0.0356555 -1.43956 0
M  V30 883 H 79.3383 2.30668 -3.52662 0
M  V30 884 H 78.0623 2.33431 -2.28424 0
M  V30 885 H 76.7213 0.660782 -3.60596 0
M  V30 886 H 76.3693 3.11265 -3.95124 0
M  V30 887 H 76.0693 2.19718 -5.44975 0
M  V30 888 H 77.5933 3.10908 -5.25517 0
M  V30 889 H 79.0073 0.875072 -5.66582 0
M  V30 890 H 77.4043 0.157428 -5.99893 0
M  V30 891 H 78.4743 -0.60822 -4.8107 0
M  V30 892 N 79.8174 1.5752 -0.0501392 0
M  V30 893 C 80.7644 2.1147 0.924603 0
M  V30 894 C 81.7344 1.02182 1.30951 0
M  V30 895 O 82.9194 1.29723 1.39916 0
M  V30 896 C 80.0594 2.66337 2.19451 0
M  V30 897 C 79.1724 3.89708 1.86418 0
M  V30 898 C 78.3074 4.32893 3.07859 0
M  V30 899 C 77.3464 5.48967 2.70742 0
M  V30 900 N 76.4834 5.87211 3.84874 0
M  V30 901 H 81.3234 2.94465 0.457639 0
M  V30 902 H 78.8604 1.45531 0.214266 0
M  V30 903 H 80.8184 2.96247 2.93758 0
M  V30 904 H 79.4484 1.86141 2.63726 0
M  V30 905 H 78.5004 3.66396 1.02264 0
M  V30 906 H 79.8124 4.74074 1.55096 0
M  V30 907 H 78.9664 4.6435 3.90466 0
M  V30 908 H 77.7054 3.47336 3.42358 0
M  V30 909 H 76.7104 5.17183 1.86551 0
M  V30 910 H 77.9354 6.3624 2.37436 0
M  V30 911 H 75.8814 5.04607 4.19175 0
M  V30 912 H 75.7984 6.66266 3.57247 0
M  V30 913 H 77.0664 6.23282 4.68123 0
M  V30 914 N 81.2955 -0.223234 1.56011 0
M  V30 915 C 82.7115 -0.572856 1.48965 0
M  V30 916 C 82.9115 -1.87225 0.74492 0
M  V30 917 O 81.9675 -2.50899 0.283896 0
M  V30 918 C 83.2805 -0.653646 2.9351 0
M  V30 919 C 84.8285 -0.744386 3.0402 0
M  V30 920 C 85.3035 -0.856535 4.49919 0
M  V30 921 N 86.7945 -0.9208 4.53955 0
M  V30 922 C 87.5295 -1.02726 5.64123 0
M  V30 923 N 87.0255 -1.09777 6.84047 0
M  V30 924 N 88.8185 -1.06226 5.51971 0
M  V30 925 H 80.9695 0.629462 2.02858 0
M  V30 926 H 83.2325 0.220621 0.921971 0
M  V30 927 H 82.9385 0.231518 3.50937 0
M  V30 928 H 82.8125 -1.51781 3.45315 0
M  V30 929 H 85.1995 -1.61999 2.46658 0
M  V30 930 H 85.2805 0.14541 2.55386 0
M  V30 931 H 84.9245 0.0146069 5.07898 0
M  V30 932 H 84.8545 -1.76172 4.96257 0
M  V30 933 H 87.3455 -0.876694 3.6759 0
M  V30 934 H 87.6585 -1.17872 7.63758 0
M  V30 935 H 86.0035 -1.06693 6.86762 0
M  V30 936 H 89.1945 -1.00382 4.5721 0
M  V30 937 H 89.3675 -1.14177 6.37862 0
M  V30 938 N 82.7736 -1.49793 -0.48987 0
M  V30 939 C 84.0226 -1.59085 -1.23995 0
M  V30 940 C 84.3356 -0.287907 -1.9347 0
M  V30 941 O 85.5416 -0.259506 -2.70257 0
M  V30 942 C 83.9976 -2.80736 -2.252 0
M  V30 943 C 83.6056 -4.17833 -1.61614 0
M  V30 944 C 85.3496 -2.99364 -3.00967 0
M  V30 945 C 83.2566 -5.30693 -2.60996 0
M  V30 946 H 82.1866 -0.592372 -0.466488 0
M  V30 947 H 84.8376 -1.76197 -0.51252 0
M  V30 948 H 83.2196 -2.57142 -3.01154 0
M  V30 949 H 84.3936 -4.51608 -0.915774 0
M  V30 950 H 82.7086 -4.04656 -0.981977 0
M  V30 951 H 85.3056 -3.80851 -3.75308 0
M  V30 952 H 85.6486 -2.10356 -3.59244 0
M  V30 953 H 86.1816 -3.2305 -2.32128 0
M  V30 954 H 82.9206 -6.21796 -2.07485 0
M  V30 955 H 82.4406 -5.01359 -3.2924 0
M  V30 956 H 84.1196 -5.6049 -3.23202 0
M  V30 957 N 84.2517 0.741722 -1.39055 0
M  V30 958 C 85.2147 1.83733 -1.37021 0
M  V30 959 C 86.2147 1.58542 -0.268534 0
M  V30 960 O 87.4047 1.66067 -0.526076 0
M  V30 961 C 84.5367 3.2141 -1.13617 0
M  V30 962 H 85.7297 1.86941 -2.34506 0
M  V30 963 H 83.2827 0.944676 -1.24521 0
M  V30 964 H 84.0177 3.23865 -0.167863 0
M  V30 965 H 83.8027 3.4109 -1.93391 0
M  V30 966 H 85.2927 4.01477 -1.14918 0
M  V30 967 N 85.7298 1.2412 0.971189 0
M  V30 968 C 87.1458 1.00584 1.23916 0
M  V30 969 C 87.3458 -0.287481 1.99439 0
M  V30 970 O 86.4018 -1.00454 2.31658 0
M  V30 971 C 87.7148 2.21864 2.0297 0
M  V30 972 C 89.2628 2.26452 2.16076 0
M  V30 973 C 89.7378 3.47343 2.98524 0
M  V30 974 N 91.2288 3.47639 3.06107 0
M  V30 975 C 91.9638 4.37837 3.70251 0
M  V30 976 N 91.4598 5.38286 4.36142 0
M  V30 977 N 93.2528 4.25558 3.67228 0
M  V30 978 H 85.4038 2.07236 0.465499 0
M  V30 979 H 87.6668 0.909236 0.268315 0
M  V30 980 H 87.3728 3.15771 1.54861 0
M  V30 981 H 87.2468 2.23698 3.03709 0
M  V30 982 H 89.6338 1.33078 2.6339 0
M  V30 983 H 89.7148 2.28645 1.14696 0
M  V30 984 H 89.3588 4.41029 2.51905 0
M  V30 985 H 89.2888 3.42393 4.00093 0
M  V30 986 H 91.7798 2.74966 2.59233 0
M  V30 987 H 92.0928 6.03352 4.82894 0
M  V30 988 H 90.4378 5.42176 4.34822 0
M  V30 989 H 93.6288 3.46322 3.14927 0
M  V30 990 H 93.8018 4.96054 4.16935 0
M  V30 991 N 87.2079 -1.17134 1.05439 0
M  V30 992 C 88.1179 -2.24878 0.668365 0
M  V30 993 C 89.1339 -1.71186 -0.311687 0
M  V30 994 O 90.3099 -2.00738 -0.163161 0
M  V30 995 C 87.3749 -3.46662 0.051648 0
M  V30 996 C 86.4359 -4.15429 1.08246 0
M  V30 997 C 85.6689 -5.31399 0.495082 0
M  V30 998 O 85.8919 -5.66153 -0.694743 0
M  V30 999 O 84.8259 -5.89187 1.23056 0
M  V30 1000 H 88.6519 -2.60189 1.56637 0
M  V30 1001 H 86.2369 -1.24482 0.826104 0
M  V30 1002 H 88.1189 -4.20394 -0.290966 0
M  V30 1003 H 86.7939 -3.13142 -0.819971 0
M  V30 1004 H 85.7009 -3.43704 1.47711 0
M  V30 1005 H 87.0339 -4.52982 1.92532 0
M  V30 1006 N 88.686 -0.835752 -1.33615 0
M  V30 1007 C 89.616 -0.281739 -2.31794 0
M  V30 1008 C 90.597 0.608833 -1.58831 0
M  V30 1009 O 91.782 0.533035 -1.86741 0
M  V30 1010 C 88.912 0.546612 -3.42971 0
M  V30 1011 C 87.866 -0.247904 -4.27281 0
M  V30 1012 C 87.192 0.704001 -5.30045 0
M  V30 1013 C 88.492 -1.46324 -5.01385 0
M  V30 1014 H 90.186 -1.10206 -2.78379 0
M  V30 1015 H 87.732 -0.531388 -1.33837 0
M  V30 1016 H 89.685 0.944467 -4.1068 0
M  V30 1017 H 88.409 1.40011 -2.95067 0
M  V30 1018 H 87.068 -0.627281 -3.61194 0
M  V30 1019 H 86.716 1.55381 -4.78399 0
M  V30 1020 H 86.416 0.176524 -5.87335 0
M  V30 1021 H 87.94 1.09944 -6.0062 0
M  V30 1022 H 89.354 -1.13871 -5.61877 0
M  V30 1023 H 87.751 -1.92728 -5.6831 0
M  V30 1024 H 88.821 -2.23467 -4.30338 0
M  V30 1025 N 90.1641 1.46063 -0.591896 0
M  V30 1026 C 91.1271 2.28854 0.125973 0
M  V30 1027 C 92.1271 1.38903 0.810107 0
M  V30 1028 O 93.3171 1.61186 0.66066 0
M  V30 1029 C 90.4491 3.19526 1.1881 0
M  V30 1030 H 91.6421 2.93802 -0.601717 0
M  V30 1031 H 89.1951 1.52325 -0.350254 0
M  V30 1032 H 89.9301 2.59345 1.94707 0
M  V30 1033 H 89.7151 3.85766 0.701936 0
M  V30 1034 H 91.2051 3.81817 1.69132 0
M  V30 1035 N 91.6422 0.330177 1.54103 0
M  V30 1036 C 92.5522 -0.541534 2.28264 0
M  V30 1037 C 93.5682 -1.12351 1.32866 0
M  V30 1038 O 94.7442 -1.14206 1.65888 0
M  V30 1039 C 91.8092 -1.68322 3.03098 0
M  V30 1040 C 90.8702 -1.13238 4.14096 0
M  V30 1041 C 90.1032 -2.21966 4.85352 0
M  V30 1042 O 90.3262 -3.42437 4.56172 0
M  V30 1043 O 89.2602 -1.87013 5.7211 0
M  V30 1044 H 93.0862 0.060938 3.03639 0
M  V30 1045 H 90.6712 0.09565 1.49093 0
M  V30 1046 H 92.5532 -2.34777 3.49939 0
M  V30 1047 H 91.2282 -2.27176 2.30593 0
M  V30 1048 H 90.1352 -0.432736 3.71589 0
M  V30 1049 H 91.4682 -0.588898 4.88664 0
M  V30 1050 N 93.1203 -1.57491 0.0584922 0
M  V30 1051 C 94.3973 -1.84346 -0.653918 0
M  V30 1052 C 94.7773 -0.948355 -1.88599 0
M  V30 1053 O 94.1253 -0.0112403 -2.28497 0
M  V30 1054 C 94.3353 -3.34239 -1.00425 0
M  V30 1055 C 95.6833 -4.01431 -1.38342 0
M  V30 1056 O 96.7073 -3.38907 -1.09637 0
M  V30 1057 O 95.5663 -5.11683 -1.91943 0
M  V30 1058 H 92.6603 -0.761112 -0.323478 0
M  V30 1059 H 95.2063 -1.6947 0.0884125 0
M  V30 1060 H 93.9783 -3.91089 -0.128625 0
M  V30 1061 H 93.6013 -3.54329 -1.80378 0
M  V30 1062 N 94.5984 0.214957 -1.56127 0
M  V30 1063 C 95.8754 0.963093 -1.70247 0
M  V30 1064 C 96.2554 2.02166 -0.60764 0
M  V30 1065 O 95.6034 2.25244 0.384385 0
M  V30 1066 C 95.8134 1.56756 -3.11815 0
M  V30 1067 C 97.1614 2.0573 -3.7143 0
M  V30 1068 O 98.1854 1.66637 -3.14818 0
M  V30 1069 O 97.0444 2.77603 -4.70743 0
M  V30 1070 H 94.1384 0.450321 -0.693643 0
M  V30 1071 H 96.6844 0.206219 -1.68442 0
M  V30 1072 H 95.4564 0.803533 -3.82961 0
M  V30 1073 H 95.0794 2.3898 -3.17765 0
M  V30 1074 N 96.0765 1.50051 0.48192 0
M  V30 1075 C 97.3015 1.64508 1.26301 0
M  V30 1076 C 97.7265 0.323851 1.85291 0
M  V30 1077 O 97.0845 -0.710969 1.66778 0
M  V30 1078 C 97.1325 2.7305 2.35533 0
M  V30 1079 O 96.2365 2.3355 3.39895 0
M  V30 1080 H 95.5775 0.549978 0.372048 0
M  V30 1081 H 98.1075 1.9636 0.574786 0
M  V30 1082 H 98.1175 2.95799 2.8101 0
M  V30 1083 H 96.7925 3.68946 1.91967 0
M  V30 1084 H 95.3695 2.21205 3.00204 0
M  V30 1085 N 97.5546 -0.734337 1.39446 0
M  V30 1086 C 98.8036 -1.48937 1.36017 0
M  V30 1087 C 99.1166 -1.95557 -0.0409005 0
M  V30 1088 O 100.323 -2.70779 -0.19778 0
M  V30 1089 C 98.7786 -2.69125 2.38955 0
M  V30 1090 C 98.3866 -2.29452 3.8478 0
M  V30 1091 C 100.131 -3.46944 2.44603 0
M  V30 1092 C 98.0376 -3.46366 4.79358 0
M  V30 1093 H 96.9676 -0.559296 0.505672 0
M  V30 1094 H 99.6186 -0.800983 1.65095 0
M  V30 1095 H 98.0006 -3.40041 2.02948 0
M  V30 1096 H 99.1746 -1.66077 4.29831 0
M  V30 1097 H 97.4896 -1.64723 3.82433 0
M  V30 1098 H 100.087 -4.33907 3.12456 0
M  V30 1099 H 100.43 -3.89454 1.47076 0
M  V30 1100 H 100.963 -2.83056 2.79507 0
M  V30 1101 H 97.7016 -3.08905 5.78151 0
M  V30 1102 H 97.2216 -4.08719 4.38986 0
M  V30 1103 H 98.9006 -4.12691 4.98292 0
M  V30 1104 N 99.0327 -1.24633 -0.964593 0
M  V30 1105 C 99.9627 -1.06611 -2.07741 0
M  V30 1106 C 100.944 0.0218666 -1.70086 0
M  V30 1107 O 102.129 -0.145793 -1.93652 0
M  V30 1108 C 99.2587 -0.673444 -3.40708 0
M  V30 1109 C 98.2127 -1.71054 -3.92332 0
M  V30 1110 C 97.5387 -1.17285 -5.21678 0
M  V30 1111 C 98.8387 -3.10718 -4.19824 0
M  V30 1112 H 100.533 -1.99693 -2.23076 0
M  V30 1113 H 98.0787 -0.96152 -1.07195 0
M  V30 1114 H 100.032 -0.534345 -4.17998 0
M  V30 1115 H 98.7557 0.293073 -3.25282 0
M  V30 1116 H 97.4147 -1.83791 -3.17201 0
M  V30 1117 H 97.0627 -0.196847 -5.02615 0
M  V30 1118 H 96.7627 -1.86592 -5.57187 0
M  V30 1119 H 98.2867 -1.04593 -6.01575 0
M  V30 1120 H 99.7007 -3.01192 -4.87808 0
M  V30 1121 H 98.0977 -3.77406 -4.66567 0
M  V30 1122 H 99.1677 -3.58524 -3.26479 0
M  V30 1123 N 100.511 1.16574 -1.06058 0
M  V30 1124 C 101.458 2.20883 -0.669263 0
M  V30 1125 C 102.428 1.62729 0.332918 0
M  V30 1126 O 103.613 1.895 0.222346 0
M  V30 1127 C 100.753 3.45049 -0.0593572 0
M  V30 1128 C 99.8658 4.17458 -1.11143 0
M  V30 1129 C 99.0008 5.29135 -0.467916 0
M  V30 1130 C 98.0398 5.93343 -1.50369 0
M  V30 1131 N 97.1768 6.96516 -0.883706 0
M  V30 1132 H 102.017 2.53709 -1.5632 0
M  V30 1133 H 99.5538 1.24616 -0.781625 0
M  V30 1134 H 101.512 4.16033 0.311771 0
M  V30 1135 H 100.142 3.12781 0.797992 0
M  V30 1136 H 99.1938 3.45101 -1.60029 0
M  V30 1137 H 100.506 4.61307 -1.89731 0
M  V30 1138 H 99.6598 6.06684 -0.0436871 0
M  V30 1139 H 98.3988 4.86443 0.349864 0
M  V30 1140 H 97.4038 5.14517 -1.93784 0
M  V30 1141 H 98.6288 6.38114 -2.32352 0
M  V30 1142 H 96.5748 6.55943 -0.086595 0
M  V30 1143 H 96.4918 7.38723 -1.607 0
M  V30 1144 H 97.7598 7.77993 -0.484543 0
M  V30 1145 O 102.028 0.977372 1.28568 0
M  V30 1146 H 102.719 0.620331 1.83498 0
M  V30 END ATOM
M  V30 BEGIN BOND
M  V30 END BOND
M  V30 END CTAB
M  END
$$$$
