drugbank_target|P96965 2-hydroxy-6-oxo-7-methylocta-2,4-dienoate hydrolase (DB02406; DB02531; DB03568; DB03741; DB03750; DB03766; DB03793)
 OpenBabel12092120243D

  0  0  0     0  0            999 V3000
M  V30 BEGIN CTAB
M  V30 COUNTS 4398 4449 0 0 0
M  V30 BEGIN ATOM
M  V30 1 H -0.908 1.98254 -0.117106 0
M  V30 2 N 0 1.576 0 0
M  V30 3 C 0.933 2.03868 1.02534 0
M  V30 4 C 1.911 0.928543 1.3348 0
M  V30 5 O 3.095 1.19667 1.45644 0
M  V30 6 C 0.222 2.43627 2.35294 0
M  V30 7 C -0.732 3.65373 2.2001 0
M  V30 8 S 0.101 5.13292 1.52614 0
M  V30 9 C 1.257 5.56322 2.86805 0
M  V30 10 H 1.49 2.90518 0.631377 0
M  V30 11 H -0.977 1.52953 0.210867 0
M  V30 12 H 0.981 2.67203 3.11629 0
M  V30 13 H -0.358 1.57376 2.7183 0
M  V30 14 H -1.165 3.90944 3.18086 0
M  V30 15 H -1.563 3.418 1.51819 0
M  V30 16 H 0.729 5.58782 3.83104 0
M  V30 17 H 1.672 6.56266 2.65933 0
M  V30 18 H 2.08 4.83886 2.90714 0
M  V30 19 N 1.4781 -0.272755 1.55222 0
M  V30 20 C 2.4411 -1.32041 1.87344 0
M  V30 21 C 3.4411 -1.42342 0.74803 0
M  V30 22 O 4.6311 -1.41488 1.0162 0
M  V30 23 C 1.7631 -2.70173 2.07893 0
M  V30 24 H 2.9561 -1.04789 2.80997 0
M  V30 25 H 0.5091 -0.51083 1.47717 0
M  V30 26 H 1.2441 -3.02605 1.16622 0
M  V30 27 H 1.0291 -2.64082 2.89833 0
M  V30 28 H 2.5191 -3.45869 2.34017 0
M  V30 29 N 2.9562 -1.48159 -0.537278 0
M  V30 30 C 3.9042 -1.62573 -1.66352 0
M  V30 31 C 4.8982 -0.492366 -1.62087 0
M  V30 32 O 6.1042 -0.670847 -1.67032 0
M  V30 33 H 2.4792 -0.511992 -0.550789 0
M  V30 34 H 4.4502 -2.57176 -1.51337 0
M  V30 35 C 3.1992 -1.67583 -3.04649 0
M  V30 36 H 2.5222 -2.54151 -3.08622 0
M  V30 37 H 3.9622 -1.81713 -3.83088 0
M  V30 38 C 2.4212 -0.413039 -3.34358 0
M  V30 39 O 2.9512 0.477259 -3.98855 0
M  V30 40 N 1.1572 -0.286961 -2.8918 0
M  V30 41 H 0.7042 -1.01241 -2.36871 0
M  V30 42 H 0.6622 0.556963 -3.09427 0
M  V30 43 N 4.4343 0.785586 -1.36625 0
M  V30 44 C 5.3643 1.91259 -1.33949 0
M  V30 45 C 6.3453 1.68795 -0.210325 0
M  V30 46 O 7.5303 1.89854 -0.408561 0
M  V30 47 C 4.6603 3.28339 -1.13186 0
M  V30 48 C 3.6143 3.65335 -2.22967 0
M  V30 49 C 2.9403 5.00806 -1.87342 0
M  V30 50 C 4.2403 3.7352 -3.65075 0
M  V30 51 H 5.9343 1.93755 -2.28253 0
M  V30 52 H 3.4803 0.930788 -1.09874 0
M  V30 53 H 5.4333 4.06804 -1.09948 0
M  V30 54 H 4.1573 3.2624 -0.153332 0
M  V30 55 H 2.8163 2.89169 -2.25337 0
M  V30 56 H 2.4643 4.95233 -0.880545 0
M  V30 57 H 2.1643 5.26529 -2.60846 0
M  V30 58 H 3.6883 5.81687 -1.85667 0
M  V30 59 H 5.1023 4.42168 -3.64911 0
M  V30 60 H 3.4993 4.10731 -4.37516 0
M  V30 61 H 4.5693 2.74527 -3.99703 0
M  V30 62 N 5.9124 1.20967 1.01018 0
M  V30 63 C 6.8224 0.980157 2.13143 0
M  V30 64 C 7.8384 -0.0660665 1.73875 0
M  V30 65 O 9.0144 0.122821 2.01025 0
M  V30 66 C 6.0794 0.54216 3.42435 0
M  V30 67 C 5.1404 1.65999 3.95908 0
M  V30 68 C 4.3734 1.2428 5.19028 0
M  V30 69 O 4.5964 0.114196 5.70286 0
M  V30 70 O 3.5304 2.05271 5.65816 0
M  V30 71 H 7.3564 1.91913 2.35379 0
M  V30 72 H 4.9414 0.994099 1.11526 0
M  V30 73 H 6.8234 0.30744 4.20277 0
M  V30 74 H 5.4984 -0.36815 3.216 0
M  V30 75 H 4.4054 1.94906 3.19316 0
M  V30 76 H 5.7384 2.54753 4.21143 0
M  V30 77 N 7.3905 -1.2043 1.01659 0
M  V30 78 C 8.6395 -1.89118 0.701237 0
M  V30 79 C 8.9525 -1.79705 -0.772358 0
M  V30 80 O 10.1585 -2.43528 -1.20026 0
M  V30 81 C 8.6145 -3.39168 1.20388 0
M  V30 82 C 8.2225 -3.57166 2.70438 0
M  V30 83 C 9.9665 -4.1341 0.963953 0
M  V30 84 C 7.8735 -5.01042 3.14183 0
M  V30 85 H 6.8035 -0.708267 0.2586 0
M  V30 86 H 9.4545 -1.36239 1.22927 0
M  V30 87 H 7.8365 -3.91369 0.603824 0
M  V30 88 H 9.0105 -3.15351 3.35992 0
M  V30 89 H 7.3255 -2.96294 2.92572 0
M  V30 90 H 9.9225 -5.19491 1.26621 0
M  V30 91 H 10.2655 -4.16181 -0.099578 0
M  V30 92 H 10.7985 -3.67309 1.52738 0
M  V30 93 H 7.5375 -5.03426 4.19812 0
M  V30 94 H 7.0575 -5.43668 2.53348 0
M  V30 95 H 8.7365 -5.69623 3.0682 0
M  V30 96 N 8.8686 -0.792821 -1.36206 0
M  V30 97 C 10.1166 -0.366062 -1.98757 0
M  V30 98 C 10.4376 1.0668 -1.63231 0
M  V30 99 O 9.7076 1.73587 -0.907978 0
M  V30 100 H 8.2876 -0.132364 -0.735179 0
M  V30 101 H 10.9496 -1.01562 -1.66347 0
M  V30 102 H 10.0456 -0.460638 -3.08682 0
M  V30 103 N 10.3467 1.47872 -0.545128 0
M  V30 104 C 11.2937 2.29849 0.2093 0
M  V30 105 C 12.2637 1.38313 0.919707 0
M  V30 106 O 13.4487 1.67277 0.917772 0
M  V30 107 C 10.5887 3.22019 1.24088 0
M  V30 108 C 9.7017 4.2864 0.537778 0
M  V30 109 C 8.8367 5.07973 1.5536 0
M  V30 110 C 7.8757 6.06381 0.8348 0
M  V30 111 N 7.0127 6.78717 1.79688 0
M  V30 112 H 11.8527 2.93845 -0.49591 0
M  V30 113 H 9.3897 1.44848 -0.256389 0
M  V30 114 H 11.3477 3.73868 1.85144 0
M  V30 115 H 9.9777 2.59914 1.91428 0
M  V30 116 H 9.0297 3.7994 -0.187046 0
M  V30 117 H 10.3417 4.98793 -0.0258907 0
M  V30 118 H 9.4957 5.63912 2.23803 0
M  V30 119 H 8.2347 4.37693 2.15118 0
M  V30 120 H 7.2397 5.49631 0.136388 0
M  V30 121 H 8.4647 6.78665 0.24313 0
M  V30 122 H 6.4107 6.11177 2.38326 0
M  V30 123 H 6.3277 7.44998 1.28505 0
M  V30 124 H 7.5957 7.39237 2.47282 0
M  V30 125 N 11.8248 0.280983 1.55075 0
M  V30 126 C 13.0498 -0.340154 2.04592 0
M  V30 127 C 13.4748 -1.48246 1.15779 0
M  V30 128 O 12.8328 -1.80614 0.15761 0
M  V30 129 C 12.8808 -0.793104 3.5177 0
M  V30 130 O 11.9848 -1.89981 3.66034 0
M  V30 131 H 11.3258 -0.0694289 0.66036 0
M  V30 132 H 13.8558 0.416993 2.00306 0
M  V30 133 H 13.8658 -1.08729 3.93245 0
M  V30 134 H 12.5408 0.0426163 4.15878 0
M  V30 135 H 11.1178 -1.60771 3.36463 0
M  V30 136 N 13.3029 -1.57598 0.00835791 0
M  V30 137 C 14.5519 -1.90107 -0.673968 0
M  V30 138 C 14.8649 -0.884275 -1.7447 0
M  V30 139 O 16.0709 -1.09987 -2.48224 0
M  V30 140 C 14.5269 -3.37497 -1.24995 0
M  V30 141 C 14.1349 -4.47491 -0.2136 0
M  V30 142 C 15.8789 -3.79104 -1.90999 0
M  V30 143 C 13.7859 -5.85963 -0.80005 0
M  V30 144 H 12.7159 -0.709393 -0.255495 0
M  V30 145 H 15.3669 -1.83365 0.0702693 0
M  V30 146 H 13.7489 -3.39102 -2.04513 0
M  V30 147 H 14.9229 -4.57414 0.557596 0
M  V30 148 H 13.2379 -4.14956 0.346474 0
M  V30 149 H 15.8349 -4.79901 -2.35795 0
M  V30 150 H 16.1779 -3.1306 -2.74407 0
M  V30 151 H 16.7109 -3.79833 -1.18203 0
M  V30 152 H 13.4499 -6.555 -0.00456708 0
M  V30 153 H 12.9699 -5.79687 -1.54021 0
M  V30 154 H 14.6489 -6.33884 -1.29615 0
M  V30 155 N 14.781 0.264519 -1.55364 0
M  V30 156 C 15.711 1.33121 -1.91836 0
M  V30 157 C 16.692 1.51101 -0.781192 0
M  V30 158 O 17.877 1.64003 -1.04003 0
M  V30 159 C 15.007 2.68921 -2.19769 0
M  V30 160 C 13.961 2.65661 -3.35571 0
M  V30 161 C 13.287 4.05093 -3.49004 0
M  V30 162 C 14.587 2.24187 -4.71739 0
M  V30 163 H 16.281 1.02844 -2.81182 0
M  V30 164 H 13.827 0.493286 -1.35287 0
M  V30 165 H 15.78 3.43663 -2.43872 0
M  V30 166 H 14.504 3.00799 -1.27231 0
M  V30 167 H 13.163 1.93377 -3.1145 0
M  V30 168 H 12.811 4.34206 -2.53917 0
M  V30 169 H 12.511 4.03804 -4.26868 0
M  V30 170 H 14.035 4.81561 -3.75408 0
M  V30 171 H 15.449 2.88654 -4.9533 0
M  V30 172 H 13.846 2.34044 -5.52579 0
M  V30 173 H 14.916 1.19327 -4.69988 0
M  V30 174 N 16.2591 1.48442 0.529413 0
M  V30 175 C 17.2221 1.62524 1.61612 0
M  V30 176 C 18.2221 0.498509 1.52877 0
M  V30 177 O 19.4121 0.76431 1.56537 0
M  V30 178 C 16.5441 1.59597 3.01233 0
M  V30 179 H 17.7371 2.59423 1.50465 0
M  V30 180 H 15.2901 1.37047 0.751514 0
M  V30 181 H 16.0251 0.641781 3.17886 0
M  V30 182 H 15.8101 2.41397 3.08982 0
M  V30 183 H 17.3001 1.72646 3.80241 0
M  V30 184 N 17.7372 -0.778329 1.37039 0
M  V30 185 C 18.7002 -1.87301 1.32102 0
M  V30 186 C 19.7002 -1.59198 0.226405 0
M  V30 187 O 20.8902 -1.67403 0.481861 0
M  V30 188 C 18.0222 -3.24309 1.05055 0
M  V30 189 H 19.2152 -1.93093 2.29467 0
M  V30 190 H 16.7682 -0.977358 1.21973 0
M  V30 191 H 17.5032 -3.24196 0.0819373 0
M  V30 192 H 17.2882 -3.46098 1.84279 0
M  V30 193 H 18.7782 -4.04382 1.04234 0
M  V30 194 N 19.2153 -1.21501 -1.00376 0
M  V30 195 C 20.4633 -1.03095 -1.73827 0
M  V30 196 C 20.7843 0.436341 -1.90055 0
M  V30 197 O 20.0543 1.31466 -1.45236 0
M  V30 198 H 18.6343 -0.378487 -0.644016 0
M  V30 199 H 21.2963 -1.52831 -1.20949 0
M  V30 200 H 20.3923 -1.49991 -2.73695 0
M  V30 201 N 20.6934 1.19889 -1.02296 0
M  V30 202 C 21.9394 1.89701 -0.717033 0
M  V30 203 C 22.2724 1.7905 0.751989 0
M  V30 204 O 21.5474 1.17891 1.547 0
M  V30 205 C 21.8304 3.40858 -1.16136 0
M  V30 206 C 21.6834 3.60411 -2.69117 0
M  V30 207 C 23.0024 4.33876 -0.737549 0
M  V30 208 H 20.1214 0.688874 -0.261957 0
M  V30 209 H 22.7634 1.41154 -1.27183 0
M  V30 210 H 20.9134 3.82335 -0.689342 0
M  V30 211 H 22.5854 3.28145 -3.2422 0
M  V30 212 H 20.8284 3.03665 -3.0979 0
M  V30 213 H 21.4994 4.66396 -2.95261 0
M  V30 214 H 23.9754 4.00081 -1.14344 0
M  V30 215 H 22.8514 5.38242 -1.0764 0
M  V30 216 H 23.1124 4.40628 0.360436 0
M  V30 217 N 22.1715 0.800033 1.35784 0
M  V30 218 C 23.1015 0.220184 2.3246 0
M  V30 219 C 24.0825 -0.65073 1.57161 0
M  V30 220 O 25.2675 -0.582359 1.85263 0
M  V30 221 C 22.3975 -0.637353 3.41402 0
M  V30 222 C 21.3515 0.134531 4.27789 0
M  V30 223 C 20.6775 -0.844285 5.27992 0
M  V30 224 C 21.9775 1.32979 5.05088 0
M  V30 225 H 23.6715 1.02787 2.81203 0
M  V30 226 H 21.2175 0.495717 1.35199 0
M  V30 227 H 23.1705 -1.05302 4.08031 0
M  V30 228 H 21.8945 -1.47785 2.91251 0
M  V30 229 H 20.5535 0.531296 3.6273 0
M  V30 230 H 20.2015 -1.68011 4.74111 0
M  V30 231 H 19.9015 -0.332184 5.8666 0
M  V30 232 H 21.4255 -1.2583 5.97494 0
M  V30 233 H 22.8395 0.98934 5.64699 0
M  V30 234 H 21.2365 1.77593 5.7322 0
M  V30 235 H 22.3065 2.11978 4.36111 0
M  V30 236 N 23.6496 -1.47581 0.552962 0
M  V30 237 C 24.8776 -2.06875 0.0320556 0
M  V30 238 C 25.2926 -1.40625 -1.25976 0
M  V30 239 O 24.6496 -0.501349 -1.75479 0
M  V30 240 C 24.7006 -3.61092 -0.17167 0
M  V30 241 O 24.4216 -4.24858 1.06899 0
M  V30 242 C 25.9226 -4.37242 -0.730344 0
M  V30 243 H 23.1426 -0.669561 0.043915 0
M  V30 244 H 25.6866 -1.89646 0.765163 0
M  V30 245 H 23.8416 -3.7785 -0.854894 0
M  V30 246 H 24.2556 -5.17334 0.864059 0
M  V30 247 H 25.7296 -5.45842 -0.822203 0
M  V30 248 H 26.2066 -4.03235 -1.74064 0
M  V30 249 H 26.8126 -4.25219 -0.0829543 0
M  V30 250 N 25.1277 -0.289203 -1.54924 0
M  V30 251 C 26.0757 0.607966 -2.24514 0
M  V30 252 C 27.0697 1.14655 -1.24702 0
M  V30 253 O 28.2757 1.09856 -1.4259 0
M  V30 254 H 24.6507 0.21464 -0.720718 0
M  V30 255 H 26.6217 -0.00164182 -2.984 0
M  V30 256 C 25.3707 1.77406 -2.99036 0
M  V30 257 H 24.6937 1.36884 -3.75637 0
M  V30 258 H 26.1337 2.37814 -3.51028 0
M  V30 259 C 24.5927 2.67107 -2.05318 0
M  V30 260 O 25.1227 3.6787 -1.61353 0
M  V30 261 N 23.3287 2.34582 -1.71521 0
M  V30 262 H 22.8757 1.52688 -2.07471 0
M  V30 263 H 22.8337 2.94867 -1.0909 0
M  V30 264 N 26.6058 1.57591 -0.0167156 0
M  V30 265 C 27.8358 1.95292 0.674149 0
M  V30 266 C 28.2438 0.891097 1.66901 0
M  V30 267 O 27.5868 -0.136908 1.83189 0
M  V30 268 C 27.6488 3.29072 1.44747 0
M  V30 269 C 27.3128 4.52879 0.612331 0
M  V30 270 C 28.3098 5.1979 -0.107126 0
M  V30 271 C 25.9948 4.99242 0.553381 0
M  V30 272 C 27.9888 6.31375 -0.874339 0
M  V30 273 C 25.6758 6.10713 -0.217546 0
M  V30 274 C 26.6738 6.76637 -0.930123 0
M  V30 275 O 26.3618 7.85969 -1.68844 0
M  V30 276 H 26.0938 0.648275 0.191615 0
M  V30 277 H 28.6478 2.05284 -0.0690148 0
M  V30 278 H 26.8778 3.15535 2.2355 0
M  V30 279 H 28.5668 3.51764 2.02526 0
M  V30 280 H 29.3328 4.84948 -0.0708392 0
M  V30 281 H 25.2118 4.47744 1.09757 0
M  V30 282 H 28.7558 6.82764 -1.43106 0
M  V30 283 H 24.6528 6.44994 -0.255593 0
M  V30 284 H 25.4208 8.02571 -1.6069 0
M  V30 285 N 28.0839 -0.256276 1.55502 0
M  V30 286 C 29.0339 -1.31981 1.85916 0
M  V30 287 C 30.0179 -1.43927 0.719296 0
M  V30 288 O 31.2099 -1.47326 0.981019 0
M  V30 289 C 28.3389 -2.67703 2.14918 0
M  V30 290 C 27.4249 -2.59801 3.35208 0
M  V30 291 N 27.8159 -2.21524 4.54709 0
M  V30 292 C 26.1139 -2.90832 3.38131 0
M  V30 293 C 26.8149 -2.24024 5.36832 0
M  V30 294 N 25.7909 -2.63158 4.75656 0
M  V30 295 H 29.5929 -1.01423 2.75845 0
M  V30 296 H 27.1069 -0.464911 1.55603 0
M  V30 297 H 29.1039 -3.44445 2.34869 0
M  V30 298 H 27.7639 -2.99137 1.26282 0
M  V30 299 H 28.7749 -1.93223 4.80505 0
M  V30 300 H 25.4519 -3.26867 2.59739 0
M  V30 301 H 26.8419 -1.9685 6.42417 0
M  V30 302 N 29.562 -1.4872 -0.521534 0
M  V30 303 C 30.839 -1.4766 -1.2828 0
M  V30 304 C 31.219 -0.19292 -2.10217 0
M  V30 305 O 30.567 0.825193 -2.13079 0
M  V30 306 C 30.777 -2.74358 -2.15705 0
M  V30 307 C 32.125 -3.23028 -2.75569 0
M  V30 308 O 33.149 -2.75333 -2.25987 0
M  V30 309 O 32.008 -4.0604 -3.65778 0
M  V30 310 H 29.102 -0.590085 -0.579421 0
M  V30 311 H 31.648 -1.60963 -0.537492 0
M  V30 312 H 30.42 -3.59292 -1.54999 0
M  V30 313 H 30.043 -2.63816 -2.97467 0
M  V30 314 N 31.0401 0.771051 -1.3745 0
M  V30 315 C 32.2861 1.5319 -1.32894 0
M  V30 316 C 32.6191 1.94008 0.0862511 0
M  V30 317 O 31.8941 1.64124 1.04373 0
M  V30 318 C 32.1771 2.79648 -2.26868 0
M  V30 319 C 32.0301 2.45079 -3.77169 0
M  V30 320 C 33.3491 3.81583 -2.19277 0
M  V30 321 H 30.4681 0.555744 -0.484064 0
M  V30 322 H 33.1101 0.884492 -1.68157 0
M  V30 323 H 31.2601 3.34891 -1.96926 0
M  V30 324 H 32.9321 1.95745 -4.1771 0
M  V30 325 H 31.1751 1.77767 -3.95704 0
M  V30 326 H 31.8461 3.35478 -4.38359 0
M  V30 327 H 34.3221 3.35835 -2.45671 0
M  V30 328 H 33.1981 4.67787 -2.87171 0
M  V30 329 H 33.4591 4.25897 -1.18592 0
M  V30 330 N 32.5182 1.22032 0.997298 0
M  V30 331 C 33.7662 1.04016 1.73278 0
M  V30 332 C 34.0872 -0.426255 1.90284 0
M  V30 333 O 33.3572 -1.30694 1.45931 0
M  V30 334 H 31.9372 0.381897 0.642 0
M  V30 335 H 34.5992 1.5347 1.20137 0
M  V30 336 H 33.6952 1.51441 2.72896 0
M  V30 337 N 33.9963 -1.19345 1.0293 0
M  V30 338 C 34.9063 -2.26245 0.620515 0
M  V30 339 C 35.9223 -1.70486 -0.347928 0
M  V30 340 O 37.0983 -2.00347 -0.205704 0
M  V30 341 C 34.1633 -3.46693 -0.0218957 0
M  V30 342 C 33.2243 -4.17632 0.994102 0
M  V30 343 C 32.4573 -5.32329 0.382253 0
M  V30 344 O 32.6803 -5.64552 -0.814676 0
M  V30 345 O 31.6143 -5.91664 1.10531 0
M  V30 346 H 35.4403 -2.63453 1.51083 0
M  V30 347 H 33.0253 -1.26207 0.799513 0
M  V30 348 H 34.9073 -4.19683 -0.380072 0
M  V30 349 H 33.5823 -3.11333 -0.886209 0
M  V30 350 H 32.4893 -3.4676 1.40387 0
M  V30 351 H 33.8223 -4.56964 1.8288 0
M  V30 352 N 35.4744 -0.807222 -1.35358 0
M  V30 353 C 36.7224 -0.387122 -1.98358 0
M  V30 354 C 37.0434 1.04942 -1.64354 0
M  V30 355 O 36.3134 1.72615 -0.926339 0
M  V30 356 H 34.8934 -0.140154 -0.733734 0
M  V30 357 H 37.5554 -1.0332 -1.6526 0
M  V30 358 H 36.6514 -0.493352 -3.08176 0
M  V30 359 N 36.9525 1.47285 -0.560781 0
M  V30 360 C 37.8845 2.28118 0.222438 0
M  V30 361 C 38.8975 1.37219 0.876056 0
M  V30 362 O 40.0865 1.62011 0.749307 0
M  V30 363 C 37.1865 3.1159 1.33285 0
M  V30 364 C 36.3595 4.30473 0.77534 0
M  V30 365 C 35.4185 4.95513 1.77069 0
M  V30 366 O 34.4445 5.53792 1.31539 0
M  V30 367 N 35.6465 4.90531 3.10418 0
M  V30 368 H 38.4115 2.95976 -0.470958 0
M  V30 369 H 35.9725 1.56955 -0.39709 0
M  V30 370 H 37.9645 3.51967 1.99752 0
M  V30 371 H 36.5345 2.45951 1.92943 0
M  V30 372 H 35.7545 3.94144 -0.0662113 0
M  V30 373 H 37.0425 5.07362 0.382272 0
M  V30 374 H 36.4405 4.44389 3.5005 0
M  V30 375 H 34.9975 5.34917 3.72434 0
M  V30 376 N 38.4306 0.297415 1.54768 0
M  V30 377 C 39.8416 -0.195947 1.85669 0
M  V30 378 C 40.1926 -1.53707 1.21937 0
M  V30 379 O 39.3176 -2.10164 0.515754 0
M  V30 380 C 39.9126 -0.362318 3.36857 0
M  V30 381 C 38.4716 -0.799901 3.67802 0
M  V30 382 C 37.6186 0.0938578 2.77141 0
M  V30 383 H 40.5696 0.518538 1.4999 0
M  V30 384 H 40.5906 -1.19745 3.61167 0
M  V30 385 H 40.1026 0.613921 3.83214 0
M  V30 386 H 38.2036 -1.78682 3.26961 0
M  V30 387 H 38.3166 -0.621773 4.75048 0
M  V30 388 H 36.6806 -0.426254 2.51108 0
M  V30 389 H 37.4636 1.06639 3.26318 0
M  V30 390 N 39.9087 -1.5758 0.0250728 0
M  V30 391 C 41.1547 -1.91917 -0.655413 0
M  V30 392 C 41.4877 -0.901433 -1.72011 0
M  V30 393 O 40.7627 0.0764069 -1.9435 0
M  V30 394 C 41.0457 -3.36751 -1.27558 0
M  V30 395 C 40.8987 -4.49258 -0.220719 0
M  V30 396 C 42.2177 -3.81469 -2.19475 0
M  V30 397 H 39.3367 -0.697925 -0.23679 0
M  V30 398 H 41.9787 -1.89825 0.0815036 0
M  V30 399 H 40.1287 -3.38664 -1.90365 0
M  V30 400 H 41.8007 -4.59478 0.409601 0
M  V30 401 H 40.0437 -4.31415 0.454264 0
M  V30 402 H 40.7147 -5.47618 -0.694175 0
M  V30 403 H 43.1907 -3.81266 -1.66659 0
M  V30 404 H 42.0667 -4.83512 -2.59822 0
M  V30 405 H 42.3277 -3.16744 -3.08424 0
M  V30 406 N 41.3868 0.248026 -1.55636 0
M  V30 407 C 42.6358 0.974134 -1.76617 0
M  V30 408 C 42.9488 1.86528 -0.588796 0
M  V30 409 O 44.1548 2.62805 -0.681594 0
M  V30 410 C 42.6108 1.78213 -3.12679 0
M  V30 411 C 42.2188 0.93843 -4.38061 0
M  V30 412 C 43.9628 2.50104 -3.42999 0
M  V30 413 C 41.8698 1.74225 -5.65155 0
M  V30 414 H 40.7998 0.36745 -0.658405 0
M  V30 415 H 43.4508 0.22884 -1.82067 0
M  V30 416 H 41.8328 2.56933 -3.01333 0
M  V30 417 H 43.0068 0.193635 -4.60393 0
M  V30 418 H 41.3218 0.332905 -4.15067 0
M  V30 419 H 43.9188 3.10694 -4.3517 0
M  V30 420 H 44.2618 3.21662 -2.64271 0
M  V30 421 H 44.7948 1.78395 -3.55556 0
M  V30 422 H 41.5338 1.07043 -6.46701 0
M  V30 423 H 41.0538 2.46235 -5.46926 0
M  V30 424 H 42.7328 2.30967 -6.0437 0
M  V30 425 N 42.8649 1.48995 0.513639 0
M  V30 426 C 43.7949 1.67636 1.62544 0
M  V30 427 C 44.7759 0.525087 1.61793 0
M  V30 428 O 45.9609 0.759502 1.78732 0
M  V30 429 C 43.0909 1.73114 3.01079 0
M  V30 430 C 42.0449 2.87905 3.16693 0
M  V30 431 C 41.3709 2.78486 4.56453 0
M  V30 432 C 42.6709 4.29005 2.97913 0
M  V30 433 H 44.3649 2.60716 1.47198 0
M  V30 434 H 41.9109 1.25465 0.706714 0
M  V30 435 H 43.8639 1.84742 3.78746 0
M  V30 436 H 42.5879 0.766241 3.17484 0
M  V30 437 H 41.2469 2.75859 2.41448 0
M  V30 438 H 40.8949 1.7993 4.69717 0
M  V30 439 H 40.5949 3.55523 4.67843 0
M  V30 440 H 42.1189 2.92104 5.36197 0
M  V30 441 H 43.5329 4.41798 3.65359 0
M  V30 442 H 41.9299 5.07166 3.20785 0
M  V30 443 H 42.9999 4.44329 1.94165 0
M  V30 444 N 44.343 -0.763751 1.37857 0
M  V30 445 C 45.592 -1.51789 1.32827 0
M  V30 446 C 45.905 -1.95426 -0.0823719 0
M  V30 447 O 47.111 -2.70298 -0.255172 0
M  V30 448 C 45.567 -2.74133 2.33193 0
M  V30 449 C 45.175 -2.37562 3.79827 0
M  V30 450 C 46.919 -3.52054 2.37188 0
M  V30 451 C 44.826 -3.56456 4.71904 0
M  V30 452 H 43.756 -0.569896 0.493695 0
M  V30 453 H 46.407 -0.835822 1.63359 0
M  V30 454 H 44.789 -3.4427 1.9569 0
M  V30 455 H 45.963 -1.75157 4.26212 0
M  V30 456 H 44.278 -1.72798 3.78853 0
M  V30 457 H 46.875 -4.40437 3.03182 0
M  V30 458 H 47.218 -3.92486 1.38782 0
M  V30 459 H 47.751 -2.88921 2.7344 0
M  V30 460 H 44.49 -3.21099 5.71468 0
M  V30 461 H 44.01 -4.17938 4.30218 0
M  V30 462 H 45.689 -4.23168 4.89426 0
M  V30 463 N 45.8211 -1.22559 -0.990812 0
M  V30 464 C 46.7711 -0.964807 -2.0658 0
M  V30 465 C 47.7551 0.0853472 -1.60673 0
M  V30 466 O 48.9471 -0.125443 -1.76555 0
M  V30 467 C 46.0761 -0.546707 -3.38919 0
M  V30 468 C 45.1621 -1.6317 -3.91454 0
M  V30 469 N 45.5531 -2.85985 -4.17189 0
M  V30 470 C 43.8511 -1.50387 -4.19881 0
M  V30 471 C 44.5521 -3.56159 -4.59919 0
M  V30 472 N 43.5281 -2.83637 -4.63736 0
M  V30 473 H 47.3301 -1.89769 -2.24421 0
M  V30 474 H 44.8441 -1.12343 -1.17273 0
M  V30 475 H 46.8411 -0.34119 -4.15502 0
M  V30 476 H 45.5011 0.379254 -3.22478 0
M  V30 477 H 46.5121 -3.22392 -4.05319 0
M  V30 478 H 43.1891 -0.644254 -4.12499 0
M  V30 479 H 44.5791 -4.6139 -4.88435 0
M  V30 480 N 47.2992 1.18797 -1.03562 0
M  V30 481 C 48.5472 1.88278 -0.734569 0
M  V30 482 C 48.8682 1.8043 0.739586 0
M  V30 483 O 48.1382 1.21925 1.53333 0
M  V30 484 H 46.7182 0.696991 -0.268725 0
M  V30 485 H 49.3802 1.44192 -1.31129 0
M  V30 486 H 48.4762 2.94443 -1.03489 0
M  V30 487 N 48.7773 0.814389 1.34928 0
M  V30 488 C 50.0023 0.410097 2.03305 0
M  V30 489 C 50.4273 -0.973464 1.60951 0
M  V30 490 O 49.7853 -1.63185 0.789964 0
M  V30 491 C 49.8333 0.51049 3.56968 0
M  V30 492 O 48.9373 -0.473035 4.09678 0
M  V30 493 H 48.2783 0.170088 0.641846 0
M  V30 494 H 50.8083 1.10244 1.72358 0
M  V30 495 H 50.8183 0.383135 4.06197 0
M  V30 496 H 49.4933 1.51963 3.87144 0
M  V30 497 H 48.0703 -0.305272 3.71648 0
M  V30 498 N 50.2554 -1.46986 0.568584 0
M  V30 499 C 51.5034 -2.02041 0.0487022 0
M  V30 500 C 51.8244 -1.44408 -1.31039 0
M  V30 501 O 51.0944 -0.623477 -1.85714 0
M  V30 502 H 49.6744 -0.746849 0.015014 0
M  V30 503 H 52.3364 -1.80257 0.741168 0
M  V30 504 H 51.4324 -3.12085 -0.0308961 0
M  V30 505 N 51.7335 -0.305618 -1.54608 0
M  V30 506 C 53.1445 0.186098 -1.8577 0
M  V30 507 C 53.4955 1.53058 -1.22751 0
M  V30 508 O 52.6205 2.09888 -0.526893 0
M  V30 509 C 53.2155 0.344449 -3.37044 0
M  V30 510 C 51.7745 0.780384 -3.68221 0
M  V30 511 C 50.9215 -0.108554 -2.77087 0
M  V30 512 H 53.8725 -0.526485 -1.49712 0
M  V30 513 H 53.8935 1.17828 -3.61796 0
M  V30 514 H 53.4055 -0.634235 -3.82883 0
M  V30 515 H 51.5065 1.76945 -3.27904 0
M  V30 516 H 51.6195 0.596572 -4.75371 0
M  V30 517 H 49.9835 0.412931 -2.5133 0
M  V30 518 H 50.7665 -1.08368 -3.25747 0
M  V30 519 N 53.2116 1.57565 -0.0334293 0
M  V30 520 C 54.4596 1.91598 0.642999 0
M  V30 521 C 54.7806 0.910847 1.7242 0
M  V30 522 O 54.0506 -0.0469931 1.95844 0
M  V30 523 H 52.6306 0.707228 0.240496 0
M  V30 524 H 55.2926 1.94726 -0.0822488 0
M  V30 525 H 54.3886 2.92336 1.09298 0
M  V30 526 N 54.6897 -0.239769 1.55765 0
M  V30 527 C 55.9357 -0.968234 1.78194 0
M  V30 528 C 56.2687 -1.84701 0.599938 0
M  V30 529 O 55.5437 -1.9031 -0.401524 0
M  V30 530 C 55.8267 -1.8227 3.10564 0
M  V30 531 C 55.6797 -0.971633 4.3918 0
M  V30 532 C 56.9987 -2.80388 3.39221 0
M  V30 533 H 54.1177 -0.350572 0.648281 0
M  V30 534 H 56.7597 -0.238259 1.885 0
M  V30 535 H 54.9097 -2.44507 3.01908 0
M  V30 536 H 56.5817 -0.367408 4.59835 0
M  V30 537 H 54.8247 -0.276276 4.32919 0
M  V30 538 H 55.4957 -1.60346 5.28198 0
M  V30 539 H 57.9717 -2.28287 3.47885 0
M  V30 540 H 56.8477 -3.3729 4.33044 0
M  V30 541 H 57.1087 -3.57212 2.60484 0
M  V30 542 N 56.1678 -1.49265 -0.50573 0
M  V30 543 C 57.3928 -1.62478 -1.28902 0
M  V30 544 C 57.8178 -0.294332 -1.85783 0
M  V30 545 O 57.1758 0.737412 -1.65626 0
M  V30 546 C 57.2238 -2.69268 -2.39848 0
M  V30 547 O 56.3278 -2.28113 -3.43567 0
M  V30 548 H 55.6688 -0.54399 -0.380751 0
M  V30 549 H 58.1988 -1.95421 -0.605952 0
M  V30 550 H 58.2088 -2.91291 -2.85681 0
M  V30 551 H 56.8838 -3.65846 -1.97812 0
M  V30 552 H 55.4608 -2.16401 -3.03685 0
M  V30 553 N 57.6459 0.756429 -1.3826 0
M  V30 554 C 58.6089 1.85176 -1.35065 0
M  V30 555 C 59.6089 1.58818 -0.251703 0
M  V30 556 O 60.7989 1.66615 -0.508433 0
M  V30 557 C 57.9309 3.22596 -1.10201 0
M  V30 558 H 59.1239 1.89417 -2.3251 0
M  V30 559 H 56.6769 0.95783 -1.23512 0
M  V30 560 H 57.4119 3.24025 -0.133504 0
M  V30 561 H 57.1969 3.43122 -1.89762 0
M  V30 562 H 58.6869 4.02673 -1.10654 0
M  V30 563 N 59.124 1.23083 0.984299 0
M  V30 564 C 60.354 1.08556 1.75781 0
M  V30 565 C 60.762 -0.366171 1.85623 0
M  V30 566 O 60.105 -1.26524 1.33182 0
M  V30 567 C 60.167 1.63208 3.20318 0
M  V30 568 C 59.831 3.11922 3.33997 0
M  V30 569 C 60.828 4.09259 3.2063 0
M  V30 570 C 58.513 3.51552 3.58771 0
M  V30 571 C 60.507 5.4421 3.31835 0
M  V30 572 C 58.194 4.86649 3.69616 0
M  V30 573 C 59.192 5.82787 3.56157 0
M  V30 574 O 58.88 7.15431 3.66626 0
M  V30 575 H 58.612 0.380713 0.5586 0
M  V30 576 H 61.166 1.63321 1.2456 0
M  V30 577 H 59.396 1.0286 3.72769 0
M  V30 578 H 61.085 1.44216 3.79416 0
M  V30 579 H 61.851 3.79984 3.01392 0
M  V30 580 H 57.73 2.77239 3.6832 0
M  V30 581 H 61.274 6.1923 3.21247 0
M  V30 582 H 57.171 5.15601 3.88363 0
M  V30 583 H 57.939 7.23127 3.83445 0
M  V30 584 N 60.6021 -1.18246 1.0419 0
M  V30 585 C 61.5651 -2.20128 0.638452 0
M  V30 586 C 62.5651 -1.57885 -0.304805 0
M  V30 587 O 63.7551 -1.73967 -0.0900369 0
M  V30 588 C 60.8871 -3.4084 -0.0637751 0
M  V30 589 H 62.0801 -2.57336 1.54007 0
M  V30 590 H 59.6331 -1.32152 0.834598 0
M  V30 591 H 60.3681 -3.09166 -0.979136 0
M  V30 592 H 60.1531 -3.8726 0.614198 0
M  V30 593 H 61.6431 -4.16274 -0.332512 0
M  V30 594 N 62.0802 -0.821533 -1.34494 0
M  V30 595 C 63.0282 -0.230702 -2.31453 0
M  V30 596 C 64.0222 0.627793 -1.57338 0
M  V30 597 O 65.2282 0.519288 -1.72347 0
M  V30 598 H 61.6032 -0.0558577 -0.749923 0
M  V30 599 H 63.5742 -1.06332 -2.78812 0
M  V30 600 C 62.3232 0.59391 -3.4259 0
M  V30 601 H 61.6462 -0.0573588 -3.99759 0
M  V30 602 H 63.0862 0.973446 -4.12674 0
M  V30 603 C 61.5452 1.76568 -2.86924 0
M  V30 604 O 62.0752 2.8638 -2.81691 0
M  V30 605 N 60.2812 1.58198 -2.43766 0
M  V30 606 H 59.8282 0.68872 -2.48222 0
M  V30 607 H 59.7862 2.36752 -2.06871 0
M  V30 608 N 63.5583 1.46682 -0.576371 0
M  V30 609 C 64.8043 2.03287 -0.0679305 0
M  V30 610 C 65.1593 1.44063 1.27529 0
M  V30 611 O 64.4523 0.593973 1.82161 0
M  V30 612 C 64.6463 3.57345 0.062886 0
M  V30 613 C 64.4753 4.31509 -1.26611 0
M  V30 614 C 63.2453 4.70664 -1.83856 0
M  V30 615 C 65.4433 4.65444 -2.18783 0
M  V30 616 N 63.4253 5.29552 -3.10561 0
M  V30 617 C 64.7963 5.24835 -3.30072 0
M  V30 618 C 66.8513 4.47375 -2.18542 0
M  V30 619 C 65.5543 5.68063 -4.41244 0
M  V30 620 C 67.5803 4.91614 -3.28739 0
M  V30 621 C 66.9423 5.51071 -4.38748 0
M  V30 622 H 63.0413 0.779083 -0.0674836 0
M  V30 623 H 65.6253 1.78918 -0.767877 0
M  V30 624 H 63.7963 3.8144 0.731988 0
M  V30 625 H 65.5283 4.00592 0.575134 0
M  V30 626 H 62.2833 4.53224 -1.37424 0
M  V30 627 H 62.7073 5.63523 -3.75195 0
M  V30 628 H 67.3493 4.00747 -1.34765 0
M  V30 629 H 65.0673 6.13672 -5.25768 0
M  V30 630 H 68.6533 4.79389 -3.29662 0
M  V30 631 H 67.5333 5.84678 -5.22611 0
M  V30 632 N 65.0364 0.313813 1.54444 0
M  V30 633 C 66.4524 -0.0391619 1.59552 0
M  V30 634 C 66.6524 -1.51322 1.33056 0
M  V30 635 O 65.7084 -2.26782 1.11022 0
M  V30 636 C 67.0214 0.370302 2.98411 0
M  V30 637 C 68.5694 0.320139 3.11358 0
M  V30 638 C 69.0444 0.704617 4.52547 0
M  V30 639 N 70.5354 0.657645 4.58508 0
M  V30 640 C 71.2704 0.927453 5.6585 0
M  V30 641 N 70.7664 1.26389 6.81174 0
M  V30 642 N 72.5594 0.853662 5.5558 0
M  V30 643 H 64.7104 1.27433 1.69925 0
M  V30 644 H 66.9734 0.517511 0.794284 0
M  V30 645 H 66.6794 1.39694 3.22767 0
M  V30 646 H 66.5534 -0.269619 3.76235 0
M  V30 647 H 68.9404 -0.697275 2.86744 0
M  V30 648 H 69.0214 0.99486 2.35661 0
M  V30 649 H 68.6654 1.7199 4.77893 0
M  V30 650 H 68.5954 0.00768843 5.26599 0
M  V30 651 H 71.0864 0.409067 3.75679 0
M  V30 652 H 71.3994 1.4554 7.58972 0
M  V30 653 H 69.7444 1.30206 6.82694 0
M  V30 654 H 72.9354 0.590383 4.64362 0
M  V30 655 H 73.1084 1.0673 6.3915 0
M  V30 656 N 66.5145 -1.57545 0.0417849 0
M  V30 657 C 67.4445 -2.14009 -0.933929 0
M  V30 658 C 68.4255 -1.05938 -1.33083 0
M  V30 659 O 69.6105 -1.33833 -1.40721 0
M  V30 660 C 66.7405 -2.67747 -2.21199 0
M  V30 661 C 65.6945 -3.80718 -1.95544 0
M  V30 662 C 65.0205 -4.20935 -3.29724 0
M  V30 663 C 66.3205 -5.06258 -1.28452 0
M  V30 664 H 68.0145 -2.95788 -0.463645 0
M  V30 665 H 65.5605 -1.42285 -0.221573 0
M  V30 666 H 67.5135 -3.05886 -2.89848 0
M  V30 667 H 66.2375 -1.83147 -2.70416 0
M  V30 668 H 64.8965 -3.43037 -1.2931 0
M  V30 669 H 64.5445 -3.33298 -3.76724 0
M  V30 670 H 64.2445 -4.9707 -3.13361 0
M  V30 671 H 65.7685 -4.61666 -3.9962 0
M  V30 672 H 67.1825 -5.41903 -1.8712 0
M  V30 673 H 65.5795 -5.87475 -1.22445 0
M  V30 674 H 66.6495 -4.84207 -0.259219 0
M  V30 675 N 67.9926 0.231505 -1.5589 0
M  V30 676 C 69.2206 0.974505 -1.82513 0
M  V30 677 C 69.6356 1.78344 -0.619591 0
M  V30 678 O 68.9926 1.77792 0.411848 0
M  V30 679 C 69.0436 1.90007 -3.07538 0
M  V30 680 O 68.7646 1.12385 -4.2344 0
M  V30 681 C 70.2656 2.75779 -3.47075 0
M  V30 682 H 67.4856 0.286065 -0.606966 0
M  V30 683 H 70.0296 0.249739 -2.02969 0
M  V30 684 H 68.1846 2.57891 -2.89086 0
M  V30 685 H 68.5986 1.75125 -4.944 0
M  V30 686 H 70.0726 3.36443 -4.37619 0
M  V30 687 H 70.5496 3.47672 -2.68367 0
M  V30 688 H 71.1556 2.13323 -3.67931 0
M  V30 689 N 69.4707 1.49531 0.497807 0
M  V30 690 C 70.7197 1.58426 1.24837 0
M  V30 691 C 71.0327 0.277643 1.93619 0
M  V30 692 O 72.2387 0.24517 2.70391 0
M  V30 693 C 70.6947 2.79538 2.26686 0
M  V30 694 C 70.3027 4.16971 1.63828 0
M  V30 695 C 72.0467 2.97764 3.0255 0
M  V30 696 C 69.9537 5.29301 2.63807 0
M  V30 697 H 68.8837 0.58989 0.469623 0
M  V30 698 H 71.5347 1.75923 0.521857 0
M  V30 699 H 69.9167 2.55542 3.02514 0
M  V30 700 H 71.0907 4.51116 0.939711 0
M  V30 701 H 69.4057 4.04129 1.00342 0
M  V30 702 H 72.0027 3.78856 3.77323 0
M  V30 703 H 72.3457 2.08448 3.60354 0
M  V30 704 H 72.8787 3.21815 2.33838 0
M  V30 705 H 69.6177 6.20687 2.10779 0
M  V30 706 H 69.1377 4.99606 3.31894 0
M  V30 707 H 70.8167 5.58768 3.2617 0
M  V30 708 N 70.9488 -0.749086 1.3866 0
M  V30 709 C 72.3598 -1.32664 1.31366 0
M  V30 710 C 72.7108 -1.96179 -0.028484 0
M  V30 711 O 71.8358 -1.9537 -0.93057 0
M  V30 712 C 72.4308 -2.41219 2.37905 0
M  V30 713 C 70.9898 -2.94684 2.34176 0
M  V30 714 C 70.1368 -1.68108 2.20533 0
M  V30 715 H 73.0878 -0.547628 1.48952 0
M  V30 716 H 73.1088 -3.21268 2.0388 0
M  V30 717 H 72.6208 -1.94962 3.35576 0
M  V30 718 H 70.7218 -3.45258 1.401 0
M  V30 719 H 70.8348 -3.48757 3.2849 0
M  V30 720 H 69.1988 -1.91907 1.67463 0
M  V30 721 H 69.9818 -1.23923 3.20153 0
M  V30 722 N 72.4269 -1.23603 -0.977757 0
M  V30 723 C 73.3899 -1.02069 -2.05218 0
M  V30 724 C 74.3899 0.0184305 -1.60789 0
M  V30 725 O 75.5799 -0.221569 -1.72785 0
M  V30 726 C 72.7119 -0.544926 -3.36517 0
M  V30 727 H 73.9049 -1.9742 -2.25755 0
M  V30 728 H 71.4579 -1.05684 -1.15155 0
M  V30 729 H 72.1929 0.412241 -3.21669 0
M  V30 730 H 71.9779 -1.2948 -3.70105 0
M  V30 731 H 73.4679 -0.414985 -4.15533 0
M  V30 732 N 73.905 1.17692 -1.04816 0
M  V30 733 C 74.835 2.23777 -0.666791 0
M  V30 734 C 75.816 1.66796 0.33361 0
M  V30 735 O 77.001 1.93039 0.212042 0
M  V30 736 C 74.131 3.47281 -0.0367933 0
M  V30 737 C 73.085 4.17059 -0.961546 0
M  V30 738 C 72.411 5.34342 -0.195626 0
M  V30 739 C 73.711 4.69713 -2.28402 0
M  V30 740 H 75.405 2.55933 -1.55367 0
M  V30 741 H 72.951 1.23019 -0.748484 0
M  V30 742 H 74.904 4.20706 0.241775 0
M  V30 743 H 73.628 3.14381 0.885004 0
M  V30 744 H 72.287 3.45541 -1.22462 0
M  V30 745 H 71.935 4.97692 0.728816 0
M  V30 746 H 71.635 5.81966 -0.811775 0
M  V30 747 H 73.159 6.10553 0.0757473 0
M  V30 748 H 74.573 5.34794 -2.06563 0
M  V30 749 H 72.97 5.279 -2.8538 0
M  V30 750 H 74.04 3.86726 -2.92525 0
M  V30 751 N 75.3831 0.828654 1.34056 0
M  V30 752 C 76.6081 0.431637 2.02859 0
M  V30 753 C 77.0331 -0.956339 1.61975 0
M  V30 754 O 76.3911 -1.62338 0.807228 0
M  V30 755 C 76.4391 0.548323 3.56407 0
M  V30 756 O 75.5431 -0.429556 4.10157 0
M  V30 757 H 74.8841 0.176886 0.640006 0
M  V30 758 H 77.4141 1.12066 1.71179 0
M  V30 759 H 77.4241 0.426196 4.05768 0
M  V30 760 H 76.0991 1.5606 3.8551 0
M  V30 761 H 74.6761 -0.265836 3.71951 0
M  V30 762 N 76.8612 -1.46375 0.584142 0
M  V30 763 C 77.8082 -2.30323 -0.148286 0
M  V30 764 C 78.7782 -1.40703 -0.882713 0
M  V30 765 O 79.9632 -1.69651 -0.873099 0
M  V30 766 C 77.1032 -3.25196 -1.15507 0
M  V30 767 C 76.2162 -4.29915 -0.423943 0
M  V30 768 C 75.3512 -5.11914 -1.41838 0
M  V30 769 C 74.3902 -6.08381 -0.673736 0
M  V30 770 N 73.5272 -6.83242 -1.6163 0
M  V30 771 H 78.3672 -2.92427 0.573644 0
M  V30 772 H 75.9042 -1.44118 0.294703 0
M  V30 773 H 77.8622 -3.78646 -1.75166 0
M  V30 774 H 76.4922 -2.64898 -1.8447 0
M  V30 775 H 75.5442 -3.7931 0.287714 0
M  V30 776 H 76.8562 -4.98549 0.158128 0
M  V30 777 H 76.0102 -5.69648 -2.08773 0
M  V30 778 H 74.7492 -4.43243 -2.03438 0
M  V30 779 H 73.7542 -5.49799 0.00938483 0
M  V30 780 H 74.9792 -6.79071 -0.0631082 0
M  V30 781 H 72.9252 -6.1728 -2.22038 0
M  V30 782 H 72.8422 -7.48144 -1.08707 0
M  V30 783 H 74.1102 -7.45534 -2.27596 0
M  V30 784 N 78.3393 -0.321999 -1.54275 0
M  V30 785 C 79.5863 0.281044 -2.0054 0
M  V30 786 C 79.9143 1.52265 -1.21019 0
M  V30 787 O 79.1693 1.93687 -0.279982 0
M  V30 788 C 79.4683 0.661769 -3.5122 0
M  V30 789 C 79.1343 -0.480482 -4.48333 0
M  V30 790 C 77.7963 -0.794005 -4.74604 0
M  V30 791 C 80.1483 -1.24783 -5.06042 0
M  V30 792 C 77.4763 -1.87763 -5.55844 0
M  V30 793 C 79.8283 -2.32153 -5.88462 0
M  V30 794 C 78.4923 -2.64089 -6.13036 0
M  V30 795 H 77.7623 0.102841 -0.733829 0
M  V30 796 H 80.4093 -0.445453 -1.86247 0
M  V30 797 H 78.7143 1.46867 -3.63232 0
M  V30 798 H 80.4113 1.13989 -3.84457 0
M  V30 799 H 77.0013 -0.226039 -4.28004 0
M  V30 800 H 81.1853 -1.01887 -4.85729 0
M  V30 801 H 76.4413 -2.12954 -5.73115 0
M  V30 802 H 80.6153 -2.92057 -6.32199 0
M  V30 803 H 78.2423 -3.48185 -6.75775 0
M  V30 804 N 79.8174 1.5752 -0.0501392 0
M  V30 805 C 81.0474 1.96678 0.632573 0
M  V30 806 C 81.4554 0.926298 1.64974 0
M  V30 807 O 80.7984 -0.09802 1.83438 0
M  V30 808 C 80.8604 3.32068 1.37735 0
M  V30 809 C 80.5244 4.54076 0.516131 0
M  V30 810 C 81.5214 5.19445 -0.217357 0
M  V30 811 C 79.2064 5.00304 0.44736 0
M  V30 812 C 81.2004 6.29378 -1.00807 0
M  V30 813 C 78.8874 6.10114 -0.347038 0
M  V30 814 C 79.8854 6.74512 -1.07344 0
M  V30 815 O 79.5734 7.82211 -1.85477 0
M  V30 816 H 79.3054 0.652193 0.177821 0
M  V30 817 H 81.8594 2.05091 -0.112543 0
M  V30 818 H 80.0894 3.20206 2.16807 0
M  V30 819 H 81.7784 3.55981 1.95019 0
M  V30 820 H 82.5444 4.84689 -0.173688 0
M  V30 821 H 78.4234 4.49971 1.00235 0
M  V30 822 H 81.9674 6.79575 -1.57556 0
M  V30 823 H 77.8644 6.44307 -0.392349 0
M  V30 824 H 78.6324 7.98982 -1.77678 0
M  V30 825 N 81.2955 -0.223234 1.56011 0
M  V30 826 C 82.7115 -0.572856 1.48965 0
M  V30 827 C 82.9115 -1.87225 0.74492 0
M  V30 828 O 81.9675 -2.50899 0.283896 0
M  V30 829 C 83.2805 -0.653646 2.9351 0
M  V30 830 C 84.8285 -0.744386 3.0402 0
M  V30 831 C 85.3035 -0.856535 4.49919 0
M  V30 832 N 86.7945 -0.9208 4.53955 0
M  V30 833 C 87.5295 -1.02726 5.64123 0
M  V30 834 N 87.0255 -1.09777 6.84047 0
M  V30 835 N 88.8185 -1.06226 5.51971 0
M  V30 836 H 80.9695 0.629462 2.02858 0
M  V30 837 H 83.2325 0.220621 0.921971 0
M  V30 838 H 82.9385 0.231518 3.50937 0
M  V30 839 H 82.8125 -1.51781 3.45315 0
M  V30 840 H 85.1995 -1.61999 2.46658 0
M  V30 841 H 85.2805 0.14541 2.55386 0
M  V30 842 H 84.9245 0.0146069 5.07898 0
M  V30 843 H 84.8545 -1.76172 4.96257 0
M  V30 844 H 87.3455 -0.876694 3.6759 0
M  V30 845 H 87.6585 -1.17872 7.63758 0
M  V30 846 H 86.0035 -1.06693 6.86762 0
M  V30 847 H 89.1945 -1.00382 4.5721 0
M  V30 848 H 89.3675 -1.14177 6.37862 0
M  V30 849 N 82.7736 -1.49793 -0.48987 0
M  V30 850 C 84.0196 -1.60078 -1.24511 0
M  V30 851 C 84.3526 -0.291608 -1.91998 0
M  V30 852 O 83.6276 0.705647 -1.81248 0
M  V30 853 C 83.9106 -2.76791 -2.30345 0
M  V30 854 C 83.7636 -4.17535 -1.67286 0
M  V30 855 C 85.0826 -2.89111 -3.31817 0
M  V30 856 H 82.2016 -0.582645 -0.451324 0
M  V30 857 H 84.8436 -1.82117 -0.541612 0
M  V30 858 H 82.9936 -2.5813 -2.90346 0
M  V30 859 H 84.6656 -4.4774 -1.11026 0
M  V30 860 H 82.9086 -4.22665 -0.976577 0
M  V30 861 H 83.5796 -4.95094 -2.44103 0
M  V30 862 H 86.0556 -3.06133 -2.81819 0
M  V30 863 H 84.9316 -3.72433 -4.03219 0
M  V30 864 H 85.1926 -1.9893 -3.94815 0
M  V30 865 N 84.2517 0.741722 -1.39055 0
M  V30 866 C 85.5007 1.49656 -1.35225 0
M  V30 867 C 85.8137 1.95533 0.0512708 0
M  V30 868 O 87.0197 2.7067 0.212138 0
M  V30 869 C 85.4757 2.70389 -2.37525 0
M  V30 870 C 85.0837 2.31489 -3.83558 0
M  V30 871 C 86.8277 3.48236 -2.42759 0
M  V30 872 C 84.7347 3.48903 -4.77515 0
M  V30 873 H 83.6647 0.56197 -0.502699 0
M  V30 874 H 86.3157 0.809727 -1.64668 0
M  V30 875 H 84.6977 3.41113 -2.01142 0
M  V30 876 H 85.8717 1.68354 -4.28945 0
M  V30 877 H 84.1867 1.66749 -3.81554 0
M  V30 878 H 86.7837 4.35558 -3.1015 0
M  V30 879 H 87.1267 3.90229 -1.45008 0
M  V30 880 H 87.6597 2.84535 -2.78002 0
M  V30 881 H 84.3987 3.11966 -5.76504 0
M  V30 882 H 83.9187 4.11041 -4.36813 0
M  V30 883 H 85.5977 4.15328 -4.96096 0
M  V30 884 N 85.7298 1.2412 0.971189 0
M  V30 885 C 86.6928 1.03156 2.04674 0
M  V30 886 C 87.6928 -0.00990322 1.60797 0
M  V30 887 O 88.8828 0.230729 1.72665 0
M  V30 888 C 86.0148 0.562765 3.36223 0
M  V30 889 H 87.2078 1.98614 2.24705 0
M  V30 890 H 84.7608 1.06293 1.14593 0
M  V30 891 H 85.4958 -0.395176 3.21883 0
M  V30 892 H 85.2808 1.31441 3.69413 0
M  V30 893 H 86.7708 0.437015 4.15307 0
M  V30 894 N 87.2079 -1.17134 1.05439 0
M  V30 895 C 88.6189 -1.69084 0.791676 0
M  V30 896 C 88.9699 -1.83822 -0.685839 0
M  V30 897 O 88.0949 -1.52757 -1.53278 0
M  V30 898 C 88.6899 -3.07119 1.4305 0
M  V30 899 C 87.2489 -3.56225 1.21577 0
M  V30 900 C 86.3959 -2.32421 1.51247 0
M  V30 901 H 89.3469 -1.01617 1.219 0
M  V30 902 H 89.3679 -3.71087 0.84112 0
M  V30 903 H 88.8799 -2.9636 2.50584 0
M  V30 904 H 86.9809 -3.72257 0.159787 0
M  V30 905 H 87.0939 -4.38837 1.92246 0
M  V30 906 H 85.4579 -2.3701 0.932653 0
M  V30 907 H 86.2409 -2.24268 2.5992 0
M  V30 908 N 88.686 -0.835752 -1.33615 0
M  V30 909 C 89.963 -0.352017 -1.92406 0
M  V30 910 C 90.343 1.16225 -1.76224 0
M  V30 911 O 89.691 1.97526 -1.14873 0
M  V30 912 C 89.901 -0.795485 -3.39813 0
M  V30 913 C 91.249 -0.801703 -4.16963 0
M  V30 914 O 92.273 -0.738889 -3.48452 0
M  V30 915 O 91.132 -0.886607 -5.3926 0
M  V30 916 H 88.226 -0.0989641 -0.821057 0
M  V30 917 H 90.772 -0.921397 -1.42507 0
M  V30 918 H 89.544 -1.83795 -3.45449 0
M  V30 919 H 89.167 -0.202505 -3.97084 0
M  V30 920 N 90.1641 1.46063 -0.591896 0
M  V30 921 C 91.0971 2.27452 0.184617 0
M  V30 922 C 92.0751 1.36188 0.888351 0
M  V30 923 O 93.2591 1.65606 0.90039 0
M  V30 924 C 90.3861 3.14162 1.26571 0
M  V30 925 C 89.4321 4.21255 0.666814 0
M  V30 926 S 90.2651 5.33034 -0.513345 0
M  V30 927 C 91.4211 6.23311 0.56872 0
M  V30 928 H 91.6541 2.92963 -0.505939 0
M  V30 929 H 89.1871 1.49676 -0.379014 0
M  V30 930 H 91.1451 3.6468 1.88463 0
M  V30 931 H 89.8061 2.47946 1.92826 0
M  V30 932 H 88.9991 4.81788 1.47974 0
M  V30 933 H 88.6011 3.73797 0.123359 0
M  V30 934 H 90.8931 6.61758 1.45198 0
M  V30 935 H 91.8361 7.081 -7.23824e-05 0
M  V30 936 H 92.2441 5.57646 0.876996 0
M  V30 937 N 91.6422 0.330177 1.54103 0
M  V30 938 C 92.8882 -0.270806 2.00984 0
M  V30 939 C 93.2212 -1.51265 1.21789 0
M  V30 940 O 92.4962 -1.92142 0.301927 0
M  V30 941 C 92.7792 -0.598339 3.55094 0
M  V30 942 C 92.6322 0.654674 4.4501 0
M  V30 943 C 93.9512 -1.41334 4.16789 0
M  V30 944 H 91.0702 -0.0969531 0.730595 0
M  V30 945 H 93.7122 0.448066 1.84641 0
M  V30 946 H 91.8622 -1.21078 3.69151 0
M  V30 947 H 93.5342 1.29285 4.42813 0
M  V30 948 H 91.7772 1.28224 4.14416 0
M  V30 949 H 92.4482 0.380944 5.50684 0
M  V30 950 H 94.9242 -0.895597 4.06347 0
M  V30 951 H 93.8002 -1.61127 5.24718 0
M  V30 952 H 94.0612 -2.41146 3.70541 0
M  V30 953 N 93.1203 -1.57491 0.0584922 0
M  V30 954 C 94.3683 -1.92597 -0.612436 0
M  V30 955 C 94.6893 -0.938162 -1.70949 0
M  V30 956 O 93.9593 0.0158301 -1.95894 0
M  V30 957 H 92.5393 -0.710964 -0.229214 0
M  V30 958 H 95.2013 -1.94571 0.113218 0
M  V30 959 H 94.2973 -2.94038 -1.04633 0
M  V30 960 N 94.5984 0.214957 -1.56127 0
M  V30 961 C 95.8454 0.938372 -1.79446 0
M  V30 962 C 96.1734 1.8407 -0.628378 0
M  V30 963 O 95.4284 1.91837 0.386925 0
M  V30 964 C 95.7274 1.80314 -3.0858 0
M  V30 965 C 95.3934 1.05349 -4.3842 0
M  V30 966 C 94.0554 0.846435 -4.73697 0
M  V30 967 C 96.4074 0.524588 -5.18553 0
M  V30 968 C 93.7354 0.098683 -5.86617 0
M  V30 969 C 96.0874 -0.209853 -6.32252 0
M  V30 970 C 94.7514 -0.428102 -6.66126 0
M  V30 971 H 94.0214 0.343375 -0.656639 0
M  V30 972 H 96.6684 0.206077 -1.90388 0
M  V30 973 H 94.9734 2.6035 -2.92789 0
M  V30 974 H 96.6704 2.36513 -3.23825 0
M  V30 975 H 93.2604 1.22486 -4.10725 0
M  V30 976 H 97.4444 0.672008 -4.91729 0
M  V30 977 H 92.7004 -0.0805753 -6.11347 0
M  V30 978 H 96.8744 -0.627157 -6.9357 0
M  V30 979 H 94.5014 -1.00944 -7.53468 0
M  V30 980 N 96.0765 1.50051 0.48192 0
M  V30 981 C 97.3245 1.60181 1.23234 0
M  V30 982 C 97.6455 0.299176 1.92691 0
M  V30 983 O 96.9155 -0.682708 1.83619 0
M  V30 984 H 95.4955 0.590232 0.457859 0
M  V30 985 H 98.1575 1.86775 0.556881 0
M  V30 986 H 97.2535 2.40753 1.98607 0
M  V30 987 N 97.5546 -0.734337 1.39446 0
M  V30 988 C 98.8016 -1.49391 1.36706 0
M  V30 989 C 99.1296 -1.94465 -0.0367813 0
M  V30 990 O 98.3846 -1.67154 -1.01774 0
M  V30 991 C 98.6836 -2.74711 2.28623 0
M  V30 992 C 98.3496 -2.48501 3.76242 0
M  V30 993 C 97.0116 -2.41062 4.16464 0
M  V30 994 C 99.3636 -2.26098 4.69606 0
M  V30 995 C 96.6916 -2.09262 5.48112 0
M  V30 996 C 99.0436 -1.95814 6.01531 0
M  V30 997 C 97.7076 -1.86845 6.40816 0
M  V30 998 H 96.9776 -0.546661 0.500243 0
M  V30 999 H 99.6246 -0.842788 1.71957 0
M  V30 1000 H 97.9296 -3.44569 1.86492 0
M  V30 1001 H 99.6266 -3.32741 2.23796 0
M  V30 1002 H 96.2166 -2.55169 3.44364 0
M  V30 1003 H 100.401 -2.30812 4.39363 0
M  V30 1004 H 95.6566 -2.00841 5.77471 0
M  V30 1005 H 99.8306 -1.77488 6.73403 0
M  V30 1006 H 97.4576 -1.6197 7.42745 0
M  V30 1007 N 99.0327 -1.24633 -0.964593 0
M  V30 1008 C 100.261 -1.11501 -1.74285 0
M  V30 1009 C 100.676 0.332165 -1.85855 0
M  V30 1010 O 100.033 1.22903 -1.34911 0
M  V30 1011 C 100.084 -1.75258 -3.16175 0
M  V30 1012 O 99.8047 -3.14318 -3.05182 0
M  V30 1013 C 101.306 -1.67776 -4.10324 0
M  V30 1014 H 98.5257 -0.389407 -0.546446 0
M  V30 1015 H 101.07 -1.64801 -1.21083 0
M  V30 1016 H 99.2247 -1.25954 -3.66353 0
M  V30 1017 H 99.6387 -3.4551 -3.94618 0
M  V30 1018 H 101.113 -2.17064 -5.0753 0
M  V30 1019 H 101.59 -0.639584 -4.34518 0
M  V30 1020 H 102.196 -2.16522 -3.66058 0
M  V30 1021 N 100.511 1.16574 -1.06058 0
M  V30 1022 C 101.788 1.83048 -0.689416 0
M  V30 1023 C 102.168 1.94122 0.829443 0
M  V30 1024 O 101.516 1.48249 1.7388 0
M  V30 1025 C 101.726 3.20186 -1.38859 0
M  V30 1026 C 103.074 3.95989 -1.53226 0
M  V30 1027 O 104.098 3.29696 -1.3483 0
M  V30 1028 O 102.957 5.14813 -1.83384 0
M  V30 1029 H 100.051 0.790258 -0.243764 0
M  V30 1030 H 102.597 1.23797 -1.16071 0
M  V30 1031 H 101.369 3.07146 -2.4244 0
M  V30 1032 H 100.992 3.87112 -0.907216 0
M  V30 1033 N 101.989 0.842826 1.3317 0
M  V30 1034 C 103.405 0.531128 1.50503 0
M  V30 1035 C 103.605 -0.940734 1.78192 0
M  V30 1036 O 102.661 -1.72436 1.84451 0
M  V30 1037 C 103.974 1.40789 2.65705 0
M  V30 1038 C 105.522 1.40708 2.79589 0
M  V30 1039 C 105.997 2.26878 3.97857 0
M  V30 1040 N 107.488 2.24609 4.05099 0
M  V30 1041 C 108.223 2.88019 4.95815 0
M  V30 1042 N 107.719 3.60496 5.9162 0
M  V30 1043 N 109.512 2.77469 4.88843 0
M  V30 1044 H 101.663 1.79557 1.1346 0
M  V30 1045 H 103.926 0.766267 0.558156 0
M  V30 1046 H 103.632 2.454 2.51936 0
M  V30 1047 H 103.506 1.08677 3.61205 0
M  V30 1048 H 105.893 0.368668 2.92788 0
M  V30 1049 H 105.974 1.76829 1.84838 0
M  V30 1050 H 105.618 3.3078 3.85418 0
M  V30 1051 H 105.548 1.88096 4.91861 0
M  V30 1052 H 108.039 1.71906 3.36536 0
M  V30 1053 H 108.352 4.06076 6.57512 0
M  V30 1054 H 106.697 3.64604 5.91683 0
M  V30 1055 H 109.888 2.20406 4.12963 0
M  V30 1056 H 110.061 3.2717 5.59342 0
M  V30 1057 N 103.467 -1.45747 0.599634 0
M  V30 1058 C 104.878 -1.85853 0.177681 0
M  V30 1059 C 105.229 -1.50102 -1.26348 0
M  V30 1060 O 104.354 -0.923905 -1.95686 0
M  V30 1061 C 104.949 -3.37326 0.315688 0
M  V30 1062 C 103.508 -3.76365 -0.0515144 0
M  V30 1063 C 102.655 -2.69722 0.643822 0
M  V30 1064 H 105.606 -1.36661 0.806814 0
M  V30 1065 H 105.627 -3.77778 -0.454321 0
M  V30 1066 H 105.139 -3.63315 1.36468 0
M  V30 1067 H 103.24 -3.55993 -1.09999 0
M  V30 1068 H 103.353 -4.77916 0.336594 0
M  V30 1069 H 101.717 -2.54567 0.0822881 0
M  V30 1070 H 102.5 -2.98549 1.6948 0
M  V30 1071 N 104.945 -0.338344 -1.53925 0
M  V30 1072 C 105.855 0.529421 -2.28548 0
M  V30 1073 C 106.871 1.11645 -1.3346 0
M  V30 1074 O 108.047 1.13325 -1.66492 0
M  V30 1075 C 105.112 1.66713 -3.03987 0
M  V30 1076 C 104.173 1.11041 -4.14691 0
M  V30 1077 C 103.406 2.19389 -4.86522 0
M  V30 1078 O 103.629 3.40013 -4.57982 0
M  V30 1079 O 102.563 1.83976 -5.73094 0
M  V30 1080 H 106.389 -0.0770399 -3.03602 0
M  V30 1081 H 103.974 -0.103555 -1.49041 0
M  V30 1082 H 105.856 2.32918 -3.5118 0
M  V30 1083 H 104.531 2.25949 -2.31794 0
M  V30 1084 H 103.438 0.413024 -3.71813 0
M  V30 1085 H 104.771 0.562975 -4.8897 0
M  V30 1086 N 106.423 1.57458 -0.0668435 0
M  V30 1087 C 107.371 2.13639 0.919851 0
M  V30 1088 C 108.365 1.07204 1.31163 0
M  V30 1089 O 109.571 1.25591 1.28945 0
M  V30 1090 H 105.946 0.683048 0.314562 0
M  V30 1091 H 107.917 2.95415 0.421047 0
M  V30 1092 C 106.666 2.70892 2.17975 0
M  V30 1093 H 105.989 3.5246 1.88711 0
M  V30 1094 H 107.429 3.13803 2.85138 0
M  V30 1095 C 105.888 1.65414 2.93496 0
M  V30 1096 O 106.418 1.07619 3.87015 0
M  V30 1097 N 104.624 1.36564 2.56512 0
M  V30 1098 H 104.171 1.83751 1.80536 0
M  V30 1099 H 104.129 0.66223 3.07347 0
M  V30 1100 N 107.901 -0.206675 1.56239 0
M  V30 1101 C 109.131 -0.943975 1.83773 0
M  V30 1102 C 109.539 -1.77841 0.645703 0
M  V30 1103 O 108.882 -1.79403 -0.395008 0
M  V30 1104 C 108.944 -1.899 3.05251 0
M  V30 1105 C 108.608 -1.24764 4.39639 0
M  V30 1106 C 109.605 -0.630216 5.16066 0
M  V30 1107 C 107.29 -1.25496 4.8637 0
M  V30 1108 C 109.284 -0.0287946 6.37393 0
M  V30 1109 C 106.971 -0.649698 6.07637 0
M  V30 1110 C 107.969 -0.0376845 6.8299 0
M  V30 1111 O 107.657 0.55812 8.0196 0
M  V30 1112 H 107.389 -0.281508 0.614597 0
M  V30 1113 H 109.943 -0.222458 2.04192 0
M  V30 1114 H 108.173 -2.6599 2.80689 0
M  V30 1115 H 109.862 -2.5031 3.1953 0
M  V30 1116 H 110.628 -0.616785 4.81062 0
M  V30 1117 H 106.507 -1.72072 4.27683 0
M  V30 1118 H 110.051 0.449518 6.9615 0
M  V30 1119 H 105.948 -0.660592 6.42111 0
M  V30 1120 H 106.716 0.453891 8.17241 0
M  V30 1121 N 109.379 -1.50304 -0.473955 0
M  V30 1122 C 110.327 -1.69482 -1.59307 0
M  V30 1123 C 111.321 -0.560669 -1.59853 0
M  V30 1124 O 112.527 -0.741087 -1.64036 0
M  V30 1125 H 108.902 -0.534892 -0.528578 0
M  V30 1126 H 110.873 -2.63364 -1.40293 0
M  V30 1127 C 109.622 -1.80354 -2.97267 0
M  V30 1128 H 108.945 -2.67012 -2.97564 0
M  V30 1129 H 110.385 -1.97798 -3.75036 0
M  V30 1130 C 108.844 -0.55448 -3.32306 0
M  V30 1131 O 109.374 0.307661 -4.0052 0
M  V30 1132 N 107.58 -0.409354 -2.87702 0
M  V30 1133 H 107.127 -1.11196 -2.32364 0
M  V30 1134 H 107.085 0.425223 -3.11511 0
M  V30 1135 N 110.857 0.726932 -1.39834 0
M  V30 1136 C 112.087 1.51393 -1.40583 0
M  V30 1137 C 112.495 1.892 -0.000740625 0
M  V30 1138 O 111.838 1.55189 0.982951 0
M  V30 1139 C 111.9 2.82588 -2.22226 0
M  V30 1140 C 111.564 2.67169 -3.70769 0
M  V30 1141 C 112.561 2.3518 -4.63666 0
M  V30 1142 C 110.246 2.83788 -4.14451 0
M  V30 1143 C 112.24 2.20002 -5.98229 0
M  V30 1144 C 109.927 2.68229 -5.49087 0
M  V30 1145 C 110.925 2.36382 -6.4079 0
M  V30 1146 O 110.613 2.2093 -7.72946 0
M  V30 1147 H 110.345 0.474168 -0.48181 0
M  V30 1148 H 112.899 0.905247 -1.84376 0
M  V30 1149 H 111.129 3.45746 -1.73195 0
M  V30 1150 H 112.818 3.44247 -2.15055 0
M  V30 1151 H 113.584 2.21984 -4.31217 0
M  V30 1152 H 109.463 3.07566 -3.43401 0
M  V30 1153 H 113.007 1.95067 -6.69772 0
M  V30 1154 H 108.904 2.81006 -5.81125 0
M  V30 1155 H 109.672 2.35937 -7.83757 0
M  V30 1156 N 112.336 1.25143 0.95797 0
M  V30 1157 C 113.561 1.12521 1.74223 0
M  V30 1158 C 113.986 -0.317402 1.85403 0
M  V30 1159 O 113.344 -1.2299 1.33204 0
M  V30 1160 C 113.392 1.78062 3.1357 0
M  V30 1161 O 112.496 1.058 3.98598 0
M  V30 1162 H 111.837 0.39304 0.535178 0
M  V30 1163 H 114.367 1.65641 1.201 0
M  V30 1164 H 114.377 1.84213 3.64046 0
M  V30 1165 H 113.052 2.83021 3.04749 0
M  V30 1166 H 111.629 1.07506 3.57067 0
M  V30 1167 N 113.814 -1.1601 1.06675 0
M  V30 1168 C 114.761 -2.20525 0.680967 0
M  V30 1169 C 115.731 -1.62904 -0.324283 0
M  V30 1170 O 116.916 -1.89615 -0.212294 0
M  V30 1171 C 114.056 -3.45013 0.0776551 0
M  V30 1172 C 113.169 -4.16863 1.13355 0
M  V30 1173 C 112.304 -5.2888 0.49597 0
M  V30 1174 C 111.343 -5.92537 1.53513 0
M  V30 1175 N 110.48 -6.96038 0.920631 0
M  V30 1176 H 115.32 -2.52876 1.57663 0
M  V30 1177 H 112.857 -1.24199 0.788223 0
M  V30 1178 H 114.815 -4.16193 -0.289704 0
M  V30 1179 H 113.445 -3.132 -0.781393 0
M  V30 1180 H 112.497 -3.44248 1.61857 0
M  V30 1181 H 113.809 -4.60294 1.92174 0
M  V30 1182 H 112.963 -6.06653 0.0758604 0
M  V30 1183 H 111.702 -4.86622 -0.324062 0
M  V30 1184 H 110.707 -5.13482 1.9651 0
M  V30 1185 H 111.932 -6.36873 2.35733 0
M  V30 1186 H 109.878 -6.55888 0.12138 0
M  V30 1187 H 109.795 -7.3786 1.64616 0
M  V30 1188 H 111.063 -7.77725 0.525795 0
M  V30 1189 N 115.292 -0.849877 -1.32721 0
M  V30 1190 C 116.569 -0.372405 -1.92022 0
M  V30 1191 C 116.949 1.1435 -1.77447 0
M  V30 1192 O 116.297 1.96296 -1.16962 0
M  V30 1193 C 116.507 -0.831482 -3.3895 0
M  V30 1194 C 117.855 -0.845882 -4.16089 0
M  V30 1195 O 118.879 -0.775806 -3.47649 0
M  V30 1196 O 117.738 -0.943753 -5.38289 0
M  V30 1197 H 114.832 -0.107667 -0.819961 0
M  V30 1198 H 117.378 -0.93646 -1.41522 0
M  V30 1199 H 116.15 -1.87448 -3.4348 0
M  V30 1200 H 115.773 -0.24461 -3.96847 0
M  V30 1201 N 116.77 1.45427 -0.607355 0
M  V30 1202 C 117.995 2.07124 -0.107006 0
M  V30 1203 C 118.42 1.44906 1.19933 0
M  V30 1204 O 117.778 0.541687 1.73019 0
M  V30 1205 C 117.826 3.60595 0.0194119 0
M  V30 1206 O 116.93 3.98285 1.0697 0
M  V30 1207 H 116.271 0.659868 -0.0739597 0
M  V30 1208 H 118.801 1.86683 -0.837297 0
M  V30 1209 H 118.811 4.07419 0.2177 0
M  V30 1210 H 117.486 4.05266 -0.934453 0
M  V30 1211 H 116.063 3.63133 0.847889 0
M  V30 1212 N 118.248 0.346503 1.53744 0
M  V30 1213 C 119.494 -0.242135 2.01954 0
M  V30 1214 C 119.849 -1.47962 1.22984 0
M  V30 1215 O 119.142 -1.89077 0.309924 0
M  V30 1216 C 119.336 -0.605809 3.52228 0
M  V30 1217 C 119.165 0.594882 4.45748 0
M  V30 1218 C 117.935 1.1011 4.93157 0
M  V30 1219 C 120.133 1.45425 4.93311 0
M  V30 1220 N 118.115 2.26381 5.70636 0
M  V30 1221 C 119.486 2.46383 5.68942 0
M  V30 1222 C 121.541 1.47935 4.75415 0
M  V30 1223 C 120.244 3.49684 6.28581 0
M  V30 1224 C 122.27 2.50119 5.35905 0
M  V30 1225 C 121.632 3.49803 6.11406 0
M  V30 1226 H 117.731 -0.0518296 0.780281 0
M  V30 1227 H 120.315 0.486736 1.88518 0
M  V30 1228 H 118.486 -1.30378 3.65864 0
M  V30 1229 H 120.218 -1.17789 3.87179 0
M  V30 1230 H 116.973 0.668721 4.68855 0
M  V30 1231 H 117.397 2.85094 6.14044 0
M  V30 1232 H 122.039 0.722274 4.16585 0
M  V30 1233 H 119.757 4.26285 6.86518 0
M  V30 1234 H 123.343 2.52892 5.23963 0
M  V30 1235 H 122.223 4.27576 6.5738 0
M  V30 1236 N 119.726 -1.57421 0.075193 0
M  V30 1237 C 120.972 -1.93905 -0.594025 0
M  V30 1238 C 121.305 -0.955701 -1.69056 0
M  V30 1239 O 120.58 0.0145373 -1.94495 0
M  V30 1240 C 120.863 -3.40638 -1.1678 0
M  V30 1241 C 120.716 -4.49733 -0.0776792 0
M  V30 1242 C 122.035 -3.88259 -2.07228 0
M  V30 1243 H 119.154 -0.705105 -0.214466 0
M  V30 1244 H 121.796 -1.8947 0.141854 0
M  V30 1245 H 119.946 -3.44549 -1.79494 0
M  V30 1246 H 121.618 -4.57942 0.555573 0
M  V30 1247 H 119.861 -4.29751 0.591286 0
M  V30 1248 H 120.532 -5.49549 -0.519603 0
M  V30 1249 H 123.008 -3.86376 -1.54445 0
M  V30 1250 H 121.884 -4.91533 -2.44308 0
M  V30 1251 H 122.145 -3.26396 -2.98191 0
M  V30 1252 N 121.204 0.198386 -1.56346 0
M  V30 1253 C 122.481 0.944982 -1.71258 0
M  V30 1254 C 122.861 2.0151 -0.629048 0
M  V30 1255 O 122.209 2.25639 0.360473 0
M  V30 1256 C 122.419 1.5344 -3.1346 0
M  V30 1257 C 123.767 2.01778 -3.73591 0
M  V30 1258 O 124.791 1.63288 -3.16568 0
M  V30 1259 O 123.65 2.72594 -4.73661 0
M  V30 1260 H 120.744 0.442939 -0.69838 0
M  V30 1261 H 123.29 0.188342 -1.68652 0
M  V30 1262 H 122.062 0.762869 -3.83792 0
M  V30 1263 H 121.685 2.35596 -3.20282 0
M  V30 1264 N 122.682 1.50554 0.465978 0
M  V30 1265 C 123.632 1.66177 1.56106 0
M  V30 1266 C 124.616 0.516265 1.52393 0
M  V30 1267 O 125.808 0.770906 1.5933 0
M  V30 1268 C 122.937 1.76396 2.94515 0
M  V30 1269 C 122.023 2.9664 3.03093 0
M  V30 1270 N 122.414 4.20245 2.81474 0
M  V30 1271 C 120.712 2.95304 3.34233 0
M  V30 1272 C 121.413 5.01259 2.95151 0
M  V30 1273 N 120.389 4.35318 3.25576 0
M  V30 1274 H 124.191 2.59434 1.38099 0
M  V30 1275 H 121.705 1.47808 0.6728 0
M  V30 1276 H 123.702 1.85694 3.73261 0
M  V30 1277 H 122.362 0.843017 3.13565 0
M  V30 1278 H 123.373 4.4966 2.56956 0
M  V30 1279 H 120.05 2.12729 3.59239 0
M  V30 1280 H 121.44 6.09564 2.82632 0
M  V30 1281 N 124.16 -0.719506 1.40217 0
M  V30 1282 C 125.409 -1.47486 1.37589 0
M  V30 1283 C 125.722 -1.9559 -0.0201568 0
M  V30 1284 O 126.928 -2.70973 -0.169049 0
M  V30 1285 C 125.384 -2.66575 2.41796 0
M  V30 1286 C 124.992 -2.25358 3.87192 0
M  V30 1287 C 126.736 -3.4433 2.48269 0
M  V30 1288 C 124.643 -3.41262 4.83005 0
M  V30 1289 H 123.573 -0.553901 0.511576 0
M  V30 1290 H 126.224 -0.783427 1.65936 0
M  V30 1291 H 124.606 -3.3787 2.06543 0
M  V30 1292 H 125.78 -1.61509 4.31569 0
M  V30 1293 H 124.095 -1.60657 3.84159 0
M  V30 1294 H 126.692 -4.30569 3.17041 0
M  V30 1295 H 127.035 -3.87872 1.51198 0
M  V30 1296 H 127.568 -2.80076 2.82493 0
M  V30 1297 H 124.307 -3.02755 5.81394 0
M  V30 1298 H 123.827 -4.0404 4.43297 0
M  V30 1299 H 125.506 -4.07383 5.02641 0
M  V30 1300 N 125.638 -1.25649 -0.95132 0
M  V30 1301 C 126.887 -1.09988 -1.69073 0
M  V30 1302 C 127.2 0.358355 -1.92289 0
M  V30 1303 O 128.406 0.635466 -2.63958 0
M  V30 1304 C 126.862 -1.92012 -3.044 0
M  V30 1305 C 126.47 -3.42347 -2.88968 0
M  V30 1306 C 128.214 -1.8493 -3.82101 0
M  V30 1307 C 126.121 -4.16655 -4.19705 0
M  V30 1308 H 125.051 -0.407993 -0.63408 0
M  V30 1309 H 127.702 -1.49873 -1.05879 0
M  V30 1310 H 126.084 -1.44952 -3.68517 0
M  V30 1311 H 127.258 -3.97104 -2.33762 0
M  V30 1312 H 125.573 -3.50557 -2.24719 0
M  V30 1313 H 128.17 -2.37739 -4.78941 0
M  V30 1314 H 128.513 -0.817883 -4.08187 0
M  V30 1315 H 129.046 -2.29758 -3.2474 0
M  V30 1316 H 125.785 -5.20224 -3.98807 0
M  V30 1317 H 125.305 -3.66681 -4.74663 0
M  V30 1318 H 126.984 -4.24551 -4.88227 0
M  V30 1319 N 127.117 1.15442 -1.07289 0
M  V30 1320 C 128.365 1.85845 -0.794096 0
M  V30 1321 C 128.686 1.82692 0.681809 0
M  V30 1322 O 127.956 1.26741 1.49377 0
M  V30 1323 H 126.536 0.688089 -0.290763 0
M  V30 1324 H 129.198 1.39947 -1.3565 0
M  V30 1325 H 128.294 2.91001 -1.12804 0
M  V30 1326 N 128.595 0.856903 1.32268 0
M  V30 1327 C 129.844 0.457599 1.96441 0
M  V30 1328 C 130.157 -0.992426 1.68553 0
M  V30 1329 O 131.363 -1.49727 2.26482 0
M  V30 1330 C 129.819 0.767358 3.51624 0
M  V30 1331 C 129.427 2.23326 3.88367 0
M  V30 1332 C 131.171 0.435887 4.22256 0
M  V30 1333 C 129.078 2.48613 5.36606 0
M  V30 1334 H 128.008 0.167387 0.735185 0
M  V30 1335 H 130.659 1.048 1.5063 0
M  V30 1336 H 129.041 0.106367 3.95857 0
M  V30 1337 H 130.215 2.93623 3.55137 0
M  V30 1338 H 128.53 2.52948 3.30766 0
M  V30 1339 H 131.127 0.602202 5.31298 0
M  V30 1340 H 131.47 -0.622672 4.11617 0
M  V30 1341 H 132.003 1.05286 3.83614 0
M  V30 1342 H 128.742 3.53101 5.52268 0
M  V30 1343 H 128.262 1.82896 5.71235 0
M  V30 1344 H 129.941 2.32676 6.03714 0
M  V30 1345 N 130.073 -1.45103 0.615059 0
M  V30 1346 C 131.006 -2.27717 -0.148408 0
M  V30 1347 C 131.984 -1.37584 -0.866572 0
M  V30 1348 O 133.168 -1.67017 -0.87393 0
M  V30 1349 C 130.295 -3.16136 -1.21557 0
M  V30 1350 C 129.341 -4.22263 -0.599712 0
M  V30 1351 S 130.174 -5.3215 0.598081 0
M  V30 1352 C 131.33 -6.24137 -0.469484 0
M  V30 1353 H 131.563 -2.92121 0.552483 0
M  V30 1354 H 129.096 -1.49054 0.402778 0
M  V30 1355 H 131.054 -3.67633 -1.82638 0
M  V30 1356 H 129.715 -2.50982 -1.88857 0
M  V30 1357 H 128.908 -4.84081 -1.4029 0
M  V30 1358 H 128.51 -3.73945 -0.063876 0
M  V30 1359 H 130.802 -6.63984 -1.34652 0
M  V30 1360 H 131.745 -7.0801 0.112725 0
M  V30 1361 H 132.153 -5.58971 -0.788168 0
M  V30 1362 N 131.551 -0.354651 -1.53558 0
M  V30 1363 C 132.828 0.294281 -1.93374 0
M  V30 1364 C 133.208 1.67313 -1.28723 0
M  V30 1365 O 132.556 2.24179 -0.442247 0
M  V30 1366 C 132.766 0.355445 -3.47185 0
M  V30 1367 C 134.114 0.601007 -4.20325 0
M  V30 1368 O 135.138 0.437106 -3.53508 0
M  V30 1369 O 133.997 0.919322 -5.38712 0
M  V30 1370 H 131.091 0.174033 -0.808481 0
M  V30 1371 H 133.637 -0.406638 -1.64756 0
M  V30 1372 H 132.409 -0.611729 -3.86489 0
M  V30 1373 H 132.032 1.1027 -3.82003 0
M  V30 1374 N 133.029 1.57378 -0.0835403 0
M  V30 1375 C 133.992 2.12252 0.864959 0
M  V30 1376 C 134.992 1.04916 1.21858 0
M  V30 1377 O 136.182 1.30853 1.14991 0
M  V30 1378 C 133.314 2.63358 2.16461 0
M  V30 1379 H 134.507 2.97371 0.388676 0
M  V30 1380 H 132.06 1.55423 0.165317 0
M  V30 1381 H 132.795 1.81727 2.686 0
M  V30 1382 H 132.58 3.41826 1.92087 0
M  V30 1383 H 134.07 3.05847 2.84337 0
M  V30 1384 N 134.507 -0.190092 1.56449 0
M  V30 1385 C 135.437 -1.23816 1.97969 0
M  V30 1386 C 136.418 -1.47201 0.852395 0
M  V30 1387 O 137.603 -1.58854 1.1171 0
M  V30 1388 C 134.733 -2.5813 2.3235 0
M  V30 1389 C 133.687 -2.49348 3.47864 0
M  V30 1390 C 133.013 -3.8798 3.67934 0
M  V30 1391 C 134.313 -2.01424 4.81898 0
M  V30 1392 H 136.007 -0.89311 2.85769 0
M  V30 1393 H 133.553 -0.428177 1.37487 0
M  V30 1394 H 135.506 -3.31637 2.59991 0
M  V30 1395 H 134.23 -2.94386 1.41438 0
M  V30 1396 H 132.889 -1.78297 3.20321 0
M  V30 1397 H 132.537 -4.21597 2.74344 0
M  V30 1398 H 132.237 -3.82978 4.45648 0
M  V30 1399 H 133.761 -4.63101 3.97957 0
M  V30 1400 H 135.175 -2.64693 5.08538 0
M  V30 1401 H 133.572 -2.07413 5.63116 0
M  V30 1402 H 134.642 -0.967677 4.75146 0
M  V30 1403 N 135.985 -1.50799 -0.457987 0
M  V30 1404 C 136.895 -1.73426 -1.57989 0
M  V30 1405 C 137.911 -0.617745 -1.62665 0
M  V30 1406 O 139.087 -0.897614 -1.80291 0
M  V30 1407 C 136.152 -1.83557 -2.94122 0
M  V30 1408 C 135.213 -3.07345 -2.99729 0
M  V30 1409 C 134.446 -3.16983 -4.29368 0
M  V30 1410 O 134.669 -2.33077 -5.20607 0
M  V30 1411 O 133.603 -4.09812 -4.40837 0
M  V30 1412 H 137.429 -2.68555 -1.41817 0
M  V30 1413 H 135.014 -1.35052 -0.638859 0
M  V30 1414 H 136.896 -1.92326 -3.74952 0
M  V30 1415 H 135.571 -0.916137 -3.10465 0
M  V30 1416 H 134.478 -3.04068 -2.1793 0
M  V30 1417 H 135.811 -3.9891 -2.88326 0
M  V30 1418 N 137.463 0.71206 -1.40597 0
M  V30 1419 C 138.712 1.46754 -1.38369 0
M  V30 1420 C 139.025 1.95598 0.0097839 0
M  V30 1421 O 140.231 2.71059 0.154677 0
M  V30 1422 C 138.687 2.65289 -2.43207 0
M  V30 1423 C 138.295 2.23301 -3.88382 0
M  V30 1424 C 140.039 3.43008 -2.50091 0
M  V30 1425 C 137.946 3.38696 -4.84808 0
M  V30 1426 H 136.876 0.55118 -0.514506 0
M  V30 1427 H 139.527 0.774616 -1.66349 0
M  V30 1428 H 137.909 3.36769 -2.08332 0
M  V30 1429 H 139.083 1.59218 -4.32419 0
M  V30 1430 H 137.398 1.58618 -3.85006 0
M  V30 1431 H 139.995 4.28881 -3.1932 0
M  V30 1432 H 140.338 3.87065 -1.53253 0
M  V30 1433 H 140.871 2.78574 -2.83974 0
M  V30 1434 H 137.61 2.99668 -5.82992 0
M  V30 1435 H 137.13 4.01683 -4.45433 0
M  V30 1436 H 138.809 4.04712 -5.04794 0
M  V30 1437 N 138.941 1.26152 0.944643 0
M  V30 1438 C 139.851 1.09176 2.07648 0
M  V30 1439 C 140.867 0.0261935 1.7398 0
M  V30 1440 O 142.043 0.229208 2.00091 0
M  V30 1441 C 139.108 0.722915 3.39079 0
M  V30 1442 C 138.169 1.86752 3.86552 0
M  V30 1443 C 137.402 1.51617 5.11711 0
M  V30 1444 O 137.625 0.416331 5.68879 0
M  V30 1445 O 136.559 2.34975 5.54139 0
M  V30 1446 H 140.385 2.0412 2.24875 0
M  V30 1447 H 137.97 1.05182 1.061 0
M  V30 1448 H 139.852 0.529787 4.18056 0
M  V30 1449 H 138.527 -0.197159 3.23099 0
M  V30 1450 H 137.434 2.11558 3.08535 0
M  V30 1451 H 138.767 2.76719 4.07047 0
M  V30 1452 N 140.419 -1.14872 1.07899 0
M  V30 1453 C 141.366 -2.19791 0.704319 0
M  V30 1454 C 142.336 -1.63238 -0.306987 0
M  V30 1455 O 143.521 -1.8983 -0.192171 0
M  V30 1456 C 140.661 -3.44911 0.114244 0
M  V30 1457 C 139.774 -4.15637 1.1777 0
M  V30 1458 C 138.909 -5.28324 0.552037 0
M  V30 1459 C 137.948 -5.90875 1.59789 0
M  V30 1460 N 137.085 -6.95022 0.994404 0
M  V30 1461 H 141.925 -2.5119 1.60336 0
M  V30 1462 H 139.462 -1.23356 0.801352 0
M  V30 1463 H 141.42 -4.16477 -0.245544 0
M  V30 1464 H 140.05 -3.14011 -0.74813 0
M  V30 1465 H 139.102 -3.42512 1.65499 0
M  V30 1466 H 140.414 -4.5823 1.97046 0
M  V30 1467 H 139.568 -6.06538 0.1402 0
M  V30 1468 H 138.307 -4.86939 -0.272431 0
M  V30 1469 H 137.312 -5.11369 2.01945 0
M  V30 1470 H 138.537 -6.34337 2.42474 0
M  V30 1471 H 136.483 -6.55722 0.190939 0
M  V30 1472 H 136.4 -7.36073 1.72432 0
M  V30 1473 H 137.668 -7.77123 0.608253 0
M  V30 1474 N 141.898 -0.863906 -1.31812 0
M  V30 1475 C 142.861 -0.320212 -2.26952 0
M  V30 1476 C 143.861 0.525369 -1.51975 0
M  V30 1477 O 145.051 0.335547 -1.70938 0
M  V30 1478 C 142.183 0.545919 -3.365 0
M  V30 1479 H 143.376 -1.16004 -2.76556 0
M  V30 1480 H 140.929 -0.638995 -1.42641 0
M  V30 1481 H 141.664 1.40718 -2.92179 0
M  V30 1482 H 141.449 -0.0594674 -3.92055 0
M  V30 1483 H 142.939 0.918796 -4.07367 0
M  V30 1484 N 143.376 1.44774 -0.622745 0
M  V30 1485 C 144.326 2.2774 0.108889 0
M  V30 1486 C 145.31 1.38189 0.824175 0
M  V30 1487 O 146.502 1.62063 0.711664 0
M  V30 1488 C 143.631 3.25353 1.09546 0
M  V30 1489 C 142.717 4.22392 0.380232 0
M  V30 1490 N 143.108 5.02388 -0.586535 0
M  V30 1491 C 141.406 4.41588 0.625792 0
M  V30 1492 C 142.107 5.72894 -1.00834 0
M  V30 1493 N 141.083 5.42479 -0.348878 0
M  V30 1494 H 144.885 2.86993 -0.63341 0
M  V30 1495 H 142.399 1.5611 -0.447589 0
M  V30 1496 H 144.396 3.83538 1.63414 0
M  V30 1497 H 143.056 2.6766 1.83815 0
M  V30 1498 H 144.067 5.0885 -0.963975 0
M  V30 1499 H 140.744 3.95003 1.352 0
M  V30 1500 H 142.134 6.47158 -1.80656 0
M  V30 1501 N 144.854 0.36279 1.53368 0
M  V30 1502 C 146.103 -0.22888 2.00397 0
M  V30 1503 C 146.416 -1.50096 1.25421 0
M  V30 1504 O 147.622 -2.17106 1.63025 0
M  V30 1505 C 146.078 -0.458417 3.56969 0
M  V30 1506 C 145.686 0.798877 4.4082 0
M  V30 1507 C 147.43 -1.00789 4.12361 0
M  V30 1508 C 145.337 0.539078 5.88938 0
M  V30 1509 H 144.267 -0.089305 0.748693 0
M  V30 1510 H 146.918 0.481099 1.77081 0
M  V30 1511 H 145.3 -1.22959 3.76427 0
M  V30 1512 H 146.474 1.57262 4.33134 0
M  V30 1513 H 144.789 1.27137 3.96516 0
M  V30 1514 H 147.386 -1.21754 5.20653 0
M  V30 1515 H 147.729 -1.9692 3.66781 0
M  V30 1516 H 148.262 -0.296961 3.9669 0
M  V30 1517 H 145.001 1.47064 6.3879 0
M  V30 1518 H 144.521 -0.196222 5.99479 0
M  V30 1519 H 146.2 0.163542 6.46793 0
M  V30 1520 N 146.332 -1.57332 0.0918853 0
M  V30 1521 C 147.578 -1.94524 -0.573425 0
M  V30 1522 C 147.911 -0.973578 -1.68033 0
M  V30 1523 O 147.186 -0.00609226 -1.94499 0
M  V30 1524 C 147.469 -3.41858 -1.13161 0
M  V30 1525 C 147.322 -4.4979 -0.0299747 0
M  V30 1526 C 148.641 -3.90435 -2.03098 0
M  V30 1527 H 145.76 -0.70734 -0.206975 0
M  V30 1528 H 148.402 -1.89309 0.161942 0
M  V30 1529 H 146.552 -3.46433 -1.7583 0
M  V30 1530 H 148.224 -4.57327 0.604112 0
M  V30 1531 H 146.467 -4.291 0.636833 0
M  V30 1532 H 147.138 -5.50069 -0.461287 0
M  V30 1533 H 149.614 -3.87992 -1.50338 0
M  V30 1534 H 148.49 -4.94097 -2.39081 0
M  V30 1535 H 148.751 -3.29541 -2.94712 0
M  V30 1536 N 147.81 0.181792 -1.56548 0
M  V30 1537 C 149.058 0.89832 -1.81038 0
M  V30 1538 C 149.379 1.83232 -0.667164 0
M  V30 1539 O 148.649 1.93372 0.313673 0
M  V30 1540 H 147.229 0.33471 -0.667816 0
M  V30 1541 H 149.891 0.184116 -1.94028 0
M  V30 1542 H 148.987 1.4815 -2.74696 0
M  V30 1543 N 149.288 1.51039 0.449983 0
M  V30 1544 C 150.236 1.71995 1.5659 0
M  V30 1545 C 151.23 0.586029 1.5894 0
M  V30 1546 O 152.436 0.76709 1.62837 0
M  V30 1547 H 148.811 0.543233 0.520001 0
M  V30 1548 H 150.782 2.65562 1.36085 0
M  V30 1549 C 149.531 1.8506 2.9436 0
M  V30 1550 H 148.854 2.71712 2.93279 0
M  V30 1551 H 150.294 2.0374 3.71842 0
M  V30 1552 C 148.753 0.607277 3.31382 0
M  V30 1553 O 149.283 -0.243903 4.00959 0
M  V30 1554 N 147.489 0.455073 2.87015 0
M  V30 1555 H 147.036 1.14879 2.30566 0
M  V30 1556 H 146.994 -0.375611 3.12148 0
M  V30 1557 N 150.766 -0.704594 1.40972 0
M  V30 1558 C 151.991 -1.49858 1.43378 0
M  V30 1559 C 152.416 -1.88061 0.038184 0
M  V30 1560 O 151.774 -1.5402 -0.956425 0
M  V30 1561 C 151.822 -2.74333 2.34038 0
M  V30 1562 O 150.926 -3.7147 1.7912 0
M  V30 1563 H 150.267 -0.45139 0.486974 0
M  V30 1564 H 152.797 -0.866832 1.8533 0
M  V30 1565 H 152.807 -3.22741 2.49604 0
M  V30 1566 H 151.482 -2.45863 3.35446 0
M  V30 1567 H 150.059 -3.30363 1.72958 0
M  V30 1568 N 152.244 -1.26651 -0.937939 0
M  V30 1569 C 153.491 -1.12387 -1.6845 0
M  V30 1570 C 153.819 0.332208 -1.91642 0
M  V30 1571 O 153.074 1.2602 -1.49725 0
M  V30 1572 C 153.373 -1.84168 -3.06295 0
M  V30 1573 C 153.039 -3.34056 -3.02849 0
M  V30 1574 C 151.701 -3.74942 -3.01616 0
M  V30 1575 C 154.053 -4.29741 -2.9491 0
M  V30 1576 C 151.381 -5.09894 -2.90215 0
M  V30 1577 C 153.733 -5.64738 -2.8505 0
M  V30 1578 C 152.397 -6.0493 -2.82162 0
M  V30 1579 H 151.667 -0.411252 -0.616403 0
M  V30 1580 H 154.314 -1.57134 -1.09459 0
M  V30 1581 H 152.619 -1.319 -3.6893 0
M  V30 1582 H 154.316 -1.70569 -3.62915 0
M  V30 1583 H 150.906 -3.01534 -3.0459 0
M  V30 1584 H 155.09 -3.99133 -2.94969 0
M  V30 1585 H 150.346 -5.40194 -2.86358 0
M  V30 1586 H 154.52 -6.38561 -2.77872 0
M  V30 1587 H 152.147 -7.09457 -2.73084 0
M  V30 1588 N 153.722 1.14298 -1.08507 0
M  V30 1589 C 154.97 1.84993 -0.813763 0
M  V30 1590 C 155.291 1.83405 0.662393 0
M  V30 1591 O 154.561 1.28319 1.48024 0
M  V30 1592 H 153.141 0.684966 -0.298045 0
M  V30 1593 H 155.803 1.385 -1.37126 0
M  V30 1594 H 154.899 2.89788 -1.15884 0
M  V30 1595 N 155.201 0.870884 1.31352 0
M  V30 1596 C 156.449 0.48132 1.96285 0
M  V30 1597 C 156.77 -0.969813 1.69173 0
M  V30 1598 O 156.04 -1.67998 1.00764 0
M  V30 1599 H 154.62 0.175002 0.726212 0
M  V30 1600 H 157.282 1.11087 1.60143 0
M  V30 1601 H 156.378 0.639825 3.05471 0
M  V30 1602 N 156.679 -1.44442 0.630414 0
M  V30 1603 C 157.927 -2.01653 0.134351 0
M  V30 1604 C 158.248 -1.49836 -1.24796 0
M  V30 1605 O 157.518 -0.701684 -1.82902 0
M  V30 1606 H 156.098 -0.74554 0.0466769 0
M  V30 1607 H 158.76 -1.76952 0.816955 0
M  V30 1608 H 157.856 -3.11935 0.101498 0
M  V30 1609 N 158.157 -0.370918 -1.53173 0
M  V30 1610 C 159.087 0.464847 -2.28826 0
M  V30 1611 C 160.068 1.07936 -1.31468 0
M  V30 1612 O 161.253 1.0956 -1.60344 0
M  V30 1613 C 158.383 1.60196 -3.08147 0
M  V30 1614 C 157.337 1.11443 -4.13237 0
M  V30 1615 C 156.663 2.3422 -4.80672 0
M  V30 1616 C 157.963 0.195384 -5.21934 0
M  V30 1617 H 159.657 -0.166329 -2.98938 0
M  V30 1618 H 157.203 -0.0814359 -1.4377 0
M  V30 1619 H 159.156 2.19332 -3.59822 0
M  V30 1620 H 157.88 2.26045 -2.35735 0
M  V30 1621 H 156.539 0.545727 -3.62515 0
M  V30 1622 H 156.187 2.98537 -4.04827 0
M  V30 1623 H 155.887 2.02269 -5.51689 0
M  V30 1624 H 157.411 2.94032 -5.35143 0
M  V30 1625 H 158.825 0.694375 -5.69079 0
M  V30 1626 H 157.222 -0.0335027 -6.00091 0
M  V30 1627 H 158.292 -0.760961 -4.78892 0
M  V30 1628 N 159.635 1.57281 -0.100228 0
M  V30 1629 C 160.598 2.13158 0.842398 0
M  V30 1630 C 161.598 1.06202 1.20738 0
M  V30 1631 O 162.788 1.32066 1.13597 0
M  V30 1632 C 159.92 2.65639 2.13655 0
M  V30 1633 H 161.113 2.97766 0.357114 0
M  V30 1634 H 158.666 1.5559 0.148823 0
M  V30 1635 H 159.401 1.84566 2.66657 0
M  V30 1636 H 159.186 3.43844 1.88451 0
M  V30 1637 H 160.676 3.08846 2.81077 0
M  V30 1638 N 161.113 -0.173488 1.56642 0
M  V30 1639 C 162.362 -0.888758 1.81063 0
M  V30 1640 C 162.675 -1.83506 0.67712 0
M  V30 1641 O 163.881 -2.59254 0.806206 0
M  V30 1642 C 162.337 -1.63091 3.20826 0
M  V30 1643 C 161.945 -0.728357 4.4204 0
M  V30 1644 C 163.689 -2.33454 3.54541 0
M  V30 1645 C 161.596 -1.47062 5.72823 0
M  V30 1646 H 160.526 -0.335618 0.675186 0
M  V30 1647 H 163.177 -0.141712 1.82952 0
M  V30 1648 H 161.559 -2.42263 3.13248 0
M  V30 1649 H 162.733 0.0262449 4.60793 0
M  V30 1650 H 161.048 -0.134492 4.16183 0
M  V30 1651 H 163.645 -2.89578 4.49498 0
M  V30 1652 H 163.988 -3.08687 2.79317 0
M  V30 1653 H 164.521 -1.61227 3.63663 0
M  V30 1654 H 161.26 -0.760658 6.51072 0
M  V30 1655 H 160.78 -2.1986 5.58052 0
M  V30 1656 H 162.459 -2.01868 6.14702 0
M  V30 1657 N 162.591 -1.51276 -0.441967 0
M  V30 1658 C 163.554 -1.7167 -1.51862 0
M  V30 1659 C 164.554 -0.586793 -1.49711 0
M  V30 1660 O 165.744 -0.854276 -1.51815 0
M  V30 1661 C 162.876 -1.76889 -2.91416 0
M  V30 1662 H 164.069 -2.67754 -1.35084 0
M  V30 1663 H 161.622 -1.41196 -0.670333 0
M  V30 1664 H 162.357 -0.826026 -3.13604 0
M  V30 1665 H 162.142 -2.59001 -2.94382 0
M  V30 1666 H 163.632 -1.94522 -3.69528 0
M  V30 1667 N 164.069 0.697108 -1.41344 0
M  V30 1668 C 165.297 1.48593 -1.43972 0
M  V30 1669 C 165.712 1.88747 -0.0445612 0
M  V30 1670 O 165.069 1.56682 0.935785 0
M  V30 1671 C 165.12 2.74946 -2.34706 0
M  V30 1672 O 164.841 2.36484 -3.68791 0
M  V30 1673 C 166.342 3.687 -2.46121 0
M  V30 1674 H 163.562 0.457964 -0.490418 0
M  V30 1675 H 166.106 0.858429 -1.8561 0
M  V30 1676 H 164.261 3.33937 -1.9638 0
M  V30 1677 H 164.675 3.17918 -4.17167 0
M  V30 1678 H 166.149 4.54145 -3.13777 0
M  V30 1679 H 166.626 4.13081 -1.49199 0
M  V30 1680 H 167.232 3.15613 -2.85076 0
M  V30 1681 N 165.547 1.27147 0.931209 0
M  V30 1682 C 166.51 1.09615 2.01289 0
M  V30 1683 C 167.51 0.0412581 1.60747 0
M  V30 1684 O 168.7 0.285545 1.71844 0
M  V30 1685 C 165.832 0.669447 3.34262 0
M  V30 1686 H 167.025 2.05662 2.18273 0
M  V30 1687 H 164.578 1.09885 1.11153 0
M  V30 1688 H 165.313 -0.292572 3.22978 0
M  V30 1689 H 165.098 1.43127 3.65044 0
M  V30 1690 H 166.588 0.568921 4.13706 0
M  V30 1691 N 167.025 -1.13721 1.09112 0
M  V30 1692 C 167.955 -2.21148 0.749385 0
M  V30 1693 C 168.936 -1.6792 -0.271475 0
M  V30 1694 O 170.121 -1.93693 -0.140251 0
M  V30 1695 C 167.251 -3.46905 0.165659 0
M  V30 1696 C 166.205 -4.13203 1.11567 0
M  V30 1697 C 165.531 -5.33248 0.393809 0
M  V30 1698 C 166.831 -4.60912 2.45678 0
M  V30 1699 H 168.525 -2.4999 1.64758 0
M  V30 1700 H 166.071 -1.20156 0.793626 0
M  V30 1701 H 168.024 -4.21313 -0.085466 0
M  V30 1702 H 166.748 -3.17449 -0.767714 0
M  V30 1703 H 165.407 -3.40758 1.35202 0
M  V30 1704 H 165.055 -5.00054 -0.543599 0
M  V30 1705 H 164.755 -5.78552 1.02721 0
M  V30 1706 H 166.279 -6.10413 0.150908 0
M  V30 1707 H 167.693 -5.26759 2.26269 0
M  V30 1708 H 166.09 -5.16944 3.04776 0
M  V30 1709 H 167.16 -3.75603 3.06677 0
M  V30 1710 N 168.503 -0.877838 -1.30888 0
M  V30 1711 C 169.919 -0.570844 -1.49042 0
M  V30 1712 C 170.119 0.893159 -1.80624 0
M  V30 1713 O 169.175 1.67485 -1.88958 0
M  V30 1714 C 170.488 -1.47784 -2.61878 0
M  V30 1715 C 172.036 -1.48071 -2.75761 0
M  V30 1716 C 172.511 -2.37347 -3.91702 0
M  V30 1717 N 174.002 -2.35271 -3.99001 0
M  V30 1718 C 174.737 -3.01063 -4.88004 0
M  V30 1719 N 174.233 -3.76055 -5.81854 0
M  V30 1720 N 176.026 -2.90332 -4.81315 0
M  V30 1721 H 168.177 -1.82502 -1.0866 0
M  V30 1722 H 170.44 -0.780797 -0.537644 0
M  V30 1723 H 170.146 -2.51993 -2.45341 0
M  V30 1724 H 170.02 -1.18215 -3.58197 0
M  V30 1725 H 172.407 -0.446166 -2.91708 0
M  V30 1726 H 172.488 -1.81668 -1.80085 0
M  V30 1727 H 172.132 -3.40883 -3.76512 0
M  V30 1728 H 172.062 -2.01071 -4.86701 0
M  V30 1729 H 174.553 -1.80768 -3.3186 0
M  V30 1730 H 174.866 -4.23366 -6.46514 0
M  V30 1731 H 173.211 -3.80163 -5.81808 0
M  V30 1732 H 176.402 -2.31278 -4.06974 0
M  V30 1733 H 176.575 -3.41885 -5.50471 0
M  V30 1734 N 169.982 1.44106 -0.638065 0
M  V30 1735 C 171.212 2.06037 -0.152394 0
M  V30 1736 C 171.62 1.47808 1.18108 0
M  V30 1737 O 170.963 0.598092 1.73691 0
M  V30 1738 C 171.025 3.59488 0.0293714 0
M  V30 1739 C 170.689 4.4022 -1.22702 0
M  V30 1740 C 171.686 4.73256 -2.15232 0
M  V30 1741 C 169.371 4.8048 -1.46437 0
M  V30 1742 C 171.365 5.45444 -3.29802 0
M  V30 1743 C 169.052 5.52417 -2.61303 0
M  V30 1744 C 170.05 5.84819 -3.52811 0
M  V30 1745 O 169.738 6.55289 -4.65673 0
M  V30 1746 H 169.47 0.671233 -0.0801401 0
M  V30 1747 H 172.024 1.85851 -0.874563 0
M  V30 1748 H 170.254 3.78191 0.806758 0
M  V30 1749 H 171.943 4.03164 0.470475 0
M  V30 1750 H 172.709 4.42684 -1.98131 0
M  V30 1751 H 168.588 4.54676 -0.760977 0
M  V30 1752 H 172.132 5.70653 -4.01249 0
M  V30 1753 H 168.029 5.82404 -2.78344 0
M  V30 1754 H 168.797 6.73762 -4.64744 0
M  V30 1755 N 171.46 0.379036 1.52974 0
M  V30 1756 C 172.685 -0.209353 2.06341 0
M  V30 1757 C 173.11 -1.40583 1.24972 0
M  V30 1758 O 172.468 -1.79246 0.272155 0
M  V30 1759 C 172.516 -0.567786 3.56102 0
M  V30 1760 O 171.62 -1.66318 3.77375 0
M  V30 1761 H 170.961 -0.0272919 0.663439 0
M  V30 1762 H 173.491 0.543536 1.97248 0
M  V30 1763 H 173.501 -0.835003 3.99364 0
M  V30 1764 H 172.176 0.307013 4.14765 0
M  V30 1765 H 170.753 -1.39048 3.46006 0
M  V30 1766 N 172.938 -1.57226 0.108567 0
M  V30 1767 C 173.848 -2.18292 -0.859401 0
M  V30 1768 C 174.864 -1.15612 -1.30038 0
M  V30 1769 O 176.04 -1.48039 -1.36552 0
M  V30 1770 C 173.105 -2.762 -2.09558 0
M  V30 1771 C 172.166 -3.93881 -1.70752 0
M  V30 1772 C 171.399 -4.49018 -2.88477 0
M  V30 1773 O 171.622 -4.03068 -4.036 0
M  V30 1774 O 170.556 -5.39852 -2.66164 0
M  V30 1775 H 174.382 -3.01441 -0.369769 0
M  V30 1776 H 171.967 -1.48945 -0.1165 0
M  V30 1777 H 173.849 -3.13156 -2.81978 0
M  V30 1778 H 172.524 -1.96089 -2.57548 0
M  V30 1779 H 171.431 -3.61713 -0.954714 0
M  V30 1780 H 172.764 -4.75396 -1.27513 0
M  V30 1781 N 174.416 0.165178 -1.56732 0
M  V30 1782 C 175.832 0.517174 -1.50988 0
M  V30 1783 C 176.032 1.84331 -0.813894 0
M  V30 1784 O 175.088 2.49672 -0.37682 0
M  V30 1785 C 176.401 0.544261 -2.95733 0
M  V30 1786 C 177.949 0.631039 -3.06573 0
M  V30 1787 C 178.424 0.68896 -4.52788 0
M  V30 1788 N 179.915 0.751683 -4.5706 0
M  V30 1789 C 180.65 0.817177 -5.67547 0
M  V30 1790 N 180.146 0.843129 -6.8765 0
M  V30 1791 N 181.939 0.856668 -5.55534 0
M  V30 1792 H 174.09 -0.704318 -2.00382 0
M  V30 1793 H 176.353 -0.254687 -0.913148 0
M  V30 1794 H 176.059 -0.361607 -3.49836 0
M  V30 1795 H 175.933 1.3886 -3.5071 0
M  V30 1796 H 178.32 1.52733 -2.52501 0
M  V30 1797 H 178.401 -0.240095 -2.54671 0
M  V30 1798 H 178.045 -0.2031 -5.07494 0
M  V30 1799 H 177.975 1.57633 -5.02454 0
M  V30 1800 H 180.466 0.739661 -3.70591 0
M  V30 1801 H 180.779 0.894448 -7.67606 0
M  V30 1802 H 179.124 0.811304 -6.90248 0
M  V30 1803 H 182.315 0.833437 -4.60621 0
M  V30 1804 H 182.488 0.904247 -6.4166 0
M  V30 1805 N 175.894 1.51508 0.433938 0
M  V30 1806 C 177.14 1.64588 1.18484 0
M  V30 1807 C 177.473 0.362666 1.90784 0
M  V30 1808 O 176.748 -0.637892 1.83742 0
M  V30 1809 C 177.031 2.85149 2.19913 0
M  V30 1810 C 176.884 4.23456 1.51674 0
M  V30 1811 C 178.203 3.01227 3.20858 0
M  V30 1812 H 175.322 0.598994 0.429389 0
M  V30 1813 H 177.964 1.84002 0.473647 0
M  V30 1814 H 176.114 2.68729 2.80566 0
M  V30 1815 H 177.786 4.51552 0.943322 0
M  V30 1816 H 176.029 4.25998 0.819035 0
M  V30 1817 H 176.7 5.03812 2.2556 0
M  V30 1818 H 179.176 3.16382 2.70263 0
M  V30 1819 H 178.052 3.87141 3.89118 0
M  V30 1820 H 178.313 2.13447 3.8716 0
M  V30 1821 N 177.372 -0.689602 1.41712 0
M  V30 1822 C 178.649 -1.44457 1.31877 0
M  V30 1823 C 179.029 -2.11039 -0.0508537 0
M  V30 1824 O 178.377 -2.02138 -1.06547 0
M  V30 1825 C 178.587 -2.45913 2.47645 0
M  V30 1826 C 179.935 -3.10991 2.89084 0
M  V30 1827 O 180.959 -2.56238 2.47428 0
M  V30 1828 O 179.818 -4.10174 3.61137 0
M  V30 1829 H 176.912 -0.64362 0.519309 0
M  V30 1830 H 179.458 -0.719576 1.53689 0
M  V30 1831 H 178.23 -1.95409 3.39015 0
M  V30 1832 H 177.853 -3.25913 2.27742 0
M  V30 1833 N 178.85 -1.27639 -0.924453 0
M  V30 1834 C 180.266 -1.05113 -1.20097 0
M  V30 1835 C 180.466 0.213262 -2.00368 0
M  V30 1836 O 179.522 0.91787 -2.35226 0
M  V30 1837 C 180.835 -2.29244 -1.94596 0
M  V30 1838 C 182.383 -2.34315 -2.07522 0
M  V30 1839 C 182.858 -3.58183 -2.85427 0
M  V30 1840 N 184.349 -3.5876 -2.92994 0
M  V30 1841 C 185.084 -4.51277 -3.53746 0
M  V30 1842 N 184.58 -5.54102 -4.15863 0
M  V30 1843 N 186.373 -4.38894 -3.51181 0
M  V30 1844 H 178.524 -2.08821 -0.388264 0
M  V30 1845 H 180.787 -0.918568 -0.234385 0
M  V30 1846 H 180.493 -3.21301 -1.43034 0
M  V30 1847 H 180.367 -2.34816 -2.95197 0
M  V30 1848 H 182.754 -1.42762 -2.58269 0
M  V30 1849 H 182.835 -2.32744 -1.06131 0
M  V30 1850 H 182.479 -4.50074 -2.35363 0
M  V30 1851 H 182.409 -3.57006 -3.8711 0
M  V30 1852 H 184.9 -2.84398 -2.4885 0
M  V30 1853 H 185.213 -6.20859 -4.60168 0
M  V30 1854 H 183.558 -5.57941 -4.144 0
M  V30 1855 H 186.749 -3.57772 -3.01856 0
M  V30 1856 H 186.922 -5.11186 -3.98237 0
M  V30 1857 N 180.328 1.1314 -1.09713 0
M  V30 1858 C 181.261 2.17735 -0.683137 0
M  V30 1859 C 182.239 1.59582 0.311841 0
M  V30 1860 O 183.423 1.87298 0.212514 0
M  V30 1861 C 180.55 3.38699 -0.00684324 0
M  V30 1862 C 179.596 4.1546 -0.964102 0
M  V30 1863 S 180.429 4.74733 -2.47767 0
M  V30 1864 C 181.585 5.9904 -1.81387 0
M  V30 1865 H 181.818 2.52515 -1.56918 0
M  V30 1866 H 179.351 1.24484 -0.913404 0
M  V30 1867 H 181.309 4.08765 0.377044 0
M  V30 1868 H 179.97 3.02214 0.85589 0
M  V30 1869 H 179.163 5.02093 -0.43803 0
M  V30 1870 H 178.765 3.51066 -1.28953 0
M  V30 1871 H 181.057 6.67846 -1.13967 0
M  V30 1872 H 182 6.56261 -2.65947 0
M  V30 1873 H 182.408 5.4976 -1.28155 0
M  V30 1874 N 181.806 0.884767 1.30421 0
M  V30 1875 C 183.052 0.503851 1.96441 0
M  V30 1876 C 183.385 -0.944518 1.69684 0
M  V30 1877 O 182.66 -1.66737 1.00145 0
M  V30 1878 C 182.943 0.779085 3.51571 0
M  V30 1879 C 182.796 2.27807 3.87846 0
M  V30 1880 C 184.115 0.255452 4.39358 0
M  V30 1881 H 181.234 0.184533 0.713524 0
M  V30 1882 H 183.876 1.10872 1.54297 0
M  V30 1883 H 182.026 0.264274 3.876 0
M  V30 1884 H 183.698 2.86127 3.61841 0
M  V30 1885 H 181.941 2.74479 3.35922 0
M  V30 1886 H 182.612 2.42125 4.96064 0
M  V30 1887 H 185.088 0.696079 4.10236 0
M  V30 1888 H 183.964 0.477361 5.4682 0
M  V30 1889 H 184.225 -0.843293 4.33983 0
M  V30 1890 N 183.284 -1.43765 0.645699 0
M  V30 1891 C 184.214 -2.33471 -0.0370477 0
M  V30 1892 C 185.195 -1.49042 -0.819779 0
M  V30 1893 O 186.38 -1.77726 -0.782758 0
M  V30 1894 C 183.51 -3.32311 -1.0093 0
M  V30 1895 C 182.464 -4.2667 -0.337201 0
M  V30 1896 C 181.79 -5.1549 -1.42037 0
M  V30 1897 C 183.09 -5.16657 0.765706 0
M  V30 1898 H 184.784 -2.90809 0.712069 0
M  V30 1899 H 182.33 -1.39834 0.343876 0
M  V30 1900 H 184.283 -3.9396 -1.49578 0
M  V30 1901 H 183.007 -2.73213 -1.78948 0
M  V30 1902 H 181.666 -3.66374 0.128771 0
M  V30 1903 H 181.314 -4.52735 -2.1918 0
M  V30 1904 H 181.014 -5.79438 -0.975966 0
M  V30 1905 H 182.538 -5.80012 -1.90838 0
M  V30 1906 H 183.952 -5.72158 0.361702 0
M  V30 1907 H 182.349 -5.89286 1.13413 0
M  V30 1908 H 183.419 -4.56796 1.62683 0
M  V30 1909 N 184.763 -0.387143 -1.52771 0
M  V30 1910 C 185.696 0.493123 -2.22808 0
M  V30 1911 C 186.674 1.0658 -1.22798 0
M  V30 1912 O 187.858 1.11785 -1.51777 0
M  V30 1913 C 184.985 1.68238 -2.93962 0
M  V30 1914 C 184.031 1.23515 -4.08223 0
M  V30 1915 S 184.864 0.21848 -5.35054 0
M  V30 1916 C 186.02 1.41357 -6.09729 0
M  V30 1917 H 186.253 -0.101625 -2.97126 0
M  V30 1918 H 183.786 -0.171323 -1.53447 0
M  V30 1919 H 185.744 2.36443 -3.35567 0
M  V30 1920 H 184.405 2.24842 -2.19328 0
M  V30 1921 H 183.598 2.12304 -4.57103 0
M  V30 1922 H 183.2 0.632044 -3.68621 0
M  V30 1923 H 185.492 2.34101 -6.3577 0
M  V30 1924 H 186.435 0.965736 -7.01484 0
M  V30 1925 H 186.843 1.6294 -5.40473 0
M  V30 1926 N 186.241 1.57166 -0.116904 0
M  V30 1927 C 187.489 1.94737 0.540533 0
M  V30 1928 C 187.81 1.00096 1.67349 0
M  V30 1929 O 187.08 0.0568854 1.95817 0
M  V30 1930 H 185.66 0.718981 0.202669 0
M  V30 1931 H 188.322 1.94017 -0.185353 0
M  V30 1932 H 187.418 2.97719 0.936483 0
M  V30 1933 N 187.719 -0.156864 1.56817 0
M  V30 1934 C 188.682 -1.17781 1.96622 0
M  V30 1935 C 189.682 -1.36401 0.851555 0
M  V30 1936 O 190.872 -1.33561 1.11836 0
M  V30 1937 C 188.004 -2.54008 2.27361 0
M  V30 1938 H 189.197 -0.836564 2.87996 0
M  V30 1939 H 186.75 -0.39985 1.51099 0
M  V30 1940 H 187.485 -2.9312 1.38748 0
M  V30 1941 H 187.27 -2.41856 3.08623 0
M  V30 1942 H 188.76 -3.27558 2.59029 0
M  V30 1943 N 189.197 -1.51736 -0.425897 0
M  V30 1944 C 190.16 -1.73271 -1.50032 0
M  V30 1945 C 191.16 -0.602639 -1.4908 0
M  V30 1946 O 192.35 -0.87033 -1.509 0
M  V30 1947 C 189.482 -1.79969 -2.89523 0
M  V30 1948 H 190.675 -2.69172 -1.32237 0
M  V30 1949 H 188.228 -1.41899 -0.65532 0
M  V30 1950 H 188.963 -0.859241 -3.1271 0
M  V30 1951 H 188.748 -2.62109 -2.91619 0
M  V30 1952 H 190.238 -1.9843 -3.67444 0
M  V30 1953 N 190.675 0.682077 -1.42076 0
M  V30 1954 C 191.923 1.4393 -1.41876 0
M  V30 1955 C 192.244 1.94971 -0.0335599 0
M  V30 1956 O 191.514 1.72591 0.926773 0
M  V30 1957 H 190.094 0.534085 -0.522267 0
M  V30 1958 H 192.756 0.806427 -1.77434 0
M  V30 1959 H 191.852 2.29588 -2.11414 0
M  V30 1960 N 192.153 1.28127 0.917671 0
M  V30 1961 C 193.381 1.17892 1.70026 0
M  V30 1962 C 193.796 -0.262958 1.8696 0
M  V30 1963 O 193.153 -1.17811 1.3938 0
M  V30 1964 C 193.204 1.86872 3.09453 0
M  V30 1965 O 192.925 3.25428 2.93306 0
M  V30 1966 C 194.426 1.8289 4.03815 0
M  V30 1967 H 191.646 0.40942 0.531617 0
M  V30 1968 H 194.19 1.69181 1.14883 0
M  V30 1969 H 192.345 1.39464 3.61426 0
M  V30 1970 H 192.759 3.59918 3.81523 0
M  V30 1971 H 194.233 2.35751 4.99125 0
M  V30 1972 H 194.71 0.800412 4.31845 0
M  V30 1973 H 195.316 2.29959 3.57769 0
M  V30 1974 N 193.631 -1.12557 1.10312 0
M  V30 1975 C 195.047 -1.36036 0.834649 0
M  V30 1976 C 195.247 -1.93946 -0.546539 0
M  V30 1977 O 194.303 -2.16484 -1.29966 0
M  V30 1978 C 195.616 -2.30312 1.9333 0
M  V30 1979 C 197.164 -2.43906 1.9616 0
M  V30 1980 C 197.639 -3.41496 3.05195 0
M  V30 1981 N 199.13 -3.49053 3.04494 0
M  V30 1982 C 199.865 -4.24471 3.85502 0
M  V30 1983 N 199.361 -5.02966 4.76442 0
M  V30 1984 N 201.154 -4.19864 3.73725 0
M  V30 1985 H 193.305 -0.733246 1.99342 0
M  V30 1986 H 195.568 -0.385234 0.866198 0
M  V30 1987 H 195.274 -1.94933 2.92735 0
M  V30 1988 H 195.148 -3.30421 1.81939 0
M  V30 1989 H 197.535 -2.78567 0.973886 0
M  V30 1990 H 197.616 -1.4369 2.11629 0
M  V30 1991 H 197.26 -3.07565 4.04186 0
M  V30 1992 H 197.19 -4.41539 2.86968 0
M  V30 1993 H 199.681 -2.93053 2.38596 0
M  V30 1994 H 199.994 -5.57846 5.34815 0
M  V30 1995 H 198.339 -5.02167 4.80472 0
M  V30 1996 H 201.53 -3.57623 3.02032 0
M  V30 1997 H 201.703 -4.78386 4.37093 0
M  V30 1998 N 195.109 -0.891671 -1.2995 0
M  V30 1999 C 196.356 -0.513501 -1.95881 0
M  V30 2000 C 196.684 0.938655 -1.70351 0
M  V30 2001 O 195.939 1.67936 -1.00478 0
M  V30 2002 C 196.238 -0.742868 -3.49594 0
M  V30 2003 C 195.904 -2.17114 -3.95186 0
M  V30 2004 C 194.566 -2.56169 -4.07346 0
M  V30 2005 C 196.918 -3.10162 -4.18866 0
M  V30 2006 C 194.246 -3.87469 -4.4055 0
M  V30 2007 C 196.598 -4.41001 -4.53542 0
M  V30 2008 C 195.262 -4.79941 -4.63911 0
M  V30 2009 H 194.532 -0.187903 -0.71678 0
M  V30 2010 H 197.179 -1.1288 -1.54694 0
M  V30 2011 H 195.484 -0.044586 -3.91775 0
M  V30 2012 H 197.181 -0.429767 -3.9869 0
M  V30 2013 H 193.771 -1.85801 -3.86233 0
M  V30 2014 H 197.955 -2.81206 -4.08946 0
M  V30 2015 H 193.211 -4.17371 -4.46779 0
M  V30 2016 H 197.385 -5.13133 -4.70815 0
M  V30 2017 H 195.012 -5.81719 -4.89395 0
M  V30 2018 N 196.587 1.43421 -0.653314 0
M  V30 2019 C 197.864 1.95361 -0.0966581 0
M  V30 2020 C 198.244 1.59461 1.38331 0
M  V30 2021 O 197.592 0.879777 2.10884 0
M  V30 2022 C 197.802 3.47311 -0.342988 0
M  V30 2023 C 199.15 4.23875 -0.24798 0
M  V30 2024 O 200.174 3.55133 -0.275553 0
M  V30 2025 O 199.033 5.4623 -0.171771 0
M  V30 2026 H 196.127 0.826945 0.00956291 0
M  V30 2027 H 198.673 1.5336 -0.726558 0
M  V30 2028 H 197.445 3.66569 -1.36906 0
M  V30 2029 H 197.068 3.9631 0.319975 0
M  V30 2030 N 198.065 0.39524 1.52563 0
M  V30 2031 C 199.311 -0.185318 2.01952 0
M  V30 2032 C 199.644 -1.45964 1.28095 0
M  V30 2033 O 198.919 -1.90689 0.38315 0
M  V30 2034 C 199.202 -0.447193 3.57312 0
M  V30 2035 C 199.055 0.842828 4.41833 0
M  V30 2036 C 200.374 -1.23529 4.22408 0
M  V30 2037 H 197.493 -0.0658788 0.73405 0
M  V30 2038 H 200.135 0.525975 1.82575 0
M  V30 2039 H 198.285 -1.05312 3.73954 0
M  V30 2040 H 199.957 1.4795 4.36931 0
M  V30 2041 H 198.2 1.45686 4.08605 0
M  V30 2042 H 198.871 0.614165 5.48573 0
M  V30 2043 H 201.347 -0.722445 4.0978 0
M  V30 2044 H 200.223 -1.38727 5.3108 0
M  V30 2045 H 200.484 -2.25213 3.80436 0
M  V30 2046 N 199.544 -1.57102 0.125237 0
M  V30 2047 C 200.772 -1.99761 -0.538797 0
M  V30 2048 C 201.187 -1.00503 -1.59827 0
M  V30 2049 O 200.544 0.00119474 -1.825 0
M  V30 2050 C 200.595 -3.42408 -1.15927 0
M  V30 2051 O 200.316 -4.37869 -0.142143 0
M  V30 2052 C 201.817 -4.00232 -1.90602 0
M  V30 2053 H 199.037 -0.655772 -0.14214 0
M  V30 2054 H 201.581 -2.03383 0.213413 0
M  V30 2055 H 199.736 -3.39706 -1.86223 0
M  V30 2056 H 200.15 -5.21128 -0.593775 0
M  V30 2057 H 201.624 -5.02105 -2.29335 0
M  V30 2058 H 202.101 -3.39721 -2.78363 0
M  V30 2059 H 202.707 -4.06499 -1.25055 0
M  V30 2060 N 201.022 0.148545 -1.56898 0
M  V30 2061 C 201.932 1.20293 -2.01412 0
M  V30 2062 C 202.948 1.47107 -0.929273 0
M  V30 2063 O 204.124 1.58807 -1.23863 0
M  V30 2064 C 201.189 2.51682 -2.38447 0
M  V30 2065 C 200.25 2.32529 -3.60872 0
M  V30 2066 C 199.483 3.57653 -3.96132 0
M  V30 2067 O 199.706 4.63771 -3.32073 0
M  V30 2068 O 198.64 3.50408 -4.89385 0
M  V30 2069 H 202.466 0.855025 -2.91416 0
M  V30 2070 H 200.051 0.357151 -1.45068 0
M  V30 2071 H 201.933 3.29147 -2.63135 0
M  V30 2072 H 200.608 2.86006 -1.51599 0
M  V30 2073 H 199.515 1.53019 -3.41373 0
M  V30 2074 H 200.848 2.03121 -4.48333 0
M  V30 2075 N 202.5 1.5196 0.417844 0
M  V30 2076 C 203.748 1.65263 1.16329 0
M  V30 2077 C 204.069 0.380634 1.91249 0
M  V30 2078 O 203.339 -0.604214 1.86349 0
M  V30 2079 H 201.919 0.60912 0.432414 0
M  V30 2080 H 204.581 1.88969 0.477162 0
M  V30 2081 H 203.677 2.4896 1.88217 0
M  V30 2082 N 203.978 -0.674533 1.42435 0
M  V30 2083 C 204.908 -1.80009 1.48724 0
M  V30 2084 C 205.889 -1.6659 0.343793 0
M  V30 2085 O 207.074 -1.86007 0.558137 0
M  V30 2086 C 204.204 -3.18306 1.38919 0
M  V30 2087 C 203.158 -3.46461 2.51294 0
M  V30 2088 C 202.484 -4.84335 2.26547 0
M  V30 2089 C 203.784 -3.43328 3.93603 0
M  V30 2090 H 205.478 -1.75004 2.42928 0
M  V30 2091 H 203.024 -0.840533 1.16923 0
M  V30 2092 H 204.977 -3.9678 1.41927 0
M  V30 2093 H 203.701 -3.2399 0.412094 0
M  V30 2094 H 202.36 -2.70348 2.47604 0
M  V30 2095 H 202.008 -4.86669 1.2713 0
M  V30 2096 H 201.708 -5.04136 3.01861 0
M  V30 2097 H 203.232 -5.65094 2.31304 0
M  V30 2098 H 204.646 -4.11772 3.98894 0
M  V30 2099 H 203.043 -3.74664 4.68771 0
M  V30 2100 H 204.113 -2.41897 4.20255 0
M  V30 2101 N 205.456 -1.28612 -0.910864 0
M  V30 2102 C 206.404 -1.1265 -2.03501 0
M  V30 2103 C 207.398 -0.0450054 -1.6934 0
M  V30 2104 O 208.604 -0.203988 -1.7884 0
M  V30 2105 H 204.979 -0.347639 -0.666822 0
M  V30 2106 H 206.95 -2.07849 -2.14106 0
M  V30 2107 C 205.699 -0.808143 -3.38178 0
M  V30 2108 H 205.022 -1.63231 -3.6496 0
M  V30 2109 H 206.462 -0.736426 -4.17556 0
M  V30 2110 C 204.921 0.488226 -3.33344 0
M  V30 2111 O 205.451 1.51766 -3.71927 0
M  V30 2112 N 203.657 0.490009 -2.86439 0
M  V30 2113 H 203.204 -0.348161 -2.55236 0
M  V30 2114 H 203.162 1.35741 -2.83587 0
M  V30 2115 N 206.934 1.1197 -1.10907 0
M  V30 2116 C 207.897 2.16031 -0.765707 0
M  V30 2117 C 208.897 1.59393 0.212235 0
M  V30 2118 O 210.087 1.74196 -0.0115441 0
M  V30 2119 C 207.219 3.40632 -0.135053 0
M  V30 2120 H 208.412 2.47919 -1.68748 0
M  V30 2121 H 205.965 1.27061 -0.910226 0
M  V30 2122 H 206.7 3.14348 0.797218 0
M  V30 2123 H 206.485 3.8302 -0.838937 0
M  V30 2124 H 207.975 4.17505 0.0892469 0
M  V30 2125 N 208.412 0.89855 1.29475 0
M  V30 2126 C 209.658 0.524658 1.95896 0
M  V30 2127 C 209.991 -0.926468 1.70676 0
M  V30 2128 O 209.266 -1.65665 1.01908 0
M  V30 2129 C 209.549 0.81633 3.50725 0
M  V30 2130 C 209.402 2.31907 3.85408 0
M  V30 2131 C 210.721 0.302038 4.39062 0
M  V30 2132 H 207.84 0.19209 0.711527 0
M  V30 2133 H 210.482 1.12502 1.53112 0
M  V30 2134 H 208.632 0.305369 3.87298 0
M  V30 2135 H 210.304 2.89949 3.58786 0
M  V30 2136 H 208.547 2.78027 3.32992 0
M  V30 2137 H 209.218 2.47373 4.93468 0
M  V30 2138 H 211.694 0.739551 4.09475 0
M  V30 2139 H 210.57 0.535331 5.46283 0
M  V30 2140 H 210.831 -0.797216 4.34853 0
M  V30 2141 N 209.89 -1.43072 0.660911 0
M  V30 2142 C 211.136 -2.02545 0.186337 0
M  V30 2143 C 211.491 -1.51253 -1.18913 0
M  V30 2144 O 210.784 -0.699167 -1.78388 0
M  V30 2145 C 210.978 -3.57103 0.145563 0
M  V30 2146 C 210.807 -4.23393 1.51554 0
M  V30 2147 C 209.577 -4.59144 2.10984 0
M  V30 2148 C 211.775 -4.51897 2.45548 0
M  V30 2149 N 209.757 -5.10545 3.40907 0
M  V30 2150 C 211.128 -5.04698 3.6011 0
M  V30 2151 C 213.183 -4.33872 2.44253 0
M  V30 2152 C 211.886 -5.41371 4.73613 0
M  V30 2153 C 213.912 -4.71612 3.56842 0
M  V30 2154 C 213.274 -5.24553 4.70131 0
M  V30 2155 H 209.373 -0.773823 0.112792 0
M  V30 2156 H 211.957 -1.74137 0.870885 0
M  V30 2157 H 210.128 -3.85059 -0.508353 0
M  V30 2158 H 211.86 -4.03264 -0.340598 0
M  V30 2159 H 208.615 -4.4444 1.63615 0
M  V30 2160 H 209.039 -5.40689 4.07411 0
M  V30 2161 H 213.681 -3.92208 1.579 0
M  V30 2162 H 211.399 -5.81975 5.60652 0
M  V30 2163 H 214.985 -4.59354 3.57051 0
M  V30 2164 H 213.865 -5.53213 5.5581 0
M  V30 2165 N 211.368 -0.403325 -1.52352 0
M  V30 2166 C 212.616 0.174003 -2.0135 0
M  V30 2167 C 212.937 1.46139 -1.29106 0
M  V30 2168 O 212.207 1.91448 -0.415253 0
M  V30 2169 H 210.787 0.0672911 -0.743963 0
M  V30 2170 H 213.449 -0.538235 -1.87321 0
M  V30 2171 H 212.545 0.374254 -3.09848 0
M  V30 2172 N 212.846 1.57033 -0.133567 0
M  V30 2173 C 214.076 1.99754 0.527429 0
M  V30 2174 C 214.484 1.01245 1.59832 0
M  V30 2175 O 213.827 -0.000645496 1.837 0
M  V30 2176 C 213.889 3.38903 1.19939 0
M  V30 2177 C 213.553 4.56174 0.274709 0
M  V30 2178 C 214.55 5.17563 -0.492398 0
M  V30 2179 C 212.235 5.01972 0.18153 0
M  V30 2180 C 214.229 6.2315 -1.34027 0
M  V30 2181 C 211.916 6.07416 -0.669958 0
M  V30 2182 C 212.914 6.67874 -1.42947 0
M  V30 2183 O 212.602 7.71279 -2.2668 0
M  V30 2184 H 212.334 0.660702 0.142999 0
M  V30 2185 H 214.888 2.04207 -0.221099 0
M  V30 2186 H 213.118 3.31248 1.99528 0
M  V30 2187 H 214.807 3.65818 1.75875 0
M  V30 2188 H 215.573 4.83087 -0.430367 0
M  V30 2189 H 211.452 4.54652 0.762422 0
M  V30 2190 H 214.996 6.70268 -1.93357 0
M  V30 2191 H 210.893 6.41321 -0.73333 0
M  V30 2192 H 211.661 7.88441 -2.1978 0
M  V30 2193 N 214.325 -0.140222 1.56975 0
M  V30 2194 C 215.553 -0.866437 1.87884 0
M  V30 2195 C 215.968 -1.74428 0.722517 0
M  V30 2196 O 215.325 -1.79891 -0.30749 0
M  V30 2197 C 215.376 -1.71753 3.18093 0
M  V30 2198 O 215.097 -0.875056 4.29272 0
M  V30 2199 C 216.598 -2.55074 3.62563 0
M  V30 2200 H 213.818 -0.25019 0.622612 0
M  V30 2201 H 216.362 -0.130977 2.0408 0
M  V30 2202 H 214.517 -2.40598 3.03631 0
M  V30 2203 H 214.931 -1.46002 5.03769 0
M  V30 2204 H 216.405 -3.10356 4.5649 0
M  V30 2205 H 216.882 -3.31434 2.88181 0
M  V30 2206 H 217.488 -1.91509 3.79743 0
M  V30 2207 N 215.803 -1.52179 -0.40978 0
M  V30 2208 C 217.214 -1.58377 -0.988615 0
M  V30 2209 C 217.565 -0.423879 -1.91566 0
M  V30 2210 O 216.69 0.455844 -2.11544 0
M  V30 2211 C 217.285 -2.87044 -1.79976 0
M  V30 2212 C 215.844 -2.95722 -2.32863 0
M  V30 2213 C 214.991 -2.53309 -1.12828 0
M  V30 2214 H 217.942 -1.57558 -0.190039 0
M  V30 2215 H 217.963 -2.7236 -2.65707 0
M  V30 2216 H 217.475 -3.71444 -1.12478 0
M  V30 2217 H 215.576 -2.15814 -3.03735 0
M  V30 2218 H 215.689 -3.99951 -2.63773 0
M  V30 2219 H 214.053 -2.07142 -1.48204 0
M  V30 2220 H 214.836 -3.40082 -0.46897 0
M  V30 2221 N 217.281 0.66697 -1.42791 0
M  V30 2222 C 218.506 1.46004 -1.47301 0
M  V30 2223 C 218.931 1.87894 -0.0880317 0
M  V30 2224 O 218.289 1.56502 0.915253 0
M  V30 2225 C 218.337 2.68031 -2.41229 0
M  V30 2226 O 217.441 3.6659 -1.88906 0
M  V30 2227 H 216.782 0.43832 -0.49877 0
M  V30 2228 H 219.312 0.817391 -1.87563 0
M  V30 2229 H 219.322 3.1601 -2.58073 0
M  V30 2230 H 217.997 2.36883 -3.41847 0
M  V30 2231 H 216.574 3.25661 -1.81656 0
M  V30 2232 N 218.759 1.29093 0.90403 0
M  V30 2233 C 220.008 1.16187 1.64874 0
M  V30 2234 C 220.321 -0.286742 1.93487 0
M  V30 2235 O 221.527 -0.537062 2.66135 0
M  V30 2236 C 219.983 2.03177 2.97064 0
M  V30 2237 C 219.591 3.52836 2.76062 0
M  V30 2238 C 221.335 1.98984 3.74974 0
M  V30 2239 C 219.242 4.31945 4.03952 0
M  V30 2240 H 218.172 0.431246 0.618501 0
M  V30 2241 H 220.823 1.53699 1.00243 0
M  V30 2242 H 219.205 1.5853 3.62883 0
M  V30 2243 H 220.379 4.05507 2.18863 0
M  V30 2244 H 218.694 3.58656 2.11553 0
M  V30 2245 H 221.291 2.55351 4.69787 0
M  V30 2246 H 221.634 0.968815 4.0487 0
M  V30 2247 H 222.167 2.41652 3.15989 0
M  V30 2248 H 218.906 5.34667 3.79225 0
M  V30 2249 H 218.426 3.84045 4.60727 0
M  V30 2250 H 220.105 4.42379 4.72133 0
M  V30 2251 N 220.237 -1.11381 1.11499 0
M  V30 2252 C 221.147 -2.21019 0.786628 0
M  V30 2253 C 222.163 -1.72597 -0.220507 0
M  V30 2254 O 223.339 -2.01321 -0.0565251 0
M  V30 2255 C 220.404 -3.459 0.235333 0
M  V30 2256 C 219.465 -4.09107 1.30115 0
M  V30 2257 C 218.698 -5.28027 0.776068 0
M  V30 2258 O 218.921 -5.6904 -0.393661 0
M  V30 2259 O 217.855 -5.81835 1.54114 0
M  V30 2260 H 221.681 -2.51521 1.70209 0
M  V30 2261 H 219.266 -1.19928 0.890928 0
M  V30 2262 H 221.148 -4.21346 -0.067715 0
M  V30 2263 H 219.823 -3.17049 -0.652828 0
M  V30 2264 H 218.73 -3.35391 1.65722 0
M  V30 2265 H 220.063 -4.42139 2.16273 0
M  V30 2266 N 221.715 -0.905404 -1.28997 0
M  V30 2267 C 222.663 -0.377431 -2.29517 0
M  V30 2268 C 223.657 0.526461 -1.61012 0
M  V30 2269 O 224.863 0.40863 -1.753 0
M  V30 2270 H 221.238 -0.103437 -0.744852 0
M  V30 2271 H 223.209 -1.23848 -2.71485 0
M  V30 2272 C 221.958 0.374833 -3.45674 0
M  V30 2273 H 221.281 -0.311474 -3.98585 0
M  V30 2274 H 222.721 0.70903 -4.1803 0
M  V30 2275 C 221.18 1.57963 -2.97572 0
M  V30 2276 O 221.71 2.67886 -2.99333 0
M  V30 2277 N 219.916 1.42375 -2.53333 0
M  V30 2278 H 219.463 0.529466 -2.521 0
M  V30 2279 H 219.421 2.23117 -2.21509 0
M  V30 2280 N 223.193 1.4272 -0.668489 0
M  V30 2281 C 224.126 2.28111 0.0637898 0
M  V30 2282 C 225.104 1.40705 0.814912 0
M  V30 2283 O 226.288 1.70146 0.81134 0
M  V30 2284 C 223.415 3.20429 1.0974 0
M  V30 2285 C 222.461 4.24197 0.442579 0
M  V30 2286 S 223.294 5.29563 -0.795173 0
M  V30 2287 C 224.45 6.25449 0.237516 0
M  V30 2288 H 224.683 2.8987 -0.660521 0
M  V30 2289 H 222.216 1.47456 -0.457821 0
M  V30 2290 H 224.174 3.74158 1.68868 0
M  V30 2291 H 222.835 2.57818 1.79411 0
M  V30 2292 H 222.028 4.88954 1.22227 0
M  V30 2293 H 221.63 3.73925 -0.0749554 0
M  V30 2294 H 223.922 6.68524 1.09915 0
M  V30 2295 H 224.865 7.07104 -0.375421 0
M  V30 2296 H 225.273 5.61511 0.580167 0
M  V30 2297 N 224.671 0.411399 1.52136 0
M  V30 2298 C 226.087 0.0623865 1.59478 0
M  V30 2299 C 226.287 -1.42554 1.4241 0
M  V30 2300 O 225.343 -2.19263 1.2522 0
M  V30 2301 C 226.656 0.559331 2.95452 0
M  V30 2302 C 228.204 0.517503 3.08692 0
M  V30 2303 C 228.679 0.990994 4.4715 0
M  V30 2304 N 230.17 0.947908 4.53397 0
M  V30 2305 C 230.905 1.28544 5.58806 0
M  V30 2306 N 230.401 1.69454 6.71757 0
M  V30 2307 N 232.194 1.20526 5.49026 0
M  V30 2308 H 224.345 1.37982 1.61477 0
M  V30 2309 H 226.608 0.566977 0.759764 0
M  V30 2310 H 226.314 1.59938 3.1323 0
M  V30 2311 H 226.188 -0.0298014 3.77188 0
M  V30 2312 H 228.575 -0.513505 2.90598 0
M  V30 2313 H 228.656 1.14272 2.28857 0
M  V30 2314 H 228.3 2.02034 4.65988 0
M  V30 2315 H 228.23 0.34257 5.25485 0
M  V30 2316 H 230.721 0.647157 3.72317 0
M  V30 2317 H 231.034 1.93513 7.48179 0
M  V30 2318 H 229.379 1.73359 6.73032 0
M  V30 2319 H 232.57 0.884505 4.59667 0
M  V30 2320 H 232.743 1.47161 6.31069 0
M  V30 2321 N 226.149 -1.5696 0.141893 0
M  V30 2322 C 227.097 -2.17784 -0.816874 0
M  V30 2323 C 228.091 -1.1334 -1.25899 0
M  V30 2324 O 229.297 -1.316 -1.22806 0
M  V30 2325 H 225.672 -0.697278 -0.281615 0
M  V30 2326 H 227.643 -2.97087 -0.279621 0
M  V30 2327 C 226.392 -2.80983 -2.04802 0
M  V30 2328 H 225.715 -3.61062 -1.7168 0
M  V30 2329 H 227.155 -3.2705 -2.69841 0
M  V30 2330 C 225.614 -1.79228 -2.8527 0
M  V30 2331 O 226.144 -1.25962 -3.8144 0
M  V30 2332 N 224.35 -1.48647 -2.49704 0
M  V30 2333 H 223.897 -1.92155 -1.71564 0
M  V30 2334 H 223.855 -0.808115 -3.03837 0
M  V30 2335 N 227.627 0.131896 -1.57047 0
M  V30 2336 C 228.557 1.16384 -2.02428 0
M  V30 2337 C 229.538 1.43936 -0.90644 0
M  V30 2338 O 230.723 1.54599 -1.17528 0
M  V30 2339 C 227.853 2.49328 -2.4177 0
M  V30 2340 C 226.807 2.36266 -3.56879 0
M  V30 2341 C 226.133 3.74057 -3.8208 0
M  V30 2342 C 227.433 1.834 -4.89042 0
M  V30 2343 H 229.127 0.786433 -2.88887 0
M  V30 2344 H 226.673 0.376855 -1.38981 0
M  V30 2345 H 228.626 3.21759 -2.7212 0
M  V30 2346 H 227.35 2.88934 -1.52266 0
M  V30 2347 H 226.009 1.66286 -3.26718 0
M  V30 2348 H 225.657 4.11125 -2.89803 0
M  V30 2349 H 225.357 3.66174 -4.59554 0
M  V30 2350 H 226.881 4.48012 -4.1487 0
M  V30 2351 H 228.295 2.45636 -5.18011 0
M  V30 2352 H 226.692 1.8637 -5.70426 0
M  V30 2353 H 227.762 0.790662 -4.7841 0
M  V30 2354 N 229.106 1.52395 0.401703 0
M  V30 2355 C 230.036 1.79231 1.49661 0
M  V30 2356 C 231.017 0.643654 1.57452 0
M  V30 2357 O 232.202 0.889989 1.72606 0
M  V30 2358 C 229.332 1.94971 2.87409 0
M  V30 2359 C 228.286 3.10604 2.94465 0
M  V30 2360 C 227.612 3.11577 4.34538 0
M  V30 2361 C 228.912 4.49921 2.6527 0
M  V30 2362 H 230.606 2.70917 1.27454 0
M  V30 2363 H 228.152 1.30362 0.6117 0
M  V30 2364 H 230.105 2.12328 3.63999 0
M  V30 2365 H 228.829 0.999632 3.10926 0
M  V30 2366 H 227.488 2.93009 2.20321 0
M  V30 2367 H 227.136 2.14277 4.55076 0
M  V30 2368 H 226.836 3.89247 4.40183 0
M  V30 2369 H 228.36 3.31073 5.13053 0
M  V30 2370 H 229.774 4.67683 3.31581 0
M  V30 2371 H 228.171 5.29564 2.82281 0
M  V30 2372 H 229.241 4.57507 1.60671 0
M  V30 2373 N 230.584 -0.659388 1.43143 0
M  V30 2374 C 231.861 -1.41627 1.34912 0
M  V30 2375 C 232.241 -2.11099 -0.00607785 0
M  V30 2376 O 231.589 -2.04353 -1.02236 0
M  V30 2377 C 231.799 -2.40604 2.52805 0
M  V30 2378 C 233.147 -3.04789 2.95616 0
M  V30 2379 O 234.171 -2.50932 2.52807 0
M  V30 2380 O 233.03 -4.02421 3.69756 0
M  V30 2381 H 230.124 -0.63246 0.532844 0
M  V30 2382 H 232.67 -0.686814 1.5518 0
M  V30 2383 H 231.442 -1.88174 3.43083 0
M  V30 2384 H 231.065 -3.21009 2.34604 0
M  V30 2385 N 232.062 -1.29571 -0.897171 0
M  V30 2386 C 233.311 -1.1706 -1.64256 0
M  V30 2387 C 233.624 0.276476 -1.93636 0
M  V30 2388 O 234.83 0.52294 -2.66416 0
M  V30 2389 C 233.286 -2.0475 -2.95982 0
M  V30 2390 C 232.894 -3.54295 -2.74187 0
M  V30 2391 C 234.638 -2.0097 -3.73914 0
M  V30 2392 C 232.545 -4.34081 -4.01656 0
M  V30 2393 H 231.475 -0.43452 -0.616205 0
M  V30 2394 H 234.126 -1.54229 -0.994268 0
M  V30 2395 H 232.508 -1.60452 -3.62038 0
M  V30 2396 H 233.682 -4.06662 -2.1671 0
M  V30 2397 H 231.997 -3.59773 -2.09648 0
M  V30 2398 H 234.594 -2.57838 -4.68427 0
M  V30 2399 H 234.937 -0.990273 -4.0435 0
M  V30 2400 H 235.47 -2.43325 -3.14703 0
M  V30 2401 H 232.209 -5.36671 -3.76384 0
M  V30 2402 H 231.729 -3.86483 -4.58684 0
M  V30 2403 H 233.408 -4.44877 -4.69781 0
M  V30 2404 N 233.54 1.10788 -1.12088 0
M  V30 2405 C 234.787 1.82671 -0.873931 0
M  V30 2406 C 235.115 1.85004 0.600311 0
M  V30 2407 O 234.37 1.30365 1.45957 0
M  V30 2408 C 234.669 3.29294 -1.38926 0
M  V30 2409 C 234.335 3.47113 -2.87791 0
M  V30 2410 C 232.997 3.51684 -3.28439 0
M  V30 2411 C 235.349 3.52808 -3.83635 0
M  V30 2412 C 232.677 3.59513 -4.63646 0
M  V30 2413 C 235.029 3.62169 -5.18668 0
M  V30 2414 C 233.693 3.65003 -5.58864 0
M  V30 2415 H 232.963 0.668441 -0.319794 0
M  V30 2416 H 235.61 1.30613 -1.40045 0
M  V30 2417 H 233.915 3.83894 -0.783122 0
M  V30 2418 H 235.612 3.83416 -1.17443 0
M  V30 2419 H 232.202 3.4423 -2.5535 0
M  V30 2420 H 236.386 3.4853 -3.53328 0
M  V30 2421 H 231.642 3.59987 -4.94185 0
M  V30 2422 H 235.816 3.6552 -5.92763 0
M  V30 2423 H 233.443 3.70822 -6.63623 0
M  V30 2424 N 235.018 0.912232 1.28515 0
M  V30 2425 C 235.981 0.404223 2.25607 0
M  V30 2426 C 236.981 -0.468602 1.53821 0
M  V30 2427 O 238.171 -0.271873 1.72065 0
M  V30 2428 C 235.303 -0.420653 3.38295 0
M  V30 2429 H 236.496 1.26188 2.7206 0
M  V30 2430 H 234.049 0.691495 1.40171 0
M  V30 2431 H 234.784 -1.29777 2.97201 0
M  V30 2432 H 234.569 0.204935 3.91564 0
M  V30 2433 H 236.059 -0.766971 4.10496 0
M  V30 2434 N 236.496 -1.42363 0.676048 0
M  V30 2435 C 237.726 -2.05561 0.206967 0
M  V30 2436 C 238.134 -1.50887 -1.14148 0
M  V30 2437 O 237.477 -0.643933 -1.72044 0
M  V30 2438 C 237.539 -3.5944 0.0659508 0
M  V30 2439 C 237.203 -4.36812 1.34331 0
M  V30 2440 C 238.2 -4.67383 2.27704 0
M  V30 2441 C 235.885 -4.76429 1.59125 0
M  V30 2442 C 237.879 -5.36509 3.44147 0
M  V30 2443 C 235.566 -5.45294 2.75857 0
M  V30 2444 C 236.564 -5.75259 3.68193 0
M  V30 2445 O 236.252 -6.42712 4.82883 0
M  V30 2446 H 235.984 -0.668872 0.0979084 0
M  V30 2447 H 238.538 -1.83467 0.923531 0
M  V30 2448 H 236.768 -3.80197 -0.706204 0
M  V30 2449 H 238.457 -4.0427 -0.363418 0
M  V30 2450 H 239.223 -4.37275 2.09799 0
M  V30 2451 H 235.102 -4.52498 0.881258 0
M  V30 2452 H 238.646 -5.59814 4.16238 0
M  V30 2453 H 234.543 -5.7482 2.93688 0
M  V30 2454 H 235.311 -6.61204 4.82444 0
M  V30 2455 N 237.974 -0.419461 -1.51915 0
M  V30 2456 C 239.251 0.211999 -1.94448 0
M  V30 2457 C 239.631 1.61703 -1.35703 0
M  V30 2458 O 238.979 2.22102 -0.536931 0
M  V30 2459 C 239.189 0.207872 -3.4838 0
M  V30 2460 C 240.537 0.422192 -4.22496 0
M  V30 2461 O 241.561 0.286778 -3.55044 0
M  V30 2462 O 240.42 0.690009 -5.42126 0
M  V30 2463 H 237.514 0.139586 -0.815135 0
M  V30 2464 H 240.06 -0.476151 -1.62883 0
M  V30 2465 H 238.832 -0.775102 -3.83546 0
M  V30 2466 H 238.455 0.939688 -3.86336 0
M  V30 2467 N 239.452 1.56882 -0.150215 0
M  V30 2468 C 240.868 1.58263 0.20617 0
M  V30 2469 C 241.068 1.16464 1.64434 0
M  V30 2470 O 240.124 0.866422 2.3717 0
M  V30 2471 C 241.437 3.00649 -0.0555025 0
M  V30 2472 C 242.985 3.12999 0.00795388 0
M  V30 2473 C 243.46 4.5744 -0.226429 0
M  V30 2474 N 244.951 4.62875 -0.173469 0
M  V30 2475 C 245.686 5.72454 -0.329288 0
M  V30 2476 N 245.182 6.90669 -0.543005 0
M  V30 2477 N 246.975 5.61467 -0.266666 0
M  V30 2478 H 239.126 1.82345 -1.08922 0
M  V30 2479 H 241.389 0.844149 -0.431413 0
M  V30 2480 H 241.095 3.3563 -1.05096 0
M  V30 2481 H 240.969 3.71337 0.66246 0
M  V30 2482 H 243.356 2.77857 0.993966 0
M  V30 2483 H 243.437 2.4479 -0.742388 0
M  V30 2484 H 243.081 4.93287 -1.20956 0
M  V30 2485 H 243.011 5.2378 0.544274 0
M  V30 2486 H 245.502 3.77898 -0.0130709 0
M  V30 2487 H 245.815 7.70045 -0.651922 0
M  V30 2488 H 244.16 6.92581 -0.579366 0
M  V30 2489 H 247.351 4.67992 -0.100441 0
M  V30 2490 H 247.524 6.46816 -0.391535 0
M  V30 2491 N 240.93 -0.123565 1.57115 0
M  V30 2492 C 242.155 -0.850398 1.89164 0
M  V30 2493 C 242.58 -1.7286 0.741688 0
M  V30 2494 O 241.938 -1.78665 -0.307958 0
M  V30 2495 C 241.986 -1.66353 3.19936 0
M  V30 2496 O 241.09 -2.77004 3.0552 0
M  V30 2497 H 240.431 -0.235454 0.620852 0
M  V30 2498 H 242.961 -0.107335 2.04318 0
M  V30 2499 H 242.971 -2.05372 3.52543 0
M  V30 2500 H 241.646 -1.01881 4.03228 0
M  V30 2501 H 240.223 -2.41221 2.84371 0
M  V30 2502 N 242.408 -1.52605 -0.393616 0
M  V30 2503 C 243.338 -1.80022 -1.48709 0
M  V30 2504 C 244.319 -0.651995 -1.57108 0
M  V30 2505 O 245.504 -0.89913 -1.72132 0
M  V30 2506 C 242.634 -1.96492 -2.86371 0
M  V30 2507 C 241.588 -3.12161 -2.92813 0
M  V30 2508 C 240.914 -3.13877 -4.3288 0
M  V30 2509 C 242.214 -4.51322 -2.6288 0
M  V30 2510 H 243.908 -2.71589 -1.26015 0
M  V30 2511 H 241.454 -1.30684 -0.604778 0
M  V30 2512 H 243.407 -2.14255 -3.62867 0
M  V30 2513 H 242.131 -1.01611 -3.10391 0
M  V30 2514 H 240.79 -2.94173 -2.18764 0
M  V30 2515 H 240.438 -2.16687 -4.53933 0
M  V30 2516 H 240.138 -3.91576 -4.38112 0
M  V30 2517 H 241.662 -3.33789 -5.1129 0
M  V30 2518 H 243.076 -4.69435 -3.29096 0
M  V30 2519 H 241.473 -5.31053 -2.79468 0
M  V30 2520 H 242.543 -4.58353 -1.58242 0
M  V30 2521 N 243.887 0.651787 -1.4349 0
M  V30 2522 C 245.133 1.41376 -1.45398 0
M  V30 2523 C 245.466 1.94041 -0.0784823 0
M  V30 2524 O 244.741 1.72379 0.900878 0
M  V30 2525 C 245.024 2.59414 -2.49752 0
M  V30 2526 C 244.877 2.12232 -3.96582 0
M  V30 2527 C 246.196 3.61626 -2.50827 0
M  V30 2528 H 243.315 0.512719 -0.529422 0
M  V30 2529 H 245.957 0.738796 -1.75048 0
M  V30 2530 H 244.107 3.16997 -2.246 0
M  V30 2531 H 245.779 1.59639 -4.32797 0
M  V30 2532 H 244.022 1.43592 -4.09346 0
M  V30 2533 H 244.693 2.9712 -4.65214 0
M  V30 2534 H 247.169 3.13805 -2.7325 0
M  V30 2535 H 246.045 4.41766 -3.25783 0
M  V30 2536 H 246.306 4.14314 -1.5426 0
M  V30 2537 N 245.365 1.30045 0.890287 0
M  V30 2538 C 246.593 1.21472 1.67487 0
M  V30 2539 C 247.008 -0.223241 1.87476 0
M  V30 2540 O 246.365 -1.14828 1.41847 0
M  V30 2541 C 246.416 1.93394 3.05419 0
M  V30 2542 O 246.137 3.31576 2.86337 0
M  V30 2543 C 247.638 1.91414 3.99844 0
M  V30 2544 H 244.858 0.420604 0.522813 0
M  V30 2545 H 247.402 1.7158 1.11268 0
M  V30 2546 H 245.557 1.47099 3.58386 0
M  V30 2547 H 245.971 3.67929 3.73802 0
M  V30 2548 H 247.445 2.46285 4.94012 0
M  V30 2549 H 247.922 0.891833 4.3005 0
M  V30 2550 H 248.528 2.37496 3.52811 0
M  V30 2551 N 246.843 -1.10192 1.12674 0
M  V30 2552 C 248.12 -1.78717 0.794965 0
M  V30 2553 C 248.5 -1.98628 -0.714853 0
M  V30 2554 O 247.848 -1.58135 -1.64941 0
M  V30 2555 C 248.058 -3.11546 1.5729 0
M  V30 2556 C 249.406 -3.86382 1.76052 0
M  V30 2557 O 250.43 -3.21274 1.53823 0
M  V30 2558 O 249.289 -5.03246 2.13087 0
M  V30 2559 H 246.383 -0.774702 0.289423 0
M  V30 2560 H 248.929 -1.16819 1.23091 0
M  V30 2561 H 247.701 -2.92489 2.59935 0
M  V30 2562 H 247.324 -3.81164 1.13137 0
M  V30 2563 N 248.321 -0.919034 -1.28029 0
M  V30 2564 C 249.231 -0.416756 -2.30869 0
M  V30 2565 C 250.247 0.498235 -1.66714 0
M  V30 2566 O 251.423 0.383144 -1.97722 0
M  V30 2567 C 248.488 0.330274 -3.45123 0
M  V30 2568 C 247.549 -0.618578 -4.2482 0
M  V30 2569 C 246.782 0.0928959 -5.33619 0
M  V30 2570 O 247.005 1.31375 -5.55065 0
M  V30 2571 O 245.939 -0.574499 -5.99152 0
M  V30 2572 H 249.765 -1.27043 -2.75851 0
M  V30 2573 H 247.35 -0.684052 -1.3282 0
M  V30 2574 H 249.232 0.751972 -4.14636 0
M  V30 2575 H 247.907 1.1597 -3.02213 0
M  V30 2576 H 246.814 -1.08978 -3.57875 0
M  V30 2577 H 248.147 -1.41497 -4.71423 0
M  V30 2578 N 249.799 1.42003 -0.683588 0
M  V30 2579 C 250.729 2.33487 -0.024866 0
M  V30 2580 C 251.71 1.51163 0.779975 0
M  V30 2581 O 252.895 1.79739 0.735362 0
M  V30 2582 C 250.025 3.3487 0.920836 0
M  V30 2583 C 248.979 4.27414 0.223958 0
M  V30 2584 C 248.305 5.19074 1.2832 0
M  V30 2585 C 249.605 5.14445 -0.90242 0
M  V30 2586 H 251.299 2.88819 -0.788921 0
M  V30 2587 H 248.845 1.38873 -0.38083 0
M  V30 2588 H 250.798 3.97787 1.39081 0
M  V30 2589 H 249.522 2.77861 1.71642 0
M  V30 2590 H 248.181 3.65904 -0.225864 0
M  V30 2591 H 247.829 4.58387 2.071 0
M  V30 2592 H 247.529 5.81822 0.821995 0
M  V30 2593 H 249.053 5.84867 1.75392 0
M  V30 2594 H 250.467 5.70998 -0.513272 0
M  V30 2595 H 248.864 5.86072 -1.28997 0
M  V30 2596 H 249.934 4.52322 -1.74737 0
M  V30 2597 N 251.277 0.427512 1.51691 0
M  V30 2598 C 252.24 -0.377132 2.26076 0
M  V30 2599 C 253.24 -0.958089 1.29141 0
M  V30 2600 O 254.43 -0.83408 1.52934 0
M  V30 2601 C 251.562 -1.53262 3.04506 0
M  V30 2602 H 252.755 0.27464 2.9864 0
M  V30 2603 H 250.308 0.180445 1.55255 0
M  V30 2604 H 251.043 -2.22072 2.36335 0
M  V30 2605 H 250.828 -1.12232 3.75694 0
M  V30 2606 H 252.318 -2.10135 3.60878 0
M  V30 2607 N 252.755 -1.56801 0.158532 0
M  V30 2608 C 254.171 -1.5837 -0.197774 0
M  V30 2609 C 254.371 -1.17334 -1.63814 0
M  V30 2610 O 253.427 -0.878988 -2.36707 0
M  V30 2611 C 254.74 -3.00615 0.0714459 0
M  V30 2612 C 256.288 -3.12999 0.00864533 0
M  V30 2613 C 256.763 -4.57313 0.250685 0
M  V30 2614 N 258.254 -4.62777 0.198014 0
M  V30 2615 C 258.989 -5.72271 0.359642 0
M  V30 2616 N 258.485 -6.90371 0.579625 0
M  V30 2617 N 260.278 -5.61318 0.296438 0
M  V30 2618 H 252.429 -1.81765 1.09887 0
M  V30 2619 H 254.692 -0.841849 0.435884 0
M  V30 2620 H 254.398 -3.35068 1.06874 0
M  V30 2621 H 254.272 -3.71683 -0.642757 0
M  V30 2622 H 256.659 -2.7838 -0.979217 0
M  V30 2623 H 256.74 -2.44393 0.755359 0
M  V30 2624 H 256.384 -4.92639 1.2357 0
M  V30 2625 H 256.314 -5.24061 -0.516489 0
M  V30 2626 H 258.805 -3.77885 0.0331115 0
M  V30 2627 H 259.118 -7.69689 0.69275 0
M  V30 2628 H 257.463 -6.92264 0.616087 0
M  V30 2629 H 260.654 -4.67932 0.125258 0
M  V30 2630 H 260.827 -6.46599 0.425831 0
M  V30 2631 N 254.233 0.115231 -1.57178 0
M  V30 2632 C 255.163 1.1423 -2.03651 0
M  V30 2633 C 256.144 1.42967 -0.921655 0
M  V30 2634 O 257.329 1.53343 -1.19162 0
M  V30 2635 C 254.459 2.4675 -2.44401 0
M  V30 2636 C 253.413 2.32467 -3.59365 0
M  V30 2637 C 252.739 3.69984 -3.86026 0
M  V30 2638 C 254.039 1.78203 -4.90959 0
M  V30 2639 H 255.733 0.755749 -2.89705 0
M  V30 2640 H 253.279 0.362093 -1.39373 0
M  V30 2641 H 255.232 3.18854 -2.75517 0
M  V30 2642 H 253.956 2.87302 -1.55322 0
M  V30 2643 H 252.615 1.62811 -3.28463 0
M  V30 2644 H 252.263 4.08028 -2.94147 0
M  V30 2645 H 251.963 3.61279 -4.63412 0
M  V30 2646 H 253.487 4.43587 -4.19599 0
M  V30 2647 H 254.901 2.40128 -5.20587 0
M  V30 2648 H 253.298 1.8031 -5.72371 0
M  V30 2649 H 254.368 0.739876 -4.79222 0
M  V30 2650 N 255.711 1.52812 0.385517 0
M  V30 2651 C 257.127 1.4214 0.725829 0
M  V30 2652 C 257.327 0.544589 1.94001 0
M  V30 2653 O 256.383 0.0193693 2.52493 0
M  V30 2654 C 257.696 2.85042 0.957668 0
M  V30 2655 C 259.244 2.94543 1.05892 0
M  V30 2656 C 259.719 4.38464 1.32337 0
M  V30 2657 N 261.21 4.41804 1.39151 0
M  V30 2658 C 261.945 5.5025 1.61285 0
M  V30 2659 N 261.441 6.68775 1.80866 0
M  V30 2660 N 263.234 5.37798 1.63492 0
M  V30 2661 H 255.385 2.08338 -0.413383 0
M  V30 2662 H 257.648 0.940016 -0.122775 0
M  V30 2663 H 257.354 3.51431 0.137568 0
M  V30 2664 H 257.228 3.27505 1.87137 0
M  V30 2665 H 259.615 2.28321 1.86959 0
M  V30 2666 H 259.696 2.55504 0.123057 0
M  V30 2667 H 259.34 5.05254 0.517793 0
M  V30 2668 H 259.27 4.75059 2.27214 0
M  V30 2669 H 261.761 3.56377 1.25713 0
M  V30 2670 H 262.074 7.47197 1.97271 0
M  V30 2671 H 260.419 6.71797 1.78083 0
M  V30 2672 H 263.61 4.44171 1.47749 0
M  V30 2673 H 263.783 6.22382 1.80402 0
M  V30 2674 N 257.189 -0.644168 1.43834 0
M  V30 2675 C 258.419 -1.42939 1.49171 0
M  V30 2676 C 258.827 -1.88874 0.111048 0
M  V30 2677 O 258.17 -1.60656 -0.8908 0
M  V30 2678 C 258.232 -2.69151 2.38324 0
M  V30 2679 C 257.896 -2.45097 3.85715 0
M  V30 2680 C 258.893 -2.07747 4.76589 0
M  V30 2681 C 256.578 -2.59141 4.30292 0
M  V30 2682 C 258.572 -1.8475 6.10038 0
M  V30 2683 C 256.259 -2.35759 5.63792 0
M  V30 2684 C 257.257 -1.9862 6.53482 0
M  V30 2685 O 256.945 -1.75489 7.84512 0
M  V30 2686 H 256.677 -0.445271 0.508635 0
M  V30 2687 H 259.231 -0.79621 1.8934 0
M  V30 2688 H 257.461 -3.3506 1.93058 0
M  V30 2689 H 259.15 -3.31123 2.3476 0
M  V30 2690 H 259.916 -1.96465 4.43426 0
M  V30 2691 H 255.795 -2.87022 3.60749 0
M  V30 2692 H 259.339 -1.55686 6.80006 0
M  V30 2693 H 255.236 -2.46646 5.9652 0
M  V30 2694 H 256.004 -1.89841 7.9618 0
M  V30 2695 N 258.668 -1.30515 -0.883378 0
M  V30 2696 C 259.578 -1.18959 -2.02203 0
M  V30 2697 C 260.594 -0.109172 -1.73657 0
M  V30 2698 O 261.77 -0.324413 -1.9877 0
M  V30 2699 C 258.835 -0.883871 -3.35244 0
M  V30 2700 C 257.896 -2.04982 -3.77201 0
M  V30 2701 C 257.129 -1.75859 -5.03894 0
M  V30 2702 O 257.352 -0.687276 -5.66244 0
M  V30 2703 O 256.286 -2.61146 -5.42297 0
M  V30 2704 H 260.112 -2.14616 -2.1488 0
M  V30 2705 H 257.697 -1.10124 -1.0096 0
M  V30 2706 H 259.579 -0.728644 -4.15053 0
M  V30 2707 H 258.254 0.0427798 -3.23672 0
M  V30 2708 H 257.161 -2.26038 -2.9809 0
M  V30 2709 H 258.494 -2.95825 -3.93381 0
M  V30 2710 N 260.146 1.09593 -1.13257 0
M  V30 2711 C 261.109 2.14359 -0.811358 0
M  V30 2712 C 262.109 1.59808 0.178377 0
M  V30 2713 O 263.299 1.74132 -0.0484911 0
M  V30 2714 C 260.431 3.40269 -0.207276 0
M  V30 2715 H 261.624 2.44284 -1.73969 0
M  V30 2716 H 259.177 1.25102 -0.936973 0
M  V30 2717 H 259.912 3.15969 0.73036 0
M  V30 2718 H 259.697 3.81154 -0.919992 0
M  V30 2719 H 261.187 4.176 0.000667944 0
M  V30 2720 N 261.624 0.925811 1.2754 0
M  V30 2721 C 262.849 0.580924 1.99098 0
M  V30 2722 C 263.274 -0.833555 1.68622 0
M  V30 2723 O 262.632 -1.55903 0.925422 0
M  V30 2724 C 262.68 0.811186 3.51358 0
M  V30 2725 O 261.784 -0.124129 4.12213 0
M  V30 2726 H 261.125 0.223873 0.625122 0
M  V30 2727 H 263.655 1.24455 1.62395 0
M  V30 2728 H 263.665 0.72601 4.01489 0
M  V30 2729 H 262.34 1.84227 3.72872 0
M  V30 2730 H 260.917 0.0108006 3.72898 0
M  V30 2731 N 263.102 -1.41638 0.69111 0
M  V30 2732 C 264.351 -2.00526 0.217318 0
M  V30 2733 C 264.664 -1.55353 -1.18848 0
M  V30 2734 O 265.87 -2.06769 -1.75951 0
M  V30 2735 C 264.326 -3.58313 0.337639 0
M  V30 2736 C 263.934 -4.12469 1.74852 0
M  V30 2737 C 265.678 -4.24431 -0.0766066 0
M  V30 2738 C 263.585 -5.62675 1.82074 0
M  V30 2739 H 262.515 -0.750008 0.0774893 0
M  V30 2740 H 265.166 -1.6217 0.858661 0
M  V30 2741 H 263.548 -3.9425 -0.371879 0
M  V30 2742 H 264.722 -3.8796 2.48644 0
M  V30 2743 H 263.037 -3.58861 2.11205 0
M  V30 2744 H 265.634 -5.34683 -0.0430284 0
M  V30 2745 H 265.977 -4.01101 -1.1146 0
M  V30 2746 H 266.51 -3.93512 0.582476 0
M  V30 2747 H 263.249 -5.90826 2.83911 0
M  V30 2748 H 262.769 -5.89124 1.12661 0
M  V30 2749 H 264.448 -6.27371 1.58159 0
M  V30 2750 N 264.58 -0.43555 -1.51462 0
M  V30 2751 C 265.512 0.41257 -2.25456 0
M  V30 2752 C 266.525 0.987822 -1.29406 0
M  V30 2753 O 267.714 0.882266 -1.55172 0
M  V30 2754 C 264.814 1.58894 -2.99342 0
M  V30 2755 C 263.987 1.13288 -4.22474 0
M  V30 2756 C 263.046 2.17917 -4.78956 0
M  V30 2757 O 262.072 1.77425 -5.40841 0
M  V30 2758 N 263.274 3.50382 -4.62832 0
M  V30 2759 H 266.039 -0.221603 -2.9888 0
M  V30 2760 H 263.6 -0.264342 -1.59727 0
M  V30 2761 H 265.592 2.28508 -3.34015 0
M  V30 2762 H 264.162 2.12849 -2.28941 0
M  V30 2763 H 263.382 0.263881 -3.93316 0
M  V30 2764 H 264.67 0.805542 -5.02383 0
M  V30 2765 H 264.068 3.86013 -4.13534 0
M  V30 2766 H 262.625 4.15895 -5.01871 0
M  V30 2767 N 266.058 1.56714 -0.166846 0
M  V30 2768 C 267.469 1.83378 0.350646 0
M  V30 2769 C 267.82 1.08646 1.63372 0
M  V30 2770 O 266.945 0.338058 2.13743 0
M  V30 2771 C 267.54 3.32643 0.642963 0
M  V30 2772 C 266.099 3.59818 1.10491 0
M  V30 2773 C 265.246 2.76954 0.138411 0
M  V30 2774 H 268.197 1.53803 -0.391193 0
M  V30 2775 H 268.218 3.49878 1.49551 0
M  V30 2776 H 267.73 3.87007 -0.291055 0
M  V30 2777 H 265.831 3.1086 2.05418 0
M  V30 2778 H 265.944 4.68178 1.01716 0
M  V30 2779 H 264.308 2.4666 0.634911 0
M  V30 2780 H 265.091 3.34097 -0.789549 0
M  V30 2781 N 267.536 -0.106894 1.57237 0
M  V30 2782 C 268.784 -0.810921 1.85117 0
M  V30 2783 C 269.105 -1.7984 0.753827 0
M  V30 2784 O 268.375 -1.94649 -0.221056 0
M  V30 2785 H 266.955 -0.302466 0.683025 0
M  V30 2786 H 269.617 -0.0913324 1.94686 0
M  V30 2787 H 268.713 -1.34875 2.81452 0
M  V30 2788 N 269.014 -1.53014 -0.377408 0
M  V30 2789 C 270.261 -1.68623 -1.12128 0
M  V30 2790 C 270.589 -0.431997 -1.89642 0
M  V30 2791 O 269.844 0.585855 -1.86725 0
M  V30 2792 C 270.143 -2.87982 -2.11663 0
M  V30 2793 C 269.809 -4.24964 -1.50719 0
M  V30 2794 C 268.471 -4.62217 -1.33825 0
M  V30 2795 C 270.823 -5.10199 -1.06519 0
M  V30 2796 C 268.151 -5.82352 -0.712963 0
M  V30 2797 C 270.503 -6.30969 -0.453955 0
M  V30 2798 C 269.167 -6.66944 -0.272411 0
M  V30 2799 H 268.437 -0.617034 -0.410305 0
M  V30 2800 H 271.084 -1.8718 -0.404484 0
M  V30 2801 H 269.389 -2.63889 -2.89603 0
M  V30 2802 H 271.086 -2.97253 -2.6915 0
M  V30 2803 H 267.676 -3.95626 -1.64858 0
M  V30 2804 H 271.86 -4.81978 -1.18368 0
M  V30 2805 H 267.116 -6.08824 -0.560611 0
M  V30 2806 H 271.29 -6.96324 -0.103217 0
M  V30 2807 H 268.917 -7.59898 0.214181 0
M  V30 2808 N 270.492 0.636531 -1.44174 0
M  V30 2809 C 271.424 1.7618 -1.46606 0
M  V30 2810 C 272.437 1.58768 -0.360091 0
M  V30 2811 O 273.626 1.67181 -0.625518 0
M  V30 2812 C 270.726 3.13833 -1.27915 0
M  V30 2813 C 269.899 3.57753 -2.51658 0
M  V30 2814 C 268.958 4.74265 -2.27945 0
M  V30 2815 O 267.984 4.82852 -3.01401 0
M  V30 2816 N 269.186 5.65604 -1.30662 0
M  V30 2817 H 271.951 1.74567 -2.43612 0
M  V30 2818 H 269.512 0.820924 -1.39544 0
M  V30 2819 H 271.504 3.8949 -1.09907 0
M  V30 2820 H 270.074 3.10121 -0.39293 0
M  V30 2821 H 269.294 2.72362 -2.84978 0
M  V30 2822 H 270.582 3.83847 -3.33974 0
M  V30 2823 H 269.98 5.61354 -0.699844 0
M  V30 2824 H 268.537 6.40913 -1.18634 0
M  V30 2825 N 271.97 1.30982 0.876444 0
M  V30 2826 C 272.88 1.2003 2.01569 0
M  V30 2827 C 273.896 0.11838 1.73597 0
M  V30 2828 O 275.072 0.33495 1.98595 0
M  V30 2829 C 272.137 0.901637 3.34771 0
M  V30 2830 C 271.198 2.06979 3.76109 0
M  V30 2831 C 270.431 1.78529 5.02954 0
M  V30 2832 O 270.654 0.717296 5.65872 0
M  V30 2833 O 269.588 2.64019 5.40905 0
M  V30 2834 H 273.414 2.15753 2.13739 0
M  V30 2835 H 270.999 1.10658 1.00375 0
M  V30 2836 H 272.881 0.750645 4.1466 0
M  V30 2837 H 271.556 -0.0256141 3.2369 0
M  V30 2838 H 270.463 2.27616 2.96887 0
M  V30 2839 H 271.796 2.97907 3.91807 0
M  V30 2840 N 273.449 -1.08991 1.13837 0
M  V30 2841 C 274.674 -1.85551 0.926585 0
M  V30 2842 C 275.099 -1.80782 -0.519566 0
M  V30 2843 O 274.457 -1.18855 -1.36906 0
M  V30 2844 C 274.505 -3.31266 1.42462 0
M  V30 2845 O 273.609 -4.07822 0.612789 0
M  V30 2846 H 272.95 -0.575192 0.331738 0
M  V30 2847 H 275.48 -1.37604 1.51414 0
M  V30 2848 H 275.49 -3.82112 1.43019 0
M  V30 2849 H 274.165 -3.34052 2.47754 0
M  V30 2850 H 272.742 -3.66731 0.675463 0
M  V30 2851 N 274.927 -0.932562 -1.27047 0
M  V30 2852 C 276.174 -0.575559 -1.94148 0
M  V30 2853 C 276.502 0.883984 -1.73251 0
M  V30 2854 O 275.757 1.64655 -1.0577 0
M  V30 2855 C 276.056 -0.853713 -3.47054 0
M  V30 2856 C 275.722 -2.29577 -3.88079 0
M  V30 2857 C 274.384 -2.68999 -3.9899 0
M  V30 2858 C 276.736 -3.23331 -4.08787 0
M  V30 2859 C 274.064 -4.01289 -4.28 0
M  V30 2860 C 276.416 -4.55207 -4.39282 0
M  V30 2861 C 275.08 -4.94457 -4.48407 0
M  V30 2862 H 274.35 -0.210612 -0.710439 0
M  V30 2863 H 276.997 -1.17744 -1.51025 0
M  V30 2864 H 275.302 -0.169204 -3.91434 0
M  V30 2865 H 276.999 -0.55639 -3.97121 0
M  V30 2866 H 273.589 -1.97994 -3.80127 0
M  V30 2867 H 277.773 -2.94074 -3.99793 0
M  V30 2868 H 273.029 -4.31374 -4.33275 0
M  V30 2869 H 277.203 -5.27852 -4.54252 0
M  V30 2870 H 274.83 -5.96994 -4.7064 0
M  V30 2871 N 276.405 1.4127 -0.698611 0
M  V30 2872 C 277.63 2.06024 -0.238512 0
M  V30 2873 C 278.055 1.5224 1.10475 0
M  V30 2874 O 277.413 0.650623 1.69223 0
M  V30 2875 C 277.461 3.59988 -0.209952 0
M  V30 2876 O 276.565 4.04282 0.814235 0
M  V30 2877 H 275.906 0.653829 -0.115775 0
M  V30 2878 H 278.436 1.8098 -0.954326 0
M  V30 2879 H 278.446 4.07979 -0.0418436 0
M  V30 2880 H 277.121 3.98503 -1.1903 0
M  V30 2881 H 275.698 3.6779 0.615234 0
M  V30 2882 N 277.883 0.443576 1.51229 0
M  V30 2883 C 279.108 -0.121648 2.07043 0
M  V30 2884 C 279.533 -1.35156 1.30823 0
M  V30 2885 O 278.891 -1.7793 0.347934 0
M  V30 2886 C 278.939 -0.41624 3.5819 0
M  V30 2887 O 278.043 -1.50163 3.8409 0
M  V30 2888 H 277.384 0.000871367 0.663999 0
M  V30 2889 H 279.914 0.626706 1.94765 0
M  V30 2890 H 279.924 -0.664867 4.02546 0
M  V30 2891 H 278.599 0.482653 4.1309 0
M  V30 2892 H 277.176 -1.24248 3.51592 0
M  V30 2893 N 279.361 -1.56624 0.175154 0
M  V30 2894 C 280.294 -2.14 -0.792412 0
M  V30 2895 C 281.272 -1.07114 -1.22333 0
M  V30 2896 O 282.456 -1.35112 -1.31442 0
M  V30 2897 C 279.583 -2.68268 -2.0676 0
M  V30 2898 C 278.629 -3.87562 -1.7804 0
M  V30 2899 S 279.462 -5.27074 -0.946222 0
M  V30 2900 C 280.618 -5.8475 -2.23199 0
M  V30 2901 H 280.851 -2.95736 -0.304588 0
M  V30 2902 H 278.384 -1.54349 -0.0395705 0
M  V30 2903 H 280.342 -3.00182 -2.80002 0
M  V30 2904 H 279.003 -1.86612 -2.52656 0
M  V30 2905 H 278.196 -4.23874 -2.72666 0
M  V30 2906 H 277.798 -3.56555 -1.12891 0
M  V30 2907 H 280.09 -5.97898 -3.18629 0
M  V30 2908 H 281.033 -6.81756 -1.91349 0
M  V30 2909 H 281.441 -5.13198 -2.35134 0
M  V30 2910 N 280.839 0.0985539 -1.57292 0
M  V30 2911 C 282.086 0.802678 -1.85912 0
M  V30 2912 C 282.414 1.78901 -0.763186 0
M  V30 2913 O 281.669 1.94178 0.243559 0
M  V30 2914 C 281.968 1.56927 -3.21105 0
M  V30 2915 C 281.634 0.725376 -4.45027 0
M  V30 2916 C 280.296 0.492726 -4.78671 0
M  V30 2917 C 282.648 0.138493 -5.21016 0
M  V30 2918 C 279.976 -0.336727 -5.85733 0
M  V30 2919 C 282.328 -0.678264 -6.28953 0
M  V30 2920 C 280.992 -0.921039 -6.61115 0
M  V30 2921 H 280.262 0.293721 -0.680301 0
M  V30 2922 H 282.909 0.0642841 -1.91392 0
M  V30 2923 H 281.214 2.37914 -3.11294 0
M  V30 2924 H 282.911 2.11841 -3.40477 0
M  V30 2925 H 279.501 0.916815 -4.18679 0
M  V30 2926 H 283.685 0.305404 -4.95359 0
M  V30 2927 H 278.941 -0.533836 -6.09065 0
M  V30 2928 H 283.115 -1.1399 -6.87007 0
M  V30 2929 H 280.742 -1.56556 -7.43905 0
M  V30 2930 N 282.317 1.53212 0.369288 0
M  V30 2931 C 283.728 1.60943 0.946276 0
M  V30 2932 C 284.079 0.47452 1.90375 0
M  V30 2933 O 283.204 -0.399597 2.12679 0
M  V30 2934 C 283.799 2.91715 1.72302 0
M  V30 2935 C 282.358 3.01792 2.24941 0
M  V30 2936 C 281.505 2.56211 1.06072 0
M  V30 2937 H 284.456 1.58007 0.148198 0
M  V30 2938 H 284.477 2.79309 2.58393 0
M  V30 2939 H 283.989 3.74295 1.0259 0
M  V30 2940 H 282.09 2.23791 2.97906 0
M  V30 2941 H 282.203 4.06803 2.53077 0
M  V30 2942 H 280.567 2.10998 1.4266 0
M  V30 2943 H 281.35 3.41206 0.378639 0
M  V30 2944 N 283.795 -0.628877 1.44509 0
M  V30 2945 C 284.705 -1.7694 1.54044 0
M  V30 2946 C 285.721 -1.68705 0.425987 0
M  V30 2947 O 286.897 -1.89442 0.683656 0
M  V30 2948 C 283.962 -3.13332 1.48405 0
M  V30 2949 C 283.023 -3.33181 2.70719 0
M  V30 2950 C 282.256 -4.63067 2.6534 0
M  V30 2951 O 282.479 -5.44017 1.71469 0
M  V30 2952 O 281.413 -4.85167 3.56226 0
M  V30 2953 H 285.239 -1.71848 2.50403 0
M  V30 2954 H 282.824 -0.790378 1.26781 0
M  V30 2955 H 284.706 -3.94634 1.47791 0
M  V30 2956 H 283.381 -3.1896 0.551898 0
M  V30 2957 H 282.288 -2.51549 2.769 0
M  V30 2958 H 283.621 -3.32416 3.62988 0
M  V30 2959 N 285.273 -1.31445 -0.869486 0
M  V30 2960 C 286.684 -1.19042 -1.43826 0
M  V30 2961 C 287.035 0.202919 -1.95148 0
M  V30 2962 O 286.16 1.10071 -1.86315 0
M  V30 2963 C 286.755 -2.15499 -2.6143 0
M  V30 2964 C 285.314 -2.07028 -3.14351 0
M  V30 2965 C 284.461 -2.04701 -1.87063 0
M  V30 2966 H 287.412 -1.43489 -0.677984 0
M  V30 2967 H 287.433 -1.74488 -3.38134 0
M  V30 2968 H 286.945 -3.16899 -2.24046 0
M  V30 2969 H 285.046 -1.08825 -3.56354 0
M  V30 2970 H 285.159 -2.96157 -3.766 0
M  V30 2971 H 283.523 -1.49724 -2.06046 0
M  V30 2972 H 284.306 -3.07857 -1.51917 0
M  V30 2973 N 286.751 1.08385 -1.14413 0
M  V30 2974 C 288.167 1.32844 -0.884563 0
M  V30 2975 C 288.367 1.95841 0.474181 0
M  V30 2976 O 287.423 2.21158 1.21842 0
M  V30 2977 C 288.736 2.22978 -2.01745 0
M  V30 2978 C 290.284 2.36458 -2.05077 0
M  V30 2979 C 290.759 3.29934 -3.1766 0
M  V30 2980 N 292.25 3.37511 -3.17239 0
M  V30 2981 C 292.985 4.09871 -4.0099 0
M  V30 2982 N 292.481 4.84936 -4.94781 0
M  V30 2983 N 294.274 4.05704 -3.89051 0
M  V30 2984 H 286.425 0.658756 -2.01926 0
M  V30 2985 H 288.688 0.352821 -0.879899 0
M  V30 2986 H 288.394 1.83934 -2.99769 0
M  V30 2987 H 288.268 3.23441 -1.94077 0
M  V30 2988 H 290.655 2.7476 -1.0766 0
M  V30 2989 H 290.736 1.35736 -2.16816 0
M  V30 2990 H 290.38 2.92352 -4.15322 0
M  V30 2991 H 290.31 4.30584 -3.03158 0
M  V30 2992 H 292.801 2.83996 -2.49308 0
M  V30 2993 H 293.114 5.37612 -5.55151 0
M  V30 2994 H 291.459 4.83988 -4.98779 0
M  V30 2995 H 294.65 3.46167 -3.15097 0
M  V30 2996 H 294.823 4.61834 -4.54547 0
M  V30 2997 N 288.23 0.939286 1.26551 0
M  V30 2998 C 289.162 0.404704 2.25599 0
M  V30 2999 C 290.175 -0.470983 1.55838 0
M  V30 3000 O 291.364 -0.281734 1.76263 0
M  V30 3001 C 288.464 -0.43764 3.36062 0
M  V30 3002 C 287.637 0.421449 4.35365 0
M  V30 3003 C 286.696 -0.36015 5.24966 0
M  V30 3004 O 285.722 0.236167 5.6871 0
M  V30 3005 N 286.924 -1.65715 5.56344 0
M  V30 3006 H 289.689 1.25618 2.72103 0
M  V30 3007 H 287.25 0.807963 1.40298 0
M  V30 3008 H 289.242 -0.967866 3.92956 0
M  V30 3009 H 287.812 -1.18991 2.89067 0
M  V30 3010 H 287.032 1.1329 3.7757 0
M  V30 3011 H 288.32 1.00835 4.98708 0
M  V30 3012 H 287.718 -2.16378 5.22682 0
M  V30 3013 H 286.275 -2.13366 6.15888 0
M  V30 3014 N 289.708 -1.40897 0.706093 0
M  V30 3015 C 291.124 -1.55042 0.37869 0
M  V30 3016 C 291.324 -1.67944 -1.11342 0
M  V30 3017 O 290.38 -1.66372 -1.89938 0
M  V30 3018 C 291.693 -2.78398 1.13643 0
M  V30 3019 C 293.241 -2.92206 1.12181 0
M  V30 3020 C 293.716 -4.18463 1.86152 0
M  V30 3021 N 295.207 -4.25443 1.83173 0
M  V30 3022 C 295.942 -5.2202 2.37239 0
M  V30 3023 N 295.438 -6.24563 2.99821 0
M  V30 3024 N 297.231 -5.14033 2.27435 0
M  V30 3025 H 289.382 -1.30769 1.67372 0
M  V30 3026 H 291.645 -0.631653 0.706907 0
M  V30 3027 H 291.351 -2.7511 2.19106 0
M  V30 3028 H 291.225 -3.70228 0.721853 0
M  V30 3029 H 293.612 -2.95004 0.0754171 0
M  V30 3030 H 293.693 -2.01521 1.57554 0
M  V30 3031 H 293.337 -4.16427 2.90776 0
M  V30 3032 H 293.267 -5.08141 1.38206 0
M  V30 3033 H 295.758 -3.51976 1.37556 0
M  V30 3034 H 296.071 -6.94665 3.38616 0
M  V30 3035 H 294.416 -6.25035 3.03902 0
M  V30 3036 H 297.607 -4.3285 1.78208 0
M  V30 3037 H 297.78 -5.89129 2.69873 0
M  V30 3038 N 291.186 -0.45159 -1.50991 0
M  V30 3039 C 292.432 0.102439 -2.03142 0
M  V30 3040 C 292.787 1.39138 -1.32884 0
M  V30 3041 O 292.08 1.86493 -0.439438 0
M  V30 3042 C 292.274 0.361728 -3.55565 0
M  V30 3043 C 292.103 -0.900535 -4.40591 0
M  V30 3044 C 290.873 -1.43821 -4.844 0
M  V30 3045 C 293.071 -1.79063 -4.82121 0
M  V30 3046 N 291.053 -2.65153 -5.53685 0
M  V30 3047 C 292.424 -2.84991 -5.50618 0
M  V30 3048 C 294.479 -1.80334 -4.64095 0
M  V30 3049 C 293.182 -3.92155 -6.02998 0
M  V30 3050 C 295.208 -2.86442 -5.17402 0
M  V30 3051 C 294.57 -3.9109 -5.85857 0
M  V30 3052 H 290.669 -0.00204537 -0.781997 0
M  V30 3053 H 293.253 -0.615446 -1.84717 0
M  V30 3054 H 291.424 1.04865 -3.73976 0
M  V30 3055 H 293.156 0.908372 -3.94374 0
M  V30 3056 H 289.911 -0.990117 -4.63135 0
M  V30 3057 H 290.335 -3.26717 -5.92946 0
M  V30 3058 H 294.977 -1.00753 -4.1062 0
M  V30 3059 H 292.695 -4.72565 -6.55521 0
M  V30 3060 H 296.281 -2.88386 -5.05297 0
M  V30 3061 H 295.161 -4.71845 -6.26364 0
M  V30 3062 N 292.664 1.56529 -0.183458 0
M  V30 3063 C 293.913 1.96419 0.458511 0
M  V30 3064 C 294.226 1.0727 1.63562 0
M  V30 3065 O 295.432 1.36893 2.34462 0
M  V30 3066 C 293.888 3.49298 0.867122 0
M  V30 3067 C 293.496 4.47092 -0.285057 0
M  V30 3068 C 295.24 3.97983 1.47683 0
M  V30 3069 C 293.147 5.91225 0.143862 0
M  V30 3070 H 292.077 0.733394 0.175071 0
M  V30 3071 H 294.728 1.81448 -0.273624 0
M  V30 3072 H 293.11 3.59731 1.65559 0
M  V30 3073 H 294.284 4.48383 -1.0625 0
M  V30 3074 H 292.599 4.08535 -0.805503 0
M  V30 3075 H 295.196 5.03134 1.80999 0
M  V30 3076 H 295.539 3.41618 2.37914 0
M  V30 3077 H 296.072 3.90617 0.752562 0
M  V30 3078 H 292.811 6.5149 -0.723974 0
M  V30 3079 H 292.331 5.93214 0.886413 0
M  V30 3080 H 294.01 6.44362 0.583628 0
M  V30 3081 N 294.142 -0.090211 1.57342 0
M  V30 3082 C 295.419 -0.824761 1.77361 0
M  V30 3083 C 295.799 -1.96698 0.76637 0
M  V30 3084 O 295.147 -2.27586 -0.204179 0
M  V30 3085 C 295.357 -1.31481 3.23286 0
M  V30 3086 C 296.705 -1.75563 3.86604 0
M  V30 3087 O 297.729 -1.41093 3.27065 0
M  V30 3088 O 296.588 -2.39317 4.91314 0
M  V30 3089 H 293.682 -0.393776 0.727234 0
M  V30 3090 H 296.228 -0.0717138 1.69548 0
M  V30 3091 H 295 -0.496671 3.88135 0
M  V30 3092 H 294.623 -2.12973 3.35751 0
M  V30 3093 N 295.62 -1.53406 -0.361157 0
M  V30 3094 C 296.583 -1.79479 -1.42548 0
M  V30 3095 C 297.583 -0.665327 -1.4639 0
M  V30 3096 O 298.773 -0.933549 -1.47073 0
M  V30 3097 C 295.905 -1.92087 -2.8163 0
M  V30 3098 H 297.098 -2.74538 -1.20701 0
M  V30 3099 H 294.651 -1.4455 -0.594546 0
M  V30 3100 H 295.386 -0.991099 -3.08784 0
M  V30 3101 H 295.171 -2.74241 -2.80239 0
M  V30 3102 H 296.661 -2.13836 -3.58697 0
M  V30 3103 N 297.098 0.621204 -1.44841 0
M  V30 3104 C 298.028 1.74366 -1.55303 0
M  V30 3105 C 299.009 1.65199 -0.405385 0
M  V30 3106 O 300.194 1.83807 -0.626787 0
M  V30 3107 C 297.324 3.12931 -1.50637 0
M  V30 3108 C 296.278 3.36896 -2.63979 0
M  V30 3109 C 295.604 4.75594 -2.44366 0
M  V30 3110 C 296.904 3.28483 -4.06074 0
M  V30 3111 H 298.598 1.65867 -2.49256 0
M  V30 3112 H 296.144 0.796558 -1.19962 0
M  V30 3113 H 298.097 3.9124 -1.56555 0
M  V30 3114 H 296.821 3.22237 -0.532057 0
M  V30 3115 H 295.48 2.60972 -2.57467 0
M  V30 3116 H 295.128 4.81616 -1.45105 0
M  V30 3117 H 294.828 4.92586 -3.20364 0
M  V30 3118 H 296.352 5.5612 -2.52117 0
M  V30 3119 H 297.766 3.96684 -4.13902 0
M  V30 3120 H 296.163 3.57008 -4.82354 0
M  V30 3121 H 297.233 2.26133 -4.28943 0
M  V30 3122 N 298.576 1.31904 0.862503 0
M  V30 3123 C 299.539 1.20131 1.95195 0
M  V30 3124 C 300.539 0.126409 1.60302 0
M  V30 3125 O 301.729 0.376234 1.70089 0
M  V30 3126 C 298.861 0.845691 3.30244 0
M  V30 3127 H 300.054 2.16943 2.07064 0
M  V30 3128 H 297.607 1.15622 1.05172 0
M  V30 3129 H 298.342 -0.120957 3.24074 0
M  V30 3130 H 298.127 1.62276 3.56944 0
M  V30 3131 H 299.617 0.787418 4.10109 0
M  V30 3132 N 300.054 -1.07777 1.14986 0
M  V30 3133 C 301.279 -1.84558 0.946213 0
M  V30 3134 C 301.704 -1.81323 -0.500362 0
M  V30 3135 O 301.062 -1.20301 -1.35637 0
M  V30 3136 C 301.11 -3.29736 1.45968 0
M  V30 3137 O 300.214 -4.07149 0.65601 0
M  V30 3138 H 299.555 -0.571641 0.33782 0
M  V30 3139 H 302.085 -1.35991 1.52865 0
M  V30 3140 H 302.095 -3.80574 1.47063 0
M  V30 3141 H 300.77 -3.31406 2.51283 0
M  V30 3142 H 299.347 -3.65994 0.714322 0
M  V30 3143 N 301.532 -0.945985 -1.26051 0
M  V30 3144 C 302.757 -0.612525 -1.98149 0
M  V30 3145 C 303.182 0.806623 -1.69927 0
M  V30 3146 O 302.54 1.54411 -0.950108 0
M  V30 3147 C 302.588 -0.866981 -3.50023 0
M  V30 3148 O 301.692 0.0585333 -4.12358 0
M  V30 3149 H 301.033 -0.23379 -0.621481 0
M  V30 3150 H 303.563 -1.27023 -1.60395 0
M  V30 3151 H 303.573 -0.789792 -4.00283 0
M  V30 3152 H 302.248 -1.90135 -3.69894 0
M  V30 3153 H 300.825 -0.0701241 -3.72834 0
M  V30 3154 N 303.011 1.40521 -0.713556 0
M  V30 3155 C 304.288 1.94775 -0.17943 0
M  V30 3156 C 304.668 1.65184 1.31444 0
M  V30 3157 O 304.016 0.968429 2.06963 0
M  V30 3158 C 304.226 3.45543 -0.489986 0
M  V30 3159 C 305.574 4.22442 -0.427536 0
M  V30 3160 O 306.598 3.53644 -0.425929 0
M  V30 3161 O 305.457 5.4501 -0.403292 0
M  V30 3162 H 302.551 0.826606 -0.0255192 0
M  V30 3163 H 305.097 1.5014 -0.790949 0
M  V30 3164 H 303.869 3.60432 -1.5233 0
M  V30 3165 H 303.492 3.97311 0.151598 0
M  V30 3166 N 304.489 0.459591 1.5075 0
M  V30 3167 C 305.399 -0.34613 2.32033 0
M  V30 3168 C 306.415 -1.00686 1.41909 0
M  V30 3169 O 307.591 -0.997361 1.7497 0
M  V30 3170 C 304.656 -1.42029 3.16273 0
M  V30 3171 C 303.717 -0.777362 4.22203 0
M  V30 3172 C 302.95 -1.80034 5.02418 0
M  V30 3173 O 303.173 -3.02544 4.83553 0
M  V30 3174 O 302.107 -1.37853 5.85901 0
M  V30 3175 H 305.933 0.318054 3.0203 0
M  V30 3176 H 303.518 0.221663 1.47746 0
M  V30 3177 H 305.4 -2.04275 3.68578 0
M  V30 3178 H 304.075 -2.06815 2.49016 0
M  V30 3179 H 302.982 -0.116256 3.73919 0
M  V30 3180 H 304.315 -0.172634 4.91897 0
M  V30 3181 N 305.967 -1.56429 0.191757 0
M  V30 3182 C 307.244 -1.89224 -0.495332 0
M  V30 3183 C 307.624 -1.10478 -1.79883 0
M  V30 3184 O 306.972 -0.204852 -2.2758 0
M  V30 3185 C 307.182 -3.41548 -0.717367 0
M  V30 3186 C 308.53 -4.11711 -1.03823 0
M  V30 3187 O 309.554 -3.4698 -0.805204 0
M  V30 3188 O 308.413 -5.2611 -1.47887 0
M  V30 3189 H 305.507 -0.785788 -0.25781 0
M  V30 3190 H 308.053 -1.68111 0.231721 0
M  V30 3191 H 306.825 -3.90772 0.203287 0
M  V30 3192 H 306.448 -3.68342 -1.497 0
M  V30 3193 N 307.445 0.0818655 -1.57387 0
M  V30 3194 C 308.694 0.781681 -1.85937 0
M  V30 3195 C 309.007 1.79246 -0.782957 0
M  V30 3196 O 310.213 2.54112 -0.955987 0
M  V30 3197 C 308.669 1.44109 -3.29789 0
M  V30 3198 C 308.277 0.469396 -4.45534 0
M  V30 3199 C 310.021 2.12386 -3.67549 0
M  V30 3200 C 307.928 1.13415 -5.80423 0
M  V30 3201 H 306.858 0.295682 -0.693605 0
M  V30 3202 H 309.509 0.0348051 -1.83467 0
M  V30 3203 H 307.891 2.23588 -3.2684 0
M  V30 3204 H 309.065 -0.294856 -4.59856 0
M  V30 3205 H 307.38 -0.108383 -4.16259 0
M  V30 3206 H 309.977 2.62878 -4.65617 0
M  V30 3207 H 310.32 2.91877 -2.96839 0
M  V30 3208 H 310.853 1.39751 -3.72444 0
M  V30 3209 H 307.592 0.379771 -6.54399 0
M  V30 3210 H 307.112 1.8695 -5.69921 0
M  V30 3211 H 308.791 1.65686 -6.25426 0
M  V30 3212 N 308.923 1.53595 0.353017 0
M  V30 3213 C 309.87 1.80919 1.43308 0
M  V30 3214 C 310.84 0.654288 1.5267 0
M  V30 3215 O 312.025 0.897759 1.6836 0
M  V30 3216 C 309.165 2.01605 2.80089 0
M  V30 3217 C 308.278 3.29321 2.79593 0
M  V30 3218 C 307.413 3.40125 4.0803 0
M  V30 3219 C 306.452 4.61826 4.01725 0
M  V30 3220 N 305.589 4.69716 5.21834 0
M  V30 3221 H 310.429 2.73074 1.19308 0
M  V30 3222 H 307.966 1.35263 0.578131 0
M  V30 3223 H 309.924 2.11586 3.59565 0
M  V30 3224 H 308.554 1.12772 3.0246 0
M  V30 3225 H 307.606 3.28229 1.92276 0
M  V30 3226 H 308.918 4.18884 2.70809 0
M  V30 3227 H 308.072 3.49488 4.95927 0
M  V30 3228 H 306.811 2.48601 4.19582 0
M  V30 3229 H 305.816 4.52552 3.12213 0
M  V30 3230 H 307.041 5.54705 3.91764 0
M  V30 3231 H 304.987 3.81097 5.33948 0
M  V30 3232 H 304.904 5.53202 5.1527 0
M  V30 3233 H 306.172 4.83376 6.11529 0
M  V30 3234 N 310.401 -0.613514 1.45168 0
M  V30 3235 C 311.629 -1.39946 1.5239 0
M  V30 3236 C 312.044 -1.88167 0.154531 0
M  V30 3237 O 311.401 -1.61872 -0.842843 0
M  V30 3238 C 311.452 -2.60795 2.50337 0
M  V30 3239 O 311.173 -2.1458 3.81952 0
M  V30 3240 C 312.674 -3.53723 2.67198 0
M  V30 3241 H 309.894 -0.428593 0.516284 0
M  V30 3242 H 312.438 -0.748753 1.903 0
M  V30 3243 H 310.593 -3.21919 2.15515 0
M  V30 3244 H 311.007 -2.93055 4.34993 0
M  V30 3245 H 312.481 -4.35079 3.39721 0
M  V30 3246 H 312.958 -4.0368 1.73029 0
M  V30 3247 H 313.564 -2.98456 3.02992 0
M  V30 3248 N 311.879 -1.3236 -0.855495 0
M  V30 3249 C 312.809 -1.23833 -1.97958 0
M  V30 3250 C 313.79 -0.122361 -1.69659 0
M  V30 3251 O 314.975 -0.30939 -1.9172 0
M  V30 3252 C 312.105 -0.959772 -3.33775 0
M  V30 3253 C 311.059 -2.03689 -3.76424 0
M  V30 3254 C 310.385 -1.61075 -5.09862 0
M  V30 3255 C 311.685 -3.4518 -3.9198 0
M  V30 3256 H 313.379 -2.1788 -2.0535 0
M  V30 3257 H 310.925 -1.04891 -0.986605 0
M  V30 3258 H 312.878 -0.886678 -4.11966 0
M  V30 3259 H 311.602 0.0163404 -3.26596 0
M  V30 3260 H 310.261 -2.10012 -3.00484 0
M  V30 3261 H 309.909 -0.622107 -4.99138 0
M  V30 3262 H 309.609 -2.33143 -5.39368 0
M  V30 3263 H 311.133 -1.55201 -5.90546 0
M  V30 3264 H 312.547 -3.4145 -4.60526 0
M  V30 3265 H 310.944 -4.1559 -4.32903 0
M  V30 3266 H 312.014 -3.84903 -2.94919 0
M  V30 3267 N 313.357 1.07166 -1.15556 0
M  V30 3268 C 314.768 1.6127 -0.940693 0
M  V30 3269 C 315.119 1.89251 0.517551 0
M  V30 3270 O 314.244 1.65937 1.38903 0
M  V30 3271 C 314.839 2.92993 -1.7012 0
M  V30 3272 C 313.398 3.43832 -1.53156 0
M  V30 3273 C 312.545 2.1786 -1.71558 0
M  V30 3274 H 315.496 0.90229 -1.30554 0
M  V30 3275 H 315.517 3.62007 -1.17181 0
M  V30 3276 H 315.029 2.72596 -2.76248 0
M  V30 3277 H 313.13 3.69307 -0.494294 0
M  V30 3278 H 313.243 4.19747 -2.30975 0
M  V30 3279 H 311.607 2.2765 -1.14225 0
M  V30 3280 H 312.39 1.99956 -2.79056 0
M  V30 3281 N 314.835 0.952656 1.25548 0
M  V30 3282 C 315.783 0.462354 2.27958 0
M  V30 3283 C 316.777 -0.46634 1.62855 0
M  V30 3284 O 317.983 -0.343287 1.76696 0
M  V30 3285 H 314.358 0.13101 0.7405 0
M  V30 3286 H 316.329 1.33839 2.66702 0
M  V30 3287 C 315.078 -0.24628 3.46827 0
M  V30 3288 H 314.401 0.459192 3.97154 0
M  V30 3289 H 315.841 -0.553393 4.20373 0
M  V30 3290 C 314.3 -1.4681 3.0323 0
M  V30 3291 O 314.83 -2.56591 3.09069 0
M  V30 3292 N 313.036 -1.32874 2.58443 0
M  V30 3293 H 312.583 -0.435536 2.53891 0
M  V30 3294 H 312.541 -2.14742 2.29637 0
M  V30 3295 N 316.313 -1.40141 0.720998 0
M  V30 3296 C 317.223 -2.34486 0.0731031 0
M  V30 3297 C 318.239 -1.57587 -0.737723 0
M  V30 3298 O 319.415 -1.89949 -0.669429 0
M  V30 3299 C 316.48 -3.36528 -0.833656 0
M  V30 3300 C 315.541 -4.29298 -0.0121673 0
M  V30 3301 C 314.774 -5.26466 -0.875742 0
M  V30 3302 O 314.997 -5.29745 -2.11485 0
M  V30 3303 O 313.931 -6.01092 -0.31185 0
M  V30 3304 H 317.757 -2.9152 0.851444 0
M  V30 3305 H 315.342 -1.41427 0.481527 0
M  V30 3306 H 317.224 -3.99093 -1.35289 0
M  V30 3307 H 315.899 -2.81899 -1.59105 0
M  V30 3308 H 314.806 -3.70001 0.552262 0
M  V30 3309 H 316.139 -4.87094 0.707129 0
M  V30 3310 N 317.792 -0.46758 -1.50504 0
M  V30 3311 C 319.02 0.0864133 -2.06719 0
M  V30 3312 C 319.435 1.33819 -1.33184 0
M  V30 3313 O 318.792 1.78061 -0.400083 0
M  V30 3314 C 318.843 0.378079 -3.59517 0
M  V30 3315 O 318.564 -0.824044 -4.3028 0
M  V30 3316 C 320.065 0.979426 -4.32345 0
M  V30 3317 H 317.285 -0.00551697 -0.670977 0
M  V30 3318 H 319.829 -0.655354 -1.93715 0
M  V30 3319 H 317.984 1.06977 -3.72337 0
M  V30 3320 H 318.398 -0.566518 -5.21432 0
M  V30 3321 H 319.872 1.1333 -5.40241 0
M  V30 3322 H 320.349 1.9686 -3.9261 0
M  V30 3323 H 320.955 0.326216 -4.24047 0
M  V30 3324 N 319.27 1.56325 -0.20005 0
M  V30 3325 C 320.2 2.22318 0.713916 0
M  V30 3326 C 321.181 1.18788 1.21752 0
M  V30 3327 O 322.366 1.47309 1.26545 0
M  V30 3328 C 319.496 2.88639 1.93144 0
M  V30 3329 C 318.45 3.98457 1.56255 0
M  V30 3330 C 317.776 4.51967 2.85709 0
M  V30 3331 C 319.076 5.16612 0.768747 0
M  V30 3332 H 320.77 2.98952 0.163755 0
M  V30 3333 H 318.316 1.43792 0.0773219 0
M  V30 3334 H 320.269 3.33491 2.57608 0
M  V30 3335 H 318.993 2.09419 2.50621 0
M  V30 3336 H 317.652 3.54305 0.941471 0
M  V30 3337 H 317.3 3.69503 3.41287 0
M  V30 3338 H 317 5.26071 2.6177 0
M  V30 3339 H 318.524 4.99523 3.51154 0
M  V30 3340 H 319.938 5.57977 1.3166 0
M  V30 3341 H 318.335 5.96812 0.627286 0
M  V30 3342 H 319.405 4.84358 -0.229168 0
M  V30 3343 N 320.748 -0.0735177 1.57428 0
M  V30 3344 C 321.997 -0.771809 1.86349 0
M  V30 3345 C 322.31 -1.78828 0.792452 0
M  V30 3346 O 323.516 -2.53602 0.96945 0
M  V30 3347 C 321.972 -1.42358 3.30548 0
M  V30 3348 C 321.58 -0.445761 4.45777 0
M  V30 3349 C 323.324 -2.10434 3.6867 0
M  V30 3350 C 321.231 -1.10335 5.81016 0
M  V30 3351 H 320.161 -0.291999 0.695164 0
M  V30 3352 H 322.812 -0.0250749 1.83483 0
M  V30 3353 H 321.194 -2.21852 3.28021 0
M  V30 3354 H 322.368 0.319239 4.59693 0
M  V30 3355 H 320.683 0.130457 4.16196 0
M  V30 3356 H 323.28 -2.60405 4.67004 0
M  V30 3357 H 323.623 -2.90298 2.98383 0
M  V30 3358 H 324.156 -1.37773 3.7318 0
M  V30 3359 H 320.895 -0.345061 6.54591 0
M  V30 3360 H 320.415 -1.83925 5.70904 0
M  V30 3361 H 322.094 -1.62367 6.26295 0
M  V30 3362 N 322.226 -1.5378 -0.344866 0
M  V30 3363 C 323.475 -1.7018 -1.08267 0
M  V30 3364 C 323.788 -0.471 -1.89845 0
M  V30 3365 O 324.994 -0.515917 -2.66553 0
M  V30 3366 C 323.45 -3.00923 -1.97417 0
M  V30 3367 C 323.058 -4.31335 -1.21053 0
M  V30 3368 C 324.802 -3.26688 -2.71063 0
M  V30 3369 C 322.709 -5.53153 -2.09225 0
M  V30 3370 H 321.639 -0.634138 -0.407903 0
M  V30 3371 H 324.29 -1.8028 -0.342246 0
M  V30 3372 H 322.672 -2.84676 -2.75274 0
M  V30 3373 H 323.846 -4.58281 -0.481159 0
M  V30 3374 H 322.161 -4.12173 -0.591813 0
M  V30 3375 H 324.758 -4.1489 -3.37299 0
M  V30 3376 H 325.101 -2.43639 -3.37558 0
M  V30 3377 H 325.634 -3.43705 -2.0028 0
M  V30 3378 H 322.373 -6.38741 -1.47274 0
M  V30 3379 H 321.893 -5.30458 -2.79955 0
M  V30 3380 H 323.572 -5.88744 -2.68308 0
M  V30 3381 N 323.704 0.605807 -1.45491 0
M  V30 3382 C 324.654 1.71074 -1.50724 0
M  V30 3383 C 325.638 1.5658 -0.37033 0
M  V30 3384 O 326.83 1.65887 -0.617299 0
M  V30 3385 C 323.959 3.0983 -1.47852 0
M  V30 3386 C 323.045 3.29704 -2.66751 0
M  V30 3387 N 323.436 3.19831 -3.91844 0
M  V30 3388 C 321.734 3.60579 -2.62486 0
M  V30 3389 C 322.435 3.41083 -4.71208 0
M  V30 3390 N 321.411 3.65157 -4.02693 0
M  V30 3391 H 325.213 1.61937 -2.45263 0
M  V30 3392 H 322.727 0.80912 -1.40808 0
M  V30 3393 H 324.724 3.89101 -1.49686 0
M  V30 3394 H 323.384 3.20115 -0.543714 0
M  V30 3395 H 324.395 2.98194 -4.23439 0
M  V30 3396 H 321.072 3.7769 -1.77922 0
M  V30 3397 H 322.462 3.38828 -5.80211 0
M  V30 3398 N 325.182 1.32811 0.848464 0
M  V30 3399 C 326.43 1.23479 1.59991 0
M  V30 3400 C 326.751 -0.201853 1.93952 0
M  V30 3401 O 326.021 -1.12818 1.60153 0
M  V30 3402 H 324.601 0.454034 0.593179 0
M  V30 3403 H 327.263 1.66412 1.01455 0
M  V30 3404 H 326.359 1.82178 2.53412 0
M  V30 3405 N 326.66 -1.06551 1.16123 0
M  V30 3406 C 328.076 -1.3142 0.905585 0
M  V30 3407 C 328.276 -1.96571 -0.442964 0
M  V30 3408 O 327.332 -2.23068 -1.18308 0
M  V30 3409 C 328.645 -2.19741 2.05267 0
M  V30 3410 C 330.193 -2.33165 2.08813 0
M  V30 3411 C 330.668 -3.24838 3.22868 0
M  V30 3412 N 332.159 -3.32421 3.22568 0
M  V30 3413 C 332.894 -4.0344 4.0746 0
M  V30 3414 N 332.39 -4.77003 5.02434 0
M  V30 3415 N 334.183 -3.99464 3.95456 0
M  V30 3416 H 326.334 -0.626548 2.02949 0
M  V30 3417 H 328.597 -0.338777 0.8854 0
M  V30 3418 H 328.303 -1.79142 3.02657 0
M  V30 3419 H 328.177 -3.20313 1.99198 0
M  V30 3420 H 330.564 -2.73013 1.12018 0
M  V30 3421 H 330.645 -1.3227 2.18948 0
M  V30 3422 H 330.289 -2.85708 4.19921 0
M  V30 3423 H 330.219 -4.25707 3.0997 0
M  V30 3424 H 332.71 -2.79994 2.53795 0
M  V30 3425 H 333.023 -5.28712 5.63634 0
M  V30 3426 H 331.368 -4.75992 5.06415 0
M  V30 3427 H 334.559 -3.4111 3.20564 0
M  V30 3428 H 334.732 -4.54544 4.61837 0
M  V30 3429 N 328.138 -0.959301 -1.25041 0
M  V30 3430 C 329.048 -0.489994 -2.29426 0
M  V30 3431 C 330.064 0.444944 -1.68215 0
M  V30 3432 O 331.24 0.320046 -1.98841 0
M  V30 3433 C 328.305 0.220309 -3.45999 0
M  V30 3434 C 327.366 -0.753418 -4.22637 0
M  V30 3435 C 326.599 -0.076918 -5.33645 0
M  V30 3436 O 326.822 1.13649 -5.58963 0
M  V30 3437 O 325.756 -0.764824 -5.97021 0
M  V30 3438 H 329.582 -1.35755 -2.71669 0
M  V30 3439 H 327.167 -0.725961 -1.30576 0
M  V30 3440 H 329.049 0.619677 -4.16819 0
M  V30 3441 H 327.724 1.06296 -3.0575 0
M  V30 3442 H 326.631 -1.20308 -3.54227 0
M  V30 3443 H 327.964 -1.56423 -4.66683 0
M  V30 3444 N 329.616 1.39756 -0.72842 0
M  V30 3445 C 330.893 1.94574 -0.200079 0
M  V30 3446 C 331.273 1.66569 1.29684 0
M  V30 3447 O 330.621 0.990326 2.05924 0
M  V30 3448 C 330.831 3.45004 -0.526608 0
M  V30 3449 C 332.179 4.21965 -0.472318 0
M  V30 3450 O 333.203 3.53173 -0.463413 0
M  V30 3451 O 332.062 5.44552 -0.461075 0
M  V30 3452 H 329.156 0.826289 -0.0342851 0
M  V30 3453 H 331.702 1.49293 -0.806829 0
M  V30 3454 H 330.474 3.58796 -1.56144 0
M  V30 3455 H 330.097 3.97449 0.109449 0
M  V30 3456 N 331.094 0.475555 1.50254 0
M  V30 3457 C 332.026 -0.352649 2.26471 0
M  V30 3458 C 333.039 -0.953165 1.3198 0
M  V30 3459 O 334.228 -0.840815 1.57457 0
M  V30 3460 C 331.328 -1.50902 3.0345 0
M  V30 3461 C 330.501 -1.02047 4.25329 0
M  V30 3462 C 329.56 -2.05142 4.84565 0
M  V30 3463 O 328.586 -1.63023 5.45355 0
M  V30 3464 N 329.788 -3.37987 4.71959 0
M  V30 3465 H 332.553 0.300767 2.98187 0
M  V30 3466 H 330.114 0.306598 1.5897 0
M  V30 3467 H 332.106 -2.19572 3.39956 0
M  V30 3468 H 330.676 -2.06705 2.34504 0
M  V30 3469 H 329.896 -0.159507 3.93877 0
M  V30 3470 H 331.184 -0.672061 5.04342 0
M  V30 3471 H 330.582 -3.74913 4.23623 0
M  V30 3472 H 329.139 -4.02443 5.12721 0
M  V30 3473 N 332.573 -1.56217 0.208337 0
M  V30 3474 C 333.819 -1.98242 -0.427552 0
M  V30 3475 C 334.152 -1.09554 -1.60348 0
M  V30 3476 O 333.427 -0.15035 -1.93918 0
M  V30 3477 C 333.71 -3.4931 -0.874907 0
M  V30 3478 C 333.563 -4.48773 0.303751 0
M  V30 3479 C 334.882 -4.04424 -1.73577 0
M  V30 3480 H 332.001 -0.720744 -0.153936 0
M  V30 3481 H 334.643 -1.87586 0.30192 0
M  V30 3482 H 332.793 -3.58522 -1.49648 0
M  V30 3483 H 334.465 -4.51586 0.941682 0
M  V30 3484 H 332.708 -4.23194 0.953375 0
M  V30 3485 H 333.379 -5.51976 -0.0519883 0
M  V30 3486 H 335.855 -3.98075 -1.21143 0
M  V30 3487 H 334.731 -5.1047 -2.01771 0
M  V30 3488 H 334.992 -3.50494 -2.69456 0
M  V30 3489 N 334.051 0.0651679 -1.57465 0
M  V30 3490 C 335.297 0.764193 -1.87851 0
M  V30 3491 C 335.63 1.76889 -0.801495 0
M  V30 3492 O 334.905 1.93594 0.187528 0
M  V30 3493 C 335.188 1.46625 -3.28897 0
M  V30 3494 C 335.041 0.477515 -4.47258 0
M  V30 3495 C 336.36 2.4095 -3.68281 0
M  V30 3496 H 333.479 0.276351 -0.683227 0
M  V30 3497 H 336.121 0.0272868 -1.8998 0
M  V30 3498 H 334.271 2.09438 -3.27212 0
M  V30 3499 H 335.943 -0.145922 -4.61069 0
M  V30 3500 H 334.186 -0.206576 -4.33308 0
M  V30 3501 H 334.857 1.0065 -5.42746 0
M  V30 3502 H 337.333 1.88209 -3.71102 0
M  V30 3503 H 336.209 2.87072 -4.67847 0
M  V30 3504 H 336.47 3.26049 -2.98571 0
M  V30 3505 N 335.529 1.53961 0.336706 0
M  V30 3506 C 336.94 1.62914 0.911925 0
M  V30 3507 C 337.291 0.514795 1.89326 0
M  V30 3508 O 336.416 -0.354395 2.13478 0
M  V30 3509 C 337.011 2.95304 1.66076 0
M  V30 3510 C 335.57 3.06496 2.18489 0
M  V30 3511 C 334.717 2.58403 1.00613 0
M  V30 3512 H 337.668 1.58285 0.114649 0
M  V30 3513 H 337.689 2.84727 2.5241 0
M  V30 3514 H 337.201 3.76387 0.946276 0
M  V30 3515 H 335.302 2.3006 2.93092 0
M  V30 3516 H 335.415 4.1208 2.44391 0
M  V30 3517 H 333.779 2.13977 1.38152 0
M  V30 3518 H 334.562 3.41932 0.306179 0
M  V30 3519 N 337.007 -0.598083 1.45811 0
M  V30 3520 C 337.937 -1.71873 1.58057 0
M  V30 3521 C 338.918 -1.64533 0.431615 0
M  V30 3522 O 340.103 -1.82787 0.65595 0
M  V30 3523 C 337.233 -3.10495 1.55597 0
M  V30 3524 C 336.187 -3.32654 2.69305 0
M  V30 3525 C 335.513 -4.71646 2.51902 0
M  V30 3526 C 336.813 -3.21981 4.11248 0
M  V30 3527 H 338.507 -1.61881 2.51863 0
M  V30 3528 H 336.053 -0.777372 1.21214 0
M  V30 3529 H 338.006 -3.88699 1.6276 0
M  V30 3530 H 336.73 -3.2135 0.583255 0
M  V30 3531 H 335.389 -2.56843 2.61586 0
M  V30 3532 H 335.037 -4.79246 1.52748 0
M  V30 3533 H 334.737 -4.87426 3.2816 0
M  V30 3534 H 336.261 -5.52038 2.60933 0
M  V30 3535 H 337.675 -3.90049 4.20161 0
M  V30 3536 H 336.072 -3.49289 4.87972 0
M  V30 3537 H 337.142 -2.1928 4.32486 0
M  V30 3538 N 338.485 -1.33259 -0.841409 0
M  V30 3539 C 339.71 -1.2775 -1.63385 0
M  V30 3540 C 340.135 0.149188 -1.87507 0
M  V30 3541 O 339.493 1.10498 -1.43736 0
M  V30 3542 C 339.541 -2.05571 -2.96265 0
M  V30 3543 O 338.645 -1.41257 -3.87453 0
M  V30 3544 H 337.986 -0.439627 -0.497618 0
M  V30 3545 H 340.516 -1.75782 -1.04699 0
M  V30 3546 H 340.526 -2.16241 -3.45982 0
M  V30 3547 H 339.201 -3.09309 -2.7803 0
M  V30 3548 H 337.778 -1.39217 -3.45938 0
M  V30 3549 N 339.963 1.05934 -1.16686 0
M  V30 3550 C 341.188 1.83029 -0.975455 0
M  V30 3551 C 341.613 1.82096 0.471452 0
M  V30 3552 O 340.971 1.22443 1.33706 0
M  V30 3553 C 341.019 3.27372 -1.51195 0
M  V30 3554 O 340.123 4.06054 -0.720701 0
M  V30 3555 H 339.464 0.566194 -0.346872 0
M  V30 3556 H 341.994 1.33541 -1.55009 0
M  V30 3557 H 342.004 3.78186 -1.53099 0
M  V30 3558 H 340.679 3.27366 -2.56523 0
M  V30 3559 H 339.256 3.64812 -0.772458 0
M  V30 3560 N 341.441 0.965919 1.2453 0
M  V30 3561 C 342.666 0.643971 1.97149 0
M  V30 3562 C 343.091 -0.779487 1.71189 0
M  V30 3563 O 342.449 -1.5288 0.974553 0
M  V30 3564 C 342.497 0.922557 3.48599 0
M  V30 3565 O 341.601 0.00707672 4.12399 0
M  V30 3566 H 340.942 0.243647 0.617683 0
M  V30 3567 H 343.472 1.29558 1.58353 0
M  V30 3568 H 343.482 0.853373 3.98976 0
M  V30 3569 H 342.157 1.95996 3.66822 0
M  V30 3570 H 340.734 0.12943 3.72675 0
M  V30 3571 N 342.919 -1.39368 0.735821 0
M  V30 3572 C 343.849 -2.33234 0.111506 0
M  V30 3573 C 344.83 -1.53954 -0.723334 0
M  V30 3574 O 346.015 -1.82344 -0.668147 0
M  V30 3575 C 343.145 -3.38057 -0.795917 0
M  V30 3576 C 342.099 -4.2795 -0.065172 0
M  V30 3577 C 341.425 -5.23479 -1.08967 0
M  V30 3578 C 342.725 -5.10741 1.09273 0
M  V30 3579 H 344.419 -2.85692 0.895571 0
M  V30 3580 H 341.965 -1.37364 0.432109 0
M  V30 3581 H 343.918 -4.02675 -1.24221 0
M  V30 3582 H 342.642 -2.8404 -1.61211 0
M  V30 3583 H 341.301 -3.64813 0.361511 0
M  V30 3584 H 340.949 -4.65758 -1.89944 0
M  V30 3585 H 340.649 -5.84472 -0.605489 0
M  V30 3586 H 342.173 -5.90974 -1.53565 0
M  V30 3587 H 343.587 -5.68699 0.724841 0
M  V30 3588 H 341.984 -5.8088 1.50659 0
M  V30 3589 H 343.054 -4.45525 1.91404 0
M  V30 3590 N 344.397 -0.483516 -1.5 0
M  V30 3591 C 345.813 -0.138404 -1.58999 0
M  V30 3592 C 346.013 1.35597 -1.4905 0
M  V30 3593 O 345.069 2.13039 -1.35539 0
M  V30 3594 C 346.382 -0.699658 -2.92447 0
M  V30 3595 C 347.93 -0.664195 -3.05872 0
M  V30 3596 C 348.405 -1.20321 -4.41913 0
M  V30 3597 N 349.896 -1.16315 -4.48358 0
M  V30 3598 C 350.631 -1.55058 -5.52037 0
M  V30 3599 N 350.127 -2.01311 -6.62907 0
M  V30 3600 N 351.92 -1.46584 -5.42651 0
M  V30 3601 H 344.071 -1.45529 -1.5471 0
M  V30 3602 H 346.334 -0.60258 -0.731848 0
M  V30 3603 H 346.04 -1.747 -3.05242 0
M  V30 3604 H 345.914 -0.150194 -3.76901 0
M  V30 3605 H 348.301 0.374272 -2.92717 0
M  V30 3606 H 348.382 -1.25061 -2.23144 0
M  V30 3607 H 348.026 -2.24037 -4.55818 0
M  V30 3608 H 347.956 -0.592896 -5.23252 0
M  V30 3609 H 350.447 -0.824058 -3.68806 0
M  V30 3610 H 350.76 -2.2899 -7.38095 0
M  V30 3611 H 349.105 -2.05273 -6.63994 0
M  V30 3612 H 352.296 -1.10281 -4.54924 0
M  V30 3613 H 352.469 -1.77103 -6.23329 0
M  V30 3614 N 345.875 1.56104 -0.216619 0
M  V30 3615 C 346.805 2.23063 0.690296 0
M  V30 3616 C 347.786 1.20072 1.20485 0
M  V30 3617 O 348.971 1.48643 1.24976 0
M  V30 3618 C 346.101 2.90672 1.90072 0
M  V30 3619 C 345.055 4.00092 1.5202 0
M  V30 3620 C 344.381 4.54972 2.80899 0
M  V30 3621 C 345.681 5.17398 0.71391 0
M  V30 3622 H 347.375 2.99109 0.132038 0
M  V30 3623 H 344.921 1.43866 0.0620664 0
M  V30 3624 H 346.874 3.36204 2.54057 0
M  V30 3625 H 345.598 2.12066 2.48386 0
M  V30 3626 H 344.257 3.55283 0.903839 0
M  V30 3627 H 343.905 3.73102 3.37348 0
M  V30 3628 H 343.605 5.28817 2.56176 0
M  V30 3629 H 345.129 5.0322 3.45836 0
M  V30 3630 H 346.543 5.59342 1.25735 0
M  V30 3631 H 344.94 5.97444 0.563951 0
M  V30 3632 H 346.01 4.84088 -0.280527 0
M  V30 3633 N 347.353 -0.0568162 1.57498 0
M  V30 3634 C 348.601 -0.751617 1.87604 0
M  V30 3635 C 348.922 -1.77351 0.81066 0
M  V30 3636 O 348.192 -1.95254 -0.159018 0
M  V30 3637 H 346.772 -0.280583 0.692302 0
M  V30 3638 H 349.434 -0.0293483 1.94878 0
M  V30 3639 H 348.53 -1.25852 2.856 0
M  V30 3640 N 348.832 -1.54138 -0.328536 0
M  V30 3641 C 349.742 -1.86192 -1.42723 0
M  V30 3642 C 350.758 -0.753382 -1.56844 0
M  V30 3643 O 351.934 -1.04718 -1.72035 0
M  V30 3644 C 348.999 -2.07824 -2.77507 0
M  V30 3645 C 348.06 -3.31641 -2.72603 0
M  V30 3646 C 347.293 -3.52232 -4.00959 0
M  V30 3647 O 347.516 -2.7636 -4.9898 0
M  V30 3648 O 346.45 -4.45699 -4.0452 0
M  V30 3649 H 350.276 -2.79608 -1.18547 0
M  V30 3650 H 347.861 -1.3998 -0.522104 0
M  V30 3651 H 349.743 -2.23411 -3.57303 0
M  V30 3652 H 348.418 -1.17596 -3.01584 0
M  V30 3653 H 347.325 -3.21444 -1.91376 0
M  V30 3654 H 348.658 -4.2191 -2.53481 0
M  V30 3655 N 350.31 0.590341 -1.46126 0
M  V30 3656 C 351.24 1.71032 -1.58966 0
M  V30 3657 C 352.221 1.64302 -0.440335 0
M  V30 3658 O 353.406 1.82436 -0.665634 0
M  V30 3659 C 350.536 3.09665 -1.57241 0
M  V30 3660 C 349.49 3.31221 -2.71066 0
M  V30 3661 C 348.816 4.70303 -2.54399 0
M  V30 3662 C 350.116 3.19796 -4.1295 0
M  V30 3663 H 351.81 1.60543 -2.52718 0
M  V30 3664 H 349.356 0.770933 -1.21625 0
M  V30 3665 H 351.309 3.87831 -1.64819 0
M  V30 3666 H 350.033 3.21036 -0.600289 0
M  V30 3667 H 348.692 2.55452 -2.62944 0
M  V30 3668 H 348.34 4.78429 -1.55288 0
M  V30 3669 H 348.04 4.85679 -3.30741 0
M  V30 3670 H 349.564 5.50647 -2.63857 0
M  V30 3671 H 350.978 3.87815 -4.22223 0
M  V30 3672 H 349.375 3.46696 -4.89818 0
M  V30 3673 H 350.445 2.16983 -4.33643 0
M  V30 3674 N 351.788 1.33704 0.83433 0
M  V30 3675 C 353.037 1.24763 1.58484 0
M  V30 3676 C 353.35 -0.183775 1.94735 0
M  V30 3677 O 354.556 -0.395234 2.68608 0
M  V30 3678 C 353.012 2.18638 2.85876 0
M  V30 3679 C 352.62 3.66974 2.56971 0
M  V30 3680 C 354.364 2.18581 3.63899 0
M  V30 3681 C 352.271 4.5275 3.80488 0
M  V30 3682 H 351.201 0.463425 0.594772 0
M  V30 3683 H 353.852 1.58797 0.919551 0
M  V30 3684 H 352.234 1.77542 3.5397 0
M  V30 3685 H 353.408 4.16538 1.9706 0
M  V30 3686 H 351.723 3.69366 1.92244 0
M  V30 3687 H 354.32 2.79894 4.55591 0
M  V30 3688 H 354.663 1.18207 3.99165 0
M  V30 3689 H 355.196 2.58062 3.02735 0
M  V30 3690 H 351.935 5.54017 3.5035 0
M  V30 3691 H 351.455 4.07927 4.39722 0
M  V30 3692 H 353.134 4.66784 4.4802 0
M  V30 3693 N 353.266 -1.05314 1.17247 0
M  V30 3694 C 354.543 -1.75184 0.87005 0
M  V30 3695 C 354.923 -2.01481 -0.629965 0
M  V30 3696 O 354.271 -1.64988 -1.58086 0
M  V30 3697 C 354.481 -3.04594 1.70363 0
M  V30 3698 C 355.829 -3.78567 1.92281 0
M  V30 3699 O 356.853 -3.14461 1.67311 0
M  V30 3700 O 355.712 -4.93755 2.3424 0
M  V30 3701 H 352.806 -0.761729 0.322021 0
M  V30 3702 H 355.352 -1.11493 1.27935 0
M  V30 3703 H 354.124 -2.81201 2.72106 0
M  V30 3704 H 353.747 -3.76022 1.29202 0
M  V30 3705 N 354.744 -0.972509 -1.24016 0
M  V30 3706 C 356.16 -0.679827 -1.44397 0
M  V30 3707 C 356.36 0.756716 -1.86751 0
M  V30 3708 O 355.416 1.53007 -2.00861 0
M  V30 3709 C 356.729 -1.66803 -2.50195 0
M  V30 3710 C 358.277 -1.68119 -2.64017 0
M  V30 3711 C 358.752 -2.65748 -3.73017 0
M  V30 3712 N 360.243 -2.64219 -3.8045 0
M  V30 3713 C 360.978 -3.36433 -4.64328 0
M  V30 3714 N 360.474 -4.1818 -5.52356 0
M  V30 3715 N 362.267 -3.25235 -4.58453 0
M  V30 3716 H 354.418 -1.90059 -0.948228 0
M  V30 3717 H 356.681 -0.818527 -0.478245 0
M  V30 3718 H 356.387 -2.69498 -2.25973 0
M  V30 3719 H 356.261 -1.4446 -3.48441 0
M  V30 3720 H 358.648 -0.661319 -2.87594 0
M  V30 3721 H 358.729 -1.94525 -1.66113 0
M  V30 3722 H 358.373 -3.67872 -3.50189 0
M  V30 3723 H 358.303 -2.36619 -4.70446 0
M  V30 3724 H 360.794 -2.04887 -3.17537 0
M  V30 3725 H 361.107 -4.70157 -6.13329 0
M  V30 3726 H 359.452 -4.22273 -5.52006 0
M  V30 3727 H 362.643 -2.60829 -3.88698 0
M  V30 3728 H 362.816 -3.81776 -5.23594 0
M  V30 3729 N 356.222 1.38976 -0.743202 0
M  V30 3730 C 357.185 2.28901 -0.117014 0
M  V30 3731 C 358.185 1.46698 0.658503 0
M  V30 3732 O 359.375 1.67274 0.486305 0
M  V30 3733 C 356.507 3.30309 0.84315 0
M  V30 3734 H 357.7 2.8578 -0.909373 0
M  V30 3735 H 355.253 1.47761 -0.509547 0
M  V30 3736 H 355.988 2.785 1.66157 0
M  V30 3737 H 355.773 3.91029 0.289594 0
M  V30 3738 H 357.263 3.97577 1.2776 0
M  V30 3739 N 357.7 0.491464 1.49741 0
M  V30 3740 C 358.632 -0.328609 2.26832 0
M  V30 3741 C 359.645 -0.939113 1.32983 0
M  V30 3742 O 360.834 -0.824067 1.58339 0
M  V30 3743 C 357.934 -1.47675 3.05033 0
M  V30 3744 C 357.107 -0.975305 4.26388 0
M  V30 3745 C 356.166 -1.99991 4.86714 0
M  V30 3746 O 355.192 -1.57229 5.47054 0
M  V30 3747 N 356.394 -3.32962 4.75517 0
M  V30 3748 H 359.159 0.332377 2.97851 0
M  V30 3749 H 356.72 0.323441 1.58636 0
M  V30 3750 H 358.712 -2.15954 3.42266 0
M  V30 3751 H 357.282 -2.04206 2.36683 0
M  V30 3752 H 356.502 -0.117723 3.94024 0
M  V30 3753 H 357.79 -0.618531 5.05026 0
M  V30 3754 H 357.188 -3.70399 4.27576 0
M  V30 3755 H 355.745 -3.96982 5.16961 0
M  V30 3756 N 359.178 -1.55987 0.224894 0
M  V30 3757 C 360.108 -2.23426 -0.678457 0
M  V30 3758 C 361.089 -1.20709 -1.19847 0
M  V30 3759 O 362.274 -1.49304 -1.24186 0
M  V30 3760 C 359.404 -2.91676 -1.88527 0
M  V30 3761 C 358.358 -4.00893 -1.49896 0
M  V30 3762 C 357.684 -4.56455 -2.78483 0
M  V30 3763 C 358.984 -5.17769 -0.686461 0
M  V30 3764 H 360.678 -2.99175 -0.116173 0
M  V30 3765 H 358.224 -1.43897 -0.054436 0
M  V30 3766 H 360.177 -3.37547 -2.5227 0
M  V30 3767 H 358.901 -2.1338 -2.47258 0
M  V30 3768 H 357.56 -3.55758 -0.884985 0
M  V30 3769 H 357.208 -3.74886 -3.35365 0
M  V30 3770 H 356.908 -5.30169 -2.53368 0
M  V30 3771 H 358.432 -5.05047 -3.43162 0
M  V30 3772 H 359.846 -5.60001 -1.22767 0
M  V30 3773 H 358.243 -5.97735 -0.532259 0
M  V30 3774 H 359.313 -4.83932 0.306196 0
M  V30 3775 N 360.656 0.0484629 -1.57525 0
M  V30 3776 C 361.606 1.06246 -2.01732 0
M  V30 3777 C 362.59 1.33155 -0.903245 0
M  V30 3778 O 363.782 1.33065 -1.16717 0
M  V30 3779 C 360.911 2.36943 -2.48421 0
M  V30 3780 C 359.997 2.13208 -3.6661 0
M  V30 3781 N 360.388 1.5947 -4.80003 0
M  V30 3782 C 358.686 2.43581 -3.7361 0
M  V30 3783 C 359.387 1.51092 -5.61735 0
M  V30 3784 N 358.363 1.9797 -5.0627 0
M  V30 3785 H 362.165 0.640675 -2.86832 0
M  V30 3786 H 359.679 0.255134 -1.60383 0
M  V30 3787 H 361.676 3.10374 -2.78341 0
M  V30 3788 H 360.336 2.79818 -1.64718 0
M  V30 3789 H 361.347 1.28008 -5.01831 0
M  V30 3790 H 358.024 2.89662 -3.00669 0
M  V30 3791 H 359.414 1.10199 -6.62801 0
M  V30 3792 N 362.134 1.5431 0.320358 0
M  V30 3793 C 363.38 1.72924 1.05949 0
M  V30 3794 C 363.713 0.503185 1.87568 0
M  V30 3795 O 362.988 -0.499839 1.87968 0
M  V30 3796 C 363.271 3.00676 1.98156 0
M  V30 3797 C 363.124 4.3354 1.19845 0
M  V30 3798 C 364.443 3.24198 2.9763 0
M  V30 3799 H 361.562 0.629195 0.383774 0
M  V30 3800 H 364.204 1.87008 0.335854 0
M  V30 3801 H 362.354 2.888 2.59859 0
M  V30 3802 H 364.026 4.57305 0.605773 0
M  V30 3803 H 362.269 4.309 0.500784 0
M  V30 3804 H 362.94 5.19156 1.87567 0
M  V30 3805 H 365.416 3.35557 2.4605 0
M  V30 3806 H 364.292 4.14938 3.59329 0
M  V30 3807 H 364.553 2.41577 3.7026 0
M  V30 3808 N 363.613 -0.582584 1.46437 0
M  V30 3809 C 364.86 -1.34079 1.51753 0
M  V30 3810 C 365.188 -1.93762 0.169299 0
M  V30 3811 O 364.443 -1.76989 -0.835062 0
M  V30 3812 C 364.742 -2.48964 2.56421 0
M  V30 3813 C 364.408 -2.07273 4.00436 0
M  V30 3814 C 363.07 -1.95618 4.39644 0
M  V30 3815 C 365.422 -1.75111 4.90903 0
M  V30 3816 C 362.75 -1.5006 5.67185 0
M  V30 3817 C 365.102 -1.31032 6.18881 0
M  V30 3818 C 363.766 -1.17954 6.56996 0
M  V30 3819 H 363.036 -0.49063 0.555304 0
M  V30 3820 H 365.683 -0.656007 1.79913 0
M  V30 3821 H 363.988 -3.22889 2.21923 0
M  V30 3822 H 365.685 -3.07178 2.57765 0
M  V30 3823 H 362.275 -2.17279 3.69443 0
M  V30 3824 H 366.459 -1.83001 4.61329 0
M  V30 3825 H 361.715 -1.38577 5.95488 0
M  V30 3826 H 365.889 -1.052 6.88408 0
M  V30 3827 H 363.516 -0.824279 7.55718 0
M  V30 3828 N 365.091 -1.34144 -0.827227 0
M  V30 3829 C 366.339 -1.26009 -1.58007 0
M  V30 3830 C 366.66 0.170971 -1.94249 0
M  V30 3831 O 365.93 1.10256 -1.61927 0
M  V30 3832 H 364.51 -0.463414 -0.585881 0
M  V30 3833 H 367.172 -1.68005 -0.987951 0
M  V30 3834 H 366.268 -1.86187 -2.50481 0
M  V30 3835 N 366.569 1.04691 -1.17803 0
M  V30 3836 C 367.985 1.29963 -0.926379 0
M  V30 3837 C 368.185 1.97251 0.411635 0
M  V30 3838 O 367.241 2.24922 1.14744 0
M  V30 3839 C 368.554 2.16447 -2.08737 0
M  V30 3840 C 370.102 2.29814 -2.12496 0
M  V30 3841 C 370.577 3.19661 -3.27995 0
M  V30 3842 N 372.068 3.27247 -3.27816 0
M  V30 3843 C 372.803 3.96906 -4.13827 0
M  V30 3844 N 372.299 4.6895 -5.09959 0
M  V30 3845 N 374.092 3.93122 -4.01761 0
M  V30 3846 H 366.243 0.594182 -2.0392 0
M  V30 3847 H 368.506 0.324649 -0.890678 0
M  V30 3848 H 368.212 1.74304 -3.05469 0
M  V30 3849 H 368.086 3.17103 -2.04268 0
M  V30 3850 H 370.473 2.71196 -1.16347 0
M  V30 3851 H 370.554 1.2877 -2.21025 0
M  V30 3852 H 370.198 2.78991 -4.24413 0
M  V30 3853 H 370.128 4.20722 -3.16703 0
M  V30 3854 H 372.619 2.75921 -2.58217 0
M  V30 3855 H 372.932 5.19679 -5.71974 0
M  V30 3856 H 371.277 4.67875 -5.13924 0
M  V30 3857 H 374.468 3.35967 -3.2595 0
M  V30 3858 H 374.641 4.47139 -4.6901 0
M  V30 3859 N 368.047 0.979072 1.23499 0
M  V30 3860 C 369.287 0.655228 1.93613 0
M  V30 3861 C 369.651 -0.796336 1.74707 0
M  V30 3862 O 370.852 -1.23094 2.38959 0
M  V30 3863 C 369.123 1.03337 3.42135 0
M  V30 3864 S 370.682 0.825793 4.3096 0
M  V30 3865 H 367.5 0.240004 0.669267 0
M  V30 3866 H 370.102 1.25843 1.49612 0
M  V30 3867 H 368.806 2.08646 3.53405 0
M  V30 3868 H 368.337 0.421397 3.91137 0
M  V30 3869 H 370.352 -0.290991 4.95346 0
M  V30 3870 N 369.525 -1.3858 0.750561 0
M  V30 3871 C 370.773 -1.99789 0.30477 0
M  V30 3872 C 371.094 -1.59874 -1.11649 0
M  V30 3873 O 370.364 -0.85417 -1.76297 0
M  V30 3874 H 368.944 -0.738902 0.109694 0
M  V30 3875 H 371.606 -1.69391 0.963983 0
M  V30 3876 H 370.702 -3.09952 0.365499 0
M  V30 3877 N 371.003 -0.499398 -1.49478 0
M  V30 3878 C 371.953 0.299103 -2.2603 0
M  V30 3879 C 372.937 0.936934 -1.30807 0
M  V30 3880 O 374.129 0.844798 -1.55538 0
M  V30 3881 C 371.258 1.36391 -3.15044 0
M  V30 3882 C 370.344 0.732398 -4.17728 0
M  V30 3883 N 370.735 -0.164028 -5.05534 0
M  V30 3884 C 369.033 0.993162 -4.34801 0
M  V30 3885 C 369.734 -0.525345 -5.79323 0
M  V30 3886 N 368.71 0.106348 -5.43496 0
M  V30 3887 H 372.512 -0.391003 -2.91287 0
M  V30 3888 H 370.026 -0.31537 -1.59308 0
M  V30 3889 H 372.023 1.94939 -3.68516 0
M  V30 3890 H 370.683 2.05571 -2.51338 0
M  V30 3891 H 371.694 -0.534736 -5.15132 0
M  V30 3892 H 368.371 1.67783 -3.82302 0
M  V30 3893 H 369.761 -1.25862 -6.60006 0
M  V30 3894 N 372.481 1.55866 -0.233164 0
M  V30 3895 C 373.727 1.99643 0.389148 0
M  V30 3896 C 374.082 1.11836 1.56558 0
M  V30 3897 O 373.375 0.170848 1.90837 0
M  V30 3898 C 373.569 3.46856 0.861724 0
M  V30 3899 C 373.398 4.48904 -0.267376 0
M  V30 3900 C 372.168 4.99888 -0.737577 0
M  V30 3901 C 374.366 5.02624 -1.08966 0
M  V30 3902 N 372.348 5.8566 -1.84052 0
M  V30 3903 C 373.719 5.85434 -2.04125 0
M  V30 3904 C 375.774 4.84959 -1.12779 0
M  V30 3905 C 374.477 6.52466 -3.02789 0
M  V30 3906 C 376.503 5.52759 -2.10266 0
M  V30 3907 C 375.865 6.35346 -3.04162 0
M  V30 3908 H 371.964 0.774402 0.108742 0
M  V30 3909 H 374.548 1.91572 -0.347596 0
M  V30 3910 H 372.719 3.55352 1.5678 0
M  V30 3911 H 374.451 3.77531 1.45783 0
M  V30 3912 H 371.206 4.7249 -0.324122 0
M  V30 3913 H 371.63 6.33246 -2.39434 0
M  V30 3914 H 376.272 4.20751 -0.415749 0
M  V30 3915 H 373.99 7.15849 -3.74948 0
M  V30 3916 H 377.576 5.41051 -2.13905 0
M  V30 3917 H 376.456 6.86883 -3.78366 0
M  V30 3918 N 373.959 -0.0401083 1.57549 0
M  V30 3919 C 375.187 -0.745196 1.93014 0
M  V30 3920 C 375.602 -1.6948 0.831984 0
M  V30 3921 O 374.959 -1.81482 -0.192463 0
M  V30 3922 C 375.01 -1.51176 3.28372 0
M  V30 3923 O 374.731 -0.600284 4.33968 0
M  V30 3924 C 376.232 -2.315 3.78051 0
M  V30 3925 H 373.452 -0.210088 0.637263 0
M  V30 3926 H 375.996 -0.000924689 2.045 0
M  V30 3927 H 374.151 -2.20801 3.18317 0
M  V30 3928 H 374.565 -1.13669 5.12035 0
M  V30 3929 H 376.039 -2.80697 4.75303 0
M  V30 3930 H 376.516 -3.12436 3.08675 0
M  V30 3931 H 377.122 -1.66971 3.91153 0
M  V30 3932 N 375.437 -1.54477 -0.31217 0
M  V30 3933 C 376.369 -1.81011 -1.40598 0
M  V30 3934 C 377.382 -0.692546 -1.47335 0
M  V30 3935 O 378.571 -0.969847 -1.49854 0
M  V30 3936 C 375.671 -1.92307 -2.79054 0
M  V30 3937 C 374.844 -3.22594 -2.95384 0
M  V30 3938 C 373.903 -3.24448 -4.1427 0
M  V30 3939 O 372.929 -3.98035 -4.06887 0
M  V30 3940 N 374.131 -2.49042 -5.24365 0
M  V30 3941 H 376.896 -2.75408 -1.18196 0
M  V30 3942 H 374.457 -1.53914 -0.502202 0
M  V30 3943 H 376.449 -1.90962 -3.56813 0
M  V30 3944 H 375.019 -1.04955 -2.94454 0
M  V30 3945 H 374.239 -3.36806 -2.04831 0
M  V30 3946 H 375.527 -4.08593 -3.03198 0
M  V30 3947 H 374.925 -1.88867 -5.33241 0
M  V30 3948 H 373.482 -2.53463 -6.005 0
M  V30 3949 N 376.915 0.57481 -1.46744 0
M  V30 3950 C 378.164 1.32898 -1.51727 0
M  V30 3951 C 378.477 1.948 -0.176692 0
M  V30 3952 O 379.683 2.71299 -0.104385 0
M  V30 3953 C 378.139 2.40901 -2.67385 0
M  V30 3954 C 377.747 1.85266 -4.07898 0
M  V30 3955 C 379.491 3.17609 -2.81646 0
M  V30 3956 C 377.398 2.90945 -5.14883 0
M  V30 3957 H 376.328 0.499631 -0.564699 0
M  V30 3958 H 378.979 0.612536 -1.72975 0
M  V30 3959 H 377.361 3.15379 -2.39483 0
M  V30 3960 H 378.535 1.17278 -4.45626 0
M  V30 3961 H 376.85 1.21199 -3.98371 0
M  V30 3962 H 379.447 3.96493 -3.58744 0
M  V30 3963 H 379.79 3.70696 -1.89448 0
M  V30 3964 H 380.323 2.50239 -3.09233 0
M  V30 3965 H 377.062 2.42736 -6.089 0
M  V30 3966 H 376.582 3.57398 -4.81691 0
M  V30 3967 H 378.261 3.54755 -5.41071 0
M  V30 3968 N 378.394 1.34581 0.820102 0
M  V30 3969 C 379.304 1.28471 1.96297 0
M  V30 3970 C 380.32 0.191902 1.72939 0
M  V30 3971 O 381.496 0.418879 1.96996 0
M  V30 3972 C 378.561 1.04281 3.30645 0
M  V30 3973 C 377.622 2.22745 3.66992 0
M  V30 3974 C 376.855 1.997 4.9493 0
M  V30 3975 O 377.078 0.956656 5.6232 0
M  V30 3976 O 376.012 2.86723 5.2922 0
M  V30 3977 H 379.838 2.24624 2.04396 0
M  V30 3978 H 377.423 1.14816 0.955913 0
M  V30 3979 H 379.305 0.925841 4.11104 0
M  V30 3980 H 377.98 0.111697 3.23507 0
M  V30 3981 H 376.887 2.40003 2.86966 0
M  V30 3982 H 378.22 3.14257 3.78819 0
M  V30 3983 N 379.872 -1.04064 1.18357 0
M  V30 3984 C 380.804 -2.12114 0.868358 0
M  V30 3985 C 381.817 -1.62247 -0.134045 0
M  V30 3986 O 383.006 -1.78253 0.0937933 0
M  V30 3987 C 380.106 -3.37773 0.276132 0
M  V30 3988 C 379.279 -4.16874 1.3242 0
M  V30 3989 C 378.338 -5.20861 0.747662 0
M  V30 3990 O 377.364 -5.51141 1.42239 0
M  V30 3991 N 378.566 -5.78715 -0.454823 0
M  V30 3992 H 381.331 -2.39748 1.79836 0
M  V30 3993 H 378.892 -1.20258 1.08396 0
M  V30 3994 H 380.884 -4.04513 -0.123133 0
M  V30 3995 H 379.454 -3.07581 -0.557895 0
M  V30 3996 H 378.674 -3.45456 1.89878 0
M  V30 3997 H 379.962 -4.66516 2.03078 0
M  V30 3998 H 379.36 -5.56415 -1.02073 0
M  V30 3999 H 377.917 -6.46921 -0.79601 0
M  V30 4000 N 381.35 -0.985608 -1.22978 0
M  V30 4001 C 382.578 -0.675582 -1.95559 0
M  V30 4002 C 382.993 0.758413 -1.72897 0
M  V30 4003 O 382.35 1.51094 -1.02357 0
M  V30 4004 C 382.401 -0.96293 -3.48439 0
M  V30 4005 O 382.122 -2.34057 -3.70336 0
M  V30 4006 C 383.623 -0.669585 -4.38214 0
M  V30 4007 H 380.843 -0.250523 -0.622478 0
M  V30 4008 H 383.387 -1.3184 -1.56328 0
M  V30 4009 H 381.542 -0.366033 -3.85667 0
M  V30 4010 H 381.956 -2.43424 -4.64591 0
M  V30 4011 H 383.43 -0.920967 -5.44263 0
M  V30 4012 H 383.907 0.396383 -4.37408 0
M  V30 4013 H 384.513 -1.2472 -4.06602 0
M  V30 4014 N 382.828 1.3818 -0.7579 0
M  V30 4015 C 384.105 1.94106 -0.241306 0
M  V30 4016 C 384.485 1.69282 1.26122 0
M  V30 4017 O 383.833 1.03378 2.03777 0
M  V30 4018 C 384.043 3.43809 -0.59967 0
M  V30 4019 C 385.391 4.20868 -0.561717 0
M  V30 4020 O 386.415 3.5211 -0.538222 0
M  V30 4021 O 385.274 5.43451 -0.576478 0
M  V30 4022 H 382.368 0.825376 -0.0518042 0
M  V30 4023 H 384.914 1.47548 -0.838315 0
M  V30 4024 H 383.686 3.55403 -1.6372 0
M  V30 4025 H 383.309 3.97592 0.0251197 0
M  V30 4026 N 384.306 0.507319 1.49211 0
M  V30 4027 C 385.722 0.163682 1.58758 0
M  V30 4028 C 385.922 -1.33208 1.51188 0
M  V30 4029 O 384.978 -2.10855 1.38911 0
M  V30 4030 C 386.291 0.746095 2.91297 0
M  V30 4031 C 387.839 0.712773 3.04776 0
M  V30 4032 C 388.314 1.27336 4.39943 0
M  V30 4033 N 389.805 1.23433 4.46451 0
M  V30 4034 C 390.54 1.63821 5.495 0
M  V30 4035 N 390.036 2.11832 6.5962 0
M  V30 4036 N 391.829 1.55198 5.4025 0
M  V30 4037 H 383.98 1.47972 1.52375 0
M  V30 4038 H 386.243 0.614147 0.722168 0
M  V30 4039 H 385.949 1.79534 3.02424 0
M  V30 4040 H 385.823 0.210137 3.76614 0
M  V30 4041 H 388.21 -0.327656 2.93275 0
M  V30 4042 H 388.291 1.28595 2.21127 0
M  V30 4043 H 387.935 2.3126 4.52196 0
M  V30 4044 H 387.865 0.676066 5.22242 0
M  V30 4045 H 390.356 0.882627 3.67448 0
M  V30 4046 H 390.669 2.40703 7.34358 0
M  V30 4047 H 389.014 2.1581 6.60644 0
M  V30 4048 H 392.205 1.17505 4.53112 0
M  V30 4049 H 392.378 1.86997 6.20432 0
M  V30 4050 N 385.784 -1.5574 0.241426 0
M  V30 4051 C 387.031 -1.9881 -0.384836 0
M  V30 4052 C 387.359 -1.12947 -1.58346 0
M  V30 4053 O 386.614 -0.178993 -1.9488 0
M  V30 4054 C 386.913 -3.47308 -0.843317 0
M  V30 4055 C 386.579 -4.50223 0.246946 0
M  V30 4056 C 385.241 -4.78088 0.546399 0
M  V30 4057 C 387.593 -5.11841 0.983282 0
M  V30 4058 C 384.921 -5.64846 1.58636 0
M  V30 4059 C 387.273 -5.99727 2.01272 0
M  V30 4060 C 385.937 -6.25927 2.31888 0
M  V30 4061 H 385.207 -0.727496 -0.140821 0
M  V30 4062 H 387.854 -1.8831 0.348106 0
M  V30 4063 H 386.159 -3.55112 -1.65537 0
M  V30 4064 H 387.856 -3.78017 -1.33806 0
M  V30 4065 H 384.446 -4.286 0.00340639 0
M  V30 4066 H 388.63 -4.90366 0.765182 0
M  V30 4067 H 383.886 -5.83403 1.82896 0
M  V30 4068 H 388.06 -6.46517 2.58823 0
M  V30 4069 H 385.687 -6.92949 3.12611 0
M  V30 4070 N 387.262 0.0317525 -1.57568 0
M  V30 4071 C 388.21 1.05165 -2.07468 0
M  V30 4072 C 389.204 1.3761 -0.98792 0
M  V30 4073 O 390.41 1.36546 -1.17282 0
M  V30 4074 H 386.785 0.35666 -0.66204 0
M  V30 4075 H 388.756 0.604958 -2.92203 0
M  V30 4076 C 387.505 2.34488 -2.56731 0
M  V30 4077 H 386.828 2.10383 -3.39969 0
M  V30 4078 H 388.268 3.04203 -2.95358 0
M  V30 4079 C 386.727 3.03266 -1.46736 0
M  V30 4080 O 387.257 3.92988 -0.832069 0
M  V30 4081 N 385.463 2.6455 -1.20256 0
M  V30 4082 H 385.01 1.91674 -1.72102 0
M  V30 4083 H 384.968 3.10886 -0.468737 0
M  V30 4084 N 388.74 1.54641 0.303973 0
M  V30 4085 C 390.156 1.45788 0.649463 0
M  V30 4086 C 390.356 0.64666 1.90842 0
M  V30 4087 O 389.412 0.153183 2.52035 0
M  V30 4088 C 390.725 2.89718 0.805227 0
M  V30 4089 C 392.273 2.99742 0.901305 0
M  V30 4090 C 392.748 4.44863 1.08909 0
M  V30 4091 N 394.239 4.48559 1.15536 0
M  V30 4092 C 394.974 5.58026 1.3189 0
M  V30 4093 N 394.47 6.77422 1.45161 0
M  V30 4094 N 396.263 5.45708 1.34755 0
M  V30 4095 H 388.414 2.05854 -0.523237 0
M  V30 4096 H 390.677 0.932186 -0.172431 0
M  V30 4097 H 390.383 3.51666 -0.0489108 0
M  V30 4098 H 390.257 3.36964 1.69513 0
M  V30 4099 H 392.644 2.3791 1.74593 0
M  V30 4100 H 392.725 2.55797 -0.0125531 0
M  V30 4101 H 392.369 5.07288 0.249241 0
M  V30 4102 H 392.299 4.86436 2.01713 0
M  V30 4103 H 394.79 3.6254 1.06646 0
M  V30 4104 H 395.103 7.56604 1.57387 0
M  V30 4105 H 393.448 6.80292 1.42223 0
M  V30 4106 H 396.639 4.51378 1.23996 0
M  V30 4107 H 396.812 6.3107 1.47157 0
M  V30 4108 N 390.218 -0.567019 1.47046 0
M  V30 4109 C 391.148 -1.68482 1.61667 0
M  V30 4110 C 392.129 -1.6358 0.466418 0
M  V30 4111 O 393.314 -1.81354 0.694574 0
M  V30 4112 C 390.444 -3.07124 1.62148 0
M  V30 4113 C 389.398 -3.26867 2.76301 0
M  V30 4114 C 388.724 -4.66196 2.61849 0
M  V30 4115 C 390.024 -3.13186 4.17986 0
M  V30 4116 H 391.718 -1.56502 2.5524 0
M  V30 4117 H 389.264 -0.751486 1.22836 0
M  V30 4118 H 391.217 -3.8516 1.70968 0
M  V30 4119 H 389.941 -3.2004 0.651287 0
M  V30 4120 H 388.6 -2.51237 2.66975 0
M  V30 4121 H 388.248 -4.75898 1.62879 0
M  V30 4122 H 387.948 -4.80356 3.38425 0
M  V30 4123 H 389.472 -5.46379 2.72584 0
M  V30 4124 H 390.886 -3.81049 4.2834 0
M  V30 4125 H 389.283 -3.3886 4.95272 0
M  V30 4126 H 390.353 -2.10057 4.3704 0
M  V30 4127 N 391.696 -1.35014 -0.812953 0
M  V30 4128 C 392.942 -1.2812 -1.57204 0
M  V30 4129 C 393.275 0.145869 -1.93651 0
M  V30 4130 O 392.55 1.0937 -1.60836 0
M  V30 4131 C 392.833 -2.18162 -2.86492 0
M  V30 4132 C 392.686 -3.69454 -2.56561 0
M  V30 4133 C 394.005 -2.07439 -3.88145 0
M  V30 4134 H 391.124 -0.466746 -0.570366 0
M  V30 4135 H 393.766 -1.65357 -0.935783 0
M  V30 4136 H 391.916 -1.86535 -3.40789 0
M  V30 4137 H 393.588 -4.11493 -2.08497 0
M  V30 4138 H 391.831 -3.9005 -1.89851 0
M  V30 4139 H 392.502 -4.27835 -3.48799 0
M  V30 4140 H 394.978 -2.35228 -3.4323 0
M  V30 4141 H 393.854 -2.7265 -4.76396 0
M  V30 4142 H 394.115 -1.05439 -4.29343 0
M  V30 4143 N 393.175 1.03435 -1.18907 0
M  V30 4144 C 394.421 1.77005 -0.989798 0
M  V30 4145 C 394.754 1.88205 0.478816 0
M  V30 4146 O 394.029 1.39481 1.35556 0
M  V30 4147 C 394.312 3.19925 -1.65287 0
M  V30 4148 C 394.165 3.1663 -3.19477 0
M  V30 4149 C 395.484 4.18189 -1.37134 0
M  V30 4150 H 392.603 0.642538 -0.360991 0
M  V30 4151 H 395.245 1.20784 -1.46667 0
M  V30 4152 H 393.395 3.67929 -1.24741 0
M  V30 4153 H 395.067 2.76567 -3.692 0
M  V30 4154 H 393.31 2.54491 -3.51307 0
M  V30 4155 H 393.981 4.1758 -3.61013 0
M  V30 4156 H 396.457 3.78761 -1.72276 0
M  V30 4157 H 395.333 5.16394 -1.86087 0
M  V30 4158 H 395.594 4.41112 -0.295424 0
M  V30 4159 N 394.653 0.992116 1.22453 0
M  V30 4160 C 395.563 0.55065 2.28046 0
M  V30 4161 C 396.579 -0.400189 1.69335 0
M  V30 4162 O 397.755 -0.267215 1.99619 0
M  V30 4163 C 394.82 -0.128496 3.46462 0
M  V30 4164 C 393.881 0.865208 4.20491 0
M  V30 4165 C 393.114 0.218377 5.33253 0
M  V30 4166 O 393.337 -0.987894 5.6178 0
M  V30 4167 O 392.271 0.922845 5.94783 0
M  V30 4168 H 396.097 1.4291 2.67975 0
M  V30 4169 H 393.682 0.760326 1.28606 0
M  V30 4170 H 395.564 -0.508947 4.18315 0
M  V30 4171 H 394.239 -0.981526 3.0846 0
M  V30 4172 H 393.146 1.29658 3.50913 0
M  V30 4173 H 394.479 1.68741 4.62371 0
M  V30 4174 N 396.131 -1.37776 0.765217 0
M  V30 4175 C 397.378 -1.99849 0.326588 0
M  V30 4176 C 397.706 -1.60746 -1.09504 0
M  V30 4177 O 396.961 -0.84202 -1.76659 0
M  V30 4178 C 397.26 -3.5504 0.410053 0
M  V30 4179 C 396.926 -4.13891 1.78899 0
M  V30 4180 C 395.588 -4.29678 2.16635 0
M  V30 4181 C 397.94 -4.46236 2.69301 0
M  V30 4182 C 395.268 -4.7511 3.44221 0
M  V30 4183 C 397.62 -4.93089 3.9629 0
M  V30 4184 C 396.284 -5.07082 4.34078 0
M  V30 4185 H 395.554 -0.7313 0.119507 0
M  V30 4186 H 398.201 -1.64645 0.977968 0
M  V30 4187 H 396.506 -3.90451 -0.324878 0
M  V30 4188 H 398.203 -4.00966 0.0520699 0
M  V30 4189 H 394.793 -4.02026 1.48569 0
M  V30 4190 H 398.977 -4.3363 2.41409 0
M  V30 4191 H 394.233 -4.84129 3.73402 0
M  V30 4192 H 398.407 -5.17084 4.66472 0
M  V30 4193 H 396.034 -5.42046 5.33001 0
M  V30 4194 N 397.609 -0.515225 -1.4894 0
M  V30 4195 C 398.856 0.024215 -2.02486 0
M  V30 4196 C 399.184 1.35671 -1.39368 0
M  V30 4197 O 398.439 1.88566 -0.523574 0
M  V30 4198 C 398.738 0.210595 -3.56779 0
M  V30 4199 C 398.404 -1.04569 -4.38607 0
M  V30 4200 C 397.066 -1.39002 -4.60686 0
M  V30 4201 C 399.418 -1.88008 -4.86109 0
M  V30 4202 C 396.746 -2.568 -5.27514 0
M  V30 4203 C 399.098 -3.04972 -5.54234 0
M  V30 4204 C 397.762 -3.39768 -5.74555 0
M  V30 4205 H 397.032 0.00886088 -0.740947 0
M  V30 4206 H 399.679 -0.678263 -1.79086 0
M  V30 4207 H 397.984 0.99572 -3.78936 0
M  V30 4208 H 399.681 0.642659 -3.95817 0
M  V30 4209 H 396.271 -0.767497 -4.21672 0
M  V30 4210 H 400.455 -1.62719 -4.68867 0
M  V30 4211 H 395.711 -2.8398 -5.41447 0
M  V30 4212 H 399.885 -3.69943 -5.90013 0
M  V30 4213 H 397.512 -4.31148 -6.26112 0
M  V30 4214 N 399.087 1.5561 -0.249682 0
M  V30 4215 C 400.035 2.22894 0.664906 0
M  V30 4216 C 401.029 1.21743 1.17792 0
M  V30 4217 O 402.235 1.39748 1.13449 0
M  V30 4218 H 398.61 0.715022 0.232912 0
M  V30 4219 H 400.581 2.98307 0.0742998 0
M  V30 4220 C 399.33 2.94424 1.84959 0
M  V30 4221 H 398.653 3.72031 1.46399 0
M  V30 4222 H 400.093 3.44862 2.4667 0
M  V30 4223 C 398.552 1.98454 2.72245 0
M  V30 4224 O 399.082 1.51939 3.71857 0
M  V30 4225 N 397.288 1.65496 2.38871 0
M  V30 4226 H 396.835 2.03517 1.57919 0
M  V30 4227 H 396.793 1.0155 2.97548 0
M  V30 4228 N 400.565 -0.0233959 1.57583 0
M  V30 4229 C 401.475 -1.03907 2.10334 0
M  V30 4230 C 402.491 -1.39257 1.04323 0
M  V30 4231 O 403.667 -1.48462 1.36091 0
M  V30 4232 C 400.732 -2.31938 2.57693 0
M  V30 4233 C 399.793 -2.03117 3.78209 0
M  V30 4234 C 399.026 -3.25043 4.233 0
M  V30 4235 O 399.249 -4.35916 3.67876 0
M  V30 4236 O 398.183 -3.10411 5.15683 0
M  V30 4237 H 402.009 -0.620748 2.97288 0
M  V30 4238 H 399.594 -0.240743 1.47448 0
M  V30 4239 H 401.476 -3.07196 2.88458 0
M  V30 4240 H 400.151 -2.73055 1.73847 0
M  V30 4241 H 399.058 -1.25408 3.52454 0
M  V30 4242 H 400.391 -1.66852 4.63056 0
M  V30 4243 N 402.043 -1.548 -0.295768 0
M  V30 4244 C 403.006 -1.85363 -1.34808 0
M  V30 4245 C 404.006 -0.726817 -1.43436 0
M  V30 4246 O 405.196 -0.995088 -1.42981 0
M  V30 4247 C 402.328 -2.03859 -2.73229 0
M  V30 4248 H 403.521 -2.7941 -1.08949 0
M  V30 4249 H 401.074 -1.46942 -0.532702 0
M  V30 4250 H 401.809 -1.12117 -3.04303 0
M  V30 4251 H 401.594 -2.8588 -2.68356 0
M  V30 4252 H 403.084 -2.28857 -3.49305 0
M  V30 4253 N 403.521 0.559213 -1.47345 0
M  V30 4254 C 404.469 1.68747 -1.60085 0
M  V30 4255 C 405.463 1.628 -0.46825 0
M  V30 4256 O 406.669 1.68009 -0.645977 0
M  V30 4257 H 403.044 0.558329 -0.503759 0
M  V30 4258 H 405.015 1.55138 -2.54902 0
M  V30 4259 C 403.764 3.07103 -1.63042 0
M  V30 4260 H 403.087 3.12361 -2.49541 0
M  V30 4261 H 404.527 3.85743 -1.76006 0
M  V30 4262 C 402.986 3.34935 -0.363357 0
M  V30 4263 O 403.516 3.98102 0.536416 0
M  V30 4264 N 401.722 2.89574 -0.244 0
M  V30 4265 H 401.269 2.38348 -0.977133 0
M  V30 4266 H 401.227 3.08566 0.602836 0
M  V30 4267 N 404.999 1.35443 0.805782 0
M  V30 4268 C 406.227 1.31878 1.59423 0
M  V30 4269 C 406.642 -0.103562 1.88516 0
M  V30 4270 O 405.999 -1.05575 1.48863 0
M  V30 4271 C 406.05 2.12426 2.92502 0
M  V30 4272 O 405.771 3.49115 2.6467 0
M  V30 4273 C 407.272 2.16455 3.86862 0
M  V30 4274 H 404.492 0.453002 0.495005 0
M  V30 4275 H 407.036 1.78309 1.00131 0
M  V30 4276 H 405.191 1.69593 3.48306 0
M  V30 4277 H 405.605 3.90957 3.49647 0
M  V30 4278 H 407.079 2.77204 4.77349 0
M  V30 4279 H 407.556 1.16352 4.23508 0
M  V30 4280 H 408.162 2.59453 3.36993 0
M  V30 4281 N 406.477 -1.02803 1.19454 0
M  V30 4282 C 407.888 -1.57667 0.999899 0
M  V30 4283 C 408.239 -1.91041 -0.446956 0
M  V30 4284 O 407.364 -1.70978 -1.32648 0
M  V30 4285 C 407.959 -2.86477 1.80877 0
M  V30 4286 C 406.518 -3.37911 1.65811 0
M  V30 4287 C 405.665 -2.11343 1.79526 0
M  V30 4288 H 408.616 -0.853214 1.33813 0
M  V30 4289 H 408.637 -3.57408 1.30536 0
M  V30 4290 H 408.149 -2.62155 2.86175 0
M  V30 4291 H 406.25 -3.67218 0.63102 0
M  V30 4292 H 406.363 -4.10885 2.46395 0
M  V30 4293 H 404.727 -2.23254 1.22596 0
M  V30 4294 H 405.51 -1.89461 2.86285 0
M  V30 4295 N 407.956 -0.998596 -1.21925 0
M  V30 4296 C 408.903 -0.553621 -2.24062 0
M  V30 4297 C 409.873 0.416999 -1.6078 0
M  V30 4298 O 411.058 0.320482 -1.88089 0
M  V30 4299 C 408.198 0.119959 -3.44891 0
M  V30 4300 C 407.311 -0.893077 -4.22668 0
M  V30 4301 C 406.446 -0.192424 -5.30851 0
M  V30 4302 C 405.485 -1.19344 -6.00353 0
M  V30 4303 N 404.622 -0.520707 -7.00166 0
M  V30 4304 H 409.462 -1.4293 -2.61486 0
M  V30 4305 H 406.999 -0.715838 -1.28507 0
M  V30 4306 H 408.957 0.527459 -4.13852 0
M  V30 4307 H 407.587 0.959389 -3.08214 0
M  V30 4308 H 406.639 -1.41886 -3.52948 0
M  V30 4309 H 407.951 -1.65512 -4.70539 0
M  V30 4310 H 407.105 0.271515 -6.06092 0
M  V30 4311 H 405.844 0.602075 -4.83969 0
M  V30 4312 H 404.849 -1.66795 -5.23889 0
M  V30 4313 H 406.074 -1.98891 -6.49322 0
M  V30 4314 H 404.02 0.254252 -6.55507 0
M  V30 4315 H 403.937 -1.2211 -7.46073 0
M  V30 4316 H 405.205 -0.0797596 -7.79459 0
M  V30 4317 N 409.434 1.37368 -0.772513 0
M  V30 4318 C 410.364 2.32856 -0.173304 0
M  V30 4319 C 411.345 1.55818 0.682262 0
M  V30 4320 O 412.53 1.84052 0.619566 0
M  V30 4321 C 409.66 3.40048 0.706007 0
M  V30 4322 C 408.614 4.27973 -0.0483144 0
M  V30 4323 C 407.94 5.26184 0.950491 0
M  V30 4324 C 409.24 5.07665 -1.22776 0
M  V30 4325 H 410.934 2.83217 -0.971002 0
M  V30 4326 H 408.48 1.3617 -0.468377 0
M  V30 4327 H 410.433 4.05827 1.13501 0
M  V30 4328 H 409.157 2.88214 1.53623 0
M  V30 4329 H 407.816 3.63726 -0.458107 0
M  V30 4330 H 407.464 4.7063 1.77529 0
M  V30 4331 H 407.164 5.85872 0.450314 0
M  V30 4332 H 408.688 5.94838 1.37842 0
M  V30 4333 H 410.102 5.66578 -0.875366 0
M  V30 4334 H 408.499 5.76681 -1.66007 0
M  V30 4335 H 409.569 4.40294 -2.03149 0
M  V30 4336 N 410.912 0.523116 1.48665 0
M  V30 4337 C 412.158 -0.0134963 2.02796 0
M  V30 4338 C 412.491 -1.34582 1.40004 0
M  V30 4339 O 411.766 -1.86756 0.543381 0
M  V30 4340 C 412.049 -0.14276 3.59817 0
M  V30 4341 C 411.902 1.21425 4.331 0
M  V30 4342 C 413.221 -0.872856 4.31357 0
M  V30 4343 H 410.34 -0.00343074 0.736992 0
M  V30 4344 H 412.982 0.678816 1.7746 0
M  V30 4345 H 411.132 -0.732401 3.81534 0
M  V30 4346 H 412.804 1.84447 4.2282 0
M  V30 4347 H 411.047 1.79791 3.94788 0
M  V30 4348 H 411.718 1.07687 5.41394 0
M  V30 4349 H 414.194 -0.372555 4.14429 0
M  V30 4350 H 413.07 -0.932185 5.40927 0
M  V30 4351 H 413.331 -1.92161 3.98154 0
M  V30 4352 N 412.39 -1.55475 0.257931 0
M  V30 4353 C 413.638 -1.98813 -0.363009 0
M  V30 4354 C 413.959 -1.14757 -1.57657 0
M  V30 4355 O 413.229 -0.232956 -1.9451 0
M  V30 4356 H 411.809 -0.734308 -0.137113 0
M  V30 4357 H 414.471 -1.9156 0.359281 0
M  V30 4358 H 413.567 -3.04941 -0.664634 0
M  V30 4359 N 413.868 0.0150385 -1.57593 0
M  V30 4360 C 415.284 0.370907 -1.5523 0
M  V30 4361 C 415.484 1.75735 -0.985882 0
M  V30 4362 O 414.54 2.44944 -0.613077 0
M  V30 4363 C 415.853 0.259908 -2.99575 0
M  V30 4364 C 417.401 0.335959 -3.11192 0
M  V30 4365 C 417.876 0.254253 -4.57294 0
M  V30 4366 N 419.367 0.312618 -4.62144 0
M  V30 4367 C 420.102 0.272505 -5.72752 0
M  V30 4368 N 419.598 0.183864 -6.92556 0
M  V30 4369 N 421.391 0.323267 -5.6117 0
M  V30 4370 H 413.542 -0.892104 -1.92757 0
M  V30 4371 H 415.805 -0.340563 -0.884715 0
M  V30 4372 H 415.511 -0.693403 -3.44797 0
M  V30 4373 H 415.385 1.048 -3.62349 0
M  V30 4374 H 417.772 1.27971 -2.65909 0
M  V30 4375 H 417.853 -0.481739 -2.51223 0
M  V30 4376 H 417.497 -0.685887 -5.03247 0
M  V30 4377 H 417.427 1.09024 -5.15191 0
M  V30 4378 H 419.918 0.38307 -3.75953 0
M  V30 4379 H 420.231 0.15874 -7.72637 0
M  V30 4380 H 418.576 0.149708 -6.94839 0
M  V30 4381 H 421.767 0.390607 -4.66467 0
M  V30 4382 H 421.94 0.288539 -6.47357 0
M  V30 4383 N 415.346 1.54954 0.287554 0
M  V30 4384 C 416.757 1.65732 0.859634 0
M  V30 4385 C 417.108 0.574767 1.87592 0
M  V30 4386 O 416.233 -0.286299 2.14498 0
M  V30 4387 C 416.828 3.00438 1.56597 0
M  V30 4388 C 415.387 3.13292 2.08627 0
M  V30 4389 C 414.534 2.61473 0.923416 0
M  V30 4390 H 417.485 1.5857 0.0642338 0
M  V30 4391 H 417.506 2.92613 2.43224 0
M  V30 4392 H 417.018 3.79207 0.826053 0
M  V30 4393 H 415.119 2.39268 2.85625 0
M  V30 4394 H 415.232 4.19647 2.31157 0
M  V30 4395 H 413.596 2.18264 1.31275 0
M  V30 4396 H 414.379 3.42733 0.197241 0
M  V30 4397 O 416.863 -0.433401 1.55576 0
M  V30 4398 H 417.554 -1.08681 1.60337 0
M  V30 END ATOM
M  V30 BEGIN BOND
M  V30 END BOND
M  V30 END CTAB
M  END
$$$$
