drugbank_target|P9WIP7 Nucleoid-associated protein Lsr2 (DB05154)
 OpenBabel12092121203D

  0  0  0     0  0            999 V3000
M  V30 BEGIN CTAB
M  V30 COUNTS 1696 1706 0 0 0
M  V30 BEGIN ATOM
M  V30 1 H -0.908 1.98254 -0.117106 0
M  V30 2 N 0 1.576 0 0
M  V30 3 C 0.933 2.03868 1.02534 0
M  V30 4 C 1.911 0.928543 1.3348 0
M  V30 5 O 3.095 1.19667 1.45644 0
M  V30 6 C 0.222 2.43627 2.35294 0
M  V30 7 C -0.732 3.65373 2.2001 0
M  V30 8 S 0.101 5.13292 1.52614 0
M  V30 9 C 1.257 5.56322 2.86805 0
M  V30 10 H 1.49 2.90518 0.631377 0
M  V30 11 H -0.977 1.52953 0.210867 0
M  V30 12 H 0.981 2.67203 3.11629 0
M  V30 13 H -0.358 1.57376 2.7183 0
M  V30 14 H -1.165 3.90944 3.18086 0
M  V30 15 H -1.563 3.418 1.51819 0
M  V30 16 H 0.729 5.58782 3.83104 0
M  V30 17 H 1.672 6.56266 2.65933 0
M  V30 18 H 2.08 4.83886 2.90714 0
M  V30 19 N 1.4781 -0.272755 1.55222 0
M  V30 20 C 2.4411 -1.32041 1.87344 0
M  V30 21 C 3.4411 -1.42342 0.74803 0
M  V30 22 O 4.6311 -1.41488 1.0162 0
M  V30 23 C 1.7631 -2.70173 2.07893 0
M  V30 24 H 2.9561 -1.04789 2.80997 0
M  V30 25 H 0.5091 -0.51083 1.47717 0
M  V30 26 H 1.2441 -3.02605 1.16622 0
M  V30 27 H 1.0291 -2.64082 2.89833 0
M  V30 28 H 2.5191 -3.45869 2.34017 0
M  V30 29 N 2.9562 -1.48159 -0.537278 0
M  V30 30 C 3.9032 -1.62138 -1.64256 0
M  V30 31 C 4.8732 -0.463668 -1.59497 0
M  V30 32 O 6.0582 -0.686241 -1.78032 0
M  V30 33 C 3.1982 -1.66028 -3.02537 0
M  V30 34 C 2.3112 -2.92855 -3.17585 0
M  V30 35 C 1.4462 -2.87952 -4.46382 0
M  V30 36 C 0.4852 -4.09516 -4.54932 0
M  V30 37 N -0.3778 -4.02733 -5.75109 0
M  V30 38 H 4.4622 -2.56529 -1.51647 0
M  V30 39 H 1.9992 -1.27224 -0.738414 0
M  V30 40 H 3.9572 -1.66265 -3.82638 0
M  V30 41 H 2.5872 -0.751331 -3.13934 0
M  V30 42 H 1.6392 -3.02395 -2.30784 0
M  V30 43 H 2.9512 -3.82822 -3.19764 0
M  V30 44 H 2.1052 -2.8655 -5.34765 0
M  V30 45 H 0.8442 -1.95702 -4.46712 0
M  V30 46 H -0.1508 -4.11201 -3.64957 0
M  V30 47 H 1.0742 -5.02917 -4.56346 0
M  V30 48 H -0.9798 -3.13299 -5.76351 0
M  V30 49 H -1.0628 -4.86397 -5.78752 0
M  V30 50 H 0.2052 -4.05379 -6.65799 0
M  V30 51 N 4.4343 0.785586 -1.36625 0
M  V30 52 C 5.3813 1.89838 -1.31264 0
M  V30 53 C 6.3513 1.65115 -0.180633 0
M  V30 54 O 7.5363 1.87222 -0.36777 0
M  V30 55 C 4.6763 3.26706 -1.11163 0
M  V30 56 C 3.7893 3.63476 -2.33472 0
M  V30 57 C 2.9243 4.89481 -2.06353 0
M  V30 58 C 1.9633 5.18941 -3.24602 0
M  V30 59 N 1.1003 6.36131 -2.97123 0
M  V30 60 H 5.9403 1.93756 -2.26413 0
M  V30 61 H 3.4773 0.947454 -1.12524 0
M  V30 62 H 5.4353 4.05639 -0.975337 0
M  V30 63 H 4.0653 3.222 -0.196674 0
M  V30 64 H 3.1173 2.79636 -2.57891 0
M  V30 65 H 4.4293 3.81193 -3.21704 0
M  V30 66 H 3.5833 5.76288 -1.89675 0
M  V30 67 H 2.3223 4.73841 -1.15437 0
M  V30 68 H 1.3273 4.30615 -3.41834 0
M  V30 69 H 2.5523 5.36498 -4.16349 0
M  V30 70 H 0.4983 6.21875 -2.08823 0
M  V30 71 H 0.4153 6.54198 -3.78894 0
M  V30 72 H 1.6833 7.2591 -2.84033 0
M  V30 73 N 5.9124 1.20967 1.01018 0
M  V30 74 C 7.1584 1.02526 1.74975 0
M  V30 75 C 7.4914 -0.4408 1.89131 0
M  V30 76 O 6.7664 -1.32718 1.42184 0
M  V30 77 C 7.0494 1.71699 3.1653 0
M  V30 78 C 6.9024 3.25791 3.10129 0
M  V30 79 C 8.2214 1.45531 4.15342 0
M  V30 80 H 5.3404 0.373863 0.635134 0
M  V30 81 H 7.9824 1.49071 1.17805 0
M  V30 82 H 6.1324 1.32128 3.65341 0
M  V30 83 H 7.8044 3.74697 2.69072 0
M  V30 84 H 6.0474 3.56363 2.47362 0
M  V30 85 H 6.7184 3.69353 4.10222 0
M  V30 86 H 9.1944 1.79872 3.75213 0
M  V30 87 H 8.0704 1.96453 5.1254 0
M  V30 88 H 8.3314 0.384237 4.40427 0
M  V30 89 N 7.3905 -1.2043 1.01659 0
M  V30 90 C 8.6185 -1.93777 0.725132 0
M  V30 91 C 9.0335 -1.74772 -0.714166 0
M  V30 92 O 8.3905 -1.06169 -1.4844 0
M  V30 93 C 8.4415 -3.45876 1.05129 0
M  V30 94 O 8.1625 -3.6426 2.43406 0
M  V30 95 C 9.6635 -4.36368 0.780891 0
M  V30 96 H 6.8835 -0.615901 0.266284 0
M  V30 97 H 9.4275 -1.52922 1.35776 0
M  V30 98 H 7.5825 -3.8461 0.464065 0
M  V30 99 H 7.9965 -4.58246 2.55169 0
M  V30 100 H 9.4705 -5.41743 1.05918 0
M  V30 101 H 9.9475 -4.38275 -0.284937 0
M  V30 102 H 10.5535 -4.03296 1.35027 0
M  V30 103 N 8.8686 -0.792821 -1.36206 0
M  V30 104 C 10.1146 -0.36733 -1.99446 0
M  V30 105 C 10.4476 1.05917 -1.62774 0
M  V30 106 O 9.7226 1.7324 -0.88421 0
M  V30 107 C 10.0056 -0.535044 -3.56103 0
M  V30 108 C 9.8586 -2.00548 -4.02617 0
M  V30 109 C 11.1776 0.0478191 -4.40074 0
M  V30 110 H 8.2966 -0.134941 -0.724541 0
M  V30 111 H 10.9386 -0.999794 -1.61568 0
M  V30 112 H 9.0886 0.00336329 -3.885 0
M  V30 113 H 10.7606 -2.60521 -3.80692 0
M  V30 114 H 9.0036 -2.50686 -3.54032 0
M  V30 115 H 9.6746 -2.07377 -5.11565 0
M  V30 116 H 12.1506 -0.411822 -4.14057 0
M  V30 117 H 11.0266 -0.0995336 -5.4881 0
M  V30 118 H 11.2876 1.14025 -4.27142 0
M  V30 119 N 10.3467 1.47872 -0.545128 0
M  V30 120 C 11.5747 2.06889 -0.021084 0
M  V30 121 C 11.9897 1.39955 1.2672 0
M  V30 122 O 11.3467 0.492036 1.75742 0
M  V30 123 C 11.3977 3.60996 0.190817 0
M  V30 124 O 11.1187 4.25419 -1.04644 0
M  V30 125 C 12.6197 4.36849 0.753521 0
M  V30 126 H 9.8397 0.669785 -0.0403635 0
M  V30 127 H 12.3837 1.90049 -0.755095 0
M  V30 128 H 10.5387 3.77391 0.87492 0
M  V30 129 H 10.9527 5.17785 -0.836611 0
M  V30 130 H 12.4267 5.45399 0.851139 0
M  V30 131 H 12.9037 4.02306 1.762 0
M  V30 132 H 13.5097 4.25169 0.105503 0
M  V30 133 N 11.8248 0.280983 1.55075 0
M  V30 134 C 12.7548 -0.597469 2.25727 0
M  V30 135 C 13.7358 -1.15417 1.24952 0
M  V30 136 O 14.9208 -1.18722 1.53684 0
M  V30 137 C 12.0508 -1.7789 2.98283 0
M  V30 138 C 11.0048 -1.35347 4.06036 0
M  V30 139 C 10.3308 -2.61846 4.66198 0
M  V30 140 C 11.6308 -0.499354 5.19907 0
M  V30 141 H 13.3248 -0.00824265 2.99399 0
M  V30 142 H 10.8708 -0.0025244 1.44 0
M  V30 143 H 12.8238 -2.39937 3.46422 0
M  V30 144 H 11.5478 -2.39405 2.22155 0
M  V30 145 H 10.2068 -0.756156 3.58717 0
M  V30 146 H 9.8548 -3.21632 3.86732 0
M  V30 147 H 9.5548 -2.3409 5.38958 0
M  V30 148 H 11.0788 -3.24732 5.1709 0
M  V30 149 H 12.4928 -1.02498 5.64063 0
M  V30 150 H 10.8898 -0.316424 5.99265 0
M  V30 151 H 11.9598 0.480459 4.82514 0
M  V30 152 N 13.3029 -1.57598 0.00835791 0
M  V30 153 C 14.5489 -1.91211 -0.675732 0
M  V30 154 C 14.8819 -0.883139 -1.72958 0
M  V30 155 O 14.1569 0.097016 -1.94258 0
M  V30 156 C 14.4399 -3.35379 -1.31123 0
M  V30 157 C 14.2929 -4.48999 -0.268356 0
M  V30 158 C 15.6119 -3.7912 -2.23508 0
M  V30 159 H 12.7309 -0.695374 -0.244179 0
M  V30 160 H 15.3729 -1.89901 0.0613655 0
M  V30 161 H 13.5229 -3.36626 -1.93946 0
M  V30 162 H 15.1949 -4.59887 0.360844 0
M  V30 163 H 13.4379 -4.31873 0.408482 0
M  V30 164 H 14.1089 -5.46851 -0.752218 0
M  V30 165 H 16.5849 -3.79477 -1.70693 0
M  V30 166 H 15.4609 -4.80729 -2.64936 0
M  V30 167 H 15.7219 -3.13455 -3.11766 0
M  V30 168 N 14.781 0.264519 -1.55364 0
M  V30 169 C 16.058 1.01677 -1.67096 0
M  V30 170 C 16.438 2.03996 -0.543015 0
M  V30 171 O 15.786 2.23907 0.45585 0
M  V30 172 C 15.996 1.66596 -3.0667 0
M  V30 173 C 17.344 2.17442 -3.64697 0
M  V30 174 O 18.368 1.76568 -3.09358 0
M  V30 175 O 17.227 2.92439 -4.61673 0
M  V30 176 H 14.321 0.472161 -0.678965 0
M  V30 177 H 16.867 0.259703 -1.67701 0
M  V30 178 H 15.639 0.924962 -3.80211 0
M  V30 179 H 15.262 2.48968 -3.10001 0
M  V30 180 N 16.2591 1.48442 0.529413 0
M  V30 181 C 17.5361 1.46978 1.29062 0
M  V30 182 C 17.9161 0.181769 2.10316 0
M  V30 183 O 17.2641 -0.836481 2.12639 0
M  V30 184 C 17.4741 2.7321 2.17157 0
M  V30 185 C 18.8221 3.21562 2.77278 0
M  V30 186 O 19.8461 2.74131 2.27444 0
M  V30 187 O 18.7051 4.04094 3.67927 0
M  V30 188 H 15.7991 0.587003 0.582543 0
M  V30 189 H 18.3451 1.60676 0.546021 0
M  V30 190 H 17.1171 3.58465 1.56903 0
M  V30 191 H 16.7401 2.62235 2.98862 0
M  V30 192 N 17.7372 -0.778329 1.37039 0
M  V30 193 C 18.9842 -1.53665 1.31884 0
M  V30 194 C 19.3122 -1.9425 -0.0986303 0
M  V30 195 O 18.5672 -1.63832 -1.07041 0
M  V30 196 C 18.8662 -2.81845 2.19768 0
M  V30 197 C 18.5322 -2.60345 3.68146 0
M  V30 198 C 17.1942 -2.5419 4.08584 0
M  V30 199 C 19.5462 -2.40923 4.62175 0
M  V30 200 C 16.8742 -2.26594 5.41177 0
M  V30 201 C 19.2262 -2.14852 5.94997 0
M  V30 202 C 17.8902 -2.07137 6.34547 0
M  V30 203 H 17.1602 -0.562299 0.482598 0
M  V30 204 H 19.8072 -0.897069 1.69189 0
M  V30 205 H 18.1122 -3.50328 1.75436 0
M  V30 206 H 19.8092 -3.39692 2.13097 0
M  V30 207 H 16.3992 -2.65996 3.36072 0
M  V30 208 H 20.5832 -2.44673 4.31797 0
M  V30 209 H 15.8392 -2.19111 5.70789 0
M  V30 210 H 20.0132 -1.98822 6.67415 0
M  V30 211 H 17.6402 -1.85518 7.37216 0
M  V30 212 N 19.2153 -1.21501 -1.00376 0
M  V30 213 C 20.4923 -0.941745 -1.71437 0
M  V30 214 C 20.8723 0.546114 -2.03914 0
M  V30 215 O 20.2203 1.51128 -1.71384 0
M  V30 216 C 20.4303 -1.82812 -2.97289 0
M  V30 217 C 21.7783 -2.07771 -3.70292 0
M  V30 218 O 22.8023 -1.80171 -3.07273 0
M  V30 219 O 21.6613 -2.54456 -4.83647 0
M  V30 220 H 18.7553 -0.353243 -0.747762 0
M  V30 221 H 21.3013 -1.32436 -1.06108 0
M  V30 222 H 20.0733 -2.83501 -2.69709 0
M  V30 223 H 19.6963 -1.4464 -3.70358 0
M  V30 224 N 20.6934 1.19889 -1.02296 0
M  V30 225 C 21.9414 1.89046 -0.714558 0
M  V30 226 C 22.2624 1.79636 0.758681 0
M  V30 227 O 21.5324 1.20292 1.54618 0
M  V30 228 H 20.1124 0.699802 -0.261317 0
M  V30 229 H 22.7744 1.45574 -1.29592 0
M  V30 230 H 21.8704 2.95524 -1.0036 0
M  V30 231 N 22.1715 0.800033 1.35784 0
M  V30 232 C 23.3965 0.388511 2.03729 0
M  V30 233 C 23.8215 -0.990481 1.5991 0
M  V30 234 O 23.1795 -1.64013 0.772612 0
M  V30 235 C 23.2275 0.4726 3.5749 0
M  V30 236 O 22.3315 -0.51646 4.09153 0
M  V30 237 H 21.6725 0.163271 0.643614 0
M  V30 238 H 24.2025 1.0841 1.73518 0
M  V30 239 H 24.2125 0.34003 4.06581 0
M  V30 240 H 22.8875 1.47848 3.88734 0
M  V30 241 H 21.4645 -0.344673 3.71304 0
M  V30 242 N 23.6496 -1.47581 0.552962 0
M  V30 243 C 24.8976 -2.02082 0.0272703 0
M  V30 244 C 25.2186 -1.4301 -1.32563 0
M  V30 245 O 24.4886 -0.603745 -1.86365 0
M  V30 246 H 23.0686 -0.746966 0.00709182 0
M  V30 247 H 25.7306 -1.81033 0.722008 0
M  V30 248 H 24.8266 -3.12034 -0.0639951 0
M  V30 249 N 25.1277 -0.289203 -1.54924 0
M  V30 250 C 26.0907 0.579144 -2.21762 0
M  V30 251 C 27.0907 1.07047 -1.1999 0
M  V30 252 O 28.2807 0.968384 -1.44803 0
M  V30 253 C 25.4127 1.80055 -2.8947 0
M  V30 254 H 26.6057 -0.00464908 -2.999 0
M  V30 255 H 24.1587 -0.0399306 -1.56249 0
M  V30 256 H 24.8937 2.42449 -2.15381 0
M  V30 257 H 24.6787 1.45602 -3.64064 0
M  V30 258 H 26.1687 2.41773 -3.40493 0
M  V30 259 N 26.6058 1.57591 -0.0167156 0
M  V30 260 C 27.5688 2.08393 0.954204 0
M  V30 261 C 28.5688 0.996531 1.26198 0
M  V30 262 O 29.7588 1.25858 1.20438 0
M  V30 263 C 26.8908 2.5394 2.27436 0
M  V30 264 H 28.0838 2.95455 0.514451 0
M  V30 265 H 25.6368 1.54582 0.231089 0
M  V30 266 H 26.3718 1.70171 2.76066 0
M  V30 267 H 26.1568 3.33371 2.06412 0
M  V30 268 H 27.6468 2.93512 2.97053 0
M  V30 269 N 28.0839 -0.256276 1.55502 0
M  V30 270 C 29.3609 -1.00789 1.67633 0
M  V30 271 C 29.7409 -2.03706 0.553826 0
M  V30 272 O 29.0889 -2.24145 -0.443969 0
M  V30 273 C 29.2989 -1.64968 3.07549 0
M  V30 274 C 30.6469 -2.15505 3.65845 0
M  V30 275 O 31.6709 -1.74925 3.1029 0
M  V30 276 O 30.5299 -2.89986 4.63217 0
M  V30 277 H 27.6239 -0.468553 0.681459 0
M  V30 278 H 30.1699 -0.250806 1.67836 0
M  V30 279 H 28.9419 -0.904785 3.80696 0
M  V30 280 H 28.5649 -2.47321 3.11317 0
M  V30 281 N 29.562 -1.4872 -0.521534 0
M  V30 282 C 30.472 -1.66569 -1.65203 0
M  V30 283 C 31.488 -0.548197 -1.65139 0
M  V30 284 O 32.664 -0.820339 -1.83936 0
M  V30 285 C 29.729 -1.70917 -3.01642 0
M  V30 286 C 28.79 -2.94356 -3.12495 0
M  V30 287 C 28.023 -2.98487 -4.42426 0
M  V30 288 O 28.246 -2.10786 -5.30024 0
M  V30 289 O 27.18 -3.90746 -4.57822 0
M  V30 290 H 31.006 -2.62298 -1.5308 0
M  V30 291 H 28.591 -1.3222 -0.695565 0
M  V30 292 H 30.473 -1.7625 -3.82771 0
M  V30 293 H 29.148 -0.783633 -3.14071 0
M  V30 294 H 28.055 -2.94552 -2.3063 0
M  V30 295 H 29.388 -3.86322 -3.04986 0
M  V30 296 N 31.0401 0.771051 -1.3745 0
M  V30 297 C 32.2681 1.56015 -1.35893 0
M  V30 298 C 32.6831 1.88718 0.0555523 0
M  V30 299 O 32.0401 1.51502 1.01752 0
M  V30 300 C 32.0911 2.87001 -2.19801 0
M  V30 301 O 31.8121 2.557 -3.55738 0
M  V30 302 C 33.3131 3.81228 -2.26231 0
M  V30 303 H 30.5331 0.483317 -0.465453 0
M  V30 304 H 33.0771 0.955611 -1.80799 0
M  V30 305 H 31.2321 3.43877 -1.78402 0
M  V30 306 H 31.6461 3.39584 -3.99729 0
M  V30 307 H 33.1201 4.70139 -2.89263 0
M  V30 308 H 33.5971 4.20409 -1.27093 0
M  V30 309 H 34.2031 3.30281 -2.67945 0
M  V30 310 N 32.5182 1.22032 0.997298 0
M  V30 311 C 33.7642 1.04376 1.73878 0
M  V30 312 C 34.0972 -0.420716 1.89588 0
M  V30 313 O 33.3722 -1.31202 1.43583 0
M  V30 314 C 33.6552 1.75047 3.14691 0
M  V30 315 C 33.5082 3.29062 3.06656 0
M  V30 316 C 34.8272 1.49928 4.13775 0
M  V30 317 H 31.9462 0.380578 0.631133 0
M  V30 318 H 34.5882 1.50312 1.16217 0
M  V30 319 H 32.7382 1.35996 3.63919 0
M  V30 320 H 34.4102 3.7753 2.65083 0
M  V30 321 H 32.6532 3.58967 2.43568 0
M  V30 322 H 33.3242 3.73683 4.06282 0
M  V30 323 H 35.8002 1.83842 3.73285 0
M  V30 324 H 34.6762 2.01878 5.10428 0
M  V30 325 H 34.9372 0.430929 4.39995 0
M  V30 326 N 33.9963 -1.19345 1.0293 0
M  V30 327 C 34.9063 -2.26245 0.620515 0
M  V30 328 C 35.9223 -1.70486 -0.347928 0
M  V30 329 O 37.0983 -2.00347 -0.205704 0
M  V30 330 C 34.1633 -3.46693 -0.0218957 0
M  V30 331 C 33.2243 -4.17632 0.994102 0
M  V30 332 C 32.4573 -5.32329 0.382253 0
M  V30 333 O 32.6803 -5.64552 -0.814676 0
M  V30 334 O 31.6143 -5.91664 1.10531 0
M  V30 335 H 35.4403 -2.63453 1.51083 0
M  V30 336 H 33.0253 -1.26207 0.799513 0
M  V30 337 H 34.9073 -4.19683 -0.380072 0
M  V30 338 H 33.5823 -3.11333 -0.886209 0
M  V30 339 H 32.4893 -3.4676 1.40387 0
M  V30 340 H 33.8223 -4.56964 1.8288 0
M  V30 341 N 35.4744 -0.807222 -1.35358 0
M  V30 342 C 36.7214 -0.387888 -1.9875 0
M  V30 343 C 37.0494 1.04509 -1.64037 0
M  V30 344 O 36.3044 1.73986 -0.895946 0
M  V30 345 C 36.6034 -0.519036 -3.53611 0
M  V30 346 C 36.2694 -1.91542 -4.08194 0
M  V30 347 C 34.9314 -2.29745 -4.22813 0
M  V30 348 C 37.2834 -2.82896 -4.37744 0
M  V30 349 C 34.6114 -3.58668 -4.643 0
M  V30 350 C 36.9634 -4.11265 -4.8067 0
M  V30 351 C 35.6274 -4.49466 -4.93494 0
M  V30 352 H 34.8974 -0.141938 -0.727279 0
M  V30 353 H 37.5444 -1.02814 -1.6156 0
M  V30 354 H 35.8494 0.204658 -3.91265 0
M  V30 355 H 37.5464 -0.175345 -4.00616 0
M  V30 356 H 34.1364 -1.60862 -3.97268 0
M  V30 357 H 38.3204 -2.54629 -4.26002 0
M  V30 358 H 33.5764 -3.88113 -4.72418 0
M  V30 359 H 37.7504 -4.82153 -5.02496 0
M  V30 360 H 35.3774 -5.49418 -5.25399 0
M  V30 361 N 36.9525 1.47285 -0.560781 0
M  V30 362 C 38.2005 2.02064 -0.0379868 0
M  V30 363 C 38.5215 1.43711 1.31803 0
M  V30 364 O 37.7915 0.61362 1.86042 0
M  V30 365 H 36.3715 0.746918 -0.0110531 0
M  V30 366 H 39.0335 1.80648 -0.731598 0
M  V30 367 H 38.1295 3.12064 0.0474463 0
M  V30 368 N 38.4306 0.297415 1.54768 0
M  V30 369 C 39.3606 -0.573494 2.26348 0
M  V30 370 C 40.3416 -1.14085 1.26169 0
M  V30 371 O 41.5266 -1.17086 1.54934 0
M  V30 372 C 38.6566 -1.74716 3.00153 0
M  V30 373 C 37.6106 -1.31032 4.07449 0
M  V30 374 C 36.9366 -2.56887 4.68949 0
M  V30 375 C 38.2366 -0.444183 5.20408 0
M  V30 376 H 39.9306 0.0235131 2.99391 0
M  V30 377 H 37.4766 0.0127488 1.43994 0
M  V30 378 H 39.4296 -2.3625 3.48947 0
M  V30 379 H 38.1536 -2.37035 2.24682 0
M  V30 380 H 36.8126 -0.718066 3.59499 0
M  V30 381 H 36.4606 -3.17512 3.90122 0
M  V30 382 H 36.1606 -2.2836 5.41411 0
M  V30 383 H 37.6846 -3.19229 5.20505 0
M  V30 384 H 39.0986 -0.9651 5.65118 0
M  V30 385 H 37.4956 -0.252846 5.99567 0
M  V30 386 H 38.5656 0.531609 4.81977 0
M  V30 387 N 39.9087 -1.5758 0.0250728 0
M  V30 388 C 41.1857 -1.82917 -0.692873 0
M  V30 389 C 41.5657 -0.908137 -1.90568 0
M  V30 390 O 40.9137 0.0372298 -2.2847 0
M  V30 391 C 41.1237 -3.32034 -1.07492 0
M  V30 392 C 42.4717 -3.98406 -1.46826 0
M  V30 393 O 43.4957 -3.36505 -1.16801 0
M  V30 394 O 42.3547 -5.07497 -2.02754 0
M  V30 395 H 39.4487 -0.754079 -0.33955 0
M  V30 396 H 41.9947 -1.69619 0.0524456 0
M  V30 397 H 40.7667 -3.90728 -0.211552 0
M  V30 398 H 40.3897 -3.50424 -1.87854 0
M  V30 399 N 41.3868 0.248026 -1.55636 0
M  V30 400 C 42.6348 0.974295 -1.77065 0
M  V30 401 C 42.9558 1.85897 -0.588849 0
M  V30 402 O 42.2258 1.91868 0.395407 0
M  V30 403 H 40.8058 0.362733 -0.653019 0
M  V30 404 H 43.4678 0.266244 -1.93073 0
M  V30 405 H 42.5638 1.59667 -2.68166 0
M  V30 406 N 42.8649 1.48995 0.513639 0
M  V30 407 C 44.1109 1.58076 1.27042 0
M  V30 408 C 44.4439 0.261026 1.92438 0
M  V30 409 O 43.7189 -0.734393 1.80103 0
M  V30 410 C 44.0019 2.73091 2.34719 0
M  V30 411 C 43.8549 4.14821 1.73907 0
M  V30 412 C 45.1739 2.83796 3.36375 0
M  V30 413 H 42.2929 0.575391 0.460536 0
M  V30 414 H 44.9349 1.81232 0.570516 0
M  V30 415 H 43.0849 2.53479 2.94416 0
M  V30 416 H 44.7569 4.45917 1.18135 0
M  V30 417 H 42.9999 4.21058 1.0437 0
M  V30 418 H 43.6709 4.91147 2.51949 0
M  V30 419 H 46.1469 3.01611 2.86653 0
M  V30 420 H 45.0229 3.65971 4.09093 0
M  V30 421 H 45.2839 1.92624 3.9793 0
M  V30 422 N 44.343 -0.763751 1.37857 0
M  V30 423 C 45.571 -1.55293 1.36718 0
M  V30 424 C 45.986 -1.88745 -0.0455434 0
M  V30 425 O 45.343 -1.52039 -1.00947 0
M  V30 426 C 45.394 -2.85831 2.2132 0
M  V30 427 O 45.115 -2.5381 3.57089 0
M  V30 428 C 46.616 -3.80023 2.28249 0
M  V30 429 H 43.836 -0.480841 0.468009 0
M  V30 430 H 46.38 -0.946009 1.81303 0
M  V30 431 H 44.535 -3.42926 1.80223 0
M  V30 432 H 44.949 -3.37459 4.01524 0
M  V30 433 H 46.423 -4.68599 2.91752 0
M  V30 434 H 46.9 -4.1973 1.2932 0
M  V30 435 H 47.506 -3.28855 2.69693 0
M  V30 436 N 45.8211 -1.22559 -0.990812 0
M  V30 437 C 47.0511 -1.07623 -1.76355 0
M  V30 438 C 47.4591 0.37601 -1.85426 0
M  V30 439 O 46.8021 1.27228 -1.32509 0
M  V30 440 C 46.8641 -1.61507 -3.21179 0
M  V30 441 C 46.5281 -3.10146 -3.35646 0
M  V30 442 C 47.5251 -4.07553 -3.22796 0
M  V30 443 C 45.2101 -3.49644 -3.60631 0
M  V30 444 C 47.2041 -5.42442 -3.34716 0
M  V30 445 C 44.8911 -4.84682 -3.72192 0
M  V30 446 C 45.8891 -5.8089 -3.59243 0
M  V30 447 O 45.5771 -7.13476 -3.70415 0
M  V30 448 H 45.3091 -0.377745 -0.560611 0
M  V30 449 H 47.8631 -1.62658 -1.25425 0
M  V30 450 H 46.0931 -1.00881 -3.73309 0
M  V30 451 H 47.7821 -1.42202 -3.80175 0
M  V30 452 H 48.5481 -3.78381 -3.03403 0
M  V30 453 H 44.4271 -2.75282 -3.69785 0
M  V30 454 H 47.9711 -6.17518 -3.24526 0
M  V30 455 H 43.8681 -5.13534 -3.91092 0
M  V30 456 H 44.6361 -7.21083 -3.87275 0
M  V30 457 N 47.2992 1.18797 -1.03562 0
M  V30 458 C 48.2092 2.25913 -0.632505 0
M  V30 459 C 49.2252 1.70668 0.338882 0
M  V30 460 O 50.4012 2.00453 0.195076 0
M  V30 461 C 47.4662 3.467 0.00350942 0
M  V30 462 C 46.5272 4.17098 -1.01624 0
M  V30 463 C 45.7602 5.32119 -0.410478 0
M  V30 464 O 45.9832 5.64976 0.784725 0
M  V30 465 O 44.9172 5.9107 -1.13667 0
M  V30 466 H 48.7432 2.62648 -1.52478 0
M  V30 467 H 46.3282 1.25781 -0.806195 0
M  V30 468 H 48.2102 4.19878 0.35781 0
M  V30 469 H 46.8852 3.11798 0.869686 0
M  V30 470 H 45.7922 3.4601 -1.42224 0
M  V30 471 H 47.1252 4.55987 -1.85301 0
M  V30 472 N 48.7773 0.814389 1.34928 0
M  V30 473 C 50.0263 0.394871 1.97797 0
M  V30 474 C 50.3393 -1.04555 1.65311 0
M  V30 475 O 51.5453 -1.56856 2.21604 0
M  V30 476 C 50.0013 0.655103 3.53888 0
M  V30 477 C 49.6093 2.10858 3.95276 0
M  V30 478 C 51.3533 0.301329 4.23429 0
M  V30 479 C 49.2603 2.31415 5.44244 0
M  V30 480 H 48.1903 0.143913 0.740139 0
M  V30 481 H 50.8413 0.999544 1.53888 0
M  V30 482 H 49.2233 -0.0196253 3.95995 0
M  V30 483 H 50.3973 2.82176 3.64298 0
M  V30 484 H 48.7123 2.42297 3.38646 0
M  V30 485 H 51.3093 0.432869 5.32945 0
M  V30 486 H 51.6523 -0.75331 4.09428 0
M  V30 487 H 52.1853 0.930288 3.86769 0
M  V30 488 H 48.9243 3.35353 5.63222 0
M  V30 489 H 48.4443 1.6463 5.76764 0
M  V30 490 H 50.1233 2.13352 6.10811 0
M  V30 491 N 50.2554 -1.46986 0.568584 0
M  V30 492 C 51.5324 -1.95592 -0.0174074 0
M  V30 493 C 51.9124 -1.51124 -1.47393 0
M  V30 494 O 51.2604 -0.755329 -2.15655 0
M  V30 495 C 51.4704 -3.48719 0.139913 0
M  V30 496 C 52.8184 -4.246 0.000426376 0
M  V30 497 O 53.8424 -3.56135 0.0680316 0
M  V30 498 O 52.7014 -5.46302 -0.146988 0
M  V30 499 H 49.7954 -0.82498 -0.0577599 0
M  V30 500 H 52.3414 -1.57335 0.635909 0
M  V30 501 H 51.1134 -3.73927 1.15301 0
M  V30 502 H 50.7364 -3.93771 -0.550491 0
M  V30 503 N 51.7335 -0.305618 -1.54608 0
M  V30 504 C 52.6635 0.561482 -2.26649 0
M  V30 505 C 53.6445 1.13415 -1.26772 0
M  V30 506 O 54.8295 1.16262 -1.55553 0
M  V30 507 C 51.9595 1.73122 -3.01075 0
M  V30 508 C 50.9135 1.2887 -4.08138 0
M  V30 509 C 50.2395 2.54396 -4.70305 0
M  V30 510 C 51.5395 0.416578 -5.20636 0
M  V30 511 H 53.2335 -0.0393902 -2.99374 0
M  V30 512 H 50.7795 -0.020385 -1.43986 0
M  V30 513 H 52.7325 2.34396 -3.50195 0
M  V30 514 H 51.4565 2.3584 -2.25936 0
M  V30 515 H 50.1155 0.698991 -3.59875 0
M  V30 516 H 49.7635 3.15439 -3.918 0
M  V30 517 H 49.4635 2.25486 -5.42614 0
M  V30 518 H 50.9875 3.16464 -5.2219 0
M  V30 519 H 52.4015 0.935116 -5.65622 0
M  V30 520 H 50.7985 0.221046 -5.99693 0
M  V30 521 H 51.8685 -0.557162 -4.81688 0
M  V30 522 N 53.2116 1.57565 -0.0334293 0
M  V30 523 C 54.4366 1.96689 0.657895 0
M  V30 524 C 54.8616 0.910057 1.64619 0
M  V30 525 O 54.2196 -0.128598 1.80843 0
M  V30 526 C 54.2676 3.34905 1.33683 0
M  V30 527 O 53.3716 3.31574 2.45219 0
M  V30 528 H 52.7126 0.641205 0.172489 0
M  V30 529 H 55.2426 2.04372 -0.0965621 0
M  V30 530 H 55.2526 3.71234 1.69262 0
M  V30 531 H 53.9276 4.11366 0.612411 0
M  V30 532 H 52.5046 3.06968 2.11719 0
M  V30 533 N 54.6897 -0.239769 1.55765 0
M  V30 534 C 55.9177 -0.98417 1.81994 0
M  V30 535 C 56.3327 -1.7867 0.610124 0
M  V30 536 O 55.6897 -1.77571 -0.421271 0
M  V30 537 C 55.7407 -1.91635 3.06526 0
M  V30 538 O 55.4617 -1.14629 4.22838 0
M  V30 539 C 56.9627 -2.77616 3.45607 0
M  V30 540 H 54.1827 -0.28928 0.605441 0
M  V30 541 H 56.7267 -0.260499 2.02834 0
M  V30 542 H 54.8817 -2.5942 2.87715 0
M  V30 543 H 55.2957 -1.77745 4.93464 0
M  V30 544 H 56.7697 -3.38759 4.35828 0
M  V30 545 H 57.2467 -3.4909 2.6652 0
M  V30 546 H 57.8527 -2.15271 3.66795 0
M  V30 547 N 56.1678 -1.49265 -0.50573 0
M  V30 548 C 57.1148 -1.65585 -1.6078 0
M  V30 549 C 58.0848 -0.497396 -1.58478 0
M  V30 550 O 59.2698 -0.72385 -1.76536 0
M  V30 551 C 56.4098 -1.72408 -2.98948 0
M  V30 552 C 55.5228 -2.99525 -3.11301 0
M  V30 553 C 54.6578 -2.97356 -4.40174 0
M  V30 554 C 53.6968 -4.19074 -4.46143 0
M  V30 555 N 52.8338 -4.14841 -5.66437 0
M  V30 556 H 57.6738 -2.59688 -1.46172 0
M  V30 557 H 55.2108 -1.28761 -0.711261 0
M  V30 558 H 57.1688 -1.74344 -3.79025 0
M  V30 559 H 55.7988 -0.817753 -3.1227 0
M  V30 560 H 54.8508 -3.07222 -2.24318 0
M  V30 561 H 56.1628 -3.89518 -3.11572 0
M  V30 562 H 55.3168 -2.97829 -5.28567 0
M  V30 563 H 54.0558 -2.05133 -4.42461 0
M  V30 564 H 53.0608 -4.1885 -3.56153 0
M  V30 565 H 54.2858 -5.12483 -4.45575 0
M  V30 566 H 52.2318 -3.25453 -5.69575 0
M  V30 567 H 52.1488 -4.98564 -5.68304 0
M  V30 568 H 53.4168 -4.1941 -6.57051 0
M  V30 569 N 57.6459 0.756429 -1.3826 0
M  V30 570 C 58.5939 1.89149 -1.35372 0
M  V30 571 C 59.5879 1.67691 -0.24004 0
M  V30 572 O 60.7939 1.75294 -0.408919 0
M  V30 573 H 57.1689 0.622271 -0.422236 0
M  V30 574 H 59.1399 1.88701 -2.31159 0
M  V30 575 C 57.8889 3.26599 -1.19284 0
M  V30 576 H 57.2119 3.43695 -2.0424 0
M  V30 577 H 58.6519 4.06274 -1.21316 0
M  V30 578 C 57.1109 3.3675 0.100454 0
M  V30 579 O 57.6409 3.86951 1.07851 0
M  V30 580 N 55.8469 2.90179 0.15633 0
M  V30 581 H 55.3939 2.49517 -0.640253 0
M  V30 582 H 55.3519 2.97352 1.02123 0
M  V30 583 N 59.124 1.23083 0.984299 0
M  V30 584 C 60.087 1.00979 2.05757 0
M  V30 585 C 61.087 -0.0269573 1.60777 0
M  V30 586 O 62.277 0.212403 1.729 0
M  V30 587 C 59.409 0.527072 3.36801 0
M  V30 588 H 60.602 1.9622 2.26799 0
M  V30 589 H 58.155 1.05072 1.15714 0
M  V30 590 H 58.89 -0.429294 3.21446 0
M  V30 591 H 58.675 1.27515 3.70786 0
M  V30 592 H 60.165 0.392942 4.15747 0
M  V30 593 N 60.6021 -1.18246 1.0419 0
M  V30 594 C 61.8301 -1.92195 0.766072 0
M  V30 595 C 62.2451 -1.76247 -0.676933 0
M  V30 596 O 61.6021 -1.09293 -1.46155 0
M  V30 597 C 61.6531 -3.43568 1.12442 0
M  V30 598 O 61.3741 -3.59015 2.51078 0
M  V30 599 C 62.8751 -4.34613 0.873275 0
M  V30 600 H 60.0951 -0.610114 0.279288 0
M  V30 601 H 62.6391 -1.50007 1.38989 0
M  V30 602 H 60.7941 -3.8354 0.545542 0
M  V30 603 H 61.2081 -4.5273 2.64831 0
M  V30 604 H 62.6821 -5.39374 1.17385 0
M  V30 605 H 63.1591 -4.38781 -0.191909 0
M  V30 606 H 63.7651 -4.00341 1.43551 0
M  V30 607 N 62.0802 -0.821533 -1.34494 0
M  V30 608 C 63.0272 -0.240397 -2.29545 0
M  V30 609 C 63.9972 0.634031 -1.53523 0
M  V30 610 O 65.1822 0.575966 -1.81899 0
M  V30 611 C 62.3222 0.592869 -3.39969 0
M  V30 612 C 61.4352 -0.30365 -4.30932 0
M  V30 613 C 60.5702 0.539049 -5.28458 0
M  V30 614 C 59.6092 -0.356942 -6.11058 0
M  V30 615 N 58.7462 0.446603 -7.00678 0
M  V30 616 H 63.5862 -1.05632 -2.7865 0
M  V30 617 H 61.1232 -0.532413 -1.37127 0
M  V30 618 H 63.0812 1.09129 -4.02675 0
M  V30 619 H 61.7112 1.37392 -2.92102 0
M  V30 620 H 60.7632 -0.920276 -3.691 0
M  V30 621 H 62.0752 -0.992661 -4.88823 0
M  V30 622 H 61.2292 1.102 -5.96608 0
M  V30 623 H 59.9682 1.26157 -4.71101 0
M  V30 624 H 58.9732 -0.932047 -5.41842 0
M  V30 625 H 60.1982 -1.07755 -6.70497 0
M  V30 626 H 58.1442 1.15282 -6.45791 0
M  V30 627 H 58.0612 -0.184048 -7.55776 0
M  V30 628 H 59.3292 0.992352 -7.73158 0
M  V30 629 N 63.5583 1.46682 -0.576371 0
M  V30 630 C 64.4883 2.33028 0.148397 0
M  V30 631 C 65.4693 1.44961 0.889956 0
M  V30 632 O 66.6543 1.73789 0.866662 0
M  V30 633 C 63.7843 3.27117 1.1667 0
M  V30 634 C 62.7383 4.24575 0.540386 0
M  V30 635 C 62.0643 5.08126 1.6647 0
M  V30 636 C 63.3643 5.19722 -0.518331 0
M  V30 637 H 65.0583 2.93875 -0.572509 0
M  V30 638 H 62.6043 1.41315 -0.276768 0
M  V30 639 H 64.5573 3.86374 1.68204 0
M  V30 640 H 63.2813 2.64364 1.9178 0
M  V30 641 H 61.9403 3.66571 0.0461769 0
M  V30 642 H 61.5883 4.41762 2.40531 0
M  V30 643 H 61.2883 5.74122 1.25131 0
M  V30 644 H 62.8123 5.70246 2.18293 0
M  V30 645 H 64.2263 5.73232 -0.0883058 0
M  V30 646 H 62.6233 5.94026 -0.851679 0
M  V30 647 H 63.6933 4.64037 -1.40703 0
M  V30 648 N 65.0364 0.313813 1.54444 0
M  V30 649 C 66.4524 -0.0391619 1.59552 0
M  V30 650 C 66.6524 -1.51322 1.33056 0
M  V30 651 O 65.7084 -2.26782 1.11022 0
M  V30 652 C 67.0214 0.370302 2.98411 0
M  V30 653 C 68.5694 0.320139 3.11358 0
M  V30 654 C 69.0444 0.704617 4.52547 0
M  V30 655 N 70.5354 0.657645 4.58508 0
M  V30 656 C 71.2704 0.927453 5.6585 0
M  V30 657 N 70.7664 1.26389 6.81174 0
M  V30 658 N 72.5594 0.853662 5.5558 0
M  V30 659 H 64.7104 1.27433 1.69925 0
M  V30 660 H 66.9734 0.517511 0.794284 0
M  V30 661 H 66.6794 1.39694 3.22767 0
M  V30 662 H 66.5534 -0.269619 3.76235 0
M  V30 663 H 68.9404 -0.697275 2.86744 0
M  V30 664 H 69.0214 0.99486 2.35661 0
M  V30 665 H 68.6654 1.7199 4.77893 0
M  V30 666 H 68.5954 0.00768843 5.26599 0
M  V30 667 H 71.0864 0.409067 3.75679 0
M  V30 668 H 71.3994 1.4554 7.58972 0
M  V30 669 H 69.7444 1.30206 6.82694 0
M  V30 670 H 72.9354 0.590383 4.64362 0
M  V30 671 H 73.1084 1.0673 6.3915 0
M  V30 672 N 66.5145 -1.57545 0.0417849 0
M  V30 673 C 67.7625 -1.91937 -0.632829 0
M  V30 674 C 68.0835 -0.919978 -1.71934 0
M  V30 675 O 67.3535 0.0366064 -1.95866 0
M  V30 676 H 65.9335 -0.708493 -0.236742 0
M  V30 677 H 68.5955 -1.9468 0.0925745 0
M  V30 678 H 67.6915 -2.92912 -1.07746 0
M  V30 679 N 67.9926 0.231505 -1.5589 0
M  V30 680 C 69.2696 0.981096 -1.69215 0
M  V30 681 C 69.6496 2.02799 -0.586164 0
M  V30 682 O 68.9976 2.24823 0.408253 0
M  V30 683 C 69.2076 1.60054 -3.10135 0
M  V30 684 C 70.5556 2.09658 -3.69227 0
M  V30 685 O 71.5796 1.69967 -3.13033 0
M  V30 686 O 70.4386 2.8258 -4.67772 0
M  V30 687 H 67.5326 0.457653 -0.688827 0
M  V30 688 H 70.0786 0.224073 -1.68214 0
M  V30 689 H 68.8506 0.844105 -3.82087 0
M  V30 690 H 68.4736 2.42336 -3.15212 0
M  V30 691 N 69.4707 1.49531 0.497807 0
M  V30 692 C 70.4007 1.6935 1.60757 0
M  V30 693 C 71.3817 0.542218 1.61227 0
M  V30 694 O 72.5667 0.778417 1.77917 0
M  V30 695 C 69.6967 1.76298 2.99226 0
M  V30 696 C 68.6507 2.91248 3.13622 0
M  V30 697 C 67.9767 2.83312 4.53474 0
M  V30 698 C 69.2767 4.3214 2.93346 0
M  V30 699 H 70.9707 2.62263 1.44425 0
M  V30 700 H 68.5167 1.26208 0.693367 0
M  V30 701 H 70.4697 1.88749 3.76765 0
M  V30 702 H 69.1937 0.799871 3.16654 0
M  V30 703 H 67.8527 2.78404 2.38509 0
M  V30 704 H 67.5007 1.84902 4.67782 0
M  V30 705 H 67.2007 3.60465 4.64046 0
M  V30 706 H 68.7247 2.97775 5.33069 0
M  V30 707 H 70.1387 4.45649 3.60652 0
M  V30 708 H 68.5357 5.1054 3.15387 0
M  V30 709 H 69.6057 4.46363 1.89441 0
M  V30 710 N 70.9488 -0.749086 1.3866 0
M  V30 711 C 71.8958 -1.86291 1.36251 0
M  V30 712 C 72.8658 -1.64578 0.224347 0
M  V30 713 O 74.0508 -1.86181 0.417279 0
M  V30 714 C 71.1908 -3.23644 1.19786 0
M  V30 715 C 70.3038 -3.57158 2.43027 0
M  V30 716 C 69.4388 -4.83838 2.19258 0
M  V30 717 C 68.4778 -5.10152 3.38247 0
M  V30 718 N 67.6148 -6.28029 3.13884 0
M  V30 719 H 72.4548 -1.87685 2.3147 0
M  V30 720 H 69.9918 -0.917287 1.14997 0
M  V30 721 H 71.9498 -4.0291 1.08254 0
M  V30 722 H 70.5798 -3.21566 0.282031 0
M  V30 723 H 69.6318 -2.72701 2.65214 0
M  V30 724 H 70.9438 -3.7253 3.31697 0
M  V30 725 H 70.0978 -5.71057 2.04888 0
M  V30 726 H 68.8368 -4.70614 1.2796 0
M  V30 727 H 67.8418 -4.21401 3.53131 0
M  V30 728 H 69.0668 -5.25271 4.30427 0
M  V30 729 H 67.0128 -6.1612 2.25238 0
M  V30 730 H 66.9298 -6.43922 3.96106 0
M  V30 731 H 68.1978 -7.18124 3.03179 0
M  V30 732 N 72.4269 -1.23603 -0.977757 0
M  V30 733 C 73.3589 -0.977369 -2.07317 0
M  V30 734 C 74.3719 0.0495845 -1.62724 0
M  V30 735 O 75.5609 -0.186261 -1.77526 0
M  V30 736 C 72.6609 -0.451216 -3.35883 0
M  V30 737 C 71.8339 -1.53896 -4.09432 0
M  V30 738 C 70.8929 -1.01721 -5.16274 0
M  V30 739 O 69.9189 -1.70676 -5.43009 0
M  V30 740 N 71.1209 0.153594 -5.80297 0
M  V30 741 H 73.8859 -1.92047 -2.30082 0
M  V30 742 H 71.4469 -1.14497 -1.14465 0
M  V30 743 H 73.4389 -0.0871574 -4.04606 0
M  V30 744 H 72.0089 0.397368 -3.10064 0
M  V30 745 H 71.2289 -2.07566 -3.35127 0
M  V30 746 H 72.5169 -2.27037 -4.55337 0
M  V30 747 H 71.9149 0.730323 -5.60966 0
M  V30 748 H 70.4719 0.458892 -6.50183 0
M  V30 749 N 73.905 1.17692 -1.04816 0
M  V30 750 C 75.151 1.88389 -0.766892 0
M  V30 751 C 75.506 1.79282 0.698269 0
M  V30 752 O 74.799 1.18739 1.50372 0
M  V30 753 C 74.993 3.37462 -1.17703 0
M  V30 754 C 74.822 3.6108 -2.68051 0
M  V30 755 C 73.592 3.78018 -3.35307 0
M  V30 756 C 75.79 3.61039 -3.66273 0
M  V30 757 N 73.772 3.89444 -4.74559 0
M  V30 758 C 75.143 3.78269 -4.91235 0
M  V30 759 C 77.198 3.44168 -3.59796 0
M  V30 760 C 75.901 3.80376 -6.10497 0
M  V30 761 C 77.927 3.4756 -4.78493 0
M  V30 762 C 77.289 3.65295 -6.02278 0
M  V30 763 H 73.388 0.707651 -0.332798 0
M  V30 764 H 75.972 1.41314 -1.33934 0
M  V30 765 H 74.143 3.83214 -0.63257 0
M  V30 766 H 75.875 3.95759 -0.845989 0
M  V30 767 H 72.63 3.77714 -2.85708 0
M  V30 768 H 73.054 3.98962 -5.46954 0
M  V30 769 H 77.696 3.29396 -2.65062 0
M  V30 770 H 75.414 3.93933 -7.05579 0
M  V30 771 H 79 3.3577 -4.75131 0
M  V30 772 H 77.88 3.6782 -6.92588 0
M  V30 773 N 75.3831 0.828654 1.34056 0
M  V30 774 C 76.6291 0.42008 1.98402 0
M  V30 775 C 76.9621 -1.01564 1.65525 0
M  V30 776 O 76.2371 -1.70834 0.929831 0
M  V30 777 C 76.5201 0.62927 3.54559 0
M  V30 778 C 76.3731 2.11152 3.97159 0
M  V30 779 C 77.6921 0.0688756 4.40046 0
M  V30 780 H 74.8111 0.154104 0.720709 0
M  V30 781 H 77.4531 1.04228 1.5886 0
M  V30 782 H 75.6031 0.0996418 3.88372 0
M  V30 783 H 77.2751 2.70522 3.73651 0
M  V30 784 H 75.5181 2.59985 3.47261 0
M  V30 785 H 76.1891 2.20868 5.05887 0
M  V30 786 H 78.6651 0.521458 4.1282 0
M  V30 787 H 77.5411 0.245006 5.48353 0
M  V30 788 H 77.8021 -1.0266 4.30015 0
M  V30 789 N 76.8612 -1.46375 0.584142 0
M  V30 790 C 77.8242 -2.28784 -0.138108 0
M  V30 791 C 78.8242 -1.38471 -0.817462 0
M  V30 792 O 80.0142 -1.60833 -0.669199 0
M  V30 793 C 77.1462 -3.18892 -1.20503 0
M  V30 794 H 78.3392 -2.94117 0.586127 0
M  V30 795 H 75.8922 -1.52509 0.342171 0
M  V30 796 H 76.6272 -2.58309 -1.96079 0
M  V30 797 H 76.4122 -3.85388 -0.722384 0
M  V30 798 H 77.9022 -3.80914 -1.71155 0
M  V30 799 N 78.3393 -0.321999 -1.54275 0
M  V30 800 C 79.3023 0.531975 -2.22941 0
M  V30 801 C 80.3023 1.04478 -1.22234 0
M  V30 802 O 81.4923 0.937452 -1.46825 0
M  V30 803 C 78.6243 1.73874 -2.93224 0
M  V30 804 H 79.8173 -0.0682612 -2.99822 0
M  V30 805 H 77.3703 -0.0730644 -1.56129 0
M  V30 806 H 78.1053 2.37825 -2.20476 0
M  V30 807 H 77.8903 1.37847 -3.6707 0
M  V30 808 H 79.3803 2.34496 -3.45545 0
M  V30 809 N 79.8174 1.5752 -0.0501392 0
M  V30 810 C 81.0654 1.9227 0.622642 0
M  V30 811 C 81.3864 0.929083 1.71444 0
M  V30 812 O 80.6564 -0.0262186 1.95882 0
M  V30 813 H 79.2364 0.709739 0.232981 0
M  V30 814 H 81.8984 1.94628 -0.102898 0
M  V30 815 H 80.9944 2.93479 1.06191 0
M  V30 816 N 81.2955 -0.223234 1.56011 0
M  V30 817 C 82.7115 -0.572856 1.48965 0
M  V30 818 C 82.9115 -1.87225 0.74492 0
M  V30 819 O 81.9675 -2.50899 0.283896 0
M  V30 820 C 83.2805 -0.653646 2.9351 0
M  V30 821 C 84.8285 -0.744386 3.0402 0
M  V30 822 C 85.3035 -0.856535 4.49919 0
M  V30 823 N 86.7945 -0.9208 4.53955 0
M  V30 824 C 87.5295 -1.02726 5.64123 0
M  V30 825 N 87.0255 -1.09777 6.84047 0
M  V30 826 N 88.8185 -1.06226 5.51971 0
M  V30 827 H 80.9695 0.629462 2.02858 0
M  V30 828 H 83.2325 0.220621 0.921971 0
M  V30 829 H 82.9385 0.231518 3.50937 0
M  V30 830 H 82.8125 -1.51781 3.45315 0
M  V30 831 H 85.1995 -1.61999 2.46658 0
M  V30 832 H 85.2805 0.14541 2.55386 0
M  V30 833 H 84.9245 0.0146069 5.07898 0
M  V30 834 H 84.8545 -1.76172 4.96257 0
M  V30 835 H 87.3455 -0.876694 3.6759 0
M  V30 836 H 87.6585 -1.17872 7.63758 0
M  V30 837 H 86.0035 -1.06693 6.86762 0
M  V30 838 H 89.1945 -1.00382 4.5721 0
M  V30 839 H 89.3675 -1.14177 6.37862 0
M  V30 840 N 82.7736 -1.49793 -0.48987 0
M  V30 841 C 84.1896 -1.36803 -0.822022 0
M  V30 842 C 84.3896 -0.409652 -1.97292 0
M  V30 843 O 83.4456 0.154614 -2.52026 0
M  V30 844 C 84.7586 -2.77768 -1.15175 0
M  V30 845 C 86.3066 -2.86549 -1.25931 0
M  V30 846 C 86.7816 -4.28306 -1.62228 0
M  V30 847 N 88.2726 -4.31169 -1.69256 0
M  V30 848 C 89.0076 -5.37832 -1.98807 0
M  V30 849 N 88.5036 -6.54726 -2.26507 0
M  V30 850 N 90.2966 -5.25258 -2.00152 0
M  V30 851 H 82.4476 -2.10691 0.268881 0
M  V30 852 H 84.7106 -0.946241 0.057728 0
M  V30 853 H 84.4166 -3.49648 -0.379335 0
M  V30 854 H 84.2906 -3.13836 -2.09253 0
M  V30 855 H 86.6776 -2.14899 -2.02243 0
M  V30 856 H 86.7586 -2.54049 -0.298776 0
M  V30 857 H 86.4026 -5.00486 -0.864622 0
M  V30 858 H 86.3326 -4.58279 -2.594 0
M  V30 859 H 88.8236 -3.4687 -1.49965 0
M  V30 860 H 89.1366 -7.31833 -2.48276 0
M  V30 861 H 87.4816 -6.57933 -2.23939 0
M  V30 862 H 90.6726 -4.32938 -1.77996 0
M  V30 863 H 90.8456 -6.08476 -2.22848 0
M  V30 864 N 84.2517 0.741722 -1.39055 0
M  V30 865 C 85.4977 1.50336 -1.36113 0
M  V30 866 C 85.8307 1.94148 0.0450796 0
M  V30 867 O 85.1057 1.66301 1.00868 0
M  V30 868 C 85.3887 2.74773 -2.32749 0
M  V30 869 C 85.2417 2.37023 -3.82283 0
M  V30 870 C 86.5607 3.76846 -2.27322 0
M  V30 871 H 83.6797 0.545351 -0.495743 0
M  V30 872 H 86.3217 0.848624 -1.69995 0
M  V30 873 H 84.4717 3.30639 -2.03986 0
M  V30 874 H 86.1437 1.8684 -4.21768 0
M  V30 875 H 84.3867 1.69334 -3.99385 0
M  V30 876 H 85.0577 3.26104 -4.45376 0
M  V30 877 H 87.5337 3.30548 -2.5274 0
M  V30 878 H 86.4097 4.6159 -2.97028 0
M  V30 879 H 86.6707 4.23286 -1.27599 0
M  V30 880 N 85.7298 1.2412 0.971189 0
M  V30 881 C 86.9778 1.07668 1.71032 0
M  V30 882 C 87.2988 -0.385797 1.91146 0
M  V30 883 O 86.5688 -1.27569 1.4867 0
M  V30 884 H 85.1488 0.395429 0.633755 0
M  V30 885 H 87.8108 1.55984 1.16855 0
M  V30 886 H 86.9068 1.57195 2.69622 0
M  V30 887 N 87.2079 -1.17134 1.05439 0
M  V30 888 C 88.4559 -1.87085 0.764429 0
M  V30 889 C 88.7769 -1.81584 -0.710787 0
M  V30 890 O 88.0469 -1.24349 -1.51374 0
M  V30 891 H 86.6269 -0.692627 0.279779 0
M  V30 892 H 89.2889 -1.42087 1.33406 0
M  V30 893 H 88.3849 -2.92759 1.0816 0
M  V30 894 N 88.686 -0.835752 -1.33615 0
M  V30 895 C 90.102 -0.523139 -1.50783 0
M  V30 896 C 90.302 0.950171 -1.77691 0
M  V30 897 O 89.358 1.73411 -1.83534 0
M  V30 898 C 90.671 -1.39378 -2.66448 0
M  V30 899 C 92.219 -1.39223 -2.80332 0
M  V30 900 C 92.694 -2.24765 -3.99055 0
M  V30 901 N 94.185 -2.22458 -4.06284 0
M  V30 902 C 94.92 -2.85386 -4.97336 0
M  V30 903 N 94.416 -3.57354 -5.93523 0
M  V30 904 N 96.209 -2.74872 -4.90308 0
M  V30 905 H 88.36 -1.78952 -1.14411 0
M  V30 906 H 90.623 -0.763297 -0.562212 0
M  V30 907 H 90.329 -2.44061 -2.53234 0
M  V30 908 H 90.203 -1.0676 -3.61776 0
M  V30 909 H 92.59 -0.353136 -2.92979 0
M  V30 910 H 92.671 -1.75846 -1.85773 0
M  V30 911 H 92.315 -3.28732 -3.87167 0
M  V30 912 H 92.245 -1.85485 -4.92852 0
M  V30 913 H 94.736 -1.70119 -3.37443 0
M  V30 914 H 95.049 -4.02584 -6.59656 0
M  V30 915 H 93.394 -3.61461 -5.93608 0
M  V30 916 H 96.585 -2.18213 -4.14126 0
M  V30 917 H 96.758 -3.24199 -5.61069 0
M  V30 918 N 90.1641 1.46063 -0.591896 0
M  V30 919 C 91.5801 1.57561 -0.254288 0
M  V30 920 C 91.7801 1.58565 1.24336 0
M  V30 921 O 90.8361 1.50753 2.02558 0
M  V30 922 C 92.1491 2.86549 -0.911611 0
M  V30 923 C 93.6971 3.00197 -0.886059 0
M  V30 924 C 94.1721 4.31933 -1.5231 0
M  V30 925 N 95.6631 4.38654 -1.48786 0
M  V30 926 C 96.3981 5.39222 -1.95006 0
M  V30 927 N 95.8941 6.46414 -2.49241 0
M  V30 928 N 97.6871 5.3048 -1.85868 0
M  V30 929 H 89.8381 1.43655 -1.56451 0
M  V30 930 H 92.1011 0.68583 -0.654478 0
M  V30 931 H 91.8071 2.91651 -1.96551 0
M  V30 932 H 91.6811 3.74794 -0.425368 0
M  V30 933 H 94.0681 2.9467 0.159246 0
M  V30 934 H 94.1491 2.13403 -1.41041 0
M  V30 935 H 93.7931 4.38217 -2.56765 0
M  V30 936 H 93.7231 5.17516 -0.973891 0
M  V30 937 H 96.2141 3.61793 -1.09151 0
M  V30 938 H 96.5271 7.19376 -2.82344 0
M  V30 939 H 94.8721 6.47208 -2.53272 0
M  V30 940 H 98.0631 4.45643 -1.43248 0
M  V30 941 H 98.2361 6.08711 -2.22204 0
M  V30 942 N 91.6422 0.330177 1.54103 0
M  V30 943 C 93.0582 -0.0222371 1.59585 0
M  V30 944 C 93.2582 -1.49902 1.34654 0
M  V30 945 O 92.3142 -2.25592 1.13421 0
M  V30 946 C 93.6272 0.401932 2.98002 0
M  V30 947 C 95.1752 0.353145 3.11001 0
M  V30 948 C 95.6502 0.752576 4.51775 0
M  V30 949 N 97.1412 0.706239 4.57784 0
M  V30 950 C 97.8762 0.987417 5.64834 0
M  V30 951 N 97.3722 1.33607 6.79795 0
M  V30 952 N 99.1652 0.91254 5.54643 0
M  V30 953 H 91.3162 1.29228 1.68564 0
M  V30 954 H 93.5792 0.525906 0.78875 0
M  V30 955 H 93.2852 1.4311 3.21267 0
M  V30 956 H 93.1592 -0.229699 3.765 0
M  V30 957 H 95.5462 -0.666822 2.87467 0
M  V30 958 H 95.6272 1.0198 2.34593 0
M  V30 959 H 95.2712 1.77049 4.76042 0
M  V30 960 H 95.2012 0.0635409 5.26562 0
M  V30 961 H 97.6922 0.44889 3.75224 0
M  V30 962 H 98.0052 1.53582 7.57385 0
M  V30 963 H 96.3502 1.37439 6.81275 0
M  V30 964 H 99.5412 0.639601 4.6371 0
M  V30 965 H 99.7142 1.13503 6.37982 0
M  V30 966 N 93.1203 -1.57491 0.0584922 0
M  V30 967 C 94.3683 -1.92597 -0.612436 0
M  V30 968 C 94.6893 -0.938162 -1.70949 0
M  V30 969 O 93.9593 0.0158301 -1.95894 0
M  V30 970 H 92.5393 -0.710964 -0.229214 0
M  V30 971 H 95.2013 -1.94571 0.113218 0
M  V30 972 H 94.2973 -2.94038 -1.04633 0
M  V30 973 N 94.5984 0.214957 -1.56127 0
M  V30 974 C 96.0144 0.564948 -1.49267 0
M  V30 975 C 96.2144 1.86827 -0.754838 0
M  V30 976 O 95.2704 2.50745 -0.297198 0
M  V30 977 C 96.5834 0.638071 -2.93852 0
M  V30 978 C 98.1314 0.728253 -3.0441 0
M  V30 979 C 98.6064 0.832663 -4.50367 0
M  V30 980 N 100.097 0.896712 -4.54437 0
M  V30 981 C 100.832 0.997324 -5.6466 0
M  V30 982 N 100.328 1.06147 -6.8462 0
M  V30 983 N 102.121 1.03297 -5.52527 0
M  V30 984 H 94.2724 -0.640211 -2.02522 0
M  V30 985 H 96.5354 -0.225507 -0.920788 0
M  V30 986 H 96.2414 -0.250126 -3.50809 0
M  V30 987 H 96.1154 1.49947 -3.46115 0
M  V30 988 H 98.5024 1.60689 -2.47514 0
M  V30 989 H 98.5834 -0.158952 -2.55306 0
M  V30 990 H 98.2274 -0.0415417 -5.07883 0
M  V30 991 H 98.1574 1.73538 -4.97184 0
M  V30 992 H 100.648 0.857188 -3.6805 0
M  V30 993 H 100.961 1.1382 -7.64372 0
M  V30 994 H 99.3064 1.03049 -6.87318 0
M  V30 995 H 102.497 0.979558 -4.57736 0
M  V30 996 H 102.67 1.10793 -6.38458 0
M  V30 997 N 96.0765 1.50051 0.48192 0
M  V30 998 C 97.3015 1.64508 1.26301 0
M  V30 999 C 97.7265 0.323851 1.85291 0
M  V30 1000 O 97.0845 -0.710969 1.66778 0
M  V30 1001 C 97.1325 2.7305 2.35533 0
M  V30 1002 O 96.2365 2.3355 3.39895 0
M  V30 1003 H 95.5775 0.549978 0.372048 0
M  V30 1004 H 98.1075 1.9636 0.574786 0
M  V30 1005 H 98.1175 2.95799 2.8101 0
M  V30 1006 H 96.7925 3.68946 1.91967 0
M  V30 1007 H 95.3695 2.21205 3.00204 0
M  V30 1008 N 97.5546 -0.734337 1.39446 0
M  V30 1009 C 98.8026 -1.49096 1.36436 0
M  V30 1010 C 99.1236 -1.94961 -0.0388255 0
M  V30 1011 O 98.3936 -1.69033 -0.990191 0
M  V30 1012 H 96.9736 -0.5531 0.502085 0
M  V30 1013 H 99.6356 -0.871725 1.74319 0
M  V30 1014 H 98.7316 -2.37276 2.02747 0
M  V30 1015 N 99.0327 -1.24633 -0.964593 0
M  V30 1016 C 100.258 -1.11596 -1.74818 0
M  V30 1017 C 100.683 0.32723 -1.85232 0
M  V30 1018 O 100.041 1.23695 -1.32549 0
M  V30 1019 C 100.089 -1.76397 -3.1451 0
M  V30 1020 O 99.1927 -1.03685 -3.99153 0
M  V30 1021 H 98.5337 -0.390196 -0.537255 0
M  V30 1022 H 101.064 -1.65002 -1.20977 0
M  V30 1023 H 101.074 -1.8228 -3.65018 0
M  V30 1024 H 99.7487 -2.81401 -3.06246 0
M  V30 1025 H 98.3257 -1.05611 -3.57632 0
M  V30 1026 N 100.511 1.16574 -1.06058 0
M  V30 1027 C 101.759 1.86677 -0.77434 0
M  V30 1028 C 102.08 1.81959 0.701147 0
M  V30 1029 O 101.35 1.2515 1.50713 0
M  V30 1030 H 99.9298 0.691134 -0.283449 0
M  V30 1031 H 102.592 1.41378 -1.34158 0
M  V30 1032 H 101.688 2.92181 -1.09711 0
M  V30 1033 N 101.989 0.842826 1.3317 0
M  V30 1034 C 103.405 0.531128 1.50503 0
M  V30 1035 C 103.605 -0.940734 1.78192 0
M  V30 1036 O 102.661 -1.72436 1.84451 0
M  V30 1037 C 103.974 1.40789 2.65705 0
M  V30 1038 C 105.522 1.40708 2.79589 0
M  V30 1039 C 105.997 2.26878 3.97857 0
M  V30 1040 N 107.488 2.24609 4.05099 0
M  V30 1041 C 108.223 2.88019 4.95815 0
M  V30 1042 N 107.719 3.60496 5.9162 0
M  V30 1043 N 109.512 2.77469 4.88843 0
M  V30 1044 H 101.663 1.79557 1.1346 0
M  V30 1045 H 103.926 0.766267 0.558156 0
M  V30 1046 H 103.632 2.454 2.51936 0
M  V30 1047 H 103.506 1.08677 3.61205 0
M  V30 1048 H 105.893 0.368668 2.92788 0
M  V30 1049 H 105.974 1.76829 1.84838 0
M  V30 1050 H 105.618 3.3078 3.85418 0
M  V30 1051 H 105.548 1.88096 4.91861 0
M  V30 1052 H 108.039 1.71906 3.36536 0
M  V30 1053 H 108.352 4.06076 6.57512 0
M  V30 1054 H 106.697 3.64604 5.91683 0
M  V30 1055 H 109.888 2.20406 4.12963 0
M  V30 1056 H 110.061 3.2717 5.59342 0
M  V30 1057 N 103.467 -1.45747 0.599634 0
M  V30 1058 C 104.715 -2.01893 0.0915472 0
M  V30 1059 C 105.036 -1.47155 -1.27946 0
M  V30 1060 O 104.306 -0.66273 -1.84349 0
M  V30 1061 H 102.886 -0.746363 0.0308524 0
M  V30 1062 H 105.548 -1.78645 0.779237 0
M  V30 1063 H 104.644 -3.1208 0.0353086 0
M  V30 1064 N 104.945 -0.338344 -1.53925 0
M  V30 1065 C 106.361 0.0137736 -1.59594 0
M  V30 1066 C 106.561 1.49186 -1.35447 0
M  V30 1067 O 105.617 2.24987 -1.14616 0
M  V30 1068 C 106.93 -0.41773 -2.97784 0
M  V30 1069 C 108.478 -0.369633 -3.1081 0
M  V30 1070 C 108.953 -0.776524 -4.51369 0
M  V30 1071 N 110.444 -0.730506 -4.57403 0
M  V30 1072 C 111.179 -1.01736 -5.64303 0
M  V30 1073 N 110.675 -1.3721 -6.79077 0
M  V30 1074 N 112.468 -0.941942 -5.54151 0
M  V30 1075 H 104.619 -1.3012 -1.67876 0
M  V30 1076 H 106.882 -0.530082 -0.78595 0
M  V30 1077 H 106.588 -1.44811 -3.20504 0
M  V30 1078 H 106.462 0.209729 -3.76616 0
M  V30 1079 H 108.849 0.651568 -2.87817 0
M  V30 1080 H 108.93 -1.03223 -2.34049 0
M  V30 1081 H 108.574 -1.79571 -4.75096 0
M  V30 1082 H 108.504 -0.0914649 -5.26521 0
M  V30 1083 H 110.995 -0.468783 -3.74981 0
M  V30 1084 H 111.308 -1.57597 -7.5656 0
M  V30 1085 H 109.653 -1.4105 -6.80536 0
M  V30 1086 H 112.844 -0.664184 -4.63364 0
M  V30 1087 H 113.017 -1.16884 -6.37371 0
M  V30 1088 N 106.423 1.57458 -0.0668435 0
M  V30 1089 C 107.671 1.92919 0.602214 0
M  V30 1090 C 107.992 0.947215 1.70449 0
M  V30 1091 O 107.262 -0.00544117 1.95899 0
M  V30 1092 H 105.842 0.71217 0.22544 0
M  V30 1093 H 108.504 1.94508 -0.123535 0
M  V30 1094 H 107.6 2.94589 1.03073 0
M  V30 1095 N 107.901 -0.206675 1.56239 0
M  V30 1096 C 108.864 -1.23976 1.92776 0
M  V30 1097 C 109.864 -1.39041 0.807729 0
M  V30 1098 O 111.054 -1.37051 1.0753 0
M  V30 1099 C 108.186 -2.61112 2.19165 0
M  V30 1100 H 109.379 -0.927764 2.85189 0
M  V30 1101 H 106.932 -0.447718 1.4975 0
M  V30 1102 H 107.667 -2.97386 1.29352 0
M  V30 1103 H 107.452 -2.51552 3.00772 0
M  V30 1104 H 108.942 -3.35633 2.48476 0
M  V30 1105 N 109.379 -1.50304 -0.473955 0
M  V30 1106 C 110.628 -1.60392 -1.22301 0
M  V30 1107 C 110.941 -0.308411 -1.93153 0
M  V30 1108 O 112.147 -0.288156 -2.69966 0
M  V30 1109 C 110.603 -2.83109 -2.2221 0
M  V30 1110 C 110.211 -4.19524 -1.57173 0
M  V30 1111 C 111.955 -3.0254 -2.97775 0
M  V30 1112 C 109.862 -5.33431 -2.55353 0
M  V30 1113 H 108.792 -0.597286 -0.460179 0
M  V30 1114 H 111.443 -1.76731 -0.493803 0
M  V30 1115 H 109.825 -2.60322 -2.9841 0
M  V30 1116 H 110.999 -4.52554 -0.867824 0
M  V30 1117 H 109.314 -4.05674 -0.939002 0
M  V30 1118 H 111.911 -3.84811 -3.71248 0
M  V30 1119 H 112.254 -2.14154 -3.56992 0
M  V30 1120 H 112.787 -3.25494 -2.28688 0
M  V30 1121 H 109.526 -6.23962 -2.00878 0
M  V30 1122 H 109.046 -5.04823 -3.23904 0
M  V30 1123 H 110.725 -5.63887 -3.17239 0
M  V30 1124 N 110.857 0.726932 -1.39834 0
M  V30 1125 C 112.134 1.47902 -1.28001 0
M  V30 1126 C 112.514 2.1083 0.106789 0
M  V30 1127 O 111.862 1.99242 1.11869 0
M  V30 1128 C 112.072 2.52392 -2.41038 0
M  V30 1129 C 113.42 3.18546 -2.80737 0
M  V30 1130 O 114.444 2.62708 -2.40547 0
M  V30 1131 O 113.303 4.19604 -3.50135 0
M  V30 1132 H 110.397 0.657163 -0.502062 0
M  V30 1133 H 112.943 0.760071 -1.51727 0
M  V30 1134 H 111.715 2.04329 -3.33715 0
M  V30 1135 H 111.338 3.31837 -2.19021 0
M  V30 1136 N 112.336 1.25143 0.95797 0
M  V30 1137 C 113.752 1.01892 1.22842 0
M  V30 1138 C 113.952 -0.266311 1.99732 0
M  V30 1139 O 113.008 -0.979913 2.3271 0
M  V30 1140 C 114.321 2.24004 2.00606 0
M  V30 1141 C 115.869 2.28731 2.13662 0
M  V30 1142 C 116.344 3.5049 2.94823 0
M  V30 1143 N 117.835 3.50866 3.02403 0
M  V30 1144 C 118.57 4.4174 3.65586 0
M  V30 1145 N 118.066 5.42882 4.30408 0
M  V30 1146 N 119.859 4.29429 3.62694 0
M  V30 1147 H 112.01 2.07718 0.443493 0
M  V30 1148 H 114.273 0.912031 0.258657 0
M  V30 1149 H 113.979 3.17395 1.51503 0
M  V30 1150 H 113.853 2.26907 3.01319 0
M  V30 1151 H 116.24 1.35865 2.61963 0
M  V30 1152 H 116.321 2.29848 1.12265 0
M  V30 1153 H 115.965 4.43676 2.47213 0
M  V30 1154 H 115.895 3.46617 3.96439 0
M  V30 1155 H 118.386 2.777 2.56302 0
M  V30 1156 H 118.699 6.0844 4.76467 0
M  V30 1157 H 117.044 5.46758 4.29047 0
M  V30 1158 H 120.235 3.49643 3.11236 0
M  V30 1159 H 120.408 5.00448 4.1165 0
M  V30 1160 N 113.814 -1.1601 1.06675 0
M  V30 1161 C 114.724 -2.24156 0.692179 0
M  V30 1162 C 115.74 -1.71507 -0.293513 0
M  V30 1163 O 116.916 -2.009 -0.141861 0
M  V30 1164 C 113.981 -3.46587 0.0884131 0
M  V30 1165 C 113.042 -4.14257 1.12646 0
M  V30 1166 C 112.275 -5.30844 0.551416 0
M  V30 1167 O 112.498 -5.66858 -0.634656 0
M  V30 1168 O 111.432 -5.87848 1.29298 0
M  V30 1169 H 115.258 -2.58513 1.59388 0
M  V30 1170 H 112.843 -1.23599 0.83926 0
M  V30 1171 H 114.725 -4.20679 -0.246361 0
M  V30 1172 H 113.4 -3.13994 -0.786712 0
M  V30 1173 H 112.307 -3.42118 1.51348 0
M  V30 1174 H 113.64 -4.50914 1.97325 0
M  V30 1175 N 115.292 -0.849877 -1.32721 0
M  V30 1176 C 116.224 -0.248332 -2.27851 0
M  V30 1177 C 117.237 0.577218 -1.52224 0
M  V30 1178 O 118.426 0.402489 -1.73903 0
M  V30 1179 C 115.526 0.668107 -3.32249 0
M  V30 1180 C 114.699 -0.120534 -4.37234 0
M  V30 1181 C 113.758 0.720932 -5.21238 0
M  V30 1182 O 112.784 0.156166 -5.68986 0
M  V30 1183 N 113.986 2.03647 -5.43607 0
M  V30 1184 H 116.751 -1.06575 -2.80111 0
M  V30 1185 H 114.312 -0.709395 -1.45531 0
M  V30 1186 H 116.304 1.23627 -3.85355 0
M  V30 1187 H 114.874 1.38621 -2.80184 0
M  V30 1188 H 114.094 -0.870108 -3.84477 0
M  V30 1189 H 115.382 -0.662406 -5.0447 0
M  V30 1190 H 114.78 2.51871 -5.06535 0
M  V30 1191 H 113.337 2.55287 -5.99727 0
M  V30 1192 N 116.77 1.45427 -0.607355 0
M  V30 1193 C 117.995 2.07124 -0.107006 0
M  V30 1194 C 118.42 1.44906 1.19933 0
M  V30 1195 O 117.778 0.541687 1.73019 0
M  V30 1196 C 117.826 3.60595 0.0194119 0
M  V30 1197 O 116.93 3.98285 1.0697 0
M  V30 1198 H 116.271 0.659868 -0.0739597 0
M  V30 1199 H 118.801 1.86683 -0.837297 0
M  V30 1200 H 118.811 4.07419 0.2177 0
M  V30 1201 H 117.486 4.05266 -0.934453 0
M  V30 1202 H 116.063 3.63133 0.847889 0
M  V30 1203 N 118.248 0.346503 1.53744 0
M  V30 1204 C 119.211 -0.496439 2.23759 0
M  V30 1205 C 120.211 -1.0252 1.2388 0
M  V30 1206 O 121.401 -0.913974 1.48297 0
M  V30 1207 C 118.533 -1.69187 2.95954 0
M  V30 1208 H 119.726 0.115952 2.99676 0
M  V30 1209 H 117.279 0.0978939 1.55993 0
M  V30 1210 H 118.014 -2.34288 2.24231 0
M  V30 1211 H 117.799 -1.31989 3.69217 0
M  V30 1212 H 119.289 -2.28969 3.49232 0
M  V30 1213 N 119.726 -1.57421 0.075193 0
M  V30 1214 C 120.689 -2.11791 -0.876203 0
M  V30 1215 C 121.689 -1.04268 -1.22412 0
M  V30 1216 O 122.879 -1.30242 -1.15684 0
M  V30 1217 C 120.011 -2.62207 -2.17854 0
M  V30 1218 H 121.204 -2.9716 -0.40444 0
M  V30 1219 H 118.757 -1.55333 -0.173557 0
M  V30 1220 H 119.492 -1.803 -2.6956 0
M  V30 1221 H 119.277 -3.40802 -1.93897 0
M  V30 1222 H 120.767 -3.04335 -2.85955 0
M  V30 1223 N 121.204 0.198386 -1.56346 0
M  V30 1224 C 122.453 0.917451 -1.79627 0
M  V30 1225 C 122.766 1.8456 -0.64784 0
M  V30 1226 O 123.972 2.60504 -0.764859 0
M  V30 1227 C 122.428 1.68175 -3.18191 0
M  V30 1228 C 122.036 0.798589 -4.40825 0
M  V30 1229 C 123.78 2.39065 -3.50782 0
M  V30 1230 C 121.687 1.56157 -5.70411 0
M  V30 1231 H 120.617 0.346317 -0.669762 0
M  V30 1232 H 123.268 0.170801 -1.82703 0
M  V30 1233 H 121.65 2.47216 -3.09354 0
M  V30 1234 H 122.824 0.0470665 -4.60776 0
M  V30 1235 H 121.139 0.200686 -4.15916 0
M  V30 1236 H 123.736 2.96692 -4.44835 0
M  V30 1237 H 124.079 3.13091 -2.74371 0
M  V30 1238 H 124.612 1.66993 -3.61052 0
M  V30 1239 H 121.351 0.864142 -6.49779 0
M  V30 1240 H 120.871 2.2871 -5.54483 0
M  V30 1241 H 122.55 2.11622 -6.11412 0
M  V30 1242 N 122.682 1.50554 0.465978 0
M  V30 1243 C 124.098 1.38093 0.800154 0
M  V30 1244 C 124.298 0.440988 1.96615 0
M  V30 1245 O 123.354 -0.114499 2.5224 0
M  V30 1246 C 124.667 2.79565 1.10742 0
M  V30 1247 C 126.215 2.88516 1.21357 0
M  V30 1248 C 126.69 4.30833 1.55393 0
M  V30 1249 N 128.181 4.33807 1.62375 0
M  V30 1250 C 128.916 5.40927 1.90225 0
M  V30 1251 N 128.412 6.58247 2.16062 0
M  V30 1252 N 130.205 5.28376 1.9177 0
M  V30 1253 H 122.356 2.10237 -0.302366 0
M  V30 1254 H 124.619 0.945203 -0.0727746 0
M  V30 1255 H 124.325 3.50208 0.323661 0
M  V30 1256 H 124.199 3.17125 2.04234 0
M  V30 1257 H 126.586 2.1809 1.98799 0
M  V30 1258 H 126.667 2.54492 0.258321 0
M  V30 1259 H 126.311 5.01799 0.784889 0
M  V30 1260 H 126.241 4.62347 2.52076 0
M  V30 1261 H 128.732 3.49212 1.44427 0
M  V30 1262 H 129.045 7.3569 2.36601 0
M  V30 1263 H 127.39 6.61413 2.13444 0
M  V30 1264 H 130.581 4.35715 1.71085 0
M  V30 1265 H 130.754 6.11944 2.13139 0
M  V30 1266 N 124.16 -0.719506 1.40217 0
M  V30 1267 C 125.07 -1.86378 1.42479 0
M  V30 1268 C 126.086 -1.71073 0.317834 0
M  V30 1269 O 127.262 -1.93406 0.561794 0
M  V30 1270 C 124.327 -3.22136 1.28178 0
M  V30 1271 C 123.388 -3.49723 2.48982 0
M  V30 1272 C 122.621 -4.79004 2.35353 0
M  V30 1273 O 122.844 -5.53821 1.36524 0
M  V30 1274 O 121.778 -5.06839 3.2465 0
M  V30 1275 H 125.604 -1.87425 2.38968 0
M  V30 1276 H 123.189 -0.869405 1.21498 0
M  V30 1277 H 125.071 -4.03234 1.22395 0
M  V30 1278 H 123.746 -3.21825 0.347934 0
M  V30 1279 H 122.653 -2.6865 2.60342 0
M  V30 1280 H 123.986 -3.54828 3.41113 0
M  V30 1281 N 125.638 -1.25649 -0.95132 0
M  V30 1282 C 126.884 -1.11766 -1.69941 0
M  V30 1283 C 127.239 0.33735 -1.89419 0
M  V30 1284 O 126.532 1.24491 -1.45645 0
M  V30 1285 C 126.726 -1.80909 -3.08231 0
M  V30 1286 C 126.555 -3.32984 -3.02245 0
M  V30 1287 C 125.325 -4.02247 -3.05819 0
M  V30 1288 C 127.523 -4.29332 -2.83157 0
M  V30 1289 N 125.505 -5.41072 -2.90024 0
M  V30 1290 C 126.876 -5.55265 -2.75828 0
M  V30 1291 C 128.931 -4.19707 -2.67863 0
M  V30 1292 C 127.634 -6.72671 -2.54767 0
M  V30 1293 C 129.66 -5.36809 -2.48173 0
M  V30 1294 C 129.022 -6.61683 -2.41567 0
M  V30 1295 H 125.121 -0.463708 -0.629682 0
M  V30 1296 H 127.705 -1.58796 -1.12659 0
M  V30 1297 H 125.876 -1.36369 -3.63673 0
M  V30 1298 H 127.608 -1.59739 -3.71841 0
M  V30 1299 H 124.363 -3.53531 -3.15139 0
M  V30 1300 H 124.787 -6.13938 -2.85323 0
M  V30 1301 H 129.429 -3.23907 -2.71743 0
M  V30 1302 H 127.147 -7.68577 -2.49629 0
M  V30 1303 H 130.733 -5.31224 -2.37259 0
M  V30 1304 H 129.613 -7.50768 -2.26531 0
M  V30 1305 N 127.117 1.15442 -1.07289 0
M  V30 1306 C 128.08 2.18358 -0.696591 0
M  V30 1307 C 129.08 1.58637 0.262837 0
M  V30 1308 O 130.27 1.74145 0.0438809 0
M  V30 1309 C 127.402 3.4089 -0.0266151 0
M  V30 1310 H 128.595 2.53162 -1.60776 0
M  V30 1311 H 126.148 1.29893 -0.869342 0
M  V30 1312 H 126.883 3.11653 0.896822 0
M  V30 1313 H 126.668 3.85495 -0.716657 0
M  V30 1314 H 128.158 4.17009 0.222028 0
M  V30 1315 N 128.595 0.856903 1.32268 0
M  V30 1316 C 130.011 0.547061 1.49931 0
M  V30 1317 C 130.211 -0.921781 1.7918 0
M  V30 1318 O 129.267 -1.70469 1.8627 0
M  V30 1319 C 130.58 1.43599 2.64196 0
M  V30 1320 C 132.128 1.43665 2.78081 0
M  V30 1321 C 132.603 2.31085 3.95428 0
M  V30 1322 N 134.094 2.28893 4.02694 0
M  V30 1323 C 134.829 2.93262 4.92732 0
M  V30 1324 N 134.325 3.66751 5.87763 0
M  V30 1325 N 136.118 2.82638 4.85873 0
M  V30 1326 H 128.269 1.8075 1.11549 0
M  V30 1327 H 130.532 0.772144 0.549997 0
M  V30 1328 H 130.238 2.48058 2.49319 0
M  V30 1329 H 130.112 1.12502 3.60032 0
M  V30 1330 H 132.499 0.399701 2.92381 0
M  V30 1331 H 132.58 1.7878 1.82952 0
M  V30 1332 H 132.224 3.34849 3.81888 0
M  V30 1333 H 132.154 1.93302 4.89839 0
M  V30 1334 H 134.645 1.75466 3.34694 0
M  V30 1335 H 134.958 4.13027 6.53168 0
M  V30 1336 H 133.303 3.70859 5.87783 0
M  V30 1337 H 136.494 2.24774 4.10602 0
M  V30 1338 H 136.667 3.33084 5.55841 0
M  V30 1339 N 130.073 -1.45103 0.615059 0
M  V30 1340 C 131.489 -1.57137 0.279322 0
M  V30 1341 C 131.689 -1.60523 -1.21797 0
M  V30 1342 O 130.745 -1.53956 -2.00134 0
M  V30 1343 C 132.058 -2.85062 0.957083 0
M  V30 1344 C 133.606 -2.98749 0.933706 0
M  V30 1345 C 134.081 -4.29455 1.59162 0
M  V30 1346 N 135.572 -4.36231 1.55746 0
M  V30 1347 C 136.307 -5.36051 2.0356 0
M  V30 1348 N 135.803 -6.42367 2.59494 0
M  V30 1349 N 137.596 -5.27456 1.94284 0
M  V30 1350 H 129.747 -1.41148 1.58717 0
M  V30 1351 H 132.01 -0.675331 0.665306 0
M  V30 1352 H 131.716 -2.88488 2.01166 0
M  V30 1353 H 131.59 -3.7407 0.48494 0
M  V30 1354 H 133.977 -2.94886 -0.112347 0
M  V30 1355 H 134.058 -2.11132 1.44419 0
M  V30 1356 H 133.702 -4.34077 2.63704 0
M  V30 1357 H 133.632 -5.15901 1.0561 0
M  V30 1358 H 136.123 -3.60011 1.14893 0
M  V30 1359 H 136.436 -7.14793 2.93752 0
M  V30 1360 H 134.781 -6.43097 2.63537 0
M  V30 1361 H 137.972 -4.43308 1.5032 0
M  V30 1362 H 138.145 -6.05099 2.3186 0
M  V30 1363 N 131.551 -0.354651 -1.53558 0
M  V30 1364 C 132.499 0.512195 -2.26891 0
M  V30 1365 C 133.493 1.09263 -1.29452 0
M  V30 1366 O 134.699 1.03709 -1.47121 0
M  V30 1367 H 131.074 0.183878 -0.729173 0
M  V30 1368 H 133.045 -0.128202 -2.98124 0
M  V30 1369 C 131.794 1.64563 -3.06291 0
M  V30 1370 H 131.117 1.20829 -3.81104 0
M  V30 1371 H 132.557 2.22711 -3.60799 0
M  V30 1372 C 131.016 2.58158 -2.16462 0
M  V30 1373 O 131.546 3.60695 -1.76811 0
M  V30 1374 N 129.752 2.27096 -1.81317 0
M  V30 1375 H 129.299 1.43751 -2.1376 0
M  V30 1376 H 129.257 2.89975 -1.21498 0
M  V30 1377 N 133.029 1.57378 -0.0835403 0
M  V30 1378 C 134.277 1.93547 0.581718 0
M  V30 1379 C 134.598 0.96524 1.69435 0
M  V30 1380 O 133.868 0.0153369 1.95894 0
M  V30 1381 H 132.448 0.714521 0.217874 0
M  V30 1382 H 135.11 1.94366 -0.144158 0
M  V30 1383 H 134.206 2.95665 0.999423 0
M  V30 1384 N 134.507 -0.190092 1.56449 0
M  V30 1385 C 135.457 -1.23977 1.91347 0
M  V30 1386 C 136.441 -1.40747 0.779693 0
M  V30 1387 O 137.633 -1.43033 1.04262 0
M  V30 1388 C 134.762 -2.58347 2.26079 0
M  V30 1389 C 133.848 -2.4535 3.45925 0
M  V30 1390 N 134.239 -2.02039 4.63696 0
M  V30 1391 C 132.537 -2.76229 3.50162 0
M  V30 1392 C 133.238 -2.01053 5.4585 0
M  V30 1393 N 132.214 -2.42747 4.8639 0
M  V30 1394 H 136.016 -0.896318 2.79899 0
M  V30 1395 H 133.53 -0.398496 1.57435 0
M  V30 1396 H 135.527 -3.34173 2.49267 0
M  V30 1397 H 134.187 -2.93512 1.38856 0
M  V30 1398 H 135.198 -1.7267 4.88268 0
M  V30 1399 H 131.875 -3.15556 2.73369 0
M  V30 1400 H 133.265 -1.69426 6.50188 0
M  V30 1401 N 135.985 -1.50799 -0.457987 0
M  V30 1402 C 136.933 -1.71162 -1.575 0
M  V30 1403 C 137.927 -0.577592 -1.59249 0
M  V30 1404 O 139.133 -0.758443 -1.63241 0
M  V30 1405 H 135.508 -0.540468 -0.522875 0
M  V30 1406 H 137.479 -2.64837 -1.37492 0
M  V30 1407 C 136.228 -1.83496 -2.95338 0
M  V30 1408 H 135.551 -2.70153 -2.94716 0
M  V30 1409 H 136.991 -2.01765 -3.72917 0
M  V30 1410 C 135.45 -0.589694 -3.31699 0
M  V30 1411 O 135.98 0.265163 -4.00824 0
M  V30 1412 N 134.186 -0.439845 -2.87252 0
M  V30 1413 H 133.733 -1.13655 -2.31172 0
M  V30 1414 H 133.691 0.392159 -3.11945 0
M  V30 1415 N 137.463 0.71206 -1.40597 0
M  V30 1416 C 138.709 1.47416 -1.39271 0
M  V30 1417 C 139.042 1.942 0.00388791 0
M  V30 1418 O 138.317 1.68403 0.973179 0
M  V30 1419 C 138.6 2.69774 -2.38525 0
M  V30 1420 C 138.453 2.28861 -3.87224 0
M  V30 1421 C 139.772 3.71939 -2.35264 0
M  V30 1422 H 136.891 0.534713 -0.5072 0
M  V30 1423 H 139.533 0.812375 -1.71757 0
M  V30 1424 H 137.683 3.26238 -2.10953 0
M  V30 1425 H 139.355 1.77852 -4.25636 0
M  V30 1426 H 137.598 1.60824 -4.02887 0
M  V30 1427 H 138.269 3.16584 -4.52193 0
M  V30 1428 H 140.745 3.25113 -2.59694 0
M  V30 1429 H 139.621 4.55186 -3.06753 0
M  V30 1430 H 139.882 4.20484 -1.36549 0
M  V30 1431 N 138.941 1.26152 0.944643 0
M  V30 1432 C 140.166 1.14363 1.7302 0
M  V30 1433 C 140.591 -0.29772 1.85729 0
M  V30 1434 O 139.949 -1.2157 1.34501 0
M  V30 1435 C 139.997 1.81378 3.11664 0
M  V30 1436 O 139.101 1.10022 3.97453 0
M  V30 1437 H 138.442 0.398694 0.53098 0
M  V30 1438 H 140.972 1.66906 1.18337 0
M  V30 1439 H 140.982 1.88064 3.62072 0
M  V30 1440 H 139.657 2.86237 3.0173 0
M  V30 1441 H 138.234 1.11287 3.55907 0
M  V30 1442 N 140.419 -1.14872 1.07899 0
M  V30 1443 C 141.647 -1.89661 0.82683 0
M  V30 1444 C 142.062 -1.78312 -0.620519 0
M  V30 1445 O 141.419 -1.13888 -1.42604 0
M  V30 1446 C 141.47 -3.39817 1.23316 0
M  V30 1447 O 141.191 -3.50845 2.62372 0
M  V30 1448 C 142.692 -4.31615 1.0111 0
M  V30 1449 H 139.912 -0.60092 0.298557 0
M  V30 1450 H 142.456 -1.4551 1.43691 0
M  V30 1451 H 140.611 -3.8161 0.667286 0
M  V30 1452 H 141.025 -4.44076 2.79101 0
M  V30 1453 H 142.499 -5.35367 1.34486 0
M  V30 1454 H 142.976 -4.39169 -0.0522168 0
M  V30 1455 H 143.582 -3.95572 1.56215 0
M  V30 1456 N 141.898 -0.863906 -1.31812 0
M  V30 1457 C 143.314 -0.555004 -1.49639 0
M  V30 1458 C 143.514 0.912266 -1.79666 0
M  V30 1459 O 142.57 1.69479 -1.87171 0
M  V30 1460 C 143.883 -1.44998 -2.63431 0
M  V30 1461 C 145.431 -1.45138 -2.77316 0
M  V30 1462 C 145.906 -2.33179 -3.94197 0
M  V30 1463 N 147.397 -2.31025 -4.01474 0
M  V30 1464 C 148.132 -2.95871 -4.9117 0
M  V30 1465 N 147.628 -3.69863 -5.8581 0
M  V30 1466 N 149.421 -2.85211 -4.84367 0
M  V30 1467 H 141.572 -1.81339 -1.10589 0
M  V30 1468 H 143.835 -0.77505 -0.545895 0
M  V30 1469 H 143.541 -2.49377 -2.48 0
M  V30 1470 H 143.415 -1.14409 -3.59431 0
M  V30 1471 H 145.802 -0.415201 -2.92164 0
M  V30 1472 H 145.883 -1.79747 -1.82001 0
M  V30 1473 H 145.527 -3.3687 -3.80107 0
M  V30 1474 H 145.457 -1.95897 -4.88807 0
M  V30 1475 H 147.948 -1.77238 -3.33759 0
M  V30 1476 H 148.261 -4.16486 -6.50968 0
M  V30 1477 H 146.606 -3.73971 -5.85808 0
M  V30 1478 H 149.797 -2.26948 -4.09405 0
M  V30 1479 H 149.97 -3.36027 -5.54066 0
M  V30 1480 N 143.376 1.44774 -0.622745 0
M  V30 1481 C 144.624 2.01721 -0.123655 0
M  V30 1482 C 144.945 1.49172 1.25589 0
M  V30 1483 O 144.215 0.691974 1.83272 0
M  V30 1484 H 142.795 0.745777 -0.0427225 0
M  V30 1485 H 145.457 1.77382 -0.807559 0
M  V30 1486 H 144.553 3.11984 -0.0849534 0
M  V30 1487 N 144.854 0.36279 1.53368 0
M  V30 1488 C 146.27 0.0116182 1.59596 0
M  V30 1489 C 146.47 -1.47012 1.37803 0
M  V30 1490 O 145.526 -2.23136 1.18181 0
M  V30 1491 C 146.839 0.465052 2.97082 0
M  V30 1492 C 148.387 0.419033 3.10182 0
M  V30 1493 C 148.862 0.848235 4.50077 0
M  V30 1494 N 150.353 0.803183 4.56183 0
M  V30 1495 C 151.088 1.107 5.62613 0
M  V30 1496 N 150.584 1.47996 6.76808 0
M  V30 1497 N 152.377 1.02998 5.52583 0
M  V30 1498 H 144.528 1.32775 1.65785 0
M  V30 1499 H 146.791 0.542518 0.777417 0
M  V30 1500 H 146.497 1.49892 3.18159 0
M  V30 1501 H 146.371 -0.149786 3.76902 0
M  V30 1502 H 148.758 -0.605696 2.88817 0
M  V30 1503 H 148.839 1.06933 2.32377 0
M  V30 1504 H 148.483 1.87107 4.7218 0
M  V30 1505 H 148.413 0.175218 5.26308 0
M  V30 1506 H 150.904 0.52838 3.74188 0
M  V30 1507 H 151.217 1.69613 7.53957 0
M  V30 1508 H 149.562 1.51859 6.78206 0
M  V30 1509 H 152.753 0.737817 4.62249 0
M  V30 1510 H 152.926 1.2701 6.35431 0
M  V30 1511 N 146.332 -1.57332 0.0918853 0
M  V30 1512 C 147.581 -1.93412 -0.572249 0
M  V30 1513 C 147.894 -0.975515 -1.69538 0
M  V30 1514 O 149.1 -1.22991 -2.42045 0
M  V30 1515 C 147.556 -3.43648 -1.0693 0
M  V30 1516 C 147.164 -4.47994 0.0239049 0
M  V30 1517 C 148.908 -3.88695 -1.70635 0
M  V30 1518 C 146.815 -5.89381 -0.488319 0
M  V30 1519 H 145.745 -0.721939 -0.217532 0
M  V30 1520 H 148.396 -1.82735 0.167369 0
M  V30 1521 H 146.778 -3.49466 -1.8625 0
M  V30 1522 H 147.952 -4.53815 0.799277 0
M  V30 1523 H 146.267 -4.12536 0.565946 0
M  V30 1524 H 148.864 -4.91725 -2.10025 0
M  V30 1525 H 149.207 -3.27166 -2.57426 0
M  V30 1526 H 149.74 -3.85564 -0.979023 0
M  V30 1527 H 146.479 -6.54602 0.342906 0
M  V30 1528 H 145.999 -5.87037 -1.23077 0
M  V30 1529 H 147.678 -6.39863 -0.958317 0
M  V30 1530 N 147.81 0.181792 -1.56548 0
M  V30 1531 C 149.221 0.745244 -1.71181 0
M  V30 1532 C 149.572 1.83262 -0.70068 0
M  V30 1533 O 148.697 2.15946 0.140154 0
M  V30 1534 C 149.292 1.35859 -3.10367 0
M  V30 1535 C 147.851 1.86898 -3.2672 0
M  V30 1536 C 146.998 0.743942 -2.67134 0
M  V30 1537 H 149.949 -0.0434661 -1.5864 0
M  V30 1538 H 149.97 2.22817 -3.08436 0
M  V30 1539 H 149.482 0.566948 -3.83937 0
M  V30 1540 H 147.583 2.68738 -2.5809 0
M  V30 1541 H 147.696 2.02162 -4.34359 0
M  V30 1542 H 146.06 1.16169 -2.26665 0
M  V30 1543 H 146.843 -0.035676 -3.43281 0
M  V30 1544 N 149.288 1.51039 0.449983 0
M  V30 1545 C 150.251 1.70863 1.5277 0
M  V30 1546 C 151.251 0.578846 1.5002 0
M  V30 1547 O 152.441 0.846213 1.52266 0
M  V30 1548 C 149.573 1.75341 2.9235 0
M  V30 1549 H 150.766 2.67034 1.36502 0
M  V30 1550 H 148.319 1.40838 0.677812 0
M  V30 1551 H 149.054 0.809383 3.14037 0
M  V30 1552 H 148.839 2.57436 2.95752 0
M  V30 1553 H 150.329 1.92559 3.70555 0
M  V30 1554 N 150.766 -0.704594 1.40972 0
M  V30 1555 C 152.043 -1.45847 1.30338 0
M  V30 1556 C 152.423 -2.10973 -0.0732344 0
M  V30 1557 O 151.771 -2.00997 -1.08685 0
M  V30 1558 C 151.981 -2.48525 2.45023 0
M  V30 1559 C 153.329 -3.1404 2.8577 0
M  V30 1560 O 154.353 -2.58848 2.44696 0
M  V30 1561 O 153.212 -4.13981 3.56766 0
M  V30 1562 H 150.306 -0.649092 0.512454 0
M  V30 1563 H 152.852 -0.735836 1.52917 0
M  V30 1564 H 151.624 -1.98994 3.36923 0
M  V30 1565 H 151.247 -3.2831 2.24272 0
M  V30 1566 N 152.244 -1.26651 -0.937939 0
M  V30 1567 C 153.49 -1.12553 -1.687 0
M  V30 1568 C 153.823 0.329782 -1.91379 0
M  V30 1569 O 153.098 1.24202 -1.4968 0
M  V30 1570 C 153.381 -1.89862 -3.05981 0
M  V30 1571 C 153.234 -3.43318 -2.90607 0
M  V30 1572 C 154.553 -1.69499 -4.0615 0
M  V30 1573 H 151.672 -0.410257 -0.612257 0
M  V30 1574 H 154.314 -1.55685 -1.08913 0
M  V30 1575 H 152.464 -1.53204 -3.57017 0
M  V30 1576 H 154.136 -3.89747 -2.46769 0
M  V30 1577 H 152.379 -3.70179 -2.26164 0
M  V30 1578 H 153.05 -3.92642 -3.8799 0
M  V30 1579 H 155.526 -2.01442 -3.64088 0
M  V30 1580 H 154.402 -2.26002 -5.00214 0
M  V30 1581 H 154.663 -0.640365 -4.37438 0
M  V30 1582 N 153.722 1.14298 -1.08507 0
M  V30 1583 C 154.971 1.84708 -0.810305 0
M  V30 1584 C 155.284 1.83903 0.666271 0
M  V30 1585 O 156.49 2.50112 1.05624 0
M  V30 1586 C 154.946 3.31572 -1.39957 0
M  V30 1587 C 154.554 3.40791 -2.90801 0
M  V30 1588 C 156.298 4.07087 -1.20334 0
M  V30 1589 C 154.205 4.81872 -3.4286 0
M  V30 1590 H 153.135 0.691985 -0.299454 0
M  V30 1591 H 155.786 1.28841 -1.30661 0
M  V30 1592 H 154.168 3.87183 -0.830976 0
M  V30 1593 H 155.342 2.95225 -3.53806 0
M  V30 1594 H 153.657 2.78732 -3.0935 0
M  V30 1595 H 156.254 5.11225 -1.56693 0
M  V30 1596 H 156.597 4.16054 -0.143237 0
M  V30 1597 H 157.13 3.57779 -1.73893 0
M  V30 1598 H 153.869 4.78094 -4.48449 0
M  V30 1599 H 153.389 5.27972 -2.84615 0
M  V30 1600 H 155.068 5.50765 -3.39509 0
M  V30 1601 N 155.201 0.870884 1.31352 0
M  V30 1602 C 156.478 0.402907 1.91405 0
M  V30 1603 C 156.858 -1.11512 1.79244 0
M  V30 1604 O 156.206 -1.94411 1.2007 0
M  V30 1605 C 156.416 0.885301 3.37585 0
M  V30 1606 C 157.764 0.911971 4.14691 0
M  V30 1607 O 158.788 0.831016 3.46371 0
M  V30 1608 O 157.647 1.02927 5.3672 0
M  V30 1609 H 154.741 0.120698 0.818145 0
M  V30 1610 H 157.287 0.958857 1.40014 0
M  V30 1611 H 156.059 1.92889 3.40455 0
M  V30 1612 H 155.682 0.307714 3.96407 0
M  V30 1613 N 156.679 -1.44442 0.630414 0
M  V30 1614 C 157.642 -2.29107 -0.0652523 0
M  V30 1615 C 158.642 -1.41002 -0.772995 0
M  V30 1616 O 159.832 -1.62881 -0.617692 0
M  V30 1617 C 156.964 -3.22564 -1.10296 0
M  V30 1618 H 158.157 -2.92103 0.679401 0
M  V30 1619 H 155.71 -1.51343 0.390517 0
M  V30 1620 H 156.445 -2.64416 -1.87762 0
M  V30 1621 H 156.23 -3.87491 -0.59941 0
M  V30 1622 H 157.72 -3.86167 -1.5895 0
M  V30 1623 N 158.157 -0.370918 -1.53173 0
M  V30 1624 C 159.387 0.217389 -2.05453 0
M  V30 1625 C 159.795 1.42568 -1.24382 0
M  V30 1626 O 159.138 1.81571 -0.278839 0
M  V30 1627 C 159.2 0.669827 -3.53205 0
M  V30 1628 C 158.864 -0.4225 -4.55043 0
M  V30 1629 C 159.861 -1.27407 -5.04047 0
M  V30 1630 C 157.546 -0.58427 -4.9889 0
M  V30 1631 C 159.54 -2.27271 -5.95505 0
M  V30 1632 C 157.227 -1.58627 -5.90153 0
M  V30 1633 C 158.225 -2.42892 -6.38351 0
M  V30 1634 O 157.913 -3.41382 -7.27814 0
M  V30 1635 H 157.645 0.0408171 -0.674767 0
M  V30 1636 H 160.199 -0.5292 -1.98466 0
M  V30 1637 H 158.429 1.4681 -3.57748 0
M  V30 1638 H 160.118 1.18173 -3.88317 0
M  V30 1639 H 160.884 -1.16031 -4.70916 0
M  V30 1640 H 156.763 0.061851 -4.60959 0
M  V30 1641 H 160.307 -2.93079 -6.33049 0
M  V30 1642 H 156.204 -1.70048 -6.22699 0
M  V30 1643 H 156.972 -3.37173 -7.45826 0
M  V30 1644 N 159.635 1.57281 -0.100228 0
M  V30 1645 C 160.585 2.10848 0.86759 0
M  V30 1646 C 161.569 1.02473 1.24049 0
M  V30 1647 O 162.761 1.28739 1.21471 0
M  V30 1648 C 159.89 2.69648 2.12474 0
M  V30 1649 C 158.976 3.85074 1.77704 0
M  V30 1650 N 159.367 4.92897 1.13518 0
M  V30 1651 C 157.665 3.94905 2.07282 0
M  V30 1652 C 158.366 5.73475 0.974735 0
M  V30 1653 N 157.342 5.22675 1.4937 0
M  V30 1654 H 161.144 2.91594 0.367471 0
M  V30 1655 H 158.658 1.62074 0.102829 0
M  V30 1656 H 160.655 3.06356 2.82757 0
M  V30 1657 H 159.315 1.90359 2.63047 0
M  V30 1658 H 160.326 5.11662 0.801381 0
M  V30 1659 H 157.003 3.26633 2.60033 0
M  V30 1660 H 158.393 6.70238 0.472364 0
M  V30 1661 N 161.113 -0.173488 1.56642 0
M  V30 1662 C 162.076 -1.19859 1.95362 0
M  V30 1663 C 163.076 -1.37296 0.83704 0
M  V30 1664 O 164.266 -1.34739 1.10413 0
M  V30 1665 C 161.398 -2.56405 2.24654 0
M  V30 1666 H 162.591 -0.867062 2.87092 0
M  V30 1667 H 160.144 -0.415853 1.50666 0
M  V30 1668 H 160.879 -2.94576 1.35631 0
M  V30 1669 H 160.664 -2.45115 3.06041 0
M  V30 1670 H 162.154 -3.30287 2.5554 0
M  V30 1671 N 162.591 -1.51276 -0.441967 0
M  V30 1672 C 163.554 -1.7167 -1.51862 0
M  V30 1673 C 164.554 -0.586793 -1.49711 0
M  V30 1674 O 165.744 -0.854276 -1.51815 0
M  V30 1675 C 162.876 -1.76889 -2.91416 0
M  V30 1676 H 164.069 -2.67754 -1.35084 0
M  V30 1677 H 161.622 -1.41196 -0.670333 0
M  V30 1678 H 162.357 -0.826026 -3.13604 0
M  V30 1679 H 162.142 -2.59001 -2.94382 0
M  V30 1680 H 163.632 -1.94522 -3.69528 0
M  V30 1681 N 164.069 0.697108 -1.41344 0
M  V30 1682 C 165.297 1.48593 -1.43972 0
M  V30 1683 C 165.712 1.88747 -0.0445612 0
M  V30 1684 O 165.069 1.56682 0.935785 0
M  V30 1685 C 165.12 2.74946 -2.34706 0
M  V30 1686 O 164.841 2.36484 -3.68791 0
M  V30 1687 C 166.342 3.687 -2.46121 0
M  V30 1688 H 163.562 0.457964 -0.490418 0
M  V30 1689 H 166.106 0.858429 -1.8561 0
M  V30 1690 H 164.261 3.33937 -1.9638 0
M  V30 1691 H 164.675 3.17918 -4.17167 0
M  V30 1692 H 166.149 4.54145 -3.13777 0
M  V30 1693 H 166.626 4.13081 -1.49199 0
M  V30 1694 H 167.232 3.15613 -2.85076 0
M  V30 1695 O 165.586 1.37986 0.839172 0
M  V30 1696 H 166.277 1.24844 1.481 0
M  V30 END ATOM
M  V30 BEGIN BOND
M  V30 END BOND
M  V30 END CTAB
M  END
$$$$
