drugbank_target|Q13882 Protein-tyrosine kinase 6 (DB05294; DB12010; DB15035)
 OpenBabel12092120583D

  0  0  0     0  0            999 V3000
M  V30 BEGIN CTAB
M  V30 COUNTS 7237 7337 0 0 0
M  V30 BEGIN ATOM
M  V30 1 H -0.908 1.98254 -0.117106 0
M  V30 2 N 0 1.576 0 0
M  V30 3 C 0.933 2.03868 1.02534 0
M  V30 4 C 1.911 0.928543 1.3348 0
M  V30 5 O 3.095 1.19667 1.45644 0
M  V30 6 C 0.222 2.43627 2.35294 0
M  V30 7 C -0.732 3.65373 2.2001 0
M  V30 8 S 0.101 5.13292 1.52614 0
M  V30 9 C 1.257 5.56322 2.86805 0
M  V30 10 H 1.49 2.90518 0.631377 0
M  V30 11 H -0.977 1.52953 0.210867 0
M  V30 12 H 0.981 2.67203 3.11629 0
M  V30 13 H -0.358 1.57376 2.7183 0
M  V30 14 H -1.165 3.90944 3.18086 0
M  V30 15 H -1.563 3.418 1.51819 0
M  V30 16 H 0.729 5.58782 3.83104 0
M  V30 17 H 1.672 6.56266 2.65933 0
M  V30 18 H 2.08 4.83886 2.90714 0
M  V30 19 N 1.4781 -0.272755 1.55222 0
M  V30 20 C 2.7241 -1.00581 1.761 0
M  V30 21 C 3.0571 -1.85932 0.560625 0
M  V30 22 O 2.3321 -1.89416 -0.441801 0
M  V30 23 C 2.6151 -1.88816 3.06628 0
M  V30 24 C 2.4681 -1.06457 4.37021 0
M  V30 25 C 3.7871 -2.8752 3.33197 0
M  V30 26 H 0.9061 -0.364244 0.640699 0
M  V30 27 H 3.5481 -0.278189 1.87952 0
M  V30 28 H 1.6981 -2.50856 2.96654 0
M  V30 29 H 3.3701 -0.464863 4.58952 0
M  V30 30 H 1.6131 -0.368043 4.32236 0
M  V30 31 H 2.2841 -1.71514 5.24678 0
M  V30 32 H 4.7601 -2.35615 3.42965 0
M  V30 33 H 3.6361 -3.46399 4.25792 0
M  V30 34 H 3.8971 -3.62657 2.52849 0
M  V30 35 N 2.9562 -1.48159 -0.537278 0
M  V30 36 C 4.1812 -1.59707 -1.32319 0
M  V30 37 C 4.6062 -0.254859 -1.86365 0
M  V30 38 O 3.9642 0.772378 -1.64024 0
M  V30 39 C 4.0122 -2.6412 -2.45505 0
M  V30 40 O 3.1162 -2.20774 -3.48328 0
M  V30 41 H 2.4572 -0.535791 -0.392204 0
M  V30 42 H 4.9872 -1.94092 -0.647268 0
M  V30 43 H 4.9972 -2.85166 -2.91795 0
M  V30 44 H 3.6722 -3.61567 -2.05528 0
M  V30 45 H 2.2492 -2.09911 -3.08207 0
M  V30 46 N 4.4343 0.785586 -1.36625 0
M  V30 47 C 5.8503 1.08419 -1.17122 0
M  V30 48 C 6.0503 2.015 0.00208491 0
M  V30 49 O 5.1063 2.43551 0.666278 0
M  V30 50 C 6.4193 1.69498 -2.48377 0
M  V30 51 C 7.9673 1.81821 -2.54775 0
M  V30 52 C 8.4423 2.46315 -3.86126 0
M  V30 53 N 9.9333 2.53779 -3.87492 0
M  V30 54 C 10.6683 3.045 -4.85868 0
M  V30 55 N 10.1643 3.55499 -5.94637 0
M  V30 56 N 11.9573 3.03247 -4.73284 0
M  V30 57 H 4.1083 0.167264 -2.1174 0
M  V30 58 H 6.3713 0.13682 -0.938075 0
M  V30 59 H 6.0773 1.08571 -3.34522 0
M  V30 60 H 5.9513 2.6896 -2.64462 0
M  V30 61 H 8.3383 2.41884 -1.69045 0
M  V30 62 H 8.4193 0.811532 -2.42586 0
M  V30 63 H 8.0633 1.86895 -4.72263 0
M  V30 64 H 7.9933 3.47561 -3.95612 0
M  V30 65 H 10.4843 2.17672 -3.08913 0
M  V30 66 H 10.7973 3.92562 -6.65669 0
M  V30 67 H 9.1423 3.5364 -5.98301 0
M  V30 68 H 12.3333 2.62696 -3.87438 0
M  V30 69 H 12.5063 3.42467 -5.50109 0
M  V30 70 N 5.9124 1.20967 1.01018 0
M  V30 71 C 7.1894 0.93264 1.71934 0
M  V30 72 C 7.5694 -0.55692 2.03621 0
M  V30 73 O 6.9174 -1.52035 1.7058 0
M  V30 74 C 7.1274 1.81233 2.98254 0
M  V30 75 C 8.4754 2.05804 3.71389 0
M  V30 76 O 9.4994 1.78539 3.08225 0
M  V30 77 O 8.3584 2.51888 4.84989 0
M  V30 78 H 5.4524 0.349272 0.749625 0
M  V30 79 H 7.9984 1.31871 1.06808 0
M  V30 80 H 6.7704 2.82067 2.71208 0
M  V30 81 H 6.3934 1.42674 3.7112 0
M  V30 82 N 7.3905 -1.2043 1.01659 0
M  V30 83 C 8.3225 -2.22626 0.544988 0
M  V30 84 C 9.3355 -1.58479 -0.372609 0
M  V30 85 O 10.5245 -1.77679 -0.170958 0
M  V30 86 C 7.6245 -3.38141 -0.22663 0
M  V30 87 C 6.7975 -4.31877 0.692876 0
M  V30 88 C 5.8565 -5.26191 -0.0311616 0
M  V30 89 O 4.8825 -5.6612 0.591343 0
M  V30 90 N 6.0845 -5.65618 -1.30601 0
M  V30 91 H 8.8495 -2.63716 1.42388 0
M  V30 92 H 6.4105 -1.34971 0.894116 0
M  V30 93 H 8.4025 -3.98239 -0.72024 0
M  V30 94 H 6.9725 -2.95943 -1.00681 0
M  V30 95 H 6.1925 -3.69746 1.36679 0
M  V30 96 H 7.4805 -4.91426 1.31824 0
M  V30 97 H 6.8785 -5.3519 -1.83269 0
M  V30 98 H 5.4355 -6.28025 -1.74435 0
M  V30 99 N 8.8686 -0.792821 -1.36206 0
M  V30 100 C 9.8316 -0.199459 -2.2833 0
M  V30 101 C 10.8316 0.605189 -1.48977 0
M  V30 102 O 12.0216 0.425685 -1.68919 0
M  V30 103 C 9.1536 0.723523 -3.33134 0
M  V30 104 H 10.3466 -1.01181 -2.82316 0
M  V30 105 H 7.8996 -0.562485 -1.45828 0
M  V30 106 H 8.6346 1.56008 -2.84309 0
M  V30 107 H 8.4196 0.148436 -3.91819 0
M  V30 108 H 9.9096 1.13344 -4.01924 0
M  V30 109 N 10.3467 1.47872 -0.545128 0
M  V30 110 C 11.2967 2.26842 0.229456 0
M  V30 111 C 12.2807 1.33626 0.896267 0
M  V30 112 O 13.4727 1.58063 0.79657 0
M  V30 113 C 10.6017 3.19089 1.26638 0
M  V30 114 C 9.6877 4.19783 0.603598 0
M  V30 115 N 10.0787 5.0479 -0.319405 0
M  V30 116 C 8.3767 4.3765 0.858989 0
M  V30 117 C 9.0777 5.77433 -0.703241 0
M  V30 118 N 8.0537 5.43566 -0.0608309 0
M  V30 119 H 11.8557 2.89947 -0.480391 0
M  V30 120 H 9.3697 1.58263 -0.364209 0
M  V30 121 H 11.3667 3.74337 1.83515 0
M  V30 122 H 10.0267 2.5754 1.97745 0
M  V30 123 H 11.0377 5.13244 -0.692889 0
M  V30 124 H 7.7147 3.87281 1.55948 0
M  V30 125 H 9.1047 6.55824 -1.46098 0
M  V30 126 N 11.8248 0.280983 1.55075 0
M  V30 127 C 12.7548 -0.597469 2.25727 0
M  V30 128 C 13.7358 -1.15417 1.24952 0
M  V30 129 O 14.9208 -1.18722 1.53684 0
M  V30 130 C 12.0508 -1.7789 2.98283 0
M  V30 131 C 11.0048 -1.35347 4.06036 0
M  V30 132 C 10.3308 -2.61846 4.66198 0
M  V30 133 C 11.6308 -0.499354 5.19907 0
M  V30 134 H 13.3248 -0.00824265 2.99399 0
M  V30 135 H 10.8708 -0.0025244 1.44 0
M  V30 136 H 12.8238 -2.39937 3.46422 0
M  V30 137 H 11.5478 -2.39405 2.22155 0
M  V30 138 H 10.2068 -0.756156 3.58717 0
M  V30 139 H 9.8548 -3.21632 3.86732 0
M  V30 140 H 9.5548 -2.3409 5.38958 0
M  V30 141 H 11.0788 -3.24732 5.1709 0
M  V30 142 H 12.4928 -1.02498 5.64063 0
M  V30 143 H 10.8898 -0.316424 5.99265 0
M  V30 144 H 11.9598 0.480459 4.82514 0
M  V30 145 N 13.3029 -1.57598 0.00835791 0
M  V30 146 C 14.5509 -1.90551 -0.6734 0
M  V30 147 C 14.8719 -0.883301 -1.73847 0
M  V30 148 O 14.1419 0.0781442 -1.95744 0
M  V30 149 H 12.7219 -0.703312 -0.251717 0
M  V30 150 H 15.3839 -1.94833 0.0512592 0
M  V30 151 H 14.4799 -2.9056 -1.13935 0
M  V30 152 N 14.781 0.264519 -1.55364 0
M  V30 153 C 16.192 0.834936 -1.6699 0
M  V30 154 C 16.543 1.86718 -0.602552 0
M  V30 155 O 15.668 2.14899 0.254425 0
M  V30 156 C 16.263 1.5212 -3.02729 0
M  V30 157 C 14.822 2.03954 -3.16354 0
M  V30 158 C 13.969 0.884498 -2.62815 0
M  V30 159 H 16.92 0.0406869 -1.58648 0
M  V30 160 H 16.941 2.38853 -2.96191 0
M  V30 161 H 16.453 0.769668 -3.80392 0
M  V30 162 H 14.554 2.82041 -2.43482 0
M  V30 163 H 14.667 2.24902 -4.23032 0
M  V30 164 H 13.031 1.2802 -2.20188 0
M  V30 165 H 13.814 0.14634 -3.42988 0
M  V30 166 N 16.2591 1.48442 0.529413 0
M  V30 167 C 17.2061 1.63007 1.63394 0
M  V30 168 C 18.1761 0.47212 1.59249 0
M  V30 169 O 19.3611 0.695673 1.77666 0
M  V30 170 C 16.5011 1.6763 3.01653 0
M  V30 171 C 15.6141 2.94535 3.16027 0
M  V30 172 C 14.7491 2.90316 4.44849 0
M  V30 173 C 13.7881 4.11923 4.52754 0
M  V30 174 N 12.9251 4.05777 5.72965 0
M  V30 175 H 17.7651 2.5733 1.50285 0
M  V30 176 H 15.3021 1.27613 0.731656 0
M  V30 177 H 17.2601 1.68292 3.81751 0
M  V30 178 H 15.8901 0.76797 3.13532 0
M  V30 179 H 14.9421 3.03615 2.29177 0
M  V30 180 H 16.2541 3.84512 3.17729 0
M  V30 181 H 15.4081 2.89382 5.33238 0
M  V30 182 H 14.1471 1.98068 4.45668 0
M  V30 183 H 13.1521 4.13131 3.62771 0
M  V30 184 H 14.3771 5.0533 4.53672 0
M  V30 185 H 12.3231 3.16351 5.74681 0
M  V30 186 H 12.2401 4.8946 5.76164 0
M  V30 187 H 13.5081 4.08904 6.6364 0
M  V30 188 N 17.7372 -0.778329 1.37039 0
M  V30 189 C 18.9672 -1.56507 1.34868 0
M  V30 190 C 19.3752 -1.89072 -0.0694802 0
M  V30 191 O 18.7182 -1.51434 -1.03987 0
M  V30 192 C 18.7802 -2.90641 2.11585 0
M  V30 193 C 18.4442 -2.80746 3.60598 0
M  V30 194 C 19.4412 -2.52226 4.54618 0
M  V30 195 C 17.1262 -2.98974 4.03633 0
M  V30 196 C 19.1202 -2.42054 5.89651 0
M  V30 197 C 16.8072 -2.88423 5.38754 0
M  V30 198 C 17.8052 -2.60002 6.31576 0
M  V30 199 O 17.4932 -2.49465 7.64214 0
M  V30 200 H 17.2252 -0.491723 0.463879 0
M  V30 201 H 19.7792 -0.973053 1.80889 0
M  V30 202 H 18.0092 -3.51936 1.60243 0
M  V30 203 H 19.6982 -3.51992 2.0213 0
M  V30 204 H 20.4642 -2.37835 4.22681 0
M  V30 205 H 16.3432 -3.20099 3.31749 0
M  V30 206 H 19.8872 -2.19791 6.62071 0
M  V30 207 H 15.7842 -3.0238 5.70295 0
M  V30 208 H 16.5522 -2.64864 7.74461 0
M  V30 209 N 19.2153 -1.21501 -1.00376 0
M  V30 210 C 20.4613 -1.03452 -1.74429 0
M  V30 211 C 20.7943 0.430764 -1.89362 0
M  V30 212 O 20.0693 1.31962 -1.42886 0
M  V30 213 C 20.3523 -1.73375 -3.15615 0
M  V30 214 C 20.2053 -3.27431 -3.08397 0
M  V30 215 C 21.5243 -1.47732 -4.14564 0
M  V30 216 H 18.6433 -0.377226 -0.633143 0
M  V30 217 H 21.2853 -1.49693 -1.17013 0
M  V30 218 H 19.4353 -1.34064 -3.64636 0
M  V30 219 H 21.1073 -3.76119 -2.67081 0
M  V30 220 H 19.3503 -3.5767 -2.45468 0
M  V30 221 H 20.0213 -3.71524 -4.08258 0
M  V30 222 H 22.4973 -1.8186 -3.74254 0
M  V30 223 H 21.3733 -1.99169 -5.11491 0
M  V30 224 H 21.6343 -0.407589 -4.40217 0
M  V30 225 N 20.6934 1.19889 -1.02296 0
M  V30 226 C 21.9414 1.89046 -0.714558 0
M  V30 227 C 22.2624 1.79636 0.758681 0
M  V30 228 O 21.5324 1.20292 1.54618 0
M  V30 229 H 20.1124 0.699802 -0.261317 0
M  V30 230 H 22.7744 1.45574 -1.29592 0
M  V30 231 H 21.8704 2.95524 -1.0036 0
M  V30 232 N 22.1715 0.800033 1.35784 0
M  V30 233 C 23.1015 0.220184 2.3246 0
M  V30 234 C 24.0825 -0.65073 1.57161 0
M  V30 235 O 25.2675 -0.582359 1.85263 0
M  V30 236 C 22.3975 -0.637353 3.41402 0
M  V30 237 C 21.3515 0.134531 4.27789 0
M  V30 238 C 20.6775 -0.844285 5.27992 0
M  V30 239 C 21.9775 1.32979 5.05088 0
M  V30 240 H 23.6715 1.02787 2.81203 0
M  V30 241 H 21.2175 0.495717 1.35199 0
M  V30 242 H 23.1705 -1.05302 4.08031 0
M  V30 243 H 21.8945 -1.47785 2.91251 0
M  V30 244 H 20.5535 0.531296 3.6273 0
M  V30 245 H 20.2015 -1.68011 4.74111 0
M  V30 246 H 19.9015 -0.332184 5.8666 0
M  V30 247 H 21.4255 -1.2583 5.97494 0
M  V30 248 H 22.8395 0.98934 5.64699 0
M  V30 249 H 21.2365 1.77593 5.7322 0
M  V30 250 H 22.3065 2.11978 4.36111 0
M  V30 251 N 23.6496 -1.47581 0.552962 0
M  V30 252 C 24.8956 -2.03369 0.0355807 0
M  V30 253 C 25.2506 -1.42016 -1.29805 0
M  V30 254 O 24.5436 -0.564917 -1.83083 0
M  V30 255 C 24.7376 -3.57199 -0.119728 0
M  V30 256 C 24.5666 -4.33468 1.1973 0
M  V30 257 C 23.3366 -4.7353 1.76345 0
M  V30 258 C 25.5346 -4.68866 2.11351 0
M  V30 259 N 23.5166 -5.34426 3.02097 0
M  V30 260 C 24.8876 -5.3002 3.21681 0
M  V30 261 C 26.9426 -4.50795 2.11397 0
M  V30 262 C 25.6456 -5.75011 4.32151 0
M  V30 263 C 27.6716 -4.96782 3.20876 0
M  V30 264 C 27.0336 -5.57981 4.29926 0
M  V30 265 H 23.1326 -0.780058 0.0550806 0
M  V30 266 H 25.7166 -1.80117 0.739315 0
M  V30 267 H 23.8876 -3.80227 -0.792579 0
M  V30 268 H 25.6196 -3.99627 -0.638792 0
M  V30 269 H 22.3746 -4.55352 1.30196 0
M  V30 270 H 22.7986 -5.69421 3.66182 0
M  V30 271 H 27.4406 -4.0284 1.28372 0
M  V30 272 H 25.1586 -6.21959 5.15938 0
M  V30 273 H 28.7446 -4.84573 3.21994 0
M  V30 274 H 27.6246 -5.92918 5.13243 0
M  V30 275 N 25.1277 -0.289203 -1.54924 0
M  V30 276 C 26.4047 0.376032 -1.91951 0
M  V30 277 C 26.7847 1.72622 -1.21511 0
M  V30 278 O 26.1327 2.25853 -0.346767 0
M  V30 279 C 26.3427 0.502378 -3.45365 0
M  V30 280 C 27.6907 0.778741 -4.17398 0
M  V30 281 O 28.7147 0.586647 -3.51336 0
M  V30 282 O 27.5737 1.14698 -5.34328 0
M  V30 283 H 24.6677 0.208167 -0.800372 0
M  V30 284 H 27.2137 -0.336394 -1.66332 0
M  V30 285 H 25.9857 -0.447255 -3.88736 0
M  V30 286 H 25.6087 1.26373 -3.76982 0
M  V30 287 N 26.6058 1.57591 -0.0167156 0
M  V30 288 C 27.8528 1.91283 0.664597 0
M  V30 289 C 28.1808 0.891949 1.72842 0
M  V30 290 O 27.4358 -0.100931 1.9544 0
M  V30 291 C 27.7348 3.3172 1.33029 0
M  V30 292 C 27.4008 4.4914 0.398047 0
M  V30 293 C 26.0628 4.80992 0.141421 0
M  V30 294 C 28.4148 5.20634 -0.242825 0
M  V30 295 C 25.7428 5.81703 -0.764092 0
M  V30 296 C 28.0948 6.22311 -1.13632 0
M  V30 297 C 26.7588 6.52611 -1.40196 0
M  V30 298 H 26.0288 0.699956 0.243193 0
M  V30 299 H 28.6758 1.9135 -0.0758267 0
M  V30 300 H 26.9808 3.27856 2.14517 0
M  V30 301 H 28.6778 3.55055 1.86379 0
M  V30 302 H 25.2678 4.24262 0.608238 0
M  V30 303 H 29.4518 4.96267 -0.0576019 0
M  V30 304 H 24.7078 6.03532 -0.977732 0
M  V30 305 H 28.8818 6.76834 -1.63917 0
M  V30 306 H 26.5088 7.30467 -2.10529 0
M  V30 307 N 28.0839 -0.256276 1.55502 0
M  V30 308 C 29.0309 -1.31714 1.89526 0
M  V30 309 C 30.0009 -1.4828 0.748479 0
M  V30 310 O 31.1859 -1.62416 1.00128 0
M  V30 311 C 28.3259 -2.66933 2.18725 0
M  V30 312 C 27.4389 -2.58452 3.4616 0
M  V30 313 C 26.5739 -3.85961 3.64976 0
M  V30 314 C 25.6129 -3.72059 4.86044 0
M  V30 315 N 24.7499 -4.9144 5.01429 0
M  V30 316 H 29.5899 -1.01998 2.80001 0
M  V30 317 H 27.1269 -0.492413 1.38613 0
M  V30 318 H 29.0849 -3.4563 2.33657 0
M  V30 319 H 27.7149 -2.94816 1.31466 0
M  V30 320 H 26.7669 -1.71374 3.3961 0
M  V30 321 H 28.0789 -2.44085 4.34999 0
M  V30 322 H 27.2329 -4.73101 3.79816 0
M  V30 323 H 25.9719 -4.03215 2.74353 0
M  V30 324 H 24.9769 -2.83302 4.7119 0
M  V30 325 H 26.2019 -3.56309 5.78118 0
M  V30 326 H 24.1479 -5.09072 4.13741 0
M  V30 327 H 24.0649 -4.79668 5.84341 0
M  V30 328 H 25.3329 -5.80104 5.20672 0
M  V30 329 N 29.562 -1.4872 -0.521534 0
M  V30 330 C 30.787 -1.61101 -1.30618 0
M  V30 331 C 31.212 -0.274611 -1.86085 0
M  V30 332 O 30.57 0.754937 -1.64834 0
M  V30 333 C 30.618 -2.66709 -2.4269 0
M  V30 334 O 29.722 -2.24456 -3.45967 0
M  V30 335 H 29.063 -0.539921 -0.386499 0
M  V30 336 H 31.593 -1.94767 -0.626645 0
M  V30 337 H 31.603 -2.88245 -2.88754 0
M  V30 338 H 30.278 -3.63727 -2.01682 0
M  V30 339 H 28.855 -2.13168 -3.05964 0
M  V30 340 N 31.0401 0.771051 -1.3745 0
M  V30 341 C 32.4561 1.07171 -1.18265 0
M  V30 342 C 32.6561 2.01491 -0.019287 0
M  V30 343 O 31.7121 2.44244 0.640408 0
M  V30 344 C 33.0251 1.66854 -2.50161 0
M  V30 345 C 34.5731 1.79109 -2.56689 0
M  V30 346 C 35.0481 2.42205 -3.88717 0
M  V30 347 N 36.5391 2.49655 -3.90162 0
M  V30 348 C 37.2741 2.9933 -4.8907 0
M  V30 349 N 36.7701 3.49172 -5.98374 0
M  V30 350 N 38.5631 2.9821 -4.76474 0
M  V30 351 H 30.7141 0.144796 -2.11906 0
M  V30 352 H 32.9771 0.126863 -0.939473 0
M  V30 353 H 32.6831 1.05017 -3.35655 0
M  V30 354 H 32.5571 2.6614 -2.673 0
M  V30 355 H 34.9441 2.40077 -1.71601 0
M  V30 356 H 35.0251 0.785757 -2.43433 0
M  V30 357 H 34.6691 1.81875 -4.74219 0
M  V30 358 H 34.5991 3.43345 -3.99276 0
M  V30 359 H 37.0901 2.14383 -3.11205 0
M  V30 360 H 37.4031 3.8548 -6.69795 0
M  V30 361 H 35.7481 3.47275 -6.02018 0
M  V30 362 H 38.9391 2.58572 -3.90203 0
M  V30 363 H 39.1121 3.36613 -5.53711 0
M  V30 364 N 32.5182 1.22032 0.997298 0
M  V30 365 C 33.7462 1.06841 1.7718 0
M  V30 366 C 34.1612 -0.381325 1.84909 0
M  V30 367 O 33.5182 -1.26437 1.31605 0
M  V30 368 C 33.5692 1.66814 3.20711 0
M  V30 369 O 33.2902 3.06116 3.13408 0
M  V30 370 C 34.7912 1.56838 4.14628 0
M  V30 371 H 32.0112 0.374782 0.556578 0
M  V30 372 H 34.5552 1.61532 1.2541 0
M  V30 373 H 32.7102 1.16196 3.69564 0
M  V30 374 H 33.1242 3.34926 4.0364 0
M  V30 375 H 34.5982 2.03532 5.13107 0
M  V30 376 H 35.0752 0.524155 4.36061 0
M  V30 377 H 35.6812 2.06741 3.7167 0
M  V30 378 N 33.9963 -1.19345 1.0293 0
M  V30 379 C 35.2733 -1.84811 0.640642 0
M  V30 380 C 35.6533 -1.91855 -0.88062 0
M  V30 381 O 35.0013 -1.43587 -1.7775 0
M  V30 382 C 35.2113 -3.23755 1.30321 0
M  V30 383 C 36.5593 -3.99912 1.42673 0
M  V30 384 O 37.5833 -3.33155 1.26041 0
M  V30 385 O 36.4423 -5.19494 1.6967 0
M  V30 386 H 33.5363 -0.796443 0.222726 0
M  V30 387 H 36.0823 -1.26831 1.12748 0
M  V30 388 H 34.8543 -3.13466 2.34211 0
M  V30 389 H 34.4773 -3.89381 0.804261 0
M  V30 390 N 35.4744 -0.807222 -1.35358 0
M  V30 391 C 36.3844 -0.219594 -2.3357 0
M  V30 392 C 37.4004 0.637734 -1.61892 0
M  V30 393 O 38.5764 0.549336 -1.93763 0
M  V30 394 C 35.6414 0.62158 -3.41083 0
M  V30 395 C 34.7024 -0.256315 -4.28534 0
M  V30 396 C 33.9354 0.544807 -5.30912 0
M  V30 397 O 34.1584 1.77944 -5.41934 0
M  V30 398 O 33.0924 -0.0646478 -6.01865 0
M  V30 399 H 36.9184 -1.03208 -2.85625 0
M  V30 400 H 34.5034 -0.569025 -1.38139 0
M  V30 401 H 36.3854 1.10067 -4.06772 0
M  V30 402 H 35.0604 1.41165 -2.91297 0
M  V30 403 H 33.9674 -0.782559 -3.65823 0
M  V30 404 H 35.3004 -1.01034 -4.81719 0
M  V30 405 N 36.9525 1.47285 -0.560781 0
M  V30 406 C 37.8625 2.33846 0.187954 0
M  V30 407 C 38.8785 1.48412 0.908293 0
M  V30 408 O 40.0545 1.81332 0.876388 0
M  V30 409 C 37.1195 3.25178 1.2025 0
M  V30 410 C 36.1805 4.26504 0.489208 0
M  V30 411 C 35.4135 5.13472 1.45542 0
M  V30 412 O 35.6365 5.02959 2.6905 0
M  V30 413 O 34.5705 5.93902 0.977963 0
M  V30 414 H 38.3965 2.99177 -0.522177 0
M  V30 415 H 35.9815 1.45903 -0.321364 0
M  V30 416 H 37.8635 3.81584 1.78805 0
M  V30 417 H 36.5385 2.6247 1.89449 0
M  V30 418 H 35.4455 3.73847 -0.137627 0
M  V30 419 H 36.7785 4.91935 -0.161399 0
M  V30 420 N 38.4306 0.297415 1.54768 0
M  V30 421 C 39.3606 -0.573494 2.26348 0
M  V30 422 C 40.3416 -1.14085 1.26169 0
M  V30 423 O 41.5266 -1.17086 1.54934 0
M  V30 424 C 38.6566 -1.74716 3.00153 0
M  V30 425 C 37.6106 -1.31032 4.07449 0
M  V30 426 C 36.9366 -2.56887 4.68949 0
M  V30 427 C 38.2366 -0.444183 5.20408 0
M  V30 428 H 39.9306 0.0235131 2.99391 0
M  V30 429 H 37.4766 0.0127488 1.43994 0
M  V30 430 H 39.4296 -2.3625 3.48947 0
M  V30 431 H 38.1536 -2.37035 2.24682 0
M  V30 432 H 36.8126 -0.718066 3.59499 0
M  V30 433 H 36.4606 -3.17512 3.90122 0
M  V30 434 H 36.1606 -2.2836 5.41411 0
M  V30 435 H 37.6846 -3.19229 5.20505 0
M  V30 436 H 39.0986 -0.9651 5.65118 0
M  V30 437 H 37.4956 -0.252846 5.99567 0
M  V30 438 H 38.5656 0.531609 4.81977 0
M  V30 439 N 39.9087 -1.5758 0.0250728 0
M  V30 440 C 41.1337 -1.96337 -0.668317 0
M  V30 441 C 41.5587 -0.901314 -1.651 0
M  V30 442 O 40.9167 0.138187 -1.80773 0
M  V30 443 C 40.9647 -3.34191 -1.35457 0
M  V30 444 O 40.0687 -3.30269 -2.46974 0
M  V30 445 H 39.4097 -0.640281 -0.175887 0
M  V30 446 H 41.9397 -2.0442 0.0857224 0
M  V30 447 H 41.9497 -3.70331 -1.71228 0
M  V30 448 H 40.6247 -4.11036 -0.634218 0
M  V30 449 H 39.2017 -3.05841 -2.13344 0
M  V30 450 N 41.3868 0.248026 -1.55636 0
M  V30 451 C 42.6338 0.976224 -1.77415 0
M  V30 452 C 42.9618 1.85361 -0.589193 0
M  V30 453 O 42.2168 1.90973 0.427529 0
M  V30 454 C 42.5158 1.86819 -3.04686 0
M  V30 455 C 42.1818 1.14625 -4.36087 0
M  V30 456 C 40.8438 0.946723 -4.71795 0
M  V30 457 C 43.1958 0.634463 -5.17324 0
M  V30 458 C 40.5238 0.223091 -5.86276 0
M  V30 459 C 42.8758 -0.0756959 -6.32555 0
M  V30 460 C 41.5398 -0.286711 -6.66884 0
M  V30 461 H 40.8098 0.357226 -0.649208 0
M  V30 462 H 43.4568 0.246415 -1.89908 0
M  V30 463 H 41.7618 2.66502 -2.872 0
M  V30 464 H 43.4588 2.43329 -3.18735 0
M  V30 465 H 40.0488 1.3117 -4.08035 0
M  V30 466 H 44.2328 0.77616 -4.90193 0
M  V30 467 H 39.4888 0.0491185 -6.1138 0
M  V30 468 H 43.6628 -0.479899 -6.94745 0
M  V30 469 H 41.2898 -0.849389 -7.5544 0
M  V30 470 N 42.8649 1.48995 0.513639 0
M  V30 471 C 44.2809 1.35478 0.843682 0
M  V30 472 C 44.4809 0.378213 1.97919 0
M  V30 473 O 43.5369 -0.194689 2.51748 0
M  V30 474 C 44.8499 2.75901 1.1958 0
M  V30 475 C 46.3979 2.84509 1.30474 0
M  V30 476 C 46.8729 4.25671 1.69021 0
M  V30 477 N 48.3639 4.28422 1.76094 0
M  V30 478 C 49.0989 5.34601 2.07338 0
M  V30 479 N 48.5949 6.5104 2.36894 0
M  V30 480 N 50.3879 5.22007 2.08483 0
M  V30 481 H 42.5389 2.11092 -0.235328 0
M  V30 482 H 44.8019 0.947039 -0.0426669 0
M  V30 483 H 44.5079 3.49001 0.434913 0
M  V30 484 H 44.3819 3.10467 2.1422 0
M  V30 485 H 46.7689 2.11655 2.05637 0
M  V30 486 H 46.8499 2.53542 0.339155 0
M  V30 487 H 46.4939 4.99048 0.944135 0
M  V30 488 H 46.4239 4.54094 2.66658 0
M  V30 489 H 48.9149 3.44441 1.55464 0
M  V30 490 H 49.2279 7.2779 2.59887 0
M  V30 491 H 47.5729 6.54287 2.34378 0
M  V30 492 H 50.7639 4.30051 1.84861 0
M  V30 493 H 50.9369 6.04854 2.325 0
M  V30 494 N 44.343 -0.763751 1.37857 0
M  V30 495 C 45.306 -1.85889 1.34081 0
M  V30 496 C 46.306 -1.58949 0.243277 0
M  V30 497 O 47.496 -1.66882 0.499589 0
M  V30 498 C 44.628 -3.23176 1.08489 0
M  V30 499 H 45.821 -1.90648 2.31502 0
M  V30 500 H 43.374 -0.964367 1.23003 0
M  V30 501 H 44.109 -3.24091 0.116318 0
M  V30 502 H 43.894 -3.44124 1.8794 0
M  V30 503 H 45.384 -4.03254 1.08517 0
M  V30 504 N 45.8211 -1.22559 -0.990812 0
M  V30 505 C 47.0691 -1.04933 -1.72724 0
M  V30 506 C 47.3901 0.416158 -1.90508 0
M  V30 507 O 46.6601 1.29918 -1.46622 0
M  V30 508 H 45.2401 -0.385296 -0.639965 0
M  V30 509 H 47.9021 -1.54105 -1.19322 0
M  V30 510 H 46.9981 -1.52886 -2.72089 0
M  V30 511 N 47.2992 1.18797 -1.03562 0
M  V30 512 C 48.5762 1.84469 -0.650434 0
M  V30 513 C 48.9562 1.92319 0.870433 0
M  V30 514 O 48.3042 1.44528 1.76986 0
M  V30 515 C 48.5142 3.2306 -1.32036 0
M  V30 516 C 49.8622 3.9915 -1.44792 0
M  V30 517 O 50.8862 3.32481 -1.27806 0
M  V30 518 O 49.7452 5.18587 -1.72423 0
M  V30 519 H 46.8392 0.795251 -0.226946 0
M  V30 520 H 49.3852 1.26231 -1.13419 0
M  V30 521 H 48.1572 3.1222 -2.3587 0
M  V30 522 H 47.7802 3.88949 -0.8249 0
M  V30 523 N 48.7773 0.814389 1.34928 0
M  V30 524 C 50.0233 0.399013 1.98836 0
M  V30 525 C 50.3563 -1.03314 1.64438 0
M  V30 526 O 49.6313 -1.71811 0.911659 0
M  V30 527 C 49.9143 0.591629 3.55207 0
M  V30 528 C 49.7673 2.06928 3.99376 0
M  V30 529 C 51.0863 0.022199 4.40094 0
M  V30 530 H 48.2053 0.146451 0.722303 0
M  V30 531 H 50.8473 1.02537 1.59957 0
M  V30 532 H 48.9973 0.0584441 3.88456 0
M  V30 533 H 50.6693 2.66544 3.76499 0
M  V30 534 H 48.9123 2.56287 3.49999 0
M  V30 535 H 49.5833 2.1549 5.08201 0
M  V30 536 H 52.0593 0.477643 4.13349 0
M  V30 537 H 50.9353 0.186832 5.48582 0
M  V30 538 H 51.1963 -1.07215 4.28902 0
M  V30 539 N 50.2554 -1.46986 0.568584 0
M  V30 540 C 51.5024 -2.02441 0.0487986 0
M  V30 541 C 51.8304 -1.44169 -1.30559 0
M  V30 542 O 51.0854 -0.591213 -1.86556 0
M  V30 543 C 51.3844 -3.57306 -0.081836 0
M  V30 544 C 51.0504 -4.34552 1.20313 0
M  V30 545 C 49.7124 -4.55376 1.5552 0
M  V30 546 C 52.0644 -4.79016 2.05411 0
M  V30 547 C 49.3924 -5.17913 2.7565 0
M  V30 548 C 51.7444 -5.42879 3.24754 0
M  V30 549 C 50.4084 -5.61933 3.60261 0
M  V30 550 H 49.6784 -0.740785 0.0178567 0
M  V30 551 H 52.3254 -1.76525 0.742384 0
M  V30 552 H 50.6304 -3.8228 -0.858463 0
M  V30 553 H 52.3274 -3.97876 -0.499546 0
M  V30 554 H 48.9174 -4.18631 0.919014 0
M  V30 555 H 53.1014 -4.62696 1.79516 0
M  V30 556 H 48.3574 -5.30858 3.03315 0
M  V30 557 H 52.5314 -5.76293 3.90973 0
M  V30 558 H 50.1584 -6.10161 4.53439 0
M  V30 559 N 51.7335 -0.305618 -1.54608 0
M  V30 560 C 52.6835 0.583595 -2.20405 0
M  V30 561 C 53.6675 1.09539 -1.17856 0
M  V30 562 O 54.8595 1.0354 -1.43557 0
M  V30 563 C 51.9885 1.75277 -2.95183 0
M  V30 564 C 51.0745 1.25672 -4.05052 0
M  V30 565 N 51.4655 0.478998 -5.03527 0
M  V30 566 C 49.7635 1.53704 -4.18678 0
M  V30 567 C 50.4645 0.214269 -5.81305 0
M  V30 568 N 49.4405 0.795374 -5.3775 0
M  V30 569 H 53.2425 -0.0180946 -2.93894 0
M  V30 570 H 50.7565 -0.110601 -1.62023 0
M  V30 571 H 52.7535 2.4014 -3.40791 0
M  V30 572 H 51.4135 2.35812 -2.23211 0
M  V30 573 H 52.4245 0.123473 -5.17753 0
M  V30 574 H 49.1015 2.14954 -3.57912 0
M  V30 575 H 50.4915 -0.410656 -6.70644 0
M  V30 576 N 53.2116 1.57565 -0.0334293 0
M  V30 577 C 54.4576 1.92262 0.645226 0
M  V30 578 C 54.7906 0.910543 1.71531 0
M  V30 579 O 54.0656 -0.066099 1.94388 0
M  V30 580 C 54.3486 3.37422 1.2577 0
M  V30 581 C 54.2016 4.49369 0.196891 0
M  V30 582 C 55.5206 3.82628 2.17449 0
M  V30 583 H 52.6396 0.699171 0.233085 0
M  V30 584 H 55.2816 1.89779 -0.0915694 0
M  V30 585 H 53.4316 3.39669 1.88566 0
M  V30 586 H 55.1036 4.59254 -0.433962 0
M  V30 587 H 53.3466 4.31168 -0.477137 0
M  V30 588 H 54.0176 5.47978 0.665124 0
M  V30 589 H 56.4936 3.82145 1.64634 0
M  V30 590 H 55.3696 4.84883 2.57254 0
M  V30 591 H 55.6306 3.18376 3.0674 0
M  V30 592 N 54.6897 -0.239769 1.55765 0
M  V30 593 C 55.6527 -1.28038 1.90103 0
M  V30 594 C 56.6527 -1.40723 0.778055 0
M  V30 595 O 57.8427 -1.39301 1.04599 0
M  V30 596 C 54.9747 -2.65702 2.13577 0
M  V30 597 H 56.1677 -0.988048 2.83157 0
M  V30 598 H 53.7207 -0.479382 1.48767 0
M  V30 599 H 54.4557 -3.00063 1.23015 0
M  V30 600 H 54.2407 -2.57875 2.95369 0
M  V30 601 H 55.7307 -3.40828 2.41301 0
M  V30 602 N 56.1678 -1.49265 -0.50573 0
M  V30 603 C 57.5838 -1.35923 -0.836486 0
M  V30 604 C 57.7838 -0.388704 -1.97715 0
M  V30 605 O 56.8398 0.181336 -2.51848 0
M  V30 606 C 58.1528 -2.76531 -1.18115 0
M  V30 607 C 59.7008 -2.85197 -1.28964 0
M  V30 608 C 60.1758 -4.26561 -1.66761 0
M  V30 609 N 61.6668 -4.2935 -1.73819 0
M  V30 610 C 62.4018 -5.35693 -2.045 0
M  V30 611 N 61.8978 -6.52287 -2.33438 0
M  V30 612 N 63.6908 -5.23105 -2.05711 0
M  V30 613 H 55.8418 -2.10965 0.246519 0
M  V30 614 H 58.1048 -0.9468 0.0476887 0
M  V30 615 H 57.8108 -3.49226 -0.416398 0
M  V30 616 H 57.6848 -3.11599 -2.1257 0
M  V30 617 H 60.0718 -2.12742 -2.04511 0
M  V30 618 H 60.1528 -2.53718 -0.325704 0
M  V30 619 H 59.7968 -4.99541 -0.917656 0
M  V30 620 H 59.7268 -4.55502 -2.64246 0
M  V30 621 H 62.2178 -3.4526 -1.53635 0
M  V30 622 H 62.5308 -7.29158 -2.56024 0
M  V30 623 H 60.8758 -6.55521 -2.30905 0
M  V30 624 H 64.0668 -4.31026 -1.82577 0
M  V30 625 H 64.2398 -6.06078 -2.29289 0
M  V30 626 N 57.6459 0.756429 -1.3826 0
M  V30 627 C 58.5929 1.87011 -1.35261 0
M  V30 628 C 59.5629 1.64695 -0.215616 0
M  V30 629 O 60.7479 1.864 -0.407399 0
M  V30 630 C 57.8879 3.24275 -1.18068 0
M  V30 631 C 57.0009 3.58442 -2.41129 0
M  V30 632 C 56.1359 4.84994 -2.16689 0
M  V30 633 C 55.1749 5.11939 -3.35537 0
M  V30 634 N 54.3119 6.29685 -3.10549 0
M  V30 635 H 59.1519 1.8891 -2.30472 0
M  V30 636 H 56.6889 0.923373 -1.14509 0
M  V30 637 H 58.6469 4.03479 -1.06116 0
M  V30 638 H 57.2769 3.21711 -0.264973 0
M  V30 639 H 56.3289 2.74103 -2.63764 0
M  V30 640 H 57.6409 3.74283 -3.29717 0
M  V30 641 H 56.7949 5.72135 -2.01857 0
M  V30 642 H 55.5339 4.71286 -1.25462 0
M  V30 643 H 54.5389 4.23268 -3.50891 0
M  V30 644 H 55.7639 5.27546 -4.27635 0
M  V30 645 H 53.7099 6.17306 -2.21967 0
M  V30 646 H 53.6269 6.46014 -3.92686 0
M  V30 647 H 54.8949 7.19722 -2.99367 0
M  V30 648 N 59.124 1.23083 0.984299 0
M  V30 649 C 60.034 1.02515 2.11016 0
M  V30 650 C 61.05 -0.0291702 1.73976 0
M  V30 651 O 62.226 0.165434 2.00719 0
M  V30 652 C 59.291 0.614673 3.41208 0
M  V30 653 C 58.352 1.74359 3.92297 0
M  V30 654 C 57.585 1.35261 5.16275 0
M  V30 655 O 57.808 0.235136 5.69915 0
M  V30 656 O 56.742 2.17227 5.61334 0
M  V30 657 H 60.568 1.96862 2.31255 0
M  V30 658 H 58.153 1.01753 1.09392 0
M  V30 659 H 60.035 0.396518 4.1953 0
M  V30 660 H 58.71 -0.299851 3.22308 0
M  V30 661 H 57.617 2.01635 3.1511 0
M  V30 662 H 58.95 2.63629 4.15645 0
M  V30 663 N 60.6021 -1.18246 1.0419 0
M  V30 664 C 61.5121 -2.25574 0.644476 0
M  V30 665 C 62.5281 -1.70845 -0.329826 0
M  V30 666 O 63.7041 -2.00554 -0.184443 0
M  V30 667 C 60.7691 -3.46697 0.014877 0
M  V30 668 C 59.8301 -4.16554 1.03834 0
M  V30 669 C 59.0631 -5.31894 0.438692 0
M  V30 670 O 59.2861 -5.65385 -0.754752 0
M  V30 671 O 58.2201 -5.90459 1.168 0
M  V30 672 H 62.0461 -2.61836 1.53869 0
M  V30 673 H 59.6311 -1.25352 0.812854 0
M  V30 674 H 61.5131 -4.20062 -0.335538 0
M  V30 675 H 60.1881 -3.12255 -0.853138 0
M  V30 676 H 59.0951 -3.45251 1.44057 0
M  V30 677 H 60.4281 -4.54998 1.87716 0
M  V30 678 N 62.0802 -0.821533 -1.34494 0
M  V30 679 C 63.0122 -0.199946 -2.28326 0
M  V30 680 C 64.0252 0.609377 -1.50965 0
M  V30 681 O 65.2142 0.439285 -1.7301 0
M  V30 682 C 62.3142 0.738431 -3.30757 0
M  V30 683 C 61.4872 -0.0277632 -4.37391 0
M  V30 684 C 60.5462 0.831332 -5.19591 0
M  V30 685 O 59.5722 0.276822 -5.68526 0
M  V30 686 N 60.7742 2.15132 -5.39165 0
M  V30 687 H 63.5392 -1.00609 -2.82308 0
M  V30 688 H 61.1002 -0.678366 -1.47003 0
M  V30 689 H 63.0922 1.31773 -3.82646 0
M  V30 690 H 61.6622 1.44533 -2.7718 0
M  V30 691 H 60.8822 -0.788359 -3.86236 0
M  V30 692 H 62.1702 -0.555251 -5.05761 0
M  V30 693 H 61.5682 2.62559 -5.01078 0
M  V30 694 H 60.1252 2.6795 -5.94177 0
M  V30 695 N 63.5583 1.46682 -0.576371 0
M  V30 696 C 64.8043 2.03287 -0.0679305 0
M  V30 697 C 65.1593 1.44063 1.27529 0
M  V30 698 O 64.4523 0.593973 1.82161 0
M  V30 699 C 64.6463 3.57345 0.062886 0
M  V30 700 C 64.4753 4.31509 -1.26611 0
M  V30 701 C 63.2453 4.70664 -1.83856 0
M  V30 702 C 65.4433 4.65444 -2.18783 0
M  V30 703 N 63.4253 5.29552 -3.10561 0
M  V30 704 C 64.7963 5.24835 -3.30072 0
M  V30 705 C 66.8513 4.47375 -2.18542 0
M  V30 706 C 65.5543 5.68063 -4.41244 0
M  V30 707 C 67.5803 4.91614 -3.28739 0
M  V30 708 C 66.9423 5.51071 -4.38748 0
M  V30 709 H 63.0413 0.779083 -0.0674836 0
M  V30 710 H 65.6253 1.78918 -0.767877 0
M  V30 711 H 63.7963 3.8144 0.731988 0
M  V30 712 H 65.5283 4.00592 0.575134 0
M  V30 713 H 62.2833 4.53224 -1.37424 0
M  V30 714 H 62.7073 5.63523 -3.75195 0
M  V30 715 H 67.3493 4.00747 -1.34765 0
M  V30 716 H 65.0673 6.13672 -5.25768 0
M  V30 717 H 68.6533 4.79389 -3.29662 0
M  V30 718 H 67.5333 5.84678 -5.22611 0
M  V30 719 N 65.0364 0.313813 1.54444 0
M  V30 720 C 66.2824 -0.284918 2.01395 0
M  V30 721 C 66.6374 -1.50537 1.19818 0
M  V30 722 O 65.9304 -1.89692 0.269748 0
M  V30 723 C 66.1244 -0.680386 3.50864 0
M  V30 724 C 65.9534 0.500198 4.4691 0
M  V30 725 C 64.7234 0.996248 4.95382 0
M  V30 726 C 66.9214 1.34928 4.96285 0
M  V30 727 N 64.9034 2.14226 5.75309 0
M  V30 728 C 66.2744 2.3426 5.7404 0
M  V30 729 C 68.3294 1.37818 4.78446 0
M  V30 730 C 67.0324 3.36272 6.35856 0
M  V30 731 C 69.0584 2.38695 5.4109 0
M  V30 732 C 68.4204 3.36755 6.18688 0
M  V30 733 H 64.5194 -0.0683689 0.779006 0
M  V30 734 H 67.1034 0.44664 1.89508 0
M  V30 735 H 65.2744 -1.38109 3.63016 0
M  V30 736 H 67.0064 -1.25975 3.84594 0
M  V30 737 H 63.7614 0.56912 4.70168 0
M  V30 738 H 64.1854 2.72005 6.19953 0
M  V30 739 H 68.8274 0.633747 4.18023 0
M  V30 740 H 66.5454 4.11627 6.95405 0
M  V30 741 H 70.1314 2.41721 5.29209 0
M  V30 742 H 69.0114 4.13535 6.66302 0
M  V30 743 N 66.5145 -1.57545 0.0417849 0
M  V30 744 C 67.7605 -1.93424 -0.629168 0
M  V30 745 C 68.1155 -0.919564 -1.69002 0
M  V30 746 O 67.4085 0.0626178 -1.91498 0
M  V30 747 C 67.6025 -3.33794 -1.27735 0
M  V30 748 C 67.4315 -4.48822 -0.280806 0
M  V30 749 C 66.2015 -5.05148 0.123869 0
M  V30 750 C 68.3995 -5.12148 0.470012 0
M  V30 751 N 66.3815 -6.03703 1.11426 0
M  V30 752 C 67.7525 -6.05921 1.31377 0
M  V30 753 C 69.8075 -4.95078 0.529343 0
M  V30 754 C 68.5105 -6.84459 2.21152 0
M  V30 755 C 70.5365 -5.74235 1.41448 0
M  V30 756 C 69.8985 -6.67634 2.24598 0
M  V30 757 H 65.9975 -0.755418 -0.202158 0
M  V30 758 H 68.5815 -1.94378 0.111923 0
M  V30 759 H 66.7525 -3.33635 -1.98852 0
M  V30 760 H 68.4845 -3.56988 -1.90635 0
M  V30 761 H 65.2395 -4.72923 -0.253178 0
M  V30 762 H 65.6635 -6.57674 1.60607 0
M  V30 763 H 70.3055 -4.22683 -0.0992798 0
M  V30 764 H 68.0235 -7.56151 2.85063 0
M  V30 765 H 71.6095 -5.63057 1.46484 0
M  V30 766 H 70.4895 -7.27817 2.9198 0
M  V30 767 N 67.9926 0.231505 -1.5589 0
M  V30 768 C 68.9556 1.27028 -1.90779 0
M  V30 769 C 69.9556 1.40308 -0.785507 0
M  V30 770 O 71.1456 1.38744 -1.05336 0
M  V30 771 C 68.2776 2.64566 -2.14983 0
M  V30 772 H 69.4706 0.973017 -2.83677 0
M  V30 773 H 67.0236 0.471486 -1.49019 0
M  V30 774 H 67.7586 2.99406 -1.24604 0
M  V30 775 H 67.5436 2.56305 -2.96732 0
M  V30 776 H 69.0336 3.39543 -2.43105 0
M  V30 777 N 69.4707 1.49531 0.497807 0
M  V30 778 C 70.6987 1.62893 1.27567 0
M  V30 779 C 71.1137 0.301585 1.86376 0
M  V30 780 O 70.4707 -0.713335 1.67982 0
M  V30 781 C 70.5217 2.70013 2.40364 0
M  V30 782 O 70.2427 3.976 1.83972 0
M  V30 783 C 71.7437 2.94109 3.31685 0
M  V30 784 H 68.9637 0.548298 0.386794 0
M  V30 785 H 71.5077 1.95584 0.597245 0
M  V30 786 H 69.6627 2.40092 3.04031 0
M  V30 787 H 70.0767 4.56631 2.58047 0
M  V30 788 H 71.5507 3.72788 4.07104 0
M  V30 789 H 72.0277 2.04147 3.88871 0
M  V30 790 H 72.6337 3.2546 2.73781 0
M  V30 791 N 70.9488 -0.749086 1.3866 0
M  V30 792 C 71.8788 -1.8764 1.38973 0
M  V30 793 C 72.8598 -1.68178 0.255004 0
M  V30 794 O 74.0448 -1.88704 0.458754 0
M  V30 795 C 71.1748 -3.25222 1.21851 0
M  V30 796 C 70.1288 -3.59295 2.32575 0
M  V30 797 C 69.4548 -4.95663 2.00555 0
M  V30 798 C 70.7548 -3.63709 3.7485 0
M  V30 799 H 72.4488 -1.87635 2.3331 0
M  V30 800 H 69.9948 -0.901329 1.12303 0
M  V30 801 H 71.9478 -4.03746 1.20695 0
M  V30 802 H 70.6718 -3.25719 0.239775 0
M  V30 803 H 69.3308 -2.83093 2.32925 0
M  V30 804 H 68.9788 -4.92724 1.01154 0
M  V30 805 H 68.6788 -5.19429 2.74714 0
M  V30 806 H 70.2028 -5.7656 2.01024 0
M  V30 807 H 71.6168 -4.32338 3.76506 0
M  V30 808 H 70.0138 -3.98986 4.48252 0
M  V30 809 H 71.0838 -2.63834 4.06841 0
M  V30 810 N 72.4269 -1.23603 -0.977757 0
M  V30 811 C 73.3569 -1.04401 -2.0886 0
M  V30 812 C 74.3379 0.0399052 -1.70053 0
M  V30 813 O 75.5229 -0.125246 -1.93796 0
M  V30 814 C 72.6529 -0.637269 -3.41403 0
M  V30 815 C 71.6069 -1.66883 -3.94124 0
M  V30 816 C 70.9329 -1.11745 -5.22893 0
M  V30 817 C 72.2329 -3.06247 -4.23096 0
M  V30 818 H 73.9269 -1.97316 -2.25182 0
M  V30 819 H 71.4729 -0.950096 -1.08209 0
M  V30 820 H 73.4259 -0.48998 -4.18542 0
M  V30 821 H 72.1499 0.327557 -3.24953 0
M  V30 822 H 70.8089 -1.80416 -3.19133 0
M  V30 823 H 70.4569 -0.143527 -5.02795 0
M  V30 824 H 70.1569 -1.80672 -5.59134 0
M  V30 825 H 71.6809 -0.982067 -6.02651 0
M  V30 826 H 73.0949 -2.96001 -4.90975 0
M  V30 827 H 71.4919 -3.72436 -4.70544 0
M  V30 828 H 72.5619 -3.55041 -3.30263 0
M  V30 829 N 73.905 1.17692 -1.04816 0
M  V30 830 C 75.182 1.83768 -0.669963 0
M  V30 831 C 75.562 1.93232 0.849986 0
M  V30 832 O 74.91 1.46397 1.75443 0
M  V30 833 C 75.12 3.21641 -1.35455 0
M  V30 834 C 76.468 3.97592 -1.49017 0
M  V30 835 O 77.492 3.31107 -1.31326 0
M  V30 836 O 76.351 5.16729 -1.77914 0
M  V30 837 H 73.445 0.792799 -0.235368 0
M  V30 838 H 75.991 1.25021 -1.14751 0
M  V30 839 H 74.763 3.097 -2.39168 0
M  V30 840 H 74.386 3.88052 -0.866107 0
M  V30 841 N 75.3831 0.828654 1.34056 0
M  V30 842 C 76.2931 0.256725 2.33191 0
M  V30 843 C 77.3091 -0.611898 1.62886 0
M  V30 844 O 78.4851 -0.51844 1.94613 0
M  V30 845 C 75.5501 -0.567238 3.42028 0
M  V30 846 C 74.6111 0.324458 4.28072 0
M  V30 847 C 73.8441 -0.460274 5.31712 0
M  V30 848 O 74.0671 -1.693 5.44696 0
M  V30 849 O 73.0011 0.160391 6.01686 0
M  V30 850 H 76.8271 1.07739 2.83947 0
M  V30 851 H 74.4121 0.59093 1.37217 0
M  V30 852 H 76.2941 -1.03582 4.08471 0
M  V30 853 H 74.9691 -1.36513 2.93506 0
M  V30 854 H 73.8761 0.840659 3.64532 0
M  V30 855 H 75.2091 1.08685 4.8005 0
M  V30 856 N 76.8612 -1.46375 0.584142 0
M  V30 857 C 77.8242 -2.28784 -0.138108 0
M  V30 858 C 78.8242 -1.38471 -0.817462 0
M  V30 859 O 80.0142 -1.60833 -0.669199 0
M  V30 860 C 77.1462 -3.18892 -1.20503 0
M  V30 861 H 78.3392 -2.94117 0.586127 0
M  V30 862 H 75.8922 -1.52509 0.342171 0
M  V30 863 H 76.6272 -2.58309 -1.96079 0
M  V30 864 H 76.4122 -3.85388 -0.722384 0
M  V30 865 H 77.9022 -3.80914 -1.71155 0
M  V30 866 N 78.3393 -0.321999 -1.54275 0
M  V30 867 C 79.5873 0.280489 -2.00144 0
M  V30 868 C 79.9083 1.52777 -1.21178 0
M  V30 869 O 79.1783 1.9338 -0.313187 0
M  V30 870 H 77.7583 0.106632 -0.73935 0
M  V30 871 H 80.4203 -0.438184 -1.8991 0
M  V30 872 H 79.5163 0.537972 -3.07428 0
M  V30 873 N 79.8174 1.5752 -0.0501392 0
M  V30 874 C 81.0654 1.9227 0.622642 0
M  V30 875 C 81.3864 0.929083 1.71444 0
M  V30 876 O 80.6564 -0.0262186 1.95882 0
M  V30 877 H 79.2364 0.709739 0.232981 0
M  V30 878 H 81.8984 1.94628 -0.102898 0
M  V30 879 H 80.9944 2.93479 1.06191 0
M  V30 880 N 81.2955 -0.223234 1.56011 0
M  V30 881 C 82.2585 -1.26014 1.9145 0
M  V30 882 C 83.2585 -1.3989 0.792937 0
M  V30 883 O 84.4485 -1.38184 1.0607 0
M  V30 884 C 81.5805 -2.63422 2.16383 0
M  V30 885 H 82.7735 -0.95796 2.84189 0
M  V30 886 H 80.3265 -0.463576 1.49267 0
M  V30 887 H 81.0615 -2.98741 1.2619 0
M  V30 888 H 80.8465 -2.54728 2.98088 0
M  V30 889 H 82.3365 -3.38249 2.44903 0
M  V30 890 N 82.7736 -1.49793 -0.48987 0
M  V30 891 C 84.0196 -1.60078 -1.24511 0
M  V30 892 C 84.3526 -0.291608 -1.91998 0
M  V30 893 O 83.6276 0.705647 -1.81248 0
M  V30 894 C 83.9106 -2.76791 -2.30345 0
M  V30 895 C 83.7636 -4.17535 -1.67286 0
M  V30 896 C 85.0826 -2.89111 -3.31817 0
M  V30 897 H 82.2016 -0.582645 -0.451324 0
M  V30 898 H 84.8436 -1.82117 -0.541612 0
M  V30 899 H 82.9936 -2.5813 -2.90346 0
M  V30 900 H 84.6656 -4.4774 -1.11026 0
M  V30 901 H 82.9086 -4.22665 -0.976577 0
M  V30 902 H 83.5796 -4.95094 -2.44103 0
M  V30 903 H 86.0556 -3.06133 -2.81819 0
M  V30 904 H 84.9316 -3.72433 -4.03219 0
M  V30 905 H 85.1926 -1.9893 -3.94815 0
M  V30 906 N 84.2517 0.741722 -1.39055 0
M  V30 907 C 85.2147 1.83733 -1.37021 0
M  V30 908 C 86.2147 1.58542 -0.268534 0
M  V30 909 O 87.4047 1.66067 -0.526076 0
M  V30 910 C 84.5367 3.2141 -1.13617 0
M  V30 911 H 85.7297 1.86941 -2.34506 0
M  V30 912 H 83.2827 0.944676 -1.24521 0
M  V30 913 H 84.0177 3.23865 -0.167863 0
M  V30 914 H 83.8027 3.4109 -1.93391 0
M  V30 915 H 85.2927 4.01477 -1.14918 0
M  V30 916 N 85.7298 1.2412 0.971189 0
M  V30 917 C 86.6618 0.988349 2.06795 0
M  V30 918 C 87.6748 -0.0409541 1.62748 0
M  V30 919 O 88.8638 0.195673 1.77424 0
M  V30 920 C 85.9638 0.469023 3.35639 0
M  V30 921 C 85.1368 1.56065 4.08611 0
M  V30 922 C 84.1958 1.04458 5.15728 0
M  V30 923 O 83.2218 1.73553 5.42096 0
M  V30 924 N 84.4238 -0.122817 5.8037 0
M  V30 925 H 87.1888 1.93265 2.29061 0
M  V30 926 H 84.7498 1.15102 1.13856 0
M  V30 927 H 86.7418 0.108613 4.04554 0
M  V30 928 H 85.3118 -0.380919 3.1027 0
M  V30 929 H 84.5318 2.09341 3.34021 0
M  V30 930 H 85.8198 2.29449 4.54126 0
M  V30 931 H 85.2178 -0.700563 5.61345 0
M  V30 932 H 83.7748 -0.424404 6.50417 0
M  V30 933 N 87.2079 -1.17134 1.05439 0
M  V30 934 C 88.4559 -1.87085 0.764429 0
M  V30 935 C 88.7769 -1.81584 -0.710787 0
M  V30 936 O 88.0469 -1.24349 -1.51374 0
M  V30 937 H 86.6269 -0.692627 0.279779 0
M  V30 938 H 89.2889 -1.42087 1.33406 0
M  V30 939 H 88.3849 -2.92759 1.0816 0
M  V30 940 N 88.686 -0.835752 -1.33615 0
M  V30 941 C 89.916 -0.442701 -2.01801 0
M  V30 942 C 90.324 0.959807 -1.63047 0
M  V30 943 O 89.667 1.63468 -0.838088 0
M  V30 944 C 89.729 -0.480125 -3.56279 0
M  V30 945 C 89.393 -1.8382 -4.18401 0
M  V30 946 C 90.39 -2.80097 -4.37998 0
M  V30 947 C 88.075 -2.13019 -4.54894 0
M  V30 948 C 90.069 -4.03736 -4.9323 0
M  V30 949 C 87.756 -3.36916 -5.09834 0
M  V30 950 C 88.754 -4.32091 -5.28948 0
M  V30 951 O 88.442 -5.53797 -5.82721 0
M  V30 952 H 88.174 -0.17441 -0.653114 0
M  V30 953 H 90.728 -1.129 -1.71589 0
M  V30 954 H 88.958 0.262931 -3.85805 0
M  V30 955 H 90.647 -0.105335 -4.05763 0
M  V30 956 H 91.413 -2.58838 -4.10156 0
M  V30 957 H 87.292 -1.39733 -4.39313 0
M  V30 958 H 90.836 -4.78034 -5.08064 0
M  V30 959 H 86.733 -3.58033 -5.37106 0
M  V30 960 H 87.501 -5.55494 -6.0114 0
M  V30 961 N 90.1641 1.46063 -0.591896 0
M  V30 962 C 91.4101 2.02638 -0.0811191 0
M  V30 963 C 91.7431 1.4613 1.27905 0
M  V30 964 O 91.0181 0.629908 1.84017 0
M  V30 965 C 91.3011 3.60091 -0.0252436 0
M  V30 966 C 91.1541 4.26965 -1.41496 0
M  V30 967 C 92.4731 4.3496 0.670685 0
M  V30 968 H 89.5921 0.73635 -0.0309524 0
M  V30 969 H 92.2341 1.741 -0.760859 0
M  V30 970 H 90.3841 3.84535 0.553624 0
M  V30 971 H 92.0561 4.13756 -2.0397 0
M  V30 972 H 90.2991 3.85971 -1.98011 0
M  V30 973 H 90.9701 5.35781 -1.32825 0
M  V30 974 H 93.4461 4.15716 0.178825 0
M  V30 975 H 92.3221 5.44686 0.678837 0
M  V30 976 H 92.5831 4.06685 1.73379 0
M  V30 977 N 91.6422 0.330177 1.54103 0
M  V30 978 C 93.0532 -0.15652 1.86043 0
M  V30 979 C 93.4042 -1.51086 1.2517 0
M  V30 980 O 92.5292 -2.09023 0.560217 0
M  V30 981 C 93.1242 -0.290784 3.3755 0
M  V30 982 C 91.6832 -0.721705 3.69416 0
M  V30 983 C 90.8302 0.152622 2.7688 0
M  V30 984 H 93.7812 0.550237 1.48856 0
M  V30 985 H 93.8022 -1.12058 3.63625 0
M  V30 986 H 93.3142 0.695068 3.81825 0
M  V30 987 H 91.4152 -1.71706 3.30678 0
M  V30 988 H 91.5282 -0.520869 4.7626 0
M  V30 989 H 89.8922 -0.372894 2.51956 0
M  V30 990 H 90.6752 1.13536 3.23982 0
M  V30 991 N 93.1203 -1.57491 0.0584922 0
M  V30 992 C 94.0703 -2.08474 -0.923188 0
M  V30 993 C 95.0543 -0.991479 -1.26722 0
M  V30 994 O 96.2463 -1.25473 -1.24842 0
M  V30 995 C 93.3753 -2.6392 -2.19548 0
M  V30 996 C 92.4613 -3.80227 -1.87852 0
M  V30 997 N 92.8523 -4.89714 -1.26546 0
M  V30 998 C 91.1503 -3.89271 -2.17679 0
M  V30 999 C 91.8513 -5.70689 -1.12644 0
M  V30 1000 N 90.8273 -5.18531 -1.63176 0
M  V30 1001 H 94.6293 -2.90517 -0.444653 0
M  V30 1002 H 92.1433 -1.61745 -0.145764 0
M  V30 1003 H 94.1403 -2.98752 -2.9078 0
M  V30 1004 H 92.8003 -1.83318 -2.68001 0
M  V30 1005 H 93.8113 -5.09358 -0.936757 0
M  V30 1006 H 90.4883 -3.19623 -2.68602 0
M  V30 1007 H 91.8783 -6.6875 -0.6499 0
M  V30 1008 N 94.5984 0.214957 -1.56127 0
M  V30 1009 C 95.5464 1.28601 -1.93816 0
M  V30 1010 C 96.5404 1.48175 -0.821016 0
M  V30 1011 O 97.7464 1.49271 -1.0059 0
M  V30 1012 H 94.1214 0.431302 -0.616022 0
M  V30 1013 H 96.0924 0.940991 -2.83175 0
M  V30 1014 C 94.8414 2.62779 -2.27689 0
M  V30 1015 H 94.1644 2.48527 -3.13168 0
M  V30 1016 H 95.6044 3.36517 -2.57939 0
M  V30 1017 C 94.0634 3.18285 -1.10436 0
M  V30 1018 O 94.5934 4.00002 -0.368945 0
M  V30 1019 N 92.7994 2.7675 -0.886433 0
M  V30 1020 H 92.3464 2.10404 -1.48619 0
M  V30 1021 H 92.3044 3.14229 -0.103656 0
M  V30 1022 N 96.0765 1.50051 0.48192 0
M  V30 1023 C 97.3065 1.63999 1.2565 0
M  V30 1024 C 97.7145 0.318288 1.86504 0
M  V30 1025 O 97.0575 -0.708534 1.69486 0
M  V30 1026 C 97.1195 2.66504 2.4128 0
M  V30 1027 C 96.7835 4.10352 2.01148 0
M  V30 1028 C 97.7805 4.96562 1.54021 0
M  V30 1029 C 95.4655 4.56203 2.10199 0
M  V30 1030 C 97.4595 6.26668 1.16473 0
M  V30 1031 C 95.1465 5.86318 1.72264 0
M  V30 1032 C 96.1445 6.71375 1.25477 0
M  V30 1033 O 95.8325 7.99062 0.880626 0
M  V30 1034 H 95.5645 0.55456 0.386574 0
M  V30 1035 H 98.1185 1.96954 0.582944 0
M  V30 1036 H 96.3485 2.28769 3.11772 0
M  V30 1037 H 98.0375 2.69783 3.03268 0
M  V30 1038 H 98.8035 4.62358 1.46458 0
M  V30 1039 H 94.6825 3.90152 2.45566 0
M  V30 1040 H 98.2265 6.93011 0.798841 0
M  V30 1041 H 94.1235 6.20046 1.79482 0
M  V30 1042 H 94.8915 8.12239 1.01043 0
M  V30 1043 N 97.5546 -0.734337 1.39446 0
M  V30 1044 C 98.4846 -1.86155 1.40955 0
M  V30 1045 C 99.4656 -1.67898 0.272827 0
M  V30 1046 O 100.651 -1.88207 0.478743 0
M  V30 1047 C 97.7806 -3.23912 1.25294 0
M  V30 1048 C 96.7346 -3.56808 2.36373 0
M  V30 1049 C 96.0606 -4.93508 2.058 0
M  V30 1050 C 97.3606 -3.59713 3.78687 0
M  V30 1051 H 99.0546 -1.8515 2.35287 0
M  V30 1052 H 96.6006 -0.889367 1.13253 0
M  V30 1053 H 98.5536 -4.02443 1.2497 0
M  V30 1054 H 97.2776 -3.25446 0.274308 0
M  V30 1055 H 95.9366 -2.80606 2.35914 0
M  V30 1056 H 95.5846 -4.91623 1.06374 0
M  V30 1057 H 95.2846 -5.16486 2.80208 0
M  V30 1058 H 96.8086 -5.74396 2.07128 0
M  V30 1059 H 98.2226 -4.2832 3.81071 0
M  V30 1060 H 96.6196 -3.94209 4.52459 0
M  V30 1061 H 97.6896 -2.59504 4.09617 0
M  V30 1062 N 99.0327 -1.24633 -0.964593 0
M  V30 1063 C 99.9957 -1.0424 -2.04124 0
M  V30 1064 C 100.996 0.00137563 -1.608 0
M  V30 1065 O 102.186 -0.239883 -1.7254 0
M  V30 1066 C 99.3177 -0.580588 -3.3592 0
M  V30 1067 H 100.511 -1.99803 -2.23649 0
M  V30 1068 H 98.0637 -1.06899 -1.14027 0
M  V30 1069 H 98.7987 0.3781 -3.22088 0
M  V30 1070 H 98.5837 -1.33398 -3.6871 0
M  V30 1071 H 100.074 -0.459034 -4.15069 0
M  V30 1072 N 100.511 1.16574 -1.06058 0
M  V30 1073 C 101.421 2.2452 -0.680282 0
M  V30 1074 C 102.437 1.71348 0.302604 0
M  V30 1075 O 103.613 2.00822 0.152513 0
M  V30 1076 C 100.678 3.46629 -0.0700315 0
M  V30 1077 C 99.7388 4.14849 -1.10448 0
M  V30 1078 C 98.9718 5.31129 -0.523256 0
M  V30 1079 O 99.1948 5.66514 0.664709 0
M  V30 1080 O 98.1288 5.88526 -1.26179 0
M  V30 1081 H 101.955 2.59355 -1.58015 0
M  V30 1082 H 99.5398 1.24043 -0.832694 0
M  V30 1083 H 101.422 4.20543 0.268667 0
M  V30 1084 H 100.097 3.13573 0.803353 0
M  V30 1085 H 99.0038 3.42916 -1.49532 0
M  V30 1086 H 100.337 4.51954 -1.94931 0
M  V30 1087 N 101.989 0.842826 1.3317 0
M  V30 1088 C 103.405 0.531128 1.50503 0
M  V30 1089 C 103.605 -0.940734 1.78192 0
M  V30 1090 O 102.661 -1.72436 1.84451 0
M  V30 1091 C 103.974 1.40789 2.65705 0
M  V30 1092 C 105.522 1.40708 2.79589 0
M  V30 1093 C 105.997 2.26878 3.97857 0
M  V30 1094 N 107.488 2.24609 4.05099 0
M  V30 1095 C 108.223 2.88019 4.95815 0
M  V30 1096 N 107.719 3.60496 5.9162 0
M  V30 1097 N 109.512 2.77469 4.88843 0
M  V30 1098 H 101.663 1.79557 1.1346 0
M  V30 1099 H 103.926 0.766267 0.558156 0
M  V30 1100 H 103.632 2.454 2.51936 0
M  V30 1101 H 103.506 1.08677 3.61205 0
M  V30 1102 H 105.893 0.368668 2.92788 0
M  V30 1103 H 105.974 1.76829 1.84838 0
M  V30 1104 H 105.618 3.3078 3.85418 0
M  V30 1105 H 105.548 1.88096 4.91861 0
M  V30 1106 H 108.039 1.71906 3.36536 0
M  V30 1107 H 108.352 4.06076 6.57512 0
M  V30 1108 H 106.697 3.64604 5.91683 0
M  V30 1109 H 109.888 2.20406 4.12963 0
M  V30 1110 H 110.061 3.2717 5.59342 0
M  V30 1111 N 103.467 -1.45747 0.599634 0
M  V30 1112 C 104.377 -2.34262 -0.125888 0
M  V30 1113 C 105.393 -1.50768 -0.868625 0
M  V30 1114 O 106.569 -1.83592 -0.828003 0
M  V30 1115 C 103.634 -3.28252 -1.11587 0
M  V30 1116 C 102.695 -4.27651 -0.375956 0
M  V30 1117 C 101.928 -5.1715 -1.31877 0
M  V30 1118 O 102.151 -5.09916 -2.55621 0
M  V30 1119 O 101.085 -5.96286 -0.820157 0
M  V30 1120 H 104.911 -2.97688 0.601315 0
M  V30 1121 H 102.496 -1.44999 0.359934 0
M  V30 1122 H 104.378 -3.86191 -1.68626 0
M  V30 1123 H 103.053 -2.67401 -1.82424 0
M  V30 1124 H 101.96 -3.7335 0.236698 0
M  V30 1125 H 103.293 -4.91334 0.29177 0
M  V30 1126 N 104.945 -0.338344 -1.53925 0
M  V30 1127 C 106.173 0.261298 -2.05243 0
M  V30 1128 C 106.588 1.44625 -1.21363 0
M  V30 1129 O 105.945 1.80811 -0.247736 0
M  V30 1130 C 105.996 0.681412 -3.5502 0
M  V30 1131 O 105.717 -0.456414 -4.35716 0
M  V30 1132 C 107.218 1.34232 -4.22489 0
M  V30 1133 H 104.438 0.0513685 -0.669031 0
M  V30 1134 H 106.982 -0.488822 -1.98572 0
M  V30 1135 H 105.137 1.38148 -3.61931 0
M  V30 1136 H 105.551 -0.122564 -5.24357 0
M  V30 1137 H 107.025 1.58708 -5.28693 0
M  V30 1138 H 107.502 2.29426 -3.74514 0
M  V30 1139 H 108.108 0.684424 -4.19757 0
M  V30 1140 N 106.423 1.57458 -0.0668435 0
M  V30 1141 C 107.669 1.93587 0.6043 0
M  V30 1142 C 108.002 0.946722 1.69561 0
M  V30 1143 O 107.277 -0.0248516 1.94484 0
M  V30 1144 C 107.56 3.40014 1.18585 0
M  V30 1145 C 107.413 4.49685 0.101529 0
M  V30 1146 C 108.732 3.87154 2.09284 0
M  V30 1147 H 105.851 0.703958 0.218202 0
M  V30 1148 H 108.493 1.89542 -0.131804 0
M  V30 1149 H 106.643 3.43592 1.81319 0
M  V30 1150 H 108.315 4.5823 -0.531279 0
M  V30 1151 H 106.558 4.30059 -0.568487 0
M  V30 1152 H 107.229 5.49266 0.54874 0
M  V30 1153 H 109.705 3.85551 1.56491 0
M  V30 1154 H 108.581 4.90231 2.46911 0
M  V30 1155 H 108.842 3.2481 2.99918 0
M  V30 1156 N 107.901 -0.206675 1.56239 0
M  V30 1157 C 108.811 -1.27686 1.96808 0
M  V30 1158 C 109.827 -1.50455 0.874035 0
M  V30 1159 O 111.003 -1.63295 1.17884 0
M  V30 1160 C 108.068 -2.60358 2.28942 0
M  V30 1161 C 107.129 -2.45762 3.51994 0
M  V30 1162 C 106.362 -3.72108 3.82585 0
M  V30 1163 O 106.585 -4.75776 3.14631 0
M  V30 1164 O 105.519 -3.6833 4.76043 0
M  V30 1165 H 109.345 -0.962593 2.88041 0
M  V30 1166 H 106.93 -0.410746 1.43643 0
M  V30 1167 H 108.812 -3.38687 2.50737 0
M  V30 1168 H 107.487 -2.91435 1.4088 0
M  V30 1169 H 106.394 -1.65584 3.35459 0
M  V30 1170 H 107.727 -2.19621 4.40486 0
M  V30 1171 N 109.379 -1.50304 -0.473955 0
M  V30 1172 C 110.604 -1.65175 -1.25427 0
M  V30 1173 C 111.029 -0.333673 -1.85117 0
M  V30 1174 O 110.387 0.702114 -1.67153 0
M  V30 1175 C 110.435 -2.74295 -2.34082 0
M  V30 1176 O 109.539 -2.35349 -3.38651 0
M  V30 1177 H 108.88 -0.551944 -0.369126 0
M  V30 1178 H 111.41 -1.96662 -0.564364 0
M  V30 1179 H 111.42 -2.97285 -2.79438 0
M  V30 1180 H 110.095 -3.69959 -1.90008 0
M  V30 1181 H 108.672 -2.22794 -2.99027 0
M  V30 1182 N 110.857 0.726932 -1.39834 0
M  V30 1183 C 111.767 1.87131 -1.41489 0
M  V30 1184 C 112.783 1.71239 -0.308757 0
M  V30 1185 O 113.959 1.93701 -0.551529 0
M  V30 1186 C 111.024 3.22811 -1.26468 0
M  V30 1187 C 110.085 3.51039 -2.47124 0
M  V30 1188 C 109.318 4.80245 -2.3281 0
M  V30 1189 O 109.541 5.54537 -1.33585 0
M  V30 1190 O 108.475 5.08554 -3.21957 0
M  V30 1191 H 112.301 1.8869 -2.3797 0
M  V30 1192 H 109.886 0.875837 -1.21035 0
M  V30 1193 H 111.768 4.03877 -1.20255 0
M  V30 1194 H 110.443 3.22005 -0.330862 0
M  V30 1195 H 109.35 2.70027 -2.58914 0
M  V30 1196 H 110.683 3.56632 -3.39227 0
M  V30 1197 N 112.336 1.25143 0.95797 0
M  V30 1198 C 113.747 1.08851 1.51685 0
M  V30 1199 C 114.098 -0.33687 1.93286 0
M  V30 1200 O 113.223 -1.22644 1.7829 0
M  V30 1201 C 113.818 1.96978 2.75654 0
M  V30 1202 C 112.377 1.84881 3.27866 0
M  V30 1203 C 111.524 1.91329 2.0072 0
M  V30 1204 H 114.475 1.38478 0.77522 0
M  V30 1205 H 114.496 1.5078 3.4935 0
M  V30 1206 H 114.008 3.00712 2.45345 0
M  V30 1207 H 112.109 0.840182 3.63004 0
M  V30 1208 H 112.222 2.6951 3.96107 0
M  V30 1209 H 110.586 1.35174 2.15871 0
M  V30 1210 H 111.369 2.96661 1.72764 0
M  V30 1211 N 113.814 -1.1601 1.06675 0
M  V30 1212 C 115.06 -1.87145 0.796766 0
M  V30 1213 C 115.415 -1.8037 -0.669658 0
M  V30 1214 O 114.708 -1.21116 -1.48463 0
M  V30 1215 C 114.902 -3.35547 1.23057 0
M  V30 1216 C 114.731 -3.56769 2.73762 0
M  V30 1217 C 113.501 -3.72635 3.41279 0
M  V30 1218 C 115.699 -3.55166 3.7197 0
M  V30 1219 N 113.681 -3.81845 4.80695 0
M  V30 1220 C 115.052 -3.70406 4.97191 0
M  V30 1221 C 117.107 -3.384 3.65226 0
M  V30 1222 C 115.81 -3.70615 6.16471 0
M  V30 1223 C 117.836 -3.39904 4.83962 0
M  V30 1224 C 117.198 -3.55667 6.08013 0
M  V30 1225 H 113.297 -0.702267 0.344014 0
M  V30 1226 H 115.881 -1.39165 1.36166 0
M  V30 1227 H 114.052 -3.82159 0.693456 0
M  V30 1228 H 115.784 -3.94363 0.908844 0
M  V30 1229 H 112.539 -3.73121 2.91681 0
M  V30 1230 H 112.963 -3.90209 5.53232 0
M  V30 1231 H 117.605 -3.25138 2.70269 0
M  V30 1232 H 115.323 -3.82658 7.11757 0
M  V30 1233 H 118.909 -3.28169 4.80413 0
M  V30 1234 H 117.789 -3.56755 6.98352 0
M  V30 1235 N 115.292 -0.849877 -1.32721 0
M  V30 1236 C 116.539 -0.450923 -1.97416 0
M  V30 1237 C 116.867 0.992376 -1.67279 0
M  V30 1238 O 116.122 1.71048 -0.950845 0
M  V30 1239 C 116.421 -0.631272 -3.51781 0
M  V30 1240 C 116.087 -2.04432 -4.01894 0
M  V30 1241 C 114.749 -2.4308 -4.1529 0
M  V30 1242 C 117.101 -2.96679 -4.28522 0
M  V30 1243 C 114.429 -3.73257 -4.52654 0
M  V30 1244 C 116.781 -4.26349 -4.67343 0
M  V30 1245 C 115.445 -4.64939 -4.78945 0
M  V30 1246 H 114.715 -0.165004 -0.722395 0
M  V30 1247 H 117.362 -1.07901 -1.58207 0
M  V30 1248 H 115.667 0.0800767 -3.91718 0
M  V30 1249 H 117.364 -0.302709 -3.99856 0
M  V30 1250 H 113.954 -1.73419 -3.91949 0
M  V30 1251 H 118.138 -2.68054 -4.17685 0
M  V30 1252 H 113.394 -4.02946 -4.59831 0
M  V30 1253 H 117.568 -4.97895 -4.86902 0
M  V30 1254 H 115.195 -5.65855 -5.07654 0
M  V30 1255 N 116.77 1.45427 -0.607355 0
M  V30 1256 C 118.017 2.02241 -0.102455 0
M  V30 1257 C 118.345 1.4758 1.26691 0
M  V30 1258 O 117.6 0.640468 1.84923 0
M  V30 1259 C 117.899 3.57398 -0.0129263 0
M  V30 1260 C 117.565 4.3121 -1.31792 0
M  V30 1261 C 116.227 4.51092 -1.67539 0
M  V30 1262 C 118.579 4.73401 -2.18039 0
M  V30 1263 C 115.907 5.10422 -2.89285 0
M  V30 1264 C 118.259 5.34078 -3.39034 0
M  V30 1265 C 116.923 5.52184 -3.75033 0
M  V30 1266 H 116.193 0.740051 -0.037491 0
M  V30 1267 H 118.84 1.74494 -0.788926 0
M  V30 1268 H 117.145 3.84421 0.756806 0
M  V30 1269 H 118.842 3.99061 0.393881 0
M  V30 1270 H 115.432 4.16047 -1.02968 0
M  V30 1271 H 119.616 4.57774 -1.91721 0
M  V30 1272 H 114.872 5.22629 -3.17283 0
M  V30 1273 H 119.046 5.65724 -4.06115 0
M  V30 1274 H 116.673 5.97925 -4.69457 0
M  V30 1275 N 118.248 0.346503 1.53744 0
M  V30 1276 C 119.496 -0.248612 2.00565 0
M  V30 1277 C 119.817 -1.5083 1.23593 0
M  V30 1278 O 119.087 -1.92858 0.343912 0
M  V30 1279 H 117.667 -0.0948564 0.740953 0
M  V30 1280 H 120.329 0.468341 1.89189 0
M  V30 1281 H 119.425 -0.488994 3.08245 0
M  V30 1282 N 119.726 -1.57421 0.075193 0
M  V30 1283 C 120.966 -1.95495 -0.596757 0
M  V30 1284 C 121.33 -0.954886 -1.66571 0
M  V30 1285 O 122.531 -1.22341 -2.39345 0
M  V30 1286 C 120.802 -3.382 -1.15566 0
M  V30 1287 S 122.361 -3.98254 -1.84226 0
M  V30 1288 H 119.179 -0.683649 -0.195307 0
M  V30 1289 H 121.781 -1.94925 0.149859 0
M  V30 1290 H 120.485 -4.08766 -0.36588 0
M  V30 1291 H 120.016 -3.42321 -1.93856 0
M  V30 1292 H 122.031 -3.85435 -3.12497 0
M  V30 1293 N 121.204 0.198386 -1.56346 0
M  V30 1294 C 122.453 0.917451 -1.79627 0
M  V30 1295 C 122.766 1.8456 -0.64784 0
M  V30 1296 O 123.972 2.60504 -0.764859 0
M  V30 1297 C 122.428 1.68175 -3.18191 0
M  V30 1298 C 122.036 0.798589 -4.40825 0
M  V30 1299 C 123.78 2.39065 -3.50782 0
M  V30 1300 C 121.687 1.56157 -5.70411 0
M  V30 1301 H 120.617 0.346317 -0.669762 0
M  V30 1302 H 123.268 0.170801 -1.82703 0
M  V30 1303 H 121.65 2.47216 -3.09354 0
M  V30 1304 H 122.824 0.0470665 -4.60776 0
M  V30 1305 H 121.139 0.200686 -4.15916 0
M  V30 1306 H 123.736 2.96692 -4.44835 0
M  V30 1307 H 124.079 3.13091 -2.74371 0
M  V30 1308 H 124.612 1.66993 -3.61052 0
M  V30 1309 H 121.351 0.864142 -6.49779 0
M  V30 1310 H 120.871 2.2871 -5.54483 0
M  V30 1311 H 122.55 2.11622 -6.11412 0
M  V30 1312 N 122.682 1.50554 0.465978 0
M  V30 1313 C 123.907 1.65838 1.24549 0
M  V30 1314 C 124.332 0.343486 1.84937 0
M  V30 1315 O 123.69 -0.69324 1.67523 0
M  V30 1316 C 123.738 2.75533 2.32624 0
M  V30 1317 O 122.842 2.37142 3.37398 0
M  V30 1318 H 122.183 0.553893 0.366194 0
M  V30 1319 H 124.713 1.96959 0.553927 0
M  V30 1320 H 124.723 2.98763 2.77857 0
M  V30 1321 H 123.398 3.70962 1.88043 0
M  V30 1322 H 121.975 2.24377 2.97841 0
M  V30 1323 N 124.16 -0.719506 1.40217 0
M  V30 1324 C 125.576 -1.02707 1.22161 0
M  V30 1325 C 125.776 -2.0128 0.0940557 0
M  V30 1326 O 124.832 -2.46452 -0.549318 0
M  V30 1327 C 126.145 -1.57454 2.56181 0
M  V30 1328 C 127.693 -1.69458 2.63159 0
M  V30 1329 C 128.168 -2.27611 3.97438 0
M  V30 1330 N 129.659 -2.35002 3.99159 0
M  V30 1331 C 130.394 -2.80972 4.99842 0
M  V30 1332 N 129.89 -3.26723 6.10921 0
M  V30 1333 N 131.683 -2.80321 4.87213 0
M  V30 1334 H 123.834 -0.0660492 2.12297 0
M  V30 1335 H 126.097 -0.0919077 0.943534 0
M  V30 1336 H 125.803 -0.924873 3.39321 0
M  V30 1337 H 125.677 -2.56036 2.76993 0
M  V30 1338 H 128.064 -2.33543 1.80393 0
M  V30 1339 H 128.145 -0.694867 2.46181 0
M  V30 1340 H 127.789 -1.6415 4.80643 0
M  V30 1341 H 127.719 -3.2829 4.11744 0
M  V30 1342 H 130.21 -2.02685 3.18947 0
M  V30 1343 H 130.523 -3.60355 6.8364 0
M  V30 1344 H 128.868 -3.24692 6.14492 0
M  V30 1345 H 132.059 -2.43912 3.9953 0
M  V30 1346 H 132.232 -3.15831 5.65822 0
M  V30 1347 N 125.638 -1.25649 -0.95132 0
M  V30 1348 C 126.863 -1.13443 -1.73624 0
M  V30 1349 C 127.288 0.307565 -1.85568 0
M  V30 1350 O 126.646 1.22282 -1.33854 0
M  V30 1351 C 126.694 -1.79723 -3.12621 0
M  V30 1352 O 125.798 -1.07912 -3.98031 0
M  V30 1353 H 125.139 -0.395872 -0.533086 0
M  V30 1354 H 127.669 -1.66276 -1.1922 0
M  V30 1355 H 127.679 -1.86141 -3.63064 0
M  V30 1356 H 126.354 -2.84633 -3.03244 0
M  V30 1357 H 124.931 -1.09398 -3.56492 0
M  V30 1358 N 127.117 1.15442 -1.07289 0
M  V30 1359 C 128.027 2.23786 -0.704057 0
M  V30 1360 C 129.043 1.7166 0.284413 0
M  V30 1361 O 130.219 2.00972 0.131205 0
M  V30 1362 C 127.284 3.46535 -0.106792 0
M  V30 1363 C 126.345 4.13654 -1.14842 0
M  V30 1364 C 125.578 5.30544 -0.57956 0
M  V30 1365 O 125.801 5.67187 0.604585 0
M  V30 1366 O 124.735 5.87154 -1.32414 0
M  V30 1367 H 128.561 2.57664 -1.60757 0
M  V30 1368 H 126.146 1.23152 -0.845803 0
M  V30 1369 H 128.028 4.20804 0.224048 0
M  V30 1370 H 126.703 3.14407 0.770049 0
M  V30 1371 H 125.61 3.4131 -1.5316 0
M  V30 1372 H 126.943 4.49861 -1.99714 0
M  V30 1373 N 128.595 0.856903 1.32268 0
M  V30 1374 C 129.558 0.308171 2.27119 0
M  V30 1375 C 130.558 -0.533421 1.51695 0
M  V30 1376 O 131.748 -0.344607 1.70757 0
M  V30 1377 C 128.88 -0.563757 3.36206 0
M  V30 1378 H 130.073 1.14535 2.77167 0
M  V30 1379 H 127.626 0.631421 1.42978 0
M  V30 1380 H 128.361 -1.42266 2.91429 0
M  V30 1381 H 128.146 0.0386749 3.92081 0
M  V30 1382 H 129.636 -0.940386 4.06874 0
M  V30 1383 N 130.073 -1.45103 0.615059 0
M  V30 1384 C 131.319 -2.02483 0.113347 0
M  V30 1385 C 131.652 -1.48146 -1.25564 0
M  V30 1386 O 130.927 -0.659104 -1.82992 0
M  V30 1387 C 131.21 -3.60005 0.0825278 0
M  V30 1388 C 131.063 -4.2466 1.48271 0
M  V30 1389 C 132.382 -4.35972 -0.601401 0
M  V30 1390 H 129.501 -0.735764 0.0426632 0
M  V30 1391 H 132.143 -1.72868 0.788461 0
M  V30 1392 H 130.293 -3.85367 -0.492378 0
M  V30 1393 H 131.965 -4.10458 2.10527 0
M  V30 1394 H 130.208 -3.82772 2.04127 0
M  V30 1395 H 130.879 -5.336 1.41332 0
M  V30 1396 H 133.355 -4.15947 -0.112666 0
M  V30 1397 H 132.231 -5.45697 -0.592097 0
M  V30 1398 H 132.492 -4.09391 -1.66887 0
M  V30 1399 N 131.551 -0.354651 -1.53558 0
M  V30 1400 C 132.967 -0.00315426 -1.596 0
M  V30 1401 C 133.167 1.47741 -1.37021 0
M  V30 1402 O 132.223 2.23759 -1.16996 0
M  V30 1403 C 133.536 -0.44929 -2.97325 0
M  V30 1404 C 135.084 -0.402578 -3.104 0
M  V30 1405 C 135.559 -0.824355 -4.5052 0
M  V30 1406 N 137.05 -0.778979 -4.56603 0
M  V30 1407 C 137.785 -1.07715 -5.63192 0
M  V30 1408 N 137.281 -1.44405 -6.77583 0
M  V30 1409 N 139.074 -1.00066 -5.53121 0
M  V30 1410 H 131.225 -1.31893 -1.66487 0
M  V30 1411 H 133.488 -0.538388 -0.780284 0
M  V30 1412 H 133.194 -1.48202 -3.1895 0
M  V30 1413 H 133.068 0.169772 -3.76818 0
M  V30 1414 H 135.455 0.621004 -2.88492 0
M  V30 1415 H 135.536 -1.05699 -2.32941 0
M  V30 1416 H 135.18 -1.846 -4.73165 0
M  V30 1417 H 135.11 -0.147304 -5.26394 0
M  V30 1418 H 137.601 -0.508528 -3.74463 0
M  V30 1419 H 137.914 -1.65612 -7.54846 0
M  V30 1420 H 136.259 -1.4826 -6.79002 0
M  V30 1421 H 139.45 -0.713293 -4.62633 0
M  V30 1422 H 139.623 -1.23638 -6.36096 0
M  V30 1423 N 133.029 1.57378 -0.0835403 0
M  V30 1424 C 134.445 1.57246 0.273109 0
M  V30 1425 C 134.645 1.09385 1.69225 0
M  V30 1426 O 133.701 0.765051 2.40631 0
M  V30 1427 C 135.014 3.00614 0.0720628 0
M  V30 1428 C 136.562 3.12684 0.1407 0
M  V30 1429 C 137.037 4.57989 -0.0322094 0
M  V30 1430 N 138.528 4.63194 0.0230085 0
M  V30 1431 C 139.263 5.73335 -0.0861941 0
M  V30 1432 N 138.759 6.9235 -0.24958 0
M  V30 1433 N 140.552 5.62093 -0.0282886 0
M  V30 1434 H 132.703 1.86801 -1.0109 0
M  V30 1435 H 134.966 0.861687 -0.395222 0
M  V30 1436 H 134.672 3.39786 -0.907662 0
M  V30 1437 H 134.546 3.68193 0.81936 0
M  V30 1438 H 136.933 2.73391 1.11092 0
M  V30 1439 H 137.014 2.47719 -0.637896 0
M  V30 1440 H 136.658 4.97973 -0.999247 0
M  V30 1441 H 136.588 5.21 0.765937 0
M  V30 1442 H 139.079 3.77613 0.14722 0
M  V30 1443 H 139.392 7.72117 -0.324733 0
M  V30 1444 H 137.737 6.94415 -0.285097 0
M  V30 1445 H 140.928 4.67997 0.0981408 0
M  V30 1446 H 141.101 6.47895 -0.116845 0
M  V30 1447 N 134.507 -0.190092 1.56449 0
M  V30 1448 C 135.437 -1.23816 1.97969 0
M  V30 1449 C 136.418 -1.47201 0.852395 0
M  V30 1450 O 137.603 -1.58854 1.1171 0
M  V30 1451 C 134.733 -2.5813 2.3235 0
M  V30 1452 C 133.687 -2.49348 3.47864 0
M  V30 1453 C 133.013 -3.8798 3.67934 0
M  V30 1454 C 134.313 -2.01424 4.81898 0
M  V30 1455 H 136.007 -0.89311 2.85769 0
M  V30 1456 H 133.553 -0.428177 1.37487 0
M  V30 1457 H 135.506 -3.31637 2.59991 0
M  V30 1458 H 134.23 -2.94386 1.41438 0
M  V30 1459 H 132.889 -1.78297 3.20321 0
M  V30 1460 H 132.537 -4.21597 2.74344 0
M  V30 1461 H 132.237 -3.82978 4.45648 0
M  V30 1462 H 133.761 -4.63101 3.97957 0
M  V30 1463 H 135.175 -2.64693 5.08538 0
M  V30 1464 H 133.572 -2.07413 5.63116 0
M  V30 1465 H 134.642 -0.967677 4.75146 0
M  V30 1466 N 135.985 -1.50799 -0.457987 0
M  V30 1467 C 136.917 -1.66786 -1.57211 0
M  V30 1468 C 137.93 -0.548962 -1.53265 0
M  V30 1469 O 139.119 -0.8226 -1.58416 0
M  V30 1470 C 136.219 -1.64834 -2.96113 0
M  V30 1471 C 135.392 -2.92971 -3.24787 0
M  V30 1472 C 134.451 -2.83485 -4.43309 0
M  V30 1473 O 133.477 -3.5744 -4.42973 0
M  V30 1474 N 134.679 -1.97929 -5.45714 0
M  V30 1475 H 137.444 -2.62889 -1.43909 0
M  V30 1476 H 135.005 -1.48427 -0.646617 0
M  V30 1477 H 136.997 -1.56084 -3.7339 0
M  V30 1478 H 135.567 -0.764118 -3.03117 0
M  V30 1479 H 134.787 -3.15749 -2.36 0
M  V30 1480 H 136.075 -3.77834 -3.40762 0
M  V30 1481 H 135.473 -1.37182 -5.48815 0
M  V30 1482 H 134.03 -1.95073 -6.21924 0
M  V30 1483 N 137.463 0.71206 -1.40597 0
M  V30 1484 C 138.426 1.80785 -1.40888 0
M  V30 1485 C 139.426 1.57937 -0.302103 0
M  V30 1486 O 140.616 1.64913 -0.561182 0
M  V30 1487 C 137.748 3.18927 -1.20409 0
M  V30 1488 H 138.941 1.81924 -2.38419 0
M  V30 1489 H 136.494 0.91805 -1.26497 0
M  V30 1490 H 137.229 3.23436 -0.236522 0
M  V30 1491 H 137.014 3.36911 -2.00582 0
M  V30 1492 H 138.504 3.98949 -1.23408 0
M  V30 1493 N 138.941 1.26152 0.944643 0
M  V30 1494 C 139.851 1.09176 2.07648 0
M  V30 1495 C 140.867 0.0261935 1.7398 0
M  V30 1496 O 142.043 0.229208 2.00091 0
M  V30 1497 C 139.108 0.722915 3.39079 0
M  V30 1498 C 138.169 1.86752 3.86552 0
M  V30 1499 C 137.402 1.51617 5.11711 0
M  V30 1500 O 137.625 0.416331 5.68879 0
M  V30 1501 O 136.559 2.34975 5.54139 0
M  V30 1502 H 140.385 2.0412 2.24875 0
M  V30 1503 H 137.97 1.05182 1.061 0
M  V30 1504 H 139.852 0.529787 4.18056 0
M  V30 1505 H 138.527 -0.197159 3.23099 0
M  V30 1506 H 137.434 2.11558 3.08535 0
M  V30 1507 H 138.767 2.76719 4.07047 0
M  V30 1508 N 140.419 -1.14872 1.07899 0
M  V30 1509 C 141.667 -1.85422 0.803941 0
M  V30 1510 C 141.988 -1.83051 -0.67211 0
M  V30 1511 O 141.258 -1.27532 -1.48703 0
M  V30 1512 H 139.838 -0.686537 0.294408 0
M  V30 1513 H 142.5 -1.39226 1.3639 0
M  V30 1514 H 141.596 -2.90399 1.14346 0
M  V30 1515 N 141.898 -0.863906 -1.31812 0
M  V30 1516 C 142.846 -0.30422 -2.30602 0
M  V30 1517 C 143.84 0.577419 -1.59255 0
M  V30 1518 O 145.046 0.464194 -1.73912 0
M  V30 1519 H 141.421 -0.0796877 -0.747766 0
M  V30 1520 H 143.392 -1.15148 -2.75288 0
M  V30 1521 C 142.141 0.484617 -3.44306 0
M  V30 1522 H 141.464 -0.18451 -3.99374 0
M  V30 1523 H 142.904 0.841664 -4.15562 0
M  V30 1524 C 141.363 1.6735 -2.92396 0
M  V30 1525 O 141.893 2.77273 -2.90659 0
M  V30 1526 N 140.099 1.50362 -2.48676 0
M  V30 1527 H 139.646 0.609402 -2.50288 0
M  V30 1528 H 139.604 2.30051 -2.14299 0
M  V30 1529 N 143.376 1.44774 -0.622745 0
M  V30 1530 C 144.339 2.29069 0.0774015 0
M  V30 1531 C 145.339 1.4059 0.780461 0
M  V30 1532 O 146.529 1.62551 0.626322 0
M  V30 1533 C 143.661 3.21974 1.12006 0
M  V30 1534 H 144.854 2.92459 -0.663901 0
M  V30 1535 H 142.407 1.51548 -0.382486 0
M  V30 1536 H 143.142 2.63417 1.89162 0
M  V30 1537 H 142.927 3.87168 0.619951 0
M  V30 1538 H 144.417 3.85318 1.60995 0
M  V30 1539 N 144.854 0.36279 1.53368 0
M  V30 1540 C 146.082 -0.228613 2.05633 0
M  V30 1541 C 146.497 -1.42676 1.23649 0
M  V30 1542 O 145.854 -1.80394 0.27647 0
M  V30 1543 C 145.905 -0.624845 3.56059 0
M  V30 1544 O 145.626 0.525675 4.34935 0
M  V30 1545 C 147.127 -1.27493 4.24571 0
M  V30 1546 H 144.347 -0.0407183 0.669763 0
M  V30 1547 H 146.891 0.520352 1.97769 0
M  V30 1548 H 145.046 -1.32373 3.64083 0
M  V30 1549 H 145.46 0.205969 5.24095 0
M  V30 1550 H 146.934 -1.50277 5.31151 0
M  V30 1551 H 147.411 -2.23439 3.78116 0
M  V30 1552 H 148.017 -0.617558 4.20792 0
M  V30 1553 N 146.332 -1.57332 0.0918853 0
M  V30 1554 C 147.58 -1.93853 -0.571446 0
M  V30 1555 C 147.901 -0.974212 -1.6892 0
M  V30 1556 O 147.171 -0.0257254 -1.95883 0
M  V30 1557 H 145.751 -0.715666 -0.214082 0
M  V30 1558 H 148.413 -1.94287 0.154464 0
M  V30 1559 H 147.509 -2.96191 -0.983729 0
M  V30 1560 N 147.81 0.181792 -1.56548 0
M  V30 1561 C 148.773 1.20894 -1.94724 0
M  V30 1562 C 149.773 1.37738 -0.829747 0
M  V30 1563 O 150.963 1.35323 -1.09697 0
M  V30 1564 C 148.095 2.57593 -2.23291 0
M  V30 1565 H 149.288 0.882275 -2.86629 0
M  V30 1566 H 146.841 0.423838 -1.50444 0
M  V30 1567 H 147.576 2.95291 -1.34067 0
M  V30 1568 H 147.361 2.46735 -3.04736 0
M  V30 1569 H 148.851 3.31637 -2.53785 0
M  V30 1570 N 149.288 1.51039 0.449983 0
M  V30 1571 C 150.535 1.63081 1.20045 0
M  V30 1572 C 150.863 0.341024 1.91487 0
M  V30 1573 O 150.118 -0.674276 1.83717 0
M  V30 1574 C 150.417 2.77556 2.25161 0
M  V30 1575 C 150.083 4.17289 1.70823 0
M  V30 1576 C 148.745 4.55305 1.55725 0
M  V30 1577 C 151.097 5.04536 1.3074 0
M  V30 1578 C 148.425 5.78287 0.989999 0
M  V30 1579 C 150.777 6.28085 0.754482 0
M  V30 1580 C 149.441 6.64885 0.590308 0
M  V30 1581 H 148.711 0.596755 0.439277 0
M  V30 1582 H 151.358 1.85037 0.49333 0
M  V30 1583 H 149.663 2.49771 3.01863 0
M  V30 1584 H 151.36 2.84073 2.83026 0
M  V30 1585 H 147.95 3.8731 1.83546 0
M  V30 1586 H 152.134 4.75782 1.41229 0
M  V30 1587 H 147.39 6.05456 0.850451 0
M  V30 1588 H 151.564 6.95038 0.435324 0
M  V30 1589 H 149.191 7.60055 0.14862 0
M  V30 1590 N 150.766 -0.704594 1.40972 0
M  V30 1591 C 151.696 -1.83124 1.44872 0
M  V30 1592 C 152.677 -1.67281 0.30838 0
M  V30 1593 O 153.862 -1.87149 0.518556 0
M  V30 1594 C 150.992 -3.21181 1.32136 0
M  V30 1595 C 149.946 -3.51714 2.43888 0
M  V30 1596 C 149.272 -4.89032 2.16222 0
M  V30 1597 C 150.572 -3.516 3.86232 0
M  V30 1598 H 152.266 -1.80117 2.39161 0
M  V30 1599 H 149.812 -0.865145 1.15114 0
M  V30 1600 H 151.765 -3.99702 1.33479 0
M  V30 1601 H 150.489 -3.24791 0.343279 0
M  V30 1602 H 149.148 -2.75539 2.41813 0
M  V30 1603 H 148.796 -4.89256 1.16778 0
M  V30 1604 H 148.496 -5.10426 2.911 0
M  V30 1605 H 150.02 -5.69873 2.19265 0
M  V30 1606 H 151.434 -4.2014 3.9007 0
M  V30 1607 H 149.831 -3.84523 4.60719 0
M  V30 1608 H 150.901 -2.50757 4.15029 0
M  V30 1609 N 152.244 -1.26651 -0.937939 0
M  V30 1610 C 153.493 -1.11775 -1.67897 0
M  V30 1611 C 153.806 0.33794 -1.92659 0
M  V30 1612 O 155.012 0.607434 -2.64618 0
M  V30 1613 C 153.468 -1.9523 -3.02346 0
M  V30 1614 C 153.076 -3.45393 -2.8532 0
M  V30 1615 C 154.82 -1.88972 -3.80118 0
M  V30 1616 C 152.727 -4.21083 -4.15263 0
M  V30 1617 H 151.657 -0.414696 -0.629717 0
M  V30 1618 H 154.308 -1.50988 -1.04283 0
M  V30 1619 H 152.69 -1.48853 -3.66959 0
M  V30 1620 H 153.864 -3.99561 -2.29537 0
M  V30 1621 H 152.179 -3.52921 -2.20988 0
M  V30 1622 H 154.776 -2.42805 -4.76392 0
M  V30 1623 H 155.119 -0.86113 -4.07296 0
M  V30 1624 H 155.652 -2.33189 -3.22285 0
M  V30 1625 H 152.391 -5.24425 -3.93267 0
M  V30 1626 H 151.911 -3.71695 -4.70747 0
M  V30 1627 H 153.59 -4.29706 -4.83696 0
M  V30 1628 N 153.722 1.14298 -1.08507 0
M  V30 1629 C 155.138 1.37347 -0.812901 0
M  V30 1630 C 155.338 1.93052 0.577325 0
M  V30 1631 O 154.394 2.14389 1.33393 0
M  V30 1632 C 155.707 2.33359 -1.89642 0
M  V30 1633 C 157.255 2.46996 -1.92255 0
M  V30 1634 C 157.73 3.46309 -2.99724 0
M  V30 1635 N 159.221 3.53853 -2.98902 0
M  V30 1636 C 159.956 4.3055 -3.787 0
M  V30 1637 N 159.452 5.10482 -4.6838 0
M  V30 1638 N 161.245 4.25757 -3.66998 0
M  V30 1639 H 153.396 0.764867 -1.9815 0
M  V30 1640 H 155.659 0.398966 -0.859959 0
M  V30 1641 H 155.365 1.99565 -2.89597 0
M  V30 1642 H 155.239 3.33274 -1.76659 0
M  V30 1643 H 157.626 2.80081 -0.929445 0
M  V30 1644 H 157.707 1.47039 -2.09316 0
M  V30 1645 H 157.351 3.13957 -3.99241 0
M  V30 1646 H 157.281 4.46049 -2.79907 0
M  V30 1647 H 159.772 2.96812 -2.33904 0
M  V30 1648 H 160.085 5.66284 -5.25873 0
M  V30 1649 H 158.43 5.09747 -4.72422 0
M  V30 1650 H 161.621 3.62383 -2.96304 0
M  V30 1651 H 161.794 4.85279 -4.29427 0
M  V30 1652 N 155.201 0.870884 1.31352 0
M  V30 1653 C 156.447 0.482987 1.96965 0
M  V30 1654 C 156.78 -0.962462 1.68672 0
M  V30 1655 O 156.055 -1.6779 0.98371 0
M  V30 1656 C 156.338 0.741752 3.52378 0
M  V30 1657 C 156.191 2.2368 3.9024 0
M  V30 1658 C 157.51 0.208838 4.39604 0
M  V30 1659 H 154.629 0.176955 0.715441 0
M  V30 1660 H 157.271 1.09229 1.55464 0
M  V30 1661 H 155.421 0.223149 3.87859 0
M  V30 1662 H 157.093 2.82273 3.64856 0
M  V30 1663 H 155.336 2.70901 3.38814 0
M  V30 1664 H 156.007 2.3685 4.98604 0
M  V30 1665 H 158.483 0.652529 4.10952 0
M  V30 1666 H 157.359 0.419336 5.47296 0
M  V30 1667 H 157.62 -0.889275 4.33064 0
M  V30 1668 N 156.679 -1.44442 0.630414 0
M  V30 1669 C 157.904 -2.06927 0.139944 0
M  V30 1670 C 158.329 -1.46795 -1.17613 0
M  V30 1671 O 157.687 -0.569144 -1.72135 0
M  V30 1672 C 157.735 -3.6058 0.0379581 0
M  V30 1673 O 156.839 -3.99937 -1.0062 0
M  V30 1674 H 156.18 -0.658608 0.0844483 0
M  V30 1675 H 158.71 -1.85327 0.866891 0
M  V30 1676 H 158.72 -4.07714 -0.152856 0
M  V30 1677 H 157.395 -4.03728 0.998809 0
M  V30 1678 H 155.972 -3.64436 -0.79001 0
M  V30 1679 N 158.157 -0.370918 -1.53173 0
M  V30 1680 C 159.067 0.480823 -2.2962 0
M  V30 1681 C 160.083 1.08789 -1.35798 0
M  V30 1682 O 161.259 1.09768 -1.68858 0
M  V30 1683 C 158.324 1.60227 -3.07454 0
M  V30 1684 C 157.385 1.0222 -4.16953 0
M  V30 1685 C 156.618 2.0902 -4.91066 0
M  V30 1686 O 156.841 3.30222 -4.65091 0
M  V30 1687 O 155.775 1.71778 -5.76867 0
M  V30 1688 H 159.601 -0.141421 -3.03371 0
M  V30 1689 H 157.186 -0.135146 -1.48787 0
M  V30 1690 H 159.068 2.25417 -3.56041 0
M  V30 1691 H 157.743 2.20982 -2.36535 0
M  V30 1692 H 156.65 0.334064 -3.72605 0
M  V30 1693 H 157.983 0.459131 -4.90054 0
M  V30 1694 N 159.635 1.57281 -0.100228 0
M  V30 1695 C 160.582 2.14305 0.856858 0
M  V30 1696 C 161.552 1.06296 1.27634 0
M  V30 1697 O 162.737 1.34109 1.35718 0
M  V30 1698 C 159.877 2.73184 2.10866 0
M  V30 1699 C 158.99 3.95442 1.73925 0
M  V30 1700 C 158.125 4.42468 2.93931 0
M  V30 1701 C 157.164 5.57303 2.5314 0
M  V30 1702 N 156.301 5.99158 3.65997 0
M  V30 1703 H 161.141 2.95772 0.363726 0
M  V30 1704 H 158.678 1.46139 0.167858 0
M  V30 1705 H 160.636 3.05442 2.84185 0
M  V30 1706 H 159.266 1.94437 2.57671 0
M  V30 1707 H 158.318 3.69464 0.905554 0
M  V30 1708 H 159.63 4.78769 1.39935 0
M  V30 1709 H 158.784 4.76537 3.75496 0
M  V30 1710 H 157.523 3.58052 3.31134 0
M  V30 1711 H 156.528 5.22857 1.70003 0
M  V30 1712 H 157.753 6.43471 2.17075 0
M  V30 1713 H 155.699 5.17687 4.02909 0
M  V30 1714 H 155.616 6.77295 3.35869 0
M  V30 1715 H 156.884 6.3786 4.48057 0
M  V30 1716 N 161.113 -0.173488 1.56642 0
M  V30 1717 C 162.524 -0.736155 1.71574 0
M  V30 1718 C 162.875 -1.82888 0.710389 0
M  V30 1719 O 162 -2.16017 -0.1287 0
M  V30 1720 C 162.595 -1.34211 3.11083 0
M  V30 1721 C 161.154 -1.85162 3.27707 0
M  V30 1722 C 160.301 -0.729765 2.67525 0
M  V30 1723 H 163.252 0.0518786 1.58615 0
M  V30 1724 H 163.273 -2.21178 3.09613 0
M  V30 1725 H 162.785 -0.546579 3.84232 0
M  V30 1726 H 160.886 -2.67366 2.59512 0
M  V30 1727 H 160.999 -1.99855 4.35425 0
M  V30 1728 H 159.363 -1.14965 2.27278 0
M  V30 1729 H 160.146 0.0538806 3.43258 0
M  V30 1730 N 162.591 -1.51276 -0.441967 0
M  V30 1731 C 163.816 -1.67799 -1.21895 0
M  V30 1732 C 164.241 -0.372864 -1.84367 0
M  V30 1733 O 163.599 0.666501 -1.68604 0
M  V30 1734 C 163.647 -2.79199 -2.28211 0
M  V30 1735 O 162.751 -2.42479 -3.33583 0
M  V30 1736 H 162.092 -0.559649 -0.357336 0
M  V30 1737 H 164.622 -1.97815 -0.522522 0
M  V30 1738 H 164.632 -3.03146 -2.73069 0
M  V30 1739 H 163.307 -3.73906 -1.82118 0
M  V30 1740 H 161.884 -2.29087 -2.94234 0
M  V30 1741 N 164.069 0.697108 -1.41344 0
M  V30 1742 C 165.032 1.79281 -1.42797 0
M  V30 1743 C 166.032 1.57607 -0.318837 0
M  V30 1744 O 167.222 1.64309 -0.578642 0
M  V30 1745 C 164.354 3.17632 -1.23785 0
M  V30 1746 H 165.547 1.79385 -2.40335 0
M  V30 1747 H 163.1 0.904582 -1.27464 0
M  V30 1748 H 163.835 3.23167 -0.270814 0
M  V30 1749 H 163.62 3.34765 -2.04144 0
M  V30 1750 H 165.11 3.97617 -1.27633 0
M  V30 1751 N 165.547 1.27147 0.931209 0
M  V30 1752 C 166.824 1.0401 1.65654 0
M  V30 1753 C 167.204 -0.426297 2.06751 0
M  V30 1754 O 166.552 -1.40879 1.79904 0
M  V30 1755 C 166.762 1.99834 2.86125 0
M  V30 1756 C 168.11 2.29007 3.57549 0
M  V30 1757 O 169.134 1.97779 2.96246 0
M  V30 1758 O 167.993 2.82222 4.67989 0
M  V30 1759 H 165.087 0.396239 0.725895 0
M  V30 1760 H 167.633 1.38397 0.982056 0
M  V30 1761 H 166.405 2.98744 2.52721 0
M  V30 1762 H 166.028 1.65987 3.61295 0
M  V30 1763 N 167.025 -1.13721 1.09112 0
M  V30 1764 C 168.255 -1.88499 0.845671 0
M  V30 1765 C 168.663 -1.79218 -0.606432 0
M  V30 1766 O 168.006 -1.1544 -1.42896 0
M  V30 1767 C 168.068 -3.38954 1.19793 0
M  V30 1768 C 167.732 -3.72018 2.65428 0
M  V30 1769 C 168.729 -3.7153 3.63677 0
M  V30 1770 C 166.414 -4.01775 3.01467 0
M  V30 1771 C 168.408 -4.00336 4.95994 0
M  V30 1772 C 166.095 -4.30243 4.33975 0
M  V30 1773 C 167.093 -4.29508 5.31048 0
M  V30 1774 O 166.781 -4.5728 6.61173 0
M  V30 1775 H 166.513 -0.603702 0.304171 0
M  V30 1776 H 169.067 -1.44903 1.45576 0
M  V30 1777 H 167.297 -3.83039 0.530871 0
M  V30 1778 H 168.986 -3.95052 0.932146 0
M  V30 1779 H 169.752 -3.4862 3.37179 0
M  V30 1780 H 165.631 -4.01496 2.26544 0
M  V30 1781 H 169.175 -3.99678 5.71755 0
M  V30 1782 H 165.072 -4.52625 4.60219 0
M  V30 1783 H 165.84 -4.74964 6.66597 0
M  V30 1784 N 168.503 -0.877838 -1.30888 0
M  V30 1785 C 169.749 -0.493426 -1.96706 0
M  V30 1786 C 170.082 0.953504 -1.6918 0
M  V30 1787 O 169.357 1.67266 -0.992594 0
M  V30 1788 C 169.64 -0.760429 -3.51979 0
M  V30 1789 C 169.493 -2.25747 -3.89048 0
M  V30 1790 C 170.812 -0.232148 -4.39487 0
M  V30 1791 H 167.931 -0.180746 -0.714493 0
M  V30 1792 H 170.573 -1.10052 -1.54882 0
M  V30 1793 H 168.723 -0.243715 -3.87735 0
M  V30 1794 H 170.395 -2.84204 -3.63354 0
M  V30 1795 H 168.638 -2.72694 -3.37373 0
M  V30 1796 H 169.309 -2.39491 -4.97341 0
M  V30 1797 H 171.785 -0.674314 -4.106 0
M  V30 1798 H 170.661 -0.448355 -5.47066 0
M  V30 1799 H 170.922 0.866297 -4.33529 0
M  V30 1800 N 169.982 1.44106 -0.638065 0
M  V30 1801 C 170.912 2.33448 0.0494287 0
M  V30 1802 C 171.893 1.48606 0.827672 0
M  V30 1803 O 173.078 1.77308 0.792173 0
M  V30 1804 C 170.208 3.31771 1.02691 0
M  V30 1805 C 169.162 4.26485 0.359823 0
M  V30 1806 C 168.488 5.14729 1.44769 0
M  V30 1807 C 169.788 5.17056 -0.738296 0
M  V30 1808 H 171.482 2.91183 -0.696636 0
M  V30 1809 H 169.028 1.40014 -0.336456 0
M  V30 1810 H 170.981 3.93161 1.51666 0
M  V30 1811 H 169.705 2.7226 1.80395 0
M  V30 1812 H 168.364 3.66437 -0.10934 0
M  V30 1813 H 168.012 4.51566 2.21578 0
M  V30 1814 H 167.712 5.78913 1.00668 0
M  V30 1815 H 169.236 5.78991 1.93911 0
M  V30 1816 H 170.65 5.72342 -0.331354 0
M  V30 1817 H 169.047 5.89879 -1.10286 0
M  V30 1818 H 170.117 4.57652 -1.60258 0
M  V30 1819 N 171.46 0.379036 1.52974 0
M  V30 1820 C 172.685 -0.209353 2.06341 0
M  V30 1821 C 173.11 -1.40583 1.24972 0
M  V30 1822 O 172.468 -1.79246 0.272155 0
M  V30 1823 C 172.516 -0.567786 3.56102 0
M  V30 1824 O 171.62 -1.66318 3.77375 0
M  V30 1825 H 170.961 -0.0272919 0.663439 0
M  V30 1826 H 173.491 0.543536 1.97248 0
M  V30 1827 H 173.501 -0.835003 3.99364 0
M  V30 1828 H 172.176 0.307013 4.14765 0
M  V30 1829 H 170.753 -1.39048 3.46006 0
M  V30 1830 N 172.938 -1.57226 0.108567 0
M  V30 1831 C 174.184 -1.95121 -0.552761 0
M  V30 1832 C 174.517 -0.991345 -1.66991 0
M  V30 1833 O 173.792 -0.0267211 -1.94482 0
M  V30 1834 C 174.075 -3.43039 -1.09528 0
M  V30 1835 C 173.928 -4.49797 0.0177332 0
M  V30 1836 C 175.247 -3.92567 -1.98945 0
M  V30 1837 H 172.366 -0.709496 -0.199461 0
M  V30 1838 H 175.008 -1.89126 0.182011 0
M  V30 1839 H 173.158 -3.48279 -1.72146 0
M  V30 1840 H 174.83 -4.56661 0.652584 0
M  V30 1841 H 173.073 -4.284 0.682309 0
M  V30 1842 H 173.744 -5.50528 -0.402919 0
M  V30 1843 H 176.22 -3.89565 -1.46214 0
M  V30 1844 H 175.096 -4.96605 -2.33827 0
M  V30 1845 H 175.357 -3.32648 -2.91201 0
M  V30 1846 N 174.416 0.165178 -1.56732 0
M  V30 1847 C 175.832 0.517174 -1.50988 0
M  V30 1848 C 176.032 1.84331 -0.813894 0
M  V30 1849 O 175.088 2.49672 -0.37682 0
M  V30 1850 C 176.401 0.544261 -2.95733 0
M  V30 1851 C 177.949 0.631039 -3.06573 0
M  V30 1852 C 178.424 0.68896 -4.52788 0
M  V30 1853 N 179.915 0.751683 -4.5706 0
M  V30 1854 C 180.65 0.817177 -5.67547 0
M  V30 1855 N 180.146 0.843129 -6.8765 0
M  V30 1856 N 181.939 0.856668 -5.55534 0
M  V30 1857 H 174.09 -0.704318 -2.00382 0
M  V30 1858 H 176.353 -0.254687 -0.913148 0
M  V30 1859 H 176.059 -0.361607 -3.49836 0
M  V30 1860 H 175.933 1.3886 -3.5071 0
M  V30 1861 H 178.32 1.52733 -2.52501 0
M  V30 1862 H 178.401 -0.240095 -2.54671 0
M  V30 1863 H 178.045 -0.2031 -5.07494 0
M  V30 1864 H 177.975 1.57633 -5.02454 0
M  V30 1865 H 180.466 0.739661 -3.70591 0
M  V30 1866 H 180.779 0.894448 -7.67606 0
M  V30 1867 H 179.124 0.811304 -6.90248 0
M  V30 1868 H 182.315 0.833437 -4.60621 0
M  V30 1869 H 182.488 0.904247 -6.4166 0
M  V30 1870 N 175.894 1.51508 0.433938 0
M  V30 1871 C 177.171 1.54888 1.19453 0
M  V30 1872 C 177.551 0.315154 2.08734 0
M  V30 1873 O 176.899 -0.699558 2.17528 0
M  V30 1874 C 177.109 2.86467 1.99342 0
M  V30 1875 C 178.457 3.38545 2.56267 0
M  V30 1876 O 179.481 2.88041 2.0955 0
M  V30 1877 O 178.34 4.26675 3.41483 0
M  V30 1878 H 175.434 0.622863 0.544032 0
M  V30 1879 H 177.98 1.63823 0.442732 0
M  V30 1880 H 176.752 3.67718 1.33788 0
M  V30 1881 H 176.375 2.8071 2.8158 0
M  V30 1882 N 177.372 -0.689602 1.41712 0
M  V30 1883 C 178.6 -1.47827 1.44758 0
M  V30 1884 C 179.015 -1.88721 0.0545703 0
M  V30 1885 O 178.372 -1.57176 -0.927463 0
M  V30 1886 C 178.423 -2.73698 2.3616 0
M  V30 1887 O 178.144 -2.34524 3.7004 0
M  V30 1888 C 179.645 -3.67389 2.48072 0
M  V30 1889 H 176.865 -0.455357 0.49284 0
M  V30 1890 H 179.409 -0.848574 1.86063 0
M  V30 1891 H 177.564 -3.32891 1.98148 0
M  V30 1892 H 177.978 -3.15701 4.18847 0
M  V30 1893 H 179.452 -4.52475 3.16181 0
M  V30 1894 H 179.929 -4.12284 1.51388 0
M  V30 1895 H 180.535 -3.14097 2.86746 0
M  V30 1896 N 178.85 -1.27639 -0.924453 0
M  V30 1897 C 179.782 -1.06442 -2.02985 0
M  V30 1898 C 180.795 -0.0194771 -1.62788 0
M  V30 1899 O 181.984 -0.261388 -1.76576 0
M  V30 1900 C 179.084 -0.59327 -3.33667 0
M  V30 1901 C 178.257 -1.71123 -4.02537 0
M  V30 1902 C 177.316 -1.23527 -5.11495 0
M  V30 1903 O 176.342 -1.93553 -5.35281 0
M  V30 1904 N 177.544 -0.0926678 -5.80426 0
M  V30 1905 H 180.309 -2.01633 -2.2173 0
M  V30 1906 H 177.87 -1.19248 -1.09505 0
M  V30 1907 H 179.862 -0.258686 -4.03872 0
M  V30 1908 H 178.432 0.265502 -3.1147 0
M  V30 1909 H 177.652 -2.21593 -3.26022 0
M  V30 1910 H 178.94 -2.46145 -4.45298 0
M  V30 1911 H 178.338 0.491741 -5.63559 0
M  V30 1912 H 176.895 0.182714 -6.51544 0
M  V30 1913 N 180.328 1.1314 -1.09713 0
M  V30 1914 C 181.291 2.16831 -0.742751 0
M  V30 1915 C 182.291 1.59159 0.229129 0
M  V30 1916 O 183.481 1.74199 0.00693237 0
M  V30 1917 C 180.613 3.40756 -0.0989168 0
M  V30 1918 H 181.806 2.49695 -1.66109 0
M  V30 1919 H 179.359 1.2802 -0.896699 0
M  V30 1920 H 180.094 3.13485 0.830514 0
M  V30 1921 H 179.879 3.83888 -0.798265 0
M  V30 1922 H 181.369 4.17386 0.133524 0
M  V30 1923 N 181.806 0.884767 1.30421 0
M  V30 1924 C 183.052 0.503851 1.96441 0
M  V30 1925 C 183.385 -0.944518 1.69684 0
M  V30 1926 O 182.66 -1.66737 1.00145 0
M  V30 1927 C 182.943 0.779085 3.51571 0
M  V30 1928 C 182.796 2.27807 3.87846 0
M  V30 1929 C 184.115 0.255452 4.39358 0
M  V30 1930 H 181.234 0.184533 0.713524 0
M  V30 1931 H 183.876 1.10872 1.54297 0
M  V30 1932 H 182.026 0.264274 3.876 0
M  V30 1933 H 183.698 2.86127 3.61841 0
M  V30 1934 H 181.941 2.74479 3.35922 0
M  V30 1935 H 182.612 2.42125 4.96064 0
M  V30 1936 H 185.088 0.696079 4.10236 0
M  V30 1937 H 183.964 0.477361 5.4682 0
M  V30 1938 H 184.225 -0.843293 4.33983 0
M  V30 1939 N 183.284 -1.43765 0.645699 0
M  V30 1940 C 184.7 -1.56509 0.312591 0
M  V30 1941 C 184.9 -1.6307 -1.18365 0
M  V30 1942 O 183.956 -1.58167 -1.96824 0
M  V30 1943 C 185.269 -2.82968 1.01733 0
M  V30 1944 C 186.817 -2.96701 0.996865 0
M  V30 1945 C 187.292 -4.25982 1.68236 0
M  V30 1946 N 188.783 -4.32829 1.64964 0
M  V30 1947 C 189.518 -5.31613 2.14885 0
M  V30 1948 N 189.014 -6.36718 2.73061 0
M  V30 1949 N 190.807 -5.23217 2.05428 0
M  V30 1950 H 182.958 -1.3775 1.61675 0
M  V30 1951 H 185.221 -0.661067 0.679481 0
M  V30 1952 H 184.927 -2.84156 2.0724 0
M  V30 1953 H 184.801 -3.72957 0.564177 0
M  V30 1954 H 187.188 -2.95058 -0.0497719 0
M  V30 1955 H 187.269 -2.08022 1.48865 0
M  V30 1956 H 186.913 -4.28386 2.72852 0
M  V30 1957 H 186.843 -5.13545 1.16529 0
M  V30 1958 H 189.334 -3.57493 1.22503 0
M  V30 1959 H 189.647 -7.08401 3.08848 0
M  V30 1960 H 187.992 -6.37362 2.77118 0
M  V30 1961 H 191.183 -4.40019 1.59689 0
M  V30 1962 H 191.356 -6.00045 2.44643 0
M  V30 1963 N 184.763 -0.387143 -1.52771 0
M  V30 1964 C 185.713 0.465942 -2.23188 0
M  V30 1965 C 186.697 1.03138 -1.23496 0
M  V30 1966 O 187.889 0.957845 -1.48843 0
M  V30 1967 C 185.018 1.59384 -3.04059 0
M  V30 1968 C 184.104 1.04024 -4.11144 0
M  V30 1969 N 184.495 0.211416 -5.05358 0
M  V30 1970 C 182.793 1.31295 -4.26237 0
M  V30 1971 C 183.494 -0.0941698 -5.81624 0
M  V30 1972 N 182.47 0.509207 -5.4121 0
M  V30 1973 H 186.272 -0.173856 -2.93385 0
M  V30 1974 H 183.786 -0.19633 -1.61209 0
M  V30 1975 H 185.783 2.21738 -3.53041 0
M  V30 1976 H 184.443 2.23648 -2.35397 0
M  V30 1977 H 185.454 -0.151151 -5.17679 0
M  V30 1978 H 182.131 1.95679 -3.68803 0
M  V30 1979 H 183.521 -0.765572 -6.67524 0
M  V30 1980 N 186.241 1.57166 -0.116904 0
M  V30 1981 C 187.471 1.99184 0.548586 0
M  V30 1982 C 187.879 0.995436 1.60897 0
M  V30 1983 O 187.222 -0.0201293 1.83689 0
M  V30 1984 C 187.284 3.37611 1.23526 0
M  V30 1985 C 186.948 4.55857 0.323077 0
M  V30 1986 C 187.945 5.18056 -0.437476 0
M  V30 1987 C 185.63 5.01751 0.234761 0
M  V30 1988 C 187.624 6.24536 -1.2741 0
M  V30 1989 C 185.311 6.08093 -0.605496 0
M  V30 1990 C 186.309 6.69352 -1.35856 0
M  V30 1991 O 185.997 7.7364 -2.18487 0
M  V30 1992 H 185.729 0.659148 0.149999 0
M  V30 1993 H 188.283 2.0443 -0.199428 0
M  V30 1994 H 186.513 3.29113 2.0303 0
M  V30 1995 H 188.202 3.63932 1.79745 0
M  V30 1996 H 188.968 4.83516 -0.379105 0
M  V30 1997 H 184.847 4.53817 0.810601 0
M  V30 1998 H 188.391 6.72281 -1.86237 0
M  V30 1999 H 184.288 6.42063 -0.665268 0
M  V30 2000 H 185.056 7.90727 -2.11406 0
M  V30 2001 N 187.719 -0.156864 1.56817 0
M  V30 2002 C 188.666 -1.19394 1.97519 0
M  V30 2003 C 189.636 -1.4322 0.841265 0
M  V30 2004 O 190.821 -1.55719 1.10255 0
M  V30 2005 C 187.961 -2.52483 2.35258 0
M  V30 2006 C 187.074 -2.35914 3.61896 0
M  V30 2007 C 186.209 -3.61969 3.88782 0
M  V30 2008 C 185.248 -3.40395 5.08722 0
M  V30 2009 N 184.385 -4.58556 5.31668 0
M  V30 2010 H 189.225 -0.839845 2.85921 0
M  V30 2011 H 186.762 -0.403264 1.41464 0
M  V30 2012 H 188.72 -3.30071 2.55165 0
M  V30 2013 H 187.35 -2.85859 1.49949 0
M  V30 2014 H 186.402 -1.49429 3.49821 0
M  V30 2015 H 187.714 -2.15926 4.49641 0
M  V30 2016 H 186.868 -4.47989 4.09135 0
M  V30 2017 H 185.607 -3.84951 2.9944 0
M  V30 2018 H 184.612 -2.52763 4.88253 0
M  V30 2019 H 185.837 -3.18822 5.99608 0
M  V30 2020 H 183.783 -4.81729 4.45279 0
M  V30 2021 H 183.7 -4.41535 6.13664 0
M  V30 2022 H 184.968 -5.45817 5.5651 0
M  V30 2023 N 189.197 -1.51736 -0.425897 0
M  V30 2024 C 190.446 -1.64201 -1.17136 0
M  V30 2025 C 190.759 -0.369705 -1.92074 0
M  V30 2026 O 191.965 -0.373898 -2.68913 0
M  V30 2027 C 190.421 -2.90035 -2.13091 0
M  V30 2028 C 190.029 -4.24312 -1.43747 0
M  V30 2029 C 191.773 -3.1186 -2.87999 0
M  V30 2030 C 189.68 -5.41285 -2.38253 0
M  V30 2031 H 188.61 -0.611624 -0.440944 0
M  V30 2032 H 191.261 -1.78212 -0.437328 0
M  V30 2033 H 189.643 -2.69684 -2.89977 0
M  V30 2034 H 190.817 -4.55086 -0.723408 0
M  V30 2035 H 189.132 -4.08456 -0.809465 0
M  V30 2036 H 191.729 -3.96427 -3.58817 0
M  V30 2037 H 192.072 -2.25403 -3.49999 0
M  V30 2038 H 192.605 -3.32605 -2.18217 0
M  V30 2039 H 189.344 -6.30037 -1.80925 0
M  V30 2040 H 188.864 -5.14872 -3.0768 0
M  V30 2041 H 190.543 -5.73694 -2.99139 0
M  V30 2042 N 190.675 0.682077 -1.42076 0
M  V30 2043 C 191.921 1.44283 -1.43366 0
M  V30 2044 C 192.276 1.92344 -0.0465775 0
M  V30 2045 O 191.569 1.67517 0.929973 0
M  V30 2046 C 191.763 2.66036 -2.38662 0
M  V30 2047 C 191.592 2.29889 -3.86499 0
M  V30 2048 C 190.362 2.19599 -4.55087 0
M  V30 2049 C 192.56 1.91999 -4.77117 0
M  V30 2050 N 190.542 1.76478 -5.87987 0
M  V30 2051 C 191.913 1.59741 -5.99068 0
M  V30 2052 C 193.968 1.78927 -4.64639 0
M  V30 2053 C 192.671 1.15723 -7.0993 0
M  V30 2054 C 194.697 1.36314 -5.75476 0
M  V30 2055 C 194.059 1.04975 -6.96534 0
M  V30 2056 H 190.158 0.524739 -0.579805 0
M  V30 2057 H 192.742 0.787834 -1.78048 0
M  V30 2058 H 190.913 3.29237 -2.06053 0
M  V30 2059 H 192.645 3.32588 -2.30581 0
M  V30 2060 H 189.4 2.38433 -4.09202 0
M  V30 2061 H 189.824 1.57362 -6.58458 0
M  V30 2062 H 194.466 2.01805 -3.7153 0
M  V30 2063 H 192.184 0.91591 -8.02893 0
M  V30 2064 H 195.77 1.26731 -5.6783 0
M  V30 2065 H 194.65 0.725017 -7.80841 0
M  V30 2066 N 192.153 1.28127 0.917671 0
M  V30 2067 C 193.569 1.05749 1.19538 0
M  V30 2068 C 193.769 -0.202633 2.00479 0
M  V30 2069 O 192.825 -0.905382 2.3571 0
M  V30 2070 C 194.138 2.30273 1.93378 0
M  V30 2071 C 195.686 2.35412 2.06277 0
M  V30 2072 C 196.161 3.59692 2.83524 0
M  V30 2073 N 197.652 3.60309 2.91087 0
M  V30 2074 C 198.387 4.53147 3.51348 0
M  V30 2075 N 197.883 5.563 4.12919 0
M  V30 2076 N 199.676 4.40751 3.48849 0
M  V30 2077 H 191.827 2.09024 0.377184 0
M  V30 2078 H 194.09 0.919798 0.22951 0
M  V30 2079 H 193.796 3.22055 1.41328 0
M  V30 2080 H 193.67 2.36378 2.93947 0
M  V30 2081 H 196.057 1.4413 2.57508 0
M  V30 2082 H 196.138 2.33304 1.04895 0
M  V30 2083 H 195.782 4.51316 2.32973 0
M  V30 2084 H 195.712 3.59054 3.85211 0
M  V30 2085 H 198.203 2.85714 2.47338 0
M  V30 2086 H 198.516 6.2329 4.56869 0
M  V30 2087 H 196.861 5.60131 4.11435 0
M  V30 2088 H 200.052 3.59367 2.99955 0
M  V30 2089 H 200.225 5.13291 3.9552 0
M  V30 2090 N 193.631 -1.12557 1.10312 0
M  V30 2091 C 195.047 -1.36036 0.834649 0
M  V30 2092 C 195.247 -1.93946 -0.546539 0
M  V30 2093 O 194.303 -2.16484 -1.29966 0
M  V30 2094 C 195.616 -2.30312 1.9333 0
M  V30 2095 C 197.164 -2.43906 1.9616 0
M  V30 2096 C 197.639 -3.41496 3.05195 0
M  V30 2097 N 199.13 -3.49053 3.04494 0
M  V30 2098 C 199.865 -4.24471 3.85502 0
M  V30 2099 N 199.361 -5.02966 4.76442 0
M  V30 2100 N 201.154 -4.19864 3.73725 0
M  V30 2101 H 193.305 -0.733246 1.99342 0
M  V30 2102 H 195.568 -0.385234 0.866198 0
M  V30 2103 H 195.274 -1.94933 2.92735 0
M  V30 2104 H 195.148 -3.30421 1.81939 0
M  V30 2105 H 197.535 -2.78567 0.973886 0
M  V30 2106 H 197.616 -1.4369 2.11629 0
M  V30 2107 H 197.26 -3.07565 4.04186 0
M  V30 2108 H 197.19 -4.41539 2.86968 0
M  V30 2109 H 199.681 -2.93053 2.38596 0
M  V30 2110 H 199.994 -5.57846 5.34815 0
M  V30 2111 H 198.339 -5.02167 4.80472 0
M  V30 2112 H 201.53 -3.57623 3.02032 0
M  V30 2113 H 201.703 -4.78386 4.37093 0
M  V30 2114 N 195.109 -0.891671 -1.2995 0
M  V30 2115 C 196.072 -0.36828 -2.26222 0
M  V30 2116 C 197.072 0.493014 -1.53056 0
M  V30 2117 O 198.262 0.299213 -1.71611 0
M  V30 2118 C 195.394 0.47442 -3.37583 0
M  V30 2119 H 196.587 -1.21844 -2.74033 0
M  V30 2120 H 194.14 -0.669107 -1.41254 0
M  V30 2121 H 194.875 1.34489 -2.95099 0
M  V30 2122 H 194.66 -0.142615 -3.91841 0
M  V30 2123 H 196.15 0.83218 -4.09224 0
M  V30 2124 N 196.587 1.43421 -0.653314 0
M  V30 2125 C 197.835 2.01414 -0.166415 0
M  V30 2126 C 198.156 1.51803 1.22397 0
M  V30 2127 O 197.426 0.730693 1.81763 0
M  V30 2128 H 196.006 0.744703 -0.0585319 0
M  V30 2129 H 198.668 1.75629 -0.845003 0
M  V30 2130 H 197.764 3.11734 -0.151111 0
M  V30 2131 N 198.065 0.39524 1.52563 0
M  V30 2132 C 199.313 -0.184678 2.01254 0
M  V30 2133 C 199.634 -1.46822 1.28329 0
M  V30 2134 O 198.904 -1.91666 0.405094 0
M  V30 2135 H 197.484 -0.0712355 0.743596 0
M  V30 2136 H 200.146 0.528293 1.87603 0
M  V30 2137 H 199.242 -0.390681 3.09645 0
M  V30 2138 N 199.544 -1.57102 0.125237 0
M  V30 2139 C 200.96 -1.57915 -0.231322 0
M  V30 2140 C 201.16 -1.13833 -1.66266 0
M  V30 2141 O 200.216 -0.828581 -2.38518 0
M  V30 2142 C 201.529 -3.00699 0.00766489 0
M  V30 2143 C 203.077 -3.12947 -0.0577483 0
M  V30 2144 C 203.552 -4.57742 0.153626 0
M  V30 2145 N 205.043 -4.63092 0.0998073 0
M  V30 2146 C 205.778 -5.72905 0.238174 0
M  V30 2147 N 205.274 -6.91445 0.433057 0
M  V30 2148 N 207.067 -5.6182 0.177308 0
M  V30 2149 H 199.218 -1.84055 1.06007 0
M  V30 2150 H 201.481 -0.850905 0.417929 0
M  V30 2151 H 201.187 -3.3726 0.997431 0
M  V30 2152 H 201.061 -3.70236 -0.721452 0
M  V30 2153 H 203.448 -2.7624 -1.03804 0
M  V30 2154 H 203.529 -2.4594 0.70335 0
M  V30 2155 H 203.173 -4.95149 1.13092 0
M  V30 2156 H 203.103 -5.22848 -0.627534 0
M  V30 2157 H 205.594 -3.77871 -0.047051 0
M  V30 2158 H 205.907 -7.70985 0.529332 0
M  V30 2159 H 204.252 -6.93415 0.469109 0
M  V30 2160 H 207.443 -4.68093 0.0259748 0
M  V30 2161 H 207.616 -6.47357 0.288582 0
M  V30 2162 N 201.022 0.148545 -1.56898 0
M  V30 2163 C 201.952 1.18524 -2.01182 0
M  V30 2164 C 202.933 1.4489 -0.891123 0
M  V30 2165 O 204.118 1.55836 -1.15882 0
M  V30 2166 C 201.248 2.51879 -2.39112 0
M  V30 2167 C 200.202 2.40038 -3.54353 0
M  V30 2168 C 199.528 3.78089 -3.78091 0
M  V30 2169 C 200.828 1.88577 -4.87069 0
M  V30 2170 H 202.522 0.817029 -2.88036 0
M  V30 2171 H 200.068 0.391575 -1.38574 0
M  V30 2172 H 202.021 3.24627 -2.68692 0
M  V30 2173 H 200.745 2.90532 -1.49193 0
M  V30 2174 H 199.404 1.69742 -3.24936 0
M  V30 2175 H 199.052 4.14175 -2.85426 0
M  V30 2176 H 198.752 3.71028 -4.55645 0
M  V30 2177 H 200.276 4.52387 -4.10095 0
M  V30 2178 H 201.69 2.51117 -5.15377 0
M  V30 2179 H 200.087 1.9241 -5.68417 0
M  V30 2180 H 201.157 0.84136 -4.77545 0
M  V30 2181 N 202.5 1.5196 0.417844 0
M  V30 2182 C 203.45 1.7106 1.5074 0
M  V30 2183 C 204.434 0.564487 1.50673 0
M  V30 2184 O 205.626 0.821206 1.56797 0
M  V30 2185 C 202.755 1.85677 2.88754 0
M  V30 2186 C 201.841 3.06133 2.93502 0
M  V30 2187 N 202.232 4.28987 2.67962 0
M  V30 2188 C 200.53 3.05787 3.24669 0
M  V30 2189 C 201.231 5.10395 2.79055 0
M  V30 2190 N 200.207 4.45455 3.11561 0
M  V30 2191 H 204.009 2.63696 1.29775 0
M  V30 2192 H 201.523 1.49873 0.625436 0
M  V30 2193 H 203.52 1.97475 3.67164 0
M  V30 2194 H 202.18 0.942348 3.10725 0
M  V30 2195 H 203.191 4.57607 2.4252 0
M  V30 2196 H 199.868 2.2405 3.52289 0
M  V30 2197 H 201.258 6.18247 2.63097 0
M  V30 2198 N 203.978 -0.674533 1.42435 0
M  V30 2199 C 204.908 -1.80009 1.48724 0
M  V30 2200 C 205.889 -1.6659 0.343793 0
M  V30 2201 O 207.074 -1.86007 0.558137 0
M  V30 2202 C 204.204 -3.18306 1.38919 0
M  V30 2203 C 203.158 -3.46461 2.51294 0
M  V30 2204 C 202.484 -4.84335 2.26547 0
M  V30 2205 C 203.784 -3.43328 3.93603 0
M  V30 2206 H 205.478 -1.75004 2.42928 0
M  V30 2207 H 203.024 -0.840533 1.16923 0
M  V30 2208 H 204.977 -3.9678 1.41927 0
M  V30 2209 H 203.701 -3.2399 0.412094 0
M  V30 2210 H 202.36 -2.70348 2.47604 0
M  V30 2211 H 202.008 -4.86669 1.2713 0
M  V30 2212 H 201.708 -5.04136 3.01861 0
M  V30 2213 H 203.232 -5.65094 2.31304 0
M  V30 2214 H 204.646 -4.11772 3.98894 0
M  V30 2215 H 203.043 -3.74664 4.68771 0
M  V30 2216 H 204.113 -2.41897 4.20255 0
M  V30 2217 N 205.456 -1.28612 -0.910864 0
M  V30 2218 C 206.404 -1.1265 -2.03501 0
M  V30 2219 C 207.398 -0.0450054 -1.6934 0
M  V30 2220 O 208.604 -0.203988 -1.7884 0
M  V30 2221 H 204.979 -0.347639 -0.666822 0
M  V30 2222 H 206.95 -2.07849 -2.14106 0
M  V30 2223 C 205.699 -0.808143 -3.38178 0
M  V30 2224 H 205.022 -1.63231 -3.6496 0
M  V30 2225 H 206.462 -0.736426 -4.17556 0
M  V30 2226 C 204.921 0.488226 -3.33344 0
M  V30 2227 O 205.451 1.51766 -3.71927 0
M  V30 2228 N 203.657 0.490009 -2.86439 0
M  V30 2229 H 203.204 -0.348161 -2.55236 0
M  V30 2230 H 203.162 1.35741 -2.83587 0
M  V30 2231 N 206.934 1.1197 -1.10907 0
M  V30 2232 C 207.844 2.21433 -0.774896 0
M  V30 2233 C 208.86 1.72478 0.229657 0
M  V30 2234 O 210.036 2.01288 0.0672008 0
M  V30 2235 C 207.101 3.4602 -0.216986 0
M  V30 2236 C 206.162 4.09791 -1.27944 0
M  V30 2237 C 205.395 5.28431 -0.748055 0
M  V30 2238 O 205.618 5.68823 0.423833 0
M  V30 2239 O 204.552 5.82644 -1.51027 0
M  V30 2240 H 208.378 2.5242 -1.68873 0
M  V30 2241 H 205.963 1.20399 -0.884555 0
M  V30 2242 H 207.845 4.21304 0.090059 0
M  V30 2243 H 206.52 3.16698 0.669633 0
M  V30 2244 H 205.427 3.36265 -1.63941 0
M  V30 2245 H 206.76 4.4328 -2.13925 0
M  V30 2246 N 208.412 0.89855 1.29475 0
M  V30 2247 C 209.375 0.380272 2.26023 0
M  V30 2248 C 210.375 -0.484891 1.53315 0
M  V30 2249 O 211.565 -0.290108 1.71767 0
M  V30 2250 C 208.697 -0.45651 3.3783 0
M  V30 2251 H 209.89 1.23295 2.73383 0
M  V30 2252 H 207.443 0.676589 1.40897 0
M  V30 2253 H 208.178 -1.32922 2.95808 0
M  V30 2254 H 207.963 0.163393 3.91759 0
M  V30 2255 H 209.453 -0.810466 4.0966 0
M  V30 2256 N 209.89 -1.43072 0.660911 0
M  V30 2257 C 211.136 -2.0202 0.177708 0
M  V30 2258 C 211.469 -1.52066 -1.20787 0
M  V30 2259 O 210.744 -0.716987 -1.80802 0
M  V30 2260 C 211.027 -3.59561 0.197019 0
M  V30 2261 C 210.88 -4.19727 1.61706 0
M  V30 2262 C 212.199 -4.37664 -0.462396 0
M  V30 2263 H 209.318 -0.734034 0.0660494 0
M  V30 2264 H 211.96 -1.70272 0.843058 0
M  V30 2265 H 210.11 -3.86739 -0.369527 0
M  V30 2266 H 211.782 -4.03553 2.23479 0
M  V30 2267 H 210.025 -3.76084 2.16201 0
M  V30 2268 H 210.696 -5.28834 1.58237 0
M  V30 2269 H 213.172 -4.16095 0.0197215 0
M  V30 2270 H 212.048 -5.47305 -0.418188 0
M  V30 2271 H 212.309 -4.14493 -1.53778 0
M  V30 2272 N 211.368 -0.403325 -1.52352 0
M  V30 2273 C 212.593 0.176499 -2.06648 0
M  V30 2274 C 213.018 1.38577 -1.27193 0
M  V30 2275 O 212.376 1.7879 -0.300637 0
M  V30 2276 C 212.424 0.511061 -3.5696 0
M  V30 2277 O 211.528 1.60294 -3.79973 0
M  V30 2278 H 210.869 0.0167337 -0.663789 0
M  V30 2279 H 213.399 -0.574848 -1.96359 0
M  V30 2280 H 213.409 0.771362 -4.00642 0
M  V30 2281 H 212.084 -0.37296 -4.14224 0
M  V30 2282 H 210.661 1.33526 -3.48174 0
M  V30 2283 N 212.846 1.57033 -0.133567 0
M  V30 2284 C 214.093 1.95686 0.520877 0
M  V30 2285 C 214.421 1.0177 1.6575 0
M  V30 2286 O 213.676 0.0443195 1.9565 0
M  V30 2287 C 213.975 3.40674 1.08057 0
M  V30 2288 C 213.641 4.50855 0.0637899 0
M  V30 2289 C 212.303 4.80716 -0.215757 0
M  V30 2290 C 214.655 5.17398 -0.62835 0
M  V30 2291 C 211.983 5.74433 -1.19348 0
M  V30 2292 C 214.335 6.12167 -1.5948 0
M  V30 2293 C 212.999 6.40414 -1.88218 0
M  V30 2294 H 212.269 0.716067 0.190602 0
M  V30 2295 H 214.916 1.9026 -0.217556 0
M  V30 2296 H 213.221 3.42865 1.89606 0
M  V30 2297 H 214.918 3.67902 1.59529 0
M  V30 2298 H 211.508 4.27605 0.291855 0
M  V30 2299 H 215.692 4.94472 -0.425562 0
M  V30 2300 H 210.948 5.94616 -1.42272 0
M  V30 2301 H 215.122 6.6281 -2.13671 0
M  V30 2302 H 212.749 7.12838 -2.64133 0
M  V30 2303 N 214.325 -0.140222 1.56975 0
M  V30 2304 C 215.255 -1.17456 2.01808 0
M  V30 2305 C 216.236 -1.44415 0.898794 0
M  V30 2306 O 217.421 -1.5522 1.16707 0
M  V30 2307 C 214.551 -2.50607 2.40444 0
M  V30 2308 C 213.505 -2.38155 3.55621 0
M  V30 2309 C 212.831 -3.76078 3.80091 0
M  V30 2310 C 214.131 -1.85991 4.88062 0
M  V30 2311 H 215.825 -0.801743 2.88466 0
M  V30 2312 H 213.371 -0.38422 1.38779 0
M  V30 2313 H 215.324 -3.23197 2.7041 0
M  V30 2314 H 214.048 -2.89737 1.50732 0
M  V30 2315 H 212.707 -1.68016 3.25832 0
M  V30 2316 H 212.355 -4.12656 2.87618 0
M  V30 2317 H 212.055 -3.68606 4.57606 0
M  V30 2318 H 213.579 -4.50206 4.12488 0
M  V30 2319 H 214.993 -2.4838 5.16701 0
M  V30 2320 H 213.39 -1.89393 5.6943 0
M  V30 2321 H 214.46 -0.816023 4.77984 0
M  V30 2322 N 215.803 -1.52179 -0.40978 0
M  V30 2323 C 217.028 -1.70347 -1.18308 0
M  V30 2324 C 217.453 -0.411887 -1.83535 0
M  V30 2325 O 216.811 0.630587 -1.6998 0
M  V30 2326 C 216.859 -2.83977 -2.22238 0
M  V30 2327 O 215.963 -2.495 -3.28365 0
M  V30 2328 H 215.304 -0.567103 -0.345384 0
M  V30 2329 H 217.834 -1.98879 -0.480445 0
M  V30 2330 H 217.844 -3.0887 -2.66577 0
M  V30 2331 H 216.519 -3.77685 -1.74146 0
M  V30 2332 H 215.096 -2.35277 -2.89308 0
M  V30 2333 N 217.281 0.66697 -1.42791 0
M  V30 2334 C 218.211 1.79218 -1.49677 0
M  V30 2335 C 219.192 1.66405 -0.352623 0
M  V30 2336 O 220.377 1.85708 -0.567993 0
M  V30 2337 C 217.507 3.17565 -1.40605 0
M  V30 2338 C 216.461 3.45124 -2.53127 0
M  V30 2339 C 215.787 4.83127 -2.29112 0
M  V30 2340 C 217.087 3.41236 -3.95418 0
M  V30 2341 H 218.781 1.73713 -2.43853 0
M  V30 2342 H 216.327 0.83432 -1.17367 0
M  V30 2343 H 218.28 3.96022 -1.44029 0
M  V30 2344 H 217.004 3.23767 -0.429271 0
M  V30 2345 H 215.663 2.69031 -2.49034 0
M  V30 2346 H 215.311 4.85988 -1.29709 0
M  V30 2347 H 215.011 5.02528 -3.04531 0
M  V30 2348 H 216.535 5.63859 -2.34297 0
M  V30 2349 H 217.949 4.09651 -4.01073 0
M  V30 2350 H 216.346 3.72173 -4.70752 0
M  V30 2351 H 217.416 2.39665 -4.21532 0
M  V30 2352 N 218.759 1.29093 0.90403 0
M  V30 2353 C 220.17 1.15186 1.46932 0
M  V30 2354 C 220.521 -0.254587 1.94541 0
M  V30 2355 O 219.646 -1.14972 1.83332 0
M  V30 2356 C 220.241 2.08492 2.67051 0
M  V30 2357 C 218.8 1.98621 3.19729 0
M  V30 2358 C 217.947 1.9967 1.92425 0
M  V30 2359 H 220.898 1.41641 0.715789 0
M  V30 2360 H 220.919 1.65461 3.42641 0
M  V30 2361 H 220.431 3.10847 2.3237 0
M  V30 2362 H 218.532 0.993389 3.59114 0
M  V30 2363 H 218.645 2.86068 3.8432 0
M  V30 2364 H 217.009 1.44208 2.09943 0
M  V30 2365 H 217.792 3.03721 1.60026 0
M  V30 2366 N 220.237 -1.11381 1.11499 0
M  V30 2367 C 221.147 -2.21019 0.786628 0
M  V30 2368 C 222.163 -1.72597 -0.220507 0
M  V30 2369 O 223.339 -2.01321 -0.0565251 0
M  V30 2370 C 220.404 -3.459 0.235333 0
M  V30 2371 C 219.465 -4.09107 1.30115 0
M  V30 2372 C 218.698 -5.28027 0.776068 0
M  V30 2373 O 218.921 -5.6904 -0.393661 0
M  V30 2374 O 217.855 -5.81835 1.54114 0
M  V30 2375 H 221.681 -2.51521 1.70209 0
M  V30 2376 H 219.266 -1.19928 0.890928 0
M  V30 2377 H 221.148 -4.21346 -0.067715 0
M  V30 2378 H 219.823 -3.17049 -0.652828 0
M  V30 2379 H 218.73 -3.35391 1.65722 0
M  V30 2380 H 220.063 -4.42139 2.16273 0
M  V30 2381 N 221.715 -0.905404 -1.28997 0
M  V30 2382 C 222.645 -0.404212 -2.29975 0
M  V30 2383 C 223.626 0.523784 -1.61835 0
M  V30 2384 O 224.811 0.433298 -1.89304 0
M  V30 2385 C 221.941 0.364042 -3.45387 0
M  V30 2386 C 220.895 -0.474048 -4.25367 0
M  V30 2387 C 220.221 0.422045 -5.33032 0
M  V30 2388 C 221.521 -1.72696 -4.92923 0
M  V30 2389 H 223.215 -1.24807 -2.72146 0
M  V30 2390 H 220.761 -0.601585 -1.30832 0
M  V30 2391 H 222.714 0.725447 -4.15109 0
M  V30 2392 H 221.438 1.24174 -3.02074 0
M  V30 2393 H 220.097 -0.81786 -3.57361 0
M  V30 2394 H 219.745 1.29804 -4.85963 0
M  V30 2395 H 219.445 -0.135057 -5.87445 0
M  V30 2396 H 220.969 0.779517 -6.05604 0
M  V30 2397 H 222.383 -1.43495 -5.55051 0
M  V30 2398 H 220.78 -2.22582 -5.57295 0
M  V30 2399 H 221.85 -2.45964 -4.17887 0
M  V30 2400 N 223.193 1.4272 -0.668489 0
M  V30 2401 C 224.439 2.01923 -0.188419 0
M  V30 2402 C 224.772 1.52704 1.19979 0
M  V30 2403 O 224.047 0.726566 1.8042 0
M  V30 2404 C 224.33 3.59451 -0.216085 0
M  V30 2405 C 224.183 4.18864 -1.6393 0
M  V30 2406 C 225.502 4.37903 0.439179 0
M  V30 2407 H 222.621 0.733674 -0.0699412 0
M  V30 2408 H 225.263 1.69822 -0.852076 0
M  V30 2409 H 223.413 3.86929 0.349012 0
M  V30 2410 H 225.085 4.02362 -2.25616 0
M  V30 2411 H 223.328 3.74933 -2.18193 0
M  V30 2412 H 223.999 5.27987 -1.61039 0
M  V30 2413 H 226.475 4.16079 -0.0417878 0
M  V30 2414 H 225.351 5.47519 0.389157 0
M  V30 2415 H 225.612 4.15303 1.51577 0
M  V30 2416 N 224.671 0.411399 1.52136 0
M  V30 2417 C 225.619 -0.427633 2.28635 0
M  V30 2418 C 226.613 -1.04383 1.33419 0
M  V30 2419 O 227.819 -0.981772 1.50868 0
M  V30 2420 H 224.194 -0.156689 0.735495 0
M  V30 2421 H 226.165 0.238761 2.97443 0
M  V30 2422 C 224.914 -1.53082 3.12188 0
M  V30 2423 H 224.237 -1.06601 3.85326 0
M  V30 2424 H 225.677 -2.09167 3.68816 0
M  V30 2425 C 224.136 -2.49946 2.25895 0
M  V30 2426 O 224.666 -3.53884 1.90076 0
M  V30 2427 N 222.872 -2.2021 1.8962 0
M  V30 2428 H 222.419 -1.35719 2.18948 0
M  V30 2429 H 222.377 -2.85266 1.32176 0
M  V30 2430 N 226.149 -1.5696 0.141893 0
M  V30 2431 C 227.379 -2.00031 -0.516828 0
M  V30 2432 C 227.787 -1.02091 -1.59293 0
M  V30 2433 O 227.13 -0.00909657 -1.83698 0
M  V30 2434 C 227.192 -3.39534 -1.1814 0
M  V30 2435 C 226.856 -4.56313 -0.250513 0
M  V30 2436 C 227.853 -5.17295 0.519839 0
M  V30 2437 C 225.538 -5.02061 -0.154907 0
M  V30 2438 C 227.532 -6.2243 1.3733 0
M  V30 2439 C 225.219 -6.07053 0.702161 0
M  V30 2440 C 226.217 -6.67106 1.46487 0
M  V30 2441 O 225.905 -7.70066 2.30767 0
M  V30 2442 H 225.637 -0.661451 -0.139493 0
M  V30 2443 H 228.191 -2.04086 0.231926 0
M  V30 2444 H 226.421 -3.32302 -1.97769 0
M  V30 2445 H 228.11 -3.66745 -1.73933 0
M  V30 2446 H 228.876 -4.82852 0.45598 0
M  V30 2447 H 224.755 -4.5505 -0.7383 0
M  V30 2448 H 228.299 -6.69233 1.96909 0
M  V30 2449 H 224.196 -6.40923 0.76733 0
M  V30 2450 H 224.964 -7.87264 2.23959 0
M  V30 2451 N 227.627 0.131896 -1.57047 0
M  V30 2452 C 228.577 1.1679 -1.95816 0
M  V30 2453 C 229.561 1.37756 -0.831393 0
M  V30 2454 O 230.753 1.39065 -1.09499 0
M  V30 2455 C 227.882 2.49778 -2.35512 0
M  V30 2456 C 226.968 2.32342 -3.54793 0
M  V30 2457 N 227.359 1.8469 -4.70875 0
M  V30 2458 C 225.657 2.63043 -3.60173 0
M  V30 2459 C 226.358 1.80656 -5.52936 0
M  V30 2460 N 225.334 2.24528 -4.95064 0
M  V30 2461 H 229.136 0.791818 -2.83033 0
M  V30 2462 H 226.65 0.339791 -1.58805 0
M  V30 2463 H 228.647 3.24692 -2.61498 0
M  V30 2464 H 227.307 2.88156 -1.49654 0
M  V30 2465 H 228.318 1.54429 -4.9434 0
M  V30 2466 H 224.995 3.05193 -2.84892 0
M  V30 2467 H 226.385 1.45178 -6.56028 0
M  V30 2468 N 229.106 1.52395 0.401703 0
M  V30 2469 C 230.522 1.41363 0.740864 0
M  V30 2470 C 230.722 0.523982 1.94568 0
M  V30 2471 O 229.778 -0.00741204 2.52499 0
M  V30 2472 C 231.091 2.84011 0.987847 0
M  V30 2473 C 232.639 2.93404 1.09011 0
M  V30 2474 C 233.114 4.37036 1.3698 0
M  V30 2475 N 234.605 4.40304 1.43829 0
M  V30 2476 C 235.34 5.48508 1.67112 0
M  V30 2477 N 234.836 6.66819 1.87949 0
M  V30 2478 N 236.629 5.36034 1.69187 0
M  V30 2479 H 228.78 2.08765 -0.391262 0
M  V30 2480 H 231.043 0.941265 -0.112798 0
M  V30 2481 H 230.749 3.51265 0.174835 0
M  V30 2482 H 230.623 3.25502 1.906 0
M  V30 2483 H 233.01 2.26325 1.8937 0
M  V30 2484 H 233.091 2.55359 0.15015 0
M  V30 2485 H 232.735 5.04676 0.571353 0
M  V30 2486 H 232.665 4.72623 2.3224 0
M  V30 2487 H 235.156 3.55024 1.29486 0
M  V30 2488 H 235.469 7.45063 2.05185 0
M  V30 2489 H 233.814 6.6987 1.85199 0
M  V30 2490 H 237.005 4.42579 1.52451 0
M  V30 2491 H 237.178 6.20434 1.86993 0
M  V30 2492 N 230.584 -0.659388 1.43143 0
M  V30 2493 C 231.547 -1.75432 1.47501 0
M  V30 2494 C 232.547 -1.56707 0.360512 0
M  V30 2495 O 233.737 -1.62717 0.622002 0
M  V30 2496 C 230.869 -3.14239 1.32162 0
M  V30 2497 H 232.062 -1.7295 2.45006 0
M  V30 2498 H 229.615 -0.870469 1.29817 0
M  V30 2499 H 230.35 -3.22336 0.356401 0
M  V30 2500 H 230.135 -3.29235 2.12948 0
M  V30 2501 H 231.625 -3.94094 1.3813 0
M  V30 2502 N 232.062 -1.29571 -0.897171 0
M  V30 2503 C 232.994 -1.10724 -2.00681 0
M  V30 2504 C 234.007 -0.0540026 -1.6271 0
M  V30 2505 O 235.196 -0.298783 -1.75982 0
M  V30 2506 C 232.296 -0.663912 -3.32333 0
M  V30 2507 C 231.469 -1.79622 -3.98816 0
M  V30 2508 C 230.528 -1.34349 -5.0876 0
M  V30 2509 O 229.554 -2.04864 -5.31055 0
M  V30 2510 N 230.756 -0.215764 -5.80099 0
M  V30 2511 H 233.521 -2.06291 -2.17403 0
M  V30 2512 H 231.082 -1.21544 -1.06951 0
M  V30 2513 H 233.074 -0.344295 -4.03233 0
M  V30 2514 H 231.644 0.199375 -3.11964 0
M  V30 2515 H 230.864 -2.28459 -3.21248 0
M  V30 2516 H 232.152 -2.55535 -4.39976 0
M  V30 2517 H 231.55 0.372091 -5.64475 0
M  V30 2518 H 230.107 0.0444707 -6.51785 0
M  V30 2519 N 233.54 1.10788 -1.12088 0
M  V30 2520 C 234.765 1.87002 -0.896949 0
M  V30 2521 C 235.19 1.79933 0.548261 0
M  V30 2522 O 234.548 1.16662 1.38779 0
M  V30 2523 C 234.596 3.3349 -1.37174 0
M  V30 2524 O 233.7 4.08745 -0.547831 0
M  V30 2525 H 233.041 0.580397 -0.322545 0
M  V30 2526 H 235.571 1.39996 -1.49206 0
M  V30 2527 H 235.581 3.84339 -1.36922 0
M  V30 2528 H 234.256 3.37951 -2.42408 0
M  V30 2529 H 232.833 3.6776 -0.617034 0
M  V30 2530 N 235.018 0.912232 1.28515 0
M  V30 2531 C 235.948 0.416403 2.29757 0
M  V30 2532 C 236.929 -0.515194 1.6211 0
M  V30 2533 O 238.114 -0.423253 1.89532 0
M  V30 2534 C 235.244 -0.34572 3.45575 0
M  V30 2535 C 234.198 0.496599 4.25109 0
M  V30 2536 C 233.524 -0.393771 5.33248 0
M  V30 2537 C 234.824 1.75307 4.92001 0
M  V30 2538 H 236.518 1.26249 2.7148 0
M  V30 2539 H 234.064 0.608515 1.30511 0
M  V30 2540 H 236.017 -0.703422 4.15488 0
M  V30 2541 H 234.741 -1.2257 3.02728 0
M  V30 2542 H 233.4 0.8368 3.56922 0
M  V30 2543 H 233.048 -1.27225 4.86644 0
M  V30 2544 H 232.748 0.166209 5.87365 0
M  V30 2545 H 234.272 -0.747389 6.06009 0
M  V30 2546 H 235.686 1.46437 5.54283 0
M  V30 2547 H 234.083 2.25534 5.56106 0
M  V30 2548 H 235.153 2.48176 4.16577 0
M  V30 2549 N 236.496 -1.42363 0.676048 0
M  V30 2550 C 237.721 -2.06377 0.205705 0
M  V30 2551 C 238.146 -1.50463 -1.12883 0
M  V30 2552 O 237.504 -0.623619 -1.70237 0
M  V30 2553 C 237.552 -3.60277 0.152655 0
M  V30 2554 O 236.656 -4.02935 -0.87845 0
M  V30 2555 H 235.997 -0.655588 0.105359 0
M  V30 2556 H 238.527 -1.82475 0.925412 0
M  V30 2557 H 238.537 -4.07993 -0.0230675 0
M  V30 2558 H 237.212 -4.00346 1.12675 0
M  V30 2559 H 235.789 -3.66764 -0.673668 0
M  V30 2560 N 237.974 -0.419461 -1.51915 0
M  V30 2561 C 238.924 0.418496 -2.24126 0
M  V30 2562 C 239.908 1.00495 -1.25656 0
M  V30 2563 O 241.1 0.926058 -1.50842 0
M  V30 2564 C 238.229 1.52899 -3.07371 0
M  V30 2565 C 237.315 0.952797 -4.13258 0
M  V30 2566 N 237.706 0.104175 -5.05693 0
M  V30 2567 C 236.004 1.22224 -4.28926 0
M  V30 2568 C 236.705 -0.21752 -5.81293 0
M  V30 2569 N 235.681 0.394293 -5.42168 0
M  V30 2570 H 239.483 -0.236048 -2.92951 0
M  V30 2571 H 236.997 -0.230481 -1.60756 0
M  V30 2572 H 238.994 2.14199 -3.57665 0
M  V30 2573 H 237.654 2.18605 -2.40088 0
M  V30 2574 H 238.665 -0.260924 -5.17242 0
M  V30 2575 H 235.342 1.87812 -3.72871 0
M  V30 2576 H 236.732 -0.906992 -6.6575 0
M  V30 2577 N 239.452 1.56882 -0.150215 0
M  V30 2578 C 240.7 1.9584 0.499105 0
M  V30 2579 C 241.021 1.03623 1.65188 0
M  V30 2580 O 240.291 0.0984084 1.95653 0
M  V30 2581 H 238.871 0.723119 0.187373 0
M  V30 2582 H 241.533 1.9358 -0.226466 0
M  V30 2583 H 240.629 2.99638 0.873122 0
M  V30 2584 N 240.93 -0.123565 1.57115 0
M  V30 2585 C 241.86 -1.15309 2.03042 0
M  V30 2586 C 242.841 -1.43454 0.914061 0
M  V30 2587 O 244.026 -1.53973 1.18347 0
M  V30 2588 C 241.156 -2.48043 2.43089 0
M  V30 2589 C 240.11 -2.3437 3.58127 0
M  V30 2590 C 239.436 -3.72026 3.84059 0
M  V30 2591 C 240.736 -1.80804 4.90007 0
M  V30 2592 H 242.43 -0.771102 2.893 0
M  V30 2593 H 239.976 -0.369479 1.39179 0
M  V30 2594 H 241.929 -3.20311 2.73823 0
M  V30 2595 H 240.653 -2.88122 1.53796 0
M  V30 2596 H 239.312 -1.64551 3.27595 0
M  V30 2597 H 238.96 -4.09582 2.91979 0
M  V30 2598 H 238.66 -3.63732 4.6149 0
M  V30 2599 H 240.184 -4.45806 4.1724 0
M  V30 2600 H 241.598 -2.42886 5.19307 0
M  V30 2601 H 239.995 -1.83343 5.71407 0
M  V30 2602 H 241.065 -0.76528 4.78823 0
M  V30 2603 N 242.408 -1.52605 -0.393616 0
M  V30 2604 C 243.824 -1.41753 -0.733357 0
M  V30 2605 C 244.024 -0.534293 -1.94287 0
M  V30 2606 O 243.08 -0.0059787 -2.52499 0
M  V30 2607 C 244.393 -2.84531 -0.972772 0
M  V30 2608 C 245.941 -2.93978 -1.07453 0
M  V30 2609 C 246.416 -4.37756 -1.3466 0
M  V30 2610 N 247.907 -4.4106 -1.41492 0
M  V30 2611 C 248.642 -5.49387 -1.642 0
M  V30 2612 N 248.138 -6.67806 -1.8441 0
M  V30 2613 N 249.931 -5.36923 -1.66342 0
M  V30 2614 H 242.082 -2.08555 0.402328 0
M  V30 2615 H 244.345 -0.940654 0.117789 0
M  V30 2616 H 244.051 -3.51353 -0.156204 0
M  V30 2617 H 243.925 -3.26508 -1.88871 0
M  V30 2618 H 246.312 -2.27326 -1.88167 0
M  V30 2619 H 246.393 -2.55435 -0.136605 0
M  V30 2620 H 246.037 -5.04972 -0.544581 0
M  V30 2621 H 245.967 -4.73848 -2.2973 0
M  V30 2622 H 248.458 -3.55705 -1.27601 0
M  V30 2623 H 248.771 -7.46141 -2.01231 0
M  V30 2624 H 247.116 -6.70843 -1.81644 0
M  V30 2625 H 250.307 -4.43381 -1.50102 0
M  V30 2626 H 250.48 -6.21416 -1.837 0
M  V30 2627 N 243.887 0.651787 -1.4349 0
M  V30 2628 C 244.817 1.77621 -1.51569 0
M  V30 2629 C 245.798 1.66022 -0.370253 0
M  V30 2630 O 246.983 1.85095 -0.587658 0
M  V30 2631 C 244.113 3.16056 -1.43966 0
M  V30 2632 C 243.067 3.4242 -2.56774 0
M  V30 2633 C 242.393 4.8067 -2.34223 0
M  V30 2634 C 243.693 3.37023 -3.99015 0
M  V30 2635 H 245.387 1.71117 -2.45681 0
M  V30 2636 H 242.933 0.821825 -1.18246 0
M  V30 2637 H 244.886 3.94472 -1.48221 0
M  V30 2638 H 243.61 3.23293 -0.463586 0
M  V30 2639 H 242.269 2.66375 -2.51873 0
M  V30 2640 H 241.917 4.84585 -1.34856 0
M  V30 2641 H 241.617 4.9927 -3.09844 0
M  V30 2642 H 243.141 5.61342 -2.40265 0
M  V30 2643 H 244.555 4.05374 -4.05395 0
M  V30 2644 H 242.952 3.67159 -4.74673 0
M  V30 2645 H 244.022 2.3518 -4.2405 0
M  V30 2646 N 245.365 1.30045 0.890287 0
M  V30 2647 C 246.328 1.15963 1.977 0
M  V30 2648 C 247.328 0.0923777 1.60534 0
M  V30 2649 O 248.518 0.340071 1.70848 0
M  V30 2650 C 245.65 0.775451 3.31963 0
M  V30 2651 H 246.843 2.12502 2.11619 0
M  V30 2652 H 244.396 1.13366 1.07601 0
M  V30 2653 H 245.131 -0.189671 3.23745 0
M  V30 2654 H 244.916 1.54668 3.60306 0
M  V30 2655 H 246.406 0.700251 4.11687 0
M  V30 2656 N 246.843 -1.10192 1.12674 0
M  V30 2657 C 247.806 -2.14786 0.799979 0
M  V30 2658 C 248.806 -1.59711 -0.18685 0
M  V30 2659 O 249.996 -1.74156 0.0392558 0
M  V30 2660 C 247.128 -3.40374 0.189228 0
M  V30 2661 H 248.321 -2.45203 1.72671 0
M  V30 2662 H 245.874 -1.25597 0.930326 0
M  V30 2663 H 246.609 -3.15577 -0.747107 0
M  V30 2664 H 246.394 -3.81637 0.899766 0
M  V30 2665 H 247.884 -4.17594 -0.0228143 0
M  V30 2666 N 248.321 -0.919034 -1.28029 0
M  V30 2667 C 249.732 -0.600735 -1.76771 0
M  V30 2668 C 250.083 0.884024 -1.75156 0
M  V30 2669 O 249.208 1.69163 -1.34956 0
M  V30 2670 C 249.803 -1.08372 -3.21 0
M  V30 2671 C 248.362 -0.816248 -3.67443 0
M  V30 2672 C 247.509 -1.24742 -2.47658 0
M  V30 2673 H 250.46 -1.09974 -1.14418 0
M  V30 2674 H 250.481 -0.427512 -3.78091 0
M  V30 2675 H 249.993 -2.16437 -3.22144 0
M  V30 2676 H 248.094 0.250968 -3.71754 0
M  V30 2677 H 248.207 -1.4277 -4.57333 0
M  V30 2678 H 246.571 -0.666083 -2.45836 0
M  V30 2679 H 247.354 -2.33653 -2.51518 0
M  V30 2680 N 249.799 1.42003 -0.683588 0
M  V30 2681 C 251.039 2.03282 -0.213513 0
M  V30 2682 C 251.403 1.52924 1.16097 0
M  V30 2683 O 252.604 2.06048 1.7262 0
M  V30 2684 C 250.875 3.56483 -0.255856 0
M  V30 2685 S 252.434 4.3857 0.14193 0
M  V30 2686 H 249.252 0.705659 -0.0869853 0
M  V30 2687 H 251.854 1.73619 -0.8987 0
M  V30 2688 H 250.558 3.90631 -1.25841 0
M  V30 2689 H 250.089 3.90831 0.448875 0
M  V30 2690 H 252.104 4.76828 1.37295 0
M  V30 2691 N 251.277 0.427512 1.51691 0
M  V30 2692 C 252.693 0.0792977 1.59403 0
M  V30 2693 C 252.893 -1.41035 1.43914 0
M  V30 2694 O 251.949 -2.17922 1.27539 0
M  V30 2695 C 253.262 0.590636 2.94842 0
M  V30 2696 C 254.81 0.550215 3.08126 0
M  V30 2697 C 255.285 1.03836 4.46074 0
M  V30 2698 N 256.776 0.995943 4.52366 0
M  V30 2699 C 257.511 1.34463 5.57411 0
M  V30 2700 N 257.007 1.76569 6.69922 0
M  V30 2701 N 258.8 1.26343 5.47717 0
M  V30 2702 H 250.951 1.39687 1.60004 0
M  V30 2703 H 253.214 0.575003 0.753708 0
M  V30 2704 H 252.92 1.63251 3.11516 0
M  V30 2705 H 252.794 0.0102061 3.77199 0
M  V30 2706 H 255.181 -0.482654 2.91126 0
M  V30 2707 H 255.262 1.16693 2.27632 0
M  V30 2708 H 254.906 2.06965 4.63819 0
M  V30 2709 H 254.836 0.398286 5.25092 0
M  V30 2710 H 257.327 0.68661 3.7161 0
M  V30 2711 H 257.64 2.01438 7.46085 0
M  V30 2712 H 255.985 1.80488 6.71155 0
M  V30 2713 H 259.176 0.933209 4.58703 0
M  V30 2714 H 259.349 1.53846 6.29472 0
M  V30 2715 N 252.755 -1.56801 0.158532 0
M  V30 2716 C 253.702 -2.17337 -0.776729 0
M  V30 2717 C 254.672 -1.1096 -1.23601 0
M  V30 2718 O 255.857 -1.39054 -1.30647 0
M  V30 2719 C 252.997 -2.80822 -2.00582 0
M  V30 2720 C 252.11 -4.01624 -1.59129 0
M  V30 2721 C 251.245 -4.53072 -2.77306 0
M  V30 2722 C 250.284 -5.66314 -2.32282 0
M  V30 2723 N 249.421 -6.12329 -3.43508 0
M  V30 2724 H 254.261 -2.96918 -0.253701 0
M  V30 2725 H 251.798 -1.46661 -0.113504 0
M  V30 2726 H 253.756 -3.15779 -2.72652 0
M  V30 2727 H 252.386 -2.03866 -2.50277 0
M  V30 2728 H 251.438 -3.72571 -0.767806 0
M  V30 2729 H 252.75 -4.83633 -1.2207 0
M  V30 2730 H 251.904 -4.90145 -3.57551 0
M  V30 2731 H 250.643 -3.70095 -3.17617 0
M  V30 2732 H 249.648 -5.28806 -1.5048 0
M  V30 2733 H 250.873 -6.51085 -1.93043 0
M  V30 2734 H 248.819 -5.32284 -3.83418 0
M  V30 2735 H 248.736 -6.89293 -3.105 0
M  V30 2736 H 250.004 -6.5405 -4.24075 0
M  V30 2737 N 254.233 0.115231 -1.57178 0
M  V30 2738 C 255.183 1.14707 -1.97044 0
M  V30 2739 C 256.167 1.36866 -0.845957 0
M  V30 2740 O 257.359 1.37895 -1.10968 0
M  V30 2741 C 254.488 2.47266 -2.38148 0
M  V30 2742 C 253.574 2.28566 -3.57237 0
M  V30 2743 N 253.965 1.79685 -4.72807 0
M  V30 2744 C 252.263 2.59208 -3.62943 0
M  V30 2745 C 252.964 1.74781 -5.54821 0
M  V30 2746 N 251.94 2.19264 -4.97417 0
M  V30 2747 H 255.742 0.761754 -2.83857 0
M  V30 2748 H 253.256 0.322928 -1.59157 0
M  V30 2749 H 255.253 3.219 -2.64927 0
M  V30 2750 H 253.913 2.86552 -1.52702 0
M  V30 2751 H 254.924 1.49177 -4.9595 0
M  V30 2752 H 251.601 3.02154 -2.88113 0
M  V30 2753 H 252.991 1.38212 -6.57531 0
M  V30 2754 N 255.711 1.52812 0.385517 0
M  V30 2755 C 256.621 1.80766 1.49535 0
M  V30 2756 C 257.637 0.694651 1.59532 0
M  V30 2757 O 258.813 0.982611 1.75803 0
M  V30 2758 C 255.878 1.97381 2.85029 0
M  V30 2759 C 254.939 3.21295 2.84724 0
M  V30 2760 C 254.172 3.37108 4.13756 0
M  V30 2761 O 254.395 2.5765 5.08893 0
M  V30 2762 O 253.329 4.30378 4.20783 0
M  V30 2763 H 257.155 2.75015 1.28842 0
M  V30 2764 H 254.74 1.37946 0.573697 0
M  V30 2765 H 256.622 2.09996 3.65349 0
M  V30 2766 H 255.297 1.06322 3.05741 0
M  V30 2767 H 254.204 3.1412 2.03174 0
M  V30 2768 H 255.537 4.12212 2.68965 0
M  V30 2769 N 257.189 -0.644168 1.43834 0
M  V30 2770 C 258.6 -1.22554 1.40845 0
M  V30 2771 C 258.951 -1.9585 0.117115 0
M  V30 2772 O 258.076 -2.01734 -0.783086 0
M  V30 2773 C 258.671 -2.22907 2.55143 0
M  V30 2774 C 257.23 -2.76501 2.5539 0
M  V30 2775 C 256.377 -1.51287 2.32396 0
M  V30 2776 H 259.328 -0.43563 1.52604 0
M  V30 2777 H 259.349 -3.05259 2.2715 0
M  V30 2778 H 258.861 -1.69533 3.49114 0
M  V30 2779 H 256.962 -3.33914 1.65324 0
M  V30 2780 H 257.075 -3.23429 3.53455 0
M  V30 2781 H 255.439 -1.78957 1.81236 0
M  V30 2782 H 256.222 -0.998336 3.28463 0
M  V30 2783 N 258.668 -1.30515 -0.883378 0
M  V30 2784 C 259.578 -1.18959 -2.02203 0
M  V30 2785 C 260.594 -0.109172 -1.73657 0
M  V30 2786 O 261.77 -0.324413 -1.9877 0
M  V30 2787 C 258.835 -0.883871 -3.35244 0
M  V30 2788 C 257.896 -2.04982 -3.77201 0
M  V30 2789 C 257.129 -1.75859 -5.03894 0
M  V30 2790 O 257.352 -0.687276 -5.66244 0
M  V30 2791 O 256.286 -2.61146 -5.42297 0
M  V30 2792 H 260.112 -2.14616 -2.1488 0
M  V30 2793 H 257.697 -1.10124 -1.0096 0
M  V30 2794 H 259.579 -0.728644 -4.15053 0
M  V30 2795 H 258.254 0.0427798 -3.23672 0
M  V30 2796 H 257.161 -2.26038 -2.9809 0
M  V30 2797 H 258.494 -2.95825 -3.93381 0
M  V30 2798 N 260.146 1.09593 -1.13257 0
M  V30 2799 C 261.557 1.63229 -0.906274 0
M  V30 2800 C 261.908 1.8811 0.557578 0
M  V30 2801 O 261.033 1.62953 1.42391 0
M  V30 2802 C 261.628 2.96535 -1.63867 0
M  V30 2803 C 260.187 3.47003 -1.45828 0
M  V30 2804 C 259.334 2.2145 -1.66898 0
M  V30 2805 H 262.285 0.92978 -1.28611 0
M  V30 2806 H 262.306 3.64411 -1.09476 0
M  V30 2807 H 261.818 2.78394 -2.70404 0
M  V30 2808 H 259.919 3.70272 -0.415848 0
M  V30 2809 H 260.032 4.24551 -2.2202 0
M  V30 2810 H 258.396 2.30022 -1.09371 0
M  V30 2811 H 259.179 2.0583 -2.74752 0
M  V30 2812 N 261.624 0.925811 1.2754 0
M  V30 2813 C 262.554 0.440748 2.29303 0
M  V30 2814 C 263.535 -0.497971 1.62648 0
M  V30 2815 O 264.72 -0.403126 1.8997 0
M  V30 2816 C 261.85 -0.309048 3.45922 0
M  V30 2817 C 260.804 0.54166 4.24559 0
M  V30 2818 C 260.13 -0.337191 5.33636 0
M  V30 2819 C 261.43 1.80516 4.90114 0
M  V30 2820 H 263.124 1.29121 2.70126 0
M  V30 2821 H 260.67 0.622323 1.29858 0
M  V30 2822 H 262.623 -0.659315 4.1621 0
M  V30 2823 H 261.347 -1.19352 3.04011 0
M  V30 2824 H 260.006 0.874609 3.56014 0
M  V30 2825 H 259.654 -1.22056 4.87966 0
M  V30 2826 H 259.354 0.228497 5.87156 0
M  V30 2827 H 260.878 -0.683072 6.06767 0
M  V30 2828 H 262.292 1.52307 5.52698 0
M  V30 2829 H 260.689 2.3142 5.53683 0
M  V30 2830 H 261.759 2.52581 4.13921 0
M  V30 2831 N 263.102 -1.41638 0.69111 0
M  V30 2832 C 264.513 -1.84346 0.295517 0
M  V30 2833 C 264.864 -1.57833 -1.16547 0
M  V30 2834 O 263.989 -1.04648 -1.89414 0
M  V30 2835 C 264.584 -3.34636 0.529575 0
M  V30 2836 C 263.143 -3.7593 0.187944 0
M  V30 2837 C 262.29 -2.65082 0.814052 0
M  V30 2838 H 265.241 -1.31253 0.892092 0
M  V30 2839 H 265.262 -3.79903 -0.213148 0
M  V30 2840 H 264.774 -3.53901 1.59297 0
M  V30 2841 H 262.875 -3.62268 -0.871367 0
M  V30 2842 H 262.988 -4.74808 0.63985 0
M  V30 2843 H 261.352 -2.53528 0.244017 0
M  V30 2844 H 262.135 -2.87167 1.88123 0
M  V30 2845 N 264.58 -0.43555 -1.51462 0
M  V30 2846 C 265.53 0.394701 -2.24558 0
M  V30 2847 C 266.514 0.99157 -1.26715 0
M  V30 2848 O 267.706 0.910007 -1.51815 0
M  V30 2849 C 264.835 1.4963 -3.08975 0
M  V30 2850 C 263.921 0.908912 -4.14246 0
M  V30 2851 N 264.312 0.0505335 -5.05775 0
M  V30 2852 C 262.61 1.17668 -4.30198 0
M  V30 2853 C 263.311 -0.279161 -5.8103 0
M  V30 2854 N 262.287 0.336767 -5.42556 0
M  V30 2855 H 266.089 -0.267106 -2.92684 0
M  V30 2856 H 263.603 -0.247518 -1.60503 0
M  V30 2857 H 265.6 2.10394 -3.59917 0
M  V30 2858 H 264.26 2.16046 -2.42393 0
M  V30 2859 H 265.271 -0.31577 -5.16936 0
M  V30 2860 H 261.948 1.83847 -3.74842 0
M  V30 2861 H 263.338 -0.977553 -6.64751 0
M  V30 2862 N 266.058 1.56714 -0.166846 0
M  V30 2863 C 267.304 1.97813 0.473473 0
M  V30 2864 C 267.659 1.05095 1.61161 0
M  V30 2865 O 266.952 0.0897541 1.9139 0
M  V30 2866 C 267.146 3.42889 1.00806 0
M  V30 2867 C 266.975 4.49635 -0.0767392 0
M  V30 2868 C 265.745 5.02566 -0.524894 0
M  V30 2869 C 267.943 5.06793 -0.875504 0
M  V30 2870 N 265.925 5.9294 -1.59047 0
M  V30 2871 C 267.296 5.93565 -1.79111 0
M  V30 2872 C 269.351 4.89306 -0.921083 0
M  V30 2873 C 268.054 6.64721 -2.74843 0
M  V30 2874 C 270.08 5.61179 -1.86633 0
M  V30 2875 C 269.442 6.47675 -2.76942 0
M  V30 2876 H 265.541 0.769093 0.141489 0
M  V30 2877 H 268.125 1.92874 -0.266031 0
M  V30 2878 H 266.296 3.48382 1.7171 0
M  V30 2879 H 268.028 3.71008 1.61664 0
M  V30 2880 H 264.783 4.73439 -0.123432 0
M  V30 2881 H 265.207 6.42831 -2.12361 0
M  V30 2882 H 269.849 4.22136 -0.23692 0
M  V30 2883 H 267.567 7.31107 -3.44249 0
M  V30 2884 H 271.153 5.49636 -1.90764 0
M  V30 2885 H 270.033 7.02313 -3.48893 0
M  V30 2886 N 267.536 -0.106894 1.57237 0
M  V30 2887 C 268.813 -0.843526 1.76477 0
M  V30 2888 C 269.193 -1.97499 0.745464 0
M  V30 2889 O 268.541 -2.27357 -0.228306 0
M  V30 2890 C 268.751 -1.34903 3.21873 0
M  V30 2891 C 270.099 -1.79654 3.8472 0
M  V30 2892 O 271.123 -1.44554 3.2555 0
M  V30 2893 O 269.982 -2.44515 4.88748 0
M  V30 2894 H 267.076 -0.401468 0.723016 0
M  V30 2895 H 269.622 -0.0896927 1.69463 0
M  V30 2896 H 268.394 -0.53781 3.87586 0
M  V30 2897 H 268.017 -2.16522 3.33473 0
M  V30 2898 N 269.014 -1.53014 -0.377408 0
M  V30 2899 C 270.291 -1.59215 -1.13622 0
M  V30 2900 C 270.671 -0.392407 -2.07421 0
M  V30 2901 O 270.019 0.618342 -2.19975 0
M  V30 2902 C 270.229 -2.93669 -1.88573 0
M  V30 2903 C 271.577 -3.47822 -2.43526 0
M  V30 2904 O 272.601 -2.9562 -1.98715 0
M  V30 2905 O 271.46 -4.39055 -3.25412 0
M  V30 2906 H 268.554 -0.642625 -0.52054 0
M  V30 2907 H 271.1 -1.65353 -0.381625 0
M  V30 2908 H 269.872 -3.7243 -1.20048 0
M  V30 2909 H 269.495 -2.90968 -2.70968 0
M  V30 2910 N 270.492 0.636531 -1.44174 0
M  V30 2911 C 271.738 1.39649 -1.47884 0
M  V30 2912 C 272.093 1.92098 -0.107747 0
M  V30 2913 O 271.386 1.70391 0.876208 0
M  V30 2914 C 271.58 2.58309 -2.47005 0
M  V30 2915 C 271.409 2.17476 -3.93617 0
M  V30 2916 C 270.179 2.0501 -4.61843 0
M  V30 2917 C 272.377 1.76722 -4.82984 0
M  V30 2918 N 270.359 1.57683 -5.93304 0
M  V30 2919 C 271.73 1.40601 -6.03847 0
M  V30 2920 C 273.785 1.64054 -4.70096 0
M  V30 2921 C 272.488 0.930787 -7.13252 0
M  V30 2922 C 274.514 1.17937 -5.79521 0
M  V30 2923 C 273.876 0.827625 -6.99521 0
M  V30 2924 H 269.975 0.506027 -0.596205 0
M  V30 2925 H 272.559 0.730791 -1.80465 0
M  V30 2926 H 270.73 3.22514 -2.16423 0
M  V30 2927 H 272.462 3.25083 -2.41045 0
M  V30 2928 H 269.217 2.25294 -4.16581 0
M  V30 2929 H 269.641 1.36334 -6.63131 0
M  V30 2930 H 274.283 1.89882 -3.77762 0
M  V30 2931 H 272.001 0.660012 -8.054 0
M  V30 2932 H 275.587 1.08601 -5.71574 0
M  V30 2933 H 274.467 0.476231 -7.82753 0
M  V30 2934 N 271.97 1.30982 0.876444 0
M  V30 2935 C 272.88 1.2003 2.01569 0
M  V30 2936 C 273.896 0.11838 1.73597 0
M  V30 2937 O 275.072 0.33495 1.98595 0
M  V30 2938 C 272.137 0.901637 3.34771 0
M  V30 2939 C 271.198 2.06979 3.76109 0
M  V30 2940 C 270.431 1.78529 5.02954 0
M  V30 2941 O 270.654 0.717296 5.65872 0
M  V30 2942 O 269.588 2.64019 5.40905 0
M  V30 2943 H 273.414 2.15753 2.13739 0
M  V30 2944 H 270.999 1.10658 1.00375 0
M  V30 2945 H 272.881 0.750645 4.1466 0
M  V30 2946 H 271.556 -0.0256141 3.2369 0
M  V30 2947 H 270.463 2.27616 2.96887 0
M  V30 2948 H 271.796 2.97907 3.91807 0
M  V30 2949 N 273.449 -1.08991 1.13837 0
M  V30 2950 C 274.865 -1.33312 0.877506 0
M  V30 2951 C 275.065 -1.95587 -0.48456 0
M  V30 2952 O 274.121 -2.20509 -1.23013 0
M  V30 2953 C 275.434 -2.24045 2.0056 0
M  V30 2954 C 276.982 -2.37542 2.03821 0
M  V30 2955 C 277.457 -3.31614 3.15905 0
M  V30 2956 N 278.948 -3.39189 3.15445 0
M  V30 2957 C 279.683 -4.11992 3.98811 0
M  V30 2958 N 279.179 -4.87553 4.92203 0
M  V30 2959 N 280.972 -4.07762 3.86894 0
M  V30 2960 H 273.123 -0.669456 2.01574 0
M  V30 2961 H 275.386 -0.357482 0.878015 0
M  V30 2962 H 275.092 -1.85521 2.98789 0
M  V30 2963 H 274.966 -3.24466 1.92359 0
M  V30 2964 H 277.353 -2.75327 1.06202 0
M  V30 2965 H 277.434 -1.36884 2.16093 0
M  V30 2966 H 277.078 -2.94551 4.13766 0
M  V30 2967 H 277.008 -4.32186 3.0087 0
M  V30 2968 H 279.499 -2.85314 2.47799 0
M  V30 2969 H 279.812 -5.40549 5.52292 0
M  V30 2970 H 278.157 -4.86627 4.96205 0
M  V30 2971 H 281.348 -3.47833 3.13257 0
M  V30 2972 H 281.521 -4.64238 4.52092 0
M  V30 2973 N 274.927 -0.932562 -1.27047 0
M  V30 2974 C 276.338 -0.619451 -1.76124 0
M  V30 2975 C 276.689 0.865397 -1.76083 0
M  V30 2976 O 275.814 1.67722 -1.36742 0
M  V30 2977 C 276.409 -1.11771 -3.19832 0
M  V30 2978 C 274.968 -0.855174 -3.66557 0
M  V30 2979 C 274.115 -1.27362 -2.46321 0
M  V30 2980 H 277.066 -1.11181 -1.13245 0
M  V30 2981 H 277.087 -0.46759 -3.77616 0
M  V30 2982 H 276.599 -2.19842 -3.1983 0
M  V30 2983 H 274.7 0.211524 -3.71999 0
M  V30 2984 H 274.813 -1.47613 -4.55793 0
M  V30 2985 H 273.177 -0.692119 -2.45116 0
M  V30 2986 H 273.96 -2.36307 -2.49025 0
M  V30 2987 N 276.405 1.4127 -0.698611 0
M  V30 2988 C 277.821 1.55241 -0.370462 0
M  V30 2989 C 278.021 1.67351 1.12231 0
M  V30 2990 O 277.077 1.65363 1.90818 0
M  V30 2991 C 278.39 2.78997 -1.12165 0
M  V30 2992 C 279.938 2.92797 -1.1063 0
M  V30 2993 C 280.413 4.19445 -1.8393 0
M  V30 2994 N 281.904 4.26409 -1.80914 0
M  V30 2995 C 282.639 5.23271 -2.34467 0
M  V30 2996 N 282.135 6.26145 -2.96504 0
M  V30 2997 N 283.928 5.15232 -2.24706 0
M  V30 2998 H 276.079 1.31654 -1.66676 0
M  V30 2999 H 278.342 0.635393 -0.703548 0
M  V30 3000 H 278.048 2.76268 -2.17644 0
M  V30 3001 H 277.922 3.70606 -0.702209 0
M  V30 3002 H 280.309 2.95039 -0.0597713 0
M  V30 3003 H 280.39 2.02353 -1.56483 0
M  V30 3004 H 280.034 4.17964 -2.88563 0
M  V30 3005 H 279.964 5.08866 -1.35509 0
M  V30 3006 H 282.455 3.527 -1.35687 0
M  V30 3007 H 282.768 6.96451 -3.34927 0
M  V30 3008 H 281.113 6.26638 -3.00583 0
M  V30 3009 H 284.304 4.33789 -1.7591 0
M  V30 3010 H 284.477 5.90552 -2.66745 0
M  V30 3011 N 277.883 0.443576 1.51229 0
M  V30 3012 C 278.793 -0.370721 2.31652 0
M  V30 3013 C 279.809 -1.02186 1.40833 0
M  V30 3014 O 280.985 -1.01586 1.73903 0
M  V30 3015 C 278.05 -1.45376 3.14749 0
M  V30 3016 C 277.111 -0.822099 4.21355 0
M  V30 3017 C 276.344 -1.85353 5.0048 0
M  V30 3018 O 276.567 -3.07656 4.80316 0
M  V30 3019 O 275.501 -1.4406 5.84406 0
M  V30 3020 H 279.327 0.286002 3.0235 0
M  V30 3021 H 276.912 0.20598 1.47973 0
M  V30 3022 H 278.794 -2.08173 3.66391 0
M  V30 3023 H 277.469 -2.09445 2.46809 0
M  V30 3024 H 276.376 -0.155909 3.73775 0
M  V30 3025 H 277.709 -0.224797 4.91686 0
M  V30 3026 N 279.361 -1.56624 0.175154 0
M  V30 3027 C 280.271 -2.21741 -0.766042 0
M  V30 3028 C 281.287 -1.21023 -1.25018 0
M  V30 3029 O 282.463 -1.53697 -1.3015 0
M  V30 3030 C 279.528 -2.84839 -1.97655 0
M  V30 3031 C 278.589 -4.00769 -1.53892 0
M  V30 3032 C 277.822 -4.60849 -2.69173 0
M  V30 3033 O 278.045 -4.19823 -3.86141 0
M  V30 3034 O 276.979 -5.50655 -2.43028 0
M  V30 3035 H 280.805 -3.02738 -0.241585 0
M  V30 3036 H 278.39 -1.49305 -0.053222 0
M  V30 3037 H 280.272 -3.24834 -2.68442 0
M  V30 3038 H 278.947 -2.06836 -2.48999 0
M  V30 3039 H 277.854 -3.65436 -0.80044 0
M  V30 3040 H 279.187 -4.80376 -1.07236 0
M  V30 3041 N 280.839 0.0985539 -1.57292 0
M  V30 3042 C 282.086 0.802678 -1.85912 0
M  V30 3043 C 282.414 1.78901 -0.763186 0
M  V30 3044 O 281.669 1.94178 0.243559 0
M  V30 3045 C 281.968 1.56927 -3.21105 0
M  V30 3046 C 281.634 0.725376 -4.45027 0
M  V30 3047 C 280.296 0.492726 -4.78671 0
M  V30 3048 C 282.648 0.138493 -5.21016 0
M  V30 3049 C 279.976 -0.336727 -5.85733 0
M  V30 3050 C 282.328 -0.678264 -6.28953 0
M  V30 3051 C 280.992 -0.921039 -6.61115 0
M  V30 3052 H 280.262 0.293721 -0.680301 0
M  V30 3053 H 282.909 0.0642841 -1.91392 0
M  V30 3054 H 281.214 2.37914 -3.11294 0
M  V30 3055 H 282.911 2.11841 -3.40477 0
M  V30 3056 H 279.501 0.916815 -4.18679 0
M  V30 3057 H 283.685 0.305404 -4.95359 0
M  V30 3058 H 278.941 -0.533836 -6.09065 0
M  V30 3059 H 283.115 -1.1399 -6.87007 0
M  V30 3060 H 280.742 -1.56556 -7.43905 0
M  V30 3061 N 282.317 1.53212 0.369288 0
M  V30 3062 C 283.545 1.73119 1.13303 0
M  V30 3063 C 283.96 0.458455 1.83149 0
M  V30 3064 O 283.317 -0.568403 1.73423 0
M  V30 3065 C 283.368 2.89413 2.16616 0
M  V30 3066 O 283.089 4.11761 1.49614 0
M  V30 3067 C 284.59 3.21161 3.05566 0
M  V30 3068 H 281.81 0.579107 0.338934 0
M  V30 3069 H 284.354 1.99942 0.429338 0
M  V30 3070 H 282.509 2.64994 2.82589 0
M  V30 3071 H 282.923 4.76858 2.18419 0
M  V30 3072 H 284.397 4.05949 3.74045 0
M  V30 3073 H 284.874 2.36369 3.70171 0
M  V30 3074 H 285.48 3.47492 2.45213 0
M  V30 3075 N 283.795 -0.628877 1.44509 0
M  V30 3076 C 284.725 -1.75187 1.54376 0
M  V30 3077 C 285.706 -1.65411 0.396618 0
M  V30 3078 O 286.891 -1.84137 0.617031 0
M  V30 3079 C 284.021 -3.13725 1.48976 0
M  V30 3080 C 282.975 -3.38291 2.62189 0
M  V30 3081 C 282.301 -4.76883 2.41841 0
M  V30 3082 C 283.601 -3.30632 4.04326 0
M  V30 3083 H 285.295 -1.67187 2.48373 0
M  V30 3084 H 282.841 -0.802909 1.19538 0
M  V30 3085 H 284.794 -3.92064 1.54478 0
M  V30 3086 H 283.518 -3.22515 0.514961 0
M  V30 3087 H 282.177 -2.62334 2.56079 0
M  V30 3088 H 281.825 -4.82378 1.42548 0
M  V30 3089 H 281.525 -4.94278 3.17747 0
M  V30 3090 H 283.049 -5.57449 2.49165 0
M  V30 3091 H 284.463 -3.98873 4.11793 0
M  V30 3092 H 282.86 -3.59561 4.80454 0
M  V30 3093 H 283.93 -2.28404 4.27738 0
M  V30 3094 N 285.273 -1.31445 -0.869486 0
M  V30 3095 C 286.513 -1.22458 -1.63656 0
M  V30 3096 C 286.877 0.213846 -1.90805 0
M  V30 3097 O 288.078 0.427212 -2.65383 0
M  V30 3098 C 286.349 -2.04564 -2.93067 0
M  V30 3099 S 287.908 -2.12445 -3.83944 0
M  V30 3100 H 284.726 -0.436145 -0.561514 0
M  V30 3101 H 287.328 -1.66114 -1.03085 0
M  V30 3102 H 286.032 -3.0816 -2.71045 0
M  V30 3103 H 285.563 -1.6163 -3.58663 0
M  V30 3104 H 287.578 -1.26312 -4.79854 0
M  V30 3105 N 286.751 1.08385 -1.14413 0
M  V30 3106 C 288.167 1.32844 -0.884563 0
M  V30 3107 C 288.367 1.95841 0.474181 0
M  V30 3108 O 287.423 2.21158 1.21842 0
M  V30 3109 C 288.736 2.22978 -2.01745 0
M  V30 3110 C 290.284 2.36458 -2.05077 0
M  V30 3111 C 290.759 3.29934 -3.1766 0
M  V30 3112 N 292.25 3.37511 -3.17239 0
M  V30 3113 C 292.985 4.09871 -4.0099 0
M  V30 3114 N 292.481 4.84936 -4.94781 0
M  V30 3115 N 294.274 4.05704 -3.89051 0
M  V30 3116 H 286.425 0.658756 -2.01926 0
M  V30 3117 H 288.688 0.352821 -0.879899 0
M  V30 3118 H 288.394 1.83934 -2.99769 0
M  V30 3119 H 288.268 3.23441 -1.94077 0
M  V30 3120 H 290.655 2.7476 -1.0766 0
M  V30 3121 H 290.736 1.35736 -2.16816 0
M  V30 3122 H 290.38 2.92352 -4.15322 0
M  V30 3123 H 290.31 4.30584 -3.03158 0
M  V30 3124 H 292.801 2.83996 -2.49308 0
M  V30 3125 H 293.114 5.37612 -5.55151 0
M  V30 3126 H 291.459 4.83988 -4.98779 0
M  V30 3127 H 294.65 3.46167 -3.15097 0
M  V30 3128 H 294.823 4.61834 -4.54547 0
M  V30 3129 N 288.23 0.939286 1.26551 0
M  V30 3130 C 289.177 0.446088 2.26448 0
M  V30 3131 C 290.147 -0.493234 1.58608 0
M  V30 3132 O 291.332 -0.409857 1.86346 0
M  V30 3133 C 288.472 -0.284375 3.43926 0
M  V30 3134 C 287.585 0.690399 4.26448 0
M  V30 3135 C 286.72 -0.0610712 5.31165 0
M  V30 3136 C 285.759 0.905649 6.05363 0
M  V30 3137 N 284.896 0.186055 7.01853 0
M  V30 3138 H 289.736 1.30291 2.68008 0
M  V30 3139 H 287.273 0.65371 1.31776 0
M  V30 3140 H 289.231 -0.724313 4.10864 0
M  V30 3141 H 287.861 -1.10535 3.03285 0
M  V30 3142 H 286.913 1.24885 3.59316 0
M  V30 3143 H 288.225 1.42873 4.779 0
M  V30 3144 H 287.379 -0.56038 6.04106 0
M  V30 3145 H 286.118 -0.832297 4.80546 0
M  V30 3146 H 285.123 1.4161 5.3125 0
M  V30 3147 H 286.348 1.67685 6.58072 0
M  V30 3148 H 284.294 -0.566714 6.53548 0
M  V30 3149 H 284.211 0.863752 7.51049 0
M  V30 3150 H 285.479 -0.292221 7.78952 0
M  V30 3151 N 289.708 -1.40897 0.706093 0
M  V30 3152 C 290.638 -2.33418 0.0620085 0
M  V30 3153 C 291.619 -1.52385 -0.755827 0
M  V30 3154 O 292.804 -1.80886 -0.706674 0
M  V30 3155 C 289.934 -3.36293 -0.867445 0
M  V30 3156 C 288.888 -4.27716 -0.155932 0
M  V30 3157 C 288.214 -5.2105 -1.20046 0
M  V30 3158 C 289.514 -5.12944 0.984149 0
M  V30 3159 H 291.208 -2.87527 0.83477 0
M  V30 3160 H 288.754 -1.38249 0.402875 0
M  V30 3161 H 290.707 -3.99949 -1.32735 0
M  V30 3162 H 289.431 -2.80556 -1.67199 0
M  V30 3163 H 288.09 -3.65498 0.284047 0
M  V30 3164 H 287.738 -4.61624 -1.99781 0
M  V30 3165 H 287.438 -5.83056 -0.729328 0
M  V30 3166 H 288.962 -5.87584 -1.66066 0
M  V30 3167 H 290.376 -5.70109 0.604048 0
M  V30 3168 H 288.773 -5.83945 1.38304 0
M  V30 3169 H 289.843 -4.49485 1.81911 0
M  V30 3170 N 291.186 -0.45159 -1.50991 0
M  V30 3171 C 292.434 0.109857 -2.01801 0
M  V30 3172 C 292.755 1.41958 -1.3369 0
M  V30 3173 O 292.025 1.9003 -0.475951 0
M  V30 3174 H 290.605 0.0435884 -0.745727 0
M  V30 3175 H 293.267 -0.597557 -1.85514 0
M  V30 3176 H 292.363 0.275489 -3.10882 0
M  V30 3177 N 292.664 1.56529 -0.183458 0
M  V30 3178 C 293.889 2.02064 0.467428 0
M  V30 3179 C 294.314 1.06282 1.55196 0
M  V30 3180 O 293.672 0.0443565 1.81246 0
M  V30 3181 C 293.72 3.46122 1.01153 0
M  V30 3182 O 292.824 3.53437 2.12499 0
M  V30 3183 H 292.165 0.654726 0.110588 0
M  V30 3184 H 294.695 2.02521 -0.290917 0
M  V30 3185 H 294.705 3.85676 1.33108 0
M  V30 3186 H 293.38 4.15331 0.217533 0
M  V30 3187 H 291.957 3.2575 1.81497 0
M  V30 3188 N 294.142 -0.090211 1.57342 0
M  V30 3189 C 295.39 -0.791241 1.85967 0
M  V30 3190 C 295.711 -1.7903 0.772859 0
M  V30 3191 O 294.981 -1.94872 -0.200398 0
M  V30 3192 H 293.561 -0.295205 0.686195 0
M  V30 3193 H 296.223 -0.0706782 1.94772 0
M  V30 3194 H 295.319 -1.31882 2.82867 0
M  V30 3195 N 295.62 -1.53406 -0.361157 0
M  V30 3196 C 296.85 -1.73465 -1.1222 0
M  V30 3197 C 297.258 -0.465486 -1.83384 0
M  V30 3198 O 296.601 0.571611 -1.7458 0
M  V30 3199 C 296.663 -2.84834 -2.19339 0
M  V30 3200 C 296.327 -4.25038 -1.67903 0
M  V30 3201 C 297.324 -5.07231 -1.14074 0
M  V30 3202 C 295.009 -4.71464 -1.73282 0
M  V30 3203 C 297.003 -6.33942 -0.663068 0
M  V30 3204 C 294.69 -5.98153 -1.25127 0
M  V30 3205 C 295.688 -6.79223 -0.717296 0
M  V30 3206 O 295.376 -8.03533 -0.242865 0
M  V30 3207 H 295.108 -0.583526 -0.341283 0
M  V30 3208 H 297.662 -2.00964 -0.424591 0
M  V30 3209 H 295.892 -2.5282 -2.92607 0
M  V30 3210 H 297.581 -2.9303 -2.80871 0
M  V30 3211 H 298.347 -4.72534 -1.09254 0
M  V30 3212 H 294.226 -4.08432 -2.13786 0
M  V30 3213 H 297.77 -6.97167 -0.245612 0
M  V30 3214 H 293.667 -6.32347 -1.29642 0
M  V30 3215 H 294.435 -8.177 -0.361786 0
M  V30 3216 N 297.098 0.621204 -1.44841 0
M  V30 3217 C 298.345 1.38055 -1.48145 0
M  V30 3218 C 298.673 1.94143 -0.117867 0
M  V30 3219 O 297.928 1.74713 0.881694 0
M  V30 3220 C 298.227 2.55675 -2.4973 0
M  V30 3221 C 297.893 2.17817 -3.94799 0
M  V30 3222 C 296.555 2.07205 -4.34303 0
M  V30 3223 C 298.907 1.88065 -4.86087 0
M  V30 3224 C 296.235 1.65045 -5.63007 0
M  V30 3225 C 298.587 1.47394 -6.15189 0
M  V30 3226 C 297.251 1.35331 -6.53637 0
M  V30 3227 H 296.521 0.505181 -0.542101 0
M  V30 3228 H 299.168 0.703477 -1.78111 0
M  V30 3229 H 297.473 3.2866 -2.13284 0
M  V30 3230 H 299.17 3.13904 -2.4953 0
M  V30 3231 H 295.76 2.26998 -3.63552 0
M  V30 3232 H 299.944 1.95168 -4.56315 0
M  V30 3233 H 295.2 1.54317 -5.91605 0
M  V30 3234 H 299.374 1.23415 -6.85377 0
M  V30 3235 H 297.001 1.02435 -7.53267 0
M  V30 3236 N 298.576 1.31904 0.862503 0
M  V30 3237 C 299.824 1.21776 1.61292 0
M  V30 3238 C 300.145 -0.222413 1.93727 0
M  V30 3239 O 299.415 -1.1451 1.58947 0
M  V30 3240 H 297.995 0.447717 0.597962 0
M  V30 3241 H 300.657 1.65326 1.03215 0
M  V30 3242 H 299.753 1.7948 2.5533 0
M  V30 3243 N 300.054 -1.07777 1.14986 0
M  V30 3244 C 300.964 -2.18404 0.856546 0
M  V30 3245 C 301.98 -1.73211 -0.165485 0
M  V30 3246 O 303.156 -2.01399 0.00755219 0
M  V30 3247 C 300.221 -3.44977 0.34526 0
M  V30 3248 C 299.282 -4.0476 1.43065 0
M  V30 3249 C 298.515 -5.25291 0.943663 0
M  V30 3250 O 298.738 -5.70004 -0.212426 0
M  V30 3251 O 297.672 -5.76638 1.72547 0
M  V30 3252 H 301.498 -2.45978 1.78125 0
M  V30 3253 H 299.083 -1.17033 0.928631 0
M  V30 3254 H 300.965 -4.21348 0.0663671 0
M  V30 3255 H 299.64 -3.18965 -0.551631 0
M  V30 3256 H 298.547 -3.29949 1.76309 0
M  V30 3257 H 299.88 -4.35035 2.30229 0
M  V30 3258 N 301.532 -0.945985 -1.26051 0
M  V30 3259 C 302.778 -0.597002 -1.93814 0
M  V30 3260 C 303.111 0.862484 -1.73997 0
M  V30 3261 O 302.386 1.61769 -1.07986 0
M  V30 3262 C 302.669 -0.945937 -3.47454 0
M  V30 3263 C 302.522 -2.46052 -3.76535 0
M  V30 3264 C 303.841 -0.464785 -4.37639 0
M  V30 3265 H 300.96 -0.218366 -0.703907 0
M  V30 3266 H 303.602 -1.18107 -1.48831 0
M  V30 3267 H 301.752 -0.448902 -3.85898 0
M  V30 3268 H 303.424 -3.03065 -3.47778 0
M  V30 3269 H 301.667 -2.90194 -3.22444 0
M  V30 3270 H 302.338 -2.65517 -4.83947 0
M  V30 3271 H 304.814 -0.891016 -4.06448 0
M  V30 3272 H 303.69 -0.737712 -5.4392 0
M  V30 3273 H 303.951 0.635274 -4.37512 0
M  V30 3274 N 303.011 1.40521 -0.713556 0
M  V30 3275 C 304.258 2.00923 -0.25219 0
M  V30 3276 C 304.586 1.56571 1.15395 0
M  V30 3277 O 303.841 0.775874 1.79663 0
M  V30 3278 C 304.14 3.56317 -0.278 0
M  V30 3279 C 303.806 4.20246 -1.63415 0
M  V30 3280 C 302.468 4.37422 -2.00538 0
M  V30 3281 C 304.82 4.55923 -2.52554 0
M  V30 3282 C 302.148 4.87558 -3.2635 0
M  V30 3283 C 304.5 5.07458 -3.77716 0
M  V30 3284 C 303.164 5.22843 -4.14959 0
M  V30 3285 H 302.434 0.735231 -0.0922829 0
M  V30 3286 H 305.081 1.68161 -0.916188 0
M  V30 3287 H 303.386 3.88976 0.469567 0
M  V30 3288 H 305.083 4.00883 0.0967819 0
M  V30 3289 H 301.673 4.07263 -1.33546 0
M  V30 3290 H 305.857 4.42291 -2.25149 0
M  V30 3291 H 301.113 4.97654 -3.55176 0
M  V30 3292 H 305.287 5.34041 -4.4696 0
M  V30 3293 H 302.914 5.61454 -5.12516 0
M  V30 3294 N 304.489 0.459591 1.5075 0
M  V30 3295 C 305.399 -0.34613 2.32033 0
M  V30 3296 C 306.415 -1.00686 1.41909 0
M  V30 3297 O 307.591 -0.997361 1.7497 0
M  V30 3298 C 304.656 -1.42029 3.16273 0
M  V30 3299 C 303.717 -0.777362 4.22203 0
M  V30 3300 C 302.95 -1.80034 5.02418 0
M  V30 3301 O 303.173 -3.02544 4.83553 0
M  V30 3302 O 302.107 -1.37853 5.85901 0
M  V30 3303 H 305.933 0.318054 3.0203 0
M  V30 3304 H 303.518 0.221663 1.47746 0
M  V30 3305 H 305.4 -2.04275 3.68578 0
M  V30 3306 H 304.075 -2.06815 2.49016 0
M  V30 3307 H 302.982 -0.116256 3.73919 0
M  V30 3308 H 304.315 -0.172634 4.91897 0
M  V30 3309 N 305.967 -1.56429 0.191757 0
M  V30 3310 C 307.215 -1.97095 -0.447006 0
M  V30 3311 C 307.536 -1.07967 -1.62383 0
M  V30 3312 O 306.806 -0.150248 -1.95323 0
M  V30 3313 H 305.386 -0.727832 -0.168135 0
M  V30 3314 H 308.048 -1.92911 0.27771 0
M  V30 3315 H 307.144 -3.01848 -0.793371 0
M  V30 3316 N 307.445 0.0818655 -1.57387 0
M  V30 3317 C 308.375 1.09885 -2.06028 0
M  V30 3318 C 309.356 1.4098 -0.951774 0
M  V30 3319 O 310.541 1.50781 -1.22387 0
M  V30 3320 C 307.671 2.4151 -2.4958 0
M  V30 3321 C 306.625 2.24792 -3.64215 0
M  V30 3322 C 305.951 3.61712 -3.93787 0
M  V30 3323 C 307.251 1.67749 -4.94629 0
M  V30 3324 H 308.945 0.694128 -2.91243 0
M  V30 3325 H 306.491 0.332448 -1.4011 0
M  V30 3326 H 308.444 3.12939 -2.82219 0
M  V30 3327 H 307.168 2.83943 -1.61381 0
M  V30 3328 H 305.827 1.55807 -3.31843 0
M  V30 3329 H 305.475 4.01697 -3.02735 0
M  V30 3330 H 305.175 3.51368 -4.70971 0
M  V30 3331 H 306.699 4.34587 -4.28913 0
M  V30 3332 H 308.113 2.29032 -5.25564 0
M  V30 3333 H 306.51 1.68128 -5.76067 0
M  V30 3334 H 307.58 0.638059 -4.80684 0
M  V30 3335 N 308.923 1.53595 0.353017 0
M  V30 3336 C 310.169 1.71581 1.09232 0
M  V30 3337 C 310.524 0.468328 1.86613 0
M  V30 3338 O 309.817 -0.538911 1.83865 0
M  V30 3339 C 310.011 2.91313 2.07054 0
M  V30 3340 C 309.84 4.27585 1.39287 0
M  V30 3341 C 308.61 4.92233 1.1417 0
M  V30 3342 C 310.808 5.07656 0.824005 0
M  V30 3343 N 308.79 6.124 0.428841 0
M  V30 3344 C 310.161 6.19531 0.241195 0
M  V30 3345 C 312.216 4.92609 0.723922 0
M  V30 3346 C 310.919 7.18002 -0.431952 0
M  V30 3347 C 312.945 5.91365 0.0645334 0
M  V30 3348 C 312.307 7.02571 -0.507347 0
M  V30 3349 H 308.406 0.680987 0.384422 0
M  V30 3350 H 310.99 1.91013 0.377096 0
M  V30 3351 H 309.161 2.73398 2.75877 0
M  V30 3352 H 310.893 2.98062 2.73753 0
M  V30 3353 H 307.648 4.51612 1.42631 0
M  V30 3354 H 308.072 6.76944 0.0874131 0
M  V30 3355 H 312.714 4.06808 1.15181 0
M  V30 3356 H 310.432 8.03384 -0.871758 0
M  V30 3357 H 314.018 5.81799 -0.0121469 0
M  V30 3358 H 312.898 7.77675 -1.0095 0
M  V30 3359 N 310.401 -0.613514 1.45168 0
M  V30 3360 C 311.348 -1.72456 1.53387 0
M  V30 3361 C 312.318 -1.6169 0.380191 0
M  V30 3362 O 313.503 -1.81356 0.592836 0
M  V30 3363 C 310.643 -3.10753 1.50088 0
M  V30 3364 C 309.756 -3.32368 2.75963 0
M  V30 3365 C 308.891 -4.60737 2.64376 0
M  V30 3366 C 307.93 -4.7559 3.85332 0
M  V30 3367 N 307.067 -5.95253 3.72315 0
M  V30 3368 H 311.907 -1.64768 2.48305 0
M  V30 3369 H 309.444 -0.803503 1.23216 0
M  V30 3370 H 311.402 -3.90758 1.46164 0
M  V30 3371 H 310.032 -3.17413 0.587243 0
M  V30 3372 H 309.084 -2.4618 2.89999 0
M  V30 3373 H 310.396 -3.39218 3.65695 0
M  V30 3374 H 309.55 -5.48928 2.58385 0
M  V30 3375 H 308.289 -4.56275 1.72233 0
M  V30 3376 H 307.294 -3.85824 3.91688 0
M  V30 3377 H 308.519 -4.81854 4.78533 0
M  V30 3378 H 306.465 -5.91847 2.82937 0
M  V30 3379 H 306.382 -6.03236 4.55677 0
M  V30 3380 H 307.65 -6.85958 3.70246 0
M  V30 3381 N 311.879 -1.3236 -0.855495 0
M  V30 3382 C 313.156 -1.13491 -1.59309 0
M  V30 3383 C 313.536 0.30503 -2.08885 0
M  V30 3384 O 312.884 1.30151 -1.87811 0
M  V30 3385 C 313.094 -2.16176 -2.73987 0
M  V30 3386 C 314.442 -2.49463 -3.43589 0
M  V30 3387 O 315.466 -2.14715 -2.84211 0
M  V30 3388 O 314.325 -3.09027 -4.50738 0
M  V30 3389 H 311.419 -0.437887 -0.701559 0
M  V30 3390 H 313.965 -1.43887 -0.899696 0
M  V30 3391 H 312.737 -3.1297 -2.34873 0
M  V30 3392 H 312.36 -1.86769 -3.51003 0
M  V30 3393 N 313.357 1.07166 -1.15556 0
M  V30 3394 C 314.773 1.31899 -0.898603 0
M  V30 3395 C 314.973 1.96333 0.453383 0
M  V30 3396 O 314.029 2.22438 1.19489 0
M  V30 3397 C 315.342 2.20826 -2.04099 0
M  V30 3398 C 316.89 2.34269 -2.07574 0
M  V30 3399 C 317.365 3.26546 -3.21141 0
M  V30 3400 N 318.856 3.34127 -3.20801 0
M  V30 3401 C 319.591 4.05595 -4.05315 0
M  V30 3402 N 319.087 4.79661 -4.99897 0
M  V30 3403 N 320.88 4.01555 -3.93332 0
M  V30 3404 H 313.031 0.637302 -2.02613 0
M  V30 3405 H 315.294 0.343468 -0.883591 0
M  V30 3406 H 315 1.80744 -3.01703 0
M  V30 3407 H 314.874 3.21364 -1.97496 0
M  V30 3408 H 317.261 2.73603 -1.10568 0
M  V30 3409 H 317.342 1.33429 -2.18244 0
M  V30 3410 H 316.986 2.87931 -4.184 0
M  V30 3411 H 316.916 4.27345 -3.07708 0
M  V30 3412 H 319.407 2.81336 -2.52306 0
M  V30 3413 H 319.72 5.31694 -5.60822 0
M  V30 3414 H 318.065 4.78671 -5.03884 0
M  V30 3415 H 321.256 3.42806 -3.18751 0
M  V30 3416 H 321.429 4.56987 -4.5942 0
M  V30 3417 N 314.835 0.952656 1.25548 0
M  V30 3418 C 316.081 0.607272 1.93494 0
M  V30 3419 C 316.414 -0.853245 1.74452 0
M  V30 3420 O 315.689 -1.61194 1.08843 0
M  V30 3421 C 315.972 0.96435 3.46947 0
M  V30 3422 C 315.825 2.48045 3.75225 0
M  V30 3423 C 317.144 0.487987 4.37386 0
M  V30 3424 H 314.263 0.222096 0.702739 0
M  V30 3425 H 316.905 1.18895 1.48203 0
M  V30 3426 H 315.055 0.469361 3.85654 0
M  V30 3427 H 316.727 3.04905 3.46166 0
M  V30 3428 H 314.97 2.919 3.209 0
M  V30 3429 H 315.641 2.6808 4.82532 0
M  V30 3430 H 318.117 0.912558 4.0597 0
M  V30 3431 H 316.993 0.766547 5.43521 0
M  V30 3432 H 317.254 -0.612063 4.37843 0
M  V30 3433 N 316.313 -1.40141 0.720998 0
M  V30 3434 C 317.245 -2.29177 0.0324669 0
M  V30 3435 C 318.258 -1.46105 -0.718126 0
M  V30 3436 O 319.447 -1.69335 -0.564608 0
M  V30 3437 C 316.547 -3.24473 -0.978292 0
M  V30 3438 C 315.72 -4.36423 -0.292115 0
M  V30 3439 C 314.779 -5.12122 -1.20901 0
M  V30 3440 O 313.805 -5.64981 -0.691766 0
M  V30 3441 N 315.007 -5.21992 -2.53978 0
M  V30 3442 H 317.772 -2.88909 0.796984 0
M  V30 3443 H 315.333 -1.51569 0.569068 0
M  V30 3444 H 317.325 -3.71987 -1.59398 0
M  V30 3445 H 315.895 -2.65871 -1.64413 0
M  V30 3446 H 315.115 -3.90967 0.503847 0
M  V30 3447 H 316.403 -5.08467 0.183971 0
M  V30 3448 H 315.801 -4.8054 -2.98493 0
M  V30 3449 H 314.358 -5.72995 -3.10677 0
M  V30 3450 N 317.792 -0.46758 -1.50504 0
M  V30 3451 C 319.038 0.0887532 -2.02606 0
M  V30 3452 C 319.371 1.39686 -1.34913 0
M  V30 3453 O 318.646 1.88644 -0.473694 0
M  V30 3454 C 318.929 0.276206 -3.59039 0
M  V30 3455 C 318.782 -1.05267 -4.37309 0
M  V30 3456 C 320.101 1.03235 -4.27821 0
M  V30 3457 H 317.22 0.0307814 -0.736357 0
M  V30 3458 H 319.862 -0.612485 -1.79857 0
M  V30 3459 H 318.012 0.8735 -3.78553 0
M  V30 3460 H 319.684 -1.68628 -4.29374 0
M  V30 3461 H 317.927 -1.65015 -4.01189 0
M  V30 3462 H 318.598 -0.875197 -5.45018 0
M  V30 3463 H 321.074 0.526111 -4.12761 0
M  V30 3464 H 319.95 1.1323 -5.37094 0
M  V30 3465 H 320.211 2.06806 -3.90748 0
M  V30 3466 N 319.27 1.56325 -0.20005 0
M  V30 3467 C 320.233 2.18084 0.705132 0
M  V30 3468 C 321.233 1.13666 1.1374 0
M  V30 3469 O 322.423 1.39023 1.04968 0
M  V30 3470 C 319.555 2.78689 1.96329 0
M  V30 3471 H 320.748 2.99435 0.167023 0
M  V30 3472 H 318.301 1.56221 0.0495725 0
M  V30 3473 H 319.036 2.0115 2.5438 0
M  V30 3474 H 318.821 3.55133 1.66202 0
M  V30 3475 H 320.311 3.26096 2.60866 0
M  V30 3476 N 320.748 -0.0735177 1.57428 0
M  V30 3477 C 321.997 -0.771809 1.86349 0
M  V30 3478 C 322.31 -1.78828 0.792452 0
M  V30 3479 O 323.516 -2.53602 0.96945 0
M  V30 3480 C 321.972 -1.42358 3.30548 0
M  V30 3481 C 321.58 -0.445761 4.45777 0
M  V30 3482 C 323.324 -2.10434 3.6867 0
M  V30 3483 C 321.231 -1.10335 5.81016 0
M  V30 3484 H 320.161 -0.291999 0.695164 0
M  V30 3485 H 322.812 -0.0250749 1.83483 0
M  V30 3486 H 321.194 -2.21852 3.28021 0
M  V30 3487 H 322.368 0.319239 4.59693 0
M  V30 3488 H 320.683 0.130457 4.16196 0
M  V30 3489 H 323.28 -2.60405 4.67004 0
M  V30 3490 H 323.623 -2.90298 2.98383 0
M  V30 3491 H 324.156 -1.37773 3.7318 0
M  V30 3492 H 320.895 -0.345061 6.54591 0
M  V30 3493 H 320.415 -1.83925 5.70904 0
M  V30 3494 H 322.094 -1.62367 6.26295 0
M  V30 3495 N 322.226 -1.5378 -0.344866 0
M  V30 3496 C 323.173 -1.81676 -1.42346 0
M  V30 3497 C 324.143 -0.662376 -1.52321 0
M  V30 3498 O 325.328 -0.906675 -1.67881 0
M  V30 3499 C 322.468 -2.03087 -2.79015 0
M  V30 3500 C 321.581 -3.30799 -2.77842 0
M  V30 3501 C 320.716 -3.42285 -4.0622 0
M  V30 3502 C 319.755 -4.6395 -3.9927 0
M  V30 3503 N 318.892 -4.72477 -5.19336 0
M  V30 3504 H 323.732 -2.73703 -1.17858 0
M  V30 3505 H 321.269 -1.35568 -0.570949 0
M  V30 3506 H 323.227 -2.1349 -3.58438 0
M  V30 3507 H 321.857 -1.14375 -3.01858 0
M  V30 3508 H 320.909 -3.29244 -1.90533 0
M  V30 3509 H 322.221 -4.20314 -2.68584 0
M  V30 3510 H 321.375 -3.52113 -4.94066 0
M  V30 3511 H 320.114 -2.50823 -4.18258 0
M  V30 3512 H 319.119 -4.54201 -3.09809 0
M  V30 3513 H 320.344 -5.56775 -3.88817 0
M  V30 3514 H 318.29 -3.83924 -5.3192 0
M  V30 3515 H 318.207 -5.55927 -5.12329 0
M  V30 3516 H 319.475 -4.86613 -6.08957 0
M  V30 3517 N 323.704 0.605807 -1.45491 0
M  V30 3518 C 324.95 1.36679 -1.49823 0
M  V30 3519 C 325.283 1.93693 -0.140175 0
M  V30 3520 O 324.558 1.75158 0.845581 0
M  V30 3521 C 324.841 2.51337 -2.57879 0
M  V30 3522 C 324.694 1.99508 -4.03134 0
M  V30 3523 C 326.013 3.53463 -2.62205 0
M  V30 3524 H 323.132 0.495617 -0.545466 0
M  V30 3525 H 325.774 0.682732 -1.7731 0
M  V30 3526 H 323.924 3.09691 -2.34571 0
M  V30 3527 H 325.596 1.45789 -4.37656 0
M  V30 3528 H 323.839 1.30496 -4.13707 0
M  V30 3529 H 324.51 2.82169 -4.74431 0
M  V30 3530 H 326.986 3.04953 -2.83095 0
M  V30 3531 H 325.862 4.31178 -3.39672 0
M  V30 3532 H 326.123 4.09197 -1.67363 0
M  V30 3533 N 325.182 1.32811 0.848464 0
M  V30 3534 C 326.431 1.23075 1.59798 0
M  V30 3535 C 326.744 -0.204419 1.94529 0
M  V30 3536 O 327.95 -0.423701 2.68173 0
M  V30 3537 C 326.406 2.15594 2.88179 0
M  V30 3538 C 326.014 3.64228 2.60849 0
M  V30 3539 C 327.758 2.14709 3.66197 0
M  V30 3540 C 325.665 4.48689 3.85269 0
M  V30 3541 H 324.595 0.457091 0.599653 0
M  V30 3542 H 327.246 1.57813 0.936342 0
M  V30 3543 H 325.628 1.73778 3.55833 0
M  V30 3544 H 326.802 4.14424 2.01467 0
M  V30 3545 H 325.117 3.67306 1.96151 0
M  V30 3546 H 327.714 2.75046 4.58534 0
M  V30 3547 H 328.057 1.13966 4.00397 0
M  V30 3548 H 328.59 2.54837 3.05455 0
M  V30 3549 H 325.329 5.5027 3.56207 0
M  V30 3550 H 324.849 4.03241 4.44024 0
M  V30 3551 H 326.528 4.62006 4.52946 0
M  V30 3552 N 326.66 -1.06551 1.16123 0
M  V30 3553 C 327.885 -1.83544 0.965735 0
M  V30 3554 C 328.31 -1.81843 -0.481102 0
M  V30 3555 O 327.668 -1.21732 -1.34354 0
M  V30 3556 C 327.716 -3.28169 1.49457 0
M  V30 3557 O 326.82 -4.0643 0.699157 0
M  V30 3558 H 326.161 -0.568026 0.343864 0
M  V30 3559 H 328.691 -1.34362 1.54299 0
M  V30 3560 H 328.701 -3.78992 1.51092 0
M  V30 3561 H 327.376 -3.28722 2.54784 0
M  V30 3562 H 325.953 -3.65216 0.7531 0
M  V30 3563 N 328.138 -0.959301 -1.25041 0
M  V30 3564 C 329.554 -0.664474 -1.4511 0
M  V30 3565 C 329.754 0.776481 -1.85938 0
M  V30 3566 O 328.81 1.55128 -1.99227 0
M  V30 3567 C 330.123 -1.64139 -2.5195 0
M  V30 3568 C 331.671 -1.65309 -2.65786 0
M  V30 3569 C 332.146 -2.61777 -3.75815 0
M  V30 3570 N 333.637 -2.60169 -3.83231 0
M  V30 3571 C 334.372 -3.31489 -4.6787 0
M  V30 3572 N 333.868 -4.12298 -5.56761 0
M  V30 3573 N 335.661 -3.20354 -4.61876 0
M  V30 3574 H 327.812 -1.89043 -0.968332 0
M  V30 3575 H 330.075 -0.813408 -0.4869 0
M  V30 3576 H 329.781 -2.67086 -2.28819 0
M  V30 3577 H 329.655 -1.40756 -3.49954 0
M  V30 3578 H 332.042 -0.630778 -2.8828 0
M  V30 3579 H 332.123 -1.92753 -1.68167 0
M  V30 3580 H 331.767 -3.64137 -3.54071 0
M  V30 3581 H 331.697 -2.31616 -4.72929 0
M  V30 3582 H 334.188 -2.01507 -3.19692 0
M  V30 3583 H 334.501 -4.63625 -6.18281 0
M  V30 3584 H 332.846 -4.16395 -5.56454 0
M  V30 3585 H 336.037 -2.56692 -3.91442 0
M  V30 3586 H 336.21 -3.76201 -5.27614 0
M  V30 3587 N 329.616 1.39756 -0.72842 0
M  V30 3588 C 330.893 1.94574 -0.200079 0
M  V30 3589 C 331.273 1.66569 1.29684 0
M  V30 3590 O 330.621 0.990326 2.05924 0
M  V30 3591 C 330.831 3.45004 -0.526608 0
M  V30 3592 C 332.179 4.21965 -0.472318 0
M  V30 3593 O 333.203 3.53173 -0.463413 0
M  V30 3594 O 332.062 5.44552 -0.461075 0
M  V30 3595 H 329.156 0.826289 -0.0342851 0
M  V30 3596 H 331.702 1.49293 -0.806829 0
M  V30 3597 H 330.474 3.58796 -1.56144 0
M  V30 3598 H 330.097 3.97449 0.109449 0
M  V30 3599 N 331.094 0.475555 1.50254 0
M  V30 3600 C 332.042 -0.330276 2.30243 0
M  V30 3601 C 333.036 -0.986306 1.37726 0
M  V30 3602 O 334.242 -0.9169 1.54897 0
M  V30 3603 H 330.617 -0.125353 0.741479 0
M  V30 3604 H 332.588 0.364702 2.96163 0
M  V30 3605 C 331.337 -1.39704 3.18399 0
M  V30 3606 H 330.66 -0.901621 3.89501 0
M  V30 3607 H 332.1 -1.93336 3.77355 0
M  V30 3608 C 330.559 -2.4014 2.36293 0
M  V30 3609 O 331.089 -3.45504 2.04914 0
M  V30 3610 N 329.295 -2.1197 1.98789 0
M  V30 3611 H 328.842 -1.2631 2.24507 0
M  V30 3612 H 328.8 -2.79403 1.44157 0
M  V30 3613 N 332.573 -1.56217 0.208337 0
M  V30 3614 C 333.503 -2.22694 -0.702116 0
M  V30 3615 C 334.484 -1.19432 -1.2112 0
M  V30 3616 O 335.669 -1.47978 -1.25762 0
M  V30 3617 C 332.799 -2.8966 -1.9161 0
M  V30 3618 C 331.753 -3.9928 -1.5414 0
M  V30 3619 C 331.079 -4.53476 -2.83308 0
M  V30 3620 C 332.379 -5.17012 -0.741339 0
M  V30 3621 H 334.073 -2.99034 -0.147898 0
M  V30 3622 H 331.619 -1.43831 -0.0696951 0
M  V30 3623 H 333.572 -3.34852 -2.55836 0
M  V30 3624 H 332.296 -2.10746 -2.49507 0
M  V30 3625 H 330.955 -3.54799 -0.922668 0
M  V30 3626 H 330.603 -3.71308 -3.39322 0
M  V30 3627 H 330.303 -5.27451 -2.58976 0
M  V30 3628 H 331.827 -5.01378 -3.485 0
M  V30 3629 H 333.241 -5.58667 -1.28699 0
M  V30 3630 H 331.638 -5.97137 -0.595627 0
M  V30 3631 H 332.708 -4.8423 0.254851 0
M  V30 3632 N 334.051 0.0651679 -1.57465 0
M  V30 3633 C 334.981 1.07693 -2.07182 0
M  V30 3634 C 335.962 1.39962 -0.966673 0
M  V30 3635 O 337.147 1.49475 -1.2398 0
M  V30 3636 C 334.277 2.3885 -2.52127 0
M  V30 3637 C 333.231 2.20917 -3.66579 0
M  V30 3638 C 332.557 3.57515 -3.97601 0
M  V30 3639 C 333.857 1.62493 -4.9638 0
M  V30 3640 H 335.551 0.663199 -2.91962 0
M  V30 3641 H 333.097 0.317569 -1.40455 0
M  V30 3642 H 335.05 3.09928 -2.85522 0
M  V30 3643 H 333.774 2.82215 -1.64384 0
M  V30 3644 H 332.433 1.52279 -3.33477 0
M  V30 3645 H 332.081 3.98463 -3.06979 0
M  V30 3646 H 331.781 3.46353 -4.74672 0
M  V30 3647 H 333.305 4.30013 -4.33499 0
M  V30 3648 H 334.719 2.23445 -5.27963 0
M  V30 3649 H 333.116 1.62009 -5.77818 0
M  V30 3650 H 334.186 0.587041 -4.81333 0
M  V30 3651 N 335.529 1.53961 0.336706 0
M  V30 3652 C 336.479 1.7881 1.41461 0
M  V30 3653 C 337.463 0.643561 1.47469 0
M  V30 3654 O 338.655 0.903166 1.52223 0
M  V30 3655 C 335.784 2.00722 2.78506 0
M  V30 3656 C 334.87 3.2126 2.76862 0
M  V30 3657 N 335.261 4.42588 2.44845 0
M  V30 3658 C 333.559 3.22568 3.08004 0
M  V30 3659 C 334.26 5.2447 2.51607 0
M  V30 3660 N 333.236 4.61344 2.87511 0
M  V30 3661 H 337.038 2.70205 1.15615 0
M  V30 3662 H 334.552 1.52978 0.545112 0
M  V30 3663 H 336.549 2.1666 3.5618 0
M  V30 3664 H 335.209 1.10573 3.05293 0
M  V30 3665 H 336.22 4.69819 2.17922 0
M  V30 3666 H 332.897 2.42409 3.39918 0
M  V30 3667 H 334.287 6.31324 2.29955 0
M  V30 3668 N 337.007 -0.598083 1.45811 0
M  V30 3669 C 337.939 -1.72231 1.51225 0
M  V30 3670 C 338.952 -1.57757 0.402059 0
M  V30 3671 O 340.141 -1.65464 0.669624 0
M  V30 3672 C 337.241 -3.10331 1.3619 0
M  V30 3673 C 336.414 -3.50955 2.61054 0
M  V30 3674 C 335.473 -4.68055 2.40439 0
M  V30 3675 O 334.499 -4.74691 3.14097 0
M  V30 3676 N 335.701 -5.61941 1.45612 0
M  V30 3677 H 338.466 -1.68046 2.48154 0
M  V30 3678 H 336.027 -0.783637 1.41671 0
M  V30 3679 H 338.019 -3.86439 1.20195 0
M  V30 3680 H 336.589 -3.0897 0.475015 0
M  V30 3681 H 335.809 -2.64711 2.92099 0
M  V30 3682 H 337.097 -3.74858 3.44034 0
M  V30 3683 H 336.495 -5.59301 0.848431 0
M  V30 3684 H 335.052 -6.37542 1.35585 0
M  V30 3685 N 338.485 -1.33259 -0.841409 0
M  V30 3686 C 339.417 -1.19136 -1.95804 0
M  V30 3687 C 340.43 -0.122965 -1.62335 0
M  V30 3688 O 341.619 -0.373154 -1.74556 0
M  V30 3689 C 338.719 -0.804268 -3.29218 0
M  V30 3690 C 337.892 -1.96376 -3.90839 0
M  V30 3691 C 336.951 -1.55806 -5.02604 0
M  V30 3692 O 335.977 -2.27203 -5.21888 0
M  V30 3693 N 337.179 -0.461609 -5.78662 0
M  V30 3694 H 339.944 -2.15326 -2.08458 0
M  V30 3695 H 337.505 -1.25971 -1.017 0
M  V30 3696 H 339.497 -0.51501 -4.0141 0
M  V30 3697 H 338.067 0.0668809 -3.12528 0
M  V30 3698 H 337.287 -2.41879 -3.11269 0
M  V30 3699 H 338.575 -2.73966 -4.28742 0
M  V30 3700 H 337.973 0.132343 -5.65545 0
M  V30 3701 H 336.53 -0.232013 -6.51387 0
M  V30 3702 N 339.963 1.05934 -1.16686 0
M  V30 3703 C 340.896 2.1295 -0.820225 0
M  V30 3704 C 341.874 1.61242 0.209722 0
M  V30 3705 O 343.058 1.88271 0.0929688 0
M  V30 3706 C 340.185 3.3797 -0.22223 0
M  V30 3707 C 339.231 4.08488 -1.22637 0
M  V30 3708 S 340.064 4.58015 -2.77457 0
M  V30 3709 C 341.22 5.86292 -2.19117 0
M  V30 3710 H 341.453 2.42025 -1.72659 0
M  V30 3711 H 338.986 1.18423 -0.990722 0
M  V30 3712 H 340.944 4.10335 0.116322 0
M  V30 3713 H 339.605 3.07045 0.66196 0
M  V30 3714 H 338.798 4.98291 -0.756455 0
M  V30 3715 H 338.4 3.42154 -1.51019 0
M  V30 3716 H 340.692 6.59246 -1.56209 0
M  V30 3717 H 341.635 6.38019 -3.07144 0
M  V30 3718 H 342.043 5.40497 -1.62858 0
M  V30 3719 N 341.441 0.965919 1.2453 0
M  V30 3720 C 342.371 0.513476 2.27784 0
M  V30 3721 C 343.352 -0.445974 1.6415 0
M  V30 3722 O 344.537 -0.342485 1.91156 0
M  V30 3723 C 341.667 -0.198839 3.4673 0
M  V30 3724 C 340.621 0.676456 4.2262 0
M  V30 3725 C 339.947 -0.167248 5.34438 0
M  V30 3726 C 341.247 1.96017 4.84123 0
M  V30 3727 H 342.941 1.3765 2.65881 0
M  V30 3728 H 340.487 0.663321 1.27813 0
M  V30 3729 H 342.44 -0.526567 4.18097 0
M  V30 3730 H 341.164 -1.0962 3.07654 0
M  V30 3731 H 339.823 0.98743 3.53052 0
M  V30 3732 H 339.471 -1.0647 4.91603 0
M  V30 3733 H 339.171 0.415181 5.86131 0
M  V30 3734 H 340.695 -0.489688 6.08633 0
M  V30 3735 H 342.109 1.69814 5.47573 0
M  V30 3736 H 340.506 2.48918 5.4604 0
M  V30 3737 H 341.576 2.65622 4.05676 0
M  V30 3738 N 342.919 -1.39368 0.735821 0
M  V30 3739 C 343.851 -2.2913 0.0567723 0
M  V30 3740 C 344.864 -1.46859 -0.702589 0
M  V30 3741 O 346.053 -1.69925 -0.546616 0
M  V30 3742 C 343.153 -3.25492 -0.943823 0
M  V30 3743 C 342.326 -4.36709 -0.24581 0
M  V30 3744 C 341.385 -5.13376 -1.15463 0
M  V30 3745 O 340.411 -5.65683 -0.631803 0
M  V30 3746 N 341.613 -5.24656 -2.48427 0
M  V30 3747 H 344.378 -2.88047 0.827582 0
M  V30 3748 H 341.939 -1.50957 0.585112 0
M  V30 3749 H 343.931 -3.73657 -1.55443 0
M  V30 3750 H 342.501 -2.676 -1.61583 0
M  V30 3751 H 341.721 -3.9041 0.545286 0
M  V30 3752 H 343.009 -5.08244 0.237891 0
M  V30 3753 H 342.407 -4.83679 -2.93379 0
M  V30 3754 H 340.964 -5.76258 -3.04582 0
M  V30 3755 N 344.397 -0.483516 -1.5 0
M  V30 3756 C 345.622 0.0667119 -2.07293 0
M  V30 3757 C 346.047 1.3164 -1.3436 0
M  V30 3758 O 345.405 1.76945 -0.394987 0
M  V30 3759 C 345.453 0.321126 -3.59167 0
M  V30 3760 O 344.557 1.39927 -3.87936 0
M  V30 3761 H 343.898 -0.0184758 -0.663743 0
M  V30 3762 H 346.428 -0.678125 -1.93035 0
M  V30 3763 H 346.438 0.557906 -4.04168 0
M  V30 3764 H 345.113 -0.592007 -4.11665 0
M  V30 3765 H 343.69 1.14882 -3.54763 0
M  V30 3766 N 345.875 1.56104 -0.216619 0
M  V30 3767 C 346.785 2.23694 0.706982 0
M  V30 3768 C 347.801 1.24295 1.21765 0
M  V30 3769 O 348.977 1.57094 1.2603 0
M  V30 3770 C 346.042 2.8998 1.90033 0
M  V30 3771 C 345.103 4.04708 1.43213 0
M  V30 3772 C 344.336 4.67824 2.56859 0
M  V30 3773 O 344.559 4.29913 3.74874 0
M  V30 3774 O 343.493 5.56905 2.28343 0
M  V30 3775 H 347.319 3.03272 0.161235 0
M  V30 3776 H 344.904 1.49394 0.0136177 0
M  V30 3777 H 346.786 3.31837 2.59735 0
M  V30 3778 H 345.461 2.13365 2.43428 0
M  V30 3779 H 344.368 3.6743 0.70327 0
M  V30 3780 H 345.701 4.83051 0.944615 0
M  V30 3781 N 347.353 -0.0568162 1.57498 0
M  V30 3782 C 348.602 -0.752001 1.87157 0
M  V30 3783 C 348.915 -1.77978 0.811375 0
M  V30 3784 O 350.121 -2.52559 0.996293 0
M  V30 3785 C 348.577 -1.38844 3.3204 0
M  V30 3786 C 348.185 -0.398456 4.46225 0
M  V30 3787 C 349.929 -2.06512 3.70882 0
M  V30 3788 C 347.836 -1.04166 5.82154 0
M  V30 3789 H 346.766 -0.28461 0.698222 0
M  V30 3790 H 349.417 -0.00561272 1.83499 0
M  V30 3791 H 347.799 -2.1836 3.30356 0
M  V30 3792 H 348.973 0.367977 4.59328 0
M  V30 3793 H 347.288 0.174592 4.16034 0
M  V30 3794 H 349.885 -2.55437 4.6974 0
M  V30 3795 H 350.228 -2.87117 3.01445 0
M  V30 3796 H 350.761 -1.33808 3.7462 0
M  V30 3797 H 347.5 -0.275614 6.5492 0
M  V30 3798 H 347.02 -1.7786 5.72823 0
M  V30 3799 H 348.699 -1.55715 6.27982 0
M  V30 3800 N 348.832 -1.54138 -0.328536 0
M  V30 3801 C 349.764 -1.79509 -1.4251 0
M  V30 3802 C 350.777 -0.67688 -1.48061 0
M  V30 3803 O 351.966 -0.953898 -1.50874 0
M  V30 3804 C 349.066 -1.89337 -2.81078 0
M  V30 3805 C 348.239 -3.19443 -2.98789 0
M  V30 3806 C 347.298 -3.20036 -4.17688 0
M  V30 3807 O 346.324 -3.93697 -4.11086 0
M  V30 3808 N 347.526 -2.43467 -5.26976 0
M  V30 3809 H 350.291 -2.74139 -1.21111 0
M  V30 3810 H 347.852 -1.53373 -0.518499 0
M  V30 3811 H 349.844 -1.87167 -3.58818 0
M  V30 3812 H 348.414 -1.01826 -2.95551 0
M  V30 3813 H 347.634 -3.34614 -2.08391 0
M  V30 3814 H 348.922 -4.05354 -3.07515 0
M  V30 3815 H 348.32 -1.83201 -5.35214 0
M  V30 3816 H 346.877 -2.4708 -6.03154 0
M  V30 3817 N 350.31 0.590341 -1.46126 0
M  V30 3818 C 351.273 1.68194 -1.55703 0
M  V30 3819 C 352.273 1.54808 -0.434868 0
M  V30 3820 O 353.463 1.59564 -0.698928 0
M  V30 3821 C 350.595 3.07575 -1.47005 0
M  V30 3822 H 351.788 1.61064 -2.52979 0
M  V30 3823 H 349.341 0.807541 -1.33823 0
M  V30 3824 H 350.076 3.20268 -0.509785 0
M  V30 3825 H 349.861 3.187 -2.28414 0
M  V30 3826 H 351.351 3.87055 -1.56776 0
M  V30 3827 N 351.788 1.33704 0.83433 0
M  V30 3828 C 352.721 1.18675 1.94914 0
M  V30 3829 C 353.699 0.0811145 1.62398 0
M  V30 3830 O 354.883 0.244186 1.86912 0
M  V30 3831 C 352.01 0.821231 3.28593 0
M  V30 3832 C 351.056 1.93501 3.80079 0
M  V30 3833 S 351.889 3.54671 4.01209 0
M  V30 3834 C 353.045 3.20136 5.37833 0
M  V30 3835 H 353.278 2.13043 2.07364 0
M  V30 3836 H 350.811 1.18598 0.988624 0
M  V30 3837 H 352.769 0.617123 4.05835 0
M  V30 3838 H 351.43 -0.103927 3.13928 0
M  V30 3839 H 350.623 1.63273 4.76821 0
M  V30 3840 H 350.225 2.09601 3.09747 0
M  V30 3841 H 352.517 2.71242 6.20833 0
M  V30 3842 H 353.46 4.15975 5.73036 0
M  V30 3843 H 353.868 2.56613 5.02802 0
M  V30 3844 N 353.266 -1.05314 1.17247 0
M  V30 3845 C 354.213 -2.13031 0.888058 0
M  V30 3846 C 355.183 -1.65253 -0.167537 0
M  V30 3847 O 356.368 -1.90775 -0.0305974 0
M  V30 3848 C 353.508 -3.42702 0.406147 0
M  V30 3849 C 352.621 -4.04161 1.52572 0
M  V30 3850 C 351.756 -5.21744 0.997808 0
M  V30 3851 C 350.795 -5.75207 2.09291 0
M  V30 3852 N 349.932 -6.84094 1.57986 0
M  V30 3853 H 354.772 -2.36698 1.81048 0
M  V30 3854 H 352.309 -1.16121 0.903013 0
M  V30 3855 H 354.267 -4.17059 0.108305 0
M  V30 3856 H 352.897 -3.19222 -0.479313 0
M  V30 3857 H 351.949 -3.27253 1.93931 0
M  V30 3858 H 353.261 -4.39881 2.35172 0
M  V30 3859 H 352.415 -6.03168 0.653739 0
M  V30 3860 H 351.154 -4.87495 0.141232 0
M  V30 3861 H 350.159 -4.92414 2.44557 0
M  V30 3862 H 351.384 -6.11505 2.95362 0
M  V30 3863 H 349.33 -6.51745 0.74598 0
M  V30 3864 H 349.247 -7.18811 2.34195 0
M  V30 3865 H 350.515 -7.69172 1.26468 0
M  V30 3866 N 354.744 -0.972509 -1.24016 0
M  V30 3867 C 355.691 -0.505969 -2.25186 0
M  V30 3868 C 356.661 0.451009 -1.5986 0
M  V30 3869 O 357.846 0.360307 -1.87367 0
M  V30 3870 C 354.986 0.193089 -3.44559 0
M  V30 3871 C 354.099 -0.803222 -4.24467 0
M  V30 3872 C 353.234 -0.0797793 -5.3114 0
M  V30 3873 C 352.273 -1.06583 -6.02749 0
M  V30 3874 N 351.41 -0.372074 -7.01113 0
M  V30 3875 H 356.25 -1.37351 -2.64459 0
M  V30 3876 H 353.787 -0.688419 -1.29997 0
M  V30 3877 H 355.745 0.615125 -4.1264 0
M  V30 3878 H 354.375 1.02455 -3.06109 0
M  V30 3879 H 353.427 -1.34368 -3.55878 0
M  V30 3880 H 354.739 -1.55494 -4.73944 0
M  V30 3881 H 353.893 0.400015 -6.0538 0
M  V30 3882 H 352.632 0.704597 -4.82583 0
M  V30 3883 H 351.637 -1.55645 -5.27309 0
M  V30 3884 H 352.862 -1.85074 -6.53395 0
M  V30 3885 H 350.808 0.393238 -6.5482 0
M  V30 3886 H 350.725 -1.06258 -7.48495 0
M  V30 3887 H 351.993 0.0855932 -7.79453 0
M  V30 3888 N 356.222 1.38976 -0.743202 0
M  V30 3889 C 357.152 2.33171 -0.123873 0
M  V30 3890 C 358.133 1.54336 0.71516 0
M  V30 3891 O 359.318 1.82696 0.658467 0
M  V30 3892 C 356.448 3.38474 0.777978 0
M  V30 3893 C 355.402 4.27979 0.0424758 0
M  V30 3894 C 354.728 5.2405 1.06189 0
M  V30 3895 C 356.028 5.10155 -1.1198 0
M  V30 3896 H 357.722 2.85213 -0.910709 0
M  V30 3897 H 355.268 1.37133 -0.439388 0
M  V30 3898 H 357.221 4.03328 1.22084 0
M  V30 3899 H 355.945 2.84891 1.59702 0
M  V30 3900 H 354.604 3.64616 -0.380853 0
M  V30 3901 H 354.252 4.66758 1.87472 0
M  V30 3902 H 353.952 5.84785 0.574485 0
M  V30 3903 H 355.476 5.9178 1.50428 0
M  V30 3904 H 356.89 5.68307 -0.75499 0
M  V30 3905 H 355.287 5.80073 -1.53738 0
M  V30 3906 H 356.357 4.44504 -1.93764 0
M  V30 3907 N 357.7 0.491464 1.49741 0
M  V30 3908 C 359.116 0.146835 1.58923 0
M  V30 3909 C 359.316 -1.34804 1.49767 0
M  V30 3910 O 358.372 -2.12317 1.36667 0
M  V30 3911 C 359.685 0.715157 2.92072 0
M  V30 3912 C 361.233 0.680407 3.05515 0
M  V30 3913 C 361.708 1.22663 4.41269 0
M  V30 3914 N 363.199 1.18691 4.47735 0
M  V30 3915 C 363.934 1.57984 5.51207 0
M  V30 3916 N 363.43 2.04824 6.6183 0
M  V30 3917 N 365.223 1.49459 5.41866 0
M  V30 3918 H 357.374 1.46347 1.53936 0
M  V30 3919 H 359.637 0.606453 0.728642 0
M  V30 3920 H 359.343 1.76317 3.04311 0
M  V30 3921 H 359.217 0.17018 3.76816 0
M  V30 3922 H 361.604 -0.358743 2.92911 0
M  V30 3923 H 361.685 1.26242 2.22478 0
M  V30 3924 H 361.329 2.26451 4.54623 0
M  V30 3925 H 361.259 0.620637 5.2293 0
M  V30 3926 H 363.75 0.843605 3.68364 0
M  V30 3927 H 364.063 2.32901 7.3687 0
M  V30 3928 H 362.408 2.08791 6.62896 0
M  V30 3929 H 365.599 1.12692 4.54333 0
M  V30 3930 H 365.772 1.80406 6.22381 0
M  V30 3931 N 359.178 -1.55987 0.224894 0
M  V30 3932 C 360.128 -2.17076 -0.697296 0
M  V30 3933 C 361.112 -1.12006 -1.15514 0
M  V30 3934 O 362.304 -1.37985 -1.10857 0
M  V30 3935 C 359.433 -2.85679 -1.90374 0
M  V30 3936 C 358.519 -3.97977 -1.46543 0
M  V30 3937 N 358.91 -5.00359 -0.739909 0
M  V30 3938 C 357.208 -4.10128 -1.75245 0
M  V30 3939 C 357.909 -5.79407 -0.515939 0
M  V30 3940 N 356.885 -5.32892 -1.07364 0
M  V30 3941 H 360.687 -2.93592 -0.134594 0
M  V30 3942 H 358.201 -1.62379 0.0262885 0
M  V30 3943 H 360.198 -3.27857 -2.57518 0
M  V30 3944 H 358.858 -2.1066 -2.47088 0
M  V30 3945 H 359.869 -5.16412 -0.392253 0
M  V30 3946 H 356.546 -3.46263 -2.33255 0
M  V30 3947 H 357.936 -6.71872 0.0617349 0
M  V30 3948 N 360.656 0.0484629 -1.57525 0
M  V30 3949 C 361.603 1.05504 -2.05275 0
M  V30 3950 C 362.573 1.37084 -0.937927 0
M  V30 3951 O 363.758 1.47754 -1.2072 0
M  V30 3952 C 360.898 2.35676 -2.52093 0
M  V30 3953 C 360.011 2.10423 -3.77288 0
M  V30 3954 C 359.146 3.34327 -4.12794 0
M  V30 3955 C 358.185 3.04542 -5.30962 0
M  V30 3956 N 357.322 4.20841 -5.61994 0
M  V30 3957 H 362.162 0.640885 -2.91027 0
M  V30 3958 H 359.699 0.304854 -1.43906 0
M  V30 3959 H 361.657 3.11709 -2.77297 0
M  V30 3960 H 360.287 2.7485 -1.69285 0
M  V30 3961 H 359.339 1.24976 -3.59284 0
M  V30 3962 H 360.651 1.84438 -4.63448 0
M  V30 3963 H 359.805 4.1874 -4.39024 0
M  V30 3964 H 358.544 3.63408 -3.25247 0
M  V30 3965 H 357.549 2.18528 -5.04505 0
M  V30 3966 H 358.774 2.76758 -6.20146 0
M  V30 3967 H 356.72 4.4991 -4.77406 0
M  V30 3968 H 356.637 3.98212 -6.42622 0
M  V30 3969 H 357.905 5.06184 -5.92789 0
M  V30 3970 N 362.134 1.5431 0.320358 0
M  V30 3971 C 363.084 1.803 1.39556 0
M  V30 3972 C 364.068 0.659166 1.46778 0
M  V30 3973 O 365.26 0.91926 1.51257 0
M  V30 3974 C 362.389 2.03665 2.76361 0
M  V30 3975 C 361.475 3.24178 2.73439 0
M  V30 3976 N 361.866 4.4516 2.40137 0
M  V30 3977 C 360.164 3.25816 3.04565 0
M  V30 3978 C 360.865 5.27109 2.4603 0
M  V30 3979 N 359.841 4.64368 2.82601 0
M  V30 3980 H 363.643 2.71416 1.12742 0
M  V30 3981 H 361.157 1.53548 0.528856 0
M  V30 3982 H 363.154 2.20425 3.53862 0
M  V30 3983 H 361.814 1.13805 3.04103 0
M  V30 3984 H 362.825 4.72104 2.12927 0
M  V30 3985 H 359.502 2.46001 3.37328 0
M  V30 3986 H 360.892 6.33728 2.23246 0
M  V30 3987 N 363.613 -0.582584 1.46437 0
M  V30 3988 C 364.862 -1.337 1.5102 0
M  V30 3989 C 365.175 -1.94891 0.166359 0
M  V30 3990 O 366.381 -2.71351 0.0899954 0
M  V30 3991 C 364.837 -2.42315 2.66104 0
M  V30 3992 C 364.445 -1.87427 4.06909 0
M  V30 3993 C 366.189 -3.19099 2.79958 0
M  V30 3994 C 364.096 -2.93672 5.13333 0
M  V30 3995 H 363.026 -0.502619 0.562041 0
M  V30 3996 H 365.677 -0.621701 1.72647 0
M  V30 3997 H 364.059 -3.16645 2.37807 0
M  V30 3998 H 365.233 -1.19639 4.44998 0
M  V30 3999 H 363.548 -1.2331 3.97723 0
M  V30 4000 H 366.145 -3.9839 3.56636 0
M  V30 4001 H 366.488 -3.71695 1.87479 0
M  V30 4002 H 367.021 -2.51875 3.07902 0
M  V30 4003 H 363.76 -2.45962 6.07604 0
M  V30 4004 H 363.28 -3.59948 4.79789 0
M  V30 4005 H 364.959 -3.5762 5.39182 0
M  V30 4006 N 365.091 -1.34144 -0.827227 0
M  V30 4007 C 366.021 -1.28005 -1.95287 0
M  V30 4008 C 367.002 -0.158321 -1.69362 0
M  V30 4009 O 368.187 -0.349987 -1.9102 0
M  V30 4010 C 365.317 -1.03036 -3.31664 0
M  V30 4011 C 364.271 -2.11628 -3.72019 0
M  V30 4012 C 363.597 -1.71854 -5.0633 0
M  V30 4013 C 364.897 -3.53417 -3.8457 0
M  V30 4014 H 366.591 -2.22187 -2.00682 0
M  V30 4015 H 364.137 -1.0696 -0.964135 0
M  V30 4016 H 366.09 -0.973863 -4.09993 0
M  V30 4017 H 364.814 -0.0529391 -3.26557 0
M  V30 4018 H 363.473 -2.16339 -2.95961 0
M  V30 4019 H 363.121 -0.727841 -4.97706 0
M  V30 4020 H 362.821 -2.44531 -5.34302 0
M  V30 4021 H 364.345 -1.67692 -5.87122 0
M  V30 4022 H 365.759 -3.51142 -4.5318 0
M  V30 4023 H 364.156 -4.24679 -4.2399 0
M  V30 4024 H 365.226 -3.91072 -2.86689 0
M  V30 4025 N 366.569 1.04691 -1.17803 0
M  V30 4026 C 367.532 2.10724 -0.901545 0
M  V30 4027 C 368.532 1.6042 0.110437 0
M  V30 4028 O 369.722 1.7377 -0.122303 0
M  V30 4029 C 366.854 3.39084 -0.351409 0
M  V30 4030 H 368.047 2.36686 -1.84174 0
M  V30 4031 H 365.6 1.21015 -0.98919 0
M  V30 4032 H 366.335 3.18782 0.59569 0
M  V30 4033 H 366.12 3.76909 -1.08083 0
M  V30 4034 H 367.61 4.17227 -0.176451 0
M  V30 4035 N 368.047 0.979072 1.23499 0
M  V30 4036 C 368.977 0.537606 2.27227 0
M  V30 4037 C 369.958 -0.428539 1.64613 0
M  V30 4038 O 371.143 -0.322191 1.91509 0
M  V30 4039 C 368.273 -0.162052 3.46922 0
M  V30 4040 C 367.227 0.721242 4.21879 0
M  V30 4041 C 366.553 -0.110555 5.34586 0
M  V30 4042 C 367.853 2.01141 4.82016 0
M  V30 4043 H 369.547 1.40462 2.64406 0
M  V30 4044 H 367.093 0.67684 1.27102 0
M  V30 4045 H 369.046 -0.482192 4.18632 0
M  V30 4046 H 367.77 -1.06351 3.08799 0
M  V30 4047 H 366.429 1.02482 3.51984 0
M  V30 4048 H 366.077 -1.0125 4.92704 0
M  V30 4049 H 365.777 0.477325 5.85658 0
M  V30 4050 H 367.301 -0.425107 6.09118 0
M  V30 4051 H 368.715 1.75612 5.45741 0
M  V30 4052 H 367.112 2.54695 5.43369 0
M  V30 4053 H 368.182 2.69909 4.02836 0
M  V30 4054 N 369.525 -1.3858 0.750561 0
M  V30 4055 C 370.755 -2.04175 0.31564 0
M  V30 4056 C 371.163 -1.56726 -1.05989 0
M  V30 4057 O 370.506 -0.734225 -1.68389 0
M  V30 4058 C 370.568 -3.58585 0.256389 0
M  V30 4059 C 370.232 -4.29077 1.57296 0
M  V30 4060 C 371.229 -4.54656 2.52159 0
M  V30 4061 C 368.914 -4.67324 1.84156 0
M  V30 4062 C 370.908 -5.17512 3.72103 0
M  V30 4063 C 368.595 -5.29905 3.04374 0
M  V30 4064 C 369.593 -5.54933 3.98168 0
M  V30 4065 O 369.281 -6.16212 5.16273 0
M  V30 4066 H 369.013 -0.662742 0.133226 0
M  V30 4067 H 371.567 -1.78313 1.01948 0
M  V30 4068 H 369.797 -3.83406 -0.503677 0
M  V30 4069 H 371.486 -4.05628 -0.148612 0
M  V30 4070 H 372.252 -4.25539 2.32683 0
M  V30 4071 H 368.131 -4.47191 1.11988 0
M  V30 4072 H 371.675 -5.36963 4.45327 0
M  V30 4073 H 367.572 -5.58444 3.23745 0
M  V30 4074 H 368.34 -6.34701 5.16815 0
M  V30 4075 N 371.003 -0.499398 -1.49478 0
M  V30 4076 C 371.966 0.268838 -2.27618 0
M  V30 4077 C 372.966 0.895383 -1.33565 0
M  V30 4078 O 374.156 0.760164 -1.56739 0
M  V30 4079 C 371.288 1.38559 -3.11471 0
M  V30 4080 H 372.481 -0.416812 -2.96989 0
M  V30 4081 H 370.034 -0.254313 -1.54217 0
M  V30 4082 H 370.769 2.10544 -2.46661 0
M  V30 4083 H 370.554 0.941797 -3.80621 0
M  V30 4084 H 372.044 1.92678 -3.70493 0
M  V30 4085 N 372.481 1.55866 -0.233164 0
M  V30 4086 C 373.727 1.98897 0.395959 0
M  V30 4087 C 374.06 1.12091 1.58585 0
M  V30 4088 O 373.335 0.181182 1.93654 0
M  V30 4089 C 373.618 3.50658 0.819224 0
M  V30 4090 C 373.471 4.48233 -0.375109 0
M  V30 4091 C 374.79 4.07135 1.67121 0
M  V30 4092 H 371.909 0.723102 0.142451 0
M  V30 4093 H 374.551 1.87082 -0.331725 0
M  V30 4094 H 372.701 3.60857 1.43925 0
M  V30 4095 H 374.373 4.50031 -1.01341 0
M  V30 4096 H 372.616 4.21624 -1.02058 0
M  V30 4097 H 373.287 5.51988 -0.0358328 0
M  V30 4098 H 375.763 3.99952 1.14795 0
M  V30 4099 H 374.639 5.13615 1.93625 0
M  V30 4100 H 374.9 3.54736 2.63846 0
M  V30 4101 N 373.959 -0.0401083 1.57549 0
M  V30 4102 C 375.205 -0.734211 1.89043 0
M  V30 4103 C 375.538 -1.75591 0.829535 0
M  V30 4104 O 374.813 -1.93868 -0.156706 0
M  V30 4105 C 375.096 -1.41374 3.31188 0
M  V30 4106 C 374.949 -0.406299 4.47961 0
M  V30 4107 C 376.268 -2.35061 3.72068 0
M  V30 4108 H 373.387 -0.265447 0.687537 0
M  V30 4109 H 376.029 0.00294087 1.9 0
M  V30 4110 H 374.179 -2.04206 3.30503 0
M  V30 4111 H 375.851 0.219255 4.60779 0
M  V30 4112 H 374.094 0.275485 4.32924 0
M  V30 4113 H 374.765 -0.920022 5.44279 0
M  V30 4114 H 377.241 -1.82282 3.74049 0
M  V30 4115 H 376.117 -2.79593 4.72355 0
M  V30 4116 H 376.378 -3.21258 3.0372 0
M  V30 4117 N 375.437 -1.54477 -0.31217 0
M  V30 4118 C 376.662 -1.77526 -1.07235 0
M  V30 4119 C 377.087 -0.527775 -1.80544 0
M  V30 4120 O 376.445 0.52121 -1.73646 0
M  V30 4121 C 376.493 -2.97535 -2.03728 0
M  V30 4122 O 375.597 -2.69878 -3.11833 0
M  V30 4123 H 374.938 -0.58792 -0.30862 0
M  V30 4124 H 377.468 -2.01532 -0.352993 0
M  V30 4125 H 377.478 -3.25198 -2.46395 0
M  V30 4126 H 376.153 -3.87996 -1.49774 0
M  V30 4127 H 374.73 -2.53199 -2.7376 0
M  V30 4128 N 376.915 0.57481 -1.46744 0
M  V30 4129 C 378.161 1.3347 -1.52688 0
M  V30 4130 C 378.494 1.93353 -0.181229 0
M  V30 4131 O 377.769 1.76912 0.808237 0
M  V30 4132 C 378.052 2.45811 -2.63152 0
M  V30 4133 C 377.905 1.90912 -4.07275 0
M  V30 4134 C 379.224 3.47822 -2.69644 0
M  V30 4135 H 376.343 0.483935 -0.555856 0
M  V30 4136 H 378.985 0.644968 -1.78718 0
M  V30 4137 H 377.135 3.04646 -2.41088 0
M  V30 4138 H 378.807 1.36473 -4.4065 0
M  V30 4139 H 377.05 1.21691 -4.16382 0
M  V30 4140 H 377.721 2.72042 -4.80309 0
M  V30 4141 H 380.197 2.9888 -2.895 0
M  V30 4142 H 379.073 4.23876 -3.48742 0
M  V30 4143 H 379.334 4.05555 -1.76005 0
M  V30 4144 N 378.394 1.34581 0.820102 0
M  V30 4145 C 379.642 1.26845 1.57336 0
M  V30 4146 C 379.963 -0.160667 1.94337 0
M  V30 4147 O 379.233 -1.09396 1.6251 0
M  V30 4148 H 377.813 0.466514 0.583415 0
M  V30 4149 H 380.475 1.68526 0.979027 0
M  V30 4150 H 379.571 1.87513 2.4949 0
M  V30 4151 N 379.872 -1.04064 1.18357 0
M  V30 4152 C 381.149 -1.74252 0.888581 0
M  V30 4153 C 381.529 -2.02138 -0.60856 0
M  V30 4154 O 380.877 -1.66656 -1.56327 0
M  V30 4155 C 381.087 -3.0277 1.73584 0
M  V30 4156 C 382.435 -3.76506 1.96286 0
M  V30 4157 O 383.459 -3.12668 1.70637 0
M  V30 4158 O 382.318 -4.91243 2.39464 0
M  V30 4159 H 379.412 -0.758271 0.330082 0
M  V30 4160 H 381.958 -1.1013 1.2911 0
M  V30 4161 H 380.73 -2.78299 2.75073 0
M  V30 4162 H 380.353 -3.74631 1.33183 0
M  V30 4163 N 381.35 -0.985608 -1.22978 0
M  V30 4164 C 382.761 -0.693593 -1.73338 0
M  V30 4165 C 383.112 0.789935 -1.79595 0
M  V30 4166 O 382.237 1.61771 -1.43733 0
M  V30 4167 C 382.832 -1.25235 -3.14804 0
M  V30 4168 C 381.391 -1.00987 -3.626 0
M  V30 4169 C 380.538 -1.37695 -2.40698 0
M  V30 4170 H 383.489 -1.15884 -1.08428 0
M  V30 4171 H 383.51 -0.627329 -3.75293 0
M  V30 4172 H 383.022 -2.33209 -3.10218 0
M  V30 4173 H 381.123 0.0535565 -3.72562 0
M  V30 4174 H 381.236 -1.66812 -4.49122 0
M  V30 4175 H 379.6 -0.795459 -2.4196 0
M  V30 4176 H 380.383 -2.46657 -2.38779 0
M  V30 4177 N 382.828 1.3818 -0.7579 0
M  V30 4178 C 384.074 2.00316 -0.316453 0
M  V30 4179 C 384.407 1.60026 1.10025 0
M  V30 4180 O 383.682 0.839835 1.75434 0
M  V30 4181 C 383.965 3.57349 -0.444245 0
M  V30 4182 C 383.818 4.07591 -1.90236 0
M  V30 4183 C 385.137 4.3981 0.1598 0
M  V30 4184 H 382.256 0.727741 -0.116459 0
M  V30 4185 H 384.898 1.6406 -0.958352 0
M  V30 4186 H 383.048 3.88365 0.102233 0
M  V30 4187 H 384.72 3.87199 -2.50748 0
M  V30 4188 H 382.963 3.60297 -2.41595 0
M  V30 4189 H 383.634 5.16677 -1.94291 0
M  V30 4190 H 386.11 4.14971 -0.306314 0
M  V30 4191 H 384.986 5.48885 0.0401675 0
M  V30 4192 H 385.247 4.24102 1.24859 0
M  V30 4193 N 384.306 0.507319 1.49211 0
M  V30 4194 C 385.536 -0.0315292 2.06576 0
M  V30 4195 C 385.944 -1.30791 1.36713 0
M  V30 4196 O 385.287 -1.78324 0.441181 0
M  V30 4197 C 385.349 -0.349104 3.57801 0
M  V30 4198 C 385.013 0.830475 4.49391 0
M  V30 4199 C 386.01 1.72271 4.90529 0
M  V30 4200 C 383.695 1.03107 4.91604 0
M  V30 4201 C 385.689 2.79964 5.72625 0
M  V30 4202 C 383.376 2.11116 5.73475 0
M  V30 4203 C 384.374 2.99379 6.1389 0
M  V30 4204 O 384.062 4.05523 6.94123 0
M  V30 4205 H 383.794 0.0201002 0.675701 0
M  V30 4206 H 386.348 0.705737 1.92895 0
M  V30 4207 H 384.578 -1.14005 3.69513 0
M  V30 4208 H 386.267 -0.827319 3.97379 0
M  V30 4209 H 387.033 1.57958 4.58557 0
M  V30 4210 H 382.912 0.353417 4.59643 0
M  V30 4211 H 386.456 3.48884 6.04091 0
M  V30 4212 H 382.353 2.25421 6.0486 0
M  V30 4213 H 383.121 4.02953 7.1244 0
M  V30 4214 N 385.784 -1.5574 0.241426 0
M  V30 4215 C 387.033 -1.97986 -0.385295 0
M  V30 4216 C 387.346 -1.13267 -1.59468 0
M  V30 4217 O 388.552 -1.45501 -2.2922 0
M  V30 4218 C 387.008 -3.52275 -0.736884 0
M  V30 4219 C 386.616 -4.45726 0.450796 0
M  V30 4220 C 388.36 -4.03189 -1.3281 0
M  V30 4221 C 386.267 -5.91352 0.0756662 0
M  V30 4222 H 385.197 -0.739386 -0.147731 0
M  V30 4223 H 387.848 -1.80308 0.340779 0
M  V30 4224 H 386.23 -3.65628 -1.52094 0
M  V30 4225 H 387.404 -4.44131 1.22819 0
M  V30 4226 H 385.719 -4.05264 0.956573 0
M  V30 4227 H 388.316 -5.09505 -1.62201 0
M  V30 4228 H 388.659 -3.50212 -2.25071 0
M  V30 4229 H 389.192 -3.93141 -0.607069 0
M  V30 4230 H 385.931 -6.48354 0.965272 0
M  V30 4231 H 385.451 -5.96095 -0.665635 0
M  V30 4232 H 387.13 -6.46084 -0.344075 0
M  V30 4233 N 387.262 0.0317525 -1.57568 0
M  V30 4234 C 388.511 0.722131 -1.8833 0
M  V30 4235 C 388.824 1.76664 -0.839587 0
M  V30 4236 O 390.03 2.50942 -1.03635 0
M  V30 4237 C 388.486 1.33544 -3.34207 0
M  V30 4238 C 388.094 0.327415 -4.46802 0
M  V30 4239 C 389.838 2.00585 -3.7412 0
M  V30 4240 C 387.745 0.948915 -5.83738 0
M  V30 4241 H 386.675 0.273466 -0.702661 0
M  V30 4242 H 389.326 -0.0235811 -1.83485 0
M  V30 4243 H 387.708 2.13077 -3.33788 0
M  V30 4244 H 388.882 -0.441006 -4.58685 0
M  V30 4245 H 387.197 -0.240758 -4.15703 0
M  V30 4246 H 389.794 2.47932 -4.73744 0
M  V30 4247 H 390.137 2.82285 -3.05975 0
M  V30 4248 H 390.67 1.27831 -3.76702 0
M  V30 4249 H 387.409 0.171387 -6.55276 0
M  V30 4250 H 386.929 1.68724 -5.7558 0
M  V30 4251 H 388.608 1.45705 -6.3038 0
M  V30 4252 N 388.74 1.54641 0.303973 0
M  V30 4253 C 389.968 1.77768 1.05858 0
M  V30 4254 C 390.383 0.535722 1.8104 0
M  V30 4255 O 389.74 -0.494337 1.75677 0
M  V30 4256 C 389.791 2.9834 2.04146 0
M  V30 4257 O 389.512 4.17736 1.32015 0
M  V30 4258 C 391.013 3.33832 2.91669 0
M  V30 4259 H 388.233 0.592961 0.314067 0
M  V30 4260 H 390.777 2.01583 0.344149 0
M  V30 4261 H 388.932 2.76742 2.71096 0
M  V30 4262 H 389.346 4.85693 1.97998 0
M  V30 4263 H 390.82 4.21448 3.56491 0
M  V30 4264 H 391.297 2.51857 3.59812 0
M  V30 4265 H 391.903 3.57579 2.30254 0
M  V30 4266 N 390.218 -0.567019 1.47046 0
M  V30 4267 C 391.128 -1.70247 1.6141 0
M  V30 4268 C 392.144 -1.66746 0.497157 0
M  V30 4269 O 393.32 -1.86371 0.763389 0
M  V30 4270 C 390.385 -3.06756 1.61561 0
M  V30 4271 C 389.446 -3.21399 2.84607 0
M  V30 4272 C 388.679 -4.51396 2.84741 0
M  V30 4273 O 388.902 -5.36255 1.94388 0
M  V30 4274 O 387.836 -4.69621 3.76483 0
M  V30 4275 H 391.662 -1.61073 2.57467 0
M  V30 4276 H 389.247 -0.735894 1.30019 0
M  V30 4277 H 391.129 -3.8801 1.64396 0
M  V30 4278 H 389.804 -3.16333 0.686684 0
M  V30 4279 H 388.711 -2.39579 2.8732 0
M  V30 4280 H 390.044 -3.16721 3.76761 0
M  V30 4281 N 391.696 -1.35014 -0.812953 0
M  V30 4282 C 392.626 -1.30069 -1.93919 0
M  V30 4283 C 393.607 -0.176275 -1.69184 0
M  V30 4284 O 394.792 -0.370227 -1.90638 0
M  V30 4285 C 391.922 -1.06547 -3.30552 0
M  V30 4286 C 390.876 -2.15561 -3.69753 0
M  V30 4287 C 390.202 -1.77214 -5.04479 0
M  V30 4288 C 391.502 -3.57476 -3.808 0
M  V30 4289 H 393.196 -2.24303 -1.98314 0
M  V30 4290 H 390.742 -1.07977 -0.952736 0
M  V30 4291 H 392.695 -1.01729 -4.08937 0
M  V30 4292 H 391.419 -0.0875719 -3.26483 0
M  V30 4293 H 390.078 -2.19466 -2.9365 0
M  V30 4294 H 389.726 -0.780589 -4.96906 0
M  V30 4295 H 389.426 -2.50184 -5.31678 0
M  V30 4296 H 390.95 -1.7391 -5.8531 0
M  V30 4297 H 392.364 -3.55929 -4.4943 0
M  V30 4298 H 390.761 -4.29152 -4.19462 0
M  V30 4299 H 391.831 -3.94091 -2.82525 0
M  V30 4300 N 393.175 1.03435 -1.18907 0
M  V30 4301 C 394.108 2.11162 -0.86521 0
M  V30 4302 C 395.086 1.6165 0.175473 0
M  V30 4303 O 396.27 1.88425 0.0530129 0
M  V30 4304 C 393.397 3.37423 -0.293868 0
M  V30 4305 C 392.443 4.05795 -1.31274 0
M  V30 4306 S 393.276 4.52027 -2.8711 0
M  V30 4307 C 394.432 5.81513 -2.31504 0
M  V30 4308 H 394.665 2.38308 -1.77754 0
M  V30 4309 H 392.198 1.16295 -1.01562 0
M  V30 4310 H 394.156 4.1049 0.0292572 0
M  V30 4311 H 392.817 3.0838 0.596682 0
M  V30 4312 H 392.01 4.96574 -0.86198 0
M  V30 4313 H 391.612 3.38874 -1.58242 0
M  V30 4314 H 393.904 6.55784 -1.70157 0
M  V30 4315 H 394.847 6.3136 -3.20608 0
M  V30 4316 H 395.255 5.36921 -1.74286 0
M  V30 4317 N 394.653 0.992116 1.22453 0
M  V30 4318 C 395.616 0.546883 2.2258 0
M  V30 4319 C 396.616 -0.369829 1.56489 0
M  V30 4320 O 397.806 -0.161896 1.73446 0
M  V30 4321 C 394.938 -0.204659 3.40285 0
M  V30 4322 H 396.131 1.43234 2.63484 0
M  V30 4323 H 393.684 0.779239 1.3549 0
M  V30 4324 H 394.419 -1.10614 3.04853 0
M  V30 4325 H 394.204 0.45354 3.89468 0
M  V30 4326 H 395.694 -0.504358 4.14543 0
M  V30 4327 N 396.131 -1.37776 0.765217 0
M  V30 4328 C 397.078 -2.30342 0.145274 0
M  V30 4329 C 398.048 -1.5077 -0.696971 0
M  V30 4330 O 399.233 -1.79362 -0.650689 0
M  V30 4331 C 396.373 -3.37227 -0.732939 0
M  V30 4332 C 395.486 -4.31819 0.125199 0
M  V30 4333 C 394.621 -5.25777 -0.757107 0
M  V30 4334 C 393.66 -6.12012 0.103963 0
M  V30 4335 N 392.797 -6.98232 -0.735953 0
M  V30 4336 H 397.637 -2.8278 0.940195 0
M  V30 4337 H 395.174 -1.39211 0.475255 0
M  V30 4338 H 397.132 -3.97818 -1.25686 0
M  V30 4339 H 395.762 -2.86171 -1.49353 0
M  V30 4340 H 394.814 -3.7259 0.766865 0
M  V30 4341 H 396.126 -4.92509 0.789683 0
M  V30 4342 H 395.28 -5.91541 -1.34776 0
M  V30 4343 H 394.019 -4.65481 -1.45529 0
M  V30 4344 H 393.024 -5.45233 0.707197 0
M  V30 4345 H 394.249 -6.74379 0.799381 0
M  V30 4346 H 392.195 -6.40472 -1.41887 0
M  V30 4347 H 392.112 -7.55891 -0.128624 0
M  V30 4348 H 393.38 -7.68393 -1.31121 0
M  V30 4349 N 397.609 -0.515225 -1.4894 0
M  V30 4350 C 398.857 0.0241671 -2.02086 0
M  V30 4351 C 399.178 1.3616 -1.3959 0
M  V30 4352 O 398.448 1.87841 -0.556121 0
M  V30 4353 H 397.028 0.0119203 -0.746905 0
M  V30 4354 H 399.69 -0.675702 -1.82812 0
M  V30 4355 H 398.786 0.143385 -3.1177 0
M  V30 4356 N 399.087 1.5561 -0.249682 0
M  V30 4357 C 400.312 2.03865 0.381305 0
M  V30 4358 C 400.737 1.12769 1.50548 0
M  V30 4359 O 400.095 0.121189 1.80895 0
M  V30 4360 C 400.143 3.50101 0.863816 0
M  V30 4361 O 399.247 3.62132 1.97318 0
M  V30 4362 H 398.588 0.658827 0.0827194 0
M  V30 4363 H 401.118 2.01105 -0.376552 0
M  V30 4364 H 401.128 3.90975 1.1663 0
M  V30 4365 H 399.803 4.1588 0.0411816 0
M  V30 4366 H 398.38 3.33155 1.67517 0
M  V30 4367 N 400.565 -0.0233959 1.57583 0
M  V30 4368 C 401.495 -1.02162 2.09965 0
M  V30 4369 C 402.476 -1.3735 1.00344 0
M  V30 4370 O 403.661 -1.46135 1.27899 0
M  V30 4371 C 400.791 -2.32081 2.58371 0
M  V30 4372 C 399.745 -2.1112 3.72307 0
M  V30 4373 C 399.071 -3.46848 4.06941 0
M  V30 4374 C 400.371 -1.49276 5.00514 0
M  V30 4375 H 402.065 -0.585557 2.93618 0
M  V30 4376 H 399.611 -0.280218 1.41247 0
M  V30 4377 H 401.564 -3.02249 2.93639 0
M  V30 4378 H 400.288 -2.77758 1.71808 0
M  V30 4379 H 398.947 -1.43384 3.37397 0
M  V30 4380 H 398.595 -3.90184 3.17436 0
M  V30 4381 H 398.295 -3.33646 4.83688 0
M  V30 4382 H 399.819 -4.18369 4.44747 0
M  V30 4383 H 401.233 -2.09368 5.33702 0
M  V30 4384 H 399.63 -1.46632 5.8191 0
M  V30 4385 H 400.7 -0.459217 4.82721 0
M  V30 4386 N 402.043 -1.548 -0.295768 0
M  V30 4387 C 402.973 -1.89115 -1.36959 0
M  V30 4388 C 403.954 -0.75059 -1.52644 0
M  V30 4389 O 405.139 -1.00678 -1.66065 0
M  V30 4390 C 402.269 -2.14307 -2.73295 0
M  V30 4391 C 401.223 -3.30151 -2.72368 0
M  V30 4392 C 400.549 -3.40772 -4.12042 0
M  V30 4393 C 401.849 -4.67126 -2.33646 0
M  V30 4394 H 403.543 -2.79053 -1.08488 0
M  V30 4395 H 401.089 -1.34266 -0.520443 0
M  V30 4396 H 403.042 -2.36898 -3.48507 0
M  V30 4397 H 401.766 -1.21145 -3.03301 0
M  V30 4398 H 400.425 -3.0749 -1.99613 0
M  V30 4399 H 400.073 -2.45117 -4.39234 0
M  V30 4400 H 399.773 -4.18645 -4.12322 0
M  V30 4401 H 401.297 -3.6563 -4.89027 0
M  V30 4402 H 402.711 -4.89414 -2.98575 0
M  V30 4403 H 401.108 -5.47751 -2.45129 0
M  V30 4404 H 402.178 -4.67489 -1.28772 0
M  V30 4405 N 403.521 0.559213 -1.47345 0
M  V30 4406 C 404.431 1.69388 -1.62311 0
M  V30 4407 C 405.447 1.6648 -0.505993 0
M  V30 4408 O 406.623 1.85964 -0.773262 0
M  V30 4409 C 403.688 3.05894 -1.63185 0
M  V30 4410 C 402.749 3.19885 -2.86307 0
M  V30 4411 C 401.982 4.49879 -2.87131 0
M  V30 4412 O 402.205 5.35217 -1.97229 0
M  V30 4413 O 401.139 4.67618 -3.78968 0
M  V30 4414 H 404.965 1.59706 -2.58317 0
M  V30 4415 H 402.55 0.728989 -1.30407 0
M  V30 4416 H 404.432 3.87133 -1.66451 0
M  V30 4417 H 403.107 3.15964 -0.70345 0
M  V30 4418 H 402.014 2.38052 -2.88587 0
M  V30 4419 H 403.347 3.14718 -3.78435 0
M  V30 4420 N 404.999 1.35443 0.805782 0
M  V30 4421 C 405.929 1.31095 1.93226 0
M  V30 4422 C 406.91 0.185244 1.69088 0
M  V30 4423 O 408.095 0.380332 1.90439 0
M  V30 4424 C 405.225 1.08299 3.29983 0
M  V30 4425 C 404.179 2.17519 3.68605 0
M  V30 4426 C 403.505 1.79887 5.03532 0
M  V30 4427 C 404.805 3.5949 3.78898 0
M  V30 4428 H 406.499 2.25352 1.97122 0
M  V30 4429 H 404.045 1.0848 0.946996 0
M  V30 4430 H 405.998 1.03897 4.08391 0
M  V30 4431 H 404.722 0.104885 3.26432 0
M  V30 4432 H 403.381 2.2102 2.92482 0
M  V30 4433 H 403.029 0.80693 4.96485 0
M  V30 4434 H 402.729 2.53001 5.30344 0
M  V30 4435 H 404.253 1.77011 5.84379 0
M  V30 4436 H 405.667 3.58307 4.47536 0
M  V30 4437 H 404.064 4.31371 4.1718 0
M  V30 4438 H 405.134 3.95584 2.80431 0
M  V30 4439 N 406.477 -1.02803 1.19454 0
M  V30 4440 C 407.407 -2.12999 0.956758 0
M  V30 4441 C 408.388 -1.69743 -0.110188 0
M  V30 4442 O 409.573 -1.94148 0.0450038 0
M  V30 4443 C 406.703 -3.43746 0.495553 0
M  V30 4444 C 405.657 -4.00688 1.50443 0
M  V30 4445 C 404.983 -5.27067 0.900275 0
M  V30 4446 C 406.283 -4.35397 2.8849 0
M  V30 4447 H 407.977 -2.33148 1.87836 0
M  V30 4448 H 405.523 -1.12045 0.904539 0
M  V30 4449 H 407.476 -4.2021 0.316493 0
M  V30 4450 H 406.2 -3.23321 -0.461646 0
M  V30 4451 H 404.859 -3.2632 1.67065 0
M  V30 4452 H 404.507 -5.02959 -0.064503 0
M  V30 4453 H 404.207 -5.66127 1.57397 0
M  V30 4454 H 405.731 -6.06196 0.73203 0
M  V30 4455 H 407.145 -5.02795 2.75446 0
M  V30 4456 H 405.542 -4.85541 3.52661 0
M  V30 4457 H 406.612 -3.44662 3.41081 0
M  V30 4458 N 407.956 -0.998596 -1.21925 0
M  V30 4459 C 409.372 -0.710303 -1.42923 0
M  V30 4460 C 409.572 0.716933 -1.88314 0
M  V30 4461 O 408.628 1.48712 -2.04062 0
M  V30 4462 C 409.941 -1.72072 -2.466 0
M  V30 4463 C 411.489 -1.73681 -2.60392 0
M  V30 4464 C 411.964 -2.73601 -3.67296 0
M  V30 4465 N 413.455 -2.7223 -3.7476 0
M  V30 4466 C 414.19 -3.46206 -4.57087 0
M  V30 4467 N 413.686 -4.29802 -5.43362 0
M  V30 4468 N 415.479 -3.34886 -4.51451 0
M  V30 4469 H 407.63 -1.92028 -0.9077 0
M  V30 4470 H 409.893 -0.828487 -0.460775 0
M  V30 4471 H 409.599 -2.74231 -2.20206 0
M  V30 4472 H 409.473 -1.51818 -3.45299 0
M  V30 4473 H 411.86 -0.722173 -2.86127 0
M  V30 4474 H 411.941 -1.98005 -1.61949 0
M  V30 4475 H 411.585 -3.75217 -3.42307 0
M  V30 4476 H 411.515 -2.46545 -4.65321 0
M  V30 4477 H 414.006 -2.11576 -3.1312 0
M  V30 4478 H 414.319 -4.83061 -6.03218 0
M  V30 4479 H 412.664 -4.33887 -5.42925 0
M  V30 4480 H 415.855 -2.69015 -3.83078 0
M  V30 4481 H 416.028 -3.92796 -5.15379 0
M  V30 4482 N 409.434 1.37368 -0.772513 0
M  V30 4483 C 410.711 1.93839 -0.26188 0
M  V30 4484 C 411.091 1.7061 1.24319 0
M  V30 4485 O 410.439 1.05534 2.02669 0
M  V30 4486 C 410.649 3.43154 -0.636102 0
M  V30 4487 C 411.997 4.20249 -0.606324 0
M  V30 4488 O 413.021 3.5152 -0.575538 0
M  V30 4489 O 411.88 5.42809 -0.634086 0
M  V30 4490 H 408.974 0.82478 -0.0605555 0
M  V30 4491 H 411.52 1.4665 -0.853917 0
M  V30 4492 H 410.292 3.53647 -1.6748 0
M  V30 4493 H 409.915 3.97596 -0.0170516 0
M  V30 4494 N 410.912 0.523116 1.48665 0
M  V30 4495 C 412.137 -0.0117284 2.07397 0
M  V30 4496 C 412.562 -1.28031 1.37803 0
M  V30 4497 O 411.92 -1.75836 0.441762 0
M  V30 4498 C 411.968 -0.225786 3.59892 0
M  V30 4499 O 411.072 -1.29592 3.91509 0
M  V30 4500 H 410.413 0.0360673 0.66302 0
M  V30 4501 H 412.943 0.729066 1.9117 0
M  V30 4502 H 412.953 -0.450552 4.05505 0
M  V30 4503 H 411.628 0.700944 4.09951 0
M  V30 4504 H 410.205 -1.05436 3.57684 0
M  V30 4505 N 412.39 -1.55475 0.257931 0
M  V30 4506 C 413.667 -1.91155 -0.414629 0
M  V30 4507 C 414.047 -1.18008 -1.75035 0
M  V30 4508 O 413.395 -0.301193 -2.26506 0
M  V30 4509 C 413.605 -3.44283 -0.571859 0
M  V30 4510 C 414.953 -4.15744 -0.862678 0
M  V30 4511 O 415.977 -3.50083 -0.657314 0
M  V30 4512 O 414.836 -5.31909 -1.2544 0
M  V30 4513 H 411.93 -0.796016 -0.22425 0
M  V30 4514 H 414.476 -1.66976 0.302814 0
M  V30 4515 H 413.248 -3.89558 0.368844 0
M  V30 4516 H 412.871 -3.7436 -1.33943 0
M  V30 4517 N 413.868 0.0150385 -1.57593 0
M  V30 4518 C 414.778 1.02791 -2.10882 0
M  V30 4519 C 415.794 1.38702 -1.0506 0
M  V30 4520 O 416.97 1.47739 -1.36877 0
M  V30 4521 C 414.035 2.30568 -2.58919 0
M  V30 4522 C 413.096 2.01108 -3.79281 0
M  V30 4523 C 412.329 3.22794 -4.25018 0
M  V30 4524 O 412.552 4.33959 -3.70183 0
M  V30 4525 O 411.486 3.07672 -5.17322 0
M  V30 4526 H 415.312 0.604973 -2.97613 0
M  V30 4527 H 412.897 0.23292 -1.47573 0
M  V30 4528 H 414.779 3.05662 -2.90084 0
M  V30 4529 H 413.454 2.72129 -1.75293 0
M  V30 4530 H 412.361 1.23537 -3.53114 0
M  V30 4531 H 413.694 1.64394 -4.63935 0
M  V30 4532 N 415.346 1.54954 0.287554 0
M  V30 4533 C 416.293 1.86834 1.35505 0
M  V30 4534 C 417.263 0.718452 1.49758 0
M  V30 4535 O 418.448 0.968358 1.644 0
M  V30 4536 C 415.588 2.13303 2.71286 0
M  V30 4537 C 414.701 3.40883 2.65373 0
M  V30 4538 C 413.836 3.57125 3.93236 0
M  V30 4539 C 412.875 4.78449 3.81776 0
M  V30 4540 N 412.012 4.91426 5.01443 0
M  V30 4541 H 416.852 2.77889 1.07619 0
M  V30 4542 H 414.389 1.37593 0.520241 0
M  V30 4543 H 416.347 2.26646 3.50267 0
M  V30 4544 H 414.977 1.25499 2.97405 0
M  V30 4545 H 414.029 3.36088 1.78182 0
M  V30 4546 H 415.341 4.29993 2.52799 0
M  V30 4547 H 414.495 3.70207 4.80658 0
M  V30 4548 H 413.234 2.66173 4.0866 0
M  V30 4549 H 412.239 4.65386 2.92738 0
M  V30 4550 H 413.464 5.70822 3.67884 0
M  V30 4551 H 411.41 4.03401 5.17304 0
M  V30 4552 H 411.327 5.74559 4.91343 0
M  V30 4553 H 412.595 5.08879 5.90477 0
M  V30 4554 N 416.824 -0.551391 1.4764 0
M  V30 4555 C 418.07 -1.31024 1.54792 0
M  V30 4556 C 418.403 -1.9304 0.211967 0
M  V30 4557 O 417.678 -1.78175 -0.77999 0
M  V30 4558 C 417.961 -2.41593 2.67029 0
M  V30 4559 C 417.814 -1.84408 4.10261 0
M  V30 4560 C 419.133 -3.43488 2.75143 0
M  V30 4561 H 416.252 -0.475031 0.563485 0
M  V30 4562 H 418.894 -0.616454 1.79722 0
M  V30 4563 H 417.044 -3.00772 2.45904 0
M  V30 4564 H 418.716 -1.29445 4.42766 0
M  V30 4565 H 416.959 -1.15051 4.18265 0
M  V30 4566 H 417.63 -2.64367 4.84576 0
M  V30 4567 H 420.106 -2.94236 2.94218 0
M  V30 4568 H 418.982 -4.18274 3.55441 0
M  V30 4569 H 419.243 -4.02703 1.82435 0
M  V30 4570 N 418.302 -1.35869 -0.798587 0
M  V30 4571 C 419.232 -1.32118 -1.92528 0
M  V30 4572 C 420.213 -0.194209 -1.68988 0
M  V30 4573 O 421.398 -0.390426 -1.90235 0
M  V30 4574 C 418.528 -1.10047 -3.29404 0
M  V30 4575 C 417.482 -2.19471 -3.67446 0
M  V30 4576 C 416.808 -1.82555 -5.02571 0
M  V30 4577 C 418.108 -3.61495 -3.76987 0
M  V30 4578 H 419.802 -2.26394 -1.95924 0
M  V30 4579 H 417.348 -1.08981 -0.94123 0
M  V30 4580 H 419.301 -1.06061 -4.07835 0
M  V30 4581 H 418.025 -0.122195 -3.26371 0
M  V30 4582 H 416.684 -2.22568 -2.91306 0
M  V30 4583 H 416.332 -0.833249 -4.9605 0
M  V30 4584 H 416.032 -2.5581 -5.28995 0
M  V30 4585 H 417.556 -1.80108 -5.83432 0
M  V30 4586 H 418.97 -3.60676 -4.4563 0
M  V30 4587 H 417.367 -4.33577 -4.14887 0
M  V30 4588 H 418.437 -3.97065 -2.78329 0
M  V30 4589 N 419.78 1.02168 -1.19998 0
M  V30 4590 C 421.191 1.57135 -1.00825 0
M  V30 4591 C 421.542 1.91276 0.436818 0
M  V30 4592 O 420.667 1.71679 1.3174 0
M  V30 4593 C 421.262 2.85514 -1.82393 0
M  V30 4594 C 419.821 3.37027 -1.67601 0
M  V30 4595 C 418.968 2.10388 -1.80644 0
M  V30 4596 H 421.919 0.846106 -1.34264 0
M  V30 4597 H 421.94 3.56711 -1.32429 0
M  V30 4598 H 421.452 2.60634 -2.87561 0
M  V30 4599 H 419.553 3.66878 -0.650485 0
M  V30 4600 H 419.666 4.09572 -2.4857 0
M  V30 4601 H 418.03 2.22601 -1.23778 0
M  V30 4602 H 418.813 1.8794 -2.87286 0
M  V30 4603 N 421.258 1.00505 1.21394 0
M  V30 4604 C 422.504 0.688793 1.90745 0
M  V30 4605 C 422.837 -0.778486 1.77914 0
M  V30 4606 O 422.112 -1.56433 1.15581 0
M  V30 4607 C 422.395 1.11063 3.42545 0
M  V30 4608 C 422.248 2.63737 3.64367 0
M  V30 4609 C 423.567 0.673059 4.34923 0
M  V30 4610 H 420.686 0.251702 0.692687 0
M  V30 4611 H 423.328 1.25074 1.43026 0
M  V30 4612 H 421.478 0.632508 3.83317 0
M  V30 4613 H 423.15 3.19313 3.32922 0
M  V30 4614 H 421.393 3.05248 3.08231 0
M  V30 4615 H 422.064 2.88305 4.70727 0
M  V30 4616 H 424.54 1.08392 4.01734 0
M  V30 4617 H 423.416 0.996383 5.39781 0
M  V30 4618 H 423.677 -0.425808 4.40045 0
M  V30 4619 N 422.737 -1.36956 0.779787 0
M  V30 4620 C 423.962 -2.04283 0.358224 0
M  V30 4621 C 424.387 -1.58422 -1.01411 0
M  V30 4622 O 423.745 -0.748179 -1.65142 0
M  V30 4623 C 423.793 -3.58152 0.419479 0
M  V30 4624 O 422.897 -4.08342 -0.577142 0
M  V30 4625 H 422.238 -0.645967 0.153698 0
M  V30 4626 H 424.768 -1.75108 1.05822 0
M  V30 4627 H 424.778 -4.07041 0.279636 0
M  V30 4628 H 423.453 -3.90886 1.42061 0
M  V30 4629 H 422.03 -3.70751 -0.399755 0
M  V30 4630 N 424.215 -0.530993 -1.48385 0
M  V30 4631 C 425.125 0.23503 -2.3342 0
M  V30 4632 C 426.141 0.93801 -1.46552 0
M  V30 4633 O 427.317 0.912745 -1.7953 0
M  V30 4634 C 424.382 1.26778 -3.22689 0
M  V30 4635 C 423.443 0.575038 -4.25431 0
M  V30 4636 C 422.676 1.55858 -5.10435 0
M  V30 4637 O 422.899 2.79129 -4.97437 0
M  V30 4638 O 421.833 1.09742 -5.91811 0
M  V30 4639 H 425.659 -0.461794 -3.00169 0
M  V30 4640 H 423.244 -0.291903 -1.46521 0
M  V30 4641 H 425.126 1.86457 -3.77904 0
M  V30 4642 H 423.801 1.94699 -2.586 0
M  V30 4643 H 422.708 -0.0622782 -3.74048 0
M  V30 4644 H 424.041 -0.062253 -4.92161 0
M  V30 4645 N 425.693 1.55336 -0.266172 0
M  V30 4646 C 426.623 2.25146 0.618981 0
M  V30 4647 C 427.604 1.23845 1.16604 0
M  V30 4648 O 428.789 1.52544 1.20183 0
M  V30 4649 C 425.919 2.96572 1.80728 0
M  V30 4650 C 424.873 4.04726 1.39215 0
M  V30 4651 C 424.199 4.63678 2.66283 0
M  V30 4652 C 425.499 5.19407 0.548942 0
M  V30 4653 H 427.193 2.99377 0.0368116 0
M  V30 4654 H 424.739 1.43991 0.0162651 0
M  V30 4655 H 426.692 3.44116 2.43232 0
M  V30 4656 H 425.416 2.19861 2.41514 0
M  V30 4657 H 424.075 3.57979 0.790351 0
M  V30 4658 H 423.723 3.83646 3.25308 0
M  V30 4659 H 423.423 5.367 2.39222 0
M  V30 4660 H 424.947 5.13967 3.29651 0
M  V30 4661 H 426.361 5.63059 1.07876 0
M  V30 4662 H 424.758 5.98936 0.373593 0
M  V30 4663 H 425.828 4.8295 -0.434394 0
M  V30 4664 N 427.171 -0.0066808 1.57599 0
M  V30 4665 C 428.101 -0.999296 2.11036 0
M  V30 4666 C 429.082 -1.36278 1.01795 0
M  V30 4667 O 430.267 -1.4477 1.29442 0
M  V30 4668 C 427.397 -2.29328 2.60818 0
M  V30 4669 C 426.351 -2.07159 3.74525 0
M  V30 4670 C 425.677 -3.42512 4.10596 0
M  V30 4671 C 426.977 -1.43959 5.02069 0
M  V30 4672 H 428.671 -0.554382 2.94223 0
M  V30 4673 H 426.217 -0.265221 1.41536 0
M  V30 4674 H 428.17 -2.99117 2.96828 0
M  V30 4675 H 426.894 -2.7592 1.74745 0
M  V30 4676 H 425.553 -1.39797 3.38899 0
M  V30 4677 H 425.201 -3.86795 3.21556 0
M  V30 4678 H 424.901 -3.28498 4.87199 0
M  V30 4679 H 426.425 -4.13628 4.4916 0
M  V30 4680 H 427.839 -2.03696 5.35893 0
M  V30 4681 H 426.236 -1.40452 5.83432 0
M  V30 4682 H 427.306 -0.407992 4.83181 0
M  V30 4683 N 428.649 -1.55105 -0.279332 0
M  V30 4684 C 429.926 -1.66119 -1.03267 0
M  V30 4685 C 430.306 -0.523525 -2.04505 0
M  V30 4686 O 429.654 0.477194 -2.23462 0
M  V30 4687 C 429.864 -3.05067 -1.69515 0
M  V30 4688 C 431.212 -3.62606 -2.20912 0
M  V30 4689 O 432.236 -3.07659 -1.79512 0
M  V30 4690 O 431.095 -4.58861 -2.96831 0
M  V30 4691 H 428.189 -0.674429 -0.478618 0
M  V30 4692 H 430.735 -1.67446 -0.275694 0
M  V30 4693 H 429.507 -3.79311 -0.9612 0
M  V30 4694 H 429.13 -3.07611 -2.51915 0
M  V30 4695 N 430.127 0.543554 -1.4793 0
M  V30 4696 C 431.376 1.29649 -1.54512 0
M  V30 4697 C 431.689 1.94382 -0.217973 0
M  V30 4698 O 432.895 2.71017 -0.161908 0
M  V30 4699 C 431.351 2.35175 -2.72435 0
M  V30 4700 C 430.959 1.76572 -4.11736 0
M  V30 4701 C 432.703 3.11564 -2.8832 0
M  V30 4702 C 430.61 2.79958 -5.20939 0
M  V30 4703 H 429.54 0.487541 -0.57517 0
M  V30 4704 H 432.191 0.575708 -1.74235 0
M  V30 4705 H 430.573 3.10229 -2.46118 0
M  V30 4706 H 431.747 1.07799 -4.48013 0
M  V30 4707 H 430.062 1.12722 -4.00852 0
M  V30 4708 H 432.659 3.88794 -3.67074 0
M  V30 4709 H 433.002 3.66594 -1.97268 0
M  V30 4710 H 433.535 2.43623 -3.14472 0
M  V30 4711 H 430.274 2.29766 -6.13912 0
M  V30 4712 H 429.794 3.47101 -4.89164 0
M  V30 4713 H 431.473 3.43198 -5.48474 0
M  V30 4714 N 431.605 1.3629 0.791371 0
M  V30 4715 C 432.568 1.30309 1.88553 0
M  V30 4716 C 433.568 0.211204 1.59407 0
M  V30 4717 O 434.758 0.465865 1.67855 0
M  V30 4718 C 431.89 1.01956 3.25297 0
M  V30 4719 H 433.083 2.27614 1.95273 0
M  V30 4720 H 430.636 1.21035 0.988953 0
M  V30 4721 H 431.371 0.050998 3.2426 0
M  V30 4722 H 431.156 1.80968 3.4784 0
M  V30 4723 H 432.646 1.0037 4.05359 0
M  V30 4724 N 433.083 -1.0153 1.20538 0
M  V30 4725 C 434.329 -1.75517 1.02787 0
M  V30 4726 C 434.684 -1.87411 -0.435289 0
M  V30 4727 O 433.977 -1.38982 -1.31889 0
M  V30 4728 C 434.171 -3.17213 1.64654 0
M  V30 4729 C 434 -3.19134 3.16834 0
M  V30 4730 C 432.77 -3.26301 3.85818 0
M  V30 4731 C 434.968 -3.05077 4.14044 0
M  V30 4732 N 432.95 -3.17739 5.25276 0
M  V30 4733 C 434.321 -3.04299 5.40187 0
M  V30 4734 C 436.376 -2.89303 4.05226 0
M  V30 4735 C 435.079 -2.89365 6.58529 0
M  V30 4736 C 437.105 -2.75723 5.23193 0
M  V30 4737 C 436.467 -2.75612 6.48242 0
M  V30 4738 H 432.566 -0.652919 0.430373 0
M  V30 4739 H 435.15 -1.20755 1.52729 0
M  V30 4740 H 433.321 -3.70266 1.17294 0
M  V30 4741 H 435.053 -3.79637 1.40208 0
M  V30 4742 H 431.808 -3.33078 3.36684 0
M  V30 4743 H 432.232 -3.16829 5.98288 0
M  V30 4744 H 436.874 -2.88201 3.09354 0
M  V30 4745 H 434.592 -2.89216 7.54573 0
M  V30 4746 H 438.178 -2.64533 5.18183 0
M  V30 4747 H 437.058 -2.65224 7.37988 0
M  V30 4748 N 434.561 -1.01147 -1.20859 0
M  V30 4749 C 435.493 -0.535546 -2.22855 0
M  V30 4750 C 436.506 0.379323 -1.58319 0
M  V30 4751 O 437.695 0.178489 -1.77605 0
M  V30 4752 C 434.795 0.240962 -3.38042 0
M  V30 4753 C 433.968 -0.674562 -4.32167 0
M  V30 4754 C 433.027 0.053467 -5.26173 0
M  V30 4755 O 432.053 -0.567339 -5.66366 0
M  V30 4756 N 433.255 1.32997 -5.65059 0
M  V30 4757 H 436.02 -1.41268 -2.64317 0
M  V30 4758 H 433.581 -0.888386 -1.35349 0
M  V30 4759 H 435.573 0.737115 -3.97931 0
M  V30 4760 H 434.143 1.01935 -2.95513 0
M  V30 4761 H 433.363 -1.35111 -3.70322 0
M  V30 4762 H 434.651 -1.2974 -4.91981 0
M  V30 4763 H 434.049 1.85536 -5.34409 0
M  V30 4764 H 432.606 1.77095 -6.2728 0
M  V30 4765 N 436.039 1.36541 -0.78704 0
M  V30 4766 C 437.285 1.99599 -0.358872 0
M  V30 4767 C 437.618 1.62323 1.06606 0
M  V30 4768 O 436.893 0.876858 1.73613 0
M  V30 4769 C 437.176 3.56327 -0.519944 0
M  V30 4770 C 437.029 4.03464 -1.98839 0
M  V30 4771 C 438.348 4.4005 0.0664737 0
M  V30 4772 H 435.467 0.725107 -0.131869 0
M  V30 4773 H 438.109 1.6199 -0.992936 0
M  V30 4774 H 436.259 3.88495 0.0198321 0
M  V30 4775 H 437.931 3.81793 -2.58905 0
M  V30 4776 H 436.174 3.55092 -2.49183 0
M  V30 4777 H 436.845 5.12439 -2.05207 0
M  V30 4778 H 439.321 4.14228 -0.394267 0
M  V30 4779 H 438.197 5.48847 -0.0762682 0
M  V30 4780 H 438.458 4.26655 1.15835 0
M  V30 4781 N 437.518 0.538854 1.48102 0
M  V30 4782 C 438.481 -0.208395 2.28251 0
M  V30 4783 C 439.481 -0.859656 1.35892 0
M  V30 4784 O 440.671 -0.71834 1.58699 0
M  V30 4785 C 437.803 -1.30252 3.15035 0
M  V30 4786 H 438.996 0.495407 2.9578 0
M  V30 4787 H 436.549 0.295112 1.53489 0
M  V30 4788 H 437.284 -2.0393 2.52157 0
M  V30 4789 H 437.069 -0.840551 3.82985 0
M  V30 4790 H 438.559 -1.82787 3.75471 0
M  V30 4791 N 438.996 -1.55193 0.274407 0
M  V30 4792 C 439.906 -2.26164 -0.623473 0
M  V30 4793 C 440.922 -1.28729 -1.17068 0
M  V30 4794 O 442.098 -1.61663 -1.20112 0
M  V30 4795 C 439.163 -2.96833 -1.7914 0
M  V30 4796 C 438.224 -4.09745 -1.28093 0
M  V30 4797 C 437.457 -4.77034 -2.3932 0
M  V30 4798 O 437.68 -4.4353 -3.5866 0
M  V30 4799 O 436.614 -5.64996 -2.07516 0
M  V30 4800 H 440.44 -3.03661 -0.0485661 0
M  V30 4801 H 438.025 -1.49341 0.0418382 0
M  V30 4802 H 439.907 -3.41248 -2.4724 0
M  V30 4803 H 438.582 -2.22253 -2.35341 0
M  V30 4804 H 437.489 -3.69787 -0.566416 0
M  V30 4805 H 438.822 -4.86224 -0.764683 0
M  V30 4806 N 440.474 -0.00167713 -1.576 0
M  V30 4807 C 441.722 0.681471 -1.90264 0
M  V30 4808 C 442.043 1.7422 -0.875924 0
M  V30 4809 O 441.313 1.95709 0.0864412 0
M  V30 4810 H 439.893 0.254696 -0.702239 0
M  V30 4811 H 442.555 -0.0429996 -1.94853 0
M  V30 4812 H 441.651 1.15166 -2.90075 0
M  V30 4813 N 441.952 1.55251 0.271103 0
M  V30 4814 C 442.885 1.83191 1.36075 0
M  V30 4815 C 443.863 0.685091 1.47463 0
M  V30 4816 O 445.047 0.928292 1.64058 0
M  V30 4817 C 442.174 1.99521 2.73696 0
M  V30 4818 C 441.22 3.22081 2.79582 0
M  V30 4819 S 442.053 4.79388 2.38636 0
M  V30 4820 C 443.209 4.98693 3.78228 0
M  V30 4821 H 443.442 2.75327 1.12171 0
M  V30 4822 H 440.975 1.47046 0.470833 0
M  V30 4823 H 442.933 2.09613 3.52948 0
M  V30 4824 H 441.594 1.0827 2.9485 0
M  V30 4825 H 440.787 3.304 3.80594 0
M  V30 4826 H 440.389 3.10589 2.08352 0
M  V30 4827 H 442.681 4.84551 4.73515 0
M  V30 4828 H 443.624 6.00738 3.7486 0
M  V30 4829 H 444.032 4.26665 3.69618 0
M  V30 4830 N 443.43 -0.535701 1.48216 0
M  V30 4831 C 444.67 -1.30238 1.57536 0
M  V30 4832 C 445.034 -1.90479 0.241229 0
M  V30 4833 O 446.235 -2.67983 0.20938 0
M  V30 4834 C 444.506 -2.3669 2.67792 0
M  V30 4835 S 446.065 -3.23159 2.9684 0
M  V30 4836 H 442.883 -0.443093 0.556048 0
M  V30 4837 H 445.485 -0.610937 1.85709 0
M  V30 4838 H 444.189 -1.90905 3.63296 0
M  V30 4839 H 443.72 -3.10548 2.41502 0
M  V30 4840 H 445.735 -4.36647 2.35699 0
M  V30 4841 N 444.908 -1.36708 -0.784132 0
M  V30 4842 C 446.138 -1.34203 -1.57077 0
M  V30 4843 C 446.546 0.0774945 -1.89041 0
M  V30 4844 O 445.889 1.04628 -1.50992 0
M  V30 4845 C 445.951 -2.10351 -2.91535 0
M  V30 4846 C 445.615 -3.59405 -2.82272 0
M  V30 4847 C 446.612 -4.53545 -2.54151 0
M  V30 4848 C 444.297 -4.02362 -3.00683 0
M  V30 4849 C 446.291 -5.8862 -2.44551 0
M  V30 4850 C 443.978 -5.37526 -2.90704 0
M  V30 4851 C 444.976 -6.30468 -2.62677 0
M  V30 4852 O 444.664 -7.63149 -2.52702 0
M  V30 4853 H 444.396 -0.461791 -0.493685 0
M  V30 4854 H 446.95 -1.80475 -0.980712 0
M  V30 4855 H 445.18 -1.5875 -3.52612 0
M  V30 4856 H 446.869 -2.00636 -3.52845 0
M  V30 4857 H 447.635 -4.21669 -2.39625 0
M  V30 4858 H 443.514 -3.30389 -3.21503 0
M  V30 4859 H 447.058 -6.61133 -2.22596 0
M  V30 4860 H 442.955 -5.69008 -3.04795 0
M  V30 4861 H 443.723 -7.73331 -2.68144 0
M  V30 4862 N 446.386 1.0089 -1.21074 0
M  V30 4863 C 447.316 2.1145 -0.990523 0
M  V30 4864 C 448.297 1.69897 0.0831699 0
M  V30 4865 O 449.482 1.94052 -0.0758853 0
M  V30 4866 C 446.612 3.42914 -0.550177 0
M  V30 4867 C 445.566 3.98244 -1.56799 0
M  V30 4868 C 444.892 5.25568 -0.984013 0
M  V30 4869 C 446.192 4.30752 -2.95381 0
M  V30 4870 H 447.886 2.3013 -1.91521 0
M  V30 4871 H 445.432 1.10592 -0.92225 0
M  V30 4872 H 447.385 4.19653 -0.383305 0
M  V30 4873 H 446.109 3.24014 0.41015 0
M  V30 4874 H 444.768 3.23621 -1.72236 0
M  V30 4875 H 444.416 5.02998 -0.0155216 0
M  V30 4876 H 444.116 5.63551 -1.66384 0
M  V30 4877 H 445.64 6.04955 -0.828378 0
M  V30 4878 H 447.054 4.98349 -2.8341 0
M  V30 4879 H 445.451 4.79869 -3.60341 0
M  V30 4880 H 446.521 3.39192 -3.46521 0
M  V30 4881 N 447.864 1.01787 1.20321 0
M  V30 4882 C 448.774 0.598898 2.26827 0
M  V30 4883 C 449.79 -0.36418 1.70146 0
M  V30 4884 O 450.966 -0.224812 2.00141 0
M  V30 4885 C 448.031 -0.0549769 3.46656 0
M  V30 4886 C 447.092 0.954205 4.18561 0
M  V30 4887 C 446.325 0.331439 5.3267 0
M  V30 4888 O 446.548 -0.86851 5.63749 0
M  V30 4889 O 445.482 1.0488 5.92692 0
M  V30 4890 H 449.308 1.48562 2.64883 0
M  V30 4891 H 446.893 0.787434 1.26964 0
M  V30 4892 H 448.775 -0.420102 4.19301 0
M  V30 4893 H 447.45 -0.915876 3.10473 0
M  V30 4894 H 446.357 1.37072 3.48083 0
M  V30 4895 H 447.69 1.78511 4.58688 0
M  V30 4896 N 449.342 -1.36122 0.79427 0
M  V30 4897 C 450.567 -2.03891 0.379871 0
M  V30 4898 C 450.992 -1.59488 -0.997251 0
M  V30 4899 O 450.35 -0.765652 -1.64339 0
M  V30 4900 C 450.398 -3.57687 0.457442 0
M  V30 4901 O 449.502 -4.08931 -0.5338 0
M  V30 4902 H 448.843 -0.6443 0.160541 0
M  V30 4903 H 451.373 -1.73976 1.07673 0
M  V30 4904 H 451.383 -4.06721 0.322792 0
M  V30 4905 H 450.058 -3.89357 1.46199 0
M  V30 4906 H 448.635 -3.71154 -0.360409 0
M  V30 4907 N 450.82 -0.546701 -1.47814 0
M  V30 4908 C 451.752 0.244196 -2.27895 0
M  V30 4909 C 452.765 0.88911 -1.36377 0
M  V30 4910 O 453.954 0.764733 -1.61289 0
M  V30 4911 C 451.054 1.36252 -3.10304 0
M  V30 4912 C 450.227 0.816382 -4.29714 0
M  V30 4913 C 449.286 1.81789 -4.93801 0
M  V30 4914 O 448.312 1.36818 -5.52512 0
M  V30 4915 N 449.514 3.15085 -4.87547 0
M  V30 4916 H 452.279 -0.442694 -2.96412 0
M  V30 4917 H 449.84 -0.382095 -1.57327 0
M  V30 4918 H 451.832 2.03102 -3.50045 0
M  V30 4919 H 450.402 1.95281 -2.44099 0
M  V30 4920 H 449.622 -0.0285981 -3.9419 0
M  V30 4921 H 450.91 0.430668 -5.06974 0
M  V30 4922 H 450.308 3.54275 -4.41028 0
M  V30 4923 H 448.865 3.77522 -5.31339 0
M  V30 4924 N 452.299 1.55045 -0.282633 0
M  V30 4925 C 453.247 2.24254 0.617478 0
M  V30 4926 C 454.241 1.24215 1.15183 0
M  V30 4927 O 455.447 1.42123 1.10459 0
M  V30 4928 H 451.822 0.719801 0.217693 0
M  V30 4929 H 453.793 2.98398 0.0110076 0
M  V30 4930 C 452.542 2.98281 1.78672 0
M  V30 4931 H 451.865 3.75053 1.38475 0
M  V30 4932 H 453.305 3.50017 2.393 0
M  V30 4933 C 451.764 2.04184 2.67975 0
M  V30 4934 O 452.294 1.59792 3.6855 0
M  V30 4935 N 450.5 1.70526 2.35307 0
M  V30 4936 H 450.047 2.06821 1.53567 0
M  V30 4937 H 450.005 1.07839 2.95327 0
M  V30 4938 N 453.777 0.010035 1.57597 0
M  V30 4939 C 455.007 -0.682422 1.95004 0
M  V30 4940 C 455.415 -1.67278 0.884014 0
M  V30 4941 O 454.758 -1.83129 -0.144672 0
M  V30 4942 C 454.82 -1.46141 3.28456 0
M  V30 4943 C 454.484 -0.631523 4.52615 0
M  V30 4944 C 455.481 0.0850905 5.1983 0
M  V30 4945 C 453.166 -0.574539 4.99003 0
M  V30 4946 C 455.16 0.847566 6.3174 0
M  V30 4947 C 452.847 0.191655 6.10799 0
M  V30 4948 C 453.845 0.901432 6.77025 0
M  V30 4949 O 453.533 1.65511 7.86677 0
M  V30 4950 H 453.265 -0.194361 0.647456 0
M  V30 4951 H 455.819 0.060312 2.05311 0
M  V30 4952 H 454.049 -2.24885 3.14585 0
M  V30 4953 H 455.738 -2.04016 3.50902 0
M  V30 4954 H 456.504 0.0502812 4.84974 0
M  V30 4955 H 452.383 -1.11654 4.47274 0
M  V30 4956 H 455.927 1.4021 6.83364 0
M  V30 4957 H 451.824 0.228249 6.45096 0
M  V30 4958 H 452.592 1.57287 8.03245 0
M  V30 4959 N 455.255 -1.55392 -0.262866 0
M  V30 4960 C 456.504 -1.75679 -0.990943 0
M  V30 4961 C 456.817 -0.57097 -1.87081 0
M  V30 4962 O 458.023 -0.656486 -2.63444 0
M  V30 4963 C 456.479 -3.10964 -1.81188 0
M  V30 4964 C 456.087 -4.37146 -0.980188 0
M  V30 4965 C 457.831 -3.40597 -2.53365 0
M  V30 4966 C 455.738 -5.63466 -1.7961 0
M  V30 4967 H 454.668 -0.654868 -0.373716 0
M  V30 4968 H 457.319 -1.81841 -0.246203 0
M  V30 4969 H 455.701 -2.98867 -2.59797 0
M  V30 4970 H 456.875 -4.60187 -0.237558 0
M  V30 4971 H 455.19 -4.14731 -0.372497 0
M  V30 4972 H 457.787 -4.32186 -3.14833 0
M  V30 4973 H 458.13 -2.6119 -3.24169 0
M  V30 4974 H 458.663 -3.53838 -1.81779 0
M  V30 4975 H 455.402 -6.4565 -1.13209 0
M  V30 4976 H 454.922 -5.44552 -2.51443 0
M  V30 4977 H 456.601 -6.02139 -2.36723 0
M  V30 4978 N 456.733 0.527833 -1.48498 0
M  V30 4979 C 457.683 1.62844 -1.5958 0
M  V30 4980 C 458.667 1.54397 -0.452809 0
M  V30 4981 O 459.859 1.62381 -0.704364 0
M  V30 4982 C 456.988 3.01557 -1.64067 0
M  V30 4983 C 456.074 3.151 -2.83853 0
M  V30 4984 N 456.465 2.9861 -4.08247 0
M  V30 4985 C 454.763 3.46158 -2.8123 0
M  V30 4986 C 455.464 3.15626 -4.88626 0
M  V30 4987 N 454.44 3.43298 -4.21483 0
M  V30 4988 H 458.242 1.48708 -2.53502 0
M  V30 4989 H 455.756 0.733343 -1.44899 0
M  V30 4990 H 457.753 3.8062 -1.70101 0
M  V30 4991 H 456.413 3.16783 -0.712636 0
M  V30 4992 H 457.424 2.75329 -4.3865 0
M  V30 4993 H 454.101 3.67728 -1.97692 0
M  V30 4994 H 455.491 3.07596 -5.97356 0
M  V30 4995 N 458.211 1.37122 0.776871 0
M  V30 4996 C 459.627 1.1781 1.07671 0
M  V30 4997 C 459.827 0.0107454 2.01497 0
M  V30 4998 O 458.883 -0.650756 2.4397 0
M  V30 4999 C 460.196 2.49451 1.67913 0
M  V30 5000 C 461.744 2.55927 1.80195 0
M  V30 5001 C 462.219 3.87686 2.43851 0
M  V30 5002 N 463.71 3.891 2.51307 0
M  V30 5003 C 464.445 4.87797 3.014 0
M  V30 5004 N 463.941 5.96888 3.51705 0
M  V30 5005 N 465.734 4.75205 3.00227 0
M  V30 5006 H 457.885 2.11843 0.153778 0
M  V30 5007 H 460.148 0.938927 0.130844 0
M  V30 5008 H 459.854 3.35207 1.06439 0
M  V30 5009 H 459.728 2.66169 2.67271 0
M  V30 5010 H 462.115 1.70582 2.40803 0
M  V30 5011 H 462.196 2.43097 0.796069 0
M  V30 5012 H 461.84 4.73444 1.83884 0
M  V30 5013 H 461.77 3.97817 3.45035 0
M  V30 5014 H 464.261 3.10293 2.157 0
M  V30 5015 H 464.574 6.68155 3.88316 0
M  V30 5016 H 462.919 6.0054 3.49824 0
M  V30 5017 H 466.11 3.89103 2.60224 0
M  V30 5018 H 466.283 5.52279 3.38957 0
M  V30 5019 N 459.689 -1.00246 1.21608 0
M  V30 5020 C 460.966 -1.71336 0.943568 0
M  V30 5021 C 461.346 -2.03972 -0.543943 0
M  V30 5022 O 460.694 -1.71545 -1.50946 0
M  V30 5023 C 460.904 -2.97094 1.83128 0
M  V30 5024 C 462.252 -3.70071 2.08165 0
M  V30 5025 O 463.276 -3.07081 1.80498 0
M  V30 5026 O 462.135 -4.83376 2.54971 0
M  V30 5027 H 459.229 -0.747386 0.354039 0
M  V30 5028 H 461.775 -1.05967 1.32549 0
M  V30 5029 H 460.547 -2.69407 2.83788 0
M  V30 5030 H 460.17 -3.70204 1.45034 0
M  V30 5031 N 461.167 -1.02423 -1.1978 0
M  V30 5032 C 462.097 -0.62157 -2.25075 0
M  V30 5033 C 463.078 0.367148 -1.6609 0
M  V30 5034 O 464.263 0.250892 -1.92573 0
M  V30 5035 C 461.393 0.0331826 -3.47284 0
M  V30 5036 C 460.347 -0.877323 -4.18912 0
M  V30 5037 C 459.673 -0.0879296 -5.34628 0
M  V30 5038 C 460.973 -2.18892 -4.74219 0
M  V30 5039 H 462.667 -1.50179 -2.59011 0
M  V30 5040 H 460.213 -0.723547 -1.24502 0
M  V30 5041 H 462.166 0.326488 -4.20133 0
M  V30 5042 H 460.89 0.948164 -3.12534 0
M  V30 5043 H 459.549 -1.15475 -3.47938 0
M  V30 5044 H 459.197 0.828941 -4.96123 0
M  V30 5045 H 458.897 -0.694359 -5.83483 0
M  V30 5046 H 460.421 0.198743 -6.10276 0
M  V30 5047 H 461.835 -1.95746 -5.38847 0
M  V30 5048 H 460.232 -2.74686 -5.33542 0
M  V30 5049 H 461.302 -2.84674 -3.92541 0
M  V30 5050 N 462.645 1.35699 -0.801477 0
M  V30 5051 C 463.608 2.28199 -0.213994 0
M  V30 5052 C 464.608 1.49359 0.595691 0
M  V30 5053 O 465.798 1.69186 0.414921 0
M  V30 5054 C 462.93 3.33587 0.702297 0
M  V30 5055 H 464.123 2.81666 -1.02976 0
M  V30 5056 H 461.676 1.45467 -0.571759 0
M  V30 5057 H 462.411 2.85297 1.54195 0
M  V30 5058 H 462.196 3.91906 0.123484 0
M  V30 5059 H 463.686 4.02638 1.10783 0
M  V30 5060 N 464.123 0.554532 1.47522 0
M  V30 5061 C 465.086 -0.184174 2.28459 0
M  V30 5062 C 466.086 -0.845195 1.36796 0
M  V30 5063 O 467.276 -0.701467 1.59452 0
M  V30 5064 C 464.408 -1.26903 3.16399 0
M  V30 5065 H 465.601 0.526751 2.95238 0
M  V30 5066 H 463.154 0.311375 1.53167 0
M  V30 5067 H 463.889 -2.01244 2.54306 0
M  V30 5068 H 463.674 -0.799883 3.83854 0
M  V30 5069 H 465.164 -1.78794 3.77389 0
M  V30 5070 N 465.601 -1.54893 0.290851 0
M  V30 5071 C 467.017 -1.59476 -0.0628432 0
M  V30 5072 C 467.217 -1.30795 -1.5328 0
M  V30 5073 O 466.273 -1.07644 -2.28406 0
M  V30 5074 C 467.586 -2.98928 0.325962 0
M  V30 5075 C 469.134 -3.11799 0.273882 0
M  V30 5076 C 469.609 -4.53544 0.637359 0
M  V30 5077 N 471.1 -4.59433 0.589507 0
M  V30 5078 C 471.835 -5.67164 0.84335 0
M  V30 5079 N 471.331 -6.82975 1.16263 0
M  V30 5080 N 473.124 -5.56786 0.771091 0
M  V30 5081 H 465.275 -1.71798 1.24896 0
M  V30 5082 H 467.538 -0.801879 0.505663 0
M  V30 5083 H 467.244 -3.24805 1.34887 0
M  V30 5084 H 467.118 -3.75793 -0.325441 0
M  V30 5085 H 469.505 -2.85677 -0.739765 0
M  V30 5086 H 469.586 -2.37112 0.959766 0
M  V30 5087 H 469.23 -4.80394 1.64877 0
M  V30 5088 H 469.16 -5.26553 -0.0704866 0
M  V30 5089 H 471.651 -3.76245 0.353252 0
M  V30 5090 H 471.964 -7.61048 1.34257 0
M  V30 5091 H 470.309 -6.84552 1.20057 0
M  V30 5092 H 473.5 -4.65187 0.521383 0
M  V30 5093 H 473.673 -6.40664 0.972295 0
M  V30 5094 N 467.08 -0.0183926 -1.57589 0
M  V30 5095 C 468.028 0.985111 -2.10709 0
M  V30 5096 C 469.022 1.34397 -1.0312 0
M  V30 5097 O 470.228 1.32746 -1.21567 0
M  V30 5098 H 466.603 0.335418 -0.673052 0
M  V30 5099 H 468.574 0.511689 -2.9398 0
M  V30 5100 C 467.323 2.26202 -2.64061 0
M  V30 5101 H 466.646 1.9946 -3.4649 0
M  V30 5102 H 468.086 2.94652 -3.04887 0
M  V30 5103 C 466.545 2.98444 -1.5631 0
M  V30 5104 O 467.075 3.90142 -0.956674 0
M  V30 5105 N 465.281 2.6059 -1.28612 0
M  V30 5106 H 464.828 1.86101 -1.78112 0
M  V30 5107 H 464.786 3.09238 -0.567406 0
M  V30 5108 N 468.558 1.5553 0.254621 0
M  V30 5109 C 469.807 1.76202 0.981612 0
M  V30 5110 C 470.12 0.580883 1.86776 0
M  V30 5111 O 471.326 0.670448 2.63092 0
M  V30 5112 C 469.782 3.11921 1.79537 0
M  V30 5113 C 469.39 4.37659 0.956991 0
M  V30 5114 C 471.134 3.41936 2.51555 0
M  V30 5115 C 469.041 5.64411 1.76619 0
M  V30 5116 H 467.971 0.656841 0.370237 0
M  V30 5117 H 470.622 1.81969 0.236556 0
M  V30 5118 H 469.004 3.00241 2.58208 0
M  V30 5119 H 470.178 4.60307 0.21315 0
M  V30 5120 H 468.493 4.14922 0.350497 0
M  V30 5121 H 471.09 4.33849 3.12536 0
M  V30 5122 H 471.433 2.62905 3.22779 0
M  V30 5123 H 471.966 3.54797 1.799 0
M  V30 5124 H 468.705 6.46241 1.09783 0
M  V30 5125 H 468.225 5.45877 2.48551 0
M  V30 5126 H 469.904 6.03386 2.33527 0
M  V30 5127 N 470.036 -0.519951 1.48776 0
M  V30 5128 C 470.966 -1.63253 1.66945 0
M  V30 5129 C 471.947 -1.62014 0.518224 0
M  V30 5130 O 473.132 -1.79053 0.751919 0
M  V30 5131 C 470.262 -3.0181 1.71836 0
M  V30 5132 C 469.216 -3.17911 2.8656 0
M  V30 5133 C 468.542 -4.5763 2.76548 0
M  V30 5134 C 469.842 -2.99729 4.27738 0
M  V30 5135 H 471.536 -1.48302 2.6009 0
M  V30 5136 H 469.082 -0.712026 1.25165 0
M  V30 5137 H 471.035 -3.79525 1.83135 0
M  V30 5138 H 469.759 -3.17806 0.752775 0
M  V30 5139 H 468.418 -2.42616 2.74833 0
M  V30 5140 H 468.066 -4.70476 1.77937 0
M  V30 5141 H 467.766 -4.69346 3.53536 0
M  V30 5142 H 469.29 -5.37431 2.89828 0
M  V30 5143 H 470.704 -3.67228 4.40246 0
M  V30 5144 H 469.101 -3.22932 5.05801 0
M  V30 5145 H 470.171 -1.96047 4.43502 0
M  V30 5146 N 471.514 -1.37532 -0.769588 0
M  V30 5147 C 472.76 -1.33057 -1.53048 0
M  V30 5148 C 473.093 0.0841865 -1.94017 0
M  V30 5149 O 472.368 1.04198 -1.64235 0
M  V30 5150 C 472.651 -2.27166 -2.79406 0
M  V30 5151 C 472.504 -3.77429 -2.44677 0
M  V30 5152 C 473.823 -2.19683 -3.81349 0
M  V30 5153 H 470.942 -0.484655 -0.555228 0
M  V30 5154 H 473.584 -1.68251 -0.882702 0
M  V30 5155 H 471.734 -1.97283 -3.34682 0
M  V30 5156 H 473.406 -4.17918 -1.953 0
M  V30 5157 H 471.649 -3.95892 -1.77346 0
M  V30 5158 H 472.32 -4.38716 -3.35011 0
M  V30 5159 H 474.796 -2.46029 -3.35573 0
M  V30 5160 H 473.672 -2.87668 -4.67481 0
M  V30 5161 H 473.933 -1.19045 -4.25771 0
M  V30 5162 N 472.992 0.995999 -1.22138 0
M  V30 5163 C 474.24 1.73167 -1.042 0
M  V30 5164 C 474.561 1.90329 0.42423 0
M  V30 5165 O 473.831 1.4607 1.30539 0
M  V30 5166 H 472.411 0.641593 -0.38258 0
M  V30 5167 H 475.073 1.19974 -1.53598 0
M  V30 5168 H 474.169 2.72734 -1.51731 0
M  V30 5169 N 474.47 1.03057 1.19235 0
M  V30 5170 C 475.38 0.622922 2.26179 0
M  V30 5171 C 476.396 -0.346113 1.70523 0
M  V30 5172 O 477.572 -0.203572 2.00369 0
M  V30 5173 C 474.637 -0.0182063 3.46695 0
M  V30 5174 C 473.698 0.998546 4.17526 0
M  V30 5175 C 472.931 0.387917 5.32288 0
M  V30 5176 O 473.154 -0.808668 5.64639 0
M  V30 5177 O 472.088 1.1116 5.91546 0
M  V30 5178 H 475.914 1.51363 2.63292 0
M  V30 5179 H 473.499 0.800856 1.26122 0
M  V30 5180 H 475.381 -0.375606 4.19723 0
M  V30 5181 H 474.056 -0.882895 3.11427 0
M  V30 5182 H 472.963 1.40756 3.4661 0
M  V30 5183 H 474.296 1.83366 4.56769 0
M  V30 5184 N 475.948 -1.35272 0.808662 0
M  V30 5185 C 476.896 -2.31663 0.208606 0
M  V30 5186 C 477.89 -1.56731 -0.642778 0
M  V30 5187 O 479.096 -1.71843 -0.53571 0
M  V30 5188 H 475.471 -0.750421 0.0486993 0
M  V30 5189 H 477.442 -2.79814 1.03666 0
M  V30 5190 C 476.191 -3.42008 -0.626573 0
M  V30 5191 H 475.514 -3.99795 0.0192103 0
M  V30 5192 H 476.954 -4.11727 -1.01278 0
M  V30 5193 C 475.413 -2.85226 -1.79298 0
M  V30 5194 O 475.943 -2.78945 -2.89055 0
M  V30 5195 N 474.149 -2.42245 -1.60516 0
M  V30 5196 H 473.696 -2.47554 -0.712375 0
M  V30 5197 H 473.654 -2.04603 -2.38715 0
M  V30 5198 N 477.426 -0.562348 -1.47226 0
M  V30 5199 C 478.654 -0.0452275 -2.06851 0
M  V30 5200 C 479.069 1.25078 -1.41424 0
M  V30 5201 O 478.426 1.75156 -0.512513 0
M  V30 5202 C 478.477 0.148674 -3.61194 0
M  V30 5203 O 478.198 -1.09602 -4.24169 0
M  V30 5204 C 479.699 0.702488 -4.37699 0
M  V30 5205 H 476.919 -0.0481775 -0.669268 0
M  V30 5206 H 479.463 -0.777223 -1.89155 0
M  V30 5207 H 477.618 0.830817 -3.78386 0
M  V30 5208 H 478.032 -0.896982 -5.16773 0
M  V30 5209 H 479.506 0.78743 -5.46355 0
M  V30 5210 H 479.983 1.71493 -4.04335 0
M  V30 5211 H 480.589 0.0558772 -4.25263 0
M  V30 5212 N 478.904 1.54736 -0.299062 0
M  V30 5213 C 479.834 2.26409 0.571085 0
M  V30 5214 C 480.815 1.2629 1.13951 0
M  V30 5215 O 482 1.55059 1.16921 0
M  V30 5216 C 479.13 3.00338 1.74396 0
M  V30 5217 C 478.084 4.07588 1.30599 0
M  V30 5218 C 477.41 4.69222 2.56387 0
M  V30 5219 C 478.71 5.20455 0.438645 0
M  V30 5220 H 480.404 2.99388 -0.0266991 0
M  V30 5221 H 477.95 1.43993 -0.0142812 0
M  V30 5222 H 479.903 3.49198 2.35878 0
M  V30 5223 H 478.627 2.24934 2.36796 0
M  V30 5224 H 477.286 3.59575 0.71424 0
M  V30 5225 H 476.934 3.9046 3.17097 0
M  V30 5226 H 476.634 5.41653 2.27784 0
M  V30 5227 H 478.158 5.20844 3.18675 0
M  V30 5228 H 479.572 5.65221 0.959085 0
M  V30 5229 H 477.969 5.99594 0.246466 0
M  V30 5230 H 479.039 4.8192 -0.536738 0
M  V30 5231 N 480.382 0.0267497 1.57577 0
M  V30 5232 C 481.622 -0.65659 1.93567 0
M  V30 5233 C 481.986 -1.69429 0.903213 0
M  V30 5234 O 483.187 -2.42994 1.14923 0
M  V30 5235 C 481.458 -1.25912 3.34486 0
M  V30 5236 S 483.017 -1.96386 3.924 0
M  V30 5237 H 479.835 -0.216237 0.67732 0
M  V30 5238 H 482.437 0.0898475 1.95293 0
M  V30 5239 H 481.141 -0.491405 4.07447 0
M  V30 5240 H 480.672 -2.04291 3.36198 0
M  V30 5241 H 482.687 -3.24202 3.75643 0
M  V30 5242 N 481.861 -1.55662 -0.24637 0
M  V30 5243 C 482.808 -1.90361 -1.30504 0
M  V30 5244 C 483.778 -0.757905 -1.47801 0
M  V30 5245 O 484.963 -1.01161 -1.61775 0
M  V30 5246 C 482.103 -2.2042 -2.65535 0
M  V30 5247 C 481.216 -3.47799 -2.56242 0
M  V30 5248 C 480.351 -3.67426 -3.8363 0
M  V30 5249 C 479.39 -4.88403 -3.68956 0
M  V30 5250 N 478.527 -5.04548 -4.88237 0
M  V30 5251 H 483.367 -2.80645 -1.00213 0
M  V30 5252 H 480.904 -1.38924 -0.483577 0
M  V30 5253 H 482.862 -2.35853 -3.44135 0
M  V30 5254 H 481.492 -1.3334 -2.93973 0
M  V30 5255 H 480.544 -3.40694 -1.69208 0
M  V30 5256 H 481.856 -4.36544 -2.4131 0
M  V30 5257 H 481.01 -3.82821 -4.70673 0
M  V30 5258 H 479.749 -2.76914 -4.01459 0
M  V30 5259 H 478.754 -4.72984 -2.80296 0
M  V30 5260 H 479.979 -5.80375 -3.52621 0
M  V30 5261 H 477.925 -4.16974 -5.06427 0
M  V30 5262 H 477.842 -5.87384 -4.75937 0
M  V30 5263 H 479.11 -5.24355 -5.76777 0
M  V30 5264 N 483.339 0.512053 -1.4905 0
M  V30 5265 C 484.585 1.26874 -1.58212 0
M  V30 5266 C 484.918 1.9241 -0.263073 0
M  V30 5267 O 484.193 1.80181 0.732476 0
M  V30 5268 C 484.476 2.34428 -2.73341 0
M  V30 5269 C 484.329 1.73466 -4.15006 0
M  V30 5270 C 485.648 3.36073 -2.84154 0
M  V30 5271 H 482.767 0.459924 -0.575881 0
M  V30 5272 H 485.409 0.568587 -1.81293 0
M  V30 5273 H 483.559 2.94146 -2.53792 0
M  V30 5274 H 485.231 1.17661 -4.46042 0
M  V30 5275 H 483.474 1.03921 -4.21168 0
M  V30 5276 H 484.145 2.51426 -4.91415 0
M  V30 5277 H 486.621 2.86332 -3.01916 0
M  V30 5278 H 485.497 4.08703 -3.66406 0
M  V30 5279 H 485.758 3.97725 -1.93048 0
M  V30 5280 N 484.817 1.37938 0.762283 0
M  V30 5281 C 486.065 1.33404 1.51815 0
M  V30 5282 C 486.386 -0.0780975 1.94844 0
M  V30 5283 O 485.656 -1.02405 1.67003 0
M  V30 5284 H 484.236 0.490839 0.563104 0
M  V30 5285 H 486.898 1.72527 0.906669 0
M  V30 5286 H 485.994 1.97926 2.41313 0
M  V30 5287 N 486.295 -0.989507 1.22664 0
M  V30 5288 C 487.572 -1.70326 0.961688 0
M  V30 5289 C 487.952 -2.04537 -0.522279 0
M  V30 5290 O 487.3 -1.73136 -1.49118 0
M  V30 5291 C 487.51 -2.95135 1.86269 0
M  V30 5292 C 488.858 -3.67842 2.12078 0
M  V30 5293 O 489.882 -3.0515 1.83745 0
M  V30 5294 O 488.741 -4.80644 2.60083 0
M  V30 5295 H 485.835 -0.743589 0.361946 0
M  V30 5296 H 488.381 -1.04555 1.33665 0
M  V30 5297 H 487.153 -2.66382 2.8663 0
M  V30 5298 H 486.776 -3.68645 1.48952 0
M  V30 5299 N 487.773 -1.03688 -1.18687 0
M  V30 5300 C 489.02 -0.73803 -1.88572 0
M  V30 5301 C 489.348 0.733973 -1.8012 0
M  V30 5302 O 488.603 1.55098 -1.19344 0
M  V30 5303 C 488.902 -1.14477 -3.3857 0
M  V30 5304 C 488.568 -2.61641 -3.67226 0
M  V30 5305 C 487.23 -3.01846 -3.74757 0
M  V30 5306 C 489.582 -3.56812 -3.79914 0
M  V30 5307 C 486.91 -4.36118 -3.92451 0
M  V30 5308 C 489.262 -4.90799 -3.99123 0
M  V30 5309 C 487.926 -5.3068 -4.04888 0
M  V30 5310 H 487.196 -0.270064 -0.690034 0
M  V30 5311 H 489.843 -1.3012 -1.40503 0
M  V30 5312 H 488.148 -0.500337 -3.88592 0
M  V30 5313 H 489.845 -0.89095 -3.90977 0
M  V30 5314 H 486.435 -2.29498 -3.61979 0
M  V30 5315 H 490.619 -3.26899 -3.73431 0
M  V30 5316 H 485.875 -4.66542 -3.95157 0
M  V30 5317 H 490.049 -5.64451 -4.07882 0
M  V30 5318 H 487.676 -6.34733 -4.18351 0
M  V30 5319 N 489.251 1.34841 -0.815825 0
M  V30 5320 C 490.499 1.98107 -0.399744 0
M  V30 5321 C 490.82 1.65019 1.03894 0
M  V30 5322 O 490.09 0.937311 1.72021 0
M  V30 5323 H 488.67 0.732827 -0.144823 0
M  V30 5324 H 491.332 1.64599 -1.0437 0
M  V30 5325 H 490.428 3.07856 -0.512965 0
M  V30 5326 N 490.729 0.570148 1.46925 0
M  V30 5327 C 491.659 -0.158274 2.32963 0
M  V30 5328 C 492.64 -0.896093 1.44583 0
M  V30 5329 O 493.825 -0.874022 1.7342 0
M  V30 5330 C 490.955 -1.18055 3.26619 0
M  V30 5331 C 489.909 -0.558379 4.24342 0
M  V30 5332 C 489.235 -1.68623 5.07415 0
M  V30 5333 C 490.535 0.496295 5.19937 0
M  V30 5334 H 492.229 0.560046 2.94115 0
M  V30 5335 H 489.775 0.270775 1.41431 0
M  V30 5336 H 491.728 -1.69841 3.85658 0
M  V30 5337 H 490.452 -1.92899 2.63548 0
M  V30 5338 H 489.111 -0.0617157 3.66548 0
M  V30 5339 H 488.759 -2.42402 4.40738 0
M  V30 5340 H 488.459 -1.27564 5.73586 0
M  V30 5341 H 489.983 -2.20709 5.69315 0
M  V30 5342 H 491.397 0.0640052 5.73264 0
M  V30 5343 H 489.794 0.82649 5.94381 0
M  V30 5344 H 490.864 1.38735 4.6463 0
M  V30 5345 N 492.207 -1.54576 0.307264 0
M  V30 5346 C 493.17 -2.22423 -0.553224 0
M  V30 5347 C 494.17 -1.21231 -1.05639 0
M  V30 5348 O 495.36 -1.45923 -0.951419 0
M  V30 5349 C 492.492 -2.91552 -1.76664 0
M  V30 5350 H 493.685 -2.99874 0.0396484 0
M  V30 5351 H 491.238 -1.56192 0.0581629 0
M  V30 5352 H 491.973 -2.18196 -2.39918 0
M  V30 5353 H 491.758 -3.65738 -1.41343 0
M  V30 5354 H 493.248 -3.43292 -2.37783 0
M  V30 5355 N 493.685 -0.035106 -1.57561 0
M  V30 5356 C 495.101 0.321334 -1.56332 0
M  V30 5357 C 495.301 1.72509 -1.04129 0
M  V30 5358 O 494.357 2.4287 -0.690694 0
M  V30 5359 C 495.67 0.164469 -3.0025 0
M  V30 5360 C 497.218 0.236786 -3.12103 0
M  V30 5361 C 497.693 0.10864 -4.57871 0
M  V30 5362 N 499.184 0.165433 -4.62904 0
M  V30 5363 C 499.919 0.0901506 -5.73329 0
M  V30 5364 N 499.415 -0.0365606 -6.9279 0
M  V30 5365 N 501.208 0.144572 -5.61914 0
M  V30 5366 H 493.359 -0.952976 -1.89821 0
M  V30 5367 H 495.622 -0.368537 -0.873432 0
M  V30 5368 H 495.328 -0.802746 -3.42416 0
M  V30 5369 H 495.202 0.932194 -3.655 0
M  V30 5370 H 497.589 1.19446 -2.69845 0
M  V30 5371 H 497.67 -0.561419 -2.49563 0
M  V30 5372 H 497.314 -0.845644 -5.00811 0
M  V30 5373 H 497.244 0.925786 -5.18398 0
M  V30 5374 H 499.735 0.263269 -3.76982 0
M  V30 5375 H 500.048 -0.0871487 -7.72751 0
M  V30 5376 H 498.393 -0.0714256 -6.94963 0
M  V30 5377 H 501.584 0.242006 -4.67474 0
M  V30 5378 H 501.757 0.0824413 -6.47948 0
M  V30 5379 N 495.163 1.55791 0.238111 0
M  V30 5380 C 496.093 1.94068 1.29846 0
M  V30 5381 C 497.074 0.806726 1.49753 0
M  V30 5382 O 498.259 1.06772 1.62214 0
M  V30 5383 C 495.389 2.24302 2.65153 0
M  V30 5384 C 494.343 3.40032 2.59927 0
M  V30 5385 C 493.669 3.55829 3.99111 0
M  V30 5386 C 494.969 4.75476 2.16148 0
M  V30 5387 H 496.663 2.82887 0.980563 0
M  V30 5388 H 494.209 1.36105 0.470253 0
M  V30 5389 H 496.162 2.4967 3.39475 0
M  V30 5390 H 494.886 1.32318 2.98596 0
M  V30 5391 H 493.545 3.14687 1.88063 0
M  V30 5392 H 493.193 2.6125 4.29834 0
M  V30 5393 H 492.893 4.3366 3.96501 0
M  V30 5394 H 494.417 3.83528 4.7512 0
M  V30 5395 H 495.831 5.00158 2.80205 0
M  V30 5396 H 494.228 5.56472 2.24631 0
M  V30 5397 H 495.298 4.71946 1.11333 0
M  V30 5398 N 496.642 -0.504142 1.49319 0
M  V30 5399 C 497.891 -1.25507 1.57895 0
M  V30 5400 C 498.204 -1.93735 0.269433 0
M  V30 5401 O 499.41 -2.70492 0.233706 0
M  V30 5402 C 497.866 -2.27869 2.78574 0
M  V30 5403 C 497.474 -1.65594 4.16272 0
M  V30 5404 C 499.218 -3.0381 2.96479 0
M  V30 5405 C 497.125 -2.66048 5.28178 0
M  V30 5406 H 496.055 -0.47212 0.587894 0
M  V30 5407 H 498.706 -0.52931 1.757 0
M  V30 5408 H 497.088 -3.03594 2.54257 0
M  V30 5409 H 498.262 -0.958826 4.50714 0
M  V30 5410 H 496.577 -1.02055 4.037 0
M  V30 5411 H 499.174 -3.78925 3.77253 0
M  V30 5412 H 499.517 -3.61235 2.06918 0
M  V30 5413 H 500.05 -2.352 3.20821 0
M  V30 5414 H 496.789 -2.13408 6.19788 0
M  V30 5415 H 496.309 -3.34009 4.98195 0
M  V30 5416 H 497.988 -3.28536 5.57381 0
M  V30 5417 N 498.12 -1.38341 -0.754957 0
M  V30 5418 C 499.067 -1.3546 -1.86867 0
M  V30 5419 C 500.037 -0.217369 -1.64672 0
M  V30 5420 O 501.222 -0.409383 -1.86356 0
M  V30 5421 C 498.362 -1.18413 -3.24149 0
M  V30 5422 C 497.475 -2.41511 -3.58185 0
M  V30 5423 C 496.61 -2.17205 -4.84763 0
M  V30 5424 C 495.649 -3.36081 -5.11582 0
M  V30 5425 N 494.786 -3.11219 -6.29354 0
M  V30 5426 H 499.626 -2.30672 -1.88664 0
M  V30 5427 H 497.163 -1.14607 -0.922154 0
M  V30 5428 H 499.121 -1.06545 -4.03366 0
M  V30 5429 H 497.751 -0.268397 -3.21682 0
M  V30 5430 H 496.803 -2.64056 -2.73822 0
M  V30 5431 H 498.115 -3.30115 -3.73932 0
M  V30 5432 H 497.269 -2.02465 -5.7192 0
M  V30 5433 H 496.008 -1.25964 -4.71152 0
M  V30 5434 H 495.013 -3.51341 -4.22894 0
M  V30 5435 H 496.238 -4.28196 -5.27091 0
M  V30 5436 H 494.184 -2.22624 -6.17069 0
M  V30 5437 H 494.101 -3.93373 -6.45596 0
M  V30 5438 H 495.369 -3.00132 -7.19403 0
M  V30 5439 N 499.598 0.982988 -1.23187 0
M  V30 5440 C 500.508 2.10907 -1.02739 0
M  V30 5441 C 501.524 1.73979 0.0273188 0
M  V30 5442 O 502.7 2.00702 -0.16757 0
M  V30 5443 C 499.765 3.41142 -0.618304 0
M  V30 5444 C 498.826 3.92112 -1.74777 0
M  V30 5445 C 498.059 5.16131 -1.3581 0
M  V30 5446 O 498.282 5.6989 -0.241201 0
M  V30 5447 O 497.216 5.61103 -2.17824 0
M  V30 5448 H 501.042 2.31046 -1.97108 0
M  V30 5449 H 498.627 1.09284 -1.01869 0
M  V30 5450 H 500.509 4.19488 -0.400982 0
M  V30 5451 H 499.184 3.2234 0.296421 0
M  V30 5452 H 498.091 3.14895 -2.0197 0
M  V30 5453 H 499.424 4.15364 -2.64071 0
M  V30 5454 N 501.076 1.04316 1.18135 0
M  V30 5455 C 502.353 0.662166 1.84051 0
M  V30 5456 C 502.733 -0.858169 1.9287 0
M  V30 5457 O 502.081 -1.76062 1.45652 0
M  V30 5458 C 502.291 1.3409 3.22212 0
M  V30 5459 C 503.639 1.4733 3.9822 0
M  V30 5460 O 504.663 1.29921 3.31661 0
M  V30 5461 O 503.522 1.75722 5.17479 0
M  V30 5462 H 500.616 0.232005 0.79379 0
M  V30 5463 H 503.162 1.1422 1.25506 0
M  V30 5464 H 501.934 2.37853 3.10711 0
M  V30 5465 H 501.557 0.849649 3.88416 0
M  V30 5466 N 502.554 -1.34406 0.822964 0
M  V30 5467 C 503.8 -1.98578 0.411666 0
M  V30 5468 C 504.133 -1.65093 -1.02264 0
M  V30 5469 O 503.408 -0.92258 -1.71227 0
M  V30 5470 C 503.691 -3.54823 0.614235 0
M  V30 5471 C 503.544 -3.9805 2.09466 0
M  V30 5472 C 504.863 -4.40071 0.050221 0
M  V30 5473 H 501.982 -0.721355 0.151047 0
M  V30 5474 H 504.624 -1.59301 1.03554 0
M  V30 5475 H 502.774 -3.88411 0.0831774 0
M  V30 5476 H 504.446 -3.74795 2.68936 0
M  V30 5477 H 502.689 -3.4836 2.5851 0
M  V30 5478 H 503.36 -5.06819 2.18721 0
M  V30 5479 H 505.836 -4.13037 0.503953 0
M  V30 5480 H 504.712 -5.48452 0.221759 0
M  V30 5481 H 504.973 -4.29576 -1.04482 0
M  V30 5482 N 504.032 -0.577932 -1.46621 0
M  V30 5483 C 505.262 -0.0670668 -2.06491 0
M  V30 5484 C 505.67 1.24119 -1.42798 0
M  V30 5485 O 505.013 1.76016 -0.525759 0
M  V30 5486 C 505.075 0.177995 -3.59059 0
M  V30 5487 C 504.739 -1.04394 -4.44917 0
M  V30 5488 C 505.736 -1.95479 -4.81751 0
M  V30 5489 C 503.421 -1.26444 -4.86125 0
M  V30 5490 C 505.415 -3.06965 -5.58615 0
M  V30 5491 C 503.102 -2.38237 -5.62749 0
M  V30 5492 C 504.1 -3.28327 -5.98908 0
M  V30 5493 O 503.788 -4.38179 -6.73984 0
M  V30 5494 H 503.52 -0.0523159 -0.673973 0
M  V30 5495 H 506.074 -0.796966 -1.89308 0
M  V30 5496 H 504.304 0.962451 -3.74531 0
M  V30 5497 H 505.993 0.636782 -4.00874 0
M  V30 5498 H 506.759 -1.79657 -4.50498 0
M  V30 5499 H 502.638 -0.572316 -4.57434 0
M  V30 5500 H 506.182 -3.77309 -5.86757 0
M  V30 5501 H 502.079 -2.54023 -5.93416 0
M  V30 5502 H 502.847 -4.36486 -6.92403 0
M  V30 5503 N 505.51 1.54411 -0.315457 0
M  V30 5504 C 506.44 2.27002 0.547039 0
M  V30 5505 C 507.421 1.27492 1.12605 0
M  V30 5506 O 508.606 1.5629 1.15269 0
M  V30 5507 C 505.736 3.02171 1.71201 0
M  V30 5508 C 504.69 4.0895 1.26268 0
M  V30 5509 C 504.016 4.71915 2.51396 0
M  V30 5510 C 505.316 5.20891 0.383419 0
M  V30 5511 H 507.01 2.99343 -0.0584517 0
M  V30 5512 H 504.556 1.4397 -0.0295527 0
M  V30 5513 H 506.509 3.51681 2.32161 0
M  V30 5514 H 505.233 2.27433 2.34397 0
M  V30 5515 H 503.892 3.60312 0.676062 0
M  V30 5516 H 503.54 3.93801 3.12937 0
M  V30 5517 H 503.24 5.44039 2.22026 0
M  V30 5518 H 504.764 5.24195 3.13133 0
M  V30 5519 H 506.178 5.66206 0.899082 0
M  V30 5520 H 504.575 5.99821 0.182857 0
M  V30 5521 H 505.645 4.81324 -0.587821 0
M  V30 5522 N 506.988 0.0434614 1.5754 0
M  V30 5523 C 508.213 -0.645358 1.97104 0
M  V30 5524 C 508.638 -1.64037 0.920521 0
M  V30 5525 O 507.996 -1.80922 -0.11708 0
M  V30 5526 C 508.044 -1.31547 3.35749 0
M  V30 5527 O 507.148 -2.43103 3.33129 0
M  V30 5528 H 506.489 -0.168403 0.64229 0
M  V30 5529 H 509.019 0.109573 2.04306 0
M  V30 5530 H 509.029 -1.66895 3.72304 0
M  V30 5531 H 507.704 -0.586205 4.11748 0
M  V30 5532 H 506.281 -2.0976 3.0831 0
M  V30 5533 N 508.466 -1.55915 -0.229846 0
M  V30 5534 C 509.416 -1.8813 -1.28807 0
M  V30 5535 C 510.4 -0.743621 -1.42685 0
M  V30 5536 O 511.592 -1.00588 -1.4564 0
M  V30 5537 C 508.721 -2.19431 -2.64017 0
M  V30 5538 C 507.807 -3.39569 -2.54074 0
M  V30 5539 N 508.198 -4.58404 -2.13774 0
M  V30 5540 C 506.496 -3.43019 -2.85051 0
M  V30 5541 C 507.197 -5.40557 -2.1488 0
M  V30 5542 N 506.173 -4.80054 -2.55047 0
M  V30 5543 H 509.975 -2.77527 -0.967261 0
M  V30 5544 H 507.489 -1.5637 -0.438433 0
M  V30 5545 H 509.486 -2.40681 -3.40409 0
M  V30 5546 H 508.146 -1.31341 -2.9695 0
M  V30 5547 H 509.157 -4.83716 -1.8504 0
M  V30 5548 H 505.834 -2.65249 -3.22411 0
M  V30 5549 H 507.224 -6.45666 -1.85918 0
M  V30 5550 N 509.944 0.496216 -1.49584 0
M  V30 5551 C 511.221 1.25755 -1.49816 0
M  V30 5552 C 511.601 2.09859 -0.228572 0
M  V30 5553 O 510.949 2.14449 0.788908 0
M  V30 5554 C 511.159 2.11017 -2.7798 0
M  V30 5555 C 512.507 2.70047 -3.27658 0
M  V30 5556 O 513.531 2.21281 -2.79129 0
M  V30 5557 O 512.39 3.58834 -4.1219 0
M  V30 5558 H 509.484 0.569322 -0.599834 0
M  V30 5559 H 512.03 0.510094 -1.61852 0
M  V30 5560 H 510.802 1.48879 -3.61871 0
M  V30 5561 H 510.425 2.92947 -2.68827 0
M  V30 5562 N 511.423 1.38739 0.74761 0
M  V30 5563 C 512.373 1.32948 1.85226 0
M  V30 5564 C 513.357 0.212642 1.59489 0
M  V30 5565 O 514.549 0.449121 1.71207 0
M  V30 5566 C 511.678 1.16279 3.23008 0
M  V30 5567 C 510.764 2.32611 3.54617 0
M  V30 5568 N 511.155 3.58065 3.57244 0
M  V30 5569 C 509.453 2.25293 3.84914 0
M  V30 5570 C 510.154 4.34919 3.8629 0
M  V30 5571 N 509.13 3.64348 4.03425 0
M  V30 5572 H 512.932 2.27927 1.85544 0
M  V30 5573 H 510.446 1.32056 0.945253 0
M  V30 5574 H 512.443 1.10214 4.02068 0
M  V30 5575 H 511.103 0.222394 3.23937 0
M  V30 5576 H 512.114 3.91656 3.3886 0
M  V30 5577 H 508.791 1.39446 3.93524 0
M  V30 5578 H 510.181 5.43605 3.94896 0
M  V30 5579 N 512.901 -0.976442 1.23707 0
M  V30 5580 C 513.849 -2.09078 1.01927 0
M  V30 5581 C 514.843 -1.69345 -0.0430193 0
M  V30 5582 O 516.049 -1.79659 0.110814 0
M  V30 5583 H 512.424 -0.68398 0.312531 0
M  V30 5584 H 514.395 -2.24614 1.96447 0
M  V30 5585 C 513.144 -3.41919 0.631385 0
M  V30 5586 H 512.467 -3.72946 1.44053 0
M  V30 5587 H 513.907 -4.20817 0.518532 0
M  V30 5588 C 512.366 -3.30357 -0.660723 0
M  V30 5589 O 512.896 -3.63542 -1.70881 0
M  V30 5590 N 511.102 -2.83507 -0.638139 0
M  V30 5591 H 510.649 -2.567 0.215108 0
M  V30 5592 H 510.607 -2.76153 -1.50289 0
M  V30 5593 N 514.379 -1.04941 -1.1758 0
M  V30 5594 C 515.628 -0.753124 -1.87112 0
M  V30 5595 C 515.941 0.722507 -1.81767 0
M  V30 5596 O 517.147 1.13265 -2.46746 0
M  V30 5597 C 515.603 -1.29695 -3.35719 0
M  V30 5598 C 515.211 -2.80184 -3.49572 0
M  V30 5599 C 516.955 -1.07759 -4.10595 0
M  V30 5600 C 514.862 -3.2788 -4.92187 0
M  V30 5601 H 513.792 -0.278034 -0.700866 0
M  V30 5602 H 516.443 -1.26637 -1.32798 0
M  V30 5603 H 514.825 -0.711522 -3.89555 0
M  V30 5604 H 515.999 -3.44561 -3.05965 0
M  V30 5605 H 514.314 -3.00632 -2.88113 0
M  V30 5606 H 516.911 -1.40899 -5.15802 0
M  V30 5607 H 517.254 -0.0152302 -4.16297 0
M  V30 5608 H 517.787 -1.62809 -3.62957 0
M  V30 5609 H 514.526 -4.33535 -4.91658 0
M  V30 5610 H 514.046 -2.68245 -5.36475 0
M  V30 5611 H 515.725 -3.22412 -5.60945 0
M  V30 5612 N 515.857 1.33968 -0.830081 0
M  V30 5613 C 517.268 1.80439 -0.479455 0
M  V30 5614 C 517.619 1.68756 1.00079 0
M  V30 5615 O 516.744 1.23171 1.77927 0
M  V30 5616 C 517.339 3.27611 -0.863505 0
M  V30 5617 C 515.898 3.72133 -0.565145 0
M  V30 5618 C 515.045 2.55549 -1.07657 0
M  V30 5619 H 517.996 1.21614 -1.0196 0
M  V30 5620 H 518.017 3.8012 -0.170083 0
M  V30 5621 H 517.529 3.36082 -1.94089 0
M  V30 5622 H 515.63 3.69196 0.502536 0
M  V30 5623 H 515.743 4.65963 -1.11422 0
M  V30 5624 H 514.107 2.49788 -0.497807 0
M  V30 5625 H 514.89 2.66786 -2.16055 0
M  V30 5626 N 517.335 0.585699 1.46312 0
M  V30 5627 C 518.565 0.0780166 2.06453 0
M  V30 5628 C 518.973 -1.2336 1.43454 0
M  V30 5629 O 518.316 -1.75734 0.535086 0
M  V30 5630 C 518.378 -0.158951 3.59148 0
M  V30 5631 C 518.042 1.06752 4.44357 0
M  V30 5632 C 519.039 1.98031 4.80708 0
M  V30 5633 C 516.724 1.2902 4.85447 0
M  V30 5634 C 518.718 3.09924 5.5698 0
M  V30 5635 C 516.405 2.41218 5.61478 0
M  V30 5636 C 517.403 3.31499 5.97158 0
M  V30 5637 O 517.091 4.41747 6.71651 0
M  V30 5638 H 516.823 0.0558894 0.673686 0
M  V30 5639 H 519.377 0.806994 1.88883 0
M  V30 5640 H 517.607 -0.942575 3.75037 0
M  V30 5641 H 519.296 -0.615513 4.01206 0
M  V30 5642 H 520.062 1.82043 4.49539 0
M  V30 5643 H 515.941 0.596567 4.57124 0
M  V30 5644 H 519.485 3.80415 5.84748 0
M  V30 5645 H 515.382 2.57167 5.9206 0
M  V30 5646 H 516.15 4.40152 6.90079 0
M  V30 5647 N 518.813 -1.54241 0.323641 0
M  V30 5648 C 519.76 -2.24339 -0.542277 0
M  V30 5649 C 520.73 -1.23421 -1.11159 0
M  V30 5650 O 521.915 -1.52104 -1.15192 0
M  V30 5651 C 519.055 -3.00479 -1.69725 0
M  V30 5652 C 518.168 -4.16214 -1.15716 0
M  V30 5653 C 517.303 -4.79884 -2.27783 0
M  V30 5654 C 516.342 -5.87722 -1.71023 0
M  V30 5655 N 515.479 -6.45254 -2.76752 0
M  V30 5656 H 520.319 -2.97935 0.0620613 0
M  V30 5657 H 517.856 -1.47039 0.0423993 0
M  V30 5658 H 519.814 -3.42869 -2.3769 0
M  V30 5659 H 518.444 -2.29217 -2.27288 0
M  V30 5660 H 517.496 -3.78605 -0.369063 0
M  V30 5661 H 518.808 -4.93838 -0.701832 0
M  V30 5662 H 517.962 -5.25243 -3.03651 0
M  V30 5663 H 516.701 -4.01641 -2.76652 0
M  V30 5664 H 515.706 -5.41765 -0.936518 0
M  V30 5665 H 516.931 -6.67863 -1.2303 0
M  V30 5666 H 514.877 -5.69884 -3.24912 0
M  V30 5667 H 514.794 -7.18292 -2.35782 0
M  V30 5668 H 516.062 -6.95269 -3.5245 0
M  V30 5669 N 520.291 -0.0518155 -1.57515 0
M  V30 5670 C 521.537 0.616839 -1.93821 0
M  V30 5671 C 521.892 1.68413 -0.930307 0
M  V30 5672 O 521.185 1.91534 0.0504231 0
M  V30 5673 C 521.379 1.25607 -3.34601 0
M  V30 5674 C 521.208 0.252222 -4.48992 0
M  V30 5675 C 519.978 -0.156031 -5.05059 0
M  V30 5676 C 522.176 -0.502613 -5.11838 0
M  V30 5677 N 520.158 -1.15267 -6.02981 0
M  V30 5678 C 521.529 -1.35232 -6.05072 0
M  V30 5679 C 523.584 -0.560855 -4.94731 0
M  V30 5680 C 522.287 -2.25505 -6.83037 0
M  V30 5681 C 524.313 -1.45102 -5.73323 0
M  V30 5682 C 523.675 -2.28845 -6.6619 0
M  V30 5683 H 519.774 0.197344 -0.75669 0
M  V30 5684 H 522.358 -0.124297 -1.94303 0
M  V30 5685 H 520.529 1.96723 -3.34895 0
M  V30 5686 H 522.261 1.88358 -3.58195 0
M  V30 5687 H 519.016 0.22306 -4.73074 0
M  V30 5688 H 519.44 -1.64791 -6.56638 0
M  V30 5689 H 524.082 0.0723639 -4.22738 0
M  V30 5690 H 521.8 -2.89872 -7.54321 0
M  V30 5691 H 525.386 -1.50066 -5.62113 0
M  V30 5692 H 524.266 -2.96608 -7.25943 0
M  V30 5693 N 521.769 1.56035 0.221574 0
M  V30 5694 C 522.997 1.8313 0.962864 0
M  V30 5695 C 523.412 0.630934 1.77946 0
M  V30 5696 O 522.769 -0.400519 1.78051 0
M  V30 5697 C 522.82 3.08742 1.88045 0
M  V30 5698 O 522.541 4.24147 1.09686 0
M  V30 5699 C 524.042 3.48824 2.73563 0
M  V30 5700 H 521.262 0.608775 0.282194 0
M  V30 5701 H 523.806 2.03124 0.23681 0
M  V30 5702 H 521.961 2.90723 2.56045 0
M  V30 5703 H 522.375 4.95505 1.71974 0
M  V30 5704 H 523.849 4.39752 3.3365 0
M  V30 5705 H 524.326 2.70575 3.45956 0
M  V30 5706 H 524.932 3.69282 2.10976 0
M  V30 5707 N 523.247 -0.488276 1.49845 0
M  V30 5708 C 524.21 -1.57069 1.66919 0
M  V30 5709 C 525.21 -1.51445 0.540479 0
M  V30 5710 O 526.4 -1.5437 0.807188 0
M  V30 5711 C 523.532 -2.96718 1.67844 0
M  V30 5712 H 524.725 -1.43254 2.63474 0
M  V30 5713 H 522.278 -0.713435 1.39068 0
M  V30 5714 H 523.013 -3.15996 0.7292 0
M  V30 5715 H 522.798 -3.02208 2.49826 0
M  V30 5716 H 524.288 -3.75335 1.83066 0
M  V30 5717 N 524.725 -1.39134 -0.740242 0
M  V30 5718 C 526.136 -1.32208 -1.31825 0
M  V30 5719 C 526.487 0.0159919 -1.96193 0
M  V30 5720 O 525.612 0.918111 -1.95958 0
M  V30 5721 C 526.207 -2.39436 -2.39699 0
M  V30 5722 C 524.766 -2.36048 -2.93187 0
M  V30 5723 C 523.913 -2.21599 -1.66701 0
M  V30 5724 H 526.864 -1.49298 -0.538133 0
M  V30 5725 H 526.885 -2.05922 -3.19963 0
M  V30 5726 H 526.397 -3.36811 -1.92821 0
M  V30 5727 H 524.498 -1.42295 -3.44359 0
M  V30 5728 H 524.611 -3.30704 -3.46658 0
M  V30 5729 H 522.975 -1.68681 -1.90837 0
M  V30 5730 H 523.758 -3.20936 -1.21882 0
M  V30 5731 N 526.204 0.969867 -1.24223 0
M  V30 5732 C 527.114 2.09806 -1.0497 0
M  V30 5733 C 528.13 1.73998 0.00886455 0
M  V30 5734 O 529.306 2.00513 -0.188848 0
M  V30 5735 C 526.371 3.40467 -0.654452 0
M  V30 5736 C 525.432 3.90236 -1.78926 0
M  V30 5737 C 524.665 5.14662 -1.41277 0
M  V30 5738 O 524.888 5.69602 -0.301632 0
M  V30 5739 O 523.822 5.58761 -2.23763 0
M  V30 5740 H 527.648 2.28942 -1.99548 0
M  V30 5741 H 525.233 1.08197 -1.03023 0
M  V30 5742 H 527.115 4.19039 -0.445452 0
M  V30 5743 H 525.79 3.22636 0.262216 0
M  V30 5744 H 524.697 3.12735 -2.05299 0
M  V30 5745 H 526.03 4.1254 -2.68462 0
M  V30 5746 N 527.682 1.05563 1.17022 0
M  V30 5747 C 528.645 0.664098 2.19368 0
M  V30 5748 C 529.645 -0.286358 1.5823 0
M  V30 5749 O 530.835 -0.069728 1.7406 0
M  V30 5750 C 527.967 -0.0239932 3.40892 0
M  V30 5751 H 529.16 1.57 2.55521 0
M  V30 5752 H 526.713 0.849964 1.31169 0
M  V30 5753 H 527.448 -0.942988 3.10287 0
M  V30 5754 H 527.233 0.659351 3.86516 0
M  V30 5755 H 528.723 -0.283909 4.16634 0
M  V30 5756 N 529.16 -1.33526 0.837174 0
M  V30 5757 C 530.09 -2.31764 0.284206 0
M  V30 5758 C 531.071 -1.58896 -0.607142 0
M  V30 5759 O 532.256 -1.86798 -0.531047 0
M  V30 5760 C 529.386 -3.43029 -0.542962 0
M  V30 5761 C 528.34 -4.27255 0.252451 0
M  V30 5762 C 527.666 -5.3012 -0.69836 0
M  V30 5763 C 528.966 -5.01229 1.46858 0
M  V30 5764 H 530.66 -2.78262 1.10502 0
M  V30 5765 H 528.206 -1.3378 0.532812 0
M  V30 5766 H 530.159 -4.1078 -0.940096 0
M  V30 5767 H 528.883 -2.95216 -1.39697 0
M  V30 5768 H 527.542 -3.61127 0.631124 0
M  V30 5769 H 527.19 -4.78564 -1.54872 0
M  V30 5770 H 526.89 -5.87353 -0.170274 0
M  V30 5771 H 528.414 -6.00737 -1.09305 0
M  V30 5772 H 529.828 -5.61756 1.14469 0
M  V30 5773 H 528.225 -5.68104 1.93333 0
M  V30 5774 H 529.295 -4.301 2.23924 0
M  V30 5775 N 530.638 -0.59345 -1.46 0
M  V30 5776 C 531.863 -0.0872365 -2.07216 0
M  V30 5777 C 532.288 1.2131 -1.43755 0
M  V30 5778 O 531.646 1.73528 -0.525152 0
M  V30 5779 C 531.694 0.0538197 -3.6056 0
M  V30 5780 O 530.798 1.10765 -3.97247 0
M  V30 5781 H 530.139 -0.0676598 -0.660544 0
M  V30 5782 H 532.669 -0.819445 -1.87473 0
M  V30 5783 H 532.679 0.256567 -4.07193 0
M  V30 5784 H 531.354 -0.895739 -4.0614 0
M  V30 5785 H 529.931 0.882501 -3.62307 0
M  V30 5786 N 532.116 1.54067 -0.331816 0
M  V30 5787 C 533.532 1.59587 0.0205388 0
M  V30 5788 C 533.732 1.34813 1.49759 0
M  V30 5789 O 532.788 1.13661 2.25471 0
M  V30 5790 C 534.101 2.97959 -0.405103 0
M  V30 5791 C 535.649 3.10964 -0.356454 0
M  V30 5792 C 536.124 4.51694 -0.757384 0
M  V30 5793 N 537.615 4.57709 -0.71111 0
M  V30 5794 C 538.35 5.64729 -0.993427 0
M  V30 5795 N 537.846 6.79652 -1.3433 0
M  V30 5796 N 539.639 5.54546 -0.918442 0
M  V30 5797 H 531.79 1.68426 -1.29407 0
M  V30 5798 H 534.053 0.78819 -0.526745 0
M  V30 5799 H 533.759 3.21115 -1.43451 0
M  V30 5800 H 533.633 3.76524 0.225692 0
M  V30 5801 H 536.02 2.87538 0.663763 0
M  V30 5802 H 536.101 2.34484 -1.02229 0
M  V30 5803 H 535.745 4.75853 -1.77555 0
M  V30 5804 H 535.675 5.26555 -0.0691444 0
M  V30 5805 H 538.166 3.75176 -0.452883 0
M  V30 5806 H 538.479 7.57221 -1.54388 0
M  V30 5807 H 536.824 6.81128 -1.38164 0
M  V30 5808 H 540.015 4.63641 -0.644536 0
M  V30 5809 H 540.188 6.37861 -1.14181 0
M  V30 5810 N 533.594 0.0601682 1.57485 0
M  V30 5811 C 534.842 -0.610386 1.92662 0
M  V30 5812 C 535.163 -1.70849 0.939981 0
M  V30 5813 O 534.433 -1.95895 -0.0137455 0
M  V30 5814 H 533.013 -0.228457 0.711208 0
M  V30 5815 H 535.675 0.115288 1.94559 0
M  V30 5816 H 534.771 -1.0432 2.94149 0
M  V30 5817 N 535.072 -1.5615 -0.213296 0
M  V30 5818 C 536.022 -1.89485 -1.26804 0
M  V30 5819 C 537.006 -0.758713 -1.41889 0
M  V30 5820 O 538.198 -1.02127 -1.44565 0
M  V30 5821 C 535.327 -2.22219 -2.61675 0
M  V30 5822 C 534.413 -3.42245 -2.50458 0
M  V30 5823 N 534.804 -4.60645 -2.089 0
M  V30 5824 C 533.102 -3.46023 -2.81397 0
M  V30 5825 C 533.803 -5.42805 -2.09135 0
M  V30 5826 N 532.779 -4.82732 -2.49941 0
M  V30 5827 H 536.581 -2.78537 -0.937771 0
M  V30 5828 H 534.095 -1.56826 -0.421824 0
M  V30 5829 H 536.092 -2.44278 -3.37837 0
M  V30 5830 H 534.752 -1.34484 -2.95541 0
M  V30 5831 H 535.763 -4.85651 -1.79899 0
M  V30 5832 H 532.44 -2.68654 -3.1958 0
M  V30 5833 H 533.83 -6.47601 -1.79059 0
M  V30 5834 N 536.55 0.480323 -1.50102 0
M  V30 5835 C 537.78 1.25475 -1.64133 0
M  V30 5836 C 538.188 1.8647 -0.320272 0
M  V30 5837 O 537.531 1.69561 0.70673 0
M  V30 5838 C 537.593 2.40996 -2.6676 0
M  V30 5839 C 537.257 2.00711 -4.10565 0
M  V30 5840 C 538.254 1.53492 -4.96725 0
M  V30 5841 C 535.939 2.09714 -4.56427 0
M  V30 5842 C 537.933 1.15806 -6.26792 0
M  V30 5843 C 535.62 1.7164 -5.86501 0
M  V30 5844 C 536.618 1.24763 -6.71508 0
M  V30 5845 O 536.306 0.872122 -7.99155 0
M  V30 5846 H 536.038 0.385983 -0.554971 0
M  V30 5847 H 538.592 0.580848 -1.97016 0
M  V30 5848 H 536.822 3.11528 -2.291 0
M  V30 5849 H 538.511 3.02981 -2.70106 0
M  V30 5850 H 539.277 1.45966 -4.62514 0
M  V30 5851 H 535.156 2.4515 -3.90413 0
M  V30 5852 H 538.7 0.791465 -6.93096 0
M  V30 5853 H 534.597 1.78822 -6.20236 0
M  V30 5854 H 535.365 1.00178 -8.12346 0
M  V30 5855 N 538.028 1.39524 0.732853 0
M  V30 5856 C 539.253 1.40329 1.52717 0
M  V30 5857 C 539.678 0.000286574 1.881 0
M  V30 5858 O 539.036 -0.987262 1.52062 0
M  V30 5859 C 539.084 2.28464 2.78992 0
M  V30 5860 O 538.188 1.716 3.75003 0
M  V30 5861 H 537.529 0.47778 0.461109 0
M  V30 5862 H 540.059 1.83546 0.903996 0
M  V30 5863 H 540.069 2.43051 3.27705 0
M  V30 5864 H 538.744 3.30425 2.52572 0
M  V30 5865 H 537.321 1.66267 3.33781 0
M  V30 5866 N 539.506 -0.963266 1.24736 0
M  V30 5867 C 540.734 -1.74166 1.11686 0
M  V30 5868 C 541.149 -1.8589 -0.330187 0
M  V30 5869 O 540.506 -1.35042 -1.2276 0
M  V30 5870 C 540.557 -3.15989 1.75595 0
M  V30 5871 O 540.278 -3.04847 3.14642 0
M  V30 5872 C 541.779 -4.10145 1.68213 0
M  V30 5873 H 538.999 -0.546031 0.389989 0
M  V30 5874 H 541.543 -1.20907 1.64929 0
M  V30 5875 H 539.698 -3.66219 1.26343 0
M  V30 5876 H 540.112 -3.9425 3.4593 0
M  V30 5877 H 541.586 -5.07299 2.17604 0
M  V30 5878 H 542.063 -4.3445 0.644208 0
M  V30 5879 H 542.669 -3.65827 2.16912 0
M  V30 5880 N 540.985 -1.06182 -1.16461 0
M  V30 5881 C 541.932 -0.671613 -2.20812 0
M  V30 5882 C 542.902 0.331186 -1.62765 0
M  V30 5883 O 544.087 0.22033 -1.89524 0
M  V30 5884 C 541.227 -0.063029 -3.45042 0
M  V30 5885 C 540.34 -1.11587 -4.1734 0
M  V30 5886 C 539.475 -0.473546 -5.29085 0
M  V30 5887 C 538.514 -1.51 -5.93182 0
M  V30 5888 N 537.651 -0.891118 -6.96422 0
M  V30 5889 H 542.491 -1.56589 -2.53542 0
M  V30 5890 H 540.028 -0.782951 -1.24532 0
M  V30 5891 H 541.986 0.307344 -4.16066 0
M  V30 5892 H 540.616 0.794663 -3.12866 0
M  V30 5893 H 539.668 -1.60396 -3.44931 0
M  V30 5894 H 540.98 -1.90221 -4.61104 0
M  V30 5895 H 540.134 -0.0501432 -6.06679 0
M  V30 5896 H 538.873 0.344687 -4.8648 0
M  V30 5897 H 537.878 -1.94331 -5.14311 0
M  V30 5898 H 539.103 -2.33031 -6.37866 0
M  V30 5899 H 537.049 -0.0935753 -6.55933 0
M  V30 5900 H 536.966 -1.61486 -7.38551 0
M  V30 5901 H 538.234 -0.492822 -7.77941 0
M  V30 5902 N 542.463 1.3308 -0.844243 0
M  V30 5903 C 543.688 2.02341 -0.455282 0
M  V30 5904 C 544.113 1.6308 0.93737 0
M  V30 5905 O 543.471 0.826118 1.61385 0
M  V30 5906 C 543.519 3.55743 -0.58988 0
M  V30 5907 O 542.623 4.1063 0.38166 0
M  V30 5908 H 541.964 0.637898 -0.184343 0
M  V30 5909 H 544.494 1.6986 -1.14056 0
M  V30 5910 H 544.504 4.05243 -0.473522 0
M  V30 5911 H 543.179 3.83662 -1.60549 0
M  V30 5912 H 541.756 3.72236 0.22241 0
M  V30 5913 N 543.941 0.601185 1.45683 0
M  V30 5914 C 545.218 0.0261659 1.95582 0
M  V30 5915 C 545.598 -1.4399 1.5437 0
M  V30 5916 O 544.946 -2.13919 0.80318 0
M  V30 5917 C 545.156 0.217557 3.48321 0
M  V30 5918 C 546.504 0.0950076 4.24494 0
M  V30 5919 O 547.528 0.147345 3.55895 0
M  V30 5920 O 546.387 -0.025261 5.46494 0
M  V30 5921 H 543.481 -0.0393688 0.826062 0
M  V30 5922 H 546.027 0.670798 1.55879 0
M  V30 5923 H 544.799 1.23601 3.71266 0
M  V30 5924 H 544.422 -0.46264 3.94899 0
M  V30 5925 N 545.419 -1.53889 0.339982 0
M  V30 5926 C 546.665 -2.01152 -0.258003 0
M  V30 5927 C 546.998 -1.22749 -1.50487 0
M  V30 5928 O 546.273 -0.314156 -1.91946 0
M  V30 5929 C 546.556 -3.55468 -0.575717 0
M  V30 5930 C 546.409 -4.44584 0.682996 0
M  V30 5931 C 547.728 -4.1768 -1.38677 0
M  V30 5932 H 544.847 -0.731198 -0.0922992 0
M  V30 5933 H 547.489 -1.84352 0.459814 0
M  V30 5934 H 545.639 -3.69914 -1.18725 0
M  V30 5935 H 547.311 -4.41981 1.32102 0
M  V30 5936 H 545.554 -4.13592 1.3086 0
M  V30 5937 H 546.225 -5.5043 0.416001 0
M  V30 5938 H 548.701 -4.0691 -0.869705 0
M  V30 5939 H 547.577 -5.25734 -1.57783 0
M  V30 5940 H 547.838 -3.72069 -2.38782 0
M  V30 5941 N 546.897 -0.0685191 -1.57451 0
M  V30 5942 C 548.143 0.596247 -1.94465 0
M  V30 5943 C 548.498 1.67417 -0.948117 0
M  V30 5944 O 547.791 1.91576 0.0301056 0
M  V30 5945 C 547.985 1.22051 -3.35914 0
M  V30 5946 C 547.814 0.204586 -4.49234 0
M  V30 5947 C 546.584 -0.20959 -5.04865 0
M  V30 5948 C 548.782 -0.556872 -5.11276 0
M  V30 5949 N 546.764 -1.21656 -6.01725 0
M  V30 5950 C 548.135 -1.41642 -6.03604 0
M  V30 5951 C 550.19 -0.613297 -4.94108 0
M  V30 5952 C 548.893 -2.32737 -6.80607 0
M  V30 5953 C 550.919 -1.51174 -5.71752 0
M  V30 5954 C 550.281 -2.35898 -6.63726 0
M  V30 5955 H 546.38 0.189307 -0.75874 0
M  V30 5956 H 548.964 -0.144899 -1.9416 0
M  V30 5957 H 547.135 1.9316 -3.36963 0
M  V30 5958 H 548.867 1.84548 -3.60172 0
M  V30 5959 H 545.622 0.172871 -4.73284 0
M  V30 5960 H 546.046 -1.71746 -6.54853 0
M  V30 5961 H 550.688 0.0275228 -4.22791 0
M  V30 5962 H 548.406 -2.97856 -7.51204 0
M  V30 5963 H 551.992 -1.5602 -5.6049 0
M  V30 5964 H 550.872 -3.04291 -7.22756 0
M  V30 5965 N 548.375 1.56261 0.205012 0
M  V30 5966 C 549.6 1.84491 0.947512 0
M  V30 5967 C 550.025 0.650894 1.76479 0
M  V30 5968 O 549.383 -0.40035 1.76824 0
M  V30 5969 C 549.431 3.10863 1.82747 0
M  V30 5970 O 548.535 2.90719 2.925 0
M  V30 5971 H 547.876 0.607783 0.267386 0
M  V30 5972 H 550.406 2.03485 0.213323 0
M  V30 5973 H 550.416 3.41399 2.23407 0
M  V30 5974 H 549.091 3.97392 1.2269 0
M  V30 5975 H 547.668 2.71457 2.55667 0
M  V30 5976 N 549.853 -0.472356 1.50355 0
M  V30 5977 C 551.1 -1.22453 1.61281 0
M  V30 5978 C 551.428 -1.91972 0.31256 0
M  V30 5979 O 550.683 -1.82696 -0.701475 0
M  V30 5980 C 550.982 -2.29257 2.74182 0
M  V30 5981 C 550.648 -1.76999 4.14708 0
M  V30 5982 C 549.31 -1.62467 4.52944 0
M  V30 5983 C 551.662 -1.38215 5.0254 0
M  V30 5984 C 548.99 -1.07574 5.76754 0
M  V30 5985 C 551.342 -0.847638 6.26895 0
M  V30 5986 C 550.006 -0.688946 6.63935 0
M  V30 5987 H 549.276 -0.448087 0.590168 0
M  V30 5988 H 551.923 -0.520744 1.84284 0
M  V30 5989 H 550.228 -3.05538 2.45263 0
M  V30 5990 H 551.925 -2.87212 2.7984 0
M  V30 5991 H 548.515 -1.89276 3.84542 0
M  V30 5992 H 552.699 -1.48276 4.73633 0
M  V30 5993 H 547.955 -0.940237 6.04127 0
M  V30 5994 H 552.129 -0.538455 6.94315 0
M  V30 5995 H 549.756 -0.261435 7.5975 0
M  V30 5996 N 551.331 -1.39911 -0.725443 0
M  V30 5997 C 552.579 -1.37382 -1.48224 0
M  V30 5998 C 552.9 0.0264107 -1.94982 0
M  V30 5999 O 552.17 0.979408 -1.6966 0
M  V30 6000 H 550.75 -0.505596 -0.549892 0
M  V30 6001 H 553.412 -1.7487 -0.860608 0
M  V30 6002 H 552.508 -2.04254 -2.3598 0
M  V30 6003 N 552.809 0.956637 -1.25245 0
M  V30 6004 C 554.058 1.69537 -1.0927 0
M  V30 6005 C 554.371 1.92136 0.366503 0
M  V30 6006 O 555.577 2.63687 0.64665 0
M  V30 6007 C 554.033 3.05211 -1.9072 0
M  V30 6008 C 553.641 2.90416 -3.41119 0
M  V30 6009 C 555.385 3.82882 -1.83308 0
M  V30 6010 C 553.292 4.21468 -4.14872 0
M  V30 6011 H 552.222 0.635804 -0.405302 0
M  V30 6012 H 554.873 1.06513 -1.49423 0
M  V30 6013 H 553.255 3.69128 -1.43389 0
M  V30 6014 H 554.429 2.35444 -3.9611 0
M  V30 6015 H 552.744 2.26203 -3.49602 0
M  V30 6016 H 555.341 4.79944 -2.35706 0
M  V30 6017 H 555.684 4.0853 -0.800572 0
M  V30 6018 H 556.217 3.25711 -2.28379 0
M  V30 6019 H 552.956 4.01009 -5.18529 0
M  V30 6020 H 552.476 4.76213 -3.64665 0
M  V30 6021 H 554.155 4.90022 -4.22478 0
M  V30 6022 N 554.287 1.06798 1.15896 0
M  V30 6023 C 555.217 0.704677 2.22613 0
M  V30 6024 C 556.198 -0.305252 1.67339 0
M  V30 6025 O 557.383 -0.179247 1.93371 0
M  V30 6026 C 554.513 0.0957325 3.47168 0
M  V30 6027 C 553.467 1.0322 4.15367 0
M  V30 6028 C 552.793 0.286293 5.33933 0
M  V30 6029 C 554.093 2.36341 4.65768 0
M  V30 6030 H 555.787 1.59688 2.53259 0
M  V30 6031 H 553.333 0.769257 1.21731 0
M  V30 6032 H 555.286 -0.170333 4.21056 0
M  V30 6033 H 554.01 -0.831516 3.15838 0
M  V30 6034 H 552.669 1.28309 3.43413 0
M  V30 6035 H 552.317 -0.644237 4.98857 0
M  V30 6036 H 552.017 0.910436 5.80504 0
M  V30 6037 H 553.541 0.0278938 6.10594 0
M  V30 6038 H 554.955 2.1561 5.31211 0
M  V30 6039 H 553.352 2.94299 5.2298 0
M  V30 6040 H 554.422 2.99047 3.81705 0
M  V30 6041 N 555.766 -1.3263 0.851289 0
M  V30 6042 C 556.696 -2.31449 0.308771 0
M  V30 6043 C 557.677 -1.59531 -0.590255 0
M  V30 6044 O 558.862 -1.87351 -0.511205 0
M  V30 6045 C 555.992 -3.43586 -0.506548 0
M  V30 6046 C 554.946 -4.26963 0.297753 0
M  V30 6047 C 554.272 -5.30831 -0.642094 0
M  V30 6048 C 555.572 -4.99643 1.52166 0
M  V30 6049 H 557.266 -2.77074 1.13447 0
M  V30 6050 H 554.812 -1.33207 0.546971 0
M  V30 6051 H 556.765 -4.11754 -0.896474 0
M  V30 6052 H 555.489 -2.96681 -1.36558 0
M  V30 6053 H 554.148 -3.60437 0.669391 0
M  V30 6054 H 553.796 -4.8018 -1.49788 0
M  V30 6055 H 553.496 -5.87501 -0.107968 0
M  V30 6056 H 555.02 -6.01862 -1.02927 0
M  V30 6057 H 556.434 -5.6051 1.20421 0
M  V30 6058 H 554.831 -5.66022 1.99347 0
M  V30 6059 H 555.901 -4.27701 2.28474 0
M  V30 6060 N 557.244 -0.608902 -1.45362 0
M  V30 6061 C 558.194 0.130616 -2.27626 0
M  V30 6062 C 559.178 0.837323 -1.37396 0
M  V30 6063 O 560.37 0.727096 -1.61376 0
M  V30 6064 C 557.499 1.12646 -3.24293 0
M  V30 6065 C 556.585 0.42052 -4.2201 0
M  V30 6066 N 556.976 -0.538569 -5.02925 0
M  V30 6067 C 555.274 0.667901 -4.40971 0
M  V30 6068 C 555.975 -0.953625 -5.7383 0
M  V30 6069 N 554.951 -0.297097 -5.42788 0
M  V30 6070 H 558.753 -0.605996 -2.87585 0
M  V30 6071 H 556.267 -0.432672 -1.5653 0
M  V30 6072 H 558.264 1.67066 -3.81961 0
M  V30 6073 H 556.924 1.86361 -2.65894 0
M  V30 6074 H 557.935 -0.915375 -5.09746 0
M  V30 6075 H 554.612 1.38963 -3.93695 0
M  V30 6076 H 556.002 -1.74473 -6.48852 0
M  V30 6077 N 558.722 1.53707 -0.348139 0
M  V30 6078 C 559.632 2.28881 0.514857 0
M  V30 6079 C 560.648 1.34168 1.10793 0
M  V30 6080 O 561.824 1.6721 1.12262 0
M  V30 6081 C 558.889 3.05042 1.64774 0
M  V30 6082 C 557.95 4.15389 1.08398 0
M  V30 6083 C 557.183 4.87909 2.16287 0
M  V30 6084 O 557.406 4.60137 3.3709 0
M  V30 6085 O 556.34 5.74254 1.80323 0
M  V30 6086 H 560.166 3.03547 -0.0963699 0
M  V30 6087 H 557.751 1.48972 -0.113043 0
M  V30 6088 H 559.633 3.52656 2.30677 0
M  V30 6089 H 558.308 2.33228 2.24469 0
M  V30 6090 H 557.215 3.72068 0.389341 0
M  V30 6091 H 558.548 4.89318 0.531829 0
M  V30 6092 N 560.2 0.0768682 1.57412 0
M  V30 6093 C 561.133 -0.924685 2.08626 0
M  V30 6094 C 562.111 -1.28792 0.992542 0
M  V30 6095 O 563.295 -1.39634 1.26628 0
M  V30 6096 C 560.422 -2.23131 2.54814 0
M  V30 6097 C 559.468 -2.01928 3.75669 0
M  V30 6098 S 560.301 -1.27397 5.20125 0
M  V30 6099 C 561.457 -2.59329 5.69648 0
M  V30 6100 H 561.69 -0.488928 2.93252 0
M  V30 6101 H 559.223 -0.136014 1.538 0
M  V30 6102 H 561.181 -2.98226 2.82084 0
M  V30 6103 H 559.842 -2.63831 1.70447 0
M  V30 6104 H 559.035 -2.98639 4.05993 0
M  V30 6105 H 558.637 -1.34967 3.48798 0
M  V30 6106 H 560.929 -3.55394 5.76803 0
M  V30 6107 H 561.872 -2.33608 6.68456 0
M  V30 6108 H 562.28 -2.66767 4.9749 0
M  V30 6109 N 561.678 -1.56367 -0.196722 0
M  V30 6110 C 562.925 -1.80529 -0.917366 0
M  V30 6111 C 563.253 -0.649817 -1.83324 0
M  V30 6112 O 562.508 0.36451 -1.92275 0
M  V30 6113 C 562.807 -3.10663 -1.767 0
M  V30 6114 C 562.473 -4.3962 -1.00225 0
M  V30 6115 C 561.135 -4.74653 -0.791095 0
M  V30 6116 C 563.487 -5.1913 -0.464035 0
M  V30 6117 C 560.815 -5.86692 -0.0302155 0
M  V30 6118 C 563.167 -6.31964 0.283625 0
M  V30 6119 C 561.831 -6.65581 0.505813 0
M  V30 6120 H 561.101 -0.660602 -0.335688 0
M  V30 6121 H 563.748 -1.90615 -0.183844 0
M  V30 6122 H 562.053 -2.95807 -2.56915 0
M  V30 6123 H 563.75 -3.26563 -2.32718 0
M  V30 6124 H 560.34 -4.12127 -1.17684 0
M  V30 6125 H 564.524 -4.9248 -0.614575 0
M  V30 6126 H 559.78 -6.11211 0.151917 0
M  V30 6127 H 563.954 -6.92791 0.708057 0
M  V30 6128 H 561.581 -7.52239 1.0973 0
M  V30 6129 N 563.156 0.464375 -1.50603 0
M  V30 6130 C 564.381 1.24372 -1.65971 0
M  V30 6131 C 564.806 1.84901 -0.345453 0
M  V30 6132 O 564.164 1.67596 0.691457 0
M  V30 6133 C 564.212 2.32331 -2.7578 0
M  V30 6134 O 563.316 3.37146 -2.375 0
M  V30 6135 H 562.657 0.365604 -0.554283 0
M  V30 6136 H 565.187 0.55183 -1.97018 0
M  V30 6137 H 565.197 2.77539 -2.99059 0
M  V30 6138 H 563.872 1.87648 -3.71162 0
M  V30 6139 H 562.449 2.97602 -2.24694 0
M  V30 6140 N 564.634 1.40294 0.718013 0
M  V30 6141 C 566.05 1.2227 1.02577 0
M  V30 6142 C 566.25 0.0961976 2.0127 0
M  V30 6143 O 565.306 -0.546695 2.46511 0
M  V30 6144 C 566.619 2.56348 1.57182 0
M  V30 6145 C 568.167 2.6334 1.69178 0
M  V30 6146 C 568.642 3.9768 2.27188 0
M  V30 6147 N 570.133 3.99409 2.34578 0
M  V30 6148 C 570.868 5.00141 2.8044 0
M  V30 6149 N 570.364 6.11268 3.26073 0
M  V30 6150 N 572.157 4.87511 2.79802 0
M  V30 6151 H 564.308 2.12304 0.0637899 0
M  V30 6152 H 566.571 0.943632 0.0909036 0
M  V30 6153 H 566.277 3.3942 0.921262 0
M  V30 6154 H 566.151 2.77266 2.55741 0
M  V30 6155 H 568.538 1.80641 2.33351 0
M  V30 6156 H 568.619 2.46255 0.692247 0
M  V30 6157 H 568.263 4.80817 1.63638 0
M  V30 6158 H 568.193 4.12093 3.27852 0
M  V30 6159 H 570.684 3.19162 2.02346 0
M  V30 6160 H 570.997 6.84023 3.59628 0
M  V30 6161 H 569.342 6.14837 3.24038 0
M  V30 6162 H 572.533 3.9979 2.43487 0
M  V30 6163 H 572.706 5.66158 3.15228 0
M  V30 6164 N 566.112 -0.949982 1.2575 0
M  V30 6165 C 567.36 -1.6918 1.10555 0
M  V30 6166 C 567.681 -1.91773 -0.353298 0
M  V30 6167 O 566.951 -1.50814 -1.25027 0
M  V30 6168 H 565.531 -0.626952 0.406129 0
M  V30 6169 H 568.193 -1.1419 1.57945 0
M  V30 6170 H 567.289 -2.66915 1.61749 0
M  V30 6171 N 567.59 -1.07411 -1.15328 0
M  V30 6172 C 568.522 -0.652924 -2.19703 0
M  V30 6173 C 569.535 0.294869 -1.60107 0
M  V30 6174 O 570.724 0.0840932 -1.78302 0
M  V30 6175 C 567.824 0.061434 -3.38844 0
M  V30 6176 C 566.997 -0.902696 -4.27984 0
M  V30 6177 C 566.056 -0.225521 -5.25717 0
M  V30 6178 O 565.082 -0.86676 -5.62562 0
M  V30 6179 N 566.284 1.02858 -5.71315 0
M  V30 6180 H 569.049 -1.55081 -2.56457 0
M  V30 6181 H 566.61 -0.958883 -1.30449 0
M  V30 6182 H 568.602 0.525145 -4.01278 0
M  V30 6183 H 567.172 0.861269 -3.00501 0
M  V30 6184 H 566.392 -1.54551 -3.6264 0
M  V30 6185 H 567.68 -1.55636 -4.84412 0
M  V30 6186 H 567.078 1.56948 -5.43492 0
M  V30 6187 H 565.635 1.43596 -6.35786 0
M  V30 6188 N 569.068 1.32177 -0.85831 0
M  V30 6189 C 570.314 1.97417 -0.46417 0
M  V30 6190 C 570.647 1.67746 0.978514 0
M  V30 6191 O 569.922 0.967654 1.68721 0
M  V30 6192 C 570.205 3.53069 -0.708094 0
M  V30 6193 C 570.058 3.92357 -2.19946 0
M  V30 6194 C 571.377 4.39783 -0.166881 0
M  V30 6195 H 568.496 0.717097 -0.17012 0
M  V30 6196 H 571.138 1.56499 -1.07741 0
M  V30 6197 H 569.288 3.88054 -0.186128 0
M  V30 6198 H 570.96 3.67533 -2.78779 0
M  V30 6199 H 569.203 3.41384 -2.67656 0
M  V30 6200 H 569.874 5.00841 -2.32082 0
M  V30 6201 H 572.35 4.11556 -0.613285 0
M  V30 6202 H 571.226 5.47671 -0.367093 0
M  V30 6203 H 571.487 4.32196 0.930559 0
M  V30 6204 N 570.547 0.616602 1.45037 0
M  V30 6205 C 571.958 0.199359 1.85633 0
M  V30 6206 C 572.309 -1.24588 1.51566 0
M  V30 6207 O 571.434 -1.94594 0.94668 0
M  V30 6208 C 572.029 0.355033 3.36935 0
M  V30 6209 C 570.588 -0.00758748 3.76399 0
M  V30 6210 C 569.735 0.675256 2.68953 0
M  V30 6211 H 572.686 0.822708 1.3571 0
M  V30 6212 H 572.707 -0.410201 3.78282 0
M  V30 6213 H 572.219 1.40699 3.61698 0
M  V30 6214 H 570.32 -1.05837 3.57252 0
M  V30 6215 H 570.433 0.392346 4.77491 0
M  V30 6216 H 568.797 0.111992 2.54454 0
M  V30 6217 H 569.58 1.72952 2.96551 0
M  V30 6218 N 572.025 -1.5352 0.356285 0
M  V30 6219 C 573.255 -2.05236 -0.236983 0
M  V30 6220 C 573.663 -1.23016 -1.43749 0
M  V30 6221 O 573.006 -0.2615 -1.81829 0
M  V30 6222 C 573.068 -3.52549 -0.7035 0
M  V30 6223 C 572.732 -4.55425 0.379059 0
M  V30 6224 C 573.729 -5.0524 1.22592 0
M  V30 6225 C 571.414 -4.99425 0.536638 0
M  V30 6226 C 573.408 -5.97647 2.21578 0
M  V30 6227 C 571.095 -5.9164 1.52988 0
M  V30 6228 C 572.093 -6.4064 2.3679 0
M  V30 6229 O 571.781 -7.31039 3.34421 0
M  V30 6230 H 571.513 -0.674346 -0.047254 0
M  V30 6231 H 574.067 -1.98962 0.510238 0
M  V30 6232 H 572.297 -3.56331 -1.50217 0
M  V30 6233 H 573.986 -3.87171 -1.21873 0
M  V30 6234 H 574.752 -4.72002 1.11532 0
M  V30 6235 H 570.631 -4.60879 -0.105834 0
M  V30 6236 H 574.175 -6.35816 2.87025 0
M  V30 6237 H 570.072 -6.24293 1.64099 0
M  V30 6238 H 570.84 -7.49009 3.30041 0
M  V30 6239 N 573.503 -0.0852151 -1.57369 0
M  V30 6240 C 574.914 0.445428 -1.81309 0
M  V30 6241 C 575.265 1.68795 -1.00013 0
M  V30 6242 O 574.39 2.15211 -0.226573 0
M  V30 6243 C 574.985 0.814887 -3.28854 0
M  V30 6244 C 573.544 1.29032 -3.53592 0
M  V30 6245 C 572.691 0.282089 -2.75861 0
M  V30 6246 H 575.642 -0.310771 -1.55627 0
M  V30 6247 H 575.663 1.67524 -3.41637 0
M  V30 6248 H 575.175 -0.0896309 -3.87996 0
M  V30 6249 H 573.276 2.21289 -2.9977 0
M  V30 6250 H 573.389 1.25898 -4.62262 0
M  V30 6251 H 571.753 0.762182 -2.43029 0
M  V30 6252 H 572.536 -0.614936 -3.37748 0
M  V30 6253 N 574.981 1.5647 0.188427 0
M  V30 6254 C 576.229 1.80655 0.905986 0
M  V30 6255 C 576.55 0.659391 1.83513 0
M  V30 6256 O 575.82 -0.321868 1.93238 0
M  V30 6257 H 574.4 0.666391 0.337538 0
M  V30 6258 H 577.062 1.93949 0.192339 0
M  V30 6259 H 576.158 2.74066 1.49313 0
M  V30 6260 N 576.459 -0.456382 1.50847 0
M  V30 6261 C 577.392 -1.57177 1.65441 0
M  V30 6262 C 578.37 -1.54649 0.502224 0
M  V30 6263 O 579.554 -1.74057 0.723633 0
M  V30 6264 C 576.681 -2.95763 1.65052 0
M  V30 6265 C 575.727 -3.16389 2.86007 0
M  V30 6266 S 576.56 -2.94716 4.47105 0
M  V30 6267 C 577.716 -4.35617 4.49432 0
M  V30 6268 H 577.949 -1.44561 2.59787 0
M  V30 6269 H 575.482 -0.644758 1.40293 0
M  V30 6270 H 577.44 -3.75654 1.65512 0
M  V30 6271 H 576.101 -3.05756 0.719153 0
M  V30 6272 H 575.294 -4.17667 2.82081 0
M  V30 6273 H 574.896 -2.44293 2.8319 0
M  V30 6274 H 577.188 -5.28503 4.239 0
M  V30 6275 H 578.131 -4.44582 5.51137 0
M  V30 6276 H 578.539 -4.18382 3.78967 0
M  V30 6277 N 577.937 -1.40673 -0.710563 0
M  V30 6278 C 579.162 -1.42741 -1.50465 0
M  V30 6279 C 579.587 -0.0302116 -1.88076 0
M  V30 6280 O 578.945 0.962945 -1.53613 0
M  V30 6281 C 578.993 -2.32873 -2.75322 0
M  V30 6282 O 578.097 -1.77544 -3.72226 0
M  V30 6283 H 577.438 -0.485056 -0.45345 0
M  V30 6284 H 579.968 -1.84961 -0.874681 0
M  V30 6285 H 579.978 -2.48233 -3.23797 0
M  V30 6286 H 578.653 -3.34401 -2.47283 0
M  V30 6287 H 577.23 -1.71556 -3.31093 0
M  V30 6288 N 579.415 0.9433 -1.26252 0
M  V30 6289 C 580.363 2.06302 -1.07434 0
M  V30 6290 C 581.357 1.694 -0.00189471 0
M  V30 6291 O 582.563 1.79302 -0.158408 0
M  V30 6292 H 578.938 0.675453 -0.330556 0
M  V30 6293 H 580.909 2.19326 -2.02333 0
M  V30 6294 C 579.658 3.40125 -0.721817 0
M  V30 6295 H 578.981 3.68996 -1.5389 0
M  V30 6296 H 580.421 4.19295 -0.629922 0
M  V30 6297 C 578.88 3.31993 0.572902 0
M  V30 6298 O 579.41 3.67945 1.61182 0
M  V30 6299 N 577.616 2.85099 0.562748 0
M  V30 6300 H 577.163 2.5604 -0.283092 0
M  V30 6301 H 577.121 2.80041 1.42915 0
M  V30 6302 N 580.893 1.08022 1.14757 0
M  V30 6303 C 581.843 0.676345 2.17737 0
M  V30 6304 C 582.827 -0.302018 1.5804 0
M  V30 6305 O 584.019 -0.11466 1.76628 0
M  V30 6306 C 581.148 0.082984 3.432 0
M  V30 6307 C 580.234 1.0869 4.09936 0
M  V30 6308 N 580.625 2.26891 4.52055 0
M  V30 6309 C 578.923 0.921768 4.36371 0
M  V30 6310 C 579.624 2.90636 5.0389 0
M  V30 6311 N 578.6 2.18266 4.97856 0
M  V30 6312 H 582.402 1.5765 2.4804 0
M  V30 6313 H 579.916 0.954374 1.31398 0
M  V30 6314 H 581.913 -0.224289 4.16296 0
M  V30 6315 H 580.573 -0.812206 3.14378 0
M  V30 6316 H 581.584 2.6457 4.45223 0
M  V30 6317 H 578.261 0.0800499 4.17423 0
M  V30 6318 H 579.651 3.9104 5.46386 0
M  V30 6319 N 582.371 -1.3172 0.865308 0
M  V30 6320 C 583.281 -2.32394 0.320935 0
M  V30 6321 C 584.297 -1.64511 -0.566746 0
M  V30 6322 O 585.473 -1.95969 -0.464575 0
M  V30 6323 C 582.538 -3.43462 -0.472701 0
M  V30 6324 C 581.599 -4.27015 0.442385 0
M  V30 6325 C 580.832 -5.32779 -0.313469 0
M  V30 6326 O 581.055 -5.49158 -1.54214 0
M  V30 6327 O 579.989 -6.01015 0.326257 0
M  V30 6328 H 583.815 -2.80868 1.15528 0
M  V30 6329 H 581.4 -1.35535 0.628545 0
M  V30 6330 H 583.282 -4.11172 -0.922781 0
M  V30 6331 H 581.957 -2.97159 -1.28367 0
M  V30 6332 H 580.864 -3.62075 0.940866 0
M  V30 6333 H 582.197 -4.76871 1.21882 0
M  V30 6334 N 583.85 -0.624285 -1.44708 0
M  V30 6335 C 584.812 0.0749638 -2.29077 0
M  V30 6336 C 585.812 0.778965 -1.40673 0
M  V30 6337 O 587.003 0.624591 -1.62618 0
M  V30 6338 C 584.135 1.11663 -3.22094 0
M  V30 6339 H 585.327 -0.667013 -2.92388 0
M  V30 6340 H 582.88 -0.384098 -1.51507 0
M  V30 6341 H 583.615 1.88881 -2.63618 0
M  V30 6342 H 583.401 0.61583 -3.87234 0
M  V30 6343 H 584.891 1.60585 -3.8549 0
M  V30 6344 N 585.328 1.53329 -0.364422 0
M  V30 6345 C 586.575 2.01239 0.225634 0
M  V30 6346 C 586.903 1.25172 1.48869 0
M  V30 6347 O 586.158 0.333289 1.92841 0
M  V30 6348 C 586.457 3.52911 0.564661 0
M  V30 6349 C 586.123 4.46837 -0.603936 0
M  V30 6350 C 584.785 4.72234 -0.924585 0
M  V30 6351 C 587.137 5.02409 -1.38691 0
M  V30 6352 C 584.465 5.50454 -2.0302 0
M  V30 6353 C 586.817 5.81836 -2.48293 0
M  V30 6354 C 585.481 6.0552 -2.80894 0
M  V30 6355 H 584.751 0.736386 0.0825654 0
M  V30 6356 H 587.398 1.84948 -0.496645 0
M  V30 6357 H 585.703 3.67144 1.36794 0
M  V30 6358 H 587.4 3.87455 1.03344 0
M  V30 6359 H 583.99 4.27217 -0.343983 0
M  V30 6360 H 588.174 4.82735 -1.15243 0
M  V30 6361 H 583.43 5.67024 -2.28678 0
M  V30 6362 H 587.604 6.23905 -3.0938 0
M  V30 6363 H 585.231 6.65916 -3.66688 0
M  V30 6364 N 586.806 0.0935595 1.57322 0
M  V30 6365 C 587.736 -0.863062 2.16964 0
M  V30 6366 C 588.717 -1.29528 1.10256 0
M  V30 6367 O 589.902 -1.36245 1.38387 0
M  V30 6368 C 587.032 -2.12276 2.74875 0
M  V30 6369 C 585.986 -1.82921 3.86942 0
M  V30 6370 C 585.312 -3.15707 4.31548 0
M  V30 6371 C 586.612 -1.11737 5.10208 0
M  V30 6372 H 588.306 -0.366145 2.97153 0
M  V30 6373 H 585.852 -0.174673 1.42937 0
M  V30 6374 H 587.805 -2.79634 3.1525 0
M  V30 6375 H 586.529 -2.64248 1.91938 0
M  V30 6376 H 585.188 -1.17961 3.47103 0
M  V30 6377 H 584.836 -3.65563 3.45504 0
M  V30 6378 H 584.536 -2.96849 5.07104 0
M  V30 6379 H 586.06 -3.84226 4.74555 0
M  V30 6380 H 587.474 -1.69203 5.47762 0
M  V30 6381 H 585.871 -1.03064 5.91183 0
M  V30 6382 H 586.941 -0.0998818 4.84797 0
M  V30 6383 N 588.284 -1.56567 -0.180126 0
M  V30 6384 C 589.7 -1.50488 -0.531559 0
M  V30 6385 C 589.9 -0.796267 -1.851 0
M  V30 6386 O 588.956 -0.352978 -2.50021 0
M  V30 6387 C 590.269 -2.95201 -0.572456 0
M  V30 6388 C 591.817 -3.05957 -0.660264 0
M  V30 6389 C 592.292 -4.5211 -0.732135 0
M  V30 6390 N 593.783 -4.56322 -0.795262 0
M  V30 6391 C 594.518 -5.66742 -0.871296 0
M  V30 6392 N 594.014 -6.86815 -0.908708 0
M  V30 6393 N 595.807 -5.54691 -0.909639 0
M  V30 6394 H 587.958 -2.01045 0.685165 0
M  V30 6395 H 590.221 -0.915536 0.245962 0
M  V30 6396 H 589.927 -3.50165 0.328208 0
M  V30 6397 H 589.801 -3.49369 -1.422 0
M  V30 6398 H 592.188 -2.51032 -1.55136 0
M  V30 6399 H 592.269 -2.54888 0.215783 0
M  V30 6400 H 591.913 -5.07664 0.154664 0
M  V30 6401 H 591.843 -5.00926 -1.6242 0
M  V30 6402 H 594.334 -3.69868 -0.77499 0
M  V30 6403 H 594.647 -7.66718 -0.967654 0
M  V30 6404 H 592.992 -6.89443 -0.877132 0
M  V30 6405 H 596.183 -4.59804 -0.877353 0
M  V30 6406 H 596.356 -6.40768 -0.965434 0
M  V30 6407 N 589.762 0.448376 -1.51087 0
M  V30 6408 C 591.008 1.20049 -1.6345 0
M  V30 6409 C 591.341 1.91121 -0.344444 0
M  V30 6410 O 590.616 1.83125 0.655396 0
M  V30 6411 C 590.899 2.22624 -2.83038 0
M  V30 6412 C 590.752 1.55708 -4.21989 0
M  V30 6413 C 592.071 3.23718 -2.98152 0
M  V30 6414 H 589.19 0.435085 -0.59487 0
M  V30 6415 H 591.832 0.491183 -1.83541 0
M  V30 6416 H 589.982 2.83117 -2.66039 0
M  V30 6417 H 591.654 0.986367 -4.50631 0
M  V30 6418 H 589.897 0.859647 -4.25197 0
M  V30 6419 H 590.568 2.30357 -5.01637 0
M  V30 6420 H 593.044 2.73269 -3.13788 0
M  V30 6421 H 591.92 3.92795 -3.83411 0
M  V30 6422 H 592.181 3.89179 -2.09743 0
M  V30 6423 N 591.24 1.41047 0.703093 0
M  V30 6424 C 592.517 1.30493 1.45708 0
M  V30 6425 C 592.897 -0.0709892 2.10981 0
M  V30 6426 O 592.245 -1.08471 2.01113 0
M  V30 6427 C 592.455 2.45287 2.48265 0
M  V30 6428 C 593.803 2.86104 3.13735 0
M  V30 6429 O 594.827 2.44971 2.58587 0
M  V30 6430 O 593.686 3.57206 4.13601 0
M  V30 6431 H 590.78 0.513144 0.648546 0
M  V30 6432 H 593.326 1.52995 0.734208 0
M  V30 6433 H 592.098 3.37135 1.98635 0
M  V30 6434 H 591.721 2.24622 3.28071 0
M  V30 6435 N 592.718 -0.936591 1.26751 0
M  V30 6436 C 593.681 -2.01752 1.08761 0
M  V30 6437 C 594.681 -1.60763 0.0344435 0
M  V30 6438 O 595.871 -1.71963 0.278258 0
M  V30 6439 C 593.003 -3.34543 0.655271 0
M  V30 6440 H 594.196 -2.19143 2.04735 0
M  V30 6441 H 591.749 -1.11618 1.09413 0
M  V30 6442 H 592.484 -3.22851 -0.30626 0
M  V30 6443 H 592.269 -3.65647 1.41578 0
M  V30 6444 H 593.759 -4.13944 0.551378 0
M  V30 6445 N 594.196 -1.08629 -1.14182 0
M  V30 6446 C 595.444 -0.815731 -1.84906 0
M  V30 6447 C 595.765 0.660441 -1.83475 0
M  V30 6448 O 595.035 1.47888 -1.28476 0
M  V30 6449 H 593.615 -0.298773 -0.684648 0
M  V30 6450 H 596.277 -1.37274 -1.38354 0
M  V30 6451 H 595.373 -1.16193 -2.89665 0
M  V30 6452 N 595.674 1.31259 -0.872281 0
M  V30 6453 C 596.904 2.00504 -0.498183 0
M  V30 6454 C 597.312 1.65632 0.914479 0
M  V30 6455 O 596.655 0.882849 1.61095 0
M  V30 6456 C 596.717 3.5482 -0.578194 0
M  V30 6457 C 596.381 4.13172 -1.95289 0
M  V30 6458 C 597.378 4.30107 -2.92069 0
M  V30 6459 C 595.063 4.48846 -2.25483 0
M  V30 6460 C 597.057 4.81908 -4.17185 0
M  V30 6461 C 594.744 5.00349 -3.50847 0
M  V30 6462 C 595.742 5.16831 -4.46514 0
M  V30 6463 O 595.43 5.67228 -5.69656 0
M  V30 6464 H 595.162 0.648055 -0.192354 0
M  V30 6465 H 597.716 1.6841 -1.17589 0
M  V30 6466 H 595.946 3.86383 0.156438 0
M  V30 6467 H 597.635 4.05318 -0.217192 0
M  V30 6468 H 598.401 4.02862 -2.7005 0
M  V30 6469 H 594.28 4.35292 -1.51795 0
M  V30 6470 H 597.824 4.94688 -4.91863 0
M  V30 6471 H 593.721 5.27028 -3.72708 0
M  V30 6472 H 594.489 5.85592 -5.7186 0
M  V30 6473 N 597.152 0.631951 1.44375 0
M  V30 6474 C 598.568 0.297642 1.568 0
M  V30 6475 C 598.768 -1.19916 1.61934 0
M  V30 6476 O 597.824 -1.98324 1.56281 0
M  V30 6477 C 599.137 0.990286 2.83926 0
M  V30 6478 C 600.685 0.968507 2.97639 0
M  V30 6479 C 601.16 1.64163 4.27568 0
M  V30 6480 N 602.651 1.60826 4.34384 0
M  V30 6481 C 603.386 2.09802 5.33639 0
M  V30 6482 N 602.882 2.66973 6.39294 0
M  V30 6483 N 604.675 2.00426 5.25153 0
M  V30 6484 H 596.826 1.60353 1.39286 0
M  V30 6485 H 599.089 0.673142 0.667521 0
M  V30 6486 H 598.795 2.04519 2.8612 0
M  V30 6487 H 598.669 0.528563 3.73478 0
M  V30 6488 H 601.056 -0.0779247 2.94997 0
M  V30 6489 H 601.137 1.46873 2.09433 0
M  V30 6490 H 600.781 2.68752 4.3097 0
M  V30 6491 H 600.711 1.11624 5.14634 0
M  V30 6492 H 603.202 1.19087 3.58646 0
M  V30 6493 H 603.515 3.02074 7.11316 0
M  V30 6494 H 601.86 2.71024 6.39977 0
M  V30 6495 H 605.051 1.55483 4.41523 0
M  V30 6496 H 605.224 2.38906 6.02352 0
M  V30 6497 N 598.631 -1.53133 0.372548 0
M  V30 6498 C 599.564 -2.22328 -0.514361 0
M  V30 6499 C 600.542 -1.21776 -1.07747 0
M  V30 6500 O 601.726 -1.50704 -1.13228 0
M  V30 6501 C 598.853 -2.92343 -1.71035 0
M  V30 6502 C 597.899 -4.07026 -1.27405 0
M  V30 6503 S 598.732 -5.34821 -0.269526 0
M  V30 6504 C 599.888 -6.08352 -1.47168 0
M  V30 6505 H 600.121 -2.9721 0.0732683 0
M  V30 6506 H 597.654 -1.53603 0.156673 0
M  V30 6507 H 599.612 -3.33296 -2.39634 0
M  V30 6508 H 598.273 -2.17173 -2.26925 0
M  V30 6509 H 597.466 -4.55056 -2.16656 0
M  V30 6510 H 597.068 -3.68001 -0.66719 0
M  V30 6511 H 599.36 -6.33507 -2.40157 0
M  V30 6512 H 600.303 -7.0053 -1.03263 0
M  V30 6513 H 600.711 -5.38893 -1.6809 0
M  V30 6514 N 600.109 -0.101901 -1.5727 0
M  V30 6515 C 601.52 0.426173 -1.81771 0
M  V30 6516 C 601.871 1.67725 -1.01797 0
M  V30 6517 O 600.996 2.14958 -0.249386 0
M  V30 6518 C 601.591 0.779962 -3.297 0
M  V30 6519 C 600.15 1.25275 -3.54941 0
M  V30 6520 C 599.297 0.252814 -2.76145 0
M  V30 6521 H 602.248 -0.32726 -1.55289 0
M  V30 6522 H 602.269 1.63891 -3.43395 0
M  V30 6523 H 601.781 -0.130778 -3.8788 0
M  V30 6524 H 599.882 2.18097 -3.021 0
M  V30 6525 H 599.995 1.20988 -4.63572 0
M  V30 6526 H 598.359 0.736362 -2.43823 0
M  V30 6527 H 599.142 -0.650724 -3.37076 0
M  V30 6528 N 601.587 1.56661 0.17182 0
M  V30 6529 C 602.827 1.83762 0.895029 0
M  V30 6530 C 603.191 0.682752 1.79451 0
M  V30 6531 O 604.392 0.834208 2.55528 0
M  V30 6532 C 602.663 3.15976 1.67015 0
M  V30 6533 S 604.222 3.64558 2.44219 0
M  V30 6534 H 601.04 0.644713 0.299778 0
M  V30 6535 H 603.642 1.94871 0.156701 0
M  V30 6536 H 602.346 3.98021 1.00039 0
M  V30 6537 H 601.877 3.07807 2.44986 0
M  V30 6538 H 603.892 3.31845 3.68909 0
M  V30 6539 N 603.065 -0.440357 1.51323 0
M  V30 6540 C 604.476 -1.02032 1.56353 0
M  V30 6541 C 604.827 -1.92382 0.385197 0
M  V30 6542 O 603.952 -2.10583 -0.498373 0
M  V30 6543 C 604.547 -1.85723 2.83359 0
M  V30 6544 C 603.106 -2.38774 2.90971 0
M  V30 6545 C 602.253 -1.17908 2.50984 0
M  V30 6546 H 605.204 -0.221744 1.57143 0
M  V30 6547 H 605.225 -2.71141 2.66951 0
M  V30 6548 H 604.737 -1.19939 3.69102 0
M  V30 6549 H 602.838 -3.08021 2.09651 0
M  V30 6550 H 602.951 -2.71778 3.94555 0
M  V30 6551 H 601.315 -1.52347 2.04114 0
M  V30 6552 H 602.098 -0.537393 3.39068 0
M  V30 6553 N 604.543 -1.41418 -0.695603 0
M  V30 6554 C 605.473 -1.46035 -1.82197 0
M  V30 6555 C 606.454 -0.319025 -1.67082 0
M  V30 6556 O 607.639 -0.530462 -1.86815 0
M  V30 6557 C 604.769 -1.34179 -3.20333 0
M  V30 6558 C 603.723 -2.46123 -3.50154 0
M  V30 6559 C 603.049 -2.19332 -4.87645 0
M  V30 6560 C 604.349 -3.88463 -3.49133 0
M  V30 6561 H 606.043 -2.40303 -1.78591 0
M  V30 6562 H 603.589 -1.15663 -0.857797 0
M  V30 6563 H 605.542 -1.36021 -3.98844 0
M  V30 6564 H 604.266 -0.363952 -3.24566 0
M  V30 6565 H 602.925 -2.43563 -2.73994 0
M  V30 6566 H 602.573 -1.19891 -4.88503 0
M  V30 6567 H 602.273 -2.94344 -5.08562 0
M  V30 6568 H 603.797 -2.22889 -5.68465 0
M  V30 6569 H 605.211 -3.92738 -4.17648 0
M  V30 6570 H 603.608 -4.63158 -3.81582 0
M  V30 6571 H 604.678 -4.16617 -2.48109 0
M  V30 6572 N 606.021 0.929856 -1.27246 0
M  V30 6573 C 606.931 2.0636 -1.11592 0
M  V30 6574 C 607.947 1.73938 -0.046496 0
M  V30 6575 O 609.123 1.9981 -0.252544 0
M  V30 6576 C 606.188 3.38213 -0.762437 0
M  V30 6577 C 605.249 3.84346 -1.9125 0
M  V30 6578 C 604.482 5.09906 -1.57579 0
M  V30 6579 O 604.705 5.68354 -0.482694 0
M  V30 6580 O 603.639 5.51359 -2.41426 0
M  V30 6581 H 607.465 2.22478 -2.0673 0
M  V30 6582 H 605.05 1.04865 -1.06413 0
M  V30 6583 H 606.932 4.1741 -0.57854 0
M  V30 6584 H 605.607 3.23307 0.159439 0
M  V30 6585 H 604.514 3.06045 -2.15144 0
M  V30 6586 H 605.847 4.0379 -2.81451 0
M  V30 6587 N 607.499 1.09233 1.13605 0
M  V30 6588 C 608.739 0.836786 1.86487 0
M  V30 6589 C 609.103 -0.626191 1.81502 0
M  V30 6590 O 610.304 -0.99758 2.49603 0
M  V30 6591 C 608.575 1.35476 3.30728 0
M  V30 6592 S 610.134 1.2328 4.21126 0
M  V30 6593 H 606.952 0.302702 0.643345 0
M  V30 6594 H 609.554 1.3953 1.36936 0
M  V30 6595 H 608.258 2.41381 3.31909 0
M  V30 6596 H 607.789 0.792286 3.85339 0
M  V30 6597 H 609.804 0.182468 4.95864 0
M  V30 6598 N 608.977 -1.30795 0.87923 0
M  V30 6599 C 610.388 -1.78535 0.546093 0
M  V30 6600 C 610.739 -1.72354 -0.937467 0
M  V30 6601 O 609.864 -1.2969 -1.73233 0
M  V30 6602 C 610.459 -3.24181 0.9845 0
M  V30 6603 C 609.018 -3.69779 0.702871 0
M  V30 6604 C 608.165 -2.51377 1.17068 0
M  V30 6605 H 611.116 -1.17746 1.06403 0
M  V30 6606 H 611.137 -3.79227 0.311045 0
M  V30 6607 H 610.649 -3.28647 2.06429 0
M  V30 6608 H 608.75 -3.70806 -0.365166 0
M  V30 6609 H 608.863 -4.61507 1.28639 0
M  V30 6610 H 607.227 -2.47768 0.590172 0
M  V30 6611 H 608.01 -2.58584 2.25808 0
M  V30 6612 N 610.455 -0.639598 -1.44038 0
M  V30 6613 C 611.866 -0.228866 -1.85292 0
M  V30 6614 C 612.217 1.22161 -1.53529 0
M  V30 6615 O 611.342 1.93064 -0.977518 0
M  V30 6616 C 611.937 -0.408592 -3.36327 0
M  V30 6617 C 610.496 -0.0522953 -3.76364 0
M  V30 6618 C 609.643 -0.717959 -2.67844 0
M  V30 6619 H 612.594 -0.844194 -1.34384 0
M  V30 6620 H 612.615 0.349968 -3.78887 0
M  V30 6621 H 612.127 -1.46435 -3.59414 0
M  V30 6622 H 610.228 1.0014 -3.58891 0
M  V30 6623 H 610.341 -0.468261 -4.76806 0
M  V30 6624 H 608.705 -0.152459 -2.54243 0
M  V30 6625 H 609.488 -1.77648 -2.93762 0
M  V30 6626 N 611.933 1.52934 -0.380664 0
M  V30 6627 C 613.158 2.06363 0.207157 0
M  V30 6628 C 613.583 1.25122 1.4045 0
M  V30 6629 O 612.941 0.274062 1.79217 0
M  V30 6630 C 612.989 3.56162 0.563996 0
M  V30 6631 O 612.093 3.77552 1.65917 0
M  V30 6632 H 611.434 0.663468 0.0265859 0
M  V30 6633 H 613.964 1.9719 -0.545635 0
M  V30 6634 H 613.974 3.99453 0.830752 0
M  V30 6635 H 612.649 4.14732 -0.311427 0
M  V30 6636 H 611.226 3.46154 1.3868 0
M  V30 6637 N 613.412 0.11024 1.57214 0
M  V30 6638 C 614.658 -0.550684 1.9518 0
M  V30 6639 C 614.991 -1.66885 0.993122 0
M  V30 6640 O 614.266 -1.94479 0.0287907 0
M  V30 6641 C 614.549 -1.09163 3.43155 0
M  V30 6642 C 614.402 0.0225198 4.49794 0
M  V30 6643 C 615.721 -1.98527 3.92778 0
M  V30 6644 H 612.84 -0.198706 0.709708 0
M  V30 6645 H 615.482 0.184024 1.89107 0
M  V30 6646 H 613.632 -1.71775 3.48462 0
M  V30 6647 H 615.304 0.657443 4.56591 0
M  V30 6648 H 613.547 0.686868 4.28328 0
M  V30 6649 H 614.218 -0.39706 5.5057 0
M  V30 6650 H 616.694 -1.458 3.8972 0
M  V30 6651 H 615.57 -2.33298 4.96853 0
M  V30 6652 H 615.831 -2.90846 3.32958 0
M  V30 6653 N 614.89 -1.56749 -0.16351 0
M  V30 6654 C 615.84 -1.93424 -1.20712 0
M  V30 6655 C 616.824 -0.803469 -1.39403 0
M  V30 6656 O 618.016 -1.06675 -1.41243 0
M  V30 6657 C 615.145 -2.30431 -2.54473 0
M  V30 6658 C 614.231 -3.5004 -2.39443 0
M  V30 6659 N 614.622 -4.67058 -1.9414 0
M  V30 6660 C 612.92 -3.548 -2.70246 0
M  V30 6661 C 613.621 -5.49184 -1.9176 0
M  V30 6662 N 612.597 -4.9044 -2.34457 0
M  V30 6663 H 616.399 -2.8138 -0.848681 0
M  V30 6664 H 613.913 -1.58089 -0.371717 0
M  V30 6665 H 615.91 -2.54903 -3.29894 0
M  V30 6666 H 614.57 -1.43818 -2.91112 0
M  V30 6667 H 615.581 -4.91128 -1.64357 0
M  V30 6668 H 612.258 -2.78685 -3.10871 0
M  V30 6669 H 613.648 -6.5297 -1.58366 0
M  V30 6670 N 616.368 0.432326 -1.51554 0
M  V30 6671 C 617.315 1.52512 -1.7323 0
M  V30 6672 C 618.285 1.55863 -0.5741 0
M  V30 6673 O 619.47 1.72796 -0.809093 0
M  V30 6674 C 616.61 2.90183 -1.86783 0
M  V30 6675 C 615.723 2.96322 -3.14352 0
M  V30 6676 C 614.858 4.25147 -3.18471 0
M  V30 6677 C 613.897 4.25172 -4.40335 0
M  V30 6678 N 613.034 5.45529 -4.41975 0
M  V30 6679 H 617.874 1.33332 -2.66508 0
M  V30 6680 H 615.411 0.647613 -1.32077 0
M  V30 6681 H 617.369 3.70071 -1.92623 0
M  V30 6682 H 615.999 3.0791 -0.969087 0
M  V30 6683 H 615.051 2.09066 -3.17798 0
M  V30 6684 H 616.363 2.92203 -4.04251 0
M  V30 6685 H 615.517 5.13411 -3.23255 0
M  V30 6686 H 614.256 4.31929 -2.2647 0
M  V30 6687 H 613.261 3.353 -4.35723 0
M  V30 6688 H 614.486 4.20049 -5.33606 0
M  V30 6689 H 612.432 5.53024 -3.52847 0
M  V30 6690 H 612.349 5.43311 -5.25689 0
M  V30 6691 H 613.617 6.35812 -4.50958 0
M  V30 6692 N 617.846 1.41785 0.688094 0
M  V30 6693 C 618.776 1.47 1.8142 0
M  V30 6694 C 619.757 0.327881 1.6691 0
M  V30 6695 O 620.942 0.540362 1.86531 0
M  V30 6696 C 618.072 1.35876 3.19617 0
M  V30 6697 C 617.026 2.47976 3.48844 0
M  V30 6698 C 616.352 2.21915 4.86475 0
M  V30 6699 C 617.652 3.90309 3.47068 0
M  V30 6700 H 619.346 2.41247 1.77314 0
M  V30 6701 H 616.892 1.16116 0.851651 0
M  V30 6702 H 618.845 1.38134 3.98117 0
M  V30 6703 H 617.569 0.38116 3.24368 0
M  V30 6704 H 616.228 2.45013 2.72698 0
M  V30 6705 H 615.876 1.2248 4.8786 0
M  V30 6706 H 615.576 2.97037 5.06994 0
M  V30 6707 H 617.1 2.25901 5.67275 0
M  V30 6708 H 618.514 3.94947 4.1556 0
M  V30 6709 H 616.911 4.65175 3.7912 0
M  V30 6710 H 617.981 4.17927 2.45896 0
M  V30 6711 N 619.324 -0.923095 1.27737 0
M  V30 6712 C 620.257 -2.02515 1.05181 0
M  V30 6713 C 621.235 -1.62574 -0.0292204 0
M  V30 6714 O 622.419 -1.88137 0.116848 0
M  V30 6715 C 619.546 -3.33407 0.596468 0
M  V30 6716 C 618.592 -3.92328 1.67276 0
M  V30 6717 S 619.425 -4.24342 3.26641 0
M  V30 6718 C 620.581 -5.58308 2.82919 0
M  V30 6719 H 620.814 -2.21336 1.98488 0
M  V30 6720 H 618.347 -1.06679 1.1162 0
M  V30 6721 H 620.305 -4.09086 0.34044 0
M  V30 6722 H 618.966 -3.125 -0.316614 0
M  V30 6723 H 618.159 -4.86797 1.30556 0
M  V30 6724 H 617.761 -3.2325 1.8811 0
M  V30 6725 H 620.053 -6.37801 2.28509 0
M  V30 6726 H 620.996 -5.99931 3.7615 0
M  V30 6727 H 621.404 -5.19049 2.21919 0
M  V30 6728 N 620.802 -1.09834 -1.13024 0
M  V30 6729 C 621.732 -0.763451 -2.20666 0
M  V30 6730 C 622.713 0.260778 -1.68089 0
M  V30 6731 O 623.898 0.127915 -1.93778 0
M  V30 6732 C 621.028 -0.187744 -3.46792 0
M  V30 6733 C 619.982 -1.14196 -4.12484 0
M  V30 6734 C 619.308 -0.427755 -5.32986 0
M  V30 6735 C 620.608 -2.48607 -4.59338 0
M  V30 6736 H 622.302 -1.66347 -2.48936 0
M  V30 6737 H 619.848 -0.801261 -1.19649 0
M  V30 6738 H 621.801 0.0586375 -4.21359 0
M  V30 6739 H 620.525 0.747485 -3.17931 0
M  V30 6740 H 619.184 -1.37369 -3.3989 0
M  V30 6741 H 618.832 0.511747 -5.0039 0
M  V30 6742 H 618.532 -1.06403 -5.77886 0
M  V30 6743 H 620.056 -0.189772 -6.10305 0
M  V30 6744 H 621.47 -2.29618 -5.25308 0
M  V30 6745 H 619.867 -3.08062 -5.14993 0
M  V30 6746 H 620.937 -3.09062 -3.73642 0
M  V30 6747 N 622.28 1.30327 -0.886154 0
M  V30 6748 C 623.508 2.00254 -0.520176 0
M  V30 6749 C 623.923 1.66419 0.891637 0
M  V30 6750 O 623.28 0.901951 1.58654 0
M  V30 6751 C 623.331 3.54916 -0.686775 0
M  V30 6752 O 623.052 3.87547 -2.04301 0
M  V30 6753 C 624.553 4.42115 -0.323945 0
M  V30 6754 H 621.773 0.640204 -0.200947 0
M  V30 6755 H 624.317 1.66183 -1.19178 0
M  V30 6756 H 622.472 3.8735 -0.0625273 0
M  V30 6757 H 622.886 4.82247 -2.06249 0
M  V30 6758 H 624.36 5.49808 -0.491407 0
M  V30 6759 H 624.837 4.32953 0.73811 0
M  V30 6760 H 625.443 4.15129 -0.924565 0
M  V30 6761 N 623.758 0.647228 1.43697 0
M  V30 6762 C 624.998 0.16171 2.03759 0
M  V30 6763 C 625.362 -1.19951 1.49919 0
M  V30 6764 O 626.563 -1.77808 2.01588 0
M  V30 6765 C 624.834 0.16505 3.57019 0
M  V30 6766 S 626.393 -0.253497 4.38067 0
M  V30 6767 H 623.211 0.0689985 0.707644 0
M  V30 6768 H 625.813 0.854224 1.7585 0
M  V30 6769 H 624.517 1.15858 3.93707 0
M  V30 6770 H 624.048 -0.548194 3.89562 0
M  V30 6771 H 626.063 -1.49385 4.73179 0
M  V30 6772 N 625.236 -1.5273 0.388769 0
M  V30 6773 C 626.482 -2.02545 -0.186351 0
M  V30 6774 C 626.837 -1.27017 -1.44514 0
M  V30 6775 O 626.13 -0.361948 -1.8815 0
M  V30 6776 C 626.324 -3.53765 -0.508445 0
M  V30 6777 C 626.153 -4.43938 0.71758 0
M  V30 6778 C 624.923 -4.89933 1.23668 0
M  V30 6779 C 627.121 -4.89113 1.58974 0
M  V30 6780 N 625.103 -5.64176 2.42031 0
M  V30 6781 C 626.474 -5.61931 2.61979 0
M  V30 6782 C 628.529 -4.71155 1.60989 0
M  V30 6783 C 627.232 -6.18698 3.66886 0
M  V30 6784 C 629.258 -5.28804 2.64803 0
M  V30 6785 C 628.62 -6.01527 3.6653 0
M  V30 6786 H 624.719 -0.781413 -0.0302921 0
M  V30 6787 H 627.303 -1.87104 0.538539 0
M  V30 6788 H 625.474 -3.6932 -1.20239 0
M  V30 6789 H 627.206 -3.9028 -1.07067 0
M  V30 6790 H 623.961 -4.66833 0.797763 0
M  V30 6791 H 624.385 -6.05949 3.01919 0
M  V30 6792 H 629.027 -4.14435 0.836881 0
M  V30 6793 H 626.745 -6.74501 4.45055 0
M  V30 6794 H 630.331 -5.1679 2.67245 0
M  V30 6795 H 629.211 -6.45339 4.45542 0
M  V30 6796 N 626.714 -0.118576 -1.57153 0
M  V30 6797 C 627.954 0.542618 -1.97066 0
M  V30 6798 C 628.318 1.63874 -1.00046 0
M  V30 6799 O 629.519 2.3588 -1.28895 0
M  V30 6800 C 627.79 1.06196 -3.41258 0
M  V30 6801 S 629.349 1.73174 -4.03183 0
M  V30 6802 H 626.167 0.17638 -0.688775 0
M  V30 6803 H 628.769 -0.203556 -1.94437 0
M  V30 6804 H 627.473 0.253016 -4.09619 0
M  V30 6805 H 627.004 1.84342 -3.47536 0
M  V30 6806 H 629.019 3.01749 -3.93906 0
M  V30 6807 N 628.193 1.56834 0.155195 0
M  V30 6808 C 629.609 1.51315 0.50755 0
M  V30 6809 C 629.809 0.825614 1.83809 0
M  V30 6810 O 628.865 0.39271 2.49427 0
M  V30 6811 C 630.178 2.96074 0.52542 0
M  V30 6812 C 631.726 3.06968 0.611505 0
M  V30 6813 C 632.201 4.53218 0.660115 0
M  V30 6814 N 633.692 4.5753 0.722564 0
M  V30 6815 C 634.427 5.68056 0.781023 0
M  V30 6816 N 633.923 6.88173 0.799327 0
M  V30 6817 N 635.716 5.56068 0.821278 0
M  V30 6818 H 627.867 1.9993 -0.717063 0
M  V30 6819 H 630.13 0.911507 -0.260496 0
M  V30 6820 H 629.836 3.49599 -0.383875 0
M  V30 6821 H 629.71 3.51587 1.36624 0
M  V30 6822 H 632.097 2.53468 1.51122 0
M  V30 6823 H 632.178 2.54513 -0.256306 0
M  V30 6824 H 631.822 5.07354 -0.23541 0
M  V30 6825 H 631.752 5.03447 1.5443 0
M  V30 6826 H 634.243 3.71054 0.716049 0
M  V30 6827 H 634.556 7.6816 0.845553 0
M  V30 6828 H 632.901 6.90751 0.767337 0
M  V30 6829 H 636.092 4.61142 0.804091 0
M  V30 6830 H 636.265 6.42223 0.863372 0
M  V30 6831 N 629.671 -0.424282 1.51781 0
M  V30 6832 C 630.948 -1.18464 1.55646 0
M  V30 6833 C 631.328 -2.08529 0.328438 0
M  V30 6834 O 630.676 -2.17969 -0.685693 0
M  V30 6835 C 630.886 -1.97514 2.87731 0
M  V30 6836 C 632.234 -2.54106 3.40169 0
M  V30 6837 O 633.258 -2.07711 2.89369 0
M  V30 6838 O 632.117 -3.38759 4.28841 0
M  V30 6839 H 629.211 -0.540055 0.626314 0
M  V30 6840 H 631.757 -0.432291 1.64102 0
M  V30 6841 H 630.529 -1.31444 3.68562 0
M  V30 6842 H 630.152 -2.79787 2.82498 0
M  V30 6843 N 631.149 -1.42148 -0.680565 0
M  V30 6844 C 632.56 -1.3768 -1.26099 0
M  V30 6845 C 632.911 -0.0672348 -1.96085 0
M  V30 6846 O 632.036 0.834172 -1.99676 0
M  V30 6847 C 632.631 -2.49387 -2.29328 0
M  V30 6848 C 631.19 -2.4827 -2.82911 0
M  V30 6849 C 630.337 -2.2847 -1.57152 0
M  V30 6850 H 633.288 -1.51446 -0.474326 0
M  V30 6851 H 633.309 -2.19307 -3.10941 0
M  V30 6852 H 632.821 -3.44686 -1.78363 0
M  V30 6853 H 630.922 -1.56773 -3.38013 0
M  V30 6854 H 631.035 -3.45109 -3.3232 0
M  V30 6855 H 629.399 -1.76623 -1.83511 0
M  V30 6856 H 630.182 -3.25816 -1.0816 0
M  V30 6857 N 632.627 0.916307 -1.28225 0
M  V30 6858 C 633.537 2.05165 -1.13775 0
M  V30 6859 C 634.553 1.73879 -0.0649418 0
M  V30 6860 O 635.729 1.99531 -0.273722 0
M  V30 6861 C 632.794 3.37385 -0.798267 0
M  V30 6862 C 631.855 3.82296 -1.95316 0
M  V30 6863 C 631.088 5.08206 -1.62978 0
M  V30 6864 O 631.311 5.6781 -0.542948 0
M  V30 6865 O 630.245 5.48768 -2.47261 0
M  V30 6866 H 634.071 2.20273 -2.09078 0
M  V30 6867 H 631.656 1.0373 -1.07519 0
M  V30 6868 H 633.538 4.16773 -0.62278 0
M  V30 6869 H 632.213 3.23458 0.125139 0
M  V30 6870 H 631.12 3.03746 -2.18378 0
M  V30 6871 H 632.453 4.00782 -2.85718 0
M  V30 6872 N 634.105 1.10431 1.1244 0
M  V30 6873 C 635.037 0.710945 2.17895 0
M  V30 6874 C 636.05 -0.252315 1.60833 0
M  V30 6875 O 637.239 -0.03679 1.78462 0
M  V30 6876 C 634.339 0.0284262 3.38888 0
M  V30 6877 C 633.512 1.01585 4.2544 0
M  V30 6878 C 632.571 0.364826 5.24934 0
M  V30 6879 O 631.597 1.01561 5.60066 0
M  V30 6880 N 632.799 -0.87674 5.73841 0
M  V30 6881 H 635.564 1.61826 2.52255 0
M  V30 6882 H 633.125 0.993132 1.27861 0
M  V30 6883 H 635.117 -0.418568 4.0253 0
M  V30 6884 H 633.687 -0.781294 3.02679 0
M  V30 6885 H 632.907 1.64111 3.58415 0
M  V30 6886 H 634.195 1.68425 4.80115 0
M  V30 6887 H 633.593 -1.42483 5.47462 0
M  V30 6888 H 632.15 -1.26688 6.39369 0
M  V30 6889 N 635.583 -1.29855 0.893053 0
M  V30 6890 C 636.999 -1.48366 0.588199 0
M  V30 6891 C 637.199 -1.81654 -0.872018 0
M  V30 6892 O 636.255 -1.909 -1.65268 0
M  V30 6893 C 637.568 -2.60136 1.5083 0
M  V30 6894 C 639.116 -2.74014 1.51279 0
M  V30 6895 C 639.591 -3.88905 2.41902 0
M  V30 6896 N 641.082 -3.96228 2.39911 0
M  V30 6897 C 641.817 -4.84458 3.06738 0
M  V30 6898 N 641.313 -5.77426 3.8282 0
M  V30 6899 N 643.106 -4.77894 2.95929 0
M  V30 6900 H 635.257 -1.06522 1.83757 0
M  V30 6901 H 637.52 -0.528495 0.787018 0
M  V30 6902 H 637.226 -2.42383 2.54839 0
M  V30 6903 H 637.1 -3.56793 1.22388 0
M  V30 6904 H 639.487 -2.91167 0.480179 0
M  V30 6905 H 639.568 -1.77952 1.83757 0
M  V30 6906 H 639.212 -3.72508 3.45253 0
M  V30 6907 H 639.142 -4.84322 2.06737 0
M  V30 6908 H 641.633 -3.29728 1.84629 0
M  V30 6909 H 641.946 -6.41529 4.30883 0
M  V30 6910 H 640.291 -5.77332 3.86927 0
M  V30 6911 H 643.482 -4.04248 2.36012 0
M  V30 6912 H 643.655 -5.46444 3.48286 0
M  V30 6913 N 637.061 -0.65484 -1.43351 0
M  V30 6914 C 638.472 -0.248506 -1.85039 0
M  V30 6915 C 638.823 1.20526 -1.54816 0
M  V30 6916 O 637.948 1.92016 -0.99794 0
M  V30 6917 C 638.543 -0.444241 -3.35875 0
M  V30 6918 C 637.102 -0.0922108 -3.76287 0
M  V30 6919 C 636.249 -0.746327 -2.67068 0
M  V30 6920 H 639.2 -0.8584 -1.33481 0
M  V30 6921 H 639.221 0.309762 -3.79237 0
M  V30 6922 H 638.733 -1.50239 -3.5784 0
M  V30 6923 H 636.834 0.96328 -3.59933 0
M  V30 6924 H 636.947 -0.518807 -4.76283 0
M  V30 6925 H 635.311 -0.179416 -2.54067 0
M  V30 6926 H 636.094 -1.80754 -2.91861 0
M  V30 6927 N 638.539 1.52521 -0.396863 0
M  V30 6928 C 639.779 2.03583 0.182578 0
M  V30 6929 C 640.143 1.2766 1.43412 0
M  V30 6930 O 641.344 1.68884 2.09121 0
M  V30 6931 C 639.615 3.54724 0.436519 0
M  V30 6932 S 641.174 4.27598 0.985163 0
M  V30 6933 H 637.992 0.709186 0.0507529 0
M  V30 6934 H 640.594 1.87693 -0.546955 0
M  V30 6935 H 639.298 4.07567 -0.481343 0
M  V30 6936 H 638.829 3.74834 1.19427 0
M  V30 6937 H 640.844 4.41393 2.26686 0
M  V30 6938 N 640.017 0.126909 1.57088 0
M  V30 6939 C 641.264 -0.529168 1.95464 0
M  V30 6940 C 641.592 -1.6618 1.01067 0
M  V30 6941 O 640.847 -1.95667 0.0360254 0
M  V30 6942 C 641.146 -1.095 3.40212 0
M  V30 6943 C 640.812 -0.0829015 4.50824 0
M  V30 6944 C 639.474 0.195377 4.80803 0
M  V30 6945 C 641.826 0.606411 5.1766 0
M  V30 6946 C 639.154 1.16912 5.74933 0
M  V30 6947 C 641.506 1.56884 6.12838 0
M  V30 6948 C 640.17 1.85502 6.41206 0
M  V30 6949 H 639.44 -0.193636 0.715252 0
M  V30 6950 H 642.087 0.209489 1.90351 0
M  V30 6951 H 640.392 -1.91058 3.42059 0
M  V30 6952 H 642.089 -1.61087 3.67222 0
M  V30 6953 H 638.679 -0.309979 4.27478 0
M  V30 6954 H 642.863 0.404597 4.94648 0
M  V30 6955 H 638.119 1.3975 5.95214 0
M  V30 6956 H 642.293 2.10859 6.6371 0
M  V30 6957 H 639.92 2.61109 7.13951 0
M  V30 6958 N 641.495 -1.56914 -0.146875 0
M  V30 6959 C 642.442 -1.98275 -1.18134 0
M  V30 6960 C 643.412 -0.850367 -1.42681 0
M  V30 6961 O 644.597 -1.11244 -1.55014 0
M  V30 6962 C 641.737 -2.36861 -2.5098 0
M  V30 6963 C 640.85 -3.63391 -2.33605 0
M  V30 6964 C 639.985 -3.91079 -3.59486 0
M  V30 6965 C 639.024 -5.10879 -3.37149 0
M  V30 6966 N 638.161 -5.34577 -4.55161 0
M  V30 6967 H 643.001 -2.8645 -0.821622 0
M  V30 6968 H 640.538 -1.41718 -0.394248 0
M  V30 6969 H 642.496 -2.57262 -3.28439 0
M  V30 6970 H 641.126 -1.51766 -2.84898 0
M  V30 6971 H 640.178 -3.50766 -1.47199 0
M  V30 6972 H 641.49 -4.51007 -2.13059 0
M  V30 6973 H 640.644 -4.11979 -4.45374 0
M  V30 6974 H 639.383 -3.01885 -3.83036 0
M  V30 6975 H 638.388 -4.89853 -2.49649 0
M  V30 6976 H 639.613 -6.01626 -3.14997 0
M  V30 6977 H 637.559 -4.48337 -4.78884 0
M  V30 6978 H 637.476 -6.16463 -4.37618 0
M  V30 6979 H 638.744 -5.59975 -5.42263 0
M  V30 6980 N 642.974 0.416227 -1.52004 0
M  V30 6981 C 643.937 1.48926 -1.74223 0
M  V30 6982 C 644.937 1.48693 -0.612119 0
M  V30 6983 O 646.127 1.50343 -0.879921 0
M  V30 6984 C 643.259 2.88372 -1.81809 0
M  V30 6985 H 644.452 1.3052 -2.70008 0
M  V30 6986 H 642.005 0.646271 -1.42313 0
M  V30 6987 H 642.74 3.12157 -0.879135 0
M  V30 6988 H 642.525 2.89944 -2.6396 0
M  V30 6989 H 644.015 3.66173 -2.00766 0
M  V30 6990 N 644.452 1.42507 0.673017 0
M  V30 6991 C 645.382 1.48916 1.79851 0
M  V30 6992 C 646.363 0.345566 1.66553 0
M  V30 6993 O 647.548 0.560116 1.85947 0
M  V30 6994 C 644.678 1.39258 3.18158 0
M  V30 6995 C 643.632 2.51662 3.46194 0
M  V30 6996 C 642.958 2.27062 4.84094 0
M  V30 6997 C 644.258 3.93968 3.42909 0
M  V30 6998 H 645.952 2.43114 1.74745 0
M  V30 6999 H 643.498 1.17013 0.839288 0
M  V30 7000 H 645.451 1.42349 3.96629 0
M  V30 7001 H 644.175 0.415542 3.23946 0
M  V30 7002 H 642.834 2.47891 2.70084 0
M  V30 7003 H 642.482 1.27648 4.86534 0
M  V30 7004 H 642.182 3.02398 5.03815 0
M  V30 7005 H 643.706 2.31905 5.64847 0
M  V30 7006 H 645.12 3.99332 4.11347 0
M  V30 7007 H 643.517 4.6917 3.74165 0
M  V30 7008 H 644.587 4.20512 2.41449 0
M  V30 7009 N 645.93 -0.909495 1.28709 0
M  V30 7010 C 647.346 -1.18862 1.06508 0
M  V30 7011 C 647.546 -2.00604 -0.189864 0
M  V30 7012 O 646.602 -2.36281 -0.890355 0
M  V30 7013 C 647.915 -1.91908 2.31499 0
M  V30 7014 C 649.463 -2.04773 2.36721 0
M  V30 7015 C 649.938 -2.81228 3.6149 0
M  V30 7016 N 651.429 -2.88787 3.62155 0
M  V30 7017 C 652.164 -3.48455 4.55375 0
M  V30 7018 N 651.66 -4.09369 5.58918 0
M  V30 7019 N 653.453 -3.46035 4.42963 0
M  V30 7020 H 645.604 -0.363867 2.0926 0
M  V30 7021 H 647.867 -0.223649 0.921241 0
M  V30 7022 H 647.573 -1.39275 3.22948 0
M  V30 7023 H 647.447 -2.92436 2.38245 0
M  V30 7024 H 649.834 -2.56585 1.45767 0
M  V30 7025 H 649.915 -1.03408 2.33967 0
M  V30 7026 H 649.559 -2.30094 4.5279 0
M  V30 7027 H 649.489 -3.82917 3.61499 0
M  V30 7028 H 651.98 -2.45514 2.87283 0
M  V30 7029 H 652.293 -4.52891 6.26187 0
M  V30 7030 H 650.638 -4.0786 5.62739 0
M  V30 7031 H 653.829 -2.9766 3.6127 0
M  V30 7032 H 654.002 -3.92244 5.15799 0
M  V30 7033 N 647.408 -1.11026 -1.11852 0
M  V30 7034 C 648.318 -0.777252 -2.2135 0
M  V30 7035 C 649.334 0.227821 -1.72502 0
M  V30 7036 O 650.51 0.0650587 -2.01295 0
M  V30 7037 C 647.575 -0.220668 -3.45997 0
M  V30 7038 C 646.636 -1.2838 -4.09655 0
M  V30 7039 C 645.869 -0.753678 -5.28352 0
M  V30 7040 O 646.092 0.417779 -5.68868 0
M  V30 7041 O 645.026 -1.51647 -5.82483 0
M  V30 7042 H 648.852 -1.69141 -2.5224 0
M  V30 7043 H 646.437 -0.885836 -1.20305 0
M  V30 7044 H 648.319 0.0855756 -4.21313 0
M  V30 7045 H 646.994 0.666262 -3.16769 0
M  V30 7046 H 645.901 -1.64299 -3.3609 0
M  V30 7047 H 647.234 -2.14396 -4.43052 0
M  V30 7048 N 648.886 1.2938 -0.899927 0
M  V30 7049 C 650.302 1.48052 -0.596059 0
M  V30 7050 C 650.502 1.82114 0.862372 0
M  V30 7051 O 649.558 1.91774 1.64253 0
M  V30 7052 C 650.871 2.59332 -1.52208 0
M  V30 7053 C 652.419 2.73208 -1.5273 0
M  V30 7054 C 652.894 3.87617 -2.43961 0
M  V30 7055 N 654.385 3.9495 -2.42009 0
M  V30 7056 C 655.12 4.82824 -3.09303 0
M  V30 7057 N 654.616 5.75387 -3.85877 0
M  V30 7058 N 656.409 4.76317 -2.98459 0
M  V30 7059 H 648.56 1.05546 -1.8432 0
M  V30 7060 H 650.823 0.524314 -0.78981 0
M  V30 7061 H 650.529 2.41029 -2.56121 0
M  V30 7062 H 650.403 3.56139 -1.24278 0
M  V30 7063 H 652.79 2.90908 -0.495614 0
M  V30 7064 H 652.871 1.76975 -1.84698 0
M  V30 7065 H 652.515 3.70672 -3.47224 0
M  V30 7066 H 652.445 4.83218 -2.09303 0
M  V30 7067 H 654.936 3.28744 -1.86375 0
M  V30 7068 H 655.249 6.39235 -4.34279 0
M  V30 7069 H 653.594 5.75272 -3.89984 0
M  V30 7070 H 656.785 4.0299 -2.38152 0
M  V30 7071 H 656.958 5.44589 -3.51179 0
M  V30 7072 N 650.364 0.662433 1.43002 0
M  V30 7073 C 651.294 -0.00979809 2.33498 0
M  V30 7074 C 652.275 -0.802329 1.49989 0
M  V30 7075 O 653.46 -0.761964 1.78627 0
M  V30 7076 C 650.59 -0.970446 3.33466 0
M  V30 7077 C 649.544 -0.287383 4.27034 0
M  V30 7078 C 648.87 -1.36012 5.17112 0
M  V30 7079 C 650.17 0.82595 5.15728 0
M  V30 7080 H 651.864 0.745959 2.89958 0
M  V30 7081 H 649.41 0.360172 1.39423 0
M  V30 7082 H 651.363 -1.44971 3.95679 0
M  V30 7083 H 650.087 -1.75748 2.75282 0
M  V30 7084 H 648.746 0.17152 3.66199 0
M  V30 7085 H 648.394 -2.13882 4.55262 0
M  V30 7086 H 648.094 -0.908276 5.80538 0
M  V30 7087 H 649.618 -1.84056 5.82199 0
M  V30 7088 H 651.032 0.42845 5.71697 0
M  V30 7089 H 649.429 1.20282 5.87922 0
M  V30 7090 H 650.499 1.68003 4.54866 0
M  V30 7091 N 651.842 -1.52309 0.404946 0
M  V30 7092 C 653.067 -2.06666 -0.1743 0
M  V30 7093 C 653.492 -1.27341 -1.38441 0
M  V30 7094 O 652.85 -0.302539 -1.78758 0
M  V30 7095 C 652.898 -3.57014 -0.507262 0
M  V30 7096 O 652.002 -3.80144 -1.59889 0
M  V30 7097 H 651.343 -0.663807 -0.0160273 0
M  V30 7098 H 653.873 -1.96297 0.576937 0
M  V30 7099 H 653.883 -4.00724 -0.767098 0
M  V30 7100 H 652.558 -4.14184 0.377368 0
M  V30 7101 H 651.135 -3.48316 -1.33155 0
M  V30 7102 N 653.32 -0.135238 -1.57019 0
M  V30 7103 C 654.545 0.529343 -2.00531 0
M  V30 7104 C 654.97 1.58391 -1.01459 0
M  V30 7105 O 654.328 1.81296 0.0113986 0
M  V30 7106 C 654.376 1.11748 -3.42848 0
M  V30 7107 O 653.48 2.23267 -3.46736 0
M  V30 7108 H 652.821 0.130669 -0.651016 0
M  V30 7109 H 655.351 -0.228503 -2.0332 0
M  V30 7110 H 655.361 1.44905 -3.81401 0
M  V30 7111 H 654.036 0.345147 -4.14465 0
M  V30 7112 H 652.613 1.91428 -3.20015 0
M  V30 7113 N 654.798 1.5699 0.138552 0
M  V30 7114 C 656.045 1.83809 0.849732 0
M  V30 7115 C 656.373 0.717409 1.80786 0
M  V30 7116 O 655.628 -0.292897 1.93496 0
M  V30 7117 C 655.927 3.17007 1.65049 0
M  V30 7118 C 655.593 4.43037 0.838398 0
M  V30 7119 C 654.255 4.77262 0.614385 0
M  V30 7120 C 656.607 5.20495 0.271044 0
M  V30 7121 C 653.935 5.864 -0.187552 0
M  V30 7122 C 656.287 6.30476 -0.517979 0
M  V30 7123 C 654.951 6.63245 -0.75249 0
M  V30 7124 H 654.221 0.672605 0.310939 0
M  V30 7125 H 656.868 1.91166 0.112971 0
M  V30 7126 H 655.173 3.05138 2.4576 0
M  V30 7127 H 656.87 3.34975 2.20437 0
M  V30 7128 H 653.46 4.16211 1.02307 0
M  V30 7129 H 657.644 4.94422 0.431371 0
M  V30 7130 H 652.9 6.10226 -0.378659 0
M  V30 7131 H 657.074 6.89686 -0.964694 0
M  V30 7132 H 654.701 7.47648 -1.37573 0
M  V30 7133 N 656.276 -0.40816 1.52223 0
M  V30 7134 C 657.504 -1.17672 1.70179 0
M  V30 7135 C 657.919 -1.84257 0.411696 0
M  V30 7136 O 657.276 -1.7192 -0.612354 0
M  V30 7137 C 657.327 -2.23911 2.83806 0
M  V30 7138 O 657.048 -1.60044 4.0782 0
M  V30 7139 C 658.549 -3.1364 3.13281 0
M  V30 7140 H 655.769 -0.353562 0.570293 0
M  V30 7141 H 658.313 -0.480083 1.98785 0
M  V30 7142 H 656.468 -2.89242 2.57717 0
M  V30 7143 H 656.882 -2.30484 4.71145 0
M  V30 7144 H 658.356 -3.84255 3.96298 0
M  V30 7145 H 658.833 -3.76066 2.26872 0
M  V30 7146 H 659.439 -2.53977 3.41139 0
M  V30 7147 N 657.755 -1.42862 -0.66545 0
M  V30 7148 C 658.98 -1.47456 -1.45848 0
M  V30 7149 C 659.405 -0.0900312 -1.87884 0
M  V30 7150 O 658.763 0.913587 -1.56599 0
M  V30 7151 C 658.811 -2.41514 -2.67774 0
M  V30 7152 O 657.915 -1.89296 -3.66389 0
M  V30 7153 H 657.256 -0.499236 -0.437789 0
M  V30 7154 H 659.786 -1.8765 -0.815394 0
M  V30 7155 H 659.796 -2.58409 -3.15735 0
M  V30 7156 H 658.471 -3.42099 -2.36519 0
M  V30 7157 H 657.048 -1.82003 -3.25468 0
M  V30 7158 N 659.233 0.902656 -1.29189 0
M  V30 7159 C 660.463 1.68394 -1.19695 0
M  V30 7160 C 660.871 1.87602 0.245384 0
M  V30 7161 O 660.214 1.41084 1.17648 0
M  V30 7162 C 660.276 3.09094 -1.83578 0
M  V30 7163 C 659.94 3.1313 -3.32864 0
M  V30 7164 C 660.937 2.93497 -4.29134 0
M  V30 7165 C 658.622 3.3529 -3.74013 0
M  V30 7166 C 660.616 2.95953 -5.64527 0
M  V30 7167 C 658.303 3.37377 -5.09529 0
M  V30 7168 C 659.301 3.1773 -6.04596 0
M  V30 7169 O 658.989 3.196 -7.37639 0
M  V30 7170 H 658.721 0.532815 -0.416034 0
M  V30 7171 H 661.275 1.1374 -1.71033 0
M  V30 7172 H 659.505 3.65338 -1.26747 0
M  V30 7173 H 661.194 3.69297 -1.68447 0
M  V30 7174 H 661.96 2.76192 -3.98677 0
M  V30 7175 H 657.839 3.49623 -3.00474 0
M  V30 7176 H 661.383 2.80536 -6.38706 0
M  V30 7177 H 657.28 3.54213 -5.39633 0
M  V30 7178 H 658.048 3.35887 -7.46406 0
M  V30 7179 N 660.711 1.11618 1.11262 0
M  V30 7180 C 661.621 0.78898 2.20935 0
M  V30 7181 C 662.637 -0.21867 1.7262 0
M  V30 7182 O 663.813 -0.0543826 2.01327 0
M  V30 7183 C 660.878 0.239014 3.45875 0
M  V30 7184 C 659.939 1.3055 4.08968 0
M  V30 7185 C 659.172 0.781687 5.27944 0
M  V30 7186 O 659.395 -0.387605 5.69082 0
M  V30 7187 O 658.329 1.54734 5.81671 0
M  V30 7188 H 662.155 1.70477 2.51339 0
M  V30 7189 H 659.74 0.892203 1.19834 0
M  V30 7190 H 661.622 -0.0632312 4.21353 0
M  V30 7191 H 660.297 -0.649454 3.17118 0
M  V30 7192 H 659.204 1.66079 3.35214 0
M  V30 7193 H 660.537 2.16743 4.41909 0
M  V30 7194 N 662.189 -1.289 0.906776 0
M  V30 7195 C 663.137 -2.29477 0.379873 0
M  V30 7196 C 664.131 -1.61068 -0.524747 0
M  V30 7197 O 665.337 -1.75344 -0.406765 0
M  V30 7198 H 661.712 -0.744742 0.10423 0
M  V30 7199 H 663.683 -2.71353 1.24137 0
M  V30 7200 C 662.432 -3.45713 -0.371154 0
M  V30 7201 H 661.755 -3.98551 0.315716 0
M  V30 7202 H 663.195 -4.18105 -0.704581 0
M  V30 7203 C 661.654 -2.9774 -1.57646 0
M  V30 7204 O 662.184 -2.99618 -2.67567 0
M  V30 7205 N 660.39 -2.53485 -1.42105 0
M  V30 7206 H 659.937 -2.52156 -0.526783 0
M  V30 7207 H 659.895 -2.21747 -2.22881 0
M  V30 7208 N 663.667 -0.670007 -1.42649 0
M  V30 7209 C 665.078 -0.268118 -1.84765 0
M  V30 7210 C 665.429 1.18877 -1.56086 0
M  V30 7211 O 664.554 1.90947 -1.01825 0
M  V30 7212 C 665.149 -0.47984 -3.35385 0
M  V30 7213 C 663.708 -0.132116 -3.76168 0
M  V30 7214 C 662.855 -0.774611 -2.66261 0
M  V30 7215 H 665.806 -0.872509 -1.32563 0
M  V30 7216 H 665.827 0.269522 -3.79544 0
M  V30 7217 H 665.339 -1.54026 -3.56227 0
M  V30 7218 H 663.44 0.92505 -3.60934 0
M  V30 7219 H 663.553 -0.569294 -4.75706 0
M  V30 7220 H 661.917 -0.206353 -2.53863 0
M  V30 7221 H 662.7 -1.83839 -2.89928 0
M  V30 7222 N 665.145 1.52092 -0.413018 0
M  V30 7223 C 666.373 2.06274 0.160881 0
M  V30 7224 C 666.788 1.28273 1.38533 0
M  V30 7225 O 666.145 0.33563 1.79387 0
M  V30 7226 C 666.196 3.57921 0.507443 0
M  V30 7227 O 665.917 4.32971 -0.668388 0
M  V30 7228 C 667.418 4.28533 1.13465 0
M  V30 7229 H 664.638 0.67074 0.0186759 0
M  V30 7230 H 667.182 1.95951 -0.585092 0
M  V30 7231 H 665.337 3.68238 1.20331 0
M  V30 7232 H 665.751 5.23135 -0.378169 0
M  V30 7233 H 667.225 5.35804 1.32732 0
M  V30 7234 H 667.702 3.85258 2.10886 0
M  V30 7235 H 668.308 4.22595 0.478876 0
M  V30 7236 O 666.662 0.284301 1.58978 0
M  V30 7237 H 667.353 -0.283792 1.9161 0
M  V30 END ATOM
M  V30 BEGIN BOND
M  V30 END BOND
M  V30 END CTAB
M  END
$$$$
