drugbank_target|P31350 Ribonucleoside-diphosphate reductase subunit M2 (DB00242; DB05003; DB05260; DB05428; DB05801)
 OpenBabel12092120213D

  0  0  0     0  0            999 V3000
M  V30 BEGIN CTAB
M  V30 COUNTS 6300 6377 0 0 0
M  V30 BEGIN ATOM
M  V30 1 H -0.908 1.98254 -0.117106 0
M  V30 2 N 0 1.576 0 0
M  V30 3 C 0.933 2.03868 1.02534 0
M  V30 4 C 1.911 0.928543 1.3348 0
M  V30 5 O 3.095 1.19667 1.45644 0
M  V30 6 C 0.222 2.43627 2.35294 0
M  V30 7 C -0.732 3.65373 2.2001 0
M  V30 8 S 0.101 5.13292 1.52614 0
M  V30 9 C 1.257 5.56322 2.86805 0
M  V30 10 H 1.49 2.90518 0.631377 0
M  V30 11 H -0.977 1.52953 0.210867 0
M  V30 12 H 0.981 2.67203 3.11629 0
M  V30 13 H -0.358 1.57376 2.7183 0
M  V30 14 H -1.165 3.90944 3.18086 0
M  V30 15 H -1.563 3.418 1.51819 0
M  V30 16 H 0.729 5.58782 3.83104 0
M  V30 17 H 1.672 6.56266 2.65933 0
M  V30 18 H 2.08 4.83886 2.90714 0
M  V30 19 N 1.4781 -0.272755 1.55222 0
M  V30 20 C 2.4081 -1.34136 1.91127 0
M  V30 21 C 3.3891 -1.51513 0.773168 0
M  V30 22 O 4.5741 -1.64552 1.03132 0
M  V30 23 C 1.7041 -2.70083 2.1834 0
M  V30 24 C 0.6581 -2.67437 3.34158 0
M  V30 25 C -0.0159 -4.06938 3.46851 0
M  V30 26 C 1.2841 -2.26686 4.70543 0
M  V30 27 H 2.9781 -1.04333 2.80633 0
M  V30 28 H 0.5241 -0.500454 1.35024 0
M  V30 29 H 2.4771 -3.44952 2.42046 0
M  V30 30 H 1.2011 -3.01469 1.25634 0
M  V30 31 H -0.1399 -1.95026 3.1042 0
M  V30 32 H -0.4919 -4.35547 2.51611 0
M  V30 33 H -0.7919 -4.06062 4.2472 0
M  V30 34 H 0.7321 -4.83545 3.72849 0
M  V30 35 H 2.1461 -2.91277 4.93792 0
M  V30 36 H 0.5431 -2.36971 5.5133 0
M  V30 37 H 1.6131 -1.21818 4.69349 0
M  V30 38 N 2.9562 -1.48159 -0.537278 0
M  V30 39 C 4.1812 -1.59707 -1.32319 0
M  V30 40 C 4.6062 -0.254859 -1.86365 0
M  V30 41 O 3.9642 0.772378 -1.64024 0
M  V30 42 C 4.0122 -2.6412 -2.45505 0
M  V30 43 O 3.1162 -2.20774 -3.48328 0
M  V30 44 H 2.4572 -0.535791 -0.392204 0
M  V30 45 H 4.9872 -1.94092 -0.647268 0
M  V30 46 H 4.9972 -2.85166 -2.91795 0
M  V30 47 H 3.6722 -3.61567 -2.05528 0
M  V30 48 H 2.2492 -2.09911 -3.08207 0
M  V30 49 N 4.4343 0.785586 -1.36625 0
M  V30 50 C 5.3643 1.91259 -1.33949 0
M  V30 51 C 6.3453 1.68795 -0.210325 0
M  V30 52 O 7.5303 1.89854 -0.408561 0
M  V30 53 C 4.6603 3.28339 -1.13186 0
M  V30 54 C 3.6143 3.65335 -2.22967 0
M  V30 55 C 2.9403 5.00806 -1.87342 0
M  V30 56 C 4.2403 3.7352 -3.65075 0
M  V30 57 H 5.9343 1.93755 -2.28253 0
M  V30 58 H 3.4803 0.930788 -1.09874 0
M  V30 59 H 5.4333 4.06804 -1.09948 0
M  V30 60 H 4.1573 3.2624 -0.153332 0
M  V30 61 H 2.8163 2.89169 -2.25337 0
M  V30 62 H 2.4643 4.95233 -0.880545 0
M  V30 63 H 2.1643 5.26529 -2.60846 0
M  V30 64 H 3.6883 5.81687 -1.85667 0
M  V30 65 H 5.1023 4.42168 -3.64911 0
M  V30 66 H 3.4993 4.10731 -4.37516 0
M  V30 67 H 4.5693 2.74527 -3.99703 0
M  V30 68 N 5.9124 1.20967 1.01018 0
M  V30 69 C 7.3284 0.965905 1.27053 0
M  V30 70 C 7.5284 -0.350785 1.98423 0
M  V30 71 O 6.5844 -1.07773 2.28344 0
M  V30 72 C 7.8974 2.15294 2.09926 0
M  V30 73 C 9.4454 2.19463 2.23171 0
M  V30 74 C 9.9204 3.3767 3.09424 0
M  V30 75 N 11.4114 3.37724 3.17012 0
M  V30 76 C 12.1464 4.25837 3.83993 0
M  V30 77 N 11.6424 5.24138 4.53047 0
M  V30 78 N 13.4354 4.1366 3.80581 0
M  V30 79 H 5.5864 2.0565 0.531194 0
M  V30 80 H 7.8494 0.90024 0.297106 0
M  V30 81 H 7.5554 3.10684 1.64828 0
M  V30 82 H 7.4294 2.13923 3.10672 0
M  V30 83 H 9.8164 1.24632 2.6749 0
M  V30 84 H 9.8974 2.2488 1.21912 0
M  V30 85 H 9.5414 4.32791 2.65808 0
M  V30 86 H 9.4714 3.29491 4.10784 0
M  V30 87 H 11.9624 2.6658 2.6785 0
M  V30 88 H 12.2754 5.87684 5.01844 0
M  V30 89 H 10.6204 5.28068 4.5185 0
M  V30 90 H 13.8114 3.36127 3.25785 0
M  V30 91 H 13.9844 4.82538 4.32505 0
M  V30 92 N 7.3905 -1.2043 1.01659 0
M  V30 93 C 8.6365 -1.90079 0.706963 0
M  V30 94 C 8.9695 -1.78648 -0.761474 0
M  V30 95 O 8.2445 -1.17069 -1.55323 0
M  V30 96 C 8.5275 -3.41469 1.14327 0
M  V30 97 C 8.3805 -3.61833 2.67201 0
M  V30 98 C 9.6995 -4.34261 0.714529 0
M  V30 99 H 6.8185 -0.690254 0.2583 0
M  V30 100 H 9.4605 -1.41826 1.26433 0
M  V30 101 H 7.6105 -3.82696 0.669056 0
M  V30 102 H 9.2825 -3.2986 3.22475 0
M  V30 103 H 7.5255 -3.05304 3.08175 0
M  V30 104 H 8.1965 -4.67955 2.92783 0
M  V30 105 H 10.6725 -4.00682 1.12221 0
M  V30 106 H 9.5485 -5.38806 1.04784 0
M  V30 107 H 9.8095 -4.40431 -0.383799 0
M  V30 108 N 8.8686 -0.792821 -1.36206 0
M  V30 109 C 10.2796 -0.429513 -1.81692 0
M  V30 110 C 10.6306 1.04695 -1.65932 0
M  V30 111 O 9.7556 1.81256 -1.18218 0
M  V30 112 C 10.3506 -0.772831 -3.29868 0
M  V30 113 C 8.9096 -0.462307 -3.7355 0
M  V30 114 C 8.0566 -1.00569 -2.5842 0
M  V30 115 H 11.0076 -0.985672 -1.24379 0
M  V30 116 H 11.0286 -0.0651928 -3.80444 0
M  V30 117 H 10.5406 -1.84747 -3.41307 0
M  V30 118 H 8.6416 0.604158 -3.67669 0
M  V30 119 H 8.7546 -0.985299 -4.68859 0
M  V30 120 H 7.1186 -0.428734 -2.51066 0
M  V30 121 H 7.9016 -2.08616 -2.72643 0
M  V30 122 N 10.3467 1.47872 -0.545128 0
M  V30 123 C 11.2767 2.32661 0.197793 0
M  V30 124 C 12.2577 1.43041 0.920504 0
M  V30 125 O 13.4427 1.71912 0.90333 0
M  V30 126 C 10.5727 3.24569 1.23582 0
M  V30 127 C 9.5267 4.23333 0.630323 0
M  V30 128 C 8.8527 5.0448 1.77211 0
M  V30 129 C 10.1527 5.20704 -0.407974 0
M  V30 130 H 11.8467 2.95024 -0.510045 0
M  V30 131 H 9.3927 1.4187 -0.246731 0
M  V30 132 H 11.3457 3.8272 1.76362 0
M  V30 133 H 10.0697 2.60236 1.97344 0
M  V30 134 H 8.7287 3.6639 0.123922 0
M  V30 135 H 8.3767 4.36561 2.49847 0
M  V30 136 H 8.0767 5.71339 1.37281 0
M  V30 137 H 9.6007 5.65487 2.3034 0
M  V30 138 H 11.0147 5.7329 0.033305 0
M  V30 139 H 9.4117 5.95699 -0.725486 0
M  V30 140 H 10.4817 4.66917 -1.30828 0
M  V30 141 N 11.8248 0.280983 1.55075 0
M  V30 142 C 12.7878 -0.590896 2.21452 0
M  V30 143 C 13.7878 -1.07682 1.19421 0
M  V30 144 O 14.9778 -0.97605 1.44288 0
M  V30 145 C 12.1098 -1.81587 2.88511 0
M  V30 146 H 13.3028 -0.0112554 2.99898 0
M  V30 147 H 10.8558 0.0316438 1.56268 0
M  V30 148 H 11.5908 -2.43587 2.14093 0
M  V30 149 H 11.3758 -1.4753 3.63287 0
M  V30 150 H 12.8658 -2.43575 3.39206 0
M  V30 151 N 13.3029 -1.57598 0.00835791 0
M  V30 152 C 14.7139 -1.7892 -0.53333 0
M  V30 153 C 15.0649 -0.916609 -1.73473 0
M  V30 154 O 14.1899 -0.121336 -2.1606 0
M  V30 155 C 14.7849 -3.24488 -0.974313 0
M  V30 156 C 13.3439 -3.46878 -1.46125 0
M  V30 157 C 12.4909 -2.74157 -0.416302 0
M  V30 158 H 15.4419 -1.56958 0.234495 0
M  V30 159 H 15.4629 -3.3306 -1.83988 0
M  V30 160 H 14.9749 -3.87972 -0.099718 0
M  V30 161 H 13.0759 -2.8862 -2.35646 0
M  V30 162 H 13.1889 -4.55572 -1.48295 0
M  V30 163 H 11.5529 -2.39022 -0.87981 0
M  V30 164 H 12.3359 -3.40345 0.44947 0
M  V30 165 N 14.781 0.264519 -1.55364 0
M  V30 166 C 16.03 0.992812 -1.75574 0
M  V30 167 C 16.343 1.87142 -0.568979 0
M  V30 168 O 17.549 2.63513 -0.653682 0
M  V30 169 C 16.005 1.81519 -3.10771 0
M  V30 170 C 15.613 0.984839 -4.37041 0
M  V30 171 C 17.357 2.53727 -3.40327 0
M  V30 172 C 15.264 1.80209 -5.63275 0
M  V30 173 H 14.194 0.374412 -0.65447 0
M  V30 174 H 16.845 0.248138 -1.81815 0
M  V30 175 H 15.227 2.60115 -2.98591 0
M  V30 176 H 16.401 0.242455 -4.60162 0
M  V30 177 H 14.716 0.37691 -4.14691 0
M  V30 178 H 17.313 3.15292 -4.3185 0
M  V30 179 H 17.656 3.24447 -2.60845 0
M  V30 180 H 18.189 1.82156 -3.53644 0
M  V30 181 H 14.928 1.13896 -6.45529 0
M  V30 182 H 14.448 2.52022 -5.44284 0
M  V30 183 H 16.127 2.37364 -6.01887 0
M  V30 184 N 16.2591 1.48442 0.529413 0
M  V30 185 C 17.4871 1.60151 1.30994 0
M  V30 186 C 17.9021 0.261985 1.86973 0
M  V30 187 O 17.2591 -0.748805 1.66431 0
M  V30 188 C 17.3101 2.64854 2.46038 0
M  V30 189 O 17.0311 3.93608 1.92365 0
M  V30 190 C 18.5321 2.87007 3.37849 0
M  V30 191 H 15.7521 0.539971 0.398338 0
M  V30 192 H 18.2961 1.94273 0.638597 0
M  V30 193 H 16.4511 2.33589 3.09055 0
M  V30 194 H 16.8651 4.51055 2.67675 0
M  V30 195 H 18.3391 3.64068 4.14919 0
M  V30 196 H 18.8161 1.95852 3.93114 0
M  V30 197 H 19.4221 3.19579 2.80623 0
M  V30 198 N 17.7372 -0.778329 1.37039 0
M  V30 199 C 19.0142 -1.52551 1.22424 0
M  V30 200 C 19.3942 -2.10288 -0.184964 0
M  V30 201 O 18.7422 -1.94953 -1.19187 0
M  V30 202 C 18.9522 -2.61164 2.31504 0
M  V30 203 C 20.3002 -3.28746 2.68721 0
M  V30 204 O 21.3242 -2.71455 2.30631 0
M  V30 205 O 20.1832 -4.3231 3.3432 0
M  V30 206 H 17.2772 -0.675343 0.477326 0
M  V30 207 H 19.8232 -0.815859 1.48801 0
M  V30 208 H 18.5952 -2.16574 3.25901 0
M  V30 209 H 18.2182 -3.39737 2.06554 0
M  V30 210 N 19.2153 -1.21501 -1.00376 0
M  V30 211 C 20.6263 -1.03146 -1.55621 0
M  V30 212 C 20.9773 0.408375 -1.91903 0
M  V30 213 O 20.1023 1.29177 -1.73616 0
M  V30 214 C 20.6973 -1.86612 -2.82775 0
M  V30 215 C 19.2563 -1.72586 -3.34501 0
M  V30 216 C 18.4033 -1.83747 -2.07683 0
M  V30 217 H 21.3543 -1.35505 -0.826081 0
M  V30 218 H 21.3753 -1.3771 -3.54706 0
M  V30 219 H 20.8873 -2.91399 -2.56336 0
M  V30 220 H 18.9883 -0.704877 -3.65872 0
M  V30 221 H 19.1013 -2.54623 -4.05837 0
M  V30 222 H 17.4653 -1.27069 -2.20739 0
M  V30 223 H 18.2483 -2.90044 -1.83655 0
M  V30 224 N 20.6934 1.19889 -1.02296 0
M  V30 225 C 21.6254 2.22334 -0.556787 0
M  V30 226 C 22.6384 1.58674 0.364199 0
M  V30 227 O 23.8274 1.77768 0.161533 0
M  V30 228 C 20.9274 3.38257 0.208694 0
M  V30 229 C 20.1004 4.31504 -0.71577 0
M  V30 230 C 19.1594 5.262 0.00325597 0
M  V30 231 O 18.1854 5.65798 -0.621357 0
M  V30 232 N 19.3874 5.66303 1.27599 0
M  V30 233 H 22.1524 2.62957 -1.43784 0
M  V30 234 H 19.7134 1.34495 -0.901261 0
M  V30 235 H 21.7054 3.98616 0.699111 0
M  V30 236 H 20.2754 2.96472 0.991102 0
M  V30 237 H 19.4954 3.69016 -1.38638 0
M  V30 238 H 20.7834 4.9072 -1.34428 0
M  V30 239 H 20.1814 5.36155 1.80429 0
M  V30 240 H 18.7384 6.28942 1.71102 0
M  V30 241 N 22.1715 0.800033 1.35784 0
M  V30 242 C 23.1035 0.163596 2.28615 0
M  V30 243 C 24.1165 -0.633317 1.49976 0
M  V30 244 O 25.3055 -0.466754 1.72289 0
M  V30 245 C 22.4055 -0.790958 3.29541 0
M  V30 246 C 21.5785 -0.0418255 4.3738 0
M  V30 247 C 20.6375 -0.91389 5.18203 0
M  V30 248 O 19.6635 -0.367234 5.68014 0
M  V30 249 N 20.8655 -2.23682 5.35674 0
M  V30 250 H 23.6305 0.96105 2.83873 0
M  V30 251 H 21.1915 0.654894 1.48063 0
M  V30 252 H 23.1835 -1.37844 3.80501 0
M  V30 253 H 21.7535 -1.48925 2.74846 0
M  V30 254 H 20.9735 0.726813 3.87442 0
M  V30 255 H 22.2615 0.474719 5.06581 0
M  V30 256 H 21.6595 -2.70497 4.96838 0
M  V30 257 H 20.2165 -2.77369 5.89839 0
M  V30 258 N 23.6496 -1.47581 0.552962 0
M  V30 259 C 24.5796 -2.32762 -0.185451 0
M  V30 260 C 25.5606 -1.43527 -0.912905 0
M  V30 261 O 26.7456 -1.72388 -0.894201 0
M  V30 262 C 23.8756 -3.25219 -1.21859 0
M  V30 263 C 22.8296 -4.23661 -0.607864 0
M  V30 264 C 22.1556 -5.05413 -1.74533 0
M  V30 265 C 23.4556 -5.20481 0.435582 0
M  V30 266 H 25.1496 -2.94749 0.525684 0
M  V30 267 H 22.6956 -1.41738 0.254251 0
M  V30 268 H 24.6486 -3.8365 -1.7433 0
M  V30 269 H 23.3726 -2.61279 -1.95961 0
M  V30 270 H 22.0316 -3.66451 -0.104489 0
M  V30 271 H 21.6796 -4.3788 -2.47529 0
M  V30 272 H 21.3796 -5.72059 -1.34249 0
M  V30 273 H 22.9036 -5.66701 -2.27338 0
M  V30 274 H 24.3176 -5.733 -0.00290157 0
M  V30 275 H 22.7146 -5.95305 0.757067 0
M  V30 276 H 23.7846 -4.66217 1.33303 0
M  V30 277 N 25.1277 -0.289203 -1.54924 0
M  V30 278 C 26.0597 0.625583 -2.20497 0
M  V30 279 C 27.0727 1.10667 -1.19402 0
M  V30 280 O 28.2617 1.02615 -1.46056 0
M  V30 281 C 25.3617 1.86702 -2.82835 0
M  V30 282 C 24.5347 1.5304 -4.09753 0
M  V30 283 C 23.5937 2.62576 -4.56005 0
M  V30 284 O 22.6197 2.28167 -5.21468 0
M  V30 285 N 23.8217 3.92901 -4.27328 0
M  V30 286 H 26.5867 0.0642801 -2.99631 0
M  V30 287 H 24.1477 -0.110896 -1.6152 0
M  V30 288 H 26.1397 2.59304 -3.10715 0
M  V30 289 H 24.7097 2.33702 -2.07611 0
M  V30 290 H 23.9297 0.637564 -3.8901 0
M  V30 291 H 25.2177 1.28072 -4.92418 0
M  V30 292 H 24.6157 4.23671 -3.74859 0
M  V30 293 H 23.1727 4.61837 -4.59946 0
M  V30 294 N 26.6058 1.57591 -0.0167156 0
M  V30 295 C 27.5358 2.12496 0.967858 0
M  V30 296 C 28.5168 1.03807 1.34752 0
M  V30 297 O 29.7018 1.31577 1.42833 0
M  V30 298 C 26.8318 2.64194 2.25431 0
M  V30 299 C 25.7858 3.77559 2.01576 0
M  V30 300 C 25.1118 4.15636 3.36379 0
M  V30 301 C 26.4118 5.04151 1.36489 0
M  V30 302 H 28.1058 2.95013 0.510643 0
M  V30 303 H 25.6518 1.41915 0.244181 0
M  V30 304 H 27.6048 3.01236 2.94678 0
M  V30 305 H 26.3288 1.78821 2.73296 0
M  V30 306 H 24.9878 3.40937 1.34751 0
M  V30 307 H 24.6358 3.27263 3.81979 0
M  V30 308 H 24.3358 4.92022 3.21229 0
M  V30 309 H 25.8598 4.5525 4.06915 0
M  V30 310 H 27.2738 5.38857 1.95718 0
M  V30 311 H 25.6708 5.85453 1.31776 0
M  V30 312 H 26.7408 4.83733 0.336219 0
M  V30 313 N 28.0839 -0.256276 1.55502 0
M  V30 314 C 29.3089 -1.00766 1.81276 0
M  V30 315 C 29.7339 -1.78524 0.59252 0
M  V30 316 O 29.0919 -1.75413 -0.45827 0
M  V30 317 C 29.1399 -1.92869 3.04687 0
M  V30 318 O 28.2439 -3.019 2.80945 0
M  V30 319 H 27.5849 -0.287224 0.598664 0
M  V30 320 H 30.1149 -0.280109 2.02674 0
M  V30 321 H 30.1249 -2.34511 3.33869 0
M  V30 322 H 28.7999 -1.35689 3.93143 0
M  V30 323 H 27.3769 -2.64454 2.62904 0
M  V30 324 N 29.562 -1.4872 -0.521534 0
M  V30 325 C 30.973 -1.50607 -1.10337 0
M  V30 326 C 31.324 -0.280612 -1.94183 0
M  V30 327 O 30.449 0.611507 -2.0758 0
M  V30 328 C 31.044 -2.72903 -2.00772 0
M  V30 329 C 29.603 -2.77634 -2.54158 0
M  V30 330 C 28.75 -2.44241 -1.31307 0
M  V30 331 H 31.701 -1.55714 -0.306388 0
M  V30 332 H 31.722 -2.519 -2.85178 0
M  V30 333 H 31.234 -3.62077 -1.39721 0
M  V30 334 H 29.335 -1.92689 -3.18907 0
M  V30 335 H 29.448 -3.79283 -2.92714 0
M  V30 336 H 27.812 -1.95577 -1.63161 0
M  V30 337 H 28.595 -3.35666 -0.719943 0
M  V30 338 N 31.0401 0.771051 -1.3745 0
M  V30 339 C 31.9701 1.89827 -1.3597 0
M  V30 340 C 32.9511 1.68562 -0.228216 0
M  V30 341 O 34.1361 1.8941 -0.428675 0
M  V30 342 C 31.2661 3.2712 -1.16662 0
M  V30 343 C 30.2201 3.6295 -2.2683 0
M  V30 344 C 29.5461 4.98791 -1.92644 0
M  V30 345 C 30.8461 3.69627 -3.69017 0
M  V30 346 H 32.5401 1.91323 -2.30295 0
M  V30 347 H 30.0861 0.919082 -1.10855 0
M  V30 348 H 32.0391 4.05615 -1.14256 0
M  V30 349 H 30.7631 3.26059 -0.187926 0
M  V30 350 H 29.4221 2.86763 -2.28392 0
M  V30 351 H 29.0701 4.94271 -0.933021 0
M  V30 352 H 28.7701 5.23733 -2.66416 0
M  V30 353 H 30.2941 5.79685 -1.91826 0
M  V30 354 H 31.7081 4.38273 -3.69581 0
M  V30 355 H 30.1051 4.06067 -4.41848 0
M  V30 356 H 31.1751 2.70273 -4.02592 0
M  V30 357 N 32.5182 1.22032 0.997298 0
M  V30 358 C 33.4652 0.986467 2.08656 0
M  V30 359 C 34.4352 -0.0902671 1.65855 0
M  V30 360 O 35.6202 0.0584294 1.90711 0
M  V30 361 C 32.7602 0.565569 3.40434 0
M  V30 362 C 31.8732 1.71259 3.96604 0
M  V30 363 C 31.0082 1.24011 5.16522 0
M  V30 364 C 30.0472 2.35896 5.64818 0
M  V30 365 N 29.1842 1.89726 6.7598 0
M  V30 366 H 34.0242 1.91892 2.27994 0
M  V30 367 H 31.5612 0.956199 1.11782 0
M  V30 368 H 33.5192 0.302738 4.161 0
M  V30 369 H 32.1492 -0.329879 3.2111 0
M  V30 370 H 31.2012 2.08986 3.17851 0
M  V30 371 H 32.5132 2.55436 4.28432 0
M  V30 372 H 31.6672 0.934395 5.99461 0
M  V30 373 H 30.4062 0.368487 4.86306 0
M  V30 374 H 29.4112 2.67261 4.8047 0
M  V30 375 H 30.6362 3.23567 5.97061 0
M  V30 376 H 28.5822 1.0492 6.47555 0
M  V30 377 H 28.4992 2.67471 7.07103 0
M  V30 378 H 29.7672 1.62211 7.62435 0
M  V30 379 N 33.9963 -1.19345 1.0293 0
M  V30 380 C 35.2443 -1.88665 0.724574 0
M  V30 381 C 35.5653 -1.80036 -0.749144 0
M  V30 382 O 34.8353 -1.2111 -1.53978 0
M  V30 383 H 33.4153 -0.698406 0.265025 0
M  V30 384 H 36.0773 -1.44885 1.30362 0
M  V30 385 H 35.1733 -2.94987 1.01926 0
M  V30 386 N 35.4744 -0.807222 -1.35358 0
M  V30 387 C 36.4044 -0.232509 -2.3234 0
M  V30 388 C 37.3854 0.642386 -1.57504 0
M  V30 389 O 38.5704 0.572526 -1.85569 0
M  V30 390 C 35.7004 0.619238 -3.41735 0
M  V30 391 C 34.6544 -0.157215 -4.27711 0
M  V30 392 C 33.9804 0.816273 -5.28433 0
M  V30 393 C 35.2804 -1.35656 -5.04376 0
M  V30 394 H 36.9744 -1.04276 -2.80654 0
M  V30 395 H 34.5204 -0.50288 -1.34934 0
M  V30 396 H 36.4734 1.03137 -4.08584 0
M  V30 397 H 35.1974 1.46239 -2.92031 0
M  V30 398 H 33.8564 -0.550525 -3.62443 0
M  V30 399 H 33.5044 1.65494 -4.74996 0
M  V30 400 H 33.2044 0.301067 -5.86828 0
M  V30 401 H 34.7284 1.22659 -5.98153 0
M  V30 402 H 36.1424 -1.01927 -5.64166 0
M  V30 403 H 34.5394 -1.8063 -5.7227 0
M  V30 404 H 35.6094 -2.14288 -4.34981 0
M  V30 405 N 36.9525 1.47285 -0.560781 0
M  V30 406 C 38.1775 2.07359 -0.0410566 0
M  V30 407 C 38.6025 1.41017 1.24483 0
M  V30 408 O 37.9605 0.486368 1.74654 0
M  V30 409 C 38.0085 3.6035 0.134123 0
M  V30 410 O 37.1125 3.94681 1.19587 0
M  V30 411 H 36.4535 0.661887 -0.0529291 0
M  V30 412 H 38.9835 1.89252 -0.777482 0
M  V30 413 H 38.9935 4.0652 0.347207 0
M  V30 414 H 37.6685 4.08034 -0.805047 0
M  V30 415 H 36.2455 3.60251 0.962987 0
M  V30 416 N 38.4306 0.297415 1.54768 0
M  V30 417 C 39.3606 -0.573494 2.26348 0
M  V30 418 C 40.3416 -1.14085 1.26169 0
M  V30 419 O 41.5266 -1.17086 1.54934 0
M  V30 420 C 38.6566 -1.74716 3.00153 0
M  V30 421 C 37.6106 -1.31032 4.07449 0
M  V30 422 C 36.9366 -2.56887 4.68949 0
M  V30 423 C 38.2366 -0.444183 5.20408 0
M  V30 424 H 39.9306 0.0235131 2.99391 0
M  V30 425 H 37.4766 0.0127488 1.43994 0
M  V30 426 H 39.4296 -2.3625 3.48947 0
M  V30 427 H 38.1536 -2.37035 2.24682 0
M  V30 428 H 36.8126 -0.718066 3.59499 0
M  V30 429 H 36.4606 -3.17512 3.90122 0
M  V30 430 H 36.1606 -2.2836 5.41411 0
M  V30 431 H 37.6846 -3.19229 5.20505 0
M  V30 432 H 39.0986 -0.9651 5.65118 0
M  V30 433 H 37.4956 -0.252846 5.99567 0
M  V30 434 H 38.5656 0.531609 4.81977 0
M  V30 435 N 39.9087 -1.5758 0.0250728 0
M  V30 436 C 41.1547 -1.91917 -0.655413 0
M  V30 437 C 41.4877 -0.901433 -1.72011 0
M  V30 438 O 40.7627 0.0764069 -1.9435 0
M  V30 439 C 41.0457 -3.36751 -1.27558 0
M  V30 440 C 40.8987 -4.49258 -0.220719 0
M  V30 441 C 42.2177 -3.81469 -2.19475 0
M  V30 442 H 39.3367 -0.697925 -0.23679 0
M  V30 443 H 41.9787 -1.89825 0.0815036 0
M  V30 444 H 40.1287 -3.38664 -1.90365 0
M  V30 445 H 41.8007 -4.59478 0.409601 0
M  V30 446 H 40.0437 -4.31415 0.454264 0
M  V30 447 H 40.7147 -5.47618 -0.694175 0
M  V30 448 H 43.1907 -3.81266 -1.66659 0
M  V30 449 H 42.0667 -4.83512 -2.59822 0
M  V30 450 H 42.3277 -3.16744 -3.08424 0
M  V30 451 N 41.3868 0.248026 -1.55636 0
M  V30 452 C 42.6638 0.998988 -1.68165 0
M  V30 453 C 43.0438 2.03409 -0.564621 0
M  V30 454 O 42.3918 2.24378 0.432076 0
M  V30 455 C 42.6018 1.63334 -3.0842 0
M  V30 456 C 43.9498 2.13562 -3.66983 0
M  V30 457 O 44.9738 1.73277 -3.11213 0
M  V30 458 O 43.8328 2.87526 -4.64749 0
M  V30 459 H 40.9268 0.464933 -0.683935 0
M  V30 460 H 43.4728 0.241902 -1.67967 0
M  V30 461 H 42.2448 0.884583 -3.8117 0
M  V30 462 H 41.8678 2.45666 -3.12624 0
M  V30 463 N 42.8649 1.48995 0.513639 0
M  V30 464 C 43.8119 1.6473 1.61656 0
M  V30 465 C 44.7819 0.488984 1.58739 0
M  V30 466 O 45.9669 0.714478 1.76918 0
M  V30 467 C 43.1069 1.7082 2.99858 0
M  V30 468 C 42.2199 2.9787 3.12885 0
M  V30 469 C 41.3549 2.95017 4.41744 0
M  V30 470 C 40.3939 4.16702 4.48359 0
M  V30 471 N 39.5309 4.11832 5.68629 0
M  V30 472 H 44.3709 2.58909 1.47547 0
M  V30 473 H 41.9079 1.28382 0.71808 0
M  V30 474 H 43.8659 1.72331 3.79944 0
M  V30 475 H 42.4959 0.801181 3.12699 0
M  V30 476 H 41.5479 3.06029 2.25944 0
M  V30 477 H 42.8599 3.8786 3.13633 0
M  V30 478 H 42.0139 2.95021 5.30139 0
M  V30 479 H 40.7529 2.02784 4.43542 0
M  V30 480 H 39.7579 4.16955 3.58369 0
M  V30 481 H 40.9829 5.10113 4.48287 0
M  V30 482 H 38.9289 3.22428 5.71293 0
M  V30 483 H 38.8459 4.95543 5.7094 0
M  V30 484 H 40.1139 4.1592 6.59266 0
M  V30 485 N 44.343 -0.763751 1.37857 0
M  V30 486 C 45.253 -1.90817 1.36478 0
M  V30 487 C 46.269 -1.71997 0.263248 0
M  V30 488 O 47.445 -1.95095 0.499979 0
M  V30 489 C 44.51 -3.2605 1.17864 0
M  V30 490 C 43.571 -3.57467 2.3773 0
M  V30 491 C 42.804 -4.86249 2.19995 0
M  V30 492 O 43.027 -5.57884 1.18836 0
M  V30 493 O 41.961 -5.16911 3.08361 0
M  V30 494 H 45.787 -1.94933 2.32884 0
M  V30 495 H 43.372 -0.907619 1.1867 0
M  V30 496 H 45.254 -4.06924 1.09504 0
M  V30 497 H 43.929 -3.22769 0.245372 0
M  V30 498 H 42.836 -2.76796 2.51664 0
M  V30 499 H 44.169 -3.655 3.29652 0
M  V30 500 N 45.8211 -1.22559 -0.990812 0
M  V30 501 C 46.7691 -0.994798 -2.10253 0
M  V30 502 C 47.7631 0.0627798 -1.69284 0
M  V30 503 O 48.9691 -0.0898392 -1.79776 0
M  V30 504 H 45.3441 -0.304527 -0.687581 0
M  V30 505 H 47.3151 -1.93812 -2.26891 0
M  V30 506 C 46.0641 -0.591439 -3.42633 0
M  V30 507 H 45.3871 -1.3969 -3.74602 0
M  V30 508 H 46.8271 -0.469385 -4.21394 0
M  V30 509 C 45.2861 0.699232 -3.29564 0
M  V30 510 O 45.8161 1.75112 -3.61523 0
M  V30 511 N 44.0221 0.671182 -2.82743 0
M  V30 512 H 43.5691 -0.185136 -2.56934 0
M  V30 513 H 43.5271 1.53502 -2.7438 0
M  V30 514 N 47.2992 1.18797 -1.03562 0
M  V30 515 C 48.5272 1.92599 -0.755869 0
M  V30 516 C 48.9422 1.75886 0.686271 0
M  V30 517 O 48.2992 1.08517 1.46732 0
M  V30 518 C 48.3502 3.44159 -1.10619 0
M  V30 519 O 48.0712 3.60341 -2.4917 0
M  V30 520 C 49.5722 4.3507 -0.850214 0
M  V30 521 H 46.7922 0.611587 -0.276048 0
M  V30 522 H 49.3362 1.50742 -1.38192 0
M  V30 523 H 47.4912 3.83823 -0.525194 0
M  V30 524 H 47.9052 4.54128 -2.62427 0
M  V30 525 H 49.3792 5.39989 -1.14523 0
M  V30 526 H 49.8562 4.38673 0.215176 0
M  V30 527 H 50.4622 4.01097 -1.41426 0
M  V30 528 N 48.7773 0.814389 1.34928 0
M  V30 529 C 50.1883 0.458364 1.80986 0
M  V30 530 C 50.5393 -1.02042 1.67577 0
M  V30 531 O 49.6643 -1.79352 1.21086 0
M  V30 532 C 50.2593 0.825212 3.28597 0
M  V30 533 C 48.8183 0.521677 3.72767 0
M  V30 534 C 47.9653 1.04668 2.56788 0
M  V30 535 H 50.9163 1.00533 1.22795 0
M  V30 536 H 50.9373 0.12571 3.80292 0
M  V30 537 H 50.4493 1.90154 3.38324 0
M  V30 538 H 48.5503 -0.545589 3.68584 0
M  V30 539 H 48.6633 1.05977 4.67232 0
M  V30 540 H 47.0273 0.468622 2.50352 0
M  V30 541 H 47.8103 2.12927 2.6929 0
M  V30 542 N 50.2554 -1.46986 0.568584 0
M  V30 543 C 51.6664 -1.86188 0.138219 0
M  V30 544 C 52.0174 -1.47388 -1.29504 0
M  V30 545 O 51.1424 -0.88219 -1.97602 0
M  V30 546 C 51.7374 -3.3792 0.244065 0
M  V30 547 C 50.2964 -3.76171 -0.131335 0
M  V30 548 C 49.4434 -2.71027 0.586465 0
M  V30 549 H 52.3944 -1.38342 0.777645 0
M  V30 550 H 52.4154 -3.76729 -0.534351 0
M  V30 551 H 51.9274 -3.66128 1.28731 0
M  V30 552 H 50.0284 -3.5358 -1.17526 0
M  V30 553 H 50.1414 -4.78523 0.235146 0
M  V30 554 H 48.5054 -2.54684 0.0282722 0
M  V30 555 H 49.2884 -3.02077 1.63109 0
M  V30 556 N 51.7335 -0.305618 -1.54608 0
M  V30 557 C 52.6965 0.555591 -2.22364 0
M  V30 558 C 53.6965 1.05768 -1.21119 0
M  V30 559 O 54.8865 0.952972 -1.45822 0
M  V30 560 C 52.0185 1.76974 -2.91364 0
M  V30 561 H 53.2115 -0.0364572 -2.99878 0
M  V30 562 H 50.7645 -0.0565007 -1.56198 0
M  V30 563 H 51.4995 2.40151 -2.17941 0
M  V30 564 H 51.2845 1.41732 -3.65588 0
M  V30 565 H 52.7745 2.38148 -3.43038 0
M  V30 566 N 53.2116 1.57565 -0.0334293 0
M  V30 567 C 54.1416 2.13511 0.945265 0
M  V30 568 C 55.1226 1.05231 1.33643 0
M  V30 569 O 56.3076 1.33084 1.41429 0
M  V30 570 C 53.4376 2.6657 2.22616 0
M  V30 571 C 52.3916 3.79676 1.97561 0
M  V30 572 C 51.7176 4.1918 3.31952 0
M  V30 573 C 53.0176 5.0557 1.31135 0
M  V30 574 H 54.7116 2.95538 0.479325 0
M  V30 575 H 52.2576 1.42166 0.229115 0
M  V30 576 H 54.2106 3.04344 2.91466 0
M  V30 577 H 52.9346 1.8171 2.71384 0
M  V30 578 H 51.5936 3.42347 1.31127 0
M  V30 579 H 51.2416 3.31296 3.78487 0
M  V30 580 H 50.9416 4.95402 3.15992 0
M  V30 581 H 52.4656 4.59541 4.02063 0
M  V30 582 H 53.8796 5.40903 1.89992 0
M  V30 583 H 52.2766 5.86818 1.25559 0
M  V30 584 H 53.3466 4.84062 0.284894 0
M  V30 585 N 54.6897 -0.239769 1.55765 0
M  V30 586 C 55.9147 -0.988373 1.82335 0
M  V30 587 C 56.3397 -1.77886 0.611421 0
M  V30 588 O 55.6977 -1.75889 -0.439639 0
M  V30 589 C 55.7457 -1.89627 3.06715 0
M  V30 590 O 54.8497 -2.98904 2.84131 0
M  V30 591 H 54.1907 -0.280858 0.601677 0
M  V30 592 H 56.7207 -0.258597 2.02959 0
M  V30 593 H 56.7307 -2.30957 3.36338 0
M  V30 594 H 55.4057 -1.31511 3.9456 0
M  V30 595 H 53.9827 -2.61651 2.65694 0
M  V30 596 N 56.1678 -1.49265 -0.50573 0
M  V30 597 C 57.4158 -1.582 -1.25766 0
M  V30 598 C 57.7368 -0.268482 -1.93143 0
M  V30 599 O 57.0068 0.711833 -1.8251 0
M  V30 600 H 55.5868 -0.582873 -0.467191 0
M  V30 601 H 58.2488 -1.85865 -0.586525 0
M  V30 602 H 57.3448 -2.37563 -2.02412 0
M  V30 603 N 57.6459 0.756429 -1.3826 0
M  V30 604 C 58.8739 1.54565 -1.3754 0
M  V30 605 C 59.2889 1.88767 0.0355331 0
M  V30 606 O 58.6459 1.52572 1.0014 0
M  V30 607 C 58.6969 2.84654 -2.22833 0
M  V30 608 O 58.4179 2.51912 -3.5843 0
M  V30 609 C 59.9189 3.78807 -2.30261 0
M  V30 610 H 57.1389 0.478353 -0.470553 0
M  V30 611 H 59.6829 0.936381 -1.81803 0
M  V30 612 H 57.8379 3.41965 -1.8204 0
M  V30 613 H 58.2519 3.35325 -4.03308 0
M  V30 614 H 59.7259 4.67045 -2.94233 0
M  V30 615 H 60.2029 4.19038 -1.31545 0
M  V30 616 H 60.8089 3.2742 -2.71433 0
M  V30 617 N 59.124 1.23083 0.984299 0
M  V30 618 C 60.54 0.992637 1.24975 0
M  V30 619 C 60.74 -0.308618 1.99123 0
M  V30 620 O 59.796 -1.02905 2.30579 0
M  V30 621 C 61.109 2.19698 2.05312 0
M  V30 622 C 62.657 2.24147 2.18465 0
M  V30 623 C 63.132 3.44157 3.02192 0
M  V30 624 N 64.623 3.44372 3.09777 0
M  V30 625 C 65.358 4.33886 3.74874 0
M  V30 626 N 64.854 5.3363 4.41827 0
M  V30 627 N 66.647 4.21639 3.71721 0
M  V30 628 H 58.798 2.06731 0.487453 0
M  V30 629 H 61.061 0.906339 0.277944 0
M  V30 630 H 60.767 3.1411 1.58201 0
M  V30 631 H 60.641 2.20465 3.06064 0
M  V30 632 H 63.028 1.30277 2.64786 0
M  V30 633 H 63.109 2.27415 1.17115 0
M  V30 634 H 62.753 4.38332 2.56568 0
M  V30 635 H 62.683 3.3813 4.03702 0
M  V30 636 H 65.174 2.72201 2.62135 0
M  V30 637 H 65.487 5.98196 4.89266 0
M  V30 638 H 63.832 5.37534 4.40548 0
M  V30 639 H 67.023 3.42962 3.18582 0
M  V30 640 H 67.196 4.91604 4.22173 0
M  V30 641 N 60.6021 -1.18246 1.0419 0
M  V30 642 C 61.8481 -1.88536 0.747122 0
M  V30 643 C 62.1811 -1.80223 -0.723409 0
M  V30 644 O 61.4561 -1.20337 -1.52804 0
M  V30 645 C 61.7391 -3.38968 1.21544 0
M  V30 646 C 61.5921 -3.56084 2.74816 0
M  V30 647 C 62.9111 -4.32648 0.806482 0
M  V30 648 H 60.0301 -0.684619 0.272883 0
M  V30 649 H 62.6721 -1.39113 1.29413 0
M  V30 650 H 60.8221 -3.8119 0.750081 0
M  V30 651 H 62.4941 -3.22946 3.29399 0
M  V30 652 H 60.7371 -2.98699 3.14582 0
M  V30 653 H 61.4081 -4.61639 3.02644 0
M  V30 654 H 63.8841 -3.98211 1.20695 0
M  V30 655 H 62.7601 -5.36462 1.1619 0
M  V30 656 H 63.0211 -4.41146 -0.29029 0
M  V30 657 N 62.0802 -0.821533 -1.34494 0
M  V30 658 C 63.0102 -0.257138 -2.3208 0
M  V30 659 C 63.9912 0.625645 -1.58176 0
M  V30 660 O 65.1762 0.552811 -1.86166 0
M  V30 661 C 62.3062 0.582958 -3.42372 0
M  V30 662 C 61.2602 -0.202571 -4.2752 0
M  V30 663 C 60.5862 0.760179 -5.29269 0
M  V30 664 C 61.8862 -1.40998 -5.02908 0
M  V30 665 H 63.5802 -1.07247 -2.79532 0
M  V30 666 H 61.1262 -0.517163 -1.34393 0
M  V30 667 H 63.0792 0.987972 -4.09655 0
M  V30 668 H 61.8032 1.43133 -2.93565 0
M  V30 669 H 60.4622 -0.588936 -3.61838 0
M  V30 670 H 60.1102 1.60447 -4.76724 0
M  V30 671 H 59.8102 0.238809 -5.87115 0
M  V30 672 H 61.3342 1.16308 -5.9942 0
M  V30 673 H 62.7482 -1.07905 -5.63054 0
M  V30 674 H 61.1452 -1.86689 -5.70322 0
M  V30 675 H 62.2152 -2.1889 -4.32684 0
M  V30 676 N 63.5583 1.46682 -0.576371 0
M  V30 677 C 64.5213 2.28707 0.150239 0
M  V30 678 C 65.5213 1.38035 0.824794 0
M  V30 679 O 66.7113 1.60476 0.677719 0
M  V30 680 C 63.8433 3.18248 1.22192 0
M  V30 681 H 65.0363 2.94423 -0.570521 0
M  V30 682 H 62.5893 1.52688 -0.334078 0
M  V30 683 H 63.3243 2.57265 1.97447 0
M  V30 684 H 63.1093 3.85 0.742812 0
M  V30 685 H 64.5993 3.80001 1.73172 0
M  V30 686 N 65.0364 0.313813 1.54444 0
M  V30 687 C 66.2614 -0.296681 2.05267 0
M  V30 688 C 66.6864 -1.45757 1.18897 0
M  V30 689 O 66.0444 -1.80239 0.195886 0
M  V30 690 C 66.0924 -0.71831 3.53373 0
M  V30 691 O 65.1964 -1.82175 3.69981 0
M  V30 692 H 64.5374 -0.0554061 0.661684 0
M  V30 693 H 67.0674 0.459387 1.99376 0
M  V30 694 H 67.0774 -1.00364 3.95463 0
M  V30 695 H 65.7524 0.130821 4.15694 0
M  V30 696 H 64.3294 -1.53598 3.39797 0
M  V30 697 N 66.5145 -1.57545 0.0417849 0
M  V30 698 C 67.4615 -2.10977 -0.935805 0
M  V30 699 C 68.4315 -1.01486 -1.31491 0
M  V30 700 O 69.6165 -1.2898 -1.40602 0
M  V30 701 C 66.7565 -2.65169 -2.2086 0
M  V30 702 C 65.8695 -3.88714 -1.88482 0
M  V30 703 C 65.0045 -4.31254 -3.1015 0
M  V30 704 C 64.0435 -5.47524 -2.7365 0
M  V30 705 N 63.1805 -5.85162 -3.87982 0
M  V30 706 H 68.0205 -2.94218 -0.473249 0
M  V30 707 H 65.5575 -1.45415 -0.221981 0
M  V30 708 H 67.5155 -2.94685 -2.95325 0
M  V30 709 H 66.1455 -1.8474 -2.64709 0
M  V30 710 H 65.1975 -3.65849 -1.04205 0
M  V30 711 H 66.5095 -4.73245 -1.57608 0
M  V30 712 H 65.6635 -4.62273 -3.92923 0
M  V30 713 H 64.4025 -3.45516 -3.44195 0
M  V30 714 H 63.4075 -5.16187 -1.89291 0
M  V30 715 H 64.6325 -6.34971 -2.40807 0
M  V30 716 H 62.5785 -5.02377 -4.21846 0
M  V30 717 H 62.4955 -6.64362 -3.60775 0
M  V30 718 H 63.7635 -6.20791 -4.71422 0
M  V30 719 N 67.9926 0.231505 -1.5589 0
M  V30 720 C 69.2206 0.974505 -1.82513 0
M  V30 721 C 69.6356 1.78344 -0.619591 0
M  V30 722 O 68.9926 1.77792 0.411848 0
M  V30 723 C 69.0436 1.90007 -3.07538 0
M  V30 724 O 68.7646 1.12385 -4.2344 0
M  V30 725 C 70.2656 2.75779 -3.47075 0
M  V30 726 H 67.4856 0.286065 -0.606966 0
M  V30 727 H 70.0296 0.249739 -2.02969 0
M  V30 728 H 68.1846 2.57891 -2.89086 0
M  V30 729 H 68.5986 1.75125 -4.944 0
M  V30 730 H 70.0726 3.36443 -4.37619 0
M  V30 731 H 70.5496 3.47672 -2.68367 0
M  V30 732 H 71.1556 2.13323 -3.67931 0
M  V30 733 N 69.4707 1.49531 0.497807 0
M  V30 734 C 70.4337 1.65916 1.58128 0
M  V30 735 C 71.4337 0.530825 1.51786 0
M  V30 736 O 72.6237 0.797342 1.54881 0
M  V30 737 C 69.7557 1.65951 2.9778 0
M  V30 738 H 70.9487 2.62556 1.44929 0
M  V30 739 H 68.5017 1.38611 0.722275 0
M  V30 740 H 69.2367 0.709065 3.16453 0
M  V30 741 H 69.0217 2.47897 3.03792 0
M  V30 742 H 70.5117 1.80673 3.76493 0
M  V30 743 N 70.9488 -0.749086 1.3866 0
M  V30 744 C 72.3648 -1.05276 1.19955 0
M  V30 745 C 72.5648 -2.01435 0.05134 0
M  V30 746 O 71.6208 -2.45232 -0.60147 0
M  V30 747 C 72.9338 -1.62853 2.52783 0
M  V30 748 C 74.4818 -1.75002 2.59506 0
M  V30 749 C 74.9568 -2.35991 3.92521 0
M  V30 750 N 76.4478 -2.43416 3.94085 0
M  V30 751 C 77.1828 -2.91511 4.9377 0
M  V30 752 N 76.6788 -3.39608 6.03853 0
M  V30 753 N 78.4718 -2.90592 4.81157 0
M  V30 754 H 70.6228 -0.111066 2.12109 0
M  V30 755 H 72.8858 -0.111901 0.941373 0
M  V30 756 H 72.5918 -0.99664 3.37283 0
M  V30 757 H 72.4658 -2.61854 2.715 0
M  V30 758 H 74.8528 -2.37317 1.75398 0
M  V30 759 H 74.9338 -0.74693 2.44652 0
M  V30 760 H 74.5778 -1.74308 4.77053 0
M  V30 761 H 74.5078 -3.3695 4.04688 0
M  V30 762 H 76.9988 -2.09405 3.14576 0
M  V30 763 H 77.3118 -3.74775 6.75843 0
M  V30 764 H 75.6568 -3.37653 6.07466 0
M  V30 765 H 78.8478 -2.52332 3.94267 0
M  V30 766 H 79.0208 -3.27762 5.58996 0
M  V30 767 N 72.4269 -1.23603 -0.977757 0
M  V30 768 C 73.8429 -0.999251 -1.24447 0
M  V30 769 C 74.0429 0.298053 -1.99283 0
M  V30 770 O 73.0989 1.01681 -2.31122 0
M  V30 771 C 74.4119 -2.20784 -2.04144 0
M  V30 772 C 75.9599 -2.25303 -2.17273 0
M  V30 773 C 76.4349 -3.45755 -3.00362 0
M  V30 774 N 77.9259 -3.4601 -3.07947 0
M  V30 775 C 78.6609 -4.35868 -3.72568 0
M  V30 776 N 78.1569 -5.35966 -4.38991 0
M  V30 777 N 79.9499 -4.23605 -3.6948 0
M  V30 778 H 72.1009 -2.06986 -0.476483 0
M  V30 779 H 74.3639 -0.907801 -0.273134 0
M  V30 780 H 74.0699 -3.14945 -1.56533 0
M  V30 781 H 73.9439 -2.22085 -3.04891 0
M  V30 782 H 76.3309 -1.3168 -2.64092 0
M  V30 783 H 76.4119 -2.28033 -1.15907 0
M  V30 784 H 76.0559 -4.39687 -2.5424 0
M  V30 785 H 75.9859 -3.40266 -4.01904 0
M  V30 786 H 78.4769 -2.73588 -2.60688 0
M  V30 787 H 78.7899 -6.00783 -4.86086 0
M  V30 788 H 77.1349 -5.39863 -4.37691 0
M  V30 789 H 80.3259 -3.44647 -3.16759 0
M  V30 790 H 80.4989 -4.93836 -4.1956 0
M  V30 791 N 73.905 1.17692 -1.04816 0
M  V30 792 C 75.154 1.87192 -0.751132 0
M  V30 793 C 75.467 1.8169 0.724441 0
M  V30 794 O 76.673 2.46625 1.13527 0
M  V30 795 C 75.129 3.35857 -1.29338 0
M  V30 796 C 74.737 3.4987 -2.79812 0
M  V30 797 C 76.481 4.10709 -1.07322 0
M  V30 798 C 74.388 4.92536 -3.27356 0
M  V30 799 H 73.318 0.701162 -0.277288 0
M  V30 800 H 75.969 1.32932 -1.26496 0
M  V30 801 H 74.351 3.89631 -0.707376 0
M  V30 802 H 75.525 3.06332 -3.44235 0
M  V30 803 H 73.84 2.88433 -3.00325 0
M  V30 804 H 76.437 5.15952 -1.4035 0
M  V30 805 H 76.78 4.16299 -0.0108001 0
M  V30 806 H 77.313 3.6313 -1.62423 0
M  V30 807 H 74.052 4.92119 -4.33012 0
M  V30 808 H 73.572 5.3676 -2.67673 0
M  V30 809 H 75.251 5.61288 -3.21815 0
M  V30 810 N 75.3831 0.828654 1.34056 0
M  V30 811 C 76.6301 0.419458 1.98108 0
M  V30 812 C 76.9581 -1.01886 1.65679 0
M  V30 813 O 76.2131 -1.72539 0.923512 0
M  V30 814 C 76.5121 0.575226 3.52741 0
M  V30 815 C 76.1781 1.98012 4.05095 0
M  V30 816 C 74.8401 2.36442 4.19104 0
M  V30 817 C 77.1921 2.89824 4.33188 0
M  V30 818 C 74.5201 3.66009 4.58535 0
M  V30 819 C 76.8721 4.1886 4.74066 0
M  V30 820 C 75.5361 4.5726 4.86281 0
M  V30 821 H 74.8061 0.153491 0.724929 0
M  V30 822 H 77.4531 1.05371 1.59904 0
M  V30 823 H 75.7581 -0.142385 3.91541 0
M  V30 824 H 77.4551 0.239057 4.00287 0
M  V30 825 H 74.0451 1.67162 3.94658 0
M  V30 826 H 78.2291 2.61375 4.21897 0
M  V30 827 H 73.4851 3.95579 4.66184 0
M  V30 828 H 77.6591 4.90086 4.94761 0
M  V30 829 H 75.2861 5.57707 5.16592 0
M  V30 830 N 76.8612 -1.46375 0.584142 0
M  V30 831 C 77.7932 -2.28443 -0.186119 0
M  V30 832 C 78.8062 -1.38596 -0.854115 0
M  V30 833 O 79.9952 -1.63183 -0.723438 0
M  V30 834 C 77.0952 -3.13671 -1.28311 0
M  V30 835 C 76.2682 -4.31652 -0.706758 0
M  V30 836 C 75.3272 -4.98267 -1.69163 0
M  V30 837 O 74.3532 -5.55815 -1.22712 0
M  V30 838 N 75.5552 -4.95408 -3.02575 0
M  V30 839 H 78.3202 -2.9519 0.517986 0
M  V30 840 H 75.8812 -1.56303 0.42201 0
M  V30 841 H 77.8732 -3.55101 -1.94128 0
M  V30 842 H 76.4432 -2.48989 -1.89005 0
M  V30 843 H 75.6632 -3.93989 0.128908 0
M  V30 844 H 76.9512 -5.07906 -0.301506 0
M  V30 845 H 76.3492 -4.49902 -3.42936 0
M  V30 846 H 74.9062 -5.40774 -3.63877 0
M  V30 847 N 78.3393 -0.321999 -1.54275 0
M  V30 848 C 79.2493 0.553631 -2.27974 0
M  V30 849 C 80.2653 1.13054 -1.32268 0
M  V30 850 O 81.4413 1.15084 -1.6528 0
M  V30 851 C 78.5063 1.69927 -3.02201 0
M  V30 852 C 77.5673 1.15433 -4.1349 0
M  V30 853 C 76.8003 2.24537 -4.84168 0
M  V30 854 O 77.0233 3.44852 -4.5435 0
M  V30 855 O 75.9573 1.90044 -5.7111 0
M  V30 856 H 79.7833 -0.0448345 -3.03667 0
M  V30 857 H 77.3683 -0.0877418 -1.49142 0
M  V30 858 H 79.2503 2.3663 -3.48689 0
M  V30 859 H 77.9253 2.28395 -2.29385 0
M  V30 860 H 76.8323 0.452436 -3.71354 0
M  V30 861 H 78.1653 0.614805 -4.88345 0
M  V30 862 N 79.8174 1.5752 -0.0501392 0
M  V30 863 C 81.2284 1.80271 0.485705 0
M  V30 864 C 81.5794 0.96228 1.70981 0
M  V30 865 O 80.7044 0.178578 2.15662 0
M  V30 866 C 81.2994 3.26957 0.887938 0
M  V30 867 C 79.8584 3.5063 1.36877 0
M  V30 868 C 79.0054 2.75165 0.343468 0
M  V30 869 H 81.9564 1.56281 -0.276028 0
M  V30 870 H 81.9774 3.37821 1.75093 0
M  V30 871 H 81.4894 3.881 -0.0031809 0
M  V30 872 H 79.5904 2.94766 2.27911 0
M  V30 873 H 79.7034 4.59343 1.36164 0
M  V30 874 H 78.0674 2.4127 0.816128 0
M  V30 875 H 78.8504 3.39034 -0.539548 0
M  V30 876 N 81.2955 -0.223234 1.56011 0
M  V30 877 C 82.5235 -0.964812 1.83027 0
M  V30 878 C 82.9385 -1.78013 0.62904 0
M  V30 879 O 82.2955 -1.78008 -0.402414 0
M  V30 880 C 82.3465 -1.88373 3.08542 0
M  V30 881 O 82.0675 -1.10137 4.2403 0
M  V30 882 C 83.5685 -2.73934 3.48533 0
M  V30 883 H 80.7885 -0.282842 0.608475 0
M  V30 884 H 83.3325 -0.238971 2.03099 0
M  V30 885 H 81.4875 -2.56354 2.9045 0
M  V30 886 H 81.9015 -1.72501 4.95322 0
M  V30 887 H 83.3755 -3.34117 4.39397 0
M  V30 888 H 83.8525 -3.46244 2.70207 0
M  V30 889 H 84.4585 -2.11369 3.69057 0
M  V30 890 N 82.7736 -1.49793 -0.48987 0
M  V30 891 C 83.6836 -1.70036 -1.61632 0
M  V30 892 C 84.6996 -0.583102 -1.63939 0
M  V30 893 O 85.8756 -0.859169 -1.82154 0
M  V30 894 C 82.9406 -1.77277 -2.97949 0
M  V30 895 C 82.0016 -3.00918 -3.06181 0
M  V30 896 C 81.2346 -3.07804 -4.35996 0
M  V30 897 O 81.4576 -2.21982 -5.25433 0
M  V30 898 O 80.3916 -4.00369 -4.49431 0
M  V30 899 H 84.2176 -2.65486 -1.47482 0
M  V30 900 H 81.8026 -1.33666 -0.667362 0
M  V30 901 H 83.6846 -1.84329 -3.78947 0
M  V30 902 H 82.3596 -0.850076 -3.12339 0
M  V30 903 H 81.2666 -2.99377 -2.2433 0
M  V30 904 H 82.5996 -3.92704 -2.96723 0
M  V30 905 N 84.2517 0.741722 -1.39055 0
M  V30 906 C 85.6627 1.31966 -1.32068 0
M  V30 907 C 86.0137 1.96192 0.0180797 0
M  V30 908 O 85.1387 1.95861 0.920196 0
M  V30 909 C 85.7337 2.39954 -2.39181 0
M  V30 910 C 84.2927 2.93438 -2.35735 0
M  V30 911 C 83.4397 1.66936 -2.21422 0
M  V30 912 H 86.3907 0.539721 -1.4924 0
M  V30 913 H 86.4117 3.20182 -2.05581 0
M  V30 914 H 85.9237 1.9318 -3.36605 0
M  V30 915 H 84.0247 3.4451 -1.41929 0
M  V30 916 H 84.1377 3.4701 -3.30335 0
M  V30 917 H 82.5017 1.91016 -1.68478 0
M  V30 918 H 83.2847 1.22224 -3.20806 0
M  V30 919 N 85.7298 1.2412 0.971189 0
M  V30 920 C 86.6768 1.0305 2.06517 0
M  V30 921 C 87.6468 -0.0550666 1.66009 0
M  V30 922 O 88.8318 0.0988688 1.90544 0
M  V30 923 C 85.9718 0.637653 3.39158 0
M  V30 924 C 85.0848 1.79633 3.92882 0
M  V30 925 C 84.2198 1.34939 5.13775 0
M  V30 926 C 83.2588 2.47823 5.59687 0
M  V30 927 N 82.3958 2.04022 6.71803 0
M  V30 928 H 87.2358 1.96685 2.23873 0
M  V30 929 H 84.7728 0.979694 1.09729 0
M  V30 930 H 86.7308 0.390931 4.15364 0
M  V30 931 H 85.3608 -0.261693 3.21737 0
M  V30 932 H 84.4128 2.15681 3.13346 0
M  V30 933 H 85.7248 2.64466 4.22918 0
M  V30 934 H 84.8788 1.06134 5.97345 0
M  V30 935 H 83.6178 0.471557 4.85415 0
M  V30 936 H 82.6228 2.77392 4.74693 0
M  V30 937 H 83.8478 3.36158 5.90063 0
M  V30 938 H 81.7938 1.18632 6.45184 0
M  V30 939 H 81.7108 2.82409 7.01271 0
M  V30 940 H 82.9788 1.78347 7.58823 0
M  V30 941 N 87.2079 -1.17134 1.05439 0
M  V30 942 C 88.4359 -1.91372 0.786414 0
M  V30 943 C 88.8509 -1.76955 -0.658202 0
M  V30 944 O 88.2079 -1.10838 -1.44987 0
M  V30 945 C 88.2589 -3.42356 1.1608 0
M  V30 946 O 87.9799 -3.56332 2.54871 0
M  V30 947 C 89.4809 -4.33663 0.919322 0
M  V30 948 H 86.7009 -0.607118 0.285743 0
M  V30 949 H 89.2449 -1.48525 1.40572 0
M  V30 950 H 87.3999 -3.82939 0.586191 0
M  V30 951 H 87.8139 -4.49896 2.69618 0
M  V30 952 H 89.2879 -5.38099 1.231 0
M  V30 953 H 89.7649 -4.38959 -0.145359 0
M  V30 954 H 90.3709 -3.98796 1.47789 0
M  V30 955 N 88.686 -0.835752 -1.33615 0
M  V30 956 C 89.633 -0.26473 -2.29277 0
M  V30 957 C 90.603 0.617712 -1.54187 0
M  V30 958 O 91.788 0.556641 -1.825 0
M  V30 959 C 88.928 0.556777 -3.40579 0
M  V30 960 C 88.041 -0.349339 -4.30585 0
M  V30 961 C 87.176 0.482969 -5.29 0
M  V30 962 C 86.215 -0.421732 -6.10645 0
M  V30 963 N 85.352 0.372262 -7.01112 0
M  V30 964 H 90.192 -1.08582 -2.77514 0
M  V30 965 H 87.729 -0.546927 -1.36554 0
M  V30 966 H 89.687 1.04852 -4.03809 0
M  V30 967 H 88.317 1.34286 -2.93542 0
M  V30 968 H 87.369 -0.959372 -3.68104 0
M  V30 969 H 88.681 -1.04445 -4.87742 0
M  V30 970 H 87.835 1.03866 -5.97743 0
M  V30 971 H 86.574 1.21153 -4.72412 0
M  V30 972 H 85.579 -0.989464 -5.40823 0
M  V30 973 H 86.804 -1.14861 -6.69316 0
M  V30 974 H 84.75 1.08426 -6.46977 0
M  V30 975 H 84.667 -0.264198 -7.55538 0
M  V30 976 H 85.935 0.910293 -7.74167 0
M  V30 977 N 90.1641 1.46063 -0.591896 0
M  V30 978 C 91.1271 2.28854 0.125973 0
M  V30 979 C 92.1271 1.38903 0.810107 0
M  V30 980 O 93.3171 1.61186 0.66066 0
M  V30 981 C 90.4491 3.19526 1.1881 0
M  V30 982 H 91.6421 2.93802 -0.601717 0
M  V30 983 H 89.1951 1.52325 -0.350254 0
M  V30 984 H 89.9301 2.59345 1.94707 0
M  V30 985 H 89.7151 3.85766 0.701936 0
M  V30 986 H 91.2051 3.81817 1.69132 0
M  V30 987 N 91.6422 0.330177 1.54103 0
M  V30 988 C 92.6052 -0.520144 2.2322 0
M  V30 989 C 93.6052 -1.03828 1.22786 0
M  V30 990 O 94.7952 -0.929652 1.4732 0
M  V30 991 C 91.9272 -1.72317 2.94142 0
M  V30 992 H 93.1202 0.0841605 2.99782 0
M  V30 993 H 90.6732 0.0813433 1.56088 0
M  V30 994 H 91.4082 -2.36653 2.21734 0
M  V30 995 H 91.1932 -1.35898 3.67796 0
M  V30 996 H 92.6832 -2.3266 3.46784 0
M  V30 997 N 93.1203 -1.57491 0.0584922 0
M  V30 998 C 94.0833 -2.1085 -0.898617 0
M  V30 999 C 95.0833 -1.02964 -1.23511 0
M  V30 1000 O 96.2733 -1.29007 -1.17059 0
M  V30 1001 C 93.4053 -2.59881 -2.20623 0
M  V30 1002 H 94.5983 -2.96715 -0.435936 0
M  V30 1003 H 92.1513 -1.55141 -0.190023 0
M  V30 1004 H 92.8863 -1.77431 -2.71457 0
M  V30 1005 H 92.6713 -3.38727 -1.97501 0
M  V30 1006 H 94.1613 -3.01285 -2.89166 0
M  V30 1007 N 94.5984 0.214957 -1.56127 0
M  V30 1008 C 96.0094 0.781386 -1.69562 0
M  V30 1009 C 96.3604 1.84707 -0.66165 0
M  V30 1010 O 95.4854 2.156 0.185927 0
M  V30 1011 C 96.0804 1.42411 -3.07416 0
M  V30 1012 C 94.6394 1.93786 -3.22683 0
M  V30 1013 C 93.7864 0.800438 -2.65496 0
M  V30 1014 H 96.7374 -0.00980633 -1.58697 0
M  V30 1015 H 96.7584 2.29309 -3.0364 0
M  V30 1016 H 96.2704 0.64826 -3.82648 0
M  V30 1017 H 94.3714 2.74152 -2.52332 0
M  V30 1018 H 94.4844 2.1133 -4.29973 0
M  V30 1019 H 92.8484 1.2095 -2.2415 0
M  V30 1020 H 93.6314 0.0371471 -3.4328 0
M  V30 1021 N 96.0765 1.50051 0.48192 0
M  V30 1022 C 97.3245 1.60181 1.23234 0
M  V30 1023 C 97.6455 0.299176 1.92691 0
M  V30 1024 O 96.9155 -0.682708 1.83619 0
M  V30 1025 H 95.4955 0.590232 0.457859 0
M  V30 1026 H 98.1575 1.86775 0.556881 0
M  V30 1027 H 97.2535 2.40753 1.98607 0
M  V30 1028 N 97.5546 -0.734337 1.39446 0
M  V30 1029 C 98.8006 -1.49613 1.36908 0
M  V30 1030 C 99.1336 -1.94169 -0.0347829 0
M  V30 1031 O 98.4086 -1.66833 -0.999847 0
M  V30 1032 C 98.6916 -2.73534 2.34203 0
M  V30 1033 C 98.5446 -2.34993 3.83534 0
M  V30 1034 C 99.8636 -3.75635 2.29317 0
M  V30 1035 H 96.9826 -0.542714 0.498629 0
M  V30 1036 H 99.6246 -0.839597 1.70443 0
M  V30 1037 H 97.7746 -3.29553 2.05736 0
M  V30 1038 H 99.4466 -1.84601 4.22753 0
M  V30 1039 H 97.6896 -1.67213 4.00278 0
M  V30 1040 H 98.3606 -3.23738 4.47099 0
M  V30 1041 H 100.837 -3.29203 2.54489 0
M  V30 1042 H 99.7126 -4.60008 2.99472 0
M  V30 1043 H 99.9736 -4.22603 1.29842 0
M  V30 1044 N 99.0327 -1.24633 -0.964593 0
M  V30 1045 C 99.9427 -1.05859 -2.09359 0
M  V30 1046 C 100.959 0.00148855 -1.74 0
M  V30 1047 O 102.135 -0.197346 -2.00431 0
M  V30 1048 C 99.1997 -0.668879 -3.40187 0
M  V30 1049 C 98.2607 -1.80578 -3.89474 0
M  V30 1050 C 97.4937 -1.43457 -5.14058 0
M  V30 1051 O 97.7167 -0.325775 -5.69469 0
M  V30 1052 O 96.6507 -2.2613 -5.57807 0
M  V30 1053 H 100.477 -2.00516 -2.28094 0
M  V30 1054 H 98.0617 -1.03481 -1.0776 0
M  V30 1055 H 99.9437 -0.463211 -4.18846 0
M  V30 1056 H 98.6187 0.248536 -3.22744 0
M  V30 1057 H 97.5257 -2.06623 -3.11862 0
M  V30 1058 H 98.8587 -2.70208 -4.11398 0
M  V30 1059 N 100.511 1.16574 -1.06058 0
M  V30 1060 C 101.788 1.83048 -0.689416 0
M  V30 1061 C 102.168 1.94122 0.829443 0
M  V30 1062 O 101.516 1.48249 1.7388 0
M  V30 1063 C 101.726 3.20186 -1.38859 0
M  V30 1064 C 103.074 3.95989 -1.53226 0
M  V30 1065 O 104.098 3.29696 -1.3483 0
M  V30 1066 O 102.957 5.14813 -1.83384 0
M  V30 1067 H 100.051 0.790258 -0.243764 0
M  V30 1068 H 102.597 1.23797 -1.16071 0
M  V30 1069 H 101.369 3.07146 -2.4244 0
M  V30 1070 H 100.992 3.87112 -0.907216 0
M  V30 1071 N 101.989 0.842826 1.3317 0
M  V30 1072 C 102.899 0.281444 2.32906 0
M  V30 1073 C 103.915 -0.594587 1.63526 0
M  V30 1074 O 105.091 -0.49777 1.95152 0
M  V30 1075 C 102.156 -0.530929 3.42611 0
M  V30 1076 C 101.217 0.369843 4.27704 0
M  V30 1077 C 100.45 -0.403853 5.3217 0
M  V30 1078 O 100.673 -1.63513 5.46461 0
M  V30 1079 O 99.6069 0.224199 6.01482 0
M  V30 1080 H 103.433 1.10744 2.82789 0
M  V30 1081 H 101.018 0.60545 1.36582 0
M  V30 1082 H 102.9 -0.992437 4.09547 0
M  V30 1083 H 101.575 -1.33392 2.94938 0
M  V30 1084 H 100.482 0.879275 3.6362 0
M  V30 1085 H 101.815 1.13771 4.78871 0
M  V30 1086 N 103.467 -1.45747 0.599634 0
M  V30 1087 C 104.878 -1.85853 0.177681 0
M  V30 1088 C 105.229 -1.50102 -1.26348 0
M  V30 1089 O 104.354 -0.923905 -1.95686 0
M  V30 1090 C 104.949 -3.37326 0.315688 0
M  V30 1091 C 103.508 -3.76365 -0.0515144 0
M  V30 1092 C 102.655 -2.69722 0.643822 0
M  V30 1093 H 105.606 -1.36661 0.806814 0
M  V30 1094 H 105.627 -3.77778 -0.454321 0
M  V30 1095 H 105.139 -3.63315 1.36468 0
M  V30 1096 H 103.24 -3.55993 -1.09999 0
M  V30 1097 H 103.353 -4.77916 0.336594 0
M  V30 1098 H 101.717 -2.54567 0.0822881 0
M  V30 1099 H 102.5 -2.98549 1.6948 0
M  V30 1100 N 104.945 -0.338344 -1.53925 0
M  V30 1101 C 105.875 0.51328 -2.27789 0
M  V30 1102 C 106.856 1.107 -1.29149 0
M  V30 1103 O 108.041 1.12937 -1.57984 0
M  V30 1104 C 105.171 1.66697 -3.04679 0
M  V30 1105 C 104.125 1.20183 -4.1078 0
M  V30 1106 C 103.451 2.44363 -4.75595 0
M  V30 1107 C 104.751 0.30605 -5.21403 0
M  V30 1108 H 106.445 -0.102883 -2.99223 0
M  V30 1109 H 103.991 -0.0509219 -1.4391 0
M  V30 1110 H 105.944 2.26915 -3.55088 0
M  V30 1111 H 104.668 2.30995 -2.30887 0
M  V30 1112 H 103.327 0.622499 -3.61276 0
M  V30 1113 H 102.975 3.07057 -3.98403 0
M  V30 1114 H 102.675 2.13925 -5.47275 0
M  V30 1115 H 104.199 3.05317 -5.28786 0
M  V30 1116 H 105.613 0.814929 -5.67478 0
M  V30 1117 H 104.01 0.0937929 -6.00027 0
M  V30 1118 H 105.08 -0.65921 -4.80398 0
M  V30 1119 N 106.423 1.57458 -0.0668435 0
M  V30 1120 C 107.353 2.15468 0.899764 0
M  V30 1121 C 108.334 1.08042 1.31381 0
M  V30 1122 O 109.519 1.36054 1.38574 0
M  V30 1123 C 106.649 2.71232 2.16911 0
M  V30 1124 C 105.603 3.83781 1.89463 0
M  V30 1125 C 104.929 4.26127 3.22986 0
M  V30 1126 C 106.229 5.08238 1.20381 0
M  V30 1127 H 107.923 2.96488 0.416529 0
M  V30 1128 H 105.469 1.4262 0.198908 0
M  V30 1129 H 107.422 3.10458 2.84945 0
M  V30 1130 H 106.146 1.87426 2.67468 0
M  V30 1131 H 104.805 3.45051 1.23836 0
M  V30 1132 H 104.453 3.39249 3.71374 0
M  V30 1133 H 104.153 5.01993 3.05413 0
M  V30 1134 H 105.677 4.67966 3.92225 0
M  V30 1135 H 107.091 5.44811 1.78475 0
M  V30 1136 H 105.488 5.89349 1.13083 0
M  V30 1137 H 106.558 4.84558 0.182153 0
M  V30 1138 N 107.901 -0.206675 1.56239 0
M  V30 1139 C 109.317 -0.557025 1.49564 0
M  V30 1140 C 109.517 -1.86424 0.764735 0
M  V30 1141 O 108.573 -2.50584 0.310491 0
M  V30 1142 C 109.886 -0.622478 2.94186 0
M  V30 1143 C 111.434 -0.712099 3.04792 0
M  V30 1144 C 111.909 -0.808767 4.50803 0
M  V30 1145 N 113.4 -0.8726 4.54907 0
M  V30 1146 C 114.135 -0.967365 5.65181 0
M  V30 1147 N 113.631 -1.02515 6.85173 0
M  V30 1148 N 115.424 -1.00366 5.53067 0
M  V30 1149 H 107.575 0.650943 2.02179 0
M  V30 1150 H 109.838 0.230387 0.919579 0
M  V30 1151 H 109.544 0.268727 3.50672 0
M  V30 1152 H 109.418 -1.4811 3.46905 0
M  V30 1153 H 111.805 -1.59374 2.48363 0
M  V30 1154 H 111.886 0.172489 2.55218 0
M  V30 1155 H 111.53 0.0684754 5.07854 0
M  V30 1156 H 111.46 -1.70899 4.98098 0
M  V30 1157 H 113.951 -0.837657 3.68499 0
M  V30 1158 H 114.264 -1.09765 7.64965 0
M  V30 1159 H 112.609 -0.994026 6.87855 0
M  V30 1160 H 115.8 -0.95527 4.58249 0
M  V30 1161 H 115.973 -1.07405 6.39037 0
M  V30 1162 N 109.379 -1.50304 -0.473955 0
M  V30 1163 C 110.289 -1.7174 -1.5982 0
M  V30 1164 C 111.305 -0.600457 -1.63311 0
M  V30 1165 O 112.481 -0.878441 -1.81233 0
M  V30 1166 C 109.546 -1.80427 -2.96052 0
M  V30 1167 C 108.607 -3.04148 -3.02972 0
M  V30 1168 C 107.84 -3.12411 -4.32706 0
M  V30 1169 O 108.063 -2.27542 -5.23049 0
M  V30 1170 O 106.997 -4.05113 -4.45159 0
M  V30 1171 H 110.823 -2.67035 -1.44657 0
M  V30 1172 H 108.408 -1.34366 -0.653148 0
M  V30 1173 H 110.29 -1.88338 -3.7697 0
M  V30 1174 H 108.965 -0.883156 -3.11419 0
M  V30 1175 H 107.872 -3.0174 -2.21142 0
M  V30 1176 H 109.205 -3.95829 -2.92541 0
M  V30 1177 N 110.857 0.726932 -1.39834 0
M  V30 1178 C 111.805 1.86235 -1.39353 0
M  V30 1179 C 112.799 1.67144 -0.275555 0
M  V30 1180 O 114.005 1.74387 -0.44601 0
M  V30 1181 H 110.38 0.613174 -0.43534 0
M  V30 1182 H 112.351 1.83756 -2.35109 0
M  V30 1183 C 111.1 3.23995 -1.26185 0
M  V30 1184 H 110.423 3.39285 -2.11484 0
M  V30 1185 H 111.863 4.03609 -1.29907 0
M  V30 1186 C 110.322 3.36888 0.0290018 0
M  V30 1187 O 110.852 3.89152 0.99619 0
M  V30 1188 N 109.058 2.90446 0.0947437 0
M  V30 1189 H 108.605 2.48102 -0.693035 0
M  V30 1190 H 108.563 2.99451 0.957932 0
M  V30 1191 N 112.336 1.25143 0.95797 0
M  V30 1192 C 113.747 1.08851 1.51685 0
M  V30 1193 C 114.098 -0.33687 1.93286 0
M  V30 1194 O 113.223 -1.22644 1.7829 0
M  V30 1195 C 113.818 1.96978 2.75654 0
M  V30 1196 C 112.377 1.84881 3.27866 0
M  V30 1197 C 111.524 1.91329 2.0072 0
M  V30 1198 H 114.475 1.38478 0.77522 0
M  V30 1199 H 114.496 1.5078 3.4935 0
M  V30 1200 H 114.008 3.00712 2.45345 0
M  V30 1201 H 112.109 0.840182 3.63004 0
M  V30 1202 H 112.222 2.6951 3.96107 0
M  V30 1203 H 110.586 1.35174 2.15871 0
M  V30 1204 H 111.369 2.96661 1.72764 0
M  V30 1205 N 113.814 -1.1601 1.06675 0
M  V30 1206 C 115.23 -1.38622 0.790948 0
M  V30 1207 C 115.43 -1.92109 -0.607965 0
M  V30 1208 O 114.486 -2.12239 -1.36787 0
M  V30 1209 C 115.799 -2.36347 1.85905 0
M  V30 1210 C 117.347 -2.50023 1.88301 0
M  V30 1211 C 117.822 -3.51033 2.94176 0
M  V30 1212 N 119.313 -3.58563 2.93235 0
M  V30 1213 C 120.048 -4.36521 3.71803 0
M  V30 1214 N 119.544 -5.17869 4.602 0
M  V30 1215 N 121.337 -4.31541 3.60178 0
M  V30 1216 H 113.488 -0.796294 1.96908 0
M  V30 1217 H 115.751 -0.412597 0.853503 0
M  V30 1218 H 115.457 -2.04147 2.86386 0
M  V30 1219 H 115.331 -3.36042 1.71334 0
M  V30 1220 H 117.718 -2.81524 0.884769 0
M  V30 1221 H 117.799 -1.5035 2.06951 0
M  V30 1222 H 117.443 -3.20268 3.94196 0
M  V30 1223 H 117.373 -4.50445 2.72776 0
M  V30 1224 H 119.864 -3.00496 2.29152 0
M  V30 1225 H 120.177 -5.74578 5.16797 0
M  V30 1226 H 118.522 -5.17199 4.64253 0
M  V30 1227 H 121.713 -3.67051 2.90502 0
M  V30 1228 H 121.886 -4.9205 4.21653 0
M  V30 1229 N 115.292 -0.849877 -1.32721 0
M  V30 1230 C 116.708 -0.539102 -1.50219 0
M  V30 1231 C 116.908 0.931271 -1.78689 0
M  V30 1232 O 115.964 1.71455 -1.85363 0
M  V30 1233 C 117.277 -1.42196 -2.64954 0
M  V30 1234 C 118.825 -1.42189 -2.78839 0
M  V30 1235 C 119.3 -2.28985 -3.96648 0
M  V30 1236 N 120.791 -2.26754 -4.03902 0
M  V30 1237 C 121.526 -2.90644 -4.94281 0
M  V30 1238 N 121.022 -3.63629 -5.897 0
M  V30 1239 N 122.815 -2.80057 -4.87365 0
M  V30 1240 H 114.966 -1.80156 -1.12506 0
M  V30 1241 H 117.229 -0.769217 -0.554085 0
M  V30 1242 H 116.935 -2.46733 -2.50631 0
M  V30 1243 H 116.809 -1.10591 -3.60624 0
M  V30 1244 H 119.196 -0.38419 -2.92588 0
M  V30 1245 H 119.277 -1.77807 -1.83898 0
M  V30 1246 H 118.921 -3.32819 -3.83658 0
M  V30 1247 H 118.851 -1.90702 -4.90857 0
M  V30 1248 H 121.342 -1.73688 -3.3562 0
M  V30 1249 H 121.655 -4.09558 -6.55349 0
M  V30 1250 H 120 -3.67737 -5.89741 0
M  V30 1251 H 123.191 -2.22593 -4.11789 0
M  V30 1252 H 123.364 -3.30132 -5.57599 0
M  V30 1253 N 116.77 1.45427 -0.607355 0
M  V30 1254 C 118.017 2.02241 -0.102455 0
M  V30 1255 C 118.345 1.4758 1.26691 0
M  V30 1256 O 117.6 0.640468 1.84923 0
M  V30 1257 C 117.899 3.57398 -0.0129263 0
M  V30 1258 C 117.565 4.3121 -1.31792 0
M  V30 1259 C 116.227 4.51092 -1.67539 0
M  V30 1260 C 118.579 4.73401 -2.18039 0
M  V30 1261 C 115.907 5.10422 -2.89285 0
M  V30 1262 C 118.259 5.34078 -3.39034 0
M  V30 1263 C 116.923 5.52184 -3.75033 0
M  V30 1264 H 116.193 0.740051 -0.037491 0
M  V30 1265 H 118.84 1.74494 -0.788926 0
M  V30 1266 H 117.145 3.84421 0.756806 0
M  V30 1267 H 118.842 3.99061 0.393881 0
M  V30 1268 H 115.432 4.16047 -1.02968 0
M  V30 1269 H 119.616 4.57774 -1.91721 0
M  V30 1270 H 114.872 5.22629 -3.17283 0
M  V30 1271 H 119.046 5.65724 -4.06115 0
M  V30 1272 H 116.673 5.97925 -4.69457 0
M  V30 1273 N 118.248 0.346503 1.53744 0
M  V30 1274 C 119.494 -0.249473 2.0126 0
M  V30 1275 C 119.827 -1.49965 1.23386 0
M  V30 1276 O 119.102 -1.91811 0.32229 0
M  V30 1277 C 119.385 -0.560643 3.55709 0
M  V30 1278 C 119.238 0.701836 4.44291 0
M  V30 1279 C 120.557 -1.36905 4.18264 0
M  V30 1280 H 117.676 -0.0891987 0.731582 0
M  V30 1281 H 120.318 0.467624 1.84156 0
M  V30 1282 H 118.468 -1.17156 3.70414 0
M  V30 1283 H 120.14 1.33974 4.41417 0
M  V30 1284 H 118.383 1.32612 4.13033 0
M  V30 1285 H 119.054 0.43933 5.50249 0
M  V30 1286 H 121.53 -0.852448 4.07275 0
M  V30 1287 H 120.406 -1.55553 5.26398 0
M  V30 1288 H 120.667 -2.37203 3.73078 0
M  V30 1289 N 119.726 -1.57421 0.075193 0
M  V30 1290 C 120.975 -1.92794 -0.592731 0
M  V30 1291 C 121.288 -0.957478 -1.70563 0
M  V30 1292 O 122.494 -1.20417 -2.43335 0
M  V30 1293 C 120.95 -3.42495 -1.10569 0
M  V30 1294 C 120.558 -4.47994 -0.0236121 0
M  V30 1295 C 122.302 -3.86864 -1.74748 0
M  V30 1296 C 120.209 -5.88829 -0.550803 0
M  V30 1297 H 119.139 -0.719591 -0.225177 0
M  V30 1298 H 121.79 -1.82902 0.147978 0
M  V30 1299 H 120.172 -3.47471 -1.89947 0
M  V30 1300 H 121.346 -4.54637 0.751099 0
M  V30 1301 H 119.661 -4.13113 0.522159 0
M  V30 1302 H 122.258 -4.8947 -2.15229 0
M  V30 1303 H 122.601 -3.24417 -2.60882 0
M  V30 1304 H 123.134 -3.84504 -1.01986 0
M  V30 1305 H 119.873 -6.54929 0.273457 0
M  V30 1306 H 119.393 -5.85698 -1.29296 0
M  V30 1307 H 121.072 -6.38811 -1.02613 0
M  V30 1308 N 121.204 0.198386 -1.56346 0
M  V30 1309 C 122.451 0.919286 -1.80431 0
M  V30 1310 C 122.779 1.83393 -0.647866 0
M  V30 1311 O 122.034 1.92236 0.366556 0
M  V30 1312 C 122.333 1.77031 -3.10475 0
M  V30 1313 C 121.999 1.00693 -4.39513 0
M  V30 1314 C 120.661 0.796145 -4.74568 0
M  V30 1315 C 123.013 0.469559 -5.19081 0
M  V30 1316 C 120.341 0.0364588 -5.86689 0
M  V30 1317 C 122.693 -0.2769 -6.31994 0
M  V30 1318 C 121.357 -0.49873 -6.65634 0
M  V30 1319 H 120.627 0.336391 -0.660244 0
M  V30 1320 H 123.274 0.185872 -1.90596 0
M  V30 1321 H 121.579 2.5723 -2.95533 0
M  V30 1322 H 123.276 2.33065 -3.26315 0
M  V30 1323 H 119.866 1.18122 -4.12001 0
M  V30 1324 H 124.05 0.619816 -4.92414 0
M  V30 1325 H 119.306 -0.145412 -6.11227 0
M  V30 1326 H 123.48 -0.700684 -6.92866 0
M  V30 1327 H 121.107 -1.0893 -7.52355 0
M  V30 1328 N 122.682 1.50554 0.465978 0
M  V30 1329 C 124.093 1.54599 1.04671 0
M  V30 1330 C 124.444 0.352488 1.93008 0
M  V30 1331 O 123.569 -0.534044 2.09707 0
M  V30 1332 C 124.164 2.80166 1.90505 0
M  V30 1333 C 122.723 2.86876 2.43678 0
M  V30 1334 C 121.87 2.48947 1.22151 0
M  V30 1335 H 124.821 1.56744 0.248384 0
M  V30 1336 H 124.842 2.62311 2.75633 0
M  V30 1337 H 124.354 3.67013 1.26186 0
M  V30 1338 H 122.455 2.04393 3.11536 0
M  V30 1339 H 122.568 3.89885 2.78436 0
M  V30 1340 H 120.932 2.01498 1.5579 0
M  V30 1341 H 121.715 3.38107 0.594866 0
M  V30 1342 N 124.16 -0.719506 1.40217 0
M  V30 1343 C 125.409 -1.47486 1.37589 0
M  V30 1344 C 125.722 -1.9559 -0.0201568 0
M  V30 1345 O 126.928 -2.70973 -0.169049 0
M  V30 1346 C 125.384 -2.66575 2.41796 0
M  V30 1347 C 124.992 -2.25358 3.87192 0
M  V30 1348 C 126.736 -3.4433 2.48269 0
M  V30 1349 C 124.643 -3.41262 4.83005 0
M  V30 1350 H 123.573 -0.553901 0.511576 0
M  V30 1351 H 126.224 -0.783427 1.65936 0
M  V30 1352 H 124.606 -3.3787 2.06543 0
M  V30 1353 H 125.78 -1.61509 4.31569 0
M  V30 1354 H 124.095 -1.60657 3.84159 0
M  V30 1355 H 126.692 -4.30569 3.17041 0
M  V30 1356 H 127.035 -3.87872 1.51198 0
M  V30 1357 H 127.568 -2.80076 2.82493 0
M  V30 1358 H 124.307 -3.02755 5.81394 0
M  V30 1359 H 123.827 -4.0404 4.43297 0
M  V30 1360 H 125.506 -4.07383 5.02641 0
M  V30 1361 N 125.638 -1.25649 -0.95132 0
M  V30 1362 C 126.548 -1.08073 -2.08224 0
M  V30 1363 C 127.564 -0.0169666 -1.73992 0
M  V30 1364 O 128.74 -0.218593 -2.0021 0
M  V30 1365 C 125.805 -0.704922 -3.39458 0
M  V30 1366 C 124.866 -1.84699 -3.87537 0
M  V30 1367 C 124.099 -1.48902 -5.12508 0
M  V30 1368 O 124.322 -0.386156 -5.69091 0
M  V30 1369 O 123.256 -2.32033 -5.55378 0
M  V30 1370 H 127.082 -2.02924 -2.25954 0
M  V30 1371 H 124.667 -1.04618 -1.06656 0
M  V30 1372 H 126.549 -0.507609 -4.18332 0
M  V30 1373 H 125.224 0.214291 -3.2299 0
M  V30 1374 H 124.131 -2.09919 -3.09653 0
M  V30 1375 H 125.464 -2.74557 -4.08509 0
M  V30 1376 N 127.117 1.15442 -1.07289 0
M  V30 1377 C 128.347 1.89821 -0.815576 0
M  V30 1378 C 128.755 1.7823 0.634867 0
M  V30 1379 O 128.098 1.13152 1.44715 0
M  V30 1380 C 128.16 3.40817 -1.14385 0
M  V30 1381 C 127.824 3.76193 -2.59476 0
M  V30 1382 C 128.821 3.77269 -3.57721 0
M  V30 1383 C 126.506 4.0652 -2.95037 0
M  V30 1384 C 128.5 4.08176 -4.89562 0
M  V30 1385 C 126.187 4.37092 -4.27076 0
M  V30 1386 C 127.185 4.37902 -5.24148 0
M  V30 1387 O 126.873 4.67741 -6.53815 0
M  V30 1388 H 126.605 0.608465 -0.294528 0
M  V30 1389 H 129.159 1.472 -1.43252 0
M  V30 1390 H 127.389 3.83835 -0.469865 0
M  V30 1391 H 129.078 3.96485 -0.869179 0
M  V30 1392 H 129.844 3.5394 -3.3159 0
M  V30 1393 H 125.723 4.05049 -2.20128 0
M  V30 1394 H 129.267 4.08723 -5.65324 0
M  V30 1395 H 125.164 4.59889 -4.5296 0
M  V30 1396 H 125.932 4.85509 -6.58957 0
M  V30 1397 N 128.595 0.856903 1.32268 0
M  V30 1398 C 129.545 0.274899 2.26337 0
M  V30 1399 C 130.529 -0.580543 1.50062 0
M  V30 1400 O 131.721 -0.429559 1.71708 0
M  V30 1401 C 128.85 -0.533841 3.39124 0
M  V30 1402 C 127.936 0.334114 4.22782 0
M  V30 1403 N 128.327 1.42143 4.85416 0
M  V30 1404 C 126.625 0.124256 4.45827 0
M  V30 1405 C 127.326 1.95559 5.47843 0
M  V30 1406 N 126.302 1.25444 5.28928 0
M  V30 1407 H 130.104 1.10612 2.72291 0
M  V30 1408 H 127.618 0.703258 1.46383 0
M  V30 1409 H 129.615 -0.96722 4.05525 0
M  V30 1410 H 128.275 -1.36283 2.94715 0
M  V30 1411 H 129.286 1.80436 4.85451 0
M  V30 1412 H 125.963 -0.669837 4.12092 0
M  V30 1413 H 127.353 2.86714 6.07655 0
M  V30 1414 N 130.073 -1.45103 0.615059 0
M  V30 1415 C 131.35 -1.95549 0.0448276 0
M  V30 1416 C 131.73 -1.55737 -1.4251 0
M  V30 1417 O 131.078 -0.823556 -2.13143 0
M  V30 1418 C 131.288 -3.48098 0.250785 0
M  V30 1419 C 132.636 -4.24384 0.135509 0
M  V30 1420 O 133.66 -3.55738 0.181299 0
M  V30 1421 O 132.519 -5.46493 0.0268878 0
M  V30 1422 H 129.613 -0.8264 -0.0314845 0
M  V30 1423 H 132.159 -1.55232 0.685642 0
M  V30 1424 H 130.931 -3.7007 1.27139 0
M  V30 1425 H 130.554 -3.95323 -0.424937 0
M  V30 1426 N 131.551 -0.354651 -1.53558 0
M  V30 1427 C 132.8 0.239504 -2.00273 0
M  V30 1428 C 133.113 1.50759 -1.24623 0
M  V30 1429 O 134.319 2.17968 -1.61871 0
M  V30 1430 C 132.775 0.477341 -3.5672 0
M  V30 1431 C 132.383 -0.775488 -4.41237 0
M  V30 1432 C 134.127 1.02975 -4.11821 0
M  V30 1433 C 132.034 -0.507838 -5.89216 0
M  V30 1434 H 130.964 0.0932743 -0.748208 0
M  V30 1435 H 133.615 -0.471701 -1.77334 0
M  V30 1436 H 131.997 1.24953 -3.7577 0
M  V30 1437 H 133.171 -1.54963 -4.33962 0
M  V30 1438 H 131.486 -1.25033 -3.97185 0
M  V30 1439 H 134.083 1.24513 -5.2 0
M  V30 1440 H 134.426 1.98862 -3.65731 0
M  V30 1441 H 134.959 0.317994 -3.96527 0
M  V30 1442 H 131.698 -1.43674 -6.39561 0
M  V30 1443 H 131.218 0.228011 -5.99366 0
M  V30 1444 H 132.897 -0.129238 -6.46871 0
M  V30 1445 N 133.029 1.57378 -0.0835403 0
M  V30 1446 C 134.275 1.95025 0.577664 0
M  V30 1447 C 134.63 0.964049 1.66505 0
M  V30 1448 O 133.923 -0.0118235 1.91596 0
M  V30 1449 C 134.117 3.37063 1.1884 0
M  V30 1450 C 133.946 4.49409 0.16171 0
M  V30 1451 C 132.716 5.04642 -0.257756 0
M  V30 1452 C 134.914 5.10722 -0.605634 0
M  V30 1453 N 132.896 6.00537 -1.27393 0
M  V30 1454 C 134.267 6.02225 -1.47395 0
M  V30 1455 C 136.322 4.93501 -0.660418 0
M  V30 1456 C 135.025 6.78355 -2.39221 0
M  V30 1457 C 137.051 5.70283 -1.56623 0
M  V30 1458 C 136.413 6.61444 -2.4222 0
M  V30 1459 H 132.512 0.760512 0.182058 0
M  V30 1460 H 135.096 1.94013 -0.163419 0
M  V30 1461 H 133.267 3.3879 1.89936 0
M  V30 1462 H 134.999 3.61917 1.81103 0
M  V30 1463 H 131.754 4.73428 0.127702 0
M  V30 1464 H 132.178 6.53184 -1.77987 0
M  V30 1465 H 136.82 4.22798 -0.0128221 0
M  V30 1466 H 134.538 7.48327 -3.05011 0
M  V30 1467 H 138.124 5.58976 -1.61361 0
M  V30 1468 H 137.004 7.1982 -3.11174 0
M  V30 1469 N 134.507 -0.190092 1.56449 0
M  V30 1470 C 135.439 -1.25973 1.91477 0
M  V30 1471 C 136.452 -1.41452 0.805931 0
M  V30 1472 O 137.641 -1.41789 1.08435 0
M  V30 1473 C 134.741 -2.63117 2.13594 0
M  V30 1474 C 133.914 -2.69182 3.4476 0
M  V30 1475 C 132.973 -3.87557 3.5593 0
M  V30 1476 O 131.999 -3.74427 4.28711 0
M  V30 1477 N 133.201 -5.03224 2.89388 0
M  V30 1478 H 135.966 -0.962394 2.83828 0
M  V30 1479 H 133.527 -0.379981 1.57378 0
M  V30 1480 H 135.519 -3.40742 2.1835 0
M  V30 1481 H 134.089 -2.85319 1.27719 0
M  V30 1482 H 133.309 -1.77793 3.51828 0
M  V30 1483 H 134.597 -2.70229 4.31107 0
M  V30 1484 H 133.995 -5.16791 2.30094 0
M  V30 1485 H 132.552 -5.78778 2.99764 0
M  V30 1486 N 135.985 -1.50799 -0.457987 0
M  V30 1487 C 136.918 -1.65273 -1.57353 0
M  V30 1488 C 137.896 -0.500578 -1.54703 0
M  V30 1489 O 139.08 -0.721781 -1.74134 0
M  V30 1490 C 136.207 -1.64737 -2.95938 0
M  V30 1491 C 135.253 -2.8567 -3.16693 0
M  V30 1492 S 136.086 -4.46791 -2.95191 0
M  V30 1493 C 137.242 -4.48968 -4.36095 0
M  V30 1494 H 137.475 -2.59633 -1.44838 0
M  V30 1495 H 135.008 -1.40225 -0.64625 0
M  V30 1496 H 136.966 -1.65112 -3.7583 0
M  V30 1497 H 135.627 -0.715899 -3.05833 0
M  V30 1498 H 134.82 -2.81637 -4.17967 0
M  V30 1499 H 134.422 -2.8293 -2.44594 0
M  V30 1500 H 136.714 -4.23337 -5.28954 0
M  V30 1501 H 137.657 -5.50664 -4.45168 0
M  V30 1502 H 138.065 -3.78522 -4.18786 0
M  V30 1503 N 137.463 0.71206 -1.40597 0
M  V30 1504 C 138.693 1.49894 -1.42181 0
M  V30 1505 C 139.101 1.89189 -0.0208078 0
M  V30 1506 O 138.444 1.56223 0.966436 0
M  V30 1507 C 138.506 2.80215 -2.25211 0
M  V30 1508 C 138.17 2.63221 -3.73582 0
M  V30 1509 C 139.167 2.30249 -4.66135 0
M  V30 1510 C 136.852 2.79376 -4.17438 0
M  V30 1511 C 138.846 2.13645 -6.00529 0
M  V30 1512 C 136.533 2.6239 -5.51901 0
M  V30 1513 C 137.531 2.29573 -6.43262 0
M  V30 1514 O 137.219 2.12719 -7.75246 0
M  V30 1515 H 136.951 0.469031 -0.486812 0
M  V30 1516 H 139.505 0.88564 -1.85326 0
M  V30 1517 H 137.735 3.4389 -1.76852 0
M  V30 1518 H 139.424 3.41947 -2.18694 0
M  V30 1519 H 140.19 2.17398 -4.33547 0
M  V30 1520 H 136.069 3.03906 -3.46644 0
M  V30 1521 H 139.613 1.87953 -6.71803 0
M  V30 1522 H 135.51 2.74826 -5.84073 0
M  V30 1523 H 136.278 2.27611 -7.86216 0
M  V30 1524 N 138.941 1.26152 0.944643 0
M  V30 1525 C 139.888 1.07408 2.04285 0
M  V30 1526 C 140.858 -0.0198413 1.66088 0
M  V30 1527 O 142.043 0.139264 1.90291 0
M  V30 1528 C 139.183 0.70945 3.37729 0
M  V30 1529 C 138.296 1.87926 3.88983 0
M  V30 1530 C 137.431 1.45807 5.10797 0
M  V30 1531 C 136.47 2.5964 5.54305 0
M  V30 1532 N 135.607 2.18226 6.67324 0
M  V30 1533 H 140.447 2.01389 2.1965 0
M  V30 1534 H 137.984 1.00275 1.07626 0
M  V30 1535 H 139.942 0.478948 4.14442 0
M  V30 1536 H 138.572 -0.193389 3.2222 0
M  V30 1537 H 137.624 2.22279 3.08701 0
M  V30 1538 H 138.936 2.73377 4.17213 0
M  V30 1539 H 138.09 1.18781 5.94959 0
M  V30 1540 H 136.829 0.574414 4.84305 0
M  V30 1541 H 135.834 2.87399 4.68702 0
M  V30 1542 H 137.059 3.48599 5.828 0
M  V30 1543 H 135.005 1.3229 6.42523 0
M  V30 1544 H 134.922 2.97221 6.95123 0
M  V30 1545 H 136.19 1.94403 7.54869 0
M  V30 1546 N 140.419 -1.14872 1.07899 0
M  V30 1547 C 141.366 -2.19791 0.704319 0
M  V30 1548 C 142.336 -1.63238 -0.306987 0
M  V30 1549 O 143.521 -1.8983 -0.192171 0
M  V30 1550 C 140.661 -3.44911 0.114244 0
M  V30 1551 C 139.774 -4.15637 1.1777 0
M  V30 1552 C 138.909 -5.28324 0.552037 0
M  V30 1553 C 137.948 -5.90875 1.59789 0
M  V30 1554 N 137.085 -6.95022 0.994404 0
M  V30 1555 H 141.925 -2.5119 1.60336 0
M  V30 1556 H 139.462 -1.23356 0.801352 0
M  V30 1557 H 141.42 -4.16477 -0.245544 0
M  V30 1558 H 140.05 -3.14011 -0.74813 0
M  V30 1559 H 139.102 -3.42512 1.65499 0
M  V30 1560 H 140.414 -4.5823 1.97046 0
M  V30 1561 H 139.568 -6.06538 0.1402 0
M  V30 1562 H 138.307 -4.86939 -0.272431 0
M  V30 1563 H 137.312 -5.11369 2.01945 0
M  V30 1564 H 138.537 -6.34337 2.42474 0
M  V30 1565 H 136.483 -6.55722 0.190939 0
M  V30 1566 H 136.4 -7.36073 1.72432 0
M  V30 1567 H 137.668 -7.77123 0.608253 0
M  V30 1568 N 141.898 -0.863906 -1.31812 0
M  V30 1569 C 142.861 -0.320212 -2.26952 0
M  V30 1570 C 143.861 0.525369 -1.51975 0
M  V30 1571 O 145.051 0.335547 -1.70938 0
M  V30 1572 C 142.183 0.545919 -3.365 0
M  V30 1573 H 143.376 -1.16004 -2.76556 0
M  V30 1574 H 140.929 -0.638995 -1.42641 0
M  V30 1575 H 141.664 1.40718 -2.92179 0
M  V30 1576 H 141.449 -0.0594674 -3.92055 0
M  V30 1577 H 142.939 0.918796 -4.07367 0
M  V30 1578 N 143.376 1.44774 -0.622745 0
M  V30 1579 C 144.286 2.34433 0.0886031 0
M  V30 1580 C 145.302 1.52131 0.844529 0
M  V30 1581 O 146.478 1.84886 0.798691 0
M  V30 1582 C 143.543 3.29986 1.0635 0
M  V30 1583 C 142.604 4.28195 0.307873 0
M  V30 1584 C 141.837 5.19183 1.23633 0
M  V30 1585 O 142.06 5.13918 2.47476 0
M  V30 1586 O 140.994 5.97515 0.725189 0
M  V30 1587 H 144.82 2.96693 -0.648599 0
M  V30 1588 H 142.405 1.44408 -0.382957 0
M  V30 1589 H 144.287 3.88825 1.6246 0
M  V30 1590 H 142.962 2.70269 1.78146 0
M  V30 1591 H 141.869 3.72927 -0.296064 0
M  V30 1592 H 143.202 4.90808 -0.3699 0
M  V30 1593 N 144.854 0.36279 1.53368 0
M  V30 1594 C 145.817 -0.472679 2.24273 0
M  V30 1595 C 146.817 -1.012 1.24961 0
M  V30 1596 O 148.007 -0.898194 1.49259 0
M  V30 1597 C 145.139 -1.66039 2.97731 0
M  V30 1598 H 146.332 0.14773 2.99536 0
M  V30 1599 H 143.885 0.114434 1.55881 0
M  V30 1600 H 144.62 -2.31896 2.26704 0
M  V30 1601 H 144.405 -1.28066 3.70596 0
M  V30 1602 H 145.895 -2.25252 3.51641 0
M  V30 1603 N 146.332 -1.57332 0.0918853 0
M  V30 1604 C 147.557 -1.98995 -0.584442 0
M  V30 1605 C 147.982 -0.970528 -1.61128 0
M  V30 1606 O 147.34 0.0613904 -1.81196 0
M  V30 1607 C 147.388 -3.39636 -1.21161 0
M  V30 1608 O 146.492 -3.40447 -2.32744 0
M  V30 1609 H 145.833 -0.647165 -0.148572 0
M  V30 1610 H 148.363 -2.03873 0.172347 0
M  V30 1611 H 148.373 -3.7726 -1.55367 0
M  V30 1612 H 147.048 -4.13356 -0.459313 0
M  V30 1613 H 145.625 -3.14614 -2.0018 0
M  V30 1614 N 147.81 0.181792 -1.56548 0
M  V30 1615 C 149.057 0.900097 -1.81396 0
M  V30 1616 C 149.385 1.82695 -0.667281 0
M  V30 1617 O 148.64 1.92614 0.346146 0
M  V30 1618 C 148.939 1.73728 -3.12335 0
M  V30 1619 C 148.605 0.960255 -4.40556 0
M  V30 1620 C 147.267 0.745766 -4.75386 0
M  V30 1621 C 149.619 0.414477 -5.19549 0
M  V30 1622 C 146.947 -0.0257694 -5.86694 0
M  V30 1623 C 149.299 -0.343916 -6.31664 0
M  V30 1624 C 147.963 -0.569301 -6.65068 0
M  V30 1625 H 147.233 0.329369 -0.663775 0
M  V30 1626 H 149.88 0.165647 -1.90782 0
M  V30 1627 H 148.185 2.54081 -2.98245 0
M  V30 1628 H 149.882 2.29591 -3.28769 0
M  V30 1629 H 146.472 1.13746 -4.13231 0
M  V30 1630 H 150.656 0.567554 -4.93044 0
M  V30 1631 H 145.912 -0.210233 -6.11038 0
M  V30 1632 H 150.086 -0.774133 -6.92084 0
M  V30 1633 H 147.713 -1.16903 -7.51158 0
M  V30 1634 N 149.288 1.51039 0.449983 0
M  V30 1635 C 150.534 1.64287 1.19923 0
M  V30 1636 C 150.889 0.348701 1.89214 0
M  V30 1637 O 150.182 -0.654751 1.80065 0
M  V30 1638 C 150.376 2.77556 2.25161 0
M  V30 1639 C 150.205 4.17862 1.66198 0
M  V30 1640 C 148.975 4.83976 1.45243 0
M  V30 1641 C 151.173 5.01388 1.14519 0
M  V30 1642 N 149.155 6.08433 0.817437 0
M  V30 1643 C 150.526 6.16743 0.634705 0
M  V30 1644 C 152.581 4.87008 1.03574 0
M  V30 1645 C 151.284 7.19295 0.0255452 0
M  V30 1646 C 153.31 5.89757 0.440489 0
M  V30 1647 C 152.672 7.04375 -0.0595112 0
M  V30 1648 H 148.771 0.655161 0.426952 0
M  V30 1649 H 151.355 1.88228 0.49781 0
M  V30 1650 H 149.526 2.553 2.92706 0
M  V30 1651 H 151.258 2.80049 2.92155 0
M  V30 1652 H 148.013 4.41627 1.71063 0
M  V30 1653 H 148.437 6.75017 0.517747 0
M  V30 1654 H 153.079 3.9866 1.4082 0
M  V30 1655 H 150.797 8.07302 -0.359071 0
M  V30 1656 H 154.383 5.80698 0.35788 0
M  V30 1657 H 153.263 7.82521 -0.512882 0
M  V30 1658 N 150.766 -0.704594 1.40972 0
M  V30 1659 C 151.994 -1.49354 1.43182 0
M  V30 1660 C 152.409 -1.88768 0.0345508 0
M  V30 1661 O 151.766 -1.56184 -0.944081 0
M  V30 1662 C 151.817 -2.76187 2.33244 0
M  V30 1663 O 151.538 -2.38436 3.67532 0
M  V30 1664 C 153.039 -3.7 2.44162 0
M  V30 1665 H 150.259 -0.460559 0.487982 0
M  V30 1666 H 152.803 -0.868261 1.85153 0
M  V30 1667 H 150.958 -3.34974 1.94606 0
M  V30 1668 H 151.372 -3.20126 4.15475 0
M  V30 1669 H 152.846 -4.55803 3.11364 0
M  V30 1670 H 153.323 -4.13867 1.47006 0
M  V30 1671 H 153.929 -3.17121 2.83398 0
M  V30 1672 N 152.244 -1.26651 -0.937939 0
M  V30 1673 C 153.207 -1.08546 -2.01867 0
M  V30 1674 C 154.207 -0.0327327 -1.60767 0
M  V30 1675 O 155.397 -0.276427 -1.71993 0
M  V30 1676 C 152.529 -0.651711 -3.34613 0
M  V30 1677 H 153.722 -2.04502 -2.1936 0
M  V30 1678 H 151.275 -1.09294 -1.11734 0
M  V30 1679 H 152.01 0.309696 -3.22818 0
M  V30 1680 H 151.795 -1.41189 -3.65798 0
M  V30 1681 H 153.285 -0.546973 -4.14002 0
M  V30 1682 N 153.722 1.14298 -1.08507 0
M  V30 1683 C 154.632 2.23027 -0.727753 0
M  V30 1684 C 155.648 1.71952 0.26619 0
M  V30 1685 O 156.824 2.011 0.109882 0
M  V30 1686 C 153.889 3.46403 -0.143541 0
M  V30 1687 C 152.95 4.12413 -1.19223 0
M  V30 1688 C 152.183 5.29899 -0.635798 0
M  V30 1689 O 152.406 5.67796 0.544393 0
M  V30 1690 O 151.34 5.85717 -1.38634 0
M  V30 1691 H 155.166 2.55945 -1.63481 0
M  V30 1692 H 152.751 1.22248 -0.858817 0
M  V30 1693 H 154.633 4.21018 0.179404 0
M  V30 1694 H 153.308 3.15206 0.736659 0
M  V30 1695 H 152.215 3.39667 -1.56772 0
M  V30 1696 H 153.548 4.47718 -2.04474 0
M  V30 1697 N 155.201 0.870884 1.31352 0
M  V30 1698 C 156.111 0.330783 2.32256 0
M  V30 1699 C 157.127 -0.559767 1.6475 0
M  V30 1700 O 158.303 -0.456263 1.96164 0
M  V30 1701 C 155.368 -0.458137 3.4366 0
M  V30 1702 C 154.429 0.460482 4.26823 0
M  V30 1703 C 153.662 -0.290881 5.32907 0
M  V30 1704 O 153.885 -1.51885 5.49806 0
M  V30 1705 O 152.819 0.351732 6.00871 0
M  V30 1706 H 156.645 1.16718 2.80376 0
M  V30 1707 H 154.23 0.634285 1.35267 0
M  V30 1708 H 156.112 -0.905343 4.1156 0
M  V30 1709 H 154.787 -1.27106 2.97701 0
M  V30 1710 H 153.694 0.956207 3.61673 0
M  V30 1711 H 155.027 1.23903 4.7635 0
M  V30 1712 N 156.679 -1.44442 0.630414 0
M  V30 1713 C 157.925 -2.02351 0.134816 0
M  V30 1714 C 158.258 -1.4947 -1.23986 0
M  V30 1715 O 157.533 -0.678475 -1.82283 0
M  V30 1716 C 157.816 -3.59898 0.120707 0
M  V30 1717 C 157.669 -4.23063 1.52767 0
M  V30 1718 C 158.988 -4.36585 -0.555127 0
M  V30 1719 H 156.107 -0.73527 0.0504646 0
M  V30 1720 H 158.749 -1.72022 0.806751 0
M  V30 1721 H 156.899 -3.85868 -0.451477 0
M  V30 1722 H 158.571 -4.08202 2.14869 0
M  V30 1723 H 156.814 -3.80586 2.08175 0
M  V30 1724 H 157.485 -5.32071 1.46984 0
M  V30 1725 H 159.961 -4.16044 -0.0685429 0
M  V30 1726 H 158.837 -5.46294 -0.534185 0
M  V30 1727 H 159.098 -4.11138 -1.62535 0
M  V30 1728 N 158.157 -0.370918 -1.53173 0
M  V30 1729 C 159.434 0.273754 -1.93675 0
M  V30 1730 C 159.814 1.65938 -1.3049 0
M  V30 1731 O 159.162 2.23698 -0.465999 0
M  V30 1732 C 159.372 0.318602 -3.47543 0
M  V30 1733 C 160.72 0.556392 -4.20939 0
M  V30 1734 O 161.744 0.399587 -3.53952 0
M  V30 1735 O 160.603 0.862133 -5.39657 0
M  V30 1736 H 157.697 0.165448 -0.810281 0
M  V30 1737 H 160.243 -0.42409 -1.64315 0
M  V30 1738 H 159.015 -0.652687 -3.85818 0
M  V30 1739 H 158.638 1.06212 -3.83151 0
M  V30 1740 N 159.635 1.57281 -0.100228 0
M  V30 1741 C 160.565 2.17328 0.853857 0
M  V30 1742 C 161.546 1.10804 1.2906 0
M  V30 1743 O 162.731 1.38963 1.35657 0
M  V30 1744 C 159.861 2.75772 2.11109 0
M  V30 1745 C 158.815 3.87713 1.81279 0
M  V30 1746 C 158.141 4.32882 3.13874 0
M  V30 1747 C 159.441 5.10677 1.09574 0
M  V30 1748 H 161.135 2.97305 0.353545 0
M  V30 1749 H 158.681 1.43009 0.168612 0
M  V30 1750 H 160.634 3.16433 2.78296 0
M  V30 1751 H 159.358 1.93057 2.63432 0
M  V30 1752 H 158.017 3.476 1.16489 0
M  V30 1753 H 157.665 3.47051 3.64095 0
M  V30 1754 H 157.365 5.08358 2.94696 0
M  V30 1755 H 158.889 4.7618 3.82211 0
M  V30 1756 H 160.303 5.48474 1.66879 0
M  V30 1757 H 158.7 5.91615 1.00557 0
M  V30 1758 H 159.77 4.84835 0.0793299 0
M  V30 1759 N 161.113 -0.173488 1.56642 0
M  V30 1760 C 162.338 -0.910149 1.86363 0
M  V30 1761 C 162.763 -1.75132 0.686318 0
M  V30 1762 O 162.121 -1.77595 -0.364643 0
M  V30 1763 C 162.169 -1.76447 3.14482 0
M  V30 1764 O 161.273 -2.86584 2.96553 0
M  V30 1765 H 160.614 -0.255086 0.613047 0
M  V30 1766 H 163.144 -0.172283 2.03873 0
M  V30 1767 H 163.154 -2.16483 3.45831 0
M  V30 1768 H 161.829 -1.14658 3.99783 0
M  V30 1769 H 160.406 -2.50146 2.76553 0
M  V30 1770 N 162.591 -1.51276 -0.441967 0
M  V30 1771 C 163.538 -1.72256 -1.53612 0
M  V30 1772 C 164.508 -0.564164 -1.56225 0
M  V30 1773 O 165.693 -0.798074 -1.73307 0
M  V30 1774 C 162.833 -1.84932 -2.91366 0
M  V30 1775 C 161.946 -3.12459 -2.98317 0
M  V30 1776 C 161.081 -3.15758 -4.27166 0
M  V30 1777 C 160.12 -4.37619 -4.27967 0
M  V30 1778 N 159.257 -4.38493 -5.48333 0
M  V30 1779 H 164.097 -2.65654 -1.35026 0
M  V30 1780 H 161.634 -1.31662 -0.656009 0
M  V30 1781 H 163.592 -1.90263 -3.7129 0
M  V30 1782 H 162.222 -0.949461 -3.08521 0
M  V30 1783 H 161.274 -3.1646 -2.11086 0
M  V30 1784 H 162.586 -4.02382 -2.94771 0
M  V30 1785 H 161.74 -3.19979 -5.15459 0
M  V30 1786 H 160.479 -2.23715 -4.33362 0
M  V30 1787 H 159.484 -4.33579 -3.38067 0
M  V30 1788 H 160.709 -5.30921 -4.23438 0
M  V30 1789 H 158.655 -3.49318 -5.55259 0
M  V30 1790 H 158.572 -5.22219 -5.46647 0
M  V30 1791 H 159.84 -4.469 -6.38671 0
M  V30 1792 N 164.069 0.697108 -1.41344 0
M  V30 1793 C 165.346 1.45154 -1.31109 0
M  V30 1794 C 165.726 2.11009 0.0620449 0
M  V30 1795 O 165.074 2.01571 1.07618 0
M  V30 1796 C 165.284 2.47223 -2.46337 0
M  V30 1797 C 166.632 3.1252 -2.87431 0
M  V30 1798 O 167.656 2.57547 -2.46065 0
M  V30 1799 O 166.515 4.12083 -3.58957 0
M  V30 1800 H 163.609 0.646365 -0.515889 0
M  V30 1801 H 166.155 0.727716 -1.53305 0
M  V30 1802 H 164.927 1.97204 -3.37974 0
M  V30 1803 H 164.55 3.27116 -2.2601 0
M  V30 1804 N 165.547 1.27147 0.931209 0
M  V30 1805 C 166.796 1.12664 1.67302 0
M  V30 1806 C 167.109 -0.327718 1.92835 0
M  V30 1807 O 168.315 -0.593392 2.64936 0
M  V30 1808 C 166.771 1.9683 3.01307 0
M  V30 1809 C 166.379 3.46901 2.83485 0
M  V30 1810 C 168.123 1.90985 3.79111 0
M  V30 1811 C 166.03 4.23279 4.13024 0
M  V30 1812 H 164.96 0.41803 0.627509 0
M  V30 1813 H 167.611 1.51539 1.03481 0
M  V30 1814 H 165.993 1.50797 3.66164 0
M  V30 1815 H 167.167 4.00773 2.27415 0
M  V30 1816 H 165.482 3.54088 2.19113 0
M  V30 1817 H 168.079 2.45328 4.75098 0
M  V30 1818 H 168.422 0.882718 4.06834 0
M  V30 1819 H 168.955 2.34895 3.21044 0
M  V30 1820 H 165.694 5.26503 3.90481 0
M  V30 1821 H 165.214 3.74186 4.6877 0
M  V30 1822 H 166.893 4.32265 4.81411 0
M  V30 1823 N 167.025 -1.13721 1.09112 0
M  V30 1824 C 167.957 -2.1871 0.685467 0
M  V30 1825 C 168.97 -1.60527 -0.271068 0
M  V30 1826 O 170.159 -1.78407 -0.0576148 0
M  V30 1827 C 167.259 -3.38898 -0.0111255 0
M  V30 1828 C 166.432 -4.26597 0.966131 0
M  V30 1829 C 165.491 -5.25324 0.303539 0
M  V30 1830 O 164.517 -5.61213 0.950177 0
M  V30 1831 N 165.719 -5.72779 -0.943651 0
M  V30 1832 H 168.484 -2.54126 1.58871 0
M  V30 1833 H 166.045 -1.29012 0.978143 0
M  V30 1834 H 168.037 -4.02014 -0.465517 0
M  V30 1835 H 166.607 -3.01747 -0.816565 0
M  V30 1836 H 165.827 -3.60306 1.59917 0
M  V30 1837 H 167.115 -4.82048 1.6281 0
M  V30 1838 H 166.513 -5.45762 -1.48862 0
M  V30 1839 H 165.07 -6.37847 -1.34142 0
M  V30 1840 N 168.503 -0.877838 -1.30888 0
M  V30 1841 C 169.453 -0.310872 -2.25871 0
M  V30 1842 C 170.437 0.556596 -1.50966 0
M  V30 1843 O 171.629 0.402187 -1.7237 0
M  V30 1844 C 168.758 0.479821 -3.3993 0
M  V30 1845 C 167.844 -0.401333 -4.22197 0
M  V30 1846 N 168.235 -1.49848 -4.83093 0
M  V30 1847 C 166.533 -0.195167 -4.45573 0
M  V30 1848 C 167.234 -2.0425 -5.44662 0
M  V30 1849 N 166.21 -1.33843 -5.26865 0
M  V30 1850 H 170.012 -1.1493 -2.70496 0
M  V30 1851 H 167.526 -0.726458 -1.45246 0
M  V30 1852 H 169.523 0.902582 -4.07012 0
M  V30 1853 H 168.183 1.31577 -2.96846 0
M  V30 1854 H 169.194 -1.88137 -4.82519 0
M  V30 1855 H 165.871 0.604192 -4.13105 0
M  V30 1856 H 167.261 -2.96345 -6.03017 0
M  V30 1857 N 169.982 1.44106 -0.638065 0
M  V30 1858 C 171.228 2.02815 -0.15409 0
M  V30 1859 C 171.583 1.49342 1.21304 0
M  V30 1860 O 170.876 0.670699 1.79478 0
M  V30 1861 C 171.07 3.5729 -0.0887327 0
M  V30 1862 C 170.899 4.2575 -1.44799 0
M  V30 1863 C 169.669 4.62443 -2.03653 0
M  V30 1864 C 171.867 4.55746 -2.38327 0
M  V30 1865 N 169.849 5.15903 -3.32741 0
M  V30 1866 C 171.22 5.10364 -3.52036 0
M  V30 1867 C 173.275 4.37703 -2.3732 0
M  V30 1868 C 171.978 5.48837 -4.64941 0
M  V30 1869 C 174.004 4.77229 -3.49294 0
M  V30 1870 C 173.366 5.31966 -4.61726 0
M  V30 1871 H 169.465 0.775519 -0.100466 0
M  V30 1872 H 172.049 1.755 -0.843071 0
M  V30 1873 H 170.22 3.84201 0.569548 0
M  V30 1874 H 171.952 4.02671 0.404711 0
M  V30 1875 H 168.707 4.46987 -1.56523 0
M  V30 1876 H 169.131 5.47102 -3.98758 0
M  V30 1877 H 173.773 3.94671 -1.51641 0
M  V30 1878 H 171.491 5.9082 -5.51323 0
M  V30 1879 H 175.077 4.64976 -3.49698 0
M  V30 1880 H 173.957 5.61986 -5.46939 0
M  V30 1881 N 171.46 0.379036 1.52974 0
M  V30 1882 C 172.37 -0.468639 2.29872 0
M  V30 1883 C 173.386 -1.08067 1.36373 0
M  V30 1884 O 174.562 -1.08871 1.69438 0
M  V30 1885 C 171.627 -1.58594 3.083 0
M  V30 1886 C 170.688 -1.00007 4.17489 0
M  V30 1887 C 169.921 -2.06413 4.92168 0
M  V30 1888 O 170.144 -3.27751 4.66835 0
M  V30 1889 O 169.078 -1.68717 5.7777 0
M  V30 1890 H 172.904 0.157508 3.03291 0
M  V30 1891 H 170.489 0.143035 1.48714 0
M  V30 1892 H 172.371 -2.23525 3.57232 0
M  V30 1893 H 171.046 -2.19724 2.37703 0
M  V30 1894 H 169.953 -0.314299 3.72777 0
M  V30 1895 H 171.286 -0.433135 4.90291 0
M  V30 1896 N 172.938 -1.57226 0.108567 0
M  V30 1897 C 174.163 -1.99604 -0.563303 0
M  V30 1898 C 174.588 -0.987563 -1.6009 0
M  V30 1899 O 173.946 0.0421687 -1.81251 0
M  V30 1900 C 173.994 -3.40902 -1.17552 0
M  V30 1901 O 173.098 -3.42896 -2.2912 0
M  V30 1902 H 172.439 -0.648704 -0.1417 0
M  V30 1903 H 174.969 -2.03679 0.193961 0
M  V30 1904 H 174.979 -3.78886 -1.51357 0
M  V30 1905 H 173.654 -4.1382 -0.415445 0
M  V30 1906 H 172.231 -3.1672 -1.96832 0
M  V30 1907 N 174.416 0.165178 -1.56732 0
M  V30 1908 C 175.346 1.20651 -1.99914 0
M  V30 1909 C 176.327 1.45827 -0.875705 0
M  V30 1910 O 177.512 1.57057 -1.14223 0
M  V30 1911 C 174.642 2.54401 -2.36427 0
M  V30 1912 C 173.596 2.43782 -3.51787 0
M  V30 1913 C 172.922 3.82078 -3.7406 0
M  V30 1914 C 174.222 1.93732 -4.85041 0
M  V30 1915 H 175.916 0.847534 -2.87154 0
M  V30 1916 H 173.462 0.40625 -1.38151 0
M  V30 1917 H 175.415 3.27458 -2.65234 0
M  V30 1918 H 174.139 2.92098 -1.46103 0
M  V30 1919 H 172.798 1.73178 -3.23117 0
M  V30 1920 H 172.446 4.17179 -2.81017 0
M  V30 1921 H 172.146 3.7584 -4.51684 0
M  V30 1922 H 173.67 4.56712 -4.05274 0
M  V30 1923 H 175.084 2.56569 -5.12684 0
M  V30 1924 H 173.481 1.98428 -5.66345 0
M  V30 1925 H 174.551 0.891962 -4.76626 0
M  V30 1926 N 175.894 1.51508 0.433938 0
M  V30 1927 C 176.841 1.73068 1.52696 0
M  V30 1928 C 177.811 0.572441 1.55924 0
M  V30 1929 O 178.996 0.807253 1.72882 0
M  V30 1930 C 176.136 1.86474 2.90381 0
M  V30 1931 C 175.249 3.14037 2.96656 0
M  V30 1932 C 174.384 3.18019 4.25485 0
M  V30 1933 C 173.423 4.39882 4.2564 0
M  V30 1934 N 172.56 4.41394 5.45999 0
M  V30 1935 H 177.4 2.66366 1.33615 0
M  V30 1936 H 174.937 1.32008 0.649018 0
M  V30 1937 H 176.895 1.92229 3.70275 0
M  V30 1938 H 175.525 0.965809 3.08013 0
M  V30 1939 H 174.577 3.17575 2.09404 0
M  V30 1940 H 175.889 4.0394 2.92633 0
M  V30 1941 H 175.043 3.22708 5.13755 0
M  V30 1942 H 173.782 2.2601 4.3217 0
M  V30 1943 H 172.787 4.35366 3.35763 0
M  V30 1944 H 174.012 5.33159 4.20617 0
M  V30 1945 H 171.958 3.52258 5.53399 0
M  V30 1946 H 171.875 5.25111 5.4387 0
M  V30 1947 H 173.143 4.50281 6.36292 0
M  V30 1948 N 177.372 -0.689602 1.41712 0
M  V30 1949 C 178.783 -1.26973 1.36875 0
M  V30 1950 C 179.134 -1.96124 0.054748 0
M  V30 1951 O 178.259 -1.99141 -0.84687 0
M  V30 1952 C 178.854 -2.30912 2.47922 0
M  V30 1953 C 177.413 -2.84486 2.46464 0
M  V30 1954 C 176.56 -1.58603 2.27465 0
M  V30 1955 H 179.511 -0.48396 1.51141 0
M  V30 1956 H 179.532 -3.12331 2.17323 0
M  V30 1957 H 179.044 -1.80554 3.43543 0
M  V30 1958 H 177.145 -3.39005 1.54617 0
M  V30 1959 H 177.258 -3.34511 3.42986 0
M  V30 1960 H 175.622 -1.84632 1.75451 0
M  V30 1961 H 176.405 -1.10233 3.25121 0
M  V30 1962 N 178.85 -1.27639 -0.924453 0
M  V30 1963 C 179.76 -1.12466 -2.05885 0
M  V30 1964 C 180.776 -0.053869 -1.73917 0
M  V30 1965 O 181.952 -0.261012 -1.99702 0
M  V30 1966 C 179.017 -0.776768 -3.37886 0
M  V30 1967 C 178.078 -1.92878 -3.83532 0
M  V30 1968 C 177.311 -1.59739 -5.09234 0
M  V30 1969 O 177.534 -0.506782 -5.68144 0
M  V30 1970 O 176.468 -2.43761 -5.50331 0
M  V30 1971 H 180.294 -2.07671 -2.21599 0
M  V30 1972 H 177.879 -1.06857 -1.04413 0
M  V30 1973 H 179.761 -0.596229 -4.17161 0
M  V30 1974 H 178.436 0.145732 -3.23372 0
M  V30 1975 H 177.343 -2.1644 -3.0513 0
M  V30 1976 H 178.676 -2.8316 -4.02593 0
M  V30 1977 N 180.328 1.1314 -1.09713 0
M  V30 1978 C 181.238 2.22242 -0.751367 0
M  V30 1979 C 182.254 1.72224 0.247938 0
M  V30 1980 O 183.43 2.01205 0.0885463 0
M  V30 1981 C 180.495 3.46231 -0.180274 0
M  V30 1982 C 179.556 4.11125 -1.2359 0
M  V30 1983 C 178.789 5.29195 -0.691966 0
M  V30 1984 O 179.012 5.68342 0.48414 0
M  V30 1985 O 177.946 5.84214 -1.44838 0
M  V30 1986 H 181.772 2.54197 -1.66186 0
M  V30 1987 H 179.357 1.21331 -0.871735 0
M  V30 1988 H 181.239 4.21185 0.134739 0
M  V30 1989 H 179.914 3.1597 0.703185 0
M  V30 1990 H 178.821 3.37985 -1.60366 0
M  V30 1991 H 180.154 4.45524 -2.09211 0
M  V30 1992 N 181.806 0.884767 1.30421 0
M  V30 1993 C 183.222 0.57874 1.48737 0
M  V30 1994 C 183.422 -0.883567 1.81095 0
M  V30 1995 O 182.478 -1.6648 1.89844 0
M  V30 1996 C 183.791 1.49171 2.61091 0
M  V30 1997 C 185.339 1.49532 2.74971 0
M  V30 1998 C 185.814 2.39421 3.90438 0
M  V30 1999 N 187.305 2.37383 3.97748 0
M  V30 2000 C 188.04 3.03647 4.86401 0
M  V30 2001 N 187.536 3.79136 5.79852 0
M  V30 2002 N 189.329 2.9288 4.79768 0
M  V30 2003 H 181.48 1.83075 1.0769 0
M  V30 2004 H 183.743 0.783637 0.533495 0
M  V30 2005 H 183.449 2.53291 2.44001 0
M  V30 2006 H 183.323 1.20113 3.57565 0
M  V30 2007 H 185.71 0.46163 2.91467 0
M  V30 2008 H 185.791 1.8262 1.79119 0
M  V30 2009 H 185.435 3.42874 3.74699 0
M  V30 2010 H 185.365 2.03649 4.85628 0
M  V30 2011 H 187.856 1.82525 3.30897 0
M  V30 2012 H 188.169 4.26789 6.4426 0
M  V30 2013 H 186.514 3.83243 5.79784 0
M  V30 2014 H 189.705 2.33433 4.05742 0
M  V30 2015 H 189.878 3.448 5.4865 0
M  V30 2016 N 183.284 -1.43765 0.645699 0
M  V30 2017 C 184.514 -2.05953 0.163318 0
M  V30 2018 C 184.922 -1.48432 -1.17322 0
M  V30 2019 O 184.265 -0.607295 -1.73371 0
M  V30 2020 C 184.327 -3.59499 -0.0103065 0
M  V30 2021 C 183.991 -4.39563 1.25035 0
M  V30 2022 C 184.988 -4.72108 2.17739 0
M  V30 2023 C 182.673 -4.79697 1.48983 0
M  V30 2024 C 184.667 -5.43688 3.3269 0
M  V30 2025 C 182.354 -5.51023 2.64229 0
M  V30 2026 C 183.352 -5.8294 3.55908 0
M  V30 2027 O 183.04 -6.5281 4.69142 0
M  V30 2028 H 182.772 -0.670798 0.0836986 0
M  V30 2029 H 185.326 -1.85384 0.884407 0
M  V30 2030 H 183.556 -3.78613 -0.78669 0
M  V30 2031 H 185.245 -4.03408 -0.449087 0
M  V30 2032 H 186.011 -4.41627 2.00476 0
M  V30 2033 H 181.89 -4.54266 0.785078 0
M  V30 2034 H 185.434 -5.68517 4.04269 0
M  V30 2035 H 181.331 -5.8092 2.81429 0
M  V30 2036 H 182.099 -6.71288 4.6831 0
M  V30 2037 N 184.763 -0.387143 -1.52771 0
M  V30 2038 C 186.01 0.195735 -2.01552 0
M  V30 2039 C 186.338 1.46995 -1.27369 0
M  V30 2040 O 185.593 1.92325 -0.361879 0
M  V30 2041 C 185.892 0.512209 -3.53711 0
M  V30 2042 C 185.558 -0.670202 -4.45891 0
M  V30 2043 C 184.22 -0.994586 -4.70809 0
M  V30 2044 C 186.572 -1.46134 -5.00294 0
M  V30 2045 C 183.9 -2.11169 -5.4738 0
M  V30 2046 C 186.252 -2.56903 -5.78086 0
M  V30 2047 C 184.916 -2.89852 -6.01284 0
M  V30 2048 H 184.186 0.0716246 -0.73753 0
M  V30 2049 H 186.833 -0.524046 -1.8419 0
M  V30 2050 H 185.138 1.31329 -3.69134 0
M  V30 2051 H 186.835 0.975804 -3.88946 0
M  V30 2052 H 183.425 -0.407366 -4.2666 0
M  V30 2053 H 187.609 -1.22397 -4.80971 0
M  V30 2054 H 182.865 -2.3707 -5.63567 0
M  V30 2055 H 187.039 -3.18608 -6.19243 0
M  V30 2056 H 184.666 -3.76533 -6.60399 0
M  V30 2057 N 186.241 1.57166 -0.116904 0
M  V30 2058 C 187.49 1.94298 0.541407 0
M  V30 2059 C 187.803 1.00236 1.67964 0
M  V30 2060 O 189.009 1.26826 2.40057 0
M  V30 2061 C 187.465 3.45306 1.01449 0
M  V30 2062 C 187.073 4.47899 -0.0951738 0
M  V30 2063 C 188.817 3.91361 1.6443 0
M  V30 2064 C 186.724 5.90083 0.394491 0
M  V30 2065 H 185.654 0.725308 0.206019 0
M  V30 2066 H 188.305 1.82446 -0.196419 0
M  V30 2067 H 186.687 3.52385 1.80667 0
M  V30 2068 H 187.861 4.52486 -0.871374 0
M  V30 2069 H 186.176 4.11583 -0.631505 0
M  V30 2070 H 188.773 4.95004 2.02176 0
M  V30 2071 H 189.116 3.3122 2.52189 0
M  V30 2072 H 189.649 3.87073 0.917559 0
M  V30 2073 H 186.388 6.53974 -0.447004 0
M  V30 2074 H 185.908 5.88921 1.13722 0
M  V30 2075 H 187.587 6.41307 0.856399 0
M  V30 2076 N 187.719 -0.156864 1.56817 0
M  V30 2077 C 188.944 -0.890331 1.87318 0
M  V30 2078 C 189.369 -1.74394 0.704855 0
M  V30 2079 O 188.727 -1.77972 -0.345786 0
M  V30 2080 C 188.775 -1.73102 3.16336 0
M  V30 2081 O 187.879 -2.83422 2.99576 0
M  V30 2082 H 187.22 -0.24857 0.615718 0
M  V30 2083 H 189.75 -0.150649 2.04045 0
M  V30 2084 H 189.76 -2.12803 3.48107 0
M  V30 2085 H 188.435 -1.10412 4.00976 0
M  V30 2086 H 187.012 -2.47199 2.7919 0
M  V30 2087 N 189.197 -1.51736 -0.425897 0
M  V30 2088 C 190.147 -1.70258 -1.51645 0
M  V30 2089 C 191.131 -0.556488 -1.5097 0
M  V30 2090 O 192.323 -0.812879 -1.5723 0
M  V30 2091 C 189.452 -1.84143 -2.89735 0
M  V30 2092 C 188.538 -3.04572 -2.95122 0
M  V30 2093 N 188.929 -4.2756 -2.70233 0
M  V30 2094 C 187.227 -3.04061 -3.26286 0
M  V30 2095 C 187.928 -5.08908 -2.81757 0
M  V30 2096 N 186.904 -4.43797 -3.13919 0
M  V30 2097 H 190.706 -2.63004 -1.31172 0
M  V30 2098 H 188.22 -1.4954 -0.633375 0
M  V30 2099 H 190.217 -1.95525 -3.68206 0
M  V30 2100 H 188.877 -0.925857 -3.1122 0
M  V30 2101 H 189.888 -4.56315 -2.44943 0
M  V30 2102 H 186.565 -2.22179 -3.53473 0
M  V30 2103 H 187.955 -6.16843 -2.66372 0
M  V30 2104 N 190.675 0.682077 -1.42076 0
M  V30 2105 C 191.921 1.44428 -1.42367 0
M  V30 2106 C 192.254 1.94164 -0.0373056 0
M  V30 2107 O 191.529 1.70429 0.937239 0
M  V30 2108 C 191.812 2.64654 -2.44194 0
M  V30 2109 C 191.665 2.20596 -3.91991 0
M  V30 2110 C 192.984 3.66865 -2.431 0
M  V30 2111 H 190.103 0.523834 -0.518428 0
M  V30 2112 H 192.745 0.77576 -1.73442 0
M  V30 2113 H 190.895 3.2169 -2.17826 0
M  V30 2114 H 192.567 1.68783 -4.29313 0
M  V30 2115 H 190.81 1.52242 -4.06208 0
M  V30 2116 H 191.481 3.06921 -4.58807 0
M  V30 2117 H 193.957 3.19531 -2.66532 0
M  V30 2118 H 192.833 4.48577 -3.16339 0
M  V30 2119 H 193.094 4.17493 -1.45437 0
M  V30 2120 N 192.153 1.28127 0.917671 0
M  V30 2121 C 193.083 1.14248 2.03641 0
M  V30 2122 C 194.064 0.0412748 1.7005 0
M  V30 2123 O 195.249 0.217566 1.92977 0
M  V30 2124 C 192.379 0.799431 3.37974 0
M  V30 2125 C 191.333 1.85497 3.85713 0
M  V30 2126 C 190.659 1.36565 5.16966 0
M  V30 2127 C 191.959 3.26085 4.08002 0
M  V30 2128 H 193.653 2.07835 2.15511 0
M  V30 2129 H 191.199 1.00064 1.03553 0
M  V30 2130 H 193.152 0.689114 4.15727 0
M  V30 2131 H 191.876 -0.172145 3.26146 0
M  V30 2132 H 190.535 1.95437 3.10161 0
M  V30 2133 H 190.183 0.383253 5.01538 0
M  V30 2134 H 189.883 2.07143 5.49878 0
M  V30 2135 H 191.407 1.26848 5.97279 0
M  V30 2136 H 192.821 3.19089 4.76293 0
M  V30 2137 H 191.218 3.94462 4.52238 0
M  V30 2138 H 192.288 3.70394 3.12948 0
M  V30 2139 N 193.631 -1.12557 1.10312 0
M  V30 2140 C 194.594 -2.16434 0.75424 0
M  V30 2141 C 195.594 -1.59278 -0.220685 0
M  V30 2142 O 196.784 -1.742 0.00230591 0
M  V30 2143 C 193.916 -3.40699 0.116987 0
M  V30 2144 H 195.109 -2.48811 1.67431 0
M  V30 2145 H 192.662 -1.27542 0.903475 0
M  V30 2146 H 193.397 -3.13921 -0.813877 0
M  V30 2147 H 193.182 -3.83459 0.818613 0
M  V30 2148 H 194.672 -4.17451 -0.111387 0
M  V30 2149 N 195.109 -0.891671 -1.2995 0
M  V30 2150 C 196.356 -0.513501 -1.95881 0
M  V30 2151 C 196.684 0.938655 -1.70351 0
M  V30 2152 O 195.939 1.67936 -1.00478 0
M  V30 2153 C 196.238 -0.742868 -3.49594 0
M  V30 2154 C 195.904 -2.17114 -3.95186 0
M  V30 2155 C 194.566 -2.56169 -4.07346 0
M  V30 2156 C 196.918 -3.10162 -4.18866 0
M  V30 2157 C 194.246 -3.87469 -4.4055 0
M  V30 2158 C 196.598 -4.41001 -4.53542 0
M  V30 2159 C 195.262 -4.79941 -4.63911 0
M  V30 2160 H 194.532 -0.187903 -0.71678 0
M  V30 2161 H 197.179 -1.1288 -1.54694 0
M  V30 2162 H 195.484 -0.044586 -3.91775 0
M  V30 2163 H 197.181 -0.429767 -3.9869 0
M  V30 2164 H 193.771 -1.85801 -3.86233 0
M  V30 2165 H 197.955 -2.81206 -4.08946 0
M  V30 2166 H 193.211 -4.17371 -4.46779 0
M  V30 2167 H 197.385 -5.13133 -4.70815 0
M  V30 2168 H 195.012 -5.81719 -4.89395 0
M  V30 2169 N 196.587 1.43421 -0.653314 0
M  V30 2170 C 197.834 2.01812 -0.166745 0
M  V30 2171 C 198.162 1.51535 1.21931 0
M  V30 2172 O 197.417 0.698975 1.82792 0
M  V30 2173 C 197.716 3.57176 -0.126623 0
M  V30 2174 C 197.382 4.26798 -1.45444 0
M  V30 2175 C 196.044 4.45534 -1.81805 0
M  V30 2176 C 198.396 4.66225 -2.32989 0
M  V30 2177 C 195.724 5.00961 -3.05377 0
M  V30 2178 C 198.076 5.23021 -3.55853 0
M  V30 2179 C 196.74 5.39973 -3.9241 0
M  V30 2180 H 196.01 0.738484 -0.0610162 0
M  V30 2181 H 198.657 1.71896 -0.84404 0
M  V30 2182 H 196.962 3.86634 0.634123 0
M  V30 2183 H 198.659 4.00112 0.266723 0
M  V30 2184 H 195.249 4.12561 -1.16153 0
M  V30 2185 H 199.433 4.51443 -2.06187 0
M  V30 2186 H 194.689 5.12271 -3.3375 0
M  V30 2187 H 198.863 5.52518 -4.23907 0
M  V30 2188 H 196.49 5.82687 -4.88242 0
M  V30 2189 N 198.065 0.39524 1.52563 0
M  V30 2190 C 199.028 -0.425001 2.25225 0
M  V30 2191 C 200.028 -0.985266 1.27079 0
M  V30 2192 O 201.218 -0.866332 1.5113 0
M  V30 2193 C 198.35 -1.59686 3.01186 0
M  V30 2194 H 199.543 0.211233 2.99155 0
M  V30 2195 H 197.096 0.147472 1.55603 0
M  V30 2196 H 197.831 -2.27035 2.31572 0
M  V30 2197 H 197.616 -1.20176 3.73229 0
M  V30 2198 H 199.106 -2.17743 3.5634 0
M  V30 2199 N 199.544 -1.57102 0.125237 0
M  V30 2200 C 200.507 -2.14471 -0.80838 0
M  V30 2201 C 201.507 -1.0811 -1.19033 0
M  V30 2202 O 202.697 -1.33856 -1.11482 0
M  V30 2203 C 199.829 -2.69005 -2.09402 0
M  V30 2204 H 201.022 -2.98297 -0.309696 0
M  V30 2205 H 198.575 -1.55807 -0.124051 0
M  V30 2206 H 199.31 -1.88785 -2.63687 0
M  V30 2207 H 199.095 -3.46799 -1.82957 0
M  V30 2208 H 200.585 -3.13278 -2.76128 0
M  V30 2209 N 201.022 0.148545 -1.56898 0
M  V30 2210 C 202.247 0.880385 -1.87787 0
M  V30 2211 C 202.672 1.74018 -0.714093 0
M  V30 2212 O 202.03 1.78153 0.336343 0
M  V30 2213 C 202.078 1.71422 -3.17249 0
M  V30 2214 O 201.182 2.8183 -3.01074 0
M  V30 2215 H 200.523 0.245301 -0.617028 0
M  V30 2216 H 203.053 0.139826 -2.04122 0
M  V30 2217 H 203.063 2.10954 -3.49231 0
M  V30 2218 H 201.738 1.08284 -4.01556 0
M  V30 2219 H 200.315 2.45715 -2.80497 0
M  V30 2220 N 202.5 1.5196 0.417844 0
M  V30 2221 C 203.777 1.56146 1.17803 0
M  V30 2222 C 204.157 0.337275 2.08388 0
M  V30 2223 O 203.505 -0.676447 2.18258 0
M  V30 2224 C 203.715 2.88566 1.96293 0
M  V30 2225 C 205.063 3.41244 2.52662 0
M  V30 2226 O 206.087 2.90247 2.06483 0
M  V30 2227 O 204.946 4.30273 3.36938 0
M  V30 2228 H 202.04 0.628598 0.537395 0
M  V30 2229 H 204.586 1.64283 0.425331 0
M  V30 2230 H 203.358 3.69116 1.2988 0
M  V30 2231 H 202.981 2.83681 2.78587 0
M  V30 2232 N 203.978 -0.674533 1.42435 0
M  V30 2233 C 205.226 -1.43175 1.42637 0
M  V30 2234 C 205.547 -1.94951 0.0438992 0
M  V30 2235 O 204.817 -1.7308 -0.917607 0
M  V30 2236 H 203.397 -0.531307 0.525092 0
M  V30 2237 H 206.059 -0.797006 1.77859 0
M  V30 2238 H 205.155 -2.28463 2.12629 0
M  V30 2239 N 205.456 -1.28612 -0.910864 0
M  V30 2240 C 206.705 -1.15311 -1.65488 0
M  V30 2241 C 207.018 0.296999 -1.93332 0
M  V30 2242 O 208.224 0.551168 -2.65847 0
M  V30 2243 C 206.68 -2.01599 -2.98137 0
M  V30 2244 C 206.288 -3.51367 -2.7793 0
M  V30 2245 C 208.032 -1.96993 -3.76024 0
M  V30 2246 C 205.939 -4.29797 -4.06237 0
M  V30 2247 H 204.869 -0.42796 -0.620779 0
M  V30 2248 H 207.52 -1.53166 -1.01057 0
M  V30 2249 H 205.902 -1.56603 -3.63719 0
M  V30 2250 H 207.076 -4.0434 -2.21011 0
M  V30 2251 H 205.391 -3.57529 -2.13452 0
M  V30 2252 H 207.988 -2.52856 -4.71135 0
M  V30 2253 H 208.331 -0.94733 -4.05378 0
M  V30 2254 H 208.864 -2.39973 -3.17266 0
M  V30 2255 H 205.603 -5.32648 -3.82055 0
M  V30 2256 H 205.123 -3.81596 -4.62757 0
M  V30 2257 H 206.802 -4.39869 -4.74473 0
M  V30 2258 N 206.934 1.1197 -1.10907 0
M  V30 2259 C 208.18 1.8386 -0.855773 0
M  V30 2260 C 208.513 1.84134 0.617103 0
M  V30 2261 O 207.788 1.29041 1.45529 0
M  V30 2262 C 208.071 3.31305 -1.411 0
M  V30 2263 C 207.924 3.39456 -2.9511 0
M  V30 2264 C 209.243 4.2721 -1.05736 0
M  V30 2265 H 206.362 0.667545 -0.312334 0
M  V30 2266 H 209.004 1.31331 -1.37303 0
M  V30 2267 H 207.154 3.76169 -0.97105 0
M  V30 2268 H 208.826 3.03191 -3.47668 0
M  V30 2269 H 207.069 2.79849 -3.31462 0
M  V30 2270 H 207.74 4.43209 -3.29044 0
M  V30 2271 H 210.216 3.90497 -1.43706 0
M  V30 2272 H 209.092 5.28775 -1.47269 0
M  V30 2273 H 209.353 4.42088 0.0325958 0
M  V30 2274 N 208.412 0.89855 1.29475 0
M  V30 2275 C 209.36 0.365253 2.29714 0
M  V30 2276 C 210.354 -0.534993 1.6073 0
M  V30 2277 O 211.56 -0.417921 1.75081 0
M  V30 2278 H 207.935 0.0994853 0.74539 0
M  V30 2279 H 209.906 1.22406 2.72138 0
M  V30 2280 C 208.655 -0.393159 3.4547 0
M  V30 2281 H 207.978 0.290332 3.98744 0
M  V30 2282 H 209.418 -0.731189 4.17648 0
M  V30 2283 C 207.877 -1.59539 2.9673 0
M  V30 2284 O 208.407 -2.69469 2.97908 0
M  V30 2285 N 206.613 -1.43716 2.52575 0
M  V30 2286 H 206.16 -0.542828 2.51816 0
M  V30 2287 H 206.118 -2.24288 2.20323 0
M  V30 2288 N 209.89 -1.43072 0.660911 0
M  V30 2289 C 210.8 -2.34585 -0.0264163 0
M  V30 2290 C 211.816 -1.54316 -0.803898 0
M  V30 2291 O 212.992 -1.86939 -0.749391 0
M  V30 2292 C 210.057 -3.32689 -0.975639 0
M  V30 2293 C 209.118 -4.2886 -0.194236 0
M  V30 2294 C 208.351 -5.22278 -1.09825 0
M  V30 2295 O 208.574 -5.20299 -2.33763 0
M  V30 2296 O 207.508 -5.99228 -0.566513 0
M  V30 2297 H 211.334 -2.94869 0.727034 0
M  V30 2298 H 208.919 -1.43342 0.42111 0
M  V30 2299 H 210.801 -3.92995 -1.52094 0
M  V30 2300 H 209.476 -2.74898 -1.70918 0
M  V30 2301 H 208.383 -3.72011 0.394835 0
M  V30 2302 H 209.716 -4.89655 0.499899 0
M  V30 2303 N 211.368 -0.403325 -1.52352 0
M  V30 2304 C 212.316 0.439752 -2.28405 0
M  V30 2305 C 213.31 1.05089 -1.32863 0
M  V30 2306 O 214.516 0.989759 -1.50345 0
M  V30 2307 H 210.891 0.160587 -0.734653 0
M  V30 2308 H 212.862 -0.222983 -2.97566 0
M  V30 2309 C 211.611 1.54736 -3.11371 0
M  V30 2310 H 210.934 1.08643 -3.84755 0
M  V30 2311 H 212.374 2.1112 -3.67701 0
M  V30 2312 C 210.833 2.51141 -2.24566 0
M  V30 2313 O 211.363 3.54887 -1.88196 0
M  V30 2314 N 209.569 2.21213 -1.8845 0
M  V30 2315 H 209.116 1.36878 -2.18225 0
M  V30 2316 H 209.074 2.85963 -1.30662 0
M  V30 2317 N 212.846 1.57033 -0.133567 0
M  V30 2318 C 213.776 2.1909 0.807567 0
M  V30 2319 C 214.757 1.13517 1.26681 0
M  V30 2320 O 215.942 1.41809 1.32679 0
M  V30 2321 C 213.072 2.80188 2.05212 0
M  V30 2322 C 212.026 3.91471 1.73015 0
M  V30 2323 C 211.352 4.39443 3.04622 0
M  V30 2324 C 212.652 5.12886 0.987168 0
M  V30 2325 H 214.346 2.97988 0.290403 0
M  V30 2326 H 211.892 1.43335 0.138239 0
M  V30 2327 H 213.845 3.22264 2.71521 0
M  V30 2328 H 212.569 1.98601 2.59278 0
M  V30 2329 H 211.228 3.49993 1.0909 0
M  V30 2330 H 210.876 3.54695 3.56651 0
M  V30 2331 H 210.576 5.14495 2.83847 0
M  V30 2332 H 212.1 4.8418 3.72024 0
M  V30 2333 H 213.514 5.51891 1.55208 0
M  V30 2334 H 211.911 5.93615 0.87985 0
M  V30 2335 H 212.981 4.84894 -0.0235286 0
M  V30 2336 N 214.325 -0.140222 1.56975 0
M  V30 2337 C 215.571 -0.852949 1.83991 0
M  V30 2338 C 215.904 -1.80512 0.716187 0
M  V30 2339 O 215.179 -1.92479 -0.279681 0
M  V30 2340 C 215.462 -1.6215 3.21527 0
M  V30 2341 C 215.315 -0.690363 4.4447 0
M  V30 2342 C 216.634 -2.58247 3.56366 0
M  V30 2343 H 213.753 -0.308634 0.669264 0
M  V30 2344 H 216.395 -0.117898 1.89634 0
M  V30 2345 H 214.545 -2.24812 3.16847 0
M  V30 2346 H 216.217 -0.0742264 4.6124 0
M  V30 2347 H 214.46 -0.000396433 4.338 0
M  V30 2348 H 215.131 -1.2643 5.37326 0
M  V30 2349 H 217.607 -2.05701 3.61699 0
M  V30 2350 H 216.483 -3.09067 4.53617 0
M  V30 2351 H 216.744 -3.39923 2.82674 0
M  V30 2352 N 215.803 -1.52179 -0.40978 0
M  V30 2353 C 216.713 -1.78364 -1.52392 0
M  V30 2354 C 217.729 -0.669183 -1.60617 0
M  V30 2355 O 218.905 -0.954518 -1.77344 0
M  V30 2356 C 215.97 -1.92822 -2.88133 0
M  V30 2357 C 215.031 -3.16725 -2.898 0
M  V30 2358 C 214.264 -3.30483 -4.19067 0
M  V30 2359 O 214.487 -2.49522 -5.12928 0
M  V30 2360 O 213.421 -4.2363 -4.27576 0
M  V30 2361 H 217.247 -2.72931 -1.33201 0
M  V30 2362 H 214.832 -1.37016 -0.59557 0
M  V30 2363 H 216.714 -2.04157 -3.68643 0
M  V30 2364 H 215.389 -1.01444 -3.07393 0
M  V30 2365 H 214.296 -3.10848 -2.08146 0
M  V30 2366 H 215.629 -4.07881 -2.75489 0
M  V30 2367 N 217.281 0.66697 -1.42791 0
M  V30 2368 C 218.697 0.981027 -1.25889 0
M  V30 2369 C 218.897 2.00793 -0.168695 0
M  V30 2370 O 217.953 2.48321 0.45747 0
M  V30 2371 C 219.266 1.47838 -2.61848 0
M  V30 2372 C 220.814 1.59575 -2.69267 0
M  V30 2373 C 221.289 2.12704 -4.05612 0
M  V30 2374 N 222.78 2.20026 -4.07606 0
M  V30 2375 C 223.515 2.62227 -5.09926 0
M  V30 2376 N 223.011 3.03824 -6.22626 0
M  V30 2377 N 224.804 2.62045 -4.97281 0
M  V30 2378 H 216.955 -0.0127891 -2.12396 0
M  V30 2379 H 219.218 0.0568258 -0.946295 0
M  V30 2380 H 218.924 0.798299 -3.4252 0
M  V30 2381 H 218.798 2.45579 -2.86305 0
M  V30 2382 H 221.185 2.26687 -1.88936 0
M  V30 2383 H 221.266 0.60302 -2.48591 0
M  V30 2384 H 220.91 1.46198 -4.86404 0
M  V30 2385 H 220.84 3.12782 -4.23645 0
M  V30 2386 H 223.331 1.90708 -3.2625 0
M  V30 2387 H 223.644 3.34734 -6.96544 0
M  V30 2388 H 221.989 3.01662 -6.26119 0
M  V30 2389 H 225.18 2.28916 -4.08308 0
M  V30 2390 H 225.353 2.94613 -5.77154 0
M  V30 2391 N 218.759 1.29093 0.90403 0
M  V30 2392 C 220.006 1.16813 1.65411 0
M  V30 2393 C 220.334 -0.28128 1.92455 0
M  V30 2394 O 219.589 -1.22006 1.53013 0
M  V30 2395 C 219.888 1.92224 3.01305 0
M  V30 2396 C 219.554 3.41968 2.93885 0
M  V30 2397 C 218.216 3.82807 2.91569 0
M  V30 2398 C 220.568 4.37409 2.83413 0
M  V30 2399 C 217.896 5.1741 2.76594 0
M  V30 2400 C 220.248 5.72097 2.69977 0
M  V30 2401 C 218.912 6.12199 2.66024 0
M  V30 2402 H 218.182 0.42745 0.605283 0
M  V30 2403 H 220.829 1.59981 1.05254 0
M  V30 2404 H 219.134 1.41635 3.65304 0
M  V30 2405 H 220.831 1.80131 3.58265 0
M  V30 2406 H 217.421 3.09504 2.96488 0
M  V30 2407 H 221.605 4.06813 2.84283 0
M  V30 2408 H 216.861 5.47596 2.71935 0
M  V30 2409 H 221.035 6.45704 2.60844 0
M  V30 2410 H 218.662 7.16448 2.54178 0
M  V30 2411 N 220.237 -1.11381 1.11499 0
M  V30 2412 C 221.462 -1.87475 0.887019 0
M  V30 2413 C 221.887 -1.79639 -0.557796 0
M  V30 2414 O 221.245 -1.15924 -1.39396 0
M  V30 2415 C 221.293 -3.34213 1.35403 0
M  V30 2416 O 220.397 -4.0903 0.526146 0
M  V30 2417 H 219.738 -0.582099 0.319463 0
M  V30 2418 H 222.268 -1.40785 1.48461 0
M  V30 2419 H 222.278 -3.8506 1.34881 0
M  V30 2420 H 220.953 -3.39232 2.40612 0
M  V30 2421 H 219.53 -3.68082 0.597522 0
M  V30 2422 N 221.715 -0.905404 -1.28997 0
M  V30 2423 C 222.647 -0.344748 -2.26592 0
M  V30 2424 C 223.66 0.512135 -1.54535 0
M  V30 2425 O 224.849 0.328368 -1.75454 0
M  V30 2426 C 221.949 0.526587 -3.34784 0
M  V30 2427 C 221.122 -0.305871 -4.36329 0
M  V30 2428 C 220.181 0.499209 -5.23827 0
M  V30 2429 O 219.207 -0.0853004 -5.69136 0
M  V30 2430 N 220.409 1.80408 -5.51755 0
M  V30 2431 H 223.174 -1.18359 -2.75338 0
M  V30 2432 H 220.735 -0.770481 -1.42391 0
M  V30 2433 H 222.727 1.07171 -3.90252 0
M  V30 2434 H 221.297 1.26613 -2.85811 0
M  V30 2435 H 220.517 -1.0324 -3.80441 0
M  V30 2436 H 221.805 -0.875773 -5.01206 0
M  V30 2437 H 221.203 2.3016 -5.16762 0
M  V30 2438 H 219.76 2.29621 -6.10014 0
M  V30 2439 N 223.193 1.4272 -0.668489 0
M  V30 2440 C 224.103 2.34596 0.0139753 0
M  V30 2441 C 225.119 1.5474 0.795703 0
M  V30 2442 O 226.295 1.87334 0.739466 0
M  V30 2443 C 223.36 3.33202 0.957982 0
M  V30 2444 C 222.421 4.28957 0.17149 0
M  V30 2445 C 221.654 5.22853 1.07053 0
M  V30 2446 O 221.877 5.21531 2.31001 0
M  V30 2447 O 220.811 5.9952 0.534727 0
M  V30 2448 H 224.637 2.9448 -0.742661 0
M  V30 2449 H 222.222 1.43117 -0.428705 0
M  V30 2450 H 224.104 3.93796 1.50008 0
M  V30 2451 H 222.779 2.758 1.69458 0
M  V30 2452 H 221.686 3.71796 -0.414558 0
M  V30 2453 H 223.019 4.89383 -0.52586 0
M  V30 2454 N 224.671 0.411399 1.52136 0
M  V30 2455 C 225.917 -0.163888 2.02137 0
M  V30 2456 C 226.25 -1.44597 1.29636 0
M  V30 2457 O 225.525 -1.90272 0.403353 0
M  V30 2458 C 225.808 -0.40927 3.57767 0
M  V30 2459 C 225.661 0.889643 4.40914 0
M  V30 2460 C 226.98 -1.19042 4.23694 0
M  V30 2461 H 224.099 -0.0580896 0.734707 0
M  V30 2462 H 226.741 0.54531 1.82007 0
M  V30 2463 H 224.891 -1.0134 3.7505 0
M  V30 2464 H 226.563 1.52575 4.35337 0
M  V30 2465 H 224.806 1.50011 4.07037 0
M  V30 2466 H 225.477 0.672314 5.4789 0
M  V30 2467 H 227.953 -0.678942 4.10524 0
M  V30 2468 H 226.829 -1.33086 5.32522 0
M  V30 2469 H 227.09 -2.21166 3.82803 0
M  V30 2470 N 226.149 -1.5696 0.141893 0
M  V30 2471 C 227.081 -2.13619 -0.830627 0
M  V30 2472 C 228.094 -1.08439 -1.21428 0
M  V30 2473 O 229.283 -1.35734 -1.15925 0
M  V30 2474 C 226.383 -2.63978 -2.12529 0
M  V30 2475 C 225.556 -3.93504 -1.9098 0
M  V30 2476 C 224.615 -4.29225 -3.04388 0
M  V30 2477 O 223.641 -4.97641 -2.76302 0
M  V30 2478 N 224.843 -3.88393 -4.31429 0
M  V30 2479 H 227.608 -2.97691 -0.34641 0
M  V30 2480 H 225.169 -1.61846 -0.0418375 0
M  V30 2481 H 227.161 -2.84891 -2.87436 0
M  V30 2482 H 225.731 -1.84659 -2.52229 0
M  V30 2483 H 224.951 -3.81269 -1.00139 0
M  V30 2484 H 226.239 -4.78154 -1.73914 0
M  V30 2485 H 225.637 -3.33257 -4.57117 0
M  V30 2486 H 224.194 -4.14368 -5.03133 0
M  V30 2487 N 227.627 0.131896 -1.57047 0
M  V30 2488 C 228.876 0.84044 -1.83356 0
M  V30 2489 C 229.189 1.81646 -0.725535 0
M  V30 2490 O 230.395 2.57025 -0.874659 0
M  V30 2491 C 228.851 1.54528 -3.25037 0
M  V30 2492 C 228.459 0.610902 -4.43815 0
M  V30 2493 C 230.203 2.23972 -3.60606 0
M  V30 2494 C 228.11 1.31823 -5.76521 0
M  V30 2495 H 227.04 0.317599 -0.683847 0
M  V30 2496 H 229.691 0.0931561 -1.83263 0
M  V30 2497 H 228.073 2.33873 -3.19561 0
M  V30 2498 H 229.247 -0.148407 -4.60561 0
M  V30 2499 H 227.562 0.0241016 -4.16393 0
M  V30 2500 H 230.159 2.77558 -4.57018 0
M  V30 2501 H 230.502 3.01173 -2.87403 0
M  V30 2502 H 231.035 1.51529 -3.6781 0
M  V30 2503 H 227.774 0.587771 -6.52859 0
M  V30 2504 H 227.294 2.04987 -5.63685 0
M  V30 2505 H 228.973 1.855 -6.19838 0
M  V30 2506 N 229.106 1.52395 0.401703 0
M  V30 2507 C 230.334 1.70676 1.16949 0
M  V30 2508 C 230.749 0.419503 1.8408 0
M  V30 2509 O 230.106 -0.605061 1.72178 0
M  V30 2510 C 230.157 2.84753 2.22706 0
M  V30 2511 O 229.878 4.08495 1.58314 0
M  V30 2512 C 231.379 3.14608 3.12309 0
M  V30 2513 H 228.599 0.571787 0.351142 0
M  V30 2514 H 231.143 1.98987 0.471652 0
M  V30 2515 H 229.298 2.58941 2.88147 0
M  V30 2516 H 229.712 4.72117 2.28485 0
M  V30 2517 H 231.186 3.97923 3.82572 0
M  V30 2518 H 231.663 2.28464 3.75101 0
M  V30 2519 H 232.269 3.42212 2.52529 0
M  V30 2520 N 230.584 -0.659388 1.43143 0
M  V30 2521 C 231.494 -1.80167 1.50256 0
M  V30 2522 C 232.51 -1.69571 0.390106 0
M  V30 2523 O 233.686 -1.90849 0.643319 0
M  V30 2524 C 230.751 -3.16409 1.41725 0
M  V30 2525 C 229.812 -3.38848 2.63591 0
M  V30 2526 C 229.045 -4.68591 2.55458 0
M  V30 2527 O 229.268 -5.47532 1.59891 0
M  V30 2528 O 228.202 -4.92614 3.45854 0
M  V30 2529 H 232.028 -1.77121 2.46702 0
M  V30 2530 H 229.613 -0.817092 1.25076 0
M  V30 2531 H 231.495 -3.9768 1.39387 0
M  V30 2532 H 230.17 -3.20059 0.484118 0
M  V30 2533 H 229.077 -2.57366 2.71502 0
M  V30 2534 H 230.41 -3.4004 3.55856 0
M  V30 2535 N 232.062 -1.29571 -0.897171 0
M  V30 2536 C 233.025 -1.14913 -1.98312 0
M  V30 2537 C 234.025 -0.0838629 -1.60581 0
M  V30 2538 O 235.215 -0.331006 -1.71026 0
M  V30 2539 C 232.347 -0.757835 -3.3237 0
M  V30 2540 H 233.54 -2.11377 -2.12743 0
M  V30 2541 H 231.093 -1.12793 -1.08201 0
M  V30 2542 H 231.828 0.206837 -3.2364 0
M  V30 2543 H 231.613 -1.52755 -3.61121 0
M  V30 2544 H 233.103 -0.678408 -4.12053 0
M  V30 2545 N 233.54 1.10788 -1.12088 0
M  V30 2546 C 234.956 1.34691 -0.856186 0
M  V30 2547 C 235.156 1.94791 0.515615 0
M  V30 2548 O 234.212 2.18524 1.26505 0
M  V30 2549 C 235.525 2.27208 -1.9697 0
M  V30 2550 C 237.073 2.40755 -2.00016 0
M  V30 2551 C 237.548 3.36598 -3.1059 0
M  V30 2552 N 239.039 3.44164 -3.10008 0
M  V30 2553 C 239.774 4.18284 -3.92206 0
M  V30 2554 N 239.27 4.95322 -4.84384 0
M  V30 2555 N 241.063 4.13865 -3.80357 0
M  V30 2556 H 233.214 0.70144 -2.00483 0
M  V30 2557 H 235.477 0.371405 -0.872217 0
M  V30 2558 H 235.183 1.90251 -2.958 0
M  V30 2559 H 235.057 3.27485 -1.87172 0
M  V30 2560 H 237.444 2.76982 -1.01808 0
M  V30 2561 H 237.525 1.40305 -2.13888 0
M  V30 2562 H 237.169 3.01096 -4.09028 0
M  V30 2563 H 237.099 4.36918 -2.93956 0
M  V30 2564 H 239.59 2.8922 -2.43228 0
M  V30 2565 H 239.903 5.49267 -5.43623 0
M  V30 2566 H 238.248 4.94459 -4.884 0
M  V30 2567 H 241.439 3.52773 -3.07683 0
M  V30 2568 H 241.612 4.71372 -4.44649 0
M  V30 2569 N 235.018 0.912232 1.28515 0
M  V30 2570 C 236.258 0.551677 1.96814 0
M  V30 2571 C 236.622 -0.887825 1.7024 0
M  V30 2572 O 237.823 -1.35588 2.32098 0
M  V30 2573 C 236.094 0.850555 3.47132 0
M  V30 2574 S 237.653 0.59619 4.34731 0
M  V30 2575 H 234.471 0.204191 0.681049 0
M  V30 2576 H 237.073 1.17736 1.56072 0
M  V30 2577 H 235.777 1.8962 3.63968 0
M  V30 2578 H 235.308 0.213471 3.9282 0
M  V30 2579 H 237.323 -0.553154 4.93107 0
M  V30 2580 N 236.496 -1.42363 0.676048 0
M  V30 2581 C 237.743 -2.01522 0.19883 0
M  V30 2582 C 238.071 -1.53456 -1.19505 0
M  V30 2583 O 237.326 -0.727967 -1.81657 0
M  V30 2584 C 237.625 -3.56929 0.183431 0
M  V30 2585 C 237.291 -4.24431 1.52215 0
M  V30 2586 C 235.953 -4.42585 1.8887 0
M  V30 2587 C 238.305 -4.62459 2.40377 0
M  V30 2588 C 235.633 -4.96039 3.13309 0
M  V30 2589 C 237.985 -5.17294 3.64129 0
M  V30 2590 C 236.649 -5.33661 4.00951 0
M  V30 2591 H 235.919 -0.737419 0.0727571 0
M  V30 2592 H 238.566 -1.70531 0.871281 0
M  V30 2593 H 236.871 -3.87594 -0.572532 0
M  V30 2594 H 238.568 -4.00486 -0.203035 0
M  V30 2595 H 235.158 -4.10661 1.22701 0
M  V30 2596 H 239.342 -4.48105 2.13343 0
M  V30 2597 H 234.598 -5.06896 3.41857 0
M  V30 2598 H 238.772 -5.45704 4.32644 0
M  V30 2599 H 236.399 -5.74845 4.9745 0
M  V30 2600 N 237.974 -0.419461 -1.51915 0
M  V30 2601 C 239.204 0.151915 -2.06041 0
M  V30 2602 C 239.612 1.38539 -1.28855 0
M  V30 2603 O 238.955 1.80592 -0.336463 0
M  V30 2604 C 239.017 0.557119 -3.55157 0
M  V30 2605 C 238.681 -0.567054 -4.53468 0
M  V30 2606 C 239.678 -1.43379 -4.99738 0
M  V30 2607 C 237.363 -0.742693 -4.96779 0
M  V30 2608 C 239.357 -2.46102 -5.87973 0
M  V30 2609 C 237.044 -1.77322 -5.84808 0
M  V30 2610 C 238.042 -2.63078 -6.30301 0
M  V30 2611 O 237.73 -3.64364 -7.16585 0
M  V30 2612 H 237.462 0.0193293 -0.675724 0
M  V30 2613 H 240.016 -0.592073 -1.96682 0
M  V30 2614 H 238.246 1.35355 -3.62238 0
M  V30 2615 H 239.935 1.05759 -3.9188 0
M  V30 2616 H 240.701 -1.30954 -4.66986 0
M  V30 2617 H 236.58 -0.0848307 -4.60922 0
M  V30 2618 H 240.124 -3.13071 -6.23404 0
M  V30 2619 H 236.021 -1.89773 -6.16974 0
M  V30 2620 H 236.789 -3.60731 -7.34721 0
M  V30 2621 N 239.452 1.56882 -0.150215 0
M  V30 2622 C 240.7 1.9584 0.499105 0
M  V30 2623 C 241.021 1.03623 1.65188 0
M  V30 2624 O 240.291 0.0984084 1.95653 0
M  V30 2625 H 238.871 0.723119 0.187373 0
M  V30 2626 H 241.533 1.9358 -0.226466 0
M  V30 2627 H 240.629 2.99638 0.873122 0
M  V30 2628 N 240.93 -0.123565 1.57115 0
M  V30 2629 C 242.177 -0.832153 1.84612 0
M  V30 2630 C 242.505 -1.80093 0.734627 0
M  V30 2631 O 241.76 -1.93766 -0.27442 0
M  V30 2632 C 242.059 -1.62016 3.18568 0
M  V30 2633 C 241.725 -0.796084 4.43817 0
M  V30 2634 C 240.387 -0.568816 4.77826 0
M  V30 2635 C 242.739 -0.221364 5.2073 0
M  V30 2636 C 240.067 0.243499 5.86194 0
M  V30 2637 C 242.419 0.578117 6.29953 0
M  V30 2638 C 241.083 0.815744 6.62497 0
M  V30 2639 H 240.353 -0.304507 0.675542 0
M  V30 2640 H 243 -0.0947248 1.91266 0
M  V30 2641 H 241.305 -2.42837 3.0747 0
M  V30 2642 H 243.002 -2.17231 3.37064 0
M  V30 2643 H 239.592 -0.983307 4.17168 0
M  V30 2644 H 243.776 -0.384173 4.94811 0
M  V30 2645 H 239.032 0.436871 6.09837 0
M  V30 2646 H 243.206 1.03046 6.88734 0
M  V30 2647 H 240.833 1.44701 7.46301 0
M  V30 2648 N 242.408 -1.52605 -0.393616 0
M  V30 2649 C 243.34 -1.73303 -1.49995 0
M  V30 2650 C 244.353 -0.613473 -1.50799 0
M  V30 2651 O 245.542 -0.889049 -1.54784 0
M  V30 2652 C 242.642 -1.77245 -2.88855 0
M  V30 2653 C 241.815 -3.06483 -3.12069 0
M  V30 2654 C 240.874 -3.02033 -4.30886 0
M  V30 2655 O 239.9 -3.75907 -4.27414 0
M  V30 2656 N 241.102 -2.20897 -5.36828 0
M  V30 2657 H 243.867 -2.68756 -1.32629 0
M  V30 2658 H 241.428 -1.51036 -0.583083 0
M  V30 2659 H 243.42 -1.7178 -3.66434 0
M  V30 2660 H 241.99 -0.891993 -2.99603 0
M  V30 2661 H 241.21 -3.25474 -2.22396 0
M  V30 2662 H 242.498 -3.91947 -3.2443 0
M  V30 2663 H 241.896 -1.60336 -5.42502 0
M  V30 2664 H 240.453 -2.21275 -6.13091 0
M  V30 2665 N 243.887 0.651787 -1.4349 0
M  V30 2666 C 245.136 1.40754 -1.44469 0
M  V30 2667 C 245.449 1.95463 -0.0731845 0
M  V30 2668 O 246.655 2.71471 0.0395721 0
M  V30 2669 C 245.111 2.54735 -2.5424 0
M  V30 2670 C 244.719 2.06628 -3.97504 0
M  V30 2671 C 246.463 3.32092 -2.64414 0
M  V30 2672 C 244.37 3.17829 -4.98737 0
M  V30 2673 H 243.3 0.528862 -0.53742 0
M  V30 2674 H 245.951 0.703365 -1.69485 0
M  V30 2675 H 244.333 3.2763 -2.22428 0
M  V30 2676 H 245.507 1.40734 -4.38783 0
M  V30 2677 H 243.822 1.42146 -3.91387 0
M  V30 2678 H 246.419 4.14952 -3.37223 0
M  V30 2679 H 246.762 3.80217 -1.69532 0
M  V30 2680 H 247.295 2.66279 -2.95534 0
M  V30 2681 H 244.034 2.74671 -5.95177 0
M  V30 2682 H 243.554 3.82429 -4.62069 0
M  V30 2683 H 245.233 3.82937 -5.21505 0
M  V30 2684 N 245.365 1.30045 0.890287 0
M  V30 2685 C 246.328 1.15963 1.977 0
M  V30 2686 C 247.328 0.0923777 1.60534 0
M  V30 2687 O 248.518 0.340071 1.70848 0
M  V30 2688 C 245.65 0.775451 3.31963 0
M  V30 2689 H 246.843 2.12502 2.11619 0
M  V30 2690 H 244.396 1.13366 1.07601 0
M  V30 2691 H 245.131 -0.189671 3.23745 0
M  V30 2692 H 244.916 1.54668 3.60306 0
M  V30 2693 H 246.406 0.700251 4.11687 0
M  V30 2694 N 246.843 -1.10192 1.12674 0
M  V30 2695 C 247.776 -2.15847 0.740625 0
M  V30 2696 C 248.754 -1.60352 -0.269421 0
M  V30 2697 O 249.938 -1.87796 -0.16278 0
M  V30 2698 C 247.065 -3.38562 0.096641 0
M  V30 2699 C 246.111 -4.12758 1.07391 0
M  V30 2700 S 246.944 -4.67997 2.60267 0
M  V30 2701 C 248.1 -5.94021 1.97206 0
M  V30 2702 H 248.333 -2.48266 1.63558 0
M  V30 2703 H 245.866 -1.22019 0.946087 0
M  V30 2704 H 247.824 -4.09621 -0.268535 0
M  V30 2705 H 246.485 -3.04377 -0.775462 0
M  V30 2706 H 245.678 -5.00755 0.570997 0
M  V30 2707 H 245.28 -3.47523 1.38216 0
M  V30 2708 H 247.572 -6.64589 1.31634 0
M  V30 2709 H 248.515 -6.48979 2.83253 0
M  V30 2710 H 248.923 -5.46169 1.42686 0
M  V30 2711 N 248.321 -0.919034 -1.28029 0
M  V30 2712 C 249.231 -0.416756 -2.30869 0
M  V30 2713 C 250.247 0.498235 -1.66714 0
M  V30 2714 O 251.423 0.383144 -1.97722 0
M  V30 2715 C 248.488 0.330274 -3.45123 0
M  V30 2716 C 247.549 -0.618578 -4.2482 0
M  V30 2717 C 246.782 0.0928959 -5.33619 0
M  V30 2718 O 247.005 1.31375 -5.55065 0
M  V30 2719 O 245.939 -0.574499 -5.99152 0
M  V30 2720 H 249.765 -1.27043 -2.75851 0
M  V30 2721 H 247.35 -0.684052 -1.3282 0
M  V30 2722 H 249.232 0.751972 -4.14636 0
M  V30 2723 H 247.907 1.1597 -3.02213 0
M  V30 2724 H 246.814 -1.08978 -3.57875 0
M  V30 2725 H 248.147 -1.41497 -4.71423 0
M  V30 2726 N 249.799 1.42003 -0.683588 0
M  V30 2727 C 250.747 2.326 0.000815408 0
M  V30 2728 C 251.741 1.50308 0.781278 0
M  V30 2729 O 252.947 1.66322 0.688251 0
M  V30 2730 H 249.322 0.751758 0.0190616 0
M  V30 2731 H 251.293 2.88011 -0.780528 0
M  V30 2732 C 250.042 3.34978 0.93195 0
M  V30 2733 H 249.365 3.98345 0.340817 0
M  V30 2734 H 250.805 4.00936 1.37936 0
M  V30 2735 C 249.264 2.67925 2.04249 0
M  V30 2736 O 249.794 2.51788 3.12995 0
M  V30 2737 N 248 2.2681 1.81675 0
M  V30 2738 H 247.547 2.40135 0.932363 0
M  V30 2739 H 247.505 1.8228 2.56167 0
M  V30 2740 N 251.277 0.427512 1.51691 0
M  V30 2741 C 252.526 -0.143679 2.01188 0
M  V30 2742 C 252.839 -1.44642 1.31674 0
M  V30 2743 O 254.045 -2.09997 1.72086 0
M  V30 2744 C 252.501 -0.306602 3.58592 0
M  V30 2745 C 252.109 0.985125 4.37035 0
M  V30 2746 C 253.853 -0.832091 4.16265 0
M  V30 2747 C 251.76 0.788382 5.86122 0
M  V30 2748 H 250.69 -0.0574701 0.751807 0
M  V30 2749 H 253.341 0.555772 1.74881 0
M  V30 2750 H 251.723 -1.06882 3.81303 0
M  V30 2751 H 252.897 1.75492 4.26074 0
M  V30 2752 H 251.212 1.4384 3.90767 0
M  V30 2753 H 253.809 -0.995617 5.25349 0
M  V30 2754 H 254.152 -1.81186 3.74803 0
M  V30 2755 H 254.685 -0.128444 3.97593 0
M  V30 2756 H 251.424 1.74025 6.31978 0
M  V30 2757 H 250.944 0.0582143 5.99772 0
M  V30 2758 H 252.623 0.437722 6.45518 0
M  V30 2759 N 252.755 -1.56801 0.158532 0
M  V30 2760 C 253.705 -2.13923 -0.788738 0
M  V30 2761 C 254.689 -1.07006 -1.2016 0
M  V30 2762 O 255.881 -1.33159 -1.1661 0
M  V30 2763 C 253.01 -2.77348 -2.02319 0
M  V30 2764 C 252.096 -3.91404 -1.6329 0
M  V30 2765 N 252.487 -4.9677 -0.951463 0
M  V30 2766 C 250.785 -4.02326 -1.92482 0
M  V30 2767 C 251.486 -5.76698 -0.761221 0
M  V30 2768 N 250.462 -5.27859 -1.29869 0
M  V30 2769 H 254.264 -2.92757 -0.258995 0
M  V30 2770 H 251.778 -1.62344 -0.0426055 0
M  V30 2771 H 253.775 -3.16639 -2.71192 0
M  V30 2772 H 252.435 -1.99991 -2.558 0
M  V30 2773 H 253.446 -5.14284 -0.610928 0
M  V30 2774 H 250.123 -3.36059 -2.47732 0
M  V30 2775 H 251.513 -6.71529 -0.223284 0
M  V30 2776 N 254.233 0.115231 -1.57178 0
M  V30 2777 C 255.458 0.840354 -1.89612 0
M  V30 2778 C 255.883 1.72464 -0.750845 0
M  V30 2779 O 255.241 1.78826 0.298478 0
M  V30 2780 C 255.289 1.64654 -3.20814 0
M  V30 2781 O 254.393 2.7538 -3.06985 0
M  V30 2782 H 253.734 0.232158 -0.622092 0
M  V30 2783 H 256.264 0.0964977 -2.04372 0
M  V30 2784 H 256.274 2.03499 -3.53627 0
M  V30 2785 H 254.949 0.997416 -4.03763 0
M  V30 2786 H 253.526 2.3971 -2.85646 0
M  V30 2787 N 255.711 1.52812 0.385517 0
M  V30 2788 C 256.621 1.80766 1.49535 0
M  V30 2789 C 257.637 0.694651 1.59532 0
M  V30 2790 O 258.813 0.982611 1.75803 0
M  V30 2791 C 255.878 1.97381 2.85029 0
M  V30 2792 C 254.939 3.21295 2.84724 0
M  V30 2793 C 254.172 3.37108 4.13756 0
M  V30 2794 O 254.395 2.5765 5.08893 0
M  V30 2795 O 253.329 4.30378 4.20783 0
M  V30 2796 H 257.155 2.75015 1.28842 0
M  V30 2797 H 254.74 1.37946 0.573697 0
M  V30 2798 H 256.622 2.09996 3.65349 0
M  V30 2799 H 255.297 1.06322 3.05741 0
M  V30 2800 H 254.204 3.1412 2.03174 0
M  V30 2801 H 255.537 4.12212 2.68965 0
M  V30 2802 N 257.189 -0.644168 1.43834 0
M  V30 2803 C 258.122 -1.76906 1.44151 0
M  V30 2804 C 259.1 -1.59774 0.301857 0
M  V30 2805 O 260.284 -1.81834 0.496841 0
M  V30 2806 C 257.411 -3.14321 1.26174 0
M  V30 2807 C 256.457 -3.50134 2.43533 0
M  V30 2808 S 257.29 -3.49085 4.06079 0
M  V30 2809 C 258.446 -4.89142 3.90501 0
M  V30 2810 H 258.679 -1.76368 2.39336 0
M  V30 2811 H 256.212 -0.817624 1.30974 0
M  V30 2812 H 258.17 -3.93625 1.16489 0
M  V30 2813 H 256.831 -3.12412 0.325224 0
M  V30 2814 H 256.024 -4.50095 2.26783 0
M  V30 2815 H 255.626 -2.78264 2.4989 0
M  V30 2816 H 257.918 -5.78036 3.53385 0
M  V30 2817 H 258.861 -5.10945 4.90246 0
M  V30 2818 H 259.269 -4.63102 3.22795 0
M  V30 2819 N 258.668 -1.30515 -0.883378 0
M  V30 2820 C 259.898 -1.22182 -1.66599 0
M  V30 2821 C 260.306 0.217507 -1.87946 0
M  V30 2822 O 259.649 1.1554 -1.42815 0
M  V30 2823 C 259.711 -1.88146 -3.06335 0
M  V30 2824 C 259.375 -3.37476 -3.08154 0
M  V30 2825 C 260.372 -4.33443 -2.87094 0
M  V30 2826 C 258.057 -3.7895 -3.29701 0
M  V30 2827 C 260.051 -5.68858 -2.8754 0
M  V30 2828 C 257.738 -5.14482 -3.29776 0
M  V30 2829 C 258.736 -6.09246 -3.0872 0
M  V30 2830 O 258.424 -7.42302 -3.08615 0
M  V30 2831 H 258.156 -0.423898 -0.52658 0
M  V30 2832 H 260.71 -1.72703 -1.11188 0
M  V30 2833 H 258.94 -1.32157 -3.63416 0
M  V30 2834 H 260.629 -1.7391 -3.66756 0
M  V30 2835 H 261.395 -4.02733 -2.70243 0
M  V30 2836 H 257.274 -3.05631 -3.45124 0
M  V30 2837 H 260.818 -6.428 -2.71024 0
M  V30 2838 H 256.715 -5.44832 -3.46163 0
M  V30 2839 H 257.483 -7.5131 -3.24769 0
M  V30 2840 N 260.146 1.09593 -1.13257 0
M  V30 2841 C 261.371 1.8604 -0.916732 0
M  V30 2842 C 261.796 1.80504 0.529146 0
M  V30 2843 O 261.154 1.18127 1.37534 0
M  V30 2844 C 261.202 3.32017 -1.40703 0
M  V30 2845 O 260.306 4.08141 -0.591153 0
M  V30 2846 H 259.647 0.576943 -0.328683 0
M  V30 2847 H 262.177 1.38405 -1.50682 0
M  V30 2848 H 262.187 3.82865 -1.4099 0
M  V30 2849 H 260.862 3.35361 -2.45979 0
M  V30 2850 H 259.439 3.67084 -0.656005 0
M  V30 2851 N 261.624 0.925811 1.2754 0
M  V30 2852 C 262.554 0.440748 2.29303 0
M  V30 2853 C 263.535 -0.497971 1.62648 0
M  V30 2854 O 264.72 -0.403126 1.8997 0
M  V30 2855 C 261.85 -0.309048 3.45922 0
M  V30 2856 C 260.804 0.54166 4.24559 0
M  V30 2857 C 260.13 -0.337191 5.33636 0
M  V30 2858 C 261.43 1.80516 4.90114 0
M  V30 2859 H 263.124 1.29121 2.70126 0
M  V30 2860 H 260.67 0.622323 1.29858 0
M  V30 2861 H 262.623 -0.659315 4.1621 0
M  V30 2862 H 261.347 -1.19352 3.04011 0
M  V30 2863 H 260.006 0.874609 3.56014 0
M  V30 2864 H 259.654 -1.22056 4.87966 0
M  V30 2865 H 259.354 0.228497 5.87156 0
M  V30 2866 H 260.878 -0.683072 6.06767 0
M  V30 2867 H 262.292 1.52307 5.52698 0
M  V30 2868 H 260.689 2.3142 5.53683 0
M  V30 2869 H 261.759 2.52581 4.13921 0
M  V30 2870 N 263.102 -1.41638 0.69111 0
M  V30 2871 C 264.032 -2.3347 0.037248 0
M  V30 2872 C 265.013 -1.51575 -0.771947 0
M  V30 2873 O 266.198 -1.80126 -0.72582 0
M  V30 2874 C 263.328 -3.35354 -0.903064 0
M  V30 2875 C 262.282 -4.27526 -0.201288 0
M  V30 2876 C 261.608 -5.19747 -1.25565 0
M  V30 2877 C 262.908 -5.13959 0.929689 0
M  V30 2878 H 264.602 -2.88397 0.804227 0
M  V30 2879 H 262.148 -1.38669 0.388189 0
M  V30 2880 H 264.101 -3.98519 -1.36969 0
M  V30 2881 H 262.825 -2.78767 -1.70166 0
M  V30 2882 H 261.484 -3.65779 0.245265 0
M  V30 2883 H 261.132 -4.59479 -2.04666 0
M  V30 2884 H 260.832 -5.8225 -0.791128 0
M  V30 2885 H 262.356 -5.85789 -1.72288 0
M  V30 2886 H 263.77 -5.70718 0.543546 0
M  V30 2887 H 262.167 -5.85379 1.32103 0
M  V30 2888 H 263.237 -4.51389 1.77133 0
M  V30 2889 N 264.58 -0.43555 -1.51462 0
M  V30 2890 C 265.829 0.133007 -2.01261 0
M  V30 2891 C 266.142 1.43942 -1.32439 0
M  V30 2892 O 267.348 2.09081 -1.73198 0
M  V30 2893 C 265.804 0.287581 -3.58749 0
M  V30 2894 C 265.412 -1.00829 -4.36506 0
M  V30 2895 C 267.156 0.810004 -4.167 0
M  V30 2896 C 265.063 -0.819454 -5.85695 0
M  V30 2897 H 263.993 0.0534822 -0.752101 0
M  V30 2898 H 266.644 -0.565038 -1.74584 0
M  V30 2899 H 265.026 1.04859 -3.81865 0
M  V30 2900 H 266.2 -1.77749 -4.25138 0
M  V30 2901 H 264.515 -1.45911 -3.89999 0
M  V30 2902 H 267.112 0.967743 -5.2587 0
M  V30 2903 H 267.455 1.79196 -3.75758 0
M  V30 2904 H 267.988 0.107357 -3.97655 0
M  V30 2905 H 264.727 -1.77374 -6.31046 0
M  V30 2906 H 264.247 -0.0900208 -5.99732 0
M  V30 2907 H 265.926 -0.471949 -6.45276 0
M  V30 2908 N 266.058 1.56714 -0.166846 0
M  V30 2909 C 267.335 1.88412 0.525373 0
M  V30 2910 C 267.715 1.07602 1.81618 0
M  V30 2911 O 267.063 0.168621 2.27877 0
M  V30 2912 C 267.273 3.40363 0.771613 0
M  V30 2913 C 268.621 4.10007 1.1036 0
M  V30 2914 O 269.645 3.45655 0.860304 0
M  V30 2915 O 268.504 5.2369 1.56239 0
M  V30 2916 H 265.598 0.781587 0.270278 0
M  V30 2917 H 268.144 1.68458 -0.204946 0
M  V30 2918 H 266.916 3.91046 -0.141093 0
M  V30 2919 H 266.539 3.65914 1.55541 0
M  V30 2920 N 267.536 -0.106894 1.57237 0
M  V30 2921 C 268.764 -0.826389 1.8968 0
M  V30 2922 C 269.179 -1.72856 0.759353 0
M  V30 2923 O 268.536 -1.80503 -0.269263 0
M  V30 2924 C 268.587 -1.64967 3.21665 0
M  V30 2925 O 268.308 -0.783804 4.31031 0
M  V30 2926 C 269.809 -2.47326 3.67892 0
M  V30 2927 H 267.029 -0.236927 0.627779 0
M  V30 2928 H 269.573 -0.0876593 2.04312 0
M  V30 2929 H 267.728 -2.34103 3.08666 0
M  V30 2930 H 268.142 -1.35284 5.06753 0
M  V30 2931 H 269.616 -3.00604 4.6297 0
M  V30 2932 H 270.093 -3.25247 2.95146 0
M  V30 2933 H 270.699 -1.83411 3.83719 0
M  V30 2934 N 269.014 -1.53014 -0.377408 0
M  V30 2935 C 270.244 -1.72265 -1.14054 0
M  V30 2936 C 270.652 -0.44601 -1.83868 0
M  V30 2937 O 269.995 0.590095 -1.73964 0
M  V30 2938 C 270.057 -2.82492 -2.22348 0
M  V30 2939 C 269.721 -4.23233 -1.72402 0
M  V30 2940 C 270.718 -5.05992 -1.19448 0
M  V30 2941 C 268.403 -4.696 -1.78273 0
M  V30 2942 C 270.397 -6.33203 -0.730268 0
M  V30 2943 C 268.084 -5.96792 -1.31464 0
M  V30 2944 C 269.082 -6.78424 -0.789297 0
M  V30 2945 O 268.77 -8.0323 -0.328077 0
M  V30 2946 H 268.502 -0.579873 -0.347453 0
M  V30 2947 H 271.056 -2.00502 -0.445882 0
M  V30 2948 H 269.286 -2.49702 -2.95272 0
M  V30 2949 H 270.975 -2.90034 -2.83963 0
M  V30 2950 H 271.741 -4.71349 -1.14259 0
M  V30 2951 H 267.62 -4.06142 -2.18106 0
M  V30 2952 H 271.164 -6.96868 -0.319542 0
M  V30 2953 H 267.061 -6.30937 -1.36342 0
M  V30 2954 H 267.829 -8.1727 -0.448493 0
M  V30 2955 N 270.492 0.636531 -1.44174 0
M  V30 2956 C 271.741 1.39213 -1.45954 0
M  V30 2957 C 272.054 1.95374 -0.0939119 0
M  V30 2958 O 273.26 2.71498 0.0107767 0
M  V30 2959 C 271.716 2.52025 -2.56927 0
M  V30 2960 C 271.324 2.024 -3.99673 0
M  V30 2961 C 273.068 3.29269 -2.67922 0
M  V30 2962 C 270.975 3.12521 -5.0208 0
M  V30 2963 H 269.905 0.523132 -0.542999 0
M  V30 2964 H 272.556 0.685349 -1.70221 0
M  V30 2965 H 270.938 3.25253 -2.25891 0
M  V30 2966 H 272.112 1.36073 -4.40251 0
M  V30 2967 H 270.427 1.37987 -3.92872 0
M  V30 2968 H 273.024 4.11352 -3.41605 0
M  V30 2969 H 273.367 3.78397 -1.73555 0
M  V30 2970 H 273.9 2.63129 -2.98342 0
M  V30 2971 H 270.639 2.68343 -5.98057 0
M  V30 2972 H 270.159 3.77507 -4.66099 0
M  V30 2973 H 271.838 3.77385 -5.25538 0
M  V30 2974 N 271.97 1.30982 0.876444 0
M  V30 2975 C 272.917 1.18085 1.98304 0
M  V30 2976 C 273.887 0.0682263 1.6596 0
M  V30 2977 O 275.072 0.239937 1.89285 0
M  V30 2978 C 272.212 0.887475 3.33493 0
M  V30 2979 C 271.325 2.08281 3.78475 0
M  V30 2980 C 270.46 1.72678 5.0235 0
M  V30 2981 C 269.499 2.88657 5.39762 0
M  V30 2982 N 268.636 2.53292 6.54819 0
M  V30 2983 H 273.476 2.1275 2.08666 0
M  V30 2984 H 271.013 1.05839 1.02159 0
M  V30 2985 H 272.971 0.697961 4.1132 0
M  V30 2986 H 271.601 -0.022315 3.22792 0
M  V30 2987 H 270.653 2.3833 2.96484 0
M  V30 2988 H 271.965 2.95108 4.02135 0
M  V30 2989 H 271.119 1.50151 5.87826 0
M  V30 2990 H 269.858 0.830327 4.8058 0
M  V30 2991 H 268.863 3.1184 4.52809 0
M  V30 2992 H 270.088 3.79002 5.63502 0
M  V30 2993 H 268.034 1.66163 6.34607 0
M  V30 2994 H 267.951 3.3365 6.7839 0
M  V30 2995 H 269.219 2.34143 7.43503 0
M  V30 2996 N 273.449 -1.08991 1.13837 0
M  V30 2997 C 274.726 -1.77863 0.813876 0
M  V30 2998 C 275.106 -1.99375 -0.693746 0
M  V30 2999 O 274.454 -1.59875 -1.63255 0
M  V30 3000 C 274.664 -3.0986 1.60586 0
M  V30 3001 C 276.012 -3.84493 1.8014 0
M  V30 3002 O 277.036 -3.19624 1.57222 0
M  V30 3003 O 275.895 -5.00957 2.18413 0
M  V30 3004 H 272.989 -0.771589 0.297624 0
M  V30 3005 H 275.535 -1.15507 1.24323 0
M  V30 3006 H 274.307 -2.89715 2.63022 0
M  V30 3007 H 273.93 -3.79942 1.17173 0
M  V30 3008 N 274.927 -0.932562 -1.27047 0
M  V30 3009 C 276.338 -0.619451 -1.76124 0
M  V30 3010 C 276.689 0.865397 -1.76083 0
M  V30 3011 O 275.814 1.67722 -1.36742 0
M  V30 3012 C 276.409 -1.11771 -3.19832 0
M  V30 3013 C 274.968 -0.855174 -3.66557 0
M  V30 3014 C 274.115 -1.27362 -2.46321 0
M  V30 3015 H 277.066 -1.11181 -1.13245 0
M  V30 3016 H 277.087 -0.46759 -3.77616 0
M  V30 3017 H 276.599 -2.19842 -3.1983 0
M  V30 3018 H 274.7 0.211524 -3.71999 0
M  V30 3019 H 274.813 -1.47613 -4.55793 0
M  V30 3020 H 273.177 -0.692119 -2.45116 0
M  V30 3021 H 273.96 -2.36307 -2.49025 0
M  V30 3022 N 276.405 1.4127 -0.698611 0
M  V30 3023 C 277.352 2.30773 -0.0352094 0
M  V30 3024 C 278.322 1.47273 0.768111 0
M  V30 3025 O 279.507 1.76053 0.735524 0
M  V30 3026 C 276.647 3.33346 0.893 0
M  V30 3027 C 275.76 4.31924 0.0809695 0
M  V30 3028 C 274.895 5.21566 1.0071 0
M  V30 3029 C 273.934 6.11811 0.188155 0
M  V30 3030 N 273.071 6.93926 1.06825 0
M  V30 3031 H 277.911 2.86943 -0.804207 0
M  V30 3032 H 275.448 1.4132 -0.408294 0
M  V30 3033 H 277.406 3.91368 1.44523 0
M  V30 3034 H 276.036 2.78719 1.62836 0
M  V30 3035 H 275.088 3.75825 -0.588224 0
M  V30 3036 H 276.4 4.95716 -0.553801 0
M  V30 3037 H 275.554 5.84437 1.62845 0
M  V30 3038 H 274.293 4.58008 1.67572 0
M  V30 3039 H 273.298 5.47986 -0.446254 0
M  V30 3040 H 274.523 6.77425 -0.476716 0
M  V30 3041 H 272.469 6.32973 1.72283 0
M  V30 3042 H 272.386 7.54416 0.489123 0
M  V30 3043 H 273.654 7.61262 1.67632 0
M  V30 3044 N 277.883 0.443576 1.51229 0
M  V30 3045 C 278.793 -0.370721 2.31652 0
M  V30 3046 C 279.809 -1.02186 1.40833 0
M  V30 3047 O 280.985 -1.01586 1.73903 0
M  V30 3048 C 278.05 -1.45376 3.14749 0
M  V30 3049 C 277.111 -0.822099 4.21355 0
M  V30 3050 C 276.344 -1.85353 5.0048 0
M  V30 3051 O 276.567 -3.07656 4.80316 0
M  V30 3052 O 275.501 -1.4406 5.84406 0
M  V30 3053 H 279.327 0.286002 3.0235 0
M  V30 3054 H 276.912 0.20598 1.47973 0
M  V30 3055 H 278.794 -2.08173 3.66391 0
M  V30 3056 H 277.469 -2.09445 2.46809 0
M  V30 3057 H 276.376 -0.155909 3.73775 0
M  V30 3058 H 277.709 -0.224797 4.91686 0
M  V30 3059 N 279.361 -1.56624 0.175154 0
M  V30 3060 C 280.777 -1.58571 -0.180966 0
M  V30 3061 C 280.977 -1.19065 -1.6256 0
M  V30 3062 O 280.033 -0.904044 -2.35761 0
M  V30 3063 C 281.346 -3.00522 0.103326 0
M  V30 3064 C 282.894 -3.12972 0.0418426 0
M  V30 3065 C 283.369 -4.57022 0.299175 0
M  V30 3066 N 284.86 -4.62541 0.247086 0
M  V30 3067 C 285.595 -5.71857 0.420318 0
M  V30 3068 N 285.091 -6.89717 0.652816 0
M  V30 3069 N 286.884 -5.60972 0.355957 0
M  V30 3070 H 279.035 -1.80589 1.11809 0
M  V30 3071 H 281.298 -0.837178 0.444788 0
M  V30 3072 H 281.004 -3.33916 1.10422 0
M  V30 3073 H 280.878 -3.72344 -0.603299 0
M  V30 3074 H 283.265 -2.79403 -0.949636 0
M  V30 3075 H 283.346 -2.43578 0.781238 0
M  V30 3076 H 282.99 -4.913 1.28788 0
M  V30 3077 H 282.92 -5.24579 -0.460876 0
M  V30 3078 H 285.411 -3.77829 0.0731895 0
M  V30 3079 H 285.724 -7.68911 0.774347 0
M  V30 3080 H 284.069 -6.91572 0.689476 0
M  V30 3081 H 287.26 -4.67773 0.174882 0
M  V30 3082 H 287.433 -6.46111 0.494388 0
M  V30 3083 N 280.839 0.0985539 -1.57292 0
M  V30 3084 C 281.749 1.13824 -2.05137 0
M  V30 3085 C 282.765 1.44076 -0.975604 0
M  V30 3086 O 283.941 1.54786 -1.28853 0
M  V30 3087 C 281.006 2.43969 -2.46333 0
M  V30 3088 C 280.067 2.2093 -3.68087 0
M  V30 3089 C 279.3 3.44869 -4.0731 0
M  V30 3090 O 279.523 4.52972 -3.46659 0
M  V30 3091 O 278.457 3.34661 -5.00285 0
M  V30 3092 H 282.283 0.761881 -2.93988 0
M  V30 3093 H 279.868 0.310818 -1.46131 0
M  V30 3094 H 281.75 3.20609 -2.73473 0
M  V30 3095 H 280.425 2.81038 -1.60621 0
M  V30 3096 H 279.332 1.42081 -3.46069 0
M  V30 3097 H 280.665 1.88755 -4.54568 0
M  V30 3098 N 282.317 1.53212 0.369288 0
M  V30 3099 C 283.564 1.69215 1.11232 0
M  V30 3100 C 283.892 0.442048 1.8941 0
M  V30 3101 O 283.147 -0.575944 1.87033 0
M  V30 3102 C 283.446 2.89101 2.10132 0
M  V30 3103 C 283.112 4.25758 1.48463 0
M  V30 3104 C 281.774 4.6292 1.31372 0
M  V30 3105 C 284.126 5.10757 1.03811 0
M  V30 3106 C 281.454 5.82722 0.68207 0
M  V30 3107 C 283.806 6.31201 0.420487 0
M  V30 3108 C 282.47 6.67079 0.237038 0
M  V30 3109 H 281.74 0.619201 0.407027 0
M  V30 3110 H 284.387 1.87391 0.394552 0
M  V30 3111 H 282.692 2.65421 2.88199 0
M  V30 3112 H 284.389 2.98676 2.6757 0
M  V30 3113 H 280.979 3.96494 1.62758 0
M  V30 3114 H 285.163 4.82599 1.1581 0
M  V30 3115 H 280.419 6.09113 0.528316 0
M  V30 3116 H 284.593 6.96368 0.0662874 0
M  V30 3117 H 282.22 7.59774 -0.254477 0
M  V30 3118 N 283.795 -0.628877 1.44509 0
M  V30 3119 C 284.725 -1.75187 1.54376 0
M  V30 3120 C 285.706 -1.65411 0.396618 0
M  V30 3121 O 286.891 -1.84137 0.617031 0
M  V30 3122 C 284.021 -3.13725 1.48976 0
M  V30 3123 C 282.975 -3.38291 2.62189 0
M  V30 3124 C 282.301 -4.76883 2.41841 0
M  V30 3125 C 283.601 -3.30632 4.04326 0
M  V30 3126 H 285.295 -1.67187 2.48373 0
M  V30 3127 H 282.841 -0.802909 1.19538 0
M  V30 3128 H 284.794 -3.92064 1.54478 0
M  V30 3129 H 283.518 -3.22515 0.514961 0
M  V30 3130 H 282.177 -2.62334 2.56079 0
M  V30 3131 H 281.825 -4.82378 1.42548 0
M  V30 3132 H 281.525 -4.94278 3.17747 0
M  V30 3133 H 283.049 -5.57449 2.49165 0
M  V30 3134 H 284.463 -3.98873 4.11793 0
M  V30 3135 H 282.86 -3.59561 4.80454 0
M  V30 3136 H 283.93 -2.28404 4.27738 0
M  V30 3137 N 285.273 -1.31445 -0.869486 0
M  V30 3138 C 286.52 -1.21158 -1.62256 0
M  V30 3139 C 286.848 0.230155 -1.93133 0
M  V30 3140 O 286.103 1.17906 -1.56194 0
M  V30 3141 C 286.402 -2.00145 -2.96102 0
M  V30 3142 C 286.068 -3.4964 -2.84715 0
M  V30 3143 C 284.73 -3.90403 -2.81317 0
M  V30 3144 C 287.082 -4.44769 -2.71716 0
M  V30 3145 C 284.41 -5.24561 -2.62778 0
M  V30 3146 C 286.762 -5.79054 -2.54714 0
M  V30 3147 C 285.426 -6.19037 -2.49699 0
M  V30 3148 H 284.696 -0.443348 -0.593737 0
M  V30 3149 H 287.343 -1.62715 -1.00976 0
M  V30 3150 H 285.648 -1.5127 -3.6142 0
M  V30 3151 H 287.345 -1.89566 -3.53363 0
M  V30 3152 H 283.935 -3.17256 -2.88178 0
M  V30 3153 H 288.119 -4.14208 -2.73397 0
M  V30 3154 H 283.375 -5.54613 -2.57321 0
M  V30 3155 H 287.549 -6.52393 -2.43632 0
M  V30 3156 H 285.176 -7.22935 -2.35093 0
M  V30 3157 N 286.751 1.08385 -1.14413 0
M  V30 3158 C 287.699 2.17406 -0.826888 0
M  V30 3159 C 288.693 1.6827 0.195312 0
M  V30 3160 O 289.899 1.79927 0.0513892 0
M  V30 3161 H 286.274 0.70934 -0.249681 0
M  V30 3162 H 288.245 2.41388 -1.75426 0
M  V30 3163 C 286.994 3.46215 -0.320979 0
M  V30 3164 H 286.317 3.84401 -1.0989 0
M  V30 3165 H 287.757 4.23777 -0.137549 0
M  V30 3166 C 286.216 3.23067 0.955472 0
M  V30 3167 O 286.746 3.4668 2.02918 0
M  V30 3168 N 284.952 2.7661 0.890798 0
M  V30 3169 H 284.499 2.57594 0.0168815 0
M  V30 3170 H 284.457 2.61501 1.74542 0
M  V30 3171 N 288.23 0.939286 1.26551 0
M  V30 3172 C 289.193 0.451987 2.24699 0
M  V30 3173 C 290.193 -0.435869 1.5478 0
M  V30 3174 O 291.383 -0.235314 1.72603 0
M  V30 3175 C 288.515 -0.348801 3.39111 0
M  V30 3176 H 289.708 1.3193 2.69322 0
M  V30 3177 H 287.261 0.721072 1.38673 0
M  V30 3178 H 287.996 -1.23444 2.99887 0
M  V30 3179 H 287.781 0.287945 3.91041 0
M  V30 3180 H 289.271 -0.679726 4.12031 0
M  V30 3181 N 289.708 -1.40897 0.706093 0
M  V30 3182 C 290.957 -2.00284 0.238574 0
M  V30 3183 C 291.27 -1.56604 -1.17194 0
M  V30 3184 O 292.476 -2.08624 -1.73748 0
M  V30 3185 C 290.932 -3.57934 0.375623 0
M  V30 3186 C 290.54 -4.10591 1.79217 0
M  V30 3187 C 292.284 -4.24488 -0.0315857 0
M  V30 3188 C 290.191 -5.60712 1.88032 0
M  V30 3189 H 289.121 -0.749144 0.0854398 0
M  V30 3190 H 291.772 -1.61251 0.875813 0
M  V30 3191 H 290.154 -3.94622 -0.330042 0
M  V30 3192 H 291.328 -3.85301 2.52745 0
M  V30 3193 H 289.643 -3.56601 2.15 0
M  V30 3194 H 292.24 -5.34698 0.0136842 0
M  V30 3195 H 292.583 -4.02261 -1.072 0
M  V30 3196 H 293.116 -3.92873 0.624181 0
M  V30 3197 H 289.855 -5.87781 2.90161 0
M  V30 3198 H 289.375 -5.87896 1.18903 0
M  V30 3199 H 291.054 -6.25658 1.64805 0
M  V30 3200 N 291.186 -0.45159 -1.50991 0
M  V30 3201 C 292.096 0.358431 -2.31846 0
M  V30 3202 C 293.112 1.01438 -1.41373 0
M  V30 3203 O 294.288 1.00663 -1.74439 0
M  V30 3204 C 291.353 1.43704 -3.15515 0
M  V30 3205 C 290.414 0.799742 -4.21785 0
M  V30 3206 C 289.647 1.82696 -5.01456 0
M  V30 3207 O 289.87 3.05105 -4.81941 0
M  V30 3208 O 288.804 1.40958 -5.85162 0
M  V30 3209 H 292.63 -0.302032 -3.02194 0
M  V30 3210 H 290.215 -0.213825 -1.47862 0
M  V30 3211 H 292.097 2.06227 -3.67489 0
M  V30 3212 H 290.772 2.08133 -2.47916 0
M  V30 3213 H 289.679 0.136084 -3.73852 0
M  V30 3214 H 291.012 0.198718 -4.91799 0
M  V30 3215 N 292.664 1.56529 -0.183458 0
M  V30 3216 C 293.892 2.01623 0.464285 0
M  V30 3217 C 294.307 1.06366 1.55986 0
M  V30 3218 O 293.664 0.0665398 1.82379 0
M  V30 3219 C 293.715 3.46475 1.03139 0
M  V30 3220 O 293.436 4.38095 -0.0204675 0
M  V30 3221 C 294.937 4.0703 1.75617 0
M  V30 3222 H 292.157 0.660596 0.117704 0
M  V30 3223 H 294.701 2.02451 -0.288751 0
M  V30 3224 H 292.856 3.46383 1.73486 0
M  V30 3225 H 293.27 5.22973 0.399952 0
M  V30 3226 H 294.744 5.10271 2.10542 0
M  V30 3227 H 295.221 3.49819 2.65563 0
M  V30 3228 H 295.827 4.1086 1.09882 0
M  V30 3229 N 294.142 -0.090211 1.57342 0
M  V30 3230 C 295.075 -1.14035 1.97664 0
M  V30 3231 C 296.053 -1.38576 0.850616 0
M  V30 3232 O 297.237 -1.52255 1.11134 0
M  V30 3233 C 294.364 -2.48854 2.2976 0
M  V30 3234 C 293.41 -2.40564 3.52181 0
M  V30 3235 S 294.243 -1.81745 5.03715 0
M  V30 3236 C 295.399 -3.18178 5.38993 0
M  V30 3237 H 295.632 -0.796636 2.86428 0
M  V30 3238 H 293.165 -0.298072 1.51496 0
M  V30 3239 H 295.123 -3.26413 2.48927 0
M  V30 3240 H 293.784 -2.80393 1.41558 0
M  V30 3241 H 292.977 -3.39942 3.72096 0
M  V30 3242 H 292.579 -1.71135 3.32549 0
M  V30 3243 H 294.871 -4.14461 5.35937 0
M  V30 3244 H 295.814 -3.03062 6.39968 0
M  V30 3245 H 296.222 -3.17935 4.66452 0
M  V30 3246 N 295.62 -1.53406 -0.361157 0
M  V30 3247 C 297.031 -1.61442 -0.937728 0
M  V30 3248 C 297.382 -0.48461 -1.90121 0
M  V30 3249 O 296.507 0.388312 -2.12888 0
M  V30 3250 C 297.102 -2.92624 -1.70753 0
M  V30 3251 C 295.661 -3.02981 -2.23337 0
M  V30 3252 C 294.808 -2.5677 -1.04712 0
M  V30 3253 H 297.759 -1.58083 -0.139816 0
M  V30 3254 H 297.78 -2.80675 -2.56908 0
M  V30 3255 H 297.292 -3.74834 -1.00604 0
M  V30 3256 H 295.393 -2.25368 -2.96715 0
M  V30 3257 H 295.506 -4.0814 -2.50916 0
M  V30 3258 H 293.87 -2.11752 -1.41539 0
M  V30 3259 H 294.653 -3.41402 -0.360539 0
M  V30 3260 N 297.098 0.621204 -1.44841 0
M  V30 3261 C 298.338 1.39201 -1.49674 0
M  V30 3262 C 298.702 1.91561 -0.129764 0
M  V30 3263 O 299.903 2.68748 -0.0527814 0
M  V30 3264 C 298.174 2.519 -2.53537 0
M  V30 3265 S 299.733 3.39916 -2.77494 0
M  V30 3266 H 296.551 0.474758 -0.529269 0
M  V30 3267 H 299.153 0.718171 -1.81831 0
M  V30 3268 H 297.857 2.11761 -3.51547 0
M  V30 3269 H 297.388 3.241 -2.22986 0
M  V30 3270 H 299.403 4.49646 -2.0984 0
M  V30 3271 N 298.576 1.31904 0.862503 0
M  V30 3272 C 299.822 1.22197 1.61851 0
M  V30 3273 C 300.155 -0.217641 1.92977 0
M  V30 3274 O 299.43 -1.15264 1.56666 0
M  V30 3275 C 299.713 2.07378 2.94391 0
M  V30 3276 C 299.566 3.59678 2.70096 0
M  V30 3277 C 300.885 1.92891 3.95577 0
M  V30 3278 H 298.004 0.445255 0.587296 0
M  V30 3279 H 300.646 1.6177 0.99651 0
M  V30 3280 H 298.796 1.73758 3.47477 0
M  V30 3281 H 300.468 4.03472 2.23625 0
M  V30 3282 H 298.711 3.82735 2.04197 0
M  V30 3283 H 299.382 4.14595 3.64438 0
M  V30 3284 H 301.858 2.22327 3.51724 0
M  V30 3285 H 300.734 2.54781 4.86187 0
M  V30 3286 H 300.995 0.894315 4.3296 0
M  V30 3287 N 300.054 -1.07777 1.14986 0
M  V30 3288 C 301.001 -2.14867 0.842672 0
M  V30 3289 C 301.971 -1.6486 -0.202552 0
M  V30 3290 O 303.156 -1.90668 -0.0710568 0
M  V30 3291 C 300.296 -3.43486 0.333363 0
M  V30 3292 C 299.409 -4.07306 1.43965 0
M  V30 3293 C 298.544 -5.23744 0.886914 0
M  V30 3294 C 297.583 -5.79517 1.97043 0
M  V30 3295 N 296.72 -6.87291 1.4344 0
M  V30 3296 H 301.56 -2.40485 1.75986 0
M  V30 3297 H 299.097 -1.1801 0.878179 0
M  V30 3298 H 301.055 -4.17195 0.0198163 0
M  V30 3299 H 299.685 -3.18133 -0.546916 0
M  V30 3300 H 298.737 -3.31293 1.86946 0
M  V30 3301 H 300.049 -4.44771 2.25788 0
M  V30 3302 H 299.203 -6.04419 0.525651 0
M  V30 3303 H 297.942 -4.87685 0.0377957 0
M  V30 3304 H 296.947 -4.97491 2.34057 0
M  V30 3305 H 298.172 -6.17632 2.82325 0
M  V30 3306 H 296.118 -6.5318 0.607567 0
M  V30 3307 H 296.035 -7.23617 2.18895 0
M  V30 3308 H 297.303 -7.71682 1.10124 0
M  V30 3309 N 301.532 -0.945985 -1.26051 0
M  V30 3310 C 302.479 -0.45809 -2.26208 0
M  V30 3311 C 303.449 0.484816 -1.58867 0
M  V30 3312 O 304.634 0.399969 -1.86561 0
M  V30 3313 C 301.774 0.266131 -3.44072 0
M  V30 3314 C 300.887 -0.713005 -4.26075 0
M  V30 3315 C 300.022 0.0329013 -5.3119 0
M  V30 3316 C 299.061 -0.93774 -6.04874 0
M  V30 3317 N 298.198 -0.223274 -7.01745 0
M  V30 3318 H 303.038 -1.3171 -2.67313 0
M  V30 3319 H 300.575 -0.66069 -1.31428 0
M  V30 3320 H 302.533 0.702514 -4.11243 0
M  V30 3321 H 301.163 1.08925 -3.03867 0
M  V30 3322 H 300.215 -1.26789 -3.58648 0
M  V30 3323 H 301.527 -1.45406 -4.77136 0
M  V30 3324 H 300.681 0.528335 -6.04395 0
M  V30 3325 H 299.42 0.806801 -4.8098 0
M  V30 3326 H 298.425 -1.44425 -5.30492 0
M  V30 3327 H 299.65 -1.71172 -6.57173 0
M  V30 3328 H 297.596 0.532046 -6.53839 0
M  V30 3329 H 297.513 -0.90357 -7.50581 0
M  V30 3330 H 298.781 0.250907 -7.79096 0
M  V30 3331 N 303.011 1.40521 -0.713556 0
M  V30 3332 C 303.958 2.30723 -0.059684 0
M  V30 3333 C 304.928 1.48079 0.752448 0
M  V30 3334 O 306.113 1.76823 0.71681 0
M  V30 3335 C 303.253 3.34274 0.857594 0
M  V30 3336 C 302.366 4.31986 0.0351536 0
M  V30 3337 C 301.501 5.22605 0.951724 0
M  V30 3338 C 300.54 6.11976 0.123253 0
M  V30 3339 N 299.677 6.9502 0.99459 0
M  V30 3340 H 304.517 2.86074 -0.834596 0
M  V30 3341 H 302.054 1.40879 -0.42326 0
M  V30 3342 H 304.012 3.92879 1.40364 0
M  V30 3343 H 302.642 2.8043 1.59871 0
M  V30 3344 H 301.694 3.7518 -0.628052 0
M  V30 3345 H 303.006 4.95101 -0.606347 0
M  V30 3346 H 302.16 5.86131 1.56638 0
M  V30 3347 H 300.899 4.59759 1.62705 0
M  V30 3348 H 299.904 5.47482 -0.50435 0
M  V30 3349 H 301.129 6.76881 -0.548539 0
M  V30 3350 H 299.075 6.34764 1.6556 0
M  V30 3351 H 298.992 7.54892 0.40908 0
M  V30 3352 H 300.26 7.62997 1.59549 0
M  V30 3353 N 304.489 0.459591 1.5075 0
M  V30 3354 C 305.452 -0.329093 2.26825 0
M  V30 3355 C 306.452 -0.930481 1.31144 0
M  V30 3356 O 307.642 -0.801453 1.54669 0
M  V30 3357 C 304.774 -1.46768 3.07688 0
M  V30 3358 H 305.967 0.337924 2.9799 0
M  V30 3359 H 303.52 0.213336 1.54837 0
M  V30 3360 H 304.255 -2.17009 2.40993 0
M  V30 3361 H 304.04 -1.04238 3.77991 0
M  V30 3362 H 305.53 -2.02433 3.65254 0
M  V30 3363 N 305.967 -1.56429 0.191757 0
M  V30 3364 C 307.244 -1.89224 -0.495332 0
M  V30 3365 C 307.624 -1.10478 -1.79883 0
M  V30 3366 O 306.972 -0.204852 -2.2758 0
M  V30 3367 C 307.182 -3.41548 -0.717367 0
M  V30 3368 C 308.53 -4.11711 -1.03823 0
M  V30 3369 O 309.554 -3.4698 -0.805204 0
M  V30 3370 O 308.413 -5.2611 -1.47887 0
M  V30 3371 H 305.507 -0.785788 -0.25781 0
M  V30 3372 H 308.053 -1.68111 0.231721 0
M  V30 3373 H 306.825 -3.90772 0.203287 0
M  V30 3374 H 306.448 -3.68342 -1.497 0
M  V30 3375 N 307.445 0.0818655 -1.57387 0
M  V30 3376 C 308.691 0.778884 -1.87896 0
M  V30 3377 C 309.046 1.75692 -0.784229 0
M  V30 3378 O 308.339 1.90417 0.212567 0
M  V30 3379 C 308.533 1.53513 -3.22752 0
M  V30 3380 C 308.362 0.631838 -4.45239 0
M  V30 3381 C 307.132 0.272571 -5.04564 0
M  V30 3382 C 309.33 -0.0670191 -5.14256 0
M  V30 3383 N 307.312 -0.637498 -6.10581 0
M  V30 3384 C 308.683 -0.834653 -6.14356 0
M  V30 3385 C 310.738 -0.139551 -4.97704 0
M  V30 3386 C 309.441 -1.66806 -6.99691 0
M  V30 3387 C 311.467 -0.959903 -5.83558 0
M  V30 3388 C 310.829 -1.71561 -6.83188 0
M  V30 3389 H 306.928 0.260764 -0.737242 0
M  V30 3390 H 309.512 0.0408227 -1.94657 0
M  V30 3391 H 307.683 2.24398 -3.17018 0
M  V30 3392 H 309.415 2.18038 -3.40942 0
M  V30 3393 H 306.17 0.62319 -4.69482 0
M  V30 3394 H 306.594 -1.08548 -6.68241 0
M  V30 3395 H 311.236 0.430376 -4.20604 0
M  V30 3396 H 308.954 -2.249 -7.76174 0
M  V30 3397 H 312.54 -1.01887 -5.72809 0
M  V30 3398 H 311.42 -2.34017 -7.48469 0
M  V30 3399 N 308.923 1.53595 0.353017 0
M  V30 3400 C 309.886 1.80232 1.41594 0
M  V30 3401 C 310.886 0.673081 1.46035 0
M  V30 3402 O 312.076 0.941335 1.46576 0
M  V30 3403 C 309.208 1.93578 2.80607 0
M  V30 3404 H 310.401 2.75174 1.19244 0
M  V30 3405 H 307.954 1.44864 0.586872 0
M  V30 3406 H 308.689 1.00746 3.08254 0
M  V30 3407 H 308.474 2.75724 2.78781 0
M  V30 3408 H 309.964 2.15735 3.57558 0
M  V30 3409 N 310.401 -0.613514 1.45168 0
M  V30 3410 C 311.331 -1.7354 1.56225 0
M  V30 3411 C 312.312 -1.64981 0.41414 0
M  V30 3412 O 313.497 -1.83472 0.636526 0
M  V30 3413 C 310.627 -3.12128 1.52295 0
M  V30 3414 C 309.581 -3.35491 2.65762 0
M  V30 3415 C 308.907 -4.74291 2.46885 0
M  V30 3416 C 310.207 -3.26325 4.0781 0
M  V30 3417 H 311.901 -1.64543 2.50132 0
M  V30 3418 H 309.447 -0.790185 1.20383 0
M  V30 3419 H 311.4 -3.90404 1.58628 0
M  V30 3420 H 310.124 -3.2195 0.549139 0
M  V30 3421 H 308.783 -2.59603 2.58847 0
M  V30 3422 H 308.431 -4.80839 1.47657 0
M  V30 3423 H 308.131 -4.9088 3.22972 0
M  V30 3424 H 309.655 -5.54775 2.55063 0
M  V30 3425 H 311.069 -3.94483 4.16 0
M  V30 3426 H 309.466 -3.54445 4.8424 0
M  V30 3427 H 310.536 -2.23855 4.30136 0
M  V30 3428 N 311.879 -1.3236 -0.855495 0
M  V30 3429 C 313.295 -1.11332 -1.14356 0
M  V30 3430 C 313.495 0.106751 -2.01217 0
M  V30 3431 O 312.551 0.791891 -2.39761 0
M  V30 3432 C 313.864 -2.39237 -1.82171 0
M  V30 3433 C 315.412 -2.44986 -1.9481 0
M  V30 3434 C 315.887 -3.7281 -2.66039 0
M  V30 3435 N 317.378 -3.73787 -2.73565 0
M  V30 3436 C 318.113 -4.69394 -3.29327 0
M  V30 3437 N 317.609 -5.75367 -3.85907 0
M  V30 3438 N 319.402 -4.56893 -3.27423 0
M  V30 3439 H 311.553 -2.10586 -0.277027 0
M  V30 3440 H 313.816 -0.929701 -0.185364 0
M  V30 3441 H 313.522 -3.28431 -1.25802 0
M  V30 3442 H 313.396 -2.50134 -2.82335 0
M  V30 3443 H 315.783 -1.56252 -2.50338 0
M  V30 3444 H 315.864 -2.38043 -0.936448 0
M  V30 3445 H 315.508 -4.61918 -2.11174 0
M  V30 3446 H 315.438 -3.77024 -3.67642 0
M  V30 3447 H 317.929 -2.97189 -2.33424 0
M  V30 3448 H 318.242 -6.44378 -4.26611 0
M  V30 3449 H 316.587 -5.79123 -3.84242 0
M  V30 3450 H 319.778 -3.73269 -2.82467 0
M  V30 3451 H 319.951 -5.31577 -3.7058 0
M  V30 3452 N 313.357 1.07166 -1.15556 0
M  V30 3453 C 314.603 1.80222 -0.942961 0
M  V30 3454 C 314.958 1.85121 0.524209 0
M  V30 3455 O 314.251 1.32531 1.38369 0
M  V30 3456 C 314.445 3.24707 -1.49332 0
M  V30 3457 C 314.274 3.33887 -3.01247 0
M  V30 3458 C 313.044 3.44337 -3.69811 0
M  V30 3459 C 315.242 3.24484 -3.99017 0
M  V30 3460 N 313.224 3.42439 -5.09518 0
M  V30 3461 C 314.595 3.29726 -5.25053 0
M  V30 3462 C 316.65 3.08307 -3.90962 0
M  V30 3463 C 315.353 3.20455 -6.43973 0
M  V30 3464 C 317.379 3.00371 -5.09442 0
M  V30 3465 C 316.741 3.06227 -6.34354 0
M  V30 3466 H 312.84 0.672709 -0.398731 0
M  V30 3467 H 315.424 1.27905 -1.46794 0
M  V30 3468 H 313.595 3.7544 -0.994946 0
M  V30 3469 H 315.327 3.85894 -1.21935 0
M  V30 3470 H 312.082 3.48762 -3.20409 0
M  V30 3471 H 312.506 3.45013 -5.8249 0
M  V30 3472 H 317.148 3.02633 -2.95251 0
M  V30 3473 H 314.866 3.24888 -7.39914 0
M  V30 3474 H 318.452 2.88955 -5.04971 0
M  V30 3475 H 317.332 3.00132 -7.24493 0
M  V30 3476 N 314.835 0.952656 1.25548 0
M  V30 3477 C 316.084 0.602053 1.92505 0
M  V30 3478 C 316.397 -0.864663 1.75451 0
M  V30 3479 O 317.603 -1.32514 2.36965 0
M  V30 3480 C 316.059 1.02607 3.44963 0
M  V30 3481 C 315.667 2.51519 3.70732 0
M  V30 3482 C 317.411 0.747905 4.1786 0
M  V30 3483 C 315.318 2.87732 5.16686 0
M  V30 3484 H 314.248 0.22146 0.720744 0
M  V30 3485 H 316.899 1.15684 1.42441 0
M  V30 3486 H 315.281 0.399712 3.93978 0
M  V30 3487 H 316.455 3.19157 3.32378 0
M  V30 3488 H 314.77 2.76786 3.11092 0
M  V30 3489 H 317.367 0.994647 5.25367 0
M  V30 3490 H 317.71 -0.315629 4.15102 0
M  V30 3491 H 318.243 1.33452 3.74747 0
M  V30 3492 H 314.982 3.93095 5.24554 0
M  V30 3493 H 314.502 2.24765 5.56094 0
M  V30 3494 H 316.181 2.76817 5.84792 0
M  V30 3495 N 316.313 -1.40141 0.720998 0
M  V30 3496 C 317.561 -2.0039 0.262323 0
M  V30 3497 C 317.882 -1.57469 -1.15015 0
M  V30 3498 O 317.152 -0.816582 -1.78069 0
M  V30 3499 H 315.732 -0.741063 0.093996 0
M  V30 3500 H 318.394 -1.71398 0.927835 0
M  V30 3501 H 317.49 -3.10658 0.299671 0
M  V30 3502 N 317.792 -0.46758 -1.50504 0
M  V30 3503 C 319.069 0.15003 -1.95024 0
M  V30 3504 C 319.449 1.57304 -1.40779 0
M  V30 3505 O 318.797 2.20281 -0.607319 0
M  V30 3506 C 319.007 0.0969324 -3.48865 0
M  V30 3507 C 320.355 0.287565 -4.23625 0
M  V30 3508 O 321.379 0.173678 -3.55776 0
M  V30 3509 O 320.238 0.517186 -5.44047 0
M  V30 3510 H 317.332 0.113582 -0.819163 0
M  V30 3511 H 319.878 -0.52773 -1.61286 0
M  V30 3512 H 318.65 -0.896732 -3.80886 0
M  V30 3513 H 318.273 0.816303 -3.8913 0
M  V30 3514 N 319.27 1.56325 -0.20005 0
M  V30 3515 C 320.217 2.1932 0.718833 0
M  V30 3516 C 321.187 1.14198 1.20615 0
M  V30 3517 O 322.372 1.42469 1.26914 0
M  V30 3518 C 319.512 2.86041 1.93066 0
M  V30 3519 C 318.625 4.05702 1.48425 0
M  V30 3520 C 317.76 4.60266 2.65196 0
M  V30 3521 C 316.799 5.72273 2.17185 0
M  V30 3522 N 315.936 6.21221 3.27152 0
M  V30 3523 H 320.776 2.97486 0.17489 0
M  V30 3524 H 318.313 1.46911 0.0745794 0
M  V30 3525 H 320.271 3.22897 2.64184 0
M  V30 3526 H 318.901 2.1043 2.44783 0
M  V30 3527 H 317.953 3.74475 0.668755 0
M  V30 3528 H 319.265 4.86699 1.09204 0
M  V30 3529 H 318.419 4.99453 3.4443 0
M  V30 3530 H 317.158 3.78386 3.07693 0
M  V30 3531 H 316.163 5.3261 1.36407 0
M  V30 3532 H 317.388 6.55974 1.75713 0
M  V30 3533 H 315.334 5.42263 3.69171 0
M  V30 3534 H 315.251 6.97284 2.92116 0
M  V30 3535 H 316.519 6.65063 4.06585 0
M  V30 3536 N 320.748 -0.0735177 1.57428 0
M  V30 3537 C 321.658 -1.10547 2.06922 0
M  V30 3538 C 322.674 -1.42506 0.998402 0
M  V30 3539 O 323.85 -1.52717 1.31299 0
M  V30 3540 C 320.915 -2.40019 2.50184 0
M  V30 3541 C 319.976 -2.15046 3.71556 0
M  V30 3542 C 319.209 -3.38345 4.12745 0
M  V30 3543 O 319.432 -4.47399 3.53822 0
M  V30 3544 O 318.366 -3.2666 5.05546 0
M  V30 3545 H 322.192 -0.715013 2.95163 0
M  V30 3546 H 319.777 -0.287531 1.46607 0
M  V30 3547 H 321.659 -3.16218 2.78539 0
M  V30 3548 H 320.334 -2.78447 1.65072 0
M  V30 3549 H 319.241 -1.36558 3.48285 0
M  V30 3550 H 320.574 -1.81499 4.57514 0
M  V30 3551 N 322.226 -1.5378 -0.344866 0
M  V30 3552 C 323.189 -1.80981 -1.40637 0
M  V30 3553 C 324.189 -0.680816 -1.45676 0
M  V30 3554 O 325.379 -0.949095 -1.46075 0
M  V30 3555 C 322.511 -1.95063 -2.79577 0
M  V30 3556 H 323.704 -2.75803 -1.17783 0
M  V30 3557 H 321.257 -1.45173 -0.579181 0
M  V30 3558 H 321.992 -1.02379 -3.07716 0
M  V30 3559 H 321.777 -2.77198 -2.77315 0
M  V30 3560 H 323.267 -2.17629 -3.56409 0
M  V30 3561 N 323.704 0.605807 -1.45491 0
M  V30 3562 C 324.932 1.39136 -1.5313 0
M  V30 3563 C 325.347 1.88082 -0.164507 0
M  V30 3564 O 324.704 1.62316 0.834247 0
M  V30 3565 C 324.755 2.59463 -2.51716 0
M  V30 3566 O 324.476 2.12551 -3.83084 0
M  V30 3567 C 325.977 3.52301 -2.6907 0
M  V30 3568 H 323.197 0.425849 -0.51855 0
M  V30 3569 H 325.741 0.73865 -1.90694 0
M  V30 3570 H 323.896 3.20772 -2.17219 0
M  V30 3571 H 324.31 2.90744 -4.36541 0
M  V30 3572 H 325.784 4.33271 -3.42024 0
M  V30 3573 H 326.261 4.02757 -1.75167 0
M  V30 3574 H 326.867 2.96845 -3.04571 0
M  V30 3575 N 325.182 1.32811 0.848464 0
M  V30 3576 C 326.412 1.26556 1.63301 0
M  V30 3577 C 326.82 -0.1676 1.88456 0
M  V30 3578 O 326.163 -1.11713 1.45828 0
M  V30 3579 C 326.225 1.96202 3.01239 0
M  V30 3580 C 325.889 3.45528 2.99098 0
M  V30 3581 C 326.886 4.40903 2.75501 0
M  V30 3582 C 324.571 3.87558 3.19537 0
M  V30 3583 C 326.565 5.76282 2.72356 0
M  V30 3584 C 324.252 5.23044 3.16019 0
M  V30 3585 C 325.25 6.17217 2.92458 0
M  V30 3586 O 324.938 7.50223 2.88825 0
M  V30 3587 H 324.67 0.43771 0.515156 0
M  V30 3588 H 327.224 1.7559 1.0657 0
M  V30 3589 H 325.454 1.41746 3.59785 0
M  V30 3590 H 327.143 1.83573 3.62016 0
M  V30 3591 H 327.909 4.09756 2.5947 0
M  V30 3592 H 323.788 3.14674 3.369 0
M  V30 3593 H 327.332 6.4976 2.53886 0
M  V30 3594 H 323.229 5.53818 3.31596 0
M  V30 3595 H 323.997 7.59657 3.04735 0
M  V30 3596 N 326.66 -1.06551 1.16123 0
M  V30 3597 C 327.908 -1.78947 0.939267 0
M  V30 3598 C 328.229 -1.87532 -0.534476 0
M  V30 3599 O 327.499 -1.38211 -1.38833 0
M  V30 3600 H 326.079 -0.662807 0.344523 0
M  V30 3601 H 328.741 -1.28725 1.46342 0
M  V30 3602 H 327.837 -2.81117 1.35572 0
M  V30 3603 N 328.138 -0.959301 -1.25041 0
M  V30 3604 C 329.048 -0.489994 -2.29426 0
M  V30 3605 C 330.064 0.444944 -1.68215 0
M  V30 3606 O 331.24 0.320046 -1.98841 0
M  V30 3607 C 328.305 0.220309 -3.45999 0
M  V30 3608 C 327.366 -0.753418 -4.22637 0
M  V30 3609 C 326.599 -0.076918 -5.33645 0
M  V30 3610 O 326.822 1.13649 -5.58963 0
M  V30 3611 O 325.756 -0.764824 -5.97021 0
M  V30 3612 H 329.582 -1.35755 -2.71669 0
M  V30 3613 H 327.167 -0.725961 -1.30576 0
M  V30 3614 H 329.049 0.619677 -4.16819 0
M  V30 3615 H 327.724 1.06296 -3.0575 0
M  V30 3616 H 326.631 -1.20308 -3.54227 0
M  V30 3617 H 327.964 -1.56423 -4.66683 0
M  V30 3618 N 329.616 1.39756 -0.72842 0
M  V30 3619 C 331.032 1.5442 -0.403308 0
M  V30 3620 C 331.232 1.69694 1.08656 0
M  V30 3621 O 330.288 1.69373 1.87267 0
M  V30 3622 C 331.601 2.76555 -1.18058 0
M  V30 3623 C 333.149 2.90384 -1.16815 0
M  V30 3624 C 333.624 4.15449 -1.92785 0
M  V30 3625 N 335.115 4.22475 -1.89918 0
M  V30 3626 C 335.85 5.1818 -2.45514 0
M  V30 3627 N 335.346 6.19714 -3.09719 0
M  V30 3628 N 337.139 5.1035 -2.35584 0
M  V30 3629 H 329.29 1.28089 -1.69431 0
M  V30 3630 H 331.553 0.620327 -0.716867 0
M  V30 3631 H 331.259 2.7159 -2.23455 0
M  V30 3632 H 331.133 3.69033 -0.780662 0
M  V30 3633 H 333.52 2.94846 -0.12234 0
M  V30 3634 H 333.601 1.98988 -1.6074 0
M  V30 3635 H 333.245 4.11749 -2.97364 0
M  V30 3636 H 333.175 5.05877 -1.46272 0
M  V30 3637 H 335.666 3.49743 -1.43138 0
M  V30 3638 H 335.979 6.8919 -3.49625 0
M  V30 3639 H 334.324 6.20121 -3.13807 0
M  V30 3640 H 337.515 4.2996 -1.85072 0
M  V30 3641 H 337.688 5.84761 -2.79211 0
M  V30 3642 N 331.094 0.475555 1.50254 0
M  V30 3643 C 332.34 -0.0780073 2.0265 0
M  V30 3644 C 332.673 -1.38968 1.35652 0
M  V30 3645 O 331.948 -1.8839 0.483691 0
M  V30 3646 C 332.231 -0.257161 3.59181 0
M  V30 3647 C 332.084 1.07585 4.36744 0
M  V30 3648 C 333.403 -1.00965 4.28362 0
M  V30 3649 H 330.522 -0.0268758 0.73651 0
M  V30 3650 H 333.164 0.622015 1.7953 0
M  V30 3651 H 331.314 -0.853412 3.79011 0
M  V30 3652 H 332.986 1.70902 4.28474 0
M  V30 3653 H 331.229 1.6714 4.00308 0
M  V30 3654 H 331.9 0.904088 5.44546 0
M  V30 3655 H 334.376 -0.504214 4.13034 0
M  V30 3656 H 333.252 -1.10381 5.37687 0
M  V30 3657 H 333.513 -2.04731 3.91839 0
M  V30 3658 N 332.573 -1.56217 0.208337 0
M  V30 3659 C 333.819 -1.98242 -0.427552 0
M  V30 3660 C 334.152 -1.09554 -1.60348 0
M  V30 3661 O 333.427 -0.15035 -1.93918 0
M  V30 3662 C 333.71 -3.4931 -0.874907 0
M  V30 3663 C 333.563 -4.48773 0.303751 0
M  V30 3664 C 334.882 -4.04424 -1.73577 0
M  V30 3665 H 332.001 -0.720744 -0.153936 0
M  V30 3666 H 334.643 -1.87586 0.30192 0
M  V30 3667 H 332.793 -3.58522 -1.49648 0
M  V30 3668 H 334.465 -4.51586 0.941682 0
M  V30 3669 H 332.708 -4.23194 0.953375 0
M  V30 3670 H 333.379 -5.51976 -0.0519883 0
M  V30 3671 H 335.855 -3.98075 -1.21143 0
M  V30 3672 H 334.731 -5.1047 -2.01771 0
M  V30 3673 H 334.992 -3.50494 -2.69456 0
M  V30 3674 N 334.051 0.0651679 -1.57465 0
M  V30 3675 C 335.014 1.06117 -2.03155 0
M  V30 3676 C 336.014 1.31204 -0.929632 0
M  V30 3677 O 337.204 1.26813 -1.19432 0
M  V30 3678 C 334.336 2.4032 -2.41783 0
M  V30 3679 H 335.529 0.667231 -2.92383 0
M  V30 3680 H 333.082 0.311075 -1.53173 0
M  V30 3681 H 333.817 2.84532 -1.55601 0
M  V30 3682 H 333.602 2.23451 -3.22199 0
M  V30 3683 H 335.092 3.11898 -2.77685 0
M  V30 3684 N 335.529 1.53961 0.336706 0
M  V30 3685 C 336.776 1.71536 1.07618 0
M  V30 3686 C 337.104 0.482125 1.8843 0
M  V30 3687 O 336.359 -0.536142 1.88213 0
M  V30 3688 C 336.658 2.93493 2.03953 0
M  V30 3689 C 336.324 4.28811 1.39399 0
M  V30 3690 C 334.986 4.65602 1.21523 0
M  V30 3691 C 337.338 5.12844 0.929541 0
M  V30 3692 C 334.666 5.84037 0.558312 0
M  V30 3693 C 337.018 6.31951 0.286505 0
M  V30 3694 C 335.682 6.67432 0.0954869 0
M  V30 3695 H 334.952 0.627696 0.393801 0
M  V30 3696 H 337.599 1.88186 0.354715 0
M  V30 3697 H 335.904 2.71475 2.82504 0
M  V30 3698 H 337.601 3.04285 2.61174 0
M  V30 3699 H 334.191 3.99858 1.54311 0
M  V30 3700 H 338.375 4.84947 1.05548 0
M  V30 3701 H 333.631 6.10097 0.398995 0
M  V30 3702 H 337.805 6.96352 -0.0814376 0
M  V30 3703 H 335.432 7.59063 -0.415579 0
M  V30 3704 N 337.007 -0.598083 1.45811 0
M  V30 3705 C 337.97 -1.69018 1.54808 0
M  V30 3706 C 338.97 -1.55037 0.426652 0
M  V30 3707 O 340.16 -1.59932 0.690456 0
M  V30 3708 C 337.292 -3.0835 1.45371 0
M  V30 3709 H 338.485 -1.62403 2.52121 0
M  V30 3710 H 336.038 -0.814626 1.33392 0
M  V30 3711 H 336.773 -3.20534 0.492793 0
M  V30 3712 H 336.558 -3.19907 2.26721 0
M  V30 3713 H 338.048 -3.8788 1.54721 0
M  V30 3714 N 338.485 -1.33259 -0.841409 0
M  V30 3715 C 339.448 -1.23221 -1.9326 0
M  V30 3716 C 340.448 -0.151895 -1.60081 0
M  V30 3717 O 341.638 -0.403246 -1.69468 0
M  V30 3718 C 338.77 -0.898123 -3.28856 0
M  V30 3719 H 339.963 -2.2021 -2.03587 0
M  V30 3720 H 337.516 -1.17281 -1.03319 0
M  V30 3721 H 338.251 0.0693841 -3.24226 0
M  V30 3722 H 338.036 -1.67934 -3.54317 0
M  V30 3723 H 339.526 -0.852563 -4.08805 0
M  V30 3724 N 339.963 1.05934 -1.16686 0
M  V30 3725 C 341.209 1.79065 -0.95203 0
M  V30 3726 C 341.542 1.87147 0.518629 0
M  V30 3727 O 340.817 1.36574 1.38484 0
M  V30 3728 C 341.1 3.23359 -1.58464 0
M  V30 3729 C 340.953 3.23336 -3.12689 0
M  V30 3730 C 342.272 4.21004 -1.28232 0
M  V30 3731 H 339.391 0.65005 -0.34728 0
M  V30 3732 H 342.033 1.23868 -1.44072 0
M  V30 3733 H 340.183 3.70493 -1.16908 0
M  V30 3734 H 341.855 2.84336 -3.6325 0
M  V30 3735 H 340.098 2.61886 -3.4583 0
M  V30 3736 H 340.769 4.25144 -3.52075 0
M  V30 3737 H 343.245 3.8233 -1.64203 0
M  V30 3738 H 342.121 5.20225 -1.75092 0
M  V30 3739 H 342.382 4.41639 -0.201791 0
M  V30 3740 N 341.441 0.965919 1.2453 0
M  V30 3741 C 342.351 0.502154 2.29163 0
M  V30 3742 C 343.367 -0.436017 1.68448 0
M  V30 3743 O 344.543 -0.309497 1.99008 0
M  V30 3744 C 341.608 -0.201956 3.46111 0
M  V30 3745 C 340.669 0.775821 4.22232 0
M  V30 3746 C 339.902 0.105217 5.33596 0
M  V30 3747 O 340.125 -1.10683 5.59558 0
M  V30 3748 O 339.059 0.796475 5.96607 0
M  V30 3749 H 342.885 1.37194 2.70946 0
M  V30 3750 H 340.47 0.732875 1.30189 0
M  V30 3751 H 342.352 -0.597564 4.17142 0
M  V30 3752 H 341.027 -1.04673 3.06309 0
M  V30 3753 H 339.934 1.22185 3.53584 0
M  V30 3754 H 341.267 1.58896 4.65846 0
M  V30 3755 N 342.919 -1.39368 0.735821 0
M  V30 3756 C 344.167 -2.00101 0.283562 0
M  V30 3757 C 344.488 -1.5868 -1.13338 0
M  V30 3758 O 343.758 -0.835423 -1.77193 0
M  V30 3759 H 342.338 -0.740024 0.101851 0
M  V30 3760 H 345 -1.70404 0.945962 0
M  V30 3761 H 344.096 -3.10323 0.332604 0
M  V30 3762 N 344.397 -0.483516 -1.5 0
M  V30 3763 C 345.646 0.0689102 -2.01582 0
M  V30 3764 C 345.959 1.39655 -1.36952 0
M  V30 3765 O 347.165 2.03465 -1.79762 0
M  V30 3766 C 345.621 0.173302 -3.59483 0
M  V30 3767 C 345.229 -1.14665 -4.33077 0
M  V30 3768 C 346.973 0.677024 -4.19066 0
M  V30 3769 C 344.88 -1.00537 -5.82792 0
M  V30 3770 H 343.81 0.0295277 -0.753422 0
M  V30 3771 H 346.461 -0.620295 -1.72698 0
M  V30 3772 H 344.843 0.926569 -3.85007 0
M  V30 3773 H 346.017 -1.91184 -4.19268 0
M  V30 3774 H 344.332 -1.58244 -3.85159 0
M  V30 3775 H 346.929 0.799952 -5.28682 0
M  V30 3776 H 347.272 1.67151 -3.81269 0
M  V30 3777 H 347.805 -0.0192083 -3.97795 0
M  V30 3778 H 344.544 -1.9736 -6.25083 0
M  V30 3779 H 344.064 -0.280776 -5.99142 0
M  V30 3780 H 345.743 -0.677 -6.43448 0
M  V30 3781 N 345.875 1.56104 -0.216619 0
M  V30 3782 C 347.122 1.98172 0.416416 0
M  V30 3783 C 347.45 1.10413 1.60122 0
M  V30 3784 O 346.705 0.147967 1.9514 0
M  V30 3785 C 347.004 3.45923 0.898464 0
M  V30 3786 C 346.67 4.50559 -0.175288 0
M  V30 3787 C 345.332 4.78897 -0.470271 0
M  V30 3788 C 347.684 5.1334 -0.901728 0
M  V30 3789 C 345.012 5.67299 -1.4963 0
M  V30 3790 C 347.364 6.02853 -1.91705 0
M  V30 3791 C 346.028 6.29537 -2.21901 0
M  V30 3792 H 345.298 0.725164 0.152377 0
M  V30 3793 H 347.945 1.88839 -0.318103 0
M  V30 3794 H 346.25 3.52434 1.71165 0
M  V30 3795 H 347.947 3.75841 1.39803 0
M  V30 3796 H 344.537 4.28551 0.0647806 0
M  V30 3797 H 348.721 4.91521 -0.687072 0
M  V30 3798 H 343.977 5.86239 -1.73592 0
M  V30 3799 H 348.151 6.50552 -2.48505 0
M  V30 3800 H 345.778 6.97835 -3.01548 0
M  V30 3801 N 347.353 -0.0568162 1.57498 0
M  V30 3802 C 348.6 -0.753104 1.87975 0
M  V30 3803 C 348.928 -1.76815 0.81035 0
M  V30 3804 O 348.183 -1.94756 -0.19199 0
M  V30 3805 C 348.482 -1.48359 3.25153 0
M  V30 3806 C 348.148 -0.60713 4.46794 0
M  V30 3807 C 346.81 -0.365642 4.79809 0
M  V30 3808 C 349.162 -0.000305978 5.212 0
M  V30 3809 C 346.49 0.491905 5.84634 0
M  V30 3810 C 348.842 0.844781 6.26934 0
M  V30 3811 C 347.506 1.096 6.58441 0
M  V30 3812 H 346.776 -0.27558 0.687849 0
M  V30 3813 H 349.423 -0.0135173 1.91495 0
M  V30 3814 H 347.728 -2.29577 3.17492 0
M  V30 3815 H 349.425 -2.02739 3.45974 0
M  V30 3816 H 346.015 -0.805487 4.20963 0
M  V30 3817 H 350.199 -0.173961 4.95995 0
M  V30 3818 H 345.455 0.695131 6.07436 0
M  V30 3819 H 349.629 1.32165 6.83744 0
M  V30 3820 H 347.256 1.76224 7.39492 0
M  V30 3821 N 348.832 -1.54138 -0.328536 0
M  V30 3822 C 350.057 -1.76378 -1.09112 0
M  V30 3823 C 350.482 -0.508596 -1.81094 0
M  V30 3824 O 349.84 0.539598 -1.73084 0
M  V30 3825 C 349.888 -2.95358 -2.06872 0
M  V30 3826 O 348.992 -2.66556 -3.14677 0
M  V30 3827 H 348.333 -0.584614 -0.314838 0
M  V30 3828 H 350.863 -2.01146 -0.374348 0
M  V30 3829 H 350.873 -3.22566 -2.4983 0
M  V30 3830 H 349.548 -3.86385 -1.5388 0
M  V30 3831 H 348.125 -2.50282 -2.7643 0
M  V30 3832 N 350.31 0.590341 -1.46126 0
M  V30 3833 C 351.558 1.34616 -1.50742 0
M  V30 3834 C 351.879 1.94363 -0.157486 0
M  V30 3835 O 351.149 1.78136 0.815136 0
M  V30 3836 H 349.729 0.499789 -0.555175 0
M  V30 3837 H 352.391 0.691953 -1.82203 0
M  V30 3838 H 351.487 2.15678 -2.25587 0
M  V30 3839 N 351.788 1.33704 0.83433 0
M  V30 3840 C 353.013 1.28615 1.62705 0
M  V30 3841 C 353.438 -0.139242 1.87584 0
M  V30 3842 O 352.796 -1.09734 1.4432 0
M  V30 3843 C 352.844 2.07139 2.95171 0
M  V30 3844 O 351.948 1.4331 3.86699 0
M  V30 3845 H 351.289 0.44226 0.49528 0
M  V30 3846 H 353.819 1.76335 1.03766 0
M  V30 3847 H 353.829 2.18073 3.44831 0
M  V30 3848 H 352.504 3.10779 2.76386 0
M  V30 3849 H 351.081 1.4105 3.45195 0
M  V30 3850 N 353.266 -1.05314 1.17247 0
M  V30 3851 C 354.513 -1.78293 0.960091 0
M  V30 3852 C 354.841 -1.87658 -0.51136 0
M  V30 3853 O 354.096 -1.3718 -1.39571 0
M  V30 3854 C 354.395 -3.2229 1.54479 0
M  V30 3855 C 354.061 -3.32987 3.04024 0
M  V30 3856 C 352.723 -3.35613 3.44844 0
M  V30 3857 C 355.075 -3.34102 4.00031 0
M  V30 3858 C 352.403 -3.36982 4.8027 0
M  V30 3859 C 354.755 -3.3701 5.35357 0
M  V30 3860 C 353.419 -3.37923 5.75642 0
M  V30 3861 H 352.689 -0.652422 0.351322 0
M  V30 3862 H 355.336 -1.23782 1.46117 0
M  V30 3863 H 353.641 -3.7972 0.965391 0
M  V30 3864 H 355.338 -3.77376 1.35603 0
M  V30 3865 H 351.928 -3.31655 2.71483 0
M  V30 3866 H 356.112 -3.31276 3.69554 0
M  V30 3867 H 351.368 -3.35999 5.10798 0
M  V30 3868 H 355.542 -3.36822 6.09528 0
M  V30 3869 H 353.169 -3.38738 6.80559 0
M  V30 3870 N 354.744 -0.972509 -1.24016 0
M  V30 3871 C 355.707 -0.511403 -2.23422 0
M  V30 3872 C 356.707 0.394679 -1.55881 0
M  V30 3873 O 357.897 0.189469 -1.73167 0
M  V30 3874 C 355.029 0.258769 -3.39916 0
M  V30 3875 H 356.222 -1.39024 -2.6573 0
M  V30 3876 H 353.775 -0.757585 -1.36713 0
M  V30 3877 H 354.51 1.1545 -3.03054 0
M  V30 3878 H 354.295 -0.391522 -3.9014 0
M  V30 3879 H 355.785 0.570244 -4.13688 0
M  V30 3880 N 356.222 1.38976 -0.743202 0
M  V30 3881 C 357.447 2.05161 -0.303936 0
M  V30 3882 C 357.872 1.55677 1.05576 0
M  V30 3883 O 357.23 0.704131 1.67068 0
M  V30 3884 C 357.278 3.59138 -0.324373 0
M  V30 3885 O 356.382 4.06668 0.685204 0
M  V30 3886 H 355.723 0.649815 -0.136518 0
M  V30 3887 H 358.253 1.77852 -1.01142 0
M  V30 3888 H 358.263 4.07639 -0.171618 0
M  V30 3889 H 356.938 3.94515 -1.31647 0
M  V30 3890 H 355.515 3.69561 0.497913 0
M  V30 3891 N 357.7 0.491464 1.49741 0
M  V30 3892 C 358.949 -0.0582189 2.01616 0
M  V30 3893 C 359.262 -1.38927 1.3769 0
M  V30 3894 O 360.468 -2.02509 1.80838 0
M  V30 3895 C 358.924 -0.154235 3.59569 0
M  V30 3896 C 358.532 1.1696 4.32463 0
M  V30 3897 C 360.276 -0.65479 4.1942 0
M  V30 3898 C 358.183 1.03627 5.8225 0
M  V30 3899 H 357.113 -0.0255317 0.753568 0
M  V30 3900 H 359.764 0.629445 1.72367 0
M  V30 3901 H 358.146 -0.906138 3.85493 0
M  V30 3902 H 359.32 1.93405 4.18248 0
M  V30 3903 H 357.635 1.60285 3.84315 0
M  V30 3904 H 360.232 -0.771903 5.29099 0
M  V30 3905 H 360.575 -1.65127 3.8215 0
M  V30 3906 H 361.108 0.040304 3.9778 0
M  V30 3907 H 357.847 2.00672 6.24028 0
M  V30 3908 H 357.367 0.312546 5.98985 0
M  V30 3909 H 359.046 0.711114 6.4308 0
M  V30 3910 N 359.178 -1.55987 0.224894 0
M  V30 3911 C 360.425 -1.9839 -0.4059 0
M  V30 3912 C 360.753 -1.11261 -1.59535 0
M  V30 3913 O 360.008 -0.158314 -1.95059 0
M  V30 3914 C 360.307 -3.46394 -0.880106 0
M  V30 3915 C 359.973 -4.5046 0.19918 0
M  V30 3916 C 358.635 -4.7864 0.495661 0
M  V30 3917 C 360.987 -5.12855 0.928939 0
M  V30 3918 C 358.315 -5.66497 1.52636 0
M  V30 3919 C 360.667 -6.01828 1.949 0
M  V30 3920 C 359.331 -6.28351 2.25236 0
M  V30 3921 H 358.601 -0.725961 -0.148529 0
M  V30 3922 H 361.248 -1.88668 0.328113 0
M  V30 3923 H 359.553 -3.53337 -1.69294 0
M  V30 3924 H 361.25 -3.76577 -1.37808 0
M  V30 3925 H 357.84 -4.28579 -0.0420526 0
M  V30 3926 H 362.024 -4.9115 0.713129 0
M  V30 3927 H 357.28 -5.8531 1.76698 0
M  V30 3928 H 361.454 -6.49225 2.51951 0
M  V30 3929 H 359.081 -6.96226 3.05244 0
M  V30 3930 N 360.656 0.0484629 -1.57525 0
M  V30 3931 C 361.902 0.738854 -1.89506 0
M  V30 3932 C 362.257 1.73989 -0.821319 0
M  V30 3933 O 361.55 1.90825 0.172129 0
M  V30 3934 C 361.744 1.46632 -3.25935 0
M  V30 3935 C 361.573 0.537254 -4.46479 0
M  V30 3936 C 360.343 0.165484 -5.05029 0
M  V30 3937 C 362.541 -0.176085 -5.13998 0
M  V30 3938 N 360.523 -0.766868 -6.09091 0
M  V30 3939 C 361.894 -0.96478 -6.12448 0
M  V30 3940 C 363.949 -0.24509 -4.97296 0
M  V30 3941 C 362.652 -1.8161 -6.95996 0
M  V30 3942 C 364.678 -1.08347 -5.81391 0
M  V30 3943 C 364.04 -1.86014 -6.79395 0
M  V30 3944 H 360.139 0.245067 -0.742608 0
M  V30 3945 H 362.723 -0.000476161 -1.947 0
M  V30 3946 H 360.894 2.17623 -3.21706 0
M  V30 3947 H 362.626 2.10757 -3.45491 0
M  V30 3948 H 359.381 0.523466 -4.70698 0
M  V30 3949 H 359.805 -1.22698 -6.65788 0
M  V30 3950 H 364.447 0.341063 -4.21422 0
M  V30 3951 H 362.165 -2.41313 -7.71229 0
M  V30 3952 H 365.751 -1.14014 -5.70519 0
M  V30 3953 H 364.631 -2.4984 -7.43337 0
M  V30 3954 N 362.134 1.5431 0.320358 0
M  V30 3955 C 363.064 1.86912 1.3995 0
M  V30 3956 C 364.045 0.726211 1.53819 0
M  V30 3957 O 365.23 0.980233 1.67646 0
M  V30 3958 C 362.36 2.09932 2.7667 0
M  V30 3959 C 361.314 3.25776 2.77586 0
M  V30 3960 C 360.64 3.34173 4.17412 0
M  V30 3961 C 361.94 4.6335 2.41048 0
M  V30 3962 H 363.634 2.77292 1.12914 0
M  V30 3963 H 361.18 1.33421 0.541738 0
M  V30 3964 H 363.133 2.31324 3.52232 0
M  V30 3965 H 361.857 1.16304 3.0519 0
M  V30 3966 H 360.516 3.04276 2.04479 0
M  V30 3967 H 360.164 2.38098 4.43078 0
M  V30 3968 H 359.864 4.12033 4.18931 0
M  V30 3969 H 361.388 3.57803 4.94782 0
M  V30 3970 H 362.802 4.84602 3.06324 0
M  V30 3971 H 361.199 5.43782 2.53813 0
M  V30 3972 H 362.269 4.65381 1.36193 0
M  V30 3973 N 363.613 -0.582584 1.46437 0
M  V30 3974 C 364.56 -1.69164 1.5701 0
M  V30 3975 C 365.53 -1.60847 0.414403 0
M  V30 3976 O 366.715 -1.80058 0.631171 0
M  V30 3977 C 363.855 -3.075 1.56646 0
M  V30 3978 C 362.968 -3.2644 2.82951 0
M  V30 3979 C 362.103 -4.55026 2.7409 0
M  V30 3980 C 361.142 -4.6731 3.95333 0
M  V30 3981 N 360.279 -5.87221 3.84858 0
M  V30 3982 H 365.119 -1.59464 2.51744 0
M  V30 3983 H 362.656 -0.777186 1.24893 0
M  V30 3984 H 364.614 -3.8757 1.5442 0
M  V30 3985 H 363.244 -3.16096 0.654439 0
M  V30 3986 H 362.296 -2.39974 2.95155 0
M  V30 3987 H 363.608 -3.31385 3.72808 0
M  V30 3988 H 362.762 -5.43324 2.6997 0
M  V30 3989 H 361.501 -4.52519 1.81873 0
M  V30 3990 H 360.506 -3.77429 3.99784 0
M  V30 3991 H 361.731 -4.71595 4.88646 0
M  V30 3992 H 359.677 -5.85712 2.95427 0
M  V30 3993 H 359.594 -5.93435 4.6837 0
M  V30 3994 H 360.862 -6.7795 3.84713 0
M  V30 3995 N 365.091 -1.34144 -0.827227 0
M  V30 3996 C 366.038 -1.25364 -1.93785 0
M  V30 3997 C 367.008 -0.129774 -1.65592 0
M  V30 3998 O 368.193 -0.310024 -1.88264 0
M  V30 3999 C 365.333 -1.01064 -3.2997 0
M  V30 4000 C 364.446 -2.22185 -3.70484 0
M  V30 4001 C 363.581 -1.91203 -4.95595 0
M  V30 4002 C 362.62 -3.08491 -5.28677 0
M  V30 4003 N 361.757 -2.77421 -6.44967 0
M  V30 4004 H 366.597 -2.20347 -2.00627 0
M  V30 4005 H 364.134 -1.09558 -0.981608 0
M  V30 4006 H 366.092 -0.850139 -4.08446 0
M  V30 4007 H 364.722 -0.0975026 -3.22653 0
M  V30 4008 H 363.774 -2.4917 -2.87434 0
M  V30 4009 H 365.086 -3.0983 -3.90905 0
M  V30 4010 H 364.24 -1.71864 -5.81848 0
M  V30 4011 H 362.979 -1.00812 -4.77167 0
M  V30 4012 H 361.984 -3.28431 -4.40923 0
M  V30 4013 H 363.209 -3.99655 -5.49047 0
M  V30 4014 H 361.155 -1.89601 -6.28003 0
M  V30 4015 H 361.072 -3.58598 -6.6554 0
M  V30 4016 H 362.34 -2.61577 -7.34301 0
M  V30 4017 N 366.569 1.04691 -1.17803 0
M  V30 4018 C 367.985 1.29963 -0.926379 0
M  V30 4019 C 368.185 1.97251 0.411635 0
M  V30 4020 O 367.241 2.24922 1.14744 0
M  V30 4021 C 368.554 2.16447 -2.08737 0
M  V30 4022 C 370.102 2.29814 -2.12496 0
M  V30 4023 C 370.577 3.19661 -3.27995 0
M  V30 4024 N 372.068 3.27247 -3.27816 0
M  V30 4025 C 372.803 3.96906 -4.13827 0
M  V30 4026 N 372.299 4.6895 -5.09959 0
M  V30 4027 N 374.092 3.93122 -4.01761 0
M  V30 4028 H 366.243 0.594182 -2.0392 0
M  V30 4029 H 368.506 0.324649 -0.890678 0
M  V30 4030 H 368.212 1.74304 -3.05469 0
M  V30 4031 H 368.086 3.17103 -2.04268 0
M  V30 4032 H 370.473 2.71196 -1.16347 0
M  V30 4033 H 370.554 1.2877 -2.21025 0
M  V30 4034 H 370.198 2.78991 -4.24413 0
M  V30 4035 H 370.128 4.20722 -3.16703 0
M  V30 4036 H 372.619 2.75921 -2.58217 0
M  V30 4037 H 372.932 5.19679 -5.71974 0
M  V30 4038 H 371.277 4.67875 -5.13924 0
M  V30 4039 H 374.468 3.35967 -3.2595 0
M  V30 4040 H 374.641 4.47139 -4.6901 0
M  V30 4041 N 368.047 0.979072 1.23499 0
M  V30 4042 C 369.295 0.645941 1.91499 0
M  V30 4043 C 369.616 -0.822948 1.76784 0
M  V30 4044 O 368.886 -1.58854 1.14639 0
M  V30 4045 H 367.466 0.235919 0.708767 0
M  V30 4046 H 370.128 1.2426 1.50152 0
M  V30 4047 H 369.224 0.896411 2.9895 0
M  V30 4048 N 369.525 -1.3858 0.750561 0
M  V30 4049 C 370.455 -2.33102 0.136237 0
M  V30 4050 C 371.436 -1.54713 -0.706965 0
M  V30 4051 O 372.621 -1.83043 -0.648769 0
M  V30 4052 C 369.751 -3.38882 -0.760017 0
M  V30 4053 C 368.705 -4.27995 -0.0197785 0
M  V30 4054 C 368.031 -5.24605 -1.03408 0
M  V30 4055 C 369.331 -5.09554 1.14684 0
M  V30 4056 H 371.025 -2.84726 0.925822 0
M  V30 4057 H 368.571 -1.36898 0.446654 0
M  V30 4058 H 370.524 -4.0397 -1.19943 0
M  V30 4059 H 369.248 -2.85734 -1.58189 0
M  V30 4060 H 367.907 -3.64409 0.400184 0
M  V30 4061 H 367.555 -4.67746 -1.84994 0
M  V30 4062 H 367.255 -5.85081 -0.543464 0
M  V30 4063 H 368.779 -5.9257 -1.47288 0
M  V30 4064 H 370.193 -5.67899 0.785118 0
M  V30 4065 H 368.59 -5.7925 1.56812 0
M  V30 4066 H 369.66 -4.4347 1.96118 0
M  V30 4067 N 371.003 -0.499398 -1.49478 0
M  V30 4068 C 371.936 0.326491 -2.25852 0
M  V30 4069 C 372.914 0.971776 -1.30366 0
M  V30 4070 O 374.098 1.00219 -1.59651 0
M  V30 4071 C 371.225 1.45969 -3.05632 0
M  V30 4072 C 370.271 0.928938 -4.16261 0
M  V30 4073 S 371.104 -0.179012 -5.35201 0
M  V30 4074 C 372.26 0.957389 -6.18534 0
M  V30 4075 H 372.493 -0.321746 -2.95554 0
M  V30 4076 H 370.026 -0.284674 -1.51753 0
M  V30 4077 H 371.984 2.109 -3.52181 0
M  V30 4078 H 370.645 2.07953 -2.35402 0
M  V30 4079 H 369.838 1.77813 -4.71592 0
M  V30 4080 H 369.44 0.356869 -3.72293 0
M  V30 4081 H 371.732 1.86296 -6.51383 0
M  V30 4082 H 372.675 0.442733 -7.06715 0
M  V30 4083 H 373.083 1.224 -5.5107 0
M  V30 4084 N 372.481 1.55866 -0.233164 0
M  V30 4085 C 373.892 1.847 0.272554 0
M  V30 4086 C 374.243 1.15477 1.58617 0
M  V30 4087 O 373.368 0.42841 2.12117 0
M  V30 4088 C 373.963 3.35071 0.501299 0
M  V30 4089 C 372.522 3.6418 0.951304 0
M  V30 4090 C 371.669 2.77292 0.0208209 0
M  V30 4091 H 374.62 1.52005 -0.456074 0
M  V30 4092 H 374.641 3.55906 1.34577 0
M  V30 4093 H 374.153 3.85424 -0.454936 0
M  V30 4094 H 372.254 3.19293 1.92049 0
M  V30 4095 H 372.367 4.72071 0.817675 0
M  V30 4096 H 370.731 2.49131 0.529723 0
M  V30 4097 H 371.514 3.30448 -0.93054 0
M  V30 4098 N 373.959 -0.0401083 1.57549 0
M  V30 4099 C 375.207 -0.731677 1.8839 0
M  V30 4100 C 375.528 -1.76481 0.829425 0
M  V30 4101 O 374.798 -1.95411 -0.1383 0
M  V30 4102 H 373.378 -0.273225 0.695239 0
M  V30 4103 H 376.04 -0.00867725 1.94898 0
M  V30 4104 H 375.136 -1.22816 2.86919 0
M  V30 4105 N 375.437 -1.54477 -0.31217 0
M  V30 4106 C 376.367 -1.87652 -1.38957 0
M  V30 4107 C 377.348 -0.734358 -1.53431 0
M  V30 4108 O 378.533 -0.98911 -1.67123 0
M  V30 4109 C 375.663 -2.11396 -2.75552 0
M  V30 4110 C 374.617 -3.27243 -2.75855 0
M  V30 4111 C 373.943 -3.36382 -4.15633 0
M  V30 4112 C 375.243 -4.64622 -2.38587 0
M  V30 4113 H 376.937 -2.77887 -1.11442 0
M  V30 4114 H 374.483 -1.33707 -0.534655 0
M  V30 4115 H 376.436 -2.33189 -3.51 0
M  V30 4116 H 375.16 -1.17921 -3.04569 0
M  V30 4117 H 373.819 -3.05356 -2.02863 0
M  V30 4118 H 373.467 -2.40445 -4.41809 0
M  V30 4119 H 373.167 -4.14249 -4.1674 0
M  V30 4120 H 374.691 -3.60422 -4.92877 0
M  V30 4121 H 376.105 -4.86219 -3.03749 0
M  V30 4122 H 374.502 -5.45121 -2.50925 0
M  V30 4123 H 375.572 -4.66097 -1.33723 0
M  V30 4124 N 376.915 0.57481 -1.46744 0
M  V30 4125 C 378.143 1.35856 -1.56047 0
M  V30 4126 C 378.558 1.87691 -0.204365 0
M  V30 4127 O 377.915 1.64049 0.79963 0
M  V30 4128 C 377.966 2.54066 -2.57163 0
M  V30 4129 O 377.687 2.04377 -3.87507 0
M  V30 4130 C 379.188 3.46514 -2.76483 0
M  V30 4131 H 376.408 0.414754 -0.527466 0
M  V30 4132 H 378.952 0.698035 -1.92218 0
M  V30 4133 H 377.107 3.16092 -2.23974 0
M  V30 4134 H 377.521 2.81419 -4.4261 0
M  V30 4135 H 378.995 4.25919 -3.51137 0
M  V30 4136 H 379.472 3.98951 -1.83671 0
M  V30 4137 H 380.078 2.90318 -3.10799 0
M  V30 4138 N 378.394 1.34581 0.820102 0
M  V30 4139 C 379.641 1.27096 1.57648 0
M  V30 4140 C 379.969 -0.158317 1.93855 0
M  V30 4141 O 379.224 -1.12028 1.60463 0
M  V30 4142 C 379.523 2.10997 2.8847 0
M  V30 4143 C 379.189 3.59966 2.71543 0
M  V30 4144 C 377.851 4.00575 2.66634 0
M  V30 4145 C 380.203 4.54548 2.55021 0
M  V30 4146 C 377.531 5.33953 2.43128 0
M  V30 4147 C 379.883 5.88109 2.33047 0
M  V30 4148 C 378.547 6.27878 2.26552 0
M  V30 4149 H 377.817 0.465078 0.576874 0
M  V30 4150 H 380.464 1.6635 0.948671 0
M  V30 4151 H 378.769 1.6458 3.55557 0
M  V30 4152 H 380.466 2.0255 3.46084 0
M  V30 4153 H 377.056 3.27733 2.76205 0
M  V30 4154 H 381.24 4.24069 2.57835 0
M  V30 4155 H 376.496 5.63781 2.3656 0
M  V30 4156 H 380.67 6.60985 2.19251 0
M  V30 4157 H 378.297 7.31162 2.081 0
M  V30 4158 N 379.872 -1.04064 1.18357 0
M  V30 4159 C 381.097 -1.81454 1.00445 0
M  V30 4160 C 381.522 -1.82823 -0.442423 0
M  V30 4161 O 380.88 -1.24555 -1.31741 0
M  V30 4162 C 380.928 -3.24925 1.56384 0
M  V30 4163 O 380.032 -4.04856 0.785209 0
M  V30 4164 H 379.373 -0.560604 0.355835 0
M  V30 4165 H 381.903 -1.31059 1.57114 0
M  V30 4166 H 381.913 -3.75702 1.59097 0
M  V30 4167 H 380.588 -3.23244 2.61699 0
M  V30 4168 H 379.165 -3.63537 0.830399 0
M  V30 4169 N 381.35 -0.985608 -1.22978 0
M  V30 4170 C 382.298 -0.522631 -2.26652 0
M  V30 4171 C 383.292 0.422998 -1.64034 0
M  V30 4172 O 384.498 0.296319 -1.77544 0
M  V30 4173 H 380.873 -0.150597 -0.736766 0
M  V30 4174 H 382.844 -1.40863 -2.63059 0
M  V30 4175 C 381.593 0.154238 -3.47358 0
M  V30 4176 H 380.916 -0.564329 -3.95797 0
M  V30 4177 H 382.356 0.441744 -4.21693 0
M  V30 4178 C 380.815 1.38719 -3.07016 0
M  V30 4179 O 381.345 2.48307 -3.15764 0
M  V30 4180 N 379.551 1.25975 -2.61875 0
M  V30 4181 H 379.098 0.368068 -2.54957 0
M  V30 4182 H 379.056 2.08578 -2.3525 0
M  V30 4183 N 382.828 1.3818 -0.7579 0
M  V30 4184 C 383.738 2.3421 -0.135247 0
M  V30 4185 C 384.754 1.59487 0.695683 0
M  V30 4186 O 385.93 1.91657 0.618832 0
M  V30 4187 C 382.995 3.3862 0.744139 0
M  V30 4188 C 382.056 4.2918 -0.101658 0
M  V30 4189 C 381.289 5.28603 0.735851 0
M  V30 4190 O 381.512 5.35166 1.97366 0
M  V30 4191 O 380.446 6.01707 0.152372 0
M  V30 4192 H 384.272 2.8916 -0.928436 0
M  V30 4193 H 381.857 1.40101 -0.518855 0
M  V30 4194 H 383.739 4.02539 1.2466 0
M  V30 4195 H 382.414 2.86019 1.51575 0
M  V30 4196 H 381.321 3.68407 -0.650167 0
M  V30 4197 H 382.654 4.85048 -0.836024 0
M  V30 4198 N 384.306 0.507319 1.49211 0
M  V30 4199 C 385.236 -0.256939 2.32082 0
M  V30 4200 C 386.217 -0.956609 1.40652 0
M  V30 4201 O 387.402 -0.946788 1.69557 0
M  V30 4202 C 384.532 -1.31802 3.21318 0
M  V30 4203 C 383.486 -0.737855 4.21592 0
M  V30 4204 C 382.812 -1.89992 4.99807 0
M  V30 4205 C 384.112 0.275325 5.21574 0
M  V30 4206 H 385.806 0.434798 2.96226 0
M  V30 4207 H 383.352 0.210546 1.42452 0
M  V30 4208 H 385.305 -1.86045 3.78107 0
M  V30 4209 H 384.029 -2.03903 2.5513 0
M  V30 4210 H 382.688 -0.217126 3.65956 0
M  V30 4211 H 382.336 -2.60877 4.30061 0
M  V30 4212 H 382.036 -1.51777 5.6766 0
M  V30 4213 H 383.56 -2.44657 5.59442 0
M  V30 4214 H 384.974 -0.179193 5.7302 0
M  V30 4215 H 383.371 0.573649 5.97352 0
M  V30 4216 H 384.441 1.18903 4.70096 0
M  V30 4217 N 385.784 -1.5574 0.241426 0
M  V30 4218 C 387.033 -1.97986 -0.385295 0
M  V30 4219 C 387.346 -1.13267 -1.59468 0
M  V30 4220 O 388.552 -1.45501 -2.2922 0
M  V30 4221 C 387.008 -3.52275 -0.736884 0
M  V30 4222 C 386.616 -4.45726 0.450796 0
M  V30 4223 C 388.36 -4.03189 -1.3281 0
M  V30 4224 C 386.267 -5.91352 0.0756662 0
M  V30 4225 H 385.197 -0.739386 -0.147731 0
M  V30 4226 H 387.848 -1.80308 0.340779 0
M  V30 4227 H 386.23 -3.65628 -1.52094 0
M  V30 4228 H 387.404 -4.44131 1.22819 0
M  V30 4229 H 385.719 -4.05264 0.956573 0
M  V30 4230 H 388.316 -5.09505 -1.62201 0
M  V30 4231 H 388.659 -3.50212 -2.25071 0
M  V30 4232 H 389.192 -3.93141 -0.607069 0
M  V30 4233 H 385.931 -6.48354 0.965272 0
M  V30 4234 H 385.451 -5.96095 -0.665635 0
M  V30 4235 H 387.13 -6.46084 -0.344075 0
M  V30 4236 N 387.262 0.0317525 -1.57568 0
M  V30 4237 C 388.487 0.738664 -1.938 0
M  V30 4238 C 388.912 1.68242 -0.841208 0
M  V30 4239 O 388.27 1.80157 0.203267 0
M  V30 4240 C 388.318 1.47417 -3.29091 0
M  V30 4241 O 387.422 2.5872 -3.2115 0
M  V30 4242 H 386.763 0.198856 -0.633524 0
M  V30 4243 H 389.293 -0.0119713 -2.04596 0
M  V30 4244 H 389.303 1.84468 -3.63917 0
M  V30 4245 H 387.978 0.781988 -4.08482 0
M  V30 4246 H 386.555 2.24231 -2.97951 0
M  V30 4247 N 388.74 1.54641 0.303973 0
M  V30 4248 C 390.156 1.45788 0.649463 0
M  V30 4249 C 390.356 0.64666 1.90842 0
M  V30 4250 O 389.412 0.153183 2.52035 0
M  V30 4251 C 390.725 2.89718 0.805227 0
M  V30 4252 C 392.273 2.99742 0.901305 0
M  V30 4253 C 392.748 4.44863 1.08909 0
M  V30 4254 N 394.239 4.48559 1.15536 0
M  V30 4255 C 394.974 5.58026 1.3189 0
M  V30 4256 N 394.47 6.77422 1.45161 0
M  V30 4257 N 396.263 5.45708 1.34755 0
M  V30 4258 H 388.414 2.05854 -0.523237 0
M  V30 4259 H 390.677 0.932186 -0.172431 0
M  V30 4260 H 390.383 3.51666 -0.0489108 0
M  V30 4261 H 390.257 3.36964 1.69513 0
M  V30 4262 H 392.644 2.3791 1.74593 0
M  V30 4263 H 392.725 2.55797 -0.0125531 0
M  V30 4264 H 392.369 5.07288 0.249241 0
M  V30 4265 H 392.299 4.86436 2.01713 0
M  V30 4266 H 394.79 3.6254 1.06646 0
M  V30 4267 H 395.103 7.56604 1.57387 0
M  V30 4268 H 393.448 6.80292 1.42223 0
M  V30 4269 H 396.639 4.51378 1.23996 0
M  V30 4270 H 396.812 6.3107 1.47157 0
M  V30 4271 N 390.218 -0.567019 1.47046 0
M  V30 4272 C 391.495 -1.3276 1.43646 0
M  V30 4273 C 391.875 -2.1071 0.128186 0
M  V30 4274 O 391.223 -2.10441 -0.890326 0
M  V30 4275 C 391.433 -2.2404 2.67595 0
M  V30 4276 C 392.781 -2.85372 3.14401 0
M  V30 4277 O 393.805 -2.34346 2.68254 0
M  V30 4278 O 392.664 -3.78091 3.946 0
M  V30 4279 H 389.758 -0.597293 0.571988 0
M  V30 4280 H 392.304 -0.586735 1.59234 0
M  V30 4281 H 391.076 -1.65975 3.54356 0
M  V30 4282 H 390.699 -3.05439 2.54544 0
M  V30 4283 N 391.696 -1.35014 -0.812953 0
M  V30 4284 C 392.606 -1.2951 -1.95613 0
M  V30 4285 C 393.622 -0.20107 -1.72834 0
M  V30 4286 O 394.798 -0.42932 -1.96771 0
M  V30 4287 C 391.863 -1.06033 -3.30088 0
M  V30 4288 C 390.924 -2.24688 -3.65805 0
M  V30 4289 C 390.157 -2.02322 -4.93864 0
M  V30 4290 O 390.38 -0.986464 -5.61805 0
M  V30 4291 O 389.314 -2.89525 -5.27692 0
M  V30 4292 H 393.14 -2.25705 -2.03202 0
M  V30 4293 H 390.725 -1.15321 -0.949811 0
M  V30 4294 H 392.607 -0.94763 -4.10607 0
M  V30 4295 H 391.282 -0.128852 -3.23443 0
M  V30 4296 H 390.189 -2.41521 -2.85689 0
M  V30 4297 H 391.522 -3.16261 -3.77147 0
M  V30 4298 N 393.175 1.03435 -1.18907 0
M  V30 4299 C 394.423 1.76394 -0.986382 0
M  V30 4300 C 394.744 1.88883 0.484567 0
M  V30 4301 O 394.014 1.41843 1.3512 0
M  V30 4302 H 392.594 0.65344 -0.361975 0
M  V30 4303 H 395.256 1.248 -1.49703 0
M  V30 4304 H 394.352 2.77424 -1.42978 0
M  V30 4305 N 394.653 0.992116 1.22453 0
M  V30 4306 C 395.583 0.561677 2.26644 0
M  V30 4307 C 396.564 -0.411055 1.65059 0
M  V30 4308 O 397.749 -0.301861 1.9184 0
M  V30 4309 C 394.879 -0.125247 3.47074 0
M  V30 4310 C 393.833 0.765948 4.21091 0
M  V30 4311 C 393.159 -0.0538484 5.34673 0
M  V30 4312 C 394.459 2.06242 4.79856 0
M  V30 4313 H 396.153 1.43259 2.62902 0
M  V30 4314 H 393.699 0.690283 1.26377 0
M  V30 4315 H 395.652 -0.437764 4.1912 0
M  V30 4316 H 394.376 -1.03069 3.0991 0
M  V30 4317 H 393.035 1.0621 3.50878 0
M  V30 4318 H 392.683 -0.960188 4.9375 0
M  V30 4319 H 392.383 0.539415 5.85119 0
M  V30 4320 H 393.907 -0.360477 6.09535 0
M  V30 4321 H 395.321 1.8139 5.43848 0
M  V30 4322 H 393.718 2.60444 5.40638 0
M  V30 4323 H 394.788 2.74167 3.99951 0
M  V30 4324 N 396.131 -1.37776 0.765217 0
M  V30 4325 C 397.081 -2.2768 0.12075 0
M  V30 4326 C 398.065 -1.45778 -0.680988 0
M  V30 4327 O 399.257 -1.684 -0.545033 0
M  V30 4328 C 396.386 -3.34722 -0.762626 0
M  V30 4329 C 395.472 -4.24074 0.0465881 0
M  V30 4330 N 395.863 -4.93939 1.08892 0
M  V30 4331 C 394.161 -4.45643 -0.178418 0
M  V30 4332 C 394.862 -5.59845 1.57951 0
M  V30 4333 N 393.838 -5.36218 0.892797 0
M  V30 4334 H 397.64 -2.79166 0.918889 0
M  V30 4335 H 395.154 -1.50816 0.602353 0
M  V30 4336 H 397.151 -3.98031 -1.24005 0
M  V30 4337 H 395.811 -2.84793 -1.55959 0
M  V30 4338 H 396.822 -4.96572 1.47095 0
M  V30 4339 H 393.499 -4.06599 -0.9478 0
M  V30 4340 H 394.889 -6.25703 2.44838 0
M  V30 4341 N 397.609 -0.515225 -1.4894 0
M  V30 4342 C 398.849 0.0223983 -2.04388 0
M  V30 4343 C 399.213 1.32961 -1.38511 0
M  V30 4344 O 400.414 1.95236 -1.8476 0
M  V30 4345 C 398.685 0.157056 -3.57055 0
M  V30 4346 S 400.244 0.646875 -4.34006 0
M  V30 4347 H 397.062 -0.00500662 -0.710982 0
M  V30 4348 H 399.664 -0.69243 -1.82827 0
M  V30 4349 H 398.368 -0.799412 -4.02539 0
M  V30 4350 H 397.899 0.896704 -3.83044 0
M  V30 4351 H 399.914 1.91381 -4.57808 0
M  V30 4352 N 399.087 1.5561 -0.249682 0
M  V30 4353 C 400.364 1.90932 0.424761 0
M  V30 4354 C 400.744 1.17078 1.75658 0
M  V30 4355 O 400.092 0.289176 2.26663 0
M  V30 4356 C 400.302 3.43975 0.590109 0
M  V30 4357 C 401.65 4.15281 0.884714 0
M  V30 4358 O 402.674 3.49729 0.67587 0
M  V30 4359 O 401.533 5.31236 1.28259 0
M  V30 4360 H 398.627 0.794815 0.228468 0
M  V30 4361 H 401.173 1.67135 -0.293954 0
M  V30 4362 H 399.945 3.89748 -0.34818 0
M  V30 4363 H 399.568 3.73644 1.35926 0
M  V30 4364 N 400.565 -0.0233959 1.57583 0
M  V30 4365 C 401.812 -0.713063 1.8953 0
M  V30 4366 C 402.14 -1.75056 0.847673 0
M  V30 4367 O 401.395 -1.95119 -0.150636 0
M  V30 4368 C 401.694 -1.41428 3.28227 0
M  V30 4369 C 401.36 -0.512222 4.47981 0
M  V30 4370 C 400.022 -0.263785 4.80476 0
M  V30 4371 C 402.374 0.110248 5.21083 0
M  V30 4372 C 399.702 0.615804 5.83459 0
M  V30 4373 C 402.054 0.977573 6.25001 0
M  V30 4374 C 400.718 1.23542 6.55968 0
M  V30 4375 H 399.988 -0.260928 0.69354 0
M  V30 4376 H 402.635 0.0271047 1.91481 0
M  V30 4377 H 400.94 -2.22791 3.22291 0
M  V30 4378 H 402.637 -1.95355 3.50196 0
M  V30 4379 H 399.227 -0.716013 4.22577 0
M  V30 4380 H 403.411 -0.0687137 4.96252 0
M  V30 4381 H 398.667 0.82382 6.05824 0
M  V30 4382 H 402.841 1.46638 6.80786 0
M  V30 4383 H 400.468 1.91871 7.35588 0
M  V30 4384 N 402.043 -1.548 -0.295768 0
M  V30 4385 C 403.006 -1.85363 -1.34808 0
M  V30 4386 C 404.006 -0.726817 -1.43436 0
M  V30 4387 O 405.196 -0.995088 -1.42981 0
M  V30 4388 C 402.328 -2.03859 -2.73229 0
M  V30 4389 H 403.521 -2.7941 -1.08949 0
M  V30 4390 H 401.074 -1.46942 -0.532702 0
M  V30 4391 H 401.809 -1.12117 -3.04303 0
M  V30 4392 H 401.594 -2.8588 -2.68356 0
M  V30 4393 H 403.084 -2.28857 -3.49305 0
M  V30 4394 N 403.521 0.559213 -1.47345 0
M  V30 4395 C 404.761 1.32728 -1.55444 0
M  V30 4396 C 405.125 1.90838 -0.210895 0
M  V30 4397 O 406.326 2.68282 -0.166719 0
M  V30 4398 C 404.597 2.4092 -2.63993 0
M  V30 4399 S 406.156 3.2784 -2.91661 0
M  V30 4400 H 402.974 0.451883 -0.548929 0
M  V30 4401 H 405.576 0.640404 -1.84714 0
M  V30 4402 H 404.28 1.9666 -3.60212 0
M  V30 4403 H 403.811 3.14351 -2.36531 0
M  V30 4404 H 405.826 4.40341 -2.28722 0
M  V30 4405 N 404.999 1.35443 0.805782 0
M  V30 4406 C 405.929 1.31095 1.93226 0
M  V30 4407 C 406.91 0.185244 1.69088 0
M  V30 4408 O 408.095 0.380332 1.90439 0
M  V30 4409 C 405.225 1.08299 3.29983 0
M  V30 4410 C 404.179 2.17519 3.68605 0
M  V30 4411 C 403.505 1.79887 5.03532 0
M  V30 4412 C 404.805 3.5949 3.78898 0
M  V30 4413 H 406.499 2.25352 1.97122 0
M  V30 4414 H 404.045 1.0848 0.946996 0
M  V30 4415 H 405.998 1.03897 4.08391 0
M  V30 4416 H 404.722 0.104885 3.26432 0
M  V30 4417 H 403.381 2.2102 2.92482 0
M  V30 4418 H 403.029 0.80693 4.96485 0
M  V30 4419 H 402.729 2.53001 5.30344 0
M  V30 4420 H 404.253 1.77011 5.84379 0
M  V30 4421 H 405.667 3.58307 4.47536 0
M  V30 4422 H 404.064 4.31371 4.1718 0
M  V30 4423 H 405.134 3.95584 2.80431 0
M  V30 4424 N 406.477 -1.02803 1.19454 0
M  V30 4425 C 407.41 -2.107 0.876396 0
M  V30 4426 C 408.388 -1.61741 -0.166897 0
M  V30 4427 O 409.572 -1.88451 -0.0430195 0
M  V30 4428 C 406.699 -3.37262 0.311758 0
M  V30 4429 C 405.745 -4.05093 1.33424 0
M  V30 4430 S 406.578 -4.50498 2.89503 0
M  V30 4431 C 407.734 -5.80277 2.34584 0
M  V30 4432 H 407.967 -2.37362 1.79016 0
M  V30 4433 H 405.5 -1.15755 1.02177 0
M  V30 4434 H 407.458 -4.10499 -0.00748752 0
M  V30 4435 H 406.119 -3.08693 -0.58032 0
M  V30 4436 H 405.312 -4.9611 0.888302 0
M  V30 4437 H 404.914 -3.3803 1.60037 0
M  V30 4438 H 407.206 -6.54873 1.73633 0
M  V30 4439 H 408.149 -6.29651 3.23952 0
M  V30 4440 H 408.557 -5.3599 1.77131 0
M  V30 4441 N 407.956 -0.998596 -1.21925 0
M  V30 4442 C 409.203 -0.677663 -1.90824 0
M  V30 4443 C 409.531 0.790905 -1.77693 0
M  V30 4444 O 408.786 1.58817 -1.14349 0
M  V30 4445 C 409.085 -1.03648 -3.42041 0
M  V30 4446 C 408.751 -2.49825 -3.75364 0
M  V30 4447 C 407.413 -2.8977 -3.8417 0
M  V30 4448 C 409.765 -3.44545 -3.91073 0
M  V30 4449 C 407.093 -4.23412 -4.06127 0
M  V30 4450 C 409.445 -4.77853 -4.14535 0
M  V30 4451 C 408.109 -5.17531 -4.21566 0
M  V30 4452 H 407.379 -0.247975 -0.698276 0
M  V30 4453 H 410.026 -1.25584 -1.44571 0
M  V30 4454 H 408.331 -0.376457 -3.89987 0
M  V30 4455 H 410.028 -0.766113 -3.93614 0
M  V30 4456 H 406.618 -2.17866 -3.69097 0
M  V30 4457 H 410.802 -3.14853 -3.83642 0
M  V30 4458 H 406.058 -4.53734 -4.09799 0
M  V30 4459 H 410.232 -5.51189 -4.25633 0
M  V30 4460 H 407.859 -6.21102 -4.38333 0
M  V30 4461 N 409.434 1.37368 -0.772513 0
M  V30 4462 C 410.381 2.30262 -0.157488 0
M  V30 4463 C 411.351 1.51137 0.688965 0
M  V30 4464 O 412.536 1.79704 0.641168 0
M  V30 4465 C 409.676 3.37611 0.715045 0
M  V30 4466 C 408.789 4.31746 -0.148098 0
M  V30 4467 C 407.924 5.26171 0.729213 0
M  V30 4468 C 406.963 6.11948 -0.136418 0
M  V30 4469 N 406.1 6.98613 0.698914 0
M  V30 4470 H 410.94 2.82277 -0.955179 0
M  V30 4471 H 408.477 1.38957 -0.482631 0
M  V30 4472 H 410.435 3.98479 1.23575 0
M  V30 4473 H 409.065 2.86959 1.47833 0
M  V30 4474 H 408.117 3.72178 -0.786613 0
M  V30 4475 H 409.429 4.92084 -0.81579 0
M  V30 4476 H 408.583 5.92247 1.31637 0
M  V30 4477 H 407.322 4.66246 1.43059 0
M  V30 4478 H 406.327 5.4485 -0.736102 0
M  V30 4479 H 407.552 6.73945 -0.835134 0
M  V30 4480 H 405.498 6.41215 1.38489 0
M  V30 4481 H 405.415 7.55948 0.0885358 0
M  V30 4482 H 406.683 7.69077 1.27044 0
M  V30 4483 N 410.912 0.523116 1.48665 0
M  V30 4484 C 411.862 -0.263106 2.26477 0
M  V30 4485 C 412.846 -0.916005 1.32281 0
M  V30 4486 O 414.038 -0.819946 1.56863 0
M  V30 4487 C 411.167 -1.31361 3.17174 0
M  V30 4488 C 410.253 -0.665849 4.1884 0
M  V30 4489 N 410.644 0.244434 5.05209 0
M  V30 4490 C 408.942 -0.923863 4.36326 0
M  V30 4491 C 409.643 0.617443 5.78414 0
M  V30 4492 N 408.619 -0.0198686 5.43596 0
M  V30 4493 H 412.421 0.437295 2.90629 0
M  V30 4494 H 409.935 0.340675 1.58787 0
M  V30 4495 H 411.932 -1.89052 3.71571 0
M  V30 4496 H 410.592 -2.01546 2.54576 0
M  V30 4497 H 411.603 0.616621 5.14216 0
M  V30 4498 H 408.28 -1.6168 3.84923 0
M  V30 4499 H 409.67 1.36346 6.57921 0
M  V30 4500 N 412.39 -1.55475 0.257931 0
M  V30 4501 C 413.32 -2.24815 -0.630912 0
M  V30 4502 C 414.301 -1.23224 -1.17259 0
M  V30 4503 O 415.486 -1.51904 -1.20991 0
M  V30 4504 C 412.616 -2.95609 -1.82298 0
M  V30 4505 C 411.57 -4.03982 -1.41359 0
M  V30 4506 C 410.896 -4.6226 -2.68738 0
M  V30 4507 C 412.196 -5.19109 -0.57648 0
M  V30 4508 H 413.89 -2.99354 -0.0526878 0
M  V30 4509 H 411.436 -1.4398 -0.023901 0
M  V30 4510 H 413.389 -3.42822 -2.45054 0
M  V30 4511 H 412.113 -2.18577 -2.42676 0
M  V30 4512 H 410.772 -3.57555 -0.809324 0
M  V30 4513 H 410.42 -3.81915 -3.27338 0
M  V30 4514 H 410.12 -5.35424 -2.42065 0
M  V30 4515 H 411.644 -5.12212 -3.32372 0
M  V30 4516 H 413.058 -5.62479 -1.10861 0
M  V30 4517 H 411.455 -5.98729 -0.405351 0
M  V30 4518 H 412.525 -4.83174 0.408776 0
M  V30 4519 N 413.868 0.0150385 -1.57593 0
M  V30 4520 C 415.114 0.704043 -1.90187 0
M  V30 4521 C 415.447 1.74249 -0.857366 0
M  V30 4522 O 414.722 1.94092 0.125843 0
M  V30 4523 C 415.005 1.36087 -3.33395 0
M  V30 4524 C 414.858 0.334981 -4.48551 0
M  V30 4525 C 416.177 2.29112 -3.7576 0
M  V30 4526 H 413.296 0.254475 -0.691673 0
M  V30 4527 H 415.938 -0.0331678 -1.89971 0
M  V30 4528 H 414.088 1.98922 -3.3371 0
M  V30 4529 H 415.76 -0.292534 -4.60372 0
M  V30 4530 H 414.003 -0.344325 -4.32431 0
M  V30 4531 H 414.674 0.833316 -5.45674 0
M  V30 4532 H 417.15 1.76308 -3.76902 0
M  V30 4533 H 416.026 2.72043 -4.76743 0
M  V30 4534 H 416.287 3.16385 -3.08793 0
M  V30 4535 N 415.346 1.54954 0.287554 0
M  V30 4536 C 416.296 1.8322 1.357 0
M  V30 4537 C 417.28 0.690152 1.45347 0
M  V30 4538 O 418.472 0.951137 1.49273 0
M  V30 4539 C 415.601 2.09481 2.71979 0
M  V30 4540 C 414.687 3.29906 2.66502 0
M  V30 4541 N 415.078 4.50154 2.30641 0
M  V30 4542 C 413.376 3.32203 2.97585 0
M  V30 4543 C 414.077 5.32209 2.34794 0
M  V30 4544 N 413.053 4.70258 2.72688 0
M  V30 4545 H 416.855 2.73746 1.0696 0
M  V30 4546 H 414.369 1.54635 0.496167 0
M  V30 4547 H 416.366 2.27882 3.49107 0
M  V30 4548 H 415.026 1.2023 3.0162 0
M  V30 4549 H 416.037 4.76515 2.02865 0
M  V30 4550 H 412.714 2.53101 3.32034 0
M  V30 4551 H 414.104 6.38321 2.09753 0
M  V30 4552 N 416.824 -0.551391 1.4764 0
M  V30 4553 C 417.771 -1.65796 1.60563 0
M  V30 4554 C 418.741 -1.59932 0.448428 0
M  V30 4555 O 419.926 -1.78679 0.669222 0
M  V30 4556 C 417.066 -3.04108 1.63133 0
M  V30 4557 C 416.179 -3.20365 2.89811 0
M  V30 4558 C 415.314 -4.49109 2.8368 0
M  V30 4559 C 414.353 -4.58819 4.05156 0
M  V30 4560 N 413.49 -5.78926 3.97227 0
M  V30 4561 H 418.33 -1.54088 2.5507 0
M  V30 4562 H 415.867 -0.75052 1.26513 0
M  V30 4563 H 417.825 -3.84207 1.62606 0
M  V30 4564 H 416.455 -3.14637 0.721341 0
M  V30 4565 H 415.507 -2.33659 3.00179 0
M  V30 4566 H 416.819 -3.23402 3.79753 0
M  V30 4567 H 415.973 -5.37475 2.81434 0
M  V30 4568 H 414.712 -4.4856 1.91431 0
M  V30 4569 H 413.717 -3.68864 4.077 0
M  V30 4570 H 414.942 -4.61124 4.98539 0
M  V30 4571 H 412.888 -5.79314 3.07785 0
M  V30 4572 H 412.805 -5.83367 4.80853 0
M  V30 4573 H 414.073 -6.69637 3.99007 0
M  V30 4574 N 418.302 -1.35869 -0.798587 0
M  V30 4575 C 419.713 -1.26498 -1.37314 0
M  V30 4576 C 420.064 0.0991899 -1.95949 0
M  V30 4577 O 419.189 1.0004 -1.91888 0
M  V30 4578 C 419.784 -2.29054 -2.49639 0
M  V30 4579 C 418.343 -2.234 -3.02935 0
M  V30 4580 C 417.49 -2.14329 -1.75949 0
M  V30 4581 H 420.441 -1.46881 -0.600971 0
M  V30 4582 H 420.462 -1.92166 -3.28409 0
M  V30 4583 H 419.974 -3.2833 -2.06933 0
M  V30 4584 H 418.075 -1.27562 -3.50084 0
M  V30 4585 H 418.188 -3.15703 -3.60372 0
M  V30 4586 H 416.552 -1.60435 -1.9782 0
M  V30 4587 H 417.335 -3.15477 -1.35384 0
M  V30 4588 N 419.78 1.02168 -1.19998 0
M  V30 4589 C 421.005 1.79833 -1.03319 0
M  V30 4590 C 421.43 1.83504 0.413281 0
M  V30 4591 O 420.788 1.26635 1.29743 0
M  V30 4592 C 420.836 3.22396 -1.61533 0
M  V30 4593 O 419.94 4.03555 -0.849519 0
M  V30 4594 H 419.281 0.554872 -0.364709 0
M  V30 4595 H 421.811 1.28542 -1.59179 0
M  V30 4596 H 421.821 3.73124 -1.65054 0
M  V30 4597 H 420.496 3.19039 -2.66809 0
M  V30 4598 H 419.073 3.62169 -0.888129 0
M  V30 4599 N 421.258 1.00505 1.21394 0
M  V30 4600 C 422.168 0.574806 2.27449 0
M  V30 4601 C 423.184 -0.382206 1.6975 0
M  V30 4602 O 424.36 -0.246027 1.99892 0
M  V30 4603 C 421.425 -0.0917414 3.46579 0
M  V30 4604 C 420.486 0.909758 4.1955 0
M  V30 4605 C 419.719 0.274924 5.32991 0
M  V30 4606 O 419.942 -0.928254 5.62796 0
M  V30 4607 O 418.876 0.985877 5.93771 0
M  V30 4608 H 422.702 1.45744 2.66444 0
M  V30 4609 H 420.287 0.773923 1.27792 0
M  V30 4610 H 422.169 -0.464551 4.18832 0
M  V30 4611 H 420.844 -0.948755 3.09484 0
M  V30 4612 H 419.751 1.33372 3.49518 0
M  V30 4613 H 421.084 1.73636 4.60555 0
M  V30 4614 N 422.737 -1.36956 0.779787 0
M  V30 4615 C 423.647 -2.33965 0.172491 0
M  V30 4616 C 424.663 -1.60574 -0.670222 0
M  V30 4617 O 425.839 -1.92617 -0.588263 0
M  V30 4618 C 422.904 -3.39761 -0.690173 0
M  V30 4619 C 421.965 -4.28964 0.169924 0
M  V30 4620 C 421.198 -5.29707 -0.651662 0
M  V30 4621 O 421.421 -5.38238 -1.88827 0
M  V30 4622 O 420.355 -6.01873 -0.0566264 0
M  V30 4623 H 424.181 -2.87647 0.974321 0
M  V30 4624 H 421.766 -1.39258 0.541078 0
M  V30 4625 H 423.648 -4.04471 -1.1824 0
M  V30 4626 H 422.323 -2.88394 -1.47006 0
M  V30 4627 H 421.23 -3.67326 0.708696 0
M  V30 4628 H 422.563 -4.83656 0.913085 0
M  V30 4629 N 424.215 -0.530993 -1.48385 0
M  V30 4630 C 425.631 -0.188919 -1.58478 0
M  V30 4631 C 425.831 1.30786 -1.53288 0
M  V30 4632 O 424.887 2.08619 -1.42248 0
M  V30 4633 C 426.2 -0.792343 -2.90073 0
M  V30 4634 C 427.748 -0.76117 -3.03604 0
M  V30 4635 C 428.223 -1.34319 -4.37861 0
M  V30 4636 N 429.714 -1.3052 -4.44431 0
M  V30 4637 C 430.449 -1.72543 -5.46824 0
M  V30 4638 N 429.945 -2.22299 -6.56167 0
M  V30 4639 N 431.738 -1.63773 -5.37712 0
M  V30 4640 H 423.889 -1.50377 -1.50002 0
M  V30 4641 H 426.152 -0.625559 -0.712306 0
M  V30 4642 H 425.858 -1.84323 -2.99529 0
M  V30 4643 H 425.732 -0.270026 -3.76232 0
M  V30 4644 H 428.119 0.280957 -2.93759 0
M  V30 4645 H 428.2 -1.32097 -2.19053 0
M  V30 4646 H 427.844 -2.38425 -4.4846 0
M  V30 4647 H 427.774 -0.759064 -5.21101 0
M  V30 4648 H 430.265 -0.940973 -3.65997 0
M  V30 4649 H 430.578 -2.52356 -7.30436 0
M  V30 4650 H 428.923 -2.26293 -6.57127 0
M  V30 4651 H 432.114 -1.24698 -4.51185 0
M  V30 4652 H 432.287 -1.96844 -6.17379 0
M  V30 4653 N 425.693 1.55336 -0.266172 0
M  V30 4654 C 426.939 1.99692 0.353681 0
M  V30 4655 C 427.272 1.1543 1.56172 0
M  V30 4656 O 426.547 0.222218 1.93226 0
M  V30 4657 C 426.83 3.52316 0.74466 0
M  V30 4658 C 426.683 4.47337 -0.470101 0
M  V30 4659 C 428.002 4.10588 1.58447 0
M  V30 4660 H 425.121 0.725961 0.12708 0
M  V30 4661 H 427.763 1.86336 -0.371333 0
M  V30 4662 H 425.913 3.63829 1.36239 0
M  V30 4663 H 427.585 4.4778 -1.10864 0
M  V30 4664 H 425.828 4.19364 -1.10978 0
M  V30 4665 H 426.499 5.51788 -0.15291 0
M  V30 4666 H 428.975 4.02297 1.06286 0
M  V30 4667 H 427.851 5.17607 1.82686 0
M  V30 4668 H 428.112 3.60253 2.56262 0
M  V30 4669 N 427.171 -0.0066808 1.57599 0
M  V30 4670 C 428.587 -0.36267 1.55425 0
M  V30 4671 C 428.787 -1.75209 0.995187 0
M  V30 4672 O 427.843 -2.44616 0.626058 0
M  V30 4673 C 429.156 -0.244017 2.99708 0
M  V30 4674 C 430.704 -0.319451 3.11366 0
M  V30 4675 C 431.179 -0.229998 4.57422 0
M  V30 4676 N 432.67 -0.288105 4.62303 0
M  V30 4677 C 433.405 -0.242127 5.72889 0
M  V30 4678 N 432.901 -0.147133 6.92644 0
M  V30 4679 N 434.694 -0.293502 5.61333 0
M  V30 4680 H 426.845 0.902314 1.92281 0
M  V30 4681 H 429.108 0.34525 0.882896 0
M  V30 4682 H 428.814 0.711678 3.44424 0
M  V30 4683 H 428.688 -1.02877 3.629 0
M  V30 4684 H 431.075 -1.26559 2.66584 0
M  V30 4685 H 431.156 0.495055 2.50964 0
M  V30 4686 H 430.8 0.712566 5.02877 0
M  V30 4687 H 430.73 -1.0629 5.15761 0
M  V30 4688 H 433.221 -0.363126 3.76151 0
M  V30 4689 H 433.534 -0.117763 7.7271 0
M  V30 4690 H 431.879 -0.112857 6.94908 0
M  V30 4691 H 435.07 -0.365864 4.66668 0
M  V30 4692 H 435.243 -0.254204 6.47501 0
M  V30 4693 N 428.649 -1.55105 -0.279332 0
M  V30 4694 C 429.559 -1.90638 -1.36727 0
M  V30 4695 C 430.575 -0.802899 -1.54368 0
M  V30 4696 O 431.751 -1.10138 -1.68616 0
M  V30 4697 C 428.816 -2.16547 -2.70755 0
M  V30 4698 C 427.877 -3.40146 -2.61915 0
M  V30 4699 C 427.11 -3.6481 -3.8955 0
M  V30 4700 O 427.333 -2.92095 -4.89935 0
M  V30 4701 O 426.267 -4.58343 -3.90135 0
M  V30 4702 H 430.093 -2.83237 -1.09591 0
M  V30 4703 H 427.678 -1.4157 -0.477306 0
M  V30 4704 H 429.56 -2.34665 -3.50014 0
M  V30 4705 H 428.235 -1.27131 -2.9769 0
M  V30 4706 H 427.142 -3.2737 -1.81052 0
M  V30 4707 H 428.475 -4.29761 -2.3993 0
M  V30 4708 N 430.127 0.543554 -1.4793 0
M  V30 4709 C 431.376 1.29649 -1.54512 0
M  V30 4710 C 431.689 1.94382 -0.217973 0
M  V30 4711 O 432.895 2.71017 -0.161908 0
M  V30 4712 C 431.351 2.35175 -2.72435 0
M  V30 4713 C 430.959 1.76572 -4.11736 0
M  V30 4714 C 432.703 3.11564 -2.8832 0
M  V30 4715 C 430.61 2.79958 -5.20939 0
M  V30 4716 H 429.54 0.487541 -0.57517 0
M  V30 4717 H 432.191 0.575708 -1.74235 0
M  V30 4718 H 430.573 3.10229 -2.46118 0
M  V30 4719 H 431.747 1.07799 -4.48013 0
M  V30 4720 H 430.062 1.12722 -4.00852 0
M  V30 4721 H 432.659 3.88794 -3.67074 0
M  V30 4722 H 433.002 3.66594 -1.97268 0
M  V30 4723 H 433.535 2.43623 -3.14472 0
M  V30 4724 H 430.274 2.29766 -6.13912 0
M  V30 4725 H 429.794 3.47101 -4.89164 0
M  V30 4726 H 431.473 3.43198 -5.48474 0
M  V30 4727 N 431.605 1.3629 0.791371 0
M  V30 4728 C 432.854 1.29742 1.54434 0
M  V30 4729 C 433.167 -0.121729 1.95221 0
M  V30 4730 O 434.373 -0.309579 2.69729 0
M  V30 4731 C 432.829 2.27623 2.78776 0
M  V30 4732 C 432.437 3.74963 2.45166 0
M  V30 4733 C 434.181 2.30047 3.56761 0
M  V30 4734 C 432.088 4.64626 3.65891 0
M  V30 4735 H 431.018 0.482113 0.579727 0
M  V30 4736 H 433.669 1.61642 0.868565 0
M  V30 4737 H 432.051 1.88714 3.48142 0
M  V30 4738 H 433.225 4.22596 1.83709 0
M  V30 4739 H 431.54 3.75295 1.80396 0
M  V30 4740 H 434.137 2.94247 4.46456 0
M  V30 4741 H 434.48 1.30846 3.95203 0
M  V30 4742 H 435.013 2.67563 2.94372 0
M  V30 4743 H 431.752 5.64883 3.32547 0
M  V30 4744 H 431.272 4.2171 4.26521 0
M  V30 4745 H 432.951 4.80801 4.32943 0
M  V30 4746 N 433.083 -1.0153 1.20538 0
M  V30 4747 C 434.332 -1.74558 1.01057 0
M  V30 4748 C 434.645 -1.90168 -0.457756 0
M  V30 4749 O 435.851 -2.60301 -0.771722 0
M  V30 4750 C 434.307 -3.13963 1.75941 0
M  V30 4751 C 433.915 -3.06361 3.26875 0
M  V30 4752 C 435.659 -3.91191 1.64832 0
M  V30 4753 C 433.566 -4.40782 3.94291 0
M  V30 4754 H 432.496 -0.654417 0.374505 0
M  V30 4755 H 435.147 -1.13521 1.44171 0
M  V30 4756 H 433.529 -3.75549 1.25614 0
M  V30 4757 H 434.703 -2.54074 3.84425 0
M  V30 4758 H 433.018 -2.42625 3.38411 0
M  V30 4759 H 435.615 -4.90644 2.12539 0
M  V30 4760 H 435.958 -4.11884 0.604745 0
M  V30 4761 H 436.491 -3.36236 2.12579 0
M  V30 4762 H 433.23 -4.25292 4.98805 0
M  V30 4763 H 432.75 -4.9307 3.41529 0
M  V30 4764 H 434.429 -5.09621 3.98617 0
M  V30 4765 N 434.561 -1.01147 -1.20859 0
M  V30 4766 C 435.509 -0.57059 -2.25493 0
M  V30 4767 C 436.503 0.388109 -1.64894 0
M  V30 4768 O 437.709 0.258592 -1.78133 0
M  V30 4769 H 434.084 -0.166191 -0.733406 0
M  V30 4770 H 436.055 -1.46411 -2.60012 0
M  V30 4771 C 434.804 0.0805241 -3.47607 0
M  V30 4772 H 434.127 -0.648156 -3.94511 0
M  V30 4773 H 435.567 0.352197 -4.22535 0
M  V30 4774 C 434.026 1.32175 -3.09889 0
M  V30 4775 O 434.556 2.41553 -3.20959 0
M  V30 4776 N 432.762 1.20392 -2.64488 0
M  V30 4777 H 432.309 0.313905 -2.5568 0
M  V30 4778 H 432.267 2.03541 -2.39621 0
M  V30 4779 N 436.039 1.36541 -0.78704 0
M  V30 4780 C 437.002 2.28413 -0.189778 0
M  V30 4781 C 438.002 1.48719 0.611499 0
M  V30 4782 O 439.192 1.68737 0.432842 0
M  V30 4783 C 436.324 3.32824 0.737638 0
M  V30 4784 H 437.517 2.82743 -0.999831 0
M  V30 4785 H 435.07 1.46065 -0.556298 0
M  V30 4786 H 435.805 2.83646 1.57212 0
M  V30 4787 H 435.59 3.91752 0.165044 0
M  V30 4788 H 437.08 4.0144 1.15047 0
M  V30 4789 N 437.518 0.538854 1.48102 0
M  V30 4790 C 438.764 0.00801365 2.02798 0
M  V30 4791 C 439.097 -1.3309 1.41424 0
M  V30 4792 O 438.372 -1.86169 0.563158 0
M  V30 4793 C 438.655 -0.104589 3.59948 0
M  V30 4794 C 438.508 1.26012 4.31788 0
M  V30 4795 C 439.827 -0.827055 4.32259 0
M  V30 4796 H 436.946 0.00438624 0.736987 0
M  V30 4797 H 439.588 0.6976 1.7673 0
M  V30 4798 H 437.738 -0.691893 3.82289 0
M  V30 4799 H 439.41 1.88922 4.2084 0
M  V30 4800 H 437.653 1.83968 3.92859 0
M  V30 4801 H 438.324 1.13424 5.40221 0
M  V30 4802 H 440.8 -0.328578 4.14801 0
M  V30 4803 H 439.676 -0.87476 5.41885 0
M  V30 4804 H 439.937 -1.87927 4.0017 0
M  V30 4805 N 438.996 -1.55193 0.274407 0
M  V30 4806 C 440.412 -1.59401 -0.0797543 0
M  V30 4807 C 440.612 -1.29162 -1.54659 0
M  V30 4808 O 439.668 -1.05215 -2.29534 0
M  V30 4809 C 440.981 -2.99257 0.294238 0
M  V30 4810 C 442.529 -3.12072 0.240796 0
M  V30 4811 C 443.004 -4.54194 0.589218 0
M  V30 4812 N 444.495 -4.60033 0.540744 0
M  V30 4813 C 445.23 -5.68027 0.783147 0
M  V30 4814 N 444.726 -6.8417 1.09013 0
M  V30 4815 N 446.519 -5.57572 0.711993 0
M  V30 4816 H 438.67 -1.73113 1.23067 0
M  V30 4817 H 440.933 -0.807197 0.497129 0
M  V30 4818 H 440.639 -3.26217 1.31435 0
M  V30 4819 H 440.513 -3.75427 -0.365281 0
M  V30 4820 H 442.9 -2.84877 -0.770024 0
M  V30 4821 H 442.981 -2.38117 0.934563 0
M  V30 4822 H 442.625 -4.82115 1.59772 0
M  V30 4823 H 442.555 -5.26448 -0.126331 0
M  V30 4824 H 445.046 -3.76599 0.313327 0
M  V30 4825 H 445.359 -7.6243 1.26178 0
M  V30 4826 H 443.704 -6.85787 1.12789 0
M  V30 4827 H 446.895 -4.65714 0.472014 0
M  V30 4828 H 447.068 -6.41659 0.90429 0
M  V30 4829 N 440.474 -0.00167713 -1.576 0
M  V30 4830 C 441.723 0.682021 -1.89819 0
M  V30 4831 C 442.036 1.74844 -0.876871 0
M  V30 4832 O 443.242 2.48688 -1.08934 0
M  V30 4833 C 441.698 1.26425 -3.36964 0
M  V30 4834 C 441.306 0.232568 -4.47396 0
M  V30 4835 C 443.05 1.92604 -3.78291 0
M  V30 4836 C 440.957 0.824882 -5.85619 0
M  V30 4837 H 439.887 0.258499 -0.708304 0
M  V30 4838 H 442.538 -0.0624957 -1.83394 0
M  V30 4839 H 440.92 2.05949 -3.38232 0
M  V30 4840 H 442.094 -0.5382 -4.57646 0
M  V30 4841 H 440.409 -0.32888 -4.15099 0
M  V30 4842 H 443.006 2.37827 -4.78897 0
M  V30 4843 H 443.349 2.75732 -3.11894 0
M  V30 4844 H 443.882 1.19812 -3.79328 0
M  V30 4845 H 440.621 0.0323542 -6.55492 0
M  V30 4846 H 440.141 1.56477 -5.79029 0
M  V30 4847 H 441.82 1.32301 -6.33329 0
M  V30 4848 N 441.952 1.55251 0.271103 0
M  V30 4849 C 442.862 1.9136 1.35714 0
M  V30 4850 C 443.878 0.811075 1.5394 0
M  V30 4851 O 445.054 1.11031 1.6803 0
M  V30 4852 C 442.119 2.1798 2.69603 0
M  V30 4853 C 441.18 3.4153 2.60107 0
M  V30 4854 C 440.413 3.66871 3.8761 0
M  V30 4855 O 440.636 2.94689 4.8838 0
M  V30 4856 O 439.57 4.60405 3.87699 0
M  V30 4857 H 443.396 2.83815 1.08088 0
M  V30 4858 H 440.981 1.41821 0.469792 0
M  V30 4859 H 442.863 2.36518 3.48765 0
M  V30 4860 H 441.538 1.28708 2.97012 0
M  V30 4861 H 440.445 3.28325 1.79314 0
M  V30 4862 H 441.778 4.31027 2.37647 0
M  V30 4863 N 443.43 -0.535701 1.48216 0
M  V30 4864 C 444.362 -1.65662 1.58394 0
M  V30 4865 C 445.375 -1.5591 0.468607 0
M  V30 4866 O 446.564 -1.62475 0.7392 0
M  V30 4867 C 443.664 -3.04276 1.4923 0
M  V30 4868 C 442.837 -3.39567 2.75705 0
M  V30 4869 C 441.896 -4.57436 2.60075 0
M  V30 4870 O 440.922 -4.60942 3.33948 0
M  V30 4871 N 442.124 -5.55259 1.69315 0
M  V30 4872 H 444.889 -1.5737 2.55058 0
M  V30 4873 H 442.45 -0.722845 1.44867 0
M  V30 4874 H 444.442 -3.80994 1.36477 0
M  V30 4875 H 443.012 -3.06677 0.605632 0
M  V30 4876 H 442.232 -2.52083 3.03064 0
M  V30 4877 H 443.52 -3.59929 3.59623 0
M  V30 4878 H 442.918 -5.552 1.08489 0
M  V30 4879 H 441.475 -6.31218 1.62504 0
M  V30 4880 N 444.908 -1.36708 -0.784132 0
M  V30 4881 C 445.818 -1.3363 -1.92822 0
M  V30 4882 C 446.834 -0.237686 -1.72369 0
M  V30 4883 O 448.01 -0.470962 -1.95816 0
M  V30 4884 C 445.075 -1.13011 -3.27764 0
M  V30 4885 C 444.136 -2.32397 -3.60957 0
M  V30 4886 C 443.369 -2.12752 -4.89461 0
M  V30 4887 O 443.592 -1.10541 -5.59586 0
M  V30 4888 O 442.526 -3.00653 -5.21432 0
M  V30 4889 H 446.352 -2.29964 -1.98369 0
M  V30 4890 H 443.937 -1.1731 -0.925136 0
M  V30 4891 H 445.819 -1.03451 -4.08504 0
M  V30 4892 H 444.494 -0.19743 -3.23097 0
M  V30 4893 H 443.401 -2.47527 -2.80502 0
M  V30 4894 H 444.734 -3.2419 -3.70354 0
M  V30 4895 N 446.386 1.0089 -1.21074 0
M  V30 4896 C 447.633 1.74607 -1.0256 0
M  V30 4897 C 447.961 1.89426 0.44136 0
M  V30 4898 O 447.216 1.42266 1.34384 0
M  V30 4899 C 447.515 3.16335 -1.66334 0
M  V30 4900 C 447.181 3.21474 -3.16173 0
M  V30 4901 C 445.843 3.22583 -3.57062 0
M  V30 4902 C 448.195 3.19025 -4.12156 0
M  V30 4903 C 445.523 3.18925 -4.92446 0
M  V30 4904 C 447.875 3.16909 -5.47496 0
M  V30 4905 C 446.539 3.16326 -5.87787 0
M  V30 4906 H 445.809 0.638933 -0.375294 0
M  V30 4907 H 448.456 1.18274 -1.50611 0
M  V30 4908 H 446.761 3.75876 -1.10566 0
M  V30 4909 H 448.458 3.72083 -1.49516 0
M  V30 4910 H 445.048 3.2135 -2.83605 0
M  V30 4911 H 449.232 3.17332 -3.81595 0
M  V30 4912 H 444.488 3.16809 -5.22917 0
M  V30 4913 H 448.662 3.13968 -6.21609 0
M  V30 4914 H 446.289 3.13246 -6.92662 0
M  V30 4915 N 447.864 1.01787 1.20321 0
M  V30 4916 C 448.794 0.609625 2.25401 0
M  V30 4917 C 449.775 -0.375951 1.65893 0
M  V30 4918 O 450.96 -0.261101 1.92437 0
M  V30 4919 C 448.09 -0.0515995 3.47262 0
M  V30 4920 C 447.044 0.855095 4.19371 0
M  V30 4921 C 446.37 0.0595757 5.34667 0
M  V30 4922 C 447.67 2.16374 4.75373 0
M  V30 4923 H 449.364 1.48803 2.59804 0
M  V30 4924 H 446.91 0.716934 1.24884 0
M  V30 4925 H 448.863 -0.348764 4.19954 0
M  V30 4926 H 447.587 -0.964726 3.12027 0
M  V30 4927 H 446.246 1.13628 3.48546 0
M  V30 4928 H 445.894 -0.85524 4.95676 0
M  V30 4929 H 445.594 0.663406 5.83843 0
M  V30 4930 H 447.118 -0.231105 6.10162 0
M  V30 4931 H 448.532 1.92885 5.39878 0
M  V30 4932 H 446.929 2.71853 5.34991 0
M  V30 4933 H 447.999 2.82589 3.94045 0
M  V30 4934 N 449.342 -1.36122 0.79427 0
M  V30 4935 C 450.57 -2.03362 0.380989 0
M  V30 4936 C 450.985 -1.59881 -1.00416 0
M  V30 4937 O 450.342 -0.790515 -1.6449 0
M  V30 4938 C 450.393 -3.58804 0.440649 0
M  V30 4939 O 450.114 -4.007 1.77118 0
M  V30 4940 C 451.615 -4.43296 0.0186117 0
M  V30 4941 H 448.835 -0.652526 0.156367 0
M  V30 4942 H 451.379 -1.73998 1.07447 0
M  V30 4943 H 449.534 -3.8686 -0.204458 0
M  V30 4944 H 449.948 -4.95309 1.72538 0
M  V30 4945 H 451.422 -5.51887 0.111488 0
M  V30 4946 H 451.899 -4.2684 -1.03461 0
M  V30 4947 H 452.505 -4.20512 0.636395 0
M  V30 4948 N 450.82 -0.546701 -1.47814 0
M  V30 4949 C 451.73 0.21026 -2.33656 0
M  V30 4950 C 452.746 0.922413 -1.47538 0
M  V30 4951 O 453.922 0.893652 -1.80488 0
M  V30 4952 C 450.987 1.23348 -3.24016 0
M  V30 4953 C 450.048 0.529883 -4.26017 0
M  V30 4954 C 449.281 1.50435 -5.12059 0
M  V30 4955 O 449.504 2.73837 -5.00369 0
M  V30 4956 O 448.438 1.03459 -5.92942 0
M  V30 4957 H 452.264 -0.493605 -2.99662 0
M  V30 4958 H 449.849 -0.307427 -1.46203 0
M  V30 4959 H 451.731 1.82438 -3.79861 0
M  V30 4960 H 450.406 1.91945 -2.60651 0
M  V30 4961 H 449.313 -0.101948 -3.73961 0
M  V30 4962 H 450.646 -0.11445 -4.92067 0
M  V30 4963 N 452.299 1.55045 -0.282633 0
M  V30 4964 C 453.262 2.21515 0.588539 0
M  V30 4965 C 454.262 1.19535 1.07554 0
M  V30 4966 O 455.452 1.44391 0.974514 0
M  V30 4967 C 452.584 2.88704 1.8128 0
M  V30 4968 H 453.777 2.99899 0.00806397 0
M  V30 4969 H 451.33 1.56265 -0.0333067 0
M  V30 4970 H 452.065 2.14352 2.43359 0
M  V30 4971 H 451.85 3.63443 1.47144 0
M  V30 4972 H 453.34 3.39465 2.43214 0
M  V30 4973 N 453.777 0.010035 1.57597 0
M  V30 4974 C 454.707 -0.976857 2.12084 0
M  V30 4975 C 455.688 -1.35191 1.03235 0
M  V30 4976 O 456.873 -1.43389 1.3097 0
M  V30 4977 C 454.003 -2.26548 2.63236 0
M  V30 4978 C 452.957 -2.03175 3.76701 0
M  V30 4979 C 452.283 -3.38138 4.14206 0
M  V30 4980 C 453.583 -1.38625 5.03568 0
M  V30 4981 H 455.277 -0.523145 2.94794 0
M  V30 4982 H 452.823 -0.250195 1.4181 0
M  V30 4983 H 454.776 -2.95952 2.99984 0
M  V30 4984 H 453.5 -2.74051 1.77661 0
M  V30 4985 H 452.159 -1.36195 3.40362 0
M  V30 4986 H 451.807 -3.83363 3.25641 0
M  V30 4987 H 451.507 -3.23312 4.90656 0
M  V30 4988 H 453.031 -4.08841 4.53521 0
M  V30 4989 H 454.445 -1.98 5.38023 0
M  V30 4990 H 452.842 -1.34256 5.84889 0
M  V30 4991 H 453.912 -0.356722 4.83586 0
M  V30 4992 N 455.255 -1.55392 -0.262866 0
M  V30 4993 C 456.666 -1.67079 -0.833158 0
M  V30 4994 C 457.017 -0.604539 -1.86654 0
M  V30 4995 O 456.142 0.252138 -2.14926 0
M  V30 4996 C 456.737 -3.02891 -1.51797 0
M  V30 4997 C 455.296 -3.16571 -2.03617 0
M  V30 4998 C 454.443 -2.62909 -0.881701 0
M  V30 4999 H 457.394 -1.58652 -0.0389986 0
M  V30 5000 H 457.415 -2.96445 -2.38538 0
M  V30 5001 H 456.927 -3.80473 -0.765619 0
M  V30 5002 H 455.028 -2.43782 -2.81782 0
M  V30 5003 H 455.141 -4.23271 -2.24452 0
M  V30 5004 H 453.505 -2.20324 -1.27786 0
M  V30 5005 H 454.288 -3.43003 -0.14269 0
M  V30 5006 N 456.733 0.527833 -1.48498 0
M  V30 5007 C 457.979 1.28545 -1.56857 0
M  V30 5008 C 458.312 1.92678 -0.242651 0
M  V30 5009 O 457.587 1.79394 0.751545 0
M  V30 5010 C 457.87 2.37314 -2.70839 0
M  V30 5011 C 457.723 1.77858 -4.13142 0
M  V30 5012 C 459.042 3.39068 -2.80573 0
M  V30 5013 H 456.161 0.466006 -0.570971 0
M  V30 5014 H 458.803 0.587784 -1.8068 0
M  V30 5015 H 456.953 2.96821 -2.50658 0
M  V30 5016 H 458.625 1.22385 -4.44769 0
M  V30 5017 H 456.868 1.08383 -4.20042 0
M  V30 5018 H 457.539 2.56624 -4.88721 0
M  V30 5019 H 460.015 2.89518 -2.98862 0
M  V30 5020 H 458.891 4.12566 -3.6205 0
M  V30 5021 H 459.152 3.9975 -1.88818 0
M  V30 5022 N 458.211 1.37122 0.776871 0
M  V30 5023 C 459.158 1.3247 1.88998 0
M  V30 5024 C 460.128 0.191143 1.64997 0
M  V30 5025 O 461.313 0.379683 1.86984 0
M  V30 5026 C 458.453 1.13241 3.25992 0
M  V30 5027 C 457.566 2.35782 3.61982 0
M  V30 5028 C 456.701 2.09465 4.88158 0
M  V30 5029 C 455.74 3.279 5.16864 0
M  V30 5030 N 454.877 3.01167 6.34226 0
M  V30 5031 H 459.717 2.27642 1.9231 0
M  V30 5032 H 457.254 1.13125 0.94027 0
M  V30 5033 H 459.212 1.00115 4.0501 0
M  V30 5034 H 457.842 0.217186 3.22069 0
M  V30 5035 H 456.894 2.59666 2.77989 0
M  V30 5036 H 458.206 3.24125 3.79137 0
M  V30 5037 H 457.36 1.93341 5.75069 0
M  V30 5038 H 456.099 1.18452 4.73097 0
M  V30 5039 H 455.104 3.44569 4.2843 0
M  V30 5040 H 456.329 4.19757 5.33836 0
M  V30 5041 H 454.275 2.12779 6.20533 0
M  V30 5042 H 454.192 3.83052 6.51772 0
M  V30 5043 H 455.46 2.88649 7.24087 0
M  V30 5044 N 459.689 -1.00246 1.21608 0
M  V30 5045 C 460.619 -2.10921 1.00172 0
M  V30 5046 C 461.6 -1.69938 -0.0741587 0
M  V30 5047 O 462.785 -1.94009 0.0861753 0
M  V30 5048 C 459.915 -3.42618 0.568355 0
M  V30 5049 C 458.869 -3.97407 1.58909 0
M  V30 5050 C 458.195 -5.25038 1.01187 0
M  V30 5051 C 459.495 -4.2918 2.97661 0
M  V30 5052 H 461.189 -2.29112 1.92739 0
M  V30 5053 H 458.735 -1.10101 0.928102 0
M  V30 5054 H 460.688 -4.19444 0.405555 0
M  V30 5055 H 459.412 -3.24227 -0.392961 0
M  V30 5056 H 458.071 -3.22703 1.73949 0
M  V30 5057 H 457.719 -5.02982 0.0421965 0
M  V30 5058 H 457.419 -5.62661 1.6937 0
M  V30 5059 H 458.943 -6.04507 0.860448 0
M  V30 5060 H 460.357 -4.96839 2.86049 0
M  V30 5061 H 458.754 -4.77952 3.6288 0
M  V30 5062 H 459.824 -3.3735 3.48315 0
M  V30 5063 N 461.167 -1.02423 -1.1978 0
M  V30 5064 C 462.416 -0.713265 -1.88667 0
M  V30 5065 C 462.729 0.7609 -1.80193 0
M  V30 5066 O 463.935 1.18473 -2.44288 0
M  V30 5067 C 462.391 -1.22545 -3.38394 0
M  V30 5068 C 461.999 -2.72706 -3.55437 0
M  V30 5069 C 463.743 -0.990257 -4.12788 0
M  V30 5070 C 461.65 -3.17367 -4.99031 0
M  V30 5071 H 460.58 -0.263105 -0.706606 0
M  V30 5072 H 463.231 -1.23792 -1.35454 0
M  V30 5073 H 461.613 -0.628732 -3.90977 0
M  V30 5074 H 462.787 -3.37993 -3.13205 0
M  V30 5075 H 461.102 -2.94453 -2.94425 0
M  V30 5076 H 463.699 -1.29926 -5.18675 0
M  V30 5077 H 464.042 0.0730761 -4.16236 0
M  V30 5078 H 464.575 -1.55074 -3.66329 0
M  V30 5079 H 461.314 -4.23009 -5.00743 0
M  V30 5080 H 460.834 -2.56805 -5.42044 0
M  V30 5081 H 462.513 -3.10441 -5.67658 0
M  V30 5082 N 462.645 1.35699 -0.801477 0
M  V30 5083 C 463.893 1.9852 -0.37871 0
M  V30 5084 C 464.214 1.63907 1.05638 0
M  V30 5085 O 463.484 0.919013 1.73006 0
M  V30 5086 H 462.064 0.734322 -0.137042 0
M  V30 5087 H 464.726 1.65697 -1.02619 0
M  V30 5088 H 463.822 3.08382 -0.480284 0
M  V30 5089 N 464.123 0.554532 1.47522 0
M  V30 5090 C 465.056 -0.242442 2.26908 0
M  V30 5091 C 466.034 -0.922722 1.33883 0
M  V30 5092 O 467.218 -0.942244 1.63261 0
M  V30 5093 C 464.345 -1.34525 3.10839 0
M  V30 5094 C 463.391 -0.773805 4.19422 0
M  V30 5095 S 464.224 0.377525 5.34168 0
M  V30 5096 C 465.38 -0.727164 6.21662 0
M  V30 5097 H 465.613 0.431218 2.94156 0
M  V30 5098 H 463.146 0.3408 1.50592 0
M  V30 5099 H 465.104 -1.97683 3.59766 0
M  V30 5100 H 463.765 -1.99073 2.42958 0
M  V30 5101 H 462.958 -1.60187 4.77866 0
M  V30 5102 H 462.56 -0.218448 3.73361 0
M  V30 5103 H 464.852 -1.61992 6.57849 0
M  V30 5104 H 465.795 -0.180135 7.07871 0
M  V30 5105 H 466.203 -1.01863 5.55233 0
M  V30 5106 N 465.601 -1.54893 0.290851 0
M  V30 5107 C 466.549 -2.24579 -0.605576 0
M  V30 5108 C 467.543 -1.24824 -1.14522 0
M  V30 5109 O 468.749 -1.42706 -1.09704 0
M  V30 5110 H 465.124 -0.720946 -0.213872 0
M  V30 5111 H 467.095 -2.984 0.0048173 0
M  V30 5112 C 465.844 -2.99224 -1.77088 0
M  V30 5113 H 465.167 -3.75782 -1.36484 0
M  V30 5114 H 466.607 -3.51281 -2.3744 0
M  V30 5115 C 465.066 -2.05602 -2.66888 0
M  V30 5116 O 465.596 -1.61745 -3.67698 0
M  V30 5117 N 463.802 -1.71771 -2.34399 0
M  V30 5118 H 463.349 -2.07633 -1.52468 0
M  V30 5119 H 463.307 -1.09403 -2.94751 0
M  V30 5120 N 467.08 -0.0183926 -1.57589 0
M  V30 5121 C 468.32 0.666846 -1.93216 0
M  V30 5122 C 468.684 1.69905 -0.894215 0
M  V30 5123 O 469.885 2.436 -1.13633 0
M  V30 5124 C 468.156 1.27684 -3.33814 0
M  V30 5125 S 469.715 1.98464 -3.91353 0
M  V30 5126 H 466.533 0.219826 -0.676164 0
M  V30 5127 H 469.135 -0.0794893 -1.95338 0
M  V30 5128 H 467.839 0.513006 -4.07181 0
M  V30 5129 H 467.37 2.06071 -3.3511 0
M  V30 5130 H 469.385 3.26189 -3.73918 0
M  V30 5131 N 468.558 1.5553 0.254621 0
M  V30 5132 C 469.786 1.81046 1.00149 0
M  V30 5133 C 470.201 0.593047 1.79244 0
M  V30 5134 O 469.558 -0.438196 1.77161 0
M  V30 5135 C 469.609 3.04684 1.94551 0
M  V30 5136 O 469.33 4.21725 1.18658 0
M  V30 5137 C 470.831 3.42943 2.80901 0
M  V30 5138 H 468.051 0.602653 0.295044 0
M  V30 5139 H 470.595 2.02576 0.279842 0
M  V30 5140 H 468.75 2.85226 2.62154 0
M  V30 5141 H 469.164 4.91746 1.82445 0
M  V30 5142 H 470.638 4.32576 3.42902 0
M  V30 5143 H 471.115 2.63176 3.51617 0
M  V30 5144 H 471.721 3.64724 2.18762 0
M  V30 5145 N 470.036 -0.519951 1.48776 0
M  V30 5146 C 470.966 -1.63253 1.66945 0
M  V30 5147 C 471.947 -1.62014 0.518224 0
M  V30 5148 O 473.132 -1.79053 0.751919 0
M  V30 5149 C 470.262 -3.0181 1.71836 0
M  V30 5150 C 469.216 -3.17911 2.8656 0
M  V30 5151 C 468.542 -4.5763 2.76548 0
M  V30 5152 C 469.842 -2.99729 4.27738 0
M  V30 5153 H 471.536 -1.48302 2.6009 0
M  V30 5154 H 469.082 -0.712026 1.25165 0
M  V30 5155 H 471.035 -3.79525 1.83135 0
M  V30 5156 H 469.759 -3.17806 0.752775 0
M  V30 5157 H 468.418 -2.42616 2.74833 0
M  V30 5158 H 468.066 -4.70476 1.77937 0
M  V30 5159 H 467.766 -4.69346 3.53536 0
M  V30 5160 H 469.29 -5.37431 2.89828 0
M  V30 5161 H 470.704 -3.67228 4.40246 0
M  V30 5162 H 469.101 -3.22932 5.05801 0
M  V30 5163 H 470.171 -1.96047 4.43502 0
M  V30 5164 N 471.514 -1.37532 -0.769588 0
M  V30 5165 C 472.447 -1.27839 -1.8903 0
M  V30 5166 C 473.425 -0.158504 -1.61826 0
M  V30 5167 O 474.609 -0.333086 -1.85534 0
M  V30 5168 C 471.736 -0.977072 -3.24301 0
M  V30 5169 C 470.782 -2.11414 -3.70414 0
M  V30 5170 S 471.615 -3.73409 -3.83831 0
M  V30 5171 C 472.771 -3.45432 -5.21946 0
M  V30 5172 H 473.004 -2.22694 -1.96963 0
M  V30 5173 H 470.537 -1.2318 -0.930914 0
M  V30 5174 H 472.495 -0.810049 -4.02428 0
M  V30 5175 H 471.156 -0.0459701 -3.14066 0
M  V30 5176 H 470.349 -1.85837 -4.68488 0
M  V30 5177 H 469.951 -2.24141 -2.99394 0
M  V30 5178 H 472.243 -3.00554 -6.07185 0
M  V30 5179 H 473.186 -4.42841 -5.52537 0
M  V30 5180 H 473.594 -2.80311 -4.89986 0
M  V30 5181 N 472.992 0.995999 -1.22138 0
M  V30 5182 C 473.939 2.08551 -0.988687 0
M  V30 5183 C 474.909 1.65864 0.0885021 0
M  V30 5184 O 476.094 1.90704 -0.0604589 0
M  V30 5185 C 473.234 3.40374 -0.569191 0
M  V30 5186 C 472.347 3.96421 -1.71681 0
M  V30 5187 C 471.482 5.1639 -1.2456 0
M  V30 5188 C 470.521 5.64567 -2.36497 0
M  V30 5189 N 469.658 6.75777 -1.90445 0
M  V30 5190 H 474.498 2.2779 -1.92135 0
M  V30 5191 H 472.035 1.1168 -0.957388 0
M  V30 5192 H 473.993 4.16068 -0.307166 0
M  V30 5193 H 472.623 3.21145 0.326462 0
M  V30 5194 H 471.675 3.17628 -2.09324 0
M  V30 5195 H 472.987 4.2816 -2.55891 0
M  V30 5196 H 472.141 5.99362 -0.940774 0
M  V30 5197 H 470.88 4.86266 -0.373662 0
M  V30 5198 H 469.885 4.80185 -2.67772 0
M  V30 5199 H 471.11 5.96716 -3.24202 0
M  V30 5200 H 469.056 6.47443 -1.05609 0
M  V30 5201 H 468.973 7.06818 -2.68223 0
M  V30 5202 H 470.241 7.62262 -1.63022 0
M  V30 5203 N 474.47 1.03057 1.19235 0
M  V30 5204 C 475.402 0.570932 2.21975 0
M  V30 5205 C 476.415 -0.354088 1.58903 0
M  V30 5206 O 477.604 -0.150211 1.77867 0
M  V30 5207 C 474.704 -0.187152 3.38383 0
M  V30 5208 C 473.877 0.743231 4.31039 0
M  V30 5209 C 472.936 0.0302493 5.26191 0
M  V30 5210 O 471.962 0.657371 5.65391 0
M  V30 5211 N 473.164 -1.23991 5.67104 0
M  V30 5212 H 475.929 1.45456 2.62036 0
M  V30 5213 H 473.49 0.909807 1.33918 0
M  V30 5214 H 475.482 -0.673715 3.99053 0
M  V30 5215 H 474.052 -0.972205 2.97098 0
M  V30 5216 H 473.272 1.40985 3.68126 0
M  V30 5217 H 474.56 1.3755 4.89854 0
M  V30 5218 H 473.958 -1.77011 5.37293 0
M  V30 5219 H 472.515 -1.67093 6.30018 0
M  V30 5220 N 475.948 -1.35272 0.808662 0
M  V30 5221 C 477.178 -2.02652 0.401953 0
M  V30 5222 C 477.586 -1.6108 -0.992462 0
M  V30 5223 O 476.929 -0.804984 -1.65123 0
M  V30 5224 C 476.991 -3.57174 0.408246 0
M  V30 5225 C 476.655 -4.22019 1.75353 0
M  V30 5226 C 477.652 -4.43552 2.71215 0
M  V30 5227 C 475.337 -4.59093 2.03811 0
M  V30 5228 C 477.331 -5.01264 3.93717 0
M  V30 5229 C 475.018 -5.16519 3.26576 0
M  V30 5230 C 476.016 -5.37546 4.21347 0
M  V30 5231 O 475.704 -5.93761 5.41944 0
M  V30 5232 H 475.436 -0.656495 0.161216 0
M  V30 5233 H 477.99 -1.73829 1.0942 0
M  V30 5234 H 476.22 -3.85197 -0.340608 0
M  V30 5235 H 477.909 -4.05893 0.0235623 0
M  V30 5236 H 478.675 -4.15288 2.50522 0
M  V30 5237 H 474.554 -4.42039 1.30854 0
M  V30 5238 H 478.098 -5.17592 4.67701 0
M  V30 5239 H 473.995 -5.4421 3.47139 0
M  V30 5240 H 474.763 -6.1221 5.43269 0
M  V30 5241 N 477.426 -0.562348 -1.47226 0
M  V30 5242 C 478.675 -0.038041 -2.01664 0
M  V30 5243 C 478.988 1.32199 -1.44162 0
M  V30 5244 O 480.194 1.9365 -1.90294 0
M  V30 5245 C 478.65 -0.0174958 -3.59896 0
M  V30 5246 C 478.258 -1.3746 -4.2639 0
M  V30 5247 C 480.002 0.453934 -4.22066 0
M  V30 5248 C 477.909 -1.31289 -5.76643 0
M  V30 5249 H 476.839 -0.0104511 -0.753928 0
M  V30 5250 H 479.49 -0.710966 -1.69167 0
M  V30 5251 H 477.872 0.721182 -3.89378 0
M  V30 5252 H 479.046 -2.1314 -4.08544 0
M  V30 5253 H 477.361 -1.78438 -3.7623 0
M  V30 5254 H 479.958 0.518584 -5.32179 0
M  V30 5255 H 480.301 1.46706 -3.89594 0
M  V30 5256 H 480.834 -0.230044 -3.97134 0
M  V30 5257 H 477.573 -2.30217 -6.13743 0
M  V30 5258 H 477.093 -0.597973 -5.96812 0
M  V30 5259 H 478.772 -1.01713 -6.38955 0
M  V30 5260 N 478.904 1.54736 -0.299062 0
M  V30 5261 C 479.814 2.27127 0.587413 0
M  V30 5262 C 480.83 1.30575 1.15005 0
M  V30 5263 O 482.006 1.63554 1.17525 0
M  V30 5264 C 479.071 2.99645 1.74395 0
M  V30 5265 C 478.132 4.11731 1.21559 0
M  V30 5266 C 477.365 4.80781 2.317 0
M  V30 5267 O 477.588 4.4918 3.51558 0
M  V30 5268 O 476.522 5.68226 1.98501 0
M  V30 5269 H 480.348 3.037 0.000250109 0
M  V30 5270 H 477.933 1.49256 -0.0655919 0
M  V30 5271 H 479.815 3.45138 2.4178 0
M  V30 5272 H 478.49 2.25969 2.31775 0
M  V30 5273 H 477.397 3.70641 0.507514 0
M  V30 5274 H 478.73 4.87379 0.687233 0
M  V30 5275 N 480.382 0.0267497 1.57577 0
M  V30 5276 C 481.629 -0.652404 1.91703 0
M  V30 5277 C 481.957 -1.72271 0.902936 0
M  V30 5278 O 481.212 -1.955 -0.0884843 0
M  V30 5279 C 481.511 -1.30914 3.3256 0
M  V30 5280 C 481.177 -0.369441 4.49384 0
M  V30 5281 C 479.839 -0.110791 4.81072 0
M  V30 5282 C 482.191 0.275971 5.20469 0
M  V30 5283 C 479.519 0.801116 5.81205 0
M  V30 5284 C 481.871 1.17592 6.21575 0
M  V30 5285 C 480.535 1.44348 6.51705 0
M  V30 5286 H 479.805 -0.238732 0.70149 0
M  V30 5287 H 482.452 0.0880091 1.91298 0
M  V30 5288 H 480.757 -2.12425 3.29216 0
M  V30 5289 H 482.454 -1.84115 3.56234 0
M  V30 5290 H 479.044 -0.581211 4.24641 0
M  V30 5291 H 483.228 0.0892 4.9622 0
M  V30 5292 H 478.484 1.01614 6.02897 0
M  V30 5293 H 482.658 1.68223 6.75777 0
M  V30 5294 H 480.285 2.15176 7.29111 0
M  V30 5295 N 481.861 -1.55662 -0.24637 0
M  V30 5296 C 483.107 -1.77782 -0.975779 0
M  V30 5297 C 483.44 -0.592103 -1.84953 0
M  V30 5298 O 482.715 0.409588 -1.90138 0
M  V30 5299 C 482.998 -3.09788 -1.83584 0
M  V30 5300 C 482.851 -4.38764 -0.990241 0
M  V30 5301 C 484.17 -3.38029 -2.81823 0
M  V30 5302 H 481.289 -0.646789 -0.353317 0
M  V30 5303 H 483.931 -1.88398 -0.246248 0
M  V30 5304 H 482.081 -3.00869 -2.45784 0
M  V30 5305 H 483.753 -4.59675 -0.386897 0
M  V30 5306 H 481.996 -4.32798 -0.294626 0
M  V30 5307 H 482.667 -5.27514 -1.62584 0
M  V30 5308 H 485.143 -3.46915 -2.2976 0
M  V30 5309 H 484.019 -4.3161 -3.39122 0
M  V30 5310 H 484.28 -2.58968 -3.58313 0
M  V30 5311 N 483.339 0.512053 -1.4905 0
M  V30 5312 C 484.302 1.59704 -1.64399 0
M  V30 5313 C 485.302 1.52285 -0.516317 0
M  V30 5314 O 486.492 1.55635 -0.782527 0
M  V30 5315 C 483.624 2.9935 -1.63102 0
M  V30 5316 H 484.817 1.47428 -2.61161 0
M  V30 5317 H 482.37 0.735469 -1.37915 0
M  V30 5318 H 483.105 3.17116 -0.678836 0
M  V30 5319 H 482.89 3.06144 -2.44986 0
M  V30 5320 H 484.38 3.782 -1.77072 0
M  V30 5321 N 484.817 1.37938 0.762283 0
M  V30 5322 C 486.094 1.24196 1.51112 0
M  V30 5323 C 486.474 -0.160409 2.1049 0
M  V30 5324 O 485.822 -1.16904 1.96331 0
M  V30 5325 C 486.032 2.34537 2.58445 0
M  V30 5326 C 487.38 2.7254 3.25588 0
M  V30 5327 O 488.404 2.33783 2.68745 0
M  V30 5328 O 487.263 3.39343 4.28379 0
M  V30 5329 H 484.357 0.485175 0.669727 0
M  V30 5330 H 486.903 1.49743 0.798438 0
M  V30 5331 H 485.675 3.28406 2.12756 0
M  V30 5332 H 485.298 2.10505 3.37303 0
M  V30 5333 N 486.295 -0.989507 1.22664 0
M  V30 5334 C 487.711 -1.25395 0.987331 0
M  V30 5335 C 487.911 -1.9899 -0.317056 0
M  V30 5336 O 486.967 -2.30141 -1.03882 0
M  V30 5337 C 488.28 -2.06242 2.18826 0
M  V30 5338 C 489.828 -2.19413 2.23219 0
M  V30 5339 C 490.303 -3.03648 3.42873 0
M  V30 5340 N 491.794 -3.11234 3.43056 0
M  V30 5341 C 492.529 -3.7671 4.32293 0
M  V30 5342 N 492.025 -4.44085 5.31752 0
M  V30 5343 N 493.818 -3.73505 4.2006 0
M  V30 5344 H 485.969 -0.496212 2.06522 0
M  V30 5345 H 488.232 -0.281784 0.905153 0
M  V30 5346 H 487.938 -1.59531 3.13437 0
M  V30 5347 H 487.812 -3.06996 2.19165 0
M  V30 5348 H 490.199 -2.65336 1.29154 0
M  V30 5349 H 490.28 -1.18078 2.26917 0
M  V30 5350 H 489.924 -2.58424 4.37241 0
M  V30 5351 H 489.854 -4.05132 3.36416 0
M  V30 5352 H 492.345 -2.63287 2.71088 0
M  V30 5353 H 492.658 -4.91797 5.96117 0
M  V30 5354 H 491.003 -4.42822 5.35662 0
M  V30 5355 H 494.194 -3.20033 3.41609 0
M  V30 5356 H 494.367 -4.24253 4.8981 0
M  V30 5357 N 487.773 -1.03688 -1.18687 0
M  V30 5358 C 488.703 -0.645407 -2.24403 0
M  V30 5359 C 489.684 0.349511 -1.66471 0
M  V30 5360 O 490.869 0.230453 -1.92828 0
M  V30 5361 C 487.999 -0.00365337 -3.473 0
M  V30 5362 C 486.953 -0.921705 -4.17958 0
M  V30 5363 C 486.279 -0.144629 -5.34504 0
M  V30 5364 C 487.579 -2.23909 -4.71871 0
M  V30 5365 H 489.273 -1.52917 -2.57404 0
M  V30 5366 H 486.819 -0.736711 -1.23728 0
M  V30 5367 H 488.772 0.281908 -4.20456 0
M  V30 5368 H 487.496 0.914963 -3.13522 0
M  V30 5369 H 486.155 -1.19159 -3.46694 0
M  V30 5370 H 485.803 0.776274 -4.96974 0
M  V30 5371 H 485.503 -0.756206 -5.82714 0
M  V30 5372 H 487.027 0.134004 -6.10453 0
M  V30 5373 H 488.441 -2.0145 -5.36741 0
M  V30 5374 H 486.838 -2.8033 -5.30599 0
M  V30 5375 H 487.908 -2.88822 -3.895 0
M  V30 5376 N 489.251 1.34841 -0.815825 0
M  V30 5377 C 490.184 2.27504 -0.178062 0
M  V30 5378 C 491.162 1.48542 0.661373 0
M  V30 5379 O 492.346 1.77779 0.626653 0
M  V30 5380 C 489.473 3.30246 0.752002 0
M  V30 5381 C 488.519 4.26499 -0.00899172 0
M  V30 5382 S 489.352 5.18169 -1.35134 0
M  V30 5383 C 490.508 6.24449 -0.42596 0
M  V30 5384 H 490.741 2.81248 -0.963684 0
M  V30 5385 H 488.274 1.41781 -0.611355 0
M  V30 5386 H 490.232 3.89933 1.28308 0
M  V30 5387 H 488.893 2.75363 1.51109 0
M  V30 5388 H 488.086 4.99146 0.697766 0
M  V30 5389 H 487.688 3.7103 -0.470396 0
M  V30 5390 H 489.98 6.76404 0.385234 0
M  V30 5391 H 490.923 6.99156 -1.1219 0
M  V30 5392 H 491.331 5.64497 -0.0175461 0
M  V30 5393 N 490.729 0.570148 1.46925 0
M  V30 5394 C 491.659 -0.158274 2.32963 0
M  V30 5395 C 492.64 -0.896093 1.44583 0
M  V30 5396 O 493.825 -0.874022 1.7342 0
M  V30 5397 C 490.955 -1.18055 3.26619 0
M  V30 5398 C 489.909 -0.558379 4.24342 0
M  V30 5399 C 489.235 -1.68623 5.07415 0
M  V30 5400 C 490.535 0.496295 5.19937 0
M  V30 5401 H 492.229 0.560046 2.94115 0
M  V30 5402 H 489.775 0.270775 1.41431 0
M  V30 5403 H 491.728 -1.69841 3.85658 0
M  V30 5404 H 490.452 -1.92899 2.63548 0
M  V30 5405 H 489.111 -0.0617157 3.66548 0
M  V30 5406 H 488.759 -2.42402 4.40738 0
M  V30 5407 H 488.459 -1.27564 5.73586 0
M  V30 5408 H 489.983 -2.20709 5.69315 0
M  V30 5409 H 491.397 0.0640052 5.73264 0
M  V30 5410 H 489.794 0.82649 5.94381 0
M  V30 5411 H 490.864 1.38735 4.6463 0
M  V30 5412 N 492.207 -1.54576 0.307264 0
M  V30 5413 C 493.117 -2.27435 -0.57536 0
M  V30 5414 C 494.133 -1.31183 -1.14311 0
M  V30 5415 O 495.309 -1.64175 -1.16656 0
M  V30 5416 C 492.374 -3.00566 -1.72803 0
M  V30 5417 C 491.435 -4.12369 -1.19373 0
M  V30 5418 C 490.668 -4.82003 -2.29147 0
M  V30 5419 O 490.891 -4.51038 -3.49171 0
M  V30 5420 O 489.825 -5.69271 -1.95485 0
M  V30 5421 H 493.651 -3.03696 0.0158558 0
M  V30 5422 H 491.236 -1.49219 0.0735064 0
M  V30 5423 H 493.118 -3.46416 -2.39946 0
M  V30 5424 H 491.793 -2.27195 -2.30574 0
M  V30 5425 H 490.7 -3.70905 -0.487851 0
M  V30 5426 H 492.033 -4.87736 -0.661376 0
M  V30 5427 N 493.685 -0.035106 -1.57561 0
M  V30 5428 C 494.615 0.942993 -2.13612 0
M  V30 5429 C 495.596 1.33531 -1.05373 0
M  V30 5430 O 496.781 1.41287 -1.33235 0
M  V30 5431 C 493.911 2.22332 -2.66807 0
M  V30 5432 C 492.865 1.97156 -3.79886 0
M  V30 5433 C 492.191 3.31506 -4.19533 0
M  V30 5434 C 493.491 1.30596 -5.05709 0
M  V30 5435 H 495.185 0.476179 -2.95589 0
M  V30 5436 H 492.731 0.227602 -1.4219 0
M  V30 5437 H 494.684 2.91142 -3.04654 0
M  V30 5438 H 493.408 2.7119 -1.81999 0
M  V30 5439 H 492.067 1.30763 -3.42486 0
M  V30 5440 H 491.715 3.78134 -3.31698 0
M  V30 5441 H 491.415 3.15465 -4.95738 0
M  V30 5442 H 492.939 4.01574 -4.59968 0
M  V30 5443 H 494.353 1.89416 -5.41105 0
M  V30 5444 H 492.75 1.24934 -5.86951 0
M  V30 5445 H 493.82 0.279742 -4.84092 0
M  V30 5446 N 495.163 1.55791 0.238111 0
M  V30 5447 C 496.411 1.77681 0.963001 0
M  V30 5448 C 496.732 0.600674 1.85518 0
M  V30 5449 O 496.002 -0.383182 1.92116 0
M  V30 5450 H 494.582 0.655315 0.358568 0
M  V30 5451 H 497.244 1.93239 0.253945 0
M  V30 5452 H 496.34 2.69177 1.57956 0
M  V30 5453 N 496.642 -0.504142 1.49319 0
M  V30 5454 C 497.889 -1.25846 1.58647 0
M  V30 5455 C 498.217 -1.92592 0.27177 0
M  V30 5456 O 497.472 -1.81167 -0.74007 0
M  V30 5457 C 497.771 -2.35021 2.69258 0
M  V30 5458 C 497.437 -1.85755 4.1086 0
M  V30 5459 C 496.099 -1.72038 4.49395 0
M  V30 5460 C 498.451 -1.48844 4.99495 0
M  V30 5461 C 495.779 -1.19783 5.74342 0
M  V30 5462 C 498.131 -0.980422 6.24956 0
M  V30 5463 C 496.795 -0.829622 6.62324 0
M  V30 5464 H 496.065 -0.460505 0.580531 0
M  V30 5465 H 498.712 -0.559716 1.83138 0
M  V30 5466 H 497.017 -3.10672 2.38726 0
M  V30 5467 H 498.714 -2.93083 2.73685 0
M  V30 5468 H 495.304 -1.9739 3.80441 0
M  V30 5469 H 499.488 -1.5829 4.70381 0
M  V30 5470 H 494.744 -1.06817 6.01997 0
M  V30 5471 H 498.918 -0.685608 6.93017 0
M  V30 5472 H 496.545 -0.42253 7.59025 0
M  V30 5473 N 498.12 -1.38341 -0.754957 0
M  V30 5474 C 499.345 -1.37882 -1.5493 0
M  V30 5475 C 499.77 0.0296385 -1.88077 0
M  V30 5476 O 499.128 1.01133 -1.50472 0
M  V30 5477 C 499.176 -2.23996 -2.82592 0
M  V30 5478 O 498.28 -1.65612 -3.77686 0
M  V30 5479 H 497.621 -0.470384 -0.468652 0
M  V30 5480 H 500.151 -1.82084 -0.933082 0
M  V30 5481 H 500.161 -2.37806 -3.3153 0
M  V30 5482 H 498.836 -3.26365 -2.57796 0
M  V30 5483 H 497.413 -1.60936 -3.36384 0
M  V30 5484 N 499.598 0.982988 -1.23187 0
M  V30 5485 C 500.545 2.07491 -1.01075 0
M  V30 5486 C 501.515 1.65949 0.070905 0
M  V30 5487 O 502.7 1.90629 -0.0806822 0
M  V30 5488 C 499.84 3.39751 -0.605261 0
M  V30 5489 C 498.953 3.94578 -1.75876 0
M  V30 5490 C 498.088 5.15039 -1.3003 0
M  V30 5491 C 497.127 5.62027 -2.42472 0
M  V30 5492 N 496.264 6.73719 -1.97602 0
M  V30 5493 H 501.104 2.25739 -1.9454 0
M  V30 5494 H 498.641 1.10659 -0.969179 0
M  V30 5495 H 500.599 4.15719 -0.351279 0
M  V30 5496 H 499.229 3.21473 0.292382 0
M  V30 5497 H 498.281 3.1539 -2.12681 0
M  V30 5498 H 499.593 4.25422 -2.60418 0
M  V30 5499 H 498.747 5.9833 -1.00429 0
M  V30 5500 H 497.486 4.85843 -0.425216 0
M  V30 5501 H 496.491 4.77318 -2.7285 0
M  V30 5502 H 497.716 5.93244 -3.30512 0
M  V30 5503 H 495.662 6.46287 -1.1247 0
M  V30 5504 H 495.579 7.03934 -2.75705 0
M  V30 5505 H 496.847 7.6049 -1.71098 0
M  V30 5506 N 501.076 1.04316 1.18135 0
M  V30 5507 C 502.322 0.749128 1.88457 0
M  V30 5508 C 502.655 -0.72149 1.803 0
M  V30 5509 O 501.93 -1.52676 1.205 0
M  V30 5510 C 502.213 1.21905 3.38838 0
M  V30 5511 C 502.066 2.75195 3.55792 0
M  V30 5512 C 503.385 0.811085 4.32561 0
M  V30 5513 H 500.504 0.273611 0.684329 0
M  V30 5514 H 503.146 1.29561 1.38975 0
M  V30 5515 H 501.296 0.754137 3.8111 0
M  V30 5516 H 502.968 3.29743 3.22595 0
M  V30 5517 H 501.211 3.14899 2.98364 0
M  V30 5518 H 501.882 3.03135 4.61317 0
M  V30 5519 H 504.358 1.21118 3.98082 0
M  V30 5520 H 503.234 1.16761 5.36338 0
M  V30 5521 H 503.495 -0.285596 4.41177 0
M  V30 5522 N 502.554 -1.34406 0.822964 0
M  V30 5523 C 503.801 -1.98284 0.411057 0
M  V30 5524 C 504.129 -1.65245 -1.02588 0
M  V30 5525 O 503.384 -0.91619 -1.72929 0
M  V30 5526 C 503.683 -3.52981 0.560268 0
M  V30 5527 C 503.349 -4.05931 1.96293 0
M  V30 5528 C 502.011 -4.20103 2.34664 0
M  V30 5529 C 504.363 -4.34412 2.87985 0
M  V30 5530 C 501.691 -4.60082 3.64062 0
M  V30 5531 C 504.043 -4.75838 4.16847 0
M  V30 5532 C 502.707 -4.88215 4.55195 0
M  V30 5533 H 501.977 -0.725573 0.150416 0
M  V30 5534 H 504.624 -1.60349 1.04692 0
M  V30 5535 H 502.929 -3.91477 -0.158982 0
M  V30 5536 H 504.626 -4.00385 0.222087 0
M  V30 5537 H 501.216 -3.95363 1.65487 0
M  V30 5538 H 505.4 -4.23001 2.59584 0
M  V30 5539 H 500.656 -4.67856 3.93599 0
M  V30 5540 H 504.83 -4.96834 4.87984 0
M  V30 5541 H 502.457 -5.18952 5.55512 0
M  V30 5542 N 504.032 -0.577932 -1.46621 0
M  V30 5543 C 505.448 -0.239242 -1.57797 0
M  V30 5544 C 505.648 1.25843 -1.57371 0
M  V30 5545 O 504.704 2.03988 -1.48813 0
M  V30 5546 C 506.017 -0.884227 -2.87405 0
M  V30 5547 C 507.565 -0.857373 -3.01028 0
M  V30 5548 C 508.04 -1.48181 -4.33366 0
M  V30 5549 N 509.531 -1.44593 -4.40053 0
M  V30 5550 C 510.266 -1.89852 -5.41058 0
M  V30 5551 N 509.762 -2.43062 -6.48762 0
M  V30 5552 N 511.555 -1.80797 -5.3223 0
M  V30 5553 H 503.706 -1.55073 -1.45142 0
M  V30 5554 H 505.969 -0.647903 -0.692044 0
M  V30 5555 H 505.675 -1.93759 -2.93514 0
M  V30 5556 H 505.549 -0.389585 -3.75183 0
M  V30 5557 H 507.936 0.187357 -2.94505 0
M  V30 5558 H 508.017 -1.38999 -2.14739 0
M  V30 5559 H 507.661 -2.52572 -4.40647 0
M  V30 5560 H 507.591 -0.924464 -5.18422 0
M  V30 5561 H 510.082 -1.05694 -3.62819 0
M  V30 5562 H 510.395 -2.75466 -7.22038 0
M  V30 5563 H 508.74 -2.47085 -6.49595 0
M  V30 5564 H 511.931 -1.38989 -4.46989 0
M  V30 5565 H 512.104 -2.16385 -6.10804 0
M  V30 5566 N 505.51 1.54411 -0.315457 0
M  V30 5567 C 506.756 2.00716 0.289972 0
M  V30 5568 C 507.089 1.2034 1.5242 0
M  V30 5569 O 506.364 0.283579 1.92422 0
M  V30 5570 C 506.647 3.54507 0.632196 0
M  V30 5571 C 506.5 4.45615 -0.61218 0
M  V30 5572 C 507.819 4.15421 1.45305 0
M  V30 5573 H 504.938 0.729637 0.10392 0
M  V30 5574 H 507.58 1.8506 -0.430427 0
M  V30 5575 H 505.73 3.67979 1.24595 0
M  V30 5576 H 507.402 4.44026 -1.25053 0
M  V30 5577 H 505.645 4.15621 -1.24264 0
M  V30 5578 H 506.316 5.51022 -0.328379 0
M  V30 5579 H 508.792 4.05474 0.934331 0
M  V30 5580 H 507.668 5.23157 1.66127 0
M  V30 5581 H 507.929 3.68223 2.44671 0
M  V30 5582 N 506.988 0.0434614 1.5754 0
M  V30 5583 C 507.898 -0.94893 2.14552 0
M  V30 5584 C 508.914 -1.34707 1.10136 0
M  V30 5585 O 510.09 -1.42557 1.42266 0
M  V30 5586 C 507.155 -2.208 2.67298 0
M  V30 5587 C 506.216 -1.86893 3.86484 0
M  V30 5588 C 505.449 -3.06797 4.36705 0
M  V30 5589 O 505.672 -4.19921 3.86034 0
M  V30 5590 O 504.606 -2.8826 5.28384 0
M  V30 5591 H 508.432 -0.494099 2.99654 0
M  V30 5592 H 506.017 -0.177989 1.48336 0
M  V30 5593 H 507.899 -2.94686 3.01228 0
M  V30 5594 H 506.574 -2.65436 1.85272 0
M  V30 5595 H 505.481 -1.10347 3.57455 0
M  V30 5596 H 506.814 -1.47062 4.69716 0
M  V30 5597 N 508.466 -1.55915 -0.229846 0
M  V30 5598 C 509.414 -1.9258 -1.30444 0
M  V30 5599 C 510.408 -0.806839 -1.48951 0
M  V30 5600 O 511.614 -0.991606 -1.50224 0
M  V30 5601 H 507.989 -0.611878 -0.437161 0
M  V30 5602 H 509.96 -2.82264 -0.96797 0
M  V30 5603 C 508.709 -2.25171 -2.6494 0
M  V30 5604 H 508.032 -3.10782 -2.51504 0
M  V30 5605 H 509.472 -2.54716 -3.38963 0
M  V30 5606 C 507.931 -1.07394 -3.19324 0
M  V30 5607 O 508.461 -0.330759 -4.00336 0
M  V30 5608 N 506.667 -0.859984 -2.77584 0
M  V30 5609 H 506.214 -1.46605 -2.11813 0
M  V30 5610 H 506.172 -0.0736671 -3.14314 0
M  V30 5611 N 509.944 0.496216 -1.49584 0
M  V30 5612 C 511.355 1.07765 -1.52459 0
M  V30 5613 C 511.706 1.93679 -0.31353 0
M  V30 5614 O 510.831 2.08588 0.576186 0
M  V30 5615 C 511.426 1.96111 -2.76271 0
M  V30 5616 C 509.985 2.49409 -2.81908 0
M  V30 5617 C 509.132 1.27142 -2.46435 0
M  V30 5618 H 512.083 0.279914 -1.56212 0
M  V30 5619 H 512.104 2.80862 -2.56704 0
M  V30 5620 H 511.616 1.33555 -3.64396 0
M  V30 5621 H 509.717 3.1559 -1.98074 0
M  V30 5622 H 509.83 2.86234 -3.84196 0
M  V30 5623 H 508.194 1.59818 -1.98319 0
M  V30 5624 H 508.977 0.662866 -3.3684 0
M  V30 5625 N 511.423 1.38739 0.74761 0
M  V30 5626 C 512.67 1.35274 1.50689 0
M  V30 5627 C 512.998 -0.0553359 1.94421 0
M  V30 5628 O 512.253 -1.03365 1.66175 0
M  V30 5629 C 512.552 2.25992 2.7688 0
M  V30 5630 C 512.218 3.73854 2.5208 0
M  V30 5631 C 510.88 4.14145 2.45025 0
M  V30 5632 C 513.232 4.67427 2.30568 0
M  V30 5633 C 510.56 5.4609 2.14483 0
M  V30 5634 C 512.912 5.99635 2.01545 0
M  V30 5635 C 511.576 6.39004 1.92951 0
M  V30 5636 H 510.846 0.495003 0.55141 0
M  V30 5637 H 513.493 1.71145 0.859158 0
M  V30 5638 H 511.798 1.83196 3.46333 0
M  V30 5639 H 513.495 2.20611 3.34861 0
M  V30 5640 H 510.085 3.41913 2.58444 0
M  V30 5641 H 514.269 4.3714 2.34994 0
M  V30 5642 H 509.525 5.75528 2.06342 0
M  V30 5643 H 513.699 6.71678 1.83906 0
M  V30 5644 H 511.326 7.41165 1.6905 0
M  V30 5645 N 512.901 -0.976442 1.23707 0
M  V30 5646 C 514.178 -1.69296 0.979699 0
M  V30 5647 C 514.558 -2.0508 -0.500555 0
M  V30 5648 O 513.906 -1.74708 -1.47273 0
M  V30 5649 C 514.116 -2.93143 1.89389 0
M  V30 5650 C 515.464 -3.65572 2.15968 0
M  V30 5651 O 516.488 -3.03184 1.86971 0
M  V30 5652 O 515.347 -4.77859 2.65167 0
M  V30 5653 H 512.441 -0.739708 0.369812 0
M  V30 5654 H 514.987 -1.03131 1.34767 0
M  V30 5655 H 513.759 -2.63327 2.89439 0
M  V30 5656 H 513.382 -3.67044 1.52854 0
M  V30 5657 N 514.379 -1.04941 -1.1758 0
M  V30 5658 C 515.626 -0.757989 -1.87779 0
M  V30 5659 C 515.954 0.714827 -1.80888 0
M  V30 5660 O 515.209 1.53824 -1.20982 0
M  V30 5661 C 515.508 -1.18062 -3.37337 0
M  V30 5662 C 515.174 -2.65521 -3.6443 0
M  V30 5663 C 513.836 -3.05804 -3.71534 0
M  V30 5664 C 516.188 -3.60822 -3.76108 0
M  V30 5665 C 513.516 -4.40256 -3.87803 0
M  V30 5666 C 515.868 -4.95005 -3.93895 0
M  V30 5667 C 514.532 -5.34945 -3.99237 0
M  V30 5668 H 513.802 -0.277368 -0.68713 0
M  V30 5669 H 516.449 -1.31603 -1.39115 0
M  V30 5670 H 514.754 -0.541525 -3.8804 0
M  V30 5671 H 516.451 -0.932368 -3.9001 0
M  V30 5672 H 513.041 -2.33324 -3.59524 0
M  V30 5673 H 517.225 -3.30841 -3.69943 0
M  V30 5674 H 512.481 -4.70707 -3.90186 0
M  V30 5675 H 516.655 -5.68746 -4.01872 0
M  V30 5676 H 514.282 -6.39135 -4.11596 0
M  V30 5677 N 515.857 1.33968 -0.830081 0
M  V30 5678 C 516.79 2.27303 -0.202182 0
M  V30 5679 C 517.768 1.49235 0.645581 0
M  V30 5680 O 518.952 1.78433 0.607762 0
M  V30 5681 C 516.079 3.31025 0.716932 0
M  V30 5682 C 515.125 4.26466 -0.0542271 0
M  V30 5683 S 515.958 5.16707 -1.40622 0
M  V30 5684 C 517.114 6.23962 -0.492167 0
M  V30 5685 H 517.347 2.8021 -0.99346 0
M  V30 5686 H 514.88 1.41124 -0.626359 0
M  V30 5687 H 516.838 3.91271 1.24165 0
M  V30 5688 H 515.499 2.76951 1.4818 0
M  V30 5689 H 514.692 4.99858 0.644785 0
M  V30 5690 H 514.294 3.7051 -0.509722 0
M  V30 5691 H 516.586 6.76774 0.31347 0
M  V30 5692 H 517.529 6.97927 -1.19599 0
M  V30 5693 H 517.937 5.64447 -0.0774176 0
M  V30 5694 N 517.335 0.585699 1.46312 0
M  V30 5695 C 518.245 -0.148236 2.34131 0
M  V30 5696 C 519.261 -0.882972 1.49932 0
M  V30 5697 O 520.437 -0.845484 1.82794 0
M  V30 5698 C 517.502 -1.14714 3.27172 0
M  V30 5699 C 516.563 -0.416746 4.27272 0
M  V30 5700 C 515.796 -1.36806 5.15868 0
M  V30 5701 O 516.019 -2.60475 5.07454 0
M  V30 5702 O 514.953 -0.877018 5.95476 0
M  V30 5703 H 518.779 0.572882 2.98248 0
M  V30 5704 H 516.364 0.346082 1.45336 0
M  V30 5705 H 518.246 -1.72303 3.84564 0
M  V30 5706 H 516.921 -1.84967 2.65648 0
M  V30 5707 H 515.828 0.201061 3.73559 0
M  V30 5708 H 517.161 0.244872 4.9159 0
M  V30 5709 N 518.813 -1.54241 0.323641 0
M  V30 5710 C 519.761 -2.25813 -0.557804 0
M  V30 5711 C 520.755 -1.27225 -1.11849 0
M  V30 5712 O 521.961 -1.45001 -1.06652 0
M  V30 5713 H 518.336 -0.72532 -0.198532 0
M  V30 5714 H 520.307 -2.98322 0.0681112 0
M  V30 5715 C 519.056 -3.02913 -1.70701 0
M  V30 5716 H 518.379 -3.78593 -1.28482 0
M  V30 5717 H 519.819 -3.56238 -2.29935 0
M  V30 5718 C 518.278 -2.11217 -2.62467 0
M  V30 5719 O 518.808 -1.69508 -3.64184 0
M  V30 5720 N 517.014 -1.76704 -2.30703 0
M  V30 5721 H 516.561 -2.1082 -1.48029 0
M  V30 5722 H 516.519 -1.15631 -2.92364 0
M  V30 5723 N 520.291 -0.0518155 -1.57515 0
M  V30 5724 C 521.54 0.621286 -1.91893 0
M  V30 5725 C 521.853 1.71966 -0.932052 0
M  V30 5726 O 523.059 2.45096 -1.16791 0
M  V30 5727 C 521.515 1.15641 -3.40816 0
M  V30 5728 C 521.123 0.0901146 -4.47909 0
M  V30 5729 C 522.867 1.80472 -3.84227 0
M  V30 5730 C 520.774 0.638154 -5.87947 0
M  V30 5731 H 519.704 0.235835 -0.716169 0
M  V30 5732 H 522.355 -0.120809 -1.83102 0
M  V30 5733 H 520.737 1.95084 -3.44613 0
M  V30 5734 H 521.911 -0.683525 -4.55702 0
M  V30 5735 H 520.226 -0.460774 -4.13843 0
M  V30 5736 H 522.823 2.22471 -4.86221 0
M  V30 5737 H 523.166 2.65669 -3.20508 0
M  V30 5738 H 523.699 1.07683 -3.82948 0
M  V30 5739 H 520.438 -0.176202 -6.55263 0
M  V30 5740 H 519.958 1.37976 -5.83714 0
M  V30 5741 H 521.637 1.12085 -6.37217 0
M  V30 5742 N 521.769 1.56035 0.221574 0
M  V30 5743 C 522.994 1.83476 0.967026 0
M  V30 5744 C 523.419 0.632139 1.7716 0
M  V30 5745 O 522.777 -0.419082 1.7639 0
M  V30 5746 C 522.825 3.08907 1.86034 0
M  V30 5747 O 521.929 2.876 2.95567 0
M  V30 5748 H 521.27 0.604913 0.273817 0
M  V30 5749 H 523.8 2.03247 0.234893 0
M  V30 5750 H 523.81 3.3901 2.27016 0
M  V30 5751 H 522.485 3.96068 1.26898 0
M  V30 5752 H 521.062 2.6873 2.58532 0
M  V30 5753 N 523.247 -0.488276 1.49845 0
M  V30 5754 C 524.177 -1.59675 1.70371 0
M  V30 5755 C 525.158 -1.60878 0.552473 0
M  V30 5756 O 526.343 -1.77417 0.78973 0
M  V30 5757 C 523.473 -2.98098 1.782 0
M  V30 5758 C 522.427 -3.11761 2.93239 0
M  V30 5759 C 521.753 -4.51661 2.86193 0
M  V30 5760 C 523.053 -2.90589 4.33999 0
M  V30 5761 H 524.747 -1.42752 2.63177 0
M  V30 5762 H 522.293 -0.685317 1.26647 0
M  V30 5763 H 524.246 -3.75555 1.91144 0
M  V30 5764 H 522.97 -3.16138 0.820018 0
M  V30 5765 H 521.629 -2.36732 2.79917 0
M  V30 5766 H 521.277 -4.66595 1.87877 0
M  V30 5767 H 520.977 -4.61742 3.63412 0
M  V30 5768 H 522.501 -5.31162 3.01163 0
M  V30 5769 H 523.915 -3.57807 4.47936 0
M  V30 5770 H 522.312 -3.1213 5.12538 0
M  V30 5771 H 523.382 -1.86595 4.4756 0
M  V30 5772 N 524.725 -1.39134 -0.740242 0
M  V30 5773 C 525.635 -1.39697 -1.88473 0
M  V30 5774 C 526.651 -0.292403 -1.71526 0
M  V30 5775 O 527.827 -0.533021 -1.94219 0
M  V30 5776 C 524.892 -1.23382 -3.24003 0
M  V30 5777 C 523.953 -2.43763 -3.53381 0
M  V30 5778 C 523.186 -2.28216 -4.82445 0
M  V30 5779 O 523.409 -1.28288 -5.55786 0
M  V30 5780 O 522.343 -3.1709 -5.11603 0
M  V30 5781 H 526.169 -2.36159 -1.90952 0
M  V30 5782 H 523.754 -1.20194 -0.887346 0
M  V30 5783 H 525.636 -1.16395 -4.05006 0
M  V30 5784 H 524.311 -0.300121 -3.22306 0
M  V30 5785 H 523.218 -2.56325 -2.72485 0
M  V30 5786 H 524.551 -3.35808 -3.59852 0
M  V30 5787 N 526.204 0.969867 -1.24223 0
M  V30 5788 C 527.452 1.70918 -1.0785 0
M  V30 5789 C 527.773 1.91186 0.383763 0
M  V30 5790 O 527.043 1.48806 1.27411 0
M  V30 5791 H 525.623 0.633334 -0.396103 0
M  V30 5792 H 528.285 1.16689 -1.56108 0
M  V30 5793 H 527.381 2.69455 -1.57482 0
M  V30 5794 N 527.682 1.05563 1.17022 0
M  V30 5795 C 528.629 0.659893 2.21165 0
M  V30 5796 C 529.599 -0.339813 1.62587 0
M  V30 5797 O 530.784 -0.230378 1.89404 0
M  V30 5798 C 527.924 0.0447297 3.45071 0
M  V30 5799 C 527.037 1.09372 4.17926 0
M  V30 5800 C 526.172 0.445481 5.29329 0
M  V30 5801 C 525.211 1.47852 5.93975 0
M  V30 5802 N 524.348 0.854172 6.96885 0
M  V30 5803 H 529.188 1.55243 2.54369 0
M  V30 5804 H 526.725 0.776336 1.24946 0
M  V30 5805 H 528.683 -0.329404 4.15898 0
M  V30 5806 H 527.313 -0.811244 3.1244 0
M  V30 5807 H 526.365 1.58564 3.45777 0
M  V30 5808 H 527.677 1.87773 4.62107 0
M  V30 5809 H 526.831 0.0179688 6.06697 0
M  V30 5810 H 525.57 -0.370481 4.86291 0
M  V30 5811 H 524.575 1.91601 5.15334 0
M  V30 5812 H 525.8 2.29645 6.39093 0
M  V30 5813 H 523.746 0.0587882 6.55974 0
M  V30 5814 H 523.663 1.57567 7.39397 0
M  V30 5815 H 524.931 0.451559 7.78191 0
M  V30 5816 N 529.16 -1.33526 0.837174 0
M  V30 5817 C 530.388 -2.02047 0.445494 0
M  V30 5818 C 530.803 -1.62995 -0.952788 0
M  V30 5819 O 530.16 -0.842447 -1.61892 0
M  V30 5820 C 530.211 -3.57221 0.554577 0
M  V30 5821 O 529.932 -3.94863 1.89776 0
M  V30 5822 C 531.433 -4.43012 0.159634 0
M  V30 5823 H 528.653 -0.647221 0.177048 0
M  V30 5824 H 531.197 -1.70492 1.12928 0
M  V30 5825 H 529.352 -3.87315 -0.0812781 0
M  V30 5826 H 529.766 -4.89569 1.88208 0
M  V30 5827 H 531.24 -5.51253 0.28701 0
M  V30 5828 H 531.717 -4.29916 -0.898289 0
M  V30 5829 H 532.323 -4.18274 0.769855 0
M  V30 5830 N 530.638 -0.59345 -1.46 0
M  V30 5831 C 531.586 0.146268 -2.3214 0
M  V30 5832 C 532.58 0.873743 -1.45128 0
M  V30 5833 O 533.786 0.790912 -1.61693 0
M  V30 5834 H 530.161 0.0660349 -0.749095 0
M  V30 5835 H 532.132 -0.598895 -2.92328 0
M  V30 5836 C 530.881 1.1396 -3.28494 0
M  V30 5837 H 530.204 0.589252 -3.95434 0
M  V30 5838 H 531.644 1.62738 -3.91526 0
M  V30 5839 C 530.103 2.20604 -2.54628 0
M  V30 5840 O 530.633 3.28128 -2.31722 0
M  V30 5841 N 528.839 1.95502 -2.15005 0
M  V30 5842 H 528.386 1.0807 -2.33834 0
M  V30 5843 H 528.344 2.67064 -1.65904 0
M  V30 5844 N 532.116 1.54067 -0.331816 0
M  V30 5845 C 533.363 2.00715 0.268269 0
M  V30 5846 C 533.691 1.21986 1.51491 0
M  V30 5847 O 532.946 0.292309 1.93505 0
M  V30 5848 C 533.245 3.51634 0.639392 0
M  V30 5849 C 532.911 4.48018 -0.509019 0
M  V30 5850 C 531.573 4.74089 -0.824209 0
M  V30 5851 C 533.925 5.05237 -1.28003 0
M  V30 5852 C 531.253 5.54637 -1.91298 0
M  V30 5853 C 533.605 5.86972 -2.35895 0
M  V30 5854 C 532.269 6.11342 -2.67987 0
M  V30 5855 H 531.539 0.734469 0.0981667 0
M  V30 5856 H 534.186 1.8596 -0.457304 0
M  V30 5857 H 532.491 3.6416 1.44551 0
M  V30 5858 H 534.188 3.85175 1.11539 0
M  V30 5859 H 530.778 4.27851 -0.253287 0
M  V30 5860 H 534.962 4.8507 -1.04978 0
M  V30 5861 H 530.218 5.71747 -2.16599 0
M  V30 5862 H 534.392 6.30327 -2.96076 0
M  V30 5863 H 532.019 6.73544 -3.5248 0
M  V30 5864 N 533.594 0.0601682 1.57485 0
M  V30 5865 C 534.841 -0.611594 1.93043 0
M  V30 5866 C 535.169 -1.70317 0.939274 0
M  V30 5867 O 534.424 -1.95644 -0.046996 0
M  V30 5868 C 534.723 -1.23831 3.35262 0
M  V30 5869 C 534.389 -0.274037 4.50066 0
M  V30 5870 C 533.051 -0.00872394 4.81199 0
M  V30 5871 C 535.403 0.386308 5.19766 0
M  V30 5872 C 532.731 0.924218 5.79375 0
M  V30 5873 C 535.083 1.3075 6.1894 0
M  V30 5874 C 533.747 1.58139 6.48497 0
M  V30 5875 H 533.017 -0.223798 0.706396 0
M  V30 5876 H 535.664 0.128566 1.91068 0
M  V30 5877 H 533.969 -2.05394 3.33647 0
M  V30 5878 H 535.666 -1.76517 3.60059 0
M  V30 5879 H 532.256 -0.491008 4.25778 0
M  V30 5880 H 536.44 0.194436 4.95919 0
M  V30 5881 H 531.696 1.1438 6.00606 0
M  V30 5882 H 535.87 1.82519 6.72056 0
M  V30 5883 H 533.497 2.30593 7.24383 0
M  V30 5884 N 535.072 -1.5615 -0.213296 0
M  V30 5885 C 535.982 -1.96265 -1.28519 0
M  V30 5886 C 536.998 -0.86765 -1.50824 0
M  V30 5887 O 538.174 -1.17191 -1.63793 0
M  V30 5888 C 535.239 -2.27836 -2.61327 0
M  V30 5889 C 534.3 -3.50949 -2.47252 0
M  V30 5890 C 533.533 -3.81004 -3.73727 0
M  V30 5891 O 533.756 -3.12612 -4.77106 0
M  V30 5892 O 532.69 -4.74477 -3.70344 0
M  V30 5893 H 536.516 -2.87631 -0.974795 0
M  V30 5894 H 534.101 -1.43467 -0.416832 0
M  V30 5895 H 535.983 -2.49299 -3.39747 0
M  V30 5896 H 534.658 -1.39643 -2.9203 0
M  V30 5897 H 533.565 -3.34754 -1.67004 0
M  V30 5898 H 534.898 -4.39551 -2.21486 0
M  V30 5899 N 536.55 0.480323 -1.50102 0
M  V30 5900 C 537.497 1.57946 -1.6829 0
M  V30 5901 C 538.467 1.57611 -0.524223 0
M  V30 5902 O 539.652 1.75282 -0.753709 0
M  V30 5903 C 536.792 2.95978 -1.77457 0
M  V30 5904 C 535.905 3.06173 -3.04766 0
M  V30 5905 C 535.04 4.35063 -3.04784 0
M  V30 5906 C 534.079 4.38966 -4.26586 0
M  V30 5907 N 533.216 5.59314 -4.24396 0
M  V30 5908 H 538.056 1.41743 -2.62131 0
M  V30 5909 H 535.593 0.689304 -1.2995 0
M  V30 5910 H 537.551 3.76011 -1.80752 0
M  V30 5911 H 536.181 3.10837 -0.870637 0
M  V30 5912 H 535.233 2.19071 -3.10986 0
M  V30 5913 H 536.545 3.04916 -3.9475 0
M  V30 5914 H 535.699 5.23436 -3.06757 0
M  V30 5915 H 534.438 4.38915 -2.12614 0
M  V30 5916 H 533.443 3.48992 -4.24835 0
M  V30 5917 H 534.668 4.36813 -5.19972 0
M  V30 5918 H 532.614 5.63969 -3.35074 0
M  V30 5919 H 532.531 5.5976 -5.08138 0
M  V30 5920 H 533.799 6.49837 -4.30502 0
M  V30 5921 N 538.028 1.39524 0.732853 0
M  V30 5922 C 539.444 1.21176 1.03868 0
M  V30 5923 C 539.644 0.0748448 2.01361 0
M  V30 5924 O 538.7 -0.57281 2.45917 0
M  V30 5925 C 540.013 2.54667 1.59892 0
M  V30 5926 C 541.561 2.6153 1.71962 0
M  V30 5927 C 542.036 3.95248 2.31394 0
M  V30 5928 N 543.527 3.96899 2.38801 0
M  V30 5929 C 544.262 4.97138 2.85729 0
M  V30 5930 N 543.758 6.07775 3.32537 0
M  V30 5931 N 545.551 4.84516 2.84957 0
M  V30 5932 H 537.702 2.12225 0.086304 0
M  V30 5933 H 539.965 0.942614 0.100907 0
M  V30 5934 H 539.671 3.38423 0.95721 0
M  V30 5935 H 539.545 2.74538 2.58668 0
M  V30 5936 H 541.932 1.78156 2.35254 0
M  V30 5937 H 542.013 2.45507 0.718327 0
M  V30 5938 H 541.657 4.79054 1.68729 0
M  V30 5939 H 541.587 4.08593 3.32204 0
M  V30 5940 H 544.078 3.16998 2.05719 0
M  V30 5941 H 544.391 6.8017 3.66862 0
M  V30 5942 H 542.736 6.11366 3.30541 0
M  V30 5943 H 545.927 3.97185 2.47713 0
M  V30 5944 H 546.1 5.62783 3.21215 0
M  V30 5945 N 539.506 -0.963266 1.24736 0
M  V30 5946 C 540.752 -1.70933 1.09131 0
M  V30 5947 C 541.085 -1.90676 -0.368273 0
M  V30 5948 O 540.36 -1.47147 -1.27193 0
M  V30 5949 C 540.643 -3.09744 1.83658 0
M  V30 5950 C 540.496 -2.97465 3.37394 0
M  V30 5951 C 541.815 -4.09483 1.61282 0
M  V30 5952 H 538.934 -0.620398 0.397838 0
M  V30 5953 H 541.576 -1.12028 1.53459 0
M  V30 5954 H 539.726 -3.60031 1.4598 0
M  V30 5955 H 541.398 -2.54571 3.84696 0
M  V30 5956 H 539.641 -2.33576 3.65547 0
M  V30 5957 H 540.312 -3.95822 3.84745 0
M  V30 5958 H 542.788 -3.68073 1.94066 0
M  V30 5959 H 541.664 -5.04666 2.15878 0
M  V30 5960 H 541.925 -4.38639 0.552102 0
M  V30 5961 N 540.985 -1.06182 -1.16461 0
M  V30 5962 C 542.233 -0.776326 -1.86595 0
M  V30 5963 C 542.554 0.69921 -1.82033 0
M  V30 5964 O 541.824 1.50579 -1.2531 0
M  V30 5965 H 540.404 -0.284184 -0.690832 0
M  V30 5966 H 543.066 -1.34308 -1.41235 0
M  V30 5967 H 542.162 -1.10022 -2.92064 0
M  V30 5968 N 542.463 1.3308 -0.844243 0
M  V30 5969 C 543.373 2.32876 -0.283922 0
M  V30 5970 C 544.389 1.63589 0.592846 0
M  V30 5971 O 545.565 1.95205 0.495693 0
M  V30 5972 C 542.63 3.42667 0.527283 0
M  V30 5973 C 541.691 4.27664 -0.374394 0
M  V30 5974 C 540.924 5.32212 0.39819 0
M  V30 5975 O 541.147 5.46635 1.62932 0
M  V30 5976 O 540.081 6.01458 -0.2306 0
M  V30 5977 H 543.907 2.82671 -1.11045 0
M  V30 5978 H 541.492 1.36518 -0.606903 0
M  V30 5979 H 543.374 4.09652 0.988078 0
M  V30 5980 H 542.049 2.95079 1.33078 0
M  V30 5981 H 540.956 3.63526 -0.883144 0
M  V30 5982 H 542.289 4.78749 -1.1428 0
M  V30 5983 N 543.941 0.601185 1.45683 0
M  V30 5984 C 545.171 0.0999093 2.06358 0
M  V30 5985 C 545.579 -1.21831 1.44754 0
M  V30 5986 O 544.922 -1.75157 0.553695 0
M  V30 5987 C 544.984 -0.12085 3.59297 0
M  V30 5988 C 544.648 1.11459 4.432 0
M  V30 5989 C 545.645 2.03118 4.7858 0
M  V30 5990 C 543.33 1.34162 4.84051 0
M  V30 5991 C 545.324 3.15814 5.53661 0
M  V30 5992 C 543.011 2.4716 5.58888 0
M  V30 5993 C 544.009 3.37814 5.93608 0
M  V30 5994 O 543.697 4.48846 6.66928 0
M  V30 5995 H 543.429 0.0630316 0.673055 0
M  V30 5996 H 545.983 0.826982 1.88016 0
M  V30 5997 H 544.213 -0.902744 3.76015 0
M  V30 5998 H 545.902 -0.572925 4.01836 0
M  V30 5999 H 546.668 1.86801 4.47583 0
M  V30 6000 H 542.547 0.645018 4.56465 0
M  V30 6001 H 546.091 3.86596 5.8068 0
M  V30 6002 H 541.988 2.63432 5.89299 0
M  V30 6003 H 542.756 4.47446 6.85371 0
M  V30 6004 N 545.419 -1.53889 0.339982 0
M  V30 6005 C 546.351 -2.22435 -0.55275 0
M  V30 6006 C 547.364 -1.22975 -1.06681 0
M  V30 6007 O 548.553 -1.49351 -0.977575 0
M  V30 6008 C 545.653 -2.8882 -1.77302 0
M  V30 6009 C 544.826 -4.14563 -1.39486 0
M  V30 6010 C 543.885 -4.64391 -2.47442 0
M  V30 6011 O 542.911 -5.28687 -2.10899 0
M  V30 6012 N 544.113 -4.40015 -3.78639 0
M  V30 6013 H 546.878 -2.9968 0.0342669 0
M  V30 6014 H 544.439 -1.61068 0.16394 0
M  V30 6015 H 546.431 -3.19072 -2.48948 0
M  V30 6016 H 545.001 -2.15182 -2.26749 0
M  V30 6017 H 544.221 -3.90896 -0.509321 0
M  V30 6018 H 545.509 -4.96362 -1.11813 0
M  V30 6019 H 544.907 -3.88586 -4.11118 0
M  V30 6020 H 543.464 -4.74881 -4.46465 0
M  V30 6021 N 546.897 -0.0685191 -1.57451 0
M  V30 6022 C 548.313 0.288101 -1.56978 0
M  V30 6023 C 548.513 1.70262 -1.07765 0
M  V30 6024 O 547.569 2.4135 -0.742054 0
M  V30 6025 C 548.882 0.100745 -3.00531 0
M  V30 6026 C 550.43 0.170531 -3.12535 0
M  V30 6027 C 550.905 0.0114944 -4.57999 0
M  V30 6028 N 552.396 0.0672065 -4.63151 0
M  V30 6029 C 553.131 -0.0314813 -5.73391 0
M  V30 6030 N 552.627 -0.183503 -6.92557 0
M  V30 6031 N 554.42 0.0253489 -5.62094 0
M  V30 6032 H 546.571 -0.993026 -1.87757 0
M  V30 6033 H 548.834 -0.386981 -0.865419 0
M  V30 6034 H 548.54 -0.875197 -3.40636 0
M  V30 6035 H 548.414 0.854457 -3.67395 0
M  V30 6036 H 550.801 1.13696 -2.72318 0
M  V30 6037 H 550.882 -0.614229 -2.48316 0
M  V30 6038 H 550.526 -0.951684 -4.98904 0
M  V30 6039 H 550.456 0.815617 -5.20245 0
M  V30 6040 H 552.947 0.183246 -3.77455 0
M  V30 6041 H 553.26 -0.251041 -7.72392 0
M  V30 6042 H 551.605 -0.218822 -6.94655 0
M  V30 6043 H 554.796 0.142794 -4.67882 0
M  V30 6044 H 554.969 -0.0550166 -6.47977 0
M  V30 6045 N 548.375 1.56261 0.205012 0
M  V30 6046 C 549.308 1.88797 1.28183 0
M  V30 6047 C 550.286 0.747018 1.44424 0
M  V30 6048 O 551.47 0.997039 1.59973 0
M  V30 6049 C 548.597 2.10949 2.64987 0
M  V30 6050 C 547.643 3.33649 2.6567 0
M  V30 6051 S 548.476 4.89078 2.18088 0
M  V30 6052 C 549.632 5.14286 3.56736 0
M  V30 6053 H 549.865 2.79837 1.00393 0
M  V30 6054 H 547.398 1.48911 0.408042 0
M  V30 6055 H 549.356 2.24395 3.4374 0
M  V30 6056 H 548.017 1.20678 2.89993 0
M  V30 6057 H 547.21 3.46245 3.66239 0
M  V30 6058 H 546.812 3.19146 1.94992 0
M  V30 6059 H 549.104 5.04198 4.52537 0
M  V30 6060 H 550.047 6.16096 3.49043 0
M  V30 6061 H 550.455 4.41957 3.51189 0
M  V30 6062 N 549.853 -0.472356 1.50355 0
M  V30 6063 C 551.101 -1.22211 1.60962 0
M  V30 6064 C 551.422 -1.92497 0.311439 0
M  V30 6065 O 550.692 -1.8405 -0.671002 0
M  V30 6066 H 549.272 -0.454092 0.593135 0
M  V30 6067 H 551.934 -0.544977 1.87126 0
M  V30 6068 H 551.03 -1.9707 2.42012 0
M  V30 6069 N 551.331 -1.39911 -0.725443 0
M  V30 6070 C 552.577 -1.37858 -1.48738 0
M  V30 6071 C 552.91 0.0224187 -1.94187 0
M  V30 6072 O 552.185 0.989204 -1.67466 0
M  V30 6073 C 552.468 -2.3594 -2.72038 0
M  V30 6074 C 552.321 -3.85023 -2.32546 0
M  V30 6075 C 553.64 -2.31704 -3.74167 0
M  V30 6076 H 550.759 -0.502074 -0.539528 0
M  V30 6077 H 553.401 -1.70974 -0.828728 0
M  V30 6078 H 551.551 -2.0783 -3.28236 0
M  V30 6079 H 553.223 -4.2392 -1.81905 0
M  V30 6080 H 551.466 -4.01334 -1.64661 0
M  V30 6081 H 552.137 -4.49152 -3.20884 0
M  V30 6082 H 554.613 -2.5658 -3.27576 0
M  V30 6083 H 553.489 -3.02395 -4.58092 0
M  V30 6084 H 553.75 -1.3253 -4.21768 0
M  V30 6085 N 552.809 0.956637 -1.25245 0
M  V30 6086 C 553.742 2.05232 -0.99775 0
M  V30 6087 C 554.72 1.62439 0.0723137 0
M  V30 6088 O 555.904 1.88381 -0.066926 0
M  V30 6089 C 553.031 3.34871 -0.507861 0
M  V30 6090 C 552.077 3.96625 -1.56815 0
M  V30 6091 S 552.91 4.32853 -3.15276 0
M  V30 6092 C 554.066 5.65613 -2.68017 0
M  V30 6093 H 554.299 2.26521 -1.9255 0
M  V30 6094 H 551.832 1.09601 -1.08752 0
M  V30 6095 H 553.79 4.09845 -0.231858 0
M  V30 6096 H 552.451 3.11551 0.399356 0
M  V30 6097 H 551.644 4.90087 -1.17604 0
M  V30 6098 H 551.246 3.28124 -1.79473 0
M  V30 6099 H 553.538 6.43635 -2.11518 0
M  V30 6100 H 554.481 6.09693 -3.60112 0
M  V30 6101 H 554.889 5.24751 -2.0808 0
M  V30 6102 N 554.287 1.06798 1.15896 0
M  V30 6103 C 555.512 0.808739 1.90982 0
M  V30 6104 C 555.937 -0.6316 1.77179 0
M  V30 6105 O 555.295 -1.4407 1.10061 0
M  V30 6106 C 555.343 1.21468 3.39526 0
M  V30 6107 O 554.447 0.356562 4.10856 0
M  V30 6108 H 553.788 0.29512 0.594811 0
M  V30 6109 H 556.318 1.42513 1.46804 0
M  V30 6110 H 556.328 1.18844 3.90308 0
M  V30 6111 H 555.003 2.26379 3.48891 0
M  V30 6112 H 553.58 0.444808 3.70238 0
M  V30 6113 N 555.766 -1.3263 0.851289 0
M  V30 6114 C 556.991 -2.02097 0.466006 0
M  V30 6115 C 557.416 -1.63574 -0.928709 0
M  V30 6116 O 556.774 -0.834665 -1.60944 0
M  V30 6117 C 556.822 -3.55425 0.608737 0
M  V30 6118 O 555.926 -4.10827 -0.359878 0
M  V30 6119 H 555.267 -0.636911 0.187724 0
M  V30 6120 H 557.797 -1.69253 1.14955 0
M  V30 6121 H 557.807 -4.04986 0.495006 0
M  V30 6122 H 556.482 -3.82806 1.62581 0
M  V30 6123 H 555.059 -3.72349 -0.202666 0
M  V30 6124 N 557.244 -0.608902 -1.45362 0
M  V30 6125 C 558.655 -0.189511 -1.85736 0
M  V30 6126 C 559.006 1.2539 -1.50903 0
M  V30 6127 O 558.131 1.95094 -0.936347 0
M  V30 6128 C 558.726 -0.33716 -3.37118 0
M  V30 6129 C 557.285 0.0275487 -3.7639 0
M  V30 6130 C 556.432 -0.660983 -2.69307 0
M  V30 6131 H 559.383 -0.815499 -1.36144 0
M  V30 6132 H 559.404 0.430257 -3.7806 0
M  V30 6133 H 558.916 -1.38779 -3.62439 0
M  V30 6134 H 557.017 1.0773 -3.56686 0
M  V30 6135 H 557.13 -0.367018 -4.77692 0
M  V30 6136 H 555.494 -0.0984958 -2.54509 0
M  V30 6137 H 556.277 -1.71377 -2.97464 0
M  V30 6138 N 558.722 1.53707 -0.348139 0
M  V30 6139 C 559.95 2.05406 0.248224 0
M  V30 6140 C 560.365 1.22282 1.43849 0
M  V30 6141 O 559.722 0.259244 1.80649 0
M  V30 6142 C 559.773 3.55446 0.658793 0
M  V30 6143 O 559.494 4.35417 -0.484149 0
M  V30 6144 C 560.995 4.23335 1.31539 0
M  V30 6145 H 558.215 0.669344 0.0471075 0
M  V30 6146 H 560.759 1.98257 -0.501456 0
M  V30 6147 H 558.914 3.62803 1.35841 0
M  V30 6148 H 559.328 5.24268 -0.155949 0
M  V30 6149 H 560.802 5.29692 1.55338 0
M  V30 6150 H 561.279 3.75967 2.27036 0
M  V30 6151 H 561.885 4.20184 0.657683 0
M  V30 6152 N 560.2 0.0768682 1.57412 0
M  V30 6153 C 561.11 -0.903207 2.16516 0
M  V30 6154 C 562.126 -1.32341 1.12968 0
M  V30 6155 O 563.302 -1.39507 1.45258 0
M  V30 6156 C 560.367 -2.1508 2.71922 0
M  V30 6157 C 559.428 -1.78653 3.90361 0
M  V30 6158 C 558.661 -2.97465 4.43114 0
M  V30 6159 O 558.884 -4.11638 3.94854 0
M  V30 6160 O 557.818 -2.76987 5.3438 0
M  V30 6161 H 561.644 -0.430427 3.00634 0
M  V30 6162 H 559.229 -0.146485 1.4868 0
M  V30 6163 H 561.111 -2.8823 3.07411 0
M  V30 6164 H 559.786 -2.61446 1.9086 0
M  V30 6165 H 558.693 -1.0274 3.59716 0
M  V30 6166 H 560.026 -1.37066 4.7273 0
M  V30 6167 N 561.678 -1.56367 -0.196722 0
M  V30 6168 C 562.626 -1.95304 -1.2633 0
M  V30 6169 C 563.62 -0.838252 -1.47206 0
M  V30 6170 O 564.826 -1.02325 -1.48087 0
M  V30 6171 H 561.201 -0.621013 -0.424083 0
M  V30 6172 H 563.172 -2.84254 -0.907879 0
M  V30 6173 C 561.921 -2.3074 -2.60104 0
M  V30 6174 H 561.244 -3.16047 -2.44856 0
M  V30 6175 H 562.684 -2.61849 -3.33484 0
M  V30 6176 C 561.143 -1.14143 -3.16975 0
M  V30 6177 O 561.673 -0.415602 -3.99544 0
M  V30 6178 N 559.879 -0.91867 -2.75697 0
M  V30 6179 H 559.426 -1.51065 -2.08656 0
M  V30 6180 H 559.384 -0.140321 -3.14087 0
M  V30 6181 N 563.156 0.464375 -1.50603 0
M  V30 6182 C 564.381 1.24372 -1.65971 0
M  V30 6183 C 564.806 1.84901 -0.345453 0
M  V30 6184 O 564.164 1.67596 0.691457 0
M  V30 6185 C 564.212 2.32331 -2.7578 0
M  V30 6186 O 563.316 3.37146 -2.375 0
M  V30 6187 H 562.657 0.365604 -0.554283 0
M  V30 6188 H 565.187 0.55183 -1.97018 0
M  V30 6189 H 565.197 2.77539 -2.99059 0
M  V30 6190 H 563.872 1.87648 -3.71162 0
M  V30 6191 H 562.449 2.97602 -2.24694 0
M  V30 6192 N 564.634 1.40294 0.718013 0
M  V30 6193 C 565.881 1.3844 1.47786 0
M  V30 6194 C 566.209 -0.0140838 1.94495 0
M  V30 6195 O 565.464 -0.998165 1.68331 0
M  V30 6196 C 565.763 2.31814 2.72024 0
M  V30 6197 C 565.429 3.79117 2.44093 0
M  V30 6198 C 564.091 4.19249 2.36185 0
M  V30 6199 C 566.443 4.72212 2.20602 0
M  V30 6200 C 563.771 5.50516 2.02851 0
M  V30 6201 C 566.123 6.03775 1.88781 0
M  V30 6202 C 564.787 6.42953 1.79354 0
M  V30 6203 H 564.057 0.506588 0.540786 0
M  V30 6204 H 566.704 1.72929 0.822663 0
M  V30 6205 H 565.009 1.90501 3.42369 0
M  V30 6206 H 566.706 2.27664 3.30106 0
M  V30 6207 H 563.296 3.47318 2.51133 0
M  V30 6208 H 567.48 4.42026 2.25669 0
M  V30 6209 H 562.736 5.79776 1.94088 0
M  V30 6210 H 566.91 6.75428 1.69617 0
M  V30 6211 H 564.537 7.44584 1.53291 0
M  V30 6212 N 566.112 -0.949982 1.2575 0
M  V30 6213 C 567.34 -1.72972 1.13527 0
M  V30 6214 C 567.755 -1.8623 -0.310453 0
M  V30 6215 O 567.112 -1.36336 -1.2132 0
M  V30 6216 C 567.163 -3.14108 1.78936 0
M  V30 6217 O 566.884 -3.01493 3.17858 0
M  V30 6218 C 568.385 -4.08338 1.72554 0
M  V30 6219 H 565.605 -0.541864 0.395758 0
M  V30 6220 H 568.149 -1.19151 1.66202 0
M  V30 6221 H 566.304 -3.64858 1.30221 0
M  V30 6222 H 566.718 -3.90559 3.50092 0
M  V30 6223 H 568.192 -5.04963 2.22973 0
M  V30 6224 H 568.669 -4.33742 0.690251 0
M  V30 6225 H 569.275 -3.63506 2.2078 0
M  V30 6226 N 567.59 -1.07411 -1.15328 0
M  V30 6227 C 568.52 -0.716472 -2.22236 0
M  V30 6228 C 569.501 0.296373 -1.67498 0
M  V30 6229 O 570.686 0.168989 -1.93463 0
M  V30 6230 C 567.816 -0.114142 -3.47112 0
M  V30 6231 C 566.77 -1.05421 -4.14814 0
M  V30 6232 C 566.096 -0.314604 -5.33774 0
M  V30 6233 C 567.396 -2.38808 -4.64508 0
M  V30 6234 H 569.09 -1.61029 -2.52408 0
M  V30 6235 H 566.636 -0.775702 -1.21321 0
M  V30 6236 H 568.589 0.148001 -4.2114 0
M  V30 6237 H 567.313 0.814755 -3.16274 0
M  V30 6238 H 565.972 -1.30128 -3.42728 0
M  V30 6239 H 565.62 0.617772 -4.99192 0
M  V30 6240 H 565.32 -0.941209 -5.80013 0
M  V30 6241 H 566.844 -0.0602747 -6.1057 0
M  V30 6242 H 568.258 -2.18424 -5.3006 0
M  V30 6243 H 566.655 -2.97069 -5.21412 0
M  V30 6244 H 567.725 -3.01067 -3.80114 0
M  V30 6245 N 569.068 1.32177 -0.85831 0
M  V30 6246 C 570.345 1.91781 -0.384624 0
M  V30 6247 C 570.725 1.78171 1.13217 0
M  V30 6248 O 570.073 1.18209 1.95548 0
M  V30 6249 C 570.283 3.38414 -0.853047 0
M  V30 6250 C 571.631 4.15542 -0.872359 0
M  V30 6251 O 572.655 3.47148 -0.797926 0
M  V30 6252 O 571.514 5.37678 -0.978009 0
M  V30 6253 H 568.608 0.819259 -0.112886 0
M  V30 6254 H 571.154 1.40923 -0.945453 0
M  V30 6255 H 569.926 3.4228 -1.89632 0
M  V30 6256 H 569.549 3.96683 -0.269874 0
M  V30 6257 N 570.547 0.616602 1.45037 0
M  V30 6258 C 571.51 -0.0871112 2.29034 0
M  V30 6259 C 572.51 -0.786414 1.40258 0
M  V30 6260 O 573.7 -0.633207 1.62284 0
M  V30 6261 C 570.832 -1.13369 3.21497 0
M  V30 6262 H 572.025 0.651497 2.92738 0
M  V30 6263 H 569.578 0.376058 1.51709 0
M  V30 6264 H 570.313 -1.90277 2.62612 0
M  V30 6265 H 570.098 -0.636358 3.86902 0
M  V30 6266 H 571.588 -1.62627 3.84633 0
M  V30 6267 N 572.025 -1.5352 0.356285 0
M  V30 6268 C 573.302 -1.93405 -0.292223 0
M  V30 6269 C 573.682 -1.28901 -1.67176 0
M  V30 6270 O 573.03 -0.444632 -2.24132 0
M  V30 6271 C 573.24 -3.47223 -0.35175 0
M  V30 6272 C 574.588 -4.20389 -0.596534 0
M  V30 6273 O 575.612 -3.53554 -0.433344 0
M  V30 6274 O 574.471 -5.3881 -0.913589 0
M  V30 6275 H 571.565 -0.808666 -0.173172 0
M  V30 6276 H 574.111 -1.64713 0.408391 0
M  V30 6277 H 572.883 -3.86423 0.615841 0
M  V30 6278 H 572.506 -3.8212 -1.09864 0
M  V30 6279 N 573.503 -0.0852151 -1.57369 0
M  V30 6280 C 574.75 0.580806 -1.93992 0
M  V30 6281 C 575.078 1.68801 -0.966252 0
M  V30 6282 O 574.333 1.95694 0.0158649 0
M  V30 6283 C 574.632 1.18482 -3.3719 0
M  V30 6284 C 574.298 0.2024 -4.50446 0
M  V30 6285 C 572.96 -0.0678318 -4.81152 0
M  V30 6286 C 575.312 -0.46895 -5.19086 0
M  V30 6287 C 572.64 -1.01627 -5.77831 0
M  V30 6288 C 574.992 -1.4058 -6.16782 0
M  V30 6289 C 573.656 -1.68436 -6.45899 0
M  V30 6290 H 572.926 0.212532 -0.709867 0
M  V30 6291 H 575.573 -0.158947 -1.90839 0
M  V30 6292 H 573.878 2.0006 -3.36873 0
M  V30 6293 H 575.575 1.70767 -3.62822 0
M  V30 6294 H 572.165 0.423208 -4.26505 0
M  V30 6295 H 576.349 -0.273307 -4.95547 0
M  V30 6296 H 571.605 -1.2392 -5.9871 0
M  V30 6297 H 575.779 -1.93188 -6.69068 0
M  V30 6298 H 573.406 -2.42088 -7.20623 0
M  V30 6299 O 575.02 1.61406 0.0550718 0
M  V30 6300 H 575.711 1.81412 0.678922 0
M  V30 END ATOM
M  V30 BEGIN BOND
M  V30 END BOND
M  V30 END CTAB
M  END
$$$$
