drugbank_target|Q6W5P4 Neuropeptide S receptor (DB01159)
 OpenBabel12092119443D

  0  0  0     0  0            999 V3000
M  V30 BEGIN CTAB
M  V30 COUNTS 6058 6138 0 0 0
M  V30 BEGIN ATOM
M  V30 1 H -0.908 1.98254 -0.117106 0
M  V30 2 N 0 1.576 0 0
M  V30 3 C 0.933 2.03868 1.02534 0
M  V30 4 C 1.911 0.928543 1.3348 0
M  V30 5 O 3.095 1.19667 1.45644 0
M  V30 6 C 0.222 2.43627 2.35294 0
M  V30 7 C -0.732 3.65373 2.2001 0
M  V30 8 S 0.101 5.13292 1.52614 0
M  V30 9 C 1.257 5.56322 2.86805 0
M  V30 10 H 1.49 2.90518 0.631377 0
M  V30 11 H -0.977 1.52953 0.210867 0
M  V30 12 H 0.981 2.67203 3.11629 0
M  V30 13 H -0.358 1.57376 2.7183 0
M  V30 14 H -1.165 3.90944 3.18086 0
M  V30 15 H -1.563 3.418 1.51819 0
M  V30 16 H 0.729 5.58782 3.83104 0
M  V30 17 H 1.672 6.56266 2.65933 0
M  V30 18 H 2.08 4.83886 2.90714 0
M  V30 19 N 1.4781 -0.272755 1.55222 0
M  V30 20 C 2.8891 -0.84378 1.66545 0
M  V30 21 C 3.2401 -1.87035 0.592641 0
M  V30 22 O 2.3651 -2.14761 -0.265818 0
M  V30 23 C 2.9601 -1.53723 3.01918 0
M  V30 24 C 1.5191 -2.05628 3.15268 0
M  V30 25 C 0.6661 -0.898424 2.62343 0
M  V30 26 H 3.6171 -0.0490998 1.58624 0
M  V30 27 H 3.6381 -2.40421 2.94921 0
M  V30 28 H 3.1501 -0.78983 3.79978 0
M  V30 29 H 1.2511 -2.83329 2.41983 0
M  V30 30 H 1.3641 -2.27142 4.21833 0
M  V30 31 H -0.2719 -1.29186 2.19506 0
M  V30 32 H 0.5111 -0.164528 3.42906 0
M  V30 33 N 2.9562 -1.48159 -0.537278 0
M  V30 34 C 3.9192 -1.61665 -1.62472 0
M  V30 35 C 4.9192 -0.490395 -1.5314 0
M  V30 36 O 6.1092 -0.755998 -1.5694 0
M  V30 37 C 3.2412 -1.57997 -3.02076 0
M  V30 38 H 4.4342 -2.58621 -1.51839 0
M  V30 39 H 1.9872 -1.36647 -0.758771 0
M  V30 40 H 2.7222 -0.624913 -3.18222 0
M  V30 41 H 2.5072 -2.39755 -3.10258 0
M  V30 42 H 3.9972 -1.70627 -3.81151 0
M  V30 43 N 4.4343 0.785586 -1.36625 0
M  V30 44 C 5.3823 1.91978 -1.31329 0
M  V30 45 C 6.3763 1.68162 -0.204416 0
M  V30 46 O 7.5823 1.76122 -0.371645 0
M  V30 47 H 3.9573 0.631087 -0.408942 0
M  V30 48 H 5.9283 1.93562 -2.27104 0
M  V30 49 C 4.6773 3.29055 -1.12329 0
M  V30 50 H 4.0003 3.4795 -1.96903 0
M  V30 51 H 5.4403 4.08756 -1.12671 0
M  V30 52 C 3.8993 3.36461 0.171861 0
M  V30 53 O 4.4293 3.84576 1.16035 0
M  V30 54 N 2.6353 2.89782 0.217846 0
M  V30 55 H 2.1823 2.50819 -0.587183 0
M  V30 56 H 2.1403 2.95119 1.08408 0
M  V30 57 N 5.9124 1.20967 1.01018 0
M  V30 58 C 7.1594 1.02374 1.74716 0
M  V30 59 C 7.4874 -0.443375 1.89379 0
M  V30 60 O 6.7424 -1.34535 1.42123 0
M  V30 61 C 7.0414 1.65997 3.16512 0
M  V30 62 C 6.7074 3.15831 3.2181 0
M  V30 63 C 5.3694 3.56719 3.22963 0
M  V30 64 C 7.7214 4.11816 3.19464 0
M  V30 65 C 5.0494 4.92107 3.19449 0
M  V30 66 C 7.4014 5.47158 3.17491 0
M  V30 67 C 6.0654 5.87451 3.16951 0
M  V30 68 H 5.3354 0.374614 0.639332 0
M  V30 69 H 7.9824 1.50485 1.18434 0
M  V30 70 H 6.2874 1.10166 3.75993 0
M  V30 71 H 7.9844 1.49119 3.72242 0
M  V30 72 H 4.5744 2.83263 3.21652 0
M  V30 73 H 8.7584 3.81257 3.17737 0
M  V30 74 H 4.0144 5.22579 3.17366 0
M  V30 75 H 8.1884 6.21274 3.14629 0
M  V30 76 H 5.8154 6.92329 3.13983 0
M  V30 77 N 7.3905 -1.2043 1.01659 0
M  V30 78 C 8.6185 -1.93777 0.725132 0
M  V30 79 C 9.0335 -1.74772 -0.714166 0
M  V30 80 O 8.3905 -1.06169 -1.4844 0
M  V30 81 C 8.4415 -3.45876 1.05129 0
M  V30 82 O 8.1625 -3.6426 2.43406 0
M  V30 83 C 9.6635 -4.36368 0.780891 0
M  V30 84 H 6.8835 -0.615901 0.266284 0
M  V30 85 H 9.4275 -1.52922 1.35776 0
M  V30 86 H 7.5825 -3.8461 0.464065 0
M  V30 87 H 7.9965 -4.58246 2.55169 0
M  V30 88 H 9.4705 -5.41743 1.05918 0
M  V30 89 H 9.9475 -4.38275 -0.284937 0
M  V30 90 H 10.5535 -4.03296 1.35027 0
M  V30 91 N 8.8686 -0.792821 -1.36206 0
M  V30 92 C 9.7786 -0.194808 -2.3379 0
M  V30 93 C 10.7946 0.654869 -1.61206 0
M  V30 94 O 11.9706 0.569856 -1.9317 0
M  V30 95 C 9.0356 0.657721 -3.40404 0
M  V30 96 C 8.0966 -0.210849 -4.28782 0
M  V30 97 C 7.3296 0.601086 -5.30304 0
M  V30 98 O 7.5526 1.83682 -5.40016 0
M  V30 99 O 6.4866 -0.000808277 -6.019 0
M  V30 100 H 10.3126 -1.00172 -2.86704 0
M  V30 101 H 7.8976 -0.554341 -1.38735 0
M  V30 102 H 9.7796 1.14375 -4.05581 0
M  V30 103 H 8.4546 1.44247 -2.89784 0
M  V30 104 H 7.3616 -0.743714 -3.66633 0
M  V30 105 H 8.6946 -0.959195 -4.82763 0
M  V30 106 N 10.3467 1.47872 -0.545128 0
M  V30 107 C 11.5947 2.02093 -0.016553 0
M  V30 108 C 11.9157 1.42305 1.3332 0
M  V30 109 O 11.1857 0.593853 1.86682 0
M  V30 110 H 9.7657 0.746993 -0.00313038 0
M  V30 111 H 12.4277 1.81414 -0.712397 0
M  V30 112 H 11.5237 3.11996 0.0805422 0
M  V30 113 N 11.8248 0.280983 1.55075 0
M  V30 114 C 13.0498 -0.340154 2.04592 0
M  V30 115 C 13.4748 -1.48246 1.15779 0
M  V30 116 O 12.8328 -1.80614 0.15761 0
M  V30 117 C 12.8808 -0.793104 3.5177 0
M  V30 118 O 11.9848 -1.89981 3.66034 0
M  V30 119 H 11.3258 -0.0694289 0.66036 0
M  V30 120 H 13.8558 0.416993 2.00306 0
M  V30 121 H 13.8658 -1.08729 3.93245 0
M  V30 122 H 12.5408 0.0426163 4.15878 0
M  V30 123 H 11.1178 -1.60771 3.36463 0
M  V30 124 N 13.3029 -1.57598 0.00835791 0
M  V30 125 C 14.5499 -1.90928 -0.674732 0
M  V30 126 C 14.8779 -0.88277 -1.73313 0
M  V30 127 O 14.1329 0.111294 -1.95383 0
M  V30 128 C 14.4319 -3.3101 -1.34787 0
M  V30 129 C 14.0979 -4.48922 -0.421861 0
M  V30 130 C 12.7599 -4.8091 -0.166927 0
M  V30 131 C 15.1119 -5.20755 0.215211 0
M  V30 132 C 12.4399 -5.821 0.733232 0
M  V30 133 C 14.7919 -6.22905 1.1033 0
M  V30 134 C 13.4559 -6.53346 1.36733 0
M  V30 135 H 12.7259 -0.698656 -0.246902 0
M  V30 136 H 15.3729 -1.91387 0.0656779 0
M  V30 137 H 13.6779 -3.26714 -2.16253 0
M  V30 138 H 15.3749 -3.54061 -1.8826 0
M  V30 139 H 11.9649 -4.23934 -0.630729 0
M  V30 140 H 16.1489 -4.9629 0.0312829 0
M  V30 141 H 11.4049 -6.04042 0.945712 0
M  V30 142 H 15.5789 -6.77694 1.60325 0
M  V30 143 H 13.2059 -7.31573 2.06652 0
M  V30 144 N 14.781 0.264519 -1.55364 0
M  V30 145 C 16.058 1.01677 -1.67096 0
M  V30 146 C 16.438 2.03996 -0.543015 0
M  V30 147 O 15.786 2.23907 0.45585 0
M  V30 148 C 15.996 1.66596 -3.0667 0
M  V30 149 C 17.344 2.17442 -3.64697 0
M  V30 150 O 18.368 1.76568 -3.09358 0
M  V30 151 O 17.227 2.92439 -4.61673 0
M  V30 152 H 14.321 0.472161 -0.678965 0
M  V30 153 H 16.867 0.259703 -1.67701 0
M  V30 154 H 15.639 0.924962 -3.80211 0
M  V30 155 H 15.262 2.48968 -3.10001 0
M  V30 156 N 16.2591 1.48442 0.529413 0
M  V30 157 C 17.4841 1.60406 1.31471 0
M  V30 158 C 17.9091 0.264738 1.86228 0
M  V30 159 O 17.2671 -0.763668 1.64432 0
M  V30 160 C 17.3151 2.65419 2.44101 0
M  V30 161 O 16.4191 2.22618 3.47153 0
M  V30 162 H 15.7601 0.537863 0.389357 0
M  V30 163 H 18.2901 1.94432 0.636965 0
M  V30 164 H 18.3001 2.86709 2.90279 0
M  V30 165 H 16.9751 3.62652 2.03608 0
M  V30 166 H 15.5521 2.11543 3.0709 0
M  V30 167 N 17.7372 -0.778329 1.37039 0
M  V30 168 C 18.9622 -1.57248 1.35233 0
M  V30 169 C 19.3872 -1.87999 -0.0615568 0
M  V30 170 O 18.7452 -1.48734 -1.03672 0
M  V30 171 C 18.7932 -2.86353 2.19167 0
M  V30 172 O 17.8972 -3.80442 1.59178 0
M  V30 173 H 17.2382 -0.476569 0.462362 0
M  V30 174 H 19.7682 -0.963853 1.80474 0
M  V30 175 H 19.7782 -3.35519 2.32145 0
M  V30 176 H 18.4532 -2.63299 3.21942 0
M  V30 177 H 17.0302 -3.39067 1.55203 0
M  V30 178 N 19.2153 -1.21501 -1.00376 0
M  V30 179 C 20.4633 -1.03095 -1.73827 0
M  V30 180 C 20.7843 0.436341 -1.90055 0
M  V30 181 O 20.0543 1.31466 -1.45236 0
M  V30 182 H 18.6343 -0.378487 -0.644016 0
M  V30 183 H 21.2963 -1.52831 -1.20949 0
M  V30 184 H 20.3923 -1.49991 -2.73695 0
M  V30 185 N 20.6934 1.19889 -1.02296 0
M  V30 186 C 21.9214 1.9339 -0.735399 0
M  V30 187 C 22.3364 1.75148 0.704887 0
M  V30 188 O 21.6934 1.06954 1.47875 0
M  V30 189 C 21.7444 3.45313 -1.06962 0
M  V30 190 O 21.4654 3.62964 -2.45334 0
M  V30 191 C 22.9664 4.35948 -0.804021 0
M  V30 192 H 20.1864 0.61448 -0.269546 0
M  V30 193 H 22.7304 1.522 -1.36585 0
M  V30 194 H 20.8854 3.84359 -0.484455 0
M  V30 195 H 21.2994 4.56886 -2.57595 0
M  V30 196 H 22.7734 5.41174 -1.0879 0
M  V30 197 H 23.2504 4.3842 0.261691 0
M  V30 198 H 23.8564 4.02574 -1.37164 0
M  V30 199 N 22.1715 0.800033 1.35784 0
M  V30 200 C 23.4195 0.376597 1.9856 0
M  V30 201 C 23.7405 -1.05812 1.63795 0
M  V30 202 O 23.0105 -1.73103 0.917171 0
M  V30 203 H 21.5905 0.136261 0.734467 0
M  V30 204 H 24.2525 1.02442 1.65806 0
M  V30 205 H 23.3485 0.477002 3.08433 0
M  V30 206 N 23.6496 -1.47581 0.552962 0
M  V30 207 C 24.5816 -2.27997 -0.234533 0
M  V30 208 C 25.5946 -1.36753 -0.883321 0
M  V30 209 O 26.7836 -1.61612 -0.757889 0
M  V30 210 C 23.8836 -3.10879 -1.34935 0
M  V30 211 C 23.0566 -4.30056 -0.798158 0
M  V30 212 C 22.1156 -4.94567 -1.79694 0
M  V30 213 O 21.1416 -5.53087 -1.34474 0
M  V30 214 N 22.3436 -4.88878 -3.13015 0
M  V30 215 H 25.1086 -2.96222 0.455255 0
M  V30 216 H 22.6696 -1.57163 0.388761 0
M  V30 217 H 24.6616 -3.50903 -2.01616 0
M  V30 218 H 23.2316 -2.44924 -1.94244 0
M  V30 219 H 22.4516 -3.94174 0.0453079 0
M  V30 220 H 23.7396 -5.07152 -0.409173 0
M  V30 221 H 23.1376 -4.42526 -3.52402 0
M  V30 222 H 21.6946 -5.32934 -3.75266 0
M  V30 223 N 25.1277 -0.289203 -1.54924 0
M  V30 224 C 26.3557 0.326463 -2.04308 0
M  V30 225 C 26.7707 1.48413 -1.16701 0
M  V30 226 O 26.1277 1.81507 -0.190087 0
M  V30 227 C 26.1787 0.794014 -3.52672 0
M  V30 228 O 25.8997 -0.317564 -4.36948 0
M  V30 229 C 27.4007 1.47605 -4.18004 0
M  V30 230 H 24.6207 0.0726272 -0.667058 0
M  V30 231 H 27.1647 -0.425401 -2.00026 0
M  V30 232 H 25.3197 1.49593 -3.57352 0
M  V30 233 H 25.7337 0.0443186 -5.24481 0
M  V30 234 H 27.2077 1.75447 -5.23376 0
M  V30 235 H 27.6847 2.41224 -3.67025 0
M  V30 236 H 28.2907 0.81762 -4.17367 0
M  V30 237 N 26.6058 1.57591 -0.0167156 0
M  V30 238 C 27.5358 2.12496 0.967858 0
M  V30 239 C 28.5168 1.03807 1.34752 0
M  V30 240 O 29.7018 1.31577 1.42833 0
M  V30 241 C 26.8318 2.64194 2.25431 0
M  V30 242 C 25.7858 3.77559 2.01576 0
M  V30 243 C 25.1118 4.15636 3.36379 0
M  V30 244 C 26.4118 5.04151 1.36489 0
M  V30 245 H 28.1058 2.95013 0.510643 0
M  V30 246 H 25.6518 1.41915 0.244181 0
M  V30 247 H 27.6048 3.01236 2.94678 0
M  V30 248 H 26.3288 1.78821 2.73296 0
M  V30 249 H 24.9878 3.40937 1.34751 0
M  V30 250 H 24.6358 3.27263 3.81979 0
M  V30 251 H 24.3358 4.92022 3.21229 0
M  V30 252 H 25.8598 4.5525 4.06915 0
M  V30 253 H 27.2738 5.38857 1.95718 0
M  V30 254 H 25.6708 5.85453 1.31776 0
M  V30 255 H 26.7408 4.83733 0.336219 0
M  V30 256 N 28.0839 -0.256276 1.55502 0
M  V30 257 C 29.3609 -1.00789 1.67633 0
M  V30 258 C 29.7409 -2.03706 0.553826 0
M  V30 259 O 29.0889 -2.24145 -0.443969 0
M  V30 260 C 29.2989 -1.64968 3.07549 0
M  V30 261 C 30.6469 -2.15505 3.65845 0
M  V30 262 O 31.6709 -1.74925 3.1029 0
M  V30 263 O 30.5299 -2.89986 4.63217 0
M  V30 264 H 27.6239 -0.468553 0.681459 0
M  V30 265 H 30.1699 -0.250806 1.67836 0
M  V30 266 H 28.9419 -0.904785 3.80696 0
M  V30 267 H 28.5649 -2.47321 3.11317 0
M  V30 268 N 29.562 -1.4872 -0.521534 0
M  V30 269 C 30.787 -1.61101 -1.30618 0
M  V30 270 C 31.212 -0.274611 -1.86085 0
M  V30 271 O 30.57 0.754937 -1.64834 0
M  V30 272 C 30.618 -2.66709 -2.4269 0
M  V30 273 O 29.722 -2.24456 -3.45967 0
M  V30 274 H 29.063 -0.539921 -0.386499 0
M  V30 275 H 31.593 -1.94767 -0.626645 0
M  V30 276 H 31.603 -2.88245 -2.88754 0
M  V30 277 H 30.278 -3.63727 -2.01682 0
M  V30 278 H 28.855 -2.13168 -3.05964 0
M  V30 279 N 31.0401 0.771051 -1.3745 0
M  V30 280 C 32.2651 1.56529 -1.36065 0
M  V30 281 C 32.6901 1.88029 0.0515859 0
M  V30 282 O 32.0481 1.49282 1.02882 0
M  V30 283 C 32.0961 2.85187 -2.20683 0
M  V30 284 O 31.2001 3.79593 -1.61193 0
M  V30 285 H 30.5411 0.47411 -0.464883 0
M  V30 286 H 33.0711 0.954269 -1.80983 0
M  V30 287 H 33.0811 3.34283 -2.33921 0
M  V30 288 H 31.7561 2.61588 -3.23334 0
M  V30 289 H 30.3331 3.38239 -1.56999 0
M  V30 290 N 32.5182 1.22032 0.997298 0
M  V30 291 C 33.9292 1.0397 1.55071 0
M  V30 292 C 34.2802 -0.398192 1.92117 0
M  V30 293 O 33.4052 -1.28254 1.74298 0
M  V30 294 C 34.0002 1.88109 2.81781 0
M  V30 295 C 32.5592 1.74357 3.33581 0
M  V30 296 C 31.7062 1.84846 2.06706 0
M  V30 297 H 34.6572 1.35941 0.818883 0
M  V30 298 H 34.6782 1.39589 3.53971 0
M  V30 299 H 34.1902 2.92754 2.54787 0
M  V30 300 H 32.2912 0.72427 3.65493 0
M  V30 301 H 32.4042 2.56772 4.04481 0
M  V30 302 H 30.7682 1.28238 2.20062 0
M  V30 303 H 31.5512 2.91014 1.82114 0
M  V30 304 N 33.9963 -1.19345 1.0293 0
M  V30 305 C 35.2423 -1.89318 0.727083 0
M  V30 306 C 35.5753 -1.79446 -0.742483 0
M  V30 307 O 34.8503 -1.1871 -1.54072 0
M  V30 308 C 35.1333 -3.40238 1.17942 0
M  V30 309 C 34.9863 -3.58979 2.71024 0
M  V30 310 C 36.3053 -4.33479 0.760548 0
M  V30 311 H 33.4243 -0.687475 0.265606 0
M  V30 312 H 36.0663 -1.40477 1.2793 0
M  V30 313 H 34.2163 -3.81964 0.709608 0
M  V30 314 H 35.8883 -3.26421 3.25955 0
M  V30 315 H 34.1313 -3.02018 3.11396 0
M  V30 316 H 34.8023 -4.64823 2.9773 0
M  V30 317 H 37.2783 -3.99469 1.16464 0
M  V30 318 H 36.1543 -5.37664 1.10493 0
M  V30 319 H 36.4153 -4.40813 -0.337063 0
M  V30 320 N 35.4744 -0.807222 -1.35358 0
M  V30 321 C 36.4374 -0.223665 -2.28106 0
M  V30 322 C 37.4374 0.589354 -1.4961 0
M  V30 323 O 38.6274 0.407745 -1.69361 0
M  V30 324 C 35.7594 0.688149 -3.33882 0
M  V30 325 H 36.9524 -1.04169 -2.81227 0
M  V30 326 H 34.5054 -0.577921 -1.45223 0
M  V30 327 H 35.2404 1.52984 -2.85948 0
M  V30 328 H 35.0254 0.10687 -3.91954 0
M  V30 329 H 36.5154 1.09075 -4.03104 0
M  V30 330 N 36.9525 1.47285 -0.560781 0
M  V30 331 C 38.1925 2.0436 -0.0404627 0
M  V30 332 C 38.5565 1.42534 1.28639 0
M  V30 333 O 39.7575 1.90677 1.89462 0
M  V30 334 C 38.0285 3.57369 0.0471856 0
M  V30 335 S 39.5875 4.3579 0.513109 0
M  V30 336 H 36.4055 0.710492 -0.0268674 0
M  V30 337 H 39.0075 1.80611 -0.748323 0
M  V30 338 H 37.7115 3.9989 -0.922817 0
M  V30 339 H 37.2425 3.8562 0.778491 0
M  V30 340 H 39.2575 4.63476 1.77212 0
M  V30 341 N 38.4306 0.297415 1.54768 0
M  V30 342 C 39.6586 -0.315623 2.04478 0
M  V30 343 C 40.0736 -1.47792 1.17486 0
M  V30 344 O 39.4306 -1.81404 0.19971 0
M  V30 345 C 39.4816 -0.7753 3.53088 0
M  V30 346 O 39.2026 0.340732 4.36773 0
M  V30 347 C 40.7036 -1.45386 4.18781 0
M  V30 348 H 37.9236 -0.0690887 0.667434 0
M  V30 349 H 40.4676 0.436003 1.99798 0
M  V30 350 H 38.6226 -1.47696 3.58141 0
M  V30 351 H 39.0366 -0.0165035 5.24497 0
M  V30 352 H 40.5106 -1.72669 5.24299 0
M  V30 353 H 40.9876 -2.39275 3.68299 0
M  V30 354 H 41.5936 -0.795475 4.17795 0
M  V30 355 N 39.9087 -1.5758 0.0250728 0
M  V30 356 C 40.8187 -2.1343 -0.973905 0
M  V30 357 C 41.8347 -1.08556 -1.35984 0
M  V30 358 O 43.0107 -1.40592 -1.44207 0
M  V30 359 C 40.0757 -2.64703 -2.23904 0
M  V30 360 C 39.1367 -3.84276 -1.91391 0
M  V30 361 C 38.3697 -4.33095 -3.11873 0
M  V30 362 O 38.5927 -3.81107 -4.24398 0
M  V30 363 O 37.5267 -5.24984 -2.94406 0
M  V30 364 H 41.3527 -2.99057 -0.529036 0
M  V30 365 H 38.9377 -1.48118 -0.195288 0
M  V30 366 H 40.8197 -2.97769 -2.98181 0
M  V30 367 H 39.4947 -1.82161 -2.6758 0
M  V30 368 H 38.4017 -3.56143 -1.14511 0
M  V30 369 H 39.7347 -4.67968 -1.52534 0
M  V30 370 N 41.3868 0.248026 -1.55636 0
M  V30 371 C 42.6148 0.993808 -1.81469 0
M  V30 372 C 43.0298 1.78991 -0.60064 0
M  V30 373 O 42.3868 1.77345 0.430682 0
M  V30 374 C 42.4378 1.93258 -3.05506 0
M  V30 375 O 42.1588 1.16869 -4.22224 0
M  V30 376 C 43.6598 2.79444 -3.4413 0
M  V30 377 H 40.8798 0.292486 -0.603898 0
M  V30 378 H 43.4238 0.271253 -2.02693 0
M  V30 379 H 41.5788 2.60943 -2.86335 0
M  V30 380 H 41.9928 1.80359 -4.92515 0
M  V30 381 H 43.4668 3.41066 -4.34026 0
M  V30 382 H 43.9438 3.50499 -2.64665 0
M  V30 383 H 44.5498 2.17214 -3.65648 0
M  V30 384 N 42.8649 1.48995 0.513639 0
M  V30 385 C 44.1109 1.58076 1.27042 0
M  V30 386 C 44.4439 0.261026 1.92438 0
M  V30 387 O 43.7189 -0.734393 1.80103 0
M  V30 388 C 44.0019 2.73091 2.34719 0
M  V30 389 C 43.8549 4.14821 1.73907 0
M  V30 390 C 45.1739 2.83796 3.36375 0
M  V30 391 H 42.2929 0.575391 0.460536 0
M  V30 392 H 44.9349 1.81232 0.570516 0
M  V30 393 H 43.0849 2.53479 2.94416 0
M  V30 394 H 44.7569 4.45917 1.18135 0
M  V30 395 H 42.9999 4.21058 1.0437 0
M  V30 396 H 43.6709 4.91147 2.51949 0
M  V30 397 H 46.1469 3.01611 2.86653 0
M  V30 398 H 45.0229 3.65971 4.09093 0
M  V30 399 H 45.2839 1.92624 3.9793 0
M  V30 400 N 44.343 -0.763751 1.37857 0
M  V30 401 C 45.571 -1.55293 1.36718 0
M  V30 402 C 45.986 -1.88745 -0.0455434 0
M  V30 403 O 45.343 -1.52039 -1.00947 0
M  V30 404 C 45.394 -2.85831 2.2132 0
M  V30 405 O 45.115 -2.5381 3.57089 0
M  V30 406 C 46.616 -3.80023 2.28249 0
M  V30 407 H 43.836 -0.480841 0.468009 0
M  V30 408 H 46.38 -0.946009 1.81303 0
M  V30 409 H 44.535 -3.42926 1.80223 0
M  V30 410 H 44.949 -3.37459 4.01524 0
M  V30 411 H 46.423 -4.68599 2.91752 0
M  V30 412 H 46.9 -4.1973 1.2932 0
M  V30 413 H 47.506 -3.28855 2.69693 0
M  V30 414 N 45.8211 -1.22559 -0.990812 0
M  V30 415 C 47.0681 -1.05141 -1.73065 0
M  V30 416 C 47.3961 0.413191 -1.9006 0
M  V30 417 O 46.6511 1.32257 -1.44245 0
M  V30 418 C 46.9501 -1.71011 -3.13831 0
M  V30 419 C 46.6161 -3.20911 -3.16745 0
M  V30 420 C 45.2781 -3.61812 -3.17247 0
M  V30 421 C 47.6301 -4.16846 -3.12872 0
M  V30 422 C 44.9581 -4.97127 -3.1158 0
M  V30 423 C 47.3101 -5.5214 -3.08746 0
M  V30 424 C 45.9741 -5.92419 -3.07565 0
M  V30 425 H 45.2441 -0.384738 -0.633291 0
M  V30 426 H 47.8911 -1.5235 -1.16025 0
M  V30 427 H 46.1961 -1.16133 -3.74193 0
M  V30 428 H 47.8931 -1.55023 -3.69823 0
M  V30 429 H 44.4831 -2.88344 -3.17105 0
M  V30 430 H 48.6671 -3.86263 -3.11632 0
M  V30 431 H 43.9231 -5.27562 -3.09012 0
M  V30 432 H 48.0971 -6.26201 -3.04705 0
M  V30 433 H 45.7241 -6.97236 -3.02929 0
M  V30 434 N 47.2992 1.18797 -1.03562 0
M  V30 435 C 48.5272 1.92599 -0.755869 0
M  V30 436 C 48.9422 1.75886 0.686271 0
M  V30 437 O 48.2992 1.08517 1.46732 0
M  V30 438 C 48.3502 3.44159 -1.10619 0
M  V30 439 O 48.0712 3.60341 -2.4917 0
M  V30 440 C 49.5722 4.3507 -0.850214 0
M  V30 441 H 46.7922 0.611587 -0.276048 0
M  V30 442 H 49.3362 1.50742 -1.38192 0
M  V30 443 H 47.4912 3.83823 -0.525194 0
M  V30 444 H 47.9052 4.54128 -2.62427 0
M  V30 445 H 49.3792 5.39989 -1.14523 0
M  V30 446 H 49.8562 4.38673 0.215176 0
M  V30 447 H 50.4622 4.01097 -1.41426 0
M  V30 448 N 48.7773 0.814389 1.34928 0
M  V30 449 C 49.6873 0.231978 2.3345 0
M  V30 450 C 50.7033 -0.629139 1.62228 0
M  V30 451 O 51.8793 -0.539052 1.94052 0
M  V30 452 C 48.9443 -0.603482 3.41407 0
M  V30 453 C 48.0053 0.279037 4.28392 0
M  V30 454 C 47.2383 -0.516643 5.31193 0
M  V30 455 O 47.4613 -1.75068 5.4287 0
M  V30 456 O 46.3953 0.0965652 6.01823 0
M  V30 457 H 50.2213 1.04721 2.85074 0
M  V30 458 H 47.8063 0.576343 1.37836 0
M  V30 459 H 49.6883 -1.07908 4.0735 0
M  V30 460 H 48.3633 -1.39618 2.92042 0
M  V30 461 H 47.2703 0.801948 3.65403 0
M  V30 462 H 48.6033 1.03588 4.81176 0
M  V30 463 N 50.2554 -1.46986 0.568584 0
M  V30 464 C 51.5014 -2.02741 0.0488709 0
M  V30 465 C 51.8344 -1.44077 -1.30214 0
M  V30 466 O 51.1094 -0.600552 -1.84996 0
M  V30 467 C 51.3924 -3.60086 -0.032047 0
M  V30 468 C 51.2454 -4.29162 1.34686 0
M  V30 469 C 52.5644 -4.33838 -0.739798 0
M  V30 470 H 49.6834 -0.736749 0.0192338 0
M  V30 471 H 52.3254 -1.75289 0.733065 0
M  V30 472 H 50.4754 -3.83606 -0.61473 0
M  V30 473 H 52.1474 -4.16948 1.97362 0
M  V30 474 H 50.3904 -3.89073 1.91846 0
M  V30 475 H 51.0614 -5.37826 1.24285 0
M  V30 476 H 53.5374 -4.15378 -0.244939 0
M  V30 477 H 52.4134 -5.43537 -0.765406 0
M  V30 478 H 52.6744 -4.03875 -1.79827 0
M  V30 479 N 51.7335 -0.305618 -1.54608 0
M  V30 480 C 52.9795 0.302746 -2.00528 0
M  V30 481 C 53.3125 1.53184 -1.19367 0
M  V30 482 O 52.5875 1.92598 -0.271321 0
M  V30 483 C 52.8705 0.654756 -3.54097 0
M  V30 484 C 52.7235 -0.583793 -4.45995 0
M  V30 485 C 54.0425 1.47947 -4.14487 0
M  V30 486 H 51.1615 0.108564 -0.72896 0
M  V30 487 H 53.8035 -0.418634 -1.85331 0
M  V30 488 H 51.9535 1.26935 -3.67178 0
M  V30 489 H 53.6255 -1.22224 -4.44814 0
M  V30 490 H 51.8685 -1.21615 -4.16404 0
M  V30 491 H 52.5395 -0.293287 -5.5122 0
M  V30 492 H 55.0155 0.96013 -4.04871 0
M  V30 493 H 53.8915 1.69454 -5.22088 0
M  V30 494 H 54.1525 2.47011 -3.66658 0
M  V30 495 N 53.2116 1.57565 -0.0334293 0
M  V30 496 C 54.1216 2.13943 0.962572 0
M  V30 497 C 55.1376 1.09276 1.35406 0
M  V30 498 O 56.3136 1.41355 1.4346 0
M  V30 499 C 53.3786 2.65887 2.22497 0
M  V30 500 C 52.4396 3.85286 1.8935 0
M  V30 501 C 51.6726 4.34743 3.09571 0
M  V30 502 O 51.8956 3.83352 4.22371 0
M  V30 503 O 50.8296 5.26538 2.91618 0
M  V30 504 H 54.6556 2.99333 0.513169 0
M  V30 505 H 52.2406 1.4822 0.18743 0
M  V30 506 H 54.1226 2.99346 2.96598 0
M  V30 507 H 52.7976 1.83578 2.6661 0
M  V30 508 H 51.7046 3.56746 1.1262 0
M  V30 509 H 53.0376 4.68771 1.5005 0
M  V30 510 N 54.6897 -0.239769 1.55765 0
M  V30 511 C 55.9377 -0.964892 1.77579 0
M  V30 512 C 56.2587 -1.85582 0.598699 0
M  V30 513 O 55.5287 -1.92075 -0.385226 0
M  V30 514 H 54.1087 -0.359265 0.654933 0
M  V30 515 H 56.7707 -0.256001 1.93211 0
M  V30 516 H 55.8667 -1.58243 2.69009 0
M  V30 517 N 56.1678 -1.49265 -0.50573 0
M  V30 518 C 57.1148 -1.65585 -1.6078 0
M  V30 519 C 58.0848 -0.497396 -1.58478 0
M  V30 520 O 59.2698 -0.72385 -1.76536 0
M  V30 521 C 56.4098 -1.72408 -2.98948 0
M  V30 522 C 55.5228 -2.99525 -3.11301 0
M  V30 523 C 54.6578 -2.97356 -4.40174 0
M  V30 524 C 53.6968 -4.19074 -4.46143 0
M  V30 525 N 52.8338 -4.14841 -5.66437 0
M  V30 526 H 57.6738 -2.59688 -1.46172 0
M  V30 527 H 55.2108 -1.28761 -0.711261 0
M  V30 528 H 57.1688 -1.74344 -3.79025 0
M  V30 529 H 55.7988 -0.817753 -3.1227 0
M  V30 530 H 54.8508 -3.07222 -2.24318 0
M  V30 531 H 56.1628 -3.89518 -3.11572 0
M  V30 532 H 55.3168 -2.97829 -5.28567 0
M  V30 533 H 54.0558 -2.05133 -4.42461 0
M  V30 534 H 53.0608 -4.1885 -3.56153 0
M  V30 535 H 54.2858 -5.12483 -4.45575 0
M  V30 536 H 52.2318 -3.25453 -5.69575 0
M  V30 537 H 52.1488 -4.98564 -5.68304 0
M  V30 538 H 53.4168 -4.1941 -6.57051 0
M  V30 539 N 57.6459 0.756429 -1.3826 0
M  V30 540 C 58.5559 1.9009 -1.37488 0
M  V30 541 C 59.5719 1.71855 -0.272366 0
M  V30 542 O 60.7479 1.94827 -0.510318 0
M  V30 543 C 57.8129 3.25421 -1.19592 0
M  V30 544 C 56.8739 3.56202 -2.39622 0
M  V30 545 C 56.1069 4.85075 -2.2257 0
M  V30 546 O 56.3299 5.57246 -1.21793 0
M  V30 547 O 55.2639 5.15269 -3.11098 0
M  V30 548 H 59.0899 1.93695 -2.33914 0
M  V30 549 H 56.6749 0.901313 -1.1915 0
M  V30 550 H 58.5569 4.06337 -1.11661 0
M  V30 551 H 57.2319 3.22634 -0.262486 0
M  V30 552 H 56.1389 2.75458 -2.53128 0
M  V30 553 H 57.4719 3.63747 -3.31586 0
M  V30 554 N 59.124 1.23083 0.984299 0
M  V30 555 C 60.37 1.07221 1.72845 0
M  V30 556 C 60.725 -0.387453 1.88458 0
M  V30 557 O 60.018 -1.28309 1.42293 0
M  V30 558 C 60.212 1.72673 3.1292 0
M  V30 559 C 60.041 3.24853 3.10967 0
M  V30 560 C 58.811 3.93998 3.16376 0
M  V30 561 C 61.009 4.21674 2.94441 0
M  V30 562 N 58.991 5.33192 3.04268 0
M  V30 563 C 60.362 5.47756 2.90453 0
M  V30 564 C 62.417 4.12457 2.78897 0
M  V30 565 C 61.12 6.6568 2.72512 0
M  V30 566 C 63.146 5.3004 2.62319 0
M  V30 567 C 62.508 6.55046 2.59026 0
M  V30 568 H 58.607 0.44685 0.641755 0
M  V30 569 H 61.191 1.55753 1.16829 0
M  V30 570 H 59.362 1.26679 3.67161 0
M  V30 571 H 61.094 1.49824 3.75945 0
M  V30 572 H 57.849 3.45052 3.24401 0
M  V30 573 H 58.273 6.06157 3.015 0
M  V30 574 H 62.915 3.16588 2.80235 0
M  V30 575 H 60.633 7.61689 2.69919 0
M  V30 576 H 64.219 5.24747 2.5126 0
M  V30 577 H 63.099 7.44498 2.46357 0
M  V30 578 N 60.6021 -1.18246 1.0419 0
M  V30 579 C 61.8501 -1.87886 0.744543 0
M  V30 580 C 62.1711 -1.8082 -0.730006 0
M  V30 581 O 61.4411 -1.22736 -1.52685 0
M  V30 582 H 60.0211 -0.695556 0.272417 0
M  V30 583 H 62.6831 -1.43494 1.31892 0
M  V30 584 H 61.7791 -2.9389 1.05049 0
M  V30 585 N 62.0802 -0.821533 -1.34494 0
M  V30 586 C 63.3052 -0.420873 -2.03085 0
M  V30 587 C 63.7302 0.964915 -1.61465 0
M  V30 588 O 63.0882 1.62763 -0.798607 0
M  V30 589 C 63.1362 -0.529414 -3.56693 0
M  V30 590 O 62.2402 0.451302 -4.09923 0
M  V30 591 H 61.5812 -0.173489 -0.640935 0
M  V30 592 H 64.1112 -1.11157 -1.71771 0
M  V30 593 H 64.1212 -0.404671 -4.05988 0
M  V30 594 H 62.7962 -1.54014 -3.86332 0
M  V30 595 H 61.3732 0.285558 -3.71805 0
M  V30 596 N 63.5583 1.46682 -0.576371 0
M  V30 597 C 64.8053 2.02412 -0.0595339 0
M  V30 598 C 65.1333 1.44859 1.29793 0
M  V30 599 O 64.3883 0.601099 1.8624 0
M  V30 600 C 64.6873 3.57345 0.062886 0
M  V30 601 C 64.3533 4.33908 -1.22616 0
M  V30 602 C 63.0153 4.54544 -1.57933 0
M  V30 603 C 65.3673 4.77919 -2.07948 0
M  V30 604 C 62.6953 5.16444 -2.78393 0
M  V30 605 C 65.0473 5.41149 -3.27629 0
M  V30 606 C 63.7113 5.60014 -3.63236 0
M  V30 607 H 62.9813 0.74068 -0.021785 0
M  V30 608 H 65.6283 1.76128 -0.751735 0
M  V30 609 H 63.9333 3.82729 0.838178 0
M  V30 610 H 65.6303 3.98136 0.478439 0
M  V30 611 H 62.2203 4.18138 -0.941202 0
M  V30 612 H 66.4043 4.61738 -1.81967 0
M  V30 613 H 61.6603 5.29242 -3.06126 0
M  V30 614 H 65.8343 5.74211 -3.94023 0
M  V30 615 H 63.4613 6.07748 -4.56669 0
M  V30 616 N 65.0364 0.313813 1.54444 0
M  V30 617 C 66.2664 -0.293491 2.04505 0
M  V30 618 C 66.6744 -1.47086 1.19005 0
M  V30 619 O 66.0174 -1.82481 0.211257 0
M  V30 620 C 66.0794 -0.800455 3.50475 0
M  V30 621 C 65.7434 0.253322 4.56297 0
M  V30 622 C 66.7404 1.08612 5.08428 0
M  V30 623 C 64.4254 0.398708 5.00715 0
M  V30 624 C 66.4194 2.05013 6.0353 0
M  V30 625 C 64.1064 1.36614 5.95634 0
M  V30 626 C 65.1044 2.19033 6.46926 0
M  V30 627 O 64.7924 3.14134 7.39983 0
M  V30 628 H 64.5244 -0.0658325 0.672787 0
M  V30 629 H 67.0784 0.455177 2.00293 0
M  V30 630 H 65.3084 -1.59987 3.52053 0
M  V30 631 H 66.9974 -1.32504 3.83663 0
M  V30 632 H 67.7634 0.984736 4.74898 0
M  V30 633 H 63.6424 -0.23289 4.60411 0
M  V30 634 H 67.1864 2.69382 6.4349 0
M  V30 635 H 63.0834 1.4682 6.28581 0
M  V30 636 H 63.8514 3.0926 7.57826 0
M  V30 637 N 66.5145 -1.57545 0.0417849 0
M  V30 638 C 67.7445 -1.96339 -0.642995 0
M  V30 639 C 68.1525 -0.917536 -1.65463 0
M  V30 640 O 67.4955 0.107747 -1.83384 0
M  V30 641 C 67.5575 -3.31333 -1.39494 0
M  V30 642 C 67.2215 -4.53796 -0.540204 0
M  V30 643 C 68.2185 -5.19553 0.189806 0
M  V30 644 C 65.9035 -5.0006 -0.473886 0
M  V30 645 C 67.8975 -6.29904 0.974674 0
M  V30 646 C 65.5845 -6.10289 0.314677 0
M  V30 647 C 66.5825 -6.75072 1.03765 0
M  V30 648 O 66.2705 -7.83183 1.81327 0
M  V30 649 H 66.0025 -0.651241 -0.181277 0
M  V30 650 H 68.5565 -2.05148 0.101665 0
M  V30 651 H 66.7865 -3.19052 -2.18502 0
M  V30 652 H 68.4755 -3.54942 -1.96904 0
M  V30 653 H 69.2415 -4.84774 0.147981 0
M  V30 654 H 65.1205 -4.49433 -1.0262 0
M  V30 655 H 68.6645 -6.80401 1.5395 0
M  V30 656 H 64.5615 -6.44506 0.358174 0
M  V30 657 H 65.3295 -7.99913 1.73438 0
M  V30 658 N 67.9926 0.231505 -1.5589 0
M  V30 659 C 69.2176 0.978689 -1.82856 0
M  V30 660 C 69.6426 1.77559 -0.620846 0
M  V30 661 O 69.0006 1.76119 0.430305 0
M  V30 662 C 69.0486 1.87997 -3.07716 0
M  V30 663 O 68.1526 2.97393 -2.85712 0
M  V30 664 H 67.4936 0.277663 -0.603158 0
M  V30 665 H 70.0236 0.24783 -2.03093 0
M  V30 666 H 70.0336 2.2917 -3.37558 0
M  V30 667 H 68.7086 1.29417 -3.95252 0
M  V30 668 H 67.2856 2.60238 -2.67078 0
M  V30 669 N 69.4707 1.49531 0.497807 0
M  V30 670 C 70.7177 1.59179 1.25173 0
M  V30 671 C 71.0457 0.279932 1.92475 0
M  V30 672 O 70.3007 -0.732383 1.81479 0
M  V30 673 C 70.5997 2.70252 2.33878 0
M  V30 674 C 70.2657 4.11644 1.84012 0
M  V30 675 C 68.9277 4.50121 1.70132 0
M  V30 676 C 71.2797 5.00121 1.46725 0
M  V30 677 C 68.6077 5.74845 1.17348 0
M  V30 678 C 70.9597 6.25366 0.95392 0
M  V30 679 C 69.6237 6.6267 0.801538 0
M  V30 680 H 68.8937 0.582478 0.45804 0
M  V30 681 H 71.5407 1.83373 0.551948 0
M  V30 682 H 69.8457 2.40041 3.09657 0
M  V30 683 H 71.5427 2.74925 2.9192 0
M  V30 684 H 68.1327 3.81274 1.95775 0
M  V30 685 H 72.3167 4.71048 1.56294 0
M  V30 686 H 67.5727 6.02444 1.04264 0
M  V30 687 H 71.7467 6.93301 0.656225 0
M  V30 688 H 69.3737 7.59197 0.390351 0
M  V30 689 N 70.9488 -0.749086 1.3866 0
M  V30 690 C 71.8958 -1.86291 1.36251 0
M  V30 691 C 72.8658 -1.64578 0.224347 0
M  V30 692 O 74.0508 -1.86181 0.417279 0
M  V30 693 C 71.1908 -3.23644 1.19786 0
M  V30 694 C 70.3038 -3.57158 2.43027 0
M  V30 695 C 69.4388 -4.83838 2.19258 0
M  V30 696 C 68.4778 -5.10152 3.38247 0
M  V30 697 N 67.6148 -6.28029 3.13884 0
M  V30 698 H 72.4548 -1.87685 2.3147 0
M  V30 699 H 69.9918 -0.917287 1.14997 0
M  V30 700 H 71.9498 -4.0291 1.08254 0
M  V30 701 H 70.5798 -3.21566 0.282031 0
M  V30 702 H 69.6318 -2.72701 2.65214 0
M  V30 703 H 70.9438 -3.7253 3.31697 0
M  V30 704 H 70.0978 -5.71057 2.04888 0
M  V30 705 H 68.8368 -4.70614 1.2796 0
M  V30 706 H 67.8418 -4.21401 3.53131 0
M  V30 707 H 69.0668 -5.25271 4.30427 0
M  V30 708 H 67.0128 -6.1612 2.25238 0
M  V30 709 H 66.9298 -6.43922 3.96106 0
M  V30 710 H 68.1978 -7.18124 3.03179 0
M  V30 711 N 72.4269 -1.23603 -0.977757 0
M  V30 712 C 73.6549 -1.09646 -1.75458 0
M  V30 713 C 74.0699 0.351859 -1.85492 0
M  V30 714 O 73.4269 1.24327 -1.336 0
M  V30 715 C 73.4779 -1.71895 -3.18016 0
M  V30 716 O 73.1989 -3.11063 -3.08498 0
M  V30 717 C 74.6999 -1.63415 -4.12081 0
M  V30 718 H 71.9199 -0.38359 -0.550545 0
M  V30 719 H 74.4639 -1.63507 -1.22824 0
M  V30 720 H 72.6189 -1.22061 -3.67668 0
M  V30 721 H 73.0329 -3.41305 -3.9826 0
M  V30 722 H 74.5069 -2.11669 -5.09804 0
M  V30 723 H 74.9839 -0.593462 -4.35172 0
M  V30 724 H 75.5899 -2.12628 -3.68334 0
M  V30 725 N 73.905 1.17692 -1.04816 0
M  V30 726 C 74.815 2.25229 -0.65643 0
M  V30 727 C 75.831 1.71018 0.320761 0
M  V30 728 O 77.007 2.00649 0.173805 0
M  V30 729 C 74.072 3.46684 -0.0332629 0
M  V30 730 C 73.133 4.15997 -1.06042 0
M  V30 731 C 72.366 5.31654 -0.466893 0
M  V30 732 O 72.589 5.65777 0.724758 0
M  V30 733 O 71.523 5.89831 -1.1993 0
M  V30 734 H 75.349 2.61016 -1.55255 0
M  V30 735 H 72.934 1.24919 -0.81949 0
M  V30 736 H 74.816 4.20234 0.313256 0
M  V30 737 H 73.491 3.12703 0.836566 0
M  V30 738 H 72.398 3.44482 -1.45886 0
M  V30 739 H 73.731 4.53996 -1.90127 0
M  V30 740 N 75.3831 0.828654 1.34056 0
M  V30 741 C 76.3151 0.212052 2.28217 0
M  V30 742 C 77.3281 -0.601362 1.51286 0
M  V30 743 O 78.5171 -0.430104 1.73241 0
M  V30 744 C 75.6171 -0.72088 3.31144 0
M  V30 745 C 74.7901 0.0509587 4.3737 0
M  V30 746 C 73.8491 -0.803766 5.20025 0
M  V30 747 O 72.8751 -0.246667 5.68665 0
M  V30 748 N 74.0771 -2.1227 5.40298 0
M  V30 749 H 76.8421 1.02105 2.81771 0
M  V30 750 H 74.4031 0.686153 1.46641 0
M  V30 751 H 76.3951 -1.29742 3.8334 0
M  V30 752 H 74.9651 -1.43061 2.77943 0
M  V30 753 H 74.1851 0.808831 3.85813 0
M  V30 754 H 75.4731 0.582065 5.0546 0
M  V30 755 H 74.8711 -2.59898 5.02464 0
M  V30 756 H 73.4281 -2.64796 5.95589 0
M  V30 757 N 76.8612 -1.46375 0.584142 0
M  V30 758 C 77.7912 -2.33103 -0.136037 0
M  V30 759 C 78.7722 -1.45431 -0.882255 0
M  V30 760 O 79.9572 -1.74246 -0.857434 0
M  V30 761 C 77.0872 -3.27731 -1.14933 0
M  V30 762 C 76.0412 -4.24855 -0.517862 0
M  V30 763 C 75.3672 -5.09001 -1.63773 0
M  V30 764 C 76.6672 -5.19439 0.545886 0
M  V30 765 H 78.3612 -2.93568 0.588086 0
M  V30 766 H 75.9072 -1.41166 0.284259 0
M  V30 767 H 77.8602 -3.87261 -1.66153 0
M  V30 768 H 76.5842 -2.65377 -1.90375 0
M  V30 769 H 75.2432 -3.6659 -0.0267361 0
M  V30 770 H 74.8912 -4.43031 -2.38185 0
M  V30 771 H 74.5912 -5.74777 -1.22085 0
M  V30 772 H 76.1152 -5.71396 -2.15266 0
M  V30 773 H 77.5292 -5.73177 0.118704 0
M  V30 774 H 75.9262 -5.93566 0.88317 0
M  V30 775 H 76.9962 -4.63285 1.43162 0
M  V30 776 N 78.3393 -0.321999 -1.54275 0
M  V30 777 C 79.5883 0.281931 -1.9972 0
M  V30 778 C 79.9013 1.53369 -1.21397 0
M  V30 779 O 81.1073 2.21352 -1.57211 0
M  V30 780 C 79.5633 0.5529 -3.55628 0
M  V30 781 C 79.1713 -0.681721 -4.42783 0
M  V30 782 C 80.9153 1.11687 -4.09544 0
M  V30 783 C 78.8223 -0.382742 -5.9016 0
M  V30 784 H 77.7523 0.109124 -0.746062 0
M  V30 785 H 80.4033 -0.43398 -1.78294 0
M  V30 786 H 78.7853 1.32896 -3.73035 0
M  V30 787 H 79.9593 -1.45723 -4.37151 0
M  V30 788 H 78.2743 -1.1658 -3.99748 0
M  V30 789 H 80.8713 1.35515 -5.17242 0
M  V30 790 H 81.2143 2.06575 -3.61431 0
M  V30 791 H 81.7473 0.402032 -3.95763 0
M  V30 792 H 78.4863 -1.30076 -6.42464 0
M  V30 793 H 78.0063 0.355094 -5.98748 0
M  V30 794 H 79.6853 0.00800157 -6.47 0
M  V30 795 N 79.8174 1.5752 -0.0501392 0
M  V30 796 C 81.0454 1.96963 0.633492 0
M  V30 797 C 81.4604 0.927631 1.6444 0
M  V30 798 O 80.8174 -0.0882665 1.82286 0
M  V30 799 C 80.8684 3.36487 1.32132 0
M  V30 800 O 80.5894 4.36693 0.350894 0
M  V30 801 C 82.0904 3.90682 2.09481 0
M  V30 802 H 79.3104 0.648244 0.173266 0
M  V30 803 H 81.8544 2.0417 -0.116134 0
M  V30 804 H 80.0094 3.30434 2.02218 0
M  V30 805 H 80.4234 5.17702 0.841735 0
M  V30 806 H 81.8974 4.90591 2.5303 0
M  V30 807 H 82.3744 3.26053 2.94255 0
M  V30 808 H 82.9804 4.00069 1.44307 0
M  V30 809 N 81.2955 -0.223234 1.56011 0
M  V30 810 C 82.2255 -1.27988 1.95298 0
M  V30 811 C 83.2065 -1.48976 0.820979 0
M  V30 812 O 84.3915 -1.61188 1.08315 0
M  V30 813 C 81.5215 -2.63 2.26822 0
M  V30 814 C 80.4755 -2.56671 3.42497 0
M  V30 815 C 79.8015 -3.95697 3.59622 0
M  V30 816 C 81.1015 -2.11601 4.77517 0
M  V30 817 H 82.7955 -0.953525 2.8381 0
M  V30 818 H 80.3415 -0.457244 1.36548 0
M  V30 819 H 82.2945 -3.37077 2.52898 0
M  V30 820 H 81.0185 -2.9732 1.35161 0
M  V30 821 H 79.6775 -1.85051 3.16467 0
M  V30 822 H 79.3255 -4.27322 2.6534 0
M  V30 823 H 79.0255 -3.92345 4.37424 0
M  V30 824 H 80.5495 -4.71438 3.88044 0
M  V30 825 H 81.9635 -2.7542 5.02809 0
M  V30 826 H 80.3605 -2.19311 5.5859 0
M  V30 827 H 81.4305 -1.06824 4.72987 0
M  V30 828 N 82.7736 -1.49793 -0.48987 0
M  V30 829 C 84.0196 -1.61049 -1.24236 0
M  V30 830 C 84.3746 -0.298412 -1.90072 0
M  V30 831 O 83.6676 0.702262 -1.78266 0
M  V30 832 C 83.8616 -2.71488 -2.32441 0
M  V30 833 C 83.6906 -4.13308 -1.77218 0
M  V30 834 C 82.4606 -4.79955 -1.58023 0
M  V30 835 C 84.6586 -4.98176 -1.27772 0
M  V30 836 N 82.6406 -6.06052 -0.978465 0
M  V30 837 C 84.0116 -6.14843 -0.798 0
M  V30 838 C 86.0666 -4.84091 -1.16449 0
M  V30 839 C 84.7696 -7.18975 -0.216245 0
M  V30 840 C 86.7956 -5.88382 -0.596698 0
M  V30 841 C 86.1576 -7.04285 -0.127262 0
M  V30 842 H 82.2566 -0.643611 -0.444172 0
M  V30 843 H 84.8406 -1.86842 -0.54754 0
M  V30 844 H 83.0116 -2.47449 -2.99372 0
M  V30 845 H 84.7436 -2.72205 -2.99477 0
M  V30 846 H 81.4986 -4.36936 -1.82712 0
M  V30 847 H 81.9226 -6.73407 -0.696534 0
M  V30 848 H 86.5646 -3.94786 -1.5134 0
M  V30 849 H 84.2826 -8.0797 0.144903 0
M  V30 850 H 87.8686 -5.79545 -0.511716 0
M  V30 851 H 86.7486 -7.83606 0.30523 0
M  V30 852 N 84.2517 0.741722 -1.39055 0
M  V30 853 C 85.4977 1.50336 -1.36113 0
M  V30 854 C 85.8307 1.94148 0.0450796 0
M  V30 855 O 85.1057 1.66301 1.00868 0
M  V30 856 C 85.3887 2.74773 -2.32749 0
M  V30 857 C 85.2417 2.37023 -3.82283 0
M  V30 858 C 86.5607 3.76846 -2.27322 0
M  V30 859 H 83.6797 0.545351 -0.495743 0
M  V30 860 H 86.3217 0.848624 -1.69995 0
M  V30 861 H 84.4717 3.30639 -2.03986 0
M  V30 862 H 86.1437 1.8684 -4.21768 0
M  V30 863 H 84.3867 1.69334 -3.99385 0
M  V30 864 H 85.0577 3.26104 -4.45376 0
M  V30 865 H 87.5337 3.30548 -2.5274 0
M  V30 866 H 86.4097 4.6159 -2.97028 0
M  V30 867 H 86.6707 4.23286 -1.27599 0
M  V30 868 N 85.7298 1.2412 0.971189 0
M  V30 869 C 86.6598 1.05508 2.08304 0
M  V30 870 C 87.6408 -0.0308864 1.70072 0
M  V30 871 O 88.8258 0.135521 1.93727 0
M  V30 872 C 85.9558 0.655365 3.4106 0
M  V30 873 C 84.9098 1.68971 3.93234 0
M  V30 874 C 84.2358 1.14516 5.22293 0
M  V30 875 C 85.5358 3.08487 4.21465 0
M  V30 876 H 87.2298 1.98507 2.24132 0
M  V30 877 H 84.7758 0.955821 1.07704 0
M  V30 878 H 86.7288 0.51217 4.18276 0
M  V30 879 H 85.4528 -0.31032 3.25122 0
M  V30 880 H 84.1118 1.82106 3.18171 0
M  V30 881 H 83.7598 0.170189 5.02712 0
M  V30 882 H 83.4598 1.83635 5.58168 0
M  V30 883 H 84.9838 1.01401 6.02121 0
M  V30 884 H 86.3978 2.98601 4.89398 0
M  V30 885 H 84.7948 3.74926 4.68562 0
M  V30 886 H 85.8648 3.56787 3.28376 0
M  V30 887 N 87.2079 -1.17134 1.05439 0
M  V30 888 C 88.4549 -1.87456 0.765942 0
M  V30 889 C 88.7829 -1.81189 -0.707153 0
M  V30 890 O 88.0379 -1.21633 -1.5331 0
M  V30 891 C 88.3369 -3.36833 1.19491 0
M  V30 892 C 88.0029 -3.63301 2.67063 0
M  V30 893 C 86.6649 -3.70234 3.07376 0
M  V30 894 C 89.0169 -3.74575 3.62413 0
M  V30 895 C 86.3449 -3.85933 4.41896 0
M  V30 896 C 88.6969 -3.91793 4.9667 0
M  V30 897 C 87.3609 -3.96966 5.36633 0
M  V30 898 H 86.6309 -0.685948 0.280278 0
M  V30 899 H 89.2779 -1.38556 1.32192 0
M  V30 900 H 87.5829 -3.87807 0.557969 0
M  V30 901 H 89.2799 -3.89611 0.948893 0
M  V30 902 H 85.8699 -3.58532 2.34846 0
M  V30 903 H 90.0539 -3.68537 3.32406 0
M  V30 904 H 85.3099 -3.88187 4.72357 0
M  V30 905 H 89.4839 -3.99458 5.70444 0
M  V30 906 H 87.1109 -4.08883 6.40874 0
M  V30 907 N 88.686 -0.835752 -1.33615 0
M  V30 908 C 89.932 -0.430596 -1.98176 0
M  V30 909 C 90.265 1.00684 -1.66061 0
M  V30 910 O 89.54 1.70339 -0.938877 0
M  V30 911 C 89.823 -0.648065 -3.5422 0
M  V30 912 C 89.676 -2.13255 -3.96033 0
M  V30 913 C 90.995 -0.0922113 -4.40003 0
M  V30 914 H 88.114 -0.157924 -0.719881 0
M  V30 915 H 90.756 -1.05069 -1.58305 0
M  V30 916 H 88.906 -0.120237 -3.88314 0
M  V30 917 H 90.578 -2.725 -3.72211 0
M  V30 918 H 88.821 -2.61823 -3.45878 0
M  V30 919 H 89.492 -2.23547 -5.04708 0
M  V30 920 H 91.968 -0.543343 -4.12537 0
M  V30 921 H 90.844 -0.274083 -5.48215 0
M  V30 922 H 91.105 1.00378 -4.30554 0
M  V30 923 N 90.1641 1.46063 -0.591896 0
M  V30 924 C 91.4111 2.02338 -0.0809991 0
M  V30 925 C 91.7391 1.46228 1.28249 0
M  V30 926 O 90.9941 0.620818 1.85592 0
M  V30 927 C 91.2931 3.57391 0.0249813 0
M  V30 928 C 90.9591 4.32583 -1.27211 0
M  V30 929 C 89.6211 4.52844 -1.62745 0
M  V30 930 C 91.9731 4.75687 -2.13005 0
M  V30 931 C 89.3011 5.13462 -2.83855 0
M  V30 932 C 91.6531 5.37644 -3.3335 0
M  V30 933 C 90.3171 5.5613 -3.69155 0
M  V30 934 H 89.5871 0.740407 -0.0296397 0
M  V30 935 H 92.2341 1.75321 -0.770374 0
M  V30 936 H 90.5391 3.83597 0.797537 0
M  V30 937 H 92.2361 3.98621 0.436184 0
M  V30 938 H 88.8261 4.17116 -0.985499 0
M  V30 939 H 93.0101 4.59782 -1.86855 0
M  V30 940 H 88.2661 5.25965 -3.11722 0
M  V30 941 H 92.4401 5.7 -4.00092 0
M  V30 942 H 90.0671 6.0287 -4.63089 0
M  V30 943 N 91.6422 0.330177 1.54103 0
M  V30 944 C 92.8702 -0.272179 2.05102 0
M  V30 945 C 93.2852 -1.45267 1.20595 0
M  V30 946 O 92.6422 -1.8094 0.238144 0
M  V30 947 C 92.6932 -0.70023 3.54653 0
M  V30 948 O 92.4142 0.433301 4.35952 0
M  V30 949 C 93.9152 -1.3647 4.21771 0
M  V30 950 H 91.1352 -0.0549159 0.668749 0
M  V30 951 H 93.6792 0.478285 1.98828 0
M  V30 952 H 91.8342 -1.40066 3.61193 0
M  V30 953 H 92.2482 0.0947539 5.24414 0
M  V30 954 H 93.7222 -1.61509 5.27843 0
M  V30 955 H 94.1992 -2.31409 3.73292 0
M  V30 956 H 94.8052 -0.706675 4.19388 0
M  V30 957 N 93.1203 -1.57491 0.0584922 0
M  V30 958 C 94.3693 -1.92155 -0.613146 0
M  V30 959 C 94.6823 -0.939334 -1.71569 0
M  V30 960 O 95.8883 -1.17829 -2.44599 0
M  V30 961 C 94.3443 -3.41303 -1.14195 0
M  V30 962 C 93.9523 -4.47944 -0.0711265 0
M  V30 963 C 95.6963 -3.84988 -1.78841 0
M  V30 964 C 93.6033 -5.88212 -0.613225 0
M  V30 965 H 92.5333 -0.717162 -0.232796 0
M  V30 966 H 95.1843 -1.83049 0.12857 0
M  V30 967 H 93.5663 -3.45437 -1.93621 0
M  V30 968 H 94.7403 -4.55408 0.702836 0
M  V30 969 H 93.0553 -4.13644 0.478313 0
M  V30 970 H 95.6523 -4.87159 -2.20408 0
M  V30 971 H 95.9953 -3.21632 -2.64308 0
M  V30 972 H 96.5283 -3.83401 -1.06059 0
M  V30 973 H 93.2673 -6.55183 0.203978 0
M  V30 974 H 92.7873 -5.84294 -1.35501 0
M  V30 975 H 94.4663 -6.37687 -1.09383 0
M  V30 976 N 94.5984 0.214957 -1.56127 0
M  V30 977 C 95.8444 0.939762 -1.79712 0
M  V30 978 C 96.1774 1.83723 -0.629247 0
M  V30 979 O 95.4524 1.90925 0.371197 0
M  V30 980 C 95.7354 1.77306 -3.13424 0
M  V30 981 C 95.5884 0.90164 -4.40671 0
M  V30 982 C 96.9074 2.74956 -3.43638 0
M  V30 983 H 94.0264 0.340214 -0.653776 0
M  V30 984 H 96.6684 0.20824 -1.88855 0
M  V30 985 H 94.8184 2.39673 -3.0576 0
M  V30 986 H 96.4904 0.294206 -4.60361 0
M  V30 987 H 94.7334 0.207368 -4.33304 0
M  V30 988 H 95.4044 1.51923 -5.30682 0
M  V30 989 H 97.8804 2.22724 -3.51473 0
M  V30 990 H 96.7564 3.30358 -4.38355 0
M  V30 991 H 97.0174 3.53023 -2.66134 0
M  V30 992 N 96.0765 1.50051 0.48192 0
M  V30 993 C 97.3245 1.60181 1.23234 0
M  V30 994 C 97.6455 0.299176 1.92691 0
M  V30 995 O 96.9155 -0.682708 1.83619 0
M  V30 996 H 95.4955 0.590232 0.457859 0
M  V30 997 H 98.1575 1.86775 0.556881 0
M  V30 998 H 97.2535 2.40753 1.98607 0
M  V30 999 N 97.5546 -0.734337 1.39446 0
M  V30 1000 C 98.5026 -1.86971 1.38364 0
M  V30 1001 C 99.4966 -1.67288 0.266687 0
M  V30 1002 O 100.703 -1.74621 0.436755 0
M  V30 1003 H 97.0776 -0.615474 0.432082 0
M  V30 1004 H 99.0486 -1.85 2.34132 0
M  V30 1005 C 97.7976 -3.2466 1.24465 0
M  V30 1006 H 97.1206 -3.40402 2.09682 0
M  V30 1007 H 98.5606 -4.04292 1.27764 0
M  V30 1008 C 97.0196 -3.36867 -0.0468674 0
M  V30 1009 O 97.5496 -3.88618 -1.01681 0
M  V30 1010 N 95.7556 -2.90391 -0.110145 0
M  V30 1011 H 95.3026 -2.48466 0.679868 0
M  V30 1012 H 95.2606 -2.98939 -0.973799 0
M  V30 1013 N 99.0327 -1.24633 -0.964593 0
M  V30 1014 C 100.258 -1.11596 -1.74818 0
M  V30 1015 C 100.683 0.32723 -1.85232 0
M  V30 1016 O 100.041 1.23695 -1.32549 0
M  V30 1017 C 100.089 -1.76397 -3.1451 0
M  V30 1018 O 99.1927 -1.03685 -3.99153 0
M  V30 1019 H 98.5337 -0.390196 -0.537255 0
M  V30 1020 H 101.064 -1.65002 -1.20977 0
M  V30 1021 H 101.074 -1.8228 -3.65018 0
M  V30 1022 H 99.7487 -2.81401 -3.06246 0
M  V30 1023 H 98.3257 -1.05611 -3.57632 0
M  V30 1024 N 100.511 1.16574 -1.06058 0
M  V30 1025 C 101.757 1.87324 -0.777022 0
M  V30 1026 C 102.09 1.81351 0.694645 0
M  V30 1027 O 101.365 1.22753 1.50871 0
M  V30 1028 C 101.648 3.36991 -1.26922 0
M  V30 1029 C 101.501 3.51667 -2.80447 0
M  V30 1030 C 102.82 4.3131 -0.87521 0
M  V30 1031 H 99.9388 0.680191 -0.28374 0
M  V30 1032 H 102.581 1.37036 -1.3161 0
M  V30 1033 H 100.731 3.79949 -0.81063 0
M  V30 1034 H 102.403 3.17664 -3.34495 0
M  V30 1035 H 100.646 2.93656 -3.19294 0
M  V30 1036 H 101.317 4.56766 -3.0995 0
M  V30 1037 H 103.793 3.9624 -1.27014 0
M  V30 1038 H 102.669 5.34545 -1.2471 0
M  V30 1039 H 102.93 4.41552 0.220071 0
M  V30 1040 N 101.989 0.842826 1.3317 0
M  V30 1041 C 103.235 0.441099 1.97945 0
M  V30 1042 C 103.568 -0.998024 1.66593 0
M  V30 1043 O 102.843 -1.69839 0.947898 0
M  V30 1044 C 103.126 0.666841 3.53872 0
M  V30 1045 C 102.979 2.15352 3.94897 0
M  V30 1046 C 104.298 0.115544 4.39948 0
M  V30 1047 H 101.417 0.161739 0.719034 0
M  V30 1048 H 104.059 1.05907 1.57746 0
M  V30 1049 H 102.209 0.140828 3.88245 0
M  V30 1050 H 103.881 2.7447 3.70761 0
M  V30 1051 H 102.124 2.63653 3.44484 0
M  V30 1052 H 102.795 2.26221 5.03516 0
M  V30 1053 H 105.271 0.565213 4.12243 0
M  V30 1054 H 104.147 0.303152 5.48062 0
M  V30 1055 H 104.408 -0.980935 4.3108 0
M  V30 1056 N 103.467 -1.45747 0.599634 0
M  V30 1057 C 104.397 -2.33235 -0.111306 0
M  V30 1058 C 105.378 -1.46359 -0.866781 0
M  V30 1059 O 106.563 -1.75146 -0.838904 0
M  V30 1060 C 103.693 -3.28932 -1.11451 0
M  V30 1061 C 102.647 -4.25381 -0.472772 0
M  V30 1062 C 101.973 -5.1071 -1.58365 0
M  V30 1063 C 103.273 -5.18831 0.600948 0
M  V30 1064 H 104.967 -2.92927 0.61919 0
M  V30 1065 H 102.513 -1.40857 0.299215 0
M  V30 1066 H 104.466 -3.89002 -1.62036 0
M  V30 1067 H 103.19 -2.67381 -1.8755 0
M  V30 1068 H 101.849 -3.66598 0.0121472 0
M  V30 1069 H 101.497 -4.45533 -2.33473 0
M  V30 1070 H 101.197 -5.7604 -1.15982 0
M  V30 1071 H 102.721 -5.73647 -2.09194 0
M  V30 1072 H 104.135 -5.73019 0.179491 0
M  V30 1073 H 102.532 -5.92595 0.946076 0
M  V30 1074 H 103.602 -4.6174 1.48068 0
M  V30 1075 N 104.945 -0.338344 -1.53925 0
M  V30 1076 C 106.192 0.259758 -2.00827 0
M  V30 1077 C 106.52 1.50973 -1.22628 0
M  V30 1078 O 105.775 1.93379 -0.300509 0
M  V30 1079 C 106.074 0.62448 -3.51902 0
M  V30 1080 C 105.74 -0.528006 -4.47798 0
M  V30 1081 C 104.402 -0.844298 -4.73735 0
M  V30 1082 C 106.754 -1.30143 -5.0469 0
M  V30 1083 C 104.082 -1.93648 -5.53821 0
M  V30 1084 C 106.434 -2.38382 -5.85967 0
M  V30 1085 C 105.098 -2.70576 -6.10201 0
M  V30 1086 H 104.368 0.0950523 -0.734878 0
M  V30 1087 H 107.015 -0.465182 -1.85764 0
M  V30 1088 H 105.32 1.43006 -3.64769 0
M  V30 1089 H 107.017 1.09905 -3.85645 0
M  V30 1090 H 103.607 -0.271421 -4.2774 0
M  V30 1091 H 107.791 -1.07033 -4.84621 0
M  V30 1092 H 103.047 -2.19021 -5.70824 0
M  V30 1093 H 107.221 -2.98746 -6.29066 0
M  V30 1094 H 104.848 -3.55333 -6.72044 0
M  V30 1095 N 106.423 1.57458 -0.0668435 0
M  V30 1096 C 107.648 1.9804 0.616027 0
M  V30 1097 C 108.073 0.944771 1.62652 0
M  V30 1098 O 107.431 -0.0902094 1.81075 0
M  V30 1099 C 107.479 3.37665 1.26549 0
M  V30 1100 O 106.583 3.36701 2.38131 0
M  V30 1101 H 105.924 0.644719 0.158849 0
M  V30 1102 H 108.454 2.04121 -0.139891 0
M  V30 1103 H 108.464 3.7474 1.6135 0
M  V30 1104 H 107.139 4.12573 0.525016 0
M  V30 1105 H 105.716 3.1139 2.0516 0
M  V30 1106 N 107.901 -0.206675 1.56239 0
M  V30 1107 C 109.129 -0.945345 1.8404 0
M  V30 1108 C 109.544 -1.77336 0.647885 0
M  V30 1109 O 108.901 -1.78425 -0.383511 0
M  V30 1110 C 108.952 -1.8509 3.10522 0
M  V30 1111 O 108.673 -1.05634 4.25174 0
M  V30 1112 C 110.174 -2.70222 3.51418 0
M  V30 1113 H 107.394 -0.276372 0.61144 0
M  V30 1114 H 109.938 -0.217417 2.03341 0
M  V30 1115 H 108.093 -2.53259 2.93153 0
M  V30 1116 H 108.507 -1.67238 4.97124 0
M  V30 1117 H 109.981 -3.29438 4.42916 0
M  V30 1118 H 110.458 -3.43358 2.73864 0
M  V30 1119 H 111.064 -2.07443 3.71278 0
M  V30 1120 N 109.379 -1.50304 -0.473955 0
M  V30 1121 C 110.625 -1.62358 -1.22521 0
M  V30 1122 C 110.98 -0.318555 -1.89745 0
M  V30 1123 O 110.273 0.683315 -1.79001 0
M  V30 1124 C 110.467 -2.73938 -2.29549 0
M  V30 1125 C 110.296 -4.15165 -1.72825 0
M  V30 1126 C 109.066 -4.81604 -1.52924 0
M  V30 1127 C 111.264 -4.99503 -1.22481 0
M  V30 1128 N 109.246 -6.07056 -0.91413 0
M  V30 1129 C 110.617 -6.15655 -0.732743 0
M  V30 1130 C 112.672 -4.85299 -1.11308 0
M  V30 1131 C 111.375 -7.19164 -0.139976 0
M  V30 1132 C 113.401 -5.88982 -0.534258 0
M  V30 1133 C 112.763 -7.0438 -0.0525562 0
M  V30 1134 H 108.862 -0.648286 -0.437321 0
M  V30 1135 H 111.446 -1.87413 -0.527692 0
M  V30 1136 H 109.617 -2.50611 -2.9673 0
M  V30 1137 H 111.349 -2.75366 -2.96573 0
M  V30 1138 H 108.104 -4.3885 -1.78067 0
M  V30 1139 H 108.528 -6.74108 -0.625071 0
M  V30 1140 H 113.17 -3.96369 -1.47144 0
M  V30 1141 H 110.888 -8.07771 0.230591 0
M  V30 1142 H 114.474 -5.80055 -0.450219 0
M  V30 1143 H 113.354 -7.83238 0.388324 0
M  V30 1144 N 110.857 0.726932 -1.39834 0
M  V30 1145 C 112.273 1.03354 -1.21615 0
M  V30 1146 C 112.473 2.01327 -0.08338 0
M  V30 1147 O 111.529 2.46158 0.56238 0
M  V30 1148 C 112.842 1.58811 -2.55342 0
M  V30 1149 C 114.39 1.70851 -2.62257 0
M  V30 1150 C 114.865 2.29716 -3.96225 0
M  V30 1151 N 116.356 2.37116 -3.97907 0
M  V30 1152 C 117.091 2.83619 -4.98345 0
M  V30 1153 N 116.587 3.29958 -6.09179 0
M  V30 1154 N 118.38 2.82901 -4.8572 0
M  V30 1155 H 110.531 0.0773069 -2.12259 0
M  V30 1156 H 112.794 0.0969102 -0.943034 0
M  V30 1157 H 112.5 0.942855 -3.38826 0
M  V30 1158 H 112.374 2.57502 -2.75632 0
M  V30 1159 H 114.761 2.34497 -1.79152 0
M  V30 1160 H 114.842 0.707913 -2.45809 0
M  V30 1161 H 114.486 1.66696 -4.79765 0
M  V30 1162 H 114.416 3.30469 -4.09997 0
M  V30 1163 H 116.907 2.04374 -3.17868 0
M  V30 1164 H 117.22 3.63976 -6.8172 0
M  V30 1165 H 115.565 3.27946 -6.12761 0
M  V30 1166 H 118.756 2.46027 -3.98231 0
M  V30 1167 H 118.929 3.18827 -5.6414 0
M  V30 1168 N 112.336 1.25143 0.95797 0
M  V30 1169 C 113.752 1.01892 1.22842 0
M  V30 1170 C 113.952 -0.266311 1.99732 0
M  V30 1171 O 113.008 -0.979913 2.3271 0
M  V30 1172 C 114.321 2.24004 2.00606 0
M  V30 1173 C 115.869 2.28731 2.13662 0
M  V30 1174 C 116.344 3.5049 2.94823 0
M  V30 1175 N 117.835 3.50866 3.02403 0
M  V30 1176 C 118.57 4.4174 3.65586 0
M  V30 1177 N 118.066 5.42882 4.30408 0
M  V30 1178 N 119.859 4.29429 3.62694 0
M  V30 1179 H 112.01 2.07718 0.443493 0
M  V30 1180 H 114.273 0.912031 0.258657 0
M  V30 1181 H 113.979 3.17395 1.51503 0
M  V30 1182 H 113.853 2.26907 3.01319 0
M  V30 1183 H 116.24 1.35865 2.61963 0
M  V30 1184 H 116.321 2.29848 1.12265 0
M  V30 1185 H 115.965 4.43676 2.47213 0
M  V30 1186 H 115.895 3.46617 3.96439 0
M  V30 1187 H 118.386 2.777 2.56302 0
M  V30 1188 H 118.699 6.0844 4.76467 0
M  V30 1189 H 117.044 5.46758 4.29047 0
M  V30 1190 H 120.235 3.49643 3.11236 0
M  V30 1191 H 120.408 5.00448 4.1165 0
M  V30 1192 N 113.814 -1.1601 1.06675 0
M  V30 1193 C 114.761 -2.20525 0.680967 0
M  V30 1194 C 115.731 -1.62904 -0.324283 0
M  V30 1195 O 116.916 -1.89615 -0.212294 0
M  V30 1196 C 114.056 -3.45013 0.0776551 0
M  V30 1197 C 113.169 -4.16863 1.13355 0
M  V30 1198 C 112.304 -5.2888 0.49597 0
M  V30 1199 C 111.343 -5.92537 1.53513 0
M  V30 1200 N 110.48 -6.96038 0.920631 0
M  V30 1201 H 115.32 -2.52876 1.57663 0
M  V30 1202 H 112.857 -1.24199 0.788223 0
M  V30 1203 H 114.815 -4.16193 -0.289704 0
M  V30 1204 H 113.445 -3.132 -0.781393 0
M  V30 1205 H 112.497 -3.44248 1.61857 0
M  V30 1206 H 113.809 -4.60294 1.92174 0
M  V30 1207 H 112.963 -6.06653 0.0758604 0
M  V30 1208 H 111.702 -4.86622 -0.324062 0
M  V30 1209 H 110.707 -5.13482 1.9651 0
M  V30 1210 H 111.932 -6.36873 2.35733 0
M  V30 1211 H 109.878 -6.55888 0.12138 0
M  V30 1212 H 109.795 -7.3786 1.64616 0
M  V30 1213 H 111.063 -7.77725 0.525795 0
M  V30 1214 N 115.292 -0.849877 -1.32721 0
M  V30 1215 C 116.239 -0.289033 -2.28983 0
M  V30 1216 C 117.209 0.601324 -1.54833 0
M  V30 1217 O 118.394 0.537253 -1.8308 0
M  V30 1218 C 115.534 0.520623 -3.4115 0
M  V30 1219 C 114.647 -0.394989 -4.3019 0
M  V30 1220 C 113.782 0.426834 -5.29482 0
M  V30 1221 C 112.821 -0.486476 -6.10164 0
M  V30 1222 N 111.958 0.297879 -7.01468 0
M  V30 1223 H 116.798 -1.11519 -2.76347 0
M  V30 1224 H 114.335 -0.56138 -1.35967 0
M  V30 1225 H 116.293 1.00563 -4.04899 0
M  V30 1226 H 114.923 1.31165 -2.9495 0
M  V30 1227 H 113.975 -0.99836 -3.67065 0
M  V30 1228 H 115.287 -1.09612 -4.86607 0
M  V30 1229 H 114.441 0.975205 -5.98811 0
M  V30 1230 H 113.18 1.16136 -4.73671 0
M  V30 1231 H 112.185 -1.04677 -5.39743 0
M  V30 1232 H 113.41 -1.21953 -6.6806 0
M  V30 1233 H 111.356 1.01558 -6.48091 0
M  V30 1234 H 111.273 -0.344318 -7.55216 0
M  V30 1235 H 112.541 0.828131 -7.75089 0
M  V30 1236 N 116.77 1.45427 -0.607355 0
M  V30 1237 C 117.717 2.3053 0.111625 0
M  V30 1238 C 118.687 1.4209 0.860216 0
M  V30 1239 O 119.872 1.71019 0.845998 0
M  V30 1240 C 117.012 3.26992 1.10319 0
M  V30 1241 C 116.125 4.30535 0.355493 0
M  V30 1242 C 115.26 5.14105 1.33676 0
M  V30 1243 C 114.299 6.09376 0.576862 0
M  V30 1244 N 113.436 6.85727 1.5074 0
M  V30 1245 H 118.276 2.91477 -0.620093 0
M  V30 1246 H 115.813 1.43631 -0.317594 0
M  V30 1247 H 117.771 3.81385 1.6912 0
M  V30 1248 H 116.401 2.67799 1.80232 0
M  V30 1249 H 115.453 3.78805 -0.348023 0
M  V30 1250 H 116.765 4.98235 -0.237423 0
M  V30 1251 H 115.919 5.72897 1.99684 0
M  V30 1252 H 114.658 4.46423 1.9636 0
M  V30 1253 H 113.663 5.49715 -0.0968519 0
M  V30 1254 H 114.888 6.79085 -0.0449341 0
M  V30 1255 H 112.834 6.20735 2.12189 0
M  V30 1256 H 112.751 7.49778 0.967913 0
M  V30 1257 H 114.019 7.4906 2.15706 0
M  V30 1258 N 118.248 0.346503 1.53744 0
M  V30 1259 C 119.473 -0.253074 2.0585 0
M  V30 1260 C 119.898 -1.43202 1.21962 0
M  V30 1261 O 119.256 -1.79783 0.234073 0
M  V30 1262 C 119.304 -0.643193 3.54817 0
M  V30 1263 O 118.408 -1.74286 3.73762 0
M  V30 1264 H 117.749 -0.0413583 0.662711 0
M  V30 1265 H 120.279 0.501574 1.98357 0
M  V30 1266 H 120.289 -0.919526 3.97503 0
M  V30 1267 H 118.964 0.218966 4.15323 0
M  V30 1268 H 117.541 -1.46356 3.42979 0
M  V30 1269 N 119.726 -1.57421 0.075193 0
M  V30 1270 C 121.142 -1.57099 -0.281444 0
M  V30 1271 C 121.342 -1.08486 -1.69803 0
M  V30 1272 O 120.398 -0.752279 -2.41033 0
M  V30 1273 C 121.711 -3.00571 -0.0880041 0
M  V30 1274 C 123.259 -3.12605 -0.157281 0
M  V30 1275 C 123.734 -4.57999 0.0079207 0
M  V30 1276 N 125.225 -4.63176 -0.0475725 0
M  V30 1277 C 125.96 -5.73373 0.0557876 0
M  V30 1278 N 125.456 -6.92473 0.21286 0
M  V30 1279 N 127.249 -5.621 -0.00152098 0
M  V30 1280 H 119.4 -1.87335 1.00098 0
M  V30 1281 H 121.663 -0.86377 0.390646 0
M  V30 1282 H 121.369 -3.40262 0.889629 0
M  V30 1283 H 121.243 -3.67754 -0.838875 0
M  V30 1284 H 123.63 -2.72798 -1.1254 0
M  V30 1285 H 123.711 -2.48053 0.62475 0
M  V30 1286 H 123.355 -4.98496 0.972824 0
M  V30 1287 H 123.285 -5.20586 -0.793556 0
M  V30 1288 H 125.776 -3.7753 -0.167244 0
M  V30 1289 H 126.089 -7.72279 0.283781 0
M  V30 1290 H 124.434 -6.94556 0.248267 0
M  V30 1291 H 127.625 -4.67938 -0.122958 0
M  V30 1292 H 127.798 -6.47948 0.0824844 0
M  V30 1293 N 121.204 0.198386 -1.56346 0
M  V30 1294 C 122.137 1.27381 -1.89339 0
M  V30 1295 C 123.115 1.44106 -0.753134 0
M  V30 1296 O 124.299 1.59549 -1.00381 0
M  V30 1297 C 121.426 2.6409 -2.12071 0
M  V30 1298 C 120.472 2.64253 -3.34772 0
M  V30 1299 S 121.305 2.16013 -4.89999 0
M  V30 1300 C 122.461 3.54553 -5.15794 0
M  V30 1301 H 122.694 0.992058 -2.8026 0
M  V30 1302 H 120.227 0.401726 -1.49082 0
M  V30 1303 H 122.185 3.42786 -2.2585 0
M  V30 1304 H 120.846 2.89478 -1.21906 0
M  V30 1305 H 120.039 3.64768 -3.47794 0
M  V30 1306 H 119.641 1.93637 -3.1997 0
M  V30 1307 H 121.933 4.50396 -5.06112 0
M  V30 1308 H 122.876 3.46428 -6.1757 0
M  V30 1309 H 123.284 3.49313 -4.43442 0
M  V30 1310 N 122.682 1.50554 0.465978 0
M  V30 1311 C 123.91 1.65563 1.24083 0
M  V30 1312 C 124.325 0.341051 1.85694 0
M  V30 1313 O 123.682 -0.677543 1.69457 0
M  V30 1314 C 123.733 2.75051 2.34583 0
M  V30 1315 O 123.454 4.01413 1.75497 0
M  V30 1316 C 124.955 3.01078 3.25372 0
M  V30 1317 H 122.175 0.55638 0.375077 0
M  V30 1318 H 124.719 1.96807 0.555624 0
M  V30 1319 H 122.874 2.46486 2.9887 0
M  V30 1320 H 123.288 4.62002 2.48303 0
M  V30 1321 H 124.762 3.81339 3.99105 0
M  V30 1322 H 125.239 2.12349 3.84453 0
M  V30 1323 H 125.845 3.31194 2.66816 0
M  V30 1324 N 124.16 -0.719506 1.40217 0
M  V30 1325 C 125.407 -1.47933 1.38283 0
M  V30 1326 C 125.735 -1.94493 -0.0161536 0
M  V30 1327 O 124.99 -1.68224 -0.999956 0
M  V30 1328 C 125.289 -2.72271 2.31524 0
M  V30 1329 C 124.955 -2.44496 3.78857 0
M  V30 1330 C 123.617 -2.36631 4.18998 0
M  V30 1331 C 125.969 -2.21104 4.71977 0
M  V30 1332 C 123.297 -2.03437 5.503 0
M  V30 1333 C 125.649 -1.89423 6.03574 0
M  V30 1334 C 124.313 -1.80038 6.42762 0
M  V30 1335 H 123.583 -0.541325 0.506012 0
M  V30 1336 H 126.23 -0.824502 1.72842 0
M  V30 1337 H 124.535 -3.42572 1.90137 0
M  V30 1338 H 126.232 -3.30348 2.27313 0
M  V30 1339 H 122.822 -2.51503 3.47051 0
M  V30 1340 H 127.006 -2.26139 4.41786 0
M  V30 1341 H 122.262 -1.94705 5.79569 0
M  V30 1342 H 126.436 -1.70336 6.75247 0
M  V30 1343 H 124.063 -1.54083 7.44421 0
M  V30 1344 N 125.638 -1.25649 -0.95132 0
M  V30 1345 C 126.885 -1.10594 -1.69633 0
M  V30 1346 C 127.213 0.352515 -1.91279 0
M  V30 1347 O 126.468 1.27601 -1.4838 0
M  V30 1348 C 126.767 -1.80909 -3.08231 0
M  V30 1349 C 126.433 -3.30825 -3.06375 0
M  V30 1350 C 125.095 -3.71722 -3.05576 0
M  V30 1351 C 127.447 -4.26589 -2.99452 0
M  V30 1352 C 124.775 -5.06788 -2.95606 0
M  V30 1353 C 127.127 -5.61683 -2.91024 0
M  V30 1354 C 125.791 -6.01904 -2.88562 0
M  V30 1355 H 125.061 -0.404691 -0.620731 0
M  V30 1356 H 127.708 -1.55964 -1.11119 0
M  V30 1357 H 126.013 -1.27979 -3.70309 0
M  V30 1358 H 127.71 -1.6671 -3.64704 0
M  V30 1359 H 124.3 -2.98287 -3.07771 0
M  V30 1360 H 128.484 -3.95982 -2.99185 0
M  V30 1361 H 123.74 -5.37126 -2.92071 0
M  V30 1362 H 127.914 -6.35578 -2.84629 0
M  V30 1363 H 125.541 -7.06521 -2.80593 0
M  V30 1364 N 127.117 1.15442 -1.07289 0
M  V30 1365 C 128.363 1.86489 -0.796846 0
M  V30 1366 C 128.696 1.82078 0.675371 0
M  V30 1367 O 127.971 1.24346 1.4956 0
M  V30 1368 C 128.254 3.35626 -1.30489 0
M  V30 1369 C 128.107 3.48673 -2.84161 0
M  V30 1370 C 129.426 4.30357 -0.920907 0
M  V30 1371 H 126.545 0.677144 -0.290939 0
M  V30 1372 H 129.187 1.35633 -1.33056 0
M  V30 1373 H 127.337 3.79068 -0.850883 0
M  V30 1374 H 129.009 3.14099 -3.37846 0
M  V30 1375 H 127.252 2.90253 -3.22391 0
M  V30 1376 H 127.923 4.53453 -3.14777 0
M  V30 1377 H 130.399 3.94871 -1.3121 0
M  V30 1378 H 129.275 5.33193 -1.30372 0
M  V30 1379 H 129.536 4.4176 0.173226 0
M  V30 1380 N 128.595 0.856903 1.32268 0
M  V30 1381 C 129.823 0.475439 2.01363 0
M  V30 1382 C 130.238 -0.928486 1.64392 0
M  V30 1383 O 129.595 -1.60624 0.866387 0
M  V30 1384 C 129.646 0.607545 3.56358 0
M  V30 1385 O 129.367 1.95617 3.92002 0
M  V30 1386 C 130.868 0.225382 4.42727 0
M  V30 1387 H 128.088 0.186636 0.644521 0
M  V30 1388 H 130.632 1.15446 1.68797 0
M  V30 1389 H 128.787 -0.0237719 3.87393 0
M  V30 1390 H 129.201 1.95455 4.86721 0
M  V30 1391 H 130.675 0.368813 5.50767 0
M  V30 1392 H 131.152 -0.834369 4.31202 0
M  V30 1393 H 131.758 0.831864 4.17085 0
M  V30 1394 N 130.073 -1.45103 0.615059 0
M  V30 1395 C 131.005 -2.28786 -0.13762 0
M  V30 1396 C 132.018 -1.40376 -0.824525 0
M  V30 1397 O 133.207 -1.64681 -0.688662 0
M  V30 1398 C 130.307 -3.16322 -1.21628 0
M  V30 1399 C 129.48 -4.33054 -0.615039 0
M  V30 1400 C 128.539 -5.01743 -1.58556 0
M  V30 1401 O 127.565 -5.58293 -1.10895 0
M  V30 1402 N 128.767 -5.01714 -2.91998 0
M  V30 1403 H 131.532 -2.94025 0.580483 0
M  V30 1404 H 129.093 -1.55373 0.45507 0
M  V30 1405 H 131.085 -3.59139 -1.86552 0
M  V30 1406 H 129.655 -2.52943 -1.83681 0
M  V30 1407 H 128.875 -3.93627 0.21245 0
M  V30 1408 H 130.163 -5.08431 -0.193704 0
M  V30 1409 H 129.561 -4.57075 -3.33316 0
M  V30 1410 H 128.118 -5.48371 -3.52325 0
M  V30 1411 N 131.551 -0.354651 -1.53558 0
M  V30 1412 C 132.481 0.489091 -2.2832 0
M  V30 1413 C 133.462 1.09324 -1.30316 0
M  V30 1414 O 134.647 1.11255 -1.59173 0
M  V30 1415 C 131.777 1.63456 -3.0643 0
M  V30 1416 C 130.731 1.1582 -4.12031 0
M  V30 1417 C 130.057 2.39305 -4.7816 0
M  V30 1418 C 131.357 0.250731 -5.21698 0
M  V30 1419 H 133.051 -0.134614 -2.99097 0
M  V30 1420 H 130.597 -0.0661826 -1.43848 0
M  V30 1421 H 132.55 2.23136 -3.57475 0
M  V30 1422 H 131.274 2.28533 -2.33325 0
M  V30 1423 H 129.933 0.584146 -3.61916 0
M  V30 1424 H 129.581 3.02814 -4.01637 0
M  V30 1425 H 129.281 2.08109 -5.49513 0
M  V30 1426 H 130.805 2.99691 -5.31994 0
M  V30 1427 H 132.219 0.754695 -5.68311 0
M  V30 1428 H 130.616 0.0301468 -6.00092 0
M  V30 1429 H 131.686 -0.710125 -4.79672 0
M  V30 1430 N 133.029 1.57378 -0.0835403 0
M  V30 1431 C 133.992 2.12252 0.864959 0
M  V30 1432 C 134.992 1.04916 1.21858 0
M  V30 1433 O 136.182 1.30853 1.14991 0
M  V30 1434 C 133.314 2.63358 2.16461 0
M  V30 1435 H 134.507 2.97371 0.388676 0
M  V30 1436 H 132.06 1.55423 0.165317 0
M  V30 1437 H 132.795 1.81727 2.686 0
M  V30 1438 H 132.58 3.41826 1.92087 0
M  V30 1439 H 134.07 3.05847 2.84337 0
M  V30 1440 N 134.507 -0.190092 1.56449 0
M  V30 1441 C 135.756 -0.907912 1.80111 0
M  V30 1442 C 136.069 -1.84214 0.657619 0
M  V30 1443 O 137.275 -2.60094 0.778663 0
M  V30 1444 C 135.731 -1.66485 3.19078 0
M  V30 1445 C 135.339 -0.7752 4.41242 0
M  V30 1446 C 137.083 -2.37201 3.52045 0
M  V30 1447 C 134.99 -1.53129 5.71231 0
M  V30 1448 H 133.92 -0.34276 0.671589 0
M  V30 1449 H 136.571 -0.161109 1.82791 0
M  V30 1450 H 134.953 -2.45572 3.10661 0
M  V30 1451 H 136.127 -0.0226298 4.60794 0
M  V30 1452 H 134.442 -0.178627 4.16017 0
M  V30 1453 H 137.039 -2.94329 4.46402 0
M  V30 1454 H 137.382 -3.11632 2.76028 0
M  V30 1455 H 137.915 -1.65075 3.61932 0
M  V30 1456 H 134.654 -0.82967 6.50228 0
M  V30 1457 H 134.174 -2.25767 5.55688 0
M  V30 1458 H 135.853 -2.08377 6.12526 0
M  V30 1459 N 135.985 -1.50799 -0.457987 0
M  V30 1460 C 137.213 -1.66218 -1.23203 0
M  V30 1461 C 137.628 -0.350894 -1.85511 0
M  V30 1462 O 136.985 0.668546 -1.69814 0
M  V30 1463 C 137.036 -2.76291 -2.33121 0
M  V30 1464 O 136.757 -4.02338 -1.73366 0
M  V30 1465 C 138.258 -3.028 -3.2377 0
M  V30 1466 H 135.478 -0.558361 -0.372121 0
M  V30 1467 H 138.022 -1.97099 -0.545179 0
M  V30 1468 H 136.177 -2.48068 -2.97558 0
M  V30 1469 H 136.591 -4.63312 -2.4585 0
M  V30 1470 H 138.065 -3.8345 -3.97077 0
M  V30 1471 H 138.542 -2.14385 -3.83322 0
M  V30 1472 H 139.148 -3.32604 -2.65056 0
M  V30 1473 N 137.463 0.71206 -1.40597 0
M  V30 1474 C 138.74 1.46536 -1.29563 0
M  V30 1475 C 139.12 2.10931 0.0844217 0
M  V30 1476 O 138.468 2.00418 1.0975 0
M  V30 1477 C 138.678 2.49821 -2.43701 0
M  V30 1478 C 140.026 3.15551 -2.841 0
M  V30 1479 O 141.05 2.60142 -2.4332 0
M  V30 1480 O 139.909 4.15867 -3.54566 0
M  V30 1481 H 137.003 0.651801 -0.509004 0
M  V30 1482 H 139.549 0.743935 -1.52524 0
M  V30 1483 H 138.321 2.00778 -3.35863 0
M  V30 1484 H 137.944 3.29495 -2.22528 0
M  V30 1485 N 138.941 1.26152 0.944643 0
M  V30 1486 C 140.166 1.14363 1.7302 0
M  V30 1487 C 140.591 -0.29772 1.85729 0
M  V30 1488 O 139.949 -1.2157 1.34501 0
M  V30 1489 C 139.997 1.81378 3.11664 0
M  V30 1490 O 139.101 1.10022 3.97453 0
M  V30 1491 H 138.442 0.398694 0.53098 0
M  V30 1492 H 140.972 1.66906 1.18337 0
M  V30 1493 H 140.982 1.88064 3.62072 0
M  V30 1494 H 139.657 2.86237 3.0173 0
M  V30 1495 H 138.234 1.11287 3.55907 0
M  V30 1496 N 140.419 -1.14872 1.07899 0
M  V30 1497 C 141.666 -1.85789 0.805532 0
M  V30 1498 C 141.994 -1.82649 -0.668561 0
M  V30 1499 O 141.249 -1.24858 -1.50695 0
M  V30 1500 C 141.548 -3.34223 1.26609 0
M  V30 1501 C 141.214 -3.57555 2.74709 0
M  V30 1502 C 139.876 -3.63631 3.1516 0
M  V30 1503 C 142.228 -3.66803 3.70277 0
M  V30 1504 C 139.556 -3.76473 4.49983 0
M  V30 1505 C 141.908 -3.8117 5.04869 0
M  V30 1506 C 140.572 -3.85494 5.44932 0
M  V30 1507 H 139.842 -0.679849 0.294765 0
M  V30 1508 H 142.489 -1.3572 1.35101 0
M  V30 1509 H 140.794 -3.86536 0.640103 0
M  V30 1510 H 142.491 -3.87511 1.03132 0
M  V30 1511 H 139.081 -3.5347 2.42398 0
M  V30 1512 H 143.265 -3.61404 3.40149 0
M  V30 1513 H 138.521 -3.7808 4.80484 0
M  V30 1514 H 142.695 -3.87268 5.78789 0
M  V30 1515 H 140.322 -3.95197 6.49403 0
M  V30 1516 N 141.898 -0.863906 -1.31812 0
M  V30 1517 C 143.126 -0.486111 -2.01108 0
M  V30 1518 C 143.541 0.919755 -1.64882 0
M  V30 1519 O 142.898 1.60162 -0.874893 0
M  V30 1520 C 142.949 -0.626435 -3.56031 0
M  V30 1521 O 142.67 -1.97693 -3.90959 0
M  V30 1522 C 144.171 -0.248857 -4.42601 0
M  V30 1523 H 141.391 -0.190052 -0.643523 0
M  V30 1524 H 143.935 -1.1634 -1.68182 0
M  V30 1525 H 142.09 0.00322717 -3.874 0
M  V30 1526 H 142.504 -1.98034 -4.85678 0
M  V30 1527 H 143.978 -0.398016 -5.50563 0
M  V30 1528 H 144.455 0.811489 -4.31638 0
M  V30 1529 H 145.061 -0.853971 -4.16638 0
M  V30 1530 N 143.376 1.44774 -0.622745 0
M  V30 1531 C 144.624 2.01721 -0.123655 0
M  V30 1532 C 144.945 1.49172 1.25589 0
M  V30 1533 O 144.215 0.691974 1.83272 0
M  V30 1534 H 142.795 0.745777 -0.0427225 0
M  V30 1535 H 145.457 1.77382 -0.807559 0
M  V30 1536 H 144.553 3.11984 -0.0849534 0
M  V30 1537 N 144.854 0.36279 1.53368 0
M  V30 1538 C 145.784 -0.476976 2.28576 0
M  V30 1539 C 146.765 -1.08631 1.30894 0
M  V30 1540 O 147.95 -1.10409 1.59761 0
M  V30 1541 C 145.08 -1.61828 3.07293 0
M  V30 1542 C 144.034 -1.13633 4.1264 0
M  V30 1543 C 143.36 -2.36766 4.79423 0
M  V30 1544 C 144.66 -0.223061 5.21823 0
M  V30 1545 H 146.354 0.150474 2.99022 0
M  V30 1546 H 143.9 0.0738103 1.43811 0
M  V30 1547 H 145.853 -2.21237 3.58653 0
M  V30 1548 H 144.577 -2.27292 2.34533 0
M  V30 1549 H 143.236 -0.564945 3.62221 0
M  V30 1550 H 142.884 -3.0068 4.03238 0
M  V30 1551 H 142.584 -2.05192 5.50609 0
M  V30 1552 H 144.108 -2.96865 5.33576 0
M  V30 1553 H 145.522 -0.724545 5.68703 0
M  V30 1554 H 143.919 0.001678 6.001 0
M  V30 1555 H 144.989 0.735553 4.79289 0
M  V30 1556 N 146.332 -1.57332 0.0918853 0
M  V30 1557 C 147.578 -1.94524 -0.573425 0
M  V30 1558 C 147.911 -0.973578 -1.68033 0
M  V30 1559 O 147.186 -0.00609226 -1.94499 0
M  V30 1560 C 147.469 -3.41858 -1.13161 0
M  V30 1561 C 147.322 -4.4979 -0.0299747 0
M  V30 1562 C 148.641 -3.90435 -2.03098 0
M  V30 1563 H 145.76 -0.70734 -0.206975 0
M  V30 1564 H 148.402 -1.89309 0.161942 0
M  V30 1565 H 146.552 -3.46433 -1.7583 0
M  V30 1566 H 148.224 -4.57327 0.604112 0
M  V30 1567 H 146.467 -4.291 0.636833 0
M  V30 1568 H 147.138 -5.50069 -0.461287 0
M  V30 1569 H 149.614 -3.87992 -1.50338 0
M  V30 1570 H 148.49 -4.94097 -2.39081 0
M  V30 1571 H 148.751 -3.29541 -2.94712 0
M  V30 1572 N 147.81 0.181792 -1.56548 0
M  V30 1573 C 148.758 1.24461 -1.965 0
M  V30 1574 C 149.752 1.464 -0.852261 0
M  V30 1575 O 150.958 1.47103 -1.03733 0
M  V30 1576 H 147.333 0.418138 -0.625031 0
M  V30 1577 H 149.304 0.880714 -2.85107 0
M  V30 1578 C 148.053 2.57891 -2.33212 0
M  V30 1579 H 147.376 2.41829 -3.18369 0
M  V30 1580 H 148.816 3.3097 -2.65019 0
M  V30 1581 C 147.275 3.15871 -1.17163 0
M  V30 1582 O 147.805 3.9913 -0.453708 0
M  V30 1583 N 146.011 2.74808 -0.944936 0
M  V30 1584 H 145.558 2.07205 -1.53049 0
M  V30 1585 H 145.516 3.13939 -0.170286 0
M  V30 1586 N 149.288 1.51039 0.449983 0
M  V30 1587 C 150.537 1.62317 1.19733 0
M  V30 1588 C 150.85 0.339101 1.92638 0
M  V30 1589 O 152.056 0.331069 2.69474 0
M  V30 1590 C 150.512 2.86608 2.17678 0
M  V30 1591 C 150.12 4.21972 1.50479 0
M  V30 1592 C 151.864 3.07239 2.92924 0
M  V30 1593 C 149.771 5.37426 2.46834 0
M  V30 1594 H 148.701 0.604532 0.450619 0
M  V30 1595 H 151.352 1.77494 0.465625 0
M  V30 1596 H 149.734 2.65037 2.94231 0
M  V30 1597 H 150.908 4.53878 0.795716 0
M  V30 1598 H 149.223 4.07117 0.874344 0
M  V30 1599 H 151.82 3.90668 3.65079 0
M  V30 1600 H 152.163 2.19807 3.5354 0
M  V30 1601 H 152.696 3.29091 2.23481 0
M  V30 1602 H 149.435 6.27079 1.90926 0
M  V30 1603 H 148.955 5.09912 3.15832 0
M  V30 1604 H 150.634 5.68862 3.08228 0
M  V30 1605 N 150.766 -0.704594 1.40972 0
M  V30 1606 C 151.696 -1.83124 1.44872 0
M  V30 1607 C 152.677 -1.67281 0.30838 0
M  V30 1608 O 153.862 -1.87149 0.518556 0
M  V30 1609 C 150.992 -3.21181 1.32136 0
M  V30 1610 C 149.946 -3.51714 2.43888 0
M  V30 1611 C 149.272 -4.89032 2.16222 0
M  V30 1612 C 150.572 -3.516 3.86232 0
M  V30 1613 H 152.266 -1.80117 2.39161 0
M  V30 1614 H 149.812 -0.865145 1.15114 0
M  V30 1615 H 151.765 -3.99702 1.33479 0
M  V30 1616 H 150.489 -3.24791 0.343279 0
M  V30 1617 H 149.148 -2.75539 2.41813 0
M  V30 1618 H 148.796 -4.89256 1.16778 0
M  V30 1619 H 148.496 -5.10426 2.911 0
M  V30 1620 H 150.02 -5.69873 2.19265 0
M  V30 1621 H 151.434 -4.2014 3.9007 0
M  V30 1622 H 149.831 -3.84523 4.60719 0
M  V30 1623 H 150.901 -2.50757 4.15029 0
M  V30 1624 N 152.244 -1.26651 -0.937939 0
M  V30 1625 C 153.472 -1.15173 -1.7188 0
M  V30 1626 C 153.887 0.292668 -1.86518 0
M  V30 1627 O 153.244 1.20014 -1.37488 0
M  V30 1628 C 153.295 -1.81925 -3.12387 0
M  V30 1629 O 153.016 -3.2072 -2.98446 0
M  V30 1630 C 154.517 -1.76442 -4.06673 0
M  V30 1631 H 151.737 -0.400911 -0.538063 0
M  V30 1632 H 154.281 -1.67332 -1.1756 0
M  V30 1633 H 152.436 -1.33696 -3.63599 0
M  V30 1634 H 152.85 -3.53802 -3.872 0
M  V30 1635 H 154.324 -2.27781 -5.02812 0
M  V30 1636 H 154.801 -0.731608 -4.33064 0
M  V30 1637 H 155.407 -2.24238 -3.61382 0
M  V30 1638 N 153.722 1.14298 -1.08507 0
M  V30 1639 C 154.999 1.81544 -0.728088 0
M  V30 1640 C 155.379 1.95838 0.78808 0
M  V30 1641 O 154.727 1.51904 1.70697 0
M  V30 1642 C 154.937 3.17169 -1.45619 0
M  V30 1643 C 156.285 3.9265 -1.61591 0
M  V30 1644 O 157.309 3.26762 -1.41793 0
M  V30 1645 O 156.168 5.10807 -1.94263 0
M  V30 1646 H 153.262 0.78491 -0.260471 0
M  V30 1647 H 155.808 1.21307 -1.18671 0
M  V30 1648 H 154.58 3.01934 -2.489 0
M  V30 1649 H 154.203 3.851 -0.989124 0
M  V30 1650 N 155.201 0.870884 1.31352 0
M  V30 1651 C 156.45 0.478408 1.95944 0
M  V30 1652 C 156.763 -0.974493 1.69597 0
M  V30 1653 O 157.969 -1.47316 2.28058 0
M  V30 1654 C 156.425 0.804609 3.50791 0
M  V30 1655 C 156.033 2.27433 3.85977 0
M  V30 1656 C 157.777 0.480648 4.2177 0
M  V30 1657 C 155.684 2.5429 5.33939 0
M  V30 1658 H 154.614 0.175175 0.733369 0
M  V30 1659 H 157.265 1.06391 1.4951 0
M  V30 1660 H 155.647 0.148347 3.95722 0
M  V30 1661 H 156.821 2.97373 3.52002 0
M  V30 1662 H 155.136 2.56442 3.28065 0
M  V30 1663 H 157.733 0.658519 5.30629 0
M  V30 1664 H 158.076 -0.578979 4.12254 0
M  V30 1665 H 158.609 1.09349 3.82476 0
M  V30 1666 H 155.348 3.58939 5.48491 0
M  V30 1667 H 154.868 1.88945 5.69263 0
M  V30 1668 H 156.547 2.39066 6.01212 0
M  V30 1669 N 156.679 -1.44442 0.630414 0
M  V30 1670 C 157.627 -2.32437 -0.0871428 0
M  V30 1671 C 158.621 -1.47304 -0.836525 0
M  V30 1672 O 159.827 -1.63653 -0.749506 0
M  V30 1673 H 156.202 -0.750533 -0.0469495 0
M  V30 1674 H 158.173 -2.90709 0.673096 0
M  V30 1675 C 156.922 -3.31288 -1.05563 0
M  V30 1676 H 156.245 -3.96805 -0.488426 0
M  V30 1677 H 157.685 -3.9554 -1.52721 0
M  V30 1678 C 156.144 -2.6016 -2.14052 0
M  V30 1679 O 156.674 -2.39997 -3.22124 0
M  V30 1680 N 154.88 -2.19911 -1.89967 0
M  V30 1681 H 154.427 -2.36509 -1.02085 0
M  V30 1682 H 154.385 -1.72646 -2.62756 0
M  V30 1683 N 158.157 -0.370918 -1.53173 0
M  V30 1684 C 159.403 0.209976 -2.02313 0
M  V30 1685 C 159.758 1.45987 -1.25322 0
M  V30 1686 O 159.051 1.8856 -0.339965 0
M  V30 1687 C 159.245 0.549696 -3.53147 0
M  V30 1688 C 159.074 -0.665721 -4.44745 0
M  V30 1689 C 157.844 -1.17942 -4.91343 0
M  V30 1690 C 160.042 -1.53255 -4.90935 0
M  V30 1691 N 158.024 -2.35431 -5.66962 0
M  V30 1692 C 159.395 -2.55403 -5.64951 0
M  V30 1693 C 161.45 -1.5548 -4.73002 0
M  V30 1694 C 160.153 -3.5964 -6.22938 0
M  V30 1695 C 162.179 -2.58613 -5.31858 0
M  V30 1696 C 161.541 -3.59485 -6.05764 0
M  V30 1697 H 157.64 0.0394095 -0.781006 0
M  V30 1698 H 160.224 -0.516666 -1.8772 0
M  V30 1699 H 158.395 1.24541 -3.67891 0
M  V30 1700 H 160.127 1.11614 -3.89004 0
M  V30 1701 H 156.882 -0.743228 -4.67732 0
M  V30 1702 H 157.306 -2.94827 -6.09431 0
M  V30 1703 H 161.948 -0.788457 -4.15383 0
M  V30 1704 H 159.666 -4.37153 -6.79649 0
M  V30 1705 H 163.252 -2.61195 -5.19873 0
M  V30 1706 H 162.132 -4.3798 -6.50495 0
M  V30 1707 N 159.635 1.57281 -0.100228 0
M  V30 1708 C 161.051 1.57527 0.256416 0
M  V30 1709 C 161.251 1.11173 1.68056 0
M  V30 1710 O 160.307 0.79053 2.39806 0
M  V30 1711 C 161.62 3.00673 0.0401747 0
M  V30 1712 C 163.168 3.12815 0.107528 0
M  V30 1713 C 163.643 4.57929 -0.0807834 0
M  V30 1714 N 165.134 4.63193 -0.0261207 0
M  V30 1715 C 165.869 5.73212 -0.146999 0
M  V30 1716 N 165.365 6.92047 -0.322999 0
M  V30 1717 N 167.158 5.62031 -0.0879044 0
M  V30 1718 H 159.309 1.85718 -1.03065 0
M  V30 1719 H 161.572 0.857446 -0.404339 0
M  V30 1720 H 161.278 3.38804 -0.943649 0
M  V30 1721 H 161.152 3.69042 0.780262 0
M  V30 1722 H 163.539 2.74554 1.08186 0
M  V30 1723 H 163.62 2.47028 -0.664134 0
M  V30 1724 H 163.264 4.96886 -1.05201 0
M  V30 1725 H 163.194 5.21783 0.710635 0
M  V30 1726 H 165.685 3.77748 0.107161 0
M  V30 1727 H 165.998 7.7173 -0.406608 0
M  V30 1728 H 164.343 6.94074 -0.358733 0
M  V30 1729 H 167.534 4.68075 0.048498 0
M  V30 1730 H 167.707 6.47734 -0.185557 0
M  V30 1731 N 161.113 -0.173488 1.56642 0
M  V30 1732 C 162.36 -0.890465 1.81871 0
M  V30 1733 C 162.688 -1.82339 0.67696 0
M  V30 1734 O 161.943 -1.92795 -0.335926 0
M  V30 1735 C 162.242 -1.72069 3.13252 0
M  V30 1736 C 161.908 -0.936878 4.41059 0
M  V30 1737 C 160.57 -0.720545 4.75775 0
M  V30 1738 C 162.922 -0.386919 5.19762 0
M  V30 1739 C 160.25 0.0568829 5.86672 0
M  V30 1740 C 162.602 0.37741 6.31473 0
M  V30 1741 C 161.266 0.604563 6.64757 0
M  V30 1742 H 160.536 -0.325844 0.665512 0
M  V30 1743 H 163.183 -0.155527 1.90867 0
M  V30 1744 H 161.488 -2.52496 2.99588 0
M  V30 1745 H 163.185 -2.27844 3.29982 0
M  V30 1746 H 159.775 -1.11553 4.13828 0
M  V30 1747 H 163.959 -0.541398 4.93338 0
M  V30 1748 H 159.215 0.242635 6.10918 0
M  V30 1749 H 163.389 0.810825 6.91664 0
M  V30 1750 H 161.016 1.20885 7.50527 0
M  V30 1751 N 162.591 -1.51276 -0.441967 0
M  V30 1752 C 163.819 -1.67516 -1.21434 0
M  V30 1753 C 164.234 -0.37055 -1.85128 0
M  V30 1754 O 163.591 0.650498 -1.70513 0
M  V30 1755 C 163.642 -2.78748 -2.30177 0
M  V30 1756 O 163.363 -4.04154 -1.69089 0
M  V30 1757 C 164.864 -3.06217 -3.20541 0
M  V30 1758 H 162.084 -0.562276 -0.366178 0
M  V30 1759 H 164.628 -1.97666 -0.524244 0
M  V30 1760 H 162.783 -2.5121 -2.94911 0
M  V30 1761 H 163.197 -4.65894 -2.40922 0
M  V30 1762 H 164.671 -3.8764 -3.92987 0
M  V30 1763 H 165.148 -2.18439 -3.81026 0
M  V30 1764 H 165.754 -3.35397 -2.61513 0
M  V30 1765 N 164.069 0.697108 -1.41344 0
M  V30 1766 C 165.317 1.45426 -1.40341 0
M  V30 1767 C 165.638 1.94996 -0.0128787 0
M  V30 1768 O 164.908 1.71599 0.945027 0
M  V30 1769 H 163.488 0.539594 -0.516573 0
M  V30 1770 H 166.15 0.825201 -1.76569 0
M  V30 1771 H 165.246 2.31817 -2.08967 0
M  V30 1772 N 165.547 1.27147 0.931209 0
M  V30 1773 C 166.824 1.0401 1.65654 0
M  V30 1774 C 167.204 -0.426297 2.06751 0
M  V30 1775 O 166.552 -1.40879 1.79904 0
M  V30 1776 C 166.762 1.99834 2.86125 0
M  V30 1777 C 168.11 2.29007 3.57549 0
M  V30 1778 O 169.134 1.97779 2.96246 0
M  V30 1779 O 167.993 2.82222 4.67989 0
M  V30 1780 H 165.087 0.396239 0.725895 0
M  V30 1781 H 167.633 1.38397 0.982056 0
M  V30 1782 H 166.405 2.98744 2.52721 0
M  V30 1783 H 166.028 1.65987 3.61295 0
M  V30 1784 N 167.025 -1.13721 1.09112 0
M  V30 1785 C 168.272 -1.84924 0.825192 0
M  V30 1786 C 168.6 -1.83347 -0.649151 0
M  V30 1787 O 167.855 -1.26449 -1.49362 0
M  V30 1788 C 168.154 -3.32861 1.30146 0
M  V30 1789 C 167.82 -3.54621 2.78486 0
M  V30 1790 C 166.482 -3.60268 3.18999 0
M  V30 1791 C 168.834 -3.62855 3.74146 0
M  V30 1792 C 166.162 -3.71679 4.53951 0
M  V30 1793 C 168.514 -3.75793 5.08883 0
M  V30 1794 C 167.178 -3.79692 5.4899 0
M  V30 1795 H 166.448 -0.676684 0.301959 0
M  V30 1796 H 169.095 -1.3428 1.36533 0
M  V30 1797 H 167.4 -3.85835 0.681064 0
M  V30 1798 H 169.097 -3.86395 1.07236 0
M  V30 1799 H 165.687 -3.50879 2.46134 0
M  V30 1800 H 169.871 -3.57775 3.43963 0
M  V30 1801 H 165.127 -3.72963 4.84467 0
M  V30 1802 H 169.301 -3.81107 5.82864 0
M  V30 1803 H 166.928 -3.88287 6.53558 0
M  V30 1804 N 168.503 -0.877838 -1.30888 0
M  V30 1805 C 169.731 -0.507414 -2.00581 0
M  V30 1806 C 170.146 0.902216 -1.65848 0
M  V30 1807 O 169.503 1.59225 -0.891831 0
M  V30 1808 C 169.554 -0.664162 -3.55347 0
M  V30 1809 O 169.275 -2.01829 -3.8884 0
M  V30 1810 C 170.776 -0.295787 -4.42312 0
M  V30 1811 H 167.996 -0.196866 -0.641471 0
M  V30 1812 H 170.54 -1.18117 -1.66939 0
M  V30 1813 H 168.695 -0.0378619 -3.87381 0
M  V30 1814 H 169.109 -2.03174 -4.8355 0
M  V30 1815 H 170.583 -0.456388 -5.5011 0
M  V30 1816 H 171.06 0.765663 -4.32475 0
M  V30 1817 H 171.666 -0.898113 -4.15709 0
M  V30 1818 N 169.982 1.44106 -0.638065 0
M  V30 1819 C 170.945 2.29138 0.0531013 0
M  V30 1820 C 171.945 1.41409 0.765506 0
M  V30 1821 O 173.135 1.63206 0.609046 0
M  V30 1822 C 170.267 3.23144 1.08584 0
M  V30 1823 H 171.46 2.91739 -0.694883 0
M  V30 1824 H 169.013 1.51134 -0.398538 0
M  V30 1825 H 169.748 2.65408 1.86357 0
M  V30 1826 H 169.533 3.87804 0.578852 0
M  V30 1827 H 171.023 3.87004 1.56899 0
M  V30 1828 N 171.46 0.379036 1.52974 0
M  V30 1829 C 172.871 -0.0972525 1.86447 0
M  V30 1830 C 173.222 -1.47027 1.29914 0
M  V30 1831 O 172.347 -2.07135 0.626433 0
M  V30 1832 C 172.942 -0.183248 3.38304 0
M  V30 1833 C 171.501 -0.603812 3.71525 0
M  V30 1834 C 170.648 0.240632 2.76254 0
M  V30 1835 H 173.599 0.597316 1.4703 0
M  V30 1836 H 173.62 -1.00432 3.67006 0
M  V30 1837 H 173.132 0.816191 3.79421 0
M  V30 1838 H 171.233 -1.61099 3.35973 0
M  V30 1839 H 171.346 -0.369086 4.77676 0
M  V30 1840 H 169.71 -0.292548 2.53014 0
M  V30 1841 H 170.493 1.23786 3.20206 0
M  V30 1842 N 172.938 -1.57226 0.108567 0
M  V30 1843 C 174.215 -1.86333 -0.594939 0
M  V30 1844 C 174.595 -1.00788 -1.85486 0
M  V30 1845 O 173.943 -0.0839293 -2.28346 0
M  V30 1846 C 174.153 -3.37265 -0.897405 0
M  V30 1847 C 175.501 -4.05629 -1.25501 0
M  V30 1848 O 176.525 -3.42224 -0.987998 0
M  V30 1849 O 175.384 -5.17531 -1.75567 0
M  V30 1850 H 172.478 -0.771018 -0.2991 0
M  V30 1851 H 175.024 -1.69102 0.142283 0
M  V30 1852 H 173.796 -3.913 -0.00413806 0
M  V30 1853 H 173.419 -3.59889 -1.69014 0
M  V30 1854 N 174.416 0.165178 -1.56732 0
M  V30 1855 C 175.346 1.20651 -1.99914 0
M  V30 1856 C 176.327 1.45827 -0.875705 0
M  V30 1857 O 177.512 1.57057 -1.14223 0
M  V30 1858 C 174.642 2.54401 -2.36427 0
M  V30 1859 C 173.596 2.43782 -3.51787 0
M  V30 1860 C 172.922 3.82078 -3.7406 0
M  V30 1861 C 174.222 1.93732 -4.85041 0
M  V30 1862 H 175.916 0.847534 -2.87154 0
M  V30 1863 H 173.462 0.40625 -1.38151 0
M  V30 1864 H 175.415 3.27458 -2.65234 0
M  V30 1865 H 174.139 2.92098 -1.46103 0
M  V30 1866 H 172.798 1.73178 -3.23117 0
M  V30 1867 H 172.446 4.17179 -2.81017 0
M  V30 1868 H 172.146 3.7584 -4.51684 0
M  V30 1869 H 173.67 4.56712 -4.05274 0
M  V30 1870 H 175.084 2.56569 -5.12684 0
M  V30 1871 H 173.481 1.98428 -5.66345 0
M  V30 1872 H 174.551 0.891962 -4.76626 0
M  V30 1873 N 175.894 1.51508 0.433938 0
M  V30 1874 C 177.14 1.64588 1.18484 0
M  V30 1875 C 177.473 0.362666 1.90784 0
M  V30 1876 O 176.748 -0.637892 1.83742 0
M  V30 1877 C 177.031 2.85149 2.19913 0
M  V30 1878 C 176.884 4.23456 1.51674 0
M  V30 1879 C 178.203 3.01227 3.20858 0
M  V30 1880 H 175.322 0.598994 0.429389 0
M  V30 1881 H 177.964 1.84002 0.473647 0
M  V30 1882 H 176.114 2.68729 2.80566 0
M  V30 1883 H 177.786 4.51552 0.943322 0
M  V30 1884 H 176.029 4.25998 0.819035 0
M  V30 1885 H 176.7 5.03812 2.2556 0
M  V30 1886 H 179.176 3.16382 2.70263 0
M  V30 1887 H 178.052 3.87141 3.89118 0
M  V30 1888 H 178.313 2.13447 3.8716 0
M  V30 1889 N 177.372 -0.689602 1.41712 0
M  V30 1890 C 178.612 -1.46184 1.42862 0
M  V30 1891 C 178.976 -1.91962 0.0382204 0
M  V30 1892 O 180.177 -2.68694 -0.0755019 0
M  V30 1893 C 178.448 -2.6371 2.4123 0
M  V30 1894 S 180.007 -3.52768 2.6096 0
M  V30 1895 H 176.825 -0.49947 0.506015 0
M  V30 1896 H 179.427 -0.804107 1.78198 0
M  V30 1897 H 178.131 -2.28293 3.41044 0
M  V30 1898 H 177.662 -3.3437 2.07269 0
M  V30 1899 H 179.677 -4.59146 1.88148 0
M  V30 1900 N 178.85 -1.27639 -0.924453 0
M  V30 1901 C 180.266 -1.05113 -1.20097 0
M  V30 1902 C 180.466 0.213262 -2.00368 0
M  V30 1903 O 179.522 0.91787 -2.35226 0
M  V30 1904 C 180.835 -2.29244 -1.94596 0
M  V30 1905 C 182.383 -2.34315 -2.07522 0
M  V30 1906 C 182.858 -3.58183 -2.85427 0
M  V30 1907 N 184.349 -3.5876 -2.92994 0
M  V30 1908 C 185.084 -4.51277 -3.53746 0
M  V30 1909 N 184.58 -5.54102 -4.15863 0
M  V30 1910 N 186.373 -4.38894 -3.51181 0
M  V30 1911 H 178.524 -2.08821 -0.388264 0
M  V30 1912 H 180.787 -0.918568 -0.234385 0
M  V30 1913 H 180.493 -3.21301 -1.43034 0
M  V30 1914 H 180.367 -2.34816 -2.95197 0
M  V30 1915 H 182.754 -1.42762 -2.58269 0
M  V30 1916 H 182.835 -2.32744 -1.06131 0
M  V30 1917 H 182.479 -4.50074 -2.35363 0
M  V30 1918 H 182.409 -3.57006 -3.8711 0
M  V30 1919 H 184.9 -2.84398 -2.4885 0
M  V30 1920 H 185.213 -6.20859 -4.60168 0
M  V30 1921 H 183.558 -5.57941 -4.144 0
M  V30 1922 H 186.749 -3.57772 -3.01856 0
M  V30 1923 H 186.922 -5.11186 -3.98237 0
M  V30 1924 N 180.328 1.1314 -1.09713 0
M  V30 1925 C 181.574 1.84757 -0.836224 0
M  V30 1926 C 181.907 1.8347 0.636598 0
M  V30 1927 O 181.182 1.27491 1.46889 0
M  V30 1928 C 181.465 3.32782 -1.37578 0
M  V30 1929 C 181.318 3.42567 -2.91493 0
M  V30 1930 C 182.637 4.28307 -1.01198 0
M  V30 1931 H 179.756 0.67082 -0.305236 0
M  V30 1932 H 182.398 1.3278 -1.35903 0
M  V30 1933 H 180.548 3.77177 -0.931097 0
M  V30 1934 H 182.22 3.06862 -3.44432 0
M  V30 1935 H 180.463 2.83349 -3.28475 0
M  V30 1936 H 181.134 4.46674 -3.24324 0
M  V30 1937 H 183.61 3.91999 -1.39556 0
M  V30 1938 H 182.486 5.30307 -1.41653 0
M  V30 1939 H 182.747 4.42029 0.0794833 0
M  V30 1940 N 181.806 0.884767 1.30421 0
M  V30 1941 C 183.052 0.503851 1.96441 0
M  V30 1942 C 183.385 -0.944518 1.69684 0
M  V30 1943 O 182.66 -1.66737 1.00145 0
M  V30 1944 C 182.943 0.779085 3.51571 0
M  V30 1945 C 182.796 2.27807 3.87846 0
M  V30 1946 C 184.115 0.255452 4.39358 0
M  V30 1947 H 181.234 0.184533 0.713524 0
M  V30 1948 H 183.876 1.10872 1.54297 0
M  V30 1949 H 182.026 0.264274 3.876 0
M  V30 1950 H 183.698 2.86127 3.61841 0
M  V30 1951 H 181.941 2.74479 3.35922 0
M  V30 1952 H 182.612 2.42125 4.96064 0
M  V30 1953 H 185.088 0.696079 4.10236 0
M  V30 1954 H 183.964 0.477361 5.4682 0
M  V30 1955 H 184.225 -0.843293 4.33983 0
M  V30 1956 N 183.284 -1.43765 0.645699 0
M  V30 1957 C 184.7 -1.56509 0.312591 0
M  V30 1958 C 184.9 -1.6307 -1.18365 0
M  V30 1959 O 183.956 -1.58167 -1.96824 0
M  V30 1960 C 185.269 -2.82968 1.01733 0
M  V30 1961 C 186.817 -2.96701 0.996865 0
M  V30 1962 C 187.292 -4.25982 1.68236 0
M  V30 1963 N 188.783 -4.32829 1.64964 0
M  V30 1964 C 189.518 -5.31613 2.14885 0
M  V30 1965 N 189.014 -6.36718 2.73061 0
M  V30 1966 N 190.807 -5.23217 2.05428 0
M  V30 1967 H 182.958 -1.3775 1.61675 0
M  V30 1968 H 185.221 -0.661067 0.679481 0
M  V30 1969 H 184.927 -2.84156 2.0724 0
M  V30 1970 H 184.801 -3.72957 0.564177 0
M  V30 1971 H 187.188 -2.95058 -0.0497719 0
M  V30 1972 H 187.269 -2.08022 1.48865 0
M  V30 1973 H 186.913 -4.28386 2.72852 0
M  V30 1974 H 186.843 -5.13545 1.16529 0
M  V30 1975 H 189.334 -3.57493 1.22503 0
M  V30 1976 H 189.647 -7.08401 3.08848 0
M  V30 1977 H 187.992 -6.37362 2.77118 0
M  V30 1978 H 191.183 -4.40019 1.59689 0
M  V30 1979 H 191.356 -6.00045 2.44643 0
M  V30 1980 N 184.763 -0.387143 -1.52771 0
M  V30 1981 C 185.993 0.195585 -2.05672 0
M  V30 1982 C 186.401 1.41241 -1.25887 0
M  V30 1983 O 185.744 1.81265 -0.298081 0
M  V30 1984 C 185.806 0.632327 -3.53895 0
M  V30 1985 C 185.47 -0.470739 -4.54569 0
M  V30 1986 C 186.467 -1.32746 -5.02667 0
M  V30 1987 C 184.152 -0.637151 -4.98243 0
M  V30 1988 C 186.146 -2.33574 -5.93061 0
M  V30 1989 C 183.833 -1.64877 -5.88438 0
M  V30 1990 C 184.831 -2.49649 -6.35739 0
M  V30 1991 O 184.519 -3.49082 -7.24153 0
M  V30 1992 H 184.251 0.033658 -0.675162 0
M  V30 1993 H 186.805 -0.550221 -1.97893 0
M  V30 1994 H 185.035 1.43008 -3.59285 0
M  V30 1995 H 186.724 1.14048 -3.89548 0
M  V30 1996 H 187.49 -1.21019 -4.69659 0
M  V30 1997 H 183.369 0.0129567 -4.60998 0
M  V30 1998 H 186.913 -2.99777 -6.29904 0
M  V30 1999 H 182.81 -1.76643 -6.2086 0
M  V30 2000 H 183.578 -3.45065 -7.42208 0
M  V30 2001 N 186.241 1.57166 -0.116904 0
M  V30 2002 C 187.171 2.18222 0.830759 0
M  V30 2003 C 188.152 1.12167 1.27877 0
M  V30 2004 O 189.337 1.40394 1.34176 0
M  V30 2005 C 186.467 2.77996 2.08172 0
M  V30 2006 C 185.421 3.89614 1.77157 0
M  V30 2007 C 184.747 4.36187 3.09265 0
M  V30 2008 C 186.047 5.1181 1.04151 0
M  V30 2009 H 187.741 2.97664 0.321992 0
M  V30 2010 H 185.287 1.4318 0.153434 0
M  V30 2011 H 187.24 3.19366 2.74924 0
M  V30 2012 H 185.964 1.9584 2.6137 0
M  V30 2013 H 184.623 3.48816 1.12796 0
M  V30 2014 H 184.271 3.50893 3.60393 0
M  V30 2015 H 183.971 5.11455 2.89288 0
M  V30 2016 H 185.495 4.80207 3.77139 0
M  V30 2017 H 186.909 5.50214 1.61052 0
M  V30 2018 H 185.306 5.92648 0.942762 0
M  V30 2019 H 186.376 4.84892 0.0279022 0
M  V30 2020 N 187.719 -0.156864 1.56817 0
M  V30 2021 C 188.651 -1.21883 1.94106 0
M  V30 2022 C 189.664 -1.3971 0.835754 0
M  V30 2023 O 190.853 -1.39457 1.11418 0
M  V30 2024 C 187.953 -2.58527 2.19127 0
M  V30 2025 C 187.126 -2.61809 3.50393 0
M  V30 2026 C 186.185 -3.7992 3.64071 0
M  V30 2027 O 185.211 -3.65249 4.36557 0
M  V30 2028 N 186.413 -4.96973 2.99997 0
M  V30 2029 H 189.178 -0.901974 2.85805 0
M  V30 2030 H 186.739 -0.346513 1.58148 0
M  V30 2031 H 188.731 -3.36034 2.25529 0
M  V30 2032 H 187.301 -2.82545 1.33742 0
M  V30 2033 H 186.521 -1.7029 3.5552 0
M  V30 2034 H 187.809 -2.61024 4.36742 0
M  V30 2035 H 187.207 -5.11794 2.41004 0
M  V30 2036 H 185.764 -5.7229 3.11974 0
M  V30 2037 N 189.197 -1.51736 -0.425897 0
M  V30 2038 C 190.443 -1.65214 -1.1761 0
M  V30 2039 C 190.776 -0.372778 -1.90589 0
M  V30 2040 O 190.051 0.628139 -1.84078 0
M  V30 2041 C 190.334 -2.86312 -2.18398 0
M  V30 2042 C 190.187 -4.24254 -1.49426 0
M  V30 2043 C 191.506 -3.02925 -3.19256 0
M  V30 2044 H 188.625 -0.601263 -0.426206 0
M  V30 2045 H 191.267 -1.8425 -0.463882 0
M  V30 2046 H 189.417 -2.70213 -2.79137 0
M  V30 2047 H 191.089 -4.52046 -0.919362 0
M  V30 2048 H 189.332 -4.26426 -0.796432 0
M  V30 2049 H 190.003 -5.05001 -2.22885 0
M  V30 2050 H 192.479 -3.1781 -2.68581 0
M  V30 2051 H 191.355 -3.89199 -3.8706 0
M  V30 2052 H 191.616 -2.15497 -3.86023 0
M  V30 2053 N 190.675 0.682077 -1.42076 0
M  V30 2054 C 191.921 1.44428 -1.42367 0
M  V30 2055 C 192.254 1.94164 -0.0373056 0
M  V30 2056 O 191.529 1.70429 0.937239 0
M  V30 2057 C 191.812 2.64654 -2.44194 0
M  V30 2058 C 191.665 2.20596 -3.91991 0
M  V30 2059 C 192.984 3.66865 -2.431 0
M  V30 2060 H 190.103 0.523834 -0.518428 0
M  V30 2061 H 192.745 0.77576 -1.73442 0
M  V30 2062 H 190.895 3.2169 -2.17826 0
M  V30 2063 H 192.567 1.68783 -4.29313 0
M  V30 2064 H 190.81 1.52242 -4.06208 0
M  V30 2065 H 191.481 3.06921 -4.58807 0
M  V30 2066 H 193.957 3.19531 -2.66532 0
M  V30 2067 H 192.833 4.48577 -3.16339 0
M  V30 2068 H 193.094 4.17493 -1.45437 0
M  V30 2069 N 192.153 1.28127 0.917671 0
M  V30 2070 C 193.083 1.14248 2.03641 0
M  V30 2071 C 194.064 0.0412748 1.7005 0
M  V30 2072 O 195.249 0.217566 1.92977 0
M  V30 2073 C 192.379 0.799431 3.37974 0
M  V30 2074 C 191.333 1.85497 3.85713 0
M  V30 2075 C 190.659 1.36565 5.16966 0
M  V30 2076 C 191.959 3.26085 4.08002 0
M  V30 2077 H 193.653 2.07835 2.15511 0
M  V30 2078 H 191.199 1.00064 1.03553 0
M  V30 2079 H 193.152 0.689114 4.15727 0
M  V30 2080 H 191.876 -0.172145 3.26146 0
M  V30 2081 H 190.535 1.95437 3.10161 0
M  V30 2082 H 190.183 0.383253 5.01538 0
M  V30 2083 H 189.883 2.07143 5.49878 0
M  V30 2084 H 191.407 1.26848 5.97279 0
M  V30 2085 H 192.821 3.19089 4.76293 0
M  V30 2086 H 191.218 3.94462 4.52238 0
M  V30 2087 H 192.288 3.70394 3.12948 0
M  V30 2088 N 193.631 -1.12557 1.10312 0
M  V30 2089 C 194.561 -2.20341 0.772798 0
M  V30 2090 C 195.542 -1.68198 -0.25365 0
M  V30 2091 O 196.727 -1.93831 -0.119699 0
M  V30 2092 C 193.857 -3.46709 0.202443 0
M  V30 2093 C 192.811 -4.11996 1.15943 0
M  V30 2094 C 192.137 -5.328 0.450345 0
M  V30 2095 C 193.437 -4.5828 2.50552 0
M  V30 2096 H 195.131 -2.48229 1.674 0
M  V30 2097 H 192.677 -1.19308 0.806326 0
M  V30 2098 H 194.63 -4.2138 -0.0407752 0
M  V30 2099 H 193.354 -3.18245 -0.734001 0
M  V30 2100 H 192.013 -3.39305 1.38808 0
M  V30 2101 H 191.661 -5.00602 -0.490531 0
M  V30 2102 H 191.361 -5.7743 1.08851 0
M  V30 2103 H 192.885 -6.10219 0.215642 0
M  V30 2104 H 194.299 -5.2433 2.31843 0
M  V30 2105 H 192.696 -5.13683 3.10242 0
M  V30 2106 H 193.766 -3.72329 3.10643 0
M  V30 2107 N 195.109 -0.891671 -1.2995 0
M  V30 2108 C 196.339 -0.527893 -1.99742 0
M  V30 2109 C 196.747 0.88979 -1.66971 0
M  V30 2110 O 196.09 1.59766 -0.906667 0
M  V30 2111 C 196.152 -0.630804 -3.53922 0
M  V30 2112 C 195.816 -2.01401 -4.10228 0
M  V30 2113 C 196.813 -2.98422 -4.25724 0
M  V30 2114 C 194.498 -2.32121 -4.45449 0
M  V30 2115 C 196.492 -4.24293 -4.75662 0
M  V30 2116 C 194.179 -3.58237 -4.95086 0
M  V30 2117 C 195.177 -4.54137 -5.10146 0
M  V30 2118 O 194.865 -5.78014 -5.58708 0
M  V30 2119 H 194.597 -0.201953 -0.645129 0
M  V30 2120 H 197.151 -1.20076 -1.66646 0
M  V30 2121 H 195.381 0.0990616 -3.86573 0
M  V30 2122 H 197.07 -0.277338 -4.04951 0
M  V30 2123 H 197.836 -2.76001 -3.98809 0
M  V30 2124 H 193.715 -1.5824 -4.32991 0
M  V30 2125 H 197.259 -4.99153 -4.87332 0
M  V30 2126 H 193.156 -3.80491 -5.21437 0
M  V30 2127 H 193.924 -5.8049 -5.77039 0
M  V30 2128 N 196.587 1.43421 -0.653314 0
M  V30 2129 C 197.55 2.29182 0.0287951 0
M  V30 2130 C 198.55 1.42213 0.750465 0
M  V30 2131 O 199.74 1.63843 0.591701 0
M  V30 2132 C 196.872 3.24278 1.05151 0
M  V30 2133 H 198.065 2.90985 -0.725786 0
M  V30 2134 H 195.618 1.50702 -0.414545 0
M  V30 2135 H 196.353 2.6737 1.83532 0
M  V30 2136 H 196.138 3.88396 0.537687 0
M  V30 2137 H 197.628 3.88647 1.52786 0
M  V30 2138 N 198.065 0.39524 1.52563 0
M  V30 2139 C 199.29 -0.187456 2.06551 0
M  V30 2140 C 199.715 -1.39249 1.26457 0
M  V30 2141 O 199.073 -1.78947 0.291151 0
M  V30 2142 C 199.121 -0.529985 3.56684 0
M  V30 2143 O 198.225 -1.62307 3.79118 0
M  V30 2144 H 197.566 -0.0202537 0.663691 0
M  V30 2145 H 200.096 0.564426 1.96661 0
M  V30 2146 H 200.106 -0.792598 4.00227 0
M  V30 2147 H 198.781 0.350987 4.14416 0
M  V30 2148 H 197.358 -1.3537 3.47461 0
M  V30 2149 N 199.544 -1.57102 0.125237 0
M  V30 2150 C 200.772 -1.99761 -0.538797 0
M  V30 2151 C 201.187 -1.00503 -1.59827 0
M  V30 2152 O 200.544 0.00119474 -1.825 0
M  V30 2153 C 200.595 -3.42408 -1.15927 0
M  V30 2154 O 200.316 -4.37869 -0.142143 0
M  V30 2155 C 201.817 -4.00232 -1.90602 0
M  V30 2156 H 199.037 -0.655772 -0.14214 0
M  V30 2157 H 201.581 -2.03383 0.213413 0
M  V30 2158 H 199.736 -3.39706 -1.86223 0
M  V30 2159 H 200.15 -5.21128 -0.593775 0
M  V30 2160 H 201.624 -5.02105 -2.29335 0
M  V30 2161 H 202.101 -3.39721 -2.78363 0
M  V30 2162 H 202.707 -4.06499 -1.25055 0
M  V30 2163 N 201.022 0.148545 -1.56898 0
M  V30 2164 C 202.252 0.875118 -1.8715 0
M  V30 2165 C 202.66 1.75322 -0.711262 0
M  V30 2166 O 202.003 1.80745 0.328151 0
M  V30 2167 C 202.065 1.7844 -3.12089 0
M  V30 2168 C 201.729 1.08361 -4.43967 0
M  V30 2169 C 202.726 0.438247 -5.1805 0
M  V30 2170 C 200.411 1.07358 -4.90693 0
M  V30 2171 C 202.405 -0.20779 -6.37061 0
M  V30 2172 C 200.092 0.42373 -6.09629 0
M  V30 2173 C 201.09 -0.215829 -6.82659 0
M  V30 2174 O 200.778 -0.855378 -7.99336 0
M  V30 2175 H 200.51 0.258504 -0.624621 0
M  V30 2176 H 203.064 0.14652 -2.04877 0
M  V30 2177 H 201.294 2.55389 -2.90367 0
M  V30 2178 H 202.983 2.38279 -3.286 0
M  V30 2179 H 203.749 0.437817 -4.8302 0
M  V30 2180 H 199.628 1.5608 -4.33774 0
M  V30 2181 H 203.172 -0.70758 -6.94002 0
M  V30 2182 H 199.069 0.421822 -6.4412 0
M  V30 2183 H 199.837 -0.756892 -8.14993 0
M  V30 2184 N 202.5 1.5196 0.417844 0
M  V30 2185 C 203.746 1.65836 1.16732 0
M  V30 2186 C 204.079 0.382881 1.90388 0
M  V30 2187 O 203.354 -0.618368 1.84408 0
M  V30 2188 C 203.637 2.87466 2.16876 0
M  V30 2189 C 203.49 4.25041 1.47174 0
M  V30 2190 C 204.809 3.04613 3.17646 0
M  V30 2191 H 201.928 0.603515 0.423011 0
M  V30 2192 H 204.57 1.84494 0.454105 0
M  V30 2193 H 202.72 2.71689 2.777 0
M  V30 2194 H 204.392 4.52527 0.895376 0
M  V30 2195 H 202.635 4.26843 0.773806 0
M  V30 2196 H 203.306 5.06176 2.20204 0
M  V30 2197 H 205.782 3.1923 2.66892 0
M  V30 2198 H 204.658 3.91247 3.8499 0
M  V30 2199 H 204.919 2.17541 3.84874 0
M  V30 2200 N 203.978 -0.674533 1.42435 0
M  V30 2201 C 204.908 -1.80009 1.48724 0
M  V30 2202 C 205.889 -1.6659 0.343793 0
M  V30 2203 O 207.074 -1.86007 0.558137 0
M  V30 2204 C 204.204 -3.18306 1.38919 0
M  V30 2205 C 203.158 -3.46461 2.51294 0
M  V30 2206 C 202.484 -4.84335 2.26547 0
M  V30 2207 C 203.784 -3.43328 3.93603 0
M  V30 2208 H 205.478 -1.75004 2.42928 0
M  V30 2209 H 203.024 -0.840533 1.16923 0
M  V30 2210 H 204.977 -3.9678 1.41927 0
M  V30 2211 H 203.701 -3.2399 0.412094 0
M  V30 2212 H 202.36 -2.70348 2.47604 0
M  V30 2213 H 202.008 -4.86669 1.2713 0
M  V30 2214 H 201.708 -5.04136 3.01861 0
M  V30 2215 H 203.232 -5.65094 2.31304 0
M  V30 2216 H 204.646 -4.11772 3.98894 0
M  V30 2217 H 203.043 -3.74664 4.68771 0
M  V30 2218 H 204.113 -2.41897 4.20255 0
M  V30 2219 N 205.456 -1.28612 -0.910864 0
M  V30 2220 C 206.702 -1.16106 -1.66274 0
M  V30 2221 C 207.035 0.289113 -1.92036 0
M  V30 2222 O 206.31 1.21 -1.52281 0
M  V30 2223 C 206.593 -1.96309 -3.01885 0
M  V30 2224 C 206.446 -3.49405 -2.8326 0
M  V30 2225 C 207.765 -1.78076 -4.02463 0
M  V30 2226 H 204.884 -0.423152 -0.603417 0
M  V30 2227 H 207.526 -1.57961 -1.05586 0
M  V30 2228 H 205.676 -1.60742 -3.53687 0
M  V30 2229 H 207.348 -3.94894 -2.38446 0
M  V30 2230 H 205.591 -3.74893 -2.18261 0
M  V30 2231 H 206.262 -4.00784 -3.79574 0
M  V30 2232 H 208.738 -2.0912 -3.59733 0
M  V30 2233 H 207.614 -2.36561 -4.95308 0
M  V30 2234 H 207.875 -0.733008 -4.35981 0
M  V30 2235 N 206.934 1.1197 -1.10907 0
M  V30 2236 C 208.159 1.87942 -0.877064 0
M  V30 2237 C 208.584 1.79341 0.567314 0
M  V30 2238 O 207.942 1.15184 1.40009 0
M  V30 2239 C 207.99 3.34926 -1.33629 0
M  V30 2240 O 207.094 4.09303 -0.504447 0
M  V30 2241 H 206.435 0.583785 -0.316371 0
M  V30 2242 H 208.965 1.4157 -1.47712 0
M  V30 2243 H 208.975 3.8577 -1.32837 0
M  V30 2244 H 207.65 3.40504 -2.3881 0
M  V30 2245 H 206.227 3.68393 -0.577993 0
M  V30 2246 N 208.412 0.89855 1.29475 0
M  V30 2247 C 209.342 0.39201 2.30186 0
M  V30 2248 C 210.323 -0.532359 1.61555 0
M  V30 2249 O 211.508 -0.443331 1.89072 0
M  V30 2250 C 208.638 -0.382353 3.45189 0
M  V30 2251 C 207.592 0.451483 4.25612 0
M  V30 2252 C 206.918 -0.450307 5.328 0
M  V30 2253 C 208.218 1.70079 4.93832 0
M  V30 2254 H 209.912 1.23362 2.72804 0
M  V30 2255 H 207.458 0.594638 1.31149 0
M  V30 2256 H 209.411 -0.747451 4.14718 0
M  V30 2257 H 208.135 -1.25774 3.01411 0
M  V30 2258 H 206.794 0.798897 3.57789 0
M  V30 2259 H 206.442 -1.32379 4.85268 0
M  V30 2260 H 206.142 0.103902 5.87508 0
M  V30 2261 H 207.666 -0.811623 6.05182 0
M  V30 2262 H 209.08 1.40549 5.55805 0
M  V30 2263 H 207.477 2.19623 5.58467 0
M  V30 2264 H 208.547 2.43744 4.19186 0
M  V30 2265 N 209.89 -1.43072 0.660911 0
M  V30 2266 C 211.115 -2.06584 0.183805 0
M  V30 2267 C 211.54 -1.49257 -1.14472 0
M  V30 2268 O 210.898 -0.605528 -1.70889 0
M  V30 2269 C 210.946 -3.60418 0.114434 0
M  V30 2270 O 210.05 -4.01981 -0.921137 0
M  V30 2271 H 209.391 -0.656669 0.0983994 0
M  V30 2272 H 211.921 -1.83447 0.906006 0
M  V30 2273 H 211.931 -4.07946 -0.0663394 0
M  V30 2274 H 210.606 -4.01519 1.08422 0
M  V30 2275 H 209.183 -3.66029 -0.71253 0
M  V30 2276 N 211.368 -0.403325 -1.52352 0
M  V30 2277 C 212.617 0.175668 -2.00934 0
M  V30 2278 C 212.93 1.46718 -1.29356 0
M  V30 2279 O 214.136 2.12708 -1.68724 0
M  V30 2280 C 212.592 0.363612 -3.58058 0
M  V30 2281 C 212.2 -0.915472 -4.38547 0
M  V30 2282 C 213.944 0.89821 -4.14888 0
M  V30 2283 C 211.851 -0.695035 -5.87302 0
M  V30 2284 H 210.781 0.0694234 -0.750797 0
M  V30 2285 H 213.432 -0.527879 -1.75743 0
M  V30 2286 H 211.814 1.12935 -3.79555 0
M  V30 2287 H 212.988 -1.68691 -4.28812 0
M  V30 2288 H 211.303 -1.37606 -3.93006 0
M  V30 2289 H 213.9 1.07907 -5.23699 0
M  V30 2290 H 214.243 1.87126 -3.71873 0
M  V30 2291 H 214.776 0.191681 -3.97338 0
M  V30 2292 H 211.515 -1.63948 -6.34666 0
M  V30 2293 H 211.035 0.0372116 -5.99788 0
M  V30 2294 H 212.714 -0.33497 -6.46132 0
M  V30 2295 N 212.846 1.57033 -0.133567 0
M  V30 2296 C 214.123 1.87256 0.56522 0
M  V30 2297 C 214.503 1.03726 1.83859 0
M  V30 2298 O 213.851 0.120247 2.28183 0
M  V30 2299 C 214.061 3.3865 0.843636 0
M  V30 2300 C 215.409 4.07574 1.19032 0
M  V30 2301 O 216.433 3.43752 0.933429 0
M  V30 2302 O 215.292 5.20259 1.67312 0
M  V30 2303 H 212.386 0.775678 0.286796 0
M  V30 2304 H 214.932 1.68855 -0.169168 0
M  V30 2305 H 213.704 3.91257 -0.0581149 0
M  V30 2306 H 213.327 3.62532 1.63268 0
M  V30 2307 N 214.325 -0.140222 1.56975 0
M  V30 2308 C 215.741 -0.493088 1.51792 0
M  V30 2309 C 215.941 -1.83013 0.843116 0
M  V30 2310 O 214.997 -2.49041 0.416493 0
M  V30 2311 C 216.31 -0.497144 2.96562 0
M  V30 2312 C 217.858 -0.582186 3.07538 0
M  V30 2313 C 218.333 -0.616838 4.53827 0
M  V30 2314 N 219.824 -0.678873 4.58198 0
M  V30 2315 C 220.559 -0.726782 5.68775 0
M  V30 2316 N 220.055 -0.733623 6.88905 0
M  V30 2317 N 221.848 -0.768179 5.56826 0
M  V30 2318 H 213.999 0.736108 1.99237 0
M  V30 2319 H 216.262 0.269182 0.90898 0
M  V30 2320 H 215.968 0.417217 3.49217 0
M  V30 2321 H 215.842 -1.33263 3.52875 0
M  V30 2322 H 218.229 -1.48697 2.54899 0
M  V30 2323 H 218.31 0.280581 2.54257 0
M  V30 2324 H 217.954 0.283812 5.07106 0
M  V30 2325 H 217.884 -1.49619 5.04898 0
M  V30 2326 H 220.375 -0.68061 3.7172 0
M  V30 2327 H 220.688 -0.772215 7.68932 0
M  V30 2328 H 219.033 -0.701389 6.91452 0
M  V30 2329 H 222.224 -0.760051 4.61888 0
M  V30 2330 H 222.397 -0.80205 6.43017 0
M  V30 2331 N 215.803 -1.52179 -0.40978 0
M  V30 2332 C 217.033 -1.69807 -1.17682 0
M  V30 2333 C 217.441 -0.406908 -1.84773 0
M  V30 2334 O 216.784 0.626863 -1.72673 0
M  V30 2335 C 216.846 -2.77712 -2.2829 0
M  V30 2336 C 216.51 -4.19481 -1.81341 0
M  V30 2337 C 217.507 -5.03345 -1.30154 0
M  V30 2338 C 215.192 -4.65713 -1.88194 0
M  V30 2339 C 217.186 -6.31511 -0.864416 0
M  V30 2340 C 214.873 -5.93869 -1.44093 0
M  V30 2341 C 215.871 -6.76597 -0.933023 0
M  V30 2342 O 215.559 -8.02354 -0.49838 0
M  V30 2343 H 215.291 -0.572372 -0.359675 0
M  V30 2344 H 217.845 -1.99511 -0.488311 0
M  V30 2345 H 216.075 -2.43383 -3.00502 0
M  V30 2346 H 217.764 -2.83946 -2.90051 0
M  V30 2347 H 218.53 -4.68819 -1.24232 0
M  V30 2348 H 214.409 -4.01424 -2.26671 0
M  V30 2349 H 217.953 -6.96033 -0.467286 0
M  V30 2350 H 213.85 -6.27903 -1.49694 0
M  V30 2351 H 214.618 -8.16135 -0.621747 0
M  V30 2352 N 217.281 0.66697 -1.42791 0
M  V30 2353 C 218.231 1.77313 -1.43332 0
M  V30 2354 C 219.215 1.5801 -0.303586 0
M  V30 2355 O 220.407 1.68356 -0.546385 0
M  V30 2356 C 217.536 3.15822 -1.34578 0
M  V30 2357 C 216.622 3.40721 -2.52528 0
M  V30 2358 N 217.013 3.36162 -3.77927 0
M  V30 2359 C 215.311 3.71387 -2.46956 0
M  V30 2360 C 216.012 3.60762 -4.56318 0
M  V30 2361 N 214.988 3.81908 -3.86843 0
M  V30 2362 H 218.79 1.72193 -2.38174 0
M  V30 2363 H 216.304 0.868114 -1.3725 0
M  V30 2364 H 218.301 3.951 -1.33048 0
M  V30 2365 H 216.961 3.22133 -0.407453 0
M  V30 2366 H 217.972 3.15885 -4.10411 0
M  V30 2367 H 214.649 3.84897 -1.61743 0
M  V30 2368 H 216.039 3.63132 -5.65318 0
M  V30 2369 N 218.759 1.29093 0.90403 0
M  V30 2370 C 219.722 1.1386 1.98919 0
M  V30 2371 C 220.722 0.0753457 1.60623 0
M  V30 2372 O 221.912 0.321931 1.71199 0
M  V30 2373 C 219.044 0.740198 3.32767 0
M  V30 2374 H 220.237 2.10246 2.13861 0
M  V30 2375 H 217.79 1.12218 1.08797 0
M  V30 2376 H 218.525 -0.223997 3.23525 0
M  V30 2377 H 218.31 1.50838 3.61926 0
M  V30 2378 H 219.8 0.656546 4.12407 0
M  V30 2379 N 220.237 -1.11381 1.11499 0
M  V30 2380 C 221.486 -1.82494 0.858993 0
M  V30 2381 C 221.799 -1.85605 -0.617278 0
M  V30 2382 O 223.005 -2.52824 -0.989552 0
M  V30 2383 C 221.461 -3.27745 1.48699 0
M  V30 2384 C 221.069 -3.32961 2.99735 0
M  V30 2385 C 222.813 -4.03754 1.31085 0
M  V30 2386 C 220.72 -4.72612 3.55516 0
M  V30 2387 H 219.65 -0.683802 0.317696 0
M  V30 2388 H 222.301 -1.25331 1.34031 0
M  V30 2389 H 220.683 -3.84844 0.933339 0
M  V30 2390 H 221.857 -2.85741 3.61509 0
M  V30 2391 H 220.172 -2.70433 3.16631 0
M  V30 2392 H 222.769 -5.06891 1.70192 0
M  V30 2393 H 223.112 -4.15527 0.253496 0
M  V30 2394 H 223.645 -3.53043 1.83318 0
M  V30 2395 H 220.384 -4.66036 4.60967 0
M  V30 2396 H 219.904 -5.2024 2.98513 0
M  V30 2397 H 221.583 -5.4157 3.53992 0
M  V30 2398 N 221.715 -0.905404 -1.28997 0
M  V30 2399 C 222.961 -0.535039 -1.95615 0
M  V30 2400 C 223.294 0.917404 -1.71165 0
M  V30 2401 O 222.569 1.65123 -1.02785 0
M  V30 2402 C 222.852 -0.834918 -3.50287 0
M  V30 2403 C 222.705 -2.33948 -3.84172 0
M  V30 2404 C 224.024 -0.325318 -4.38896 0
M  V30 2405 H 221.143 -0.195861 -0.710498 0
M  V30 2406 H 223.785 -1.13313 -1.52513 0
M  V30 2407 H 221.935 -0.325904 -3.87131 0
M  V30 2408 H 223.607 -2.91847 -3.57243 0
M  V30 2409 H 221.85 -2.79789 -3.31513 0
M  V30 2410 H 222.521 -2.49987 -4.92149 0
M  V30 2411 H 224.997 -0.761256 -4.09077 0
M  V30 2412 H 223.873 -0.564295 -5.45992 0
M  V30 2413 H 224.134 0.774144 -4.35269 0
M  V30 2414 N 223.193 1.4272 -0.668489 0
M  V30 2415 C 224.423 2.05668 -0.196063 0
M  V30 2416 C 224.831 1.5028 1.14946 0
M  V30 2417 O 224.174 0.6348 1.72383 0
M  V30 2418 C 224.236 3.59469 -0.0468879 0
M  V30 2419 C 223.9 4.37518 -1.32012 0
M  V30 2420 C 224.897 4.68584 -2.25222 0
M  V30 2421 C 222.582 4.77266 -1.56596 0
M  V30 2422 C 224.576 5.38326 -3.41297 0
M  V30 2423 C 222.263 5.4675 -2.72962 0
M  V30 2424 C 223.261 5.77204 -3.65137 0
M  V30 2425 O 222.949 6.45264 -4.79468 0
M  V30 2426 H 222.681 0.669382 -0.0943599 0
M  V30 2427 H 225.235 1.83954 -0.913788 0
M  V30 2428 H 223.465 3.79817 0.726357 0
M  V30 2429 H 225.154 4.04071 0.384852 0
M  V30 2430 H 225.92 4.38382 -2.07477 0
M  V30 2431 H 221.799 4.52959 -0.857249 0
M  V30 2432 H 225.343 5.62014 -4.13263 0
M  V30 2433 H 221.24 5.76369 -2.90635 0
M  V30 2434 H 222.008 6.63753 -4.78931 0
M  V30 2435 N 224.671 0.411399 1.52136 0
M  V30 2436 C 226.082 -0.0576826 1.86611 0
M  V30 2437 C 226.433 -1.44238 1.33003 0
M  V30 2438 O 225.558 -2.05759 0.670228 0
M  V30 2439 C 226.153 -0.111448 3.38617 0
M  V30 2440 C 224.712 -0.52487 3.72723 0
M  V30 2441 C 223.859 0.299176 2.75681 0
M  V30 2442 H 226.81 0.628368 1.4573 0
M  V30 2443 H 226.831 -0.926252 3.69054 0
M  V30 2444 H 226.343 0.896488 3.77604 0
M  V30 2445 H 224.444 -1.53936 3.39315 0
M  V30 2446 H 224.557 -0.267681 4.78352 0
M  V30 2447 H 222.921 -0.238814 2.53578 0
M  V30 2448 H 223.704 1.3055 3.17508 0
M  V30 2449 N 226.149 -1.5696 0.141893 0
M  V30 2450 C 227.082 -2.12271 -0.837627 0
M  V30 2451 C 228.06 -1.04495 -1.24578 0
M  V30 2452 O 229.244 -1.32293 -1.34278 0
M  V30 2453 C 226.371 -2.63822 -2.12404 0
M  V30 2454 C 225.417 -3.83698 -1.86221 0
M  V30 2455 S 226.25 -5.24948 -1.05781 0
M  V30 2456 C 227.406 -5.79884 -2.35552 0
M  V30 2457 H 227.639 -2.95023 -0.367249 0
M  V30 2458 H 225.172 -1.54231 -0.0723014 0
M  V30 2459 H 227.13 -2.94175 -2.86307 0
M  V30 2460 H 225.791 -1.8121 -2.56557 0
M  V30 2461 H 224.984 -4.17995 -2.81596 0
M  V30 2462 H 224.586 -3.5408 -1.20429 0
M  V30 2463 H 226.878 -5.91005 -3.31239 0
M  V30 2464 H 227.821 -6.77544 -2.05767 0
M  V30 2465 H 228.229 -5.08095 -2.45967 0
M  V30 2466 N 227.627 0.131896 -1.57047 0
M  V30 2467 C 228.574 1.16236 -1.99393 0
M  V30 2468 C 229.544 1.41863 -0.863943 0
M  V30 2469 O 230.729 1.53946 -1.12718 0
M  V30 2470 C 227.869 2.48708 -2.39245 0
M  V30 2471 C 226.982 2.30127 -3.65603 0
M  V30 2472 C 226.117 3.55738 -3.94492 0
M  V30 2473 C 225.156 3.32259 -5.14073 0
M  V30 2474 N 224.293 4.50039 -5.38896 0
M  V30 2475 H 229.133 0.794251 -2.87221 0
M  V30 2476 H 226.67 0.380707 -1.42088 0
M  V30 2477 H 228.628 3.25969 -2.60384 0
M  V30 2478 H 227.258 2.83437 -1.54478 0
M  V30 2479 H 226.31 1.43845 -3.52154 0
M  V30 2480 H 227.622 2.08746 -4.5302 0
M  V30 2481 H 226.776 4.41423 -4.1621 0
M  V30 2482 H 225.515 3.80138 -3.05526 0
M  V30 2483 H 224.52 2.44963 -4.92212 0
M  V30 2484 H 225.745 3.09242 -6.04604 0
M  V30 2485 H 223.691 4.74584 -4.52886 0
M  V30 2486 H 223.608 4.31716 -6.2061 0
M  V30 2487 H 224.876 5.36895 -5.65123 0
M  V30 2488 N 229.106 1.52395 0.401703 0
M  V30 2489 C 230.353 1.66817 1.14796 0
M  V30 2490 C 230.681 0.401772 1.90305 0
M  V30 2491 O 229.936 -0.615487 1.85769 0
M  V30 2492 C 230.235 2.84578 2.16217 0
M  V30 2493 C 229.901 4.22513 1.5746 0
M  V30 2494 C 228.563 4.60029 1.41161 0
M  V30 2495 C 230.915 5.0844 1.14622 0
M  V30 2496 C 228.243 5.81144 0.80552 0
M  V30 2497 C 230.595 6.30167 0.55428 0
M  V30 2498 C 229.259 6.66426 0.378482 0
M  V30 2499 H 228.529 0.610428 0.420069 0
M  V30 2500 H 231.176 1.86512 0.434212 0
M  V30 2501 H 229.481 2.59248 2.93764 0
M  V30 2502 H 231.178 2.92933 2.73845 0
M  V30 2503 H 227.768 3.92953 1.71132 0
M  V30 2504 H 231.952 4.80034 1.26021 0
M  V30 2505 H 227.208 6.07855 0.657399 0
M  V30 2506 H 231.382 6.96071 0.213983 0
M  V30 2507 H 229.009 7.60143 -0.0932606 0
M  V30 2508 N 230.584 -0.659388 1.43143 0
M  V30 2509 C 231.514 -1.78422 1.50625 0
M  V30 2510 C 232.495 -1.66216 0.361443 0
M  V30 2511 O 233.68 -1.85404 0.577834 0
M  V30 2512 C 230.81 -3.16815 1.42287 0
M  V30 2513 C 229.764 -3.43777 2.54954 0
M  V30 2514 C 229.09 -4.81905 2.31671 0
M  V30 2515 C 230.39 -3.39134 3.97222 0
M  V30 2516 H 232.084 -1.72417 2.44771 0
M  V30 2517 H 229.63 -0.828084 1.17808 0
M  V30 2518 H 231.583 -3.95253 1.46127 0
M  V30 2519 H 230.307 -3.23534 0.446435 0
M  V30 2520 H 228.966 -2.67707 2.50457 0
M  V30 2521 H 228.614 -4.85294 1.32284 0
M  V30 2522 H 228.314 -5.00906 3.07192 0
M  V30 2523 H 229.838 -5.62609 2.37284 0
M  V30 2524 H 231.252 -4.07518 4.03239 0
M  V30 2525 H 229.649 -3.69671 4.72719 0
M  V30 2526 H 230.719 -2.37426 4.22797 0
M  V30 2527 N 232.062 -1.29571 -0.897171 0
M  V30 2528 C 232.994 -1.10724 -2.00681 0
M  V30 2529 C 234.007 -0.0540026 -1.6271 0
M  V30 2530 O 235.196 -0.298783 -1.75982 0
M  V30 2531 C 232.296 -0.663912 -3.32333 0
M  V30 2532 C 231.469 -1.79622 -3.98816 0
M  V30 2533 C 230.528 -1.34349 -5.0876 0
M  V30 2534 O 229.554 -2.04864 -5.31055 0
M  V30 2535 N 230.756 -0.215764 -5.80099 0
M  V30 2536 H 233.521 -2.06291 -2.17403 0
M  V30 2537 H 231.082 -1.21544 -1.06951 0
M  V30 2538 H 233.074 -0.344295 -4.03233 0
M  V30 2539 H 231.644 0.199375 -3.11964 0
M  V30 2540 H 230.864 -2.28459 -3.21248 0
M  V30 2541 H 232.152 -2.55535 -4.39976 0
M  V30 2542 H 231.55 0.372091 -5.64475 0
M  V30 2543 H 230.107 0.0444707 -6.51785 0
M  V30 2544 N 233.54 1.10788 -1.12088 0
M  V30 2545 C 234.788 1.8231 -0.872205 0
M  V30 2546 C 235.109 1.85419 0.603709 0
M  V30 2547 O 234.379 1.32963 1.43867 0
M  V30 2548 H 232.959 0.675137 -0.319686 0
M  V30 2549 H 235.621 1.34068 -1.41463 0
M  V30 2550 H 234.717 2.85955 -1.25045 0
M  V30 2551 N 235.018 0.912232 1.28515 0
M  V30 2552 C 235.928 0.404506 2.31086 0
M  V30 2553 C 236.944 -0.50707 1.66448 0
M  V30 2554 O 238.12 -0.393624 1.97516 0
M  V30 2555 C 235.185 -0.348572 3.44943 0
M  V30 2556 C 234.246 0.59604 4.25142 0
M  V30 2557 C 233.479 -0.121194 5.33562 0
M  V30 2558 O 233.702 -1.34317 5.5436 0
M  V30 2559 O 232.636 0.542716 5.99448 0
M  V30 2560 H 236.462 1.25579 2.76521 0
M  V30 2561 H 234.047 0.676998 1.33181 0
M  V30 2562 H 235.929 -0.77395 4.14232 0
M  V30 2563 H 234.604 -1.17571 3.01594 0
M  V30 2564 H 233.511 1.07079 3.58448 0
M  V30 2565 H 234.844 1.38995 4.72167 0
M  V30 2566 N 236.496 -1.42363 0.676048 0
M  V30 2567 C 237.443 -2.308 -0.00150904 0
M  V30 2568 C 238.413 -1.46032 -0.791444 0
M  V30 2569 O 239.598 -1.74861 -0.76344 0
M  V30 2570 C 236.738 -3.31883 -0.945919 0
M  V30 2571 C 235.851 -4.31741 -0.149675 0
M  V30 2572 C 234.986 -5.19898 -1.08995 0
M  V30 2573 C 234.025 -6.11434 -0.285465 0
M  V30 2574 N 233.162 -6.92138 -1.17851 0
M  V30 2575 H 238.002 -2.88187 0.758455 0
M  V30 2576 H 235.539 -1.41952 0.38576 0
M  V30 2577 H 237.497 -3.89019 -1.50731 0
M  V30 2578 H 236.127 -2.76093 -1.6725 0
M  V30 2579 H 235.179 -3.76713 0.528359 0
M  V30 2580 H 236.491 -4.96534 0.474866 0
M  V30 2581 H 235.645 -5.81772 -1.72123 0
M  V30 2582 H 234.384 -4.55284 -1.74837 0
M  V30 2583 H 233.389 -5.48627 0.359018 0
M  V30 2584 H 234.614 -6.78097 0.368883 0
M  V30 2585 H 232.56 -6.30152 -1.82332 0
M  V30 2586 H 232.477 -7.53542 -0.609082 0
M  V30 2587 H 233.745 -7.58499 -1.79722 0
M  V30 2588 N 237.974 -0.419461 -1.51915 0
M  V30 2589 C 238.906 0.43646 -2.25006 0
M  V30 2590 C 239.919 1.00149 -1.28351 0
M  V30 2591 O 241.108 0.898674 -1.54227 0
M  V30 2592 C 238.208 1.6206 -2.9764 0
M  V30 2593 C 237.381 1.17763 -4.21249 0
M  V30 2594 C 236.44 2.22985 -4.76617 0
M  V30 2595 O 235.466 1.83151 -5.38929 0
M  V30 2596 N 236.668 3.55271 -4.59089 0
M  V30 2597 H 239.433 -0.18989 -2.99098 0
M  V30 2598 H 236.994 -0.247386 -1.59999 0
M  V30 2599 H 238.986 2.32038 -3.31573 0
M  V30 2600 H 237.556 2.15266 -2.2667 0
M  V30 2601 H 236.776 0.305582 -3.93014 0
M  V30 2602 H 238.064 0.858781 -5.015 0
M  V30 2603 H 237.462 3.90377 -4.09417 0
M  V30 2604 H 236.019 4.21195 -4.97432 0
M  V30 2605 N 239.452 1.56882 -0.150215 0
M  V30 2606 C 240.415 2.1573 0.774157 0
M  V30 2607 C 241.415 1.0999 1.17298 0
M  V30 2608 O 242.605 1.35613 1.09338 0
M  V30 2609 C 239.737 2.72302 2.05096 0
M  V30 2610 H 240.93 2.98752 0.262201 0
M  V30 2611 H 238.483 1.55985 0.099248 0
M  V30 2612 H 239.218 1.92956 2.6065 0
M  V30 2613 H 239.003 3.49665 1.77416 0
M  V30 2614 H 240.493 3.17632 2.71109 0
M  V30 2615 N 240.93 -0.123565 1.57115 0
M  V30 2616 C 242.346 -0.476961 1.52306 0
M  V30 2617 C 242.546 -1.82109 0.86248 0
M  V30 2618 O 241.602 -2.48586 0.442884 0
M  V30 2619 C 242.915 -0.465661 2.97073 0
M  V30 2620 C 244.463 -0.549534 3.08138 0
M  V30 2621 C 244.938 -0.568669 4.54456 0
M  V30 2622 N 246.429 -0.630237 4.58892 0
M  V30 2623 C 247.164 -0.666415 5.69514 0
M  V30 2624 N 246.66 -0.660514 6.89644 0
M  V30 2625 N 248.453 -0.709077 5.5761 0
M  V30 2626 H 240.604 0.757198 1.98445 0
M  V30 2627 H 242.867 0.278808 0.906074 0
M  V30 2628 H 242.573 0.454232 3.48754 0
M  V30 2629 H 242.447 -1.29513 3.54269 0
M  V30 2630 H 244.834 -1.45985 2.56461 0
M  V30 2631 H 244.915 0.307532 2.53945 0
M  V30 2632 H 244.559 0.337581 5.06777 0
M  V30 2633 H 244.489 -1.44256 5.06456 0
M  V30 2634 H 246.98 -0.641146 3.72421 0
M  V30 2635 H 247.293 -0.690616 7.69708 0
M  V30 2636 H 245.638 -0.628012 6.92157 0
M  V30 2637 H 248.829 -0.711019 4.62668 0
M  V30 2638 H 249.002 -0.733804 6.43832 0
M  V30 2639 N 242.408 -1.52605 -0.393616 0
M  V30 2640 C 243.654 -1.67672 -1.14079 0
M  V30 2641 C 243.987 -0.413121 -1.89755 0
M  V30 2642 O 243.262 0.588952 -1.85369 0
M  V30 2643 C 243.545 -2.9088 -2.12276 0
M  V30 2644 C 243.398 -4.27329 -1.40394 0
M  V30 2645 C 244.717 -3.09628 -3.12759 0
M  V30 2646 H 241.836 -0.610168 -0.413356 0
M  V30 2647 H 244.478 -1.85193 -0.424696 0
M  V30 2648 H 242.628 -2.76073 -2.73342 0
M  V30 2649 H 244.3 -4.53894 -0.82327 0
M  V30 2650 H 242.543 -4.2802 -0.705801 0
M  V30 2651 H 243.214 -5.09615 -2.12123 0
M  V30 2652 H 245.69 -3.23436 -2.61779 0
M  V30 2653 H 244.566 -3.97322 -3.78717 0
M  V30 2654 H 244.827 -2.23637 -3.81365 0
M  V30 2655 N 243.887 0.651787 -1.4349 0
M  V30 2656 C 244.817 1.77621 -1.51569 0
M  V30 2657 C 245.798 1.66022 -0.370253 0
M  V30 2658 O 246.983 1.85095 -0.587658 0
M  V30 2659 C 244.113 3.16056 -1.43966 0
M  V30 2660 C 243.067 3.4242 -2.56774 0
M  V30 2661 C 242.393 4.8067 -2.34223 0
M  V30 2662 C 243.693 3.37023 -3.99015 0
M  V30 2663 H 245.387 1.71117 -2.45681 0
M  V30 2664 H 242.933 0.821825 -1.18246 0
M  V30 2665 H 244.886 3.94472 -1.48221 0
M  V30 2666 H 243.61 3.23293 -0.463586 0
M  V30 2667 H 242.269 2.66375 -2.51873 0
M  V30 2668 H 241.917 4.84585 -1.34856 0
M  V30 2669 H 241.617 4.9927 -3.09844 0
M  V30 2670 H 243.141 5.61342 -2.40265 0
M  V30 2671 H 244.555 4.05374 -4.05395 0
M  V30 2672 H 242.952 3.67159 -4.74673 0
M  V30 2673 H 244.022 2.3518 -4.2405 0
M  V30 2674 N 245.365 1.30045 0.890287 0
M  V30 2675 C 246.614 1.17929 1.63633 0
M  V30 2676 C 246.927 -0.266204 1.9378 0
M  V30 2677 O 248.133 -0.508804 2.6669 0
M  V30 2678 C 246.589 2.06317 2.94892 0
M  V30 2679 C 246.197 3.55745 2.72305 0
M  V30 2680 C 247.941 2.0295 3.72843 0
M  V30 2681 C 245.848 4.36205 3.99348 0
M  V30 2682 H 244.778 0.437782 0.613892 0
M  V30 2683 H 247.429 1.54754 0.986075 0
M  V30 2684 H 245.811 1.6237 3.61182 0
M  V30 2685 H 246.985 4.07805 2.1455 0
M  V30 2686 H 245.3 3.6088 2.07737 0
M  V30 2687 H 247.897 2.60319 4.67053 0
M  V30 2688 H 248.24 1.0117 4.0382 0
M  V30 2689 H 248.773 2.4499 3.13408 0
M  V30 2690 H 245.512 5.38659 3.73533 0
M  V30 2691 H 245.032 3.8891 4.56628 0
M  V30 2692 H 246.711 4.47362 4.67415 0
M  V30 2693 N 246.843 -1.10192 1.12674 0
M  V30 2694 C 248.089 -1.82475 0.884915 0
M  V30 2695 C 248.422 -1.85093 -0.58773 0
M  V30 2696 O 247.697 -1.3134 -1.43457 0
M  V30 2697 C 247.98 -3.29018 1.46353 0
M  V30 2698 C 247.833 -3.34718 3.00473 0
M  V30 2699 C 249.152 -4.25473 1.12519 0
M  V30 2700 H 246.271 -0.662492 0.322915 0
M  V30 2701 H 248.913 -1.2913 1.39375 0
M  V30 2702 H 247.063 -3.74576 1.03077 0
M  V30 2703 H 248.735 -2.97622 3.52447 0
M  V30 2704 H 246.978 -2.74541 3.35872 0
M  V30 2705 H 247.649 -4.37918 3.36053 0
M  V30 2706 H 250.125 -3.88161 1.499 0
M  V30 2707 H 249.001 -5.26365 1.55663 0
M  V30 2708 H 249.262 -4.42084 0.0377407 0
M  V30 2709 N 248.321 -0.919034 -1.28029 0
M  V30 2710 C 249.57 -0.550802 -1.94034 0
M  V30 2711 C 249.883 0.910877 -1.73096 0
M  V30 2712 O 251.089 1.3875 -2.33368 0
M  V30 2713 C 249.545 -0.934249 -3.47563 0
M  V30 2714 C 249.153 -2.41602 -3.7727 0
M  V30 2715 C 250.897 -0.636854 -4.19696 0
M  V30 2716 C 248.804 -2.73932 -5.24133 0
M  V30 2717 H 247.734 -0.202273 -0.726362 0
M  V30 2718 H 250.385 -1.11867 -1.45458 0
M  V30 2719 H 248.767 -0.295115 -3.94899 0
M  V30 2720 H 249.941 -3.10233 -3.40723 0
M  V30 2721 H 248.256 -2.68441 -3.18321 0
M  V30 2722 H 250.853 -0.855005 -5.2782 0
M  V30 2723 H 251.196 0.425575 -4.14119 0
M  V30 2724 H 251.729 -1.23469 -3.78154 0
M  V30 2725 H 248.468 -3.79049 -5.34792 0
M  V30 2726 H 247.988 -2.09942 -5.61858 0
M  V30 2727 H 249.667 -2.61215 -5.91925 0
M  V30 2728 N 249.799 1.42003 -0.683588 0
M  V30 2729 C 250.762 2.29191 -0.0198243 0
M  V30 2730 C 251.762 1.43773 0.72013 0
M  V30 2731 O 252.952 1.65061 0.556815 0
M  V30 2732 C 250.084 3.26435 0.982487 0
M  V30 2733 H 251.277 2.8938 -0.787345 0
M  V30 2734 H 248.83 1.49789 -0.446418 0
M  V30 2735 H 249.565 2.71203 1.77819 0
M  V30 2736 H 249.35 3.89449 0.455182 0
M  V30 2737 H 250.84 3.918 1.44508 0
M  V30 2738 N 251.277 0.427512 1.51691 0
M  V30 2739 C 252.523 -0.134744 2.02953 0
M  V30 2740 C 252.878 -1.41235 1.30654 0
M  V30 2741 O 252.171 -1.87168 0.409713 0
M  V30 2742 C 252.365 -0.418249 3.54944 0
M  V30 2743 C 252.194 0.830327 4.41968 0
M  V30 2744 C 250.964 1.36097 4.86627 0
M  V30 2745 C 253.162 1.7137 4.84909 0
M  V30 2746 N 251.144 2.56311 5.57833 0
M  V30 2747 C 252.515 2.76195 5.55082 0
M  V30 2748 C 254.57 1.72928 4.66905 0
M  V30 2749 C 253.273 3.82512 6.09161 0
M  V30 2750 C 255.299 2.78175 5.21894 0
M  V30 2751 C 254.661 3.8172 5.92004 0
M  V30 2752 H 250.76 -0.0103958 0.781931 0
M  V30 2753 H 253.344 0.585981 1.85673 0
M  V30 2754 H 251.515 -1.10801 3.7226 0
M  V30 2755 H 253.247 -0.970999 3.92879 0
M  V30 2756 H 250.002 0.916311 4.64651 0
M  V30 2757 H 250.426 3.17242 5.98069 0
M  V30 2758 H 255.068 0.942081 4.12171 0
M  V30 2759 H 252.786 4.62077 6.62956 0
M  V30 2760 H 256.372 2.8031 5.09821 0
M  V30 2761 H 255.252 4.61821 6.33791 0
M  V30 2762 N 252.755 -1.56801 0.158532 0
M  V30 2763 C 253.98 -2.01295 -0.499516 0
M  V30 2764 C 254.405 -1.03799 -1.56867 0
M  V30 2765 O 253.763 -0.0155162 -1.81293 0
M  V30 2766 C 253.811 -3.44469 -1.06647 0
M  V30 2767 O 252.915 -3.50012 -2.18095 0
M  V30 2768 H 252.256 -0.652884 -0.12099 0
M  V30 2769 H 254.786 -2.02958 0.258661 0
M  V30 2770 H 254.796 -3.8351 -1.39227 0
M  V30 2771 H 253.471 -4.14932 -0.283581 0
M  V30 2772 H 252.048 -3.22822 -1.86656 0
M  V30 2773 N 254.233 0.115231 -1.57178 0
M  V30 2774 C 255.163 1.1423 -2.03651 0
M  V30 2775 C 256.144 1.42967 -0.921655 0
M  V30 2776 O 257.329 1.53343 -1.19162 0
M  V30 2777 C 254.459 2.4675 -2.44401 0
M  V30 2778 C 253.413 2.32467 -3.59365 0
M  V30 2779 C 252.739 3.69984 -3.86026 0
M  V30 2780 C 254.039 1.78203 -4.90959 0
M  V30 2781 H 255.733 0.755749 -2.89705 0
M  V30 2782 H 253.279 0.362093 -1.39373 0
M  V30 2783 H 255.232 3.18854 -2.75517 0
M  V30 2784 H 253.956 2.87302 -1.55322 0
M  V30 2785 H 252.615 1.62811 -3.28463 0
M  V30 2786 H 252.263 4.08028 -2.94147 0
M  V30 2787 H 251.963 3.61279 -4.63412 0
M  V30 2788 H 253.487 4.43587 -4.19599 0
M  V30 2789 H 254.901 2.40128 -5.20587 0
M  V30 2790 H 253.298 1.8031 -5.72371 0
M  V30 2791 H 254.368 0.739876 -4.79222 0
M  V30 2792 N 255.711 1.52812 0.385517 0
M  V30 2793 C 256.936 1.72207 1.15583 0
M  V30 2794 C 257.361 0.441034 1.82857 0
M  V30 2795 O 256.719 -0.603465 1.70962 0
M  V30 2796 C 256.767 2.87476 2.17692 0
M  V30 2797 O 255.871 2.54693 3.24354 0
M  V30 2798 H 255.212 0.572526 0.336319 0
M  V30 2799 H 257.742 1.99618 0.448744 0
M  V30 2800 H 257.752 3.13072 2.6163 0
M  V30 2801 H 256.427 3.80408 1.68115 0
M  V30 2802 H 255.004 2.3985 2.85529 0
M  V30 2803 N 257.189 -0.644168 1.43834 0
M  V30 2804 C 258.436 -1.40395 1.4593 0
M  V30 2805 C 258.764 -1.94305 0.0869658 0
M  V30 2806 O 258.019 -1.73288 -0.909378 0
M  V30 2807 C 258.318 -2.59615 2.45631 0
M  V30 2808 C 257.984 -2.2407 3.91284 0
M  V30 2809 C 256.646 -2.14089 4.30952 0
M  V30 2810 C 258.998 -1.95775 4.83034 0
M  V30 2811 C 256.326 -1.73981 5.6031 0
M  V30 2812 C 258.678 -1.57163 6.12766 0
M  V30 2813 C 257.342 -1.45713 6.51402 0
M  V30 2814 H 256.612 -0.513741 0.533995 0
M  V30 2815 H 259.259 -0.731724 1.76969 0
M  V30 2816 H 257.564 -3.32011 2.08028 0
M  V30 2817 H 259.261 -3.17834 2.44504 0
M  V30 2818 H 255.851 -2.32753 3.59895 0
M  V30 2819 H 260.035 -2.02403 4.53152 0
M  V30 2820 H 255.291 -1.63709 5.89075 0
M  V30 2821 H 259.465 -1.34303 6.83327 0
M  V30 2822 H 257.092 -1.14406 7.51542 0
M  V30 2823 N 258.668 -1.30515 -0.883378 0
M  V30 2824 C 259.598 -1.19607 -2.00541 0
M  V30 2825 C 260.579 -0.086346 -1.69881 0
M  V30 2826 O 261.764 -0.268654 -1.92333 0
M  V30 2827 C 258.894 -0.888758 -3.35736 0
M  V30 2828 C 257.848 -1.95659 -3.8066 0
M  V30 2829 C 257.174 -1.50224 -5.13164 0
M  V30 2830 C 258.474 -3.36788 -3.99213 0
M  V30 2831 H 260.168 -2.13476 -2.09925 0
M  V30 2832 H 257.714 -1.02775 -1.00863 0
M  V30 2833 H 259.667 -0.799094 -4.13754 0
M  V30 2834 H 258.391 0.0856125 -3.26488 0
M  V30 2835 H 257.05 -2.03591 -3.04871 0
M  V30 2836 H 256.698 -0.516092 -5.00345 0
M  V30 2837 H 256.398 -2.2165 -5.44192 0
M  V30 2838 H 257.922 -1.42639 -5.93706 0
M  V30 2839 H 259.336 -3.31605 -4.67665 0
M  V30 2840 H 257.733 -4.06314 -4.41621 0
M  V30 2841 H 258.803 -3.78561 -3.03017 0
M  V30 2842 N 260.146 1.09593 -1.13257 0
M  V30 2843 C 261.393 1.81734 -0.893257 0
M  V30 2844 C 261.721 1.8563 0.580656 0
M  V30 2845 O 260.976 1.31906 1.44566 0
M  V30 2846 C 261.275 3.27802 -1.42411 0
M  V30 2847 C 260.941 3.44041 -2.91456 0
M  V30 2848 C 259.603 3.48181 -3.3215 0
M  V30 2849 C 261.955 3.48719 -3.87356 0
M  V30 2850 C 259.283 3.54575 -4.67433 0
M  V30 2851 C 261.635 3.56648 -5.2248 0
M  V30 2852 C 260.299 3.59055 -5.62704 0
M  V30 2853 H 259.569 0.665011 -0.326866 0
M  V30 2854 H 262.216 1.2912 -1.41422 0
M  V30 2855 H 260.521 3.83042 -0.823795 0
M  V30 2856 H 262.218 3.82149 -1.21503 0
M  V30 2857 H 258.808 3.41502 -2.58987 0
M  V30 2858 H 262.992 3.44763 -3.57004 0
M  V30 2859 H 258.248 3.54725 -4.97976 0
M  V30 2860 H 262.422 3.59212 -5.96607 0
M  V30 2861 H 260.049 3.63763 -6.67518 0
M  V30 2862 N 261.624 0.925811 1.2754 0
M  V30 2863 C 262.849 0.580924 1.99098 0
M  V30 2864 C 263.274 -0.833555 1.68622 0
M  V30 2865 O 262.632 -1.55903 0.925422 0
M  V30 2866 C 262.68 0.811186 3.51358 0
M  V30 2867 O 261.784 -0.124129 4.12213 0
M  V30 2868 H 261.125 0.223873 0.625122 0
M  V30 2869 H 263.655 1.24455 1.62395 0
M  V30 2870 H 263.665 0.72601 4.01489 0
M  V30 2871 H 262.34 1.84227 3.72872 0
M  V30 2872 H 260.917 0.0108006 3.72898 0
M  V30 2873 N 263.102 -1.41638 0.69111 0
M  V30 2874 C 264.351 -2.00526 0.217318 0
M  V30 2875 C 264.664 -1.55353 -1.18848 0
M  V30 2876 O 265.87 -2.06769 -1.75951 0
M  V30 2877 C 264.326 -3.58313 0.337639 0
M  V30 2878 C 263.934 -4.12469 1.74852 0
M  V30 2879 C 265.678 -4.24431 -0.0766066 0
M  V30 2880 C 263.585 -5.62675 1.82074 0
M  V30 2881 H 262.515 -0.750008 0.0774893 0
M  V30 2882 H 265.166 -1.6217 0.858661 0
M  V30 2883 H 263.548 -3.9425 -0.371879 0
M  V30 2884 H 264.722 -3.8796 2.48644 0
M  V30 2885 H 263.037 -3.58861 2.11205 0
M  V30 2886 H 265.634 -5.34683 -0.0430284 0
M  V30 2887 H 265.977 -4.01101 -1.1146 0
M  V30 2888 H 266.51 -3.93512 0.582476 0
M  V30 2889 H 263.249 -5.90826 2.83911 0
M  V30 2890 H 262.769 -5.89124 1.12661 0
M  V30 2891 H 264.448 -6.27371 1.58159 0
M  V30 2892 N 264.58 -0.43555 -1.51462 0
M  V30 2893 C 265.991 0.0279871 -1.86679 0
M  V30 2894 C 266.342 1.42104 -1.35281 0
M  V30 2895 O 265.467 2.04667 -0.702878 0
M  V30 2896 C 266.062 0.0575626 -3.38751 0
M  V30 2897 C 264.621 0.465507 -3.7351 0
M  V30 2898 C 263.768 -0.342996 -2.75171 0
M  V30 2899 H 266.719 -0.651473 -1.44712 0
M  V30 2900 H 266.74 0.867421 -3.70481 0
M  V30 2901 H 266.252 -0.956448 -3.7613 0
M  V30 2902 H 264.353 1.48519 -3.41721 0
M  V30 2903 H 264.466 0.191546 -4.78717 0
M  V30 2904 H 262.83 0.198442 -2.53926 0
M  V30 2905 H 263.613 -1.35585 -3.15391 0
M  V30 2906 N 266.058 1.56714 -0.166846 0
M  V30 2907 C 267.286 2.0112 0.485644 0
M  V30 2908 C 267.701 1.04705 1.57106 0
M  V30 2909 O 267.058 0.0471923 1.82439 0
M  V30 2910 C 267.109 3.45361 1.06808 0
M  V30 2911 O 266.83 4.38092 0.0259995 0
M  V30 2912 C 268.331 4.05145 1.79924 0
M  V30 2913 H 265.551 0.65931 0.124704 0
M  V30 2914 H 268.095 2.02746 -0.267262 0
M  V30 2915 H 266.25 3.44524 1.7715 0
M  V30 2916 H 266.664 5.22519 0.455398 0
M  V30 2917 H 268.138 5.08009 2.15942 0
M  V30 2918 H 268.615 3.46982 2.69258 0
M  V30 2919 H 269.221 4.09672 1.14234 0
M  V30 2920 N 267.536 -0.106894 1.57237 0
M  V30 2921 C 268.466 -1.13148 2.04254 0
M  V30 2922 C 269.447 -1.42476 0.929224 0
M  V30 2923 O 270.632 -1.52709 1.19973 0
M  V30 2924 C 267.762 -2.4545 2.45706 0
M  V30 2925 C 266.716 -2.30558 3.60592 0
M  V30 2926 C 266.042 -3.67931 3.87983 0
M  V30 2927 C 267.342 -1.75597 4.91897 0
M  V30 2928 H 269.036 -0.740374 2.90101 0
M  V30 2929 H 266.582 -0.354696 1.39563 0
M  V30 2930 H 268.535 -3.17389 2.77205 0
M  V30 2931 H 267.259 -2.86475 1.56843 0
M  V30 2932 H 265.918 -1.61067 3.29322 0
M  V30 2933 H 265.566 -4.06462 2.96306 0
M  V30 2934 H 265.266 -3.58817 4.65322 0
M  V30 2935 H 266.79 -4.41356 4.21945 0
M  V30 2936 H 268.204 -2.37364 5.21854 0
M  V30 2937 H 266.601 -1.77272 5.73319 0
M  V30 2938 H 267.671 -0.714451 4.79608 0
M  V30 2939 N 269.014 -1.53014 -0.377408 0
M  V30 2940 C 270.263 -1.67845 -1.11853 0
M  V30 2941 C 270.576 -0.430625 -1.90801 0
M  V30 2942 O 271.782 -0.459261 -2.67587 0
M  V30 2943 C 270.238 -2.96668 -2.03756 0
M  V30 2944 C 269.846 -4.28671 -1.30175 0
M  V30 2945 C 271.59 -3.20865 -2.77932 0
M  V30 2946 C 269.497 -5.48591 -2.20911 0
M  V30 2947 H 268.427 -0.625343 -0.421263 0
M  V30 2948 H 271.078 -1.79514 -0.380409 0
M  V30 2949 H 269.46 -2.78773 -2.8125 0
M  V30 2950 H 270.634 -4.57157 -0.578259 0
M  V30 2951 H 268.949 -4.10825 -0.679108 0
M  V30 2952 H 271.546 -4.07642 -3.46024 0
M  V30 2953 H 271.889 -2.36424 -3.4265 0
M  V30 2954 H 272.422 -3.39379 -2.07525 0
M  V30 2955 H 269.161 -6.35474 -1.6079 0
M  V30 2956 H 268.681 -5.244 -2.91144 0
M  V30 2957 H 270.36 -5.8292 -2.80736 0
M  V30 2958 N 270.492 0.636531 -1.44174 0
M  V30 2959 C 271.741 1.39213 -1.45954 0
M  V30 2960 C 272.054 1.95374 -0.0939119 0
M  V30 2961 O 273.26 2.71498 0.0107767 0
M  V30 2962 C 271.716 2.52025 -2.56927 0
M  V30 2963 C 271.324 2.024 -3.99673 0
M  V30 2964 C 273.068 3.29269 -2.67922 0
M  V30 2965 C 270.975 3.12521 -5.0208 0
M  V30 2966 H 269.905 0.523132 -0.542999 0
M  V30 2967 H 272.556 0.685349 -1.70221 0
M  V30 2968 H 270.938 3.25253 -2.25891 0
M  V30 2969 H 272.112 1.36073 -4.40251 0
M  V30 2970 H 270.427 1.37987 -3.92872 0
M  V30 2971 H 273.024 4.11352 -3.41605 0
M  V30 2972 H 273.367 3.78397 -1.73555 0
M  V30 2973 H 273.9 2.63129 -2.98342 0
M  V30 2974 H 270.639 2.68343 -5.98057 0
M  V30 2975 H 270.159 3.77507 -4.66099 0
M  V30 2976 H 271.838 3.77385 -5.25538 0
M  V30 2977 N 271.97 1.30982 0.876444 0
M  V30 2978 C 273.217 1.20296 1.62896 0
M  V30 2979 C 273.545 -0.240395 1.93009 0
M  V30 2980 O 272.8 -1.18733 1.55567 0
M  V30 2981 C 273.099 1.98572 2.9716 0
M  V30 2982 C 272.765 3.48125 2.86566 0
M  V30 2983 C 271.427 3.88905 2.83383 0
M  V30 2984 C 273.779 4.43322 2.74071 0
M  V30 2985 C 271.107 5.2316 2.65556 0
M  V30 2986 C 273.459 5.77695 2.57781 0
M  V30 2987 C 272.123 6.17704 2.52979 0
M  V30 2988 H 271.393 0.440193 0.59608 0
M  V30 2989 H 274.04 1.62177 1.01837 0
M  V30 2990 H 272.345 1.49352 3.62217 0
M  V30 2991 H 274.042 1.8769 3.54364 0
M  V30 2992 H 270.632 3.15723 2.89856 0
M  V30 2993 H 274.816 4.12752 2.75589 0
M  V30 2994 H 270.072 5.53241 2.60259 0
M  V30 2995 H 274.246 6.51091 2.47089 0
M  V30 2996 H 271.873 7.21678 2.38924 0
M  V30 2997 N 273.449 -1.08991 1.13837 0
M  V30 2998 C 274.697 -1.80899 0.901098 0
M  V30 2999 C 275.018 -1.86356 -0.574134 0
M  V30 3000 O 274.288 -1.35235 -1.41733 0
M  V30 3001 H 272.868 -0.669966 0.330386 0
M  V30 3002 H 275.53 -1.318 1.43578 0
M  V30 3003 H 274.626 -2.83929 1.29578 0
M  V30 3004 N 274.927 -0.932562 -1.27047 0
M  V30 3005 C 275.874 -0.434072 -2.26681 0
M  V30 3006 C 276.844 0.501639 -1.58344 0
M  V30 3007 O 278.029 0.419734 -1.86126 0
M  V30 3008 C 275.169 0.30261 -3.43771 0
M  V30 3009 C 274.282 -0.667774 -4.26808 0
M  V30 3010 C 273.417 0.0892393 -5.31125 0
M  V30 3011 C 272.456 -0.873532 -6.05835 0
M  V30 3012 N 271.593 -0.148832 -7.01942 0
M  V30 3013 H 276.433 -1.28868 -2.68695 0
M  V30 3014 H 273.97 -0.646713 -1.32121 0
M  V30 3015 H 275.928 0.746092 -4.10474 0
M  V30 3016 H 274.558 1.12142 -3.02695 0
M  V30 3017 H 273.61 -1.22978 -3.59973 0
M  V30 3018 H 274.922 -1.40337 -4.78651 0
M  V30 3019 H 274.076 0.592409 -6.03801 0
M  V30 3020 H 272.815 0.85777 -4.80097 0
M  V30 3021 H 271.82 -1.38791 -5.31994 0
M  V30 3022 H 273.045 -1.64193 -6.58952 0
M  V30 3023 H 270.991 0.601365 -6.53238 0
M  V30 3024 H 270.908 -0.82391 -7.51497 0
M  V30 3025 H 272.176 0.333527 -7.78786 0
M  V30 3026 N 276.405 1.4127 -0.698611 0
M  V30 3027 C 277.821 1.55241 -0.370462 0
M  V30 3028 C 278.021 1.67351 1.12231 0
M  V30 3029 O 277.077 1.65363 1.90818 0
M  V30 3030 C 278.39 2.78997 -1.12165 0
M  V30 3031 C 279.938 2.92797 -1.1063 0
M  V30 3032 C 280.413 4.19445 -1.8393 0
M  V30 3033 N 281.904 4.26409 -1.80914 0
M  V30 3034 C 282.639 5.23271 -2.34467 0
M  V30 3035 N 282.135 6.26145 -2.96504 0
M  V30 3036 N 283.928 5.15232 -2.24706 0
M  V30 3037 H 276.079 1.31654 -1.66676 0
M  V30 3038 H 278.342 0.635393 -0.703548 0
M  V30 3039 H 278.048 2.76268 -2.17644 0
M  V30 3040 H 277.922 3.70606 -0.702209 0
M  V30 3041 H 280.309 2.95039 -0.0597713 0
M  V30 3042 H 280.39 2.02353 -1.56483 0
M  V30 3043 H 280.034 4.17964 -2.88563 0
M  V30 3044 H 279.964 5.08866 -1.35509 0
M  V30 3045 H 282.455 3.527 -1.35687 0
M  V30 3046 H 282.768 6.96451 -3.34927 0
M  V30 3047 H 281.113 6.26638 -3.00583 0
M  V30 3048 H 284.304 4.33789 -1.7591 0
M  V30 3049 H 284.477 5.90552 -2.66745 0
M  V30 3050 N 277.883 0.443576 1.51229 0
M  V30 3051 C 279.111 -0.11929 2.06556 0
M  V30 3052 C 279.526 -1.35921 1.31038 0
M  V30 3053 O 278.883 -1.78675 0.371704 0
M  V30 3054 C 278.934 -0.435228 3.5887 0
M  V30 3055 O 278.655 0.755486 4.31537 0
M  V30 3056 C 280.156 -1.04808 4.30732 0
M  V30 3057 H 277.376 -0.0051584 0.67098 0
M  V30 3058 H 279.92 0.624453 1.94733 0
M  V30 3059 H 278.075 -1.12887 3.70588 0
M  V30 3060 H 278.489 0.483491 5.22267 0
M  V30 3061 H 279.963 -1.2191 5.3837 0
M  V30 3062 H 280.44 -2.03081 3.89429 0
M  V30 3063 H 281.046 -0.393637 4.23474 0
M  V30 3064 N 279.361 -1.56624 0.175154 0
M  V30 3065 C 280.291 -2.21155 -0.749195 0
M  V30 3066 C 281.272 -1.16836 -1.23626 0
M  V30 3067 O 282.457 -1.45277 -1.28873 0
M  V30 3068 C 279.587 -2.8553 -1.97711 0
M  V30 3069 C 278.541 -3.95921 -1.62575 0
M  V30 3070 C 277.867 -4.47365 -2.92864 0
M  V30 3071 C 279.167 -5.15323 -0.850838 0
M  V30 3072 H 280.861 -2.98653 -0.211295 0
M  V30 3073 H 278.407 -1.43651 -0.100188 0
M  V30 3074 H 280.36 -3.2935 -2.62881 0
M  V30 3075 H 279.084 -2.05406 -2.53921 0
M  V30 3076 H 277.743 -3.52762 -0.997719 0
M  V30 3077 H 277.391 -3.64027 -3.47122 0
M  V30 3078 H 277.091 -5.21839 -2.70106 0
M  V30 3079 H 278.615 -4.93873 -3.59056 0
M  V30 3080 H 280.029 -5.55812 -1.40521 0
M  V30 3081 H 278.426 -5.95739 -0.722154 0
M  V30 3082 H 279.496 -4.84661 0.152082 0
M  V30 3083 N 280.839 0.0985539 -1.57292 0
M  V30 3084 C 282.064 0.820196 -1.90493 0
M  V30 3085 C 282.489 1.71658 -0.769094 0
M  V30 3086 O 281.847 1.79133 0.279495 0
M  V30 3087 C 281.895 1.61242 -3.22542 0
M  V30 3088 O 280.999 2.72108 -3.09888 0
M  V30 3089 H 280.34 0.225547 -0.62452 0
M  V30 3090 H 282.87 0.0748159 -2.04463 0
M  V30 3091 H 282.88 1.99737 -3.55766 0
M  V30 3092 H 281.555 0.954535 -4.04798 0
M  V30 3093 H 280.132 2.36667 -2.88172 0
M  V30 3094 N 282.317 1.53212 0.369288 0
M  V30 3095 C 283.265 1.80054 1.47253 0
M  V30 3096 C 284.259 0.669456 1.55611 0
M  V30 3097 O 285.465 0.852328 1.58541 0
M  V30 3098 H 281.84 0.570034 0.490475 0
M  V30 3099 H 283.811 2.72403 1.21817 0
M  V30 3100 C 282.56 2.00403 2.84137 0
M  V30 3101 H 281.883 2.86876 2.78464 0
M  V30 3102 H 283.323 2.23164 3.60519 0
M  V30 3103 C 281.782 0.782081 3.27697 0
M  V30 3104 O 282.312 -0.0310205 4.01688 0
M  V30 3105 N 280.518 0.606573 2.84199 0
M  V30 3106 H 280.065 1.26939 2.24152 0
M  V30 3107 H 280.023 -0.20962 3.137 0
M  V30 3108 N 283.795 -0.628877 1.44509 0
M  V30 3109 C 285.043 -1.38565 1.4712 0
M  V30 3110 C 285.364 -1.94712 0.105899 0
M  V30 3111 O 284.634 -1.75912 -0.862079 0
M  V30 3112 H 283.214 -0.514333 0.541729 0
M  V30 3113 H 285.876 -0.740018 1.80305 0
M  V30 3114 H 284.972 -2.21583 2.19789 0
M  V30 3115 N 285.273 -1.31445 -0.869486 0
M  V30 3116 C 286.183 -1.21097 -2.0093 0
M  V30 3117 C 287.199 -0.127584 -1.73532 0
M  V30 3118 O 288.375 -0.345477 -1.98415 0
M  V30 3119 C 285.44 -0.919378 -3.34288 0
M  V30 3120 C 284.501 -2.08971 -3.75006 0
M  V30 3121 C 283.734 -1.81194 -5.02001 0
M  V30 3122 O 283.957 -0.747296 -5.65484 0
M  V30 3123 O 282.891 -2.66883 -5.39497 0
M  V30 3124 H 286.717 -2.16883 -2.12592 0
M  V30 3125 H 284.302 -1.11189 -0.997868 0
M  V30 3126 H 286.184 -0.772625 -4.14257 0
M  V30 3127 H 284.859 0.00844772 -3.23699 0
M  V30 3128 H 283.766 -2.29187 -2.95676 0
M  V30 3129 H 285.099 -2.9998 -3.90221 0
M  V30 3130 N 286.751 1.08385 -1.14413 0
M  V30 3131 C 287.997 1.81044 -0.913834 0
M  V30 3132 C 288.33 1.86004 0.558209 0
M  V30 3133 O 287.605 1.33606 1.4135 0
M  V30 3134 C 287.888 3.26648 -1.51569 0
M  V30 3135 C 287.741 3.29895 -3.0576 0
M  V30 3136 C 289.06 4.23629 -1.19273 0
M  V30 3137 H 286.179 0.65727 -0.333414 0
M  V30 3138 H 288.821 1.26896 -1.41412 0
M  V30 3139 H 286.971 3.72889 -1.09023 0
M  V30 3140 H 288.643 2.91977 -3.57137 0
M  V30 3141 H 286.886 2.69163 -3.40197 0
M  V30 3142 H 287.557 4.32516 -3.42977 0
M  V30 3143 H 290.033 3.85727 -1.56057 0
M  V30 3144 H 288.909 5.23822 -1.64017 0
M  V30 3145 H 289.17 4.41968 -0.108068 0
M  V30 3146 N 288.23 0.939286 1.26551 0
M  V30 3147 C 289.162 0.404704 2.25599 0
M  V30 3148 C 290.175 -0.470983 1.55838 0
M  V30 3149 O 291.364 -0.281734 1.76263 0
M  V30 3150 C 288.464 -0.43764 3.36062 0
M  V30 3151 C 287.637 0.421449 4.35365 0
M  V30 3152 C 286.696 -0.36015 5.24966 0
M  V30 3153 O 285.722 0.236167 5.6871 0
M  V30 3154 N 286.924 -1.65715 5.56344 0
M  V30 3155 H 289.689 1.25618 2.72103 0
M  V30 3156 H 287.25 0.807963 1.40298 0
M  V30 3157 H 289.242 -0.967866 3.92956 0
M  V30 3158 H 287.812 -1.18991 2.89067 0
M  V30 3159 H 287.032 1.1329 3.7757 0
M  V30 3160 H 288.32 1.00835 4.98708 0
M  V30 3161 H 287.718 -2.16378 5.22682 0
M  V30 3162 H 286.275 -2.13366 6.15888 0
M  V30 3163 N 289.708 -1.40897 0.706093 0
M  V30 3164 C 290.948 -2.02916 0.245827 0
M  V30 3165 C 291.312 -1.54751 -1.13649 0
M  V30 3166 O 292.513 -2.08768 -1.69321 0
M  V30 3167 C 290.784 -3.56031 0.312537 0
M  V30 3168 S 292.343 -4.38741 -0.0721388 0
M  V30 3169 H 289.161 -0.704186 0.0982007 0
M  V30 3170 H 291.763 -1.72168 0.926207 0
M  V30 3171 H 290.467 -3.88579 1.32039 0
M  V30 3172 H 289.998 -3.91495 -0.386641 0
M  V30 3173 H 292.013 -4.78952 -1.29692 0
M  V30 3174 N 291.186 -0.45159 -1.50991 0
M  V30 3175 C 292.432 0.102439 -2.03142 0
M  V30 3176 C 292.787 1.39138 -1.32884 0
M  V30 3177 O 292.08 1.86493 -0.439438 0
M  V30 3178 C 292.274 0.361728 -3.55565 0
M  V30 3179 C 292.103 -0.900535 -4.40591 0
M  V30 3180 C 290.873 -1.43821 -4.844 0
M  V30 3181 C 293.071 -1.79063 -4.82121 0
M  V30 3182 N 291.053 -2.65153 -5.53685 0
M  V30 3183 C 292.424 -2.84991 -5.50618 0
M  V30 3184 C 294.479 -1.80334 -4.64095 0
M  V30 3185 C 293.182 -3.92155 -6.02998 0
M  V30 3186 C 295.208 -2.86442 -5.17402 0
M  V30 3187 C 294.57 -3.9109 -5.85857 0
M  V30 3188 H 290.669 -0.00204537 -0.781997 0
M  V30 3189 H 293.253 -0.615446 -1.84717 0
M  V30 3190 H 291.424 1.04865 -3.73976 0
M  V30 3191 H 293.156 0.908372 -3.94374 0
M  V30 3192 H 289.911 -0.990117 -4.63135 0
M  V30 3193 H 290.335 -3.26717 -5.92946 0
M  V30 3194 H 294.977 -1.00753 -4.1062 0
M  V30 3195 H 292.695 -4.72565 -6.55521 0
M  V30 3196 H 296.281 -2.88386 -5.05297 0
M  V30 3197 H 295.161 -4.71845 -6.26364 0
M  V30 3198 N 292.664 1.56529 -0.183458 0
M  V30 3199 C 293.627 2.17324 0.728223 0
M  V30 3200 C 294.627 1.12453 1.14939 0
M  V30 3201 O 295.817 1.37902 1.06437 0
M  V30 3202 C 292.949 2.76591 1.99274 0
M  V30 3203 H 294.142 2.99241 0.198772 0
M  V30 3204 H 291.695 1.5616 0.0661391 0
M  V30 3205 H 292.43 1.98441 2.56499 0
M  V30 3206 H 292.215 3.5335 1.69959 0
M  V30 3207 H 293.705 3.23311 2.6431 0
M  V30 3208 N 294.142 -0.090211 1.57342 0
M  V30 3209 C 295.072 -1.10976 2.05443 0
M  V30 3210 C 296.053 -1.41482 0.944284 0
M  V30 3211 O 297.238 -1.51428 1.21586 0
M  V30 3212 C 294.368 -2.42831 2.48295 0
M  V30 3213 C 293.322 -2.26721 3.63018 0
M  V30 3214 C 292.648 -3.63796 3.91863 0
M  V30 3215 C 293.948 -1.7037 4.93732 0
M  V30 3216 H 295.642 -0.709564 2.9087 0
M  V30 3217 H 293.188 -0.339874 1.39932 0
M  V30 3218 H 295.141 -3.14431 2.80555 0
M  V30 3219 H 293.865 -2.84795 1.59873 0
M  V30 3220 H 292.524 -1.57565 3.31012 0
M  V30 3221 H 292.172 -4.03297 3.00601 0
M  V30 3222 H 291.872 -3.53861 4.69101 0
M  V30 3223 H 293.396 -4.36855 4.26603 0
M  V30 3224 H 294.81 -2.31816 5.24342 0
M  V30 3225 H 293.207 -1.71181 5.75167 0
M  V30 3226 H 294.277 -0.663542 4.80339 0
M  V30 3227 N 295.62 -1.53406 -0.361157 0
M  V30 3228 C 296.866 -1.70999 -1.1014 0
M  V30 3229 C 297.221 -0.458425 -1.86859 0
M  V30 3230 O 296.514 0.548654 -1.83577 0
M  V30 3231 C 296.708 -2.90211 -2.08596 0
M  V30 3232 C 296.537 -4.26841 -1.41553 0
M  V30 3233 C 295.307 -4.91621 -1.16778 0
M  V30 3234 C 297.505 -5.07212 -0.850915 0
M  V30 3235 N 295.487 -6.12164 -0.461312 0
M  V30 3236 C 296.858 -6.19394 -0.274046 0
M  V30 3237 C 298.913 -4.92218 -0.750036 0
M  V30 3238 C 297.616 -7.18221 0.393868 0
M  V30 3239 C 299.642 -5.91322 -0.095894 0
M  V30 3240 C 299.004 -7.0283 0.470081 0
M  V30 3241 H 295.103 -0.678939 -0.388028 0
M  V30 3242 H 297.687 -1.90811 -0.38722 0
M  V30 3243 H 295.858 -2.71931 -2.77323 0
M  V30 3244 H 297.59 -2.96606 -2.7533 0
M  V30 3245 H 294.345 -4.50849 -1.45024 0
M  V30 3246 H 294.769 -6.76888 -0.123312 0
M  V30 3247 H 299.411 -4.06192 -1.17337 0
M  V30 3248 H 297.129 -8.03835 0.82914 0
M  V30 3249 H 300.715 -5.81797 -0.0187075 0
M  V30 3250 H 299.595 -7.782 0.968241 0
M  V30 3251 N 297.098 0.621204 -1.44841 0
M  V30 3252 C 298.509 1.20298 -1.42777 0
M  V30 3253 C 298.86 1.95639 -0.148259 0
M  V30 3254 O 297.985 2.02955 0.750892 0
M  V30 3255 C 298.58 2.1882 -2.58657 0
M  V30 3256 C 297.139 2.72403 -2.59756 0
M  V30 3257 C 296.286 1.4757 -2.34773 0
M  V30 3258 H 299.237 0.411297 -1.53278 0
M  V30 3259 H 299.258 3.01607 -2.31977 0
M  V30 3260 H 298.77 1.63957 -3.51766 0
M  V30 3261 H 296.871 3.31242 -1.70615 0
M  V30 3262 H 296.984 3.17765 -3.58556 0
M  V30 3263 H 295.348 1.76051 -1.8406 0
M  V30 3264 H 296.131 0.945954 -3.3001 0
M  V30 3265 N 298.576 1.31904 0.862503 0
M  V30 3266 C 299.853 1.12644 1.59908 0
M  V30 3267 C 300.233 -0.316104 2.0872 0
M  V30 3268 O 299.581 -1.31145 1.87118 0
M  V30 3269 C 299.791 2.1472 2.7513 0
M  V30 3270 C 301.139 2.47637 3.44907 0
M  V30 3271 O 302.163 2.13205 2.85346 0
M  V30 3272 O 301.022 3.06632 4.52371 0
M  V30 3273 H 298.116 0.43416 0.703871 0
M  V30 3274 H 300.662 1.43408 0.907314 0
M  V30 3275 H 299.434 3.1172 2.3653 0
M  V30 3276 H 299.057 1.84905 3.51989 0
M  V30 3277 N 300.054 -1.07777 1.14986 0
M  V30 3278 C 301.331 -1.7699 0.832695 0
M  V30 3279 C 301.711 -2.001 -0.672561 0
M  V30 3280 O 301.059 -1.61598 -1.6155 0
M  V30 3281 C 301.269 -3.08139 1.63863 0
M  V30 3282 C 302.617 -3.8256 1.84208 0
M  V30 3283 O 303.641 -3.17939 1.60603 0
M  V30 3284 O 302.5 -4.98612 2.23714 0
M  V30 3285 H 299.594 -0.768389 0.305791 0
M  V30 3286 H 302.14 -1.14182 1.25541 0
M  V30 3287 H 300.912 -2.86909 2.6608 0
M  V30 3288 H 300.535 -3.78678 1.21197 0
M  V30 3289 N 301.532 -0.945985 -1.26051 0
M  V30 3290 C 302.757 -0.612525 -1.98149 0
M  V30 3291 C 303.182 0.806623 -1.69927 0
M  V30 3292 O 302.54 1.54411 -0.950108 0
M  V30 3293 C 302.588 -0.866981 -3.50023 0
M  V30 3294 O 301.692 0.0585333 -4.12358 0
M  V30 3295 H 301.033 -0.23379 -0.621481 0
M  V30 3296 H 303.563 -1.27023 -1.60395 0
M  V30 3297 H 303.573 -0.789792 -4.00283 0
M  V30 3298 H 302.248 -1.90135 -3.69894 0
M  V30 3299 H 300.825 -0.0701241 -3.72834 0
M  V30 3300 N 303.011 1.40521 -0.713556 0
M  V30 3301 C 304.241 2.0494 -0.261395 0
M  V30 3302 C 304.649 1.53861 1.10107 0
M  V30 3303 O 303.992 0.689321 1.70276 0
M  V30 3304 C 304.054 3.59138 -0.161227 0
M  V30 3305 C 303.718 4.33096 -1.45865 0
M  V30 3306 C 304.715 4.61182 -2.40016 0
M  V30 3307 C 302.4 4.72043 -1.71701 0
M  V30 3308 C 304.394 5.27196 -3.58251 0
M  V30 3309 C 302.081 5.37789 -2.90218 0
M  V30 3310 C 303.079 5.65295 -3.83315 0
M  V30 3311 O 302.767 6.29683 -4.99754 0
M  V30 3312 H 302.499 0.666041 -0.115608 0
M  V30 3313 H 305.053 1.80954 -0.971849 0
M  V30 3314 H 303.283 3.81936 0.605153 0
M  V30 3315 H 304.972 4.05091 0.256105 0
M  V30 3316 H 305.738 4.31559 -2.21318 0
M  V30 3317 H 301.617 4.50003 -1.00092 0
M  V30 3318 H 305.161 5.48582 -4.30934 0
M  V30 3319 H 301.058 5.66831 -3.08825 0
M  V30 3320 H 301.826 6.4818 -4.99805 0
M  V30 3321 N 304.489 0.459591 1.5075 0
M  V30 3322 C 305.735 -0.091664 2.03193 0
M  V30 3323 C 306.09 -1.38432 1.3362 0
M  V30 3324 O 305.383 -1.86257 0.449322 0
M  V30 3325 C 305.577 -0.342866 3.55752 0
M  V30 3326 C 305.406 0.923888 4.40107 0
M  V30 3327 C 304.176 1.46388 4.83631 0
M  V30 3328 C 306.374 1.81617 4.81165 0
M  V30 3329 N 304.356 2.68086 5.52271 0
M  V30 3330 C 305.727 2.87907 5.49099 0
M  V30 3331 C 307.782 1.82793 4.63132 0
M  V30 3332 C 306.485 3.95347 6.0091 0
M  V30 3333 C 308.511 2.89182 5.15876 0
M  V30 3334 C 307.873 3.94191 5.83774 0
M  V30 3335 H 303.972 0.00619247 0.781975 0
M  V30 3336 H 306.556 0.625233 1.84388 0
M  V30 3337 H 304.727 -1.0288 3.74527 0
M  V30 3338 H 306.459 -0.887445 3.9485 0
M  V30 3339 H 303.214 1.01466 4.62603 0
M  V30 3340 H 303.638 3.29857 5.91205 0
M  V30 3341 H 308.28 1.0293 4.1008 0
M  V30 3342 H 305.998 4.76035 6.53006 0
M  V30 3343 H 309.584 2.91061 5.0376 0
M  V30 3344 H 308.464 4.75161 6.23853 0
M  V30 3345 N 305.967 -1.56429 0.191757 0
M  V30 3346 C 307.195 -2.01867 -0.453586 0
M  V30 3347 C 307.61 -1.07191 -1.5542 0
M  V30 3348 O 306.967 -0.0762108 -1.82341 0
M  V30 3349 C 307.018 -3.47017 -1.013 0
M  V30 3350 O 306.739 -4.38078 0.0437005 0
M  V30 3351 C 308.24 -4.07956 -1.73456 0
M  V30 3352 H 305.46 -0.661211 -0.114199 0
M  V30 3353 H 308.004 -2.02295 0.299483 0
M  V30 3354 H 306.159 -3.47298 -1.71647 0
M  V30 3355 H 306.573 -5.23178 -0.372212 0
M  V30 3356 H 308.047 -5.1138 -2.07833 0
M  V30 3357 H 308.524 -3.51222 -2.63704 0
M  V30 3358 H 309.13 -4.11437 -1.07702 0
M  V30 3359 N 307.445 0.0818655 -1.57387 0
M  V30 3360 C 308.856 0.634871 -1.75574 0
M  V30 3361 C 309.207 1.78435 -0.815809 0
M  V30 3362 O 308.332 2.164 0.0025366 0
M  V30 3363 C 308.927 1.15845 -3.18379 0
M  V30 3364 C 307.486 1.65741 -3.37945 0
M  V30 3365 C 306.633 0.572549 -2.71325 0
M  V30 3366 H 309.584 -0.144268 -1.58043 0
M  V30 3367 H 309.605 2.02751 -3.21982 0
M  V30 3368 H 309.117 0.321631 -3.86765 0
M  V30 3369 H 307.218 2.51781 -2.74658 0
M  V30 3370 H 307.331 1.74129 -4.46336 0
M  V30 3371 H 305.695 1.01518 -2.33594 0
M  V30 3372 H 306.478 -0.253918 -3.4236 0
M  V30 3373 N 308.923 1.53595 0.353017 0
M  V30 3374 C 310.153 1.74058 1.11299 0
M  V30 3375 C 310.561 0.475205 1.83135 0
M  V30 3376 O 309.904 -0.562344 1.74881 0
M  V30 3377 C 309.966 2.85994 2.17825 0
M  V30 3378 C 309.63 4.25923 1.65647 0
M  V30 3379 C 310.627 5.07829 1.11383 0
M  V30 3380 C 308.312 4.72377 1.7078 0
M  V30 3381 C 310.306 6.34285 0.629439 0
M  V30 3382 C 307.993 5.98808 1.21953 0
M  V30 3383 C 308.991 6.79594 0.681265 0
M  V30 3384 O 308.679 8.03651 0.200248 0
M  V30 3385 H 308.411 0.585327 0.338183 0
M  V30 3386 H 310.965 2.01186 0.413927 0
M  V30 3387 H 309.195 2.54368 2.91262 0
M  V30 3388 H 310.884 2.94515 2.79313 0
M  V30 3389 H 311.65 4.73107 1.06746 0
M  V30 3390 H 307.529 4.0956 2.11617 0
M  V30 3391 H 311.073 6.97288 0.208636 0
M  V30 3392 H 306.97 6.33026 1.26287 0
M  V30 3393 H 307.738 8.1788 0.318416 0
M  V30 3394 N 310.401 -0.613514 1.45168 0
M  V30 3395 C 311.334 -1.73809 1.47871 0
M  V30 3396 C 312.312 -1.59097 0.33568 0
M  V30 3397 O 313.496 -1.8074 0.535299 0
M  V30 3398 C 310.623 -3.11574 1.32813 0
M  V30 3399 C 309.669 -3.4489 2.50905 0
M  V30 3400 S 310.502 -3.40393 4.13392 0
M  V30 3401 C 311.658 -4.80749 4.00789 0
M  V30 3402 H 311.891 -1.71252 2.43023 0
M  V30 3403 H 309.424 -0.789658 1.32679 0
M  V30 3404 H 311.382 -3.91065 1.24812 0
M  V30 3405 H 310.043 -3.11652 0.391418 0
M  V30 3406 H 309.236 -4.45183 2.36279 0
M  V30 3407 H 308.838 -2.72901 2.55736 0
M  V30 3408 H 311.13 -5.7041 3.65567 0
M  V30 3409 H 312.073 -5.00431 5.00974 0
M  V30 3410 H 312.481 -4.56151 3.32545 0
M  V30 3411 N 311.879 -1.3236 -0.855495 0
M  V30 3412 C 313.107 -1.2587 -1.64208 0
M  V30 3413 C 313.522 0.173457 -1.88002 0
M  V30 3414 O 312.879 1.11027 -1.44842 0
M  V30 3415 C 312.93 -2.01424 -3.00184 0
M  V30 3416 O 312.651 -3.39051 -2.77445 0
M  V30 3417 C 314.152 -2.01948 -3.94629 0
M  V30 3418 H 311.372 -0.434318 -0.511477 0
M  V30 3419 H 313.916 -1.74469 -1.0668 0
M  V30 3420 H 312.071 -1.56549 -3.5436 0
M  V30 3421 H 312.485 -3.77711 -3.63916 0
M  V30 3422 H 313.959 -2.59297 -4.87308 0
M  V30 3423 H 314.436 -1.00554 -4.27534 0
M  V30 3424 H 315.042 -2.46767 -3.4639 0
M  V30 3425 N 313.357 1.07166 -1.15556 0
M  V30 3426 C 314.606 1.79181 -0.926132 0
M  V30 3427 C 314.919 1.87768 0.547967 0
M  V30 3428 O 316.125 2.56323 0.895036 0
M  V30 3429 C 314.581 3.22 -1.60761 0
M  V30 3430 C 314.189 3.21607 -3.11886 0
M  V30 3431 C 315.933 3.9861 -1.4598 0
M  V30 3432 C 313.84 4.59092 -3.72812 0
M  V30 3433 H 312.77 0.67154 -0.342856 0
M  V30 3434 H 315.421 1.2027 -1.3859 0
M  V30 3435 H 313.803 3.81115 -1.07553 0
M  V30 3436 H 314.977 2.72127 -3.71865 0
M  V30 3437 H 313.292 2.58495 -3.2645 0
M  V30 3438 H 315.889 5.00225 -1.88888 0
M  V30 3439 H 316.232 4.143 -0.407541 0
M  V30 3440 H 316.765 3.45996 -1.96295 0
M  V30 3441 H 313.504 4.48606 -4.77946 0
M  V30 3442 H 313.024 5.08803 -3.17616 0
M  V30 3443 H 314.703 5.28059 -3.73848 0
M  V30 3444 N 314.835 0.952656 1.25548 0
M  V30 3445 C 316.081 0.607272 1.93494 0
M  V30 3446 C 316.414 -0.853245 1.74452 0
M  V30 3447 O 315.689 -1.61194 1.08843 0
M  V30 3448 C 315.972 0.96435 3.46947 0
M  V30 3449 C 315.825 2.48045 3.75225 0
M  V30 3450 C 317.144 0.487987 4.37386 0
M  V30 3451 H 314.263 0.222096 0.702739 0
M  V30 3452 H 316.905 1.18895 1.48203 0
M  V30 3453 H 315.055 0.469361 3.85654 0
M  V30 3454 H 316.727 3.04905 3.46166 0
M  V30 3455 H 314.97 2.919 3.209 0
M  V30 3456 H 315.641 2.6808 4.82532 0
M  V30 3457 H 318.117 0.912558 4.0597 0
M  V30 3458 H 316.993 0.766547 5.43521 0
M  V30 3459 H 317.254 -0.612063 4.37843 0
M  V30 3460 N 316.313 -1.40141 0.720998 0
M  V30 3461 C 317.276 -2.29058 0.0805834 0
M  V30 3462 C 318.276 -1.45632 -0.681758 0
M  V30 3463 O 319.466 -1.6648 -0.512856 0
M  V30 3464 C 316.598 -3.28925 -0.895593 0
M  V30 3465 H 317.791 -2.87191 0.863793 0
M  V30 3466 H 315.344 -1.48553 0.485975 0
M  V30 3467 H 316.079 -2.75822 -1.70566 0
M  V30 3468 H 315.864 -3.90519 -0.351766 0
M  V30 3469 H 317.354 -3.95494 -1.34069 0
M  V30 3470 N 317.792 -0.46758 -1.50504 0
M  V30 3471 C 319.039 0.0886219 -2.02306 0
M  V30 3472 C 319.367 1.40037 -1.34981 0
M  V30 3473 O 318.622 1.90136 -0.463318 0
M  V30 3474 C 318.921 0.323995 -3.55928 0
M  V30 3475 C 318.587 -0.905618 -4.41712 0
M  V30 3476 C 317.249 -1.24275 -4.64875 0
M  V30 3477 C 319.601 -1.72448 -4.91845 0
M  V30 3478 C 316.929 -2.39888 -5.35417 0
M  V30 3479 C 319.281 -2.87185 -5.63656 0
M  V30 3480 C 317.945 -3.21317 -5.85074 0
M  V30 3481 H 317.215 0.0324291 -0.74029 0
M  V30 3482 H 319.862 -0.620945 -1.81153 0
M  V30 3483 H 318.167 1.11577 -3.75577 0
M  V30 3484 H 319.864 0.76826 -3.93572 0
M  V30 3485 H 316.454 -0.632956 -4.239 0
M  V30 3486 H 320.638 -1.4772 -4.73806 0
M  V30 3487 H 315.894 -2.66611 -5.50208 0
M  V30 3488 H 320.068 -3.50985 -6.01484 0
M  V30 3489 H 317.695 -4.1101 -6.39511 0
M  V30 3490 N 319.27 1.56325 -0.20005 0
M  V30 3491 C 320.2 2.22318 0.713916 0
M  V30 3492 C 321.181 1.18788 1.21752 0
M  V30 3493 O 322.366 1.47309 1.26545 0
M  V30 3494 C 319.496 2.88639 1.93144 0
M  V30 3495 C 318.45 3.98457 1.56255 0
M  V30 3496 C 317.776 4.51967 2.85709 0
M  V30 3497 C 319.076 5.16612 0.768747 0
M  V30 3498 H 320.77 2.98952 0.163755 0
M  V30 3499 H 318.316 1.43792 0.0773219 0
M  V30 3500 H 320.269 3.33491 2.57608 0
M  V30 3501 H 318.993 2.09419 2.50621 0
M  V30 3502 H 317.652 3.54305 0.941471 0
M  V30 3503 H 317.3 3.69503 3.41287 0
M  V30 3504 H 317 5.26071 2.6177 0
M  V30 3505 H 318.524 4.99523 3.51154 0
M  V30 3506 H 319.938 5.57977 1.3166 0
M  V30 3507 H 318.335 5.96812 0.627286 0
M  V30 3508 H 319.405 4.84358 -0.229168 0
M  V30 3509 N 320.748 -0.0735177 1.57428 0
M  V30 3510 C 321.994 -0.774145 1.87443 0
M  V30 3511 C 322.327 -1.77311 0.792103 0
M  V30 3512 O 321.602 -1.93492 -0.197793 0
M  V30 3513 C 321.885 -1.48367 3.28115 0
M  V30 3514 C 321.738 -0.501227 4.46999 0
M  V30 3515 C 323.057 -2.429 3.66998 0
M  V30 3516 H 320.176 -0.279971 0.681752 0
M  V30 3517 H 322.818 -0.0373616 1.89963 0
M  V30 3518 H 320.968 -2.11171 3.26097 0
M  V30 3519 H 322.64 0.121468 4.6114 0
M  V30 3520 H 320.883 0.183593 4.33411 0
M  V30 3521 H 321.554 -1.03526 5.42205 0
M  V30 3522 H 324.03 -1.90175 3.70098 0
M  V30 3523 H 322.906 -2.89549 4.66318 0
M  V30 3524 H 323.167 -3.27628 2.96837 0
M  V30 3525 N 322.226 -1.5378 -0.344866 0
M  V30 3526 C 323.456 -1.74646 -1.10374 0
M  V30 3527 C 323.864 -0.48491 -1.8288 0
M  V30 3528 O 323.207 0.553062 -1.75177 0
M  V30 3529 C 323.269 -2.87145 -2.16306 0
M  V30 3530 C 322.933 -4.26795 -1.63386 0
M  V30 3531 C 323.93 -5.08412 -1.08688 0
M  V30 3532 C 321.615 -4.73276 -1.68272 0
M  V30 3533 C 323.609 -6.34609 -0.595792 0
M  V30 3534 C 321.296 -5.99446 -1.18776 0
M  V30 3535 C 322.294 -6.79946 -0.645215 0
M  V30 3536 O 321.982 -8.03745 -0.157626 0
M  V30 3537 H 321.714 -0.587112 -0.335075 0
M  V30 3538 H 324.268 -2.01403 -0.403252 0
M  V30 3539 H 322.498 -2.55909 -2.89909 0
M  V30 3540 H 324.187 -2.95992 -2.77747 0
M  V30 3541 H 324.953 -4.73666 -1.04236 0
M  V30 3542 H 320.832 -4.10677 -2.09442 0
M  V30 3543 H 324.376 -6.97389 -0.171654 0
M  V30 3544 H 320.273 -6.33687 -1.22928 0
M  V30 3545 H 321.041 -8.18038 -0.275037 0
M  V30 3546 N 323.704 0.605807 -1.45491 0
M  V30 3547 C 324.951 1.36476 -1.49601 0
M  V30 3548 C 325.279 1.94007 -0.138452 0
M  V30 3549 O 324.534 1.75638 0.863114 0
M  V30 3550 C 324.833 2.53012 -2.52428 0
M  V30 3551 C 324.499 2.13617 -3.97087 0
M  V30 3552 C 323.161 2.02587 -4.36477 0
M  V30 3553 C 325.513 1.82899 -4.88055 0
M  V30 3554 C 322.841 1.59064 -5.64726 0
M  V30 3555 C 325.193 1.40861 -6.16718 0
M  V30 3556 C 323.857 1.28391 -6.55036 0
M  V30 3557 H 323.127 0.499402 -0.547429 0
M  V30 3558 H 325.774 0.684546 -1.78847 0
M  V30 3559 H 324.079 3.26379 -2.16758 0
M  V30 3560 H 325.776 3.1124 -2.52845 0
M  V30 3561 H 322.366 2.23129 -3.65939 0
M  V30 3562 H 326.55 1.90317 -4.58359 0
M  V30 3563 H 321.806 1.48034 -5.93208 0
M  V30 3564 H 325.98 1.16138 -6.86648 0
M  V30 3565 H 323.607 0.944403 -7.54311 0
M  V30 3566 N 325.182 1.32811 0.848464 0
M  V30 3567 C 326.431 1.23075 1.59798 0
M  V30 3568 C 326.744 -0.204419 1.94529 0
M  V30 3569 O 327.95 -0.423701 2.68173 0
M  V30 3570 C 326.406 2.15594 2.88179 0
M  V30 3571 C 326.014 3.64228 2.60849 0
M  V30 3572 C 327.758 2.14709 3.66197 0
M  V30 3573 C 325.665 4.48689 3.85269 0
M  V30 3574 H 324.595 0.457091 0.599653 0
M  V30 3575 H 327.246 1.57813 0.936342 0
M  V30 3576 H 325.628 1.73778 3.55833 0
M  V30 3577 H 326.802 4.14424 2.01467 0
M  V30 3578 H 325.117 3.67306 1.96151 0
M  V30 3579 H 327.714 2.75046 4.58534 0
M  V30 3580 H 328.057 1.13966 4.00397 0
M  V30 3581 H 328.59 2.54837 3.05455 0
M  V30 3582 H 325.329 5.5027 3.56207 0
M  V30 3583 H 324.849 4.03241 4.44024 0
M  V30 3584 H 326.528 4.62006 4.52946 0
M  V30 3585 N 326.66 -1.06551 1.16123 0
M  V30 3586 C 328.071 -1.60768 0.949232 0
M  V30 3587 C 328.422 -1.89523 -0.507508 0
M  V30 3588 O 327.547 -1.66671 -1.38021 0
M  V30 3589 C 328.142 -2.92086 1.71671 0
M  V30 3590 C 326.701 -3.43015 1.54977 0
M  V30 3591 C 325.848 -2.16947 1.72711 0
M  V30 3592 H 328.799 -0.895354 1.31031 0
M  V30 3593 H 328.82 -3.6138 1.19099 0
M  V30 3594 H 328.332 -2.71127 2.7769 0
M  V30 3595 H 326.433 -3.69039 0.513873 0
M  V30 3596 H 326.546 -4.18516 2.33198 0
M  V30 3597 H 324.91 -2.27041 1.15431 0
M  V30 3598 H 325.693 -1.98473 2.80113 0
M  V30 3599 N 328.138 -0.959301 -1.25041 0
M  V30 3600 C 329.068 -0.501388 -2.28053 0
M  V30 3601 C 330.049 0.454673 -1.63911 0
M  V30 3602 O 331.234 0.352618 -1.90972 0
M  V30 3603 C 328.364 0.217224 -3.4662 0
M  V30 3604 C 327.318 -0.654034 -4.22973 0
M  V30 3605 C 326.644 0.195589 -5.34342 0
M  V30 3606 C 327.944 -1.93447 -4.85155 0
M  V30 3607 H 329.638 -1.36238 -2.66608 0
M  V30 3608 H 327.184 -0.656534 -1.28163 0
M  V30 3609 H 329.137 0.548732 -4.17812 0
M  V30 3610 H 327.861 1.1125 -3.07068 0
M  V30 3611 H 326.52 -0.968693 -3.5357 0
M  V30 3612 H 326.168 1.09076 -4.91031 0
M  V30 3613 H 325.868 -0.384091 -5.86343 0
M  V30 3614 H 327.392 0.521958 -6.08365 0
M  V30 3615 H 328.806 -1.66908 -5.48466 0
M  V30 3616 H 327.203 -2.46018 -5.47353 0
M  V30 3617 H 328.273 -2.63466 -4.07079 0
M  V30 3618 N 329.616 1.39756 -0.72842 0
M  V30 3619 C 330.844 2.04948 -0.283528 0
M  V30 3620 C 331.259 1.54908 1.0793 0
M  V30 3621 O 330.616 0.711135 1.68075 0
M  V30 3622 C 330.667 3.60498 -0.268957 0
M  V30 3623 O 330.388 4.08695 -1.57798 0
M  V30 3624 C 331.889 4.4288 0.192912 0
M  V30 3625 H 329.109 0.659243 -0.125056 0
M  V30 3626 H 331.653 1.78927 -0.990226 0
M  V30 3627 H 329.808 3.85444 0.388801 0
M  V30 3628 H 330.222 5.02977 -1.48709 0
M  V30 3629 H 331.696 5.51791 0.151952 0
M  V30 3630 H 332.173 4.21418 1.23708 0
M  V30 3631 H 332.779 4.23069 -0.435039 0
M  V30 3632 N 331.094 0.475555 1.50254 0
M  V30 3633 C 332.343 -0.0795996 2.01543 0
M  V30 3634 C 332.656 -1.4038 1.36209 0
M  V30 3635 O 333.862 -2.04415 1.7868 0
M  V30 3636 C 332.318 -0.192363 3.59386 0
M  V30 3637 C 331.926 1.12367 4.33679 0
M  V30 3638 C 333.67 -0.699238 4.18701 0
M  V30 3639 C 331.577 0.974453 5.83317 0
M  V30 3640 H 330.507 -0.0335228 0.753254 0
M  V30 3641 H 333.158 0.611128 1.73025 0
M  V30 3642 H 331.54 -0.946974 3.84511 0
M  V30 3643 H 332.714 1.88958 4.20276 0
M  V30 3644 H 331.029 1.562 3.85993 0
M  V30 3645 H 333.626 -0.827978 5.28251 0
M  V30 3646 H 333.969 -1.69171 3.80377 0
M  V30 3647 H 334.502 -0.00188807 3.978 0
M  V30 3648 H 331.241 1.94042 6.26121 0
M  V30 3649 H 330.761 0.248998 5.99283 0
M  V30 3650 H 332.44 0.642867 6.43798 0
M  V30 3651 N 332.573 -1.56217 0.208337 0
M  V30 3652 C 333.822 -1.97124 -0.427204 0
M  V30 3653 C 334.135 -1.09859 -1.61835 0
M  V30 3654 O 335.341 -1.40606 -2.32255 0
M  V30 3655 C 333.797 -3.50633 -0.811442 0
M  V30 3656 C 333.405 -4.46582 0.35615 0
M  V30 3657 C 335.149 -4.00282 -1.41332 0
M  V30 3658 C 333.056 -5.91379 -0.0497852 0
M  V30 3659 H 331.986 -0.736086 -0.163381 0
M  V30 3660 H 334.637 -1.8099 0.302456 0
M  V30 3661 H 333.019 -3.62319 -1.59815 0
M  V30 3662 H 334.193 -4.46636 1.1337 0
M  V30 3663 H 332.508 -4.07202 0.870396 0
M  V30 3664 H 335.105 -5.0595 -1.72972 0
M  V30 3665 H 335.448 -3.45359 -2.32449 0
M  V30 3666 H 335.981 -3.91764 -0.690323 0
M  V30 3667 H 332.72 -6.50255 0.827529 0
M  V30 3668 H 332.24 -5.94549 -0.791926 0
M  V30 3669 H 333.919 -6.45209 -0.481042 0
M  V30 3670 N 334.051 0.0651679 -1.57465 0
M  V30 3671 C 335.276 0.779605 -1.9219 0
M  V30 3672 C 335.701 1.69988 -0.805333 0
M  V30 3673 O 335.059 1.79685 0.241435 0
M  V30 3674 C 335.107 1.54364 -3.2589 0
M  V30 3675 O 334.211 2.65474 -3.1559 0
M  V30 3676 H 333.552 0.212249 -0.629163 0
M  V30 3677 H 336.082 0.0314294 -2.04576 0
M  V30 3678 H 336.092 1.92146 -3.59922 0
M  V30 3679 H 334.767 0.868457 -4.06732 0
M  V30 3680 H 333.344 2.30501 -2.93128 0
M  V30 3681 N 335.529 1.53961 0.336706 0
M  V30 3682 C 336.778 1.70751 1.07363 0
M  V30 3683 C 337.091 0.481061 1.89592 0
M  V30 3684 O 338.297 0.530046 2.66276 0
M  V30 3685 C 336.753 3.01965 1.95818 0
M  V30 3686 C 336.361 4.31971 1.18764 0
M  V30 3687 C 338.105 3.28121 2.69327 0
M  V30 3688 C 336.012 5.54255 2.06289 0
M  V30 3689 H 334.942 0.636292 0.404535 0
M  V30 3690 H 337.593 1.80459 0.332681 0
M  V30 3691 H 335.975 2.86132 2.7376 0
M  V30 3692 H 337.149 4.5853 0.456849 0
M  V30 3693 H 335.464 4.12481 0.569946 0
M  V30 3694 H 338.061 4.16673 3.35094 0
M  V30 3695 H 338.404 2.45426 3.36261 0
M  V30 3696 H 338.937 3.44762 1.98454 0
M  V30 3697 H 335.676 6.39513 1.43885 0
M  V30 3698 H 335.196 5.31935 2.77138 0
M  V30 3699 H 336.875 5.90159 2.65182 0
M  V30 3700 N 337.007 -0.598083 1.45811 0
M  V30 3701 C 337.94 -1.7223 1.49706 0
M  V30 3702 C 338.918 -1.58732 0.352535 0
M  V30 3703 O 340.102 -1.80162 0.554438 0
M  V30 3704 C 337.229 -3.10148 1.3611 0
M  V30 3705 C 336.275 -3.42209 2.54549 0
M  V30 3706 S 337.108 -3.35989 4.16979 0
M  V30 3707 C 338.264 -4.76471 4.05865 0
M  V30 3708 H 338.497 -1.68665 2.44826 0
M  V30 3709 H 336.03 -0.775541 1.33509 0
M  V30 3710 H 337.988 -3.8972 1.28953 0
M  V30 3711 H 336.649 -3.11219 0.424451 0
M  V30 3712 H 335.842 -4.42652 2.40988 0
M  V30 3713 H 335.444 -2.70173 2.58617 0
M  V30 3714 H 337.736 -5.665 3.71596 0
M  V30 3715 H 338.679 -4.95089 5.06253 0
M  V30 3716 H 339.087 -4.52599 3.37364 0
M  V30 3717 N 338.485 -1.33259 -0.841409 0
M  V30 3718 C 339.715 -1.2742 -1.62628 0
M  V30 3719 C 340.123 0.157604 -1.88542 0
M  V30 3720 O 339.466 1.10938 -1.46419 0
M  V30 3721 C 339.528 -1.97797 -3.00194 0
M  V30 3722 C 339.192 -3.47109 -2.97261 0
M  V30 3723 C 340.189 -4.42358 -2.73159 0
M  V30 3724 C 337.874 -3.89247 -3.17478 0
M  V30 3725 C 339.868 -5.77718 -2.69296 0
M  V30 3726 C 337.555 -5.24713 -3.13241 0
M  V30 3727 C 338.553 -6.1876 -2.89181 0
M  V30 3728 O 338.241 -7.51745 -2.84843 0
M  V30 3729 H 337.973 -0.440436 -0.512827 0
M  V30 3730 H 340.527 -1.76153 -1.05638 0
M  V30 3731 H 338.757 -1.43652 -3.59028 0
M  V30 3732 H 340.446 -1.8549 -3.61038 0
M  V30 3733 H 341.212 -4.11127 -2.57294 0
M  V30 3734 H 337.091 -3.16456 -3.35226 0
M  V30 3735 H 340.635 -6.51097 -2.50436 0
M  V30 3736 H 336.532 -5.55569 -3.28654 0
M  V30 3737 H 337.3 -7.61262 -3.00702 0
M  V30 3738 N 339.963 1.05934 -1.16686 0
M  V30 3739 C 341.211 1.78447 -0.948744 0
M  V30 3740 C 341.532 1.87813 0.524523 0
M  V30 3741 O 340.802 1.38945 1.38098 0
M  V30 3742 H 339.382 0.660971 -0.348033 0
M  V30 3743 H 342.044 1.27947 -1.47022 0
M  V30 3744 H 341.14 2.80394 -1.37061 0
M  V30 3745 N 341.441 0.965919 1.2453 0
M  V30 3746 C 342.69 0.622437 1.91856 0
M  V30 3747 C 343.003 -0.846006 1.76358 0
M  V30 3748 O 344.209 -1.29993 2.38357 0
M  V30 3749 C 342.665 1.0626 3.43856 0
M  V30 3750 C 342.273 2.55437 3.68043 0
M  V30 3751 C 344.017 0.792183 4.17043 0
M  V30 3752 C 341.924 2.93196 5.13605 0
M  V30 3753 H 340.854 0.229092 0.718354 0
M  V30 3754 H 343.505 1.17189 1.41206 0
M  V30 3755 H 341.887 0.441476 3.93531 0
M  V30 3756 H 343.061 3.22665 3.28974 0
M  V30 3757 H 341.376 2.8007 3.08139 0
M  V30 3758 H 343.973 1.05031 5.24283 0
M  V30 3759 H 344.316 -0.271584 4.15413 0
M  V30 3760 H 344.849 1.37419 3.73311 0
M  V30 3761 H 341.588 3.98636 5.20355 0
M  V30 3762 H 341.108 2.30651 5.53679 0
M  V30 3763 H 342.787 2.83004 5.81823 0
M  V30 3764 N 342.919 -1.39368 0.735821 0
M  V30 3765 C 344.165 -2.00794 0.284544 0
M  V30 3766 C 344.498 -1.58255 -1.12557 0
M  V30 3767 O 343.773 -0.811819 -1.76748 0
M  V30 3768 C 344.056 -3.58011 0.387337 0
M  V30 3769 C 343.909 -4.10566 1.83728 0
M  V30 3770 C 345.228 -4.395 -0.22975 0
M  V30 3771 H 342.347 -0.729501 0.104866 0
M  V30 3772 H 344.989 -1.65564 0.93213 0
M  V30 3773 H 343.139 -3.88154 -0.164006 0
M  V30 3774 H 344.811 -3.91139 2.44556 0
M  V30 3775 H 343.054 -3.64095 2.35833 0
M  V30 3776 H 343.725 -5.19702 1.86047 0
M  V30 3777 H 346.201 -4.15406 0.240257 0
M  V30 3778 H 345.077 -5.48752 -0.127485 0
M  V30 3779 H 345.338 -4.22062 -1.3159 0
M  V30 3780 N 344.397 -0.483516 -1.5 0
M  V30 3781 C 345.646 0.0689102 -2.01582 0
M  V30 3782 C 345.959 1.39655 -1.36952 0
M  V30 3783 O 347.165 2.03465 -1.79762 0
M  V30 3784 C 345.621 0.173302 -3.59483 0
M  V30 3785 C 345.229 -1.14665 -4.33077 0
M  V30 3786 C 346.973 0.677024 -4.19066 0
M  V30 3787 C 344.88 -1.00537 -5.82792 0
M  V30 3788 H 343.81 0.0295277 -0.753422 0
M  V30 3789 H 346.461 -0.620295 -1.72698 0
M  V30 3790 H 344.843 0.926569 -3.85007 0
M  V30 3791 H 346.017 -1.91184 -4.19268 0
M  V30 3792 H 344.332 -1.58244 -3.85159 0
M  V30 3793 H 346.929 0.799952 -5.28682 0
M  V30 3794 H 347.272 1.67151 -3.81269 0
M  V30 3795 H 347.805 -0.0192083 -3.97795 0
M  V30 3796 H 344.544 -1.9736 -6.25083 0
M  V30 3797 H 344.064 -0.280776 -5.99142 0
M  V30 3798 H 345.743 -0.677 -6.43448 0
M  V30 3799 N 345.875 1.56104 -0.216619 0
M  V30 3800 C 347.291 1.58995 0.13886 0
M  V30 3801 C 347.491 1.23333 1.59346 0
M  V30 3802 O 346.547 0.966234 2.33281 0
M  V30 3803 C 347.86 3.00143 -0.182968 0
M  V30 3804 C 349.408 3.12751 -0.124807 0
M  V30 3805 C 349.883 4.56068 -0.420241 0
M  V30 3806 N 351.374 4.61723 -0.369634 0
M  V30 3807 C 352.109 5.70542 -0.571789 0
M  V30 3808 N 351.605 6.87744 -0.835453 0
M  V30 3809 N 353.398 5.59831 -0.504563 0
M  V30 3810 H 345.549 1.77562 -1.16557 0
M  V30 3811 H 347.812 0.825091 -0.466828 0
M  V30 3812 H 347.518 3.30871 -1.19237 0
M  V30 3813 H 347.392 3.73813 0.504367 0
M  V30 3814 H 349.779 2.81822 0.875223 0
M  V30 3815 H 349.86 2.41421 -0.845544 0
M  V30 3816 H 349.504 4.87713 -1.41769 0
M  V30 3817 H 349.434 5.25617 0.321631 0
M  V30 3818 H 351.925 3.77502 -0.173338 0
M  V30 3819 H 352.238 7.66587 -0.977938 0
M  V30 3820 H 350.583 6.895 -0.872592 0
M  V30 3821 H 353.774 4.67145 -0.298842 0
M  V30 3822 H 353.947 6.44573 -0.665519 0
M  V30 3823 N 347.353 -0.0568162 1.57498 0
M  V30 3824 C 348.581 -0.765626 1.92213 0
M  V30 3825 C 348.996 -1.70353 0.813961 0
M  V30 3826 O 348.353 -1.81268 -0.211701 0
M  V30 3827 C 348.404 -1.5465 3.2675 0
M  V30 3828 O 348.125 -0.646278 4.33307 0
M  V30 3829 C 349.626 -2.35497 3.75574 0
M  V30 3830 H 346.846 -0.216835 0.634999 0
M  V30 3831 H 349.39 -0.0226146 2.04487 0
M  V30 3832 H 347.545 -2.24165 3.15957 0
M  V30 3833 H 347.959 -1.19093 5.108 0
M  V30 3834 H 349.433 -2.85722 4.72299 0
M  V30 3835 H 349.91 -3.15692 3.05344 0
M  V30 3836 H 350.516 -1.7111 3.8936 0
M  V30 3837 N 348.832 -1.54138 -0.328536 0
M  V30 3838 C 350.081 -1.71318 -1.06456 0
M  V30 3839 C 350.394 -0.491109 -1.89334 0
M  V30 3840 O 351.6 -0.54416 -2.65991 0
M  V30 3841 C 350.056 -3.03 -1.94214 0
M  V30 3842 C 349.664 -4.32595 -1.16471 0
M  V30 3843 C 351.408 -3.29544 -2.67583 0
M  V30 3844 C 349.315 -5.55341 -2.03347 0
M  V30 3845 H 348.245 -0.638429 -0.401155 0
M  V30 3846 H 350.896 -1.80633 -0.323106 0
M  V30 3847 H 349.278 -2.87579 -2.72239 0
M  V30 3848 H 350.452 -4.58766 -0.432525 0
M  V30 3849 H 348.767 -4.12777 -0.548063 0
M  V30 3850 H 351.364 -4.18444 -3.3288 0
M  V30 3851 H 351.707 -2.47206 -3.34955 0
M  V30 3852 H 352.24 -3.45809 -1.96623 0
M  V30 3853 H 348.979 -6.40268 -1.40491 0
M  V30 3854 H 348.499 -5.33397 -2.74313 0
M  V30 3855 H 350.178 -5.91557 -2.62049 0
M  V30 3856 N 350.31 0.590341 -1.46126 0
M  V30 3857 C 351.556 1.34874 -1.52252 0
M  V30 3858 C 351.911 1.91658 -0.168807 0
M  V30 3859 O 351.204 1.73093 0.821556 0
M  V30 3860 C 351.398 2.5032 -2.55097 0
M  V30 3861 C 351.227 2.04843 -4.00337 0
M  V30 3862 C 349.997 1.90213 -4.68132 0
M  V30 3863 C 352.195 1.61267 -4.88362 0
M  V30 3864 N 350.177 1.38727 -5.9802 0
M  V30 3865 C 351.548 1.21319 -6.08015 0
M  V30 3866 C 353.603 1.49015 -4.75078 0
M  V30 3867 C 352.306 0.7034 -7.15852 0
M  V30 3868 C 354.332 0.994401 -5.8298 0
M  V30 3869 C 353.694 0.604659 -7.018 0
M  V30 3870 H 349.793 0.486803 -0.612002 0
M  V30 3871 H 352.377 0.673007 -1.82698 0
M  V30 3872 H 350.548 3.15466 -2.26574 0
M  V30 3873 H 352.28 3.1725 -2.51266 0
M  V30 3874 H 349.035 2.11927 -4.23537 0
M  V30 3875 H 349.459 1.15168 -6.67132 0
M  V30 3876 H 354.101 1.77768 -3.83612 0
M  V30 3877 H 351.819 0.403446 -8.07092 0
M  V30 3878 H 355.405 0.903621 -5.7474 0
M  V30 3879 H 354.285 0.226963 -7.83871 0
M  V30 3880 N 351.788 1.33704 0.83433 0
M  V30 3881 C 353.037 1.24763 1.58484 0
M  V30 3882 C 353.35 -0.183775 1.94735 0
M  V30 3883 O 354.556 -0.395234 2.68608 0
M  V30 3884 C 353.012 2.18638 2.85876 0
M  V30 3885 C 352.62 3.66974 2.56971 0
M  V30 3886 C 354.364 2.18581 3.63899 0
M  V30 3887 C 352.271 4.5275 3.80488 0
M  V30 3888 H 351.201 0.463425 0.594772 0
M  V30 3889 H 353.852 1.58797 0.919551 0
M  V30 3890 H 352.234 1.77542 3.5397 0
M  V30 3891 H 353.408 4.16538 1.9706 0
M  V30 3892 H 351.723 3.69366 1.92244 0
M  V30 3893 H 354.32 2.79894 4.55591 0
M  V30 3894 H 354.663 1.18207 3.99165 0
M  V30 3895 H 355.196 2.58062 3.02735 0
M  V30 3896 H 351.935 5.54017 3.5035 0
M  V30 3897 H 351.455 4.07927 4.39722 0
M  V30 3898 H 353.134 4.66784 4.4802 0
M  V30 3899 N 353.266 -1.05314 1.17247 0
M  V30 3900 C 354.213 -2.13031 0.888058 0
M  V30 3901 C 355.183 -1.65253 -0.167537 0
M  V30 3902 O 356.368 -1.90775 -0.0305974 0
M  V30 3903 C 353.508 -3.42702 0.406147 0
M  V30 3904 C 352.621 -4.04161 1.52572 0
M  V30 3905 C 351.756 -5.21744 0.997808 0
M  V30 3906 C 350.795 -5.75207 2.09291 0
M  V30 3907 N 349.932 -6.84094 1.57986 0
M  V30 3908 H 354.772 -2.36698 1.81048 0
M  V30 3909 H 352.309 -1.16121 0.903013 0
M  V30 3910 H 354.267 -4.17059 0.108305 0
M  V30 3911 H 352.897 -3.19222 -0.479313 0
M  V30 3912 H 351.949 -3.27253 1.93931 0
M  V30 3913 H 353.261 -4.39881 2.35172 0
M  V30 3914 H 352.415 -6.03168 0.653739 0
M  V30 3915 H 351.154 -4.87495 0.141232 0
M  V30 3916 H 350.159 -4.92414 2.44557 0
M  V30 3917 H 351.384 -6.11505 2.95362 0
M  V30 3918 H 349.33 -6.51745 0.74598 0
M  V30 3919 H 349.247 -7.18811 2.34195 0
M  V30 3920 H 350.515 -7.69172 1.26468 0
M  V30 3921 N 354.744 -0.972509 -1.24016 0
M  V30 3922 C 355.969 -0.654417 -1.96805 0
M  V30 3923 C 356.394 0.770398 -1.716 0
M  V30 3924 O 355.752 1.52361 -0.982647 0
M  V30 3925 C 355.8 -0.941031 -3.48105 0
M  V30 3926 O 354.904 -0.0289472 -4.1239 0
M  V30 3927 H 354.245 -0.24692 -0.616382 0
M  V30 3928 H 356.775 -1.30396 -1.57664 0
M  V30 3929 H 356.785 -0.87452 -3.98517 0
M  V30 3930 H 355.46 -1.97939 -3.65777 0
M  V30 3931 H 354.037 -0.149192 -3.72601 0
M  V30 3932 N 356.222 1.38976 -0.743202 0
M  V30 3933 C 357.169 2.30544 -0.10861 0
M  V30 3934 C 358.139 1.49642 0.720869 0
M  V30 3935 O 359.324 1.78304 0.679142 0
M  V30 3936 C 356.464 3.36018 0.786496 0
M  V30 3937 C 355.577 4.31963 -0.0564849 0
M  V30 3938 C 354.712 5.24506 0.840657 0
M  V30 3939 C 353.751 6.121 -0.00658363 0
M  V30 3940 N 352.888 6.96973 0.846943 0
M  V30 3941 H 357.728 2.8424 -0.895088 0
M  V30 3942 H 355.265 1.3995 -0.453048 0
M  V30 3943 H 357.223 3.95768 1.31999 0
M  V30 3944 H 355.853 2.83758 1.53887 0
M  V30 3945 H 354.905 3.73763 -0.707492 0
M  V30 3946 H 356.217 4.93703 -0.711229 0
M  V30 3947 H 355.371 5.89322 1.4417 0
M  V30 3948 H 354.11 4.63107 1.52916 0
M  V30 3949 H 353.115 5.46289 -0.620366 0
M  V30 3950 H 354.34 6.75565 -0.691992 0
M  V30 3951 H 352.286 6.38133 1.52059 0
M  V30 3952 H 352.203 7.5559 0.248864 0
M  V30 3953 H 353.471 7.6621 1.43328 0
M  V30 3954 N 357.7 0.491464 1.49741 0
M  V30 3955 C 358.928 -0.0535151 2.06831 0
M  V30 3956 C 359.343 -1.31683 1.35296 0
M  V30 3957 O 358.7 -1.77402 0.42836 0
M  V30 3958 C 358.751 -0.320835 3.60073 0
M  V30 3959 O 358.472 0.892394 4.28915 0
M  V30 3960 C 359.973 -0.910519 4.33848 0
M  V30 3961 H 357.193 0.0161909 0.670805 0
M  V30 3962 H 359.737 0.68609 1.92647 0
M  V30 3963 H 357.892 -1.0104 3.73991 0
M  V30 3964 H 358.306 0.649401 5.20464 0
M  V30 3965 H 359.78 -1.04721 5.41976 0
M  V30 3966 H 360.257 -1.90589 3.95692 0
M  V30 3967 H 360.863 -0.258712 4.24512 0
M  V30 3968 N 359.178 -1.55987 0.224894 0
M  V30 3969 C 360.408 -2.02489 -0.41007 0
M  V30 3970 C 360.816 -1.10391 -1.53657 0
M  V30 3971 O 360.159 -0.106458 -1.83391 0
M  V30 3972 C 360.221 -3.45319 -0.999757 0
M  V30 3973 C 359.885 -4.56999 -0.00827976 0
M  V30 3974 C 360.882 -5.13812 0.793314 0
M  V30 3975 C 358.567 -5.02176 0.111442 0
M  V30 3976 C 360.561 -6.14276 1.7013 0
M  V30 3977 C 358.248 -6.02477 1.02296 0
M  V30 3978 C 359.246 -6.58403 1.81643 0
M  V30 3979 O 358.934 -7.56751 2.71262 0
M  V30 3980 H 358.666 -0.667915 -0.104235 0
M  V30 3981 H 361.22 -2.0257 0.339782 0
M  V30 3982 H 359.45 -3.42318 -1.79876 0
M  V30 3983 H 361.139 -3.7545 -1.54248 0
M  V30 3984 H 361.905 -4.79756 0.711288 0
M  V30 3985 H 357.784 -4.58323 -0.49605 0
M  V30 3986 H 361.328 -6.57854 2.32107 0
M  V30 3987 H 357.225 -6.35954 1.10599 0
M  V30 3988 H 357.993 -7.74286 2.65375 0
M  V30 3989 N 360.656 0.0484629 -1.57525 0
M  V30 3990 C 361.566 1.07241 -2.08654 0
M  V30 3991 C 362.582 1.409 -1.02095 0
M  V30 3992 O 363.758 1.50609 -1.33712 0
M  V30 3993 C 360.823 2.36008 -2.5397 0
M  V30 3994 C 359.884 2.09108 -3.7493 0
M  V30 3995 C 359.117 3.31736 -4.18075 0
M  V30 3996 O 359.34 4.41714 -3.60895 0
M  V30 3997 O 358.274 3.18576 -5.10679 0
M  V30 3998 H 362.1 0.667965 -2.96263 0
M  V30 3999 H 359.685 0.26417 -1.47046 0
M  V30 4000 H 361.567 3.11747 -2.83535 0
M  V30 4001 H 360.242 2.75786 -1.69481 0
M  V30 4002 H 359.149 1.31 -3.50414 0
M  V30 4003 H 360.482 1.74198 -4.60343 0
M  V30 4004 N 362.134 1.5431 0.320358 0
M  V30 4005 C 363.362 1.76636 1.07738 0
M  V30 4006 C 363.777 0.51649 1.81598 0
M  V30 4007 O 363.134 -0.512942 1.75143 0
M  V30 4008 C 363.185 2.96158 2.07299 0
M  V30 4009 O 362.906 4.16313 1.36438 0
M  V30 4010 C 364.407 3.3072 2.95193 0
M  V30 4011 H 361.627 0.589597 0.320339 0
M  V30 4012 H 364.171 2.01207 0.36551 0
M  V30 4013 H 362.326 2.73851 2.74016 0
M  V30 4014 H 362.74 4.83565 2.03138 0
M  V30 4015 H 364.214 4.17643 3.60941 0
M  V30 4016 H 364.691 2.48026 3.62463 0
M  V30 4017 H 365.297 3.55117 2.34034 0
M  V30 4018 N 363.613 -0.582584 1.46437 0
M  V30 4019 C 364.859 -1.34278 1.51978 0
M  V30 4020 C 365.192 -1.93446 0.170973 0
M  V30 4021 O 364.467 -1.76481 -0.817608 0
M  V30 4022 C 364.75 -2.47203 2.61845 0
M  V30 4023 C 364.603 -1.93069 4.06257 0
M  V30 4024 C 365.922 -3.49247 2.67795 0
M  V30 4025 H 363.041 -0.486876 0.553282 0
M  V30 4026 H 365.683 -0.654437 1.78374 0
M  V30 4027 H 363.833 -3.0592 2.39469 0
M  V30 4028 H 365.505 -1.38808 4.3992 0
M  V30 4029 H 363.748 -1.23898 4.1573 0
M  V30 4030 H 364.419 -2.74586 4.7886 0
M  V30 4031 H 366.895 -3.00411 2.8791 0
M  V30 4032 H 365.771 -4.25719 3.46489 0
M  V30 4033 H 366.032 -4.06482 1.73852 0
M  V30 4034 N 365.091 -1.34144 -0.827227 0
M  V30 4035 C 366.34 -1.25602 -1.5782 0
M  V30 4036 C 366.653 0.173445 -1.94829 0
M  V30 4037 O 367.859 0.380984 -2.68814 0
M  V30 4038 C 366.315 -2.20151 -2.84713 0
M  V30 4039 C 365.923 -3.68331 -2.55021 0
M  V30 4040 C 367.667 -2.20508 -3.62735 0
M  V30 4041 C 365.574 -4.54762 -3.78082 0
M  V30 4042 H 364.504 -0.466573 -0.592306 0
M  V30 4043 H 367.155 -1.59283 -0.911116 0
M  V30 4044 H 365.537 -1.79417 -3.53023 0
M  V30 4045 H 366.711 -4.17577 -1.94849 0
M  V30 4046 H 365.026 -3.7038 -1.90283 0
M  V30 4047 H 367.623 -2.82306 -4.54101 0
M  V30 4048 H 367.966 -1.20322 -3.98533 0
M  V30 4049 H 368.499 -2.59664 -3.01362 0
M  V30 4050 H 365.238 -5.55867 -3.47407 0
M  V30 4051 H 364.758 -4.10254 -4.37552 0
M  V30 4052 H 366.437 -4.69153 -4.45538 0
M  V30 4053 N 366.569 1.04691 -1.17803 0
M  V30 4054 C 367.794 1.81984 -0.994813 0
M  V30 4055 C 368.219 1.82586 0.452112 0
M  V30 4056 O 367.577 1.23854 1.324 0
M  V30 4057 C 367.625 3.2575 -1.54659 0
M  V30 4058 O 366.729 4.05267 -0.763728 0
M  V30 4059 H 366.07 0.562483 -0.352857 0
M  V30 4060 H 368.6 1.3189 -1.56417 0
M  V30 4061 H 368.61 3.76541 -1.57102 0
M  V30 4062 H 367.285 3.24627 -2.59981 0
M  V30 4063 H 365.862 3.63972 -0.811108 0
M  V30 4064 N 368.047 0.979072 1.23499 0
M  V30 4065 C 368.995 0.510604 2.26926 0
M  V30 4066 C 369.989 -0.431691 1.63807 0
M  V30 4067 O 371.195 -0.30573 1.77385 0
M  V30 4068 H 367.57 0.146688 0.737554 0
M  V30 4069 H 369.541 1.39466 2.63803 0
M  V30 4070 C 368.29 -0.172658 3.47271 0
M  V30 4071 H 367.613 0.543331 3.96091 0
M  V30 4072 H 369.053 -0.464101 4.21452 0
M  V30 4073 C 367.512 -1.40345 3.06276 0
M  V30 4074 O 368.042 -2.49978 3.14442 0
M  V30 4075 N 366.248 -1.27362 2.61203 0
M  V30 4076 H 365.795 -0.381584 2.54758 0
M  V30 4077 H 365.753 -2.09822 2.34141 0
M  V30 4078 N 369.525 -1.3858 0.750561 0
M  V30 4079 C 370.765 -2.02032 0.310258 0
M  V30 4080 C 371.129 -1.58288 -1.08668 0
M  V30 4081 O 372.33 -2.14049 -1.62593 0
M  V30 4082 C 370.601 -3.54856 0.425647 0
M  V30 4083 S 372.16 -4.38748 0.0674797 0
M  V30 4084 H 368.978 -0.700705 0.120554 0
M  V30 4085 H 371.58 -1.69134 0.980512 0
M  V30 4086 H 370.284 -3.84182 1.44335 0
M  V30 4087 H 369.815 -3.92527 -0.261894 0
M  V30 4088 H 371.83 -4.82835 -1.14388 0
M  V30 4089 N 371.003 -0.499398 -1.49478 0
M  V30 4090 C 372.228 0.044722 -2.07352 0
M  V30 4091 C 372.653 1.30207 -1.35749 0
M  V30 4092 O 372.011 1.76516 -0.413732 0
M  V30 4093 C 372.059 0.283013 -3.59488 0
M  V30 4094 O 371.163 1.35804 -3.89398 0
M  V30 4095 H 370.504 -0.0255147 -0.66351 0
M  V30 4096 H 373.034 -0.698561 -1.92305 0
M  V30 4097 H 373.044 0.515007 -4.04737 0
M  V30 4098 H 371.719 -0.635636 -4.11014 0
M  V30 4099 H 370.296 1.11113 -3.55961 0
M  V30 4100 N 372.481 1.55866 -0.233164 0
M  V30 4101 C 373.758 1.90471 0.444988 0
M  V30 4102 C 374.138 1.15209 1.7689 0
M  V30 4103 O 373.486 0.265119 2.26957 0
M  V30 4104 C 373.696 3.4333 0.626559 0
M  V30 4105 C 375.044 4.14319 0.92871 0
M  V30 4106 O 376.068 3.48993 0.712926 0
M  V30 4107 O 374.927 5.29846 1.33887 0
M  V30 4108 H 372.021 0.792347 0.236885 0
M  V30 4109 H 374.567 1.67437 -0.276211 0
M  V30 4110 H 373.339 3.90095 -0.306822 0
M  V30 4111 H 372.962 3.72181 1.39881 0
M  V30 4112 N 373.959 -0.0401083 1.57549 0
M  V30 4113 C 375.207 -0.731677 1.8839 0
M  V30 4114 C 375.528 -1.76481 0.829425 0
M  V30 4115 O 374.798 -1.95411 -0.1383 0
M  V30 4116 H 373.378 -0.273225 0.695239 0
M  V30 4117 H 376.04 -0.00867725 1.94898 0
M  V30 4118 H 375.136 -1.22816 2.86919 0
M  V30 4119 N 375.437 -1.54477 -0.31217 0
M  V30 4120 C 376.384 -1.84655 -1.38461 0
M  V30 4121 C 377.354 -0.694536 -1.50882 0
M  V30 4122 O 378.539 -0.942081 -1.6592 0
M  V30 4123 C 375.679 -2.0896 -2.74645 0
M  V30 4124 C 374.792 -3.36618 -2.70763 0
M  V30 4125 C 373.927 -3.50824 -3.98868 0
M  V30 4126 C 372.966 -4.72315 -3.89339 0
M  V30 4127 N 372.103 -4.83387 -5.09197 0
M  V30 4128 H 376.943 -2.76142 -1.12026 0
M  V30 4129 H 374.48 -1.36748 -0.542065 0
M  V30 4130 H 376.438 -2.21045 -3.53829 0
M  V30 4131 H 375.068 -1.20752 -2.99364 0
M  V30 4132 H 374.12 -3.33211 -1.83506 0
M  V30 4133 H 375.432 -4.25917 -2.59608 0
M  V30 4134 H 374.586 -3.62513 -4.86486 0
M  V30 4135 H 373.325 -2.59638 -4.12843 0
M  V30 4136 H 372.33 -4.6067 -3.00105 0
M  V30 4137 H 373.555 -5.64897 -3.76919 0
M  V30 4138 H 371.501 -3.9512 -5.23657 0
M  V30 4139 H 371.418 -5.66669 -5.00422 0
M  V30 4140 H 372.686 -4.9942 -5.98498 0
M  V30 4141 N 376.915 0.57481 -1.46744 0
M  V30 4142 C 377.845 1.69337 -1.60771 0
M  V30 4143 C 378.826 1.63825 -0.457736 0
M  V30 4144 O 380.011 1.8172 -0.684947 0
M  V30 4145 C 377.141 3.0798 -1.60517 0
M  V30 4146 C 376.095 3.28327 -2.74564 0
M  V30 4147 C 375.421 4.67578 -2.59373 0
M  V30 4148 C 376.721 3.15398 -4.16319 0
M  V30 4149 H 378.415 1.57853 -2.54407 0
M  V30 4150 H 375.961 0.75799 -1.22436 0
M  V30 4151 H 377.914 3.86061 -1.68923 0
M  V30 4152 H 376.638 3.20381 -0.634305 0
M  V30 4153 H 375.297 2.52649 -2.65639 0
M  V30 4154 H 374.945 4.76755 -1.60353 0
M  V30 4155 H 374.645 4.82144 -3.35873 0
M  V30 4156 H 376.169 5.47817 -2.69682 0
M  V30 4157 H 377.583 3.83315 -4.26313 0
M  V30 4158 H 375.98 3.41482 -4.93468 0
M  V30 4159 H 377.05 2.12372 -4.3592 0
M  V30 4160 N 378.394 1.34581 0.820102 0
M  V30 4161 C 379.634 1.28448 1.58998 0
M  V30 4162 C 379.998 -0.142883 1.91468 0
M  V30 4163 O 381.199 -0.328422 2.66786 0
M  V30 4164 C 379.47 2.153 2.85273 0
M  V30 4165 S 381.029 2.26548 3.75794 0
M  V30 4166 H 377.847 0.456685 0.54494 0
M  V30 4167 H 380.449 1.69825 0.968487 0
M  V30 4168 H 379.153 3.18008 2.59421 0
M  V30 4169 H 378.684 1.7483 3.52417 0
M  V30 4170 H 380.699 1.44034 4.74835 0
M  V30 4171 N 379.872 -1.04064 1.18357 0
M  V30 4172 C 381.097 -1.81454 1.00445 0
M  V30 4173 C 381.522 -1.82823 -0.442423 0
M  V30 4174 O 380.88 -1.24555 -1.31741 0
M  V30 4175 C 380.928 -3.24925 1.56384 0
M  V30 4176 O 380.032 -4.04856 0.785209 0
M  V30 4177 H 379.373 -0.560604 0.355835 0
M  V30 4178 H 381.903 -1.31059 1.57114 0
M  V30 4179 H 381.913 -3.75702 1.59097 0
M  V30 4180 H 380.588 -3.23244 2.61699 0
M  V30 4181 H 379.165 -3.63537 0.830399 0
M  V30 4182 N 381.35 -0.985608 -1.22978 0
M  V30 4183 C 382.575 -0.675254 -1.961 0
M  V30 4184 C 383 0.752154 -1.72407 0
M  V30 4185 O 382.358 1.5131 -0.998751 0
M  V30 4186 C 382.406 -0.977899 -3.47087 0
M  V30 4187 O 381.51 -0.072685 -4.12336 0
M  V30 4188 H 380.851 -0.253443 -0.613728 0
M  V30 4189 H 383.381 -1.32061 -1.56272 0
M  V30 4190 H 383.391 -0.916739 -3.97567 0
M  V30 4191 H 382.066 -2.01807 -3.63657 0
M  V30 4192 H 380.643 -0.188703 -3.72422 0
M  V30 4193 N 382.828 1.3818 -0.7579 0
M  V30 4194 C 384.058 2.04004 -0.326463 0
M  V30 4195 C 384.466 1.57286 1.05156 0
M  V30 4196 O 383.809 0.743144 1.67997 0
M  V30 4197 C 383.871 3.58444 -0.275402 0
M  V30 4198 C 383.535 4.28237 -1.59569 0
M  V30 4199 C 384.532 4.53312 -2.54566 0
M  V30 4200 C 382.217 4.66341 -1.86631 0
M  V30 4201 C 384.211 5.15531 -3.74842 0
M  V30 4202 C 381.898 5.28283 -3.0718 0
M  V30 4203 C 382.896 5.52814 -4.01106 0
M  V30 4204 O 382.584 6.13465 -5.19534 0
M  V30 4205 H 382.316 0.662026 -0.136739 0
M  V30 4206 H 384.87 1.7777 -1.02893 0
M  V30 4207 H 383.1 3.83667 0.483337 0
M  V30 4208 H 384.789 4.05701 0.127099 0
M  V30 4209 H 385.555 4.24299 -2.34936 0
M  V30 4210 H 381.434 4.46591 -1.14358 0
M  V30 4211 H 384.978 5.34594 -4.48168 0
M  V30 4212 H 380.875 5.56719 -3.26702 0
M  V30 4213 H 381.643 6.31951 -5.20173 0
M  V30 4214 N 384.306 0.507319 1.49211 0
M  V30 4215 C 385.254 -0.281364 2.30892 0
M  V30 4216 C 386.248 -0.95687 1.39787 0
M  V30 4217 O 387.454 -0.883838 1.56807 0
M  V30 4218 H 383.829 -0.109597 0.743971 0
M  V30 4219 H 385.8 0.42744 2.95323 0
M  V30 4220 C 384.549 -1.32918 3.21291 0
M  V30 4221 H 383.872 -0.818799 3.91326 0
M  V30 4222 H 385.312 -1.85288 3.81372 0
M  V30 4223 C 383.771 -2.35074 2.41333 0
M  V30 4224 O 384.301 -3.4108 2.12197 0
M  V30 4225 N 382.507 -2.07705 2.03241 0
M  V30 4226 H 382.054 -1.2152 2.27136 0
M  V30 4227 H 382.012 -2.76283 1.50051 0
M  V30 4228 N 385.784 -1.5574 0.241426 0
M  V30 4229 C 387.2 -1.59196 -0.113548 0
M  V30 4230 C 387.4 -1.25852 -1.57364 0
M  V30 4231 O 386.456 -1.00322 -2.31715 0
M  V30 4232 C 387.769 -2.99814 0.230695 0
M  V30 4233 C 389.317 -3.12513 0.174547 0
M  V30 4234 C 389.792 -4.55342 0.492744 0
M  V30 4235 N 391.283 -4.61076 0.443043 0
M  V30 4236 C 392.018 -5.6956 0.662484 0
M  V30 4237 N 391.514 -6.86328 0.944761 0
M  V30 4238 N 393.307 -5.58957 0.593564 0
M  V30 4239 H 385.458 -1.75685 1.19368 0
M  V30 4240 H 387.721 -0.81756 0.479896 0
M  V30 4241 H 387.427 -3.28932 1.24485 0
M  V30 4242 H 387.301 -3.74568 -0.444833 0
M  V30 4243 H 389.688 -2.83179 -0.830277 0
M  V30 4244 H 389.769 -2.40045 0.883845 0
M  V30 4245 H 389.413 -4.85396 1.4951 0
M  V30 4246 H 389.343 -5.26062 -0.23797 0
M  V30 4247 H 391.834 -3.77179 0.233374 0
M  V30 4248 H 392.147 -7.64935 1.09977 0
M  V30 4249 H 390.492 -6.88025 0.982175 0
M  V30 4250 H 393.683 -4.66611 0.373123 0
M  V30 4251 H 393.856 -6.43433 0.767981 0
M  V30 4252 N 387.262 0.0317525 -1.57568 0
M  V30 4253 C 388.51 0.721676 -1.88776 0
M  V30 4254 C 388.831 1.76039 -0.838772 0
M  V30 4255 O 388.101 1.95482 0.127935 0
M  V30 4256 H 386.681 0.269534 -0.696678 0
M  V30 4257 H 389.343 -0.00165879 -1.949 0
M  V30 4258 H 388.439 1.21293 -2.87566 0
M  V30 4259 N 388.74 1.54641 0.303973 0
M  V30 4260 C 389.67 1.88386 1.3796 0
M  V30 4261 C 390.651 0.742485 1.5304 0
M  V30 4262 O 391.836 0.997959 1.66597 0
M  V30 4263 C 388.966 2.12854 2.74427 0
M  V30 4264 C 387.92 3.28702 2.74115 0
M  V30 4265 C 387.246 3.38582 4.13844 0
M  V30 4266 C 388.546 4.65881 2.3612 0
M  V30 4267 H 390.24 2.78474 1.09966 0
M  V30 4268 H 387.786 1.33988 0.527556 0
M  V30 4269 H 389.739 2.35047 3.49758 0
M  V30 4270 H 388.463 1.19535 3.03939 0
M  V30 4271 H 387.122 3.06428 2.0124 0
M  V30 4272 H 386.77 2.42784 4.40528 0
M  V30 4273 H 386.47 4.16453 4.14537 0
M  V30 4274 H 387.994 3.63031 4.90959 0
M  V30 4275 H 389.408 4.87823 3.01167 0
M  V30 4276 H 387.805 5.46444 2.48031 0
M  V30 4277 H 388.875 4.66799 1.3125 0
M  V30 4278 N 390.218 -0.567019 1.47046 0
M  V30 4279 C 391.467 -1.32091 1.5243 0
M  V30 4280 C 391.78 -1.94704 0.187021 0
M  V30 4281 O 392.986 -2.7124 0.118771 0
M  V30 4282 C 391.442 -2.39479 2.68659 0
M  V30 4283 C 391.05 -1.831 4.08874 0
M  V30 4284 C 392.794 -3.16111 2.83327 0
M  V30 4285 C 390.701 -2.8821 5.16419 0
M  V30 4286 H 389.631 -0.496629 0.56734 0
M  V30 4287 H 392.282 -0.603354 1.73297 0
M  V30 4288 H 390.664 -3.14105 2.41152 0
M  V30 4289 H 391.838 -1.14913 4.46242 0
M  V30 4290 H 390.153 -1.19085 3.99008 0
M  V30 4291 H 392.75 -3.94585 3.60842 0
M  V30 4292 H 393.093 -3.69686 1.91411 0
M  V30 4293 H 393.626 -2.48595 3.10556 0
M  V30 4294 H 390.365 -2.39504 6.10179 0
M  V30 4295 H 389.885 -3.54839 4.8358 0
M  V30 4296 H 391.564 -3.51881 5.42945 0
M  V30 4297 N 391.696 -1.35014 -0.812953 0
M  V30 4298 C 392.921 -1.31187 -1.60639 0
M  V30 4299 C 393.346 0.109382 -1.87782 0
M  V30 4300 O 392.704 1.07424 -1.46047 0
M  V30 4301 C 392.752 -2.11809 -2.91838 0
M  V30 4302 O 391.856 -1.49444 -3.8437 0
M  V30 4303 H 391.197 -0.450084 -0.488181 0
M  V30 4304 H 393.727 -1.77963 -1.00947 0
M  V30 4305 H 393.737 -2.23531 -3.41318 0
M  V30 4306 H 392.412 -3.15137 -2.71407 0
M  V30 4307 H 390.989 -1.46524 -3.42907 0
M  V30 4308 N 393.175 1.03435 -1.18907 0
M  V30 4309 C 394.122 2.11591 -0.921837 0
M  V30 4310 C 395.092 1.65499 0.141226 0
M  V30 4311 O 396.277 1.908 0.000242829 0
M  V30 4312 C 393.417 3.42012 -0.460616 0
M  V30 4313 C 392.53 4.01682 -1.58982 0
M  V30 4314 C 391.665 5.20091 -1.08069 0
M  V30 4315 C 390.704 5.71805 -2.18416 0
M  V30 4316 N 389.841 6.81494 -1.68849 0
M  V30 4317 H 394.681 2.33787 -1.8479 0
M  V30 4318 H 392.218 1.1467 -0.921373 0
M  V30 4319 H 394.176 4.16834 -0.174642 0
M  V30 4320 H 392.806 3.19944 0.428467 0
M  V30 4321 H 391.858 3.24127 -1.99113 0
M  V30 4322 H 393.17 4.36084 -2.4214 0
M  V30 4323 H 392.324 6.02051 -0.749615 0
M  V30 4324 H 391.063 4.87209 -0.218771 0
M  V30 4325 H 390.068 4.88461 -2.5236 0
M  V30 4326 H 391.293 6.06728 -3.05054 0
M  V30 4327 H 389.239 6.50475 -0.849572 0
M  V30 4328 H 389.156 7.14994 -2.45601 0
M  V30 4329 H 390.424 7.67063 -1.38689 0
M  V30 4330 N 394.653 0.992116 1.22453 0
M  V30 4331 C 395.616 0.546883 2.2258 0
M  V30 4332 C 396.616 -0.369829 1.56489 0
M  V30 4333 O 397.806 -0.161896 1.73446 0
M  V30 4334 C 394.938 -0.204659 3.40285 0
M  V30 4335 H 396.131 1.43234 2.63484 0
M  V30 4336 H 393.684 0.779239 1.3549 0
M  V30 4337 H 394.419 -1.10614 3.04853 0
M  V30 4338 H 394.204 0.45354 3.89468 0
M  V30 4339 H 395.694 -0.504358 4.14543 0
M  V30 4340 N 396.131 -1.37776 0.765217 0
M  V30 4341 C 397.078 -2.30342 0.145274 0
M  V30 4342 C 398.048 -1.5077 -0.696971 0
M  V30 4343 O 399.233 -1.79362 -0.650689 0
M  V30 4344 C 396.373 -3.37227 -0.732939 0
M  V30 4345 C 395.486 -4.31819 0.125199 0
M  V30 4346 C 394.621 -5.25777 -0.757107 0
M  V30 4347 C 393.66 -6.12012 0.103963 0
M  V30 4348 N 392.797 -6.98232 -0.735953 0
M  V30 4349 H 397.637 -2.8278 0.940195 0
M  V30 4350 H 395.174 -1.39211 0.475255 0
M  V30 4351 H 397.132 -3.97818 -1.25686 0
M  V30 4352 H 395.762 -2.86171 -1.49353 0
M  V30 4353 H 394.814 -3.7259 0.766865 0
M  V30 4354 H 396.126 -4.92509 0.789683 0
M  V30 4355 H 395.28 -5.91541 -1.34776 0
M  V30 4356 H 394.019 -4.65481 -1.45529 0
M  V30 4357 H 393.024 -5.45233 0.707197 0
M  V30 4358 H 394.249 -6.74379 0.799381 0
M  V30 4359 H 392.195 -6.40472 -1.41887 0
M  V30 4360 H 392.112 -7.55891 -0.128624 0
M  V30 4361 H 393.38 -7.68393 -1.31121 0
M  V30 4362 N 397.609 -0.515225 -1.4894 0
M  V30 4363 C 398.858 0.0261361 -2.01683 0
M  V30 4364 C 399.171 1.36719 -1.39883 0
M  V30 4365 O 400.377 1.99606 -1.84037 0
M  V30 4366 C 398.833 0.0970111 -3.59769 0
M  V30 4367 C 398.441 -1.23825 -4.30548 0
M  V30 4368 C 400.185 0.587981 -4.20408 0
M  V30 4369 C 398.092 -1.12877 -5.80528 0
M  V30 4370 H 397.022 0.0135398 -0.753878 0
M  V30 4371 H 399.673 -0.656787 -1.71343 0
M  V30 4372 H 398.055 0.844694 -3.86886 0
M  V30 4373 H 399.229 -2.00034 -4.15118 0
M  V30 4374 H 397.544 -1.66379 -3.81716 0
M  V30 4375 H 400.141 0.68763 -5.3026 0
M  V30 4376 H 400.484 1.59026 -3.84729 0
M  V30 4377 H 401.017 -0.103582 -3.97665 0
M  V30 4378 H 397.756 -2.10575 -6.20756 0
M  V30 4379 H 397.276 -0.407799 -5.98412 0
M  V30 4380 H 398.955 -0.813332 -6.41868 0
M  V30 4381 N 399.087 1.5561 -0.249682 0
M  V30 4382 C 400.034 2.21496 0.648694 0
M  V30 4383 C 401.004 1.17977 1.16921 0
M  V30 4384 O 402.189 1.46434 1.22318 0
M  V30 4385 C 399.329 2.92039 1.83868 0
M  V30 4386 C 398.442 4.10219 1.35442 0
M  V30 4387 C 397.577 4.6847 2.50419 0
M  V30 4388 C 396.616 5.78893 1.98869 0
M  V30 4389 N 395.753 6.31315 3.07223 0
M  V30 4390 H 400.593 2.97892 0.0801582 0
M  V30 4391 H 398.13 1.47074 0.0278031 0
M  V30 4392 H 400.088 3.31138 2.53778 0
M  V30 4393 H 398.718 2.18111 2.37965 0
M  V30 4394 H 397.77 3.76413 0.54928 0
M  V30 4395 H 399.082 4.89927 0.936649 0
M  V30 4396 H 398.236 5.10158 3.28366 0
M  V30 4397 H 396.975 3.87984 2.95499 0
M  V30 4398 H 395.98 5.3668 1.19393 0
M  V30 4399 H 397.205 6.61232 1.54755 0
M  V30 4400 H 395.151 5.53733 3.51732 0
M  V30 4401 H 395.068 7.06224 2.69784 0
M  V30 4402 H 396.336 6.77662 3.8522 0
M  V30 4403 N 400.565 -0.0233959 1.57583 0
M  V30 4404 C 401.528 -1.00693 2.05897 0
M  V30 4405 C 402.528 -1.28693 0.964092 0
M  V30 4406 O 403.718 -1.23602 1.22753 0
M  V30 4407 C 400.85 -2.33825 2.4807 0
M  V30 4408 H 402.043 -0.589476 2.9405 0
M  V30 4409 H 399.596 -0.270354 1.53944 0
M  V30 4410 H 400.331 -2.80307 1.6309 0
M  V30 4411 H 400.116 -2.1483 3.2801 0
M  V30 4412 H 401.606 -3.04426 2.85857 0
M  V30 4413 N 402.043 -1.548 -0.295768 0
M  V30 4414 C 403.292 -1.73538 -1.02798 0
M  V30 4415 C 403.605 -0.531159 -1.8825 0
M  V30 4416 O 404.811 -0.600458 -2.64777 0
M  V30 4417 C 403.267 -3.07051 -1.87744 0
M  V30 4418 C 402.875 -4.34968 -1.07269 0
M  V30 4419 C 404.619 -3.35146 -2.60533 0
M  V30 4420 C 402.526 -5.5953 -1.91521 0
M  V30 4421 H 401.456 -0.646794 -0.387522 0
M  V30 4422 H 404.107 -1.81278 -0.284718 0
M  V30 4423 H 402.489 -2.93289 -2.66078 0
M  V30 4424 H 403.663 -4.5958 -0.335117 0
M  V30 4425 H 401.978 -4.13847 -0.460384 0
M  V30 4426 H 404.575 -4.2541 -3.23929 0
M  V30 4427 H 404.918 -2.54255 -3.29636 0
M  V30 4428 H 405.451 -3.49902 -1.89244 0
M  V30 4429 H 402.19 -6.43103 -1.26878 0
M  V30 4430 H 401.71 -5.39096 -2.62937 0
M  V30 4431 H 403.389 -5.96982 -2.49442 0
M  V30 4432 N 403.521 0.559213 -1.47345 0
M  V30 4433 C 404.468 1.66645 -1.59682 0
M  V30 4434 C 405.438 1.60168 -0.43994 0
M  V30 4435 O 406.623 1.79031 -0.659736 0
M  V30 4436 C 403.763 3.04969 -1.61518 0
M  V30 4437 C 402.876 3.21897 -2.88108 0
M  V30 4438 C 402.011 4.50608 -2.81294 0
M  V30 4439 C 401.05 4.60961 -4.02717 0
M  V30 4440 N 400.187 5.81024 -3.94151 0
M  V30 4441 H 405.027 1.55439 -2.54249 0
M  V30 4442 H 402.564 0.757219 -1.26113 0
M  V30 4443 H 404.522 3.85064 -1.60566 0
M  V30 4444 H 403.152 3.15015 -0.704645 0
M  V30 4445 H 402.204 2.35248 -2.98936 0
M  V30 4446 H 403.516 3.25412 -3.78032 0
M  V30 4447 H 402.67 5.3896 -2.7858 0
M  V30 4448 H 401.409 4.49568 -1.89049 0
M  V30 4449 H 400.414 3.71021 -4.05738 0
M  V30 4450 H 401.639 4.63761 -4.96087 0
M  V30 4451 H 399.585 5.80938 -3.04708 0
M  V30 4452 H 399.502 5.85909 -4.77752 0
M  V30 4453 H 400.77 6.71744 -3.9545 0
M  V30 4454 N 404.999 1.35443 0.805782 0
M  V30 4455 C 406.229 1.31687 1.59192 0
M  V30 4456 C 406.637 -0.10756 1.88894 0
M  V30 4457 O 405.98 -1.07017 1.49309 0
M  V30 4458 C 406.042 2.05686 2.94845 0
M  V30 4459 C 405.706 3.54868 2.87954 0
M  V30 4460 C 406.703 4.49444 2.61335 0
M  V30 4461 C 404.388 3.97528 3.07046 0
M  V30 4462 C 406.382 5.84655 2.53885 0
M  V30 4463 C 404.069 5.32833 2.99219 0
M  V30 4464 C 405.067 6.26209 2.72674 0
M  V30 4465 O 404.755 7.59032 2.64811 0
M  V30 4466 H 404.487 0.453878 0.50097 0
M  V30 4467 H 407.041 1.78892 1.0093 0
M  V30 4468 H 405.271 1.5312 3.55093 0
M  V30 4469 H 406.96 1.94998 3.55993 0
M  V30 4470 H 407.726 4.17804 2.46303 0
M  V30 4471 H 403.605 3.25233 3.26718 0
M  V30 4472 H 407.149 6.57508 2.33086 0
M  V30 4473 H 403.046 5.64087 3.13809 0
M  V30 4474 H 403.814 7.68967 2.80413 0
M  V30 4475 N 406.477 -1.02803 1.19454 0
M  V30 4476 C 407.702 -1.80378 1.02364 0
M  V30 4477 C 408.127 -1.83282 -0.423007 0
M  V30 4478 O 407.485 -1.25945 -1.30413 0
M  V30 4479 C 407.533 -3.23248 1.59821 0
M  V30 4480 O 406.637 -4.04 0.828105 0
M  V30 4481 H 405.978 -0.556799 0.361761 0
M  V30 4482 H 408.508 -1.29385 1.58495 0
M  V30 4483 H 408.518 -3.73994 1.63073 0
M  V30 4484 H 407.193 -3.2045 2.65113 0
M  V30 4485 H 405.77 -3.62635 0.86891 0
M  V30 4486 N 407.956 -0.998596 -1.21925 0
M  V30 4487 C 409.205 -0.673085 -1.90138 0
M  V30 4488 C 409.518 0.79895 -1.78539 0
M  V30 4489 O 410.724 1.23628 -2.4172 0
M  V30 4490 C 409.18 -1.15339 -3.40918 0
M  V30 4491 C 408.788 -2.65106 -3.61141 0
M  V30 4492 C 410.532 -0.902476 -4.14796 0
M  V30 4493 C 408.439 -3.0671 -5.05651 0
M  V30 4494 H 407.369 -0.248057 -0.712028 0
M  V30 4495 H 410.02 -1.20891 -1.38049 0
M  V30 4496 H 408.402 -0.545658 -3.92223 0
M  V30 4497 H 409.576 -3.31274 -3.20304 0
M  V30 4498 H 407.891 -2.88142 -3.00605 0
M  V30 4499 H 410.488 -1.18895 -5.21314 0
M  V30 4500 H 410.831 0.161349 -4.15987 0
M  V30 4501 H 411.364 -1.47269 -3.69536 0
M  V30 4502 H 408.103 -4.12292 -5.09603 0
M  V30 4503 H 407.623 -2.45249 -5.47369 0
M  V30 4504 H 409.302 -2.9833 -5.74115 0
M  V30 4505 N 409.434 1.37368 -0.772513 0
M  V30 4506 C 410.683 1.98918 -0.333861 0
M  V30 4507 C 410.996 1.62017 1.09589 0
M  V30 4508 O 412.202 2.16676 1.63596 0
M  V30 4509 C 410.658 3.55735 -0.545971 0
M  V30 4510 C 410.266 4.01573 -1.98603 0
M  V30 4511 C 412.01 4.24156 -0.170979 0
M  V30 4512 C 409.917 5.51102 -2.1457 0
M  V30 4513 H 408.847 0.744214 -0.121085 0
M  V30 4514 H 411.498 1.56888 -0.95175 0
M  V30 4515 H 409.88 3.95748 0.141387 0
M  V30 4516 H 411.054 3.72803 -2.7084 0
M  V30 4517 H 409.369 3.45937 -2.31769 0
M  V30 4518 H 411.966 5.34024 -0.26878 0
M  V30 4519 H 412.309 4.06917 0.878855 0
M  V30 4520 H 412.842 3.89447 -0.810914 0
M  V30 4521 H 409.581 5.73268 -3.17875 0
M  V30 4522 H 409.101 5.81554 -1.46817 0
M  V30 4523 H 410.78 6.17083 -1.94468 0
M  V30 4524 N 410.912 0.523116 1.48665 0
M  V30 4525 C 412.161 -0.01544 2.01694 0
M  V30 4526 C 412.474 -1.35975 1.40606 0
M  V30 4527 O 413.68 -1.98627 1.85093 0
M  V30 4528 C 412.136 -0.0779303 3.59816 0
M  V30 4529 C 411.744 1.26107 4.29885 0
M  V30 4530 C 413.488 -0.565678 4.20714 0
M  V30 4531 C 411.395 1.15954 5.79921 0
M  V30 4532 H 410.325 -0.00954163 0.75394 0
M  V30 4533 H 412.976 0.665865 1.70993 0
M  V30 4534 H 411.358 -0.824165 3.87329 0
M  V30 4535 H 412.532 2.02233 4.14051 0
M  V30 4536 H 410.847 1.68401 3.80828 0
M  V30 4537 H 413.444 -0.6595 5.30617 0
M  V30 4538 H 413.787 -1.56984 3.85567 0
M  V30 4539 H 414.32 0.12467 3.97605 0
M  V30 4540 H 411.059 2.13864 6.19631 0
M  V30 4541 H 410.579 0.439529 5.98187 0
M  V30 4542 H 412.258 0.847361 6.41427 0
M  V30 4543 N 412.39 -1.55475 0.257931 0
M  V30 4544 C 413.639 -1.98383 -0.364275 0
M  V30 4545 C 413.952 -1.14952 -1.58258 0
M  V30 4546 O 415.158 -1.47924 -2.27664 0
M  V30 4547 C 413.614 -3.53037 -0.699479 0
M  V30 4548 C 413.222 -4.45223 0.498046 0
M  V30 4549 C 414.966 -4.04575 -1.28526 0
M  V30 4550 C 412.873 -5.91238 0.138383 0
M  V30 4551 H 411.803 -0.740911 -0.13988 0
M  V30 4552 H 414.454 -1.79936 0.359883 0
M  V30 4553 H 412.836 -3.6722 -1.48207 0
M  V30 4554 H 414.01 -4.42803 1.27522 0
M  V30 4555 H 412.325 -4.04226 0.999503 0
M  V30 4556 H 414.922 -5.11196 -1.56788 0
M  V30 4557 H 415.265 -3.5258 -2.21344 0
M  V30 4558 H 415.798 -3.93762 -0.565337 0
M  V30 4559 H 412.537 -6.47294 1.03398 0
M  V30 4560 H 412.057 -5.96768 -0.602374 0
M  V30 4561 H 413.736 -6.46413 -0.27553 0
M  V30 4562 N 413.868 0.0150385 -1.57593 0
M  V30 4563 C 414.798 1.01047 -2.10503 0
M  V30 4564 C 415.779 1.36816 -1.01071 0
M  V30 4565 O 416.964 1.45455 -1.28672 0
M  V30 4566 C 414.094 2.30708 -2.59598 0
M  V30 4567 C 413.048 2.09142 -3.73421 0
M  V30 4568 C 412.374 3.44685 -4.08774 0
M  V30 4569 C 413.674 1.46619 -5.01298 0
M  V30 4570 H 415.368 0.569978 -2.93925 0
M  V30 4571 H 412.914 0.272724 -1.41394 0
M  V30 4572 H 414.867 3.00687 -2.95238 0
M  V30 4573 H 413.591 2.76843 -1.73279 0
M  V30 4574 H 412.25 1.41592 -3.38153 0
M  V30 4575 H 411.898 3.88495 -3.195 0
M  V30 4576 H 411.598 3.31077 -4.8545 0
M  V30 4577 H 413.122 4.16004 -4.4696 0
M  V30 4578 H 414.536 2.06535 -5.34805 0
M  V30 4579 H 412.933 1.43544 -5.82679 0
M  V30 4580 H 414.003 0.433611 -4.82957 0
M  V30 4581 N 415.346 1.54954 0.287554 0
M  V30 4582 C 416.309 1.86076 1.33823 0
M  V30 4583 C 417.309 0.734414 1.43049 0
M  V30 4584 O 418.499 1.00266 1.42452 0
M  V30 4585 C 415.631 2.05305 2.72144 0
M  V30 4586 H 416.824 2.79984 1.07465 0
M  V30 4587 H 414.377 1.47223 0.524902 0
M  V30 4588 H 415.112 1.1373 3.03704 0
M  V30 4589 H 414.897 2.873 2.66836 0
M  V30 4590 H 416.387 2.30706 3.48087 0
M  V30 4591 N 416.824 -0.551391 1.4764 0
M  V30 4592 C 418.071 -1.3083 1.54563 0
M  V30 4593 C 418.399 -1.93359 0.210361 0
M  V30 4594 O 417.654 -1.78721 -0.797332 0
M  V30 4595 C 417.953 -2.43469 2.61644 0
M  V30 4596 C 417.619 -1.98732 4.04742 0
M  V30 4597 C 416.281 -1.86248 4.43695 0
M  V30 4598 C 418.633 -1.64659 4.94507 0
M  V30 4599 C 415.961 -1.37995 5.70241 0
M  V30 4600 C 418.313 -1.17875 6.21521 0
M  V30 4601 C 416.977 -1.03992 6.5935 0
M  V30 4602 H 416.247 -0.478741 0.565587 0
M  V30 4603 H 418.894 -0.617697 1.81264 0
M  V30 4604 H 417.199 -3.18109 2.28722 0
M  V30 4605 H 418.896 -3.01642 2.64222 0
M  V30 4606 H 415.486 -2.09393 3.73968 0
M  V30 4607 H 419.67 -1.73174 4.65107 0
M  V30 4608 H 414.926 -1.25915 5.98294 0
M  V30 4609 H 419.1 -0.905739 6.90485 0
M  V30 4610 H 416.727 -0.663794 7.57296 0
M  V30 4611 N 418.302 -1.35869 -0.798587 0
M  V30 4612 C 419.551 -1.28921 -1.5512 0
M  V30 4613 C 419.864 0.13208 -1.95154 0
M  V30 4614 O 421.07 0.323879 -2.69561 0
M  V30 4615 C 419.526 -2.26141 -2.79979 0
M  V30 4616 C 419.134 -3.73658 -2.47151 0
M  V30 4617 C 420.878 -2.28152 -3.57976 0
M  V30 4618 C 418.785 -4.62679 -3.6835 0
M  V30 4619 H 417.715 -0.479031 -0.582276 0
M  V30 4620 H 420.366 -1.61179 -0.877125 0
M  V30 4621 H 418.748 -1.86865 -3.49138 0
M  V30 4622 H 419.922 -4.21616 -1.85947 0
M  V30 4623 H 418.237 -3.74333 -1.82383 0
M  V30 4624 H 420.834 -2.91875 -4.4801 0
M  V30 4625 H 421.177 -1.28748 -3.95891 0
M  V30 4626 H 421.71 -2.65998 -2.95787 0
M  V30 4627 H 418.449 -5.63111 -3.35538 0
M  V30 4628 H 417.969 -4.19442 -4.28752 0
M  V30 4629 H 419.648 -4.78498 -4.35487 0
M  V30 4630 N 419.78 1.02168 -1.19998 0
M  V30 4631 C 421.02 1.77232 -1.01825 0
M  V30 4632 C 421.384 1.86833 0.442428 0
M  V30 4633 O 422.585 2.58293 0.744189 0
M  V30 4634 C 420.856 3.15601 -1.67722 0
M  V30 4635 S 422.415 4.06765 -1.64584 0
M  V30 4636 H 419.233 0.610021 -0.365233 0
M  V30 4637 H 421.835 1.22368 -1.52467 0
M  V30 4638 H 420.539 3.06235 -2.73218 0
M  V30 4639 H 420.07 3.7554 -1.17189 0
M  V30 4640 H 422.085 4.91586 -0.67511 0
M  V30 4641 N 421.258 1.00505 1.21394 0
M  V30 4642 C 422.498 0.696149 1.9218 0
M  V30 4643 C 422.862 -0.759099 1.76357 0
M  V30 4644 O 424.063 -1.17998 2.41516 0
M  V30 4645 C 422.334 1.10571 3.39866 0
M  V30 4646 S 423.893 0.91702 4.29111 0
M  V30 4647 H 420.711 0.254147 0.664026 0
M  V30 4648 H 423.313 1.28988 1.46909 0
M  V30 4649 H 422.017 2.16096 3.489 0
M  V30 4650 H 421.548 0.504268 3.90155 0
M  V30 4651 H 423.563 -0.185855 4.95852 0
M  V30 4652 N 422.737 -1.36956 0.779787 0
M  V30 4653 C 423.983 -2.00237 0.357324 0
M  V30 4654 C 424.338 -1.60787 -1.05666 0
M  V30 4655 O 423.631 -0.847836 -1.71821 0
M  V30 4656 C 423.825 -3.54585 0.447686 0
M  V30 4657 C 423.654 -4.09025 1.86891 0
M  V30 4658 C 422.424 -4.39612 2.49138 0
M  V30 4659 C 424.622 -4.29461 2.82963 0
M  V30 4660 N 422.604 -4.79816 3.82949 0
M  V30 4661 C 423.975 -4.72363 4.01588 0
M  V30 4662 C 426.03 -4.1161 2.80145 0
M  V30 4663 C 424.733 -4.99284 5.17791 0
M  V30 4664 C 426.759 -4.39672 3.95528 0
M  V30 4665 C 426.121 -4.82822 5.12896 0
M  V30 4666 H 422.22 -0.76148 0.177968 0
M  V30 4667 H 424.804 -1.6613 1.01533 0
M  V30 4668 H 422.975 -3.87982 -0.180184 0
M  V30 4669 H 424.707 -4.047 0.0023955 0
M  V30 4670 H 421.462 -4.28975 2.00693 0
M  V30 4671 H 421.886 -5.04216 4.51769 0
M  V30 4672 H 426.528 -3.77415 1.90572 0
M  V30 4673 H 424.246 -5.32365 6.07958 0
M  V30 4674 H 427.832 -4.27441 3.94697 0
M  V30 4675 H 426.712 -5.04118 6.00695 0
M  V30 4676 N 424.215 -0.530993 -1.48385 0
M  V30 4677 C 425.44 0.000729535 -2.074 0
M  V30 4678 C 425.865 1.27298 -1.3848 0
M  V30 4679 O 425.223 1.75599 -0.451081 0
M  V30 4680 C 425.271 0.206697 -3.60007 0
M  V30 4681 O 424.375 1.27514 -3.92191 0
M  V30 4682 H 423.716 -0.039583 -0.662819 0
M  V30 4683 H 426.246 -0.739194 -1.9078 0
M  V30 4684 H 426.256 0.42904 -4.05738 0
M  V30 4685 H 424.931 -0.722675 -4.09573 0
M  V30 4686 H 423.508 1.03537 -3.58238 0
M  V30 4687 N 425.693 1.55336 -0.266172 0
M  V30 4688 C 427.104 1.85236 0.233315 0
M  V30 4689 C 427.455 1.18816 1.56132 0
M  V30 4690 O 426.58 0.473307 2.11161 0
M  V30 4691 C 427.175 3.36059 0.430113 0
M  V30 4692 C 425.734 3.66116 0.873842 0
M  V30 4693 C 424.881 2.77274 -0.0380016 0
M  V30 4694 H 427.832 1.51004 -0.488214 0
M  V30 4695 H 427.853 3.58681 1.26998 0
M  V30 4696 H 427.365 3.84373 -0.536588 0
M  V30 4697 H 425.466 3.23295 1.85233 0
M  V30 4698 H 425.579 4.73699 0.717358 0
M  V30 4699 H 423.943 2.50198 0.476759 0
M  V30 4700 H 424.726 3.284 -1.00042 0
M  V30 4701 N 427.171 -0.0066808 1.57599 0
M  V30 4702 C 428.401 -0.703066 1.94269 0
M  V30 4703 C 428.809 -1.68206 0.866222 0
M  V30 4704 O 428.152 -1.82966 -0.164087 0
M  V30 4705 C 428.214 -1.49616 3.26887 0
M  V30 4706 C 427.878 -0.679494 4.5192 0
M  V30 4707 C 428.875 0.0299508 5.19891 0
M  V30 4708 C 426.56 -0.627433 4.98366 0
M  V30 4709 C 428.554 0.780514 6.32603 0
M  V30 4710 C 426.241 0.126861 6.10968 0
M  V30 4711 C 427.239 0.829574 6.77943 0
M  V30 4712 O 426.927 1.57157 7.88389 0
M  V30 4713 H 426.659 -0.201217 0.645359 0
M  V30 4714 H 429.213 0.0385326 2.05364 0
M  V30 4715 H 427.443 -2.28209 3.12182 0
M  V30 4716 H 429.132 -2.07726 3.48719 0
M  V30 4717 H 429.898 -0.00115963 4.85 0
M  V30 4718 H 425.777 -1.16392 4.46065 0
M  V30 4719 H 429.321 1.32954 6.84813 0
M  V30 4720 H 425.218 0.159815 6.45302 0
M  V30 4721 H 425.986 1.48758 8.04868 0
M  V30 4722 N 428.649 -1.55105 -0.279332 0
M  V30 4723 C 429.896 -1.75412 -1.01177 0
M  V30 4724 C 430.224 -0.551728 -1.86511 0
M  V30 4725 O 429.479 0.465919 -1.90073 0
M  V30 4726 C 429.778 -3.0086 -1.92919 0
M  V30 4727 C 429.444 -4.33689 -1.23387 0
M  V30 4728 C 428.106 -4.69792 -1.04159 0
M  V30 4729 C 430.458 -5.15941 -0.738562 0
M  V30 4730 C 427.786 -5.85707 -0.341166 0
M  V30 4731 C 430.138 -6.32579 -0.0517636 0
M  V30 4732 C 428.802 -6.67326 0.152292 0
M  V30 4733 H 428.072 -0.641879 -0.370233 0
M  V30 4734 H 430.719 -1.89373 -0.284627 0
M  V30 4735 H 429.024 -2.81773 -2.72234 0
M  V30 4736 H 430.721 -3.13768 -2.49701 0
M  V30 4737 H 427.311 -4.05309 -1.39364 0
M  V30 4738 H 431.495 -4.8853 -0.874764 0
M  V30 4739 H 426.751 -6.11157 -0.172287 0
M  V30 4740 H 430.925 -6.9557 0.339828 0
M  V30 4741 H 428.552 -7.56998 0.697014 0
M  V30 4742 N 430.127 0.543554 -1.4793 0
M  V30 4743 C 431.057 1.65888 -1.64327 0
M  V30 4744 C 432.038 1.62818 -0.492383 0
M  V30 4745 O 433.223 1.80226 -0.723338 0
M  V30 4746 C 430.353 3.04506 -1.67013 0
M  V30 4747 C 429.307 3.2243 -2.81466 0
M  V30 4748 C 428.633 4.61972 -2.69233 0
M  V30 4749 C 429.933 3.06496 -4.22915 0
M  V30 4750 H 431.627 1.52421 -2.57698 0
M  V30 4751 H 429.173 0.731849 -1.24016 0
M  V30 4752 H 431.126 3.82391 -1.77074 0
M  V30 4753 H 429.85 3.18964 -0.70212 0
M  V30 4754 H 428.509 2.46957 -2.70938 0
M  V30 4755 H 428.157 4.73247 -1.7043 0
M  V30 4756 H 427.857 4.74911 -3.46025 0
M  V30 4757 H 429.381 5.41974 -2.81242 0
M  V30 4758 H 430.795 3.74186 -4.34348 0
M  V30 4759 H 429.192 3.30938 -5.006 0
M  V30 4760 H 430.262 2.03077 -4.40327 0
M  V30 4761 N 431.605 1.3629 0.791371 0
M  V30 4762 C 432.852 1.30412 1.54916 0
M  V30 4763 C 433.18 -0.117162 1.94147 0
M  V30 4764 O 432.435 -1.08599 1.62803 0
M  V30 4765 C 432.734 2.17068 2.8393 0
M  V30 4766 C 432.4 3.65645 2.63846 0
M  V30 4767 C 431.062 4.0614 2.58077 0
M  V30 4768 C 433.414 4.59855 2.45322 0
M  V30 4769 C 430.742 5.3899 2.31748 0
M  V30 4770 C 433.094 5.9292 2.2052 0
M  V30 4771 C 431.758 6.32542 2.13183 0
M  V30 4772 H 431.028 0.47721 0.566879 0
M  V30 4773 H 433.675 1.68325 0.913172 0
M  V30 4774 H 431.98 1.72085 3.51986 0
M  V30 4775 H 433.677 2.09846 3.4171 0
M  V30 4776 H 430.267 3.33518 2.69191 0
M  V30 4777 H 434.451 4.29443 2.48782 0
M  V30 4778 H 429.707 5.68672 2.24548 0
M  V30 4779 H 433.881 6.65487 2.05182 0
M  V30 4780 H 431.508 7.35412 1.92544 0
M  V30 4781 N 433.083 -1.0153 1.20538 0
M  V30 4782 C 434.36 -1.72327 0.925343 0
M  V30 4783 C 434.74 -2.03383 -0.565547 0
M  V30 4784 O 434.088 -1.69934 -1.52757 0
M  V30 4785 C 434.298 -2.9902 1.79967 0
M  V30 4786 C 435.646 -3.72258 2.04228 0
M  V30 4787 O 436.67 -3.08979 1.77231 0
M  V30 4788 O 435.529 -4.86053 2.4983 0
M  V30 4789 H 432.623 -0.751099 0.346092 0
M  V30 4790 H 435.169 -1.07366 1.31417 0
M  V30 4791 H 433.941 -2.72402 2.80915 0
M  V30 4792 H 433.564 -3.71721 1.41099 0
M  V30 4793 N 434.561 -1.01147 -1.20859 0
M  V30 4794 C 435.81 -0.693214 -1.89413 0
M  V30 4795 C 436.123 0.779969 -1.79376 0
M  V30 4796 O 437.329 1.21057 -2.43017 0
M  V30 4797 C 435.785 -1.18949 -3.39675 0
M  V30 4798 C 435.393 -2.68921 -3.58309 0
M  V30 4799 C 437.137 -0.94642 -4.13815 0
M  V30 4800 C 435.044 -3.12056 -5.0237 0
M  V30 4801 H 433.974 -0.255595 -0.709357 0
M  V30 4802 H 436.625 -1.22349 -1.36759 0
M  V30 4803 H 435.007 -0.587228 -3.91622 0
M  V30 4804 H 436.181 -3.34652 -3.16772 0
M  V30 4805 H 434.496 -2.91314 -2.97532 0
M  V30 4806 H 437.093 -1.24417 -5.20023 0
M  V30 4807 H 437.436 0.117219 -4.16135 0
M  V30 4808 H 437.969 -1.5118 -3.67953 0
M  V30 4809 H 434.708 -4.17674 -5.05202 0
M  V30 4810 H 434.228 -2.51041 -5.44737 0
M  V30 4811 H 435.907 -3.04403 -5.70918 0
M  V30 4812 N 436.039 1.36541 -0.78704 0
M  V30 4813 C 436.969 2.32659 -0.197992 0
M  V30 4814 C 437.95 1.56533 0.665697 0
M  V30 4815 O 439.135 1.84698 0.60001 0
M  V30 4816 C 436.265 3.40778 0.669901 0
M  V30 4817 C 435.219 4.27897 -0.0937039 0
M  V30 4818 C 434.545 5.27163 0.894629 0
M  V30 4819 C 435.845 5.06334 -1.28154 0
M  V30 4820 H 437.539 2.82171 -1.00099 0
M  V30 4821 H 435.085 1.35665 -0.482793 0
M  V30 4822 H 437.038 4.07008 1.09191 0
M  V30 4823 H 435.762 2.89827 1.50558 0
M  V30 4824 H 434.421 3.6322 -0.49666 0
M  V30 4825 H 434.069 4.72486 1.72527 0
M  V30 4826 H 433.769 5.86317 0.388149 0
M  V30 4827 H 435.293 5.96266 1.31525 0
M  V30 4828 H 436.707 5.65617 -0.93541 0
M  V30 4829 H 435.104 5.74888 -1.72115 0
M  V30 4830 H 436.174 4.38114 -2.07807 0
M  V30 4831 N 437.518 0.538854 1.48102 0
M  V30 4832 C 438.795 -0.0568108 1.95517 0
M  V30 4833 C 439.175 -1.50408 1.48124 0
M  V30 4834 O 438.523 -2.17133 0.711727 0
M  V30 4835 C 438.733 0.0696262 3.48931 0
M  V30 4836 C 440.081 -0.0851202 4.24515 0
M  V30 4837 O 441.105 -0.0037347 3.562 0
M  V30 4838 O 439.964 -0.257025 5.45895 0
M  V30 4839 H 437.058 -0.0743695 0.823649 0
M  V30 4840 H 439.604 0.604081 1.58584 0
M  V30 4841 H 438.376 1.07744 3.76174 0
M  V30 4842 H 437.999 -0.629714 3.92582 0
M  V30 4843 N 438.996 -1.55193 0.274407 0
M  V30 4844 C 439.944 -2.23924 -0.629362 0
M  V30 4845 C 440.938 -1.23602 -1.1584 0
M  V30 4846 O 442.144 -1.41535 -1.11211 0
M  V30 4847 H 438.519 -0.718637 -0.221507 0
M  V30 4848 H 440.49 -2.98388 -0.0268322 0
M  V30 4849 C 439.239 -2.97329 -1.80252 0
M  V30 4850 H 438.562 -3.74313 -1.40462 0
M  V30 4851 H 440.002 -3.48743 -2.41152 0
M  V30 4852 C 438.461 -2.0276 -2.69054 0
M  V30 4853 O 438.991 -1.57836 -3.69392 0
M  V30 4854 N 437.197 -1.69275 -2.36208 0
M  V30 4855 H 436.744 -2.06004 -1.54661 0
M  V30 4856 H 436.702 -1.06271 -2.95895 0
M  V30 4857 N 440.474 -0.00167713 -1.576 0
M  V30 4858 C 441.721 0.68282 -1.90641 0
M  V30 4859 C 442.049 1.73686 -0.875415 0
M  V30 4860 O 441.304 1.95334 0.119575 0
M  V30 4861 C 441.603 1.36189 -3.30435 0
M  V30 4862 C 441.269 0.440887 -4.48739 0
M  V30 4863 C 439.931 0.187312 -4.80835 0
M  V30 4864 C 442.283 -0.193134 -5.20842 0
M  V30 4865 C 439.611 -0.70855 -5.82406 0
M  V30 4866 C 441.963 -1.07688 -6.23367 0
M  V30 4867 C 440.627 -1.33962 -6.53919 0
M  V30 4868 H 439.897 0.249862 -0.697603 0
M  V30 4869 H 442.544 -0.0575642 -1.91413 0
M  V30 4870 H 440.849 2.17636 -3.25794 0
M  V30 4871 H 442.546 1.89759 -3.5326 0
M  V30 4872 H 439.136 0.648694 -4.23663 0
M  V30 4873 H 443.32 -0.0102445 -4.96299 0
M  V30 4874 H 438.576 -0.920097 -6.04437 0
M  V30 4875 H 442.75 -1.57451 -6.78367 0
M  V30 4876 H 440.377 -2.03549 -7.32442 0
M  V30 4877 N 441.952 1.55251 0.271103 0
M  V30 4878 C 442.9 1.89054 1.35504 0
M  V30 4879 C 443.894 0.767064 1.51038 0
M  V30 4880 O 445.1 0.951429 1.528 0
M  V30 4881 H 441.475 0.600072 0.45323 0
M  V30 4882 H 443.446 2.79598 1.04247 0
M  V30 4883 C 442.195 2.18068 2.70817 0
M  V30 4884 H 441.518 3.04005 2.59656 0
M  V30 4885 H 442.958 2.4564 3.45597 0
M  V30 4886 C 441.417 0.988901 3.2206 0
M  V30 4887 O 441.947 0.224501 4.01072 0
M  V30 4888 N 440.153 0.786085 2.79766 0
M  V30 4889 H 439.7 1.40937 2.15626 0
M  V30 4890 H 439.658 -0.00969349 3.14399 0
M  V30 4891 N 443.43 -0.535701 1.48216 0
M  V30 4892 C 444.36 -1.65014 1.65204 0
M  V30 4893 C 445.341 -1.62554 0.501011 0
M  V30 4894 O 446.526 -1.7984 0.732886 0
M  V30 4895 C 443.656 -3.03616 1.68626 0
M  V30 4896 C 442.61 -3.20932 2.83172 0
M  V30 4897 C 441.936 -4.60537 2.71679 0
M  V30 4898 C 443.236 -3.04249 4.24535 0
M  V30 4899 H 444.93 -1.51053 2.58502 0
M  V30 4900 H 442.476 -0.725262 1.24402 0
M  V30 4901 H 444.429 -3.81446 1.79099 0
M  V30 4902 H 443.153 -3.18587 0.719026 0
M  V30 4903 H 441.812 -2.45517 2.72244 0
M  V30 4904 H 441.46 -4.72336 1.72937 0
M  V30 4905 H 441.16 -4.73069 3.48538 0
M  V30 4906 H 442.684 -5.40475 2.84112 0
M  V30 4907 H 444.098 -3.71877 4.36326 0
M  V30 4908 H 442.495 -3.28278 5.02348 0
M  V30 4909 H 443.565 -2.00739 4.41397 0
M  V30 4910 N 444.908 -1.36708 -0.784132 0
M  V30 4911 C 445.838 -1.34153 -1.91116 0
M  V30 4912 C 446.819 -0.212121 -1.68772 0
M  V30 4913 O 448.004 -0.410581 -1.8981 0
M  V30 4914 C 445.134 -1.13535 -3.28218 0
M  V30 4915 C 444.088 -2.23356 -3.65097 0
M  V30 4916 C 443.414 -1.87875 -5.00607 0
M  V30 4917 C 444.714 -3.65473 -3.73131 0
M  V30 4918 H 446.408 -2.28459 -1.93512 0
M  V30 4919 H 443.954 -1.09973 -0.929618 0
M  V30 4920 H 445.907 -1.10381 -4.06687 0
M  V30 4921 H 444.631 -0.156804 -3.26223 0
M  V30 4922 H 443.29 -2.25645 -2.88929 0
M  V30 4923 H 442.938 -0.885814 -4.95139 0
M  V30 4924 H 442.638 -2.61406 -5.26252 0
M  V30 4925 H 444.162 -1.86286 -5.81489 0
M  V30 4926 H 445.576 -3.65382 -4.41779 0
M  V30 4927 H 443.973 -4.37953 -4.10265 0
M  V30 4928 H 445.043 -3.99995 -2.74102 0
M  V30 4929 N 446.386 1.0089 -1.21074 0
M  V30 4930 C 447.797 1.56056 -1.02486 0
M  V30 4931 C 448.148 1.91728 0.416506 0
M  V30 4932 O 447.273 1.73066 1.29912 0
M  V30 4933 C 447.868 2.83563 -1.85411 0
M  V30 4934 C 446.427 3.3523 -1.71166 0
M  V30 4935 C 445.574 2.0846 -1.82865 0
M  V30 4936 H 448.525 0.831818 -1.35154 0
M  V30 4937 H 448.546 3.55286 -1.36205 0
M  V30 4938 H 448.058 2.57569 -2.9031 0
M  V30 4939 H 446.159 3.66167 -0.689361 0
M  V30 4940 H 446.272 4.06913 -2.52901 0
M  V30 4941 H 444.636 2.21275 -1.26132 0
M  V30 4942 H 445.419 1.84883 -2.89263 0
M  V30 4943 N 447.864 1.01787 1.20321 0
M  V30 4944 C 449.141 0.622978 1.85414 0
M  V30 4945 C 449.521 -0.898887 1.91006 0
M  V30 4946 O 448.869 -1.79112 1.41884 0
M  V30 4947 C 449.079 1.27226 3.24984 0
M  V30 4948 C 450.427 1.3885 4.01255 0
M  V30 4949 O 451.451 1.22857 3.34342 0
M  V30 4950 O 450.31 1.64705 5.2109 0
M  V30 4951 H 447.404 0.215116 0.798533 0
M  V30 4952 H 449.95 1.11533 1.27901 0
M  V30 4953 H 448.722 2.31209 3.15687 0
M  V30 4954 H 448.345 0.767069 3.90131 0
M  V30 4955 N 449.342 -1.36122 0.79427 0
M  V30 4956 C 450.57 -2.03362 0.380989 0
M  V30 4957 C 450.985 -1.59881 -1.00416 0
M  V30 4958 O 450.342 -0.790515 -1.6449 0
M  V30 4959 C 450.393 -3.58804 0.440649 0
M  V30 4960 O 450.114 -4.007 1.77118 0
M  V30 4961 C 451.615 -4.43296 0.0186117 0
M  V30 4962 H 448.835 -0.652526 0.156367 0
M  V30 4963 H 451.379 -1.73998 1.07447 0
M  V30 4964 H 449.534 -3.8686 -0.204458 0
M  V30 4965 H 449.948 -4.95309 1.72538 0
M  V30 4966 H 451.422 -5.51887 0.111488 0
M  V30 4967 H 451.899 -4.2684 -1.03461 0
M  V30 4968 H 452.505 -4.20512 0.636395 0
M  V30 4969 N 450.82 -0.546701 -1.47814 0
M  V30 4970 C 451.752 0.244196 -2.27895 0
M  V30 4971 C 452.765 0.88911 -1.36377 0
M  V30 4972 O 453.954 0.764733 -1.61289 0
M  V30 4973 C 451.054 1.36252 -3.10304 0
M  V30 4974 C 450.227 0.816382 -4.29714 0
M  V30 4975 C 449.286 1.81789 -4.93801 0
M  V30 4976 O 448.312 1.36818 -5.52512 0
M  V30 4977 N 449.514 3.15085 -4.87547 0
M  V30 4978 H 452.279 -0.442694 -2.96412 0
M  V30 4979 H 449.84 -0.382095 -1.57327 0
M  V30 4980 H 451.832 2.03102 -3.50045 0
M  V30 4981 H 450.402 1.95281 -2.44099 0
M  V30 4982 H 449.622 -0.0285981 -3.9419 0
M  V30 4983 H 450.91 0.430668 -5.06974 0
M  V30 4984 H 450.308 3.54275 -4.41028 0
M  V30 4985 H 448.865 3.77522 -5.31339 0
M  V30 4986 N 452.299 1.55045 -0.282633 0
M  V30 4987 C 453.209 2.26491 0.61147 0
M  V30 4988 C 454.225 1.29348 1.16384 0
M  V30 4989 O 455.401 1.62298 1.19253 0
M  V30 4990 C 452.466 2.97779 1.77563 0
M  V30 4991 C 451.527 4.10418 1.25919 0
M  V30 4992 C 450.76 4.78297 2.36786 0
M  V30 4993 O 450.983 4.45426 3.56303 0
M  V30 4994 O 449.917 5.66089 2.04517 0
M  V30 4995 H 453.743 3.03683 0.0324615 0
M  V30 4996 H 451.328 1.49317 -0.0497576 0
M  V30 4997 H 453.21 3.42554 2.45427 0
M  V30 4998 H 451.885 2.23498 2.34159 0
M  V30 4999 H 450.792 3.70082 0.546797 0
M  V30 5000 H 452.125 4.86622 0.738887 0
M  V30 5001 N 453.777 0.010035 1.57597 0
M  V30 5002 C 455.193 -0.346164 1.55801 0
M  V30 5003 C 455.393 -1.74144 1.01371 0
M  V30 5004 O 454.449 -2.43938 0.651968 0
M  V30 5005 C 455.762 -0.212216 2.9995 0
M  V30 5006 C 457.31 -0.286409 3.11687 0
M  V30 5007 C 457.785 -0.18147 4.5764 0
M  V30 5008 N 459.276 -0.239056 4.62583 0
M  V30 5009 C 460.011 -0.181351 5.73113 0
M  V30 5010 N 459.507 -0.073661 6.92761 0
M  V30 5011 N 461.3 -0.233949 5.61613 0
M  V30 5012 H 453.451 0.922657 1.91313 0
M  V30 5013 H 455.714 0.354595 0.879185 0
M  V30 5014 H 455.42 0.748169 3.4365 0
M  V30 5015 H 455.294 -0.990224 3.6397 0
M  V30 5016 H 457.681 -1.23724 2.67911 0
M  V30 5017 H 457.762 0.521645 2.50425 0
M  V30 5018 H 457.406 0.765863 5.02093 0
M  V30 5019 H 457.336 -1.00814 5.1686 0
M  V30 5020 H 459.827 -0.32321 3.76515 0
M  V30 5021 H 460.14 -0.0358003 7.72792 0
M  V30 5022 H 458.485 -0.0391461 6.94989 0
M  V30 5023 H 461.676 -0.316347 4.6703 0
M  V30 5024 H 461.849 -0.185514 6.47734 0
M  V30 5025 N 455.255 -1.55392 -0.262866 0
M  V30 5026 C 456.502 -1.76476 -0.993109 0
M  V30 5027 C 456.83 -0.571479 -1.85915 0
M  V30 5028 O 456.085 0.445733 -1.90556 0
M  V30 5029 C 456.384 -3.02889 -1.89718 0
M  V30 5030 C 456.05 -4.34974 -1.18781 0
M  V30 5031 C 454.712 -4.7087 -0.991699 0
M  V30 5032 C 457.064 -5.16695 -0.683798 0
M  V30 5033 C 454.392 -5.86036 -0.279024 0
M  V30 5034 C 456.744 -6.32598 0.0153327 0
M  V30 5035 C 455.408 -6.67127 0.223062 0
M  V30 5036 H 454.678 -0.64577 -0.363404 0
M  V30 5037 H 457.325 -1.89664 -0.264525 0
M  V30 5038 H 455.63 -2.84644 -2.6923 0
M  V30 5039 H 457.327 -3.16399 -2.46359 0
M  V30 5040 H 453.917 -4.06765 -1.35058 0
M  V30 5041 H 458.101 -4.8943 -0.8229 0
M  V30 5042 H 453.357 -6.11306 -0.107456 0
M  V30 5043 H 457.531 -6.95171 0.413584 0
M  V30 5044 H 455.158 -7.56216 0.777265 0
M  V30 5045 N 456.733 0.527833 -1.48498 0
M  V30 5046 C 457.963 1.30633 -1.60058 0
M  V30 5047 C 458.371 1.87394 -0.260786 0
M  V30 5048 O 457.714 1.67227 0.760317 0
M  V30 5049 C 457.776 2.49361 -2.58958 0
M  V30 5050 C 457.44 2.13671 -4.03972 0
M  V30 5051 C 458.437 1.69217 -4.91591 0
M  V30 5052 C 456.122 2.24129 -4.49524 0
M  V30 5053 C 458.116 1.35689 -6.2279 0
M  V30 5054 C 455.803 1.90212 -5.80743 0
M  V30 5055 C 456.801 1.46063 -6.67199 0
M  V30 5056 O 456.489 1.12593 -7.95976 0
M  V30 5057 H 456.221 0.403444 -0.54241 0
M  V30 5058 H 458.775 0.643233 -1.95068 0
M  V30 5059 H 457.005 3.18659 -2.19073 0
M  V30 5060 H 458.694 3.11421 -2.6033 0
M  V30 5061 H 459.46 1.60607 -4.57636 0
M  V30 5062 H 455.339 2.57447 -3.82416 0
M  V30 5063 H 458.883 1.01157 -6.90227 0
M  V30 5064 H 454.78 1.98464 -6.14233 0
M  V30 5065 H 455.548 1.25972 -8.08748 0
M  V30 5066 N 458.211 1.37122 0.776871 0
M  V30 5067 C 459.174 1.32301 1.8716 0
M  V30 5068 C 460.174 0.228099 1.59174 0
M  V30 5069 O 461.364 0.483642 1.67352 0
M  V30 5070 C 458.496 1.054 3.24197 0
M  V30 5071 H 459.689 2.29673 1.92848 0
M  V30 5072 H 457.242 1.22077 0.97606 0
M  V30 5073 H 457.977 0.0853872 3.24188 0
M  V30 5074 H 457.762 1.84648 3.45901 0
M  V30 5075 H 459.252 1.04664 4.04271 0
M  V30 5076 N 459.689 -1.00246 1.21608 0
M  V30 5077 C 460.914 -1.78167 1.06167 0
M  V30 5078 C 461.339 -1.84138 -0.384035 0
M  V30 5079 O 460.697 -1.28683 -1.27712 0
M  V30 5080 C 460.745 -3.19786 1.66642 0
M  V30 5081 O 459.849 -4.02153 0.913613 0
M  V30 5082 H 459.19 -0.549 0.37349 0
M  V30 5083 H 461.72 -1.25994 1.61204 0
M  V30 5084 H 461.73 -3.70451 1.70969 0
M  V30 5085 H 460.405 -3.14754 2.7185 0
M  V30 5086 H 458.982 -3.60711 0.945635 0
M  V30 5087 N 461.167 -1.02423 -1.1978 0
M  V30 5088 C 462.413 -0.719051 -1.89625 0
M  V30 5089 C 462.746 0.750083 -1.7913 0
M  V30 5090 O 462.021 1.54574 -1.18056 0
M  V30 5091 C 462.304 -1.16499 -3.40735 0
M  V30 5092 C 462.157 -2.695 -3.60125 0
M  V30 5093 C 463.476 -0.742166 -4.33797 0
M  V30 5094 H 460.595 -0.26269 -0.688595 0
M  V30 5095 H 463.237 -1.27333 -1.41018 0
M  V30 5096 H 461.387 -0.69341 -3.82262 0
M  V30 5097 H 463.059 -3.24569 -3.278 0
M  V30 5098 H 461.302 -3.10113 -3.03336 0
M  V30 5099 H 461.973 -2.95757 -4.66081 0
M  V30 5100 H 464.449 -1.1477 -3.99959 0
M  V30 5101 H 463.325 -1.08213 -5.38127 0
M  V30 5102 H 463.586 0.355747 -4.40666 0
M  V30 5103 N 462.645 1.35699 -0.801477 0
M  V30 5104 C 463.894 1.98165 -0.375979 0
M  V30 5105 C 464.207 1.64306 1.06127 0
M  V30 5106 O 465.413 2.20097 1.58964 0
M  V30 5107 C 463.869 3.54497 -0.621305 0
M  V30 5108 C 463.477 3.9727 -2.07076 0
M  V30 5109 C 465.221 4.23697 -0.26091 0
M  V30 5110 C 463.128 5.46427 -2.26211 0
M  V30 5111 H 462.058 0.741478 -0.136844 0
M  V30 5112 H 464.709 1.54834 -0.984814 0
M  V30 5113 H 463.091 3.95958 0.0574112 0
M  V30 5114 H 464.265 3.66974 -2.78687 0
M  V30 5115 H 462.58 3.40943 -2.39054 0
M  V30 5116 H 465.177 5.33334 -0.381994 0
M  V30 5117 H 465.52 4.0869 0.792344 0
M  V30 5118 H 466.053 3.87639 -0.893339 0
M  V30 5119 H 462.792 5.66396 -3.29963 0
M  V30 5120 H 462.312 5.78309 -1.59119 0
M  V30 5121 H 463.991 6.12819 -2.07513 0
M  V30 5122 N 464.123 0.554532 1.47522 0
M  V30 5123 C 465.372 0.0273458 2.01681 0
M  V30 5124 C 465.685 -1.32962 1.43459 0
M  V30 5125 O 466.891 -1.94657 1.89265 0
M  V30 5126 C 465.347 -0.00159057 3.599 0
M  V30 5127 C 464.955 1.35197 4.27113 0
M  V30 5128 C 466.699 -0.476311 4.21819 0
M  V30 5129 C 464.606 1.28229 5.77331 0
M  V30 5130 H 463.536 0.00645269 0.753972 0
M  V30 5131 H 466.187 0.701985 1.69542 0
M  V30 5132 H 464.569 -0.741821 3.8899 0
M  V30 5133 H 465.743 2.1097 4.09668 0
M  V30 5134 H 464.058 1.76441 3.77171 0
M  V30 5135 H 466.655 -0.5468 5.31897 0
M  V30 5136 H 466.998 -1.4877 3.8881 0
M  V30 5137 H 467.531 0.20898 3.97251 0
M  V30 5138 H 464.27 2.26959 6.14955 0
M  V30 5139 H 463.79 0.566314 5.97121 0
M  V30 5140 H 465.469 0.983226 6.39485 0
M  V30 5141 N 465.601 -1.54893 0.290851 0
M  V30 5142 C 466.533 -2.20564 -0.623236 0
M  V30 5143 C 467.546 -1.19519 -1.1054 0
M  V30 5144 O 468.735 -1.46165 -1.02459 0
M  V30 5145 C 465.835 -2.83033 -1.86401 0
M  V30 5146 C 465.008 -4.09916 -1.52604 0
M  V30 5147 C 464.067 -4.56284 -2.62091 0
M  V30 5148 O 463.093 -5.2171 -2.27612 0
M  V30 5149 N 464.295 -4.27746 -3.92446 0
M  V30 5150 H 467.06 -2.99638 -0.0610915 0
M  V30 5151 H 464.621 -1.61508 0.112615 0
M  V30 5152 H 466.613 -3.1099 -2.58973 0
M  V30 5153 H 465.183 -2.0786 -2.33481 0
M  V30 5154 H 464.403 -3.89078 -0.633424 0
M  V30 5155 H 465.691 -4.92554 -1.27547 0
M  V30 5156 H 465.089 -3.7531 -4.23272 0
M  V30 5157 H 463.646 -4.60437 -4.61347 0
M  V30 5158 N 467.08 -0.0183926 -1.57589 0
M  V30 5159 C 468.028 0.985111 -2.10709 0
M  V30 5160 C 469.022 1.34397 -1.0312 0
M  V30 5161 O 470.228 1.32746 -1.21567 0
M  V30 5162 H 466.603 0.335418 -0.673052 0
M  V30 5163 H 468.574 0.511689 -2.9398 0
M  V30 5164 C 467.323 2.26202 -2.64061 0
M  V30 5165 H 466.646 1.9946 -3.4649 0
M  V30 5166 H 468.086 2.94652 -3.04887 0
M  V30 5167 C 466.545 2.98444 -1.5631 0
M  V30 5168 O 467.075 3.90142 -0.956674 0
M  V30 5169 N 465.281 2.6059 -1.28612 0
M  V30 5170 H 464.828 1.86101 -1.78112 0
M  V30 5171 H 464.786 3.09238 -0.567406 0
M  V30 5172 N 468.558 1.5553 0.254621 0
M  V30 5173 C 469.488 1.9268 1.31897 0
M  V30 5174 C 470.469 0.790797 1.506 0
M  V30 5175 O 471.654 1.05045 1.63337 0
M  V30 5176 C 468.784 2.21477 2.67517 0
M  V30 5177 C 467.738 3.37256 2.63519 0
M  V30 5178 C 467.064 3.51576 4.02862 0
M  V30 5179 C 468.364 4.73157 2.21179 0
M  V30 5180 H 470.058 2.81832 1.01051 0
M  V30 5181 H 467.604 1.35599 0.484662 0
M  V30 5182 H 469.557 2.46055 3.42104 0
M  V30 5183 H 468.281 1.29144 2.99982 0
M  V30 5184 H 466.94 3.12675 1.9139 0
M  V30 5185 H 466.588 2.56676 4.32581 0
M  V30 5186 H 466.288 4.2943 4.01078 0
M  V30 5187 H 467.812 3.78467 4.79161 0
M  V30 5188 H 469.226 4.97158 2.85494 0
M  V30 5189 H 467.623 5.54058 2.30521 0
M  V30 5190 H 468.693 4.70739 1.16332 0
M  V30 5191 N 470.036 -0.519951 1.48776 0
M  V30 5192 C 471.447 -1.10177 1.50725 0
M  V30 5193 C 471.798 -1.94153 0.282678 0
M  V30 5194 O 470.923 -2.07645 -0.609298 0
M  V30 5195 C 471.518 -2.00482 2.73116 0
M  V30 5196 C 470.077 -2.53862 2.77905 0
M  V30 5197 C 469.224 -1.31047 2.44381 0
M  V30 5198 H 472.175 -0.30473 1.55747 0
M  V30 5199 H 472.196 -2.8491 2.52203 0
M  V30 5200 H 471.708 -1.39335 3.62225 0
M  V30 5201 H 469.809 -3.18702 1.93029 0
M  V30 5202 H 469.922 -2.9231 3.79594 0
M  V30 5203 H 468.286 -1.62953 1.95751 0
M  V30 5204 H 469.069 -0.71637 3.35743 0
M  V30 5205 N 471.514 -1.37532 -0.769588 0
M  V30 5206 C 472.477 -1.33292 -1.86456 0
M  V30 5207 C 473.477 -0.236537 -1.59051 0
M  V30 5208 O 474.667 -0.492511 -1.67093 0
M  V30 5209 C 471.799 -1.07118 -3.23633 0
M  V30 5210 H 472.992 -2.30692 -1.91628 0
M  V30 5211 H 470.545 -1.22593 -0.969572 0
M  V30 5212 H 471.28 -0.102578 -3.24138 0
M  V30 5213 H 471.065 -1.86479 -3.44917 0
M  V30 5214 H 472.555 -1.06806 -4.03711 0
M  V30 5215 N 472.992 0.995999 -1.22138 0
M  V30 5216 C 473.922 2.10387 -1.01289 0
M  V30 5217 C 474.903 1.69975 0.0651454 0
M  V30 5218 O 476.088 1.9396 -0.0964628 0
M  V30 5219 C 473.218 3.42312 -0.586517 0
M  V30 5220 C 472.172 3.96558 -1.61014 0
M  V30 5221 C 471.498 5.24494 -1.0397 0
M  V30 5222 C 472.798 4.27595 -2.99933 0
M  V30 5223 H 474.492 2.28086 -1.93951 0
M  V30 5224 H 472.038 1.09607 -0.933928 0
M  V30 5225 H 473.991 4.19223 -0.427793 0
M  V30 5226 H 472.715 3.24431 0.375761 0
M  V30 5227 H 471.374 3.21776 -1.75658 0
M  V30 5228 H 471.022 5.02953 -0.0688703 0
M  V30 5229 H 470.722 5.61755 -1.72352 0
M  V30 5230 H 472.246 6.04042 -0.892494 0
M  V30 5231 H 473.66 4.95315 -2.8868 0
M  V30 5232 H 472.057 4.76021 -3.6541 0
M  V30 5233 H 473.127 3.35498 -3.50099 0
M  V30 5234 N 474.47 1.03057 1.19235 0
M  V30 5235 C 475.418 0.606391 2.24557 0
M  V30 5236 C 476.412 -0.361826 1.65491 0
M  V30 5237 O 477.618 -0.23022 1.78522 0
M  V30 5238 H 473.993 0.177838 0.730669 0
M  V30 5239 H 475.964 1.50529 2.5765 0
M  V30 5240 C 474.713 -0.0252127 3.47691 0
M  V30 5241 H 474.036 0.710838 3.9343 0
M  V30 5242 H 475.476 -0.284931 4.23042 0
M  V30 5243 C 473.935 -1.27229 3.11953 0
M  V30 5244 O 474.465 -2.36416 3.24762 0
M  V30 5245 N 472.671 -1.16169 2.6637 0
M  V30 5246 H 472.218 -0.273189 2.56147 0
M  V30 5247 H 472.176 -1.99703 2.42829 0
M  V30 5248 N 475.948 -1.35272 0.808662 0
M  V30 5249 C 477.173 -2.03477 0.401475 0
M  V30 5250 C 477.598 -1.60537 -0.980279 0
M  V30 5251 O 476.956 -0.78304 -1.63518 0
M  V30 5252 C 477.004 -3.57181 0.495354 0
M  V30 5253 O 476.108 -4.09474 -0.490397 0
M  V30 5254 H 475.449 -0.642561 0.167366 0
M  V30 5255 H 477.979 -1.72824 1.09512 0
M  V30 5256 H 477.989 -4.06356 0.365912 0
M  V30 5257 H 476.664 -3.87784 1.5032 0
M  V30 5258 H 475.241 -3.71516 -0.321023 0
M  V30 5259 N 477.426 -0.562348 -1.47226 0
M  V30 5260 C 478.389 0.172056 -2.28553 0
M  V30 5261 C 479.389 0.837928 -1.37242 0
M  V30 5262 O 480.579 0.693001 -1.59822 0
M  V30 5263 C 477.711 1.25223 -3.17068 0
M  V30 5264 H 478.904 -0.542401 -2.94954 0
M  V30 5265 H 476.457 -0.319493 -1.53 0
M  V30 5266 H 477.192 1.99892 -2.55369 0
M  V30 5267 H 476.977 0.779515 -3.84273 0
M  V30 5268 H 478.467 1.76791 -3.78332 0
M  V30 5269 N 478.904 1.54736 -0.299062 0
M  V30 5270 C 480.153 1.99279 0.311549 0
M  V30 5271 C 480.466 1.19107 1.55154 0
M  V30 5272 O 481.672 1.53908 2.23662 0
M  V30 5273 C 480.128 3.54768 0.605632 0
M  V30 5274 C 479.736 4.43746 -0.615914 0
M  V30 5275 C 481.48 4.07841 1.17754 0
M  V30 5276 C 479.387 5.90663 -0.29509 0
M  V30 5277 H 478.317 0.744359 0.120187 0
M  V30 5278 H 480.968 1.78919 -0.407464 0
M  V30 5279 H 479.35 3.71021 1.38419 0
M  V30 5280 H 480.524 4.39267 -1.39218 0
M  V30 5281 H 478.839 4.01434 -1.10633 0
M  V30 5282 H 481.436 5.15174 1.43179 0
M  V30 5283 H 481.779 3.58324 2.11918 0
M  V30 5284 H 482.312 3.95123 0.460739 0
M  V30 5285 H 479.051 6.44325 -1.20524 0
M  V30 5286 H 478.571 5.98155 0.44394 0
M  V30 5287 H 480.25 6.46916 0.104048 0
M  V30 5288 N 480.382 0.0267497 1.57577 0
M  V30 5289 C 481.33 -0.973923 2.11229 0
M  V30 5290 C 482.324 -1.33849 1.03831 0
M  V30 5291 O 483.53 -1.321 1.22269 0
M  V30 5292 H 479.905 -0.331844 0.674821 0
M  V30 5293 H 481.876 -0.496092 2.94247 0
M  V30 5294 C 480.625 -2.24798 2.65257 0
M  V30 5295 H 479.948 -1.9762 3.47543 0
M  V30 5296 H 481.388 -2.93031 3.06445 0
M  V30 5297 C 479.847 -2.97611 1.57891 0
M  V30 5298 O 480.377 -3.89629 0.97735 0
M  V30 5299 N 478.583 -2.59905 1.29992 0
M  V30 5300 H 478.13 -1.85154 1.79097 0
M  V30 5301 H 478.088 -3.08932 0.583798 0
M  V30 5302 N 481.861 -1.55662 -0.24637 0
M  V30 5303 C 483.272 -1.67953 -0.81539 0
M  V30 5304 C 483.623 -0.624302 -1.86002 0
M  V30 5305 O 482.748 0.229328 -2.15181 0
M  V30 5306 C 483.343 -3.04484 -1.48576 0
M  V30 5307 C 481.902 -3.18713 -2.00248 0
M  V30 5308 C 481.049 -2.6383 -0.853766 0
M  V30 5309 H 484 -1.58685 -0.0221692 0
M  V30 5310 H 484.021 -2.98959 -2.3538 0
M  V30 5311 H 483.533 -3.81264 -0.725222 0
M  V30 5312 H 481.634 -2.46757 -2.79181 0
M  V30 5313 H 481.747 -4.25628 -2.1995 0
M  V30 5314 H 480.111 -2.21667 -1.25442 0
M  V30 5315 H 480.894 -3.43135 -0.106302 0
M  V30 5316 N 483.339 0.512053 -1.4905 0
M  V30 5317 C 484.269 1.62365 -1.67809 0
M  V30 5318 C 485.25 1.61737 -0.526809 0
M  V30 5319 O 486.435 1.78651 -0.761404 0
M  V30 5320 C 483.565 3.00895 -1.73435 0
M  V30 5321 C 482.519 3.16387 -2.88242 0
M  V30 5322 C 481.845 4.56157 -2.78971 0
M  V30 5323 C 483.145 2.97457 -4.29321 0
M  V30 5324 H 484.839 1.46921 -2.60873 0
M  V30 5325 H 482.385 0.705379 -1.2554 0
M  V30 5326 H 484.338 3.78549 -1.85145 0
M  V30 5327 H 483.062 3.17403 -0.769619 0
M  V30 5328 H 481.721 2.41155 -2.76116 0
M  V30 5329 H 481.369 4.69525 -1.8043 0
M  V30 5330 H 481.069 4.67465 -3.5602 0
M  V30 5331 H 482.593 5.35886 -2.92675 0
M  V30 5332 H 484.007 3.64888 -4.42187 0
M  V30 5333 H 482.404 3.20245 -5.07507 0
M  V30 5334 H 483.474 1.93692 -4.44535 0
M  V30 5335 N 484.817 1.37938 0.762283 0
M  V30 5336 C 486.066 1.32989 1.51647 0
M  V30 5337 C 486.379 -0.0802922 1.95435 0
M  V30 5338 O 487.585 -0.252295 2.70325 0
M  V30 5339 C 486.041 2.33485 2.73885 0
M  V30 5340 C 485.649 3.80079 2.37157 0
M  V30 5341 C 487.393 2.37563 3.51801 0
M  V30 5342 C 485.3 4.72283 3.55954 0
M  V30 5343 H 484.23 0.494301 0.56937 0
M  V30 5344 H 486.881 1.63448 0.834083 0
M  V30 5345 H 485.263 1.96056 3.44061 0
M  V30 5346 H 486.437 4.26398 1.74704 0
M  V30 5347 H 484.752 3.79037 1.72395 0
M  V30 5348 H 487.349 3.0365 4.40114 0
M  V30 5349 H 487.692 1.39199 3.92338 0
M  V30 5350 H 488.225 2.73747 2.8863 0
M  V30 5351 H 484.964 5.7181 3.2049 0
M  V30 5352 H 484.484 4.30663 4.1748 0
M  V30 5353 H 486.163 4.89876 4.22647 0
M  V30 5354 N 486.295 -0.989507 1.22664 0
M  V30 5355 C 487.525 -1.7624 1.0781 0
M  V30 5356 C 487.933 -1.85466 -0.374036 0
M  V30 5357 O 487.276 -1.32645 -1.27087 0
M  V30 5358 C 487.338 -3.21007 1.61849 0
M  V30 5359 C 487.002 -3.35316 3.10503 0
M  V30 5360 C 487.999 -3.22362 4.07896 0
M  V30 5361 C 485.684 -3.60258 3.50028 0
M  V30 5362 C 487.678 -3.34139 5.42798 0
M  V30 5363 C 485.365 -3.71676 4.85078 0
M  V30 5364 C 486.363 -3.58625 5.81272 0
M  V30 5365 O 486.051 -3.69655 7.1387 0
M  V30 5366 H 485.783 -0.560209 0.378341 0
M  V30 5367 H 488.337 -1.25252 1.62792 0
M  V30 5368 H 486.567 -3.73202 1.01279 0
M  V30 5369 H 488.256 -3.80024 1.42606 0
M  V30 5370 H 489.022 -3.03 3.78703 0
M  V30 5371 H 484.901 -3.69492 2.75675 0
M  V30 5372 H 488.445 -3.23869 6.17863 0
M  V30 5373 H 484.342 -3.90545 5.1395 0
M  V30 5374 H 485.11 -3.86507 7.21495 0
M  V30 5375 N 487.773 -1.03688 -1.18687 0
M  V30 5376 C 489.013 -0.746858 -1.90267 0
M  V30 5377 C 489.377 0.712075 -1.78307 0
M  V30 5378 O 490.578 1.11553 -2.44559 0
M  V30 5379 C 488.849 -1.19543 -3.36815 0
M  V30 5380 S 490.408 -1.03047 -4.26529 0
M  V30 5381 H 487.226 -0.271663 -0.657054 0
M  V30 5382 H 489.828 -1.32838 -1.43437 0
M  V30 5383 H 488.532 -2.2527 -3.43047 0
M  V30 5384 H 488.063 -0.607533 -3.88681 0
M  V30 5385 H 490.078 0.0543232 -4.9617 0
M  V30 5386 N 489.251 1.34841 -0.815825 0
M  V30 5387 C 490.497 1.98793 -0.401129 0
M  V30 5388 C 490.83 1.64548 1.03139 0
M  V30 5389 O 490.105 0.913487 1.71714 0
M  V30 5390 C 490.388 3.55143 -0.595409 0
M  V30 5391 C 490.241 3.99155 -2.07352 0
M  V30 5392 C 491.56 4.40092 -0.0268823 0
M  V30 5393 H 488.679 0.722146 -0.14722 0
M  V30 5394 H 491.321 1.59847 -1.02707 0
M  V30 5395 H 489.471 3.8845 -0.0625779 0
M  V30 5396 H 491.143 3.76216 -2.66945 0
M  V30 5397 H 489.386 3.49726 -2.56659 0
M  V30 5398 H 490.057 5.07971 -2.1603 0
M  V30 5399 H 492.533 4.13298 -0.482042 0
M  V30 5400 H 491.409 5.48562 -0.19267 0
M  V30 5401 H 491.67 4.29016 1.06759 0
M  V30 5402 N 490.729 0.570148 1.46925 0
M  V30 5403 C 491.976 0.0509529 2.02436 0
M  V30 5404 C 492.304 -1.30405 1.44308 0
M  V30 5405 O 491.559 -1.86493 0.593198 0
M  V30 5406 C 491.858 -0.0780336 3.57315 0
M  V30 5407 C 491.524 1.20775 4.34424 0
M  V30 5408 C 490.186 1.56004 4.5521 0
M  V30 5409 C 492.538 2.0592 4.78797 0
M  V30 5410 C 489.866 2.76201 5.17619 0
M  V30 5411 C 492.218 3.25332 5.42533 0
M  V30 5412 C 490.882 3.60859 5.61549 0
M  V30 5413 H 490.152 0.018645 0.740765 0
M  V30 5414 H 492.799 0.744262 1.76445 0
M  V30 5415 H 491.104 -0.854394 3.82371 0
M  V30 5416 H 492.801 -0.495312 3.97929 0
M  V30 5417 H 489.391 0.923469 4.18533 0
M  V30 5418 H 493.575 1.80008 4.62505 0
M  V30 5419 H 488.831 3.0388 5.30535 0
M  V30 5420 H 493.005 3.91586 5.75876 0
M  V30 5421 H 490.632 4.54088 6.09678 0
M  V30 5422 N 492.207 -1.54576 0.307264 0
M  V30 5423 C 493.432 -2.05139 -0.305379 0
M  V30 5424 C 493.857 -1.18278 -1.46259 0
M  V30 5425 O 493.215 -0.188243 -1.8032 0
M  V30 5426 C 493.263 -3.53066 -0.733283 0
M  V30 5427 O 492.367 -3.69206 -1.83741 0
M  V30 5428 H 491.708 -0.661444 -0.0582105 0
M  V30 5429 H 494.238 -1.99569 0.450931 0
M  V30 5430 H 494.248 -3.95034 -1.02039 0
M  V30 5431 H 492.923 -4.15746 0.113198 0
M  V30 5432 H 491.5 -3.39143 -1.55037 0
M  V30 5433 N 493.685 -0.035106 -1.57561 0
M  V30 5434 C 494.91 0.655802 -1.96759 0
M  V30 5435 C 495.335 1.64523 -0.911809 0
M  V30 5436 O 494.693 1.80857 0.126673 0
M  V30 5437 C 494.741 1.33326 -3.35047 0
M  V30 5438 O 493.845 2.44866 -3.31835 0
M  V30 5439 H 493.186 0.171807 -0.641388 0
M  V30 5440 H 495.716 -0.0987369 -2.04362 0
M  V30 5441 H 495.726 1.68867 -3.71413 0
M  V30 5442 H 494.401 0.608033 -4.11431 0
M  V30 5443 H 492.978 2.11392 -3.07193 0
M  V30 5444 N 495.163 1.55791 0.238111 0
M  V30 5445 C 496.388 1.8244 0.986432 0
M  V30 5446 C 496.813 0.613314 1.7782 0
M  V30 5447 O 496.171 -0.437767 1.75935 0
M  V30 5448 C 496.219 3.06917 1.893 0
M  V30 5449 O 495.323 2.84449 2.98601 0
M  V30 5450 H 494.664 0.601975 0.280218 0
M  V30 5451 H 497.194 2.02987 0.256437 0
M  V30 5452 H 497.204 3.36583 2.30598 0
M  V30 5453 H 495.879 3.947 1.31091 0
M  V30 5454 H 494.456 2.65972 2.61368 0
M  V30 5455 N 496.642 -0.504142 1.49319 0
M  V30 5456 C 497.891 -1.25507 1.57895 0
M  V30 5457 C 498.204 -1.93735 0.269433 0
M  V30 5458 O 499.41 -2.70492 0.233706 0
M  V30 5459 C 497.866 -2.27869 2.78574 0
M  V30 5460 C 497.474 -1.65594 4.16272 0
M  V30 5461 C 499.218 -3.0381 2.96479 0
M  V30 5462 C 497.125 -2.66048 5.28178 0
M  V30 5463 H 496.055 -0.47212 0.587894 0
M  V30 5464 H 498.706 -0.52931 1.757 0
M  V30 5465 H 497.088 -3.03594 2.54257 0
M  V30 5466 H 498.262 -0.958826 4.50714 0
M  V30 5467 H 496.577 -1.02055 4.037 0
M  V30 5468 H 499.174 -3.78925 3.77253 0
M  V30 5469 H 499.517 -3.61235 2.06918 0
M  V30 5470 H 500.05 -2.352 3.20821 0
M  V30 5471 H 496.789 -2.13408 6.19788 0
M  V30 5472 H 496.309 -3.34009 4.98195 0
M  V30 5473 H 497.988 -3.28536 5.57381 0
M  V30 5474 N 498.12 -1.38341 -0.754957 0
M  V30 5475 C 499.345 -1.37882 -1.5493 0
M  V30 5476 C 499.77 0.0296385 -1.88077 0
M  V30 5477 O 499.128 1.01133 -1.50472 0
M  V30 5478 C 499.176 -2.23996 -2.82592 0
M  V30 5479 O 498.28 -1.65612 -3.77686 0
M  V30 5480 H 497.621 -0.470384 -0.468652 0
M  V30 5481 H 500.151 -1.82084 -0.933082 0
M  V30 5482 H 500.161 -2.37806 -3.3153 0
M  V30 5483 H 498.836 -3.26365 -2.57796 0
M  V30 5484 H 497.413 -1.60936 -3.36384 0
M  V30 5485 N 499.598 0.982988 -1.23187 0
M  V30 5486 C 500.845 1.72392 -1.06241 0
M  V30 5487 C 501.173 1.9032 0.40108 0
M  V30 5488 O 500.428 1.45084 1.31336 0
M  V30 5489 C 500.727 3.12736 -1.73006 0
M  V30 5490 C 500.393 3.14695 -3.22921 0
M  V30 5491 C 499.055 3.14937 -3.63824 0
M  V30 5492 C 501.407 3.10211 -4.1883 0
M  V30 5493 C 498.735 3.08408 -4.99101 0
M  V30 5494 C 501.087 3.05224 -5.54095 0
M  V30 5495 C 499.751 3.03787 -5.94365 0
M  V30 5496 H 499.021 0.630829 -0.388762 0
M  V30 5497 H 501.668 1.15053 -1.53085 0
M  V30 5498 H 499.973 3.73446 -1.18514 0
M  V30 5499 H 501.67 3.68828 -1.57374 0
M  V30 5500 H 498.26 3.15262 -2.90358 0
M  V30 5501 H 502.444 3.09166 -3.8824 0
M  V30 5502 H 497.7 3.05646 -5.29519 0
M  V30 5503 H 501.874 3.00712 -6.28128 0
M  V30 5504 H 499.501 2.98483 -6.99151 0
M  V30 5505 N 501.076 1.04316 1.18135 0
M  V30 5506 C 502.487 0.775505 1.69832 0
M  V30 5507 C 502.838 -0.703348 1.8316 0
M  V30 5508 O 501.963 -1.54729 1.51287 0
M  V30 5509 C 502.558 1.40112 3.0847 0
M  V30 5510 C 501.117 1.18172 3.57368 0
M  V30 5511 C 500.264 1.49022 2.33854 0
M  V30 5512 H 503.215 1.20925 1.02775 0
M  V30 5513 H 503.236 0.805672 3.71873 0
M  V30 5514 H 502.748 2.47744 2.98738 0
M  V30 5515 H 500.849 0.124258 3.72393 0
M  V30 5516 H 500.962 1.8805 4.40652 0
M  V30 5517 H 499.326 0.909995 2.37889 0
M  V30 5518 H 500.109 2.57768 2.26738 0
M  V30 5519 N 502.554 -1.34406 0.822964 0
M  V30 5520 C 503.794 -2.00103 0.416915 0
M  V30 5521 C 504.158 -1.63826 -1.00125 0
M  V30 5522 O 505.359 -2.22367 -1.51018 0
M  V30 5523 C 503.63 -3.52101 0.613151 0
M  V30 5524 S 505.189 -4.37774 0.299956 0
M  V30 5525 H 502.007 -0.69333 0.157527 0
M  V30 5526 H 504.609 -1.63698 1.06879 0
M  V30 5527 H 503.313 -3.75991 1.64496 0
M  V30 5528 H 502.844 -3.93364 -0.0534554 0
M  V30 5529 H 504.859 -4.8822 -0.886336 0
M  V30 5530 N 504.032 -0.577932 -1.46621 0
M  V30 5531 C 505.448 -0.239242 -1.57797 0
M  V30 5532 C 505.648 1.25843 -1.57371 0
M  V30 5533 O 504.704 2.03988 -1.48813 0
M  V30 5534 C 506.017 -0.884227 -2.87405 0
M  V30 5535 C 507.565 -0.857373 -3.01028 0
M  V30 5536 C 508.04 -1.48181 -4.33366 0
M  V30 5537 N 509.531 -1.44593 -4.40053 0
M  V30 5538 C 510.266 -1.89852 -5.41058 0
M  V30 5539 N 509.762 -2.43062 -6.48762 0
M  V30 5540 N 511.555 -1.80797 -5.3223 0
M  V30 5541 H 503.706 -1.55073 -1.45142 0
M  V30 5542 H 505.969 -0.647903 -0.692044 0
M  V30 5543 H 505.675 -1.93759 -2.93514 0
M  V30 5544 H 505.549 -0.389585 -3.75183 0
M  V30 5545 H 507.936 0.187357 -2.94505 0
M  V30 5546 H 508.017 -1.38999 -2.14739 0
M  V30 5547 H 507.661 -2.52572 -4.40647 0
M  V30 5548 H 507.591 -0.924464 -5.18422 0
M  V30 5549 H 510.082 -1.05694 -3.62819 0
M  V30 5550 H 510.395 -2.75466 -7.22038 0
M  V30 5551 H 508.74 -2.47085 -6.49595 0
M  V30 5552 H 511.931 -1.38989 -4.46989 0
M  V30 5553 H 512.104 -2.16385 -6.10804 0
M  V30 5554 N 505.51 1.54411 -0.315457 0
M  V30 5555 C 506.42 2.27737 0.56329 0
M  V30 5556 C 507.436 1.31787 1.13614 0
M  V30 5557 O 508.612 1.64791 1.15784 0
M  V30 5558 C 505.677 3.01478 1.71207 0
M  V30 5559 C 504.738 4.12997 1.17185 0
M  V30 5560 C 503.971 4.83212 2.26588 0
M  V30 5561 O 504.194 4.52884 3.46775 0
M  V30 5562 O 503.128 5.70299 1.92463 0
M  V30 5563 H 506.954 3.03683 -0.0319614 0
M  V30 5564 H 504.539 1.49178 -0.0814188 0
M  V30 5565 H 506.421 3.47683 2.38106 0
M  V30 5566 H 505.096 2.28414 2.29366 0
M  V30 5567 H 504.003 3.71159 0.468174 0
M  V30 5568 H 505.336 4.8808 0.635501 0
M  V30 5569 N 506.988 0.0434614 1.5754 0
M  V30 5570 C 507.92 -0.962586 2.08007 0
M  V30 5571 C 508.933 -1.27972 1.00634 0
M  V30 5572 O 510.122 -1.24186 1.28219 0
M  V30 5573 C 507.222 -2.28621 2.50171 0
M  V30 5574 C 506.395 -2.15214 3.80791 0
M  V30 5575 C 505.454 -3.30633 4.09351 0
M  V30 5576 O 504.48 -3.0688 4.79388 0
M  V30 5577 N 505.682 -4.54873 3.60654 0
M  V30 5578 H 508.447 -0.531891 2.94942 0
M  V30 5579 H 506.008 -0.142965 1.61268 0
M  V30 5580 H 508 -3.04689 2.66359 0
M  V30 5581 H 506.57 -2.63283 1.68525 0
M  V30 5582 H 505.79 -1.23785 3.74261 0
M  V30 5583 H 507.078 -2.03475 4.66343 0
M  V30 5584 H 506.476 -4.77063 3.04019 0
M  V30 5585 H 505.033 -5.2806 3.82094 0
M  V30 5586 N 508.466 -1.55915 -0.229846 0
M  V30 5587 C 509.882 -1.48721 -0.579166 0
M  V30 5588 C 510.082 -0.736976 -1.87539 0
M  V30 5589 O 509.138 -0.273258 -2.51017 0
M  V30 5590 C 510.451 -2.9323 -0.666082 0
M  V30 5591 C 511.999 -3.03701 -0.757267 0
M  V30 5592 C 512.474 -4.49552 -0.8756 0
M  V30 5593 N 513.965 -4.53561 -0.940035 0
M  V30 5594 C 514.7 -5.63683 -1.05116 0
M  V30 5595 N 514.196 -6.83576 -1.12675 0
M  V30 5596 N 515.989 -5.51516 -1.08565 0
M  V30 5597 H 508.14 -2.03123 0.620857 0
M  V30 5598 H 510.403 -0.922898 0.21671 0
M  V30 5599 H 510.109 -3.51032 0.21664 0
M  V30 5600 H 509.983 -3.44668 -1.53243 0
M  V30 5601 H 512.37 -2.45969 -1.63043 0
M  V30 5602 H 512.451 -2.55446 0.134583 0
M  V30 5603 H 512.095 -5.079 -0.00692351 0
M  V30 5604 H 512.025 -4.95506 -1.78274 0
M  V30 5605 H 514.516 -3.67215 -0.892269 0
M  V30 5606 H 514.829 -7.63251 -1.21109 0
M  V30 5607 H 513.174 -6.86303 -1.09603 0
M  V30 5608 H 516.365 -4.5678 -1.02319 0
M  V30 5609 H 516.538 -6.37372 -1.1688 0
M  V30 5610 N 509.944 0.496216 -1.49584 0
M  V30 5611 C 511.169 1.27865 -1.63295 0
M  V30 5612 C 511.594 1.85592 -0.306156 0
M  V30 5613 O 510.952 1.66092 0.726851 0
M  V30 5614 C 511 2.38128 -2.7079 0
M  V30 5615 O 510.104 3.42108 -2.30296 0
M  V30 5616 H 509.445 0.377279 -0.546403 0
M  V30 5617 H 511.975 0.593497 -1.95803 0
M  V30 5618 H 511.985 2.8382 -2.93104 0
M  V30 5619 H 510.66 1.95479 -3.67098 0
M  V30 5620 H 509.237 3.02301 -2.18331 0
M  V30 5621 N 511.423 1.38739 0.74761 0
M  V30 5622 C 512.355 1.32341 1.87132 0
M  V30 5623 C 513.368 0.234502 1.61102 0
M  V30 5624 O 514.557 0.492516 1.71571 0
M  V30 5625 C 511.657 1.02915 3.22896 0
M  V30 5626 C 510.83 2.22834 3.76383 0
M  V30 5627 C 509.889 1.90059 4.90677 0
M  V30 5628 O 508.915 2.62615 5.04997 0
M  V30 5629 N 510.117 0.859141 5.74107 0
M  V30 5630 H 512.882 2.29175 1.93129 0
M  V30 5631 H 510.443 1.32678 0.927805 0
M  V30 5632 H 512.435 0.79031 3.96908 0
M  V30 5633 H 511.005 0.148572 3.12247 0
M  V30 5634 H 510.225 2.62747 2.93867 0
M  V30 5635 H 511.513 3.02851 4.08851 0
M  V30 5636 H 510.911 0.257564 5.65113 0
M  V30 5637 H 509.468 0.680189 6.48241 0
M  V30 5638 N 512.901 -0.976442 1.23707 0
M  V30 5639 C 514.178 -1.69296 0.979699 0
M  V30 5640 C 514.558 -2.0508 -0.500555 0
M  V30 5641 O 513.906 -1.74708 -1.47273 0
M  V30 5642 C 514.116 -2.93143 1.89389 0
M  V30 5643 C 515.464 -3.65572 2.15968 0
M  V30 5644 O 516.488 -3.03184 1.86971 0
M  V30 5645 O 515.347 -4.77859 2.65167 0
M  V30 5646 H 512.441 -0.739708 0.369812 0
M  V30 5647 H 514.987 -1.03131 1.34767 0
M  V30 5648 H 513.759 -2.63327 2.89439 0
M  V30 5649 H 513.382 -3.67044 1.52854 0
M  V30 5650 N 514.379 -1.04941 -1.1758 0
M  V30 5651 C 515.604 -0.778253 -1.92245 0
M  V30 5652 C 516.029 0.659707 -1.76152 0
M  V30 5653 O 515.387 1.45803 -1.07755 0
M  V30 5654 C 515.435 -1.16051 -3.41416 0
M  V30 5655 O 514.539 -0.291153 -4.11371 0
M  V30 5656 H 513.88 -0.285619 -0.599431 0
M  V30 5657 H 516.41 -1.40159 -1.49052 0
M  V30 5658 H 516.42 -1.12619 -3.92149 0
M  V30 5659 H 515.095 -2.208 -3.52449 0
M  V30 5660 H 513.672 -0.385851 -3.70898 0
M  V30 5661 N 515.857 1.33968 -0.830081 0
M  V30 5662 C 517.273 1.51003 -0.516742 0
M  V30 5663 C 517.473 1.77286 0.957694 0
M  V30 5664 O 516.529 1.82797 1.74188 0
M  V30 5665 C 517.842 2.67036 -1.38247 0
M  V30 5666 C 519.39 2.80919 -1.38034 0
M  V30 5667 C 519.865 4.00004 -2.23071 0
M  V30 5668 N 521.356 4.07224 -2.20733 0
M  V30 5669 C 522.091 4.98541 -2.83275 0
M  V30 5670 N 521.587 5.95033 -3.54835 0
M  V30 5671 N 523.38 4.91469 -2.72791 0
M  V30 5672 H 515.531 1.15168 -1.78466 0
M  V30 5673 H 517.794 0.565443 -0.760906 0
M  V30 5674 H 517.5 2.54266 -2.42985 0
M  V30 5675 H 517.374 3.62226 -1.05225 0
M  V30 5676 H 519.761 2.93127 -0.340713 0
M  V30 5677 H 519.842 1.86517 -1.75057 0
M  V30 5678 H 519.486 3.88557 -3.27087 0
M  V30 5679 H 519.416 4.93634 -1.83394 0
M  V30 5680 H 521.907 3.38162 -1.68687 0
M  V30 5681 H 522.22 6.61357 -3.99784 0
M  V30 5682 H 520.565 5.95135 -3.58942 0
M  V30 5683 H 523.756 4.15048 -2.16456 0
M  V30 5684 H 523.929 5.62439 -3.21818 0
M  V30 5685 N 517.335 0.585699 1.46312 0
M  V30 5686 C 518.268 -0.194257 2.27372 0
M  V30 5687 C 519.246 -0.894116 1.3581 0
M  V30 5688 O 520.43 -0.907402 1.65222 0
M  V30 5689 C 517.557 -1.27901 3.13622 0
M  V30 5690 C 516.603 -0.684666 4.20969 0
M  V30 5691 S 517.436 0.490745 5.33247 0
M  V30 5692 C 518.592 -0.595137 6.23064 0
M  V30 5693 H 518.825 0.493515 2.93175 0
M  V30 5694 H 516.358 0.372666 1.49835 0
M  V30 5695 H 518.316 -1.90008 3.63878 0
M  V30 5696 H 516.977 -1.93875 2.47126 0
M  V30 5697 H 516.17 -1.50015 4.81156 0
M  V30 5698 H 515.772 -0.139204 3.73741 0
M  V30 5699 H 518.064 -1.48002 6.61137 0
M  V30 5700 H 519.007 -0.0299446 7.08094 0
M  V30 5701 H 519.415 -0.900627 5.57269 0
M  V30 5702 N 518.813 -1.54241 0.323641 0
M  V30 5703 C 520.041 -2.04985 -0.280871 0
M  V30 5704 C 520.456 -1.19978 -1.45777 0
M  V30 5705 O 519.813 -0.230471 -1.81039 0
M  V30 5706 C 519.864 -3.54353 -0.715258 0
M  V30 5707 O 519.585 -4.36132 0.414817 0
M  V30 5708 C 521.086 -4.21189 -1.38257 0
M  V30 5709 H 518.306 -0.66851 -0.0577502 0
M  V30 5710 H 520.85 -1.99029 0.469852 0
M  V30 5711 H 519.005 -3.60596 -1.41596 0
M  V30 5712 H 519.419 -5.2445 0.0725227 0
M  V30 5713 H 520.893 -5.27154 -1.63745 0
M  V30 5714 H 521.37 -3.72307 -2.32989 0
M  V30 5715 H 521.976 -4.19085 -0.724447 0
M  V30 5716 N 520.291 -0.0518155 -1.57515 0
M  V30 5717 C 521.538 0.621823 -1.92716 0
M  V30 5718 C 521.866 1.70813 -0.930229 0
M  V30 5719 O 521.121 1.95616 0.0573708 0
M  V30 5720 C 521.42 1.25607 -3.34601 0
M  V30 5721 C 521.086 0.297901 -4.49915 0
M  V30 5722 C 519.748 0.034243 -4.81188 0
M  V30 5723 C 522.1 -0.358738 -5.19964 0
M  V30 5724 C 519.428 -0.893479 -5.79857 0
M  V30 5725 C 521.78 -1.27466 -6.19625 0
M  V30 5726 C 520.444 -1.54698 -6.49326 0
M  V30 5727 H 519.714 0.227541 -0.705199 0
M  V30 5728 H 522.361 -0.118432 -1.91133 0
M  V30 5729 H 520.666 2.07161 -3.32553 0
M  V30 5730 H 522.363 1.78424 -3.59118 0
M  V30 5731 H 518.953 0.513581 -4.25512 0
M  V30 5732 H 523.137 -0.168133 -4.96015 0
M  V30 5733 H 518.393 -1.11193 -6.01204 0
M  V30 5734 H 522.567 -1.78953 -6.73015 0
M  V30 5735 H 520.194 -2.26748 -7.25596 0
M  V30 5736 N 521.769 1.56035 0.221574 0
M  V30 5737 C 523.185 1.49026 0.571271 0
M  V30 5738 C 523.385 0.746912 1.87146 0
M  V30 5739 O 522.441 0.286566 2.50869 0
M  V30 5740 C 523.754 2.93579 0.650522 0
M  V30 5741 C 525.302 3.04099 0.741151 0
M  V30 5742 C 525.777 4.5001 0.851747 0
M  V30 5743 N 527.268 4.54053 0.915968 0
M  V30 5744 C 528.003 5.64232 1.02125 0
M  V30 5745 N 527.499 6.84164 1.09049 0
M  V30 5746 N 529.292 5.52084 1.05639 0
M  V30 5747 H 521.443 2.02791 -0.63162 0
M  V30 5748 H 523.706 0.921736 -0.221602 0
M  V30 5749 H 523.412 3.50912 -0.235253 0
M  V30 5750 H 523.286 3.45476 1.51413 0
M  V30 5751 H 525.673 2.4683 1.61737 0
M  V30 5752 H 525.754 2.55371 -0.148128 0
M  V30 5753 H 525.398 5.07896 -0.0200117 0
M  V30 5754 H 525.328 4.96444 1.75644 0
M  V30 5755 H 527.819 3.67683 0.872782 0
M  V30 5756 H 528.132 7.63883 1.1706 0
M  V30 5757 H 526.477 6.86875 1.05962 0
M  V30 5758 H 529.668 4.57317 0.998953 0
M  V30 5759 H 529.841 6.37983 1.13498 0
M  V30 5760 N 523.247 -0.488276 1.49845 0
M  V30 5761 C 524.157 -1.61451 1.70207 0
M  V30 5762 C 525.173 -1.63877 0.584846 0
M  V30 5763 O 526.349 -1.82063 0.861107 0
M  V30 5764 C 523.414 -2.9776 1.77594 0
M  V30 5765 C 522.475 -3.05861 3.01243 0
M  V30 5766 C 521.708 -4.35668 3.08268 0
M  V30 5767 O 521.931 -5.25197 2.22541 0
M  V30 5768 O 520.865 -4.49005 4.00847 0
M  V30 5769 H 524.691 -1.47199 2.65643 0
M  V30 5770 H 522.276 -0.665939 1.33737 0
M  V30 5771 H 524.158 -3.7875 1.84732 0
M  V30 5772 H 522.833 -3.12248 0.8534 0
M  V30 5773 H 521.74 -2.24012 2.99616 0
M  V30 5774 H 523.073 -2.96304 3.9302 0
M  V30 5775 N 524.725 -1.39134 -0.740242 0
M  V30 5776 C 526.141 -1.20623 -1.0451 0
M  V30 5777 C 526.341 -0.0641651 -2.01398 0
M  V30 5778 O 525.397 0.585843 -2.4561 0
M  V30 5779 C 526.71 -2.53815 -1.6124 0
M  V30 5780 C 528.258 -2.60615 -1.73346 0
M  V30 5781 C 528.733 -3.94015 -2.33486 0
M  V30 5782 N 530.224 -3.95627 -2.40902 0
M  V30 5783 C 530.959 -4.95616 -2.88361 0
M  V30 5784 N 530.455 -6.06003 -3.35756 0
M  V30 5785 N 532.248 -4.82998 -2.87523 0
M  V30 5786 H 524.399 -2.12176 -0.0975576 0
M  V30 5787 H 526.662 -0.942066 -0.105904 0
M  V30 5788 H 526.368 -3.37911 -0.975144 0
M  V30 5789 H 526.242 -2.73162 -2.6012 0
M  V30 5790 H 528.629 -1.76906 -2.36195 0
M  V30 5791 H 528.71 -2.45123 -0.731336 0
M  V30 5792 H 528.354 -4.78153 -1.71267 0
M  V30 5793 H 528.284 -4.06825 -3.34366 0
M  V30 5794 H 530.775 -3.15903 -2.07398 0
M  V30 5795 H 531.088 -6.78215 -3.70464 0
M  V30 5796 H 529.433 -6.09604 -3.33778 0
M  V30 5797 H 532.624 -3.95866 -2.49816 0
M  V30 5798 H 532.797 -5.61072 -3.24196 0
M  V30 5799 N 526.204 0.969867 -1.24223 0
M  V30 5800 C 527.432 1.74756 -1.10761 0
M  V30 5801 C 527.847 1.85713 0.340041 0
M  V30 5802 O 527.204 1.34389 1.23474 0
M  V30 5803 C 527.255 3.16915 -1.73917 0
M  V30 5804 O 526.976 3.06511 -3.13021 0
M  V30 5805 C 528.477 4.11032 -1.66036 0
M  V30 5806 H 525.697 0.548092 -0.387087 0
M  V30 5807 H 528.241 1.2178 -1.64286 0
M  V30 5808 H 526.396 3.66884 -1.244 0
M  V30 5809 H 526.81 3.96079 -3.43834 0
M  V30 5810 H 528.284 5.08446 -2.14911 0
M  V30 5811 H 528.761 4.34785 -0.621159 0
M  V30 5812 H 529.367 3.66972 -2.14969 0
M  V30 5813 N 527.682 1.05563 1.17022 0
M  V30 5814 C 528.592 0.670758 2.24807 0
M  V30 5815 C 529.608 -0.309865 1.71219 0
M  V30 5816 O 530.784 -0.161025 2.00755 0
M  V30 5817 C 527.849 0.055337 3.46656 0
M  V30 5818 C 526.91 1.08688 4.15314 0
M  V30 5819 C 526.143 0.500736 5.31346 0
M  V30 5820 O 526.366 -0.688718 5.66227 0
M  V30 5821 O 525.3 1.23683 5.89055 0
M  V30 5822 H 529.126 1.56914 2.60023 0
M  V30 5823 H 526.711 0.827428 1.24395 0
M  V30 5824 H 528.593 -0.286492 4.20425 0
M  V30 5825 H 527.268 -0.816638 3.13229 0
M  V30 5826 H 526.175 1.48077 3.43546 0
M  V30 5827 H 527.508 1.93014 4.52777 0
M  V30 5828 N 529.16 -1.33526 0.837174 0
M  V30 5829 C 530.576 -1.50727 0.524743 0
M  V30 5830 C 530.776 -1.77792 -0.948279 0
M  V30 5831 O 529.832 -1.83719 -1.73216 0
M  V30 5832 C 531.145 -2.66299 1.39661 0
M  V30 5833 C 532.693 -2.80183 1.39521 0
M  V30 5834 C 533.168 -3.98815 2.25189 0
M  V30 5835 N 534.659 -4.06047 2.2289 0
M  V30 5836 C 535.394 -4.97032 2.85915 0
M  V30 5837 N 534.89 -5.93143 3.57985 0
M  V30 5838 N 536.683 -4.90015 2.75394 0
M  V30 5839 H 528.834 -1.1422 1.79074 0
M  V30 5840 H 531.097 -0.561399 0.763894 0
M  V30 5841 H 530.803 -2.52974 2.4433 0
M  V30 5842 H 530.677 -3.61663 1.07145 0
M  V30 5843 H 533.064 -2.92942 0.356253 0
M  V30 5844 H 533.145 -1.85586 1.76044 0
M  V30 5845 H 532.789 -3.86817 3.29143 0
M  V30 5846 H 532.719 -4.92654 1.86009 0
M  V30 5847 H 535.21 -3.37262 1.70478 0
M  V30 5848 H 535.523 -6.59227 4.03286 0
M  V30 5849 H 533.868 -5.93223 3.62093 0
M  V30 5850 H 537.059 -4.13894 2.18654 0
M  V30 5851 H 537.232 -5.60724 3.24796 0
M  V30 5852 N 530.638 -0.59345 -1.46 0
M  V30 5853 C 531.588 0.154751 -2.27474 0
M  V30 5854 C 532.572 0.851849 -1.365 0
M  V30 5855 O 533.764 0.744171 -1.60596 0
M  V30 5856 C 530.893 1.16079 -3.2308 0
M  V30 5857 C 529.979 0.465256 -4.2154 0
M  V30 5858 N 530.37 -0.485197 -5.03467 0
M  V30 5859 C 528.668 0.714634 -4.40237 0
M  V30 5860 C 529.369 -0.892709 -5.74809 0
M  V30 5861 N 528.345 -0.239511 -5.43072 0
M  V30 5862 H 532.147 -0.57546 -2.88211 0
M  V30 5863 H 529.661 -0.416046 -1.5698 0
M  V30 5864 H 531.658 1.71108 -3.80168 0
M  V30 5865 H 530.318 1.89171 -2.63903 0
M  V30 5866 H 531.329 -0.861258 -5.10689 0
M  V30 5867 H 528.006 1.43131 -3.92199 0
M  V30 5868 H 529.396 -1.67581 -6.50666 0
M  V30 5869 N 532.116 1.54067 -0.331816 0
M  V30 5870 C 533.026 2.28322 0.539104 0
M  V30 5871 C 534.042 1.32985 1.1221 0
M  V30 5872 O 535.218 1.6601 1.1403 0
M  V30 5873 C 532.283 3.03277 1.68 0
M  V30 5874 C 531.344 4.14216 1.12798 0
M  V30 5875 C 530.577 4.85588 2.2145 0
M  V30 5876 O 530.8 4.56536 3.41952 0
M  V30 5877 O 529.734 5.72309 1.86404 0
M  V30 5878 H 533.56 3.03632 -0.0641692 0
M  V30 5879 H 531.145 1.49083 -0.0972365 0
M  V30 5880 H 533.027 3.50189 2.34405 0
M  V30 5881 H 531.702 2.30834 2.2693 0
M  V30 5882 H 530.609 3.71635 0.428782 0
M  V30 5883 H 531.942 4.88727 0.583698 0
M  V30 5884 N 533.594 0.0601682 1.57485 0
M  V30 5885 C 534.527 -0.94676 2.07634 0
M  V30 5886 C 535.505 -1.29837 0.978826 0
M  V30 5887 O 536.689 -1.40969 1.2514 0
M  V30 5888 C 533.816 -2.25822 2.52433 0
M  V30 5889 C 532.862 -2.05901 3.73507 0
M  V30 5890 S 533.695 -1.32907 5.18745 0
M  V30 5891 C 534.851 -2.65356 5.66866 0
M  V30 5892 H 535.084 -0.520003 2.92717 0
M  V30 5893 H 532.617 -0.152319 1.53647 0
M  V30 5894 H 534.575 -3.01201 2.78905 0
M  V30 5895 H 533.236 -2.65624 1.67639 0
M  V30 5896 H 532.429 -3.02929 4.02803 0
M  V30 5897 H 532.031 -1.38659 3.47347 0
M  V30 5898 H 534.323 -3.61492 5.73001 0
M  V30 5899 H 535.266 -2.40685 6.6594 0
M  V30 5900 H 535.674 -2.72028 4.94632 0
M  V30 5901 N 535.072 -1.5615 -0.213296 0
M  V30 5902 C 536.004 -1.89586 -1.28802 0
M  V30 5903 C 537.017 -0.784844 -1.42633 0
M  V30 5904 O 538.206 -1.06319 -1.43383 0
M  V30 5905 C 535.306 -2.09665 -2.66259 0
M  V30 5906 C 534.479 -3.40726 -2.7427 0
M  V30 5907 C 533.538 -3.50137 -3.92798 0
M  V30 5908 O 532.564 -4.23105 -3.8075 0
M  V30 5909 N 533.766 -2.81886 -5.07465 0
M  V30 5910 H 536.531 -2.82368 -1.00442 0
M  V30 5911 H 534.092 -1.56796 -0.403302 0
M  V30 5912 H 536.084 -2.13268 -3.43946 0
M  V30 5913 H 534.654 -1.23469 -2.87183 0
M  V30 5914 H 533.874 -3.4915 -1.82997 0
M  V30 5915 H 535.162 -4.27048 -2.76599 0
M  V30 5916 H 534.56 -2.22397 -5.2015 0
M  V30 5917 H 533.117 -2.91139 -5.83165 0
M  V30 5918 N 536.55 0.480323 -1.50102 0
M  V30 5919 C 537.799 1.22979 -1.59872 0
M  V30 5920 C 538.112 1.93282 -0.30022 0
M  V30 5921 O 539.318 2.70086 -0.276709 0
M  V30 5922 C 537.774 2.23408 -2.82164 0
M  V30 5923 C 537.382 1.5895 -4.18854 0
M  V30 5924 C 539.126 2.99055 -3.01275 0
M  V30 5925 C 537.033 2.57611 -5.32344 0
M  V30 5926 H 535.963 0.462707 -0.59533 0
M  V30 5927 H 538.614 0.501291 -1.7652 0
M  V30 5928 H 536.996 2.99511 -2.59055 0
M  V30 5929 H 538.17 0.887 -4.52182 0
M  V30 5930 H 536.485 0.956191 -4.05273 0
M  V30 5931 H 539.082 3.72876 -3.83233 0
M  V30 5932 H 539.425 3.57897 -2.12639 0
M  V30 5933 H 539.958 2.30066 -3.24522 0
M  V30 5934 H 536.697 2.03521 -6.23105 0
M  V30 5935 H 536.217 3.26041 -5.03445 0
M  V30 5936 H 537.896 3.19627 -5.62537 0
M  V30 5937 N 538.028 1.39524 0.732853 0
M  V30 5938 C 538.958 1.41153 1.86005 0
M  V30 5939 C 539.939 0.274614 1.67869 0
M  V30 5940 O 541.124 0.480745 1.88155 0
M  V30 5941 C 538.254 1.25638 3.23778 0
M  V30 5942 C 537.208 2.36752 3.56556 0
M  V30 5943 C 536.534 2.06326 4.93289 0
M  V30 5944 C 537.834 3.79069 3.5931 0
M  V30 5945 H 539.528 2.35484 1.84899 0
M  V30 5946 H 537.074 1.13348 0.888162 0
M  V30 5947 H 539.027 1.25398 4.0231 0
M  V30 5948 H 537.751 0.277772 3.25417 0
M  V30 5949 H 536.41 2.36213 2.80355 0
M  V30 5950 H 536.058 1.06897 4.9151 0
M  V30 5951 H 535.758 2.80757 5.16187 0
M  V30 5952 H 537.282 2.07739 5.74175 0
M  V30 5953 H 538.696 3.81526 4.27914 0
M  V30 5954 H 537.093 4.52878 3.93728 0
M  V30 5955 H 538.163 4.09893 2.59068 0
M  V30 5956 N 539.506 -0.963266 1.24736 0
M  V30 5957 C 540.731 -1.74699 1.11781 0
M  V30 5958 C 541.156 -1.85267 -0.325258 0
M  V30 5959 O 540.514 -1.32681 -1.23553 0
M  V30 5960 C 540.562 -3.14322 1.76731 0
M  V30 5961 O 539.666 -3.99043 1.04109 0
M  V30 5962 H 539.007 -0.53684 0.390767 0
M  V30 5963 H 541.537 -1.20801 1.65131 0
M  V30 5964 H 541.547 -3.64824 1.82668 0
M  V30 5965 H 540.222 -3.05946 2.81726 0
M  V30 5966 H 538.799 -3.5752 1.05991 0
M  V30 5967 N 540.985 -1.06182 -1.16461 0
M  V30 5968 C 541.932 -0.671613 -2.20812 0
M  V30 5969 C 542.902 0.331186 -1.62765 0
M  V30 5970 O 544.087 0.22033 -1.89524 0
M  V30 5971 C 541.227 -0.063029 -3.45042 0
M  V30 5972 C 540.34 -1.11587 -4.1734 0
M  V30 5973 C 539.475 -0.473546 -5.29085 0
M  V30 5974 C 538.514 -1.51 -5.93182 0
M  V30 5975 N 537.651 -0.891118 -6.96422 0
M  V30 5976 H 542.491 -1.56589 -2.53542 0
M  V30 5977 H 540.028 -0.782951 -1.24532 0
M  V30 5978 H 541.986 0.307344 -4.16066 0
M  V30 5979 H 540.616 0.794663 -3.12866 0
M  V30 5980 H 539.668 -1.60396 -3.44931 0
M  V30 5981 H 540.98 -1.90221 -4.61104 0
M  V30 5982 H 540.134 -0.0501432 -6.06679 0
M  V30 5983 H 538.873 0.344687 -4.8648 0
M  V30 5984 H 537.878 -1.94331 -5.14311 0
M  V30 5985 H 539.103 -2.33031 -6.37866 0
M  V30 5986 H 537.049 -0.0935753 -6.55933 0
M  V30 5987 H 536.966 -1.61486 -7.38551 0
M  V30 5988 H 538.234 -0.492822 -7.77941 0
M  V30 5989 N 542.463 1.3308 -0.844243 0
M  V30 5990 C 543.874 1.7992 -0.498566 0
M  V30 5991 C 544.225 1.69808 0.982834 0
M  V30 5992 O 543.35 1.25051 1.7661 0
M  V30 5993 C 543.945 3.26677 -0.898204 0
M  V30 5994 C 542.504 3.71513 -0.604583 0
M  V30 5995 C 541.651 2.54393 -1.10362 0
M  V30 5996 H 544.602 1.20526 -1.03244 0
M  V30 5997 H 544.623 3.79918 -0.21039 0
M  V30 5998 H 544.135 3.34004 -1.97643 0
M  V30 5999 H 542.236 3.69708 0.46335 0
M  V30 6000 H 542.349 4.64755 -1.16358 0
M  V30 6001 H 540.713 2.49246 -0.524273 0
M  V30 6002 H 541.496 2.6448 -2.18873 0
M  V30 6003 N 543.941 0.601185 1.45683 0
M  V30 6004 C 544.851 -0.123395 2.34275 0
M  V30 6005 C 545.867 -0.86702 1.5086 0
M  V30 6006 O 547.043 -0.826049 1.8368 0
M  V30 6007 C 544.108 -1.11237 3.2837 0
M  V30 6008 C 543.169 -0.371405 4.2769 0
M  V30 6009 C 542.402 -1.31327 5.1729 0
M  V30 6010 O 542.625 -2.55078 5.10188 0
M  V30 6011 O 541.559 -0.813811 5.96373 0
M  V30 6012 H 545.385 0.604483 2.97623 0
M  V30 6013 H 542.97 0.361477 1.44961 0
M  V30 6014 H 544.852 -1.68214 3.8637 0
M  V30 6015 H 543.527 -1.82139 2.67595 0
M  V30 6016 H 542.434 0.24067 3.73325 0
M  V30 6017 H 543.767 0.296998 4.91303 0
M  V30 6018 N 545.419 -1.53889 0.339982 0
M  V30 6019 C 546.666 -2.00855 -0.257621 0
M  V30 6020 C 546.994 -1.22788 -1.50842 0
M  V30 6021 O 546.249 -0.302567 -1.93347 0
M  V30 6022 C 546.548 -3.51968 -0.620735 0
M  V30 6023 C 546.214 -4.47741 0.532771 0
M  V30 6024 C 544.876 -4.73645 0.849339 0
M  V30 6025 C 547.228 -5.04551 1.3068 0
M  V30 6026 C 544.556 -5.53614 1.94237 0
M  V30 6027 C 546.908 -5.85713 2.39005 0
M  V30 6028 C 545.572 -6.09912 2.71225 0
M  V30 6029 H 544.842 -0.734979 -0.0942703 0
M  V30 6030 H 547.489 -1.85714 0.467159 0
M  V30 6031 H 545.794 -3.64921 -1.42618 0
M  V30 6032 H 547.491 -3.85762 -1.09495 0
M  V30 6033 H 544.081 -4.27711 0.275973 0
M  V30 6034 H 548.265 -4.84507 1.07549 0
M  V30 6035 H 543.521 -5.7059 2.19628 0
M  V30 6036 H 547.695 -6.28748 2.99415 0
M  V30 6037 H 545.322 -6.71665 3.56047 0
M  V30 6038 N 546.897 -0.0685191 -1.57451 0
M  V30 6039 C 548.146 0.600898 -1.92541 0
M  V30 6040 C 548.459 1.70967 -0.950239 0
M  V30 6041 O 549.665 2.43844 -1.19384 0
M  V30 6042 C 548.121 1.12019 -3.42023 0
M  V30 6043 C 547.729 0.0426028 -4.4798 0
M  V30 6044 C 549.473 1.76386 -3.86119 0
M  V30 6045 C 547.38 0.575759 -5.88591 0
M  V30 6046 H 546.31 0.228225 -0.71863 0
M  V30 6047 H 548.961 -0.140223 -1.82963 0
M  V30 6048 H 547.343 1.91418 -3.46663 0
M  V30 6049 H 548.517 -0.73182 -4.54952 0
M  V30 6050 H 546.832 -0.504642 -4.13331 0
M  V30 6051 H 549.429 2.17302 -4.88553 0
M  V30 6052 H 549.772 2.62255 -3.23308 0
M  V30 6053 H 550.305 1.03615 -3.84069 0
M  V30 6054 H 547.044 -0.245691 -6.55039 0
M  V30 6055 H 546.564 1.31778 -5.85145 0
M  V30 6056 H 548.243 1.0532 -6.3837 0
M  V30 6057 O 548.414 1.61339 0.072188 0
M  V30 6058 H 549.105 1.80682 0.698125 0
M  V30 END ATOM
M  V30 BEGIN BOND
M  V30 END BOND
M  V30 END CTAB
M  END
$$$$
