drugbank_target|P23946 Chymase (DB03297; DB03814; DB04016; DB07680)
 OpenBabel12092119463D

  0  0  0     0  0            999 V3000
M  V30 BEGIN CTAB
M  V30 COUNTS 3875 3923 0 0 0
M  V30 BEGIN ATOM
M  V30 1 H -0.908 1.98254 -0.117106 0
M  V30 2 N 0 1.576 0 0
M  V30 3 C 0.933 2.03868 1.02534 0
M  V30 4 C 1.911 0.928543 1.3348 0
M  V30 5 O 3.095 1.19667 1.45644 0
M  V30 6 C 0.222 2.43627 2.35294 0
M  V30 7 C -0.732 3.65373 2.2001 0
M  V30 8 S 0.101 5.13292 1.52614 0
M  V30 9 C 1.257 5.56322 2.86805 0
M  V30 10 H 1.49 2.90518 0.631377 0
M  V30 11 H -0.977 1.52953 0.210867 0
M  V30 12 H 0.981 2.67203 3.11629 0
M  V30 13 H -0.358 1.57376 2.7183 0
M  V30 14 H -1.165 3.90944 3.18086 0
M  V30 15 H -1.563 3.418 1.51819 0
M  V30 16 H 0.729 5.58782 3.83104 0
M  V30 17 H 1.672 6.56266 2.65933 0
M  V30 18 H 2.08 4.83886 2.90714 0
M  V30 19 N 1.4781 -0.272755 1.55222 0
M  V30 20 C 2.4081 -1.34136 1.91127 0
M  V30 21 C 3.3891 -1.51513 0.773168 0
M  V30 22 O 4.5741 -1.64552 1.03132 0
M  V30 23 C 1.7041 -2.70083 2.1834 0
M  V30 24 C 0.6581 -2.67437 3.34158 0
M  V30 25 C -0.0159 -4.06938 3.46851 0
M  V30 26 C 1.2841 -2.26686 4.70543 0
M  V30 27 H 2.9781 -1.04333 2.80633 0
M  V30 28 H 0.5241 -0.500454 1.35024 0
M  V30 29 H 2.4771 -3.44952 2.42046 0
M  V30 30 H 1.2011 -3.01469 1.25634 0
M  V30 31 H -0.1399 -1.95026 3.1042 0
M  V30 32 H -0.4919 -4.35547 2.51611 0
M  V30 33 H -0.7919 -4.06062 4.2472 0
M  V30 34 H 0.7321 -4.83545 3.72849 0
M  V30 35 H 2.1461 -2.91277 4.93792 0
M  V30 36 H 0.5431 -2.36971 5.5133 0
M  V30 37 H 1.6131 -1.21818 4.69349 0
M  V30 38 N 2.9562 -1.48159 -0.537278 0
M  V30 39 C 3.8862 -1.65029 -1.6519 0
M  V30 40 C 4.8672 -0.499281 -1.62607 0
M  V30 41 O 6.0522 -0.730972 -1.79918 0
M  V30 42 C 3.1822 -1.68303 -3.03795 0
M  V30 43 C 2.1362 -2.8283 -3.21234 0
M  V30 44 C 1.4622 -2.71189 -4.60826 0
M  V30 45 C 2.7622 -4.24211 -3.04701 0
M  V30 46 H 4.4562 -2.58341 -1.51328 0
M  V30 47 H 2.0022 -1.24325 -0.726585 0
M  V30 48 H 3.9552 -1.78693 -3.81637 0
M  V30 49 H 2.6792 -0.715635 -3.18663 0
M  V30 50 H 1.3382 -2.71983 -2.45807 0
M  V30 51 H 0.9862 -1.72435 -4.7252 0
M  V30 52 H 0.6862 -3.48035 -4.7344 0
M  V30 53 H 2.2102 -2.83537 -5.40777 0
M  V30 54 H 3.6242 -4.3593 -3.72341 0
M  V30 55 H 2.0212 -5.01998 -3.28813 0
M  V30 56 H 3.0912 -4.41184 -2.01209 0
M  V30 57 N 4.4343 0.785586 -1.36625 0
M  V30 58 C 5.3643 1.91259 -1.33949 0
M  V30 59 C 6.3453 1.68795 -0.210325 0
M  V30 60 O 7.5303 1.89854 -0.408561 0
M  V30 61 C 4.6603 3.28339 -1.13186 0
M  V30 62 C 3.6143 3.65335 -2.22967 0
M  V30 63 C 2.9403 5.00806 -1.87342 0
M  V30 64 C 4.2403 3.7352 -3.65075 0
M  V30 65 H 5.9343 1.93755 -2.28253 0
M  V30 66 H 3.4803 0.930788 -1.09874 0
M  V30 67 H 5.4333 4.06804 -1.09948 0
M  V30 68 H 4.1573 3.2624 -0.153332 0
M  V30 69 H 2.8163 2.89169 -2.25337 0
M  V30 70 H 2.4643 4.95233 -0.880545 0
M  V30 71 H 2.1643 5.26529 -2.60846 0
M  V30 72 H 3.6883 5.81687 -1.85667 0
M  V30 73 H 5.1023 4.42168 -3.64911 0
M  V30 74 H 3.4993 4.10731 -4.37516 0
M  V30 75 H 4.5693 2.74527 -3.99703 0
M  V30 76 N 5.9124 1.20967 1.01018 0
M  V30 77 C 7.3234 1.02319 1.56165 0
M  V30 78 C 7.6744 -0.418546 1.91684 0
M  V30 79 O 6.7994 -1.30096 1.72928 0
M  V30 80 C 7.3944 1.85109 2.8376 0
M  V30 81 C 5.9534 1.70809 3.35412 0
M  V30 82 C 5.1004 1.82643 2.08655 0
M  V30 83 H 8.0514 1.35065 0.833255 0
M  V30 84 H 8.0724 1.35827 3.55431 0
M  V30 85 H 7.5844 2.90035 2.57878 0
M  V30 86 H 5.6854 0.685464 3.66241 0
M  V30 87 H 5.7984 2.52467 4.07182 0
M  V30 88 H 4.1624 1.25896 2.21409 0
M  V30 89 H 4.9454 2.89066 1.85191 0
M  V30 90 N 7.3905 -1.2043 1.01659 0
M  V30 91 C 8.3205 -2.25466 0.607226 0
M  V30 92 C 9.3015 -1.65853 -0.377716 0
M  V30 93 O 10.4865 -1.92409 -0.263149 0
M  V30 94 C 7.6165 -3.47256 -0.0552949 0
M  V30 95 C 6.5705 -4.19462 0.850632 0
M  V30 96 C 5.8965 -5.34673 0.0538859 0
M  V30 97 C 7.1965 -4.75603 2.15868 0
M  V30 98 H 8.8905 -2.59962 1.48526 0
M  V30 99 H 6.4365 -1.2496 0.715605 0
M  V30 100 H 8.3895 -4.19917 -0.353233 0
M  V30 101 H 7.1135 -3.11924 -0.968045 0
M  V30 102 H 5.7725 -3.48667 1.13257 0
M  V30 103 H 5.4205 -4.95585 -0.860514 0
M  V30 104 H 5.1205 -5.83913 0.657192 0
M  V30 105 H 6.6445 -6.10138 -0.237598 0
M  V30 106 H 8.0585 -5.40083 1.92311 0
M  V30 107 H 6.4555 -5.3528 2.71284 0
M  V30 108 H 7.5255 -3.94346 2.82169 0
M  V30 109 N 8.8686 -0.792821 -1.36206 0
M  V30 110 C 10.2796 -0.429513 -1.81692 0
M  V30 111 C 10.6306 1.04695 -1.65932 0
M  V30 112 O 9.7556 1.81256 -1.18218 0
M  V30 113 C 10.3506 -0.772831 -3.29868 0
M  V30 114 C 8.9096 -0.462307 -3.7355 0
M  V30 115 C 8.0566 -1.00569 -2.5842 0
M  V30 116 H 11.0076 -0.985672 -1.24379 0
M  V30 117 H 11.0286 -0.0651928 -3.80444 0
M  V30 118 H 10.5406 -1.84747 -3.41307 0
M  V30 119 H 8.6416 0.604158 -3.67669 0
M  V30 120 H 8.7546 -0.985299 -4.68859 0
M  V30 121 H 7.1186 -0.428734 -2.51066 0
M  V30 122 H 7.9016 -2.08616 -2.72643 0
M  V30 123 N 10.3467 1.47872 -0.545128 0
M  V30 124 C 11.2767 2.32661 0.197793 0
M  V30 125 C 12.2577 1.43041 0.920504 0
M  V30 126 O 13.4427 1.71912 0.90333 0
M  V30 127 C 10.5727 3.24569 1.23582 0
M  V30 128 C 9.5267 4.23333 0.630323 0
M  V30 129 C 8.8527 5.0448 1.77211 0
M  V30 130 C 10.1527 5.20704 -0.407974 0
M  V30 131 H 11.8467 2.95024 -0.510045 0
M  V30 132 H 9.3927 1.4187 -0.246731 0
M  V30 133 H 11.3457 3.8272 1.76362 0
M  V30 134 H 10.0697 2.60236 1.97344 0
M  V30 135 H 8.7287 3.6639 0.123922 0
M  V30 136 H 8.3767 4.36561 2.49847 0
M  V30 137 H 8.0767 5.71339 1.37281 0
M  V30 138 H 9.6007 5.65487 2.3034 0
M  V30 139 H 11.0147 5.7329 0.033305 0
M  V30 140 H 9.4117 5.95699 -0.725486 0
M  V30 141 H 10.4817 4.66917 -1.30828 0
M  V30 142 N 11.8248 0.280983 1.55075 0
M  V30 143 C 12.7548 -0.597469 2.25727 0
M  V30 144 C 13.7358 -1.15417 1.24952 0
M  V30 145 O 14.9208 -1.18722 1.53684 0
M  V30 146 C 12.0508 -1.7789 2.98283 0
M  V30 147 C 11.0048 -1.35347 4.06036 0
M  V30 148 C 10.3308 -2.61846 4.66198 0
M  V30 149 C 11.6308 -0.499354 5.19907 0
M  V30 150 H 13.3248 -0.00824265 2.99399 0
M  V30 151 H 10.8708 -0.0025244 1.44 0
M  V30 152 H 12.8238 -2.39937 3.46422 0
M  V30 153 H 11.5478 -2.39405 2.22155 0
M  V30 154 H 10.2068 -0.756156 3.58717 0
M  V30 155 H 9.8548 -3.21632 3.86732 0
M  V30 156 H 9.5548 -2.3409 5.38958 0
M  V30 157 H 11.0788 -3.24732 5.1709 0
M  V30 158 H 12.4928 -1.02498 5.64063 0
M  V30 159 H 10.8898 -0.316424 5.99265 0
M  V30 160 H 11.9598 0.480459 4.82514 0
M  V30 161 N 13.3029 -1.57598 0.00835791 0
M  V30 162 C 14.2329 -2.1198 -0.979113 0
M  V30 163 C 15.2139 -1.03091 -1.35301 0
M  V30 164 O 16.3989 -1.30818 -1.43528 0
M  V30 165 C 13.5289 -2.62995 -2.26828 0
M  V30 166 C 12.4829 -3.76485 -2.03576 0
M  V30 167 C 11.8089 -4.13846 -3.38579 0
M  V30 168 C 13.1089 -5.0342 -1.39161 0
M  V30 169 H 14.8029 -2.94738 -0.526281 0
M  V30 170 H 12.3489 -1.41783 -0.251704 0
M  V30 171 H 14.3019 -2.99669 -2.96271 0
M  V30 172 H 13.0259 -1.7737 -2.7424 0
M  V30 173 H 11.6849 -3.40217 -1.36557 0
M  V30 174 H 11.3329 -3.25232 -3.83709 0
M  V30 175 H 11.0329 -4.90312 -3.23834 0
M  V30 176 H 12.5569 -4.53086 -4.09323 0
M  V30 177 H 13.9709 -5.37812 -1.98573 0
M  V30 178 H 12.3679 -5.84746 -1.34878 0
M  V30 179 H 13.4379 -4.83548 -0.361868 0
M  V30 180 N 14.781 0.264519 -1.55364 0
M  V30 181 C 16.028 0.994986 -1.7637 0
M  V30 182 C 16.356 1.85976 -0.5695 0
M  V30 183 O 15.611 1.90509 0.44776 0
M  V30 184 C 15.91 1.9004 -3.02687 0
M  V30 185 C 15.576 1.19243 -4.34847 0
M  V30 186 C 14.238 0.996709 -4.70764 0
M  V30 187 C 16.59 0.689296 -5.16622 0
M  V30 188 C 13.918 0.285261 -5.86006 0
M  V30 189 C 16.27 -0.00860079 -6.32599 0
M  V30 190 C 14.934 -0.215963 -6.67151 0
M  V30 191 H 14.204 0.364091 -0.645383 0
M  V30 192 H 16.851 0.266543 -1.89636 0
M  V30 193 H 15.156 2.69533 -2.84357 0
M  V30 194 H 16.853 2.46695 -3.16137 0
M  V30 195 H 13.443 1.3549 -4.06621 0
M  V30 196 H 17.627 0.828108 -4.89342 0
M  V30 197 H 12.883 0.113961 -6.11294 0
M  V30 198 H 17.057 -0.406186 -6.95214 0
M  V30 199 H 14.684 -0.769217 -7.56298 0
M  V30 200 N 16.2591 1.48442 0.529413 0
M  V30 201 C 17.1891 1.65902 1.64313 0
M  V30 202 C 18.1701 0.507897 1.6234 0
M  V30 203 O 19.3551 0.740503 1.79528 0
M  V30 204 C 16.4851 1.69911 3.02898 0
M  V30 205 C 15.4391 2.8453 3.19729 0
M  V30 206 C 14.7651 2.73629 4.59381 0
M  V30 207 C 16.0651 4.25821 3.02447 0
M  V30 208 H 17.7591 2.5914 1.49955 0
M  V30 209 H 15.3051 1.24709 0.719982 0
M  V30 210 H 17.2581 1.80715 3.80684 0
M  V30 211 H 15.9821 0.732524 3.18279 0
M  V30 212 H 14.6411 2.73283 2.44361 0
M  V30 213 H 14.2891 1.74938 4.71599 0
M  V30 214 H 13.9891 3.50541 4.71588 0
M  V30 215 H 15.5131 2.86401 5.39265 0
M  V30 216 H 16.9271 4.37898 3.70024 0
M  V30 217 H 15.3241 5.03735 3.26146 0
M  V30 218 H 16.3941 4.42244 1.98867 0
M  V30 219 N 17.7372 -0.778329 1.37039 0
M  V30 220 C 18.6672 -1.90546 1.34962 0
M  V30 221 C 19.6482 -1.68681 0.219274 0
M  V30 222 O 20.8332 -1.89634 0.418624 0
M  V30 223 C 17.9632 -3.27734 1.14925 0
M  V30 224 C 16.9172 -3.64147 2.24902 0
M  V30 225 C 16.2432 -4.99806 1.89996 0
M  V30 226 C 17.5432 -3.71579 3.67051 0
M  V30 227 H 19.2372 -1.92541 2.29277 0
M  V30 228 H 16.7832 -0.924948 1.10366 0
M  V30 229 H 18.7362 -4.06215 1.12104 0
M  V30 230 H 17.4602 -3.26154 0.170631 0
M  V30 231 H 16.1192 -2.8797 2.26868 0
M  V30 232 H 15.7672 -4.94759 0.906796 0
M  V30 233 H 15.4672 -5.25139 2.63634 0
M  V30 234 H 16.9912 -5.80694 1.88749 0
M  V30 235 H 18.4052 -4.40227 3.67251 0
M  V30 236 H 16.8022 -4.08405 4.39688 0
M  V30 237 H 17.8722 -2.72404 4.01154 0
M  V30 238 N 19.2153 -1.21501 -1.00376 0
M  V30 239 C 20.4553 -1.04444 -1.75701 0
M  V30 240 C 20.8193 0.414644 -1.87469 0
M  V30 241 O 22.0203 0.705763 -2.59369 0
M  V30 242 C 20.2913 -1.72389 -3.13077 0
M  V30 243 S 21.8503 -1.70604 -4.04277 0
M  V30 244 H 18.6683 -0.374249 -0.604532 0
M  V30 245 H 21.2703 -1.54267 -1.20091 0
M  V30 246 H 19.9743 -2.77734 -3.02146 0
M  V30 247 H 19.5053 -1.22751 -3.73759 0
M  V30 248 H 21.5203 -0.748012 -4.9053 0
M  V30 249 N 20.6934 1.19889 -1.02296 0
M  V30 250 C 21.9184 1.9393 -0.735237 0
M  V30 251 C 22.3434 1.74639 0.698782 0
M  V30 252 O 21.7014 1.04481 1.48167 0
M  V30 253 C 21.7494 3.43916 -1.08417 0
M  V30 254 O 20.8534 4.11917 -0.199446 0
M  V30 255 H 20.1944 0.605645 -0.272196 0
M  V30 256 H 22.7244 1.52137 -1.36804 0
M  V30 257 H 22.7344 3.9456 -1.03856 0
M  V30 258 H 21.4094 3.5728 -2.12894 0
M  V30 259 H 19.9864 3.71666 -0.303136 0
M  V30 260 N 22.1715 0.800033 1.35784 0
M  V30 261 C 23.5875 0.482977 1.52117 0
M  V30 262 C 23.7875 -0.996948 1.75109 0
M  V30 263 O 22.8435 -1.78216 1.78872 0
M  V30 264 C 24.1565 1.32264 2.70049 0
M  V30 265 C 25.7045 1.31742 2.83924 0
M  V30 266 C 26.1795 2.14106 4.04874 0
M  V30 267 N 27.6705 2.11607 4.12039 0
M  V30 268 C 28.4055 2.72099 5.04727 0
M  V30 269 N 27.9015 3.41492 6.02789 0
M  V30 270 N 29.6945 2.61776 4.97423 0
M  V30 271 H 21.8455 1.75856 1.19115 0
M  V30 272 H 24.1085 0.748122 0.582252 0
M  V30 273 H 23.8145 2.37261 2.59616 0
M  V30 274 H 23.6885 0.971303 3.6448 0
M  V30 275 H 26.0755 0.275333 2.93813 0
M  V30 276 H 26.1565 1.70859 1.9037 0
M  V30 277 H 25.8005 3.18351 3.95746 0
M  V30 278 H 25.7305 1.72353 4.97596 0
M  V30 279 H 28.2215 1.61112 3.41835 0
M  V30 280 H 28.5345 3.84953 6.70098 0
M  V30 281 H 26.8795 3.45596 6.02983 0
M  V30 282 H 30.0705 2.07157 4.19766 0
M  V30 283 H 30.2435 3.0921 5.69468 0
M  V30 284 N 23.6496 -1.47581 0.552962 0
M  V30 285 C 24.6126 -2.28439 -0.186605 0
M  V30 286 C 25.6126 -1.36706 -0.84665 0
M  V30 287 O 26.8026 -1.59378 -0.703164 0
M  V30 288 C 23.9346 -3.16264 -1.2724 0
M  V30 289 H 25.1276 -2.95294 0.523609 0
M  V30 290 H 22.6806 -1.532 0.309745 0
M  V30 291 H 23.4156 -2.54091 -2.01514 0
M  V30 292 H 23.2006 -3.83769 -0.803968 0
M  V30 293 H 24.6906 -3.77198 -1.79196 0
M  V30 294 N 25.1277 -0.289203 -1.54924 0
M  V30 295 C 26.0377 0.601863 -2.26748 0
M  V30 296 C 27.0537 1.15834 -1.2984 0
M  V30 297 O 28.2297 1.18564 -1.62802 0
M  V30 298 C 25.2947 1.76299 -2.98529 0
M  V30 299 C 24.3557 1.24178 -4.10948 0
M  V30 300 C 23.5887 2.34757 -4.79296 0
M  V30 301 O 23.8117 3.54411 -4.46933 0
M  V30 302 O 22.7457 2.02115 -5.66951 0
M  V30 303 H 26.5717 0.0195879 -3.03694 0
M  V30 304 H 24.1567 -0.0560868 -1.49295 0
M  V30 305 H 26.0387 2.43973 -3.43592 0
M  V30 306 H 24.7137 2.33209 -2.24488 0
M  V30 307 H 23.6207 0.531104 -3.70311 0
M  V30 308 H 24.9537 0.718252 -4.86931 0
M  V30 309 N 26.6058 1.57591 -0.0167156 0
M  V30 310 C 27.5688 2.08393 0.954204 0
M  V30 311 C 28.5688 0.996531 1.26198 0
M  V30 312 O 29.7588 1.25858 1.20438 0
M  V30 313 C 26.8908 2.5394 2.27436 0
M  V30 314 H 28.0838 2.95455 0.514451 0
M  V30 315 H 25.6368 1.54582 0.231089 0
M  V30 316 H 26.3718 1.70171 2.76066 0
M  V30 317 H 26.1568 3.33371 2.06412 0
M  V30 318 H 27.6468 2.93512 2.97053 0
M  V30 319 N 28.0839 -0.256276 1.55502 0
M  V30 320 C 29.3319 -0.983672 1.76545 0
M  V30 321 C 29.6529 -1.86206 0.578982 0
M  V30 322 O 28.9229 -1.91656 -0.405577 0
M  V30 323 H 27.5029 -0.366191 0.651086 0
M  V30 324 H 30.1649 -0.276479 1.92929 0
M  V30 325 H 29.2609 -1.61087 2.67315 0
M  V30 326 N 29.562 -1.4872 -0.521534 0
M  V30 327 C 30.472 -1.66569 -1.65203 0
M  V30 328 C 31.488 -0.548197 -1.65139 0
M  V30 329 O 32.664 -0.820339 -1.83936 0
M  V30 330 C 29.729 -1.70917 -3.01642 0
M  V30 331 C 28.79 -2.94356 -3.12495 0
M  V30 332 C 28.023 -2.98487 -4.42426 0
M  V30 333 O 28.246 -2.10786 -5.30024 0
M  V30 334 O 27.18 -3.90746 -4.57822 0
M  V30 335 H 31.006 -2.62298 -1.5308 0
M  V30 336 H 28.591 -1.3222 -0.695565 0
M  V30 337 H 30.473 -1.7625 -3.82771 0
M  V30 338 H 29.148 -0.783633 -3.14071 0
M  V30 339 H 28.055 -2.94552 -2.3063 0
M  V30 340 H 29.388 -3.86322 -3.04986 0
M  V30 341 N 31.0401 0.771051 -1.3745 0
M  V30 342 C 32.2891 1.52491 -1.3202 0
M  V30 343 C 32.6021 1.9538 0.0927347 0
M  V30 344 O 33.8081 2.70159 0.269503 0
M  V30 345 C 32.2641 2.75366 -2.31736 0
M  V30 346 C 31.8721 2.39573 -3.78562 0
M  V30 347 C 33.6161 3.53307 -2.35318 0
M  V30 348 C 31.5231 3.58954 -4.70007 0
M  V30 349 H 30.4531 0.572506 -0.490666 0
M  V30 350 H 33.1041 0.844474 -1.62914 0
M  V30 351 H 31.4861 3.45303 -1.93861 0
M  V30 352 H 32.6601 1.77415 -4.25277 0
M  V30 353 H 30.9751 1.74805 -3.77932 0
M  V30 354 H 33.5721 4.42039 -3.00842 0
M  V30 355 H 33.9151 3.93217 -1.36698 0
M  V30 356 H 34.4481 2.90367 -2.71904 0
M  V30 357 H 31.1871 3.24125 -5.69757 0
M  V30 358 H 30.7071 4.20214 -4.27996 0
M  V30 359 H 32.3861 4.25758 -4.87175 0
M  V30 360 N 32.5182 1.22032 0.997298 0
M  V30 361 C 33.7672 1.03637 1.73038 0
M  V30 362 C 34.0802 -0.429475 1.90827 0
M  V30 363 O 35.2862 -0.732995 2.61418 0
M  V30 364 C 33.7422 1.80582 3.11317 0
M  V30 365 C 33.3502 3.31387 3.01474 0
M  V30 366 C 35.0942 1.70621 3.88701 0
M  V30 367 C 33.0012 4.00791 4.3488 0
M  V30 368 H 31.9312 0.384179 0.648785 0
M  V30 369 H 34.5822 1.4584 1.11368 0
M  V30 370 H 32.9642 1.31175 3.73643 0
M  V30 371 H 34.1382 3.88155 2.4834 0
M  V30 372 H 32.4532 3.41976 2.37575 0
M  V30 373 H 35.0502 2.19799 4.87434 0
M  V30 374 H 35.3932 0.665823 4.10941 0
M  V30 375 H 35.9262 2.17547 3.33044 0
M  V30 376 H 32.6652 5.05064 4.1784 0
M  V30 377 H 32.1852 3.48811 4.87945 0
M  V30 378 H 33.8642 4.06139 5.03647 0
M  V30 379 N 33.9963 -1.19345 1.0293 0
M  V30 380 C 35.2443 -1.88665 0.724574 0
M  V30 381 C 35.5653 -1.80036 -0.749144 0
M  V30 382 O 34.8353 -1.2111 -1.53978 0
M  V30 383 H 33.4153 -0.698406 0.265025 0
M  V30 384 H 36.0773 -1.44885 1.30362 0
M  V30 385 H 35.1733 -2.94987 1.01926 0
M  V30 386 N 35.4744 -0.807222 -1.35358 0
M  V30 387 C 36.7224 -0.387122 -1.98358 0
M  V30 388 C 37.0434 1.04942 -1.64354 0
M  V30 389 O 36.3134 1.72615 -0.926339 0
M  V30 390 H 34.8934 -0.140154 -0.733734 0
M  V30 391 H 37.5554 -1.0332 -1.6526 0
M  V30 392 H 36.6514 -0.493352 -3.08176 0
M  V30 393 N 36.9525 1.47285 -0.560781 0
M  V30 394 C 38.1805 2.06855 -0.0430262 0
M  V30 395 C 38.5955 1.41291 1.25229 0
M  V30 396 O 37.9525 0.510648 1.7521 0
M  V30 397 C 38.0035 3.61178 0.152518 0
M  V30 398 O 37.7245 4.24285 -1.0915 0
M  V30 399 C 39.2255 4.37624 0.707145 0
M  V30 400 H 36.4455 0.669319 -0.0474652 0
M  V30 401 H 38.9895 1.89237 -0.77521 0
M  V30 402 H 37.1445 3.78298 0.834843 0
M  V30 403 H 37.5585 5.16868 -0.891482 0
M  V30 404 H 39.0325 5.46271 0.793244 0
M  V30 405 H 39.5095 4.04152 1.71923 0
M  V30 406 H 40.1155 4.25257 0.0604027 0
M  V30 407 N 38.4306 0.297415 1.54768 0
M  V30 408 C 39.3406 -0.58983 2.27064 0
M  V30 409 C 40.3566 -1.15144 1.30453 0
M  V30 410 O 41.5326 -1.17699 1.63428 0
M  V30 411 C 38.5976 -1.74714 2.9946 0
M  V30 412 C 37.6586 -1.21997 4.11601 0
M  V30 413 C 36.8916 -2.32212 4.80535 0
M  V30 414 O 37.1146 -3.52036 4.48806 0
M  V30 415 O 36.0486 -1.99106 5.68014 0
M  V30 416 H 39.8746 -0.00348199 3.037 0
M  V30 417 H 37.4596 0.0640035 1.49263 0
M  V30 418 H 39.3416 -2.42147 3.44881 0
M  V30 419 H 38.0166 -2.32016 2.25722 0
M  V30 420 H 36.9236 -0.511458 3.70587 0
M  V30 421 H 38.2566 -0.692419 4.87305 0
M  V30 422 N 39.9087 -1.5758 0.0250728 0
M  V30 423 C 41.1487 -1.93497 -0.65865 0
M  V30 424 C 41.5127 -0.901409 -1.69525 0
M  V30 425 O 42.7137 -1.14664 -2.43116 0
M  V30 426 C 40.9847 -3.34352 -1.26267 0
M  V30 427 S 42.5437 -3.92191 -1.96803 0
M  V30 428 H 39.3617 -0.67709 -0.216958 0
M  V30 429 H 41.9637 -1.95303 0.0877692 0
M  V30 430 H 40.6677 -4.07395 -0.495741 0
M  V30 431 H 40.1987 -3.3598 -2.04648 0
M  V30 432 H 42.2137 -3.75298 -3.24601 0
M  V30 433 N 41.3868 0.248026 -1.55636 0
M  V30 434 C 42.3338 1.30707 -1.90222 0
M  V30 435 C 43.3038 1.47881 -0.756332 0
M  V30 436 O 44.4888 1.61883 -1.00988 0
M  V30 437 C 41.6288 2.65769 -2.20138 0
M  V30 438 C 40.7418 2.56612 -3.47526 0
M  V30 439 C 39.8768 3.8402 -3.67017 0
M  V30 440 C 38.9158 3.69476 -4.8801 0
M  V30 441 N 38.0528 4.88774 -5.04029 0
M  V30 442 H 42.8928 1.00512 -2.80538 0
M  V30 443 H 40.4298 0.485055 -1.38873 0
M  V30 444 H 42.3878 3.44386 -2.35487 0
M  V30 445 H 41.0178 2.94115 -1.33027 0
M  V30 446 H 40.0698 1.69571 -3.40514 0
M  V30 447 H 41.3818 2.41774 -4.36287 0
M  V30 448 H 40.5358 4.7108 -3.8232 0
M  V30 449 H 39.2748 4.01754 -2.76487 0
M  V30 450 H 38.2798 2.80799 -4.72686 0
M  V30 451 H 39.5048 3.53238 -5.8 0
M  V30 452 H 37.4508 5.0687 -4.16435 0
M  V30 453 H 37.3678 4.76562 -5.86877 0
M  V30 454 H 38.6358 5.77335 -5.23741 0
M  V30 455 N 42.8649 1.48995 0.513639 0
M  V30 456 C 44.2759 1.5119 1.09537 0
M  V30 457 C 44.6269 0.290906 1.94031 0
M  V30 458 O 43.7519 -0.60049 2.07902 0
M  V30 459 C 44.3469 2.73964 1.99322 0
M  V30 460 C 42.9059 2.78978 2.52682 0
M  V30 461 C 42.0529 2.44934 1.30009 0
M  V30 462 H 45.0039 1.55875 0.298125 0
M  V30 463 H 45.0249 2.53409 2.83838 0
M  V30 464 H 44.5369 3.62813 1.37799 0
M  V30 465 H 42.6379 1.94378 3.1788 0
M  V30 466 H 42.7509 3.8083 2.90698 0
M  V30 467 H 41.1149 1.9644 1.62122 0
M  V30 468 H 41.8979 3.36043 0.702131 0
M  V30 469 N 44.343 -0.763751 1.37857 0
M  V30 470 C 45.293 -1.86765 1.30777 0
M  V30 471 C 46.277 -1.59726 0.194015 0
M  V30 472 O 47.469 -1.7172 0.42911 0
M  V30 473 C 44.598 -3.24343 1.12502 0
M  V30 474 C 43.684 -3.57307 2.28456 0
M  V30 475 N 44.075 -3.61398 3.53871 0
M  V30 476 C 42.373 -3.87517 2.20786 0
M  V30 477 C 43.074 -3.91339 4.30382 0
M  V30 478 N 42.05 -4.07649 3.59615 0
M  V30 479 H 45.852 -1.88191 2.25746 0
M  V30 480 H 43.366 -0.9606 1.30944 0
M  V30 481 H 45.363 -4.03327 1.05514 0
M  V30 482 H 44.023 -3.24175 0.184574 0
M  V30 483 H 45.034 -3.43407 3.87675 0
M  V30 484 H 41.711 -3.95125 1.34844 0
M  V30 485 H 43.101 -4.01213 5.3896 0
M  V30 486 N 45.8211 -1.22559 -0.990812 0
M  V30 487 C 47.0461 -1.07862 -1.77145 0
M  V30 488 C 47.4711 0.366447 -1.84496 0
M  V30 489 O 46.8291 1.26478 -1.29896 0
M  V30 490 C 46.8771 -1.69686 -3.18181 0
M  V30 491 O 45.9811 -0.951946 -4.01263 0
M  V30 492 H 45.3221 -0.378712 -0.545411 0
M  V30 493 H 47.8521 -1.62399 -1.2445 0
M  V30 494 H 47.8621 -1.74496 -3.68802 0
M  V30 495 H 46.5371 -2.74841 -3.12146 0
M  V30 496 H 45.1141 -0.980011 -3.59792 0
M  V30 497 N 47.2992 1.18797 -1.03562 0
M  V30 498 C 48.7152 1.40671 -0.753917 0
M  V30 499 C 48.9152 1.9043 0.658686 0
M  V30 500 O 47.9712 2.08538 1.42366 0
M  V30 501 C 49.2842 2.41192 -1.79574 0
M  V30 502 C 50.8322 2.54928 -1.81606 0
M  V30 503 C 51.3072 3.58709 -2.84766 0
M  V30 504 N 52.7982 3.66212 -2.83625 0
M  V30 505 C 53.5332 4.46225 -3.60098 0
M  V30 506 N 53.0292 5.29888 -4.46308 0
M  V30 507 N 54.8222 4.40939 -3.4861 0
M  V30 508 H 46.9732 0.848221 -1.94728 0
M  V30 509 H 49.2362 0.435081 -0.842264 0
M  V30 510 H 48.9422 2.11669 -2.80872 0
M  V30 511 H 48.8162 3.40467 -1.62365 0
M  V30 512 H 51.2032 2.83771 -0.809817 0
M  V30 513 H 51.2842 1.55784 -2.02891 0
M  V30 514 H 50.9282 3.30607 -3.85566 0
M  V30 515 H 50.8582 4.57519 -2.60737 0
M  V30 516 H 53.3492 3.06466 -2.21105 0
M  V30 517 H 53.6622 5.88078 -5.01382 0
M  V30 518 H 52.0072 5.29326 -4.50377 0
M  V30 519 H 55.1982 3.74624 -2.80668 0
M  V30 520 H 55.3712 5.03056 -4.08459 0
M  V30 521 N 48.7773 0.814389 1.34928 0
M  V30 522 C 50.1883 0.458364 1.80986 0
M  V30 523 C 50.5393 -1.02042 1.67577 0
M  V30 524 O 49.6643 -1.79352 1.21086 0
M  V30 525 C 50.2593 0.825212 3.28597 0
M  V30 526 C 48.8183 0.521677 3.72767 0
M  V30 527 C 47.9653 1.04668 2.56788 0
M  V30 528 H 50.9163 1.00533 1.22795 0
M  V30 529 H 50.9373 0.12571 3.80292 0
M  V30 530 H 50.4493 1.90154 3.38324 0
M  V30 531 H 48.5503 -0.545589 3.68584 0
M  V30 532 H 48.6633 1.05977 4.67232 0
M  V30 533 H 47.0273 0.468622 2.50352 0
M  V30 534 H 47.8103 2.12927 2.6929 0
M  V30 535 N 50.2554 -1.46986 0.568584 0
M  V30 536 C 51.4854 -2.0653 0.0539173 0
M  V30 537 C 51.8934 -1.42004 -1.25026 0
M  V30 538 O 51.2364 -0.514541 -1.76347 0
M  V30 539 C 51.2984 -3.58938 -0.200854 0
M  V30 540 C 50.9624 -4.45572 1.01559 0
M  V30 541 C 51.9594 -4.82986 1.92407 0
M  V30 542 C 49.6444 -4.8692 1.23346 0
M  V30 543 C 51.6384 -5.60559 3.03402 0
M  V30 544 C 49.3254 -5.64255 2.34649 0
M  V30 545 C 50.3234 -6.00986 3.24507 0
M  V30 546 O 50.0114 -6.76761 4.33878 0
M  V30 547 H 49.7434 -0.674292 0.0480234 0
M  V30 548 H 52.2974 -1.89812 0.784896 0
M  V30 549 H 50.5274 -3.73911 -0.986279 0
M  V30 550 H 52.2164 -4.0046 -0.662294 0
M  V30 551 H 52.9824 -4.51633 1.76785 0
M  V30 552 H 48.8614 -4.57789 0.543178 0
M  V30 553 H 52.4054 -5.89147 3.73565 0
M  V30 554 H 48.3024 -5.95021 2.5024 0
M  V30 555 H 49.0704 -6.95168 4.32068 0
M  V30 556 N 51.7335 -0.305618 -1.54608 0
M  V30 557 C 52.6665 0.610536 -2.19881 0
M  V30 558 C 53.6445 1.1294 -1.16976 0
M  V30 559 O 54.8285 1.19673 -1.45638 0
M  V30 560 C 51.9555 1.83583 -2.84631 0
M  V30 561 C 51.0015 1.4498 -4.01102 0
M  V30 562 S 51.8345 0.501793 -5.33144 0
M  V30 563 C 52.9905 1.73478 -6.01379 0
M  V30 564 H 53.2235 0.0560177 -2.97247 0
M  V30 565 H 50.7565 -0.0897434 -1.54139 0
M  V30 566 H 52.7145 2.53898 -3.22562 0
M  V30 567 H 51.3755 2.36152 -2.07102 0
M  V30 568 H 50.5685 2.36236 -4.45206 0
M  V30 569 H 50.1705 0.826553 -3.64752 0
M  V30 570 H 52.4625 2.67473 -6.22467 0
M  V30 571 H 53.4055 1.33622 -6.95378 0
M  V30 572 H 53.8135 1.9136 -5.31076 0
M  V30 573 N 53.2116 1.57565 -0.0334293 0
M  V30 574 C 54.1746 2.09393 0.932048 0
M  V30 575 C 55.1746 1.00986 1.25134 0
M  V30 576 O 56.3646 1.27129 1.19096 0
M  V30 577 C 53.4966 2.56338 2.2473 0
M  V30 578 H 54.6896 2.95984 0.483085 0
M  V30 579 H 52.2426 1.54819 0.21468 0
M  V30 580 H 52.9776 1.7309 2.74245 0
M  V30 581 H 52.7626 3.35542 2.02865 0
M  V30 582 H 54.2526 2.96646 2.93923 0
M  V30 583 N 54.6897 -0.239769 1.55765 0
M  V30 584 C 55.9197 -0.982743 1.8173 0
M  V30 585 C 56.3277 -1.7917 0.607835 0
M  V30 586 O 55.6707 -1.78525 -0.432973 0
M  V30 587 C 55.7327 -1.96332 3.01155 0
M  V30 588 C 55.3967 -1.34062 4.36894 0
M  V30 589 C 56.3937 -0.739539 5.14613 0
M  V30 590 C 54.0787 -1.35784 4.83599 0
M  V30 591 C 56.0727 -0.163989 6.37189 0
M  V30 592 C 53.7597 -0.778441 6.06122 0
M  V30 593 C 54.7577 -0.182548 6.82756 0
M  V30 594 O 54.4457 0.387887 8.02964 0
M  V30 595 H 54.1777 -0.294481 0.608487 0
M  V30 596 H 56.7317 -0.26572 2.03674 0
M  V30 597 H 54.9617 -2.71884 2.74984 0
M  V30 598 H 56.6507 -2.57032 3.14149 0
M  V30 599 H 57.4167 -0.718687 4.79646 0
M  V30 600 H 53.2957 -1.81105 4.23936 0
M  V30 601 H 56.8397 0.301753 6.96947 0
M  V30 602 H 52.7367 -0.796645 6.40565 0
M  V30 603 H 53.5047 0.28044 8.18019 0
M  V30 604 N 56.1678 -1.49265 -0.50573 0
M  V30 605 C 57.0978 -1.68495 -1.61653 0
M  V30 606 C 58.0788 -0.53366 -1.61512 0
M  V30 607 O 59.2638 -0.76897 -1.78327 0
M  V30 608 C 56.3938 -1.74709 -3.00157 0
M  V30 609 C 55.3478 -2.89581 -3.15162 0
M  V30 610 C 54.6738 -2.80903 -4.5497 0
M  V30 611 C 55.9738 -4.30578 -2.95634 0
M  V30 612 H 57.6678 -2.61493 -1.45814 0
M  V30 613 H 55.2138 -1.25838 -0.70005 0
M  V30 614 H 57.1668 -1.86748 -3.77761 0
M  V30 615 H 55.8908 -0.783067 -3.17074 0
M  V30 616 H 54.5498 -2.77136 -2.39982 0
M  V30 617 H 54.1978 -1.82419 -4.68756 0
M  V30 618 H 53.8978 -3.57999 -4.65951 0
M  V30 619 H 55.4218 -2.94944 -5.34641 0
M  V30 620 H 56.8358 -4.4373 -3.63011 0
M  V30 621 H 55.2328 -5.0886 -3.18091 0
M  V30 622 H 56.3028 -4.45352 -1.91806 0
M  V30 623 N 57.6459 0.756429 -1.3826 0
M  V30 624 C 58.5559 1.9009 -1.37488 0
M  V30 625 C 59.5719 1.71855 -0.272366 0
M  V30 626 O 60.7479 1.94827 -0.510318 0
M  V30 627 C 57.8129 3.25421 -1.19592 0
M  V30 628 C 56.8739 3.56202 -2.39622 0
M  V30 629 C 56.1069 4.85075 -2.2257 0
M  V30 630 O 56.3299 5.57246 -1.21793 0
M  V30 631 O 55.2639 5.15269 -3.11098 0
M  V30 632 H 59.0899 1.93695 -2.33914 0
M  V30 633 H 56.6749 0.901313 -1.1915 0
M  V30 634 H 58.5569 4.06337 -1.11661 0
M  V30 635 H 57.2319 3.22634 -0.262486 0
M  V30 636 H 56.1389 2.75458 -2.53128 0
M  V30 637 H 57.4719 3.63747 -3.31586 0
M  V30 638 N 59.124 1.23083 0.984299 0
M  V30 639 C 60.373 1.05466 1.71929 0
M  V30 640 C 60.686 -0.409211 1.91272 0
M  V30 641 O 61.892 -0.705226 2.62181 0
M  V30 642 C 60.348 1.83874 3.09384 0
M  V30 643 C 59.956 3.34566 2.97943 0
M  V30 644 C 61.7 1.74734 3.8687 0
M  V30 645 C 59.607 4.05381 4.30605 0
M  V30 646 H 58.537 0.391039 0.644674 0
M  V30 647 H 61.188 1.47013 1.09815 0
M  V30 648 H 59.57 1.35131 3.72231 0
M  V30 649 H 60.744 3.90767 2.44209 0
M  V30 650 H 59.059 3.44476 2.33934 0
M  V30 651 H 61.656 2.24957 4.85076 0
M  V30 652 H 61.999 0.709372 4.10212 0
M  V30 653 H 62.532 2.21067 3.30717 0
M  V30 654 H 59.271 5.09467 4.1246 0
M  V30 655 H 58.791 3.53967 4.84218 0
M  V30 656 H 60.47 4.11458 4.99311 0
M  V30 657 N 60.6021 -1.18246 1.0419 0
M  V30 658 C 61.8481 -1.88536 0.747122 0
M  V30 659 C 62.1811 -1.80223 -0.723409 0
M  V30 660 O 61.4561 -1.20337 -1.52804 0
M  V30 661 C 61.7391 -3.38968 1.21544 0
M  V30 662 C 61.5921 -3.56084 2.74816 0
M  V30 663 C 62.9111 -4.32648 0.806482 0
M  V30 664 H 60.0301 -0.684619 0.272883 0
M  V30 665 H 62.6721 -1.39113 1.29413 0
M  V30 666 H 60.8221 -3.8119 0.750081 0
M  V30 667 H 62.4941 -3.22946 3.29399 0
M  V30 668 H 60.7371 -2.98699 3.14582 0
M  V30 669 H 61.4081 -4.61639 3.02644 0
M  V30 670 H 63.8841 -3.98211 1.20695 0
M  V30 671 H 62.7601 -5.36462 1.1619 0
M  V30 672 H 63.0211 -4.41146 -0.29029 0
M  V30 673 N 62.0802 -0.821533 -1.34494 0
M  V30 674 C 63.3082 -0.421884 -2.02553 0
M  V30 675 C 63.7232 0.971745 -1.61872 0
M  V30 676 O 63.0802 1.62864 -0.823496 0
M  V30 677 C 63.1312 -0.51285 -3.57844 0
M  V30 678 O 62.8522 -1.85155 -3.97051 0
M  V30 679 C 64.3532 -0.107921 -4.43169 0
M  V30 680 H 61.5732 -0.169482 -0.649243 0
M  V30 681 H 64.1172 -1.1093 -1.71798 0
M  V30 682 H 62.2722 0.126474 -3.87193 0
M  V30 683 H 62.6862 -1.82482 -4.91732 0
M  V30 684 H 64.1602 -0.222657 -5.51551 0
M  V30 685 H 64.6372 0.948401 -4.28838 0
M  V30 686 H 65.2432 -0.720989 -4.19144 0
M  V30 687 N 63.5583 1.46682 -0.576371 0
M  V30 688 C 64.7833 2.07304 -0.0630475 0
M  V30 689 C 65.2083 1.42329 1.2298 0
M  V30 690 O 64.5663 0.504865 1.74129 0
M  V30 691 C 64.6143 3.60472 0.095895 0
M  V30 692 O 63.7183 3.95927 1.15394 0
M  V30 693 H 63.0593 0.661288 -0.0599463 0
M  V30 694 H 65.5893 1.88417 -0.797511 0
M  V30 695 H 65.5993 4.06865 0.304071 0
M  V30 696 H 64.2743 4.07157 -0.84828 0
M  V30 697 H 62.8513 3.61252 0.924724 0
M  V30 698 N 65.0364 0.313813 1.54444 0
M  V30 699 C 65.9844 -0.572171 2.25453 0
M  V30 700 C 66.9784 -1.12657 1.2651 0
M  V30 701 O 68.1844 -1.07573 1.44319 0
M  V30 702 H 64.5594 -0.203146 0.724041 0
M  V30 703 H 66.5304 0.0491145 2.9836 0
M  V30 704 C 65.2794 -1.72626 3.0182 0
M  V30 705 H 64.6024 -1.30891 3.77767 0
M  V30 706 H 66.0424 -2.32199 3.54767 0
M  V30 707 C 64.5014 -2.63806 2.09542 0
M  V30 708 O 65.0314 -3.65256 1.67185 0
M  V30 709 N 63.2374 -2.31824 1.75232 0
M  V30 710 H 62.7844 -1.49368 2.09873 0
M  V30 711 H 62.7424 -2.93095 1.13767 0
M  V30 712 N 66.5145 -1.57545 0.0417849 0
M  V30 713 C 67.7625 -1.91937 -0.632829 0
M  V30 714 C 68.0835 -0.919978 -1.71934 0
M  V30 715 O 67.3535 0.0366064 -1.95866 0
M  V30 716 H 65.9335 -0.708493 -0.236742 0
M  V30 717 H 68.5955 -1.9468 0.0925745 0
M  V30 718 H 67.6915 -2.92912 -1.07746 0
M  V30 719 N 67.9926 0.231505 -1.5589 0
M  V30 720 C 69.4036 0.799327 -1.68724 0
M  V30 721 C 69.7546 1.85398 -0.642022 0
M  V30 722 O 68.8796 2.1539 0.208784 0
M  V30 723 C 69.4746 1.45664 -3.05888 0
M  V30 724 C 68.0336 1.97197 -3.20609 0
M  V30 725 C 67.1806 0.828552 -2.64632 0
M  V30 726 H 70.1316 0.00702616 -1.58698 0
M  V30 727 H 70.1526 2.32517 -3.01191 0
M  V30 728 H 69.6646 0.688808 -3.81939 0
M  V30 729 H 67.7656 2.76813 -2.4941 0
M  V30 730 H 67.8786 2.15878 -4.27707 0
M  V30 731 H 66.2426 1.23321 -2.22854 0
M  V30 732 H 67.0256 0.0735544 -3.43221 0
M  V30 733 N 69.4707 1.49531 0.497807 0
M  V30 734 C 70.6957 1.63159 1.28039 0
M  V30 735 C 71.1207 0.30418 1.85624 0
M  V30 736 O 70.4787 -0.728618 1.66015 0
M  V30 737 C 70.5267 2.70537 2.38416 0
M  V30 738 O 69.6307 2.29931 3.42353 0
M  V30 739 H 68.9717 0.546001 0.377861 0
M  V30 740 H 71.5017 1.9574 0.59558 0
M  V30 741 H 71.5117 2.92802 2.84132 0
M  V30 742 H 70.1867 3.6689 1.95869 0
M  V30 743 H 68.7637 2.18009 3.02533 0
M  V30 744 N 70.9488 -0.749086 1.3866 0
M  V30 745 C 71.8958 -1.86291 1.36251 0
M  V30 746 C 72.8658 -1.64578 0.224347 0
M  V30 747 O 74.0508 -1.86181 0.417279 0
M  V30 748 C 71.1908 -3.23644 1.19786 0
M  V30 749 C 70.3038 -3.57158 2.43027 0
M  V30 750 C 69.4388 -4.83838 2.19258 0
M  V30 751 C 68.4778 -5.10152 3.38247 0
M  V30 752 N 67.6148 -6.28029 3.13884 0
M  V30 753 H 72.4548 -1.87685 2.3147 0
M  V30 754 H 69.9918 -0.917287 1.14997 0
M  V30 755 H 71.9498 -4.0291 1.08254 0
M  V30 756 H 70.5798 -3.21566 0.282031 0
M  V30 757 H 69.6318 -2.72701 2.65214 0
M  V30 758 H 70.9438 -3.7253 3.31697 0
M  V30 759 H 70.0978 -5.71057 2.04888 0
M  V30 760 H 68.8368 -4.70614 1.2796 0
M  V30 761 H 67.8418 -4.21401 3.53131 0
M  V30 762 H 69.0668 -5.25271 4.30427 0
M  V30 763 H 67.0128 -6.1612 2.25238 0
M  V30 764 H 66.9298 -6.43922 3.96106 0
M  V30 765 H 68.1978 -7.18124 3.03179 0
M  V30 766 N 72.4269 -1.23603 -0.977757 0
M  V30 767 C 73.6739 -1.06971 -1.71941 0
M  V30 768 C 74.0019 0.393009 -1.90488 0
M  V30 769 O 73.2569 1.30719 -1.4564 0
M  V30 770 C 73.5559 -1.7433 -3.11999 0
M  V30 771 C 73.2219 -3.24252 -3.13323 0
M  V30 772 C 71.8839 -3.65156 -3.13392 0
M  V30 773 C 74.2359 -4.20141 -3.08433 0
M  V30 774 C 71.5639 -5.00403 -3.0629 0
M  V30 775 C 73.9159 -5.55384 -3.02873 0
M  V30 776 C 72.5799 -5.95647 -3.01265 0
M  V30 777 H 71.8499 -0.391433 -0.629175 0
M  V30 778 H 74.4969 -1.53572 -1.14403 0
M  V30 779 H 72.8019 -1.20096 -3.7294 0
M  V30 780 H 74.4989 -1.58936 -3.68158 0
M  V30 781 H 71.0889 -2.91692 -3.14029 0
M  V30 782 H 75.2729 -3.89547 -3.07517 0
M  V30 783 H 70.5289 -5.3081 -3.03399 0
M  V30 784 H 74.7029 -6.29398 -2.98046 0
M  V30 785 H 72.3299 -7.0041 -2.95516 0
M  V30 786 N 73.905 1.17692 -1.04816 0
M  V30 787 C 75.145 1.89545 -0.764979 0
M  V30 788 C 75.509 1.78979 0.695028 0
M  V30 789 O 76.71 2.45613 1.09215 0
M  V30 790 C 74.981 3.35659 -1.22751 0
M  V30 791 S 76.54 4.25526 -1.07112 0
M  V30 792 H 73.358 0.654432 -0.27792 0
M  V30 793 H 75.96 1.42163 -1.34201 0
M  V30 794 H 74.664 3.40882 -2.28533 0
M  V30 795 H 74.195 3.88083 -0.644594 0
M  V30 796 H 76.21 4.962 0.00697508 0
M  V30 797 N 75.3831 0.828654 1.34056 0
M  V30 798 C 76.6311 0.41863 1.97717 0
M  V30 799 C 76.9521 -1.02314 1.66002 0
M  V30 800 O 76.2221 -1.71119 0.953683 0
M  V30 801 H 74.8021 0.151809 0.731412 0
M  V30 802 H 77.4641 1.05936 1.63596 0
M  V30 803 H 76.5601 0.542318 3.07352 0
M  V30 804 N 76.8612 -1.46375 0.584142 0
M  V30 805 C 78.1092 -2.01978 0.0701287 0
M  V30 806 C 78.4302 -1.4579 -1.295 0
M  V30 807 O 77.7002 -0.64314 -1.85042 0
M  V30 808 H 76.2802 -0.746648 0.0229345 0
M  V30 809 H 78.9422 -1.79461 0.760245 0
M  V30 810 H 78.0382 -3.121 0.0022064 0
M  V30 811 N 78.3393 -0.321999 -1.54275 0
M  V30 812 C 79.5863 0.281044 -2.0054 0
M  V30 813 C 79.9143 1.52265 -1.21019 0
M  V30 814 O 79.1693 1.93687 -0.279982 0
M  V30 815 C 79.4683 0.661769 -3.5122 0
M  V30 816 C 79.1343 -0.480482 -4.48333 0
M  V30 817 C 77.7963 -0.794005 -4.74604 0
M  V30 818 C 80.1483 -1.24783 -5.06042 0
M  V30 819 C 77.4763 -1.87763 -5.55844 0
M  V30 820 C 79.8283 -2.32153 -5.88462 0
M  V30 821 C 78.4923 -2.64089 -6.13036 0
M  V30 822 H 77.7623 0.102841 -0.733829 0
M  V30 823 H 80.4093 -0.445453 -1.86247 0
M  V30 824 H 78.7143 1.46867 -3.63232 0
M  V30 825 H 80.4113 1.13989 -3.84457 0
M  V30 826 H 77.0013 -0.226039 -4.28004 0
M  V30 827 H 81.1853 -1.01887 -4.85729 0
M  V30 828 H 76.4413 -2.12954 -5.73115 0
M  V30 829 H 80.6153 -2.92057 -6.32199 0
M  V30 830 H 78.2423 -3.48185 -6.75775 0
M  V30 831 N 79.8174 1.5752 -0.0501392 0
M  V30 832 C 80.7474 2.14502 0.922566 0
M  V30 833 C 81.7284 1.06642 1.3252 0
M  V30 834 O 82.9134 1.34577 1.4001 0
M  V30 835 C 80.0434 2.68916 2.19776 0
M  V30 836 C 78.9974 3.8175 1.93523 0
M  V30 837 C 78.3234 4.22677 3.27487 0
M  V30 838 C 79.6234 5.06932 1.25765 0
M  V30 839 H 81.3174 2.9603 0.447952 0
M  V30 840 H 78.8634 1.42401 0.214024 0
M  V30 841 H 80.8164 3.07419 2.88222 0
M  V30 842 H 79.5404 1.84578 2.69441 0
M  V30 843 H 78.1994 3.43718 1.27489 0
M  V30 844 H 77.8474 3.35291 3.74952 0
M  V30 845 H 77.5474 4.98725 3.1072 0
M  V30 846 H 79.0714 4.63779 3.97166 0
M  V30 847 H 80.4854 5.42888 1.84244 0
M  V30 848 H 78.8824 5.88116 1.19328 0
M  V30 849 H 79.9524 4.84337 0.233536 0
M  V30 850 N 81.2955 -0.223234 1.56011 0
M  V30 851 C 82.5445 -0.945912 1.78144 0
M  V30 852 C 82.8575 -1.85567 0.618396 0
M  V30 853 O 84.0635 -2.61688 0.723318 0
M  V30 854 C 82.5195 -1.73216 3.15475 0
M  V30 855 C 82.1275 -0.868619 4.39499 0
M  V30 856 C 83.8715 -2.44615 3.46935 0
M  V30 857 C 81.7785 -1.65212 5.67855 0
M  V30 858 H 80.7085 -0.356929 0.664167 0
M  V30 859 H 83.3595 -0.199845 1.82409 0
M  V30 860 H 81.7415 -2.52107 3.05382 0
M  V30 861 H 82.9155 -0.120366 4.60643 0
M  V30 862 H 81.2305 -0.26683 4.15544 0
M  V30 863 H 83.8275 -3.03732 4.40058 0
M  V30 864 H 84.1705 -3.17417 2.69355 0
M  V30 865 H 84.7035 -1.72715 3.58349 0
M  V30 866 H 81.4425 -0.967407 6.48322 0
M  V30 867 H 80.9625 -2.37503 5.50774 0
M  V30 868 H 82.6415 -2.21322 6.07968 0
M  V30 869 N 82.7736 -1.49793 -0.48987 0
M  V30 870 C 84.1896 -1.36803 -0.822022 0
M  V30 871 C 84.3896 -0.409652 -1.97292 0
M  V30 872 O 83.4456 0.154614 -2.52026 0
M  V30 873 C 84.7586 -2.77768 -1.15175 0
M  V30 874 C 86.3066 -2.86549 -1.25931 0
M  V30 875 C 86.7816 -4.28306 -1.62228 0
M  V30 876 N 88.2726 -4.31169 -1.69256 0
M  V30 877 C 89.0076 -5.37832 -1.98807 0
M  V30 878 N 88.5036 -6.54726 -2.26507 0
M  V30 879 N 90.2966 -5.25258 -2.00152 0
M  V30 880 H 82.4476 -2.10691 0.268881 0
M  V30 881 H 84.7106 -0.946241 0.057728 0
M  V30 882 H 84.4166 -3.49648 -0.379335 0
M  V30 883 H 84.2906 -3.13836 -2.09253 0
M  V30 884 H 86.6776 -2.14899 -2.02243 0
M  V30 885 H 86.7586 -2.54049 -0.298776 0
M  V30 886 H 86.4026 -5.00486 -0.864622 0
M  V30 887 H 86.3326 -4.58279 -2.594 0
M  V30 888 H 88.8236 -3.4687 -1.49965 0
M  V30 889 H 89.1366 -7.31833 -2.48276 0
M  V30 890 H 87.4816 -6.57933 -2.23939 0
M  V30 891 H 90.6726 -4.32938 -1.77996 0
M  V30 892 H 90.8456 -6.08476 -2.22848 0
M  V30 893 N 84.2517 0.741722 -1.39055 0
M  V30 894 C 85.6677 1.04638 -1.20512 0
M  V30 895 C 85.8677 2.01405 -0.0620218 0
M  V30 896 O 84.9237 2.45547 0.588457 0
M  V30 897 C 86.2367 1.6151 -2.53643 0
M  V30 898 C 87.7847 1.73623 -2.6043 0
M  V30 899 C 88.2597 2.33906 -3.93767 0
M  V30 900 N 89.7507 2.41323 -3.9537 0
M  V30 901 C 90.4857 2.88888 -4.95309 0
M  V30 902 N 89.9817 3.36401 -6.05645 0
M  V30 903 N 91.7747 2.88037 -4.82692 0
M  V30 904 H 83.9257 0.0998155 -2.12165 0
M  V30 905 H 86.1887 0.106907 -0.941953 0
M  V30 906 H 85.8947 0.978739 -3.37807 0
M  V30 907 H 85.7687 2.60411 -2.72885 0
M  V30 908 H 88.1557 2.36384 -1.76655 0
M  V30 909 H 88.2367 0.733945 -2.45045 0
M  V30 910 H 87.8807 1.71776 -4.7797 0
M  V30 911 H 87.8107 3.34799 -4.06469 0
M  V30 912 H 90.3017 2.07734 -3.15682 0
M  V30 913 H 90.6147 3.71186 -6.77821 0
M  V30 914 H 88.9597 3.34427 -6.09248 0
M  V30 915 H 92.1507 2.50237 -3.95599 0
M  V30 916 H 92.3237 3.24792 -5.60726 0
M  V30 917 N 85.7298 1.2412 0.971189 0
M  V30 918 C 86.6778 1.02812 2.08644 0
M  V30 919 C 87.6718 -0.0358403 1.69362 0
M  V30 920 O 88.8778 0.118429 1.7961 0
M  V30 921 H 85.2528 0.315428 0.682649 0
M  V30 922 H 87.2238 1.97397 2.23779 0
M  V30 923 C 85.9728 0.645874 3.41649 0
M  V30 924 H 85.2958 1.45632 3.72332 0
M  V30 925 H 86.7358 0.536366 4.20594 0
M  V30 926 C 85.1948 -0.646713 3.30635 0
M  V30 927 O 85.7248 -1.69338 3.64263 0
M  V30 928 N 83.9308 -0.626115 2.83775 0
M  V30 929 H 83.4778 0.225988 2.56607 0
M  V30 930 H 83.4358 -1.49117 2.76788 0
M  V30 931 N 87.2079 -1.17134 1.05439 0
M  V30 932 C 88.4549 -1.87456 0.765942 0
M  V30 933 C 88.7829 -1.81189 -0.707153 0
M  V30 934 O 88.0379 -1.21633 -1.5331 0
M  V30 935 C 88.3369 -3.36833 1.19491 0
M  V30 936 C 88.0029 -3.63301 2.67063 0
M  V30 937 C 86.6649 -3.70234 3.07376 0
M  V30 938 C 89.0169 -3.74575 3.62413 0
M  V30 939 C 86.3449 -3.85933 4.41896 0
M  V30 940 C 88.6969 -3.91793 4.9667 0
M  V30 941 C 87.3609 -3.96966 5.36633 0
M  V30 942 H 86.6309 -0.685948 0.280278 0
M  V30 943 H 89.2779 -1.38556 1.32192 0
M  V30 944 H 87.5829 -3.87807 0.557969 0
M  V30 945 H 89.2799 -3.89611 0.948893 0
M  V30 946 H 85.8699 -3.58532 2.34846 0
M  V30 947 H 90.0539 -3.68537 3.32406 0
M  V30 948 H 85.3099 -3.88187 4.72357 0
M  V30 949 H 89.4839 -3.99458 5.70444 0
M  V30 950 H 87.1109 -4.08883 6.40874 0
M  V30 951 N 88.686 -0.835752 -1.33615 0
M  V30 952 C 89.932 -0.430596 -1.98176 0
M  V30 953 C 90.265 1.00684 -1.66061 0
M  V30 954 O 89.54 1.70339 -0.938877 0
M  V30 955 C 89.823 -0.648065 -3.5422 0
M  V30 956 C 89.676 -2.13255 -3.96033 0
M  V30 957 C 90.995 -0.0922113 -4.40003 0
M  V30 958 H 88.114 -0.157924 -0.719881 0
M  V30 959 H 90.756 -1.05069 -1.58305 0
M  V30 960 H 88.906 -0.120237 -3.88314 0
M  V30 961 H 90.578 -2.725 -3.72211 0
M  V30 962 H 88.821 -2.61823 -3.45878 0
M  V30 963 H 89.492 -2.23547 -5.04708 0
M  V30 964 H 91.968 -0.543343 -4.12537 0
M  V30 965 H 90.844 -0.274083 -5.48215 0
M  V30 966 H 91.105 1.00378 -4.30554 0
M  V30 967 N 90.1641 1.46063 -0.591896 0
M  V30 968 C 91.0941 2.33172 0.123673 0
M  V30 969 C 92.0751 1.45897 0.87453 0
M  V30 970 O 93.2601 1.74698 0.848181 0
M  V30 971 C 90.3901 3.28336 1.13194 0
M  V30 972 C 89.3441 4.25124 0.495324 0
M  V30 973 C 88.6701 5.09863 1.61071 0
M  V30 974 C 89.9701 5.19143 -0.573425 0
M  V30 975 H 91.6641 2.93252 -0.603646 0
M  V30 976 H 89.2101 1.41014 -0.291741 0
M  V30 977 H 91.1631 3.88137 1.64097 0
M  V30 978 H 89.8871 2.66383 1.88965 0
M  V30 979 H 88.5461 3.66599 0.00729452 0
M  V30 980 H 88.1941 4.44288 2.35832 0
M  V30 981 H 87.8941 5.75417 1.19035 0
M  V30 982 H 89.4181 5.72529 2.12233 0
M  V30 983 H 90.8321 5.73106 -0.1491 0
M  V30 984 H 89.2291 5.93089 -0.914636 0
M  V30 985 H 90.2991 4.62519 -1.45617 0
M  V30 986 N 91.6422 0.330177 1.54103 0
M  V30 987 C 92.8702 -0.272179 2.05102 0
M  V30 988 C 93.2852 -1.45267 1.20595 0
M  V30 989 O 92.6422 -1.8094 0.238144 0
M  V30 990 C 92.6932 -0.70023 3.54653 0
M  V30 991 O 92.4142 0.433301 4.35952 0
M  V30 992 C 93.9152 -1.3647 4.21771 0
M  V30 993 H 91.1352 -0.0549159 0.668749 0
M  V30 994 H 93.6792 0.478285 1.98828 0
M  V30 995 H 91.8342 -1.40066 3.61193 0
M  V30 996 H 92.2482 0.0947539 5.24414 0
M  V30 997 H 93.7222 -1.61509 5.27843 0
M  V30 998 H 94.1992 -2.31409 3.73292 0
M  V30 999 H 94.8052 -0.706675 4.19388 0
M  V30 1000 N 93.1203 -1.57491 0.0584922 0
M  V30 1001 C 94.0833 -2.1085 -0.898617 0
M  V30 1002 C 95.0833 -1.02964 -1.23511 0
M  V30 1003 O 96.2733 -1.29007 -1.17059 0
M  V30 1004 C 93.4053 -2.59881 -2.20623 0
M  V30 1005 H 94.5983 -2.96715 -0.435936 0
M  V30 1006 H 92.1513 -1.55141 -0.190023 0
M  V30 1007 H 92.8863 -1.77431 -2.71457 0
M  V30 1008 H 92.6713 -3.38727 -1.97501 0
M  V30 1009 H 94.1613 -3.01285 -2.89166 0
M  V30 1010 N 94.5984 0.214957 -1.56127 0
M  V30 1011 C 95.5614 1.24997 -1.92116 0
M  V30 1012 C 96.5614 1.39467 -0.800344 0
M  V30 1013 O 97.7514 1.37619 -1.06802 0
M  V30 1014 C 94.8834 2.62271 -2.17777 0
M  V30 1015 H 96.0764 0.942875 -2.84693 0
M  V30 1016 H 93.6294 0.455654 -1.49511 0
M  V30 1017 H 94.3644 2.98068 -1.27773 0
M  V30 1018 H 94.1494 2.53143 -2.99434 0
M  V30 1019 H 95.6394 3.36946 -2.46693 0
M  V30 1020 N 96.0765 1.50051 0.48192 0
M  V30 1021 C 97.0265 1.64512 1.5786 0
M  V30 1022 C 98.0105 0.500073 1.52932 0
M  V30 1023 O 99.2025 0.753964 1.60139 0
M  V30 1024 C 96.3315 1.73263 2.9637 0
M  V30 1025 C 95.4175 2.93409 3.06222 0
M  V30 1026 N 95.8085 4.17236 2.85915 0
M  V30 1027 C 94.1065 2.91742 3.37346 0
M  V30 1028 C 94.8075 4.981 3.00451 0
M  V30 1029 N 93.7835 4.3184 3.30174 0
M  V30 1030 H 97.5855 2.57955 1.40842 0
M  V30 1031 H 95.0995 1.47086 0.688439 0
M  V30 1032 H 97.0965 1.81724 3.75209 0
M  V30 1033 H 95.7565 0.809711 3.14442 0
M  V30 1034 H 96.7675 4.46909 2.6171 0
M  V30 1035 H 93.4445 2.08907 3.61475 0
M  V30 1036 H 94.8345 6.06532 2.89082 0
M  V30 1037 N 97.5546 -0.734337 1.39446 0
M  V30 1038 C 98.7946 -1.50655 1.38139 0
M  V30 1039 C 99.1586 -1.91986 -0.0228701 0
M  V30 1040 O 100.36 -2.68318 -0.160947 0
M  V30 1041 C 98.6306 -2.71251 2.32718 0
M  V30 1042 S 100.19 -3.60892 2.49605 0
M  V30 1043 H 97.0076 -0.515315 0.489869 0
M  V30 1044 H 99.6096 -0.860392 1.75549 0
M  V30 1045 H 98.3136 -2.39027 3.33608 0
M  V30 1046 H 97.8446 -3.40795 1.96526 0
M  V30 1047 H 99.8596 -4.64899 1.73446 0
M  V30 1048 N 99.0327 -1.24633 -0.964593 0
M  V30 1049 C 99.9957 -1.0424 -2.04124 0
M  V30 1050 C 100.996 0.00137563 -1.608 0
M  V30 1051 O 102.186 -0.239883 -1.7254 0
M  V30 1052 C 99.3177 -0.580588 -3.3592 0
M  V30 1053 H 100.511 -1.99803 -2.23649 0
M  V30 1054 H 98.0637 -1.06899 -1.14027 0
M  V30 1055 H 98.7987 0.3781 -3.22088 0
M  V30 1056 H 98.5837 -1.33398 -3.6871 0
M  V30 1057 H 100.074 -0.459034 -4.15069 0
M  V30 1058 N 100.511 1.16574 -1.06058 0
M  V30 1059 C 101.759 1.86677 -0.77434 0
M  V30 1060 C 102.08 1.81959 0.701147 0
M  V30 1061 O 101.35 1.2515 1.50713 0
M  V30 1062 H 99.9298 0.691134 -0.283449 0
M  V30 1063 H 102.592 1.41378 -1.34158 0
M  V30 1064 H 101.688 2.92181 -1.09711 0
M  V30 1065 N 101.989 0.842826 1.3317 0
M  V30 1066 C 103.405 0.531128 1.50503 0
M  V30 1067 C 103.605 -0.940734 1.78192 0
M  V30 1068 O 102.661 -1.72436 1.84451 0
M  V30 1069 C 103.974 1.40789 2.65705 0
M  V30 1070 C 105.522 1.40708 2.79589 0
M  V30 1071 C 105.997 2.26878 3.97857 0
M  V30 1072 N 107.488 2.24609 4.05099 0
M  V30 1073 C 108.223 2.88019 4.95815 0
M  V30 1074 N 107.719 3.60496 5.9162 0
M  V30 1075 N 109.512 2.77469 4.88843 0
M  V30 1076 H 101.663 1.79557 1.1346 0
M  V30 1077 H 103.926 0.766267 0.558156 0
M  V30 1078 H 103.632 2.454 2.51936 0
M  V30 1079 H 103.506 1.08677 3.61205 0
M  V30 1080 H 105.893 0.368668 2.92788 0
M  V30 1081 H 105.974 1.76829 1.84838 0
M  V30 1082 H 105.618 3.3078 3.85418 0
M  V30 1083 H 105.548 1.88096 4.91861 0
M  V30 1084 H 108.039 1.71906 3.36536 0
M  V30 1085 H 108.352 4.06076 6.57512 0
M  V30 1086 H 106.697 3.64604 5.91683 0
M  V30 1087 H 109.888 2.20406 4.12963 0
M  V30 1088 H 110.061 3.2717 5.59342 0
M  V30 1089 N 103.467 -1.45747 0.599634 0
M  V30 1090 C 104.692 -2.07178 0.0960198 0
M  V30 1091 C 105.117 -1.44268 -1.207 0
M  V30 1092 O 104.475 -0.532503 -1.73303 0
M  V30 1093 C 104.523 -3.60579 -0.0385348 0
M  V30 1094 O 103.627 -3.97713 -1.0908 0
M  V30 1095 H 102.968 -0.660251 0.0704593 0
M  V30 1096 H 105.498 -1.87124 0.827385 0
M  V30 1097 H 105.508 -4.07298 -0.239304 0
M  V30 1098 H 104.183 -4.05756 0.912947 0
M  V30 1099 H 102.76 -3.62678 -0.867135 0
M  V30 1100 N 104.945 -0.338344 -1.53925 0
M  V30 1101 C 106.194 0.260732 -2.00008 0
M  V30 1102 C 106.507 1.52073 -1.23017 0
M  V30 1103 O 107.713 2.19672 -1.5955 0
M  V30 1104 C 106.169 0.51515 -3.56194 0
M  V30 1105 C 105.777 -0.728645 -4.42035 0
M  V30 1106 C 107.521 1.07337 -4.10706 0
M  V30 1107 C 105.428 -0.445315 -5.89721 0
M  V30 1108 H 104.358 0.101205 -0.747177 0
M  V30 1109 H 107.009 -0.452866 -1.77824 0
M  V30 1110 H 105.391 1.28932 -3.74423 0
M  V30 1111 H 106.565 -1.50352 -4.35581 0
M  V30 1112 H 104.88 -1.20813 -3.98489 0
M  V30 1113 H 107.477 1.30022 -5.18651 0
M  V30 1114 H 107.82 2.0273 -3.63602 0
M  V30 1115 H 108.353 0.360034 -3.96167 0
M  V30 1116 H 105.092 -1.36883 -6.41049 0
M  V30 1117 H 104.612 0.291569 -5.99091 0
M  V30 1118 H 106.291 -0.0606218 -6.46972 0
M  V30 1119 N 106.423 1.57458 -0.0668435 0
M  V30 1120 C 107.651 1.97624 0.612565 0
M  V30 1121 C 108.066 0.94502 1.63447 0
M  V30 1122 O 107.423 -0.0689276 1.8237 0
M  V30 1123 C 107.474 3.37869 1.28555 0
M  V30 1124 O 107.195 4.3704 0.304557 0
M  V30 1125 C 108.696 3.92882 2.05325 0
M  V30 1126 H 105.916 0.650045 0.166381 0
M  V30 1127 H 108.46 2.04035 -0.137782 0
M  V30 1128 H 106.615 3.3256 1.98702 0
M  V30 1129 H 107.029 5.18565 0.786779 0
M  V30 1130 H 108.503 4.93247 2.47812 0
M  V30 1131 H 108.98 3.29156 2.9078 0
M  V30 1132 H 109.586 4.01577 1.40056 0
M  V30 1133 N 107.901 -0.206675 1.56239 0
M  V30 1134 C 109.147 -0.930218 1.80208 0
M  V30 1135 C 109.48 -1.83387 0.638981 0
M  V30 1136 O 108.755 -1.91119 -0.361066 0
M  V30 1137 C 109.038 -1.75641 3.1436 0
M  V30 1138 C 108.891 -0.878257 4.41142 0
M  V30 1139 C 110.21 -2.73129 3.45092 0
M  V30 1140 H 107.329 -0.336742 0.655571 0
M  V30 1141 H 109.971 -0.198222 1.88963 0
M  V30 1142 H 108.121 -2.38048 3.07027 0
M  V30 1143 H 109.793 -0.269787 4.6051 0
M  V30 1144 H 108.036 -0.184385 4.33408 0
M  V30 1145 H 108.707 -1.49106 5.3148 0
M  V30 1146 H 111.183 -2.20856 3.52649 0
M  V30 1147 H 110.059 -3.28028 4.40101 0
M  V30 1148 H 110.32 -3.51606 2.68003 0
M  V30 1149 N 109.379 -1.50304 -0.473955 0
M  V30 1150 C 110.607 -1.64902 -1.24959 0
M  V30 1151 C 111.022 -0.331198 -1.85872 0
M  V30 1152 O 110.379 0.68652 -1.69095 0
M  V30 1153 C 110.43 -2.73803 -2.36038 0
M  V30 1154 O 110.151 -4.00477 -1.77624 0
M  V30 1155 C 111.652 -2.99349 -3.26964 0
M  V30 1156 H 108.872 -0.554383 -0.378022 0
M  V30 1157 H 111.416 -1.9651 -0.566054 0
M  V30 1158 H 109.571 -2.44898 -3.00173 0
M  V30 1159 H 109.985 -4.60678 -2.5075 0
M  V30 1160 H 111.459 -3.79217 -4.01121 0
M  V30 1161 H 111.936 -2.10307 -3.85574 0
M  V30 1162 H 112.542 -3.29774 -2.68569 0
M  V30 1163 N 110.857 0.726932 -1.39834 0
M  V30 1164 C 111.787 1.85405 -1.41941 0
M  V30 1165 C 112.768 1.67751 -0.281728 0
M  V30 1166 O 113.953 1.8795 -0.488717 0
M  V30 1167 C 111.083 3.23243 -1.2701 0
M  V30 1168 C 110.037 3.55549 -2.38262 0
M  V30 1169 C 109.363 4.9241 -2.08415 0
M  V30 1170 C 110.663 3.577 -3.80589 0
M  V30 1171 H 112.357 1.83899 -2.36266 0
M  V30 1172 H 109.903 0.883349 -1.13723 0
M  V30 1173 H 111.856 4.01775 -1.27103 0
M  V30 1174 H 110.58 3.25296 -0.291564 0
M  V30 1175 H 109.239 2.79351 -2.37399 0
M  V30 1176 H 108.887 4.91052 -1.0898 0
M  V30 1177 H 108.587 5.14992 -2.82943 0
M  V30 1178 H 110.111 5.73289 -2.10171 0
M  V30 1179 H 111.525 4.26293 -3.83337 0
M  V30 1180 H 109.922 3.91804 -4.54543 0
M  V30 1181 H 110.992 2.57328 -4.10987 0
M  V30 1182 N 112.336 1.25143 0.95797 0
M  V30 1183 C 113.584 1.09476 1.69881 0
M  V30 1184 C 113.905 -0.365502 1.91544 0
M  V30 1185 O 113.175 -1.25985 1.50015 0
M  V30 1186 H 111.755 0.402128 0.629525 0
M  V30 1187 H 114.417 1.57214 1.15194 0
M  V30 1188 H 113.513 1.60046 2.6794 0
M  V30 1189 N 113.814 -1.1601 1.06675 0
M  V30 1190 C 114.777 -2.18724 0.685001 0
M  V30 1191 C 115.777 -1.58496 -0.271246 0
M  V30 1192 O 116.967 -1.74119 -0.0531156 0
M  V30 1193 C 114.099 -3.40899 0.00853648 0
M  V30 1194 H 115.292 -2.54011 1.59431 0
M  V30 1195 H 112.845 -1.30352 0.862441 0
M  V30 1196 H 113.58 -3.11173 -0.913337 0
M  V30 1197 H 113.365 -3.8587 0.696204 0
M  V30 1198 H 114.855 -4.16886 -0.24414 0
M  V30 1199 N 115.292 -0.849877 -1.32721 0
M  V30 1200 C 116.242 -0.262892 -2.26479 0
M  V30 1201 C 117.226 0.588493 -1.49752 0
M  V30 1202 O 118.418 0.438659 -1.71478 0
M  V30 1203 C 115.547 0.551818 -3.38836 0
M  V30 1204 C 114.633 -0.311689 -4.22953 0
M  V30 1205 N 115.024 -1.39567 -4.86163 0
M  V30 1206 C 113.322 -0.100611 -4.45887 0
M  V30 1207 C 114.023 -1.92651 -5.48872 0
M  V30 1208 N 112.999 -1.22637 -5.29586 0
M  V30 1209 H 116.801 -1.09166 -2.72873 0
M  V30 1210 H 114.315 -0.695486 -1.46754 0
M  V30 1211 H 116.312 0.988713 -4.05006 0
M  V30 1212 H 114.972 1.37844 -2.93988 0
M  V30 1213 H 115.983 -1.77859 -4.86402 0
M  V30 1214 H 112.66 0.691681 -4.11731 0
M  V30 1215 H 114.05 -2.83487 -6.09167 0
M  V30 1216 N 116.77 1.45427 -0.607355 0
M  V30 1217 C 117.718 2.32269 0.12411 0
M  V30 1218 C 118.712 1.45955 0.859854 0
M  V30 1219 O 119.918 1.6244 0.775447 0
M  V30 1220 H 116.293 0.749691 0.0588839 0
M  V30 1221 H 118.264 2.91743 -0.626762 0
M  V30 1222 C 117.013 3.29567 1.1082 0
M  V30 1223 H 116.336 3.95978 0.551492 0
M  V30 1224 H 117.776 3.93061 1.58995 0
M  V30 1225 C 116.235 2.56722 2.18164 0
M  V30 1226 O 116.765 2.34842 3.25902 0
M  V30 1227 N 114.971 2.16861 1.93442 0
M  V30 1228 H 114.518 2.34855 1.05834 0
M  V30 1229 H 114.476 1.68444 2.65469 0
M  V30 1230 N 118.248 0.346503 1.53744 0
M  V30 1231 C 119.497 -0.250122 2.00143 0
M  V30 1232 C 119.81 -1.51418 1.23822 0
M  V30 1233 O 121.016 -2.18823 1.60713 0
M  V30 1234 C 119.472 -0.496252 3.56462 0
M  V30 1235 C 119.08 0.752077 4.41642 0
M  V30 1236 C 120.824 -1.05157 4.11269 0
M  V30 1237 C 118.731 0.476583 5.89477 0
M  V30 1238 H 117.661 -0.0972409 0.747703 0
M  V30 1239 H 120.312 0.46229 1.77581 0
M  V30 1240 H 118.694 -1.26944 3.75102 0
M  V30 1241 H 119.868 1.5266 4.34778 0
M  V30 1242 H 118.183 1.22925 3.97842 0
M  V30 1243 H 120.78 -1.27269 5.19333 0
M  V30 1244 H 121.123 -2.00799 3.64672 0
M  V30 1245 H 121.656 -0.339019 3.96353 0
M  V30 1246 H 118.395 1.4028 6.40314 0
M  V30 1247 H 117.915 -0.259794 5.99237 0
M  V30 1248 H 119.594 0.0949315 6.4693 0
M  V30 1249 N 119.726 -1.57421 0.075193 0
M  V30 1250 C 120.954 -1.97946 -0.602076 0
M  V30 1251 C 121.369 -0.953674 -1.62943 0
M  V30 1252 O 120.726 0.0592551 -1.82404 0
M  V30 1253 C 120.777 -3.38546 -1.26762 0
M  V30 1254 O 120.498 -4.37195 -0.281376 0
M  V30 1255 C 121.999 -3.93966 -2.03239 0
M  V30 1256 H 119.219 -0.650918 -0.162931 0
M  V30 1257 H 121.763 -2.03959 0.148601 0
M  V30 1258 H 119.918 -3.33609 -1.96936 0
M  V30 1259 H 120.332 -5.18975 -0.759267 0
M  V30 1260 H 121.806 -4.94555 -2.45193 0
M  V30 1261 H 122.283 -3.30693 -2.8903 0
M  V30 1262 H 122.889 -4.02315 -1.37924 0
M  V30 1263 N 121.204 0.198386 -1.56346 0
M  V30 1264 C 122.114 1.2664 -1.97483 0
M  V30 1265 C 123.13 1.49989 -0.882002 0
M  V30 1266 O 124.306 1.62668 -1.18748 0
M  V30 1267 C 121.371 2.59141 -2.30319 0
M  V30 1268 C 120.432 2.43892 -3.53292 0
M  V30 1269 C 119.665 3.70074 -3.84553 0
M  V30 1270 O 119.888 4.74101 -3.1715 0
M  V30 1271 O 118.822 3.658 -4.7799 0
M  V30 1272 H 122.648 0.947304 -2.88548 0
M  V30 1273 H 120.233 0.403123 -1.43859 0
M  V30 1274 H 122.115 3.37352 -2.5253 0
M  V30 1275 H 120.79 2.90684 -1.42423 0
M  V30 1276 H 119.697 1.63803 -3.36332 0
M  V30 1277 H 121.03 2.17282 -4.41644 0
M  V30 1278 N 122.682 1.50554 0.465978 0
M  V30 1279 C 123.592 1.72585 1.58907 0
M  V30 1280 C 124.608 0.60911 1.6299 0
M  V30 1281 O 125.784 0.88804 1.80765 0
M  V30 1282 C 122.849 1.81995 2.95091 0
M  V30 1283 C 121.91 3.05751 3.01355 0
M  V30 1284 C 121.143 3.14702 4.31043 0
M  V30 1285 O 121.366 2.30313 5.21835 0
M  V30 1286 O 120.3 4.07468 4.43005 0
M  V30 1287 H 124.126 2.67799 1.43239 0
M  V30 1288 H 121.711 1.34711 0.646013 0
M  V30 1289 H 123.593 1.90335 3.75966 0
M  V30 1290 H 122.268 0.899659 3.10947 0
M  V30 1291 H 121.175 3.02908 2.19539 0
M  V30 1292 H 122.508 3.97375 2.90437 0
M  V30 1293 N 124.16 -0.719506 1.40217 0
M  V30 1294 C 125.07 -1.86378 1.42479 0
M  V30 1295 C 126.086 -1.71073 0.317834 0
M  V30 1296 O 127.262 -1.93406 0.561794 0
M  V30 1297 C 124.327 -3.22136 1.28178 0
M  V30 1298 C 123.388 -3.49723 2.48982 0
M  V30 1299 C 122.621 -4.79004 2.35353 0
M  V30 1300 O 122.844 -5.53821 1.36524 0
M  V30 1301 O 121.778 -5.06839 3.2465 0
M  V30 1302 H 125.604 -1.87425 2.38968 0
M  V30 1303 H 123.189 -0.869405 1.21498 0
M  V30 1304 H 125.071 -4.03234 1.22395 0
M  V30 1305 H 123.746 -3.21825 0.347934 0
M  V30 1306 H 122.653 -2.6865 2.60342 0
M  V30 1307 H 123.986 -3.54828 3.41113 0
M  V30 1308 N 125.638 -1.25649 -0.95132 0
M  V30 1309 C 126.915 -1.01361 -1.67288 0
M  V30 1310 C 127.295 0.459135 -2.06046 0
M  V30 1311 O 126.643 1.43723 -1.7764 0
M  V30 1312 C 126.853 -1.95256 -2.89268 0
M  V30 1313 C 128.201 -2.23289 -3.61147 0
M  V30 1314 O 129.225 -1.93041 -2.99355 0
M  V30 1315 O 128.084 -2.74741 -4.72419 0
M  V30 1316 H 125.178 -0.38464 -0.732107 0
M  V30 1317 H 127.724 -1.36817 -1.00395 0
M  V30 1318 H 126.496 -2.94685 -2.57442 0
M  V30 1319 H 126.119 -1.60218 -3.6389 0
M  V30 1320 N 127.117 1.15442 -1.07289 0
M  V30 1321 C 128.345 1.90096 -0.81676 0
M  V30 1322 C 128.76 1.7798 0.629966 0
M  V30 1323 O 128.117 1.1313 1.43206 0
M  V30 1324 C 128.168 3.40466 -1.21512 0
M  V30 1325 O 127.889 3.52232 -2.60508 0
M  V30 1326 C 129.39 4.32145 -0.988198 0
M  V30 1327 H 126.61 0.602495 -0.295366 0
M  V30 1328 H 129.154 1.4627 -1.42918 0
M  V30 1329 H 127.309 3.81958 -0.647039 0
M  V30 1330 H 127.723 4.45549 -2.76742 0
M  V30 1331 H 129.197 5.36072 -1.31645 0
M  V30 1332 H 129.674 4.39135 0.0755063 0
M  V30 1333 H 130.28 3.96395 -1.54115 0
M  V30 1334 N 128.595 0.856903 1.32268 0
M  V30 1335 C 129.841 0.471355 1.97863 0
M  V30 1336 C 130.196 -0.962896 1.66572 0
M  V30 1337 O 129.489 -1.66686 0.944797 0
M  V30 1338 C 129.683 0.649919 3.51441 0
M  V30 1339 C 129.512 2.09997 3.97657 0
M  V30 1340 C 128.282 2.73893 4.2463 0
M  V30 1341 C 130.48 3.07081 4.1256 0
M  V30 1342 N 128.462 4.09786 4.57109 0
M  V30 1343 C 129.833 4.27968 4.48602 0
M  V30 1344 C 131.888 3.03247 3.949 0
M  V30 1345 C 130.591 5.45521 4.68827 0
M  V30 1346 C 132.617 4.20046 4.16311 0
M  V30 1347 C 131.979 5.39692 4.52672 0
M  V30 1348 H 128.078 0.221263 0.750044 0
M  V30 1349 H 130.662 1.10876 1.60045 0
M  V30 1350 H 128.833 0.0421938 3.88377 0
M  V30 1351 H 130.565 0.234044 4.04023 0
M  V30 1352 H 127.32 2.24918 4.16784 0
M  V30 1353 H 127.744 4.7989 4.7753 0
M  V30 1354 H 132.386 2.11863 3.65888 0
M  V30 1355 H 130.104 6.37434 4.96693 0
M  V30 1356 H 133.69 4.18517 4.04147 0
M  V30 1357 H 132.57 6.28566 4.68907 0
M  V30 1358 N 130.073 -1.45103 0.615059 0
M  V30 1359 C 131.005 -2.28786 -0.13762 0
M  V30 1360 C 132.018 -1.40376 -0.824525 0
M  V30 1361 O 133.207 -1.64681 -0.688662 0
M  V30 1362 C 130.307 -3.16322 -1.21628 0
M  V30 1363 C 129.48 -4.33054 -0.615039 0
M  V30 1364 C 128.539 -5.01743 -1.58556 0
M  V30 1365 O 127.565 -5.58293 -1.10895 0
M  V30 1366 N 128.767 -5.01714 -2.91998 0
M  V30 1367 H 131.532 -2.94025 0.580483 0
M  V30 1368 H 129.093 -1.55373 0.45507 0
M  V30 1369 H 131.085 -3.59139 -1.86552 0
M  V30 1370 H 129.655 -2.52943 -1.83681 0
M  V30 1371 H 128.875 -3.93627 0.21245 0
M  V30 1372 H 130.163 -5.08431 -0.193704 0
M  V30 1373 H 129.561 -4.57075 -3.33316 0
M  V30 1374 H 128.118 -5.48371 -3.52325 0
M  V30 1375 N 131.551 -0.354651 -1.53558 0
M  V30 1376 C 132.498 0.496968 -2.25386 0
M  V30 1377 C 133.468 1.0865 -1.25636 0
M  V30 1378 O 134.653 1.12104 -1.54394 0
M  V30 1379 C 131.793 1.63637 -3.03837 0
M  V30 1380 C 130.906 1.07307 -4.18461 0
M  V30 1381 C 130.041 2.18068 -4.84376 0
M  V30 1382 C 129.08 1.59147 -5.91049 0
M  V30 1383 N 128.217 2.63695 -6.50699 0
M  V30 1384 H 133.057 -0.122075 -2.9775 0
M  V30 1385 H 130.594 -0.0720154 -1.46924 0
M  V30 1386 H 132.552 2.30734 -3.47589 0
M  V30 1387 H 131.182 2.22623 -2.33749 0
M  V30 1388 H 130.234 0.292708 -3.79272 0
M  V30 1389 H 131.546 0.602193 -4.95152 0
M  V30 1390 H 130.7 2.93007 -5.31255 0
M  V30 1391 H 129.439 2.68504 -4.07133 0
M  V30 1392 H 128.444 0.827175 -5.43542 0
M  V30 1393 H 129.669 1.09549 -6.70206 0
M  V30 1394 H 127.615 3.13365 -5.76315 0
M  V30 1395 H 127.532 2.21263 -7.22896 0
M  V30 1396 H 128.8 3.3837 -7.02229 0
M  V30 1397 N 133.029 1.57378 -0.0835403 0
M  V30 1398 C 133.959 2.1641 0.87686 0
M  V30 1399 C 134.94 1.09429 1.30228 0
M  V30 1400 O 136.125 1.37516 1.37124 0
M  V30 1401 C 133.255 2.73517 2.14022 0
M  V30 1402 C 132.209 3.85769 1.85381 0
M  V30 1403 C 131.535 4.29529 3.18448 0
M  V30 1404 C 132.835 5.09486 1.14984 0
M  V30 1405 H 134.529 2.96914 0.385059 0
M  V30 1406 H 132.075 1.42823 0.18377 0
M  V30 1407 H 134.028 3.13463 2.81636 0
M  V30 1408 H 132.752 1.90252 2.65465 0
M  V30 1409 H 131.411 3.46345 1.20169 0
M  V30 1410 H 131.059 3.43169 3.67755 0
M  V30 1411 H 130.759 5.05204 3.00071 0
M  V30 1412 H 132.283 4.72099 3.8724 0
M  V30 1413 H 133.697 5.46674 1.72687 0
M  V30 1414 H 132.094 5.90515 1.06826 0
M  V30 1415 H 133.164 4.84724 0.130749 0
M  V30 1416 N 134.507 -0.190092 1.56449 0
M  V30 1417 C 135.417 -1.25591 1.98152 0
M  V30 1418 C 136.433 -1.49519 0.889944 0
M  V30 1419 O 137.609 -1.62036 1.19609 0
M  V30 1420 C 134.674 -2.57916 2.3169 0
M  V30 1421 C 133.735 -2.42015 3.5458 0
M  V30 1422 C 132.968 -3.6803 3.8651 0
M  V30 1423 O 133.191 -4.72413 3.1966 0
M  V30 1424 O 132.125 -3.6326 4.79923 0
M  V30 1425 H 135.951 -0.931988 2.89046 0
M  V30 1426 H 133.536 -0.395488 1.4407 0
M  V30 1427 H 135.418 -3.36008 2.54316 0
M  V30 1428 H 134.093 -2.89925 1.43963 0
M  V30 1429 H 133 -1.62017 3.37196 0
M  V30 1430 H 134.333 -2.14937 4.4279 0
M  V30 1431 N 135.985 -1.50799 -0.457987 0
M  V30 1432 C 137.231 -1.62683 -1.21088 0
M  V30 1433 C 137.564 -0.332268 -1.91336 0
M  V30 1434 O 136.839 0.667043 -1.82704 0
M  V30 1435 C 137.122 -2.81615 -2.24422 0
M  V30 1436 C 136.975 -4.20989 -1.58392 0
M  V30 1437 C 138.294 -2.96085 -3.2561 0
M  V30 1438 H 135.413 -0.592087 -0.438864 0
M  V30 1439 H 138.055 -1.83225 -0.50286 0
M  V30 1440 H 136.205 -2.64231 -2.84806 0
M  V30 1441 H 137.877 -4.49994 -1.01504 0
M  V30 1442 H 136.12 -4.24641 -0.886704 0
M  V30 1443 H 136.791 -5.0016 -2.33547 0
M  V30 1444 H 139.267 -3.12042 -2.75262 0
M  V30 1445 H 138.143 -3.80902 -3.95228 0
M  V30 1446 H 138.404 -2.0726 -3.90507 0
M  V30 1447 N 137.463 0.71206 -1.40597 0
M  V30 1448 C 138.712 1.46754 -1.38369 0
M  V30 1449 C 139.025 1.95598 0.0097839 0
M  V30 1450 O 140.231 2.71059 0.154677 0
M  V30 1451 C 138.687 2.65289 -2.43207 0
M  V30 1452 C 138.295 2.23301 -3.88382 0
M  V30 1453 C 140.039 3.43008 -2.50091 0
M  V30 1454 C 137.946 3.38696 -4.84808 0
M  V30 1455 H 136.876 0.55118 -0.514506 0
M  V30 1456 H 139.527 0.774616 -1.66349 0
M  V30 1457 H 137.909 3.36769 -2.08332 0
M  V30 1458 H 139.083 1.59218 -4.32419 0
M  V30 1459 H 137.398 1.58618 -3.85006 0
M  V30 1460 H 139.995 4.28881 -3.1932 0
M  V30 1461 H 140.338 3.87065 -1.53253 0
M  V30 1462 H 140.871 2.78574 -2.83974 0
M  V30 1463 H 137.61 2.99668 -5.82992 0
M  V30 1464 H 137.13 4.01683 -4.45433 0
M  V30 1465 H 138.809 4.04712 -5.04794 0
M  V30 1466 N 138.941 1.26152 0.944643 0
M  V30 1467 C 139.888 1.07408 2.04285 0
M  V30 1468 C 140.858 -0.0198413 1.66088 0
M  V30 1469 O 142.043 0.139264 1.90291 0
M  V30 1470 C 139.183 0.70945 3.37729 0
M  V30 1471 C 138.296 1.87926 3.88983 0
M  V30 1472 C 137.431 1.45807 5.10797 0
M  V30 1473 C 136.47 2.5964 5.54305 0
M  V30 1474 N 135.607 2.18226 6.67324 0
M  V30 1475 H 140.447 2.01389 2.1965 0
M  V30 1476 H 137.984 1.00275 1.07626 0
M  V30 1477 H 139.942 0.478948 4.14442 0
M  V30 1478 H 138.572 -0.193389 3.2222 0
M  V30 1479 H 137.624 2.22279 3.08701 0
M  V30 1480 H 138.936 2.73377 4.17213 0
M  V30 1481 H 138.09 1.18781 5.94959 0
M  V30 1482 H 136.829 0.574414 4.84305 0
M  V30 1483 H 135.834 2.87399 4.68702 0
M  V30 1484 H 137.059 3.48599 5.828 0
M  V30 1485 H 135.005 1.3229 6.42523 0
M  V30 1486 H 134.922 2.97221 6.95123 0
M  V30 1487 H 136.19 1.94403 7.54869 0
M  V30 1488 N 140.419 -1.14872 1.07899 0
M  V30 1489 C 141.351 -2.19425 0.662231 0
M  V30 1490 C 142.364 -1.60231 -0.288079 0
M  V30 1491 O 143.553 -1.78336 -0.076534 0
M  V30 1492 C 140.653 -3.38867 -0.0470695 0
M  V30 1493 C 139.826 -4.27597 0.920831 0
M  V30 1494 C 138.885 -5.25616 0.247805 0
M  V30 1495 O 137.911 -5.62189 0.890599 0
M  V30 1496 N 139.113 -5.71746 -1.00435 0
M  V30 1497 H 141.878 -2.55797 1.56166 0
M  V30 1498 H 139.439 -1.30042 0.964404 0
M  V30 1499 H 141.431 -4.01497 -0.50813 0
M  V30 1500 H 140.001 -3.00864 -0.848523 0
M  V30 1501 H 139.221 -3.61982 1.56087 0
M  V30 1502 H 140.509 -4.83748 1.57688 0
M  V30 1503 H 139.907 -5.44153 -1.54642 0
M  V30 1504 H 138.464 -6.36389 -1.40899 0
M  V30 1505 N 141.898 -0.863906 -1.31812 0
M  V30 1506 C 143.145 -0.471836 -1.96926 0
M  V30 1507 C 143.473 0.974578 -1.68322 0
M  V30 1508 O 142.728 1.7003 -0.968933 0
M  V30 1509 C 143.027 -0.668547 -3.51091 0
M  V30 1510 C 142.693 -2.08683 -3.99703 0
M  V30 1511 C 141.355 -2.47471 -4.12688 0
M  V30 1512 C 143.707 -3.01207 -4.25351 0
M  V30 1513 C 141.035 -3.78037 -4.4867 0
M  V30 1514 C 143.387 -4.31282 -4.62794 0
M  V30 1515 C 142.051 -4.69992 -4.73987 0
M  V30 1516 H 141.321 -0.172657 -0.720604 0
M  V30 1517 H 143.968 -1.09573 -1.57054 0
M  V30 1518 H 142.273 0.0385252 -3.91781 0
M  V30 1519 H 143.97 -0.345102 -3.99512 0
M  V30 1520 H 140.56 -1.77566 -3.90087 0
M  V30 1521 H 144.744 -2.72469 -4.14819 0
M  V30 1522 H 140 -4.078 -4.55532 0
M  V30 1523 H 144.174 -5.03031 -4.81594 0
M  V30 1524 H 141.801 -5.71207 -5.01624 0
M  V30 1525 N 143.376 1.44774 -0.622745 0
M  V30 1526 C 144.792 1.56986 -0.287652 0
M  V30 1527 C 144.992 1.61167 1.20944 0
M  V30 1528 O 144.048 1.55015 1.99315 0
M  V30 1529 C 145.361 2.84551 -0.972188 0
M  V30 1530 C 146.909 2.9825 -0.949536 0
M  V30 1531 C 147.384 4.28605 -1.61437 0
M  V30 1532 N 148.875 4.35399 -1.58057 0
M  V30 1533 C 149.61 5.34964 -2.064 0
M  V30 1534 N 149.106 6.40981 -2.62897 0
M  V30 1535 N 150.899 5.26419 -1.97078 0
M  V30 1536 H 143.05 1.40304 -1.59463 0
M  V30 1537 H 145.313 0.671794 -0.668878 0
M  V30 1538 H 145.019 2.87417 -2.02693 0
M  V30 1539 H 144.893 3.73807 -0.504771 0
M  V30 1540 H 147.28 2.94941 0.0967067 0
M  V30 1541 H 147.361 2.10364 -1.45536 0
M  V30 1542 H 147.005 4.32672 -2.66002 0
M  V30 1543 H 146.935 5.15334 -1.08344 0
M  V30 1544 H 149.426 3.59397 -1.16801 0
M  V30 1545 H 149.739 7.13225 -2.97539 0
M  V30 1546 H 148.084 6.4169 -2.66943 0
M  V30 1547 H 151.275 4.42504 -1.52669 0
M  V30 1548 H 151.448 6.03861 -2.35066 0
M  V30 1549 N 144.854 0.36279 1.53368 0
M  V30 1550 C 145.804 -0.501391 2.22419 0
M  V30 1551 C 146.788 -1.0509 1.2184 0
M  V30 1552 O 147.98 -0.981404 1.47301 0
M  V30 1553 C 145.109 -1.64201 3.01484 0
M  V30 1554 C 144.195 -1.10552 4.09438 0
M  V30 1555 N 144.586 -0.291788 5.04958 0
M  V30 1556 C 142.884 -1.3806 4.24094 0
M  V30 1557 C 143.585 0.00162655 5.817 0
M  V30 1558 N 142.561 -0.595244 5.40331 0
M  V30 1559 H 146.363 0.127159 2.93625 0
M  V30 1560 H 143.877 0.170658 1.61501 0
M  V30 1561 H 145.874 -2.27326 3.49469 0
M  V30 1562 H 144.534 -2.27365 2.31809 0
M  V30 1563 H 145.545 0.0687731 5.17854 0
M  V30 1564 H 142.222 -2.01522 3.65644 0
M  V30 1565 H 143.612 0.659278 6.68658 0
M  V30 1566 N 146.332 -1.57332 0.0918853 0
M  V30 1567 C 147.743 -1.81496 -0.437739 0
M  V30 1568 C 148.094 -1.00727 -1.6837 0
M  V30 1569 O 147.219 -0.235694 -2.15113 0
M  V30 1570 C 147.814 -3.29197 -0.800939 0
M  V30 1571 C 146.373 -3.54136 -1.27532 0
M  V30 1572 C 145.52 -2.75979 -0.270392 0
M  V30 1573 H 148.471 -1.55494 0.317366 0
M  V30 1574 H 148.492 -3.42344 -1.66074 0
M  V30 1575 H 148.004 -3.87955 0.106078 0
M  V30 1576 H 146.105 -3.00705 -2.20016 0
M  V30 1577 H 146.218 -4.62792 -1.23938 0
M  V30 1578 H 144.582 -2.43349 -0.751872 0
M  V30 1579 H 145.365 -3.37484 0.629248 0
M  V30 1580 N 147.81 0.181792 -1.56548 0
M  V30 1581 C 148.757 1.22521 -1.95595 0
M  V30 1582 C 149.727 1.4454 -0.818373 0
M  V30 1583 O 150.912 1.57454 -1.07763 0
M  V30 1584 C 148.052 2.56193 -2.31212 0
M  V30 1585 C 147.165 2.41641 -3.58097 0
M  V30 1586 C 146.3 3.68108 -3.82975 0
M  V30 1587 C 145.339 3.48445 -5.03242 0
M  V30 1588 N 144.476 4.66956 -5.24306 0
M  V30 1589 H 149.316 0.885226 -2.84548 0
M  V30 1590 H 146.853 0.425718 -1.40805 0
M  V30 1591 H 148.811 3.34088 -2.49882 0
M  V30 1592 H 147.441 2.88208 -1.45382 0
M  V30 1593 H 146.493 1.54976 -3.474 0
M  V30 1594 H 147.805 2.23052 -4.46149 0
M  V30 1595 H 146.959 4.54441 -4.01956 0
M  V30 1596 H 145.698 3.89666 -2.93278 0
M  V30 1597 H 144.703 2.60499 -4.8417 0
M  V30 1598 H 145.928 3.2832 -5.9446 0
M  V30 1599 H 143.874 4.88752 -4.37559 0
M  V30 1600 H 143.791 4.51242 -6.06561 0
M  V30 1601 H 145.059 5.54602 -5.47756 0
M  V30 1602 N 149.288 1.51039 0.449983 0
M  V30 1603 C 150.518 1.66627 1.22143 0
M  V30 1604 C 150.926 0.357776 1.85786 0
M  V30 1605 O 150.269 -0.672424 1.70951 0
M  V30 1606 C 150.331 2.71562 2.35573 0
M  V30 1607 C 149.995 4.14526 1.92399 0
M  V30 1608 C 150.992 4.99717 1.43453 0
M  V30 1609 C 148.677 4.60559 2.00475 0
M  V30 1610 C 150.671 6.28998 1.03155 0
M  V30 1611 C 148.358 5.8984 1.59788 0
M  V30 1612 C 149.356 6.73886 1.11208 0
M  V30 1613 O 149.044 8.0075 0.710935 0
M  V30 1614 H 148.776 0.562635 0.374724 0
M  V30 1615 H 151.33 1.98146 0.541036 0
M  V30 1616 H 149.56 2.3533 3.06849 0
M  V30 1617 H 151.249 2.76156 2.97478 0
M  V30 1618 H 152.015 4.65361 1.36618 0
M  V30 1619 H 147.894 3.95273 2.37235 0
M  V30 1620 H 151.438 6.9455 0.651663 0
M  V30 1621 H 147.335 6.23713 1.66289 0
M  V30 1622 H 148.103 8.142 0.837913 0
M  V30 1623 N 150.766 -0.704594 1.40972 0
M  V30 1624 C 151.714 -1.83994 1.42299 0
M  V30 1625 C 152.708 -1.66684 0.302111 0
M  V30 1626 O 153.914 -1.73655 0.473697 0
M  V30 1627 H 150.289 -0.606171 0.44504 0
M  V30 1628 H 152.26 -1.79992 2.38003 0
M  V30 1629 C 151.009 -3.21946 1.31323 0
M  V30 1630 H 150.332 -3.35878 2.16855 0
M  V30 1631 H 151.772 -4.01491 1.36311 0
M  V30 1632 C 150.231 -3.36891 0.0245977 0
M  V30 1633 O 150.761 -3.90687 -0.934153 0
M  V30 1634 N 148.967 -2.90559 -0.0485243 0
M  V30 1635 H 148.514 -2.46968 0.732419 0
M  V30 1636 H 148.472 -3.00937 -0.910171 0
M  V30 1637 N 152.244 -1.26651 -0.937939 0
M  V30 1638 C 153.472 -1.15173 -1.7188 0
M  V30 1639 C 153.887 0.292668 -1.86518 0
M  V30 1640 O 153.244 1.20014 -1.37488 0
M  V30 1641 C 153.295 -1.81925 -3.12387 0
M  V30 1642 O 153.016 -3.2072 -2.98446 0
M  V30 1643 C 154.517 -1.76442 -4.06673 0
M  V30 1644 H 151.737 -0.400911 -0.538063 0
M  V30 1645 H 154.281 -1.67332 -1.1756 0
M  V30 1646 H 152.436 -1.33696 -3.63599 0
M  V30 1647 H 152.85 -3.53802 -3.872 0
M  V30 1648 H 154.324 -2.27781 -5.02812 0
M  V30 1649 H 154.801 -0.731608 -4.33064 0
M  V30 1650 H 155.407 -2.24238 -3.61382 0
M  V30 1651 N 153.722 1.14298 -1.08507 0
M  V30 1652 C 154.947 1.8976 -0.837001 0
M  V30 1653 C 155.372 1.78097 0.605228 0
M  V30 1654 O 154.73 1.12188 1.4242 0
M  V30 1655 C 154.778 3.37685 -1.26495 0
M  V30 1656 O 153.882 4.10281 -0.417514 0
M  V30 1657 H 153.223 0.590365 -0.303917 0
M  V30 1658 H 155.753 1.44672 -1.44676 0
M  V30 1659 H 155.763 3.88501 -1.24625 0
M  V30 1660 H 154.438 3.45492 -2.31534 0
M  V30 1661 H 153.015 3.69536 -0.499722 0
M  V30 1662 N 155.201 0.870884 1.31352 0
M  V30 1663 C 156.429 0.49677 2.00848 0
M  V30 1664 C 156.844 -0.910998 1.65367 0
M  V30 1665 O 156.201 -1.59696 0.883374 0
M  V30 1666 C 156.252 0.645308 3.55694 0
M  V30 1667 O 155.973 1.99764 3.89905 0
M  V30 1668 C 157.474 0.272326 4.42463 0
M  V30 1669 H 154.694 0.193462 0.642506 0
M  V30 1670 H 157.238 1.1723 1.67563 0
M  V30 1671 H 155.393 0.0173176 3.87396 0
M  V30 1672 H 155.807 2.00607 4.84621 0
M  V30 1673 H 157.281 0.427208 5.50344 0
M  V30 1674 H 157.758 -0.788587 4.32062 0
M  V30 1675 H 158.364 0.876054 4.1618 0
M  V30 1676 N 156.679 -1.44442 0.630414 0
M  V30 1677 C 157.609 -2.33418 -0.0618083 0
M  V30 1678 C 158.59 -1.48165 -0.835541 0
M  V30 1679 O 159.775 -1.76886 -0.801564 0
M  V30 1680 C 156.905 -3.31222 -1.04449 0
M  V30 1681 C 155.859 -4.26288 -0.382436 0
M  V30 1682 C 155.185 -5.13954 -1.47497 0
M  V30 1683 C 156.485 -5.1744 0.710865 0
M  V30 1684 H 158.179 -2.91548 0.681184 0
M  V30 1685 H 155.725 -1.40191 0.329026 0
M  V30 1686 H 157.678 -3.92351 -1.53748 0
M  V30 1687 H 156.402 -2.71299 -1.81836 0
M  V30 1688 H 155.061 -3.6649 0.0899054 0
M  V30 1689 H 154.709 -4.50385 -2.2397 0
M  V30 1690 H 154.409 -5.7837 -1.03737 0
M  V30 1691 H 155.933 -5.77955 -1.96979 0
M  V30 1692 H 157.347 -5.72509 0.300996 0
M  V30 1693 H 155.744 -5.90455 1.07156 0
M  V30 1694 H 156.814 -4.58496 1.57829 0
M  V30 1695 N 158.157 -0.370918 -1.53173 0
M  V30 1696 C 159.107 0.489588 -2.22681 0
M  V30 1697 C 160.091 1.04442 -1.22395 0
M  V30 1698 O 161.283 0.973578 -1.47819 0
M  V30 1699 C 158.412 1.626 -3.02351 0
M  V30 1700 C 157.498 1.08379 -4.10018 0
M  V30 1701 N 157.889 0.265004 -5.05105 0
M  V30 1702 C 156.187 1.35809 -4.2482 0
M  V30 1703 C 156.888 -0.0324755 -5.81691 0
M  V30 1704 N 155.864 0.566581 -5.40639 0
M  V30 1705 H 159.666 -0.142729 -2.93553 0
M  V30 1706 H 157.18 -0.179221 -1.61408 0
M  V30 1707 H 159.177 2.2547 -3.50669 0
M  V30 1708 H 157.837 2.26132 -2.33011 0
M  V30 1709 H 158.848 -0.0962352 -5.17811 0
M  V30 1710 H 155.525 1.9958 -3.66707 0
M  V30 1711 H 156.915 -0.69473 -6.68299 0
M  V30 1712 N 159.635 1.57281 -0.100228 0
M  V30 1713 C 160.585 2.10848 0.86759 0
M  V30 1714 C 161.569 1.02473 1.24049 0
M  V30 1715 O 162.761 1.28739 1.21471 0
M  V30 1716 C 159.89 2.69648 2.12474 0
M  V30 1717 C 158.976 3.85074 1.77704 0
M  V30 1718 N 159.367 4.92897 1.13518 0
M  V30 1719 C 157.665 3.94905 2.07282 0
M  V30 1720 C 158.366 5.73475 0.974735 0
M  V30 1721 N 157.342 5.22675 1.4937 0
M  V30 1722 H 161.144 2.91594 0.367471 0
M  V30 1723 H 158.658 1.62074 0.102829 0
M  V30 1724 H 160.655 3.06356 2.82757 0
M  V30 1725 H 159.315 1.90359 2.63047 0
M  V30 1726 H 160.326 5.11662 0.801381 0
M  V30 1727 H 157.003 3.26633 2.60033 0
M  V30 1728 H 158.393 6.70238 0.472364 0
M  V30 1729 N 161.113 -0.173488 1.56642 0
M  V30 1730 C 162.39 -0.917617 1.7274 0
M  V30 1731 C 162.77 -2.00484 0.661027 0
M  V30 1732 O 162.118 -2.26184 -0.32453 0
M  V30 1733 C 162.328 -1.48433 3.15862 0
M  V30 1734 C 163.676 -1.95809 3.76754 0
M  V30 1735 O 164.7 -1.58231 3.19126 0
M  V30 1736 O 163.559 -2.65024 4.77938 0
M  V30 1737 H 160.653 -0.431772 0.705338 0
M  V30 1738 H 163.199 -0.161487 1.6893 0
M  V30 1739 H 161.971 -0.701715 3.84957 0
M  V30 1740 H 161.594 -2.30471 3.23989 0
M  V30 1741 N 162.591 -1.51276 -0.441967 0
M  V30 1742 C 163.84 -1.6295 -1.18871 0
M  V30 1743 C 164.153 -0.349312 -1.92456 0
M  V30 1744 O 165.359 -0.345355 -2.69295 0
M  V30 1745 C 163.815 -2.87759 -2.16155 0
M  V30 1746 C 163.423 -4.22764 -1.48239 0
M  V30 1747 C 165.167 -3.08788 -2.91291 0
M  V30 1748 C 163.074 -5.38728 -2.4398 0
M  V30 1749 H 162.004 -0.606913 -0.447406 0
M  V30 1750 H 164.655 -1.77739 -0.456205 0
M  V30 1751 H 163.037 -2.66593 -2.92821 0
M  V30 1752 H 164.211 -4.54293 -0.771635 0
M  V30 1753 H 162.526 -4.07575 -0.852741 0
M  V30 1754 H 165.123 -3.92599 -3.63002 0
M  V30 1755 H 165.466 -2.21679 -3.5237 0
M  V30 1756 H 165.999 -3.30272 -2.21733 0
M  V30 1757 H 162.738 -6.28082 -1.87598 0
M  V30 1758 H 162.258 -5.1158 -3.13123 0
M  V30 1759 H 163.937 -5.70489 -3.05207 0
M  V30 1760 N 164.069 0.697108 -1.41344 0
M  V30 1761 C 165.002 1.82134 -1.37486 0
M  V30 1762 C 165.98 1.60784 -0.242351 0
M  V30 1763 O 167.164 1.83553 -0.429012 0
M  V30 1764 C 164.291 3.18788 -1.14421 0
M  V30 1765 C 163.337 3.58932 -2.3037 0
M  V30 1766 S 164.17 3.63916 -3.92843 0
M  V30 1767 C 165.326 5.03298 -3.72078 0
M  V30 1768 H 165.559 1.85129 -2.32625 0
M  V30 1769 H 163.092 0.865671 -1.2785 0
M  V30 1770 H 165.05 3.97677 -1.018 0
M  V30 1771 H 163.711 3.13404 -0.20905 0
M  V30 1772 H 162.904 4.58202 -2.09922 0
M  V30 1773 H 162.506 2.87347 -2.39391 0
M  V30 1774 H 164.798 5.90753 -3.31688 0
M  V30 1775 H 165.741 5.28788 -4.70945 0
M  V30 1776 H 166.149 4.74764 -3.05384 0
M  V30 1777 N 165.547 1.27147 0.931209 0
M  V30 1778 C 166.477 1.12081 2.04842 0
M  V30 1779 C 167.458 0.0232364 1.70084 0
M  V30 1780 O 168.643 0.197085 1.93197 0
M  V30 1781 C 165.773 0.76354 3.38803 0
M  V30 1782 C 164.727 1.81396 3.87659 0
M  V30 1783 C 164.053 1.31075 5.18385 0
M  V30 1784 C 165.353 3.21739 4.11438 0
M  V30 1785 H 167.047 2.05537 2.17703 0
M  V30 1786 H 164.593 0.989603 1.04608 0
M  V30 1787 H 166.546 0.644982 4.16435 0
M  V30 1788 H 165.27 -0.206727 3.25945 0
M  V30 1789 H 163.929 1.92136 3.12217 0
M  V30 1790 H 163.577 0.330037 5.01916 0
M  V30 1791 H 163.277 2.013 5.52044 0
M  V30 1792 H 164.801 1.20506 5.98591 0
M  V30 1793 H 166.215 3.14019 4.79651 0
M  V30 1794 H 164.612 3.89644 4.56397 0
M  V30 1795 H 165.682 3.67054 3.16859 0
M  V30 1796 N 167.025 -1.13721 1.09112 0
M  V30 1797 C 167.955 -2.21148 0.749385 0
M  V30 1798 C 168.936 -1.6792 -0.271475 0
M  V30 1799 O 170.121 -1.93693 -0.140251 0
M  V30 1800 C 167.251 -3.46905 0.165659 0
M  V30 1801 C 166.205 -4.13203 1.11567 0
M  V30 1802 C 165.531 -5.33248 0.393809 0
M  V30 1803 C 166.831 -4.60912 2.45678 0
M  V30 1804 H 168.525 -2.4999 1.64758 0
M  V30 1805 H 166.071 -1.20156 0.793626 0
M  V30 1806 H 168.024 -4.21313 -0.085466 0
M  V30 1807 H 166.748 -3.17449 -0.767714 0
M  V30 1808 H 165.407 -3.40758 1.35202 0
M  V30 1809 H 165.055 -5.00054 -0.543599 0
M  V30 1810 H 164.755 -5.78552 1.02721 0
M  V30 1811 H 166.279 -6.10413 0.150908 0
M  V30 1812 H 167.693 -5.26759 2.26269 0
M  V30 1813 H 166.09 -5.16944 3.04776 0
M  V30 1814 H 167.16 -3.75603 3.06677 0
M  V30 1815 N 168.503 -0.877838 -1.30888 0
M  V30 1816 C 169.45 -0.337538 -2.28318 0
M  V30 1817 C 170.42 0.568346 -1.56074 0
M  V30 1818 O 171.605 0.498298 -1.84178 0
M  V30 1819 C 168.745 0.448142 -3.42178 0
M  V30 1820 C 167.858 -0.48615 -4.29256 0
M  V30 1821 C 166.993 0.314427 -5.30269 0
M  V30 1822 C 166.032 -0.615791 -6.08995 0
M  V30 1823 N 165.169 0.14902 -7.01942 0
M  V30 1824 H 170.009 -1.17356 -2.73919 0
M  V30 1825 H 167.546 -0.590094 -1.34745 0
M  V30 1826 H 169.504 0.919517 -4.06941 0
M  V30 1827 H 168.134 1.24879 -2.97666 0
M  V30 1828 H 167.186 -1.076 -3.64865 0
M  V30 1829 H 168.498 -1.19909 -4.84173 0
M  V30 1830 H 167.652 0.847969 -6.00745 0
M  V30 1831 H 166.391 1.06062 -4.76027 0
M  V30 1832 H 165.396 -1.16102 -5.37401 0
M  V30 1833 H 166.621 -1.36097 -6.65323 0
M  V30 1834 H 164.567 0.877884 -6.50099 0
M  V30 1835 H 164.484 -0.504433 -7.54315 0
M  V30 1836 H 165.752 0.663537 -7.76671 0
M  V30 1837 N 169.982 1.44106 -0.638065 0
M  V30 1838 C 170.912 2.33448 0.0494287 0
M  V30 1839 C 171.893 1.48606 0.827672 0
M  V30 1840 O 173.078 1.77308 0.792173 0
M  V30 1841 C 170.208 3.31771 1.02691 0
M  V30 1842 C 169.162 4.26485 0.359823 0
M  V30 1843 C 168.488 5.14729 1.44769 0
M  V30 1844 C 169.788 5.17056 -0.738296 0
M  V30 1845 H 171.482 2.91183 -0.696636 0
M  V30 1846 H 169.028 1.40014 -0.336456 0
M  V30 1847 H 170.981 3.93161 1.51666 0
M  V30 1848 H 169.705 2.7226 1.80395 0
M  V30 1849 H 168.364 3.66437 -0.10934 0
M  V30 1850 H 168.012 4.51566 2.21578 0
M  V30 1851 H 167.712 5.78913 1.00668 0
M  V30 1852 H 169.236 5.78991 1.93911 0
M  V30 1853 H 170.65 5.72342 -0.331354 0
M  V30 1854 H 169.047 5.89879 -1.10286 0
M  V30 1855 H 170.117 4.57652 -1.60258 0
M  V30 1856 N 171.46 0.379036 1.52974 0
M  V30 1857 C 172.407 -0.461048 2.26148 0
M  V30 1858 C 173.377 -1.06637 1.27349 0
M  V30 1859 O 174.562 -1.09633 1.56157 0
M  V30 1860 C 171.702 -1.58782 3.06402 0
M  V30 1861 C 170.815 -1.00636 4.20115 0
M  V30 1862 C 169.95 -2.10334 4.87784 0
M  V30 1863 C 168.989 -1.49724 5.93506 0
M  V30 1864 N 168.126 -2.5331 6.54812 0
M  V30 1865 H 172.966 0.169429 2.97518 0
M  V30 1866 H 170.503 0.0953806 1.4679 0
M  V30 1867 H 172.461 -2.25174 3.51215 0
M  V30 1868 H 171.091 -2.18876 2.37261 0
M  V30 1869 H 170.143 -0.232332 3.7969 0
M  V30 1870 H 171.455 -0.523343 4.96047 0
M  V30 1871 H 170.609 -2.84519 5.35849 0
M  V30 1872 H 169.348 -2.61992 4.11353 0
M  V30 1873 H 168.353 -0.740598 5.44789 0
M  V30 1874 H 169.578 -0.988732 6.71864 0
M  V30 1875 H 167.524 -3.04156 5.81227 0
M  V30 1876 H 167.441 -2.09734 7.26325 0
M  V30 1877 H 168.709 -3.27155 7.07524 0
M  V30 1878 N 172.938 -1.57226 0.108567 0
M  V30 1879 C 173.848 -2.18292 -0.859401 0
M  V30 1880 C 174.864 -1.15612 -1.30038 0
M  V30 1881 O 176.04 -1.48039 -1.36552 0
M  V30 1882 C 173.105 -2.762 -2.09558 0
M  V30 1883 C 172.166 -3.93881 -1.70752 0
M  V30 1884 C 171.399 -4.49018 -2.88477 0
M  V30 1885 O 171.622 -4.03068 -4.036 0
M  V30 1886 O 170.556 -5.39852 -2.66164 0
M  V30 1887 H 174.382 -3.01441 -0.369769 0
M  V30 1888 H 171.967 -1.48945 -0.1165 0
M  V30 1889 H 173.849 -3.13156 -2.81978 0
M  V30 1890 H 172.524 -1.96089 -2.57548 0
M  V30 1891 H 171.431 -3.61713 -0.954714 0
M  V30 1892 H 172.764 -4.75396 -1.27513 0
M  V30 1893 N 174.416 0.165178 -1.56732 0
M  V30 1894 C 175.363 1.2044 -1.96883 0
M  V30 1895 C 176.333 1.43664 -0.833657 0
M  V30 1896 O 177.518 1.56302 -1.09427 0
M  V30 1897 C 174.658 2.53727 -2.33916 0
M  V30 1898 C 173.771 2.3783 -3.6064 0
M  V30 1899 C 172.906 3.64026 -3.86857 0
M  V30 1900 C 171.945 3.43088 -5.06909 0
M  V30 1901 N 171.082 4.61369 -5.29229 0
M  V30 1902 H 175.922 0.854996 -2.85471 0
M  V30 1903 H 173.459 0.41076 -1.41249 0
M  V30 1904 H 175.417 3.31419 -2.53411 0
M  V30 1905 H 174.047 2.8665 -1.48431 0
M  V30 1906 H 173.099 1.51282 -3.49024 0
M  V30 1907 H 174.411 2.18308 -4.4849 0
M  V30 1908 H 173.565 4.50152 -4.06753 0
M  V30 1909 H 172.304 3.86533 -2.97394 0
M  V30 1910 H 171.309 2.55349 -4.86906 0
M  V30 1911 H 172.534 3.21997 -5.97909 0
M  V30 1912 H 170.48 4.84084 -4.42718 0
M  V30 1913 H 170.397 4.44783 -6.11313 0
M  V30 1914 H 171.665 5.48761 -5.53608 0
M  V30 1915 N 175.894 1.51508 0.433938 0
M  V30 1916 C 176.857 1.72473 1.50949 0
M  V30 1917 C 177.857 0.594725 1.49398 0
M  V30 1918 O 179.047 0.862315 1.5136 0
M  V30 1919 C 176.179 1.78431 2.90474 0
M  V30 1920 H 177.372 2.68467 1.33662 0
M  V30 1921 H 174.925 1.41549 0.662836 0
M  V30 1922 H 175.66 0.842645 3.13161 0
M  V30 1923 H 175.445 2.60558 2.93005 0
M  V30 1924 H 176.935 1.96479 3.68491 0
M  V30 1925 N 177.372 -0.689602 1.41712 0
M  V30 1926 C 178.597 -1.48329 1.44959 0
M  V30 1927 C 179.022 -1.8801 0.0581283 0
M  V30 1928 O 178.38 -1.55026 -0.940035 0
M  V30 1929 C 178.428 -2.71835 2.36935 0
M  V30 1930 O 177.532 -3.69549 1.8305 0
M  V30 1931 H 176.873 -0.446199 0.491734 0
M  V30 1932 H 179.403 -0.847127 1.86239 0
M  V30 1933 H 179.413 -3.20076 2.53013 0
M  V30 1934 H 178.088 -2.42291 3.38035 0
M  V30 1935 H 176.665 -3.2851 1.76452 0
M  V30 1936 N 178.85 -1.27639 -0.924453 0
M  V30 1937 C 179.78 -1.13166 -2.04244 0
M  V30 1938 C 180.761 -0.032256 -1.70069 0
M  V30 1939 O 181.946 -0.207328 -1.9309 0
M  V30 1940 C 179.076 -0.781496 -3.38393 0
M  V30 1941 C 178.03 -1.83449 -3.86692 0
M  V30 1942 C 177.356 -1.33822 -5.17683 0
M  V30 1943 C 178.656 -3.23917 -4.09726 0
M  V30 1944 H 180.35 -2.06689 -2.1661 0
M  V30 1945 H 177.896 -0.995136 -1.04082 0
M  V30 1946 H 179.849 -0.667057 -4.16087 0
M  V30 1947 H 178.573 0.189439 -3.2605 0
M  V30 1948 H 177.232 -1.93789 -3.11193 0
M  V30 1949 H 176.88 -0.35665 -5.01734 0
M  V30 1950 H 176.58 -2.04224 -5.50968 0
M  V30 1951 H 178.104 -1.23679 -5.97943 0
M  V30 1952 H 179.518 -3.16559 -4.77978 0
M  V30 1953 H 177.915 -3.92059 -4.54324 0
M  V30 1954 H 178.985 -3.68729 -3.14908 0
M  V30 1955 N 180.328 1.1314 -1.09713 0
M  V30 1956 C 181.556 1.88321 -0.856898 0
M  V30 1957 C 181.971 1.79276 0.592073 0
M  V30 1958 O 181.328 1.16142 1.40774 0
M  V30 1959 C 181.379 3.37812 -1.28706 0
M  V30 1960 O 181.1 3.46627 -2.67921 0
M  V30 1961 C 182.601 4.29952 -1.07964 0
M  V30 1962 H 179.821 0.596094 -0.308079 0
M  V30 1963 H 182.365 1.43205 -1.45988 0
M  V30 1964 H 180.52 3.805 -0.727912 0
M  V30 1965 H 180.934 4.39579 -2.8613 0
M  V30 1966 H 182.408 5.33159 -1.42986 0
M  V30 1967 H 182.885 4.39196 -0.0176577 0
M  V30 1968 H 183.491 3.93036 -1.62489 0
M  V30 1969 N 181.806 0.884767 1.30421 0
M  V30 1970 C 182.736 0.367574 2.30589 0
M  V30 1971 C 183.717 -0.549464 1.60981 0
M  V30 1972 O 184.902 -0.46336 1.88591 0
M  V30 1973 C 182.032 -0.418944 3.44764 0
M  V30 1974 C 180.986 0.406316 4.26067 0
M  V30 1975 C 180.312 -0.506793 5.32293 0
M  V30 1976 C 181.612 1.64832 4.95608 0
M  V30 1977 H 183.306 1.20462 2.74097 0
M  V30 1978 H 180.852 0.580695 1.31772 0
M  V30 1979 H 182.805 -0.791395 4.13902 0
M  V30 1980 H 181.529 -1.28964 3.0006 0
M  V30 1981 H 180.188 0.760903 3.58617 0
M  V30 1982 H 179.836 -1.37519 4.83836 0
M  V30 1983 H 179.536 0.0415828 5.87585 0
M  V30 1984 H 181.06 -0.875764 6.04287 0
M  V30 1985 H 182.474 1.34646 5.57264 0
M  V30 1986 H 180.871 2.13688 5.60765 0
M  V30 1987 H 181.941 2.39284 4.21748 0
M  V30 1988 N 183.284 -1.43765 0.645699 0
M  V30 1989 C 184.247 -2.29163 -0.0409488 0
M  V30 1990 C 185.247 -1.41813 -0.757996 0
M  V30 1991 O 186.437 -1.63527 -0.600382 0
M  V30 1992 C 183.569 -3.23716 -1.06869 0
M  V30 1993 H 184.762 -2.91366 0.710345 0
M  V30 1994 H 182.315 -1.5092 0.406547 0
M  V30 1995 H 183.05 -2.66393 -1.84947 0
M  V30 1996 H 182.835 -3.88105 -0.558277 0
M  V30 1997 H 184.325 -3.87831 -1.54845 0
M  V30 1998 N 184.763 -0.387143 -1.52771 0
M  V30 1999 C 186.009 0.196025 -2.0185 0
M  V30 2000 C 186.342 1.46641 -1.27319 0
M  V30 2001 O 185.617 1.90889 -0.373032 0
M  V30 2002 C 185.9 0.466136 -3.5707 0
M  V30 2003 C 185.753 -0.819385 -4.42274 0
M  V30 2004 C 187.072 1.25768 -4.21747 0
M  V30 2005 H 184.191 0.0697708 -0.73369 0
M  V30 2006 H 186.833 -0.516286 -1.82851 0
M  V30 2007 H 184.983 1.07293 -3.7339 0
M  V30 2008 H 186.655 -1.4563 -4.37709 0
M  V30 2009 H 184.898 -1.43517 -4.09372 0
M  V30 2010 H 185.569 -0.585065 -5.48891 0
M  V30 2011 H 188.045 0.744167 -4.09391 0
M  V30 2012 H 186.921 1.41541 -5.30337 0
M  V30 2013 H 187.182 2.27228 -3.79236 0
M  V30 2014 N 186.241 1.57166 -0.116904 0
M  V30 2015 C 187.489 1.94737 0.540533 0
M  V30 2016 C 187.81 1.00096 1.67349 0
M  V30 2017 O 187.08 0.0568854 1.95817 0
M  V30 2018 H 185.66 0.718981 0.202669 0
M  V30 2019 H 188.322 1.94017 -0.185353 0
M  V30 2020 H 187.418 2.97719 0.936483 0
M  V30 2021 N 187.719 -0.156864 1.56817 0
M  V30 2022 C 188.947 -0.886316 1.86955 0
M  V30 2023 C 189.362 -1.75185 0.703975 0
M  V30 2024 O 188.719 -1.79555 -0.326552 0
M  V30 2025 C 188.77 -1.75117 3.16253 0
M  V30 2026 O 188.491 -0.920537 4.2832 0
M  V30 2027 C 189.992 -2.58905 3.59837 0
M  V30 2028 H 187.212 -0.25678 0.619923 0
M  V30 2029 H 189.756 -0.152615 2.0393 0
M  V30 2030 H 187.911 -2.43805 3.01062 0
M  V30 2031 H 188.325 -1.51337 5.02192 0
M  V30 2032 H 189.799 -3.1518 4.53172 0
M  V30 2033 H 190.276 -3.34472 2.84649 0
M  V30 2034 H 190.882 -1.95526 3.7769 0
M  V30 2035 N 189.197 -1.51736 -0.425897 0
M  V30 2036 C 190.127 -1.76827 -1.52494 0
M  V30 2037 C 191.108 -0.618524 -1.58456 0
M  V30 2038 O 192.293 -0.862416 -1.74 0
M  V30 2039 C 189.423 -1.90374 -2.90474 0
M  V30 2040 C 188.377 -3.0588 -2.99369 0
M  V30 2041 C 187.703 -3.04625 -4.3944 0
M  V30 2042 C 189.003 -4.45644 -2.72394 0
M  V30 2043 H 190.697 -2.68855 -1.31748 0
M  V30 2044 H 188.243 -1.29372 -0.632362 0
M  V30 2045 H 190.196 -2.0651 -3.6733 0
M  V30 2046 H 188.92 -0.95004 -3.12477 0
M  V30 2047 H 187.579 -2.89467 -2.24954 0
M  V30 2048 H 187.227 -2.0701 -4.58428 0
M  V30 2049 H 186.927 -3.82195 -4.46319 0
M  V30 2050 H 188.451 -3.22869 -5.18255 0
M  V30 2051 H 189.865 -4.62348 -3.38979 0
M  V30 2052 H 188.262 -5.25006 -2.9067 0
M  V30 2053 H 189.332 -4.54893 -1.67929 0
M  V30 2054 N 190.675 0.682077 -1.42076 0
M  V30 2055 C 192.086 1.26246 -1.37546 0
M  V30 2056 C 192.437 1.96092 -0.0651481 0
M  V30 2057 O 191.562 1.99587 0.836297 0
M  V30 2058 C 192.157 2.29594 -2.49143 0
M  V30 2059 C 190.716 2.83175 -2.47969 0
M  V30 2060 C 189.863 1.57395 -2.28303 0
M  V30 2061 H 192.814 0.475937 -1.51395 0
M  V30 2062 H 192.835 3.11175 -2.18976 0
M  V30 2063 H 192.347 1.78729 -3.44496 0
M  V30 2064 H 190.448 3.3818 -1.56413 0
M  V30 2065 H 190.561 3.32687 -3.44755 0
M  V30 2066 H 188.925 1.83699 -1.76428 0
M  V30 2067 H 189.708 1.08507 -3.25701 0
M  V30 2068 N 192.153 1.28127 0.917671 0
M  V30 2069 C 193.4 1.15052 1.66641 0
M  V30 2070 C 193.728 -0.301677 1.92146 0
M  V30 2071 O 192.983 -1.23622 1.51711 0
M  V30 2072 C 193.282 1.89018 3.03327 0
M  V30 2073 C 192.948 3.38832 2.97496 0
M  V30 2074 C 191.61 3.79693 2.95613 0
M  V30 2075 C 193.962 4.34378 2.88036 0
M  V30 2076 C 191.29 5.14447 2.82066 0
M  V30 2077 C 193.642 5.69201 2.7603 0
M  V30 2078 C 192.306 6.09343 2.72502 0
M  V30 2079 H 191.576 0.421006 0.609783 0
M  V30 2080 H 194.223 1.58855 1.06945 0
M  V30 2081 H 192.528 1.37752 3.66785 0
M  V30 2082 H 194.225 1.76321 3.60156 0
M  V30 2083 H 190.815 3.06342 2.99754 0
M  V30 2084 H 194.999 4.03775 2.88581 0
M  V30 2085 H 190.255 5.44681 2.77728 0
M  V30 2086 H 194.429 6.42901 2.67678 0
M  V30 2087 H 192.056 7.13712 2.61762 0
M  V30 2088 N 193.631 -1.12557 1.10312 0
M  V30 2089 C 195.042 -1.65574 0.862678 0
M  V30 2090 C 195.393 -1.86566 -0.607256 0
M  V30 2091 O 194.518 -1.59121 -1.46662 0
M  V30 2092 C 195.113 -3.00776 1.55947 0
M  V30 2093 C 193.672 -3.50748 1.36576 0
M  V30 2094 C 192.819 -2.25797 1.60968 0
M  V30 2095 H 195.77 -0.963552 1.26101 0
M  V30 2096 H 195.791 -3.67185 0.997753 0
M  V30 2097 H 195.303 -2.85465 2.62928 0
M  V30 2098 H 193.404 -3.71245 0.317531 0
M  V30 2099 H 193.517 -4.30289 2.10686 0
M  V30 2100 H 191.881 -2.32841 1.03234 0
M  V30 2101 H 192.664 -2.13043 2.69198 0
M  V30 2102 N 195.109 -0.891671 -1.2995 0
M  V30 2103 C 196.334 -0.527932 -2.00568 0
M  V30 2104 C 196.759 0.877969 -1.66353 0
M  V30 2105 O 196.117 1.58301 -0.883762 0
M  V30 2106 C 196.165 -0.717745 -3.53385 0
M  V30 2107 O 195.269 0.233376 -4.11739 0
M  V30 2108 H 194.61 -0.20722 -0.630837 0
M  V30 2109 H 197.14 -1.20105 -1.65638 0
M  V30 2110 H 197.15 -0.619307 -4.03272 0
M  V30 2111 H 195.825 -1.74276 -3.77625 0
M  V30 2112 H 194.402 0.0880706 -3.72796 0
M  V30 2113 N 196.587 1.43421 -0.653314 0
M  V30 2114 C 197.519 2.29071 0.0769134 0
M  V30 2115 C 198.532 1.42513 0.787017 0
M  V30 2116 O 199.721 1.66449 0.644757 0
M  V30 2117 C 196.821 3.19436 1.13199 0
M  V30 2118 C 195.994 4.34533 0.500006 0
M  V30 2119 C 195.053 5.05771 1.45198 0
M  V30 2120 O 194.079 5.61037 0.960538 0
M  V30 2121 N 195.281 5.0928 2.78594 0
M  V30 2122 H 198.046 2.92382 -0.658235 0
M  V30 2123 H 195.607 1.54112 -0.496104 0
M  V30 2124 H 197.599 3.63958 1.76964 0
M  V30 2125 H 196.169 2.57724 1.7691 0
M  V30 2126 H 195.389 3.92925 -0.316738 0
M  V30 2127 H 196.677 5.08766 0.0588345 0
M  V30 2128 H 196.075 4.65751 3.2108 0
M  V30 2129 H 194.632 5.57519 3.37662 0
M  V30 2130 N 198.065 0.39524 1.52563 0
M  V30 2131 C 199.312 -0.185044 2.01653 0
M  V30 2132 C 199.64 -1.46317 1.28146 0
M  V30 2133 O 198.895 -1.9213 0.372074 0
M  V30 2134 C 199.194 -0.493444 3.53977 0
M  V30 2135 C 198.86 0.69384 4.4553 0
M  V30 2136 C 197.522 1.01954 4.70275 0
M  V30 2137 C 199.874 1.48785 4.99512 0
M  V30 2138 C 197.202 2.14069 5.46252 0
M  V30 2139 C 199.554 2.59965 5.76716 0
M  V30 2140 C 198.218 2.93037 5.99738 0
M  V30 2141 H 197.488 -0.0677123 0.7379 0
M  V30 2142 H 200.135 0.533807 1.8391 0
M  V30 2143 H 198.44 -1.29369 3.69825 0
M  V30 2144 H 200.137 -0.955163 3.89458 0
M  V30 2145 H 196.727 0.429987 4.26438 0
M  V30 2146 H 200.911 1.24946 4.80315 0
M  V30 2147 H 196.167 2.40056 5.62302 0
M  V30 2148 H 200.341 3.21887 6.17545 0
M  V30 2149 H 197.968 3.8003 6.58393 0
M  V30 2150 N 199.544 -1.57102 0.125237 0
M  V30 2151 C 200.492 -2.16905 -0.839927 0
M  V30 2152 C 201.486 -1.11998 -1.27094 0
M  V30 2153 O 202.692 -1.3029 -1.24195 0
M  V30 2154 H 199.067 -0.694252 -0.288995 0
M  V30 2155 H 201.038 -2.96774 -0.311115 0
M  V30 2156 C 199.787 -2.78795 -2.07771 0
M  V30 2157 H 199.11 -3.59221 -1.755 0
M  V30 2158 H 200.55 -3.2417 -2.73295 0
M  V30 2159 C 199.009 -1.76193 -2.87155 0
M  V30 2160 O 199.539 -1.21909 -3.82755 0
M  V30 2161 N 197.745 -1.45991 -2.51267 0
M  V30 2162 H 197.292 -1.90325 -1.73592 0
M  V30 2163 H 197.25 -0.775844 -3.04677 0
M  V30 2164 N 201.022 0.148545 -1.56898 0
M  V30 2165 C 202.269 0.861418 -1.83264 0
M  V30 2166 C 202.597 1.81239 -0.705883 0
M  V30 2167 O 201.852 1.93305 0.305212 0
M  V30 2168 C 202.151 1.67064 -3.1595 0
M  V30 2169 C 201.817 0.866591 -4.42494 0
M  V30 2170 C 200.479 0.644762 -4.76861 0
M  V30 2171 C 202.831 0.30418 -5.20312 0
M  V30 2172 C 200.159 -0.15021 -5.86508 0
M  V30 2173 C 202.511 -0.477824 -6.30793 0
M  V30 2174 C 201.175 -0.710244 -6.63711 0
M  V30 2175 H 200.445 0.315215 -0.670612 0
M  V30 2176 H 203.092 0.125142 -1.91091 0
M  V30 2177 H 201.397 2.47698 -3.03567 0
M  V30 2178 H 203.094 2.22566 -3.33565 0
M  V30 2179 H 199.684 1.04955 -4.15551 0
M  V30 2180 H 203.868 0.462844 -4.94137 0
M  V30 2181 H 199.124 -0.339796 -6.10455 0
M  V30 2182 H 203.298 -0.92076 -6.90286 0
M  V30 2183 H 200.925 -1.3281 -7.48509 0
M  V30 2184 N 202.5 1.5196 0.417844 0
M  V30 2185 C 203.746 1.65836 1.16732 0
M  V30 2186 C 204.079 0.382881 1.90388 0
M  V30 2187 O 203.354 -0.618368 1.84408 0
M  V30 2188 C 203.637 2.87466 2.16876 0
M  V30 2189 C 203.49 4.25041 1.47174 0
M  V30 2190 C 204.809 3.04613 3.17646 0
M  V30 2191 H 201.928 0.603515 0.423011 0
M  V30 2192 H 204.57 1.84494 0.454105 0
M  V30 2193 H 202.72 2.71689 2.777 0
M  V30 2194 H 204.392 4.52527 0.895376 0
M  V30 2195 H 202.635 4.26843 0.773806 0
M  V30 2196 H 203.306 5.06176 2.20204 0
M  V30 2197 H 205.782 3.1923 2.66892 0
M  V30 2198 H 204.658 3.91247 3.8499 0
M  V30 2199 H 204.919 2.17541 3.84874 0
M  V30 2200 N 203.978 -0.674533 1.42435 0
M  V30 2201 C 205.389 -1.25514 1.38214 0
M  V30 2202 C 205.74 -1.96055 0.0755464 0
M  V30 2203 O 204.865 -2.00028 -0.8257 0
M  V30 2204 C 205.46 -2.28269 2.50357 0
M  V30 2205 C 204.019 -2.81856 2.49467 0
M  V30 2206 C 203.166 -1.56182 2.29134 0
M  V30 2207 H 206.117 -0.467902 1.51646 0
M  V30 2208 H 206.138 -3.10009 2.20624 0
M  V30 2209 H 205.65 -1.769 3.45439 0
M  V30 2210 H 203.751 -3.37346 1.58204 0
M  V30 2211 H 203.864 -3.30854 3.46515 0
M  V30 2212 H 202.228 -1.82761 1.774 0
M  V30 2213 H 203.011 -1.06778 3.26272 0
M  V30 2214 N 205.456 -1.28612 -0.910864 0
M  V30 2215 C 206.867 -1.14406 -1.47541 0
M  V30 2216 C 207.218 0.264901 -1.94403 0
M  V30 2217 O 206.343 1.15942 -1.82719 0
M  V30 2218 C 206.938 -2.07073 -2.68153 0
M  V30 2219 C 205.497 -1.96923 -3.20778 0
M  V30 2220 C 204.644 -1.98646 -1.93481 0
M  V30 2221 H 207.595 -1.41259 -0.723291 0
M  V30 2222 H 207.616 -1.63642 -3.43514 0
M  V30 2223 H 207.128 -3.09611 -2.34015 0
M  V30 2224 H 205.229 -0.97433 -3.59635 0
M  V30 2225 H 205.342 -2.84026 -3.85832 0
M  V30 2226 H 203.706 -1.43093 -2.10705 0
M  V30 2227 H 204.489 -3.02868 -1.61634 0
M  V30 2228 N 206.934 1.1197 -1.10907 0
M  V30 2229 C 208.182 1.83225 -0.852819 0
M  V30 2230 C 208.503 1.84769 0.623341 0
M  V30 2231 O 207.773 1.3143 1.45269 0
M  V30 2232 H 206.353 0.67849 -0.312507 0
M  V30 2233 H 209.015 1.3556 -1.40033 0
M  V30 2234 H 208.111 2.87265 -1.22005 0
M  V30 2235 N 208.412 0.89855 1.29475 0
M  V30 2236 C 209.828 0.594483 1.48115 0
M  V30 2237 C 210.028 -0.86431 1.82022 0
M  V30 2238 O 209.084 -1.64457 1.91599 0
M  V30 2239 C 210.397 1.51932 2.59494 0
M  V30 2240 C 211.945 1.5244 2.7337 0
M  V30 2241 C 212.42 2.43548 3.87877 0
M  V30 2242 N 213.911 2.41589 3.95208 0
M  V30 2243 C 214.646 3.08789 4.83153 0
M  V30 2244 N 214.142 3.85265 5.75798 0
M  V30 2245 N 215.935 2.97952 4.76635 0
M  V30 2246 H 208.086 1.84207 1.05742 0
M  V30 2247 H 210.349 0.789251 0.525154 0
M  V30 2248 H 210.055 2.55865 2.41301 0
M  V30 2249 H 209.929 1.23899 3.56271 0
M  V30 2250 H 212.316 0.492518 2.90961 0
M  V30 2251 H 212.397 1.8451 1.77172 0
M  V30 2252 H 212.041 3.46829 3.71041 0
M  V30 2253 H 211.971 2.08788 4.83441 0
M  V30 2254 H 214.462 1.86025 3.28943 0
M  V30 2255 H 214.775 4.33598 6.39697 0
M  V30 2256 H 213.12 3.89371 5.75687 0
M  V30 2257 H 216.311 2.37723 4.03244 0
M  V30 2258 H 216.484 3.50599 5.44962 0
M  V30 2259 N 209.89 -1.43072 0.660911 0
M  V30 2260 C 210.823 -2.28074 -0.0758862 0
M  V30 2261 C 211.801 -1.40271 -0.822362 0
M  V30 2262 O 212.985 -1.69713 -0.820352 0
M  V30 2263 C 210.112 -3.19843 -1.11437 0
M  V30 2264 C 209.158 -4.23957 -0.465069 0
M  V30 2265 S 209.991 -5.29978 0.767078 0
M  V30 2266 C 211.147 -6.25314 -0.270682 0
M  V30 2267 H 211.38 -2.90216 0.645139 0
M  V30 2268 H 208.913 -1.47697 0.449995 0
M  V30 2269 H 210.871 -3.73257 -1.70849 0
M  V30 2270 H 209.532 -2.56863 -1.80776 0
M  V30 2271 H 208.725 -4.88299 -1.24819 0
M  V30 2272 H 208.327 -3.73959 0.0551242 0
M  V30 2273 H 210.619 -6.67932 -1.13459 0
M  V30 2274 H 211.562 -7.07293 0.337916 0
M  V30 2275 H 211.97 -5.61195 -0.609937 0
M  V30 2276 N 211.368 -0.403325 -1.52352 0
M  V30 2277 C 212.608 0.173946 -2.03659 0
M  V30 2278 C 212.972 1.42869 -1.28267 0
M  V30 2279 O 214.173 2.08403 -1.69769 0
M  V30 2280 C 212.444 0.421478 -3.54906 0
M  V30 2281 S 214.003 0.967027 -4.28012 0
M  V30 2282 H 210.821 0.0477461 -0.709395 0
M  V30 2283 H 213.423 -0.554906 -1.87459 0
M  V30 2284 H 212.127 -0.498616 -4.0736 0
M  V30 2285 H 211.658 1.17837 -3.75337 0
M  V30 2286 H 213.673 2.24812 -4.4235 0
M  V30 2287 N 212.846 1.57033 -0.133567 0
M  V30 2288 C 214.262 1.58035 0.222944 0
M  V30 2289 C 214.462 1.14713 1.6566 0
M  V30 2290 O 213.518 0.841218 2.38075 0
M  V30 2291 C 214.831 3.00691 -0.0236116 0
M  V30 2292 C 216.379 3.12973 0.0411512 0
M  V30 2293 C 216.854 4.57654 -0.177899 0
M  V30 2294 N 218.345 4.63033 -0.124365 0
M  V30 2295 C 219.08 5.72771 -0.268553 0
M  V30 2296 N 218.576 6.91206 -0.46972 0
M  V30 2297 N 220.369 5.61718 -0.2071 0
M  V30 2298 H 212.52 1.8349 -1.06981 0
M  V30 2299 H 214.783 0.848677 -0.422436 0
M  V30 2300 H 214.489 3.36726 -1.0153 0
M  V30 2301 H 214.363 3.70614 0.701808 0
M  V30 2302 H 216.75 2.76787 1.02338 0
M  V30 2303 H 216.831 2.45564 -0.716383 0
M  V30 2304 H 216.475 4.94542 -1.15717 0
M  V30 2305 H 216.405 5.23173 0.599797 0
M  V30 2306 H 218.896 3.7789 0.027011 0
M  V30 2307 H 219.209 7.70693 -0.570212 0
M  V30 2308 H 217.554 6.93156 -0.505876 0
M  V30 2309 H 220.745 4.68072 -0.0507986 0
M  V30 2310 H 220.918 6.47195 -0.322909 0
M  V30 2311 N 214.325 -0.140222 1.56975 0
M  V30 2312 C 215.571 -0.852949 1.83991 0
M  V30 2313 C 215.904 -1.80512 0.716187 0
M  V30 2314 O 215.179 -1.92479 -0.279681 0
M  V30 2315 C 215.462 -1.6215 3.21527 0
M  V30 2316 C 215.315 -0.690363 4.4447 0
M  V30 2317 C 216.634 -2.58247 3.56366 0
M  V30 2318 H 213.753 -0.308634 0.669264 0
M  V30 2319 H 216.395 -0.117898 1.89634 0
M  V30 2320 H 214.545 -2.24812 3.16847 0
M  V30 2321 H 216.217 -0.0742264 4.6124 0
M  V30 2322 H 214.46 -0.000396433 4.338 0
M  V30 2323 H 215.131 -1.2643 5.37326 0
M  V30 2324 H 217.607 -2.05701 3.61699 0
M  V30 2325 H 216.483 -3.09067 4.53617 0
M  V30 2326 H 216.744 -3.39923 2.82674 0
M  V30 2327 N 215.803 -1.52179 -0.40978 0
M  V30 2328 C 216.766 -1.74853 -1.48186 0
M  V30 2329 C 217.766 -0.618417 -1.48433 0
M  V30 2330 O 218.956 -0.886286 -1.49969 0
M  V30 2331 C 216.088 -1.8303 -2.87598 0
M  V30 2332 H 217.281 -2.70559 -1.29374 0
M  V30 2333 H 214.834 -1.42586 -0.640233 0
M  V30 2334 H 215.569 -0.89236 -3.11781 0
M  V30 2335 H 215.354 -2.65187 -2.88822 0
M  V30 2336 H 216.844 -2.02316 -3.65319 0
M  V30 2337 N 217.281 0.66697 -1.42791 0
M  V30 2338 C 218.529 1.42417 -1.43394 0
M  V30 2339 C 218.85 1.94925 -0.0542373 0
M  V30 2340 O 218.12 1.73564 0.908415 0
M  V30 2341 H 216.7 0.528515 -0.527902 0
M  V30 2342 H 219.362 0.787562 -1.78279 0
M  V30 2343 H 218.458 2.27333 -2.13837 0
M  V30 2344 N 218.759 1.29093 0.90403 0
M  V30 2345 C 220.005 1.17996 1.65676 0
M  V30 2346 C 220.36 -0.266816 1.90541 0
M  V30 2347 O 219.653 -1.19 1.50165 0
M  V30 2348 C 219.847 1.92224 3.01305 0
M  V30 2349 C 219.676 3.43972 2.89678 0
M  V30 2350 C 218.446 4.1332 2.90679 0
M  V30 2351 C 220.644 4.39546 2.67028 0
M  V30 2352 N 218.626 5.51463 2.69743 0
M  V30 2353 C 219.997 5.65119 2.5503 0
M  V30 2354 C 222.052 4.29359 2.52101 0
M  V30 2355 C 220.755 6.81663 2.29626 0
M  V30 2356 C 222.781 5.4565 2.28079 0
M  V30 2357 C 222.143 6.70193 2.16843 0
M  V30 2358 H 218.242 0.486759 0.612037 0
M  V30 2359 H 220.826 1.62868 1.06688 0
M  V30 2360 H 218.997 1.49773 3.58361 0
M  V30 2361 H 220.729 1.73429 3.65656 0
M  V30 2362 H 217.484 3.64984 3.01801 0
M  V30 2363 H 217.908 6.24105 2.6234 0
M  V30 2364 H 222.55 3.33769 2.59534 0
M  V30 2365 H 220.268 7.77313 2.20932 0
M  V30 2366 H 223.854 5.39664 2.1738 0
M  V30 2367 H 222.734 7.58659 1.98511 0
M  V30 2368 N 220.237 -1.11381 1.11499 0
M  V30 2369 C 221.485 -1.8277 0.862524 0
M  V30 2370 C 221.806 -1.85097 -0.613534 0
M  V30 2371 O 221.076 -1.32198 -1.4457 0
M  V30 2372 H 219.656 -0.676823 0.316101 0
M  V30 2373 H 222.318 -1.34816 1.4075 0
M  V30 2374 H 221.414 -2.86614 1.23527 0
M  V30 2375 N 221.715 -0.905404 -1.28997 0
M  V30 2376 C 223.131 -0.60233 -1.47798 0
M  V30 2377 C 223.331 0.854645 -1.82478 0
M  V30 2378 O 222.387 1.63439 -1.92468 0
M  V30 2379 C 223.7 -1.53306 -2.58685 0
M  V30 2380 C 225.248 -1.53887 -2.72558 0
M  V30 2381 C 225.723 -2.45602 -3.86579 0
M  V30 2382 N 227.214 -2.43681 -3.93921 0
M  V30 2383 C 227.949 -3.11347 -4.81509 0
M  V30 2384 N 227.445 -3.88313 -5.73746 0
M  V30 2385 N 229.238 -3.00476 -4.75048 0
M  V30 2386 H 221.389 -1.84765 -1.04764 0
M  V30 2387 H 223.652 -0.792025 -0.520961 0
M  V30 2388 H 223.358 -2.57141 -2.39941 0
M  V30 2389 H 223.232 -1.25787 -3.55609 0
M  V30 2390 H 225.619 -0.507941 -2.90696 0
M  V30 2391 H 225.7 -1.85447 -1.76191 0
M  V30 2392 H 225.344 -3.48792 -3.69197 0
M  V30 2393 H 225.274 -2.11349 -4.82327 0
M  V30 2394 H 227.765 -1.87767 -3.27951 0
M  V30 2395 H 228.078 -4.36985 -6.37389 0
M  V30 2396 H 226.423 -3.92419 -5.73614 0
M  V30 2397 H 229.614 -2.39858 -4.01977 0
M  V30 2398 H 229.787 -3.53485 -5.43095 0
M  V30 2399 N 223.193 1.4272 -0.668489 0
M  V30 2400 C 224.421 2.05966 -0.196348 0
M  V30 2401 C 224.836 1.50191 1.14403 0
M  V30 2402 O 224.193 0.639208 1.7094 0
M  V30 2403 C 224.244 3.61314 -0.115815 0
M  V30 2404 O 223.965 4.1502 -1.40322 0
M  V30 2405 C 225.466 4.41663 0.380579 0
M  V30 2406 H 222.686 0.663954 -0.0969829 0
M  V30 2407 H 225.23 1.82966 -0.913446 0
M  V30 2408 H 223.385 3.83448 0.551931 0
M  V30 2409 H 223.799 5.08832 -1.27243 0
M  V30 2410 H 225.273 5.5065 0.385848 0
M  V30 2411 H 225.75 4.15792 1.41471 0
M  V30 2412 H 226.356 4.24534 -0.255209 0
M  V30 2413 N 224.671 0.411399 1.52136 0
M  V30 2414 C 225.919 -0.163322 2.01439 0
M  V30 2415 C 226.24 -1.45453 1.29879 0
M  V30 2416 O 225.51 -1.91225 0.4254 0
M  V30 2417 H 224.09 -0.0633447 0.744309 0
M  V30 2418 H 226.752 0.548161 1.87033 0
M  V30 2419 H 225.848 -0.357817 3.10042 0
M  V30 2420 N 226.149 -1.5696 0.141893 0
M  V30 2421 C 227.395 -1.9625 -0.511248 0
M  V30 2422 C 227.728 -1.02654 -1.64851 0
M  V30 2423 O 227.003 -0.0679676 -1.94381 0
M  V30 2424 C 227.286 -3.45285 -1.02227 0
M  V30 2425 C 227.139 -4.49658 0.113138 0
M  V30 2426 C 228.458 -3.96698 -1.90574 0
M  V30 2427 H 225.577 -0.713567 -0.184367 0
M  V30 2428 H 228.219 -1.88698 0.222087 0
M  V30 2429 H 226.369 -3.51852 -1.64719 0
M  V30 2430 H 228.041 -4.55174 0.749302 0
M  V30 2431 H 226.284 -4.26857 0.773026 0
M  V30 2432 H 226.955 -5.51258 -0.286053 0
M  V30 2433 H 229.431 -3.92578 -1.37918 0
M  V30 2434 H 228.307 -5.01453 -2.2324 0
M  V30 2435 H 228.568 -3.3875 -2.84079 0
M  V30 2436 N 227.627 0.131896 -1.57047 0
M  V30 2437 C 228.557 1.16384 -2.02428 0
M  V30 2438 C 229.538 1.43936 -0.90644 0
M  V30 2439 O 230.723 1.54599 -1.17528 0
M  V30 2440 C 227.853 2.49328 -2.4177 0
M  V30 2441 C 226.807 2.36266 -3.56879 0
M  V30 2442 C 226.133 3.74057 -3.8208 0
M  V30 2443 C 227.433 1.834 -4.89042 0
M  V30 2444 H 229.127 0.786433 -2.88887 0
M  V30 2445 H 226.673 0.376855 -1.38981 0
M  V30 2446 H 228.626 3.21759 -2.7212 0
M  V30 2447 H 227.35 2.88934 -1.52266 0
M  V30 2448 H 226.009 1.66286 -3.26718 0
M  V30 2449 H 225.657 4.11125 -2.89803 0
M  V30 2450 H 225.357 3.66174 -4.59554 0
M  V30 2451 H 226.881 4.48012 -4.1487 0
M  V30 2452 H 228.295 2.45636 -5.18011 0
M  V30 2453 H 226.692 1.8637 -5.70426 0
M  V30 2454 H 227.762 0.790662 -4.7841 0
M  V30 2455 N 229.106 1.52395 0.401703 0
M  V30 2456 C 230.053 1.76268 1.48991 0
M  V30 2457 C 231.023 0.605386 1.54675 0
M  V30 2458 O 232.208 0.843742 1.7113 0
M  V30 2459 C 229.348 1.92592 2.86361 0
M  V30 2460 C 228.461 3.20259 2.89928 0
M  V30 2461 C 227.596 3.26972 4.18644 0
M  V30 2462 C 226.635 4.48812 4.16214 0
M  V30 2463 N 225.772 4.52877 5.36514 0
M  V30 2464 H 230.612 2.6914 1.27935 0
M  V30 2465 H 228.149 1.33355 0.620871 0
M  V30 2466 H 230.107 2.0004 3.66115 0
M  V30 2467 H 228.737 1.03093 3.05895 0
M  V30 2468 H 227.789 3.21945 2.02621 0
M  V30 2469 H 229.101 4.10056 2.83999 0
M  V30 2470 H 228.255 3.33533 5.06794 0
M  V30 2471 H 226.994 2.35126 4.27278 0
M  V30 2472 H 225.999 4.4239 3.26453 0
M  V30 2473 H 227.224 5.41961 4.09213 0
M  V30 2474 H 225.17 3.63917 5.45802 0
M  V30 2475 H 225.087 5.36529 5.32609 0
M  V30 2476 H 226.355 4.63676 6.26597 0
M  V30 2477 N 230.584 -0.659388 1.43143 0
M  V30 2478 C 231.995 -1.24041 1.39537 0
M  V30 2479 C 232.346 -1.95963 0.0963364 0
M  V30 2480 O 231.471 -2.00892 -0.804438 0
M  V30 2481 C 232.066 -2.25601 2.52764 0
M  V30 2482 C 230.625 -2.79195 2.52443 0
M  V30 2483 C 229.772 -1.53743 2.30778 0
M  V30 2484 H 232.723 -0.451792 1.52133 0
M  V30 2485 H 232.744 -3.07651 2.23899 0
M  V30 2486 H 232.256 -1.73226 3.47296 0
M  V30 2487 H 230.357 -3.35649 1.61773 0
M  V30 2488 H 230.47 -3.2716 3.50004 0
M  V30 2489 H 228.834 -1.80869 1.79328 0
M  V30 2490 H 229.617 -1.03312 3.27386 0
M  V30 2491 N 232.062 -1.29571 -0.897171 0
M  V30 2492 C 233.31 -1.17456 -1.64464 0
M  V30 2493 C 233.631 0.273698 -1.9307 0
M  V30 2494 O 232.901 1.18684 -1.55855 0
M  V30 2495 H 231.481 -0.431706 -0.609622 0
M  V30 2496 H 234.143 -1.62531 -1.07562 0
M  V30 2497 H 233.239 -1.72648 -2.59998 0
M  V30 2498 N 233.54 1.10788 -1.12088 0
M  V30 2499 C 234.765 1.87002 -0.896949 0
M  V30 2500 C 235.19 1.79933 0.548261 0
M  V30 2501 O 234.548 1.16662 1.38779 0
M  V30 2502 C 234.596 3.3349 -1.37174 0
M  V30 2503 O 233.7 4.08745 -0.547831 0
M  V30 2504 H 233.041 0.580397 -0.322545 0
M  V30 2505 H 235.571 1.39996 -1.49206 0
M  V30 2506 H 235.581 3.84339 -1.36922 0
M  V30 2507 H 234.256 3.37951 -2.42408 0
M  V30 2508 H 232.833 3.6776 -0.617034 0
M  V30 2509 N 235.018 0.912232 1.28515 0
M  V30 2510 C 236.295 0.463597 1.90027 0
M  V30 2511 C 236.675 -1.05753 1.82701 0
M  V30 2512 O 236.023 -1.90492 1.26194 0
M  V30 2513 C 236.233 0.992253 3.34597 0
M  V30 2514 C 237.581 1.04344 4.11579 0
M  V30 2515 O 238.605 0.94079 3.43551 0
M  V30 2516 O 237.464 1.1995 5.33174 0
M  V30 2517 H 234.558 0.146666 0.813891 0
M  V30 2518 H 237.104 1.00292 1.36893 0
M  V30 2519 H 235.876 2.03623 3.34146 0
M  V30 2520 H 235.499 0.433672 3.95228 0
M  V30 2521 N 236.496 -1.42363 0.676048 0
M  V30 2522 C 237.724 -2.05859 0.207268 0
M  V30 2523 C 238.139 -1.50796 -1.13605 0
M  V30 2524 O 237.496 -0.648265 -1.70598 0
M  V30 2525 C 237.547 -3.61248 0.134975 0
M  V30 2526 O 237.268 -4.1427 1.42521 0
M  V30 2527 C 238.769 -4.41859 -0.357151 0
M  V30 2528 H 235.989 -0.663431 0.100503 0
M  V30 2529 H 238.533 -1.82479 0.923136 0
M  V30 2530 H 236.688 -3.83735 -0.531588 0
M  V30 2531 H 237.102 -5.0815 1.29939 0
M  V30 2532 H 238.576 -5.50847 -0.356641 0
M  V30 2533 H 239.053 -4.16536 -1.39264 0
M  V30 2534 H 239.659 -4.24392 0.27772 0
M  V30 2535 N 237.974 -0.419461 -1.51915 0
M  V30 2536 C 238.904 0.391813 -2.30189 0
M  V30 2537 C 239.885 1.03699 -1.34836 0
M  V30 2538 O 241.07 1.04403 -1.63748 0
M  V30 2539 C 238.2 1.50312 -3.13087 0
M  V30 2540 C 237.154 0.9824 -4.16573 0
M  V30 2541 C 236.48 2.18809 -4.8788 0
M  V30 2542 C 237.78 0.0292356 -5.22292 0
M  V30 2543 H 239.474 -0.26135 -2.98257 0
M  V30 2544 H 237.02 -0.127134 -1.43438 0
M  V30 2545 H 238.973 2.07773 -3.66617 0
M  V30 2546 H 237.697 2.18431 -2.42807 0
M  V30 2547 H 236.356 0.430119 -3.64068 0
M  V30 2548 H 236.004 2.85507 -4.14119 0
M  V30 2549 H 235.704 1.84615 -5.57845 0
M  V30 2550 H 237.228 2.76858 -5.44226 0
M  V30 2551 H 238.642 0.512976 -5.71 0
M  V30 2552 H 237.039 -0.2244 -5.9968 0
M  V30 2553 H 238.109 -0.912931 -4.76228 0
M  V30 2554 N 239.452 1.56882 -0.150215 0
M  V30 2555 C 240.384 2.14057 0.819286 0
M  V30 2556 C 241.397 1.09082 1.20851 0
M  V30 2557 O 242.586 1.36347 1.15203 0
M  V30 2558 C 239.686 2.65102 2.11127 0
M  V30 2559 C 238.859 3.94511 1.88891 0
M  V30 2560 C 237.918 4.30834 3.02107 0
M  V30 2561 O 236.944 4.99099 2.73659 0
M  V30 2562 N 238.146 3.90676 4.29363 0
M  V30 2563 H 240.911 2.97871 0.330618 0
M  V30 2564 H 238.472 1.61866 0.0332538 0
M  V30 2565 H 240.464 2.86411 2.85921 0
M  V30 2566 H 239.034 1.85994 2.51247 0
M  V30 2567 H 238.254 3.81795 0.981152 0
M  V30 2568 H 239.542 4.7907 1.71376 0
M  V30 2569 H 238.94 3.35677 4.55343 0
M  V30 2570 H 237.497 4.1703 5.00928 0
M  V30 2571 N 240.93 -0.123565 1.57115 0
M  V30 2572 C 241.84 -1.17074 2.033 0
M  V30 2573 C 242.856 -1.4561 0.952559 0
M  V30 2574 O 244.032 -1.56817 1.26374 0
M  V30 2575 C 241.097 -2.47857 2.42421 0
M  V30 2576 C 240.158 -2.26758 3.64526 0
M  V30 2577 C 239.391 -3.51305 4.01771 0
M  V30 2578 O 239.614 -4.5843 3.39409 0
M  V30 2579 O 238.548 -3.42578 4.94898 0
M  V30 2580 H 242.374 -0.808555 2.92739 0
M  V30 2581 H 239.959 -0.334027 1.45618 0
M  V30 2582 H 241.841 -3.2492 2.68338 0
M  V30 2583 H 240.516 -2.83558 1.5613 0
M  V30 2584 H 239.423 -1.47569 3.43765 0
M  V30 2585 H 240.756 -1.95963 4.51508 0
M  V30 2586 N 242.408 -1.52605 -0.393616 0
M  V30 2587 C 243.654 -1.67672 -1.14079 0
M  V30 2588 C 243.987 -0.413121 -1.89755 0
M  V30 2589 O 243.262 0.588952 -1.85369 0
M  V30 2590 C 243.545 -2.9088 -2.12276 0
M  V30 2591 C 243.398 -4.27329 -1.40394 0
M  V30 2592 C 244.717 -3.09628 -3.12759 0
M  V30 2593 H 241.836 -0.610168 -0.413356 0
M  V30 2594 H 244.478 -1.85193 -0.424696 0
M  V30 2595 H 242.628 -2.76073 -2.73342 0
M  V30 2596 H 244.3 -4.53894 -0.82327 0
M  V30 2597 H 242.543 -4.2802 -0.705801 0
M  V30 2598 H 243.214 -5.09615 -2.12123 0
M  V30 2599 H 245.69 -3.23436 -2.61779 0
M  V30 2600 H 244.566 -3.97322 -3.78717 0
M  V30 2601 H 244.827 -2.23637 -3.81365 0
M  V30 2602 N 243.887 0.651787 -1.4349 0
M  V30 2603 C 244.834 1.76462 -1.4876 0
M  V30 2604 C 245.804 1.62641 -0.337189 0
M  V30 2605 O 246.989 1.82864 -0.544544 0
M  V30 2606 C 244.129 3.14623 -1.41796 0
M  V30 2607 C 243.242 3.39568 -2.67053 0
M  V30 2608 C 242.377 4.67585 -2.52068 0
M  V30 2609 C 241.416 4.85639 -3.72587 0
M  V30 2610 N 240.553 6.04915 -3.56402 0
M  V30 2611 H 245.393 1.71293 -2.43849 0
M  V30 2612 H 242.93 0.835889 -1.21043 0
M  V30 2613 H 244.888 3.94496 -1.35753 0
M  V30 2614 H 243.518 3.18859 -0.50288 0
M  V30 2615 H 242.57 2.53783 -2.8337 0
M  V30 2616 H 243.882 3.48795 -3.56572 0
M  V30 2617 H 243.036 5.55586 -2.4374 0
M  V30 2618 H 241.775 4.60681 -1.60075 0
M  V30 2619 H 240.78 3.96073 -3.81321 0
M  V30 2620 H 242.005 4.94372 -4.65589 0
M  V30 2621 H 239.951 5.9914 -2.67146 0
M  V30 2622 H 239.868 6.15106 -4.39524 0
M  V30 2623 H 241.136 6.95533 -3.51929 0
M  V30 2624 N 245.365 1.30045 0.890287 0
M  V30 2625 C 246.295 1.18541 2.01172 0
M  V30 2626 C 247.276 0.0773356 1.69924 0
M  V30 2627 O 248.461 0.25845 1.92473 0
M  V30 2628 C 245.591 0.870941 3.36202 0
M  V30 2629 C 244.545 1.93637 3.81692 0
M  V30 2630 C 243.871 1.475 5.13953 0
M  V30 2631 C 245.171 3.34666 4.00994 0
M  V30 2632 H 246.865 2.12359 2.11054 0
M  V30 2633 H 244.411 1.02238 1.01407 0
M  V30 2634 H 246.364 0.777141 4.14172 0
M  V30 2635 H 245.088 -0.102926 3.26438 0
M  V30 2636 H 243.747 2.01972 3.05946 0
M  V30 2637 H 243.395 0.489551 5.00612 0
M  V30 2638 H 243.095 2.1876 5.4536 0
M  V30 2639 H 244.619 1.39489 5.94454 0
M  V30 2640 H 246.033 3.2912 4.69417 0
M  V30 2641 H 244.43 4.03966 4.43769 0
M  V30 2642 H 245.5 3.76949 3.05021 0
M  V30 2643 N 246.843 -1.10192 1.12674 0
M  V30 2644 C 248.259 -1.34235 0.863317 0
M  V30 2645 C 248.459 -1.95062 -0.505277 0
M  V30 2646 O 247.515 -2.19192 -1.25345 0
M  V30 2647 C 248.828 -2.2616 1.98172 0
M  V30 2648 C 250.376 -2.3969 2.0129 0
M  V30 2649 C 250.851 -3.34946 3.1237 0
M  V30 2650 N 252.342 -3.42515 3.11829 0
M  V30 2651 C 253.077 -4.16199 3.94419 0
M  V30 2652 N 252.573 -4.92747 4.87004 0
M  V30 2653 N 254.366 -4.11843 3.82547 0
M  V30 2654 H 246.517 -0.690798 2.00853 0
M  V30 2655 H 248.78 -0.366774 0.874174 0
M  V30 2656 H 248.486 -1.8868 2.96804 0
M  V30 2657 H 248.36 -3.26488 1.88906 0
M  V30 2658 H 250.747 -2.76438 1.03276 0
M  V30 2659 H 250.828 -1.39169 2.14629 0
M  V30 2660 H 250.472 -2.98923 4.10619 0
M  V30 2661 H 250.402 -4.35353 2.96269 0
M  V30 2662 H 252.893 -2.87926 2.44759 0
M  V30 2663 H 253.206 -5.46376 5.46528 0
M  V30 2664 H 251.551 -4.91862 4.91016 0
M  V30 2665 H 254.742 -3.51136 3.0955 0
M  V30 2666 H 254.915 -4.69007 4.47142 0
M  V30 2667 N 248.321 -0.919034 -1.28029 0
M  V30 2668 C 249.251 -0.428581 -2.29533 0
M  V30 2669 C 250.232 0.50659 -1.62381 0
M  V30 2670 O 251.417 0.413195 -1.89753 0
M  V30 2671 C 248.547 0.327388 -3.45753 0
M  V30 2672 C 247.501 -0.519137 -4.2484 0
M  V30 2673 C 246.827 0.365486 -5.33449 0
M  V30 2674 C 248.127 -1.77914 -4.91064 0
M  V30 2675 H 249.821 -1.27687 -2.70807 0
M  V30 2676 H 247.367 -0.615428 -1.30186 0
M  V30 2677 H 249.32 0.681378 -4.15855 0
M  V30 2678 H 248.044 1.20963 -3.03374 0
M  V30 2679 H 246.703 -0.855717 -3.56473 0
M  V30 2680 H 246.351 1.24642 -4.87312 0
M  V30 2681 H 246.051 -0.197356 -5.87268 0
M  V30 2682 H 247.575 0.715241 -6.06396 0
M  V30 2683 H 248.989 -1.49374 -5.53498 0
M  V30 2684 H 247.386 -2.2848 -5.54903 0
M  V30 2685 H 248.456 -2.50382 -4.15255 0
M  V30 2686 N 249.799 1.42003 -0.683588 0
M  V30 2687 C 250.732 2.28166 0.039592 0
M  V30 2688 C 251.71 1.41562 0.799942 0
M  V30 2689 O 252.894 1.70997 0.793248 0
M  V30 2690 C 250.021 3.21575 1.06335 0
M  V30 2691 C 249.067 4.24643 0.397562 0
M  V30 2692 S 249.9 5.2869 -0.851296 0
M  V30 2693 C 251.056 6.25666 0.171166 0
M  V30 2694 H 251.289 2.89153 -0.691229 0
M  V30 2695 H 248.822 1.46962 -0.473435 0
M  V30 2696 H 250.78 3.75928 1.6489 0
M  V30 2697 H 249.441 2.59707 1.76667 0
M  V30 2698 H 248.634 4.90223 1.17035 0
M  V30 2699 H 248.236 3.73824 -0.114611 0
M  V30 2700 H 250.528 6.69653 1.02819 0
M  V30 2701 H 251.471 7.06666 -0.450397 0
M  V30 2702 H 251.879 5.62095 0.520578 0
M  V30 2703 N 251.277 0.427512 1.51691 0
M  V30 2704 C 252.554 -0.201684 1.94557 0
M  V30 2705 C 252.934 -1.60981 1.36559 0
M  V30 2706 O 252.282 -2.21814 0.548702 0
M  V30 2707 C 252.492 -0.189394 3.48486 0
M  V30 2708 C 253.84 -0.39978 4.22714 0
M  V30 2709 O 254.864 -0.267945 3.55191 0
M  V30 2710 O 253.723 -0.661249 5.42485 0
M  V30 2711 H 250.817 -0.135261 0.815864 0
M  V30 2712 H 253.363 0.484782 1.62628 0
M  V30 2713 H 252.135 0.795431 3.8313 0
M  V30 2714 H 251.758 -0.919187 3.86829 0
M  V30 2715 N 252.755 -1.56801 0.158532 0
M  V30 2716 C 254.166 -1.83189 -0.360366 0
M  V30 2717 C 254.517 -1.07778 -1.63946 0
M  V30 2718 O 253.642 -0.326718 -2.13919 0
M  V30 2719 C 254.237 -3.32297 -0.660595 0
M  V30 2720 C 252.796 -3.59227 -1.12398 0
M  V30 2721 C 251.943 -2.76877 -0.153097 0
M  V30 2722 H 254.894 -1.54008 0.383031 0
M  V30 2723 H 254.915 -3.4908 -1.51405 0
M  V30 2724 H 254.427 -3.87156 0.270527 0
M  V30 2725 H 252.528 -3.09766 -2.07064 0
M  V30 2726 H 252.641 -4.67632 -1.04197 0
M  V30 2727 H 251.005 -2.46319 -0.647983 0
M  V30 2728 H 251.788 -3.34511 0.77182 0
M  V30 2729 N 254.233 0.115231 -1.57178 0
M  V30 2730 C 255.165 1.16694 -1.97269 0
M  V30 2731 C 256.178 1.37445 -0.872502 0
M  V30 2732 O 257.367 1.36454 -1.15077 0
M  V30 2733 C 254.467 2.52627 -2.25905 0
M  V30 2734 C 253.64 2.52427 -3.57211 0
M  V30 2735 C 252.699 3.70134 -3.74016 0
M  V30 2736 O 251.725 3.53546 -4.46087 0
M  V30 2737 N 252.927 4.88844 -3.13068 0
M  V30 2738 H 255.692 0.82588 -2.88096 0
M  V30 2739 H 253.253 0.304461 -1.59011 0
M  V30 2740 H 255.245 3.29937 -2.34359 0
M  V30 2741 H 253.815 2.789 -1.41186 0
M  V30 2742 H 253.035 1.60805 -3.5991 0
M  V30 2743 H 254.323 2.49353 -4.43509 0
M  V30 2744 H 253.721 5.05225 -2.54489 0
M  V30 2745 H 252.278 5.63817 -3.27037 0
M  V30 2746 N 255.711 1.52812 0.385517 0
M  V30 2747 C 256.674 1.77188 1.45386 0
M  V30 2748 C 257.674 0.641953 1.4743 0
M  V30 2749 O 258.864 0.910033 1.4854 0
M  V30 2750 C 255.996 1.87582 2.8465 0
M  V30 2751 H 257.189 2.72583 1.25054 0
M  V30 2752 H 254.742 1.43586 0.617467 0
M  V30 2753 H 255.477 0.941849 3.10322 0
M  V30 2754 H 255.262 2.69748 2.84567 0
M  V30 2755 H 256.752 2.08102 3.62054 0
M  V30 2756 N 257.189 -0.644168 1.43834 0
M  V30 2757 C 258.429 -1.41565 1.47441 0
M  V30 2758 C 258.793 -1.91743 0.0992723 0
M  V30 2759 O 259.994 -2.68798 0.0100192 0
M  V30 2760 C 258.265 -2.55902 2.49498 0
M  V30 2761 S 259.824 -3.44287 2.72051 0
M  V30 2762 H 256.642 -0.483118 0.521649 0
M  V30 2763 H 259.244 -0.747008 1.80666 0
M  V30 2764 H 257.948 -2.17327 3.48134 0
M  V30 2765 H 257.479 -3.27607 2.17801 0
M  V30 2766 H 259.494 -4.52927 2.0266 0
M  V30 2767 N 258.668 -1.30515 -0.883378 0
M  V30 2768 C 259.893 -1.22487 -1.67367 0
M  V30 2769 C 260.318 0.208767 -1.86938 0
M  V30 2770 O 259.676 1.15015 -1.40148 0
M  V30 2771 C 259.724 -1.96041 -3.02655 0
M  V30 2772 O 258.828 -1.28859 -3.91751 0
M  V30 2773 H 258.169 -0.423573 -0.511353 0
M  V30 2774 H 260.699 -1.72362 -1.10239 0
M  V30 2775 H 260.709 -2.05124 -3.52687 0
M  V30 2776 H 259.384 -3.00307 -2.8773 0
M  V30 2777 H 257.961 -1.28141 -3.50192 0
M  V30 2778 N 260.146 1.09593 -1.13257 0
M  V30 2779 C 261.096 2.14345 -0.777179 0
M  V30 2780 C 262.08 1.59277 0.227966 0
M  V30 2781 O 263.272 1.76971 0.0321413 0
M  V30 2782 C 260.401 3.42439 -0.242991 0
M  V30 2783 C 259.487 4.04419 -1.27694 0
M  V30 2784 N 259.878 4.40979 -2.47732 0
M  V30 2785 C 258.176 4.31596 -1.12432 0
M  V30 2786 C 258.877 4.89784 -3.13826 0
M  V30 2787 N 257.853 4.87133 -2.41252 0
M  V30 2788 H 261.655 2.40415 -1.69049 0
M  V30 2789 H 259.169 1.26803 -1.01463 0
M  V30 2790 H 261.166 4.16889 0.0298496 0
M  V30 2791 H 259.826 3.17824 0.66467 0
M  V30 2792 H 260.837 4.32396 -2.85051 0
M  V30 2793 H 257.514 4.16595 -0.274684 0
M  V30 2794 H 258.904 5.2755 -4.16102 0
M  V30 2795 N 261.624 0.925811 1.2754 0
M  V30 2796 C 262.871 0.565255 1.94451 0
M  V30 2797 C 263.199 -0.89316 1.7278 0
M  V30 2798 O 262.454 -1.65213 1.04895 0
M  V30 2799 C 262.753 0.835296 3.47502 0
M  V30 2800 C 262.419 2.27515 3.89291 0
M  V30 2801 C 261.081 2.66879 4.00411 0
M  V30 2802 C 263.433 3.21158 4.10496 0
M  V30 2803 C 260.761 3.99014 4.30122 0
M  V30 2804 C 263.113 4.52871 4.4169 0
M  V30 2805 C 261.777 4.92072 4.51023 0
M  V30 2806 H 261.047 0.206841 0.711546 0
M  V30 2807 H 263.694 1.16942 1.51647 0
M  V30 2808 H 261.999 0.148442 3.91519 0
M  V30 2809 H 263.696 0.535322 3.97411 0
M  V30 2810 H 260.286 1.95976 3.81171 0
M  V30 2811 H 264.47 2.9195 4.01346 0
M  V30 2812 H 259.726 4.2907 4.35556 0
M  V30 2813 H 263.9 5.25436 4.57045 0
M  V30 2814 H 261.527 5.9449 4.738 0
M  V30 2815 N 263.102 -1.41638 0.69111 0
M  V30 2816 C 264.518 -1.55435 0.362224 0
M  V30 2817 C 264.718 -1.66754 -1.13117 0
M  V30 2818 O 263.774 -1.64348 -1.91692 0
M  V30 2819 C 265.087 -2.79588 1.10684 0
M  V30 2820 C 266.635 -2.9338 1.09075 0
M  V30 2821 C 267.11 -4.20414 1.81703 0
M  V30 2822 N 268.601 -4.27362 1.7865 0
M  V30 2823 C 269.336 -5.24507 2.31689 0
M  V30 2824 N 268.832 -6.27708 2.93179 0
M  V30 2825 N 270.625 -5.16416 2.2197 0
M  V30 2826 H 262.776 -1.32536 1.65976 0
M  V30 2827 H 265.039 -0.639115 0.700168 0
M  V30 2828 H 264.745 -2.77419 2.16175 0
M  V30 2829 H 264.619 -3.70973 0.682545 0
M  V30 2830 H 267.006 -2.95067 0.0441238 0
M  V30 2831 H 267.087 -2.0318 1.55407 0
M  V30 2832 H 266.731 -4.19488 2.86343 0
M  V30 2833 H 266.661 -5.09578 1.32808 0
M  V30 2834 H 269.152 -3.53415 1.33815 0
M  V30 2835 H 269.465 -6.98217 3.31229 0
M  V30 2836 H 267.81 -6.28223 2.97255 0
M  V30 2837 H 271.001 -4.34716 1.73607 0
M  V30 2838 H 271.174 -5.91958 2.63609 0
M  V30 2839 N 264.58 -0.43555 -1.51462 0
M  V30 2840 C 265.857 0.191364 -1.94662 0
M  V30 2841 C 266.237 1.60254 -1.37411 0
M  V30 2842 O 265.585 2.2152 -0.560458 0
M  V30 2843 C 265.795 0.17091 -3.48581 0
M  V30 2844 C 267.143 0.377357 -4.2292 0
M  V30 2845 O 268.167 0.249104 -3.55328 0
M  V30 2846 O 267.026 0.63247 -5.42828 0
M  V30 2847 H 264.12 0.130932 -0.816569 0
M  V30 2848 H 266.666 -0.4934 -1.62369 0
M  V30 2849 H 265.438 -0.815738 -3.82703 0
M  V30 2850 H 265.061 0.898659 -3.87311 0
M  V30 2851 N 266.058 1.56714 -0.166846 0
M  V30 2852 C 267.305 1.96747 0.479252 0
M  V30 2853 C 267.633 1.05263 1.63554 0
M  V30 2854 O 266.888 0.0858098 1.95512 0
M  V30 2855 C 267.187 3.42889 1.00806 0
M  V30 2856 C 266.853 4.50889 -0.0318574 0
M  V30 2857 C 265.515 4.8015 -0.317675 0
M  V30 2858 C 267.867 5.15949 -0.737956 0
M  V30 2859 C 265.195 5.71772 -1.31506 0
M  V30 2860 C 267.547 6.08647 -1.72429 0
M  V30 2861 C 266.211 6.36277 -2.0176 0
M  V30 2862 H 265.481 0.719949 0.175371 0
M  V30 2863 H 268.128 1.89756 -0.257864 0
M  V30 2864 H 266.433 3.4681 1.82291 0
M  V30 2865 H 268.13 3.71203 1.51689 0
M  V30 2866 H 264.72 4.28128 0.201088 0
M  V30 2867 H 268.904 4.93458 -0.530351 0
M  V30 2868 H 264.16 5.91465 -1.54853 0
M  V30 2869 H 268.334 6.58129 -2.27682 0
M  V30 2870 H 265.961 7.07075 -2.79194 0
M  V30 2871 N 267.536 -0.106894 1.57237 0
M  V30 2872 C 268.813 -0.843526 1.76477 0
M  V30 2873 C 269.193 -1.97499 0.745464 0
M  V30 2874 O 268.541 -2.27357 -0.228306 0
M  V30 2875 C 268.751 -1.34903 3.21873 0
M  V30 2876 C 270.099 -1.79654 3.8472 0
M  V30 2877 O 271.123 -1.44554 3.2555 0
M  V30 2878 O 269.982 -2.44515 4.88748 0
M  V30 2879 H 267.076 -0.401468 0.723016 0
M  V30 2880 H 269.622 -0.0896927 1.69463 0
M  V30 2881 H 268.394 -0.53781 3.87586 0
M  V30 2882 H 268.017 -2.16522 3.33473 0
M  V30 2883 N 269.014 -1.53014 -0.377408 0
M  V30 2884 C 269.964 -1.74996 -1.46152 0
M  V30 2885 C 270.948 -0.604236 -1.49123 0
M  V30 2886 O 272.14 -0.862489 -1.54564 0
M  V30 2887 C 269.269 -1.93267 -2.8373 0
M  V30 2888 C 268.355 -3.13807 -2.85283 0
M  V30 2889 N 268.746 -4.35941 -2.56493 0
M  V30 2890 C 267.044 -3.14288 -3.16448 0
M  V30 2891 C 267.745 -5.17615 -2.65424 0
M  V30 2892 N 266.721 -4.53559 -2.99641 0
M  V30 2893 H 270.523 -2.67044 -1.22738 0
M  V30 2894 H 268.037 -1.51479 -0.585479 0
M  V30 2895 H 270.034 -2.0714 -3.61799 0
M  V30 2896 H 268.694 -1.0244 -3.08117 0
M  V30 2897 H 269.705 -4.63876 -2.30302 0
M  V30 2898 H 266.382 -2.33312 -3.46225 0
M  V30 2899 H 267.772 -6.25006 -2.46612 0
M  V30 2900 N 270.492 0.636531 -1.44174 0
M  V30 2901 C 271.44 1.76995 -1.50915 0
M  V30 2902 C 272.434 1.65053 -0.381295 0
M  V30 2903 O 273.64 1.71197 -0.55601 0
M  V30 2904 H 270.015 0.584247 -0.473455 0
M  V30 2905 H 271.986 1.68432 -2.4632 0
M  V30 2906 C 270.735 3.15314 -1.46534 0
M  V30 2907 H 270.058 3.25149 -2.32633 0
M  V30 2908 H 271.498 3.9453 -1.55312 0
M  V30 2909 C 269.957 3.3639 -0.185305 0
M  V30 2910 O 270.487 3.94699 0.746688 0
M  V30 2911 N 268.693 2.9046 -0.0901606 0
M  V30 2912 H 268.24 2.43193 -0.849416 0
M  V30 2913 H 268.198 3.04937 0.765553 0
M  V30 2914 N 271.97 1.30982 0.876444 0
M  V30 2915 C 272.9 1.20668 1.99903 0
M  V30 2916 C 273.881 0.095354 1.69833 0
M  V30 2917 O 275.066 0.27885 1.92188 0
M  V30 2918 C 272.196 0.90655 3.3526 0
M  V30 2919 C 271.15 1.97675 3.79617 0
M  V30 2920 C 270.476 1.52943 5.1236 0
M  V30 2921 C 271.776 3.389 3.97422 0
M  V30 2922 H 273.47 2.14586 2.0879 0
M  V30 2923 H 271.016 1.03308 1.00317 0
M  V30 2924 H 272.969 0.821025 4.13324 0
M  V30 2925 H 271.693 -0.0682969 3.26529 0
M  V30 2926 H 270.352 2.05205 3.03787 0
M  V30 2927 H 270 0.54262 5.00065 0
M  V30 2928 H 269.7 2.24532 5.43009 0
M  V30 2929 H 271.224 1.45786 5.92941 0
M  V30 2930 H 272.638 3.34081 4.659 0
M  V30 2931 H 271.035 4.0865 4.3946 0
M  V30 2932 H 272.105 3.80163 3.01006 0
M  V30 2933 N 273.449 -1.08991 1.13837 0
M  V30 2934 C 274.381 -2.15606 0.777612 0
M  V30 2935 C 275.394 -1.61533 -0.202739 0
M  V30 2936 O 276.583 -1.78491 0.0181055 0
M  V30 2937 C 273.683 -3.3864 0.132623 0
M  V30 2938 C 272.856 -4.22115 1.1462 0
M  V30 2939 C 271.915 -5.23564 0.526074 0
M  V30 2940 O 270.941 -5.56678 1.18735 0
M  V30 2941 N 272.143 -5.76266 -0.699866 0
M  V30 2942 H 274.908 -2.47159 1.69506 0
M  V30 2943 H 272.469 -1.24747 1.03198 0
M  V30 2944 H 274.461 -4.03626 -0.29459 0
M  V30 2945 H 273.031 -3.04938 -0.687849 0
M  V30 2946 H 272.251 -3.53199 1.75055 0
M  V30 2947 H 273.539 -4.74709 1.83109 0
M  V30 2948 H 272.937 -5.51585 -1.25581 0
M  V30 2949 H 271.494 -6.42963 -1.06968 0
M  V30 2950 N 274.927 -0.932562 -1.27047 0
M  V30 2951 C 275.857 -0.452902 -2.29066 0
M  V30 2952 C 276.838 0.489338 -1.62909 0
M  V30 2953 O 278.023 0.393046 -1.90181 0
M  V30 2954 C 275.153 0.290698 -3.46081 0
M  V30 2955 C 274.107 -0.564168 -4.24265 0
M  V30 2956 C 273.433 0.308886 -5.33807 0
M  V30 2957 C 274.733 -1.83112 -4.89149 0
M  V30 2958 H 276.427 -1.30552 -2.69437 0
M  V30 2959 H 273.973 -0.629201 -1.29526 0
M  V30 2960 H 275.926 0.637233 -4.16554 0
M  V30 2961 H 274.65 1.17738 -3.0464 0
M  V30 2962 H 273.309 -0.893477 -3.55545 0
M  V30 2963 H 272.957 1.19467 -4.88607 0
M  V30 2964 H 272.657 -0.259633 -5.87026 0
M  V30 2965 H 274.181 0.650884 -6.07121 0
M  V30 2966 H 275.595 -1.55236 -5.51883 0
M  V30 2967 H 273.992 -2.34353 -5.52448 0
M  V30 2968 H 275.062 -2.54772 -4.12576 0
M  V30 2969 N 276.405 1.4127 -0.698611 0
M  V30 2970 C 277.645 2.03044 -0.235062 0
M  V30 2971 C 278.009 1.54146 1.14468 0
M  V30 2972 O 279.21 2.07867 1.70425 0
M  V30 2973 C 277.481 3.56192 -0.293651 0
M  V30 2974 S 279.04 4.38696 0.0954053 0
M  V30 2975 H 275.858 0.704697 -0.0944648 0
M  V30 2976 H 278.46 1.72656 -0.917064 0
M  V30 2977 H 277.164 3.89274 -1.29977 0
M  V30 2978 H 276.695 3.91285 0.407397 0
M  V30 2979 H 278.71 4.78257 1.3223 0
M  V30 2980 N 277.883 0.443576 1.51229 0
M  V30 2981 C 279.129 -0.120975 2.02439 0
M  V30 2982 C 279.462 -1.41815 1.32674 0
M  V30 2983 O 278.737 -1.89373 0.443622 0
M  V30 2984 C 279.02 -0.333291 3.58554 0
M  V30 2985 C 278.873 0.982968 4.38928 0
M  V30 2986 C 280.192 -1.10028 4.26124 0
M  V30 2987 H 277.311 -0.0424923 0.735774 0
M  V30 2988 H 279.953 0.583794 1.80809 0
M  V30 2989 H 278.103 -0.933614 3.77115 0
M  V30 2990 H 279.775 1.61775 4.32003 0
M  V30 2991 H 278.018 1.58611 4.03763 0
M  V30 2992 H 278.689 0.788379 5.46341 0
M  V30 2993 H 281.165 -0.591711 4.11871 0
M  V30 2994 H 280.041 -1.21761 5.35225 0
M  V30 2995 H 280.302 -2.12996 3.87408 0
M  V30 2996 N 279.361 -1.56624 0.175154 0
M  V30 2997 C 280.609 -1.96609 -0.467885 0
M  V30 2998 C 280.93 -1.06238 -1.63519 0
M  V30 2999 O 280.2 -0.129523 -1.95471 0
M  V30 3000 H 278.78 -0.726008 -0.175845 0
M  V30 3001 H 281.442 -1.93195 0.257234 0
M  V30 3002 H 280.538 -3.00989 -0.825342 0
M  V30 3003 N 280.839 0.0985539 -1.57292 0
M  V30 3004 C 281.787 1.1387 -2.02821 0
M  V30 3005 C 282.781 1.41676 -0.928666 0
M  V30 3006 O 283.987 1.41398 -1.11385 0
M  V30 3007 H 280.362 0.384419 -0.646317 0
M  V30 3008 H 282.333 0.728347 -2.89375 0
M  V30 3009 C 281.082 2.45166 -2.46554 0
M  V30 3010 H 280.405 2.24613 -3.3074 0
M  V30 3011 H 281.845 3.16456 -2.8219 0
M  V30 3012 C 280.304 3.09216 -1.33742 0
M  V30 3013 O 280.834 3.96163 -0.66464 0
M  V30 3014 N 279.04 2.69413 -1.08928 0
M  V30 3015 H 278.587 1.98801 -1.63817 0
M  V30 3016 H 278.545 3.12594 -0.336458 0
M  V30 3017 N 282.317 1.53212 0.369288 0
M  V30 3018 C 283.728 1.60943 0.946276 0
M  V30 3019 C 284.079 0.47452 1.90375 0
M  V30 3020 O 283.204 -0.399597 2.12679 0
M  V30 3021 C 283.799 2.91715 1.72302 0
M  V30 3022 C 282.358 3.01792 2.24941 0
M  V30 3023 C 281.505 2.56211 1.06072 0
M  V30 3024 H 284.456 1.58007 0.148198 0
M  V30 3025 H 284.477 2.79309 2.58393 0
M  V30 3026 H 283.989 3.74295 1.0259 0
M  V30 3027 H 282.09 2.23791 2.97906 0
M  V30 3028 H 282.203 4.06803 2.53077 0
M  V30 3029 H 280.567 2.10998 1.4266 0
M  V30 3030 H 281.35 3.41206 0.378639 0
M  V30 3031 N 283.795 -0.628877 1.44509 0
M  V30 3032 C 285.211 -0.947305 1.28446 0
M  V30 3033 C 285.411 -2.00275 0.221872 0
M  V30 3034 O 284.467 -2.49447 -0.391471 0
M  V30 3035 C 285.78 -1.40843 2.65676 0
M  V30 3036 C 287.328 -1.52379 2.73404 0
M  V30 3037 C 287.803 -2.01875 4.11109 0
M  V30 3038 N 289.294 -2.09142 4.13296 0
M  V30 3039 C 290.029 -2.48615 5.16699 0
M  V30 3040 N 289.525 -2.87209 6.30462 0
M  V30 3041 N 291.318 -2.48768 5.04054 0
M  V30 3042 H 283.469 0.0690977 2.12288 0
M  V30 3043 H 285.732 -0.0317164 0.947469 0
M  V30 3044 H 285.438 -0.707206 3.44516 0
M  V30 3045 H 285.312 -2.37902 2.92716 0
M  V30 3046 H 287.699 -2.21598 1.9488 0
M  V30 3047 H 287.78 -0.536898 2.50102 0
M  V30 3048 H 287.424 -1.3325 4.90109 0
M  V30 3049 H 287.354 -3.0144 4.31789 0
M  V30 3050 H 289.845 -1.81991 3.31191 0
M  V30 3051 H 290.158 -3.16149 7.05174 0
M  V30 3052 H 288.503 -2.84955 6.33897 0
M  V30 3053 H 291.694 -2.18009 4.14234 0
M  V30 3054 H 291.867 -2.79207 5.84763 0
M  V30 3055 N 285.273 -1.31445 -0.869486 0
M  V30 3056 C 286.22 -1.19135 -1.97675 0
M  V30 3057 C 287.19 -0.0770266 -1.65921 0
M  V30 3058 O 288.375 -0.249972 -1.89155 0
M  V30 3059 C 285.515 -0.905149 -3.33018 0
M  V30 3060 C 284.628 -2.10285 -3.77365 0
M  V30 3061 C 283.763 -1.75339 -5.01427 0
M  V30 3062 C 282.802 -2.91515 -5.38224 0
M  V30 3063 N 281.939 -2.56762 -6.53466 0
M  V30 3064 H 286.779 -2.13853 -2.07535 0
M  V30 3065 H 284.316 -1.06379 -1.01597 0
M  V30 3066 H 286.274 -0.719765 -4.10944 0
M  V30 3067 H 284.904 0.00519624 -3.228 0
M  V30 3068 H 283.956 -2.39899 -2.95216 0
M  V30 3069 H 285.268 -2.97237 -4.00564 0
M  V30 3070 H 284.422 -1.53266 -5.87022 0
M  V30 3071 H 283.161 -0.855801 -4.80133 0
M  V30 3072 H 282.166 -3.14237 -4.51149 0
M  V30 3073 H 283.391 -3.81985 -5.61484 0
M  V30 3074 H 281.337 -1.69526 -6.33717 0
M  V30 3075 H 281.254 -3.37243 -6.76612 0
M  V30 3076 H 282.522 -2.38083 -7.42251 0
M  V30 3077 N 286.751 1.08385 -1.14413 0
M  V30 3078 C 287.979 1.84517 -0.936001 0
M  V30 3079 C 288.394 1.81626 0.515503 0
M  V30 3080 O 287.751 1.22008 1.35721 0
M  V30 3081 C 287.802 3.32049 -1.42918 0
M  V30 3082 O 287.523 3.34951 -2.82381 0
M  V30 3083 C 289.024 4.24986 -1.26103 0
M  V30 3084 H 286.244 0.582491 -0.333084 0
M  V30 3085 H 288.788 1.36885 -1.5193 0
M  V30 3086 H 286.943 3.7707 -0.888641 0
M  V30 3087 H 287.357 4.27048 -3.04517 0
M  V30 3088 H 288.831 5.26615 -1.6547 0
M  V30 3089 H 289.308 4.38726 -0.20392 0
M  V30 3090 H 289.914 3.85791 -1.79012 0
M  V30 3091 N 288.23 0.939286 1.26551 0
M  V30 3092 C 289.177 0.446088 2.26448 0
M  V30 3093 C 290.147 -0.493234 1.58608 0
M  V30 3094 O 291.332 -0.409857 1.86346 0
M  V30 3095 C 288.472 -0.284375 3.43926 0
M  V30 3096 C 287.585 0.690399 4.26448 0
M  V30 3097 C 286.72 -0.0610712 5.31165 0
M  V30 3098 C 285.759 0.905649 6.05363 0
M  V30 3099 N 284.896 0.186055 7.01853 0
M  V30 3100 H 289.736 1.30291 2.68008 0
M  V30 3101 H 287.273 0.65371 1.31776 0
M  V30 3102 H 289.231 -0.724313 4.10864 0
M  V30 3103 H 287.861 -1.10535 3.03285 0
M  V30 3104 H 286.913 1.24885 3.59316 0
M  V30 3105 H 288.225 1.42873 4.779 0
M  V30 3106 H 287.379 -0.56038 6.04106 0
M  V30 3107 H 286.118 -0.832297 4.80546 0
M  V30 3108 H 285.123 1.4161 5.3125 0
M  V30 3109 H 286.348 1.67685 6.58072 0
M  V30 3110 H 284.294 -0.566714 6.53548 0
M  V30 3111 H 284.211 0.863752 7.51049 0
M  V30 3112 H 285.479 -0.292221 7.78952 0
M  V30 3113 N 289.708 -1.40897 0.706093 0
M  V30 3114 C 290.933 -2.05895 0.249435 0
M  V30 3115 C 291.358 -1.52823 -1.09666 0
M  V30 3116 O 290.716 -0.659589 -1.68876 0
M  V30 3117 C 290.764 -3.59872 0.22904 0
M  V30 3118 O 289.868 -4.04708 -0.792784 0
M  V30 3119 H 289.209 -0.653206 0.119241 0
M  V30 3120 H 291.739 -1.80471 0.96391 0
M  V30 3121 H 291.749 -4.07951 0.0634791 0
M  V30 3122 H 290.424 -3.97866 1.21141 0
M  V30 3123 H 289.001 -3.68111 -0.59572 0
M  V30 3124 N 291.186 -0.45159 -1.50991 0
M  V30 3125 C 292.149 0.341117 -2.26647 0
M  V30 3126 C 293.149 0.937422 -1.30649 0
M  V30 3127 O 294.339 0.809644 -1.54241 0
M  V30 3128 C 291.471 1.48398 -3.06905 0
M  V30 3129 H 292.664 -0.322117 -2.98165 0
M  V30 3130 H 290.217 -0.205122 -1.54948 0
M  V30 3131 H 290.952 2.18284 -2.39838 0
M  V30 3132 H 290.737 1.06241 -3.77432 0
M  V30 3133 H 292.227 2.04367 -3.64176 0
M  V30 3134 N 292.664 1.56529 -0.183458 0
M  V30 3135 C 293.911 1.97244 0.458357 0
M  V30 3136 C 294.239 1.06992 1.62428 0
M  V30 3137 O 293.494 0.106542 1.9541 0
M  V30 3138 C 293.793 3.43939 0.971637 0
M  V30 3139 C 293.459 4.5083 -0.0796784 0
M  V30 3140 C 292.121 4.79786 -0.368584 0
M  V30 3141 C 294.473 5.15138 -0.792638 0
M  V30 3142 C 291.801 5.70345 -1.37563 0
M  V30 3143 C 294.153 6.06784 -1.78875 0
M  V30 3144 C 292.817 6.34102 -2.08497 0
M  V30 3145 H 292.087 0.721768 0.167725 0
M  V30 3146 H 294.734 1.89472 -0.277976 0
M  V30 3147 H 293.039 3.48724 1.78602 0
M  V30 3148 H 294.736 3.72791 1.47744 0
M  V30 3149 H 291.326 4.28317 0.155668 0
M  V30 3150 H 295.51 4.92868 -0.582659 0
M  V30 3151 H 290.766 5.89789 -1.61118 0
M  V30 3152 H 294.94 6.55677 -2.3465 0
M  V30 3153 H 292.567 7.04074 -2.86678 0
M  V30 3154 N 294.142 -0.090211 1.57342 0
M  V30 3155 C 295.089 -1.10909 2.02405 0
M  V30 3156 C 296.059 -1.39523 0.901252 0
M  V30 3157 O 297.244 -1.50903 1.1676 0
M  V30 3158 C 294.384 -2.42277 2.45755 0
M  V30 3159 C 293.497 -2.20352 3.71576 0
M  V30 3160 C 292.632 -3.45154 4.03785 0
M  V30 3161 C 291.671 -3.18512 5.22701 0
M  V30 3162 N 290.808 -4.35593 5.50639 0
M  V30 3163 H 295.648 -0.71782 2.89225 0
M  V30 3164 H 293.185 -0.342901 1.43048 0
M  V30 3165 H 295.143 -3.18951 2.68935 0
M  V30 3166 H 293.773 -2.79242 1.61938 0
M  V30 3167 H 292.825 -1.34458 3.55844 0
M  V30 3168 H 294.137 -1.96661 4.58395 0
M  V30 3169 H 293.291 -4.30233 4.27767 0
M  V30 3170 H 292.03 -3.71904 3.15498 0
M  V30 3171 H 291.035 -2.31827 4.98534 0
M  V30 3172 H 292.26 -2.93103 6.12591 0
M  V30 3173 H 290.206 -4.6241 4.6531 0
M  V30 3174 H 290.123 -4.1511 6.31838 0
M  V30 3175 H 291.391 -5.21723 5.7916 0
M  V30 3176 N 295.62 -1.53406 -0.361157 0
M  V30 3177 C 296.868 -1.69467 -1.10115 0
M  V30 3178 C 297.189 -0.451352 -1.89705 0
M  V30 3179 O 296.459 0.534636 -1.88463 0
M  V30 3180 H 295.039 -0.624749 -0.409508 0
M  V30 3181 H 297.701 -1.90609 -0.406699 0
M  V30 3182 H 296.797 -2.55774 -1.78847 0
M  V30 3183 N 297.098 0.621204 -1.44841 0
M  V30 3184 C 298.375 1.38 -1.38619 0
M  V30 3185 C 298.755 2.11041 -0.0498935 0
M  V30 3186 O 298.103 2.06992 0.967816 0
M  V30 3187 C 298.313 2.33817 -2.59096 0
M  V30 3188 C 299.661 2.96844 -3.03593 0
M  V30 3189 O 300.685 2.44141 -2.59371 0
M  V30 3190 O 299.544 3.92476 -3.80296 0
M  V30 3191 H 296.638 0.61811 -0.549426 0
M  V30 3192 H 299.184 0.645429 -1.56947 0
M  V30 3193 H 297.956 1.79012 -3.47952 0
M  V30 3194 H 297.579 3.14676 -2.43032 0
M  V30 3195 N 298.576 1.31904 0.862503 0
M  V30 3196 C 299.801 1.25135 1.65397 0
M  V30 3197 C 300.226 -0.179 1.87246 0
M  V30 3198 O 299.584 -1.1277 1.4196 0
M  V30 3199 C 299.632 2.00832 2.99498 0
M  V30 3200 O 298.736 1.35075 3.89652 0
M  V30 3201 H 298.077 0.431655 0.504549 0
M  V30 3202 H 300.607 1.74094 1.07483 0
M  V30 3203 H 300.617 2.10709 3.49379 0
M  V30 3204 H 299.292 3.04847 2.82916 0
M  V30 3205 H 297.869 1.33696 3.48109 0
M  V30 3206 N 300.054 -1.07777 1.14986 0
M  V30 3207 C 301.302 -1.79934 0.920235 0
M  V30 3208 C 301.623 -1.86955 -0.554336 0
M  V30 3209 O 300.893 -1.36731 -1.40291 0
M  V30 3210 H 299.473 -0.666424 0.337473 0
M  V30 3211 H 302.135 -1.3027 1.44968 0
M  V30 3212 H 301.231 -2.82539 1.32583 0
M  V30 3213 N 301.532 -0.945985 -1.26051 0
M  V30 3214 C 302.78 -0.594941 -1.93145 0
M  V30 3215 C 303.101 0.86953 -1.7454 0
M  V30 3216 O 302.371 1.61838 -1.10387 0
M  V30 3217 H 300.951 -0.217044 -0.714773 0
M  V30 3218 H 303.613 -1.20235 -1.53393 0
M  V30 3219 H 302.709 -0.816835 -3.01221 0
M  V30 3220 N 303.011 1.40521 -0.713556 0
M  V30 3221 C 304.422 1.83853 -0.324807 0
M  V30 3222 C 304.773 1.59667 1.14021 0
M  V30 3223 O 303.898 1.07649 1.87725 0
M  V30 3224 C 304.493 3.33751 -0.582746 0
M  V30 3225 C 303.052 3.75584 -0.247727 0
M  V30 3226 C 302.199 2.63753 -0.856121 0
M  V30 3227 H 305.15 1.29817 -0.91286 0
M  V30 3228 H 305.171 3.80194 0.152682 0
M  V30 3229 H 304.683 3.51322 -1.64908 0
M  V30 3230 H 302.784 3.63608 0.813624 0
M  V30 3231 H 302.897 4.7373 -0.715307 0
M  V30 3232 H 301.261 2.53108 -0.28432 0
M  V30 3233 H 302.044 2.84137 -1.92668 0
M  V30 3234 N 304.489 0.459591 1.5075 0
M  V30 3235 C 305.419 -0.330644 2.31147 0
M  V30 3236 C 306.4 -1.00087 1.37538 0
M  V30 3237 O 307.585 -1.00025 1.66459 0
M  V30 3238 C 304.715 -1.41958 3.16962 0
M  V30 3239 C 303.669 -0.871608 4.19031 0
M  V30 3240 C 302.995 -2.05797 4.9351 0
M  V30 3241 C 304.295 0.109251 5.22186 0
M  V30 3242 H 305.989 0.340336 2.97459 0
M  V30 3243 H 303.535 0.165119 1.4305 0
M  V30 3244 H 305.488 -1.9798 3.71997 0
M  V30 3245 H 304.212 -2.11917 2.48513 0
M  V30 3246 H 302.871 -0.333442 3.6508 0
M  V30 3247 H 302.519 -2.74427 4.21544 0
M  V30 3248 H 302.219 -1.6976 5.62544 0
M  V30 3249 H 303.743 -2.62331 5.51375 0
M  V30 3250 H 305.157 -0.361405 5.7216 0
M  V30 3251 H 303.554 0.383316 5.98875 0
M  V30 3252 H 304.624 1.03887 4.73641 0
M  V30 3253 N 305.967 -1.56429 0.191757 0
M  V30 3254 C 306.897 -2.21937 -0.725696 0
M  V30 3255 C 307.878 -1.1814 -1.2238 0
M  V30 3256 O 309.063 -1.46636 -1.27325 0
M  V30 3257 C 306.193 -2.87611 -1.94672 0
M  V30 3258 C 305.147 -3.97623 -1.58366 0
M  V30 3259 C 304.473 -4.50446 -2.88102 0
M  V30 3260 C 305.773 -5.16197 -0.796133 0
M  V30 3261 H 307.467 -2.98861 -0.179606 0
M  V30 3262 H 305.013 -1.43749 -0.0849464 0
M  V30 3263 H 306.966 -3.3212 -2.59373 0
M  V30 3264 H 305.69 -2.08087 -2.51728 0
M  V30 3265 H 304.349 -3.53801 -0.960247 0
M  V30 3266 H 303.997 -3.67688 -3.43241 0
M  V30 3267 H 303.697 -5.24675 -2.64556 0
M  V30 3268 H 305.221 -4.97654 -3.53798 0
M  V30 3269 H 306.635 -5.57271 -1.34618 0
M  V30 3270 H 305.032 -5.96471 -0.658928 0
M  V30 3271 H 306.102 -4.84473 0.203478 0
M  V30 3272 N 307.445 0.0818655 -1.57387 0
M  V30 3273 C 308.685 0.788375 -1.88584 0
M  V30 3274 C 309.049 1.75248 -0.784351 0
M  V30 3275 O 310.25 2.50334 -0.979105 0
M  V30 3276 C 308.521 1.48654 -3.25018 0
M  V30 3277 S 310.08 2.22951 -3.7794 0
M  V30 3278 H 306.898 0.262383 -0.660815 0
M  V30 3279 H 309.5 0.0448995 -1.95448 0
M  V30 3280 H 308.204 0.770919 -4.03094 0
M  V30 3281 H 307.735 2.26965 -3.21326 0
M  V30 3282 H 309.75 3.49309 -3.52417 0
M  V30 3283 N 308.923 1.53595 0.353017 0
M  V30 3284 C 309.886 1.80232 1.41594 0
M  V30 3285 C 310.886 0.673081 1.46035 0
M  V30 3286 O 312.076 0.941335 1.46576 0
M  V30 3287 C 309.208 1.93578 2.80607 0
M  V30 3288 H 310.401 2.75174 1.19244 0
M  V30 3289 H 307.954 1.44864 0.586872 0
M  V30 3290 H 308.689 1.00746 3.08254 0
M  V30 3291 H 308.474 2.75724 2.78781 0
M  V30 3292 H 309.964 2.15735 3.57558 0
M  V30 3293 N 310.401 -0.613514 1.45168 0
M  V30 3294 C 311.649 -1.36997 1.48581 0
M  V30 3295 C 311.97 -1.94589 0.126545 0
M  V30 3296 O 311.24 -1.76816 -0.843372 0
M  V30 3297 H 309.82 -0.508558 0.547154 0
M  V30 3298 H 312.482 -0.720853 1.81079 0
M  V30 3299 H 311.578 -2.1924 2.22127 0
M  V30 3300 N 311.879 -1.3236 -0.855495 0
M  V30 3301 C 313.125 -1.23054 -1.612 0
M  V30 3302 C 313.458 0.207404 -1.93089 0
M  V30 3303 O 312.733 1.14432 -1.57275 0
M  V30 3304 C 313.016 -2.08937 -2.93287 0
M  V30 3305 C 312.869 -3.61105 -2.68185 0
M  V30 3306 C 314.188 -1.94986 -3.94549 0
M  V30 3307 H 311.307 -0.448364 -0.584926 0
M  V30 3308 H 313.949 -1.62297 -0.987917 0
M  V30 3309 H 312.099 -1.75599 -3.46551 0
M  V30 3310 H 313.771 -4.04652 -2.21483 0
M  V30 3311 H 312.014 -3.83813 -2.02164 0
M  V30 3312 H 312.685 -4.16522 -3.62234 0
M  V30 3313 H 315.161 -2.24189 -3.5054 0
M  V30 3314 H 314.037 -2.57356 -4.84829 0
M  V30 3315 H 314.298 -0.917263 -4.3248 0
M  V30 3316 N 313.357 1.07166 -1.15556 0
M  V30 3317 C 314.32 2.12589 -0.856644 0
M  V30 3318 C 315.32 1.6015 0.14444 0
M  V30 3319 O 316.51 1.7399 -0.0854163 0
M  V30 3320 C 313.642 3.39753 -0.279405 0
M  V30 3321 H 314.835 2.40539 -1.79112 0
M  V30 3322 H 312.388 1.23086 -0.963298 0
M  V30 3323 H 313.123 3.17447 0.663174 0
M  V30 3324 H 312.908 3.79117 -1.00063 0
M  V30 3325 H 314.398 4.17507 -0.0879113 0
M  V30 3326 N 314.835 0.952656 1.25548 0
M  V30 3327 C 315.767 0.428609 2.25157 0
M  V30 3328 C 316.78 -0.454428 1.56329 0
M  V30 3329 O 317.969 -0.263023 1.76552 0
M  V30 3330 C 315.069 -0.401972 3.36508 0
M  V30 3331 C 314.242 0.467601 4.34893 0
M  V30 3332 C 313.301 -0.30445 5.25319 0
M  V30 3333 O 312.327 0.296473 5.68427 0
M  V30 3334 N 313.529 -1.59805 5.5807 0
M  V30 3335 H 316.294 1.28497 2.70756 0
M  V30 3336 H 313.855 0.822798 1.39433 0
M  V30 3337 H 315.847 -0.926134 3.9396 0
M  V30 3338 H 314.417 -1.15918 2.90313 0
M  V30 3339 H 313.637 1.17288 3.76347 0
M  V30 3340 H 314.925 1.06119 4.97611 0
M  V30 3341 H 314.323 -2.10823 5.24948 0
M  V30 3342 H 312.88 -2.06822 6.18116 0
M  V30 3343 N 316.313 -1.40141 0.720998 0
M  V30 3344 C 317.561 -2.0039 0.262323 0
M  V30 3345 C 317.882 -1.57469 -1.15015 0
M  V30 3346 O 317.152 -0.816582 -1.78069 0
M  V30 3347 H 315.732 -0.741063 0.093996 0
M  V30 3348 H 318.394 -1.71398 0.927835 0
M  V30 3349 H 317.49 -3.10658 0.299671 0
M  V30 3350 N 317.792 -0.46758 -1.50504 0
M  V30 3351 C 319.041 0.0902868 -2.01498 0
M  V30 3352 C 319.354 1.411 -1.35463 0
M  V30 3353 O 320.56 2.0536 -1.77594 0
M  V30 3354 C 319.016 0.21142 -3.59278 0
M  V30 3355 C 318.624 -1.10065 -4.34269 0
M  V30 3356 C 320.368 0.721433 -4.18325 0
M  V30 3357 C 318.275 -0.943505 -5.83825 0
M  V30 3358 H 317.205 0.037517 -0.753066 0
M  V30 3359 H 319.856 -0.601943 -1.73346 0
M  V30 3360 H 318.238 0.967352 -3.84003 0
M  V30 3361 H 319.412 -1.86726 -4.21272 0
M  V30 3362 H 317.727 -1.5415 -3.86816 0
M  V30 3363 H 320.324 0.85598 -5.27804 0
M  V30 3364 H 320.667 1.71186 -3.79475 0
M  V30 3365 H 321.2 0.0229843 -3.97793 0
M  V30 3366 H 317.939 -1.90719 -6.27141 0
M  V30 3367 H 317.459 -0.217213 -5.99407 0
M  V30 3368 H 319.138 -0.608715 -6.4413 0
M  V30 3369 N 319.27 1.56325 -0.20005 0
M  V30 3370 C 320.516 1.98012 0.438059 0
M  V30 3371 C 320.849 1.08702 1.60927 0
M  V30 3372 O 320.124 0.140064 1.93995 0
M  V30 3373 C 320.407 3.48841 0.893419 0
M  V30 3374 C 320.26 4.48928 -0.279947 0
M  V30 3375 C 321.579 4.03498 1.75719 0
M  V30 3376 H 318.698 0.719918 0.157757 0
M  V30 3377 H 321.34 1.87743 -0.291968 0
M  V30 3378 H 319.49 3.57723 1.51547 0
M  V30 3379 H 321.162 4.52079 -0.91772 0
M  V30 3380 H 319.405 4.23694 -0.930919 0
M  V30 3381 H 320.076 5.5194 0.0812601 0
M  V30 3382 H 322.552 3.97427 1.23253 0
M  V30 3383 H 321.428 5.09393 2.04476 0
M  V30 3384 H 321.689 3.4906 2.71311 0
M  V30 3385 N 320.748 -0.0735177 1.57428 0
M  V30 3386 C 321.973 -0.789787 1.91774 0
M  V30 3387 C 322.398 -1.70413 0.796306 0
M  V30 3388 O 321.756 -1.79555 -0.250961 0
M  V30 3389 C 321.804 -1.5609 3.25067 0
M  V30 3390 O 320.908 -2.67144 3.14178 0
M  V30 3391 H 320.249 -0.215582 0.628029 0
M  V30 3392 H 322.779 -0.0422781 2.04556 0
M  V30 3393 H 322.789 -1.94052 3.58898 0
M  V30 3394 H 321.464 -0.890015 4.06265 0
M  V30 3395 H 320.041 -2.32052 2.91901 0
M  V30 3396 N 322.226 -1.5378 -0.344866 0
M  V30 3397 C 323.456 -1.74646 -1.10374 0
M  V30 3398 C 323.864 -0.48491 -1.8288 0
M  V30 3399 O 323.207 0.553062 -1.75177 0
M  V30 3400 C 323.269 -2.87145 -2.16306 0
M  V30 3401 C 322.933 -4.26795 -1.63386 0
M  V30 3402 C 323.93 -5.08412 -1.08688 0
M  V30 3403 C 321.615 -4.73276 -1.68272 0
M  V30 3404 C 323.609 -6.34609 -0.595792 0
M  V30 3405 C 321.296 -5.99446 -1.18776 0
M  V30 3406 C 322.294 -6.79946 -0.645215 0
M  V30 3407 O 321.982 -8.03745 -0.157626 0
M  V30 3408 H 321.714 -0.587112 -0.335075 0
M  V30 3409 H 324.268 -2.01403 -0.403252 0
M  V30 3410 H 322.498 -2.55909 -2.89909 0
M  V30 3411 H 324.187 -2.95992 -2.77747 0
M  V30 3412 H 324.953 -4.73666 -1.04236 0
M  V30 3413 H 320.832 -4.10677 -2.09442 0
M  V30 3414 H 324.376 -6.97389 -0.171654 0
M  V30 3415 H 320.273 -6.33687 -1.22928 0
M  V30 3416 H 321.041 -8.18038 -0.275037 0
M  V30 3417 N 323.704 0.605807 -1.45491 0
M  V30 3418 C 324.952 1.36207 -1.49305 0
M  V30 3419 C 325.273 1.94519 -0.136863 0
M  V30 3420 O 324.543 1.77261 0.833983 0
M  V30 3421 H 323.123 0.50565 -0.549843 0
M  V30 3422 H 325.785 0.711239 -1.81459 0
M  V30 3423 H 324.881 2.18058 -2.23287 0
M  V30 3424 N 325.182 1.32811 0.848464 0
M  V30 3425 C 326.598 1.11937 1.13764 0
M  V30 3426 C 326.798 -0.0960789 2.01271 0
M  V30 3427 O 325.854 -0.779165 2.40178 0
M  V30 3428 C 327.167 2.402 1.809 0
M  V30 3429 C 328.715 2.46016 1.93508 0
M  V30 3430 C 329.19 3.74215 2.64059 0
M  V30 3431 N 330.681 3.75232 2.71579 0
M  V30 3432 C 331.416 4.71134 3.26833 0
M  V30 3433 N 330.912 5.77406 3.8285 0
M  V30 3434 N 332.705 4.58623 3.24995 0
M  V30 3435 H 324.856 2.1073 0.265855 0
M  V30 3436 H 327.119 0.930671 0.180431 0
M  V30 3437 H 326.825 3.29093 1.24058 0
M  V30 3438 H 326.699 2.51628 2.81004 0
M  V30 3439 H 329.086 1.57577 2.49506 0
M  V30 3440 H 329.167 2.38536 0.923811 0
M  V30 3441 H 328.811 4.63031 2.08722 0
M  V30 3442 H 328.741 3.78968 3.65637 0
M  V30 3443 H 331.232 2.98423 2.31845 0
M  V30 3444 H 331.545 6.46632 4.23187 0
M  V30 3445 H 329.89 5.81152 3.81165 0
M  V30 3446 H 333.081 3.74762 2.80484 0
M  V30 3447 H 333.254 5.33535 3.67756 0
M  V30 3448 N 326.66 -1.06551 1.16123 0
M  V30 3449 C 327.885 -1.83544 0.965735 0
M  V30 3450 C 328.31 -1.81843 -0.481102 0
M  V30 3451 O 327.668 -1.21732 -1.34354 0
M  V30 3452 C 327.716 -3.28169 1.49457 0
M  V30 3453 O 326.82 -4.0643 0.699157 0
M  V30 3454 H 326.161 -0.568026 0.343864 0
M  V30 3455 H 328.691 -1.34362 1.54299 0
M  V30 3456 H 328.701 -3.78992 1.51092 0
M  V30 3457 H 327.376 -3.28722 2.54784 0
M  V30 3458 H 325.953 -3.65216 0.7531 0
M  V30 3459 N 328.138 -0.959301 -1.25041 0
M  V30 3460 C 329.415 -0.533805 -1.88175 0
M  V30 3461 C 329.795 0.988994 -1.865 0
M  V30 3462 O 329.143 1.85677 -1.33177 0
M  V30 3463 C 329.353 -1.11575 -3.30684 0
M  V30 3464 C 330.701 -1.19548 -4.07423 0
M  V30 3465 O 331.725 -1.06765 -3.39823 0
M  V30 3466 O 330.584 -1.39656 -5.28354 0
M  V30 3467 H 327.678 -0.176772 -0.807887 0
M  V30 3468 H 330.224 -1.05303 -1.33076 0
M  V30 3469 H 328.996 -2.15884 -3.26358 0
M  V30 3470 H 328.619 -0.580059 -3.93346 0
M  V30 3471 N 329.616 1.39756 -0.72842 0
M  V30 3472 C 330.579 2.29012 -0.0927297 0
M  V30 3473 C 331.579 1.45992 0.674025 0
M  V30 3474 O 332.769 1.66749 0.50402 0
M  V30 3475 C 329.901 3.29396 0.878137 0
M  V30 3476 H 331.094 2.86729 -0.879011 0
M  V30 3477 H 328.647 1.48293 -0.493847 0
M  V30 3478 H 329.382 2.76722 1.69101 0
M  V30 3479 H 329.167 3.907 0.331051 0
M  V30 3480 H 330.657 3.96199 1.3197 0
M  V30 3481 N 331.094 0.475555 1.50254 0
M  V30 3482 C 332.041 -0.316293 2.28622 0
M  V30 3483 C 333.011 -0.983227 1.33873 0
M  V30 3484 O 334.196 -0.994805 1.62814 0
M  V30 3485 C 331.336 -1.38975 3.1588 0
M  V30 3486 C 330.449 -0.737146 4.25664 0
M  V30 3487 C 329.584 -1.78887 5.00173 0
M  V30 3488 C 328.623 -1.11676 6.01826 0
M  V30 3489 N 327.76 -2.11154 6.69596 0
M  V30 3490 H 332.6 0.358297 2.95838 0
M  V30 3491 H 330.137 0.188541 1.45887 0
M  V30 3492 H 332.095 -2.02383 3.64825 0
M  V30 3493 H 330.725 -2.03344 2.50701 0
M  V30 3494 H 329.777 0.0096065 3.80399 0
M  V30 3495 H 331.089 -0.206816 4.98371 0
M  V30 3496 H 330.243 -2.49865 5.52859 0
M  V30 3497 H 328.982 -2.35302 4.27182 0
M  V30 3498 H 327.987 -0.392633 5.48396 0
M  V30 3499 H 329.212 -0.55945 6.76792 0
M  V30 3500 H 327.158 -2.66577 5.99394 0
M  V30 3501 H 327.075 -1.63118 7.38193 0
M  V30 3502 H 328.343 -2.81497 7.26897 0
M  V30 3503 N 332.573 -1.56217 0.208337 0
M  V30 3504 C 333.984 -1.84243 -0.301904 0
M  V30 3505 C 334.335 -1.12939 -1.60434 0
M  V30 3506 O 333.46 -0.39461 -2.12772 0
M  V30 3507 C 334.055 -3.34231 -0.554543 0
M  V30 3508 C 332.614 -3.62621 -1.00912 0
M  V30 3509 C 331.761 -2.77224 -0.064933 0
M  V30 3510 H 334.712 -1.52712 0.431833 0
M  V30 3511 H 334.733 -3.5372 -1.40223 0
M  V30 3512 H 334.245 -3.86099 0.393561 0
M  V30 3513 H 332.346 -3.16197 -1.97104 0
M  V30 3514 H 332.459 -4.7071 -0.892674 0
M  V30 3515 H 330.823 -2.48256 -0.56929 0
M  V30 3516 H 331.606 -3.31887 0.877851 0
M  V30 3517 N 334.051 0.0651679 -1.57465 0
M  V30 3518 C 335.462 0.616213 -1.76238 0
M  V30 3519 C 335.813 1.7756 -0.834689 0
M  V30 3520 O 334.938 2.1639 -0.0204156 0
M  V30 3521 C 335.533 1.12462 -3.1959 0
M  V30 3522 C 334.092 1.62147 -3.39684 0
M  V30 3523 C 333.239 0.543739 -2.71917 0
M  V30 3524 H 336.19 -0.161022 -1.57881 0
M  V30 3525 H 336.211 1.99324 -3.24114 0
M  V30 3526 H 335.723 0.280592 -3.87084 0
M  V30 3527 H 333.824 2.48854 -2.77313 0
M  V30 3528 H 333.937 1.69385 -4.48158 0
M  V30 3529 H 332.301 0.990352 -2.34657 0
M  V30 3530 H 333.084 -0.290216 -3.42071 0
M  V30 3531 N 335.529 1.53961 0.336706 0
M  V30 3532 C 336.492 1.81724 1.39675 0
M  V30 3533 C 337.492 0.688532 1.45313 0
M  V30 3534 O 338.682 0.956829 1.45569 0
M  V30 3535 C 335.814 1.96543 2.78538 0
M  V30 3536 H 337.007 2.76424 1.16318 0
M  V30 3537 H 334.56 1.45478 0.571474 0
M  V30 3538 H 335.295 1.0401 3.07168 0
M  V30 3539 H 335.08 2.78665 2.75841 0
M  V30 3540 H 336.57 2.19516 3.5525 0
M  V30 3541 N 337.007 -0.598083 1.45811 0
M  V30 3542 C 338.253 -1.35882 1.50545 0
M  V30 3543 C 338.586 -1.93616 0.150445 0
M  V30 3544 O 337.861 -1.75604 -0.83628 0
M  V30 3545 C 338.144 -2.49966 2.59208 0
M  V30 3546 C 337.997 -1.97367 4.04186 0
M  V30 3547 C 339.316 -3.52068 2.64076 0
M  V30 3548 H 336.435 -0.492717 0.548087 0
M  V30 3549 H 339.077 -0.673319 1.77669 0
M  V30 3550 H 337.227 -3.08443 2.3621 0
M  V30 3551 H 338.899 -1.43466 4.38423 0
M  V30 3552 H 337.142 -1.283 4.14393 0
M  V30 3553 H 337.813 -2.79649 4.75921 0
M  V30 3554 H 340.289 -3.03448 2.84708 0
M  V30 3555 H 339.165 -4.2937 3.41954 0
M  V30 3556 H 339.426 -4.08304 1.69531 0
M  V30 3557 N 338.485 -1.33259 -0.841409 0
M  V30 3558 C 339.732 -1.24572 -1.5965 0
M  V30 3559 C 340.06 0.189137 -1.93578 0
M  V30 3560 O 339.315 1.14566 -1.5866 0
M  V30 3561 C 339.614 -2.06381 -2.9179 0
M  V30 3562 C 339.28 -3.556 -2.77235 0
M  V30 3563 C 337.942 -3.96282 -2.72973 0
M  V30 3564 C 340.294 -4.50433 -2.62221 0
M  V30 3565 C 337.622 -5.30017 -2.51592 0
M  V30 3566 C 339.974 -5.84327 -2.42374 0
M  V30 3567 C 338.638 -6.24194 -2.36512 0
M  V30 3568 H 337.908 -0.455842 -0.5842 0
M  V30 3569 H 340.555 -1.6482 -0.975016 0
M  V30 3570 H 338.86 -1.58903 -3.5813 0
M  V30 3571 H 340.557 -1.97019 -3.49263 0
M  V30 3572 H 337.147 -3.23298 -2.81384 0
M  V30 3573 H 341.331 -4.19914 -2.64549 0
M  V30 3574 H 336.587 -5.59947 -2.45499 0
M  V30 3575 H 340.761 -6.57414 -2.29739 0
M  V30 3576 H 338.388 -7.27759 -2.19706 0
M  V30 3577 N 339.963 1.05934 -1.16686 0
M  V30 3578 C 341.191 1.8249 -0.974929 0
M  V30 3579 C 341.606 1.82679 0.476861 0
M  V30 3580 O 340.963 1.2486 1.33103 0
M  V30 3581 C 341.014 3.28943 -1.49929 0
M  V30 3582 O 340.735 3.28886 -2.89423 0
M  V30 3583 C 342.236 4.22215 -1.35089 0
M  V30 3584 H 339.456 0.575295 -0.345365 0
M  V30 3585 H 342 1.33631 -1.548 0
M  V30 3586 H 340.155 3.751 -0.968423 0
M  V30 3587 H 340.569 4.20493 -3.13506 0
M  V30 3588 H 342.043 5.22987 -1.76603 0
M  V30 3589 H 342.52 4.38195 -0.296935 0
M  V30 3590 H 343.126 3.81907 -1.87155 0
M  V30 3591 N 341.441 0.965919 1.2453 0
M  V30 3592 C 342.857 0.67216 1.44756 0
M  V30 3593 C 343.057 -0.766609 1.86347 0
M  V30 3594 O 342.113 -1.5407 2.00047 0
M  V30 3595 C 343.426 1.65473 2.51076 0
M  V30 3596 C 344.974 1.66716 2.64905 0
M  V30 3597 C 345.449 2.63766 3.74421 0
M  V30 3598 N 346.94 2.62198 3.81846 0
M  V30 3599 C 347.675 3.33966 4.66106 0
M  V30 3600 N 347.171 4.15245 5.54566 0
M  V30 3601 N 348.964 3.22799 4.60171 0
M  V30 3602 H 341.115 1.89553 0.958293 0
M  V30 3603 H 343.378 0.815979 0.482579 0
M  V30 3604 H 343.084 2.68296 2.27399 0
M  V30 3605 H 342.958 1.4261 3.49202 0
M  V30 3606 H 345.345 0.646057 2.87941 0
M  V30 3607 H 345.426 1.93642 1.67142 0
M  V30 3608 H 345.07 3.6601 3.52135 0
M  V30 3609 H 345 2.34121 4.71694 0
M  V30 3610 H 347.491 2.032 3.18619 0
M  V30 3611 H 347.804 4.66898 6.15814 0
M  V30 3612 H 346.149 4.1934 5.54237 0
M  V30 3613 H 349.34 2.58764 3.90075 0
M  V30 3614 H 349.513 3.78994 5.25612 0
M  V30 3615 N 342.919 -1.39368 0.735821 0
M  V30 3616 C 344.168 -1.99733 0.281004 0
M  V30 3617 C 344.481 -1.59055 -1.13846 0
M  V30 3618 O 345.687 -2.12262 -1.69284 0
M  V30 3619 C 344.143 -3.57057 0.451462 0
M  V30 3620 C 343.751 -4.06697 1.87886 0
M  V30 3621 C 345.495 -4.2446 0.0584616 0
M  V30 3622 C 343.402 -5.56598 1.99883 0
M  V30 3623 H 342.332 -0.747163 0.101311 0
M  V30 3624 H 344.983 -1.59357 0.909819 0
M  V30 3625 H 343.365 -3.95234 -0.246263 0
M  V30 3626 H 344.539 -3.79853 2.60861 0
M  V30 3627 H 342.854 -3.5196 2.22515 0
M  V30 3628 H 345.451 -5.34549 0.127099 0
M  V30 3629 H 345.794 -4.04444 -0.986433 0
M  V30 3630 H 346.327 -3.9146 0.707374 0
M  V30 3631 H 343.066 -5.81494 3.02564 0
M  V30 3632 H 342.586 -5.85242 1.31346 0
M  V30 3633 H 344.265 -6.22022 1.78039 0
M  V30 3634 N 344.397 -0.483516 -1.5 0
M  V30 3635 C 345.622 0.0667119 -2.07293 0
M  V30 3636 C 346.047 1.3164 -1.3436 0
M  V30 3637 O 345.405 1.76945 -0.394987 0
M  V30 3638 C 345.453 0.321126 -3.59167 0
M  V30 3639 O 344.557 1.39927 -3.87936 0
M  V30 3640 H 343.898 -0.0184758 -0.663743 0
M  V30 3641 H 346.428 -0.678125 -1.93035 0
M  V30 3642 H 346.438 0.557906 -4.04168 0
M  V30 3643 H 345.113 -0.592007 -4.11665 0
M  V30 3644 H 343.69 1.14882 -3.54763 0
M  V30 3645 N 345.875 1.56104 -0.216619 0
M  V30 3646 C 346.825 2.16703 0.708798 0
M  V30 3647 C 347.809 1.11392 1.16106 0
M  V30 3648 O 349.001 1.37395 1.11587 0
M  V30 3649 C 346.13 2.84666 1.91886 0
M  V30 3650 C 345.216 3.97195 1.48651 0
M  V30 3651 N 345.607 4.99959 0.766434 0
M  V30 3652 C 343.905 4.09193 1.77418 0
M  V30 3653 C 344.606 5.79126 0.546659 0
M  V30 3654 N 343.582 5.32315 1.10188 0
M  V30 3655 H 347.384 2.93516 0.150162 0
M  V30 3656 H 344.898 1.6239 -0.0176768 0
M  V30 3657 H 346.895 3.26486 2.59253 0
M  V30 3658 H 345.555 2.09347 2.48202 0
M  V30 3659 H 346.566 5.16197 0.419634 0
M  V30 3660 H 343.243 3.45021 2.35088 0
M  V30 3661 H 344.633 6.71895 -0.026103 0
M  V30 3662 N 347.353 -0.0568162 1.57498 0
M  V30 3663 C 348.583 -0.764515 1.91934 0
M  V30 3664 C 348.991 -1.70877 0.81227 0
M  V30 3665 O 348.334 -1.82351 -0.222213 0
M  V30 3666 C 348.396 -1.5994 3.21962 0
M  V30 3667 C 348.06 -0.822925 4.4953 0
M  V30 3668 C 349.057 -0.135464 5.19723 0
M  V30 3669 C 346.742 -0.785666 4.96117 0
M  V30 3670 C 348.736 0.578861 6.34766 0
M  V30 3671 C 346.423 -0.0675784 6.11063 0
M  V30 3672 C 347.421 0.613471 6.80239 0
M  V30 3673 O 347.109 1.31996 7.92989 0
M  V30 3674 H 346.841 -0.221647 0.63863 0
M  V30 3675 H 349.395 -0.0268218 2.05382 0
M  V30 3676 H 347.625 -2.38026 3.04763 0
M  V30 3677 H 349.314 -2.18715 3.41934 0
M  V30 3678 H 350.08 -0.155458 4.84751 0
M  V30 3679 H 345.959 -1.30524 4.42136 0
M  V30 3680 H 349.503 1.111 6.88696 0
M  V30 3681 H 345.4 -0.0455636 6.45484 0
M  V30 3682 H 346.168 1.23077 8.09194 0
M  V30 3683 N 348.832 -1.54138 -0.328536 0
M  V30 3684 C 350.248 -1.44736 -0.672574 0
M  V30 3685 C 350.448 -0.616217 -1.91846 0
M  V30 3686 O 349.504 -0.113067 -2.52247 0
M  V30 3687 C 350.817 -2.884 -0.851217 0
M  V30 3688 C 352.365 -2.98271 -0.948877 0
M  V30 3689 C 352.84 -4.43074 -1.15973 0
M  V30 3690 N 354.331 -4.46665 -1.22658 0
M  V30 3691 C 355.066 -5.55857 -1.40751 0
M  V30 3692 N 354.562 -6.75026 -1.5592 0
M  V30 3693 N 356.355 -5.43495 -1.4342 0
M  V30 3694 H 348.506 -2.06661 0.490421 0
M  V30 3695 H 350.769 -0.934812 0.157579 0
M  V30 3696 H 350.475 -3.51699 -0.00704236 0
M  V30 3697 H 350.349 -3.34225 -1.74853 0
M  V30 3698 H 352.736 -2.35102 -1.78356 0
M  V30 3699 H 352.817 -2.55785 -0.0281435 0
M  V30 3700 H 352.461 -5.06827 -0.329915 0
M  V30 3701 H 352.391 -4.83165 -2.09426 0
M  V30 3702 H 354.882 -3.60797 -1.124 0
M  V30 3703 H 355.195 -7.54004 -1.69404 0
M  V30 3704 H 353.54 -6.77944 -1.53027 0
M  V30 3705 H 356.731 -4.49349 -1.31162 0
M  V30 3706 H 356.904 -6.28649 -1.57178 0
M  V30 3707 N 350.31 0.590341 -1.46126 0
M  V30 3708 C 351.721 1.17243 -1.45296 0
M  V30 3709 C 352.072 1.95281 -0.189723 0
M  V30 3710 O 351.197 2.04502 0.707674 0
M  V30 3711 C 351.792 2.13284 -2.6324 0
M  V30 3712 C 350.351 2.66832 -2.65476 0
M  V30 3713 C 349.498 1.42557 -2.3785 0
M  V30 3714 H 352.449 0.378692 -1.54116 0
M  V30 3715 H 352.47 2.96619 -2.38323 0
M  V30 3716 H 351.982 1.56459 -3.55165 0
M  V30 3717 H 350.083 3.27548 -1.77603 0
M  V30 3718 H 350.196 3.10088 -3.65215 0
M  V30 3719 H 348.56 1.72107 -1.87753 0
M  V30 3720 H 349.343 0.875741 -3.31942 0
M  V30 3721 N 351.788 1.33704 0.83433 0
M  V30 3722 C 353.034 1.26612 1.59188 0
M  V30 3723 C 353.389 -0.165439 1.91687 0
M  V30 3724 O 352.682 -1.10873 1.56262 0
M  V30 3725 C 352.876 2.07926 2.90692 0
M  V30 3726 C 352.705 3.58844 2.71038 0
M  V30 3727 C 351.475 4.28148 2.68361 0
M  V30 3728 C 353.673 4.53082 2.43353 0
M  V30 3729 N 351.655 5.64987 2.40132 0
M  V30 3730 C 353.026 5.77843 2.24716 0
M  V30 3731 C 355.081 4.42119 2.28987 0
M  V30 3732 C 353.784 6.92877 1.9317 0
M  V30 3733 C 355.81 5.56973 1.98835 0
M  V30 3734 C 355.172 6.80745 1.81012 0
M  V30 3735 H 351.271 0.518517 0.585375 0
M  V30 3736 H 353.855 1.68294 0.979044 0
M  V30 3737 H 352.026 1.68558 3.49918 0
M  V30 3738 H 353.758 1.92568 3.55949 0
M  V30 3739 H 350.513 3.80469 2.82029 0
M  V30 3740 H 350.937 6.37133 2.28889 0
M  V30 3741 H 355.579 3.47058 2.41477 0
M  V30 3742 H 353.297 7.87931 1.79418 0
M  V30 3743 H 356.883 5.50428 1.88468 0
M  V30 3744 H 355.763 7.68115 1.58017 0
M  V30 3745 N 353.266 -1.05314 1.17247 0
M  V30 3746 C 354.515 -1.77685 0.954521 0
M  V30 3747 C 354.828 -1.88616 -0.518025 0
M  V30 3748 O 356.034 -2.57714 -0.854144 0
M  V30 3749 C 354.49 -3.19402 1.65863 0
M  V30 3750 C 354.098 -3.16605 3.16963 0
M  V30 3751 C 355.842 -3.96237 1.52303 0
M  V30 3752 C 353.749 -4.53103 3.80068 0
M  V30 3753 H 352.679 -0.666 0.353496 0
M  V30 3754 H 355.33 -1.1805 1.40486 0
M  V30 3755 H 353.712 -3.79355 1.13602 0
M  V30 3756 H 354.886 -2.66176 3.76148 0
M  V30 3757 H 353.201 -2.53268 3.30521 0
M  V30 3758 H 355.798 -4.97157 1.96822 0
M  V30 3759 H 356.141 -4.136 0.473401 0
M  V30 3760 H 356.674 -3.42829 2.01775 0
M  V30 3761 H 353.413 -4.40946 4.85023 0
M  V30 3762 H 352.933 -5.03686 3.2567 0
M  V30 3763 H 354.612 -5.22045 3.82202 0
M  V30 3764 N 354.744 -0.972509 -1.24016 0
M  V30 3765 C 355.692 -0.498562 -2.27194 0
M  V30 3766 C 356.686 0.440372 -1.63576 0
M  V30 3767 O 357.892 0.315133 -1.7722 0
M  V30 3768 H 354.267 -0.142775 -0.738322 0
M  V30 3769 H 356.238 -1.38065 -2.64539 0
M  V30 3770 C 354.987 0.191072 -3.47175 0
M  V30 3771 H 354.31 -0.522318 -3.96373 0
M  V30 3772 H 355.75 0.486445 -4.212 0
M  V30 3773 C 354.209 1.41967 -3.05527 0
M  V30 3774 O 354.739 2.51642 -3.13112 0
M  V30 3775 N 352.945 1.28746 -2.60524 0
M  V30 3776 H 352.492 0.395089 -2.54552 0
M  V30 3777 H 352.45 2.11061 -2.33025 0
M  V30 3778 N 356.222 1.38976 -0.743202 0
M  V30 3779 C 357.154 2.29096 -0.0689228 0
M  V30 3780 C 358.167 1.47229 0.694791 0
M  V30 3781 O 359.356 1.70212 0.537597 0
M  V30 3782 C 356.456 3.25988 0.926548 0
M  V30 3783 C 355.629 4.36833 0.222647 0
M  V30 3784 C 354.688 5.13981 1.12739 0
M  V30 3785 O 353.714 5.6601 0.601795 0
M  V30 3786 N 354.916 5.25966 2.45641 0
M  V30 3787 H 357.681 2.87604 -0.842846 0
M  V30 3788 H 355.242 1.50645 -0.593109 0
M  V30 3789 H 357.234 3.74476 1.5346 0
M  V30 3790 H 355.804 2.68453 1.60162 0
M  V30 3791 H 355.024 3.90116 -0.565983 0
M  V30 3792 H 356.312 5.0811 -0.264841 0
M  V30 3793 H 355.71 4.85228 2.9081 0
M  V30 3794 H 354.267 5.77865 3.01522 0
M  V30 3795 N 357.7 0.491464 1.49741 0
M  V30 3796 C 358.949 -0.0582189 2.01616 0
M  V30 3797 C 359.262 -1.38927 1.3769 0
M  V30 3798 O 360.468 -2.02509 1.80838 0
M  V30 3799 C 358.924 -0.154235 3.59569 0
M  V30 3800 C 358.532 1.1696 4.32463 0
M  V30 3801 C 360.276 -0.65479 4.1942 0
M  V30 3802 C 358.183 1.03627 5.8225 0
M  V30 3803 H 357.113 -0.0255317 0.753568 0
M  V30 3804 H 359.764 0.629445 1.72367 0
M  V30 3805 H 358.146 -0.906138 3.85493 0
M  V30 3806 H 359.32 1.93405 4.18248 0
M  V30 3807 H 357.635 1.60285 3.84315 0
M  V30 3808 H 360.232 -0.771903 5.29099 0
M  V30 3809 H 360.575 -1.65127 3.8215 0
M  V30 3810 H 361.108 0.040304 3.9778 0
M  V30 3811 H 357.847 2.00672 6.24028 0
M  V30 3812 H 357.367 0.312546 5.98985 0
M  V30 3813 H 359.046 0.711114 6.4308 0
M  V30 3814 N 359.178 -1.55987 0.224894 0
M  V30 3815 C 360.108 -2.23426 -0.678457 0
M  V30 3816 C 361.089 -1.20709 -1.19847 0
M  V30 3817 O 362.274 -1.49304 -1.24186 0
M  V30 3818 C 359.404 -2.91676 -1.88527 0
M  V30 3819 C 358.358 -4.00893 -1.49896 0
M  V30 3820 C 357.684 -4.56455 -2.78483 0
M  V30 3821 C 358.984 -5.17769 -0.686461 0
M  V30 3822 H 360.678 -2.99175 -0.116173 0
M  V30 3823 H 358.224 -1.43897 -0.054436 0
M  V30 3824 H 360.177 -3.37547 -2.5227 0
M  V30 3825 H 358.901 -2.1338 -2.47258 0
M  V30 3826 H 357.56 -3.55758 -0.884985 0
M  V30 3827 H 357.208 -3.74886 -3.35365 0
M  V30 3828 H 356.908 -5.30169 -2.53368 0
M  V30 3829 H 358.432 -5.05047 -3.43162 0
M  V30 3830 H 359.846 -5.60001 -1.22767 0
M  V30 3831 H 358.243 -5.97735 -0.532259 0
M  V30 3832 H 359.313 -4.83932 0.306196 0
M  V30 3833 N 360.656 0.0484629 -1.57525 0
M  V30 3834 C 361.588 1.08222 -2.02041 0
M  V30 3835 C 362.601 1.33621 -0.930012 0
M  V30 3836 O 363.79 1.3145 -1.20761 0
M  V30 3837 C 360.89 2.42818 -2.36416 0
M  V30 3838 C 360.063 2.37049 -3.67596 0
M  V30 3839 C 359.122 3.53937 -3.89378 0
M  V30 3840 O 358.148 3.34308 -4.60681 0
M  V30 3841 N 359.35 4.75126 -3.3352 0
M  V30 3842 H 362.115 0.702946 -2.9134 0
M  V30 3843 H 359.676 0.236745 -1.6016 0
M  V30 3844 H 361.668 3.197 -2.48141 0
M  V30 3845 H 360.238 2.72661 -1.52888 0
M  V30 3846 H 359.458 1.45395 -3.66407 0
M  V30 3847 H 360.746 2.30318 -4.53686 0
M  V30 3848 H 360.144 4.93976 -2.75688 0
M  V30 3849 H 358.701 5.49439 -3.50656 0
M  V30 3850 N 362.134 1.5431 0.320358 0
M  V30 3851 C 363.097 1.83195 1.3774 0
M  V30 3852 C 364.097 0.703906 1.44575 0
M  V30 3853 O 365.287 0.972214 1.44546 0
M  V30 3854 C 362.419 1.99487 2.76438 0
M  V30 3855 H 363.612 2.77642 1.1338 0
M  V30 3856 H 361.165 1.46076 0.556012 0
M  V30 3857 H 361.9 1.07262 3.06048 0
M  V30 3858 H 361.685 2.81575 2.7287 0
M  V30 3859 H 363.175 2.23271 3.52902 0
M  V30 3860 N 363.613 -0.582584 1.46437 0
M  V30 3861 C 364.561 -1.71272 1.5738 0
M  V30 3862 C 365.555 -1.63524 0.44229 0
M  V30 3863 O 366.761 -1.69016 0.619166 0
M  V30 3864 H 363.136 -0.566273 0.494813 0
M  V30 3865 H 365.107 -1.59174 2.52401 0
M  V30 3866 C 363.856 -3.09658 1.58136 0
M  V30 3867 H 363.179 -3.16291 2.44541 0
M  V30 3868 H 364.619 -3.88494 1.69847 0
M  V30 3869 C 363.078 -3.3547 0.310026 0
M  V30 3870 O 363.608 -3.97199 -0.599683 0
M  V30 3871 N 361.814 -2.89925 0.197901 0
M  V30 3872 H 361.361 -2.39873 0.93909 0
M  V30 3873 H 361.319 -3.07568 -0.65185 0
M  V30 3874 O 365.13 -1.44218 -0.726867 0
M  V30 3875 H 365.821 -1.36218 -1.37711 0
M  V30 END ATOM
M  V30 BEGIN BOND
M  V30 END BOND
M  V30 END CTAB
M  END
$$$$
