drugbank_target|Q2M3G0 ATP-binding cassette sub-family B member 5 (DB04851; DB14067)
 OpenBabel12092120103D

  0  0  0     0  0            999 V3000
M  V30 BEGIN CTAB
M  V30 COUNTS 19659 19824 0 0 0
M  V30 BEGIN ATOM
M  V30 1 H -0.908 1.98254 -0.117106 0
M  V30 2 N 0 1.576 0 0
M  V30 3 C 0.933 2.03868 1.02534 0
M  V30 4 C 1.911 0.928543 1.3348 0
M  V30 5 O 3.095 1.19667 1.45644 0
M  V30 6 C 0.222 2.43627 2.35294 0
M  V30 7 C -0.732 3.65373 2.2001 0
M  V30 8 S 0.101 5.13292 1.52614 0
M  V30 9 C 1.257 5.56322 2.86805 0
M  V30 10 H 1.49 2.90518 0.631377 0
M  V30 11 H -0.977 1.52953 0.210867 0
M  V30 12 H 0.981 2.67203 3.11629 0
M  V30 13 H -0.358 1.57376 2.7183 0
M  V30 14 H -1.165 3.90944 3.18086 0
M  V30 15 H -1.563 3.418 1.51819 0
M  V30 16 H 0.729 5.58782 3.83104 0
M  V30 17 H 1.672 6.56266 2.65933 0
M  V30 18 H 2.08 4.83886 2.90714 0
M  V30 19 N 1.4781 -0.272755 1.55222 0
M  V30 20 C 2.3881 -1.35918 1.91216 0
M  V30 21 C 3.4041 -1.54026 0.809436 0
M  V30 22 O 4.5801 -1.68148 1.10852 0
M  V30 23 C 1.6451 -2.69834 2.17693 0
M  V30 24 C 0.7061 -2.6047 3.41253 0
M  V30 25 C -0.0609 -3.88 3.66458 0
M  V30 26 O 0.1621 -4.88693 2.94169 0
M  V30 27 O -0.9039 -3.88189 4.59992 0
M  V30 28 H 2.9221 -1.0839 2.83699 0
M  V30 29 H 0.5071 -0.471301 1.41771 0
M  V30 30 H 2.3891 -3.49017 2.36147 0
M  V30 31 H 1.0641 -2.97148 1.28392 0
M  V30 32 H -0.0289 -1.79663 3.28134 0
M  V30 33 H 1.3041 -2.38106 4.30774 0
M  V30 34 N 2.9562 -1.48159 -0.537278 0
M  V30 35 C 3.9042 -1.62573 -1.66352 0
M  V30 36 C 4.8982 -0.492366 -1.62087 0
M  V30 37 O 6.1042 -0.670847 -1.67032 0
M  V30 38 H 2.4792 -0.511992 -0.550789 0
M  V30 39 H 4.4502 -2.57176 -1.51337 0
M  V30 40 C 3.1992 -1.67583 -3.04649 0
M  V30 41 H 2.5222 -2.54151 -3.08622 0
M  V30 42 H 3.9622 -1.81713 -3.83088 0
M  V30 43 C 2.4212 -0.413039 -3.34358 0
M  V30 44 O 2.9512 0.477259 -3.98855 0
M  V30 45 N 1.1572 -0.286961 -2.8918 0
M  V30 46 H 0.7042 -1.01241 -2.36871 0
M  V30 47 H 0.6622 0.556963 -3.09427 0
M  V30 48 N 4.4343 0.785586 -1.36625 0
M  V30 49 C 5.6593 1.57963 -1.34397 0
M  V30 50 C 6.0843 1.87964 0.071526 0
M  V30 51 O 5.4423 1.48182 1.0446 0
M  V30 52 C 5.4903 2.87511 -2.17646 0
M  V30 53 O 4.5943 3.81281 -1.57158 0
M  V30 54 H 3.9353 0.479014 -0.459828 0
M  V30 55 H 6.4653 0.973411 -1.79961 0
M  V30 56 H 6.4753 3.36745 -2.30362 0
M  V30 57 H 5.1503 2.65002 -3.20541 0
M  V30 58 H 3.7273 3.39885 -1.53403 0
M  V30 59 N 5.9124 1.20967 1.01018 0
M  V30 60 C 6.8224 0.980157 2.13143 0
M  V30 61 C 7.8384 -0.0660665 1.73875 0
M  V30 62 O 9.0144 0.122821 2.01025 0
M  V30 63 C 6.0794 0.54216 3.42435 0
M  V30 64 C 5.1404 1.65999 3.95908 0
M  V30 65 C 4.3734 1.2428 5.19028 0
M  V30 66 O 4.5964 0.114196 5.70286 0
M  V30 67 O 3.5304 2.05271 5.65816 0
M  V30 68 H 7.3564 1.91913 2.35379 0
M  V30 69 H 4.9414 0.994099 1.11526 0
M  V30 70 H 6.8234 0.30744 4.20277 0
M  V30 71 H 5.4984 -0.36815 3.216 0
M  V30 72 H 4.4054 1.94906 3.19316 0
M  V30 73 H 5.7384 2.54753 4.21143 0
M  V30 74 N 7.3905 -1.2043 1.01659 0
M  V30 75 C 8.8065 -1.41852 0.731442 0
M  V30 76 C 9.0065 -1.89358 -0.688898 0
M  V30 77 O 8.0625 -2.06247 -1.45666 0
M  V30 78 C 9.3755 -2.44019 1.75714 0
M  V30 79 C 10.9235 -2.57785 1.77527 0
M  V30 80 C 11.3985 -3.63194 2.79023 0
M  V30 81 N 12.8895 -3.70678 2.77763 0
M  V30 82 C 13.6245 -4.51897 3.52954 0
M  V30 83 N 13.1205 -5.36921 4.37821 0
M  V30 84 N 14.9135 -4.4643 3.41551 0
M  V30 85 H 7.0645 -0.879093 1.93354 0
M  V30 86 H 9.3275 -0.448425 0.835236 0
M  V30 87 H 9.0335 -2.1611 2.77469 0
M  V30 88 H 8.9075 -3.43007 1.56927 0
M  V30 89 H 11.2945 -2.85023 0.764569 0
M  V30 90 H 11.3755 -1.58992 2.00387 0
M  V30 91 H 11.0195 -3.36699 3.80258 0
M  V30 92 H 10.9495 -4.61609 2.53425 0
M  V30 93 H 13.4405 -3.09944 2.16201 0
M  V30 94 H 13.7535 -5.95981 4.91962 0
M  V30 95 H 12.0985 -5.36424 4.41899 0
M  V30 96 H 15.2895 -3.79042 2.74672 0
M  V30 97 H 15.4625 -5.09491 4.00404 0
M  V30 98 N 8.8686 -0.792821 -1.36206 0
M  V30 99 C 9.8316 -0.199459 -2.2833 0
M  V30 100 C 10.8316 0.605189 -1.48977 0
M  V30 101 O 12.0216 0.425685 -1.68919 0
M  V30 102 C 9.1536 0.723523 -3.33134 0
M  V30 103 H 10.3466 -1.01181 -2.82316 0
M  V30 104 H 7.8996 -0.562485 -1.45828 0
M  V30 105 H 8.6346 1.56008 -2.84309 0
M  V30 106 H 8.4196 0.148436 -3.91819 0
M  V30 107 H 9.9096 1.13344 -4.01924 0
M  V30 108 N 10.3467 1.47872 -0.545128 0
M  V30 109 C 11.2567 2.33633 0.212746 0
M  V30 110 C 12.2727 1.4744 0.923983 0
M  V30 111 O 13.4487 1.80393 0.895572 0
M  V30 112 C 10.5137 3.23884 1.23693 0
M  V30 113 C 9.5747 4.25961 0.534417 0
M  V30 114 C 8.8077 5.11899 1.5098 0
M  V30 115 O 9.0307 5.00077 2.7437 0
M  V30 116 O 7.9647 5.92831 1.0409 0
M  V30 117 H 11.7907 2.99714 -0.490416 0
M  V30 118 H 9.3757 1.46235 -0.305871 0
M  V30 119 H 11.2577 3.79666 1.82843 0
M  V30 120 H 9.9327 2.60446 1.92222 0
M  V30 121 H 8.8397 3.73972 -0.0979679 0
M  V30 122 H 10.1727 4.92079 -0.109213 0
M  V30 123 N 11.8248 0.280983 1.55075 0
M  V30 124 C 12.7348 -0.61388 2.26426 0
M  V30 125 C 13.7508 -1.16521 1.29224 0
M  V30 126 O 14.9268 -1.19426 1.62171 0
M  V30 127 C 11.9918 -1.7788 2.9759 0
M  V30 128 C 11.0528 -1.26355 4.10284 0
M  V30 129 C 10.2858 -2.37295 4.78045 0
M  V30 130 O 10.5088 -3.56777 4.45047 0
M  V30 131 O 9.4428 -2.05119 5.65871 0
M  V30 132 H 13.2688 -0.0356932 3.03679 0
M  V30 133 H 10.8538 0.0481686 1.49322 0
M  V30 134 H 12.7358 -2.45791 3.42293 0
M  V30 135 H 11.4108 -2.34397 2.23249 0
M  V30 136 H 10.3178 -0.550735 3.70024 0
M  V30 137 H 11.6508 -0.744065 4.86543 0
M  V30 138 N 13.3029 -1.57598 0.00835791 0
M  V30 139 C 14.2359 -2.04409 -1.01451 0
M  V30 140 C 15.2139 -0.935609 -1.32985 0
M  V30 141 O 16.3979 -1.20437 -1.45007 0
M  V30 142 C 13.5249 -2.44872 -2.33999 0
M  V30 143 C 12.5709 -3.66535 -2.18069 0
M  V30 144 S 13.4039 -5.14095 -1.4989 0
M  V30 145 C 14.5599 -5.57835 -2.8385 0
M  V30 146 H 14.7929 -2.90849 -0.615961 0
M  V30 147 H 12.3259 -1.53063 -0.202752 0
M  V30 148 H 14.2839 -2.68852 -3.10208 0
M  V30 149 H 12.9449 -1.58815 -2.70992 0
M  V30 150 H 12.1379 -3.92626 -3.16008 0
M  V30 151 H 11.7399 -3.426 -1.50004 0
M  V30 152 H 14.0319 -5.60806 -3.80136 0
M  V30 153 H 14.9749 -6.57667 -2.62449 0
M  V30 154 H 15.3829 -4.85421 -2.88144 0
M  V30 155 N 14.781 0.264519 -1.55364 0
M  V30 156 C 15.713 1.34965 -1.85248 0
M  V30 157 C 16.726 1.45136 -0.737525 0
M  V30 158 O 17.915 1.46801 -1.01547 0
M  V30 159 C 15.015 2.73008 -2.00797 0
M  V30 160 C 14.188 2.85324 -3.31525 0
M  V30 161 C 13.247 4.04097 -3.37034 0
M  V30 162 O 12.273 3.94455 -4.10358 0
M  V30 163 N 13.475 5.16458 -2.65049 0
M  V30 164 H 16.24 1.09672 -2.78913 0
M  V30 165 H 13.801 0.454635 -1.55386 0
M  V30 166 H 15.793 3.50772 -2.01844 0
M  V30 167 H 14.363 2.91087 -1.1396 0
M  V30 168 H 13.583 1.94377 -3.42945 0
M  V30 169 H 14.871 2.9049 -4.17724 0
M  V30 170 H 14.269 5.27181 -2.05175 0
M  V30 171 H 12.826 5.92422 -2.71809 0
M  V30 172 N 16.2591 1.48442 0.529413 0
M  V30 173 C 17.1691 1.6569 1.66084 0
M  V30 174 C 18.1851 0.539432 1.65427 0
M  V30 175 O 19.3611 0.810572 1.84368 0
M  V30 176 C 16.4261 1.69315 3.02545 0
M  V30 177 C 15.4871 2.92694 3.14052 0
M  V30 178 C 14.7201 2.96137 4.44003 0
M  V30 179 O 14.9431 2.07973 5.31134 0
M  V30 180 O 13.8771 3.88312 4.59888 0
M  V30 181 H 17.7031 2.61483 1.54469 0
M  V30 182 H 15.2881 1.3185 0.702567 0
M  V30 183 H 17.1701 1.74217 3.83701 0
M  V30 184 H 15.8451 0.766966 3.14483 0
M  V30 185 H 14.7521 2.93324 2.32189 0
M  V30 186 H 16.0851 3.84699 3.0703 0
M  V30 187 N 17.7372 -0.778329 1.37039 0
M  V30 188 C 18.6852 -1.91278 1.32345 0
M  V30 189 C 19.6792 -1.68051 0.213331 0
M  V30 190 O 20.8852 -1.75922 0.38098 0
M  V30 191 H 17.2602 -0.628909 0.412283 0
M  V30 192 H 19.2312 -1.92355 2.28127 0
M  V30 193 C 17.9802 -3.28455 1.14073 0
M  V30 194 H 17.3032 -3.46901 1.98746 0
M  V30 195 H 18.7432 -4.08152 1.14837 0
M  V30 196 C 17.2022 -3.36548 -0.154015 0
M  V30 197 O 17.7322 -3.85186 -1.13993 0
M  V30 198 N 15.9382 -2.89894 -0.202475 0
M  V30 199 H 15.4852 -2.50504 0.600476 0
M  V30 200 H 15.4432 -2.9569 -1.06841 0
M  V30 201 N 19.2153 -1.21501 -1.00376 0
M  V30 202 C 20.4453 -1.05746 -1.77486 0
M  V30 203 C 20.8533 0.395655 -1.85017 0
M  V30 204 O 20.1963 1.28626 -1.31152 0
M  V30 205 C 20.2583 -1.58092 -3.22873 0
M  V30 206 C 19.9223 -3.06568 -3.38917 0
M  V30 207 C 20.9193 -4.04106 -3.271 0
M  V30 208 C 18.6043 -3.45799 -3.64319 0
M  V30 209 C 20.5983 -5.38862 -3.40451 0
M  V30 210 C 18.2853 -4.80707 -3.77311 0
M  V30 211 C 19.2833 -5.77047 -3.65384 0
M  V30 212 O 18.9713 -7.09507 -3.77961 0
M  V30 213 H 18.7033 -0.371778 -0.564586 0
M  V30 214 H 21.2573 -1.61319 -1.27143 0
M  V30 215 H 19.4873 -0.969163 -3.74358 0
M  V30 216 H 21.1763 -1.38162 -3.81662 0
M  V30 217 H 21.9423 -3.75141 -3.07399 0
M  V30 218 H 17.8213 -2.71344 -3.72684 0
M  V30 219 H 21.3653 -6.14041 -3.31058 0
M  V30 220 H 17.2623 -5.09357 -3.96517 0
M  V30 221 H 18.0303 -7.16935 -3.94901 0
M  V30 222 N 20.6934 1.19889 -1.02296 0
M  V30 223 C 21.6254 2.22334 -0.556787 0
M  V30 224 C 22.6384 1.58674 0.364199 0
M  V30 225 O 23.8274 1.77768 0.161533 0
M  V30 226 C 20.9274 3.38257 0.208694 0
M  V30 227 C 20.1004 4.31504 -0.71577 0
M  V30 228 C 19.1594 5.262 0.00325597 0
M  V30 229 O 18.1854 5.65798 -0.621357 0
M  V30 230 N 19.3874 5.66303 1.27599 0
M  V30 231 H 22.1524 2.62957 -1.43784 0
M  V30 232 H 19.7134 1.34495 -0.901261 0
M  V30 233 H 21.7054 3.98616 0.699111 0
M  V30 234 H 20.2754 2.96472 0.991102 0
M  V30 235 H 19.4954 3.69016 -1.38638 0
M  V30 236 H 20.7834 4.9072 -1.34428 0
M  V30 237 H 20.1814 5.36155 1.80429 0
M  V30 238 H 18.7384 6.28942 1.71102 0
M  V30 239 N 22.1715 0.800033 1.35784 0
M  V30 240 C 23.5875 0.482977 1.52117 0
M  V30 241 C 23.7875 -0.996948 1.75109 0
M  V30 242 O 22.8435 -1.78216 1.78872 0
M  V30 243 C 24.1565 1.32264 2.70049 0
M  V30 244 C 25.7045 1.31742 2.83924 0
M  V30 245 C 26.1795 2.14106 4.04874 0
M  V30 246 N 27.6705 2.11607 4.12039 0
M  V30 247 C 28.4055 2.72099 5.04727 0
M  V30 248 N 27.9015 3.41492 6.02789 0
M  V30 249 N 29.6945 2.61776 4.97423 0
M  V30 250 H 21.8455 1.75856 1.19115 0
M  V30 251 H 24.1085 0.748122 0.582252 0
M  V30 252 H 23.8145 2.37261 2.59616 0
M  V30 253 H 23.6885 0.971303 3.6448 0
M  V30 254 H 26.0755 0.275333 2.93813 0
M  V30 255 H 26.1565 1.70859 1.9037 0
M  V30 256 H 25.8005 3.18351 3.95746 0
M  V30 257 H 25.7305 1.72353 4.97596 0
M  V30 258 H 28.2215 1.61112 3.41835 0
M  V30 259 H 28.5345 3.84953 6.70098 0
M  V30 260 H 26.8795 3.45596 6.02983 0
M  V30 261 H 30.0705 2.07157 4.19766 0
M  V30 262 H 30.2435 3.0921 5.69468 0
M  V30 263 N 23.6496 -1.47581 0.552962 0
M  V30 264 C 24.5976 -2.31648 -0.21023 0
M  V30 265 C 25.5916 -1.42663 -0.913432 0
M  V30 266 O 26.7976 -1.5945 -0.835201 0
M  V30 267 H 23.1726 -0.746989 -0.0866676 0
M  V30 268 H 25.1436 -2.93869 0.518051 0
M  V30 269 C 23.8926 -3.25226 -1.22976 0
M  V30 270 H 23.2156 -3.93658 -0.698077 0
M  V30 271 H 24.6556 -3.86889 -1.73473 0
M  V30 272 C 23.1146 -2.48448 -2.27542 0
M  V30 273 O 23.6446 -2.22585 -3.34393 0
M  V30 274 N 21.8506 -2.09532 -2.01357 0
M  V30 275 H 21.3976 -2.30765 -1.14478 0
M  V30 276 H 21.3556 -1.58476 -2.71538 0
M  V30 277 N 25.1277 -0.289203 -1.54924 0
M  V30 278 C 26.3757 0.322879 -1.99504 0
M  V30 279 C 26.6967 1.55313 -1.1791 0
M  V30 280 O 25.9667 1.94001 -0.272097 0
M  V30 281 H 24.5467 0.122291 -0.736922 0
M  V30 282 H 27.2087 -0.397802 -1.90797 0
M  V30 283 H 26.3047 0.603061 -3.06218 0
M  V30 284 N 26.6058 1.57591 -0.0167156 0
M  V30 285 C 27.8338 1.95575 0.675128 0
M  V30 286 C 28.2488 0.892542 1.6637 0
M  V30 287 O 27.6058 -0.126912 1.82058 0
M  V30 288 C 27.6568 3.33608 1.39239 0
M  V30 289 O 27.3778 4.3585 0.443444 0
M  V30 290 C 28.8788 3.86151 2.17721 0
M  V30 291 H 26.0988 0.644423 0.186978 0
M  V30 292 H 28.6428 2.0437 -0.0728 0
M  V30 293 H 26.7978 3.2607 2.09182 0
M  V30 294 H 27.2118 5.158 0.951358 0
M  V30 295 H 28.6858 4.85114 2.63379 0
M  V30 296 H 29.1628 3.19738 3.01105 0
M  V30 297 H 29.7688 3.96918 1.52761 0
M  V30 298 N 28.0839 -0.256276 1.55502 0
M  V30 299 C 29.0469 -1.30047 1.88734 0
M  V30 300 C 30.0469 -1.4154 0.763086 0
M  V30 301 O 31.2369 -1.40403 1.03115 0
M  V30 302 C 28.3689 -2.67953 2.10747 0
M  V30 303 H 29.5619 -1.01802 2.82093 0
M  V30 304 H 27.1149 -0.495134 1.4825 0
M  V30 305 H 27.8499 -3.01351 1.19825 0
M  V30 306 H 27.6349 -2.60993 2.92617 0
M  V30 307 H 29.1249 -3.43368 2.37673 0
M  V30 308 N 29.562 -1.4872 -0.521534 0
M  V30 309 C 30.472 -1.66569 -1.65203 0
M  V30 310 C 31.488 -0.548197 -1.65139 0
M  V30 311 O 32.664 -0.820339 -1.83936 0
M  V30 312 C 29.729 -1.70917 -3.01642 0
M  V30 313 C 28.79 -2.94356 -3.12495 0
M  V30 314 C 28.023 -2.98487 -4.42426 0
M  V30 315 O 28.246 -2.10786 -5.30024 0
M  V30 316 O 27.18 -3.90746 -4.57822 0
M  V30 317 H 31.006 -2.62298 -1.5308 0
M  V30 318 H 28.591 -1.3222 -0.695565 0
M  V30 319 H 30.473 -1.7625 -3.82771 0
M  V30 320 H 29.148 -0.783633 -3.14071 0
M  V30 321 H 28.055 -2.94552 -2.3063 0
M  V30 322 H 29.388 -3.86322 -3.04986 0
M  V30 323 N 31.0401 0.771051 -1.3745 0
M  V30 324 C 31.9501 1.91538 -1.35464 0
M  V30 325 C 32.9661 1.72134 -0.254123 0
M  V30 326 O 34.1421 1.95358 -0.489626 0
M  V30 327 C 31.2071 3.26671 -1.16134 0
M  V30 328 C 30.2681 3.58723 -2.35831 0
M  V30 329 C 29.5011 4.87409 -2.17413 0
M  V30 330 O 29.7241 5.58506 -1.15876 0
M  V30 331 O 28.6581 5.18539 -3.05615 0
M  V30 332 H 32.4841 1.96165 -2.31847 0
M  V30 333 H 30.0691 0.9139 -1.18187 0
M  V30 334 H 31.9511 4.07499 -1.07345 0
M  V30 335 H 30.6261 3.22894 -0.228251 0
M  V30 336 H 29.5331 2.78127 -2.50192 0
M  V30 337 H 30.8661 3.67243 -3.27709 0
M  V30 338 N 32.5182 1.22032 0.997298 0
M  V30 339 C 33.4502 0.944263 2.08845 0
M  V30 340 C 34.4632 -0.0754663 1.62625 0
M  V30 341 O 35.6522 0.157994 1.77799 0
M  V30 342 C 32.7522 0.397723 3.36558 0
M  V30 343 C 31.9252 1.47362 4.11829 0
M  V30 344 C 30.9842 0.934951 5.17827 0
M  V30 345 O 30.0102 1.62016 5.45655 0
M  V30 346 N 31.2122 -0.245895 5.79979 0
M  V30 347 H 33.9772 1.88363 2.33109 0
M  V30 348 H 31.5382 1.12661 1.16272 0
M  V30 349 H 33.5302 0.0227771 4.04694 0
M  V30 350 H 32.1002 -0.446646 3.09393 0
M  V30 351 H 31.3202 2.02208 3.38386 0
M  V30 352 H 32.6082 2.19764 4.58891 0
M  V30 353 H 32.0062 -0.819475 5.59733 0
M  V30 354 H 30.5632 -0.562272 6.4937 0
M  V30 355 N 33.9963 -1.19345 1.0293 0
M  V30 356 C 35.4073 -1.70725 0.755633 0
M  V30 357 C 35.7583 -1.82326 -0.724676 0
M  V30 358 O 34.8833 -1.49471 -1.56484 0
M  V30 359 C 35.4783 -3.10084 1.36503 0
M  V30 360 C 34.0373 -3.58723 1.13994 0
M  V30 361 C 33.1843 -2.35577 1.46283 0
M  V30 362 H 36.1353 -1.0418 1.19718 0
M  V30 363 H 36.1563 -3.72787 0.762217 0
M  V30 364 H 35.6683 -3.01609 2.44241 0
M  V30 365 H 33.7693 -3.72512 0.0807901 0
M  V30 366 H 33.8823 -4.42816 1.82894 0
M  V30 367 H 32.2463 -2.38935 0.88217 0
M  V30 368 H 33.0293 -2.29731 2.55105 0
M  V30 369 N 35.4744 -0.807222 -1.35358 0
M  V30 370 C 36.4214 -0.216037 -2.29787 0
M  V30 371 C 37.3914 0.650278 -1.52842 0
M  V30 372 O 38.5764 0.595227 -1.81278 0
M  V30 373 C 35.7164 0.628893 -3.39321 0
M  V30 374 C 34.8294 -0.257927 -4.31229 0
M  V30 375 C 33.9644 0.595069 -5.27856 0
M  V30 376 C 33.0034 -0.292111 -6.11403 0
M  V30 377 N 32.1404 0.520895 -7.00165 0
M  V30 378 H 36.9804 -1.02671 -2.79755 0
M  V30 379 H 34.5174 -0.517839 -1.37684 0
M  V30 380 H 36.4754 1.13393 -4.01494 0
M  V30 381 H 35.1054 1.40482 -2.90628 0
M  V30 382 H 34.1574 -0.881076 -3.70056 0
M  V30 383 H 35.4694 -0.940759 -4.89848 0
M  V30 384 H 34.6234 1.16522 -5.95405 0
M  V30 385 H 33.3624 1.31146 -4.69736 0
M  V30 386 H 32.3674 -0.874525 -5.428 0
M  V30 387 H 33.5924 -1.00638 -6.71602 0
M  V30 388 H 31.5384 1.22125 -6.44532 0
M  V30 389 H 31.4554 -0.103877 -7.55929 0
M  V30 390 H 32.7234 1.0743 -7.72062 0
M  V30 391 N 36.9525 1.47285 -0.560781 0
M  V30 392 C 37.8825 2.32857 0.173105 0
M  V30 393 C 38.8635 1.44009 0.905281 0
M  V30 394 O 40.0485 1.7286 0.885046 0
M  V30 395 C 37.1785 3.25861 1.20133 0
M  V30 396 C 36.1325 4.23978 0.585388 0
M  V30 397 C 35.4585 5.06332 1.7185 0
M  V30 398 C 36.7585 5.20242 -0.463178 0
M  V30 399 H 38.4525 2.94466 -0.541307 0
M  V30 400 H 35.9985 1.41601 -0.261764 0
M  V30 401 H 37.9515 3.84569 1.72293 0
M  V30 402 H 36.6755 2.62315 1.94573 0
M  V30 403 H 35.3345 3.66501 0.085054 0
M  V30 404 H 34.9825 4.39186 2.45203 0
M  V30 405 H 34.6825 5.72762 1.31213 0
M  V30 406 H 36.2065 5.67899 2.24329 0
M  V30 407 H 37.6205 5.73293 -0.027502 0
M  V30 408 H 36.0175 5.94896 -0.788627 0
M  V30 409 H 37.0875 4.65504 -1.35773 0
M  V30 410 N 38.4306 0.297415 1.54768 0
M  V30 411 C 39.8466 -0.0560823 1.59501 0
M  V30 412 C 40.0466 -1.52725 1.31444 0
M  V30 413 O 39.1026 -2.27947 1.08611 0
M  V30 414 C 40.4156 0.338631 2.98787 0
M  V30 415 C 41.9636 0.287097 3.11681 0
M  V30 416 C 42.4386 0.656579 4.53269 0
M  V30 417 N 43.9296 0.608977 4.59179 0
M  V30 418 C 44.6646 0.867385 5.66802 0
M  V30 419 N 44.1606 1.19157 6.82476 0
M  V30 420 N 45.9536 0.794687 5.56454 0
M  V30 421 H 38.1046 1.25624 1.71267 0
M  V30 422 H 40.3676 0.509057 0.799728 0
M  V30 423 H 40.0736 1.36263 3.2423 0
M  V30 424 H 39.9476 -0.309508 3.75928 0
M  V30 425 H 42.3346 -0.727649 2.85988 0
M  V30 426 H 42.4156 0.969809 2.36703 0
M  V30 427 H 42.0596 1.66912 4.7969 0
M  V30 428 H 41.9896 -0.0481649 5.26578 0
M  V30 429 H 44.4806 0.369198 3.76092 0
M  V30 430 H 44.7936 1.37482 7.60473 0
M  V30 431 H 43.1386 1.22958 6.84037 0
M  V30 432 H 46.3296 0.541098 4.64962 0
M  V30 433 H 46.5026 0.999445 6.40246 0
M  V30 434 N 39.9087 -1.5758 0.0250728 0
M  V30 435 C 40.8557 -2.09973 -0.958129 0
M  V30 436 C 41.8257 -1.00085 -1.3256 0
M  V30 437 O 43.0107 -1.27481 -1.41962 0
M  V30 438 C 40.1507 -2.62812 -2.2366 0
M  V30 439 C 39.2637 -3.86693 -1.92594 0
M  V30 440 C 38.3987 -4.27941 -3.14707 0
M  V30 441 C 37.4377 -5.44591 -2.79442 0
M  V30 442 N 36.5747 -5.81014 -3.94167 0
M  V30 443 H 41.4147 -2.937 -0.504428 0
M  V30 444 H 38.9517 -1.45172 -0.237392 0
M  V30 445 H 40.9097 -2.91536 -2.98434 0
M  V30 446 H 39.5397 -1.81922 -2.66654 0
M  V30 447 H 38.5917 -3.64723 -1.0808 0
M  V30 448 H 39.9037 -4.71547 -1.62619 0
M  V30 449 H 39.0577 -4.58079 -3.97804 0
M  V30 450 H 37.7967 -3.41845 -3.4784 0
M  V30 451 H 36.8017 -5.1415 -1.94755 0
M  V30 452 H 38.0267 -6.32382 -2.47528 0
M  V30 453 H 35.9727 -4.97874 -4.2715 0
M  V30 454 H 35.8897 -6.60498 -3.67801 0
M  V30 455 H 37.1577 -6.15756 -4.7798 0
M  V30 456 N 41.3868 0.248026 -1.55636 0
M  V30 457 C 42.2968 1.32859 -1.93354 0
M  V30 458 C 43.3128 1.52719 -0.833838 0
M  V30 459 O 44.4888 1.66363 -1.13513 0
M  V30 460 C 41.5538 2.66337 -2.21958 0
M  V30 461 C 40.6148 2.55008 -3.45354 0
M  V30 462 C 39.8478 3.82121 -3.72584 0
M  V30 463 O 40.0708 4.83951 -3.01907 0
M  V30 464 O 39.0048 3.80822 -4.6611 0
M  V30 465 H 42.8308 1.03862 -2.85388 0
M  V30 466 H 40.4158 0.448686 -1.42503 0
M  V30 467 H 42.2978 3.45216 -2.4167 0
M  V30 468 H 40.9728 2.95068 -1.33103 0
M  V30 469 H 39.8798 1.7442 -3.30951 0
M  V30 470 H 41.2128 2.31222 -4.34508 0
M  V30 471 N 42.8649 1.48995 0.513639 0
M  V30 472 C 43.8279 1.64229 1.59879 0
M  V30 473 C 44.8279 0.514696 1.5234 0
M  V30 474 O 46.0179 0.78087 1.55718 0
M  V30 475 C 43.1499 1.62783 2.99524 0
M  V30 476 H 44.3429 2.61004 1.47705 0
M  V30 477 H 41.8959 1.37837 0.736936 0
M  V30 478 H 42.6309 0.675461 3.17188 0
M  V30 479 H 42.4159 2.4466 3.06404 0
M  V30 480 H 43.9059 1.76669 3.78388 0
M  V30 481 N 44.343 -0.763751 1.37857 0
M  V30 482 C 45.589 -1.52483 1.33704 0
M  V30 483 C 45.922 -1.94051 -0.0759612 0
M  V30 484 O 45.197 -1.64675 -1.03501 0
M  V30 485 C 45.48 -2.78441 2.28348 0
M  V30 486 C 45.333 -2.43075 3.78463 0
M  V30 487 C 46.652 -3.80415 2.21298 0
M  V30 488 H 43.771 -0.553169 0.487005 0
M  V30 489 H 46.413 -0.875562 1.68624 0
M  V30 490 H 44.563 -3.33842 1.987 0
M  V30 491 H 46.235 -1.93527 4.18742 0
M  V30 492 H 44.478 -1.75666 3.96641 0
M  V30 493 H 45.149 -3.33149 4.40132 0
M  V30 494 H 47.625 -3.34527 2.47449 0
M  V30 495 H 46.501 -4.66257 2.89647 0
M  V30 496 H 46.762 -4.25262 1.20849 0
M  V30 497 N 45.8211 -1.22559 -0.990812 0
M  V30 498 C 47.0691 -1.04933 -1.72724 0
M  V30 499 C 47.3901 0.416158 -1.90508 0
M  V30 500 O 46.6601 1.29918 -1.46622 0
M  V30 501 H 45.2401 -0.385296 -0.639965 0
M  V30 502 H 47.9021 -1.54105 -1.19322 0
M  V30 503 H 46.9981 -1.52886 -2.72089 0
M  V30 504 N 47.2992 1.18797 -1.03562 0
M  V30 505 C 48.5242 1.9314 -0.755764 0
M  V30 506 C 48.9492 1.7537 0.68022 0
M  V30 507 O 48.3072 1.06046 1.47051 0
M  V30 508 C 48.3552 3.42747 -1.12058 0
M  V30 509 O 47.4592 4.11683 -0.243124 0
M  V30 510 H 46.8002 0.602724 -0.278604 0
M  V30 511 H 49.3302 1.50678 -1.3841 0
M  V30 512 H 49.3402 3.93437 -1.08035 0
M  V30 513 H 48.0152 3.55002 -2.16672 0
M  V30 514 H 46.5922 3.71323 -0.342539 0
M  V30 515 N 48.7773 0.814389 1.34928 0
M  V30 516 C 50.0263 0.394871 1.97797 0
M  V30 517 C 50.3393 -1.04555 1.65311 0
M  V30 518 O 51.5453 -1.56856 2.21604 0
M  V30 519 C 50.0013 0.655103 3.53888 0
M  V30 520 C 49.6093 2.10858 3.95276 0
M  V30 521 C 51.3533 0.301329 4.23429 0
M  V30 522 C 49.2603 2.31415 5.44244 0
M  V30 523 H 48.1903 0.143913 0.740139 0
M  V30 524 H 50.8413 0.999544 1.53888 0
M  V30 525 H 49.2233 -0.0196253 3.95995 0
M  V30 526 H 50.3973 2.82176 3.64298 0
M  V30 527 H 48.7123 2.42297 3.38646 0
M  V30 528 H 51.3093 0.432869 5.32945 0
M  V30 529 H 51.6523 -0.75331 4.09428 0
M  V30 530 H 52.1853 0.930288 3.86769 0
M  V30 531 H 48.9243 3.35353 5.63222 0
M  V30 532 H 48.4443 1.6463 5.76764 0
M  V30 533 H 50.1233 2.13352 6.10811 0
M  V30 534 N 50.2554 -1.46986 0.568584 0
M  V30 535 C 51.1654 -2.33942 -0.17555 0
M  V30 536 C 52.1814 -1.48891 -0.90041 0
M  V30 537 O 53.3574 -1.81794 -0.86676 0
M  V30 538 C 50.4224 -3.25811 -1.18524 0
M  V30 539 C 49.4834 -4.26757 -0.466582 0
M  V30 540 C 48.7164 -5.14236 -1.42817 0
M  V30 541 O 48.9394 -5.04379 -2.66379 0
M  V30 542 O 47.8734 -5.94412 -0.946453 0
M  V30 543 H 51.6994 -2.98896 0.538036 0
M  V30 544 H 49.2844 -1.4573 0.329097 0
M  V30 545 H 51.1664 -3.82527 -1.76779 0
M  V30 546 H 49.8414 -2.63471 -1.88055 0
M  V30 547 H 48.7484 -3.73769 0.157451 0
M  V30 548 H 50.0814 -4.91843 0.187485 0
M  V30 549 N 51.7335 -0.305618 -1.54608 0
M  V30 550 C 52.9825 0.303098 -1.9941 0
M  V30 551 C 53.2955 1.54648 -1.19764 0
M  V30 552 O 54.5015 2.23007 -1.54855 0
M  V30 553 C 52.9575 0.590588 -3.55021 0
M  V30 554 C 52.5655 -0.634719 -4.43481 0
M  V30 555 C 54.3095 1.16025 -4.08336 0
M  V30 556 C 52.2165 -0.320126 -5.90533 0
M  V30 557 H 51.1465 0.117031 -0.744862 0
M  V30 558 H 53.7975 -0.415045 -1.78745 0
M  V30 559 H 52.1795 1.36845 -3.71604 0
M  V30 560 H 53.3535 -1.41079 -4.38672 0
M  V30 561 H 51.6685 -1.12333 -4.00962 0
M  V30 562 H 54.2655 1.40994 -5.15776 0
M  V30 563 H 54.6085 2.10397 -3.5922 0
M  V30 564 H 55.1415 0.443985 -3.95315 0
M  V30 565 H 51.8805 -1.23254 -6.43808 0
M  V30 566 H 51.4005 0.418579 -5.98338 0
M  V30 567 H 53.0795 0.0766241 -6.46955 0
M  V30 568 N 53.2116 1.57565 -0.0334293 0
M  V30 569 C 54.4586 1.91978 0.644272 0
M  V30 570 C 54.7866 0.910231 1.71887 0
M  V30 571 O 54.0416 -0.0801961 1.95536 0
M  V30 572 C 54.3406 3.33112 1.29504 0
M  V30 573 C 54.0066 4.49537 0.350388 0
M  V30 574 C 52.6686 4.81115 0.0903974 0
M  V30 575 C 55.0206 5.20347 -0.298032 0
M  V30 576 C 52.3486 5.8086 -0.825746 0
M  V30 577 C 54.7006 6.2107 -1.20226 0
M  V30 578 C 53.3646 6.51088 -1.4711 0
M  V30 579 H 52.6346 0.702496 0.235756 0
M  V30 580 H 55.2816 1.91259 -0.0961176 0
M  V30 581 H 53.5866 3.30113 2.11028 0
M  V30 582 H 55.2836 3.57011 1.82603 0
M  V30 583 H 51.8736 4.24883 0.563205 0
M  V30 584 H 56.0576 4.96178 -0.110234 0
M  V30 585 H 51.3136 6.02461 -1.04169 0
M  V30 586 H 55.4876 6.75057 -1.71086 0
M  V30 587 H 53.1146 7.28193 -2.18264 0
M  V30 588 N 54.6897 -0.239769 1.55765 0
M  V30 589 C 56.1057 -0.588624 1.48349 0
M  V30 590 C 56.3057 -1.88005 0.72502 0
M  V30 591 O 55.3617 -2.51186 0.257269 0
M  V30 592 C 56.6747 -0.68474 2.928 0
M  V30 593 C 58.2227 -0.77659 3.03213 0
M  V30 594 C 58.6977 -0.904207 4.48986 0
M  V30 595 N 60.1887 -0.968896 4.52953 0
M  V30 596 C 60.9237 -1.08703 5.63002 0
M  V30 597 N 60.4197 -1.17026 6.82845 0
M  V30 598 N 62.2127 -1.12074 5.50814 0
M  V30 599 H 54.3637 0.607911 2.03515 0
M  V30 600 H 56.6267 0.21083 0.924259 0
M  V30 601 H 56.3327 0.194284 3.51163 0
M  V30 602 H 56.2067 -1.55435 3.43686 0
M  V30 603 H 58.5937 -1.64606 2.44926 0
M  V30 604 H 58.6747 0.118315 2.55526 0
M  V30 605 H 58.3187 -0.0392633 5.07885 0
M  V30 606 H 58.2487 -1.81426 4.9436 0
M  V30 607 H 60.7397 -0.915633 3.6664 0
M  V30 608 H 61.0527 -1.25966 7.62465 0
M  V30 609 H 59.3977 -1.13971 6.85591 0
M  V30 610 H 62.5887 -1.05226 4.5612 0
M  V30 611 H 62.7617 -1.20936 6.36615 0
M  V30 612 N 56.1678 -1.49265 -0.50573 0
M  V30 613 C 57.4148 -1.58513 -1.26015 0
M  V30 614 C 57.7428 -0.26972 -1.92621 0
M  V30 615 O 56.9978 0.741997 -1.81088 0
M  V30 616 C 57.2968 -2.69008 -2.35308 0
M  V30 617 C 56.9628 -4.10662 -1.86192 0
M  V30 618 C 55.6248 -4.49212 -1.72516 0
M  V30 619 C 57.9768 -4.99336 -1.49375 0
M  V30 620 C 55.3048 -5.74214 -1.20394 0
M  V30 621 C 57.6568 -6.24852 -0.987072 0
M  V30 622 C 56.3208 -6.62236 -0.836669 0
M  V30 623 H 55.5908 -0.580041 -0.461122 0
M  V30 624 H 58.2378 -1.83078 -0.561665 0
M  V30 625 H 56.5428 -2.38396 -3.10926 0
M  V30 626 H 58.2398 -2.73373 -2.93374 0
M  V30 627 H 54.8298 -3.8023 -1.97795 0
M  V30 628 H 59.0138 -4.70212 -1.5879 0
M  V30 629 H 54.2698 -6.01883 -1.07458 0
M  V30 630 H 58.4438 -6.92944 -0.692983 0
M  V30 631 H 56.0708 -7.58979 -0.430607 0
M  V30 632 N 57.6459 0.756429 -1.3826 0
M  V30 633 C 58.6089 1.85176 -1.35065 0
M  V30 634 C 59.6089 1.58818 -0.251703 0
M  V30 635 O 60.7989 1.66615 -0.508433 0
M  V30 636 C 57.9309 3.22596 -1.10201 0
M  V30 637 H 59.1239 1.89417 -2.3251 0
M  V30 638 H 56.6769 0.95783 -1.23512 0
M  V30 639 H 57.4119 3.24025 -0.133504 0
M  V30 640 H 57.1969 3.43122 -1.89762 0
M  V30 641 H 58.6869 4.02673 -1.10654 0
M  V30 642 N 59.124 1.23083 0.984299 0
M  V30 643 C 60.401 0.9689 1.69917 0
M  V30 644 C 60.781 -0.513604 2.04757 0
M  V30 645 O 60.129 -1.48383 1.73767 0
M  V30 646 C 60.339 1.87518 2.94343 0
M  V30 647 C 61.687 2.13636 3.6694 0
M  V30 648 O 62.711 1.85036 3.04368 0
M  V30 649 O 61.57 2.62119 4.79537 0
M  V30 650 H 58.664 0.365095 0.742048 0
M  V30 651 H 61.21 1.34107 1.03987 0
M  V30 652 H 59.982 2.87756 2.65164 0
M  V30 653 H 59.605 1.50514 3.6801 0
M  V30 654 N 60.6021 -1.18246 1.0419 0
M  V30 655 C 61.8501 -1.87886 0.744543 0
M  V30 656 C 62.1711 -1.8082 -0.730006 0
M  V30 657 O 61.4411 -1.22736 -1.52685 0
M  V30 658 H 60.0211 -0.695556 0.272417 0
M  V30 659 H 62.6831 -1.43494 1.31892 0
M  V30 660 H 61.7791 -2.9389 1.05049 0
M  V30 661 N 62.0802 -0.821533 -1.34494 0
M  V30 662 C 63.0102 -0.257138 -2.3208 0
M  V30 663 C 63.9912 0.625645 -1.58176 0
M  V30 664 O 65.1762 0.552811 -1.86166 0
M  V30 665 C 62.3062 0.582958 -3.42372 0
M  V30 666 C 61.2602 -0.202571 -4.2752 0
M  V30 667 C 60.5862 0.760179 -5.29269 0
M  V30 668 C 61.8862 -1.40998 -5.02908 0
M  V30 669 H 63.5802 -1.07247 -2.79532 0
M  V30 670 H 61.1262 -0.517163 -1.34393 0
M  V30 671 H 63.0792 0.987972 -4.09655 0
M  V30 672 H 61.8032 1.43133 -2.93565 0
M  V30 673 H 60.4622 -0.588936 -3.61838 0
M  V30 674 H 60.1102 1.60447 -4.76724 0
M  V30 675 H 59.8102 0.238809 -5.87115 0
M  V30 676 H 61.3342 1.16308 -5.9942 0
M  V30 677 H 62.7482 -1.07905 -5.63054 0
M  V30 678 H 61.1452 -1.86689 -5.70322 0
M  V30 679 H 62.2152 -2.1889 -4.32684 0
M  V30 680 N 63.5583 1.46682 -0.576371 0
M  V30 681 C 64.8353 1.95599 0.00703437 0
M  V30 682 C 65.2153 1.51904 1.46589 0
M  V30 683 O 64.5633 0.766755 2.15251 0
M  V30 684 C 64.7733 3.4864 -0.158404 0
M  V30 685 C 66.1213 4.24594 -0.0229439 0
M  V30 686 O 67.1453 3.56094 -0.0869173 0
M  V30 687 O 66.0043 5.46373 0.118015 0
M  V30 688 H 63.0983 0.825275 0.053384 0
M  V30 689 H 65.6443 1.56996 -0.644244 0
M  V30 690 H 64.4163 3.7331 -1.17282 0
M  V30 691 H 64.0393 3.94057 0.5296 0
M  V30 692 N 65.0364 0.313813 1.54444 0
M  V30 693 C 66.2854 -0.292519 1.99568 0
M  V30 694 C 66.5984 -1.54011 1.20582 0
M  V30 695 O 67.8044 -2.22183 1.56035 0
M  V30 696 C 66.2604 -0.571752 3.55329 0
M  V30 697 C 65.8684 0.658229 4.43138 0
M  V30 698 C 67.6124 -1.13857 4.08946 0
M  V30 699 C 65.5194 0.351439 5.90355 0
M  V30 700 H 64.4494 -0.113079 0.745472 0
M  V30 701 H 67.1004 0.424518 1.78522 0
M  V30 702 H 65.4824 -1.34872 3.72325 0
M  V30 703 H 66.6564 1.43403 4.37918 0
M  V30 704 H 64.9714 1.14458 4.0036 0
M  V30 705 H 67.5684 -1.38257 5.16516 0
M  V30 706 H 67.9114 -2.08489 3.6033 0
M  V30 707 H 68.4444 -0.423015 3.95544 0
M  V30 708 H 65.1834 1.26667 6.43145 0
M  V30 709 H 64.7034 -0.386842 5.98551 0
M  V30 710 H 66.3824 -0.0423134 6.46986 0
M  V30 711 N 66.5145 -1.57545 0.0417849 0
M  V30 712 C 67.7425 -1.96624 -0.643928 0
M  V30 713 C 68.1575 -0.918897 -1.64929 0
M  V30 714 O 67.5145 0.0979323 -1.82237 0
M  V30 715 C 67.5655 -3.35781 -1.33914 0
M  V30 716 O 67.2865 -4.365 -0.374048 0
M  V30 717 C 68.7875 -3.89566 -2.1155 0
M  V30 718 H 66.0075 -0.647316 -0.176702 0
M  V30 719 H 68.5515 -2.04229 0.105304 0
M  V30 720 H 66.7065 -3.29357 -2.03968 0
M  V30 721 H 67.1205 -5.17248 -0.869179 0
M  V30 722 H 68.5945 -4.89242 -2.55628 0
M  V30 723 H 69.0715 -3.24488 -2.9598 0
M  V30 724 H 69.6775 -3.99298 -1.46427 0
M  V30 725 N 67.9926 0.231505 -1.5589 0
M  V30 726 C 68.9226 1.29022 -1.94617 0
M  V30 727 C 69.9036 1.4941 -0.813067 0
M  V30 728 O 71.0886 1.6176 -1.07459 0
M  V30 729 C 68.2186 2.64199 -2.25424 0
M  V30 730 C 67.1726 2.58484 -3.41131 0
M  V30 731 C 66.4986 3.97599 -3.57518 0
M  V30 732 C 67.7986 2.1413 -4.76388 0
M  V30 733 H 69.4926 0.968563 -2.83301 0
M  V30 734 H 67.0386 0.464479 -1.36303 0
M  V30 735 H 68.9916 3.38413 -2.51107 0
M  V30 736 H 67.7156 2.98032 -1.33583 0
M  V30 737 H 66.3746 1.86727 -3.15481 0
M  V30 738 H 66.0226 4.28723 -2.6307 0
M  V30 739 H 65.7226 3.94659 -4.35337 0
M  V30 740 H 67.2466 4.7349 -3.85538 0
M  V30 741 H 68.6606 2.78083 -5.01341 0
M  V30 742 H 67.0576 2.2227 -5.57419 0
M  V30 743 H 68.1276 1.09331 -4.72414 0
M  V30 744 N 69.4707 1.49531 0.497807 0
M  V30 745 C 70.4037 1.61043 1.6168 0
M  V30 746 C 71.3817 0.459386 1.55976 0
M  V30 747 O 72.5657 0.675358 1.75986 0
M  V30 748 C 69.6927 1.56833 3.00202 0
M  V30 749 C 68.7387 2.77173 3.24156 0
M  V30 750 S 69.5717 4.38808 3.06933 0
M  V30 751 C 70.7277 4.37248 4.47845 0
M  V30 752 H 70.9607 2.55702 1.51671 0
M  V30 753 H 68.4937 1.38462 0.683201 0
M  V30 754 H 70.4517 1.55089 3.80076 0
M  V30 755 H 69.1127 0.634561 3.07623 0
M  V30 756 H 68.3057 2.70456 4.25288 0
M  V30 757 H 67.9077 2.76346 2.5201 0
M  V30 758 H 70.1997 4.09164 5.39992 0
M  V30 759 H 71.1427 5.38668 4.59612 0
M  V30 760 H 71.5507 3.67286 4.28674 0
M  V30 761 N 70.9488 -0.749086 1.3866 0
M  V30 762 C 72.1978 -1.50371 1.3443 0
M  V30 763 C 72.5108 -1.95503 -0.0616397 0
M  V30 764 O 73.7168 -2.70554 -0.226489 0
M  V30 765 C 72.1728 -2.71644 2.36088 0
M  V30 766 C 71.7808 -2.3352 3.82325 0
M  V30 767 C 73.5248 -3.49518 2.40909 0
M  V30 768 C 71.4318 -3.51431 4.75658 0
M  V30 769 H 70.3618 -0.564628 0.499712 0
M  V30 770 H 73.0128 -0.818449 1.64237 0
M  V30 771 H 71.3948 -3.42175 1.9933 0
M  V30 772 H 72.5688 -1.70627 4.28046 0
M  V30 773 H 70.8838 -1.6877 3.80665 0
M  V30 774 H 73.4808 -4.37197 3.07836 0
M  V30 775 H 73.8238 -3.90992 1.42937 0
M  V30 776 H 74.3568 -2.86005 2.76489 0
M  V30 777 H 71.0958 -3.15019 5.74842 0
M  V30 778 H 70.6158 -4.13352 4.34627 0
M  V30 779 H 72.2948 -4.17953 4.93887 0
M  V30 780 N 72.4269 -1.23603 -0.977757 0
M  V30 781 C 73.3569 -1.04401 -2.0886 0
M  V30 782 C 74.3379 0.0399052 -1.70053 0
M  V30 783 O 75.5229 -0.125246 -1.93796 0
M  V30 784 C 72.6529 -0.637269 -3.41403 0
M  V30 785 C 71.6069 -1.66883 -3.94124 0
M  V30 786 C 70.9329 -1.11745 -5.22893 0
M  V30 787 C 72.2329 -3.06247 -4.23096 0
M  V30 788 H 73.9269 -1.97316 -2.25182 0
M  V30 789 H 71.4729 -0.950096 -1.08209 0
M  V30 790 H 73.4259 -0.48998 -4.18542 0
M  V30 791 H 72.1499 0.327557 -3.24953 0
M  V30 792 H 70.8089 -1.80416 -3.19133 0
M  V30 793 H 70.4569 -0.143527 -5.02795 0
M  V30 794 H 70.1569 -1.80672 -5.59134 0
M  V30 795 H 71.6809 -0.982067 -6.02651 0
M  V30 796 H 73.0949 -2.96001 -4.90975 0
M  V30 797 H 71.4919 -3.72436 -4.70544 0
M  V30 798 H 72.5619 -3.55041 -3.30263 0
M  V30 799 N 73.905 1.17692 -1.04816 0
M  V30 800 C 75.153 1.87488 -0.754497 0
M  V30 801 C 75.474 1.81205 0.720407 0
M  V30 802 O 74.744 1.23544 1.52032 0
M  V30 803 H 73.324 0.694101 -0.276102 0
M  V30 804 H 75.986 1.42793 -1.32651 0
M  V30 805 H 75.082 2.93328 -1.06606 0
M  V30 806 N 75.3831 0.828654 1.34056 0
M  V30 807 C 76.6321 0.415828 1.97367 0
M  V30 808 C 76.9451 -1.02796 1.6641 0
M  V30 809 O 78.1511 -1.54497 2.23255 0
M  V30 810 C 76.6071 0.692601 3.53173 0
M  V30 811 C 76.2151 2.15038 3.93017 0
M  V30 812 C 77.9591 0.346222 4.23086 0
M  V30 813 C 75.8661 2.37174 5.41758 0
M  V30 814 H 74.7961 0.151755 0.738571 0
M  V30 815 H 77.4471 1.01581 1.52819 0
M  V30 816 H 75.8291 0.0223764 3.95994 0
M  V30 817 H 77.0031 2.86024 3.61285 0
M  V30 818 H 75.3181 2.45875 3.36057 0
M  V30 819 H 77.9151 0.48937 5.32456 0
M  V30 820 H 78.2581 -0.709842 4.10204 0
M  V30 821 H 78.7911 0.971258 3.85761 0
M  V30 822 H 75.5301 3.41308 5.59633 0
M  V30 823 H 75.0501 1.70738 5.74986 0
M  V30 824 H 76.7291 2.19818 6.08514 0
M  V30 825 N 76.8612 -1.46375 0.584142 0
M  V30 826 C 77.7912 -2.33103 -0.136037 0
M  V30 827 C 78.7722 -1.45431 -0.882255 0
M  V30 828 O 79.9572 -1.74246 -0.857434 0
M  V30 829 C 77.0872 -3.27731 -1.14933 0
M  V30 830 C 76.0412 -4.24855 -0.517862 0
M  V30 831 C 75.3672 -5.09001 -1.63773 0
M  V30 832 C 76.6672 -5.19439 0.545886 0
M  V30 833 H 78.3612 -2.93568 0.588086 0
M  V30 834 H 75.9072 -1.41166 0.284259 0
M  V30 835 H 77.8602 -3.87261 -1.66153 0
M  V30 836 H 76.5842 -2.65377 -1.90375 0
M  V30 837 H 75.2432 -3.6659 -0.0267361 0
M  V30 838 H 74.8912 -4.43031 -2.38185 0
M  V30 839 H 74.5912 -5.74777 -1.22085 0
M  V30 840 H 76.1152 -5.71396 -2.15266 0
M  V30 841 H 77.5292 -5.73177 0.118704 0
M  V30 842 H 75.9262 -5.93566 0.88317 0
M  V30 843 H 76.9962 -4.63285 1.43162 0
M  V30 844 N 78.3393 -0.321999 -1.54275 0
M  V30 845 C 79.3023 0.531975 -2.22941 0
M  V30 846 C 80.3023 1.04478 -1.22234 0
M  V30 847 O 81.4923 0.937452 -1.46825 0
M  V30 848 C 78.6243 1.73874 -2.93224 0
M  V30 849 H 79.8173 -0.0682612 -2.99822 0
M  V30 850 H 77.3703 -0.0730644 -1.56129 0
M  V30 851 H 78.1053 2.37825 -2.20476 0
M  V30 852 H 77.8903 1.37847 -3.6707 0
M  V30 853 H 79.3803 2.34496 -3.45545 0
M  V30 854 N 79.8174 1.5752 -0.0501392 0
M  V30 855 C 81.0424 1.97376 0.636997 0
M  V30 856 C 81.4674 0.927466 1.63645 0
M  V30 857 O 80.8254 -0.10941 1.8097 0
M  V30 858 C 80.8734 3.36304 1.30123 0
M  V30 859 O 79.9774 3.34156 2.41689 0
M  V30 860 H 79.3184 0.642998 0.165679 0
M  V30 861 H 81.8484 2.04258 -0.118233 0
M  V30 862 H 81.8584 3.73008 1.65315 0
M  V30 863 H 80.5334 4.11993 0.568746 0
M  V30 864 H 79.1104 3.09196 2.08451 0
M  V30 865 N 81.2955 -0.223234 1.56011 0
M  V30 866 C 82.2255 -1.27988 1.95298 0
M  V30 867 C 83.2065 -1.48976 0.820979 0
M  V30 868 O 84.3915 -1.61188 1.08315 0
M  V30 869 C 81.5215 -2.63 2.26822 0
M  V30 870 C 80.4755 -2.56671 3.42497 0
M  V30 871 C 79.8015 -3.95697 3.59622 0
M  V30 872 C 81.1015 -2.11601 4.77517 0
M  V30 873 H 82.7955 -0.953525 2.8381 0
M  V30 874 H 80.3415 -0.457244 1.36548 0
M  V30 875 H 82.2945 -3.37077 2.52898 0
M  V30 876 H 81.0185 -2.9732 1.35161 0
M  V30 877 H 79.6775 -1.85051 3.16467 0
M  V30 878 H 79.3255 -4.27322 2.6534 0
M  V30 879 H 79.0255 -3.92345 4.37424 0
M  V30 880 H 80.5495 -4.71438 3.88044 0
M  V30 881 H 81.9635 -2.7542 5.02809 0
M  V30 882 H 80.3605 -2.19311 5.5859 0
M  V30 883 H 81.4305 -1.06824 4.72987 0
M  V30 884 N 82.7736 -1.49793 -0.48987 0
M  V30 885 C 84.0196 -1.60078 -1.24511 0
M  V30 886 C 84.3526 -0.291608 -1.91998 0
M  V30 887 O 83.6276 0.705647 -1.81248 0
M  V30 888 C 83.9106 -2.76791 -2.30345 0
M  V30 889 C 83.7636 -4.17535 -1.67286 0
M  V30 890 C 85.0826 -2.89111 -3.31817 0
M  V30 891 H 82.2016 -0.582645 -0.451324 0
M  V30 892 H 84.8436 -1.82117 -0.541612 0
M  V30 893 H 82.9936 -2.5813 -2.90346 0
M  V30 894 H 84.6656 -4.4774 -1.11026 0
M  V30 895 H 82.9086 -4.22665 -0.976577 0
M  V30 896 H 83.5796 -4.95094 -2.44103 0
M  V30 897 H 86.0556 -3.06133 -2.81819 0
M  V30 898 H 84.9316 -3.72433 -4.03219 0
M  V30 899 H 85.1926 -1.9893 -3.94815 0
M  V30 900 N 84.2517 0.741722 -1.39055 0
M  V30 901 C 85.1997 1.87702 -1.3737 0
M  V30 902 C 86.1937 1.67427 -0.257812 0
M  V30 903 O 87.3997 1.7485 -0.427489 0
M  V30 904 H 83.7747 0.617757 -0.428812 0
M  V30 905 H 85.7457 1.86239 -2.33147 0
M  V30 906 C 84.4947 3.25315 -1.22741 0
M  V30 907 H 83.8177 3.41509 -2.07873 0
M  V30 908 H 85.2577 4.04964 -1.25618 0
M  V30 909 C 83.7167 3.36838 0.0647316 0
M  V30 910 O 84.2467 3.88073 1.03741 0
M  V30 911 N 82.4527 2.90329 0.125544 0
M  V30 912 H 81.9997 2.48823 -0.666682 0
M  V30 913 H 81.9577 2.98418 0.989639 0
M  V30 914 N 85.7298 1.2412 0.971189 0
M  V30 915 C 86.9778 1.07668 1.71032 0
M  V30 916 C 87.2988 -0.385797 1.91146 0
M  V30 917 O 86.5688 -1.27569 1.4867 0
M  V30 918 H 85.1488 0.395429 0.633755 0
M  V30 919 H 87.8108 1.55984 1.16855 0
M  V30 920 H 86.9068 1.57195 2.69622 0
M  V30 921 N 87.2079 -1.17134 1.05439 0
M  V30 922 C 88.1709 -2.19439 0.661764 0
M  V30 923 C 89.1709 -1.58199 -0.288042 0
M  V30 924 O 90.3609 -1.74053 -0.0715803 0
M  V30 925 C 87.4929 -3.40889 -0.0276209 0
M  V30 926 H 88.6859 -2.55688 1.56728 0
M  V30 927 H 86.2389 -1.31259 0.848567 0
M  V30 928 H 86.9739 -3.10187 -0.94629 0
M  V30 929 H 86.7589 -3.86586 0.655238 0
M  V30 930 H 88.2489 -4.16603 -0.288342 0
M  V30 931 N 88.686 -0.835752 -1.33615 0
M  V30 932 C 89.926 -0.43599 -1.99696 0
M  V30 933 C 90.29 0.98557 -1.64774 0
M  V30 934 O 91.491 1.48889 -2.23798 0
M  V30 935 C 89.762 -0.646721 -3.515 0
M  V30 936 S 91.321 -0.341715 -4.37467 0
M  V30 937 H 88.139 -0.164136 -0.691795 0
M  V30 938 H 90.741 -1.08436 -1.62671 0
M  V30 939 H 89.445 -1.68077 -3.74404 0
M  V30 940 H 88.976 0.0159173 -3.93397 0
M  V30 941 H 90.991 0.839708 -4.89043 0
M  V30 942 N 90.1641 1.46063 -0.591896 0
M  V30 943 C 91.0941 2.33172 0.123673 0
M  V30 944 C 92.0751 1.45897 0.87453 0
M  V30 945 O 93.2601 1.74698 0.848181 0
M  V30 946 C 90.3901 3.28336 1.13194 0
M  V30 947 C 89.3441 4.25124 0.495324 0
M  V30 948 C 88.6701 5.09863 1.61071 0
M  V30 949 C 89.9701 5.19143 -0.573425 0
M  V30 950 H 91.6641 2.93252 -0.603646 0
M  V30 951 H 89.2101 1.41014 -0.291741 0
M  V30 952 H 91.1631 3.88137 1.64097 0
M  V30 953 H 89.8871 2.66383 1.88965 0
M  V30 954 H 88.5461 3.66599 0.00729452 0
M  V30 955 H 88.1941 4.44288 2.35832 0
M  V30 956 H 87.8941 5.75417 1.19035 0
M  V30 957 H 89.4181 5.72529 2.12233 0
M  V30 958 H 90.8321 5.73106 -0.1491 0
M  V30 959 H 89.2291 5.93089 -0.914636 0
M  V30 960 H 90.2991 4.62519 -1.45617 0
M  V30 961 N 91.6422 0.330177 1.54103 0
M  V30 962 C 93.0532 -0.15652 1.86043 0
M  V30 963 C 93.4042 -1.51086 1.2517 0
M  V30 964 O 92.5292 -2.09023 0.560217 0
M  V30 965 C 93.1242 -0.290784 3.3755 0
M  V30 966 C 91.6832 -0.721705 3.69416 0
M  V30 967 C 90.8302 0.152622 2.7688 0
M  V30 968 H 93.7812 0.550237 1.48856 0
M  V30 969 H 93.8022 -1.12058 3.63625 0
M  V30 970 H 93.3142 0.695068 3.81825 0
M  V30 971 H 91.4152 -1.71706 3.30678 0
M  V30 972 H 91.5282 -0.520869 4.7626 0
M  V30 973 H 89.8922 -0.372894 2.51956 0
M  V30 974 H 90.6752 1.13536 3.23982 0
M  V30 975 N 93.1203 -1.57491 0.0584922 0
M  V30 976 C 94.0503 -2.14988 -0.911178 0
M  V30 977 C 95.0313 -1.07343 -1.31952 0
M  V30 978 O 96.2163 -1.35318 -1.39294 0
M  V30 979 C 93.3463 -2.70078 -2.18347 0
M  V30 980 C 92.3003 -3.82771 -1.91495 0
M  V30 981 C 91.6263 -4.24408 -3.25241 0
M  V30 982 C 92.9263 -5.07592 -1.23075 0
M  V30 983 H 94.6203 -2.96263 -0.432246 0
M  V30 984 H 92.1663 -1.42512 -0.206469 0
M  V30 985 H 94.1193 -3.08943 -2.86587 0
M  V30 986 H 92.8433 -1.86005 -2.68458 0
M  V30 987 H 91.5023 -3.44389 -1.25664 0
M  V30 988 H 91.1503 -3.37275 -3.73168 0
M  V30 989 H 90.8503 -5.00366 -3.08071 0
M  V30 990 H 92.3743 -4.65879 -3.94701 0
M  V30 991 H 93.7883 -5.43857 -1.81362 0
M  V30 992 H 92.1853 -5.88741 -1.16207 0
M  V30 993 H 93.2553 -4.84454 -0.207847 0
M  V30 994 N 94.5984 0.214957 -1.56127 0
M  V30 995 C 95.5314 1.29382 -1.87977 0
M  V30 996 C 96.5094 1.44897 -0.737807 0
M  V30 997 O 97.6934 1.60605 -0.986833 0
M  V30 998 C 94.8204 2.66325 -2.09258 0
M  V30 999 C 93.8664 2.67789 -3.31951 0
M  V30 1000 S 94.6994 2.21198 -4.8768 0
M  V30 1001 C 95.8554 3.60003 -5.12004 0
M  V30 1002 H 96.0884 1.02173 -2.79192 0
M  V30 1003 H 93.6214 0.417516 -1.48648 0
M  V30 1004 H 95.5794 3.45162 -2.22201 0
M  V30 1005 H 94.2404 2.90755 -1.18829 0
M  V30 1006 H 93.4334 3.68436 -3.43906 0
M  V30 1007 H 93.0354 1.9702 -3.17898 0
M  V30 1008 H 95.3274 4.55739 -5.01307 0
M  V30 1009 H 96.2704 3.52959 -6.13861 0
M  V30 1010 H 96.6784 3.53996 -4.39712 0
M  V30 1011 N 96.0765 1.50051 0.48192 0
M  V30 1012 C 97.4875 1.5348 1.06305 0
M  V30 1013 C 97.8385 0.331997 1.93371 0
M  V30 1014 O 96.9635 -0.556256 2.09129 0
M  V30 1015 C 97.5585 2.7813 1.93466 0
M  V30 1016 C 96.1175 2.84275 2.46707 0
M  V30 1017 C 95.2645 2.47637 1.24785 0
M  V30 1018 H 98.2155 1.56472 0.264995 0
M  V30 1019 H 98.2365 2.59372 2.78399 0
M  V30 1020 H 97.7485 3.65654 1.30072 0
M  V30 1021 H 95.8495 2.01077 3.13686 0
M  V30 1022 H 95.9625 3.8691 2.82555 0
M  V30 1023 H 94.3265 1.99835 1.57918 0
M  V30 1024 H 95.1095 3.37457 0.630694 0
M  V30 1025 N 97.5546 -0.734337 1.39446 0
M  V30 1026 C 98.4846 -1.86155 1.40955 0
M  V30 1027 C 99.4656 -1.67898 0.272827 0
M  V30 1028 O 100.651 -1.88207 0.478743 0
M  V30 1029 C 97.7806 -3.23912 1.25294 0
M  V30 1030 C 96.7346 -3.56808 2.36373 0
M  V30 1031 C 96.0606 -4.93508 2.058 0
M  V30 1032 C 97.3606 -3.59713 3.78687 0
M  V30 1033 H 99.0546 -1.8515 2.35287 0
M  V30 1034 H 96.6006 -0.889367 1.13253 0
M  V30 1035 H 98.5536 -4.02443 1.2497 0
M  V30 1036 H 97.2776 -3.25446 0.274308 0
M  V30 1037 H 95.9366 -2.80606 2.35914 0
M  V30 1038 H 95.5846 -4.91623 1.06374 0
M  V30 1039 H 95.2846 -5.16486 2.80208 0
M  V30 1040 H 96.8086 -5.74396 2.07128 0
M  V30 1041 H 98.2226 -4.2832 3.81071 0
M  V30 1042 H 96.6196 -3.94209 4.52459 0
M  V30 1043 H 97.6896 -2.59504 4.09617 0
M  V30 1044 N 99.0327 -1.24633 -0.964593 0
M  V30 1045 C 100.279 -1.08949 -1.71049 0
M  V30 1046 C 100.612 0.370302 -1.90637 0
M  V30 1047 O 99.8867 1.27349 -1.47011 0
M  V30 1048 C 100.17 -1.83329 -3.0994 0
M  V30 1049 C 100.023 -3.37077 -2.97824 0
M  V30 1050 C 101.342 -1.60846 -4.09654 0
M  V30 1051 H 98.4607 -0.397178 -0.620821 0
M  V30 1052 H 101.103 -1.5334 -1.12191 0
M  V30 1053 H 99.2527 -1.45597 -3.60186 0
M  V30 1054 H 100.925 -3.84425 -2.5498 0
M  V30 1055 H 99.1677 -3.65298 -2.33965 0
M  V30 1056 H 99.8387 -3.84324 -3.96231 0
M  V30 1057 H 102.315 -1.93674 -3.68279 0
M  V30 1058 H 101.191 -2.1534 -5.04896 0
M  V30 1059 H 101.452 -0.547434 -4.38698 0
M  V30 1060 N 100.511 1.16574 -1.06058 0
M  V30 1061 C 101.441 2.23057 -0.690488 0
M  V30 1062 C 102.422 1.67141 0.315901 0
M  V30 1063 O 103.607 1.93253 0.191556 0
M  V30 1064 C 100.737 3.47222 -0.073625 0
M  V30 1065 C 99.6908 4.16016 -1.00573 0
M  V30 1066 C 99.0168 5.34104 -0.252289 0
M  V30 1067 C 100.317 4.67264 -2.33371 0
M  V30 1068 H 102.011 2.54271 -1.58072 0
M  V30 1069 H 99.5568 1.22218 -0.76149 0
M  V30 1070 H 101.51 4.20939 0.19714 0
M  V30 1071 H 100.234 3.15302 0.85161 0
M  V30 1072 H 98.8928 3.44223 -1.2612 0
M  V30 1073 H 98.5408 4.98437 0.675988 0
M  V30 1074 H 98.2408 5.81072 -0.873455 0
M  V30 1075 H 99.7648 6.10599 0.0109857 0
M  V30 1076 H 101.179 5.32573 -2.12223 0
M  V30 1077 H 99.5758 5.24843 -2.90963 0
M  V30 1078 H 100.646 3.83602 -2.96611 0
M  V30 1079 N 101.989 0.842826 1.3317 0
M  V30 1080 C 103.237 0.439577 1.97262 0
M  V30 1081 C 103.558 -1.00548 1.67078 0
M  V30 1082 O 102.828 -1.70098 0.971779 0
M  V30 1083 H 101.408 0.159558 0.72976 0
M  V30 1084 H 104.07 1.07665 1.62463 0
M  V30 1085 H 103.166 0.574886 3.0676 0
M  V30 1086 N 103.467 -1.45747 0.599634 0
M  V30 1087 C 104.377 -2.34262 -0.125888 0
M  V30 1088 C 105.393 -1.50768 -0.868625 0
M  V30 1089 O 106.569 -1.83592 -0.828003 0
M  V30 1090 C 103.634 -3.28252 -1.11587 0
M  V30 1091 C 102.695 -4.27651 -0.375956 0
M  V30 1092 C 101.928 -5.1715 -1.31877 0
M  V30 1093 O 102.151 -5.09916 -2.55621 0
M  V30 1094 O 101.085 -5.96286 -0.820157 0
M  V30 1095 H 104.911 -2.97688 0.601315 0
M  V30 1096 H 102.496 -1.44999 0.359934 0
M  V30 1097 H 104.378 -3.86191 -1.68626 0
M  V30 1098 H 103.053 -2.67401 -1.82424 0
M  V30 1099 H 101.96 -3.7335 0.236698 0
M  V30 1100 H 103.293 -4.91334 0.29177 0
M  V30 1101 N 104.945 -0.338344 -1.53925 0
M  V30 1102 C 105.878 0.563758 -2.21127 0
M  V30 1103 C 106.856 1.10433 -1.19345 0
M  V30 1104 O 108.04 1.16557 -1.48144 0
M  V30 1105 C 105.167 1.77505 -2.88461 0
M  V30 1106 C 104.213 1.3644 -4.04087 0
M  V30 1107 S 105.046 0.388593 -5.34088 0
M  V30 1108 C 106.202 1.60683 -6.04923 0
M  V30 1109 H 106.435 -0.00704546 -2.97299 0
M  V30 1110 H 103.968 -0.122418 -1.53914 0
M  V30 1111 H 105.926 2.46999 -3.27875 0
M  V30 1112 H 104.587 2.31706 -2.12064 0
M  V30 1113 H 103.78 2.26739 -4.50117 0
M  V30 1114 H 103.382 0.748998 -3.66423 0
M  V30 1115 H 105.674 2.54209 -6.28 0
M  V30 1116 H 106.617 1.18842 -6.98056 0
M  V30 1117 H 107.025 1.80052 -5.35015 0
M  V30 1118 N 106.423 1.57458 -0.0668435 0
M  V30 1119 C 107.648 1.9804 0.616027 0
M  V30 1120 C 108.073 0.944771 1.62652 0
M  V30 1121 O 107.431 -0.0902094 1.81075 0
M  V30 1122 C 107.479 3.37665 1.26549 0
M  V30 1123 O 106.583 3.36701 2.38131 0
M  V30 1124 H 105.924 0.644719 0.158849 0
M  V30 1125 H 108.454 2.04121 -0.139891 0
M  V30 1126 H 108.464 3.7474 1.6135 0
M  V30 1127 H 107.139 4.12573 0.525016 0
M  V30 1128 H 105.716 3.1139 2.0516 0
M  V30 1129 N 107.901 -0.206675 1.56239 0
M  V30 1130 C 109.178 -0.954051 1.70755 0
M  V30 1131 C 109.558 -2.01841 0.618353 0
M  V30 1132 O 108.906 -2.25444 -0.372434 0
M  V30 1133 C 109.116 -1.551 3.12642 0
M  V30 1134 C 110.464 -2.03757 3.72516 0
M  V30 1135 O 111.488 -1.64965 3.15698 0
M  V30 1136 O 110.347 -2.75103 4.72208 0
M  V30 1137 H 107.441 -0.446636 0.696021 0
M  V30 1138 H 109.987 -0.197283 1.68549 0
M  V30 1139 H 108.759 -0.783212 3.83382 0
M  V30 1140 H 108.382 -2.37291 3.19028 0
M  V30 1141 N 109.379 -1.50304 -0.473955 0
M  V30 1142 C 110.327 -1.69482 -1.59307 0
M  V30 1143 C 111.321 -0.560669 -1.59853 0
M  V30 1144 O 112.527 -0.741087 -1.64036 0
M  V30 1145 H 108.902 -0.534892 -0.528578 0
M  V30 1146 H 110.873 -2.63364 -1.40293 0
M  V30 1147 C 109.622 -1.80354 -2.97267 0
M  V30 1148 H 108.945 -2.67012 -2.97564 0
M  V30 1149 H 110.385 -1.97798 -3.75036 0
M  V30 1150 C 108.844 -0.55448 -3.32306 0
M  V30 1151 O 109.374 0.307661 -4.0052 0
M  V30 1152 N 107.58 -0.409354 -2.87702 0
M  V30 1153 H 107.127 -1.11196 -2.32364 0
M  V30 1154 H 107.085 0.425223 -3.11511 0
M  V30 1155 N 110.857 0.726932 -1.39834 0
M  V30 1156 C 111.787 1.85405 -1.41941 0
M  V30 1157 C 112.768 1.67751 -0.281728 0
M  V30 1158 O 113.953 1.8795 -0.488717 0
M  V30 1159 C 111.083 3.23243 -1.2701 0
M  V30 1160 C 110.037 3.55549 -2.38262 0
M  V30 1161 C 109.363 4.9241 -2.08415 0
M  V30 1162 C 110.663 3.577 -3.80589 0
M  V30 1163 H 112.357 1.83899 -2.36266 0
M  V30 1164 H 109.903 0.883349 -1.13723 0
M  V30 1165 H 111.856 4.01775 -1.27103 0
M  V30 1166 H 110.58 3.25296 -0.291564 0
M  V30 1167 H 109.239 2.79351 -2.37399 0
M  V30 1168 H 108.887 4.91052 -1.0898 0
M  V30 1169 H 108.587 5.14992 -2.82943 0
M  V30 1170 H 110.111 5.73289 -2.10171 0
M  V30 1171 H 111.525 4.26293 -3.83337 0
M  V30 1172 H 109.922 3.91804 -4.54543 0
M  V30 1173 H 110.992 2.57328 -4.10987 0
M  V30 1174 N 112.336 1.25143 0.95797 0
M  V30 1175 C 113.585 1.0909 1.69654 0
M  V30 1176 C 113.898 -0.368548 1.92097 0
M  V30 1177 O 115.104 -0.649455 2.63618 0
M  V30 1178 C 113.56 1.90395 3.05414 0
M  V30 1179 C 113.168 3.4081 2.90779 0
M  V30 1180 C 114.912 1.82901 3.83076 0
M  V30 1181 C 112.819 4.14423 4.21909 0
M  V30 1182 H 111.749 0.404625 0.636235 0
M  V30 1183 H 114.4 1.4931 1.06672 0
M  V30 1184 H 112.782 1.42996 3.69281 0
M  V30 1185 H 113.956 3.95859 2.35865 0
M  V30 1186 H 112.271 3.49361 2.26575 0
M  V30 1187 H 114.868 2.35196 4.80195 0
M  V30 1188 H 115.211 0.796224 4.08615 0
M  V30 1189 H 115.744 2.28033 3.25954 0
M  V30 1190 H 112.483 5.18102 4.01561 0
M  V30 1191 H 112.003 3.64159 4.76601 0
M  V30 1192 H 113.682 4.21956 4.90471 0
M  V30 1193 N 113.814 -1.1601 1.06675 0
M  V30 1194 C 115.039 -1.91068 0.806706 0
M  V30 1195 C 115.464 -1.77112 -0.633485 0
M  V30 1196 O 114.822 -1.09908 -1.44187 0
M  V30 1197 C 114.87 -3.39655 1.21106 0
M  V30 1198 O 113.974 -4.10893 0.352189 0
M  V30 1199 H 113.315 -0.595125 0.294486 0
M  V30 1200 H 115.845 -1.46955 1.42356 0
M  V30 1201 H 115.855 -3.90434 1.18428 0
M  V30 1202 H 114.53 -3.49132 2.26008 0
M  V30 1203 H 113.107 -3.70285 0.440868 0
M  V30 1204 N 115.292 -0.849877 -1.32721 0
M  V30 1205 C 116.54 -0.450032 -1.97026 0
M  V30 1206 C 116.861 0.996604 -1.67609 0
M  V30 1207 O 116.131 1.6958 -0.980786 0
M  V30 1208 H 114.711 -0.163426 -0.728904 0
M  V30 1209 H 117.373 -1.08526 -1.6189 0
M  V30 1210 H 116.469 -0.591146 -3.0645 0
M  V30 1211 N 116.77 1.45427 -0.607355 0
M  V30 1212 C 118.01 2.04128 -0.105458 0
M  V30 1213 C 118.374 1.46555 1.24039 0
M  V30 1214 O 119.575 1.96608 1.833 0
M  V30 1215 C 117.846 3.57338 -0.0665324 0
M  V30 1216 S 119.405 4.37201 0.374207 0
M  V30 1217 H 116.223 0.709278 -0.0494575 0
M  V30 1218 H 118.825 1.78139 -0.805404 0
M  V30 1219 H 117.529 3.96752 -1.04957 0
M  V30 1220 H 117.06 3.87902 0.655415 0
M  V30 1221 H 119.075 4.6888 1.62377 0
M  V30 1222 N 118.248 0.346503 1.53744 0
M  V30 1223 C 119.178 -0.501193 2.28058 0
M  V30 1224 C 120.159 -1.10014 1.29734 0
M  V30 1225 O 121.344 -1.12097 1.58581 0
M  V30 1226 C 118.474 -1.65078 3.05559 0
M  V30 1227 C 117.428 -1.18003 4.11411 0
M  V30 1228 C 116.754 -2.41837 4.76884 0
M  V30 1229 C 118.054 -0.278394 5.21558 0
M  V30 1230 H 119.748 0.11875 2.99164 0
M  V30 1231 H 117.294 0.0585531 1.43881 0
M  V30 1232 H 119.247 -2.25028 3.56287 0
M  V30 1233 H 117.971 -2.29767 2.32109 0
M  V30 1234 H 116.63 -0.603331 3.61601 0
M  V30 1235 H 116.278 -3.0494 4.00026 0
M  V30 1236 H 115.978 -2.1102 5.48402 0
M  V30 1237 H 117.502 -3.02508 5.30397 0
M  V30 1238 H 118.916 -0.784823 5.67903 0
M  V30 1239 H 117.313 -0.0619707 6.00068 0
M  V30 1240 H 118.383 0.684677 4.80042 0
M  V30 1241 N 119.726 -1.57421 0.075193 0
M  V30 1242 C 120.972 -1.93905 -0.594025 0
M  V30 1243 C 121.305 -0.955701 -1.69056 0
M  V30 1244 O 120.58 0.0145373 -1.94495 0
M  V30 1245 C 120.863 -3.40638 -1.1678 0
M  V30 1246 C 120.716 -4.49733 -0.0776792 0
M  V30 1247 C 122.035 -3.88259 -2.07228 0
M  V30 1248 H 119.154 -0.705105 -0.214466 0
M  V30 1249 H 121.796 -1.8947 0.141854 0
M  V30 1250 H 119.946 -3.44549 -1.79494 0
M  V30 1251 H 121.618 -4.57942 0.555573 0
M  V30 1252 H 119.861 -4.29751 0.591286 0
M  V30 1253 H 120.532 -5.49549 -0.519603 0
M  V30 1254 H 123.008 -3.86376 -1.54445 0
M  V30 1255 H 121.884 -4.91533 -2.44308 0
M  V30 1256 H 122.145 -3.26396 -2.98191 0
M  V30 1257 N 121.204 0.198386 -1.56346 0
M  V30 1258 C 122.136 1.26987 -1.90806 0
M  V30 1259 C 123.149 1.41877 -0.798419 0
M  V30 1260 O 124.338 1.42362 -1.07682 0
M  V30 1261 C 121.438 2.64246 -2.12196 0
M  V30 1262 C 120.611 2.71007 -3.43328 0
M  V30 1263 C 119.67 3.89439 -3.5387 0
M  V30 1264 O 118.696 3.76695 -4.26719 0
M  V30 1265 N 119.898 5.04752 -2.86715 0
M  V30 1266 H 122.663 0.977433 -2.83313 0
M  V30 1267 H 120.224 0.388322 -1.57174 0
M  V30 1268 H 122.216 3.41896 -2.1654 0
M  V30 1269 H 120.786 2.85992 -1.26204 0
M  V30 1270 H 120.006 1.79657 -3.50881 0
M  V30 1271 H 121.294 2.72512 -4.29668 0
M  V30 1272 H 120.692 5.18004 -2.2735 0
M  V30 1273 H 119.249 5.8036 -2.96691 0
M  V30 1274 N 122.682 1.50554 0.465978 0
M  V30 1275 C 123.91 1.65563 1.24083 0
M  V30 1276 C 124.325 0.341051 1.85694 0
M  V30 1277 O 123.682 -0.677543 1.69457 0
M  V30 1278 C 123.733 2.75051 2.34583 0
M  V30 1279 O 123.454 4.01413 1.75497 0
M  V30 1280 C 124.955 3.01078 3.25372 0
M  V30 1281 H 122.175 0.55638 0.375077 0
M  V30 1282 H 124.719 1.96807 0.555624 0
M  V30 1283 H 122.874 2.46486 2.9887 0
M  V30 1284 H 123.288 4.62002 2.48303 0
M  V30 1285 H 124.762 3.81339 3.99105 0
M  V30 1286 H 125.239 2.12349 3.84453 0
M  V30 1287 H 125.845 3.31194 2.66816 0
M  V30 1288 N 124.16 -0.719506 1.40217 0
M  V30 1289 C 125.108 -1.85493 1.40339 0
M  V30 1290 C 126.102 -1.66995 0.284415 0
M  V30 1291 O 127.308 -1.74148 0.455252 0
M  V30 1292 H 123.683 -0.610857 0.438586 0
M  V30 1293 H 125.654 -1.82506 2.36081 0
M  V30 1294 C 124.403 -3.23321 1.27901 0
M  V30 1295 H 123.726 -3.38159 2.1328 0
M  V30 1296 H 125.166 -4.02914 1.32045 0
M  V30 1297 C 123.625 -3.36898 -0.0111355 0
M  V30 1298 O 124.155 -3.89674 -0.975538 0
M  V30 1299 N 122.361 -2.90492 -0.0793393 0
M  V30 1300 H 121.908 -2.47731 0.706183 0
M  V30 1301 H 121.866 -2.99955 -0.942038 0
M  V30 1302 N 125.638 -1.25649 -0.95132 0
M  V30 1303 C 126.866 -1.13343 -1.73092 0
M  V30 1304 C 127.281 0.312434 -1.86197 0
M  V30 1305 O 126.638 1.21465 -1.36207 0
M  V30 1306 C 126.689 -1.78602 -3.14299 0
M  V30 1307 O 126.41 -3.17537 -3.01831 0
M  V30 1308 C 127.911 -1.72119 -4.08522 0
M  V30 1309 H 125.131 -0.395181 -0.542285 0
M  V30 1310 H 127.675 -1.66076 -1.19328 0
M  V30 1311 H 125.83 -1.29832 -3.64996 0
M  V30 1312 H 126.244 -3.49676 -3.90931 0
M  V30 1313 H 127.718 -2.22435 -5.052 0
M  V30 1314 H 128.195 -0.685635 -4.33815 0
M  V30 1315 H 128.801 -2.20393 -3.63741 0
M  V30 1316 N 127.117 1.15442 -1.07289 0
M  V30 1317 C 128.345 1.90096 -0.81676 0
M  V30 1318 C 128.76 1.7798 0.629966 0
M  V30 1319 O 128.117 1.1313 1.43206 0
M  V30 1320 C 128.168 3.40466 -1.21512 0
M  V30 1321 O 127.889 3.52232 -2.60508 0
M  V30 1322 C 129.39 4.32145 -0.988198 0
M  V30 1323 H 126.61 0.602495 -0.295366 0
M  V30 1324 H 129.154 1.4627 -1.42918 0
M  V30 1325 H 127.309 3.81958 -0.647039 0
M  V30 1326 H 127.723 4.45549 -2.76742 0
M  V30 1327 H 129.197 5.36072 -1.31645 0
M  V30 1328 H 129.674 4.39135 0.0755063 0
M  V30 1329 H 130.28 3.96395 -1.54115 0
M  V30 1330 N 128.595 0.856903 1.32268 0
M  V30 1331 C 129.543 0.291987 2.3076 0
M  V30 1332 C 130.537 -0.585857 1.58947 0
M  V30 1333 O 131.743 -0.47341 1.73663 0
M  V30 1334 H 128.118 0.075721 0.748178 0
M  V30 1335 H 130.089 1.13687 2.75895 0
M  V30 1336 C 128.838 -0.502869 3.44044 0
M  V30 1337 H 128.161 0.163328 3.99466 0
M  V30 1338 H 129.601 -0.863691 4.1511 0
M  V30 1339 C 128.06 -1.68898 2.91505 0
M  V30 1340 O 128.59 -2.78811 2.89184 0
M  V30 1341 N 126.796 -1.51679 2.47875 0
M  V30 1342 H 126.343 -0.622666 2.49961 0
M  V30 1343 H 126.301 -2.31184 2.13076 0
M  V30 1344 N 130.073 -1.45103 0.615059 0
M  V30 1345 C 131.303 -2.06254 0.119596 0
M  V30 1346 C 131.711 -1.4591 -1.20445 0
M  V30 1347 O 131.054 -0.570384 -1.7462 0
M  V30 1348 C 131.116 -3.59396 -0.0865591 0
M  V30 1349 C 130.78 -4.42116 1.15683 0
M  V30 1350 C 131.777 -4.7662 2.07676 0
M  V30 1351 C 129.462 -4.82749 1.38775 0
M  V30 1352 C 131.456 -5.50622 3.21082 0
M  V30 1353 C 129.143 -5.56504 2.52481 0
M  V30 1354 C 130.141 -5.90358 3.43463 0
M  V30 1355 O 129.829 -6.62615 4.55189 0
M  V30 1356 H 129.561 -0.672423 0.0694512 0
M  V30 1357 H 132.115 -1.87219 0.844885 0
M  V30 1358 H 130.345 -3.76859 -0.866823 0
M  V30 1359 H 132.034 -4.02365 -0.534555 0
M  V30 1360 H 132.8 -4.4578 1.91063 0
M  V30 1361 H 128.679 -4.55829 0.688545 0
M  V30 1362 H 132.223 -5.76965 3.92119 0
M  V30 1363 H 128.12 -5.86759 2.69043 0
M  V30 1364 H 128.888 -6.81071 4.53966 0
M  V30 1365 N 131.551 -0.354651 -1.53558 0
M  V30 1366 C 132.483 0.5315 -2.22952 0
M  V30 1367 C 133.496 1.05503 -1.23988 0
M  V30 1368 O 134.685 0.963279 -1.50277 0
M  V30 1369 C 131.785 1.74538 -2.90499 0
M  V30 1370 C 130.958 1.35524 -4.15875 0
M  V30 1371 C 130.017 2.42999 -4.66731 0
M  V30 1372 O 129.043 2.05844 -5.30676 0
M  V30 1373 N 130.245 3.74423 -4.43608 0
M  V30 1374 H 133.01 -0.0628615 -2.99634 0
M  V30 1375 H 130.571 -0.179302 -1.60904 0
M  V30 1376 H 132.563 2.45892 -3.21433 0
M  V30 1377 H 131.133 2.24686 -2.17336 0
M  V30 1378 H 130.353 0.471998 -3.91364 0
M  V30 1379 H 131.641 1.07071 -4.97406 0
M  V30 1380 H 131.039 4.07391 -3.92491 0
M  V30 1381 H 129.596 4.41913 -4.7912 0
M  V30 1382 N 133.029 1.57378 -0.0835403 0
M  V30 1383 C 133.977 2.14602 0.89714 0
M  V30 1384 C 134.971 1.08589 1.30018 0
M  V30 1385 O 136.177 1.26952 1.27606 0
M  V30 1386 H 132.552 0.686346 0.3073 0
M  V30 1387 H 134.523 2.95845 0.38969 0
M  V30 1388 C 133.272 2.73188 2.15089 0
M  V30 1389 H 132.595 3.54442 1.84962 0
M  V30 1390 H 134.035 3.1681 2.81793 0
M  V30 1391 C 132.494 1.68517 2.91725 0
M  V30 1392 O 133.024 1.11718 3.85852 0
M  V30 1393 N 131.23 1.39277 2.55049 0
M  V30 1394 H 130.777 1.85655 1.78577 0
M  V30 1395 H 130.735 0.694791 3.06627 0
M  V30 1396 N 134.507 -0.190092 1.56449 0
M  V30 1397 C 135.747 -0.916414 1.82705 0
M  V30 1398 C 136.111 -1.80235 0.661763 0
M  V30 1399 O 137.312 -2.56484 0.80433 0
M  V30 1400 C 135.583 -1.70691 3.14005 0
M  V30 1401 S 137.142 -2.48457 3.61683 0
M  V30 1402 H 133.96 -0.307281 0.64117 0
M  V30 1403 H 136.562 -0.179433 1.94675 0
M  V30 1404 H 135.266 -1.04677 3.96826 0
M  V30 1405 H 134.797 -2.48562 3.04927 0
M  V30 1406 H 136.812 -3.72756 3.27517 0
M  V30 1407 N 135.985 -1.50799 -0.457987 0
M  V30 1408 C 137.213 -1.66218 -1.23203 0
M  V30 1409 C 137.628 -0.350894 -1.85511 0
M  V30 1410 O 136.985 0.668546 -1.69814 0
M  V30 1411 C 137.036 -2.76291 -2.33121 0
M  V30 1412 O 136.757 -4.02338 -1.73366 0
M  V30 1413 C 138.258 -3.028 -3.2377 0
M  V30 1414 H 135.478 -0.558361 -0.372121 0
M  V30 1415 H 138.022 -1.97099 -0.545179 0
M  V30 1416 H 136.177 -2.48068 -2.97558 0
M  V30 1417 H 136.591 -4.63312 -2.4585 0
M  V30 1418 H 138.065 -3.8345 -3.97077 0
M  V30 1419 H 138.542 -2.14385 -3.83322 0
M  V30 1420 H 139.148 -3.32604 -2.65056 0
M  V30 1421 N 137.463 0.71206 -1.40597 0
M  V30 1422 C 138.395 1.83704 -1.37061 0
M  V30 1423 C 139.408 1.60453 -0.275426 0
M  V30 1424 O 140.597 1.70262 -0.53602 0
M  V30 1425 C 137.697 3.20172 -1.11099 0
M  V30 1426 C 136.87 3.7059 -2.3234 0
M  V30 1427 C 135.929 4.85681 -2.02485 0
M  V30 1428 O 134.955 4.9815 -2.75382 0
M  V30 1429 N 136.157 5.71735 -1.00497 0
M  V30 1430 H 138.922 1.87235 -2.34016 0
M  V30 1431 H 136.483 0.893739 -1.34996 0
M  V30 1432 H 138.475 3.94768 -0.891064 0
M  V30 1433 H 137.045 3.11767 -0.227989 0
M  V30 1434 H 136.265 2.87085 -2.7014 0
M  V30 1435 H 137.553 4.01011 -3.13157 0
M  V30 1436 H 136.951 5.64275 -0.401298 0
M  V30 1437 H 135.508 6.463 -0.844942 0
M  V30 1438 N 138.941 1.26152 0.944643 0
M  V30 1439 C 140.166 1.14363 1.7302 0
M  V30 1440 C 140.591 -0.29772 1.85729 0
M  V30 1441 O 139.949 -1.2157 1.34501 0
M  V30 1442 C 139.997 1.81378 3.11664 0
M  V30 1443 O 139.101 1.10022 3.97453 0
M  V30 1444 H 138.442 0.398694 0.53098 0
M  V30 1445 H 140.972 1.66906 1.18337 0
M  V30 1446 H 140.982 1.88064 3.62072 0
M  V30 1447 H 139.657 2.86237 3.0173 0
M  V30 1448 H 138.234 1.11287 3.55907 0
M  V30 1449 N 140.419 -1.14872 1.07899 0
M  V30 1450 C 141.351 -2.19425 0.662231 0
M  V30 1451 C 142.364 -1.60231 -0.288079 0
M  V30 1452 O 143.553 -1.78336 -0.076534 0
M  V30 1453 C 140.653 -3.38867 -0.0470695 0
M  V30 1454 C 139.826 -4.27597 0.920831 0
M  V30 1455 C 138.885 -5.25616 0.247805 0
M  V30 1456 O 137.911 -5.62189 0.890599 0
M  V30 1457 N 139.113 -5.71746 -1.00435 0
M  V30 1458 H 141.878 -2.55797 1.56166 0
M  V30 1459 H 139.439 -1.30042 0.964404 0
M  V30 1460 H 141.431 -4.01497 -0.50813 0
M  V30 1461 H 140.001 -3.00864 -0.848523 0
M  V30 1462 H 139.221 -3.61982 1.56087 0
M  V30 1463 H 140.509 -4.83748 1.57688 0
M  V30 1464 H 139.907 -5.44153 -1.54642 0
M  V30 1465 H 138.464 -6.36389 -1.40899 0
M  V30 1466 N 141.898 -0.863906 -1.31812 0
M  V30 1467 C 142.808 -0.318461 -2.32428 0
M  V30 1468 C 143.824 0.568496 -1.64451 0
M  V30 1469 O 145 0.46666 -1.95919 0
M  V30 1470 C 142.065 0.476355 -3.43412 0
M  V30 1471 C 141.126 -0.43784 -4.27061 0
M  V30 1472 C 140.359 0.319138 -5.32745 0
M  V30 1473 O 140.582 1.54799 -5.48993 0
M  V30 1474 O 139.516 -0.319861 -6.01049 0
M  V30 1475 H 143.342 -1.15229 -2.80991 0
M  V30 1476 H 140.927 -0.627103 -1.35602 0
M  V30 1477 H 142.809 0.927156 -4.11074 0
M  V30 1478 H 141.484 1.28683 -2.97022 0
M  V30 1479 H 140.391 -0.937013 -3.62175 0
M  V30 1480 H 141.724 -1.21375 -4.77 0
M  V30 1481 N 143.376 1.44774 -0.622745 0
M  V30 1482 C 144.323 2.30635 0.0871679 0
M  V30 1483 C 145.293 1.42994 0.845097 0
M  V30 1484 O 146.478 1.71907 0.827812 0
M  V30 1485 C 143.618 3.28144 1.06844 0
M  V30 1486 C 142.731 4.30888 0.309809 0
M  V30 1487 C 141.866 5.15494 1.28215 0
M  V30 1488 C 140.905 6.09953 0.512198 0
M  V30 1489 N 140.042 6.87287 1.43458 0
M  V30 1490 H 144.882 2.90803 -0.650974 0
M  V30 1491 H 142.419 1.43286 -0.33281 0
M  V30 1492 H 144.377 3.83157 1.65066 0
M  V30 1493 H 143.007 2.69695 1.77382 0
M  V30 1494 H 142.059 3.78414 -0.388181 0
M  V30 1495 H 143.371 4.97955 -0.290254 0
M  V30 1496 H 142.525 5.74983 1.93596 0
M  V30 1497 H 141.264 4.48481 1.91614 0
M  V30 1498 H 140.269 5.49581 -0.155151 0
M  V30 1499 H 141.494 6.78999 -0.116958 0
M  V30 1500 H 139.44 6.2295 2.05594 0
M  V30 1501 H 139.357 7.50763 0.888335 0
M  V30 1502 H 140.625 7.51306 2.07749 0
M  V30 1503 N 144.854 0.36279 1.53368 0
M  V30 1504 C 145.784 -0.476976 2.28576 0
M  V30 1505 C 146.765 -1.08631 1.30894 0
M  V30 1506 O 147.95 -1.10409 1.59761 0
M  V30 1507 C 145.08 -1.61828 3.07293 0
M  V30 1508 C 144.034 -1.13633 4.1264 0
M  V30 1509 C 143.36 -2.36766 4.79423 0
M  V30 1510 C 144.66 -0.223061 5.21823 0
M  V30 1511 H 146.354 0.150474 2.99022 0
M  V30 1512 H 143.9 0.0738103 1.43811 0
M  V30 1513 H 145.853 -2.21237 3.58653 0
M  V30 1514 H 144.577 -2.27292 2.34533 0
M  V30 1515 H 143.236 -0.564945 3.62221 0
M  V30 1516 H 142.884 -3.0068 4.03238 0
M  V30 1517 H 142.584 -2.05192 5.50609 0
M  V30 1518 H 144.108 -2.96865 5.33576 0
M  V30 1519 H 145.522 -0.724545 5.68703 0
M  V30 1520 H 143.919 0.001678 6.001 0
M  V30 1521 H 144.989 0.735553 4.79289 0
M  V30 1522 N 146.332 -1.57332 0.0918853 0
M  V30 1523 C 147.28 -2.15075 -0.885747 0
M  V30 1524 C 148.274 -1.09277 -1.29441 0
M  V30 1525 O 149.48 -1.27627 -1.26931 0
M  V30 1526 H 145.855 -0.687966 -0.303656 0
M  V30 1527 H 147.826 -2.96047 -0.373995 0
M  V30 1528 C 146.575 -2.74325 -2.13638 0
M  V30 1529 H 145.898 -3.55418 -1.8308 0
M  V30 1530 H 147.338 -3.183 -2.80109 0
M  V30 1531 C 145.797 -1.70062 -2.90827 0
M  V30 1532 O 146.327 -1.13763 -3.85254 0
M  V30 1533 N 144.533 -1.40628 -2.54307 0
M  V30 1534 H 144.08 -1.866 -1.7759 0
M  V30 1535 H 144.038 -0.711043 -3.06254 0
M  V30 1536 N 147.81 0.181792 -1.56548 0
M  V30 1537 C 148.72 1.24538 -1.98815 0
M  V30 1538 C 149.736 1.49045 -0.897861 0
M  V30 1539 O 150.912 1.61399 -1.20467 0
M  V30 1540 C 147.977 2.56683 -2.33055 0
M  V30 1541 C 147.038 2.40131 -3.55859 0
M  V30 1542 C 146.271 3.65975 -3.88456 0
M  V30 1543 O 146.494 4.70711 -3.22161 0
M  V30 1544 O 145.428 3.6071 -4.81842 0
M  V30 1545 H 149.254 0.916647 -2.89536 0
M  V30 1546 H 146.839 0.387842 -1.44278 0
M  V30 1547 H 148.721 3.34655 -2.56094 0
M  V30 1548 H 147.396 2.89157 -1.45498 0
M  V30 1549 H 146.303 1.60226 -3.38051 0
M  V30 1550 H 147.636 2.12585 -4.43924 0
M  V30 1551 N 149.288 1.51039 0.449983 0
M  V30 1552 C 150.565 1.53612 1.21089 0
M  V30 1553 C 150.945 0.292997 2.09057 0
M  V30 1554 O 150.293 -0.72259 2.16774 0
M  V30 1555 C 150.503 2.84337 2.0237 0
M  V30 1556 C 151.851 3.35807 2.59843 0
M  V30 1557 O 152.875 2.85802 2.12593 0
M  V30 1558 O 151.734 4.23029 3.45989 0
M  V30 1559 H 148.828 0.617057 0.550608 0
M  V30 1560 H 151.374 1.63344 0.460082 0
M  V30 1561 H 150.146 3.66278 1.37681 0
M  V30 1562 H 149.769 2.77708 2.84542 0
M  V30 1563 N 150.766 -0.704594 1.40972 0
M  V30 1564 C 151.699 -1.82861 1.36518 0
M  V30 1565 C 152.677 -1.6091 0.23382 0
M  V30 1566 O 153.861 -1.83778 0.419271 0
M  V30 1567 C 150.988 -3.1939 1.12729 0
M  V30 1568 C 150.034 -3.60148 2.28463 0
M  V30 1569 S 150.867 -3.65994 3.90907 0
M  V30 1570 C 152.023 -5.05264 3.69403 0
M  V30 1571 H 152.256 -1.86361 2.3164 0
M  V30 1572 H 149.789 -0.872439 1.27389 0
M  V30 1573 H 151.747 -3.98211 0.996893 0
M  V30 1574 H 150.408 -3.1351 0.192427 0
M  V30 1575 H 149.601 -4.59309 2.07489 0
M  V30 1576 H 149.203 -2.88612 2.37863 0
M  V30 1577 H 151.495 -5.92504 3.28551 0
M  V30 1578 H 152.438 -5.31278 4.68134 0
M  V30 1579 H 152.846 -4.76377 3.02862 0
M  V30 1580 N 152.244 -1.26651 -0.937939 0
M  V30 1581 C 153.472 -1.15173 -1.7188 0
M  V30 1582 C 153.887 0.292668 -1.86518 0
M  V30 1583 O 153.244 1.20014 -1.37488 0
M  V30 1584 C 153.295 -1.81925 -3.12387 0
M  V30 1585 O 153.016 -3.2072 -2.98446 0
M  V30 1586 C 154.517 -1.76442 -4.06673 0
M  V30 1587 H 151.737 -0.400911 -0.538063 0
M  V30 1588 H 154.281 -1.67332 -1.1756 0
M  V30 1589 H 152.436 -1.33696 -3.63599 0
M  V30 1590 H 152.85 -3.53802 -3.872 0
M  V30 1591 H 154.324 -2.27781 -5.02812 0
M  V30 1592 H 154.801 -0.731608 -4.33064 0
M  V30 1593 H 155.407 -2.24238 -3.61382 0
M  V30 1594 N 153.722 1.14298 -1.08507 0
M  V30 1595 C 154.652 2.21542 -0.737646 0
M  V30 1596 C 155.633 1.67773 0.280377 0
M  V30 1597 O 156.818 1.93616 0.150521 0
M  V30 1598 C 153.948 3.46988 -0.147259 0
M  V30 1599 C 152.902 4.13789 -1.09374 0
M  V30 1600 C 152.228 5.33449 -0.365524 0
M  V30 1601 C 153.528 4.62208 -2.4323 0
M  V30 1602 H 155.222 2.5086 -1.6343 0
M  V30 1603 H 152.768 1.20576 -0.787243 0
M  V30 1604 H 154.721 4.21262 0.107808 0
M  V30 1605 H 153.445 3.17037 0.784538 0
M  V30 1606 H 152.104 3.4147 -1.33393 0
M  V30 1607 H 151.752 4.99759 0.57011 0
M  V30 1608 H 151.452 5.79088 -0.996512 0
M  V30 1609 H 152.976 6.10485 -0.118534 0
M  V30 1610 H 154.39 5.27952 -2.23472 0
M  V30 1611 H 152.787 5.18553 -3.02031 0
M  V30 1612 H 153.857 3.77224 -3.04681 0
M  V30 1613 N 155.201 0.870884 1.31352 0
M  V30 1614 C 156.131 0.343096 2.30966 0
M  V30 1615 C 157.112 -0.566507 1.60389 0
M  V30 1616 O 158.297 -0.483336 1.88089 0
M  V30 1617 C 155.427 -0.455487 3.443 0
M  V30 1618 C 154.381 0.361103 4.26474 0
M  V30 1619 C 153.707 -0.563221 5.31725 0
M  V30 1620 C 155.007 1.59566 4.97329 0
M  V30 1621 H 156.701 1.17548 2.75359 0
M  V30 1622 H 154.247 0.566686 1.32381 0
M  V30 1623 H 156.2 -0.83525 4.13039 0
M  V30 1624 H 154.924 -1.32139 2.98675 0
M  V30 1625 H 153.583 0.722825 3.59403 0
M  V30 1626 H 153.231 -1.42643 4.82351 0
M  V30 1627 H 152.931 -0.0207409 5.87596 0
M  V30 1628 H 154.455 -0.939808 6.03324 0
M  V30 1629 H 155.869 1.28728 5.58661 0
M  V30 1630 H 154.266 2.07728 5.63 0
M  V30 1631 H 155.336 2.34798 4.24262 0
M  V30 1632 N 156.679 -1.44442 0.630414 0
M  V30 1633 C 157.907 -2.06414 0.141671 0
M  V30 1634 C 158.322 -1.47105 -1.18345 0
M  V30 1635 O 157.679 -0.593662 -1.72574 0
M  V30 1636 C 157.73 -3.61494 0.0199784 0
M  V30 1637 O 157.451 -4.18594 1.29269 0
M  V30 1638 C 158.952 -4.40499 -0.497544 0
M  V30 1639 H 156.172 -0.666292 0.0793452 0
M  V30 1640 H 158.716 -1.85323 0.864614 0
M  V30 1641 H 156.871 -3.8185 -0.653402 0
M  V30 1642 H 157.285 -5.12026 1.13707 0
M  V30 1643 H 158.759 -5.49433 -0.531708 0
M  V30 1644 H 159.236 -4.11895 -1.52445 0
M  V30 1645 H 159.842 -4.25061 0.142562 0
M  V30 1646 N 158.157 -0.370918 -1.53173 0
M  V30 1647 C 159.087 0.464847 -2.28826 0
M  V30 1648 C 160.068 1.07936 -1.31468 0
M  V30 1649 O 161.253 1.0956 -1.60344 0
M  V30 1650 C 158.383 1.60196 -3.08147 0
M  V30 1651 C 157.337 1.11443 -4.13237 0
M  V30 1652 C 156.663 2.3422 -4.80672 0
M  V30 1653 C 157.963 0.195384 -5.21934 0
M  V30 1654 H 159.657 -0.166329 -2.98938 0
M  V30 1655 H 157.203 -0.0814359 -1.4377 0
M  V30 1656 H 159.156 2.19332 -3.59822 0
M  V30 1657 H 157.88 2.26045 -2.35735 0
M  V30 1658 H 156.539 0.545727 -3.62515 0
M  V30 1659 H 156.187 2.98537 -4.04827 0
M  V30 1660 H 155.887 2.02269 -5.51689 0
M  V30 1661 H 157.411 2.94032 -5.35143 0
M  V30 1662 H 158.825 0.694375 -5.69079 0
M  V30 1663 H 157.222 -0.0335027 -6.00091 0
M  V30 1664 H 158.292 -0.760961 -4.78892 0
M  V30 1665 N 159.635 1.57281 -0.100228 0
M  V30 1666 C 160.865 1.98591 0.569681 0
M  V30 1667 C 161.273 0.978315 1.61943 0
M  V30 1668 O 160.616 -0.0396108 1.83657 0
M  V30 1669 C 160.678 3.36282 1.271 0
M  V30 1670 C 160.342 4.55488 0.371409 0
M  V30 1671 C 161.339 5.18491 -0.382504 0
M  V30 1672 C 159.024 5.01474 0.287965 0
M  V30 1673 C 161.018 6.25852 -1.20779 0
M  V30 1674 C 158.705 6.08701 -0.540965 0
M  V30 1675 C 159.703 6.70755 -1.28749 0
M  V30 1676 O 159.391 7.75914 -2.10269 0
M  V30 1677 H 159.123 0.65752 0.156982 0
M  V30 1678 H 161.677 2.0463 -0.177734 0
M  V30 1679 H 159.907 3.26941 2.0651 0
M  V30 1680 H 161.596 3.62005 1.83595 0
M  V30 1681 H 162.362 4.83891 -0.3278 0
M  V30 1682 H 158.241 4.52932 0.858689 0
M  V30 1683 H 161.785 6.74218 -1.79096 0
M  V30 1684 H 157.682 6.42732 -0.597131 0
M  V30 1685 H 158.45 7.92925 -2.03007 0
M  V30 1686 N 161.113 -0.173488 1.56642 0
M  V30 1687 C 162.343 -0.904781 1.85734 0
M  V30 1688 C 162.751 -1.76431 0.68328 0
M  V30 1689 O 162.094 -1.802 -0.356865 0
M  V30 1690 C 162.156 -1.83382 3.09211 0
M  V30 1691 C 161.82 -1.15411 4.42187 0
M  V30 1692 C 162.817 -0.520609 5.17287 0
M  V30 1693 C 160.502 -1.15151 4.88923 0
M  V30 1694 C 162.496 0.106412 6.37311 0
M  V30 1695 C 160.183 -0.520664 6.08878 0
M  V30 1696 C 161.181 0.107196 6.82916 0
M  V30 1697 O 160.869 0.728102 8.00596 0
M  V30 1698 H 160.601 -0.268408 0.62043 0
M  V30 1699 H 163.155 -0.179096 2.04618 0
M  V30 1700 H 161.385 -2.59976 2.86268 0
M  V30 1701 H 163.074 -2.43476 3.24768 0
M  V30 1702 H 163.84 -0.514606 4.82262 0
M  V30 1703 H 159.719 -1.62961 4.31236 0
M  V30 1704 H 163.263 0.597081 6.9504 0
M  V30 1705 H 159.16 -0.524242 6.43368 0
M  V30 1706 H 159.928 0.627138 8.16094 0
M  V30 1707 N 162.591 -1.51276 -0.441967 0
M  V30 1708 C 163.837 -1.63958 -1.19355 0
M  V30 1709 C 164.17 -0.352543 -1.90973 0
M  V30 1710 O 163.445 0.647627 -1.83401 0
M  V30 1711 C 163.728 -2.83979 -2.21422 0
M  V30 1712 C 163.581 -4.22646 -1.53918 0
M  V30 1713 C 164.9 -2.99521 -3.22451 0
M  V30 1714 H 162.019 -0.596709 -0.432559 0
M  V30 1715 H 164.661 -1.83748 -0.483398 0
M  V30 1716 H 162.811 -2.67237 -2.81987 0
M  V30 1717 H 164.483 -4.51045 -0.967256 0
M  V30 1718 H 162.726 -4.25558 -0.841615 0
M  V30 1719 H 163.397 -5.02609 -2.28229 0
M  V30 1720 H 165.873 -3.14944 -2.71937 0
M  V30 1721 H 164.749 -3.85072 -3.91166 0
M  V30 1722 H 165.01 -2.11391 -3.88287 0
M  V30 1723 N 164.069 0.697108 -1.41344 0
M  V30 1724 C 165.317 1.45426 -1.40341 0
M  V30 1725 C 165.638 1.94996 -0.0128787 0
M  V30 1726 O 164.908 1.71599 0.945027 0
M  V30 1727 H 163.488 0.539594 -0.516573 0
M  V30 1728 H 166.15 0.825201 -1.76569 0
M  V30 1729 H 165.246 2.31817 -2.08967 0
M  V30 1730 N 165.547 1.27147 0.931209 0
M  V30 1731 C 166.796 1.12664 1.67302 0
M  V30 1732 C 167.109 -0.327718 1.92835 0
M  V30 1733 O 168.315 -0.593392 2.64936 0
M  V30 1734 C 166.771 1.9683 3.01307 0
M  V30 1735 C 166.379 3.46901 2.83485 0
M  V30 1736 C 168.123 1.90985 3.79111 0
M  V30 1737 C 166.03 4.23279 4.13024 0
M  V30 1738 H 164.96 0.41803 0.627509 0
M  V30 1739 H 167.611 1.51539 1.03481 0
M  V30 1740 H 165.993 1.50797 3.66164 0
M  V30 1741 H 167.167 4.00773 2.27415 0
M  V30 1742 H 165.482 3.54088 2.19113 0
M  V30 1743 H 168.079 2.45328 4.75098 0
M  V30 1744 H 168.422 0.882718 4.06834 0
M  V30 1745 H 168.955 2.34895 3.21044 0
M  V30 1746 H 165.694 5.26503 3.90481 0
M  V30 1747 H 165.214 3.74186 4.6877 0
M  V30 1748 H 166.893 4.32265 4.81411 0
M  V30 1749 N 167.025 -1.13721 1.09112 0
M  V30 1750 C 168.273 -1.84559 0.823562 0
M  V30 1751 C 168.594 -1.83754 -0.652658 0
M  V30 1752 O 167.864 -1.29102 -1.47342 0
M  V30 1753 H 166.444 -0.683376 0.301673 0
M  V30 1754 H 169.106 -1.37771 1.37859 0
M  V30 1755 H 168.202 -2.8917 1.17419 0
M  V30 1756 N 168.503 -0.877838 -1.30888 0
M  V30 1757 C 169.749 -0.493426 -1.96706 0
M  V30 1758 C 170.082 0.953504 -1.6918 0
M  V30 1759 O 169.357 1.67266 -0.992594 0
M  V30 1760 C 169.64 -0.760429 -3.51979 0
M  V30 1761 C 169.493 -2.25747 -3.89048 0
M  V30 1762 C 170.812 -0.232148 -4.39487 0
M  V30 1763 H 167.931 -0.180746 -0.714493 0
M  V30 1764 H 170.573 -1.10052 -1.54882 0
M  V30 1765 H 168.723 -0.243715 -3.87735 0
M  V30 1766 H 170.395 -2.84204 -3.63354 0
M  V30 1767 H 168.638 -2.72694 -3.37373 0
M  V30 1768 H 169.309 -2.39491 -4.97341 0
M  V30 1769 H 171.785 -0.674314 -4.106 0
M  V30 1770 H 170.661 -0.448355 -5.47066 0
M  V30 1771 H 170.922 0.866297 -4.33529 0
M  V30 1772 N 169.982 1.44106 -0.638065 0
M  V30 1773 C 170.945 2.29138 0.0531013 0
M  V30 1774 C 171.945 1.41409 0.765506 0
M  V30 1775 O 173.135 1.63206 0.609046 0
M  V30 1776 C 170.267 3.23144 1.08584 0
M  V30 1777 H 171.46 2.91739 -0.694883 0
M  V30 1778 H 169.013 1.51134 -0.398538 0
M  V30 1779 H 169.748 2.65408 1.86357 0
M  V30 1780 H 169.533 3.87804 0.578852 0
M  V30 1781 H 171.023 3.87004 1.56899 0
M  V30 1782 N 171.46 0.379036 1.52974 0
M  V30 1783 C 172.423 -0.448865 2.24762 0
M  V30 1784 C 173.423 -0.998689 1.26027 0
M  V30 1785 O 174.613 -0.882313 1.50203 0
M  V30 1786 C 171.745 -1.62872 2.99476 0
M  V30 1787 H 172.938 0.179491 2.99362 0
M  V30 1788 H 170.491 0.13096 1.5575 0
M  V30 1789 H 171.226 -2.29479 2.29151 0
M  V30 1790 H 171.011 -1.24128 3.71934 0
M  V30 1791 H 172.501 -2.2151 3.5401 0
M  V30 1792 N 172.938 -1.57226 0.108567 0
M  V30 1793 C 173.868 -2.17778 -0.84232 0
M  V30 1794 C 174.849 -1.11487 -1.2847 0
M  V30 1795 O 176.034 -1.39681 -1.34918 0
M  V30 1796 C 173.164 -2.76888 -2.09644 0
M  V30 1797 C 172.118 -3.88669 -1.79221 0
M  V30 1798 C 171.444 -4.34541 -3.11574 0
M  V30 1799 C 172.744 -5.11251 -1.06864 0
M  V30 1800 H 174.438 -2.97489 -0.337774 0
M  V30 1801 H 171.984 -1.43097 -0.161025 0
M  V30 1802 H 173.937 -3.17904 -2.76614 0
M  V30 1803 H 172.661 -1.94451 -2.62405 0
M  V30 1804 H 171.32 -3.48213 -1.14644 0
M  V30 1805 H 170.968 -3.48977 -3.62249 0
M  V30 1806 H 170.668 -5.09914 -2.91996 0
M  V30 1807 H 172.192 -4.782 -3.7968 0
M  V30 1808 H 173.606 -5.49352 -1.63968 0
M  V30 1809 H 172.003 -5.9214 -0.974178 0
M  V30 1810 H 173.073 -4.8487 -0.0536168 0
M  V30 1811 N 174.416 0.165178 -1.56732 0
M  V30 1812 C 175.665 0.879143 -1.81532 0
M  V30 1813 C 175.978 1.83144 -0.686842 0
M  V30 1814 O 177.184 2.58823 -0.819944 0
M  V30 1815 C 175.64 1.61388 -3.21686 0
M  V30 1816 C 175.248 0.704904 -4.4242 0
M  V30 1817 C 176.992 2.3157 -3.55774 0
M  V30 1818 C 174.899 1.44022 -5.73595 0
M  V30 1819 H 173.829 0.332033 -0.676957 0
M  V30 1820 H 176.48 0.132008 -1.83025 0
M  V30 1821 H 174.862 2.40599 -3.14529 0
M  V30 1822 H 176.036 -0.0506815 -4.60772 0
M  V30 1823 H 174.351 0.112419 -4.16248 0
M  V30 1824 H 176.948 2.8719 -4.51028 0
M  V30 1825 H 177.291 3.07201 -2.8095 0
M  V30 1826 H 177.824 1.59297 -3.64513 0
M  V30 1827 H 174.563 0.72612 -6.51466 0
M  V30 1828 H 174.083 2.16898 -5.5921 0
M  V30 1829 H 175.762 1.98606 -6.15764 0
M  V30 1830 N 175.894 1.51508 0.433938 0
M  V30 1831 C 177.141 1.64345 1.18309 0
M  V30 1832 C 177.469 0.361315 1.91115 0
M  V30 1833 O 176.724 -0.654753 1.84422 0
M  V30 1834 C 177.023 2.79928 2.22205 0
M  V30 1835 C 176.689 4.19078 1.66387 0
M  V30 1836 C 175.351 4.56932 1.50887 0
M  V30 1837 C 177.703 5.05894 1.25381 0
M  V30 1838 C 175.031 5.79305 0.928608 0
M  V30 1839 C 177.383 6.2885 0.687823 0
M  V30 1840 C 176.047 6.65473 0.519755 0
M  V30 1841 H 175.317 0.601381 0.432923 0
M  V30 1842 H 177.964 1.85549 0.473676 0
M  V30 1843 H 176.269 2.52959 2.99197 0
M  V30 1844 H 177.966 2.87059 2.79997 0
M  V30 1845 H 174.556 3.89234 1.79428 0
M  V30 1846 H 178.74 4.77253 1.36175 0
M  V30 1847 H 173.996 6.06324 0.786186 0
M  V30 1848 H 178.17 6.95461 0.361581 0
M  V30 1849 H 175.797 7.6017 0.0679979 0
M  V30 1850 N 177.372 -0.689602 1.41712 0
M  V30 1851 C 178.62 -1.4468 1.4111 0
M  V30 1852 C 178.941 -1.94986 0.0232196 0
M  V30 1853 O 178.211 -1.72097 -0.935913 0
M  V30 1854 H 176.791 -0.536847 0.519427 0
M  V30 1855 H 179.453 -0.815825 1.77004 0
M  V30 1856 H 178.549 -2.30706 2.10193 0
M  V30 1857 N 178.85 -1.27639 -0.924453 0
M  V30 1858 C 180.08 -1.16819 -1.70402 0
M  V30 1859 C 180.488 0.277191 -1.87158 0
M  V30 1860 O 179.831 1.20025 -1.39067 0
M  V30 1861 C 179.893 -1.78305 -3.12166 0
M  V30 1862 C 179.557 -3.27502 -3.18734 0
M  V30 1863 C 180.554 -4.2409 -3.00738 0
M  V30 1864 C 178.239 -3.68269 -3.4159 0
M  V30 1865 C 180.233 -5.59422 -3.05492 0
M  V30 1866 C 177.92 -5.0373 -3.45977 0
M  V30 1867 C 178.918 -5.99116 -3.27946 0
M  V30 1868 O 178.606 -7.32108 -3.32074 0
M  V30 1869 H 178.338 -0.406931 -0.539799 0
M  V30 1870 H 180.892 -1.69078 -1.16626 0
M  V30 1871 H 179.122 -1.20528 -3.67437 0
M  V30 1872 H 180.811 -1.62154 -3.72103 0
M  V30 1873 H 181.577 -3.93931 -2.82919 0
M  V30 1874 H 177.456 -2.94496 -3.54673 0
M  V30 1875 H 181 -6.33852 -2.91337 0
M  V30 1876 H 176.897 -5.33543 -3.63321 0
M  V30 1877 H 177.665 -7.40598 -3.48507 0
M  V30 1878 N 180.328 1.1314 -1.09713 0
M  V30 1879 C 181.577 1.83838 -0.829851 0
M  V30 1880 C 181.89 1.84599 0.646728 0
M  V30 1881 O 183.096 2.51218 1.02965 0
M  V30 1882 C 181.552 3.30069 -1.43466 0
M  V30 1883 C 181.16 3.37688 -2.94399 0
M  V30 1884 C 182.904 4.05788 -1.24645 0
M  V30 1885 C 180.811 4.78209 -3.47952 0
M  V30 1886 H 179.741 0.68877 -0.306777 0
M  V30 1887 H 182.392 1.27448 -1.3202 0
M  V30 1888 H 180.774 3.8628 -0.871996 0
M  V30 1889 H 181.948 2.91456 -3.56918 0
M  V30 1890 H 180.263 2.75436 -3.12289 0
M  V30 1891 H 182.86 5.09535 -1.62107 0
M  V30 1892 H 183.203 4.15878 -0.187357 0
M  V30 1893 H 183.736 3.55915 -1.77678 0
M  V30 1894 H 180.475 4.73311 -4.53495 0
M  V30 1895 H 179.995 5.24924 -2.90198 0
M  V30 1896 H 181.674 5.47133 -3.45332 0
M  V30 1897 N 181.806 0.884767 1.30421 0
M  V30 1898 C 182.738 0.308655 2.27112 0
M  V30 1899 C 183.751 -0.536655 1.53701 0
M  V30 1900 O 184.94 -0.35624 1.74909 0
M  V30 1901 C 182.04 -0.579782 3.33904 0
M  V30 1902 C 181.213 0.236417 4.36761 0
M  V30 1903 C 180.272 -0.582482 5.22966 0
M  V30 1904 O 179.298 -0.00525502 5.692 0
M  V30 1905 N 180.5 -1.89163 5.48815 0
M  V30 1906 H 183.265 1.13964 2.77186 0
M  V30 1907 H 180.826 0.747731 1.43599 0
M  V30 1908 H 182.818 -1.13366 3.88497 0
M  V30 1909 H 181.388 -1.31144 2.83761 0
M  V30 1910 H 180.608 0.97174 3.82035 0
M  V30 1911 H 181.896 0.795924 5.02536 0
M  V30 1912 H 181.294 -2.38352 5.13035 0
M  V30 1913 H 179.851 -2.39296 6.06284 0
M  V30 1914 N 183.284 -1.43765 0.645699 0
M  V30 1915 C 184.533 -2.01116 0.153412 0
M  V30 1916 C 184.846 -1.51493 -1.23731 0
M  V30 1917 O 186.052 -2.01067 -1.8244 0
M  V30 1918 C 184.508 -3.59206 0.223473 0
M  V30 1919 C 184.116 -4.17823 1.61642 0
M  V30 1920 C 185.86 -4.23972 -0.211597 0
M  V30 1921 C 183.767 -5.68183 1.64081 0
M  V30 1922 H 182.697 -0.752093 0.0535891 0
M  V30 1923 H 185.348 -1.6482 0.806633 0
M  V30 1924 H 183.73 -3.92867 -0.497118 0
M  V30 1925 H 184.904 -3.95674 2.36176 0
M  V30 1926 H 183.219 -3.65399 1.99681 0
M  V30 1927 H 185.816 -5.34275 -0.213112 0
M  V30 1928 H 186.159 -3.97352 -1.24165 0
M  V30 1929 H 186.692 -3.95166 0.456988 0
M  V30 1930 H 183.431 -5.99559 2.64971 0
M  V30 1931 H 182.951 -5.9241 0.938611 0
M  V30 1932 H 184.63 -6.32085 1.3812 0
M  V30 1933 N 184.763 -0.387143 -1.52771 0
M  V30 1934 C 185.988 0.198407 -2.06449 0
M  V30 1935 C 186.413 1.39918 -1.25716 0
M  V30 1936 O 185.771 1.79099 -0.281657 0
M  V30 1937 C 185.819 0.548893 -3.56398 0
M  V30 1938 O 184.923 1.64315 -3.78252 0
M  V30 1939 H 184.264 0.0237731 -0.663574 0
M  V30 1940 H 186.794 -0.553989 -1.96957 0
M  V30 1941 H 186.804 0.813812 -3.99801 0
M  V30 1942 H 185.479 -0.329005 -4.14597 0
M  V30 1943 H 184.056 1.37211 -3.46738 0
M  V30 1944 N 186.241 1.57166 -0.116904 0
M  V30 1945 C 187.171 2.18222 0.830759 0
M  V30 1946 C 188.152 1.12167 1.27877 0
M  V30 1947 O 189.337 1.40394 1.34176 0
M  V30 1948 C 186.467 2.77996 2.08172 0
M  V30 1949 C 185.421 3.89614 1.77157 0
M  V30 1950 C 184.747 4.36187 3.09265 0
M  V30 1951 C 186.047 5.1181 1.04151 0
M  V30 1952 H 187.741 2.97664 0.321992 0
M  V30 1953 H 185.287 1.4318 0.153434 0
M  V30 1954 H 187.24 3.19366 2.74924 0
M  V30 1955 H 185.964 1.9584 2.6137 0
M  V30 1956 H 184.623 3.48816 1.12796 0
M  V30 1957 H 184.271 3.50893 3.60393 0
M  V30 1958 H 183.971 5.11455 2.89288 0
M  V30 1959 H 185.495 4.80207 3.77139 0
M  V30 1960 H 186.909 5.50214 1.61052 0
M  V30 1961 H 185.306 5.92648 0.942762 0
M  V30 1962 H 186.376 4.84892 0.0279022 0
M  V30 1963 N 187.719 -0.156864 1.56817 0
M  V30 1964 C 188.965 -0.867645 1.83966 0
M  V30 1965 C 189.32 -1.79233 0.699511 0
M  V30 1966 O 188.613 -1.89186 -0.303176 0
M  V30 1967 C 188.807 -1.68737 3.1506 0
M  V30 1968 C 188.636 -0.843548 4.41718 0
M  V30 1969 C 187.406 -0.512994 5.02689 0
M  V30 1970 C 189.604 -0.178416 5.1399 0
M  V30 1971 N 187.586 0.345456 6.12927 0
M  V30 1972 C 188.957 0.540586 6.17639 0
M  V30 1973 C 191.012 -0.0980696 4.97803 0
M  V30 1974 C 189.715 1.33233 7.06853 0
M  V30 1975 C 191.741 0.680387 5.87473 0
M  V30 1976 C 191.103 1.3877 6.90596 0
M  V30 1977 H 187.202 -0.295642 0.723961 0
M  V30 1978 H 189.786 -0.13365 1.94241 0
M  V30 1979 H 187.957 -2.39268 3.0595 0
M  V30 1980 H 189.689 -2.34056 3.30151 0
M  V30 1981 H 186.444 -0.846476 4.65974 0
M  V30 1982 H 186.868 0.765415 6.72659 0
M  V30 1983 H 191.51 -0.630562 4.18071 0
M  V30 1984 H 189.228 1.87612 7.8602 0
M  V30 1985 H 192.814 0.744415 5.77018 0
M  V30 1986 H 191.694 1.9804 7.58782 0
M  V30 1987 N 189.197 -1.51736 -0.425897 0
M  V30 1988 C 190.446 -1.64201 -1.17136 0
M  V30 1989 C 190.759 -0.369705 -1.92074 0
M  V30 1990 O 191.965 -0.373898 -2.68913 0
M  V30 1991 C 190.421 -2.90035 -2.13091 0
M  V30 1992 C 190.029 -4.24312 -1.43747 0
M  V30 1993 C 191.773 -3.1186 -2.87999 0
M  V30 1994 C 189.68 -5.41285 -2.38253 0
M  V30 1995 H 188.61 -0.611624 -0.440944 0
M  V30 1996 H 191.261 -1.78212 -0.437328 0
M  V30 1997 H 189.643 -2.69684 -2.89977 0
M  V30 1998 H 190.817 -4.55086 -0.723408 0
M  V30 1999 H 189.132 -4.08456 -0.809465 0
M  V30 2000 H 191.729 -3.96427 -3.58817 0
M  V30 2001 H 192.072 -2.25403 -3.49999 0
M  V30 2002 H 192.605 -3.32605 -2.18217 0
M  V30 2003 H 189.344 -6.30037 -1.80925 0
M  V30 2004 H 188.864 -5.14872 -3.0768 0
M  V30 2005 H 190.543 -5.73694 -2.99139 0
M  V30 2006 N 190.675 0.682077 -1.42076 0
M  V30 2007 C 191.924 1.43786 -1.41451 0
M  V30 2008 C 192.237 1.95574 -0.0317074 0
M  V30 2009 O 193.443 2.71326 0.0971462 0
M  V30 2010 C 191.899 2.60071 -2.48779 0
M  V30 2011 C 191.507 2.15013 -3.93031 0
M  V30 2012 C 193.251 3.37626 -2.57311 0
M  V30 2013 C 191.158 3.28336 -4.91883 0
M  V30 2014 H 190.088 0.540143 -0.526082 0
M  V30 2015 H 192.739 0.739157 -1.67955 0
M  V30 2016 H 191.121 3.32275 -2.15429 0
M  V30 2017 H 192.295 1.5001 -4.35699 0
M  V30 2018 H 190.61 1.50416 -3.88284 0
M  V30 2019 H 193.207 4.22012 -3.28345 0
M  V30 2020 H 193.55 3.83727 -1.61429 0
M  V30 2021 H 194.083 2.72488 -2.89819 0
M  V30 2022 H 190.822 2.87234 -5.89217 0
M  V30 2023 H 190.342 3.92145 -4.53853 0
M  V30 2024 H 192.021 3.93913 -5.13265 0
M  V30 2025 N 192.153 1.28127 0.917671 0
M  V30 2026 C 193.381 1.17892 1.70026 0
M  V30 2027 C 193.796 -0.262958 1.8696 0
M  V30 2028 O 193.153 -1.17811 1.3938 0
M  V30 2029 C 193.204 1.86872 3.09453 0
M  V30 2030 O 192.925 3.25428 2.93306 0
M  V30 2031 C 194.426 1.8289 4.03815 0
M  V30 2032 H 191.646 0.40942 0.531617 0
M  V30 2033 H 194.19 1.69181 1.14883 0
M  V30 2034 H 192.345 1.39464 3.61426 0
M  V30 2035 H 192.759 3.59918 3.81523 0
M  V30 2036 H 194.233 2.35751 4.99125 0
M  V30 2037 H 194.71 0.800412 4.31845 0
M  V30 2038 H 195.316 2.29959 3.57769 0
M  V30 2039 N 193.631 -1.12557 1.10312 0
M  V30 2040 C 194.594 -2.16434 0.75424 0
M  V30 2041 C 195.594 -1.59278 -0.220685 0
M  V30 2042 O 196.784 -1.742 0.00230591 0
M  V30 2043 C 193.916 -3.40699 0.116987 0
M  V30 2044 H 195.109 -2.48811 1.67431 0
M  V30 2045 H 192.662 -1.27542 0.903475 0
M  V30 2046 H 193.397 -3.13921 -0.813877 0
M  V30 2047 H 193.182 -3.83459 0.818613 0
M  V30 2048 H 194.672 -4.17451 -0.111387 0
M  V30 2049 N 195.109 -0.891671 -1.2995 0
M  V30 2050 C 196.072 -0.36828 -2.26222 0
M  V30 2051 C 197.072 0.493014 -1.53056 0
M  V30 2052 O 198.262 0.299213 -1.71611 0
M  V30 2053 C 195.394 0.47442 -3.37583 0
M  V30 2054 H 196.587 -1.21844 -2.74033 0
M  V30 2055 H 194.14 -0.669107 -1.41254 0
M  V30 2056 H 194.875 1.34489 -2.95099 0
M  V30 2057 H 194.66 -0.142615 -3.91841 0
M  V30 2058 H 196.15 0.83218 -4.09224 0
M  V30 2059 N 196.587 1.43421 -0.653314 0
M  V30 2060 C 198.003 1.56341 -0.320886 0
M  V30 2061 C 198.203 1.63696 1.17499 0
M  V30 2062 O 197.259 1.59208 1.95982 0
M  V30 2063 C 198.572 2.82424 -1.03233 0
M  V30 2064 C 200.12 2.96168 -1.01259 0
M  V30 2065 C 200.595 4.25084 -1.70492 0
M  V30 2066 N 202.086 4.31948 -1.67257 0
M  V30 2067 C 202.821 5.30466 -2.17701 0
M  V30 2068 N 202.317 6.35261 -2.76434 0
M  V30 2069 N 204.11 5.2212 -2.082 0
M  V30 2070 H 196.261 1.3689 -1.62403 0
M  V30 2071 H 198.524 0.657455 -0.682977 0
M  V30 2072 H 198.23 2.83053 -2.08744 0
M  V30 2073 H 198.104 3.72653 -0.583948 0
M  V30 2074 H 200.491 2.9508 0.0341235 0
M  V30 2075 H 200.572 2.07229 -1.49966 0
M  V30 2076 H 200.216 4.26932 -2.7512 0
M  V30 2077 H 200.146 5.1292 -1.19251 0
M  V30 2078 H 202.637 3.56838 -1.24398 0
M  V30 2079 H 202.95 7.06754 -3.12601 0
M  V30 2080 H 201.295 6.35884 -2.80495 0
M  V30 2081 H 204.486 4.39166 -1.62021 0
M  V30 2082 H 204.659 5.98739 -2.47822 0
M  V30 2083 N 198.065 0.39524 1.52563 0
M  V30 2084 C 198.997 -0.472201 2.24283 0
M  V30 2085 C 200.01 -1.02178 1.26742 0
M  V30 2086 O 201.199 -0.923097 1.52778 0
M  V30 2087 C 198.299 -1.66775 2.95024 0
M  V30 2088 C 197.472 -1.2445 4.19322 0
M  V30 2089 C 196.531 -2.30539 4.7301 0
M  V30 2090 O 195.557 -1.91702 5.35947 0
M  V30 2091 N 196.759 -3.6253 4.53379 0
M  V30 2092 H 199.524 0.142282 2.99362 0
M  V30 2093 H 197.085 0.2219 1.60372 0
M  V30 2094 H 199.077 -2.37283 3.27839 0
M  V30 2095 H 197.647 -2.18845 2.23217 0
M  V30 2096 H 196.867 -0.368069 3.92478 0
M  V30 2097 H 198.155 -0.938457 5.0007 0
M  V30 2098 H 197.553 -3.96841 4.03154 0
M  V30 2099 H 196.11 -4.29055 4.90668 0
M  V30 2100 N 199.544 -1.57102 0.125237 0
M  V30 2101 C 200.772 -1.99761 -0.538797 0
M  V30 2102 C 201.187 -1.00503 -1.59827 0
M  V30 2103 O 200.544 0.00119474 -1.825 0
M  V30 2104 C 200.595 -3.42408 -1.15927 0
M  V30 2105 O 200.316 -4.37869 -0.142143 0
M  V30 2106 C 201.817 -4.00232 -1.90602 0
M  V30 2107 H 199.037 -0.655772 -0.14214 0
M  V30 2108 H 201.581 -2.03383 0.213413 0
M  V30 2109 H 199.736 -3.39706 -1.86223 0
M  V30 2110 H 200.15 -5.21128 -0.593775 0
M  V30 2111 H 201.624 -5.02105 -2.29335 0
M  V30 2112 H 202.101 -3.39721 -2.78363 0
M  V30 2113 H 202.707 -4.06499 -1.25055 0
M  V30 2114 N 201.022 0.148545 -1.56898 0
M  V30 2115 C 201.969 1.18345 -1.98149 0
M  V30 2116 C 202.939 1.42772 -0.848848 0
M  V30 2117 O 204.124 1.55132 -1.11079 0
M  V30 2118 C 201.264 2.51231 -2.36594 0
M  V30 2119 C 200.377 2.33991 -3.63142 0
M  V30 2120 C 199.512 3.59902 -3.90697 0
M  V30 2121 C 198.551 3.37692 -5.1052 0
M  V30 2122 N 197.688 4.5573 -5.34092 0
M  V30 2123 H 202.528 0.82467 -2.86362 0
M  V30 2124 H 200.065 0.395756 -1.41676 0
M  V30 2125 H 202.023 3.28713 -2.56912 0
M  V30 2126 H 200.653 2.85059 -1.51463 0
M  V30 2127 H 199.705 1.47572 -3.50609 0
M  V30 2128 H 201.017 2.13539 -4.5078 0
M  V30 2129 H 200.171 4.45813 -4.11505 0
M  V30 2130 H 198.91 3.83357 -3.01477 0
M  V30 2131 H 197.915 2.5017 -4.89587 0
M  V30 2132 H 199.14 3.15637 -6.0129 0
M  V30 2133 H 197.086 4.79361 -4.47827 0
M  V30 2134 H 197.003 4.38274 -6.15996 0
M  V30 2135 H 198.271 5.42858 -5.59397 0
M  V30 2136 N 202.5 1.5196 0.417844 0
M  V30 2137 C 203.916 1.40569 0.755816 0
M  V30 2138 C 204.116 0.503316 1.95113 0
M  V30 2139 O 203.172 -0.0341925 2.52477 0
M  V30 2140 C 204.485 2.82947 1.01791 0
M  V30 2141 C 206.033 2.92231 1.12116 0
M  V30 2142 C 206.508 4.35559 1.41608 0
M  V30 2143 N 207.999 4.38753 1.48491 0
M  V30 2144 C 208.734 5.46705 1.7292 0
M  V30 2145 N 208.23 6.64788 1.95011 0
M  V30 2146 N 210.023 5.34209 1.74863 0
M  V30 2147 H 202.174 2.09168 -0.369098 0
M  V30 2148 H 204.437 0.942409 -0.102809 0
M  V30 2149 H 204.143 3.5106 0.212081 0
M  V30 2150 H 204.017 3.23462 1.94042 0
M  V30 2151 H 206.404 2.24304 1.9176 0
M  V30 2152 H 206.485 2.55185 0.177225 0
M  V30 2153 H 206.129 5.04042 0.624848 0
M  V30 2154 H 206.059 4.70133 2.37239 0
M  V30 2155 H 208.55 3.5363 1.33244 0
M  V30 2156 H 208.863 7.42845 2.13076 0
M  V30 2157 H 207.208 6.67869 1.92293 0
M  V30 2158 H 210.399 4.40937 1.57137 0
M  V30 2159 H 210.572 6.18415 1.93563 0
M  V30 2160 N 203.978 -0.674533 1.42435 0
M  V30 2161 C 205.227 -1.43034 1.42212 0
M  V30 2162 C 205.54 -1.95555 0.0420788 0
M  V30 2163 O 206.746 -2.71374 -0.0827558 0
M  V30 2164 C 205.202 -2.58748 2.50155 0
M  V30 2165 C 204.81 -2.12925 3.94166 0
M  V30 2166 C 206.554 -3.36257 2.59098 0
M  V30 2167 C 204.461 -3.25723 4.93618 0
M  V30 2168 H 203.391 -0.537345 0.528939 0
M  V30 2169 H 206.042 -0.73024 1.68344 0
M  V30 2170 H 204.424 -3.31128 2.17188 0
M  V30 2171 H 205.598 -1.47697 4.36488 0
M  V30 2172 H 203.913 -1.48354 3.89076 0
M  V30 2173 H 206.51 -4.20264 3.30578 0
M  V30 2174 H 206.853 -3.82866 1.63461 0
M  V30 2175 H 207.386 -2.70947 2.9126 0
M  V30 2176 H 204.125 -2.84105 5.90732 0
M  V30 2177 H 203.645 -3.89732 4.55926 0
M  V30 2178 H 205.324 -3.91186 5.15347 0
M  V30 2179 N 205.456 -1.28612 -0.910864 0
M  V30 2180 C 206.872 -1.06381 -1.18976 0
M  V30 2181 C 207.072 0.191998 -2.00583 0
M  V30 2182 O 206.128 0.892869 -2.36187 0
M  V30 2183 C 207.441 -2.31295 -1.92154 0
M  V30 2184 C 208.989 -2.36503 -2.05025 0
M  V30 2185 C 209.464 -3.61191 -2.81612 0
M  V30 2186 N 210.955 -3.61847 -2.89172 0
M  V30 2187 C 211.69 -4.55004 -3.4894 0
M  V30 2188 N 211.186 -5.58482 -4.09963 0
M  V30 2189 N 212.979 -4.42594 -3.46506 0
M  V30 2190 H 205.13 -2.09221 -0.366094 0
M  V30 2191 H 207.393 -0.921003 -0.224629 0
M  V30 2192 H 207.099 -3.228 -1.39618 0
M  V30 2193 H 206.973 -2.37934 -2.9269 0
M  V30 2194 H 209.36 -1.45494 -2.5674 0
M  V30 2195 H 209.441 -2.33857 -1.03657 0
M  V30 2196 H 209.085 -4.52545 -2.30576 0
M  V30 2197 H 209.015 -3.61092 -3.83302 0
M  V30 2198 H 211.506 -2.87022 -2.45819 0
M  V30 2199 H 211.819 -6.25704 -4.53557 0
M  V30 2200 H 210.164 -5.62305 -4.08459 0
M  V30 2201 H 213.355 -3.60953 -2.98045 0
M  V30 2202 H 213.528 -5.15381 -3.92793 0
M  V30 2203 N 206.934 1.1197 -1.10907 0
M  V30 2204 C 207.881 2.17846 -0.762345 0
M  V30 2205 C 208.851 1.63995 0.263599 0
M  V30 2206 O 210.036 1.90273 0.141773 0
M  V30 2207 C 207.176 3.44487 -0.205651 0
M  V30 2208 C 206.289 4.12369 -1.28748 0
M  V30 2209 C 205.424 5.26674 -0.691919 0
M  V30 2210 C 204.463 5.86431 -1.75399 0
M  V30 2211 N 203.6 6.92142 -1.17833 0
M  V30 2212 H 208.44 2.46851 -1.6694 0
M  V30 2213 H 205.977 1.21188 -0.833776 0
M  V30 2214 H 207.935 4.16981 0.135037 0
M  V30 2215 H 206.565 3.15884 0.664613 0
M  V30 2216 H 205.617 3.38003 -1.74522 0
M  V30 2217 H 206.929 4.52844 -2.09125 0
M  V30 2218 H 206.083 6.05953 -0.300963 0
M  V30 2219 H 204.822 4.8749 0.143232 0
M  V30 2220 H 203.827 5.05835 -2.15432 0
M  V30 2221 H 205.052 6.27685 -2.59208 0
M  V30 2222 H 202.998 6.54985 -0.364725 0
M  V30 2223 H 202.915 7.31242 -1.91887 0
M  V30 2224 H 204.183 7.75237 -0.81408 0
M  V30 2225 N 208.412 0.89855 1.29475 0
M  V30 2226 C 209.344 0.332726 2.26772 0
M  V30 2227 C 210.357 -0.520323 1.54261 0
M  V30 2228 O 211.546 -0.337668 1.75277 0
M  V30 2229 C 208.646 -0.544334 3.345 0
M  V30 2230 C 207.819 0.282728 4.36485 0
M  V30 2231 C 206.878 -0.526982 5.23555 0
M  V30 2232 O 205.904 0.0551165 5.69173 0
M  V30 2233 N 207.106 -1.83331 5.5079 0
M  V30 2234 H 209.871 1.16897 2.75962 0
M  V30 2235 H 207.432 0.762919 1.42798 0
M  V30 2236 H 209.424 -1.09239 3.89678 0
M  V30 2237 H 207.994 -1.28127 2.85136 0
M  V30 2238 H 207.214 1.01221 3.80983 0
M  V30 2239 H 208.502 0.84918 5.01664 0
M  V30 2240 H 207.9 -2.32898 5.15534 0
M  V30 2241 H 206.457 -2.32852 6.08788 0
M  V30 2242 N 209.89 -1.43072 0.660911 0
M  V30 2243 C 211.137 -2.01721 0.177445 0
M  V30 2244 C 211.465 -1.5218 -1.21126 0
M  V30 2245 O 210.72 -0.708659 -1.82419 0
M  V30 2246 C 211.019 -3.57103 0.145563 0
M  V30 2247 C 210.685 -4.26021 1.47705 0
M  V30 2248 C 209.347 -4.44563 1.84165 0
M  V30 2249 C 211.699 -4.64983 2.35458 0
M  V30 2250 C 209.027 -4.99334 3.0803 0
M  V30 2251 C 211.379 -5.21127 3.58622 0
M  V30 2252 C 210.043 -5.37884 3.95268 0
M  V30 2253 H 209.313 -0.73815 0.0649317 0
M  V30 2254 H 211.96 -1.71446 0.853144 0
M  V30 2255 H 210.265 -3.86965 -0.61361 0
M  V30 2256 H 211.962 -4.00248 -0.2455 0
M  V30 2257 H 208.552 -4.11939 1.18339 0
M  V30 2258 H 212.736 -4.50343 2.08579 0
M  V30 2259 H 207.992 -5.10493 3.36462 0
M  V30 2260 H 212.166 -5.50262 4.26831 0
M  V30 2261 H 209.793 -5.80089 4.91325 0
M  V30 2262 N 211.368 -0.403325 -1.52352 0
M  V30 2263 C 212.615 0.174347 -2.01748 0
M  V30 2264 C 212.943 1.45636 -1.2892 0
M  V30 2265 O 212.198 1.9193 -0.382258 0
M  V30 2266 C 212.497 0.474665 -3.54234 0
M  V30 2267 C 212.163 -0.717458 -4.45155 0
M  V30 2268 C 210.825 -1.04447 -4.69728 0
M  V30 2269 C 213.177 -1.51432 -4.98716 0
M  V30 2270 C 210.505 -2.16963 -5.45109 0
M  V30 2271 C 212.857 -2.6302 -5.75329 0
M  V30 2272 C 211.521 -2.96213 -5.98175 0
M  V30 2273 H 210.791 0.0637981 -0.738248 0
M  V30 2274 H 213.438 -0.543553 -1.83624 0
M  V30 2275 H 211.743 1.27406 -3.70506 0
M  V30 2276 H 213.44 0.934496 -3.89959 0
M  V30 2277 H 210.03 -0.452596 -4.26204 0
M  V30 2278 H 214.214 -1.27491 -4.79645 0
M  V30 2279 H 209.47 -2.43034 -5.61021 0
M  V30 2280 H 213.644 -3.25158 -6.15829 0
M  V30 2281 H 211.271 -3.83516 -6.56368 0
M  V30 2282 N 212.846 1.57033 -0.133567 0
M  V30 2283 C 213.796 2.12641 0.822671 0
M  V30 2284 C 214.78 1.05081 1.21847 0
M  V30 2285 O 215.972 1.31287 1.18713 0
M  V30 2286 C 213.101 2.74094 2.06706 0
M  V30 2287 C 212.187 3.88757 1.69497 0
M  V30 2288 N 212.578 4.95194 1.03037 0
M  V30 2289 C 210.876 3.99213 1.98859 0
M  V30 2290 C 211.577 5.75414 0.852873 0
M  V30 2291 N 210.553 5.25726 1.3825 0
M  V30 2292 H 214.355 2.92308 0.305537 0
M  V30 2293 H 211.869 1.62256 0.0684276 0
M  V30 2294 H 213.866 3.12285 2.76195 0
M  V30 2295 H 212.526 1.95896 2.5895 0
M  V30 2296 H 213.537 5.13247 0.692669 0
M  V30 2297 H 210.214 3.32075 2.53047 0
M  V30 2298 H 211.604 6.71089 0.330091 0
M  V30 2299 N 214.325 -0.140222 1.56975 0
M  V30 2300 C 215.55 -0.870414 1.88251 0
M  V30 2301 C 215.975 -1.73637 0.723312 0
M  V30 2302 O 215.333 -1.78329 -0.32689 0
M  V30 2303 C 215.381 -1.69737 3.18154 0
M  V30 2304 O 214.485 -2.80229 3.02565 0
M  V30 2305 H 213.826 -0.242025 0.61832 0
M  V30 2306 H 216.356 -0.128999 2.04193 0
M  V30 2307 H 216.366 -2.09099 3.50345 0
M  V30 2308 H 215.041 -1.06152 4.02125 0
M  V30 2309 H 213.618 -2.44224 2.81796 0
M  V30 2310 N 215.803 -1.52179 -0.40978 0
M  V30 2311 C 217.049 -1.66453 -1.15851 0
M  V30 2312 C 217.382 -0.392972 -1.90182 0
M  V30 2313 O 216.657 0.608579 -1.84734 0
M  V30 2314 C 216.94 -2.88612 -2.15349 0
M  V30 2315 C 216.793 -4.25815 -1.44918 0
M  V30 2316 C 218.112 -3.06294 -3.16026 0
M  V30 2317 H 215.231 -0.60575 -0.419805 0
M  V30 2318 H 217.873 -1.84732 -0.444314 0
M  V30 2319 H 216.023 -2.73158 -2.76255 0
M  V30 2320 H 217.695 -4.52995 -0.871365 0
M  V30 2321 H 215.938 -4.27247 -0.751159 0
M  V30 2322 H 216.609 -5.07337 -2.17516 0
M  V30 2323 H 219.085 -3.20641 -2.65195 0
M  V30 2324 H 217.961 -3.93283 -3.8291 0
M  V30 2325 H 218.222 -2.19579 -3.83715 0
M  V30 2326 N 217.281 0.66697 -1.42791 0
M  V30 2327 C 218.211 1.79218 -1.49677 0
M  V30 2328 C 219.192 1.66405 -0.352623 0
M  V30 2329 O 220.377 1.85708 -0.567993 0
M  V30 2330 C 217.507 3.17565 -1.40605 0
M  V30 2331 C 216.461 3.45124 -2.53127 0
M  V30 2332 C 215.787 4.83127 -2.29112 0
M  V30 2333 C 217.087 3.41236 -3.95418 0
M  V30 2334 H 218.781 1.73713 -2.43853 0
M  V30 2335 H 216.327 0.83432 -1.17367 0
M  V30 2336 H 218.28 3.96022 -1.44029 0
M  V30 2337 H 217.004 3.23767 -0.429271 0
M  V30 2338 H 215.663 2.69031 -2.49034 0
M  V30 2339 H 215.311 4.85988 -1.29709 0
M  V30 2340 H 215.011 5.02528 -3.04531 0
M  V30 2341 H 216.535 5.63859 -2.34297 0
M  V30 2342 H 217.949 4.09651 -4.01073 0
M  V30 2343 H 216.346 3.72173 -4.70752 0
M  V30 2344 H 217.416 2.39665 -4.21532 0
M  V30 2345 N 218.759 1.29093 0.90403 0
M  V30 2346 C 219.722 1.1386 1.98919 0
M  V30 2347 C 220.722 0.0753457 1.60623 0
M  V30 2348 O 221.912 0.321931 1.71199 0
M  V30 2349 C 219.044 0.740198 3.32767 0
M  V30 2350 H 220.237 2.10246 2.13861 0
M  V30 2351 H 217.79 1.12218 1.08797 0
M  V30 2352 H 218.525 -0.223997 3.23525 0
M  V30 2353 H 218.31 1.50838 3.61926 0
M  V30 2354 H 219.8 0.656546 4.12407 0
M  V30 2355 N 220.237 -1.11381 1.11499 0
M  V30 2356 C 221.169 -2.17207 0.731704 0
M  V30 2357 C 222.182 -1.61066 -0.236957 0
M  V30 2358 O 223.371 -1.78489 -0.0197591 0
M  V30 2359 C 220.471 -3.38846 0.0607624 0
M  V30 2360 C 219.644 -4.24451 1.0564 0
M  V30 2361 C 218.703 -5.24562 0.4149 0
M  V30 2362 O 217.729 -5.59071 1.069 0
M  V30 2363 N 218.931 -5.74651 -0.821943 0
M  V30 2364 H 221.696 -2.50699 1.64225 0
M  V30 2365 H 219.257 -1.26908 1.00529 0
M  V30 2366 H 221.249 -4.02911 -0.380139 0
M  V30 2367 H 219.819 -3.03411 -0.752376 0
M  V30 2368 H 219.039 -3.56833 1.67524 0
M  V30 2369 H 220.327 -4.78486 1.72998 0
M  V30 2370 H 219.725 -5.48797 -1.37252 0
M  V30 2371 H 218.282 -6.40549 -1.20582 0
M  V30 2372 N 221.715 -0.905404 -1.28997 0
M  V30 2373 C 222.992 -0.453513 -1.9027 0
M  V30 2374 C 223.372 1.06721 -1.82137 0
M  V30 2375 O 222.72 1.91159 -1.25182 0
M  V30 2376 C 222.93 -0.974494 -3.35119 0
M  V30 2377 C 224.278 -1.0216 -4.12127 0
M  V30 2378 O 225.302 -0.922557 -3.44046 0
M  V30 2379 O 224.161 -1.17121 -5.33802 0
M  V30 2380 H 221.255 -0.142347 -0.814657 0
M  V30 2381 H 223.801 -0.995642 -1.37423 0
M  V30 2382 H 222.573 -2.01848 -3.35221 0
M  V30 2383 H 222.196 -0.412706 -3.95452 0
M  V30 2384 N 223.193 1.4272 -0.668489 0
M  V30 2385 C 224.442 2.00846 -0.185389 0
M  V30 2386 C 224.755 1.53442 1.21305 0
M  V30 2387 O 225.961 2.03944 1.79218 0
M  V30 2388 C 224.417 3.58805 -0.280591 0
M  V30 2389 C 224.025 4.15198 -1.68268 0
M  V30 2390 C 225.769 4.24255 0.14412 0
M  V30 2391 C 223.676 5.655 -1.73099 0
M  V30 2392 H 222.606 0.751145 -0.0655475 0
M  V30 2393 H 225.257 1.63516 -0.832752 0
M  V30 2394 H 223.639 3.93608 0.434553 0
M  V30 2395 H 224.813 3.91866 -2.42441 0
M  V30 2396 H 223.128 3.62176 -2.05469 0
M  V30 2397 H 225.725 5.34547 0.128086 0
M  V30 2398 H 226.068 3.99277 1.17827 0
M  V30 2399 H 226.601 3.94389 -0.519798 0
M  V30 2400 H 223.34 5.95268 -2.74475 0
M  V30 2401 H 222.86 5.90842 -1.03274 0
M  V30 2402 H 224.539 6.29808 -1.48158 0
M  V30 2403 N 224.671 0.411399 1.52136 0
M  V30 2404 C 225.919 -0.163322 2.01439 0
M  V30 2405 C 226.24 -1.45453 1.29879 0
M  V30 2406 O 225.51 -1.91225 0.4254 0
M  V30 2407 H 224.09 -0.0633447 0.744309 0
M  V30 2408 H 226.752 0.548161 1.87033 0
M  V30 2409 H 225.848 -0.357817 3.10042 0
M  V30 2410 N 226.149 -1.5696 0.141893 0
M  V30 2411 C 227.395 -1.97034 -0.504884 0
M  V30 2412 C 227.75 -1.02518 -1.62812 0
M  V30 2413 O 227.043 -0.0592943 -1.91508 0
M  V30 2414 C 227.237 -3.41242 -1.06249 0
M  V30 2415 C 227.066 -4.497 0.00519653 0
M  V30 2416 C 225.836 -5.03338 0.444873 0
M  V30 2417 C 228.034 -5.08122 0.794767 0
M  V30 2418 N 226.016 -5.95395 1.49593 0
M  V30 2419 C 227.387 -5.96339 1.69645 0
M  V30 2420 C 229.442 -4.9071 0.843122 0
M  V30 2421 C 228.145 -6.69009 2.64233 0
M  V30 2422 C 230.171 -5.64077 1.77681 0
M  V30 2423 C 229.533 -6.51999 2.66603 0
M  V30 2424 H 225.632 -0.766745 -0.153707 0
M  V30 2425 H 228.216 -1.93273 0.235313 0
M  V30 2426 H 226.387 -3.45606 -1.77231 0
M  V30 2427 H 228.119 -3.68389 -1.67546 0
M  V30 2428 H 224.874 -4.73576 0.0480959 0
M  V30 2429 H 225.298 -6.46128 2.02107 0
M  V30 2430 H 229.94 -4.22459 0.169732 0
M  V30 2431 H 227.658 -7.36492 3.32575 0
M  V30 2432 H 231.244 -5.52602 1.81996 0
M  V30 2433 H 230.124 -7.07775 3.37675 0
M  V30 2434 N 227.627 0.131896 -1.57047 0
M  V30 2435 C 228.874 0.841932 -1.84168 0
M  V30 2436 C 229.202 1.8048 -0.725066 0
M  V30 2437 O 228.457 1.93618 0.284692 0
M  V30 2438 C 228.756 1.63703 -3.17704 0
M  V30 2439 C 228.422 0.81961 -4.43388 0
M  V30 2440 C 227.084 0.594148 -4.77518 0
M  V30 2441 C 229.436 0.248977 -5.20605 0
M  V30 2442 C 226.764 -0.212409 -5.86315 0
M  V30 2443 C 229.116 -0.544701 -6.30251 0
M  V30 2444 C 227.78 -0.780599 -6.6292 0
M  V30 2445 H 227.05 0.308085 -0.673917 0
M  V30 2446 H 229.697 0.104867 -1.91213 0
M  V30 2447 H 228.002 2.44464 -3.06177 0
M  V30 2448 H 229.699 2.19015 -3.35907 0
M  V30 2449 H 226.289 1.00542 -4.16641 0
M  V30 2450 H 230.473 0.410408 -4.946 0
M  V30 2451 H 225.729 -0.404524 -6.1006 0
M  V30 2452 H 229.903 -0.993922 -6.89271 0
M  V30 2453 H 227.53 -1.40742 -7.47058 0
M  V30 2454 N 229.106 1.52395 0.401703 0
M  V30 2455 C 230.383 1.57387 1.16141 0
M  V30 2456 C 230.763 0.359359 2.08019 0
M  V30 2457 O 230.111 -0.65326 2.18963 0
M  V30 2458 C 230.321 2.90631 1.93221 0
M  V30 2459 C 231.669 3.43904 2.49028 0
M  V30 2460 O 232.693 2.92421 2.03393 0
M  V30 2461 O 231.552 4.33823 3.32356 0
M  V30 2462 H 228.646 0.634262 0.530698 0
M  V30 2463 H 231.192 1.64725 0.407883 0
M  V30 2464 H 229.964 3.70473 1.25958 0
M  V30 2465 H 229.587 2.8662 2.75563 0
M  V30 2466 N 230.584 -0.659388 1.43143 0
M  V30 2467 C 231.809 -1.45221 1.48073 0
M  V30 2468 C 232.234 -1.87845 0.097995 0
M  V30 2469 O 231.592 -1.56985 -0.90694 0
M  V30 2470 C 231.64 -2.66748 2.42647 0
M  V30 2471 O 230.744 -3.65583 1.90848 0
M  V30 2472 H 230.085 -0.435669 0.501088 0
M  V30 2473 H 232.615 -0.807432 1.87994 0
M  V30 2474 H 232.625 -3.14637 2.59745 0
M  V30 2475 H 231.3 -2.35067 3.43098 0
M  V30 2476 H 229.877 -3.24693 1.83381 0
M  V30 2477 N 232.062 -1.29571 -0.897171 0
M  V30 2478 C 233.302 -1.18959 -1.66217 0
M  V30 2479 C 233.666 0.254271 -1.90309 0
M  V30 2480 O 234.867 0.483407 -2.64417 0
M  V30 2481 C 233.138 -1.98302 -2.9734 0
M  V30 2482 S 234.697 -2.04253 -3.88364 0
M  V30 2483 H 231.515 -0.424137 -0.570639 0
M  V30 2484 H 234.117 -1.6389 -1.06585 0
M  V30 2485 H 232.821 -3.02342 -2.77521 0
M  V30 2486 H 232.352 -1.53986 -3.62011 0
M  V30 2487 H 234.367 -1.16105 -4.82425 0
M  V30 2488 N 233.54 1.10788 -1.12088 0
M  V30 2489 C 234.817 1.79136 -0.785476 0
M  V30 2490 C 235.197 1.98246 0.725377 0
M  V30 2491 O 234.545 1.57258 1.65778 0
M  V30 2492 C 234.755 3.12375 -1.55636 0
M  V30 2493 C 236.103 3.8731 -1.74001 0
M  V30 2494 O 237.127 3.22085 -1.52117 0
M  V30 2495 O 235.986 5.04369 -2.10415 0
M  V30 2496 H 233.08 0.776226 -0.285311 0
M  V30 2497 H 235.626 1.1747 -1.2247 0
M  V30 2498 H 234.398 2.93863 -2.5838 0
M  V30 2499 H 234.021 3.81758 -1.11114 0
M  V30 2500 N 235.018 0.912232 1.28515 0
M  V30 2501 C 236.267 0.540504 1.94323 0
M  V30 2502 C 236.58 -0.920044 1.72611 0
M  V30 2503 O 237.786 -1.39986 2.32629 0
M  V30 2504 C 236.242 0.915803 3.48053 0
M  V30 2505 C 235.85 2.39598 3.78546 0
M  V30 2506 C 237.594 0.614588 4.20027 0
M  V30 2507 C 235.501 2.71148 5.25578 0
M  V30 2508 H 234.431 0.198418 0.727424 0
M  V30 2509 H 237.082 1.11094 1.46049 0
M  V30 2510 H 235.464 0.274168 3.9505 0
M  V30 2511 H 236.638 3.08422 3.42364 0
M  V30 2512 H 234.953 2.66749 3.1974 0
M  V30 2513 H 237.55 0.827002 5.28266 0
M  V30 2514 H 237.893 -0.447531 4.13887 0
M  V30 2515 H 238.426 1.21462 3.78803 0
M  V30 2516 H 235.165 3.76207 5.36794 0
M  V30 2517 H 234.685 2.0696 5.62963 0
M  V30 2518 H 236.364 2.58072 5.93302 0
M  V30 2519 N 236.496 -1.42363 0.676048 0
M  V30 2520 C 237.744 -2.01123 0.198437 0
M  V30 2521 C 238.065 -1.53731 -1.19966 0
M  V30 2522 O 237.335 -0.759518 -1.80577 0
M  V30 2523 H 235.915 -0.743678 0.0703721 0
M  V30 2524 H 238.577 -1.74263 0.872837 0
M  V30 2525 H 237.673 -3.11454 0.200686 0
M  V30 2526 N 237.974 -0.419461 -1.51915 0
M  V30 2527 C 238.884 0.407528 -2.31033 0
M  V30 2528 C 239.9 1.04413 -1.3919 0
M  V30 2529 O 241.076 1.0434 -1.72265 0
M  V30 2530 C 238.141 1.50365 -3.12396 0
M  V30 2531 C 237.202 0.889029 -4.19994 0
M  V30 2532 C 236.435 1.93291 -4.97468 0
M  V30 2533 O 236.658 3.15259 -4.75361 0
M  V30 2534 O 235.592 1.53339 -5.8204 0
M  V30 2535 H 239.418 -0.237865 -3.02767 0
M  V30 2536 H 237.003 -0.182413 -1.48282 0
M  V30 2537 H 238.885 2.13975 -3.63032 0
M  V30 2538 H 237.56 2.13345 -2.43445 0
M  V30 2539 H 236.467 0.215353 -3.7348 0
M  V30 2540 H 237.8 0.302991 -4.91267 0
M  V30 2541 N 239.452 1.56882 -0.150215 0
M  V30 2542 C 240.382 2.19935 0.784284 0
M  V30 2543 C 241.363 1.14854 1.25469 0
M  V30 2544 O 242.548 1.43209 1.31168 0
M  V30 2545 C 239.678 2.82349 2.02229 0
M  V30 2546 C 238.632 3.93285 1.68853 0
M  V30 2547 C 237.958 4.42649 2.99944 0
M  V30 2548 C 239.258 5.13904 0.932714 0
M  V30 2549 H 240.952 2.9828 0.258781 0
M  V30 2550 H 238.498 1.43473 0.123029 0
M  V30 2551 H 240.451 3.25126 2.68088 0
M  V30 2552 H 239.175 2.0134 2.57157 0
M  V30 2553 H 237.834 3.5113 1.05371 0
M  V30 2554 H 237.482 3.58458 3.52869 0
M  V30 2555 H 237.182 5.17476 2.78374 0
M  V30 2556 H 238.706 4.88099 3.66868 0
M  V30 2557 H 240.12 5.53506 1.49345 0
M  V30 2558 H 238.517 5.94515 0.81684 0
M  V30 2559 H 239.587 4.84842 -0.0749568 0
M  V30 2560 N 240.93 -0.123565 1.57115 0
M  V30 2561 C 241.878 -1.17082 2.00984 0
M  V30 2562 C 242.872 -1.43136 0.906009 0
M  V30 2563 O 244.078 -1.43152 1.09121 0
M  V30 2564 H 240.453 -0.394653 0.64012 0
M  V30 2565 H 242.424 -0.774292 2.88179 0
M  V30 2566 C 241.173 -2.49057 2.42623 0
M  V30 2567 H 240.496 -2.29846 3.27125 0
M  V30 2568 H 241.936 -3.20906 2.7712 0
M  V30 2569 C 240.395 -3.11305 1.28805 0
M  V30 2570 O 240.925 -3.97171 0.60153 0
M  V30 2571 N 239.131 -2.71111 1.04628 0
M  V30 2572 H 238.678 -2.01382 1.60634 0
M  V30 2573 H 238.636 -3.1309 0.286685 0
M  V30 2574 N 242.408 -1.52605 -0.393616 0
M  V30 2575 C 243.636 -1.71294 -1.16043 0
M  V30 2576 C 244.051 -0.429259 -1.83855 0
M  V30 2577 O 243.408 0.595921 -1.72496 0
M  V30 2578 C 243.459 -2.8593 -2.21193 0
M  V30 2579 O 243.18 -4.09329 -1.56146 0
M  V30 2580 C 244.681 -3.16259 -3.10636 0
M  V30 2581 H 241.901 -0.573641 -0.348104 0
M  V30 2582 H 244.445 -1.99234 -0.461092 0
M  V30 2583 H 242.6 -2.60465 -2.86769 0
M  V30 2584 H 243.014 -4.73323 -2.25978 0
M  V30 2585 H 244.488 -3.99946 -3.80456 0
M  V30 2586 H 244.965 -2.3045 -3.73884 0
M  V30 2587 H 245.571 -3.43547 -2.50711 0
M  V30 2588 N 243.887 0.651787 -1.4349 0
M  V30 2589 C 245.303 0.96762 -1.26922 0
M  V30 2590 C 245.503 2.00602 -0.189982 0
M  V30 2591 O 244.559 2.48793 0.431107 0
M  V30 2592 C 245.872 1.45052 -2.63401 0
M  V30 2593 C 247.42 1.5671 -2.70945 0
M  V30 2594 C 247.895 2.0839 -4.07845 0
M  V30 2595 N 249.386 2.1569 -4.09917 0
M  V30 2596 C 250.121 2.56804 -5.12679 0
M  V30 2597 N 249.617 2.97203 -6.25813 0
M  V30 2598 N 251.41 2.56756 -5.00033 0
M  V30 2599 H 243.561 -0.0353158 -2.12371 0
M  V30 2600 H 245.824 0.0467858 -0.946845 0
M  V30 2601 H 245.53 0.761926 -3.43348 0
M  V30 2602 H 245.404 2.42529 -2.88894 0
M  V30 2603 H 247.791 2.2467 -1.9133 0
M  V30 2604 H 247.872 0.57662 -2.49216 0
M  V30 2605 H 247.516 1.41031 -4.87927 0
M  V30 2606 H 247.446 3.08271 -4.26938 0
M  V30 2607 H 249.937 1.87237 -3.28254 0
M  V30 2608 H 250.25 3.27328 -7.00055 0
M  V30 2609 H 248.595 2.95004 -6.29283 0
M  V30 2610 H 251.786 2.24572 -4.10713 0
M  V30 2611 H 251.959 2.88475 -5.80247 0
M  V30 2612 N 245.365 1.30045 0.890287 0
M  V30 2613 C 246.298 1.10301 1.99772 0
M  V30 2614 C 247.276 0.0121631 1.62595 0
M  V30 2615 O 248.46 0.16469 1.87779 0
M  V30 2616 C 245.587 0.681125 3.31781 0
M  V30 2617 C 244.633 1.77206 3.87944 0
M  V30 2618 S 245.466 3.37335 4.15891 0
M  V30 2619 C 246.622 2.97036 5.50927 0
M  V30 2620 H 246.855 2.04057 2.16213 0
M  V30 2621 H 244.388 1.14299 1.03804 0
M  V30 2622 H 246.346 0.444439 4.08087 0
M  V30 2623 H 245.007 -0.236981 3.13205 0
M  V30 2624 H 244.2 1.42903 4.83316 0
M  V30 2625 H 243.802 1.96275 3.18358 0
M  V30 2626 H 246.094 2.44666 6.31779 0
M  V30 2627 H 247.037 3.91296 5.90164 0
M  V30 2628 H 247.445 2.35057 5.13233 0
M  V30 2629 N 246.843 -1.10192 1.12674 0
M  V30 2630 C 248.071 -1.85983 0.906527 0
M  V30 2631 C 248.486 -1.80783 -0.544333 0
M  V30 2632 O 247.843 -1.19834 -1.37645 0
M  V30 2633 C 247.894 -3.34281 1.37618 0
M  V30 2634 O 247.615 -3.39401 2.77017 0
M  V30 2635 C 249.116 -4.26938 1.19325 0
M  V30 2636 H 246.336 -0.587716 0.323775 0
M  V30 2637 H 248.88 -1.39284 1.49734 0
M  V30 2638 H 247.035 -3.78436 0.828539 0
M  V30 2639 H 247.449 -4.31838 2.97684 0
M  V30 2640 H 248.923 -5.29181 1.57071 0
M  V30 2641 H 249.4 -4.38995 0.134097 0
M  V30 2642 H 250.006 -3.8859 1.72852 0
M  V30 2643 N 248.321 -0.919034 -1.28029 0
M  V30 2644 C 249.598 -0.473668 -1.89778 0
M  V30 2645 C 249.978 1.04783 -1.83259 0
M  V30 2646 O 249.326 1.8982 -1.27202 0
M  V30 2647 C 249.536 -1.00998 -3.34066 0
M  V30 2648 C 250.884 -1.06525 -4.1102 0
M  V30 2649 O 251.908 -0.958996 -3.43048 0
M  V30 2650 O 250.767 -1.22776 -5.3253 0
M  V30 2651 H 247.861 -0.15098 -0.813101 0
M  V30 2652 H 250.407 -1.01016 -1.36359 0
M  V30 2653 H 249.179 -2.05392 -3.33061 0
M  V30 2654 H 248.802 -0.454626 -3.94992 0
M  V30 2655 N 249.799 1.42003 -0.683588 0
M  V30 2656 C 251.076 1.95112 -0.138075 0
M  V30 2657 C 251.456 1.62359 1.34918 0
M  V30 2658 O 250.804 0.924311 2.08971 0
M  V30 2659 C 251.014 3.46505 -0.416581 0
M  V30 2660 C 252.362 4.23254 -0.337834 0
M  V30 2661 O 253.386 3.54468 -0.35082 0
M  V30 2662 O 252.245 5.45743 -0.287596 0
M  V30 2663 H 249.339 0.826961 -0.00797996 0
M  V30 2664 H 251.885 1.51784 -0.758924 0
M  V30 2665 H 250.657 3.63582 -1.4465 0
M  V30 2666 H 250.28 3.969 0.235839 0
M  V30 2667 N 251.277 0.427512 1.51691 0
M  V30 2668 C 252.526 -0.143679 2.01188 0
M  V30 2669 C 252.839 -1.44642 1.31674 0
M  V30 2670 O 254.045 -2.09997 1.72086 0
M  V30 2671 C 252.501 -0.306602 3.58592 0
M  V30 2672 C 252.109 0.985125 4.37035 0
M  V30 2673 C 253.853 -0.832091 4.16265 0
M  V30 2674 C 251.76 0.788382 5.86122 0
M  V30 2675 H 250.69 -0.0574701 0.751807 0
M  V30 2676 H 253.341 0.555772 1.74881 0
M  V30 2677 H 251.723 -1.06882 3.81303 0
M  V30 2678 H 252.897 1.75492 4.26074 0
M  V30 2679 H 251.212 1.4384 3.90767 0
M  V30 2680 H 253.809 -0.995617 5.25349 0
M  V30 2681 H 254.152 -1.81186 3.74803 0
M  V30 2682 H 254.685 -0.128444 3.97593 0
M  V30 2683 H 251.424 1.74025 6.31978 0
M  V30 2684 H 250.944 0.0582143 5.99772 0
M  V30 2685 H 252.623 0.437722 6.45518 0
M  V30 2686 N 252.755 -1.56801 0.158532 0
M  V30 2687 C 254.032 -1.88131 -0.535357 0
M  V30 2688 C 254.412 -1.06638 -1.82186 0
M  V30 2689 O 253.76 -0.156533 -2.27963 0
M  V30 2690 C 253.97 -3.39949 -0.789653 0
M  V30 2691 C 255.318 -4.09416 -1.12533 0
M  V30 2692 O 256.342 -3.45194 -0.878622 0
M  V30 2693 O 255.201 -5.22855 -1.59014 0
M  V30 2694 H 252.295 -0.780143 -0.27442 0
M  V30 2695 H 254.841 -1.68564 0.19601 0
M  V30 2696 H 253.613 -3.91115 0.120353 0
M  V30 2697 H 253.236 -3.65084 -1.57479 0
M  V30 2698 N 254.233 0.115231 -1.57178 0
M  V30 2699 C 255.18 1.14115 -2.00615 0
M  V30 2700 C 256.15 1.40939 -0.878941 0
M  V30 2701 O 257.335 1.52741 -1.14345 0
M  V30 2702 C 254.475 2.46156 -2.4187 0
M  V30 2703 C 253.588 2.26236 -3.68024 0
M  V30 2704 C 252.723 3.51534 -3.98243 0
M  V30 2705 C 251.762 3.26787 -5.17568 0
M  V30 2706 N 250.899 4.44298 -5.43639 0
M  V30 2707 H 255.739 0.763743 -2.88047 0
M  V30 2708 H 253.276 0.365615 -1.42484 0
M  V30 2709 H 255.234 3.23189 -2.63827 0
M  V30 2710 H 253.864 2.81783 -1.57475 0
M  V30 2711 H 252.916 1.40102 -3.5366 0
M  V30 2712 H 254.228 2.03929 -4.55208 0
M  V30 2713 H 253.382 4.36984 -4.20868 0
M  V30 2714 H 252.121 3.76876 -3.09541 0
M  V30 2715 H 251.126 2.39729 -4.94783 0
M  V30 2716 H 252.351 3.02812 -6.0785 0
M  V30 2717 H 250.297 4.69754 -4.57895 0
M  V30 2718 H 250.214 4.25109 -6.25154 0
M  V30 2719 H 251.482 5.3087 -5.70786 0
M  V30 2720 N 255.711 1.52812 0.385517 0
M  V30 2721 C 256.96 1.67249 1.12741 0
M  V30 2722 C 257.273 0.4205 1.91027 0
M  V30 2723 O 258.479 0.445064 2.67827 0
M  V30 2724 C 256.935 2.95583 2.05326 0
M  V30 2725 C 256.543 4.27974 1.32447 0
M  V30 2726 C 258.287 3.19386 2.7963 0
M  V30 2727 C 256.194 5.47412 2.23818 0
M  V30 2728 H 255.124 0.6231 0.424573 0
M  V30 2729 H 257.775 1.79309 0.389924 0
M  V30 2730 H 256.157 2.77277 2.82725 0
M  V30 2731 H 257.331 4.56844 0.602495 0
M  V30 2732 H 255.646 4.10459 0.700885 0
M  V30 2733 H 258.243 4.05801 3.48181 0
M  V30 2734 H 258.586 2.34604 3.43899 0
M  V30 2735 H 259.119 3.38274 2.09322 0
M  V30 2736 H 255.858 6.34612 1.64157 0
M  V30 2737 H 255.378 5.22849 2.93921 0
M  V30 2738 H 257.057 5.81423 2.83824 0
M  V30 2739 N 257.189 -0.644168 1.43834 0
M  V30 2740 C 258.414 -1.43642 1.49605 0
M  V30 2741 C 258.839 -1.8773 0.117913 0
M  V30 2742 O 258.197 -1.57938 -0.890239 0
M  V30 2743 C 258.245 -2.6416 2.45463 0
M  V30 2744 O 257.349 -3.63538 1.94714 0
M  V30 2745 H 256.69 -0.430329 0.50568 0
M  V30 2746 H 259.22 -0.787448 1.8884 0
M  V30 2747 H 259.23 -3.11864 2.63068 0
M  V30 2748 H 257.905 -2.31414 3.45572 0
M  V30 2749 H 256.482 -3.2273 1.86814 0
M  V30 2750 N 258.668 -1.30515 -0.883378 0
M  V30 2751 C 259.945 -1.10086 -1.6168 0
M  V30 2752 C 260.325 0.349269 -2.08191 0
M  V30 2753 O 259.673 1.34105 -1.85008 0
M  V30 2754 C 259.883 -2.10315 -2.78511 0
M  V30 2755 C 261.231 -2.42119 -3.48803 0
M  V30 2756 O 262.255 -2.08638 -2.88702 0
M  V30 2757 O 261.114 -2.99396 -4.57192 0
M  V30 2758 H 258.208 -0.422907 -0.710689 0
M  V30 2759 H 260.754 -1.41947 -0.930015 0
M  V30 2760 H 259.526 -3.07917 -2.41459 0
M  V30 2761 H 259.149 -1.79282 -3.54886 0
M  V30 2762 N 260.146 1.09593 -1.13257 0
M  V30 2763 C 261.394 1.81375 -0.891492 0
M  V30 2764 C 261.715 1.86049 0.584009 0
M  V30 2765 O 260.985 1.34481 1.42449 0
M  V30 2766 H 259.565 0.671708 -0.326828 0
M  V30 2767 H 262.227 1.3256 -1.42877 0
M  V30 2768 H 261.323 2.84612 -1.28071 0
M  V30 2769 N 261.624 0.925811 1.2754 0
M  V30 2770 C 262.873 0.561084 1.93739 0
M  V30 2771 C 263.186 -0.901685 1.73577 0
M  V30 2772 O 264.392 -1.37511 2.34101 0
M  V30 2773 C 262.848 0.952668 3.47062 0
M  V30 2774 C 262.456 2.43599 3.75983 0
M  V30 2775 C 264.2 0.659103 4.19352 0
M  V30 2776 C 262.107 2.76707 5.22673 0
M  V30 2777 H 261.037 0.206122 0.725279 0
M  V30 2778 H 263.688 1.12637 1.44863 0
M  V30 2779 H 262.07 0.316053 3.94737 0
M  V30 2780 H 263.244 3.12035 3.39073 0
M  V30 2781 H 261.559 2.70125 3.16893 0
M  V30 2782 H 264.156 0.882985 5.27359 0
M  V30 2783 H 264.499 -0.403607 4.14339 0
M  V30 2784 H 265.032 1.25473 3.77494 0
M  V30 2785 H 261.771 3.8188 5.32774 0
M  V30 2786 H 261.291 2.12919 5.60737 0
M  V30 2787 H 262.97 2.6435 5.90532 0
M  V30 2788 N 263.102 -1.41638 0.69111 0
M  V30 2789 C 264.35 -2.00902 0.219758 0
M  V30 2790 C 264.671 -1.54994 -1.18329 0
M  V30 2791 O 263.941 -0.778628 -1.79762 0
M  V30 2792 H 262.521 -0.74289 0.0782558 0
M  V30 2793 H 265.183 -1.73327 0.891271 0
M  V30 2794 H 264.279 -3.11224 0.233708 0
M  V30 2795 N 264.58 -0.43555 -1.51462 0
M  V30 2796 C 265.857 0.191364 -1.94662 0
M  V30 2797 C 266.237 1.60254 -1.37411 0
M  V30 2798 O 265.585 2.2152 -0.560458 0
M  V30 2799 C 265.795 0.17091 -3.48581 0
M  V30 2800 C 267.143 0.377357 -4.2292 0
M  V30 2801 O 268.167 0.249104 -3.55328 0
M  V30 2802 O 267.026 0.63247 -5.42828 0
M  V30 2803 H 264.12 0.130932 -0.816569 0
M  V30 2804 H 266.666 -0.4934 -1.62369 0
M  V30 2805 H 265.438 -0.815738 -3.82703 0
M  V30 2806 H 265.061 0.898659 -3.87311 0
M  V30 2807 N 266.058 1.56714 -0.166846 0
M  V30 2808 C 267.005 2.17746 0.765193 0
M  V30 2809 C 267.975 1.11614 1.23011 0
M  V30 2810 O 269.16 1.39745 1.29908 0
M  V30 2811 C 266.3 2.81882 1.9909 0
M  V30 2812 C 265.413 4.02462 1.56997 0
M  V30 2813 C 264.548 4.54537 2.749 0
M  V30 2814 C 263.587 5.67538 2.29275 0
M  V30 2815 N 262.724 6.14142 3.40255 0
M  V30 2816 H 267.564 2.97048 0.237952 0
M  V30 2817 H 265.101 1.4672 0.105725 0
M  V30 2818 H 267.059 3.17221 2.70974 0
M  V30 2819 H 265.689 2.05191 2.49192 0
M  V30 2820 H 264.741 3.72973 0.748037 0
M  V30 2821 H 266.053 4.84273 1.19503 0
M  V30 2822 H 265.207 4.92035 3.54946 0
M  V30 2823 H 263.946 3.71774 3.1565 0
M  V30 2824 H 262.951 5.29597 1.47674 0
M  V30 2825 H 264.176 6.52099 1.89588 0
M  V30 2826 H 262.122 5.3431 3.8059 0
M  V30 2827 H 262.039 6.9093 3.06841 0
M  V30 2828 H 263.307 6.56289 4.206 0
M  V30 2829 N 267.536 -0.106894 1.57237 0
M  V30 2830 C 268.785 -0.811163 1.8467 0
M  V30 2831 C 269.098 -1.80469 0.754342 0
M  V30 2832 O 270.304 -2.55601 0.915439 0
M  V30 2833 C 268.76 -1.49337 3.27454 0
M  V30 2834 C 268.368 -0.540217 4.44731 0
M  V30 2835 C 270.112 -2.18206 3.64124 0
M  V30 2836 C 268.019 -1.22634 5.78545 0
M  V30 2837 H 266.949 -0.306679 0.688813 0
M  V30 2838 H 269.6 -0.0639887 1.83388 0
M  V30 2839 H 267.982 -2.2876 3.23241 0
M  V30 2840 H 269.156 0.221659 4.60267 0
M  V30 2841 H 267.471 0.042146 4.16379 0
M  V30 2842 H 270.068 -2.70253 4.61376 0
M  V30 2843 H 270.411 -2.96562 2.92158 0
M  V30 2844 H 270.944 -1.45658 3.70174 0
M  V30 2845 H 267.683 -0.483832 6.53712 0
M  V30 2846 H 267.203 -1.95993 5.66874 0
M  V30 2847 H 268.882 -1.75615 6.2271 0
M  V30 2848 N 269.014 -1.53014 -0.377408 0
M  V30 2849 C 269.977 -1.77957 -1.44444 0
M  V30 2850 C 270.977 -0.649763 -1.47087 0
M  V30 2851 O 272.167 -0.917897 -1.48055 0
M  V30 2852 C 269.299 -1.89089 -2.83651 0
M  V30 2853 H 270.492 -2.73243 -1.23606 0
M  V30 2854 H 268.045 -1.43912 -0.609844 0
M  V30 2855 H 268.78 -0.958293 -3.09818 0
M  V30 2856 H 268.565 -2.71254 -2.83132 0
M  V30 2857 H 270.055 -2.1002 -3.60945 0
M  V30 2858 N 270.492 0.636531 -1.44174 0
M  V30 2859 C 271.422 1.76003 -1.53444 0
M  V30 2860 C 272.403 1.65619 -0.387841 0
M  V30 2861 O 273.588 1.84461 -0.607257 0
M  V30 2862 C 270.718 3.14511 -1.4731 0
M  V30 2863 C 269.672 3.39677 -2.60391 0
M  V30 2864 C 268.998 4.78159 -2.39308 0
M  V30 2865 C 270.298 3.32772 -4.02567 0
M  V30 2866 H 271.992 1.68501 -2.47483 0
M  V30 2867 H 269.538 0.809237 -1.19111 0
M  V30 2868 H 271.491 3.92878 -1.52397 0
M  V30 2869 H 270.215 3.22783 -0.49785 0
M  V30 2870 H 268.874 2.63688 -2.54684 0
M  V30 2871 H 268.522 4.83128 -1.39988 0
M  V30 2872 H 268.222 4.95956 -3.15122 0
M  V30 2873 H 269.746 5.58762 -2.46205 0
M  V30 2874 H 271.16 4.01051 -4.09672 0
M  V30 2875 H 269.557 3.62104 -4.7854 0
M  V30 2876 H 270.627 2.30669 -4.2652 0
M  V30 2877 N 271.97 1.30982 0.876444 0
M  V30 2878 C 272.9 1.20668 1.99903 0
M  V30 2879 C 273.881 0.095354 1.69833 0
M  V30 2880 O 275.066 0.27885 1.92188 0
M  V30 2881 C 272.196 0.90655 3.3526 0
M  V30 2882 C 271.15 1.97675 3.79617 0
M  V30 2883 C 270.476 1.52943 5.1236 0
M  V30 2884 C 271.776 3.389 3.97422 0
M  V30 2885 H 273.47 2.14586 2.0879 0
M  V30 2886 H 271.016 1.03308 1.00317 0
M  V30 2887 H 272.969 0.821025 4.13324 0
M  V30 2888 H 271.693 -0.0682969 3.26529 0
M  V30 2889 H 270.352 2.05205 3.03787 0
M  V30 2890 H 270 0.54262 5.00065 0
M  V30 2891 H 269.7 2.24532 5.43009 0
M  V30 2892 H 271.224 1.45786 5.92941 0
M  V30 2893 H 272.638 3.34081 4.659 0
M  V30 2894 H 271.035 4.0865 4.3946 0
M  V30 2895 H 272.105 3.80163 3.01006 0
M  V30 2896 N 273.449 -1.08991 1.13837 0
M  V30 2897 C 274.696 -1.81258 0.902882 0
M  V30 2898 C 275.024 -1.85936 -0.570803 0
M  V30 2899 O 274.279 -1.3267 -1.43865 0
M  V30 2900 C 274.578 -3.27042 1.44147 0
M  V30 2901 C 274.244 -3.4249 2.93276 0
M  V30 2902 C 272.906 -3.46414 3.33992 0
M  V30 2903 C 275.258 -3.4666 3.892 0
M  V30 2904 C 272.586 -3.52091 4.69307 0
M  V30 2905 C 274.938 -3.53872 5.24364 0
M  V30 2906 C 273.602 -3.56066 5.646 0
M  V30 2907 H 272.872 -0.663268 0.330388 0
M  V30 2908 H 275.519 -1.28368 1.42105 0
M  V30 2909 H 273.824 -3.82599 0.844097 0
M  V30 2910 H 275.521 -3.81499 1.23528 0
M  V30 2911 H 272.111 -3.40124 2.60794 0
M  V30 2912 H 276.295 -3.42865 3.58828 0
M  V30 2913 H 271.551 -3.52079 4.9985 0
M  V30 2914 H 275.725 -3.56043 5.98503 0
M  V30 2915 H 273.352 -3.60218 6.69438 0
M  V30 2916 N 274.927 -0.932562 -1.27047 0
M  V30 2917 C 275.859 -0.392734 -2.2581 0
M  V30 2918 C 276.872 0.479241 -1.55586 0
M  V30 2919 O 278.061 0.291078 -1.76111 0
M  V30 2920 C 275.161 0.455456 -3.35826 0
M  V30 2921 C 274.334 -0.398355 -4.35582 0
M  V30 2922 C 273.393 0.387985 -5.24768 0
M  V30 2923 O 272.419 -0.206003 -5.68827 0
M  V30 2924 N 273.621 1.68664 -5.55457 0
M  V30 2925 H 276.386 -1.24173 -2.72766 0
M  V30 2926 H 273.947 -0.800511 -1.40725 0
M  V30 2927 H 275.939 0.988692 -3.92437 0
M  V30 2928 H 274.509 1.20522 -2.88432 0
M  V30 2929 H 273.729 -1.11286 -3.78165 0
M  V30 2930 H 275.017 -0.981889 -4.99236 0
M  V30 2931 H 274.415 2.19147 -5.21528 0
M  V30 2932 H 272.972 2.1663 -6.14748 0
M  V30 2933 N 276.405 1.4127 -0.698611 0
M  V30 2934 C 277.353 2.32588 -0.023855 0
M  V30 2935 C 278.347 1.51128 0.765292 0
M  V30 2936 O 279.553 1.67043 0.670571 0
M  V30 2937 H 275.928 0.751918 0.0110871 0
M  V30 2938 H 277.899 2.87167 -0.811031 0
M  V30 2939 C 276.648 3.35947 0.896369 0
M  V30 2940 H 275.971 3.98684 0.298548 0
M  V30 2941 H 277.411 4.02376 1.33676 0
M  V30 2942 C 275.87 2.70076 2.01396 0
M  V30 2943 O 276.4 2.55093 3.10307 0
M  V30 2944 N 274.606 2.28724 1.79259 0
M  V30 2945 H 274.153 2.4111 0.906841 0
M  V30 2946 H 274.111 1.84986 2.54219 0
M  V30 2947 N 277.883 0.443576 1.51229 0
M  V30 2948 C 278.816 -0.410089 2.24485 0
M  V30 2949 C 279.794 -1.01949 1.26669 0
M  V30 2950 O 280.978 -1.06075 1.55821 0
M  V30 2951 C 278.105 -1.57211 3.00004 0
M  V30 2952 C 277.151 -1.08279 4.12526 0
M  V30 2953 S 277.984 -0.0197476 5.35496 0
M  V30 2954 C 279.14 -1.18629 6.14555 0
M  V30 2955 H 279.373 0.211832 2.96544 0
M  V30 2956 H 276.906 0.228156 1.52705 0
M  V30 2957 H 278.864 -2.23825 3.44111 0
M  V30 2958 H 277.525 -2.16547 2.27522 0
M  V30 2959 H 276.718 -1.95193 4.64667 0
M  V30 2960 H 276.32 -0.494797 3.70713 0
M  V30 2961 H 278.612 -2.10344 6.4402 0
M  V30 2962 H 279.555 -0.70472 7.04584 0
M  V30 2963 H 279.963 -1.42768 5.46148 0
M  V30 2964 N 279.361 -1.56624 0.175154 0
M  V30 2965 C 280.586 -2.01813 -0.478137 0
M  V30 2966 C 281.011 -1.05457 -1.55757 0
M  V30 2967 O 280.369 -0.0347439 -1.81267 0
M  V30 2968 C 280.417 -3.45581 -1.02987 0
M  V30 2969 O 279.521 -3.52305 -2.14371 0
M  V30 2970 H 278.862 -0.65413 -0.114059 0
M  V30 2971 H 281.392 -2.02673 0.280173 0
M  V30 2972 H 281.402 -3.84965 -1.35151 0
M  V30 2973 H 280.077 -4.1521 -0.239556 0
M  V30 2974 H 278.654 -3.24783 -1.83222 0
M  V30 2975 N 280.839 0.0985539 -1.57292 0
M  V30 2976 C 282.067 0.816318 -1.90115 0
M  V30 2977 C 282.482 1.72451 -0.768509 0
M  V30 2978 O 281.839 1.80643 0.259687 0
M  V30 2979 C 281.89 1.63259 -3.22535 0
M  V30 2980 O 281.611 0.760934 -4.31441 0
M  V30 2981 C 283.112 2.45372 -3.69199 0
M  V30 2982 H 280.332 0.233595 -0.629027 0
M  V30 2983 H 282.876 0.0768229 -2.04356 0
M  V30 2984 H 281.031 2.32463 -3.09903 0
M  V30 2985 H 281.445 1.32595 -5.07463 0
M  V30 2986 H 282.919 2.98144 -4.64558 0
M  V30 2987 H 283.396 3.23677 -2.96867 0
M  V30 2988 H 284.002 1.81373 -3.84687 0
M  V30 2989 N 282.317 1.53212 0.369288 0
M  V30 2990 C 283.564 1.69215 1.11232 0
M  V30 2991 C 283.892 0.442048 1.8941 0
M  V30 2992 O 283.147 -0.575944 1.87033 0
M  V30 2993 C 283.446 2.89101 2.10132 0
M  V30 2994 C 283.112 4.25758 1.48463 0
M  V30 2995 C 281.774 4.6292 1.31372 0
M  V30 2996 C 284.126 5.10757 1.03811 0
M  V30 2997 C 281.454 5.82722 0.68207 0
M  V30 2998 C 283.806 6.31201 0.420487 0
M  V30 2999 C 282.47 6.67079 0.237038 0
M  V30 3000 H 281.74 0.619201 0.407027 0
M  V30 3001 H 284.387 1.87391 0.394552 0
M  V30 3002 H 282.692 2.65421 2.88199 0
M  V30 3003 H 284.389 2.98676 2.6757 0
M  V30 3004 H 280.979 3.96494 1.62758 0
M  V30 3005 H 285.163 4.82599 1.1581 0
M  V30 3006 H 280.419 6.09113 0.528316 0
M  V30 3007 H 284.593 6.96368 0.0662874 0
M  V30 3008 H 282.22 7.59774 -0.254477 0
M  V30 3009 N 283.795 -0.628877 1.44509 0
M  V30 3010 C 285.02 -1.42048 1.5112 0
M  V30 3011 C 285.445 -1.87594 0.137818 0
M  V30 3012 O 284.803 -1.58873 -0.873437 0
M  V30 3013 C 284.851 -2.61541 2.48251 0
M  V30 3014 O 283.955 -3.61453 1.98559 0
M  V30 3015 H 283.296 -0.424942 0.510216 0
M  V30 3016 H 285.826 -0.767374 1.89664 0
M  V30 3017 H 285.836 -3.09057 2.66361 0
M  V30 3018 H 284.511 -2.27736 3.48007 0
M  V30 3019 H 283.088 -3.20731 1.90227 0
M  V30 3020 N 285.273 -1.31445 -0.869486 0
M  V30 3021 C 286.522 -1.20517 -1.61736 0
M  V30 3022 C 286.835 0.235341 -1.94179 0
M  V30 3023 O 288.041 0.466312 -2.67465 0
M  V30 3024 C 286.497 -2.10982 -2.91573 0
M  V30 3025 C 286.105 -3.60032 -2.66611 0
M  V30 3026 C 287.849 -2.08856 -3.69567 0
M  V30 3027 C 285.756 -4.42503 -3.92358 0
M  V30 3028 H 284.686 -0.447493 -0.606849 0
M  V30 3029 H 287.337 -1.56303 -0.96133 0
M  V30 3030 H 285.719 -1.68095 -3.58553 0
M  V30 3031 H 286.893 -4.11167 -2.08035 0
M  V30 3032 H 285.208 -3.64139 -2.0197 0
M  V30 3033 H 287.805 -2.67716 -4.62852 0
M  V30 3034 H 288.148 -1.07582 -4.02159 0
M  V30 3035 H 288.681 -2.49945 -3.09471 0
M  V30 3036 H 285.42 -5.44533 -3.64916 0
M  V30 3037 H 284.94 -3.96125 -4.50383 0
M  V30 3038 H 286.619 -4.54741 -4.60238 0
M  V30 3039 N 286.751 1.08385 -1.14413 0
M  V30 3040 C 287.999 1.80419 -0.910679 0
M  V30 3041 C 288.32 1.86658 0.564243 0
M  V30 3042 O 287.59 1.35985 1.41014 0
M  V30 3043 H 286.17 0.668204 -0.333934 0
M  V30 3044 H 288.832 1.31037 -1.44275 0
M  V30 3045 H 287.928 2.83238 -1.31082 0
M  V30 3046 N 288.23 0.939286 1.26551 0
M  V30 3047 C 289.16 0.465044 2.28822 0
M  V30 3048 C 290.141 -0.480692 1.63167 0
M  V30 3049 O 291.326 -0.382955 1.90387 0
M  V30 3050 C 288.456 -0.27234 3.46231 0
M  V30 3051 C 287.41 0.58666 4.2396 0
M  V30 3052 C 286.736 -0.280573 5.33963 0
M  V30 3053 C 288.036 1.85704 4.88171 0
M  V30 3054 H 289.73 1.31979 2.68741 0
M  V30 3055 H 287.276 0.636061 1.29191 0
M  V30 3056 H 289.229 -0.615133 4.16886 0
M  V30 3057 H 287.953 -1.16121 3.0526 0
M  V30 3058 H 286.612 0.91232 3.55067 0
M  V30 3059 H 286.26 -1.16874 4.89234 0
M  V30 3060 H 285.96 0.29076 5.8688 0
M  V30 3061 H 287.484 -0.618678 6.07458 0
M  V30 3062 H 288.898 1.58161 5.51052 0
M  V30 3063 H 287.295 2.37279 5.51197 0
M  V30 3064 H 288.365 2.56957 4.11219 0
M  V30 3065 N 289.708 -1.40897 0.706093 0
M  V30 3066 C 290.671 -2.29131 0.0562841 0
M  V30 3067 C 291.671 -1.44901 -0.697166 0
M  V30 3068 O 292.861 -1.65926 -0.530484 0
M  V30 3069 C 289.993 -3.27957 -0.93043 0
M  V30 3070 H 291.186 -2.88091 0.833284 0
M  V30 3071 H 288.739 -1.4906 0.470192 0
M  V30 3072 H 289.474 -2.73997 -1.73482 0
M  V30 3073 H 289.259 -3.90124 -0.393166 0
M  V30 3074 H 290.749 -3.94049 -1.38256 0
M  V30 3075 N 291.186 -0.45159 -1.50991 0
M  V30 3076 C 292.432 0.110237 -2.025 0
M  V30 3077 C 292.765 1.41109 -1.33424 0
M  V30 3078 O 292.04 1.89135 -0.453659 0
M  V30 3079 C 292.323 0.314271 -3.58726 0
M  V30 3080 C 292.176 -1.00623 -4.38401 0
M  V30 3081 C 293.495 1.07767 -4.26702 0
M  V30 3082 H 290.614 0.0385897 -0.735989 0
M  V30 3083 H 293.256 -0.593374 -1.80497 0
M  V30 3084 H 291.406 0.913601 -3.77605 0
M  V30 3085 H 293.078 -1.64064 -4.31139 0
M  V30 3086 H 291.321 -1.6075 -4.02917 0
M  V30 3087 H 291.992 -0.817341 -5.45915 0
M  V30 3088 H 294.468 0.56986 -4.12179 0
M  V30 3089 H 293.344 1.18921 -5.35863 0
M  V30 3090 H 293.605 2.10939 -3.88532 0
M  V30 3091 N 292.664 1.56529 -0.183458 0
M  V30 3092 C 293.912 1.96855 0.457452 0
M  V30 3093 C 294.233 1.07104 1.62953 0
M  V30 3094 O 293.503 0.139887 1.954 0
M  V30 3095 H 292.083 0.72693 0.171992 0
M  V30 3096 H 294.745 1.93056 -0.267476 0
M  V30 3097 H 293.841 3.01423 0.809368 0
M  V30 3098 N 294.142 -0.090211 1.57342 0
M  V30 3099 C 295.072 -1.10976 2.05443 0
M  V30 3100 C 296.053 -1.41482 0.944284 0
M  V30 3101 O 297.238 -1.51428 1.21586 0
M  V30 3102 C 294.368 -2.42831 2.48295 0
M  V30 3103 C 293.322 -2.26721 3.63018 0
M  V30 3104 C 292.648 -3.63796 3.91863 0
M  V30 3105 C 293.948 -1.7037 4.93732 0
M  V30 3106 H 295.642 -0.709564 2.9087 0
M  V30 3107 H 293.188 -0.339874 1.39932 0
M  V30 3108 H 295.141 -3.14431 2.80555 0
M  V30 3109 H 293.865 -2.84795 1.59873 0
M  V30 3110 H 292.524 -1.57565 3.31012 0
M  V30 3111 H 292.172 -4.03297 3.00601 0
M  V30 3112 H 291.872 -3.53861 4.69101 0
M  V30 3113 H 293.396 -4.36855 4.26603 0
M  V30 3114 H 294.81 -2.31816 5.24342 0
M  V30 3115 H 293.207 -1.71181 5.75167 0
M  V30 3116 H 294.277 -0.663542 4.80339 0
M  V30 3117 N 295.62 -1.53406 -0.361157 0
M  V30 3118 C 296.866 -1.70054 -1.10496 0
M  V30 3119 C 297.199 -0.453278 -1.88836 0
M  V30 3120 O 296.474 0.5495 -1.86576 0
M  V30 3121 C 296.757 -2.95317 -2.06058 0
M  V30 3122 C 296.61 -4.3021 -1.31298 0
M  V30 3123 C 297.929 -3.16193 -3.06121 0
M  V30 3124 H 295.048 -0.618799 -0.400321 0
M  V30 3125 H 297.69 -1.86052 -0.385318 0
M  V30 3126 H 295.84 -2.81809 -2.67425 0
M  V30 3127 H 297.512 -4.55538 -0.726807 0
M  V30 3128 H 295.755 -4.29421 -0.614853 0
M  V30 3129 H 296.426 -5.14 -2.01265 0
M  V30 3130 H 298.902 -3.28916 -2.5486 0
M  V30 3131 H 297.778 -4.05266 -3.70204 0
M  V30 3132 H 298.039 -2.31676 -3.76535 0
M  V30 3133 N 297.098 0.621204 -1.44841 0
M  V30 3134 C 298.045 1.73267 -1.5247 0
M  V30 3135 C 299.015 1.6189 -0.371611 0
M  V30 3136 O 300.2 1.81668 -0.58321 0
M  V30 3137 C 297.34 3.11545 -1.48438 0
M  V30 3138 C 296.453 3.33827 -2.74196 0
M  V30 3139 C 295.588 4.62133 -2.61929 0
M  V30 3140 C 294.627 4.77627 -3.82804 0
M  V30 3141 N 293.764 5.97219 -3.69153 0
M  V30 3142 H 298.604 1.66082 -2.47428 0
M  V30 3143 H 296.141 0.810026 -1.22788 0
M  V30 3144 H 298.099 3.91528 -1.4409 0
M  V30 3145 H 296.729 3.1772 -0.570402 0
M  V30 3146 H 295.781 2.47715 -2.88689 0
M  V30 3147 H 297.093 3.41153 -3.6389 0
M  V30 3148 H 296.247 5.50291 -2.5547 0
M  V30 3149 H 294.986 4.57182 -1.69811 0
M  V30 3150 H 293.991 3.87896 -3.89637 0
M  V30 3151 H 295.216 4.84385 -4.75971 0
M  V30 3152 H 293.162 5.93339 -2.79794 0
M  V30 3153 H 293.079 6.05644 -4.52472 0
M  V30 3154 H 294.347 6.87912 -3.66603 0
M  V30 3155 N 298.576 1.31904 0.862503 0
M  V30 3156 C 299.824 1.21776 1.61292 0
M  V30 3157 C 300.145 -0.222413 1.93727 0
M  V30 3158 O 299.415 -1.1451 1.58947 0
M  V30 3159 H 297.995 0.447717 0.597962 0
M  V30 3160 H 300.657 1.65326 1.03215 0
M  V30 3161 H 299.753 1.7948 2.5533 0
M  V30 3162 N 300.054 -1.07777 1.14986 0
M  V30 3163 C 301.3 -1.80719 0.93339 0
M  V30 3164 C 301.655 -1.8484 -0.534019 0
M  V30 3165 O 300.948 -1.31795 -1.3907 0
M  V30 3166 C 301.142 -3.25495 1.47608 0
M  V30 3167 C 300.971 -3.3548 2.99472 0
M  V30 3168 C 299.741 -3.46293 3.6798 0
M  V30 3169 C 301.939 -3.26596 3.97291 0
M  V30 3170 N 299.921 -3.45136 5.07695 0
M  V30 3171 C 301.292 -3.32506 5.23297 0
M  V30 3172 C 303.347 -3.10376 3.89321 0
M  V30 3173 C 302.05 -3.23866 6.42264 0
M  V30 3174 C 304.076 -3.03069 5.07842 0
M  V30 3175 C 303.438 -3.09587 6.32721 0
M  V30 3176 H 299.537 -0.674814 0.395158 0
M  V30 3177 H 302.121 -1.28681 1.46114 0
M  V30 3178 H 300.292 -3.75963 0.975022 0
M  V30 3179 H 302.024 -3.86535 1.19887 0
M  V30 3180 H 298.779 -3.50456 3.18555 0
M  V30 3181 H 299.203 -3.48097 5.80653 0
M  V30 3182 H 303.845 -3.04194 2.93642 0
M  V30 3183 H 301.563 -3.28807 7.38181 0
M  V30 3184 H 305.149 -2.91629 5.03432 0
M  V30 3185 H 304.029 -3.0397 7.22891 0
M  V30 3186 N 301.532 -0.945985 -1.26051 0
M  V30 3187 C 302.479 -0.45809 -2.26208 0
M  V30 3188 C 303.449 0.484816 -1.58867 0
M  V30 3189 O 304.634 0.399969 -1.86561 0
M  V30 3190 C 301.774 0.266131 -3.44072 0
M  V30 3191 C 300.887 -0.713005 -4.26075 0
M  V30 3192 C 300.022 0.0329013 -5.3119 0
M  V30 3193 C 299.061 -0.93774 -6.04874 0
M  V30 3194 N 298.198 -0.223274 -7.01745 0
M  V30 3195 H 303.038 -1.3171 -2.67313 0
M  V30 3196 H 300.575 -0.66069 -1.31428 0
M  V30 3197 H 302.533 0.702514 -4.11243 0
M  V30 3198 H 301.163 1.08925 -3.03867 0
M  V30 3199 H 300.215 -1.26789 -3.58648 0
M  V30 3200 H 301.527 -1.45406 -4.77136 0
M  V30 3201 H 300.681 0.528335 -6.04395 0
M  V30 3202 H 299.42 0.806801 -4.8098 0
M  V30 3203 H 298.425 -1.44425 -5.30492 0
M  V30 3204 H 299.65 -1.71172 -6.57173 0
M  V30 3205 H 297.596 0.532046 -6.53839 0
M  V30 3206 H 297.513 -0.90357 -7.50581 0
M  V30 3207 H 298.781 0.250907 -7.79096 0
M  V30 3208 N 303.011 1.40521 -0.713556 0
M  V30 3209 C 303.941 2.33381 -0.0743864 0
M  V30 3210 C 304.922 1.52784 0.747735 0
M  V30 3211 O 306.107 1.81258 0.697071 0
M  V30 3212 C 303.237 3.36748 0.849598 0
M  V30 3213 C 302.191 4.27793 0.133247 0
M  V30 3214 C 301.517 5.21679 1.17281 0
M  V30 3215 C 302.817 5.12415 -1.01134 0
M  V30 3216 H 304.511 2.87081 -0.850007 0
M  V30 3217 H 302.057 1.38034 -0.410201 0
M  V30 3218 H 304.01 4.00648 1.30612 0
M  V30 3219 H 302.734 2.81439 1.65709 0
M  V30 3220 H 301.393 3.65342 -0.303426 0
M  V30 3221 H 301.041 4.62677 1.9733 0
M  V30 3222 H 300.741 5.83435 0.698397 0
M  V30 3223 H 302.265 5.88456 1.62947 0
M  V30 3224 H 303.679 5.69781 -0.634274 0
M  V30 3225 H 302.076 5.83203 -1.41399 0
M  V30 3226 H 303.146 4.48514 -1.84292 0
M  V30 3227 N 304.489 0.459591 1.5075 0
M  V30 3228 C 305.717 -0.0973749 2.06671 0
M  V30 3229 C 306.132 -1.34524 1.32472 0
M  V30 3230 O 305.489 -1.7827 0.390634 0
M  V30 3231 C 305.54 -0.39714 3.59312 0
M  V30 3232 O 305.261 0.801214 4.30711 0
M  V30 3233 C 306.762 -1.00234 4.31819 0
M  V30 3234 H 303.982 0.00195854 0.670997 0
M  V30 3235 H 306.526 0.645072 1.94059 0
M  V30 3236 H 304.681 -1.08951 3.71764 0
M  V30 3237 H 305.095 0.538857 5.21725 0
M  V30 3238 H 306.569 -1.16193 5.39632 0
M  V30 3239 H 307.046 -1.98939 3.91561 0
M  V30 3240 H 307.652 -0.348699 4.23868 0
M  V30 3241 N 305.967 -1.56429 0.191757 0
M  V30 3242 C 306.897 -2.21937 -0.725696 0
M  V30 3243 C 307.878 -1.1814 -1.2238 0
M  V30 3244 O 309.063 -1.46636 -1.27325 0
M  V30 3245 C 306.193 -2.87611 -1.94672 0
M  V30 3246 C 305.147 -3.97623 -1.58366 0
M  V30 3247 C 304.473 -4.50446 -2.88102 0
M  V30 3248 C 305.773 -5.16197 -0.796133 0
M  V30 3249 H 307.467 -2.98861 -0.179606 0
M  V30 3250 H 305.013 -1.43749 -0.0849464 0
M  V30 3251 H 306.966 -3.3212 -2.59373 0
M  V30 3252 H 305.69 -2.08087 -2.51728 0
M  V30 3253 H 304.349 -3.53801 -0.960247 0
M  V30 3254 H 303.997 -3.67688 -3.43241 0
M  V30 3255 H 303.697 -5.24675 -2.64556 0
M  V30 3256 H 305.221 -4.97654 -3.53798 0
M  V30 3257 H 306.635 -5.57271 -1.34618 0
M  V30 3258 H 305.032 -5.96471 -0.658928 0
M  V30 3259 H 306.102 -4.84473 0.203478 0
M  V30 3260 N 307.445 0.0818655 -1.57387 0
M  V30 3261 C 308.691 0.784074 -1.8703 0
M  V30 3262 C 309.024 1.77729 -0.782689 0
M  V30 3263 O 308.299 1.93384 0.208051 0
M  V30 3264 C 308.582 1.50105 -3.27323 0
M  V30 3265 C 308.435 0.524925 -4.46727 0
M  V30 3266 C 309.754 2.44843 -3.65705 0
M  V30 3267 H 306.873 0.283582 -0.680257 0
M  V30 3268 H 309.515 0.0474352 -1.89941 0
M  V30 3269 H 307.665 2.12897 -3.24972 0
M  V30 3270 H 309.337 -0.0970111 -4.61198 0
M  V30 3271 H 307.58 -0.160606 -4.33503 0
M  V30 3272 H 308.251 1.064 -5.41648 0
M  V30 3273 H 310.727 1.92135 -3.69085 0
M  V30 3274 H 309.603 2.92018 -4.64776 0
M  V30 3275 H 309.864 3.29197 -2.95096 0
M  V30 3276 N 308.923 1.53595 0.353017 0
M  V30 3277 C 310.151 1.74311 1.1146 0
M  V30 3278 C 310.566 0.477854 1.82653 0
M  V30 3279 O 309.923 -0.549977 1.74016 0
M  V30 3280 C 309.974 2.91694 2.13534 0
M  V30 3281 O 309.695 4.13325 1.45238 0
M  V30 3282 C 311.196 3.24384 3.02142 0
M  V30 3283 H 308.416 0.582669 0.332773 0
M  V30 3284 H 310.96 2.00386 0.408107 0
M  V30 3285 H 309.115 2.67977 2.79763 0
M  V30 3286 H 309.529 4.79148 2.13349 0
M  V30 3287 H 311.003 4.09893 3.69718 0
M  V30 3288 H 311.48 2.40282 3.67643 0
M  V30 3289 H 312.086 3.50073 2.41514 0
M  V30 3290 N 310.401 -0.613514 1.45168 0
M  V30 3291 C 311.331 -1.7354 1.56225 0
M  V30 3292 C 312.312 -1.64981 0.41414 0
M  V30 3293 O 313.497 -1.83472 0.636526 0
M  V30 3294 C 310.627 -3.12128 1.52295 0
M  V30 3295 C 309.581 -3.35491 2.65762 0
M  V30 3296 C 308.907 -4.74291 2.46885 0
M  V30 3297 C 310.207 -3.26325 4.0781 0
M  V30 3298 H 311.901 -1.64543 2.50132 0
M  V30 3299 H 309.447 -0.790185 1.20383 0
M  V30 3300 H 311.4 -3.90404 1.58628 0
M  V30 3301 H 310.124 -3.2195 0.549139 0
M  V30 3302 H 308.783 -2.59603 2.58847 0
M  V30 3303 H 308.431 -4.80839 1.47657 0
M  V30 3304 H 308.131 -4.9088 3.22972 0
M  V30 3305 H 309.655 -5.54775 2.55063 0
M  V30 3306 H 311.069 -3.94483 4.16 0
M  V30 3307 H 309.466 -3.54445 4.8424 0
M  V30 3308 H 310.536 -2.23855 4.30136 0
M  V30 3309 N 311.879 -1.3236 -0.855495 0
M  V30 3310 C 313.104 -1.2601 -1.64731 0
M  V30 3311 C 313.529 0.169068 -1.87339 0
M  V30 3312 O 312.887 1.12016 -1.42556 0
M  V30 3313 C 312.935 -2.02417 -2.98429 0
M  V30 3314 O 312.039 -1.3714 -3.8893 0
M  V30 3315 H 311.38 -0.434325 -0.502253 0
M  V30 3316 H 313.91 -1.74661 -1.06558 0
M  V30 3317 H 313.92 -2.12559 -3.48257 0
M  V30 3318 H 312.595 -3.06343 -2.81295 0
M  V30 3319 H 311.172 -1.3554 -3.47395 0
M  V30 3320 N 313.357 1.07166 -1.15556 0
M  V30 3321 C 314.585 1.83514 -0.955519 0
M  V30 3322 C 315 1.82163 0.49621 0
M  V30 3323 O 314.357 1.23441 1.34419 0
M  V30 3324 C 314.408 3.30515 -1.46432 0
M  V30 3325 O 314.129 3.31937 -2.85918 0
M  V30 3326 C 315.63 4.23625 -1.30603 0
M  V30 3327 H 312.85 0.578926 -0.339244 0
M  V30 3328 H 315.394 1.35265 -1.53374 0
M  V30 3329 H 313.549 3.76106 -0.928584 0
M  V30 3330 H 313.963 4.23794 -3.09029 0
M  V30 3331 H 315.437 5.24831 -1.71047 0
M  V30 3332 H 315.914 4.38485 -0.250441 0
M  V30 3333 H 316.52 3.83871 -1.83094 0
M  V30 3334 N 314.835 0.952656 1.25548 0
M  V30 3335 C 316.06 0.623025 1.97821 0
M  V30 3336 C 316.485 -0.7976 1.70352 0
M  V30 3337 O 315.843 -1.53905 0.958283 0
M  V30 3338 C 315.891 0.885532 3.49558 0
M  V30 3339 O 314.995 -0.0366641 4.12384 0
M  V30 3340 H 314.336 0.237082 0.620232 0
M  V30 3341 H 316.866 1.27871 1.59719 0
M  V30 3342 H 316.876 0.811009 3.99858 0
M  V30 3343 H 315.551 1.92094 3.6888 0
M  V30 3344 H 314.128 0.0898954 3.72792 0
M  V30 3345 N 316.313 -1.40141 0.720998 0
M  V30 3346 C 317.724 -1.83678 0.334553 0
M  V30 3347 C 318.075 -1.6027 -1.13173 0
M  V30 3348 O 317.2 -1.08643 -1.87152 0
M  V30 3349 C 317.795 -3.33437 0.600437 0
M  V30 3350 C 316.354 -3.75447 0.267642 0
M  V30 3351 C 315.501 -2.63296 0.870097 0
M  V30 3352 H 318.452 -1.29331 0.919732 0
M  V30 3353 H 318.473 -3.80269 -0.132517 0
M  V30 3354 H 317.985 -3.50442 1.66768 0
M  V30 3355 H 316.086 -3.64035 -0.794329 0
M  V30 3356 H 316.199 -4.73344 0.74042 0
M  V30 3357 H 314.563 -2.52954 0.297739 0
M  V30 3358 H 315.346 -2.83112 1.94172 0
M  V30 3359 N 317.792 -0.46758 -1.50504 0
M  V30 3360 C 318.722 0.318381 -2.31319 0
M  V30 3361 C 319.703 0.993564 -1.38066 0
M  V30 3362 O 320.888 0.991411 -1.66987 0
M  V30 3363 C 318.018 1.40275 -3.17711 0
M  V30 3364 C 316.972 0.849373 -4.19487 0
M  V30 3365 C 316.298 2.03177 -4.94594 0
M  V30 3366 C 317.598 -0.136942 -5.2212 0
M  V30 3367 H 319.292 -0.356106 -2.97275 0
M  V30 3368 H 316.838 -0.172703 -1.42961 0
M  V30 3369 H 318.791 1.96004 -3.73042 0
M  V30 3370 H 317.515 2.10596 -2.49634 0
M  V30 3371 H 316.174 0.314076 -3.65252 0
M  V30 3372 H 315.822 2.72187 -4.22993 0
M  V30 3373 H 315.522 1.66774 -5.63436 0
M  V30 3374 H 317.046 2.59403 -5.52759 0
M  V30 3375 H 318.46 0.331056 -5.72343 0
M  V30 3376 H 316.857 -0.41507 -5.98663 0
M  V30 3377 H 317.927 -1.06398 -4.73083 0
M  V30 3378 N 319.27 1.56325 -0.20005 0
M  V30 3379 C 320.519 1.96895 0.437652 0
M  V30 3380 C 320.832 1.08999 1.62415 0
M  V30 3381 O 322.038 1.39372 2.32997 0
M  V30 3382 C 320.494 3.50198 0.830025 0
M  V30 3383 C 320.102 4.46765 -0.332461 0
M  V30 3384 C 321.846 3.99526 1.43453 0
M  V30 3385 C 319.753 5.91344 0.0811468 0
M  V30 3386 H 318.683 0.735209 0.167282 0
M  V30 3387 H 321.334 1.81148 -0.292853 0
M  V30 3388 H 319.716 3.61467 1.61734 0
M  V30 3389 H 320.89 4.47231 -1.11 0
M  V30 3390 H 319.205 4.07657 -0.848789 0
M  V30 3391 H 321.802 5.05025 1.75652 0
M  V30 3392 H 322.145 3.44122 2.34277 0
M  V30 3393 H 322.678 3.91393 0.71109 0
M  V30 3394 H 319.417 6.50685 -0.793033 0
M  V30 3395 H 318.937 5.94121 0.823445 0
M  V30 3396 H 320.616 6.44945 0.515252 0
M  V30 3397 N 320.748 -0.0735177 1.57428 0
M  V30 3398 C 321.681 -1.11932 1.98863 0
M  V30 3399 C 322.659 -1.37666 0.865266 0
M  V30 3400 O 323.843 -1.51068 1.12742 0
M  V30 3401 C 320.97 -2.46403 2.32386 0
M  V30 3402 C 320.016 -2.36815 3.54713 0
M  V30 3403 S 320.849 -1.76392 5.05614 0
M  V30 3404 C 322.005 -3.12444 5.42337 0
M  V30 3405 H 322.238 -0.766212 2.87257 0
M  V30 3406 H 319.771 -0.281987 1.51803 0
M  V30 3407 H 321.729 -3.23755 2.52375 0
M  V30 3408 H 320.39 -2.78876 1.44524 0
M  V30 3409 H 319.583 -3.35977 3.7568 0
M  V30 3410 H 319.185 -1.67598 3.34345 0
M  V30 3411 H 321.477 -4.08753 5.40303 0
M  V30 3412 H 322.42 -2.96258 6.43146 0
M  V30 3413 H 322.828 -3.1297 4.69798 0
M  V30 3414 N 322.226 -1.5378 -0.344866 0
M  V30 3415 C 323.189 -1.80981 -1.40637 0
M  V30 3416 C 324.189 -0.680816 -1.45676 0
M  V30 3417 O 325.379 -0.949095 -1.46075 0
M  V30 3418 C 322.511 -1.95063 -2.79577 0
M  V30 3419 H 323.704 -2.75803 -1.17783 0
M  V30 3420 H 321.257 -1.45173 -0.579181 0
M  V30 3421 H 321.992 -1.02379 -3.07716 0
M  V30 3422 H 321.777 -2.77198 -2.77315 0
M  V30 3423 H 323.267 -2.17629 -3.56409 0
M  V30 3424 N 323.704 0.605807 -1.45491 0
M  V30 3425 C 324.929 1.39625 -1.53361 0
M  V30 3426 C 325.354 1.87351 -0.167645 0
M  V30 3427 O 324.712 1.60243 0.848051 0
M  V30 3428 C 324.76 2.57559 -2.5238 0
M  V30 3429 O 323.864 3.58248 -2.04285 0
M  V30 3430 H 323.205 0.416771 -0.516912 0
M  V30 3431 H 325.735 0.737103 -1.90861 0
M  V30 3432 H 325.745 3.0478 -2.71244 0
M  V30 3433 H 324.42 2.22171 -3.51586 0
M  V30 3434 H 322.997 3.17664 -1.95305 0
M  V30 3435 N 325.182 1.32811 0.848464 0
M  V30 3436 C 326.145 1.22194 1.9391 0
M  V30 3437 C 327.145 0.143404 1.60159 0
M  V30 3438 O 328.335 0.394253 1.6968 0
M  V30 3439 C 325.467 0.88067 3.29328 0
M  V30 3440 H 326.66 2.19127 2.04752 0
M  V30 3441 H 324.213 1.16731 1.0394 0
M  V30 3442 H 324.948 -0.0865776 3.24184 0
M  V30 3443 H 324.733 1.66052 3.55203 0
M  V30 3444 H 326.223 0.830871 4.09251 0
M  V30 3445 N 326.66 -1.06551 1.16123 0
M  V30 3446 C 327.623 -2.12132 0.867906 0
M  V30 3447 C 328.623 -1.60224 -0.135944 0
M  V30 3448 O 329.813 -1.73943 0.0946422 0
M  V30 3449 C 326.945 -3.396 0.297419 0
M  V30 3450 H 328.138 -2.39586 1.80385 0
M  V30 3451 H 325.691 -1.22574 0.969812 0
M  V30 3452 H 326.426 -3.17794 -0.64633 0
M  V30 3453 H 326.211 -3.78581 1.02073 0
M  V30 3454 H 327.701 -4.17455 0.110052 0
M  V30 3455 N 328.138 -0.959301 -1.25041 0
M  V30 3456 C 329.101 -0.487677 -2.23952 0
M  V30 3457 C 330.101 0.41119 -1.55454 0
M  V30 3458 O 331.291 0.207825 -1.72956 0
M  V30 3459 C 328.423 0.294807 -3.39623 0
M  V30 3460 H 329.616 -1.36198 -2.67189 0
M  V30 3461 H 327.169 -0.743042 -1.37508 0
M  V30 3462 H 327.904 1.18658 -3.01813 0
M  V30 3463 H 327.689 -0.35012 -3.90534 0
M  V30 3464 H 329.179 0.614089 -4.1306 0
M  V30 3465 N 329.616 1.39756 -0.72842 0
M  V30 3466 C 330.856 2.025 -0.278078 0
M  V30 3467 C 331.22 1.5654 1.11173 0
M  V30 3468 O 332.421 2.11435 1.65978 0
M  V30 3469 C 330.692 3.55489 -0.369139 0
M  V30 3470 S 332.251 4.388 0.00232983 0
M  V30 3471 H 329.069 0.702534 -0.109391 0
M  V30 3472 H 331.671 1.70672 -0.95348 0
M  V30 3473 H 330.375 3.86429 -1.38204 0
M  V30 3474 H 329.906 3.92061 0.324308 0
M  V30 3475 H 331.921 4.80954 1.22055 0
M  V30 3476 N 331.094 0.475555 1.50254 0
M  V30 3477 C 332.319 -0.0777042 2.07254 0
M  V30 3478 C 332.744 -1.3235 1.3366 0
M  V30 3479 O 332.102 -1.77152 0.385597 0
M  V30 3480 C 332.15 -0.340169 3.58992 0
M  V30 3481 O 331.254 -1.41982 3.87188 0
M  V30 3482 H 330.595 0.0149556 0.663832 0
M  V30 3483 H 333.125 0.667878 1.93392 0
M  V30 3484 H 333.135 -0.579332 4.03866 0
M  V30 3485 H 331.81 0.570167 4.11973 0
M  V30 3486 H 330.387 -1.16762 3.54148 0
M  V30 3487 N 332.573 -1.56217 0.208337 0
M  V30 3488 C 333.989 -1.58919 -0.14729 0
M  V30 3489 C 334.189 -1.22486 -1.59998 0
M  V30 3490 O 333.245 -0.953849 -2.3379 0
M  V30 3491 C 334.558 -3.00236 0.167048 0
M  V30 3492 C 336.106 -3.12813 0.108219 0
M  V30 3493 C 336.581 -4.56284 0.396049 0
M  V30 3494 N 338.072 -4.61912 0.345142 0
M  V30 3495 C 338.807 -5.70837 0.541523 0
M  V30 3496 N 338.303 -6.88178 0.798968 0
M  V30 3497 N 340.096 -5.60091 0.474867 0
M  V30 3498 H 332.247 -1.78177 1.15614 0
M  V30 3499 H 334.51 -0.827555 0.462446 0
M  V30 3500 H 334.216 -3.31499 1.1748 0
M  V30 3501 H 334.09 -3.7354 -0.524184 0
M  V30 3502 H 336.477 -2.81354 -0.890157 0
M  V30 3503 H 336.558 -2.41866 0.832729 0
M  V30 3504 H 336.202 -4.88458 1.3918 0
M  V30 3505 H 336.132 -5.25439 -0.349502 0
M  V30 3506 H 338.623 -3.77589 0.153316 0
M  V30 3507 H 338.936 -7.67095 0.93727 0
M  V30 3508 H 337.281 -6.89953 0.836013 0
M  V30 3509 H 340.472 -4.67297 0.274064 0
M  V30 3510 H 340.645 -6.44917 0.631326 0
M  V30 3511 N 334.051 0.0651679 -1.57465 0
M  V30 3512 C 334.984 1.10876 -1.99453 0
M  V30 3513 C 335.962 1.37205 -0.872555 0
M  V30 3514 O 337.146 1.50468 -1.13542 0
M  V30 3515 C 334.273 2.45167 -2.3369 0
M  V30 3516 C 333.319 2.3493 -3.55964 0
M  V30 3517 S 334.152 1.73708 -5.06543 0
M  V30 3518 C 335.308 3.09563 -5.43987 0
M  V30 3519 H 335.541 0.750967 -2.87659 0
M  V30 3520 H 333.074 0.273933 -1.51951 0
M  V30 3521 H 335.032 3.22412 -2.54088 0
M  V30 3522 H 333.693 2.78105 -1.46001 0
M  V30 3523 H 332.886 3.3398 -3.77457 0
M  V30 3524 H 332.488 1.65823 -3.3523 0
M  V30 3525 H 334.78 4.05882 -5.42463 0
M  V30 3526 H 335.723 2.92843 -6.44708 0
M  V30 3527 H 336.131 3.10474 -4.71451 0
M  V30 3528 N 335.529 1.53961 0.336706 0
M  V30 3529 C 336.775 1.7179 1.07777 0
M  V30 3530 C 337.108 0.483263 1.88091 0
M  V30 3531 O 336.383 -0.519747 1.87427 0
M  V30 3532 C 336.666 2.98558 2.01334 0
M  V30 3533 C 336.519 4.32245 1.24437 0
M  V30 3534 C 337.838 3.21023 3.01052 0
M  V30 3535 H 334.957 0.625089 0.390426 0
M  V30 3536 H 337.599 1.86641 0.35567 0
M  V30 3537 H 335.749 2.86028 2.62908 0
M  V30 3538 H 337.421 4.56637 0.654243 0
M  V30 3539 H 335.664 4.30344 0.546458 0
M  V30 3540 H 336.335 5.17137 1.93063 0
M  V30 3541 H 338.811 3.32929 2.49595 0
M  V30 3542 H 337.687 4.11104 3.6371 0
M  V30 3543 H 337.948 2.37637 3.72802 0
M  V30 3544 N 337.007 -0.598083 1.45811 0
M  V30 3545 C 338.256 -1.35295 1.49594 0
M  V30 3546 C 338.569 -1.95057 0.145679 0
M  V30 3547 O 339.775 -2.71431 0.0612099 0
M  V30 3548 C 338.231 -2.45124 2.63519 0
M  V30 3549 C 337.839 -1.91732 4.04899 0
M  V30 3550 C 339.583 -3.2205 2.76558 0
M  V30 3551 C 337.49 -2.991 5.1019 0
M  V30 3552 H 336.42 -0.508552 0.556679 0
M  V30 3553 H 339.071 -0.639977 1.71978 0
M  V30 3554 H 337.453 -3.19149 2.34435 0
M  V30 3555 H 338.627 -1.24352 4.43704 0
M  V30 3556 H 336.942 -1.27522 3.96393 0
M  V30 3557 H 339.539 -4.0215 3.52391 0
M  V30 3558 H 339.882 -3.73663 1.83526 0
M  V30 3559 H 340.415 -2.55127 3.05213 0
M  V30 3560 H 337.154 -2.52393 6.04961 0
M  V30 3561 H 336.674 -3.65017 4.75944 0
M  V30 3562 H 338.353 -3.63318 5.35359 0
M  V30 3563 N 338.485 -1.33259 -0.841409 0
M  V30 3564 C 339.71 -1.2775 -1.63385 0
M  V30 3565 C 340.135 0.149188 -1.87507 0
M  V30 3566 O 339.493 1.10498 -1.43736 0
M  V30 3567 C 339.541 -2.05571 -2.96265 0
M  V30 3568 O 338.645 -1.41257 -3.87453 0
M  V30 3569 H 337.986 -0.439627 -0.497618 0
M  V30 3570 H 340.516 -1.75782 -1.04699 0
M  V30 3571 H 340.526 -2.16241 -3.45982 0
M  V30 3572 H 339.201 -3.09309 -2.7803 0
M  V30 3573 H 337.778 -1.39217 -3.45938 0
M  V30 3574 N 339.963 1.05934 -1.16686 0
M  V30 3575 C 340.893 2.1546 -0.899949 0
M  V30 3576 C 341.874 1.69391 0.155154 0
M  V30 3577 O 343.059 1.94199 0.00648693 0
M  V30 3578 C 340.189 3.44939 -0.404241 0
M  V30 3579 C 339.143 4.04536 -1.39767 0
M  V30 3580 C 338.469 5.29268 -0.760216 0
M  V30 3581 C 339.769 4.42893 -2.76845 0
M  V30 3582 H 341.463 2.38046 -1.81588 0
M  V30 3583 H 339.009 1.14404 -0.874514 0
M  V30 3584 H 340.962 4.20901 -0.204971 0
M  V30 3585 H 339.686 3.21983 0.547206 0
M  V30 3586 H 338.345 3.30635 -1.58355 0
M  V30 3587 H 337.993 5.02611 0.197831 0
M  V30 3588 H 337.693 5.70101 -1.42332 0
M  V30 3589 H 339.217 6.07924 -0.57105 0
M  V30 3590 H 340.631 5.09921 -2.62019 0
M  V30 3591 H 339.028 4.94721 -3.39663 0
M  V30 3592 H 340.098 3.53584 -3.31823 0
M  V30 3593 N 341.441 0.965919 1.2453 0
M  V30 3594 C 342.669 0.644385 1.96609 0
M  V30 3595 C 343.084 -0.785823 1.71669 0
M  V30 3596 O 342.441 -1.52703 0.999399 0
M  V30 3597 C 342.492 0.907375 3.49927 0
M  V30 3598 O 342.213 2.28136 3.74013 0
M  V30 3599 C 343.714 0.599784 4.39224 0
M  V30 3600 H 340.934 0.240588 0.626385 0
M  V30 3601 H 343.478 1.29337 1.58405 0
M  V30 3602 H 341.633 0.304631 3.862 0
M  V30 3603 H 342.047 2.36002 4.68405 0
M  V30 3604 H 343.521 0.834263 5.45659 0
M  V30 3605 H 343.998 -0.465921 4.36722 0
M  V30 3606 H 344.604 1.18235 4.08535 0
M  V30 3607 N 342.919 -1.39368 0.735821 0
M  V30 3608 C 344.144 -2.05319 0.293052 0
M  V30 3609 C 344.569 -1.55115 -1.064 0
M  V30 3610 O 343.927 -0.695261 -1.67439 0
M  V30 3611 C 343.975 -3.59305 0.305323 0
M  V30 3612 O 343.079 -4.06299 -0.706761 0
M  V30 3613 H 342.42 -0.650529 0.13307 0
M  V30 3614 H 344.95 -1.78386 1.00197 0
M  V30 3615 H 344.96 -4.07724 0.149997 0
M  V30 3616 H 343.635 -3.95207 1.29553 0
M  V30 3617 H 342.212 -3.69292 -0.517504 0
M  V30 3618 N 344.397 -0.483516 -1.5 0
M  V30 3619 C 345.344 0.304164 -2.28787 0
M  V30 3620 C 346.314 0.976114 -1.34392 0
M  V30 3621 O 347.499 0.986156 -1.63339 0
M  V30 3622 C 344.639 1.37298 -3.16612 0
M  V30 3623 C 343.752 0.714561 -4.26049 0
M  V30 3624 C 342.887 1.76232 -5.01114 0
M  V30 3625 C 341.926 1.08483 -6.0241 0
M  V30 3626 N 341.063 2.076 -6.70706 0
M  V30 3627 H 345.903 -0.373981 -2.95644 0
M  V30 3628 H 343.44 -0.196275 -1.45785 0
M  V30 3629 H 345.398 2.00445 -3.65893 0
M  V30 3630 H 344.028 2.02012 -2.51776 0
M  V30 3631 H 343.08 -0.0297798 -3.80388 0
M  V30 3632 H 344.392 0.180383 -4.98474 0
M  V30 3633 H 343.546 2.46929 -5.54176 0
M  V30 3634 H 342.285 2.33033 -4.28424 0
M  V30 3635 H 341.29 0.363545 -5.48597 0
M  V30 3636 H 342.515 0.523551 -6.77079 0
M  V30 3637 H 340.461 2.63394 -6.00799 0
M  V30 3638 H 340.378 1.59201 -7.39047 0
M  V30 3639 H 341.646 2.77639 -7.2838 0
M  V30 3640 N 345.875 1.56104 -0.216619 0
M  V30 3641 C 346.785 2.23694 0.706982 0
M  V30 3642 C 347.801 1.24295 1.21765 0
M  V30 3643 O 348.977 1.57094 1.2603 0
M  V30 3644 C 346.042 2.8998 1.90033 0
M  V30 3645 C 345.103 4.04708 1.43213 0
M  V30 3646 C 344.336 4.67824 2.56859 0
M  V30 3647 O 344.559 4.29913 3.74874 0
M  V30 3648 O 343.493 5.56905 2.28343 0
M  V30 3649 H 347.319 3.03272 0.161235 0
M  V30 3650 H 344.904 1.49394 0.0136177 0
M  V30 3651 H 346.786 3.31837 2.59735 0
M  V30 3652 H 345.461 2.13365 2.43428 0
M  V30 3653 H 344.368 3.6743 0.70327 0
M  V30 3654 H 345.701 4.83051 0.944615 0
M  V30 3655 N 347.353 -0.0568162 1.57498 0
M  V30 3656 C 348.283 -1.06593 2.0775 0
M  V30 3657 C 349.264 -1.39448 0.974082 0
M  V30 3658 O 350.449 -1.48815 1.24771 0
M  V30 3659 C 347.579 -2.37509 2.5339 0
M  V30 3660 C 346.533 -2.1897 3.67745 0
M  V30 3661 C 345.859 -3.55402 3.99492 0
M  V30 3662 C 347.159 -1.59859 4.97235 0
M  V30 3663 H 348.853 -0.647706 2.9231 0
M  V30 3664 H 346.399 -0.310116 1.40621 0
M  V30 3665 H 348.352 -3.08409 2.87162 0
M  V30 3666 H 347.076 -2.8134 1.65878 0
M  V30 3667 H 345.735 -1.50508 3.3428 0
M  V30 3668 H 345.383 -3.9683 3.09088 0
M  V30 3669 H 345.083 -3.43831 4.76502 0
M  V30 3670 H 346.607 -4.27708 4.35773 0
M  V30 3671 H 348.021 -2.20642 5.29141 0
M  V30 3672 H 346.418 -1.58942 5.78669 0
M  V30 3673 H 347.488 -0.561506 4.81638 0
M  V30 3674 N 348.832 -1.54138 -0.328536 0
M  V30 3675 C 350.057 -1.76378 -1.09112 0
M  V30 3676 C 350.482 -0.508596 -1.81094 0
M  V30 3677 O 349.84 0.539598 -1.73084 0
M  V30 3678 C 349.888 -2.95358 -2.06872 0
M  V30 3679 O 348.992 -2.66556 -3.14677 0
M  V30 3680 H 348.333 -0.584614 -0.314838 0
M  V30 3681 H 350.863 -2.01146 -0.374348 0
M  V30 3682 H 350.873 -3.22566 -2.4983 0
M  V30 3683 H 349.548 -3.86385 -1.5388 0
M  V30 3684 H 348.125 -2.50282 -2.7643 0
M  V30 3685 N 350.31 0.590341 -1.46126 0
M  V30 3686 C 351.273 1.68194 -1.55703 0
M  V30 3687 C 352.273 1.54808 -0.434868 0
M  V30 3688 O 353.463 1.59564 -0.698928 0
M  V30 3689 C 350.595 3.07575 -1.47005 0
M  V30 3690 H 351.788 1.61064 -2.52979 0
M  V30 3691 H 349.341 0.807541 -1.33823 0
M  V30 3692 H 350.076 3.20268 -0.509785 0
M  V30 3693 H 349.861 3.187 -2.28414 0
M  V30 3694 H 351.351 3.87055 -1.56776 0
M  V30 3695 N 351.788 1.33704 0.83433 0
M  V30 3696 C 353.018 1.28281 1.6195 0
M  V30 3697 C 353.426 -0.147603 1.88623 0
M  V30 3698 O 352.769 -1.1016 1.47005 0
M  V30 3699 C 352.831 1.99386 2.99141 0
M  V30 3700 C 352.495 3.48681 2.95416 0
M  V30 3701 C 353.492 4.438 2.70809 0
M  V30 3702 C 351.177 3.90925 3.15409 0
M  V30 3703 C 353.171 5.79138 2.66229 0
M  V30 3704 C 350.858 5.26366 3.10454 0
M  V30 3705 C 351.856 6.20284 2.85895 0
M  V30 3706 O 351.544 7.53245 2.80852 0
M  V30 3707 H 351.276 0.44315 0.510484 0
M  V30 3708 H 353.83 1.76711 1.04702 0
M  V30 3709 H 352.06 1.45554 3.58261 0
M  V30 3710 H 353.749 1.87403 3.60049 0
M  V30 3711 H 354.515 4.12485 2.5511 0
M  V30 3712 H 350.394 3.18229 3.33543 0
M  V30 3713 H 353.938 6.52416 2.4698 0
M  V30 3714 H 349.835 5.57304 3.25703 0
M  V30 3715 H 350.603 7.62846 2.96661 0
M  V30 3716 N 353.266 -1.05314 1.17247 0
M  V30 3717 C 354.491 -1.82509 0.985148 0
M  V30 3718 C 354.916 -1.82343 -0.461788 0
M  V30 3719 O 354.274 -1.23151 -1.33055 0
M  V30 3720 C 354.322 -3.26566 1.52929 0
M  V30 3721 O 353.426 -4.05666 0.742225 0
M  V30 3722 H 352.767 -0.564347 0.349869 0
M  V30 3723 H 355.297 -1.32718 1.55715 0
M  V30 3724 H 355.307 -3.77369 1.55103 0
M  V30 3725 H 353.982 -3.26001 2.58256 0
M  V30 3726 H 352.559 -3.64397 0.791794 0
M  V30 3727 N 354.744 -0.972509 -1.24016 0
M  V30 3728 C 355.691 -0.505969 -2.25186 0
M  V30 3729 C 356.661 0.451009 -1.5986 0
M  V30 3730 O 357.846 0.360307 -1.87367 0
M  V30 3731 C 354.986 0.193089 -3.44559 0
M  V30 3732 C 354.099 -0.803222 -4.24467 0
M  V30 3733 C 353.234 -0.0797793 -5.3114 0
M  V30 3734 C 352.273 -1.06583 -6.02749 0
M  V30 3735 N 351.41 -0.372074 -7.01113 0
M  V30 3736 H 356.25 -1.37351 -2.64459 0
M  V30 3737 H 353.787 -0.688419 -1.29997 0
M  V30 3738 H 355.745 0.615125 -4.1264 0
M  V30 3739 H 354.375 1.02455 -3.06109 0
M  V30 3740 H 353.427 -1.34368 -3.55878 0
M  V30 3741 H 354.739 -1.55494 -4.73944 0
M  V30 3742 H 353.893 0.400015 -6.0538 0
M  V30 3743 H 352.632 0.704597 -4.82583 0
M  V30 3744 H 351.637 -1.55645 -5.27309 0
M  V30 3745 H 352.862 -1.85074 -6.53395 0
M  V30 3746 H 350.808 0.393238 -6.5482 0
M  V30 3747 H 350.725 -1.06258 -7.48495 0
M  V30 3748 H 351.993 0.0855932 -7.79453 0
M  V30 3749 N 356.222 1.38976 -0.743202 0
M  V30 3750 C 357.185 2.28901 -0.117014 0
M  V30 3751 C 358.185 1.46698 0.658503 0
M  V30 3752 O 359.375 1.67274 0.486305 0
M  V30 3753 C 356.507 3.30309 0.84315 0
M  V30 3754 H 357.7 2.8578 -0.909373 0
M  V30 3755 H 355.253 1.47761 -0.509547 0
M  V30 3756 H 355.988 2.785 1.66157 0
M  V30 3757 H 355.773 3.91029 0.289594 0
M  V30 3758 H 357.263 3.97577 1.2776 0
M  V30 3759 N 357.7 0.491464 1.49741 0
M  V30 3760 C 358.948 -0.0563141 2.02022 0
M  V30 3761 C 359.269 -1.38363 1.37407 0
M  V30 3762 O 358.539 -1.88702 0.526166 0
M  V30 3763 H 357.119 -0.0238014 0.746621 0
M  V30 3764 H 359.781 0.646533 1.83864 0
M  V30 3765 H 358.877 -0.192967 3.11503 0
M  V30 3766 N 359.178 -1.55987 0.224894 0
M  V30 3767 C 360.141 -2.19178 -0.670348 0
M  V30 3768 C 361.141 -1.15461 -1.11917 0
M  V30 3769 O 362.331 -1.40675 -1.02743 0
M  V30 3770 C 359.463 -2.81777 -1.9187 0
M  V30 3771 H 360.656 -2.99662 -0.119364 0
M  V30 3772 H 358.209 -1.5628 -0.0247128 0
M  V30 3773 H 358.944 -2.05172 -2.51147 0
M  V30 3774 H 358.729 -3.57732 -1.60531 0
M  V30 3775 H 360.219 -3.30205 -2.55645 0
M  V30 3776 N 360.656 0.0484629 -1.57525 0
M  V30 3777 C 361.902 0.744226 -1.88651 0
M  V30 3778 C 362.235 1.76029 -0.820212 0
M  V30 3779 O 361.51 1.93782 0.166985 0
M  V30 3780 C 361.793 1.43128 -3.30434 0
M  V30 3781 C 361.646 0.43005 -4.47739 0
M  V30 3782 C 362.965 2.37031 -3.70816 0
M  V30 3783 H 360.084 0.269089 -0.68612 0
M  V30 3784 H 362.726 0.00713532 -1.89999 0
M  V30 3785 H 360.876 2.05956 -3.29415 0
M  V30 3786 H 362.548 -0.194816 -4.60888 0
M  V30 3787 H 360.791 -0.252522 -4.33064 0
M  V30 3788 H 361.462 0.948874 -5.43783 0
M  V30 3789 H 363.938 1.84263 -3.73077 0
M  V30 3790 H 362.814 2.82094 -4.70865 0
M  V30 3791 H 363.075 3.22864 -3.02012 0
M  V30 3792 N 362.134 1.5431 0.320358 0
M  V30 3793 C 363.097 1.83195 1.3774 0
M  V30 3794 C 364.097 0.703906 1.44575 0
M  V30 3795 O 365.287 0.972214 1.44546 0
M  V30 3796 C 362.419 1.99487 2.76438 0
M  V30 3797 H 363.612 2.77642 1.1338 0
M  V30 3798 H 361.165 1.46076 0.556012 0
M  V30 3799 H 361.9 1.07262 3.06048 0
M  V30 3800 H 361.685 2.81575 2.7287 0
M  V30 3801 H 363.175 2.23271 3.52902 0
M  V30 3802 N 363.613 -0.582584 1.46437 0
M  V30 3803 C 364.523 -1.71949 1.59595 0
M  V30 3804 C 365.539 -1.67264 0.479443 0
M  V30 3805 O 366.715 -1.87171 0.743579 0
M  V30 3806 C 363.78 -3.08452 1.58298 0
M  V30 3807 C 362.841 -3.244 2.81182 0
M  V30 3808 C 362.074 -4.54391 2.79937 0
M  V30 3809 O 362.297 -5.38287 1.8869 0
M  V30 3810 O 361.231 -4.73588 3.71481 0
M  V30 3811 H 365.057 -1.63795 2.55744 0
M  V30 3812 H 362.642 -0.749643 1.29231 0
M  V30 3813 H 364.524 -3.89732 1.60271 0
M  V30 3814 H 363.199 -3.17043 0.653094 0
M  V30 3815 H 362.106 -2.42613 2.84763 0
M  V30 3816 H 363.439 -3.20699 3.7338 0
M  V30 3817 N 365.091 -1.34144 -0.827227 0
M  V30 3818 C 366.001 -1.27428 -1.96975 0
M  V30 3819 C 367.017 -0.182728 -1.73038 0
M  V30 3820 O 368.193 -0.408426 -1.97215 0
M  V30 3821 C 365.258 -1.02526 -3.31194 0
M  V30 3822 C 364.319 -2.20796 -3.68168 0
M  V30 3823 C 363.552 -1.97073 -4.95982 0
M  V30 3824 O 363.775 -0.926822 -5.6282 0
M  V30 3825 O 362.709 -2.83912 -5.30733 0
M  V30 3826 H 366.535 -2.23537 -2.05584 0
M  V30 3827 H 364.12 -1.14307 -0.961989 0
M  V30 3828 H 366.002 -0.904026 -4.11589 0
M  V30 3829 H 364.677 -0.0945389 -3.23562 0
M  V30 3830 H 363.584 -2.38477 -2.88235 0
M  V30 3831 H 364.917 -3.12243 -3.8048 0
M  V30 3832 N 366.569 1.04691 -1.17803 0
M  V30 3833 C 367.815 1.78045 -0.970969 0
M  V30 3834 C 368.148 1.87686 0.498751 0
M  V30 3835 O 367.423 1.38035 1.37027 0
M  V30 3836 C 367.706 3.2166 -1.61884 0
M  V30 3837 C 367.559 3.20001 -3.161 0
M  V30 3838 C 368.878 4.1962 -1.3269 0
M  V30 3839 H 365.997 0.64633 -0.354155 0
M  V30 3840 H 368.639 1.22333 -1.45378 0
M  V30 3841 H 366.789 3.69232 -1.20831 0
M  V30 3842 H 368.461 2.80467 -3.66246 0
M  V30 3843 H 366.704 2.58203 -3.48588 0
M  V30 3844 H 367.375 4.21386 -3.56564 0
M  V30 3845 H 369.851 3.80567 -1.68249 0
M  V30 3846 H 368.727 5.18339 -1.80599 0
M  V30 3847 H 368.988 4.414 -0.248622 0
M  V30 3848 N 368.047 0.979072 1.23499 0
M  V30 3849 C 368.977 0.537606 2.27227 0
M  V30 3850 C 369.958 -0.428539 1.64613 0
M  V30 3851 O 371.143 -0.322191 1.91509 0
M  V30 3852 C 368.273 -0.162052 3.46922 0
M  V30 3853 C 367.227 0.721242 4.21879 0
M  V30 3854 C 366.553 -0.110555 5.34586 0
M  V30 3855 C 367.853 2.01141 4.82016 0
M  V30 3856 H 369.547 1.40462 2.64406 0
M  V30 3857 H 367.093 0.67684 1.27102 0
M  V30 3858 H 369.046 -0.482192 4.18632 0
M  V30 3859 H 367.77 -1.06351 3.08799 0
M  V30 3860 H 366.429 1.02482 3.51984 0
M  V30 3861 H 366.077 -1.0125 4.92704 0
M  V30 3862 H 365.777 0.477325 5.85658 0
M  V30 3863 H 367.301 -0.425107 6.09118 0
M  V30 3864 H 368.715 1.75612 5.45741 0
M  V30 3865 H 367.112 2.54695 5.43369 0
M  V30 3866 H 368.182 2.69909 4.02836 0
M  V30 3867 N 369.525 -1.3858 0.750561 0
M  V30 3868 C 370.75 -2.04997 0.314812 0
M  V30 3869 C 371.175 -1.56235 -1.04749 0
M  V30 3870 O 370.533 -0.712981 -1.66692 0
M  V30 3871 C 370.581 -3.58961 0.343415 0
M  V30 3872 O 369.685 -4.07025 -0.663628 0
M  V30 3873 H 369.026 -0.649081 0.139962 0
M  V30 3874 H 371.556 -1.77313 1.02084 0
M  V30 3875 H 371.566 -4.07542 0.193233 0
M  V30 3876 H 370.241 -3.93811 1.33738 0
M  V30 3877 H 368.818 -3.6982 -0.478307 0
M  V30 3878 N 371.003 -0.499398 -1.49478 0
M  V30 3879 C 372.228 0.044722 -2.07352 0
M  V30 3880 C 372.653 1.30207 -1.35749 0
M  V30 3881 O 372.011 1.76516 -0.413732 0
M  V30 3882 C 372.059 0.283013 -3.59488 0
M  V30 3883 O 371.163 1.35804 -3.89398 0
M  V30 3884 H 370.504 -0.0255147 -0.66351 0
M  V30 3885 H 373.034 -0.698561 -1.92305 0
M  V30 3886 H 373.044 0.515007 -4.04737 0
M  V30 3887 H 371.719 -0.635636 -4.11014 0
M  V30 3888 H 370.296 1.11113 -3.55961 0
M  V30 3889 N 372.481 1.55866 -0.233164 0
M  V30 3890 C 373.73 1.97779 0.39579 0
M  V30 3891 C 374.043 1.12419 1.60066 0
M  V30 3892 O 375.249 1.44283 2.29988 0
M  V30 3893 C 373.705 3.5188 0.755556 0
M  V30 3894 C 373.313 4.45959 -0.427152 0
M  V30 3895 C 375.057 4.02479 1.34946 0
M  V30 3896 C 372.964 5.91383 -0.0443043 0
M  V30 3897 H 371.894 0.738592 0.15165 0
M  V30 3898 H 374.545 1.80486 -0.331212 0
M  V30 3899 H 372.927 3.64816 1.5403 0
M  V30 3900 H 374.101 4.44776 -1.20462 0
M  V30 3901 H 372.416 4.05765 -0.935068 0
M  V30 3902 H 375.013 5.08637 1.649 0
M  V30 3903 H 375.356 3.49014 2.26925 0
M  V30 3904 H 375.889 3.92813 0.62791 0
M  V30 3905 H 372.628 6.48857 -0.930874 0
M  V30 3906 H 372.148 5.95734 0.697238 0
M  V30 3907 H 373.827 6.45893 0.378334 0
M  V30 3908 N 373.959 -0.0401083 1.57549 0
M  V30 3909 C 375.375 -0.395556 1.54621 0
M  V30 3910 C 375.575 -1.77281 0.957799 0
M  V30 3911 O 374.631 -2.45888 0.574031 0
M  V30 3912 C 375.944 -0.307535 2.99123 0
M  V30 3913 C 377.492 -0.385425 3.10618 0
M  V30 3914 C 377.967 -0.326973 4.56831 0
M  V30 3915 N 379.458 -0.386102 4.61588 0
M  V30 3916 C 380.193 -0.363591 5.72246 0
M  V30 3917 N 379.689 -0.29402 6.92176 0
M  V30 3918 N 381.482 -0.412503 5.60584 0
M  V30 3919 H 373.633 0.861325 1.94152 0
M  V30 3920 H 375.896 0.326445 0.890021 0
M  V30 3921 H 375.602 0.638461 3.45856 0
M  V30 3922 H 375.476 -1.10552 3.60636 0
M  V30 3923 H 377.863 -1.32185 2.63839 0
M  V30 3924 H 377.944 0.44171 2.51957 0
M  V30 3925 H 377.588 0.605738 5.04275 0
M  V30 3926 H 377.518 -1.17207 5.13391 0
M  V30 3927 H 380.009 -0.442832 3.75296 0
M  V30 3928 H 380.322 -0.28164 7.72287 0
M  V30 3929 H 378.667 -0.260232 6.94513 0
M  V30 3930 H 381.858 -0.464769 4.65787 0
M  V30 3931 H 382.031 -0.391492 6.46816 0
M  V30 3932 N 375.437 -1.54477 -0.31217 0
M  V30 3933 C 376.665 -1.77205 -1.068 0
M  V30 3934 C 377.08 -0.526114 -1.81321 0
M  V30 3935 O 376.437 0.503647 -1.75413 0
M  V30 3936 C 376.488 -2.97253 -2.05725 0
M  V30 3937 O 376.209 -4.1703 -1.34228 0
M  V30 3938 C 377.71 -3.32281 -2.93435 0
M  V30 3939 H 374.93 -0.591287 -0.317208 0
M  V30 3940 H 377.474 -2.01398 -0.354834 0
M  V30 3941 H 375.629 -2.753 -2.72559 0
M  V30 3942 H 376.043 -4.84636 -2.00571 0
M  V30 3943 H 377.517 -4.19551 -3.58721 0
M  V30 3944 H 377.994 -2.49945 -3.61143 0
M  V30 3945 H 378.6 -3.56353 -2.32147 0
M  V30 3946 N 376.915 0.57481 -1.46744 0
M  V30 3947 C 378.161 1.3347 -1.52688 0
M  V30 3948 C 378.494 1.93353 -0.181229 0
M  V30 3949 O 377.769 1.76912 0.808237 0
M  V30 3950 C 378.052 2.45811 -2.63152 0
M  V30 3951 C 377.905 1.90912 -4.07275 0
M  V30 3952 C 379.224 3.47822 -2.69644 0
M  V30 3953 H 376.343 0.483935 -0.555856 0
M  V30 3954 H 378.985 0.644968 -1.78718 0
M  V30 3955 H 377.135 3.04646 -2.41088 0
M  V30 3956 H 378.807 1.36473 -4.4065 0
M  V30 3957 H 377.05 1.21691 -4.16382 0
M  V30 3958 H 377.721 2.72042 -4.80309 0
M  V30 3959 H 380.197 2.9888 -2.895 0
M  V30 3960 H 379.073 4.23876 -3.48742 0
M  V30 3961 H 379.334 4.05555 -1.76005 0
M  V30 3962 N 378.394 1.34581 0.820102 0
M  V30 3963 C 379.643 1.26437 1.57151 0
M  V30 3964 C 379.956 -0.163111 1.94919 0
M  V30 3965 O 381.162 -0.366722 2.69012 0
M  V30 3966 C 379.618 2.21658 2.83541 0
M  V30 3967 C 379.226 3.69679 2.53065 0
M  V30 3968 C 380.97 2.22428 3.61561 0
M  V30 3969 C 378.877 4.56761 3.75664 0
M  V30 3970 H 377.807 0.469707 0.589823 0
M  V30 3971 H 380.458 1.59763 0.902656 0
M  V30 3972 H 378.84 1.81287 3.52067 0
M  V30 3973 H 380.014 4.18605 1.92631 0
M  V30 3974 H 378.329 3.71384 1.88316 0
M  V30 3975 H 380.926 2.8471 4.52597 0
M  V30 3976 H 381.269 1.22434 3.97889 0
M  V30 3977 H 381.802 2.61259 2.99981 0
M  V30 3978 H 378.541 5.57702 3.44454 0
M  V30 3979 H 378.061 4.12568 4.35371 0
M  V30 3980 H 379.74 4.71509 4.43044 0
M  V30 3981 N 379.872 -1.04064 1.18357 0
M  V30 3982 C 380.835 -2.10243 0.912707 0
M  V30 3983 C 381.835 -1.60477 -0.101928 0
M  V30 3984 O 383.025 -1.73703 0.131517 0
M  V30 3985 C 380.157 -3.38893 0.369387 0
M  V30 3986 H 381.35 -2.35706 1.85426 0
M  V30 3987 H 378.903 -1.20489 0.995594 0
M  V30 3988 H 379.638 -3.19094 -0.578776 0
M  V30 3989 H 379.423 -3.76331 1.1008 0
M  V30 3990 H 380.913 -4.17128 0.198575 0
M  V30 3991 N 381.35 -0.985608 -1.22978 0
M  V30 3992 C 382.597 -0.657386 -1.91532 0
M  V30 3993 C 382.925 0.809707 -1.76845 0
M  V30 3994 O 382.18 1.60021 -1.12658 0
M  V30 3995 C 382.479 -1.00014 -3.43121 0
M  V30 3996 C 382.145 -2.4583 -3.77993 0
M  V30 3997 C 380.807 -2.85679 -3.87222 0
M  V30 3998 C 383.159 -3.40378 -3.94705 0
M  V30 3999 C 380.487 -4.19081 -4.10595 0
M  V30 4000 C 382.839 -4.73429 -4.1958 0
M  V30 4001 C 381.503 -5.1303 -4.27032 0
M  V30 4002 H 380.773 -0.240555 -0.700867 0
M  V30 4003 H 383.42 -1.24044 -1.45895 0
M  V30 4004 H 381.725 -0.335072 -3.90365 0
M  V30 4005 H 383.422 -0.724322 -3.94404 0
M  V30 4006 H 380.012 -2.13939 -3.71387 0
M  V30 4007 H 384.196 -3.10766 -3.8696 0
M  V30 4008 H 379.452 -4.49362 -4.14589 0
M  V30 4009 H 383.626 -5.46644 -4.31455 0
M  V30 4010 H 381.253 -6.16418 -4.44896 0
M  V30 4011 N 382.828 1.3818 -0.7579 0
M  V30 4012 C 384.244 1.5353 -0.435972 0
M  V30 4013 C 384.444 1.71961 1.05032 0
M  V30 4014 O 383.5 1.73307 1.83633 0
M  V30 4015 C 384.813 2.73989 -1.23898 0
M  V30 4016 C 386.361 2.87841 -1.22949 0
M  V30 4017 C 386.836 4.11266 -2.01554 0
M  V30 4018 N 388.327 4.18352 -1.98837 0
M  V30 4019 C 389.062 5.12856 -2.5645 0
M  V30 4020 N 388.558 6.13005 -3.22794 0
M  V30 4021 N 390.351 5.05238 -2.46356 0
M  V30 4022 H 382.502 1.24467 -1.7211 0
M  V30 4023 H 384.765 0.604982 -0.729864 0
M  V30 4024 H 384.471 2.66789 -2.29165 0
M  V30 4025 H 384.345 3.67294 -0.858764 0
M  V30 4026 H 386.732 2.9452 -0.184854 0
M  V30 4027 H 386.813 1.95534 -1.64924 0
M  V30 4028 H 386.457 4.05349 -3.06031 0
M  V30 4029 H 386.387 5.02661 -1.5697 0
M  V30 4030 H 388.878 3.46628 -1.50524 0
M  V30 4031 H 389.191 6.81619 -3.64165 0
M  V30 4032 H 387.536 6.13325 -3.2689 0
M  V30 4033 H 390.727 4.25938 -1.9415 0
M  V30 4034 H 390.9 5.78707 -2.91552 0
M  V30 4035 N 384.306 0.507319 1.49211 0
M  V30 4036 C 385.269 -0.256763 2.27757 0
M  V30 4037 C 386.269 -0.888287 1.34038 0
M  V30 4038 O 387.459 -0.751841 1.5714 0
M  V30 4039 C 384.591 -1.36905 3.12202 0
M  V30 4040 H 385.784 0.432557 2.96764 0
M  V30 4041 H 383.337 0.262488 1.5408 0
M  V30 4042 H 384.072 -2.09233 2.47775 0
M  V30 4043 H 383.857 -0.921599 3.81115 0
M  V30 4044 H 385.347 -1.9071 3.7151 0
M  V30 4045 N 385.784 -1.5574 0.241426 0
M  V30 4046 C 386.716 -2.18469 -0.693091 0
M  V30 4047 C 387.729 -1.15942 -1.14286 0
M  V30 4048 O 388.918 -1.42832 -1.07058 0
M  V30 4049 C 386.018 -2.7696 -1.95311 0
M  V30 4050 C 385.191 -4.04853 -1.65568 0
M  V30 4051 C 384.25 -4.47715 -2.76474 0
M  V30 4052 O 383.276 -5.14205 -2.44094 0
M  V30 4053 N 384.478 -4.15044 -4.05855 0
M  V30 4054 H 387.243 -2.99292 -0.156388 0
M  V30 4055 H 384.804 -1.61784 0.0611752 0
M  V30 4056 H 386.796 -3.02594 -2.68736 0
M  V30 4057 H 385.366 -2.00326 -2.39975 0
M  V30 4058 H 384.586 -3.86865 -0.756886 0
M  V30 4059 H 385.874 -4.88246 -1.43153 0
M  V30 4060 H 385.272 -3.61654 -4.34998 0
M  V30 4061 H 383.829 -4.45526 -4.75762 0
M  V30 4062 N 387.262 0.0317525 -1.57568 0
M  V30 4063 C 388.172 1.05021 -2.0978 0
M  V30 4064 C 389.188 1.39809 -1.03583 0
M  V30 4065 O 390.364 1.49182 -1.35302 0
M  V30 4066 C 387.429 2.33301 -2.56459 0
M  V30 4067 C 386.49 2.0512 -3.77127 0
M  V30 4068 C 385.723 3.27283 -4.2157 0
M  V30 4069 O 385.946 4.37861 -3.65559 0
M  V30 4070 O 384.88 3.13141 -5.14029 0
M  V30 4071 H 388.706 0.636505 -2.96955 0
M  V30 4072 H 386.291 0.248559 -1.47318 0
M  V30 4073 H 388.173 3.08722 -2.86825 0
M  V30 4074 H 386.848 2.73973 -1.72397 0
M  V30 4075 H 385.755 1.27276 -3.51784 0
M  V30 4076 H 387.088 1.69305 -4.62165 0
M  V30 4077 N 388.74 1.54641 0.303973 0
M  V30 4078 C 389.687 1.85386 1.37479 0
M  V30 4079 C 390.657 0.702528 1.50512 0
M  V30 4080 O 391.842 0.950867 1.65418 0
M  V30 4081 C 388.982 2.10413 2.73533 0
M  V30 4082 C 388.095 3.38049 2.68974 0
M  V30 4083 C 387.23 3.52934 3.97002 0
M  V30 4084 C 386.269 4.74373 3.86829 0
M  V30 4085 N 385.406 4.8608 5.06627 0
M  V30 4086 H 390.246 2.76732 1.1056 0
M  V30 4087 H 387.783 1.37034 0.534805 0
M  V30 4088 H 389.741 2.22919 3.52652 0
M  V30 4089 H 388.371 1.22338 2.98719 0
M  V30 4090 H 387.423 3.3418 1.81736 0
M  V30 4091 H 388.735 4.27288 2.57346 0
M  V30 4092 H 387.889 3.65088 4.84557 0
M  V30 4093 H 386.628 2.61824 4.1146 0
M  V30 4094 H 385.633 4.62255 2.97658 0
M  V30 4095 H 386.858 5.66888 3.73918 0
M  V30 4096 H 384.804 3.97891 5.21554 0
M  V30 4097 H 384.721 5.69315 4.9741 0
M  V30 4098 H 385.989 5.02587 5.95841 0
M  V30 4099 N 390.218 -0.567019 1.47046 0
M  V30 4100 C 391.128 -1.70247 1.6141 0
M  V30 4101 C 392.144 -1.66746 0.497157 0
M  V30 4102 O 393.32 -1.86371 0.763389 0
M  V30 4103 C 390.385 -3.06756 1.61561 0
M  V30 4104 C 389.446 -3.21399 2.84607 0
M  V30 4105 C 388.679 -4.51396 2.84741 0
M  V30 4106 O 388.902 -5.36255 1.94388 0
M  V30 4107 O 387.836 -4.69621 3.76483 0
M  V30 4108 H 391.662 -1.61073 2.57467 0
M  V30 4109 H 389.247 -0.735894 1.30019 0
M  V30 4110 H 391.129 -3.8801 1.64396 0
M  V30 4111 H 389.804 -3.16333 0.686684 0
M  V30 4112 H 388.711 -2.39579 2.8732 0
M  V30 4113 H 390.044 -3.16721 3.76761 0
M  V30 4114 N 391.696 -1.35014 -0.812953 0
M  V30 4115 C 392.626 -1.30069 -1.93919 0
M  V30 4116 C 393.607 -0.176275 -1.69184 0
M  V30 4117 O 394.792 -0.370227 -1.90638 0
M  V30 4118 C 391.922 -1.06547 -3.30552 0
M  V30 4119 C 390.876 -2.15561 -3.69753 0
M  V30 4120 C 390.202 -1.77214 -5.04479 0
M  V30 4121 C 391.502 -3.57476 -3.808 0
M  V30 4122 H 393.196 -2.24303 -1.98314 0
M  V30 4123 H 390.742 -1.07977 -0.952736 0
M  V30 4124 H 392.695 -1.01729 -4.08937 0
M  V30 4125 H 391.419 -0.0875719 -3.26483 0
M  V30 4126 H 390.078 -2.19466 -2.9365 0
M  V30 4127 H 389.726 -0.780589 -4.96906 0
M  V30 4128 H 389.426 -2.50184 -5.31678 0
M  V30 4129 H 390.95 -1.7391 -5.8531 0
M  V30 4130 H 392.364 -3.55929 -4.4943 0
M  V30 4131 H 390.761 -4.29152 -4.19462 0
M  V30 4132 H 391.831 -3.94091 -2.82525 0
M  V30 4133 N 393.175 1.03435 -1.18907 0
M  V30 4134 C 394.107 2.1165 -0.879595 0
M  V30 4135 C 395.12 1.62316 0.125439 0
M  V30 4136 O 396.309 1.78201 -0.103245 0
M  V30 4137 C 393.409 3.37622 -0.294042 0
M  V30 4138 C 392.582 4.16166 -1.34629 0
M  V30 4139 C 391.641 5.20457 -0.775274 0
M  V30 4140 O 390.667 5.50379 -1.4516 0
M  V30 4141 N 391.869 5.78949 0.424126 0
M  V30 4142 H 394.634 2.38791 -1.81105 0
M  V30 4143 H 392.195 1.19681 -1.09032 0
M  V30 4144 H 394.187 4.04572 0.101679 0
M  V30 4145 H 392.757 3.07873 0.541575 0
M  V30 4146 H 391.977 3.44444 -1.91707 0
M  V30 4147 H 393.265 4.65432 -2.05549 0
M  V30 4148 H 392.663 5.56948 0.991209 0
M  V30 4149 H 391.22 6.47334 0.761691 0
M  V30 4150 N 394.653 0.992116 1.22453 0
M  V30 4151 C 396.069 0.702713 1.43297 0
M  V30 4152 C 396.269 -0.726909 1.87932 0
M  V30 4153 O 395.325 -1.49792 2.0327 0
M  V30 4154 C 396.638 1.70762 2.47509 0
M  V30 4155 C 398.186 1.72298 2.61309 0
M  V30 4156 C 398.661 2.71649 3.68742 0
M  V30 4157 N 400.152 2.70239 3.76199 0
M  V30 4158 C 400.887 3.43778 4.58917 0
M  V30 4159 N 400.383 4.26914 5.45633 0
M  V30 4160 N 402.176 3.32487 4.5322 0
M  V30 4161 H 394.327 1.91543 0.917871 0
M  V30 4162 H 396.59 0.826031 0.465162 0
M  V30 4163 H 396.296 2.73059 2.21657 0
M  V30 4164 H 396.17 1.49985 3.46099 0
M  V30 4165 H 398.557 0.706989 2.86506 0
M  V30 4166 H 398.638 1.97143 1.62997 0
M  V30 4167 H 398.282 3.73397 3.44292 0
M  V30 4168 H 398.212 2.44074 4.66622 0
M  V30 4169 H 400.703 2.09912 3.14237 0
M  V30 4170 H 401.016 4.79855 6.05771 0
M  V30 4171 H 399.361 4.31002 5.45218 0
M  V30 4172 H 402.552 2.6698 3.84499 0
M  V30 4173 H 402.725 3.90058 5.17454 0
M  V30 4174 N 396.131 -1.37776 0.765217 0
M  V30 4175 C 397.361 -2.03828 0.337277 0
M  V30 4176 C 397.769 -1.57841 -1.04321 0
M  V30 4177 O 397.112 -0.752043 -1.67601 0
M  V30 4178 C 397.174 -3.58292 0.294407 0
M  V30 4179 C 396.838 -4.27384 1.61838 0
M  V30 4180 C 397.835 -4.51956 2.56967 0
M  V30 4181 C 395.52 -4.65345 1.89102 0
M  V30 4182 C 397.514 -5.13536 3.77571 0
M  V30 4183 C 395.201 -5.26647 3.09978 0
M  V30 4184 C 396.199 -5.50679 4.04032 0
M  V30 4185 O 395.887 -6.10702 5.2278 0
M  V30 4186 H 395.619 -0.661292 0.140248 0
M  V30 4187 H 398.173 -1.77222 1.03834 0
M  V30 4188 H 396.403 -3.83918 -0.462983 0
M  V30 4189 H 398.092 -4.05763 -0.105581 0
M  V30 4190 H 398.858 -4.23048 2.37183 0
M  V30 4191 H 394.737 -4.45978 1.16725 0
M  V30 4192 H 398.281 -5.3221 4.50997 0
M  V30 4193 H 394.178 -5.54979 3.29649 0
M  V30 4194 H 394.946 -6.29183 5.23517 0
M  V30 4195 N 397.609 -0.515225 -1.4894 0
M  V30 4196 C 398.837 0.0206034 -2.0689 0
M  V30 4197 C 399.252 1.29514 -1.37374 0
M  V30 4198 O 398.609 1.76698 -0.456529 0
M  V30 4199 C 398.66 0.26351 -3.60538 0
M  V30 4200 O 398.381 -0.960517 -4.27441 0
M  V30 4201 C 399.882 0.841383 -4.35242 0
M  V30 4202 H 397.102 -0.0268608 -0.670462 0
M  V30 4203 H 399.646 -0.716651 -1.91532 0
M  V30 4204 H 397.801 0.950777 -3.75552 0
M  V30 4205 H 398.215 -0.73212 -5.19365 0
M  V30 4206 H 399.689 0.96085 -5.43573 0
M  V30 4207 H 400.166 1.8427 -3.98674 0
M  V30 4208 H 400.772 0.191143 -4.2487 0
M  V30 4209 N 399.087 1.5561 -0.249682 0
M  V30 4210 C 400.019 2.18834 0.681496 0
M  V30 4211 C 401.032 1.16546 1.1367 0
M  V30 4212 O 402.221 1.43397 1.06299 0
M  V30 4213 C 399.321 2.77992 1.9384 0
M  V30 4214 C 398.494 4.05725 1.63419 0
M  V30 4215 C 397.553 4.49174 2.74096 0
M  V30 4216 O 396.579 5.15492 2.41364 0
M  V30 4217 N 397.781 4.17191 4.03649 0
M  V30 4218 H 400.546 2.9937 0.140514 0
M  V30 4219 H 398.107 1.6175 -0.0697541 0
M  V30 4220 H 400.099 3.04015 2.67127 0
M  V30 4221 H 398.669 2.01596 2.38909 0
M  V30 4222 H 397.889 3.87261 0.736358 0
M  V30 4223 H 399.177 4.88999 1.40562 0
M  V30 4224 H 398.575 3.63955 4.33074 0
M  V30 4225 H 397.132 4.48043 4.73393 0
M  V30 4226 N 400.565 -0.0233959 1.57583 0
M  V30 4227 C 401.513 -1.04063 2.08023 0
M  V30 4228 C 402.507 -1.37084 0.995204 0
M  V30 4229 O 403.713 -1.35923 1.18004 0
M  V30 4230 H 400.088 -0.353144 0.663922 0
M  V30 4231 H 402.059 -0.589453 2.9252 0
M  V30 4232 C 400.808 -2.33123 2.57971 0
M  V30 4233 H 400.131 -2.08577 3.4108 0
M  V30 4234 H 401.571 -3.02632 2.96967 0
M  V30 4235 C 400.03 -3.02483 1.48342 0
M  V30 4236 O 400.56 -3.92541 0.852898 0
M  V30 4237 N 398.766 -2.63909 1.21658 0
M  V30 4238 H 398.313 -1.90758 1.73116 0
M  V30 4239 H 398.271 -3.10633 0.485218 0
M  V30 4240 N 402.043 -1.548 -0.295768 0
M  V30 4241 C 402.973 -1.89115 -1.36959 0
M  V30 4242 C 403.954 -0.75059 -1.52644 0
M  V30 4243 O 405.139 -1.00678 -1.66065 0
M  V30 4244 C 402.269 -2.14307 -2.73295 0
M  V30 4245 C 401.223 -3.30151 -2.72368 0
M  V30 4246 C 400.549 -3.40772 -4.12042 0
M  V30 4247 C 401.849 -4.67126 -2.33646 0
M  V30 4248 H 403.543 -2.79053 -1.08488 0
M  V30 4249 H 401.089 -1.34266 -0.520443 0
M  V30 4250 H 403.042 -2.36898 -3.48507 0
M  V30 4251 H 401.766 -1.21145 -3.03301 0
M  V30 4252 H 400.425 -3.0749 -1.99613 0
M  V30 4253 H 400.073 -2.45117 -4.39234 0
M  V30 4254 H 399.773 -4.18645 -4.12322 0
M  V30 4255 H 401.297 -3.6563 -4.89027 0
M  V30 4256 H 402.711 -4.89414 -2.98575 0
M  V30 4257 H 401.108 -5.47751 -2.45129 0
M  V30 4258 H 402.178 -4.67489 -1.28772 0
M  V30 4259 N 403.521 0.559213 -1.47345 0
M  V30 4260 C 404.468 1.66645 -1.59682 0
M  V30 4261 C 405.438 1.60168 -0.43994 0
M  V30 4262 O 406.623 1.79031 -0.659736 0
M  V30 4263 C 403.763 3.04969 -1.61518 0
M  V30 4264 C 402.876 3.21897 -2.88108 0
M  V30 4265 C 402.011 4.50608 -2.81294 0
M  V30 4266 C 401.05 4.60961 -4.02717 0
M  V30 4267 N 400.187 5.81024 -3.94151 0
M  V30 4268 H 405.027 1.55439 -2.54249 0
M  V30 4269 H 402.564 0.757219 -1.26113 0
M  V30 4270 H 404.522 3.85064 -1.60566 0
M  V30 4271 H 403.152 3.15015 -0.704645 0
M  V30 4272 H 402.204 2.35248 -2.98936 0
M  V30 4273 H 403.516 3.25412 -3.78032 0
M  V30 4274 H 402.67 5.3896 -2.7858 0
M  V30 4275 H 401.409 4.49568 -1.89049 0
M  V30 4276 H 400.414 3.71021 -4.05738 0
M  V30 4277 H 401.639 4.63761 -4.96087 0
M  V30 4278 H 399.585 5.80938 -3.04708 0
M  V30 4279 H 399.502 5.85909 -4.77752 0
M  V30 4280 H 400.77 6.71744 -3.9545 0
M  V30 4281 N 404.999 1.35443 0.805782 0
M  V30 4282 C 406.276 1.19325 1.54987 0
M  V30 4283 C 406.656 -0.227294 2.09873 0
M  V30 4284 O 406.004 -1.2309 1.92512 0
M  V30 4285 C 406.214 2.26196 2.65775 0
M  V30 4286 C 407.562 2.62043 3.34094 0
M  V30 4287 O 408.586 2.25115 2.76046 0
M  V30 4288 O 407.445 3.25542 4.38958 0
M  V30 4289 H 404.539 0.463623 0.684823 0
M  V30 4290 H 407.085 1.47127 0.845674 0
M  V30 4291 H 405.857 3.21471 2.23096 0
M  V30 4292 H 405.48 1.99667 3.43829 0
M  V30 4293 N 406.477 -1.02803 1.19454 0
M  V30 4294 C 407.44 -2.09264 0.934955 0
M  V30 4295 C 408.44 -1.60576 -0.0849015 0
M  V30 4296 O 409.63 -1.73554 0.149933 0
M  V30 4297 C 406.762 -3.38482 0.40531 0
M  V30 4298 H 407.955 -2.33726 1.87916 0
M  V30 4299 H 405.508 -1.19426 1.00832 0
M  V30 4300 H 406.243 -3.19689 -0.544899 0
M  V30 4301 H 406.028 -3.75142 1.14065 0
M  V30 4302 H 407.518 -4.16894 0.242806 0
M  V30 4303 N 407.956 -0.998596 -1.21925 0
M  V30 4304 C 408.903 -0.553621 -2.24062 0
M  V30 4305 C 409.873 0.416999 -1.6078 0
M  V30 4306 O 411.058 0.320482 -1.88089 0
M  V30 4307 C 408.198 0.119959 -3.44891 0
M  V30 4308 C 407.311 -0.893077 -4.22668 0
M  V30 4309 C 406.446 -0.192424 -5.30851 0
M  V30 4310 C 405.485 -1.19344 -6.00353 0
M  V30 4311 N 404.622 -0.520707 -7.00166 0
M  V30 4312 H 409.462 -1.4293 -2.61486 0
M  V30 4313 H 406.999 -0.715838 -1.28507 0
M  V30 4314 H 408.957 0.527459 -4.13852 0
M  V30 4315 H 407.587 0.959389 -3.08214 0
M  V30 4316 H 406.639 -1.41886 -3.52948 0
M  V30 4317 H 407.951 -1.65512 -4.70539 0
M  V30 4318 H 407.105 0.271515 -6.06092 0
M  V30 4319 H 405.844 0.602075 -4.83969 0
M  V30 4320 H 404.849 -1.66795 -5.23889 0
M  V30 4321 H 406.074 -1.98891 -6.49322 0
M  V30 4322 H 404.02 0.254252 -6.55507 0
M  V30 4323 H 403.937 -1.2211 -7.46073 0
M  V30 4324 H 405.205 -0.0797596 -7.79459 0
M  V30 4325 N 409.434 1.37368 -0.772513 0
M  V30 4326 C 410.711 1.93839 -0.26188 0
M  V30 4327 C 411.091 1.7061 1.24319 0
M  V30 4328 O 410.439 1.05534 2.02669 0
M  V30 4329 C 410.649 3.43154 -0.636102 0
M  V30 4330 C 411.997 4.20249 -0.606324 0
M  V30 4331 O 413.021 3.5152 -0.575538 0
M  V30 4332 O 411.88 5.42809 -0.634086 0
M  V30 4333 H 408.974 0.82478 -0.0605555 0
M  V30 4334 H 411.52 1.4665 -0.853917 0
M  V30 4335 H 410.292 3.53647 -1.6748 0
M  V30 4336 H 409.915 3.97596 -0.0170516 0
M  V30 4337 N 410.912 0.523116 1.48665 0
M  V30 4338 C 412.159 -0.0134763 2.02496 0
M  V30 4339 C 412.487 -1.3493 1.40086 0
M  V30 4340 O 411.742 -1.88286 0.533567 0
M  V30 4341 C 412.041 -0.191671 3.56886 0
M  V30 4342 C 411.707 1.06893 4.38046 0
M  V30 4343 C 410.369 1.41443 4.59943 0
M  V30 4344 C 412.721 1.90584 4.85106 0
M  V30 4345 C 410.049 2.59594 5.26144 0
M  V30 4346 C 412.401 3.07907 5.52609 0
M  V30 4347 C 411.065 3.42811 5.72745 0
M  V30 4348 H 410.335 -0.00493133 0.740984 0
M  V30 4349 H 412.982 0.687751 1.78724 0
M  V30 4350 H 411.287 -0.97561 3.79459 0
M  V30 4351 H 412.984 -0.621659 3.96152 0
M  V30 4352 H 409.574 0.789848 4.21259 0
M  V30 4353 H 413.758 1.65203 4.67997 0
M  V30 4354 H 409.014 2.86847 5.39934 0
M  V30 4355 H 413.188 3.73066 5.88043 0
M  V30 4356 H 410.815 4.34462 6.23816 0
M  V30 4357 N 412.39 -1.55475 0.257931 0
M  V30 4358 C 413.638 -1.98813 -0.363009 0
M  V30 4359 C 413.959 -1.14757 -1.57657 0
M  V30 4360 O 413.229 -0.232956 -1.9451 0
M  V30 4361 H 411.809 -0.734308 -0.137113 0
M  V30 4362 H 414.471 -1.9156 0.359281 0
M  V30 4363 H 413.567 -3.04941 -0.664634 0
M  V30 4364 N 413.868 0.0150385 -1.57593 0
M  V30 4365 C 415.117 0.702115 -1.89085 0
M  V30 4366 C 415.43 1.75764 -0.858277 0
M  V30 4367 O 416.636 2.49829 -1.0629 0
M  V30 4368 C 415.092 1.29992 -3.35604 0
M  V30 4369 C 414.7 0.280007 -4.47124 0
M  V30 4370 C 416.444 1.96606 -3.76227 0
M  V30 4371 C 414.351 0.886949 -5.84711 0
M  V30 4372 H 413.281 0.265997 -0.705522 0
M  V30 4373 H 415.932 -0.0430408 -1.8345 0
M  V30 4374 H 414.314 2.09525 -3.36029 0
M  V30 4375 H 415.488 -0.489631 -4.58191 0
M  V30 4376 H 413.803 -0.284835 -4.15425 0
M  V30 4377 H 416.4 2.42893 -4.76347 0
M  V30 4378 H 416.743 2.79024 -3.08952 0
M  V30 4379 H 417.276 1.23828 -3.78036 0
M  V30 4380 H 414.015 0.101876 -6.55421 0
M  V30 4381 H 413.535 1.6261 -5.77337 0
M  V30 4382 H 415.214 1.39011 -6.3189 0
M  V30 4383 N 415.346 1.54954 0.287554 0
M  V30 4384 C 416.293 1.86834 1.35505 0
M  V30 4385 C 417.263 0.718452 1.49758 0
M  V30 4386 O 418.448 0.968358 1.644 0
M  V30 4387 C 415.588 2.13303 2.71286 0
M  V30 4388 C 414.701 3.40883 2.65373 0
M  V30 4389 C 413.836 3.57125 3.93236 0
M  V30 4390 C 412.875 4.78449 3.81776 0
M  V30 4391 N 412.012 4.91426 5.01443 0
M  V30 4392 H 416.852 2.77889 1.07619 0
M  V30 4393 H 414.389 1.37593 0.520241 0
M  V30 4394 H 416.347 2.26646 3.50267 0
M  V30 4395 H 414.977 1.25499 2.97405 0
M  V30 4396 H 414.029 3.36088 1.78182 0
M  V30 4397 H 415.341 4.29993 2.52799 0
M  V30 4398 H 414.495 3.70207 4.80658 0
M  V30 4399 H 413.234 2.66173 4.0866 0
M  V30 4400 H 412.239 4.65386 2.92738 0
M  V30 4401 H 413.464 5.70822 3.67884 0
M  V30 4402 H 411.41 4.03401 5.17304 0
M  V30 4403 H 411.327 5.74559 4.91343 0
M  V30 4404 H 412.595 5.08879 5.90477 0
M  V30 4405 N 416.824 -0.551391 1.4764 0
M  V30 4406 C 418.24 -0.877887 1.33287 0
M  V30 4407 C 418.44 -1.98817 0.327721 0
M  V30 4408 O 417.496 -2.51171 -0.258695 0
M  V30 4409 C 418.809 -1.26563 2.72768 0
M  V30 4410 C 420.357 -1.37673 2.81097 0
M  V30 4411 C 420.832 -1.79799 4.21232 0
M  V30 4412 N 422.323 -1.8694 4.23802 0
M  V30 4413 C 423.058 -2.20876 5.29151 0
M  V30 4414 N 422.554 -2.53386 6.448 0
M  V30 4415 N 424.347 -2.217 5.16532 0
M  V30 4416 H 416.498 0.18153 2.11623 0
M  V30 4417 H 418.761 0.0185514 0.947818 0
M  V30 4418 H 418.467 -0.523591 3.47781 0
M  V30 4419 H 418.341 -2.22052 3.04915 0
M  V30 4420 H 420.728 -2.10956 2.06353 0
M  V30 4421 H 420.809 -0.40357 2.52596 0
M  V30 4422 H 420.453 -1.07083 4.96483 0
M  V30 4423 H 420.383 -2.78128 4.4716 0
M  V30 4424 H 422.874 -1.64179 3.40373 0
M  V30 4425 H 423.187 -2.78325 7.20941 0
M  V30 4426 H 421.532 -2.50953 6.48111 0
M  V30 4427 H 424.723 -1.95745 4.25207 0
M  V30 4428 H 424.896 -2.47818 5.98741 0
M  V30 4429 N 418.302 -1.35869 -0.798587 0
M  V30 4430 C 419.53 -1.32722 -1.58722 0
M  V30 4431 C 419.945 0.0935631 -1.88568 0
M  V30 4432 O 419.302 1.04784 -1.49421 0
M  V30 4433 C 419.353 -2.13974 -2.91371 0
M  V30 4434 O 419.074 -3.50514 -2.62815 0
M  V30 4435 C 420.575 -2.18504 -3.85708 0
M  V30 4436 H 417.795 -0.45562 -0.492596 0
M  V30 4437 H 420.339 -1.78837 -0.991843 0
M  V30 4438 H 418.494 -1.71438 -3.47402 0
M  V30 4439 H 418.908 -3.92806 -3.47568 0
M  V30 4440 H 420.382 -2.79732 -4.75872 0
M  V30 4441 H 420.859 -1.18597 -4.22885 0
M  V30 4442 H 421.465 -2.61236 -3.35612 0
M  V30 4443 N 419.78 1.02168 -1.19998 0
M  V30 4444 C 421.029 1.75091 -1.0013 0
M  V30 4445 C 421.342 1.89923 0.467835 0
M  V30 4446 O 422.548 2.59888 0.785515 0
M  V30 4447 C 421.004 3.14892 -1.74273 0
M  V30 4448 C 420.612 3.0809 -3.25245 0
M  V30 4449 C 422.356 3.9206 -1.62755 0
M  V30 4450 C 420.263 4.42867 -3.91948 0
M  V30 4451 H 419.193 0.656394 -0.37103 0
M  V30 4452 H 421.844 1.14284 -1.43567 0
M  V30 4453 H 420.226 3.7621 -1.2362 0
M  V30 4454 H 421.4 2.5611 -3.83072 0
M  V30 4455 H 419.715 2.44416 -3.3712 0
M  V30 4456 H 422.312 4.91764 -2.09934 0
M  V30 4457 H 422.655 4.12199 -0.582894 0
M  V30 4458 H 423.188 3.37359 -2.10793 0
M  V30 4459 H 419.927 4.27931 -4.96543 0
M  V30 4460 H 419.447 4.94874 -3.3891 0
M  V30 4461 H 421.126 5.11728 -3.95909 0
M  V30 4462 N 421.258 1.00505 1.21394 0
M  V30 4463 C 422.221 0.570459 2.21987 0
M  V30 4464 C 423.221 -0.353211 1.56873 0
M  V30 4465 O 424.411 -0.14349 1.73608 0
M  V30 4466 C 421.543 -0.168555 3.40483 0
M  V30 4467 H 422.736 1.46021 2.6195 0
M  V30 4468 H 420.289 0.793565 1.34656 0
M  V30 4469 H 421.024 -1.07374 3.06009 0
M  V30 4470 H 420.809 0.494823 3.88965 0
M  V30 4471 H 422.299 -0.460362 4.15055 0
M  V30 4472 N 422.737 -1.36956 0.779787 0
M  V30 4473 C 423.962 -2.04283 0.358224 0
M  V30 4474 C 424.387 -1.58422 -1.01411 0
M  V30 4475 O 423.745 -0.748179 -1.65142 0
M  V30 4476 C 423.793 -3.58152 0.419479 0
M  V30 4477 O 422.897 -4.08342 -0.577142 0
M  V30 4478 H 422.238 -0.645967 0.153698 0
M  V30 4479 H 424.768 -1.75108 1.05822 0
M  V30 4480 H 424.778 -4.07041 0.279636 0
M  V30 4481 H 423.453 -3.90886 1.42061 0
M  V30 4482 H 422.03 -3.70751 -0.399755 0
M  V30 4483 N 424.215 -0.530993 -1.48385 0
M  V30 4484 C 425.162 0.231223 -2.29639 0
M  V30 4485 C 426.132 0.932864 -1.37429 0
M  V30 4486 O 427.317 0.933692 -1.66394 0
M  V30 4487 C 424.457 1.27155 -3.2082 0
M  V30 4488 C 423.57 0.578655 -4.28107 0
M  V30 4489 C 422.705 1.602 -5.06467 0
M  V30 4490 C 421.744 0.892625 -6.05556 0
M  V30 4491 N 420.881 1.86157 -6.76971 0
M  V30 4492 H 425.721 -0.467848 -2.94305 0
M  V30 4493 H 423.258 -0.242556 -1.45086 0
M  V30 4494 H 425.216 1.88703 -3.72085 0
M  V30 4495 H 423.846 1.939 -2.58075 0
M  V30 4496 H 422.898 -0.150782 -3.80101 0
M  V30 4497 H 424.21 0.0217065 -4.98795 0
M  V30 4498 H 423.364 2.29173 -5.61751 0
M  V30 4499 H 422.103 2.19285 -4.35621 0
M  V30 4500 H 421.108 0.188829 -5.49476 0
M  V30 4501 H 422.333 0.307878 -6.78402 0
M  V30 4502 H 420.279 2.44147 -6.08875 0
M  V30 4503 H 420.196 1.35608 -7.43738 0
M  V30 4504 H 421.464 2.54325 -7.36844 0
M  V30 4505 N 425.693 1.55336 -0.266172 0
M  V30 4506 C 426.939 1.99692 0.353681 0
M  V30 4507 C 427.272 1.1543 1.56172 0
M  V30 4508 O 426.547 0.222218 1.93226 0
M  V30 4509 C 426.83 3.52316 0.74466 0
M  V30 4510 C 426.683 4.47337 -0.470101 0
M  V30 4511 C 428.002 4.10588 1.58447 0
M  V30 4512 H 425.121 0.725961 0.12708 0
M  V30 4513 H 427.763 1.86336 -0.371333 0
M  V30 4514 H 425.913 3.63829 1.36239 0
M  V30 4515 H 427.585 4.4778 -1.10864 0
M  V30 4516 H 425.828 4.19364 -1.10978 0
M  V30 4517 H 426.499 5.51788 -0.15291 0
M  V30 4518 H 428.975 4.02297 1.06286 0
M  V30 4519 H 427.851 5.17607 1.82686 0
M  V30 4520 H 428.112 3.60253 2.56262 0
M  V30 4521 N 427.171 -0.0066808 1.57599 0
M  V30 4522 C 428.396 -0.707738 1.94951 0
M  V30 4523 C 428.821 -1.66882 0.867868 0
M  V30 4524 O 428.179 -1.80457 -0.17458 0
M  V30 4525 C 428.227 -1.42162 3.31394 0
M  V30 4526 O 427.331 -2.53578 3.25226 0
M  V30 4527 H 426.672 -0.188752 0.636607 0
M  V30 4528 H 429.202 0.0445193 2.04552 0
M  V30 4529 H 429.212 -1.78655 3.66806 0
M  V30 4530 H 427.887 -0.716903 4.09675 0
M  V30 4531 H 426.464 -2.19463 3.01481 0
M  V30 4532 N 428.649 -1.55105 -0.279332 0
M  V30 4533 C 429.579 -1.90557 -1.34945 0
M  V30 4534 C 430.56 -0.766738 -1.51839 0
M  V30 4535 O 431.745 -1.02434 -1.64988 0
M  V30 4536 C 428.875 -2.17193 -2.71006 0
M  V30 4537 C 427.829 -3.33021 -2.68851 0
M  V30 4538 C 427.155 -3.45123 -4.08405 0
M  V30 4539 C 428.455 -4.69578 -2.28678 0
M  V30 4540 H 430.149 -2.80188 -1.05522 0
M  V30 4541 H 427.695 -1.34811 -0.506173 0
M  V30 4542 H 429.648 -2.40581 -3.45975 0
M  V30 4543 H 428.372 -1.24355 -3.01999 0
M  V30 4544 H 427.031 -3.0959 -1.9634 0
M  V30 4545 H 426.679 -2.49762 -4.3661 0
M  V30 4546 H 426.379 -4.22995 -4.07859 0
M  V30 4547 H 427.903 -3.70796 -4.85121 0
M  V30 4548 H 429.317 -4.92553 -2.93368 0
M  V30 4549 H 427.714 -5.5032 -2.39306 0
M  V30 4550 H 428.784 -4.68828 -1.23807 0
M  V30 4551 N 430.127 0.543554 -1.4793 0
M  V30 4552 C 431.375 1.29752 -1.54948 0
M  V30 4553 C 431.696 1.93764 -0.219242 0
M  V30 4554 O 430.966 1.80639 0.75805 0
M  V30 4555 H 429.546 0.481874 -0.570795 0
M  V30 4556 H 432.208 0.633636 -1.84312 0
M  V30 4557 H 431.304 2.08392 -2.32334 0
M  V30 4558 N 431.605 1.3629 0.791371 0
M  V30 4559 C 432.568 1.30309 1.88553 0
M  V30 4560 C 433.568 0.211204 1.59407 0
M  V30 4561 O 434.758 0.465865 1.67855 0
M  V30 4562 C 431.89 1.01956 3.25297 0
M  V30 4563 H 433.083 2.27614 1.95273 0
M  V30 4564 H 430.636 1.21035 0.988953 0
M  V30 4565 H 431.371 0.050998 3.2426 0
M  V30 4566 H 431.156 1.80968 3.4784 0
M  V30 4567 H 432.646 1.0037 4.05359 0
M  V30 4568 N 433.083 -1.0153 1.20538 0
M  V30 4569 C 434.329 -1.75408 1.01783 0
M  V30 4570 C 434.662 -1.88943 -0.448814 0
M  V30 4571 O 433.937 -1.4162 -1.33319 0
M  V30 4572 C 434.22 -3.17255 1.70356 0
M  V30 4573 C 434.073 -3.11508 3.24473 0
M  V30 4574 C 435.392 -4.15955 1.43769 0
M  V30 4575 H 432.511 -0.636713 0.371167 0
M  V30 4576 H 435.153 -1.18436 1.4857 0
M  V30 4577 H 433.303 -3.65898 1.30578 0
M  V30 4578 H 434.975 -2.70658 3.73553 0
M  V30 4579 H 433.218 -2.4887 3.55311 0
M  V30 4580 H 433.889 -4.11784 3.67611 0
M  V30 4581 H 436.365 -3.75973 1.7828 0
M  V30 4582 H 435.241 -5.13368 1.94279 0
M  V30 4583 H 435.502 -4.40586 0.365564 0
M  V30 4584 N 434.561 -1.01147 -1.20859 0
M  V30 4585 C 435.791 -0.715872 -1.93801 0
M  V30 4586 C 436.199 0.726592 -1.74692 0
M  V30 4587 O 435.542 1.50397 -1.05482 0
M  V30 4588 C 435.604 -0.965269 -3.46299 0
M  V30 4589 C 435.268 -2.39584 -3.89164 0
M  V30 4590 C 436.265 -3.3764 -3.95342 0
M  V30 4591 C 433.95 -2.73522 -4.21297 0
M  V30 4592 C 435.944 -4.67698 -4.33056 0
M  V30 4593 C 433.631 -4.03794 -4.58687 0
M  V30 4594 C 434.629 -5.00693 -4.64538 0
M  V30 4595 O 434.317 -6.28635 -5.01072 0
M  V30 4596 H 434.049 -0.262524 -0.622942 0
M  V30 4597 H 436.603 -1.35413 -1.54443 0
M  V30 4598 H 434.833 -0.269847 -3.85757 0
M  V30 4599 H 436.522 -0.662051 -4.00464 0
M  V30 4600 H 437.288 -3.12757 -3.70686 0
M  V30 4601 H 433.167 -1.9879 -4.15937 0
M  V30 4602 H 436.711 -5.4333 -4.37537 0
M  V30 4603 H 432.608 -4.28459 -4.82797 0
M  V30 4604 H 433.376 -6.32847 -5.19083 0
M  V30 4605 N 436.039 1.36541 -0.78704 0
M  V30 4606 C 437.286 1.99304 -0.358341 0
M  V30 4607 C 437.614 1.62467 1.06933 0
M  V30 4608 O 436.869 0.870019 1.75297 0
M  V30 4609 C 437.168 3.54343 -0.466485 0
M  V30 4610 C 436.834 4.10993 -1.85461 0
M  V30 4611 C 435.496 4.26177 -2.23443 0
M  V30 4612 C 437.848 4.41895 -2.76366 0
M  V30 4613 C 435.176 4.69573 -3.51736 0
M  V30 4614 C 437.528 4.86722 -4.04084 0
M  V30 4615 C 436.192 5.00112 -4.42091 0
M  V30 4616 H 435.462 0.729306 -0.131126 0
M  V30 4617 H 438.109 1.63068 -1.00404 0
M  V30 4618 H 436.414 3.90918 0.262719 0
M  V30 4619 H 438.111 4.00833 -0.115854 0
M  V30 4620 H 434.701 3.99612 -1.54946 0
M  V30 4621 H 438.885 4.29735 -2.48277 0
M  V30 4622 H 434.141 4.78127 -3.81057 0
M  V30 4623 H 438.315 5.09598 -4.7464 0
M  V30 4624 H 435.942 5.33498 -5.41557 0
M  V30 4625 N 437.518 0.538854 1.48102 0
M  V30 4626 C 438.765 0.0080018 2.02498 0
M  V30 4627 C 439.093 -1.33437 1.41509 0
M  V30 4628 O 438.348 -1.87709 0.553507 0
M  V30 4629 C 438.647 -0.153808 3.57069 0
M  V30 4630 C 438.313 1.11533 4.36888 0
M  V30 4631 C 436.975 1.46314 4.58417 0
M  V30 4632 C 439.327 1.95718 4.83057 0
M  V30 4633 C 436.655 2.6516 5.23361 0
M  V30 4634 C 439.007 3.13751 5.49312 0
M  V30 4635 C 437.671 3.48866 5.69077 0
M  V30 4636 H 436.941 0.00292807 0.740994 0
M  V30 4637 H 439.588 0.706668 1.77984 0
M  V30 4638 H 437.893 -0.935309 3.80472 0
M  V30 4639 H 439.59 -0.579607 3.96789 0
M  V30 4640 H 436.18 0.834484 4.20398 0
M  V30 4641 H 440.364 1.70158 4.66219 0
M  V30 4642 H 435.62 2.92558 5.36861 0
M  V30 4643 H 439.794 3.79282 5.84053 0
M  V30 4644 H 437.421 4.41054 6.19173 0
M  V30 4645 N 438.996 -1.55193 0.274407 0
M  V30 4646 C 439.929 -2.18606 -0.654712 0
M  V30 4647 C 440.907 -1.14677 -1.15273 0
M  V30 4648 O 442.091 -1.43198 -1.22583 0
M  V30 4649 C 439.218 -2.80875 -1.89281 0
M  V30 4650 C 438.264 -3.981 -1.53032 0
M  V30 4651 S 439.097 -5.32025 -0.609107 0
M  V30 4652 C 440.253 -5.97761 -1.85559 0
M  V30 4653 H 440.486 -2.97074 -0.115894 0
M  V30 4654 H 438.019 -1.54288 0.05867 0
M  V30 4655 H 439.977 -3.17381 -2.60345 0
M  V30 4656 H 438.638 -2.02302 -2.40277 0
M  V30 4657 H 437.831 -4.40356 -2.45158 0
M  V30 4658 H 437.433 -3.63013 -0.899874 0
M  V30 4659 H 439.725 -6.16951 -2.7996 0
M  V30 4660 H 440.668 -6.92545 -1.47605 0
M  V30 4661 H 441.076 -5.27113 -2.02021 0
M  V30 4662 N 440.474 -0.00167713 -1.576 0
M  V30 4663 C 441.422 1.0074 -2.09652 0
M  V30 4664 C 442.416 1.35483 -1.01689 0
M  V30 4665 O 443.622 1.34028 -1.20152 0
M  V30 4666 H 439.997 0.342537 -0.669457 0
M  V30 4667 H 441.968 0.542841 -2.93421 0
M  V30 4668 C 440.717 2.2899 -2.61647 0
M  V30 4669 H 440.04 2.03124 -3.44355 0
M  V30 4670 H 441.48 2.9787 -3.01744 0
M  V30 4671 C 439.939 3.00085 -1.53136 0
M  V30 4672 O 440.469 3.91135 -0.91524 0
M  V30 4673 N 438.675 2.6194 -1.25841 0
M  V30 4674 H 438.222 1.8798 -1.76129 0
M  V30 4675 H 438.18 3.09822 -0.534576 0
M  V30 4676 N 441.952 1.55251 0.271103 0
M  V30 4677 C 443.2 1.75599 1.00047 0
M  V30 4678 C 443.521 0.561188 1.8675 0
M  V30 4679 O 442.791 -0.423846 1.9126 0
M  V30 4680 H 441.371 0.647562 0.372387 0
M  V30 4681 H 444.033 1.92656 0.294876 0
M  V30 4682 H 443.129 2.65766 1.6363 0
M  V30 4683 N 443.43 -0.535701 1.48216 0
M  V30 4684 C 444.658 -1.31671 1.59594 0
M  V30 4685 C 445.073 -1.87083 0.254056 0
M  V30 4686 O 444.43 -1.66112 -0.755854 0
M  V30 4687 C 444.481 -2.47158 2.63809 0
M  V30 4688 O 444.202 -1.94032 3.92789 0
M  V30 4689 C 445.703 -3.39062 2.85573 0
M  V30 4690 H 442.923 -0.400623 0.538277 0
M  V30 4691 H 445.467 -0.646827 1.94001 0
M  V30 4692 H 443.622 -3.10043 2.32276 0
M  V30 4693 H 444.036 -2.69585 4.49916 0
M  V30 4694 H 445.51 -4.16459 3.62306 0
M  V30 4695 H 445.987 -3.93941 1.94184 0
M  V30 4696 H 446.593 -2.81975 3.18387 0
M  V30 4697 N 444.908 -1.36708 -0.784132 0
M  V30 4698 C 446.138 -1.34203 -1.57077 0
M  V30 4699 C 446.546 0.0774945 -1.89041 0
M  V30 4700 O 445.889 1.04628 -1.50992 0
M  V30 4701 C 445.951 -2.10351 -2.91535 0
M  V30 4702 C 445.615 -3.59405 -2.82272 0
M  V30 4703 C 446.612 -4.53545 -2.54151 0
M  V30 4704 C 444.297 -4.02362 -3.00683 0
M  V30 4705 C 446.291 -5.8862 -2.44551 0
M  V30 4706 C 443.978 -5.37526 -2.90704 0
M  V30 4707 C 444.976 -6.30468 -2.62677 0
M  V30 4708 O 444.664 -7.63149 -2.52702 0
M  V30 4709 H 444.396 -0.461791 -0.493685 0
M  V30 4710 H 446.95 -1.80475 -0.980712 0
M  V30 4711 H 445.18 -1.5875 -3.52612 0
M  V30 4712 H 446.869 -2.00636 -3.52845 0
M  V30 4713 H 447.635 -4.21669 -2.39625 0
M  V30 4714 H 443.514 -3.30389 -3.21503 0
M  V30 4715 H 447.058 -6.61133 -2.22596 0
M  V30 4716 H 442.955 -5.69008 -3.04795 0
M  V30 4717 H 443.723 -7.73331 -2.68144 0
M  V30 4718 N 446.386 1.0089 -1.21074 0
M  V30 4719 C 447.634 1.74262 -1.02358 0
M  V30 4720 C 447.955 1.89869 0.444393 0
M  V30 4721 O 447.225 1.44677 1.32081 0
M  V30 4722 H 445.805 0.645615 -0.375754 0
M  V30 4723 H 448.467 1.21596 -1.52317 0
M  V30 4724 H 447.563 2.74328 -1.4883 0
M  V30 4725 N 447.864 1.01787 1.20321 0
M  V30 4726 C 448.794 0.609625 2.25401 0
M  V30 4727 C 449.775 -0.375951 1.65893 0
M  V30 4728 O 450.96 -0.261101 1.92437 0
M  V30 4729 C 448.09 -0.0515995 3.47262 0
M  V30 4730 C 447.044 0.855095 4.19371 0
M  V30 4731 C 446.37 0.0595757 5.34667 0
M  V30 4732 C 447.67 2.16374 4.75373 0
M  V30 4733 H 449.364 1.48803 2.59804 0
M  V30 4734 H 446.91 0.716934 1.24884 0
M  V30 4735 H 448.863 -0.348764 4.19954 0
M  V30 4736 H 447.587 -0.964726 3.12027 0
M  V30 4737 H 446.246 1.13628 3.48546 0
M  V30 4738 H 445.894 -0.85524 4.95676 0
M  V30 4739 H 445.594 0.663406 5.83843 0
M  V30 4740 H 447.118 -0.231105 6.10162 0
M  V30 4741 H 448.532 1.92885 5.39878 0
M  V30 4742 H 446.929 2.71853 5.34991 0
M  V30 4743 H 447.999 2.82589 3.94045 0
M  V30 4744 N 449.342 -1.36122 0.79427 0
M  V30 4745 C 450.305 -2.28309 0.201889 0
M  V30 4746 C 451.305 -1.49041 -0.603603 0
M  V30 4747 O 452.495 -1.68964 -0.423888 0
M  V30 4748 C 449.627 -3.3321 -0.719978 0
M  V30 4749 H 450.82 -2.82208 1.01481 0
M  V30 4750 H 448.373 -1.45768 0.564037 0
M  V30 4751 H 449.108 -2.84475 -1.55706 0
M  V30 4752 H 448.893 -3.91835 -0.144266 0
M  V30 4753 H 450.383 -4.02044 -1.12916 0
M  V30 4754 N 450.82 -0.546701 -1.47814 0
M  V30 4755 C 452.067 -0.0187407 -2.02491 0
M  V30 4756 C 452.395 1.32685 -1.42215 0
M  V30 4757 O 451.65 1.87413 -0.563454 0
M  V30 4758 C 451.949 0.134869 -3.57145 0
M  V30 4759 C 451.615 -1.13849 -4.3629 0
M  V30 4760 C 450.277 -1.48743 -4.57634 0
M  V30 4761 C 452.629 -1.98277 -4.82012 0
M  V30 4762 C 449.957 -2.67932 -5.21948 0
M  V30 4763 C 452.309 -3.16659 -5.4764 0
M  V30 4764 C 450.973 -3.51879 -5.67219 0
M  V30 4765 H 450.243 -0.0068577 -0.740968 0
M  V30 4766 H 452.89 -0.716097 -1.77607 0
M  V30 4767 H 451.195 0.915118 -3.80963 0
M  V30 4768 H 452.892 0.558556 -3.97091 0
M  V30 4769 H 449.482 -0.856767 -4.19949 0
M  V30 4770 H 453.666 -1.72628 -4.6531 0
M  V30 4771 H 448.922 -2.95401 -5.35302 0
M  V30 4772 H 453.096 -3.82374 -5.82033 0
M  V30 4773 H 450.723 -4.44331 -6.16825 0
M  V30 4774 N 452.299 1.55045 -0.282633 0
M  V30 4775 C 453.545 2.0078 0.325436 0
M  V30 4776 C 453.9 1.1676 1.52921 0
M  V30 4777 O 453.193 0.231475 1.90197 0
M  V30 4778 C 453.387 3.49422 0.750938 0
M  V30 4779 C 453.216 4.47827 -0.410056 0
M  V30 4780 C 451.986 4.97288 -0.896239 0
M  V30 4781 C 454.184 4.98903 -1.24902 0
M  V30 4782 N 452.166 5.79508 -2.02591 0
M  V30 4783 C 453.537 5.78644 -2.22646 0
M  V30 4784 C 455.592 4.81126 -1.2815 0
M  V30 4785 C 454.295 6.42502 -3.23393 0
M  V30 4786 C 456.321 5.45789 -2.27745 0
M  V30 4787 C 455.683 6.25348 -3.24222 0
M  V30 4788 H 451.782 0.77747 0.08405 0
M  V30 4789 H 454.366 1.90369 -0.408368 0
M  V30 4790 H 452.537 3.60159 1.45395 0
M  V30 4791 H 454.269 3.81978 1.33698 0
M  V30 4792 H 451.024 4.71219 -0.474277 0
M  V30 4793 H 451.448 6.25308 -2.59459 0
M  V30 4794 H 456.09 4.19215 -0.549397 0
M  V30 4795 H 453.808 7.03558 -3.97533 0
M  V30 4796 H 457.394 5.33972 -2.31009 0
M  V30 4797 H 456.274 6.74498 -4.00027 0
M  V30 4798 N 453.777 0.010035 1.57597 0
M  V30 4799 C 455.007 -0.682422 1.95004 0
M  V30 4800 C 455.415 -1.67278 0.884014 0
M  V30 4801 O 454.758 -1.83129 -0.144672 0
M  V30 4802 C 454.82 -1.46141 3.28456 0
M  V30 4803 C 454.484 -0.631523 4.52615 0
M  V30 4804 C 455.481 0.0850905 5.1983 0
M  V30 4805 C 453.166 -0.574539 4.99003 0
M  V30 4806 C 455.16 0.847566 6.3174 0
M  V30 4807 C 452.847 0.191655 6.10799 0
M  V30 4808 C 453.845 0.901432 6.77025 0
M  V30 4809 O 453.533 1.65511 7.86677 0
M  V30 4810 H 453.265 -0.194361 0.647456 0
M  V30 4811 H 455.819 0.060312 2.05311 0
M  V30 4812 H 454.049 -2.24885 3.14585 0
M  V30 4813 H 455.738 -2.04016 3.50902 0
M  V30 4814 H 456.504 0.0502812 4.84974 0
M  V30 4815 H 452.383 -1.11654 4.47274 0
M  V30 4816 H 455.927 1.4021 6.83364 0
M  V30 4817 H 451.824 0.228249 6.45096 0
M  V30 4818 H 452.592 1.57287 8.03245 0
M  V30 4819 N 455.255 -1.55392 -0.262866 0
M  V30 4820 C 456.503 -1.76127 -0.991147 0
M  V30 4821 C 456.824 -0.571083 -1.8645 0
M  V30 4822 O 456.094 0.413698 -1.91482 0
M  V30 4823 H 454.674 -0.649528 -0.368948 0
M  V30 4824 H 457.336 -1.9281 -0.284655 0
M  V30 4825 H 456.432 -2.6663 -1.62219 0
M  V30 4826 N 456.733 0.527833 -1.48498 0
M  V30 4827 C 457.961 1.30823 -1.6029 0
M  V30 4828 C 458.376 1.86945 -0.263974 0
M  V30 4829 O 457.733 1.6651 0.747034 0
M  V30 4830 C 457.784 2.45756 -2.65116 0
M  V30 4831 O 457.505 1.91946 -3.93813 0
M  V30 4832 C 459.006 3.37543 -2.87367 0
M  V30 4833 H 456.226 0.397763 -0.540394 0
M  V30 4834 H 458.77 0.636529 -1.94341 0
M  V30 4835 H 456.925 3.08806 -2.33917 0
M  V30 4836 H 457.339 2.67195 -4.51339 0
M  V30 4837 H 458.813 4.14532 -3.6451 0
M  V30 4838 H 459.29 3.92905 -1.9627 0
M  V30 4839 H 459.896 2.80283 -3.19878 0
M  V30 4840 N 458.211 1.37122 0.776871 0
M  V30 4841 C 459.436 1.354 1.57104 0
M  V30 4842 C 459.861 -0.0595562 1.88006 0
M  V30 4843 O 459.219 -1.03514 1.48844 0
M  V30 4844 C 459.267 2.19472 2.8612 0
M  V30 4845 O 458.371 1.59582 3.80273 0
M  V30 4846 H 457.712 0.462869 0.476076 0
M  V30 4847 H 460.242 1.80577 0.961932 0
M  V30 4848 H 460.252 2.32502 3.35271 0
M  V30 4849 H 458.927 3.22222 2.62956 0
M  V30 4850 H 457.504 1.55564 3.38902 0
M  V30 4851 N 459.689 -1.00246 1.21608 0
M  V30 4852 C 460.619 -2.10921 1.00172 0
M  V30 4853 C 461.6 -1.69938 -0.0741587 0
M  V30 4854 O 462.785 -1.94009 0.0861753 0
M  V30 4855 C 459.915 -3.42618 0.568355 0
M  V30 4856 C 458.869 -3.97407 1.58909 0
M  V30 4857 C 458.195 -5.25038 1.01187 0
M  V30 4858 C 459.495 -4.2918 2.97661 0
M  V30 4859 H 461.189 -2.29112 1.92739 0
M  V30 4860 H 458.735 -1.10101 0.928102 0
M  V30 4861 H 460.688 -4.19444 0.405555 0
M  V30 4862 H 459.412 -3.24227 -0.392961 0
M  V30 4863 H 458.071 -3.22703 1.73949 0
M  V30 4864 H 457.719 -5.02982 0.0421965 0
M  V30 4865 H 457.419 -5.62661 1.6937 0
M  V30 4866 H 458.943 -6.04507 0.860448 0
M  V30 4867 H 460.357 -4.96839 2.86049 0
M  V30 4868 H 458.754 -4.77952 3.6288 0
M  V30 4869 H 459.824 -3.3735 3.48315 0
M  V30 4870 N 461.167 -1.02423 -1.1978 0
M  V30 4871 C 462.416 -0.713265 -1.88667 0
M  V30 4872 C 462.729 0.7609 -1.80193 0
M  V30 4873 O 463.935 1.18473 -2.44288 0
M  V30 4874 C 462.391 -1.22545 -3.38394 0
M  V30 4875 C 461.999 -2.72706 -3.55437 0
M  V30 4876 C 463.743 -0.990257 -4.12788 0
M  V30 4877 C 461.65 -3.17367 -4.99031 0
M  V30 4878 H 460.58 -0.263105 -0.706606 0
M  V30 4879 H 463.231 -1.23792 -1.35454 0
M  V30 4880 H 461.613 -0.628732 -3.90977 0
M  V30 4881 H 462.787 -3.37993 -3.13205 0
M  V30 4882 H 461.102 -2.94453 -2.94425 0
M  V30 4883 H 463.699 -1.29926 -5.18675 0
M  V30 4884 H 464.042 0.0730761 -4.16236 0
M  V30 4885 H 464.575 -1.55074 -3.66329 0
M  V30 4886 H 461.314 -4.23009 -5.00743 0
M  V30 4887 H 460.834 -2.56805 -5.42044 0
M  V30 4888 H 462.513 -3.10441 -5.67658 0
M  V30 4889 N 462.645 1.35699 -0.801477 0
M  V30 4890 C 463.575 2.32436 -0.222658 0
M  V30 4891 C 464.556 1.5723 0.649057 0
M  V30 4892 O 465.741 1.85324 0.580387 0
M  V30 4893 C 462.871 3.41469 0.633719 0
M  V30 4894 C 461.825 4.27774 -0.139083 0
M  V30 4895 C 461.151 5.28082 0.838666 0
M  V30 4896 C 462.451 5.04946 -1.33517 0
M  V30 4897 H 464.145 2.81094 -1.03086 0
M  V30 4898 H 461.691 1.35146 -0.497155 0
M  V30 4899 H 463.644 4.08143 1.04868 0
M  V30 4900 H 462.368 2.91408 1.47475 0
M  V30 4901 H 461.027 3.62673 -0.535156 0
M  V30 4902 H 460.675 4.7429 1.67506 0
M  V30 4903 H 460.375 5.86695 0.32594 0
M  V30 4904 H 461.899 5.97628 1.25194 0
M  V30 4905 H 463.313 5.64593 -0.995349 0
M  V30 4906 H 461.71 5.7303 -1.78202 0
M  V30 4907 H 462.78 4.35886 -2.12442 0
M  V30 4908 N 464.123 0.554532 1.47522 0
M  V30 4909 C 465.071 -0.207765 2.3167 0
M  V30 4910 C 466.065 -0.911914 1.4276 0
M  V30 4911 O 467.271 -0.833504 1.59539 0
M  V30 4912 H 463.646 -0.0858726 0.747081 0
M  V30 4913 H 465.617 0.521178 2.93813 0
M  V30 4914 C 464.366 -1.2263 3.25357 0
M  V30 4915 H 463.689 -0.693887 3.93732 0
M  V30 4916 H 465.129 -1.73062 3.87073 0
M  V30 4917 C 463.588 -2.27278 2.4869 0
M  V30 4918 O 464.118 -3.34156 2.22941 0
M  V30 4919 N 462.324 -2.01134 2.09746 0
M  V30 4920 H 461.871 -1.14232 2.30887 0
M  V30 4921 H 461.829 -2.71369 1.58765 0
M  V30 4922 N 465.601 -1.54893 0.290851 0
M  V30 4923 C 466.849 -1.99538 -0.320756 0
M  V30 4924 C 467.17 -1.18075 -1.55188 0
M  V30 4925 O 466.44 -0.274162 -1.93972 0
M  V30 4926 H 465.02 -0.737052 -0.121507 0
M  V30 4927 H 467.682 -1.90755 0.399832 0
M  V30 4928 H 466.778 -3.06282 -0.599802 0
M  V30 4929 N 467.08 -0.0183926 -1.57589 0
M  V30 4930 C 467.99 0.982943 -2.13015 0
M  V30 4931 C 469.006 1.36443 -1.07979 0
M  V30 4932 O 470.182 1.44802 -1.3998 0
M  V30 4933 C 467.247 2.25024 -2.63752 0
M  V30 4934 C 466.308 1.93018 -3.83461 0
M  V30 4935 C 465.541 3.13706 -4.31769 0
M  V30 4936 O 465.764 4.2601 -3.79305 0
M  V30 4937 O 464.698 2.96629 -5.23732 0
M  V30 4938 H 468.524 0.541709 -2.9883 0
M  V30 4939 H 466.109 0.201565 -1.48034 0
M  V30 4940 H 467.991 2.99441 -2.96502 0
M  V30 4941 H 466.666 2.68349 -1.81026 0
M  V30 4942 H 465.573 1.16019 -3.55655 0
M  V30 4943 H 466.906 1.54516 -4.67317 0
M  V30 4944 N 468.558 1.5553 0.254621 0
M  V30 4945 C 469.969 1.67518 0.824286 0
M  V30 4946 C 470.32 0.614429 1.86331 0
M  V30 4947 O 469.445 -0.240736 2.15057 0
M  V30 4948 C 470.04 3.03692 1.50189 0
M  V30 4949 C 468.599 3.17646 2.01935 0
M  V30 4950 C 467.746 2.63373 0.867746 0
M  V30 4951 H 470.697 1.58671 0.0305843 0
M  V30 4952 H 470.718 2.97706 2.36962 0
M  V30 4953 H 470.23 3.80874 0.745431 0
M  V30 4954 H 468.331 2.45273 2.80485 0
M  V30 4955 H 468.444 4.24455 2.22204 0
M  V30 4956 H 466.808 2.20999 1.26616 0
M  V30 4957 H 467.591 3.43074 0.124498 0
M  V30 4958 N 470.036 -0.519951 1.48776 0
M  V30 4959 C 471.284 -1.2727 1.56993 0
M  V30 4960 C 471.605 -1.9339 0.25004 0
M  V30 4961 O 470.875 -1.81822 -0.729216 0
M  V30 4962 H 469.455 -0.472732 0.578389 0
M  V30 4963 H 472.117 -0.604234 1.85297 0
M  V30 4964 H 471.213 -2.04669 2.3562 0
M  V30 4965 N 471.514 -1.37532 -0.769588 0
M  V30 4966 C 472.744 -1.35861 -1.55645 0
M  V30 4967 C 473.152 0.0574398 -1.89113 0
M  V30 4968 O 472.495 1.03021 -1.52093 0
M  V30 4969 C 472.557 -2.13431 -2.89288 0
M  V30 4970 C 472.221 -3.62378 -2.78444 0
M  V30 4971 C 473.218 -4.56215 -2.49326 0
M  V30 4972 C 470.903 -4.05529 -2.96398 0
M  V30 4973 C 472.897 -5.91181 -2.38294 0
M  V30 4974 C 470.584 -5.40579 -2.84987 0
M  V30 4975 C 471.582 -6.33218 -2.55975 0
M  V30 4976 O 471.27 -7.65787 -2.44594 0
M  V30 4977 H 471.002 -0.467001 -0.48876 0
M  V30 4978 H 473.556 -1.81505 -0.961515 0
M  V30 4979 H 471.786 -1.62481 -3.50909 0
M  V30 4980 H 473.475 -2.04368 -3.50697 0
M  V30 4981 H 474.241 -4.24187 -2.35139 0
M  V30 4982 H 470.12 -3.33781 -3.1798 0
M  V30 4983 H 473.664 -6.63457 -2.15571 0
M  V30 4984 H 469.561 -5.72209 -2.98743 0
M  V30 4985 H 470.329 -7.76132 -2.59927 0
M  V30 4986 N 472.992 0.995999 -1.22138 0
M  V30 4987 C 474.22 1.77066 -1.07029 0
M  V30 4988 C 474.635 1.8495 0.379357 0
M  V30 4989 O 473.992 1.3174 1.26297 0
M  V30 4990 C 474.043 3.20533 -1.67155 0
M  V30 4991 O 473.764 3.13082 -3.06449 0
M  V30 4992 C 475.265 4.14461 -1.5728 0
M  V30 4993 H 472.485 0.556179 -0.375374 0
M  V30 4994 H 475.029 1.25238 -1.61666 0
M  V30 4995 H 473.184 3.6944 -1.16589 0
M  V30 4996 H 473.598 4.03283 -3.35355 0
M  V30 4997 H 475.072 5.1289 -2.04078 0
M  V30 4998 H 475.549 4.36005 -0.528795 0
M  V30 4999 H 476.155 3.71449 -2.07136 0
M  V30 5000 N 474.47 1.03057 1.19235 0
M  V30 5001 C 475.719 0.72326 1.88287 0
M  V30 5002 C 476.032 -0.751333 1.80594 0
M  V30 5003 O 477.238 -1.17176 2.44912 0
M  V30 5004 C 475.694 1.24338 3.3774 0
M  V30 5005 C 475.302 2.74587 3.53986 0
M  V30 5006 C 477.046 1.01213 4.12257 0
M  V30 5007 C 474.953 3.20009 4.97341 0
M  V30 5008 H 473.883 0.266848 0.705201 0
M  V30 5009 H 476.534 1.24509 1.34795 0
M  V30 5010 H 474.916 0.649457 3.90638 0
M  V30 5011 H 476.09 3.39649 3.11408 0
M  V30 5012 H 474.405 2.9601 2.9286 0
M  V30 5013 H 477.002 1.32675 5.17978 0
M  V30 5014 H 477.345 -0.051001 4.16269 0
M  V30 5015 H 477.878 1.57014 3.65501 0
M  V30 5016 H 474.617 4.25659 4.98493 0
M  V30 5017 H 474.137 2.59676 5.40674 0
M  V30 5018 H 475.816 3.13447 5.66003 0
M  V30 5019 N 475.948 -1.35272 0.808662 0
M  V30 5020 C 477.196 -1.98316 0.389233 0
M  V30 5021 C 477.517 -1.64465 -1.04767 0
M  V30 5022 O 476.787 -0.928175 -1.72516 0
M  V30 5023 H 475.367 -0.733585 0.140935 0
M  V30 5024 H 478.029 -1.6515 1.03496 0
M  V30 5025 H 477.125 -3.08123 0.496631 0
M  V30 5026 N 477.426 -0.562348 -1.47226 0
M  V30 5027 C 478.654 -0.0452275 -2.06851 0
M  V30 5028 C 479.069 1.25078 -1.41424 0
M  V30 5029 O 478.426 1.75156 -0.512513 0
M  V30 5030 C 478.477 0.148674 -3.61194 0
M  V30 5031 O 478.198 -1.09602 -4.24169 0
M  V30 5032 C 479.699 0.702488 -4.37699 0
M  V30 5033 H 476.919 -0.0481775 -0.669268 0
M  V30 5034 H 479.463 -0.777223 -1.89155 0
M  V30 5035 H 477.618 0.830817 -3.78386 0
M  V30 5036 H 478.032 -0.896982 -5.16773 0
M  V30 5037 H 479.506 0.78743 -5.46355 0
M  V30 5038 H 479.983 1.71493 -4.04335 0
M  V30 5039 H 480.589 0.0558772 -4.25263 0
M  V30 5040 N 478.904 1.54736 -0.299062 0
M  V30 5041 C 480.15 2.00397 0.311244 0
M  V30 5042 C 480.483 1.18716 1.53688 0
M  V30 5043 O 479.758 0.263154 1.92712 0
M  V30 5044 C 480.041 3.53817 0.669761 0
M  V30 5045 C 479.894 4.46239 -0.564882 0
M  V30 5046 C 481.213 4.13856 1.49702 0
M  V30 5047 H 478.332 0.728493 0.111653 0
M  V30 5048 H 480.974 1.85506 -0.410774 0
M  V30 5049 H 479.124 3.66637 1.28491 0
M  V30 5050 H 480.796 4.45328 -1.20337 0
M  V30 5051 H 479.039 4.16916 -1.19849 0
M  V30 5052 H 479.71 5.5134 -0.269918 0
M  V30 5053 H 482.186 4.04461 0.977284 0
M  V30 5054 H 481.062 5.21365 1.71666 0
M  V30 5055 H 481.323 3.65608 2.48563 0
M  V30 5056 N 480.382 0.0267497 1.57577 0
M  V30 5057 C 481.312 -0.954308 2.13108 0
M  V30 5058 C 482.293 -1.34088 1.04663 0
M  V30 5059 O 483.478 -1.41992 1.32484 0
M  V30 5060 C 480.608 -2.23744 2.65624 0
M  V30 5061 C 479.562 -1.99168 3.78835 0
M  V30 5062 C 478.888 -3.33726 4.17769 0
M  V30 5063 C 480.188 -1.33277 5.0501 0
M  V30 5064 H 481.882 -0.491848 2.95332 0
M  V30 5065 H 479.428 -0.23514 1.42067 0
M  V30 5066 H 481.381 -2.92754 3.03106 0
M  V30 5067 H 480.105 -2.72151 1.80558 0
M  V30 5068 H 478.764 -1.32577 3.41788 0
M  V30 5069 H 478.412 -3.79888 3.29688 0
M  V30 5070 H 478.112 -3.18089 4.94058 0
M  V30 5071 H 479.636 -4.04008 4.57832 0
M  V30 5072 H 481.05 -1.92283 5.40093 0
M  V30 5073 H 479.447 -1.28045 5.8628 0
M  V30 5074 H 480.517 -0.305411 4.83937 0
M  V30 5075 N 481.861 -1.55662 -0.24637 0
M  V30 5076 C 482.824 -1.89558 -1.28842 0
M  V30 5077 C 483.824 -0.772082 -1.41052 0
M  V30 5078 O 485.014 -1.04007 -1.39743 0
M  V30 5079 C 482.146 -2.12449 -2.66605 0
M  V30 5080 H 483.339 -2.82735 -1.00004 0
M  V30 5081 H 480.892 -1.48562 -0.485684 0
M  V30 5082 H 481.627 -1.21742 -3.00582 0
M  V30 5083 H 481.412 -2.94273 -2.59125 0
M  V30 5084 H 482.902 -2.39854 -3.41847 0
M  V30 5085 N 483.339 0.512053 -1.4905 0
M  V30 5086 C 484.585 1.26874 -1.58212 0
M  V30 5087 C 484.918 1.9241 -0.263073 0
M  V30 5088 O 484.193 1.80181 0.732476 0
M  V30 5089 C 484.476 2.34428 -2.73341 0
M  V30 5090 C 484.329 1.73466 -4.15006 0
M  V30 5091 C 485.648 3.36073 -2.84154 0
M  V30 5092 H 482.767 0.459924 -0.575881 0
M  V30 5093 H 485.409 0.568587 -1.81293 0
M  V30 5094 H 483.559 2.94146 -2.53792 0
M  V30 5095 H 485.231 1.17661 -4.46042 0
M  V30 5096 H 483.474 1.03921 -4.21168 0
M  V30 5097 H 484.145 2.51426 -4.91415 0
M  V30 5098 H 486.621 2.86332 -3.01916 0
M  V30 5099 H 485.497 4.08703 -3.66406 0
M  V30 5100 H 485.758 3.97725 -1.93048 0
M  V30 5101 N 484.817 1.37938 0.762283 0
M  V30 5102 C 486.064 1.33668 1.52115 0
M  V30 5103 C 486.392 -0.0759538 1.94352 0
M  V30 5104 O 485.647 -1.05121 1.6507 0
M  V30 5105 C 485.946 2.23042 2.79261 0
M  V30 5106 C 485.612 3.71159 2.56031 0
M  V30 5107 C 484.274 4.11523 2.49404 0
M  V30 5108 C 486.626 4.64955 2.35513 0
M  V30 5109 C 483.954 5.43784 2.20263 0
M  V30 5110 C 486.306 5.97464 2.07894 0
M  V30 5111 C 484.97 6.36922 1.99718 0
M  V30 5112 H 484.24 0.489127 0.556629 0
M  V30 5113 H 486.887 1.70224 0.877262 0
M  V30 5114 H 485.192 1.79512 3.48256 0
M  V30 5115 H 486.889 2.17047 3.37182 0
M  V30 5116 H 483.479 3.39153 2.62056 0
M  V30 5117 H 487.663 4.34623 2.39617 0
M  V30 5118 H 482.919 5.73307 2.12435 0
M  V30 5119 H 487.093 6.6969 1.91019 0
M  V30 5120 H 484.72 7.39331 1.76902 0
M  V30 5121 N 486.295 -0.989507 1.22664 0
M  V30 5122 C 487.542 -1.72953 1.05325 0
M  V30 5123 C 487.87 -1.90104 -0.411168 0
M  V30 5124 O 487.125 -1.44386 -1.32103 0
M  V30 5125 C 487.424 -3.13649 1.71345 0
M  V30 5126 C 487.09 -3.16403 3.21248 0
M  V30 5127 C 485.752 -3.16862 3.62149 0
M  V30 5128 C 488.104 -3.12428 4.17179 0
M  V30 5129 C 485.432 -3.11051 4.97458 0
M  V30 5130 C 487.784 -3.08159 5.52468 0
M  V30 5131 C 486.448 -3.06935 5.92746 0
M  V30 5132 H 485.718 -0.632881 0.385412 0
M  V30 5133 H 488.365 -1.15863 1.52473 0
M  V30 5134 H 486.67 -3.74069 1.16532 0
M  V30 5135 H 488.367 -3.69658 1.55416 0
M  V30 5136 H 484.957 -3.16798 2.88682 0
M  V30 5137 H 489.141 -3.11221 3.86595 0
M  V30 5138 H 484.397 -3.0845 5.27891 0
M  V30 5139 H 488.571 -3.04039 6.26525 0
M  V30 5140 H 486.198 -3.02186 6.97558 0
M  V30 5141 N 487.773 -1.03688 -1.18687 0
M  V30 5142 C 488.998 -0.757819 -1.93059 0
M  V30 5143 C 489.423 0.678353 -1.75442 0
M  V30 5144 O 488.781 1.46938 -1.06203 0
M  V30 5145 C 488.829 -1.12423 -3.42627 0
M  V30 5146 O 487.933 -0.247505 -4.11657 0
M  V30 5147 H 487.274 -0.279245 -0.602427 0
M  V30 5148 H 489.804 -1.3857 -1.5053 0
M  V30 5149 H 489.814 -1.08454 -3.93322 0
M  V30 5150 H 488.489 -2.17049 -3.54771 0
M  V30 5151 H 487.066 -0.34649 -3.71287 0
M  V30 5152 N 489.251 1.34841 -0.815825 0
M  V30 5153 C 490.497 1.98793 -0.401129 0
M  V30 5154 C 490.83 1.64548 1.03139 0
M  V30 5155 O 490.105 0.913487 1.71714 0
M  V30 5156 C 490.388 3.55143 -0.595409 0
M  V30 5157 C 490.241 3.99155 -2.07352 0
M  V30 5158 C 491.56 4.40092 -0.0268823 0
M  V30 5159 H 488.679 0.722146 -0.14722 0
M  V30 5160 H 491.321 1.59847 -1.02707 0
M  V30 5161 H 489.471 3.8845 -0.0625779 0
M  V30 5162 H 491.143 3.76216 -2.66945 0
M  V30 5163 H 489.386 3.49726 -2.56659 0
M  V30 5164 H 490.057 5.07971 -2.1603 0
M  V30 5165 H 492.533 4.13298 -0.482042 0
M  V30 5166 H 491.409 5.48562 -0.19267 0
M  V30 5167 H 491.67 4.29016 1.06759 0
M  V30 5168 N 490.729 0.570148 1.46925 0
M  V30 5169 C 491.978 0.0487352 2.01641 0
M  V30 5170 C 492.291 -1.31433 1.44861 0
M  V30 5171 O 493.497 -1.92638 1.91318 0
M  V30 5172 C 491.953 0.0365817 3.59881 0
M  V30 5173 C 491.561 1.39719 4.25655 0
M  V30 5174 C 493.305 -0.431545 4.22301 0
M  V30 5175 C 491.212 1.34345 5.75939 0
M  V30 5176 H 490.142 0.0144492 0.753862 0
M  V30 5177 H 492.793 0.719928 1.68788 0
M  V30 5178 H 491.175 -0.700522 3.89755 0
M  V30 5179 H 492.349 2.15303 4.07408 0
M  V30 5180 H 490.664 1.80431 3.75278 0
M  V30 5181 H 493.261 -0.490354 5.32447 0
M  V30 5182 H 493.604 -1.44638 3.90366 0
M  V30 5183 H 494.137 0.251102 3.97007 0
M  V30 5184 H 490.876 2.33469 6.12513 0
M  V30 5185 H 490.396 0.629615 5.96486 0
M  V30 5186 H 492.075 1.051 6.38407 0
M  V30 5187 N 492.207 -1.54576 0.307264 0
M  V30 5188 C 493.157 -2.20467 -0.581249 0
M  V30 5189 C 494.141 -1.17972 -1.09414 0
M  V30 5190 O 495.333 -1.43667 -1.03387 0
M  V30 5191 C 492.462 -2.95369 -1.74963 0
M  V30 5192 C 491.548 -4.05186 -1.25241 0
M  V30 5193 N 491.939 -5.03577 -0.47364 0
M  V30 5194 C 490.237 -4.18841 -1.53259 0
M  V30 5195 C 490.938 -5.81328 -0.208083 0
M  V30 5196 N 489.914 -5.37834 -0.789651 0
M  V30 5197 H 493.716 -2.93892 0.0212221 0
M  V30 5198 H 491.23 -1.62011 0.112325 0
M  V30 5199 H 493.227 -3.41046 -2.39777 0
M  V30 5200 H 491.887 -2.23461 -2.35574 0
M  V30 5201 H 492.898 -5.17766 -0.117963 0
M  V30 5202 H 489.575 -3.58141 -2.14573 0
M  V30 5203 H 490.965 -6.706 0.417793 0
M  V30 5204 N 493.685 -0.035106 -1.57561 0
M  V30 5205 C 494.91 0.655802 -1.96759 0
M  V30 5206 C 495.335 1.64523 -0.911809 0
M  V30 5207 O 494.693 1.80857 0.126673 0
M  V30 5208 C 494.741 1.33326 -3.35047 0
M  V30 5209 O 493.845 2.44866 -3.31835 0
M  V30 5210 H 493.186 0.171807 -0.641388 0
M  V30 5211 H 495.716 -0.0987369 -2.04362 0
M  V30 5212 H 495.726 1.68867 -3.71413 0
M  V30 5213 H 494.401 0.608033 -4.11431 0
M  V30 5214 H 492.978 2.11392 -3.07193 0
M  V30 5215 N 495.163 1.55791 0.238111 0
M  V30 5216 C 496.388 1.8244 0.986432 0
M  V30 5217 C 496.813 0.613314 1.7782 0
M  V30 5218 O 496.171 -0.437767 1.75935 0
M  V30 5219 C 496.219 3.06917 1.893 0
M  V30 5220 O 495.323 2.84449 2.98601 0
M  V30 5221 H 494.664 0.601975 0.280218 0
M  V30 5222 H 497.194 2.02987 0.256437 0
M  V30 5223 H 497.204 3.36583 2.30598 0
M  V30 5224 H 495.879 3.947 1.31091 0
M  V30 5225 H 494.456 2.65972 2.61368 0
M  V30 5226 N 496.642 -0.504142 1.49319 0
M  V30 5227 C 497.872 -1.28071 1.62116 0
M  V30 5228 C 498.28 -1.86955 0.290566 0
M  V30 5229 O 497.623 -1.68415 -0.733616 0
M  V30 5230 C 497.685 -2.4521 2.62893 0
M  V30 5231 C 497.349 -2.07218 4.0732 0
M  V30 5232 C 498.346 -1.61375 4.94221 0
M  V30 5233 C 496.031 -2.16949 4.53033 0
M  V30 5234 C 498.025 -1.25763 6.2487 0
M  V30 5235 C 495.712 -1.80949 5.83696 0
M  V30 5236 C 496.71 -1.3543 6.69438 0
M  V30 5237 O 496.398 -0.99915 7.97667 0
M  V30 5238 H 496.13 -0.394763 0.54876 0
M  V30 5239 H 498.684 -0.612118 1.96067 0
M  V30 5240 H 496.914 -3.15134 2.24115 0
M  V30 5241 H 498.603 -3.0724 2.65252 0
M  V30 5242 H 499.369 -1.53306 4.60133 0
M  V30 5243 H 495.248 -2.5133 3.86463 0
M  V30 5244 H 498.792 -0.901631 6.91749 0
M  V30 5245 H 494.689 -1.88667 6.17313 0
M  V30 5246 H 495.457 -1.13089 8.1065 0
M  V30 5247 N 498.12 -1.38341 -0.754957 0
M  V30 5248 C 499.36 -1.35888 -1.52689 0
M  V30 5249 C 499.724 0.0513682 -1.91931 0
M  V30 5250 O 500.925 0.200761 -2.68049 0
M  V30 5251 C 499.196 -2.28666 -2.74676 0
M  V30 5252 S 500.755 -2.4422 -3.64558 0
M  V30 5253 H 497.573 -0.482165 -0.522531 0
M  V30 5254 H 500.175 -1.74253 -0.886358 0
M  V30 5255 H 498.879 -3.30023 -2.43953 0
M  V30 5256 H 498.41 -1.91445 -3.43675 0
M  V30 5257 H 500.425 -1.66525 -4.67423 0
M  V30 5258 N 499.598 0.982988 -1.23187 0
M  V30 5259 C 500.847 1.71817 -1.05649 0
M  V30 5260 C 501.16 1.91315 0.407176 0
M  V30 5261 O 502.366 2.62256 0.702436 0
M  V30 5262 C 500.822 3.09188 -1.84203 0
M  V30 5263 C 500.43 2.97586 -3.34882 0
M  V30 5264 C 502.174 3.86684 -1.75146 0
M  V30 5265 C 500.081 4.30173 -4.05839 0
M  V30 5266 H 499.011 0.644258 -0.391724 0
M  V30 5267 H 501.662 1.09659 -1.4713 0
M  V30 5268 H 500.044 3.72087 -1.35527 0
M  V30 5269 H 501.218 2.43793 -3.91026 0
M  V30 5270 H 499.533 2.33567 -3.44725 0
M  V30 5271 H 502.13 4.84836 -2.25473 0
M  V30 5272 H 502.473 4.10136 -0.713737 0
M  V30 5273 H 503.006 3.30482 -2.21419 0
M  V30 5274 H 499.745 4.11918 -5.09906 0
M  V30 5275 H 499.265 4.83841 -3.54482 0
M  V30 5276 H 500.944 4.98873 -4.11989 0
M  V30 5277 N 501.076 1.04316 1.18135 0
M  V30 5278 C 502.324 0.746542 1.87806 0
M  V30 5279 C 502.645 -0.728082 1.80898 0
M  V30 5280 O 501.915 -1.52554 1.22899 0
M  V30 5281 H 500.495 0.273157 0.695265 0
M  V30 5282 H 503.157 1.32044 1.43354 0
M  V30 5283 H 502.253 1.05362 2.93778 0
M  V30 5284 N 502.554 -1.34406 0.822964 0
M  V30 5285 C 503.517 -2.2783 0.250271 0
M  V30 5286 C 504.517 -1.50288 -0.571854 0
M  V30 5287 O 505.707 -1.69825 -0.387952 0
M  V30 5288 C 502.839 -3.34663 -0.649137 0
M  V30 5289 H 504.032 -2.79992 1.07444 0
M  V30 5290 H 501.585 -1.44539 0.594829 0
M  V30 5291 H 502.32 -2.87714 -1.49637 0
M  V30 5292 H 502.105 -3.92052 -0.0611199 0
M  V30 5293 H 503.595 -4.04349 -1.04363 0
M  V30 5294 N 504.032 -0.577932 -1.46621 0
M  V30 5295 C 504.995 0.147805 -2.28723 0
M  V30 5296 C 505.995 0.823325 -1.38123 0
M  V30 5297 O 507.185 0.676011 -1.60548 0
M  V30 5298 C 504.317 1.21853 -3.18378 0
M  V30 5299 H 505.51 -0.573654 -2.94362 0
M  V30 5300 H 503.063 -0.335703 -1.52652 0
M  V30 5301 H 503.798 1.97173 -2.57475 0
M  V30 5302 H 503.583 0.738714 -3.85078 0
M  V30 5303 H 505.073 1.72768 -3.80186 0
M  V30 5304 N 505.51 1.54411 -0.315457 0
M  V30 5305 C 506.756 2.00716 0.289972 0
M  V30 5306 C 507.089 1.2034 1.5242 0
M  V30 5307 O 506.364 0.283579 1.92422 0
M  V30 5308 C 506.647 3.54507 0.632196 0
M  V30 5309 C 506.5 4.45615 -0.61218 0
M  V30 5310 C 507.819 4.15421 1.45305 0
M  V30 5311 H 504.938 0.729637 0.10392 0
M  V30 5312 H 507.58 1.8506 -0.430427 0
M  V30 5313 H 505.73 3.67979 1.24595 0
M  V30 5314 H 507.402 4.44026 -1.25053 0
M  V30 5315 H 505.645 4.15621 -1.24264 0
M  V30 5316 H 506.316 5.51022 -0.328379 0
M  V30 5317 H 508.792 4.05474 0.934331 0
M  V30 5318 H 507.668 5.23157 1.66127 0
M  V30 5319 H 507.929 3.68223 2.44671 0
M  V30 5320 N 506.988 0.0434614 1.5754 0
M  V30 5321 C 508.399 -0.493343 1.80064 0
M  V30 5322 C 508.75 -1.71388 0.955023 0
M  V30 5323 O 507.875 -2.15736 0.169434 0
M  V30 5324 C 508.47 -0.90179 3.26578 0
M  V30 5325 C 507.029 -1.38362 3.50047 0
M  V30 5326 C 506.176 -0.355129 2.75017 0
M  V30 5327 H 509.127 0.2694 1.56397 0
M  V30 5328 H 509.148 -1.76523 3.37075 0
M  V30 5329 H 508.66 -0.013271 3.88098 0
M  V30 5330 H 506.761 -2.29159 2.93798 0
M  V30 5331 H 506.874 -1.3811 4.58762 0
M  V30 5332 H 505.238 -0.826348 2.40922 0
M  V30 5333 H 506.021 0.525172 3.39259 0
M  V30 5334 N 508.466 -1.55915 -0.229846 0
M  V30 5335 C 509.416 -1.8813 -1.28807 0
M  V30 5336 C 510.4 -0.743621 -1.42685 0
M  V30 5337 O 511.592 -1.00588 -1.4564 0
M  V30 5338 C 508.721 -2.19431 -2.64017 0
M  V30 5339 C 507.807 -3.39569 -2.54074 0
M  V30 5340 N 508.198 -4.58404 -2.13774 0
M  V30 5341 C 506.496 -3.43019 -2.85051 0
M  V30 5342 C 507.197 -5.40557 -2.1488 0
M  V30 5343 N 506.173 -4.80054 -2.55047 0
M  V30 5344 H 509.975 -2.77527 -0.967261 0
M  V30 5345 H 507.489 -1.5637 -0.438433 0
M  V30 5346 H 509.486 -2.40681 -3.40409 0
M  V30 5347 H 508.146 -1.31341 -2.9695 0
M  V30 5348 H 509.157 -4.83716 -1.8504 0
M  V30 5349 H 505.834 -2.65249 -3.22411 0
M  V30 5350 H 507.224 -6.45666 -1.85918 0
M  V30 5351 N 509.944 0.496216 -1.49584 0
M  V30 5352 C 511.191 1.25003 -1.59312 0
M  V30 5353 C 511.519 1.92445 -0.28198 0
M  V30 5354 O 510.774 1.81557 0.730452 0
M  V30 5355 C 511.073 2.3359 -2.705 0
M  V30 5356 C 510.739 1.83574 -4.11839 0
M  V30 5357 C 509.401 1.69653 -4.50302 0
M  V30 5358 C 511.753 1.46193 -5.00277 0
M  V30 5359 C 509.081 1.16736 -5.74969 0
M  V30 5360 C 511.433 0.947265 -6.25468 0
M  V30 5361 C 510.097 0.794485 -6.62755 0
M  V30 5362 H 509.367 0.45742 -0.582965 0
M  V30 5363 H 512.014 0.549996 -1.83432 0
M  V30 5364 H 510.319 3.09401 -2.40371 0
M  V30 5365 H 512.016 2.91627 -2.75235 0
M  V30 5366 H 508.606 1.9537 -3.81482 0
M  V30 5367 H 512.79 1.55793 -4.71214 0
M  V30 5368 H 508.046 1.03623 -6.02555 0
M  V30 5369 H 512.22 0.648846 -6.93371 0
M  V30 5370 H 509.847 0.382271 -7.59238 0
M  V30 5371 N 511.423 1.38739 0.74761 0
M  V30 5372 C 512.333 1.38696 1.89211 0
M  V30 5373 C 513.349 0.283303 1.71678 0
M  V30 5374 O 514.525 0.522713 1.94498 0
M  V30 5375 C 511.59 1.21662 3.24653 0
M  V30 5376 C 510.651 2.41886 3.54669 0
M  V30 5377 C 509.884 2.25655 4.83648 0
M  V30 5378 O 510.107 1.25339 5.56459 0
M  V30 5379 O 509.041 3.14372 5.13277 0
M  V30 5380 H 512.867 2.35143 1.92202 0
M  V30 5381 H 510.452 1.19721 0.893708 0
M  V30 5382 H 512.334 1.14246 4.05618 0
M  V30 5383 H 511.009 0.283024 3.2246 0
M  V30 5384 H 509.916 2.54877 2.73841 0
M  V30 5385 H 511.249 3.33895 3.61628 0
M  V30 5386 N 512.901 -0.976442 1.23707 0
M  V30 5387 C 514.129 -1.75341 1.09833 0
M  V30 5388 C 514.544 -1.8553 -0.349885 0
M  V30 5389 O 513.901 -1.33732 -1.24185 0
M  V30 5390 C 513.952 -3.17833 1.72233 0
M  V30 5391 O 513.673 -3.08167 3.11391 0
M  V30 5392 C 515.174 -4.11906 1.63853 0
M  V30 5393 H 512.394 -0.550137 0.384175 0
M  V30 5394 H 514.938 -1.2265 1.63638 0
M  V30 5395 H 513.093 -3.67538 1.22452 0
M  V30 5396 H 513.507 -3.97897 3.41729 0
M  V30 5397 H 514.981 -5.09579 2.12211 0
M  V30 5398 H 515.458 -4.35109 0.598092 0
M  V30 5399 H 516.064 -3.68107 2.13019 0
M  V30 5400 N 514.379 -1.04941 -1.1758 0
M  V30 5401 C 515.626 -0.757989 -1.87779 0
M  V30 5402 C 515.954 0.714827 -1.80888 0
M  V30 5403 O 515.209 1.53824 -1.20982 0
M  V30 5404 C 515.508 -1.18062 -3.37337 0
M  V30 5405 C 515.174 -2.65521 -3.6443 0
M  V30 5406 C 513.836 -3.05804 -3.71534 0
M  V30 5407 C 516.188 -3.60822 -3.76108 0
M  V30 5408 C 513.516 -4.40256 -3.87803 0
M  V30 5409 C 515.868 -4.95005 -3.93895 0
M  V30 5410 C 514.532 -5.34945 -3.99237 0
M  V30 5411 H 513.802 -0.277368 -0.68713 0
M  V30 5412 H 516.449 -1.31603 -1.39115 0
M  V30 5413 H 514.754 -0.541525 -3.8804 0
M  V30 5414 H 516.451 -0.932368 -3.9001 0
M  V30 5415 H 513.041 -2.33324 -3.59524 0
M  V30 5416 H 517.225 -3.30841 -3.69943 0
M  V30 5417 H 512.481 -4.70707 -3.90186 0
M  V30 5418 H 516.655 -5.68746 -4.01872 0
M  V30 5419 H 514.282 -6.39135 -4.11596 0
M  V30 5420 N 515.857 1.33968 -0.830081 0
M  V30 5421 C 516.82 2.27694 -0.26235 0
M  V30 5422 C 517.82 1.50589 0.563876 0
M  V30 5423 O 519.01 1.70028 0.378941 0
M  V30 5424 C 516.142 3.35002 0.63138 0
M  V30 5425 H 517.335 2.79419 -1.08928 0
M  V30 5426 H 514.888 1.44221 -0.602486 0
M  V30 5427 H 515.623 2.88504 1.48109 0
M  V30 5428 H 515.408 3.92079 0.0403276 0
M  V30 5429 H 516.898 4.04897 1.02217 0
M  V30 5430 N 517.335 0.585699 1.46312 0
M  V30 5431 C 518.584 0.0701192 2.01578 0
M  V30 5432 C 518.897 -1.29889 1.46247 0
M  V30 5433 O 520.103 -1.90598 1.93351 0
M  V30 5434 C 518.559 0.0747499 3.59822 0
M  V30 5435 C 518.167 1.44226 4.24149 0
M  V30 5436 C 519.911 -0.38673 4.22735 0
M  V30 5437 C 517.818 1.40446 5.74481 0
M  V30 5438 H 516.748 0.0224441 0.753666 0
M  V30 5439 H 519.399 0.737789 1.68015 0
M  V30 5440 H 517.781 -0.659144 3.90476 0
M  V30 5441 H 518.955 2.19612 4.05101 0
M  V30 5442 H 517.27 1.84401 3.73343 0
M  V30 5443 H 519.867 -0.433853 5.32937 0
M  V30 5444 H 520.21 -1.40489 3.91878 0
M  V30 5445 H 520.743 0.293195 3.96718 0
M  V30 5446 H 517.482 2.39952 6.10003 0
M  V30 5447 H 517.002 0.692845 5.95785 0
M  V30 5448 H 518.681 1.11865 6.37256 0
M  V30 5449 N 518.813 -1.54241 0.323641 0
M  V30 5450 C 519.776 -2.22997 -0.529602 0
M  V30 5451 C 520.776 -1.22345 -1.04347 0
M  V30 5452 O 521.966 -1.46924 -0.935889 0
M  V30 5453 C 519.098 -2.93409 -1.73562 0
M  V30 5454 H 520.291 -2.99815 0.0714518 0
M  V30 5455 H 517.844 -1.56121 0.0747258 0
M  V30 5456 H 518.579 -2.20729 -2.37591 0
M  V30 5457 H 518.364 -3.67217 -1.37456 0
M  V30 5458 H 519.854 -3.45794 -2.34128 0
M  V30 5459 N 520.291 -0.0518155 -1.57515 0
M  V30 5460 C 521.707 0.304735 -1.56664 0
M  V30 5461 C 521.907 1.71395 -1.05953 0
M  V30 5462 O 520.963 2.42123 -0.716414 0
M  V30 5463 C 522.276 0.132614 -3.00407 0
M  V30 5464 C 523.824 0.20367 -3.12337 0
M  V30 5465 C 524.299 0.0600706 -4.57961 0
M  V30 5466 N 525.79 0.116326 -4.63054 0
M  V30 5467 C 526.525 0.0293363 -5.73392 0
M  V30 5468 N 526.021 -0.110038 -6.92713 0
M  V30 5469 N 527.814 0.0849651 -5.62036 0
M  V30 5470 H 519.965 -0.973056 -1.888 0
M  V30 5471 H 522.228 -0.377781 -0.869474 0
M  V30 5472 H 521.934 -0.839019 -3.41546 0
M  V30 5473 H 521.808 0.893376 -3.66468 0
M  V30 5474 H 524.195 1.16578 -2.71097 0
M  V30 5475 H 524.276 -0.587857 -2.48954 0
M  V30 5476 H 523.92 -0.898715 -4.99886 0
M  V30 5477 H 523.85 0.87075 -5.19351 0
M  V30 5478 H 526.341 0.22327 -3.7724 0
M  V30 5479 H 526.654 -0.169104 -7.72615 0
M  V30 5480 H 524.999 -0.145132 -6.94848 0
M  V30 5481 H 528.19 0.192411 -4.67704 0
M  V30 5482 H 528.363 0.0137131 -6.47999 0
M  V30 5483 N 521.769 1.56035 0.221574 0
M  V30 5484 C 523.017 1.78693 0.944102 0
M  V30 5485 C 523.338 0.620317 1.8487 0
M  V30 5486 O 522.608 -0.362784 1.92512 0
M  V30 5487 H 521.188 0.659082 0.351597 0
M  V30 5488 H 523.85 1.93497 0.233435 0
M  V30 5489 H 522.946 2.70837 1.55093 0
M  V30 5490 N 523.247 -0.488276 1.49845 0
M  V30 5491 C 524.21 -1.57069 1.66919 0
M  V30 5492 C 525.21 -1.51445 0.540479 0
M  V30 5493 O 526.4 -1.5437 0.807188 0
M  V30 5494 C 523.532 -2.96718 1.67844 0
M  V30 5495 H 524.725 -1.43254 2.63474 0
M  V30 5496 H 522.278 -0.713435 1.39068 0
M  V30 5497 H 523.013 -3.15996 0.7292 0
M  V30 5498 H 522.798 -3.02208 2.49826 0
M  V30 5499 H 524.288 -3.75335 1.83066 0
M  V30 5500 N 524.725 -1.39134 -0.740242 0
M  V30 5501 C 525.688 -1.37217 -1.83587 0
M  V30 5502 C 526.688 -0.270221 -1.58513 0
M  V30 5503 O 527.878 -0.527843 -1.6601 0
M  V30 5504 C 525.01 -1.13959 -3.21288 0
M  V30 5505 H 526.203 -2.34705 -1.86691 0
M  V30 5506 H 523.756 -1.24622 -0.94335 0
M  V30 5507 H 524.491 -0.17131 -3.23847 0
M  V30 5508 H 524.276 -1.93754 -3.40884 0
M  V30 5509 H 525.766 -1.15346 -4.01354 0
M  V30 5510 N 526.204 0.969867 -1.24223 0
M  V30 5511 C 527.451 1.71256 -1.08063 0
M  V30 5512 C 527.779 1.90734 0.380872 0
M  V30 5513 O 527.034 1.46469 1.29789 0
M  V30 5514 C 527.333 3.10883 -1.76314 0
M  V30 5515 C 526.999 3.11252 -3.26241 0
M  V30 5516 C 525.661 3.1106 -3.67144 0
M  V30 5517 C 528.013 3.05751 -4.22097 0
M  V30 5518 C 525.341 3.03097 -5.02344 0
M  V30 5519 C 527.693 2.9933 -5.57301 0
M  V30 5520 C 526.357 2.97466 -5.97554 0
M  V30 5521 H 525.627 0.62667 -0.395431 0
M  V30 5522 H 528.274 1.13422 -1.54297 0
M  V30 5523 H 526.579 3.72168 -1.22468 0
M  V30 5524 H 528.276 3.67138 -1.61277 0
M  V30 5525 H 524.866 3.12165 -2.93685 0
M  V30 5526 H 529.05 3.05031 -3.91497 0
M  V30 5527 H 524.306 3.00013 -5.32731 0
M  V30 5528 H 528.48 2.94033 -6.31283 0
M  V30 5529 H 526.107 2.91051 -7.02277 0
M  V30 5530 N 527.682 1.05563 1.17022 0
M  V30 5531 C 528.632 0.630007 2.19123 0
M  V30 5532 C 529.616 -0.335472 1.57364 0
M  V30 5533 O 530.808 -0.1521 1.76345 0
M  V30 5534 C 527.937 0.0101676 3.43298 0
M  V30 5535 C 527.023 0.999698 4.12149 0
M  V30 5536 N 527.414 2.17251 4.56766 0
M  V30 5537 C 525.712 0.829 4.38228 0
M  V30 5538 C 526.413 2.79883 5.09942 0
M  V30 5539 N 525.389 2.07656 5.02374 0
M  V30 5540 H 529.191 1.52353 2.51328 0
M  V30 5541 H 526.705 0.926288 1.33393 0
M  V30 5542 H 528.702 -0.312541 4.15727 0
M  V30 5543 H 527.362 -0.878707 3.12584 0
M  V30 5544 H 528.373 2.55067 4.50734 0
M  V30 5545 H 525.05 -0.00850974 4.17499 0
M  V30 5546 H 526.44 3.79362 5.54558 0
M  V30 5547 N 529.16 -1.33526 0.837174 0
M  V30 5548 C 530.409 -1.97098 0.428387 0
M  V30 5549 C 530.722 -1.67062 -1.01734 0
M  V30 5550 O 531.928 -2.24235 -1.53072 0
M  V30 5551 C 530.384 -3.52725 0.715075 0
M  V30 5552 C 529.992 -3.9164 2.17537 0
M  V30 5553 C 531.736 -4.22857 0.373154 0
M  V30 5554 C 529.643 -5.40237 2.40619 0
M  V30 5555 H 528.573 -0.737589 0.156455 0
M  V30 5556 H 531.224 -1.52169 1.02552 0
M  V30 5557 H 529.606 -3.95971 0.0475904 0
M  V30 5558 H 530.78 -3.59456 2.88319 0
M  V30 5559 H 529.095 -3.34485 2.4801 0
M  V30 5560 H 531.692 -5.32133 0.523264 0
M  V30 5561 H 532.035 -4.10647 -0.683708 0
M  V30 5562 H 532.568 -3.85135 0.995801 0
M  V30 5563 H 529.307 -5.57449 3.44864 0
M  V30 5564 H 528.827 -5.73887 1.74396 0
M  V30 5565 H 530.506 -6.07102 2.23688 0
M  V30 5566 N 530.638 -0.59345 -1.46 0
M  V30 5567 C 531.885 -0.0831523 -2.02329 0
M  V30 5568 C 532.213 1.28093 -1.46364 0
M  V30 5569 O 531.468 1.85526 -0.622793 0
M  V30 5570 C 531.767 0.021178 -3.57394 0
M  V30 5571 C 531.433 -1.27671 -4.32448 0
M  V30 5572 C 530.095 -1.63227 -4.5267 0
M  V30 5573 C 532.447 -2.13511 -4.7546 0
M  V30 5574 C 529.775 -2.84401 -5.1316 0
M  V30 5575 C 532.127 -3.33922 -5.37289 0
M  V30 5576 C 530.791 -3.69747 -5.55737 0
M  V30 5577 H 530.061 -0.0304276 -0.740375 0
M  V30 5578 H 532.708 -0.772239 -1.75239 0
M  V30 5579 H 531.013 0.793454 -3.83682 0
M  V30 5580 H 532.71 0.431942 -3.98667 0
M  V30 5581 H 529.3 -0.989937 -4.17011 0
M  V30 5582 H 533.484 -1.87344 -4.59582 0
M  V30 5583 H 528.74 -3.12282 -5.25633 0
M  V30 5584 H 532.914 -4.00698 -5.69574 0
M  V30 5585 H 530.541 -4.6373 -6.02377 0
M  V30 5586 N 532.116 1.54067 -0.331816 0
M  V30 5587 C 533.048 2.22139 0.564538 0
M  V30 5588 C 534.061 1.22408 1.07332 0
M  V30 5589 O 535.25 1.4883 0.985481 0
M  V30 5590 C 532.35 2.87876 1.78831 0
M  V30 5591 C 531.523 4.13817 1.41682 0
M  V30 5592 C 530.582 4.63072 2.49901 0
M  V30 5593 O 529.608 5.27562 2.13699 0
M  V30 5594 N 530.81 4.38001 3.80967 0
M  V30 5595 H 533.575 2.99694 -0.0183736 0
M  V30 5596 H 531.136 1.61153 -0.155396 0
M  V30 5597 H 533.128 3.17747 2.50637 0
M  V30 5598 H 531.698 2.13977 2.27887 0
M  V30 5599 H 530.918 3.9062 0.530044 0
M  V30 5600 H 532.206 4.95762 1.14443 0
M  V30 5601 H 531.604 3.864 4.13173 0
M  V30 5602 H 530.161 4.72507 4.48977 0
M  V30 5603 N 533.594 0.0601682 1.57485 0
M  V30 5604 C 534.84 -0.612501 1.93329 0
M  V30 5605 C 535.173 -1.6996 0.939526 0
M  V30 5606 O 534.448 -1.94472 -0.0330957 0
M  V30 5607 C 534.731 -1.20025 3.39508 0
M  V30 5608 C 534.584 -0.12059 4.49638 0
M  V30 5609 C 535.903 -2.10923 3.86264 0
M  V30 5610 H 533.022 -0.221185 0.703027 0
M  V30 5611 H 535.664 0.123768 1.89596 0
M  V30 5612 H 533.814 -1.82774 3.42821 0
M  V30 5613 H 535.486 0.51185 4.58452 0
M  V30 5614 H 533.729 0.550251 4.30296 0
M  V30 5615 H 534.4 -0.572019 5.49028 0
M  V30 5616 H 536.876 -1.58124 3.84884 0
M  V30 5617 H 535.752 -2.48987 4.8918 0
M  V30 5618 H 536.013 -3.01292 3.23536 0
M  V30 5619 N 535.072 -1.5615 -0.213296 0
M  V30 5620 C 536.321 -1.78743 -0.93455 0
M  V30 5621 C 536.634 -0.630199 -1.8517 0
M  V30 5622 O 537.84 -0.739966 -2.61222 0
M  V30 5623 C 536.296 -3.16571 -1.71203 0
M  V30 5624 C 535.904 -4.40043 -0.840617 0
M  V30 5625 C 537.648 -3.48485 -2.42401 0
M  V30 5626 C 535.555 -5.68895 -1.61592 0
M  V30 5627 H 534.485 -0.666426 -0.352692 0
M  V30 5628 H 537.136 -1.82532 -0.188227 0
M  V30 5629 H 535.518 -3.06981 -2.50157 0
M  V30 5630 H 536.692 -4.6071 -0.0910326 0
M  V30 5631 H 535.007 -4.15706 -0.240365 0
M  V30 5632 H 537.604 -4.41983 -3.00924 0
M  V30 5633 H 537.947 -2.71371 -3.15695 0
M  V30 5634 H 538.48 -3.59442 -1.7043 0
M  V30 5635 H 535.219 -6.48925 -0.926106 0
M  V30 5636 H 534.739 -5.52275 -2.33991 0
M  V30 5637 H 536.418 -6.09365 -2.17447 0
M  V30 5638 N 536.55 0.480323 -1.50102 0
M  V30 5639 C 537.827 1.24159 -1.51142 0
M  V30 5640 C 538.207 2.09605 -0.250818 0
M  V30 5641 O 537.555 2.15274 0.766118 0
M  V30 5642 C 537.765 2.08057 -2.80202 0
M  V30 5643 C 539.113 2.66556 -3.30504 0
M  V30 5644 O 540.137 2.18308 -2.81461 0
M  V30 5645 O 538.996 3.54442 -4.15973 0
M  V30 5646 H 536.09 0.562928 -0.605839 0
M  V30 5647 H 538.636 0.492899 -1.62384 0
M  V30 5648 H 537.408 1.45032 -3.6343 0
M  V30 5649 H 537.031 2.90079 -2.71919 0
M  V30 5650 N 538.028 1.39524 0.732853 0
M  V30 5651 C 538.975 1.38416 1.84688 0
M  V30 5652 C 539.945 0.243539 1.64305 0
M  V30 5653 O 541.13 0.438979 1.85681 0
M  V30 5654 C 538.27 1.23555 3.22224 0
M  V30 5655 C 537.383 2.47179 3.54298 0
M  V30 5656 C 536.518 2.2489 4.81246 0
M  V30 5657 C 535.557 3.44178 5.0617 0
M  V30 5658 N 534.694 3.21192 6.24323 0
M  V30 5659 H 539.534 2.33645 1.84971 0
M  V30 5660 H 537.071 1.16059 0.903804 0
M  V30 5661 H 539.029 1.12949 4.0162 0
M  V30 5662 H 537.659 0.31954 3.21215 0
M  V30 5663 H 536.711 2.68379 2.69587 0
M  V30 5664 H 538.023 3.36022 3.68633 0
M  V30 5665 H 537.177 2.11538 5.68627 0
M  V30 5666 H 535.916 1.33443 4.69089 0
M  V30 5667 H 534.921 3.58025 4.17251 0
M  V30 5668 H 536.146 4.36528 5.20212 0
M  V30 5669 H 534.092 2.32413 6.1345 0
M  V30 5670 H 534.009 4.03594 6.39256 0
M  V30 5671 H 535.277 3.1154 7.14537 0
M  V30 5672 N 539.506 -0.963266 1.24736 0
M  V30 5673 C 540.453 -2.05857 1.04363 0
M  V30 5674 C 541.423 -1.6604 -0.0444951 0
M  V30 5675 O 542.608 -1.90477 0.110999 0
M  V30 5676 C 539.748 -3.38745 0.659235 0
M  V30 5677 C 538.861 -3.9173 1.82131 0
M  V30 5678 C 537.996 -5.12906 1.38208 0
M  V30 5679 C 537.035 -5.58098 2.51382 0
M  V30 5680 N 536.172 -6.7049 2.08295 0
M  V30 5681 H 541.012 -2.22616 1.98107 0
M  V30 5682 H 538.549 -1.09103 0.986661 0
M  V30 5683 H 540.507 -4.15107 0.417371 0
M  V30 5684 H 539.137 -3.21898 -0.241201 0
M  V30 5685 H 538.189 -3.11966 2.17672 0
M  V30 5686 H 539.501 -4.21225 2.67153 0
M  V30 5687 H 538.655 -5.96657 1.09935 0
M  V30 5688 H 537.394 -4.85105 0.502456 0
M  V30 5689 H 536.399 -4.72917 2.80409 0
M  V30 5690 H 537.624 -5.87911 3.39909 0
M  V30 5691 H 535.57 -6.44416 1.22737 0
M  V30 5692 H 535.487 -6.99458 2.86869 0
M  V30 5693 H 536.755 -7.57672 1.83175 0
M  V30 5694 N 540.985 -1.06182 -1.16461 0
M  V30 5695 C 542.396 -0.802426 -1.68576 0
M  V30 5696 C 542.747 0.67412 -1.84255 0
M  V30 5697 O 541.872 1.52303 -1.5373 0
M  V30 5698 C 542.467 -1.45002 -3.06202 0
M  V30 5699 C 541.026 -1.23843 -3.55443 0
M  V30 5700 C 540.173 -1.52724 -2.31454 0
M  V30 5701 H 543.124 -1.22545 -1.00839 0
M  V30 5702 H 543.145 -0.864731 -3.70544 0
M  V30 5703 H 542.657 -2.52466 -2.94759 0
M  V30 5704 H 540.758 -0.183487 -3.72148 0
M  V30 5705 H 540.871 -1.95036 -4.37604 0
M  V30 5706 H 539.235 -0.947726 -2.36411 0
M  V30 5707 H 540.018 -2.61343 -2.22609 0
M  V30 5708 N 542.463 1.3308 -0.844243 0
M  V30 5709 C 543.688 2.02341 -0.455282 0
M  V30 5710 C 544.113 1.6308 0.93737 0
M  V30 5711 O 543.471 0.826118 1.61385 0
M  V30 5712 C 543.519 3.55743 -0.58988 0
M  V30 5713 O 542.623 4.1063 0.38166 0
M  V30 5714 H 541.964 0.637898 -0.184343 0
M  V30 5715 H 544.494 1.6986 -1.14056 0
M  V30 5716 H 544.504 4.05243 -0.473522 0
M  V30 5717 H 543.179 3.83662 -1.60549 0
M  V30 5718 H 541.756 3.72236 0.22241 0
M  V30 5719 N 543.941 0.601185 1.45683 0
M  V30 5720 C 545.19 0.0914953 2.01492 0
M  V30 5721 C 545.503 -1.28331 1.47616 0
M  V30 5722 O 546.709 -1.88537 1.95362 0
M  V30 5723 C 545.165 0.11291 3.59723 0
M  V30 5724 C 544.773 1.48717 4.22596 0
M  V30 5725 C 546.517 -0.341871 4.23121 0
M  V30 5726 C 544.424 1.46531 5.7296 0
M  V30 5727 H 543.354 0.0304365 0.753385 0
M  V30 5728 H 546.005 0.755568 1.67223 0
M  V30 5729 H 544.387 -0.617692 3.91153 0
M  V30 5730 H 545.561 2.23897 4.02749 0
M  V30 5731 H 543.876 1.88351 3.71366 0
M  V30 5732 H 546.473 -0.377304 5.33367 0
M  V30 5733 H 546.816 -1.36325 3.93346 0
M  V30 5734 H 547.349 0.335256 3.96385 0
M  V30 5735 H 544.088 2.46408 6.07423 0
M  V30 5736 H 543.608 0.755997 5.95017 0
M  V30 5737 H 545.287 1.18618 6.36034 0
M  V30 5738 N 545.419 -1.53889 0.339982 0
M  V30 5739 C 546.696 -1.93084 -0.312719 0
M  V30 5740 C 547.076 -1.2712 -1.68534 0
M  V30 5741 O 546.424 -0.420835 -2.24591 0
M  V30 5742 C 546.634 -3.4683 -0.388558 0
M  V30 5743 C 547.982 -4.19732 -0.641088 0
M  V30 5744 O 549.006 -3.53075 -0.470818 0
M  V30 5745 O 547.865 -5.3781 -0.970685 0
M  V30 5746 H 544.959 -0.806784 -0.18174 0
M  V30 5747 H 547.505 -1.65137 0.390898 0
M  V30 5748 H 546.277 -3.87055 0.574821 0
M  V30 5749 H 545.9 -3.80933 -1.1391 0
M  V30 5750 N 546.897 -0.0685191 -1.57451 0
M  V30 5751 C 547.845 0.917577 -2.13736 0
M  V30 5752 C 548.839 1.31049 -1.07344 0
M  V30 5753 O 550.045 1.28811 -1.25728 0
M  V30 5754 H 546.42 0.313835 -0.683382 0
M  V30 5755 H 548.391 0.417903 -2.95459 0
M  V30 5756 C 547.14 2.17686 -2.71123 0
M  V30 5757 H 546.463 1.88336 -3.52661 0
M  V30 5758 H 547.903 2.84803 -3.14107 0
M  V30 5759 C 546.362 2.9332 -1.65726 0
M  V30 5760 O 546.892 3.86901 -1.08031 0
M  V30 5761 N 545.098 2.56367 -1.36837 0
M  V30 5762 H 544.645 1.80341 -1.83943 0
M  V30 5763 H 544.603 3.07276 -0.665501 0
M  V30 5764 N 548.375 1.56261 0.205012 0
M  V30 5765 C 549.622 1.8004 0.926927 0
M  V30 5766 C 549.95 0.640086 1.83666 0
M  V30 5767 O 549.205 -0.374702 1.92079 0
M  V30 5768 C 549.504 3.09722 1.78345 0
M  V30 5769 C 549.17 4.39082 1.02555 0
M  V30 5770 C 547.832 4.74226 0.816256 0
M  V30 5771 C 550.184 5.18877 0.491559 0
M  V30 5772 C 547.512 5.86668 0.0613287 0
M  V30 5773 C 549.864 6.32105 -0.250107 0
M  V30 5774 C 548.528 6.6584 -0.470508 0
M  V30 5775 H 547.798 0.658812 0.339187 0
M  V30 5776 H 550.445 1.90515 0.19395 0
M  V30 5777 H 548.75 2.9444 2.5848 0
M  V30 5778 H 550.447 3.25324 2.34446 0
M  V30 5779 H 547.037 4.11497 1.19868 0
M  V30 5780 H 551.221 4.92147 0.640684 0
M  V30 5781 H 546.477 6.11283 -0.119501 0
M  V30 5782 H 550.651 6.93157 -0.671307 0
M  V30 5783 H 548.278 7.5281 -1.05739 0
M  V30 5784 N 549.853 -0.472356 1.50355 0
M  V30 5785 C 551.078 -1.25251 1.65309 0
M  V30 5786 C 551.503 -1.85081 0.335643 0
M  V30 5787 O 550.861 -1.67227 -0.700335 0
M  V30 5788 C 550.909 -2.3379 2.74544 0
M  V30 5789 O 550.013 -3.38401 2.35709 0
M  V30 5790 H 549.354 -0.368539 0.552336 0
M  V30 5791 H 551.884 -0.562271 1.96722 0
M  V30 5792 H 551.894 -2.79121 2.97583 0
M  V30 5793 H 550.569 -1.89614 3.70161 0
M  V30 5794 H 549.146 -2.9879 2.23112 0
M  V30 5795 N 551.331 -1.39911 -0.725443 0
M  V30 5796 C 552.559 -1.40949 -1.51463 0
M  V30 5797 C 552.974 -0.0065242 -1.88799 0
M  V30 5798 O 552.331 0.967163 -1.54765 0
M  V30 5799 C 552.382 -2.29119 -2.79619 0
M  V30 5800 O 552.103 -3.63952 -2.43866 0
M  V30 5801 C 553.604 -2.38642 -3.73584 0
M  V30 5802 H 550.824 -0.481091 -0.467752 0
M  V30 5803 H 553.368 -1.83843 -0.895651 0
M  V30 5804 H 551.523 -1.89612 -3.37826 0
M  V30 5805 H 551.937 -4.10677 -3.26258 0
M  V30 5806 H 553.411 -3.04563 -4.60375 0
M  V30 5807 H 553.888 -1.40846 -4.16004 0
M  V30 5808 H 554.494 -2.78659 -3.21293 0
M  V30 5809 N 552.809 0.956637 -1.25245 0
M  V30 5810 C 553.772 2.03457 -1.05537 0
M  V30 5811 C 554.772 1.60798 -0.00886317 0
M  V30 5812 O 555.962 1.72384 -0.250865 0
M  V30 5813 C 553.094 3.35543 -0.601965 0
M  V30 5814 H 554.287 2.22372 -2.01223 0
M  V30 5815 H 551.84 1.13344 -1.07623 0
M  V30 5816 H 552.575 3.22323 0.357584 0
M  V30 5817 H 552.36 3.67854 -1.35743 0
M  V30 5818 H 553.85 4.14769 -0.485454 0
M  V30 5819 N 554.287 1.06798 1.15896 0
M  V30 5820 C 555.535 0.786211 1.8618 0
M  V30 5821 C 555.856 -0.689547 1.82401 0
M  V30 5822 O 555.126 -1.49913 1.26107 0
M  V30 5823 H 553.706 0.287843 0.689315 0
M  V30 5824 H 556.368 1.35055 1.40521 0
M  V30 5825 H 555.464 1.1157 2.91477 0
M  V30 5826 N 555.766 -1.3263 0.851289 0
M  V30 5827 C 556.996 -2.01271 0.466222 0
M  V30 5828 C 557.404 -1.64156 -0.940714 0
M  V30 5829 O 556.747 -0.857109 -1.62479 0
M  V30 5830 C 556.809 -3.55695 0.521672 0
M  V30 5831 C 556.473 -4.16227 1.88691 0
M  V30 5832 C 557.47 -4.34699 2.85189 0
M  V30 5833 C 555.155 -4.52377 2.18313 0
M  V30 5834 C 557.149 -4.88484 4.09465 0
M  V30 5835 C 554.836 -5.05868 3.42843 0
M  V30 5836 C 555.834 -5.23869 4.38235 0
M  V30 5837 O 555.522 -5.76218 5.6056 0
M  V30 5838 H 555.254 -0.651034 0.18202 0
M  V30 5839 H 557.808 -1.7026 1.14894 0
M  V30 5840 H 556.038 -3.86086 -0.217888 0
M  V30 5841 H 557.727 -4.05613 0.152682 0
M  V30 5842 H 558.493 -4.07107 2.63607 0
M  V30 5843 H 554.372 -4.37652 1.44851 0
M  V30 5844 H 557.916 -5.02451 4.83931 0
M  V30 5845 H 553.813 -5.32891 3.64277 0
M  V30 5846 H 554.581 -5.94616 5.62471 0
M  V30 5847 N 557.244 -0.608902 -1.45362 0
M  V30 5848 C 558.191 0.109172 -2.30542 0
M  V30 5849 C 559.161 0.858704 -1.42181 0
M  V30 5850 O 560.346 0.844178 -1.71109 0
M  V30 5851 C 557.486 1.09971 -3.27109 0
M  V30 5852 C 556.599 0.350911 -4.30572 0
M  V30 5853 C 555.734 1.33129 -5.14247 0
M  V30 5854 C 554.773 0.570377 -6.09437 0
M  V30 5855 N 553.91 1.5001 -6.85887 0
M  V30 5856 H 558.75 -0.623195 -2.91411 0
M  V30 5857 H 556.287 -0.319122 -1.43597 0
M  V30 5858 H 558.245 1.68714 -3.81564 0
M  V30 5859 H 556.875 1.79947 -2.67991 0
M  V30 5860 H 555.927 -0.352054 -3.78767 0
M  V30 5861 H 557.239 -0.242725 -4.98209 0
M  V30 5862 H 556.393 1.99074 -5.73109 0
M  V30 5863 H 555.132 1.95885 -4.46632 0
M  V30 5864 H 554.137 -0.102702 -5.49704 0
M  V30 5865 H 555.362 -0.0521607 -6.7908 0
M  V30 5866 H 553.308 2.11529 -6.2096 0
M  V30 5867 H 553.225 0.959934 -7.49881 0
M  V30 5868 H 554.493 2.14909 -7.49289 0
M  V30 5869 N 558.722 1.53707 -0.348139 0
M  V30 5870 C 560.133 1.86213 0.134797 0
M  V30 5871 C 560.484 1.26925 1.49614 0
M  V30 5872 O 559.609 0.584573 2.08355 0
M  V30 5873 C 560.204 3.37866 0.251371 0
M  V30 5874 C 558.763 3.70233 0.678543 0
M  V30 5875 C 557.91 2.76683 -0.184925 0
M  V30 5876 H 560.861 1.48204 -0.567571 0
M  V30 5877 H 560.882 3.64908 1.07806 0
M  V30 5878 H 560.394 3.80988 -0.739581 0
M  V30 5879 H 558.495 3.32659 1.67835 0
M  V30 5880 H 558.608 4.76836 0.465251 0
M  V30 5881 H 556.972 2.52374 0.343465 0
M  V30 5882 H 557.755 3.22635 -1.1731 0
M  V30 5883 N 560.2 0.0768682 1.57412 0
M  V30 5884 C 561.11 -0.903207 2.16516 0
M  V30 5885 C 562.126 -1.32341 1.12968 0
M  V30 5886 O 563.302 -1.39507 1.45258 0
M  V30 5887 C 560.367 -2.1508 2.71922 0
M  V30 5888 C 559.428 -1.78653 3.90361 0
M  V30 5889 C 558.661 -2.97465 4.43114 0
M  V30 5890 O 558.884 -4.11638 3.94854 0
M  V30 5891 O 557.818 -2.76987 5.3438 0
M  V30 5892 H 561.644 -0.430427 3.00634 0
M  V30 5893 H 559.229 -0.146485 1.4868 0
M  V30 5894 H 561.111 -2.8823 3.07411 0
M  V30 5895 H 559.786 -2.61446 1.9086 0
M  V30 5896 H 558.693 -1.0274 3.59716 0
M  V30 5897 H 560.026 -1.37066 4.7273 0
M  V30 5898 N 561.678 -1.56367 -0.196722 0
M  V30 5899 C 562.903 -1.84991 -0.937714 0
M  V30 5900 C 563.328 -0.660244 -1.76132 0
M  V30 5901 O 562.686 0.390967 -1.77034 0
M  V30 5902 C 562.734 -3.11828 -1.81096 0
M  V30 5903 O 561.838 -2.92266 -2.90955 0
M  V30 5904 H 561.179 -0.609193 -0.264159 0
M  V30 5905 H 563.709 -2.03595 -0.202529 0
M  V30 5906 H 563.719 -3.42579 -2.21594 0
M  V30 5907 H 562.394 -3.98037 -1.2058 0
M  V30 5908 H 560.971 -2.72809 -2.54224 0
M  V30 5909 N 563.156 0.464375 -1.50603 0
M  V30 5910 C 564.405 1.21277 -1.61167 0
M  V30 5911 C 564.718 1.92953 -0.320704 0
M  V30 5912 O 565.924 2.69778 -0.30534 0
M  V30 5913 C 564.38 2.20403 -2.84518 0
M  V30 5914 C 563.988 1.54499 -4.20516 0
M  V30 5915 C 565.732 2.95843 -3.0443 0
M  V30 5916 C 563.639 2.51951 -5.35047 0
M  V30 5917 H 562.569 0.456367 -0.600204 0
M  V30 5918 H 565.22 0.48254 -1.77042 0
M  V30 5919 H 563.602 2.96746 -2.62217 0
M  V30 5920 H 564.776 0.83899 -4.53098 0
M  V30 5921 H 563.091 0.913152 -4.06264 0
M  V30 5922 H 565.688 3.6879 -3.87167 0
M  V30 5923 H 566.031 3.55622 -2.16423 0
M  V30 5924 H 566.564 2.26611 -3.26944 0
M  V30 5925 H 563.303 1.96901 -6.25228 0
M  V30 5926 H 562.823 3.20683 -5.06875 0
M  V30 5927 H 564.502 3.13643 -5.65895 0
M  V30 5928 N 564.634 1.40294 0.718013 0
M  V30 5929 C 565.544 1.42678 1.86226 0
M  V30 5930 C 566.56 0.319655 1.71039 0
M  V30 5931 O 567.736 0.563852 1.93346 0
M  V30 5932 C 564.801 1.2852 3.21999 0
M  V30 5933 C 563.862 2.49354 3.49458 0
M  V30 5934 C 563.095 2.35863 4.78753 0
M  V30 5935 O 563.318 1.37114 5.53675 0
M  V30 5936 O 562.252 3.25189 5.06494 0
M  V30 5937 H 566.078 2.39167 1.87171 0
M  V30 5938 H 563.663 1.2159 0.868112 0
M  V30 5939 H 565.545 1.22824 4.03103 0
M  V30 5940 H 564.22 0.351359 3.21787 0
M  V30 5941 H 563.127 2.60628 2.68373 0
M  V30 5942 H 564.46 3.41491 3.54464 0
M  V30 5943 N 566.112 -0.949982 1.2575 0
M  V30 5944 C 567.36 -1.6918 1.10555 0
M  V30 5945 C 567.681 -1.91773 -0.353298 0
M  V30 5946 O 566.951 -1.50814 -1.25027 0
M  V30 5947 H 565.531 -0.626952 0.406129 0
M  V30 5948 H 568.193 -1.1419 1.57945 0
M  V30 5949 H 567.289 -2.66915 1.61749 0
M  V30 5950 N 567.59 -1.07411 -1.15328 0
M  V30 5951 C 568.818 -0.818782 -1.90009 0
M  V30 5952 C 569.233 0.628072 -1.78047 0
M  V30 5953 O 568.59 1.43085 -1.13282 0
M  V30 5954 C 568.641 -1.21874 -3.40337 0
M  V30 5955 O 568.362 -2.60883 -3.51954 0
M  V30 5956 C 569.863 -0.992796 -4.3204 0
M  V30 5957 H 567.083 -0.296007 -0.60218 0
M  V30 5958 H 569.627 -1.43073 -1.46117 0
M  V30 5959 H 567.782 -0.651103 -3.81889 0
M  V30 5960 H 568.196 -2.77216 -4.45255 0
M  V30 5961 H 569.67 -1.32215 -5.35932 0
M  V30 5962 H 570.147 0.0708331 -4.39143 0
M  V30 5963 H 570.753 -1.54537 -3.9623 0
M  V30 5964 N 569.068 1.32177 -0.85831 0
M  V30 5965 C 570.314 1.97417 -0.46417 0
M  V30 5966 C 570.647 1.67746 0.978514 0
M  V30 5967 O 569.922 0.967654 1.68721 0
M  V30 5968 C 570.205 3.53069 -0.708094 0
M  V30 5969 C 570.058 3.92357 -2.19946 0
M  V30 5970 C 571.377 4.39783 -0.166881 0
M  V30 5971 H 568.496 0.717097 -0.17012 0
M  V30 5972 H 571.138 1.56499 -1.07741 0
M  V30 5973 H 569.288 3.88054 -0.186128 0
M  V30 5974 H 570.96 3.67533 -2.78779 0
M  V30 5975 H 569.203 3.41384 -2.67656 0
M  V30 5976 H 569.874 5.00841 -2.32082 0
M  V30 5977 H 572.35 4.11556 -0.613285 0
M  V30 5978 H 571.226 5.47671 -0.367093 0
M  V30 5979 H 571.487 4.32196 0.930559 0
M  V30 5980 N 570.547 0.616602 1.45037 0
M  V30 5981 C 571.457 -0.0985401 2.34393 0
M  V30 5982 C 572.473 -0.850971 1.51771 0
M  V30 5983 O 573.649 -0.806521 1.84546 0
M  V30 5984 C 570.714 -1.07748 3.29532 0
M  V30 5985 C 569.775 -0.326022 4.2806 0
M  V30 5986 C 569.008 -1.25833 5.18654 0
M  V30 5987 O 569.231 -2.49652 5.12864 0
M  V30 5988 O 568.165 -0.750512 5.97203 0
M  V30 5989 H 571.991 0.636016 2.96966 0
M  V30 5990 H 569.576 0.376832 1.44569 0
M  V30 5991 H 571.458 -1.64107 3.88133 0
M  V30 5992 H 570.133 -1.79291 2.69512 0
M  V30 5993 H 569.04 0.280253 3.73049 0
M  V30 5994 H 570.373 0.349091 4.9096 0
M  V30 5995 N 572.025 -1.5352 0.356285 0
M  V30 5996 C 573.272 -2.01117 -0.236303 0
M  V30 5997 C 573.6 -1.24381 -1.49531 0
M  V30 5998 O 572.855 -0.323057 -1.93015 0
M  V30 5999 C 573.154 -3.52607 -0.583369 0
M  V30 6000 C 572.82 -4.47151 0.58023 0
M  V30 6001 C 571.482 -4.72718 0.899528 0
M  V30 6002 C 573.834 -5.03137 1.36024 0
M  V30 6003 C 571.162 -5.51523 2.00098 0
M  V30 6004 C 573.514 -5.83145 2.45204 0
M  V30 6005 C 572.178 -6.07001 2.77679 0
M  V30 6006 H 571.448 -0.735938 -0.0864695 0
M  V30 6007 H 574.095 -1.85209 0.48683 0
M  V30 6008 H 572.4 -3.66413 -1.38739 0
M  V30 6009 H 574.097 -3.86901 -1.05397 0
M  V30 6010 H 570.687 -4.27394 0.321322 0
M  V30 6011 H 574.871 -4.83339 1.12682 0
M  V30 6012 H 570.127 -5.68229 2.25668 0
M  V30 6013 H 574.301 -6.25537 3.06067 0
M  V30 6014 H 571.928 -6.67851 3.63151 0
M  V30 6015 N 573.503 -0.0852151 -1.57369 0
M  V30 6016 C 574.45 0.877268 -2.13478 0
M  V30 6017 C 575.42 1.28642 -1.05073 0
M  V30 6018 O 576.605 1.36992 -1.32808 0
M  V30 6019 C 573.745 2.13464 -2.71159 0
M  V30 6020 C 572.858 1.77691 -3.93764 0
M  V30 6021 C 571.993 2.98139 -4.39643 0
M  V30 6022 C 571.032 2.58447 -5.54862 0
M  V30 6023 N 570.169 3.71698 -5.95639 0
M  V30 6024 H 575.009 0.391933 -2.95411 0
M  V30 6025 H 572.546 0.181796 -1.45972 0
M  V30 6026 H 574.504 2.87086 -3.02717 0
M  V30 6027 H 573.134 2.59514 -1.91969 0
M  V30 6028 H 572.186 0.940768 -3.68583 0
M  V30 6029 H 573.498 1.44497 -4.77412 0
M  V30 6030 H 572.652 3.80026 -4.72933 0
M  V30 6031 H 571.391 3.34536 -3.54876 0
M  V30 6032 H 570.396 1.74984 -5.21211 0
M  V30 6033 H 571.621 2.23205 -6.41371 0
M  V30 6034 H 569.567 4.07831 -5.13819 0
M  V30 6035 H 569.484 3.42317 -6.74059 0
M  V30 6036 H 570.752 4.54123 -6.33555 0
M  V30 6037 N 574.981 1.5647 0.188427 0
M  V30 6038 C 575.929 1.95971 1.25293 0
M  V30 6039 C 576.923 0.846047 1.4676 0
M  V30 6040 O 578.129 1.03109 1.47542 0
M  V30 6041 H 574.504 0.623253 0.420784 0
M  V30 6042 H 576.475 2.84731 0.892792 0
M  V30 6043 C 575.224 2.32116 2.58877 0
M  V30 6044 H 574.547 3.17341 2.43176 0
M  V30 6045 H 575.987 2.63613 3.3209 0
M  V30 6046 C 574.446 1.15823 3.16365 0
M  V30 6047 O 574.976 0.436785 3.99318 0
M  V30 6048 N 573.182 0.933278 2.75206 0
M  V30 6049 H 572.729 1.52169 2.07852 0
M  V30 6050 H 572.687 0.156976 3.14008 0
M  V30 6051 N 576.459 -0.456382 1.50847 0
M  V30 6052 C 577.705 -1.20914 1.62811 0
M  V30 6053 C 578.038 -1.91301 0.334304 0
M  V30 6054 O 577.313 -1.82775 -0.665098 0
M  V30 6055 C 577.596 -2.24122 2.81853 0
M  V30 6056 C 577.449 -1.57944 4.21158 0
M  V30 6057 C 578.768 -3.25295 2.96431 0
M  V30 6058 H 575.887 -0.438233 0.592554 0
M  V30 6059 H 578.529 -0.50091 1.83278 0
M  V30 6060 H 576.679 -2.84524 2.64534 0
M  V30 6061 H 578.351 -1.01025 4.50102 0
M  V30 6062 H 576.594 -0.882185 4.24735 0
M  V30 6063 H 577.265 -2.33014 5.00408 0
M  V30 6064 H 579.741 -2.7493 3.12335 0
M  V30 6065 H 578.617 -3.94822 3.81322 0
M  V30 6066 H 578.878 -3.90286 2.07676 0
M  V30 6067 N 577.937 -1.40673 -0.710563 0
M  V30 6068 C 579.162 -1.42741 -1.50465 0
M  V30 6069 C 579.587 -0.0302116 -1.88076 0
M  V30 6070 O 578.945 0.962945 -1.53613 0
M  V30 6071 C 578.993 -2.32873 -2.75322 0
M  V30 6072 O 578.097 -1.77544 -3.72226 0
M  V30 6073 H 577.438 -0.485056 -0.45345 0
M  V30 6074 H 579.968 -1.84961 -0.874681 0
M  V30 6075 H 579.978 -2.48233 -3.23797 0
M  V30 6076 H 578.653 -3.34401 -2.47283 0
M  V30 6077 H 577.23 -1.71556 -3.31093 0
M  V30 6078 N 579.415 0.9433 -1.26252 0
M  V30 6079 C 580.662 1.68925 -1.11672 0
M  V30 6080 C 580.99 1.91499 0.340329 0
M  V30 6081 O 580.245 1.49189 1.26653 0
M  V30 6082 C 580.544 3.07073 -1.82868 0
M  V30 6083 C 580.21 3.04262 -3.32769 0
M  V30 6084 C 578.872 3.03203 -3.7366 0
M  V30 6085 C 581.224 2.96729 -4.28487 0
M  V30 6086 C 578.552 2.92373 -5.0866 0
M  V30 6087 C 580.904 2.87442 -5.63525 0
M  V30 6088 C 579.568 2.84724 -6.03729 0
M  V30 6089 H 578.838 0.618141 -0.408635 0
M  V30 6090 H 581.485 1.10124 -1.56668 0
M  V30 6091 H 579.79 3.69486 -1.30335 0
M  V30 6092 H 581.487 3.63635 -1.69029 0
M  V30 6093 H 578.077 3.05865 -3.00241 0
M  V30 6094 H 582.261 2.96658 -3.97879 0
M  V30 6095 H 577.517 2.88645 -5.38975 0
M  V30 6096 H 581.691 2.80576 -6.37377 0
M  V30 6097 H 579.318 2.76089 -7.08293 0
M  V30 6098 N 580.893 1.08022 1.14757 0
M  V30 6099 C 581.841 0.701088 2.21783 0
M  V30 6100 C 582.835 -0.291311 1.66876 0
M  V30 6101 O 584.041 -0.154296 1.79337 0
M  V30 6102 H 580.416 0.208668 0.722469 0
M  V30 6103 H 582.387 1.61321 2.51034 0
M  V30 6104 C 581.136 0.122278 3.47485 0
M  V30 6105 H 580.459 0.877065 3.90061 0
M  V30 6106 H 581.899 -0.105248 4.23869 0
M  V30 6107 C 580.358 -1.13883 3.17068 0
M  V30 6108 O 580.888 -2.22429 3.34497 0
M  V30 6109 N 579.094 -1.04767 2.71058 0
M  V30 6110 H 578.641 -0.164302 2.57075 0
M  V30 6111 H 578.599 -1.89224 2.51081 0
M  V30 6112 N 582.371 -1.3172 0.865308 0
M  V30 6113 C 583.601 -2.00765 0.487543 0
M  V30 6114 C 584.009 -1.65145 -0.92325 0
M  V30 6115 O 583.352 -0.874294 -1.61561 0
M  V30 6116 C 583.414 -3.55122 0.559369 0
M  V30 6117 C 583.078 -4.14202 1.93095 0
M  V30 6118 C 584.075 -4.3165 2.89784 0
M  V30 6119 C 581.76 -4.50036 2.23099 0
M  V30 6120 C 583.754 -4.84114 4.14623 0
M  V30 6121 C 581.441 -5.02203 3.48189 0
M  V30 6122 C 582.439 -5.19192 4.43767 0
M  V30 6123 O 582.127 -5.70241 5.6664 0
M  V30 6124 H 581.859 -0.649066 0.188915 0
M  V30 6125 H 584.413 -1.69032 1.16694 0
M  V30 6126 H 582.643 -3.86295 -0.176926 0
M  V30 6127 H 584.332 -4.05428 0.195694 0
M  V30 6128 H 585.098 -4.04288 2.6791 0
M  V30 6129 H 580.977 -4.36091 1.49485 0
M  V30 6130 H 584.521 -4.9729 4.89233 0
M  V30 6131 H 580.418 -5.28997 3.69908 0
M  V30 6132 H 581.186 -5.88617 5.68746 0
M  V30 6133 N 583.85 -0.624285 -1.44708 0
M  V30 6134 C 585.26 -0.2092 -1.85524 0
M  V30 6135 C 585.611 1.23783 -1.52225 0
M  V30 6136 O 584.736 1.94089 -0.956986 0
M  V30 6137 C 585.332 -0.372897 -3.36742 0
M  V30 6138 C 583.891 -0.012374 -3.76398 0
M  V30 6139 C 583.038 -0.68951 -2.68591 0
M  V30 6140 H 585.989 -0.829894 -1.35272 0
M  V30 6141 H 586.01 0.390134 -3.78495 0
M  V30 6142 H 585.522 -1.42615 -3.60947 0
M  V30 6143 H 583.623 1.03941 -3.57809 0
M  V30 6144 H 583.736 -0.417663 -4.77276 0
M  V30 6145 H 582.1 -0.125484 -2.54391 0
M  V30 6146 H 582.883 -1.74522 -2.9563 0
M  V30 6147 N 585.328 1.53329 -0.364422 0
M  V30 6148 C 586.553 2.06132 0.229033 0
M  V30 6149 C 586.978 1.23625 1.41769 0
M  V30 6150 O 586.336 0.255038 1.79497 0
M  V30 6151 C 586.384 3.55544 0.60174 0
M  V30 6152 O 585.488 3.75771 1.69912 0
M  V30 6153 H 584.829 0.663148 0.0336213 0
M  V30 6154 H 587.359 1.97758 -0.524689 0
M  V30 6155 H 587.369 3.98549 0.873073 0
M  V30 6156 H 586.044 4.15039 -0.267421 0
M  V30 6157 H 584.621 3.44663 1.42343 0
M  V30 6158 N 586.806 0.0935595 1.57322 0
M  V30 6159 C 588.222 -0.263091 1.57417 0
M  V30 6160 C 588.422 -1.68526 1.1046 0
M  V30 6161 O 587.478 -2.40139 0.780357 0
M  V30 6162 C 588.791 -0.0529201 3.00653 0
M  V30 6163 C 590.339 -0.120788 3.12767 0
M  V30 6164 C 590.814 0.0613707 4.57959 0
M  V30 6165 N 592.305 0.00648534 4.632 0
M  V30 6166 C 593.04 0.122699 5.73269 0
M  V30 6167 N 592.536 0.29366 6.92177 0
M  V30 6168 N 594.329 0.0640787 5.62063 0
M  V30 6169 H 586.48 1.02277 1.86154 0
M  V30 6170 H 588.743 0.4007 0.859153 0
M  V30 6171 H 588.449 0.929279 3.39201 0
M  V30 6172 H 588.323 -0.795899 3.68708 0
M  V30 6173 H 590.71 -1.09349 2.74093 0
M  V30 6174 H 590.791 0.653656 2.47307 0
M  V30 6175 H 590.435 1.03093 4.97327 0
M  V30 6176 H 590.365 -0.732748 5.21477 0
M  V30 6177 H 592.856 -0.123173 3.77699 0
M  V30 6178 H 593.169 0.37389 7.71895 0
M  V30 6179 H 591.514 0.329307 6.94219 0
M  V30 6180 H 594.705 -0.0683396 4.6805 0
M  V30 6181 H 594.878 0.158097 6.47807 0
M  V30 6182 N 588.284 -1.56567 -0.180126 0
M  V30 6183 C 589.695 -1.7126 -0.743422 0
M  V30 6184 C 590.046 -0.70263 -1.83187 0
M  V30 6185 O 589.171 0.137856 -2.1596 0
M  V30 6186 C 589.766 -3.10512 -1.35528 0
M  V30 6187 C 588.325 -3.26919 -1.8655 0
M  V30 6188 C 587.472 -2.67213 -0.741099 0
M  V30 6189 H 590.423 -1.58636 0.0451543 0
M  V30 6190 H 590.444 -3.08673 -2.22489 0
M  V30 6191 H 589.956 -3.83997 -0.562862 0
M  V30 6192 H 588.057 -2.58376 -2.68464 0
M  V30 6193 H 588.17 -4.34574 -2.01699 0
M  V30 6194 H 586.534 -2.26788 -1.15927 0
M  V30 6195 H 587.317 -3.43277 0.0393291 0
M  V30 6196 N 589.762 0.448376 -1.51087 0
M  V30 6197 C 590.987 1.22605 -1.6728 0
M  V30 6198 C 591.412 1.84524 -0.365045 0
M  V30 6199 O 590.77 1.6832 0.673642 0
M  V30 6200 C 590.818 2.29393 -2.78229 0
M  V30 6201 O 589.922 3.34608 -2.41063 0
M  V30 6202 H 589.263 0.359705 -0.558129 0
M  V30 6203 H 591.793 0.530903 -1.97592 0
M  V30 6204 H 591.803 2.74352 -3.01986 0
M  V30 6205 H 590.478 1.83701 -3.73131 0
M  V30 6206 H 589.055 2.95202 -2.27838 0
M  V30 6207 N 591.24 1.41047 0.703093 0
M  V30 6208 C 592.489 1.39301 1.4587 0
M  V30 6209 C 592.802 0.00267077 1.956 0
M  V30 6210 O 594.008 -0.137414 2.71152 0
M  V30 6211 C 592.464 2.44891 2.63735 0
M  V30 6212 C 592.072 3.89796 2.20824 0
M  V30 6213 C 593.816 2.5227 3.41409 0
M  V30 6214 C 591.723 4.86955 3.35602 0
M  V30 6215 H 590.653 0.518005 0.547893 0
M  V30 6216 H 593.304 1.66839 0.764009 0
M  V30 6217 H 591.686 2.10472 3.35436 0
M  V30 6218 H 592.86 4.33424 1.56461 0
M  V30 6219 H 591.175 3.86008 1.56163 0
M  V30 6220 H 593.772 3.22044 4.26839 0
M  V30 6221 H 594.115 1.55714 3.86081 0
M  V30 6222 H 594.648 2.85742 2.7676 0
M  V30 6223 H 591.387 5.84888 2.9595 0
M  V30 6224 H 590.907 4.47982 3.98839 0
M  V30 6225 H 592.586 5.07361 4.01489 0
M  V30 6226 N 592.718 -0.936591 1.26751 0
M  V30 6227 C 593.665 -2.03597 1.08706 0
M  V30 6228 C 594.635 -1.66097 -0.00926542 0
M  V30 6229 O 595.82 -1.90199 0.151377 0
M  V30 6230 C 592.96 -3.3727 0.73094 0
M  V30 6231 C 592.073 -3.87778 1.90399 0
M  V30 6232 C 591.208 -5.09859 1.49056 0
M  V30 6233 C 590.247 -5.5264 2.63164 0
M  V30 6234 N 589.384 -6.65921 2.22471 0
M  V30 6235 H 594.224 -2.18364 2.02784 0
M  V30 6236 H 591.761 -1.06985 1.00958 0
M  V30 6237 H 593.719 -4.14128 0.505328 0
M  V30 6238 H 592.349 -3.22337 -0.172868 0
M  V30 6239 H 591.401 -3.07279 2.2424 0
M  V30 6240 H 592.713 -4.15464 2.76028 0
M  V30 6241 H 591.867 -5.9419 1.22567 0
M  V30 6242 H 590.606 -4.8393 0.60524 0
M  V30 6243 H 589.611 -4.66863 2.90377 0
M  V30 6244 H 590.836 -5.80568 3.52303 0
M  V30 6245 H 588.782 -6.41667 1.36379 0
M  V30 6246 H 588.699 -6.93216 3.01641 0
M  V30 6247 H 589.967 -7.53616 1.99205 0
M  V30 6248 N 594.196 -1.08629 -1.14182 0
M  V30 6249 C 595.445 -0.812271 -1.84621 0
M  V30 6250 C 595.758 0.664313 -1.83973 0
M  V30 6251 O 596.964 1.05357 -2.50224 0
M  V30 6252 C 595.42 -1.4031 -3.31423 0
M  V30 6253 C 595.028 -2.91164 -3.40481 0
M  V30 6254 C 596.772 -1.20767 -4.06959 0
M  V30 6255 C 594.679 -3.43373 -4.81507 0
M  V30 6256 H 593.609 -0.30019 -0.691666 0
M  V30 6257 H 596.26 -1.30798 -1.28701 0
M  V30 6258 H 594.642 -0.835096 -3.87094 0
M  V30 6259 H 595.816 -3.5412 -2.94848 0
M  V30 6260 H 594.131 -3.09646 -2.78403 0
M  V30 6261 H 596.728 -1.57237 -5.11058 0
M  V30 6262 H 597.071 -0.147664 -4.16038 0
M  V30 6263 H 597.604 -1.74274 -3.57594 0
M  V30 6264 H 594.343 -4.48958 -4.77616 0
M  V30 6265 H 593.863 -2.85176 -5.27669 0
M  V30 6266 H 595.542 -3.40095 -5.50404 0
M  V30 6267 N 595.674 1.31259 -0.872281 0
M  V30 6268 C 596.604 2.30929 -0.345554 0
M  V30 6269 C 597.585 1.60449 0.5648 0
M  V30 6270 O 598.77 1.8814 0.481335 0
M  V30 6271 C 595.9 3.44348 0.451823 0
M  V30 6272 C 594.854 4.26435 -0.365641 0
M  V30 6273 C 594.18 5.31785 0.557562 0
M  V30 6274 C 595.48 4.97159 -1.60095 0
M  V30 6275 H 597.174 2.75234 -1.17841 0
M  V30 6276 H 594.72 1.3232 -0.568094 0
M  V30 6277 H 596.673 4.13128 0.830854 0
M  V30 6278 H 595.397 2.98816 1.31821 0
M  V30 6279 H 594.056 3.59326 -0.726649 0
M  V30 6280 H 593.704 4.82502 1.4213 0
M  V30 6281 H 593.404 5.87598 0.0144878 0
M  V30 6282 H 594.928 6.03424 0.933387 0
M  V30 6283 H 596.342 5.58523 -1.29323 0
M  V30 6284 H 594.739 5.62779 -2.08327 0
M  V30 6285 H 595.809 4.24012 -2.35249 0
M  V30 6286 N 597.152 0.631951 1.44375 0
M  V30 6287 C 598.099 -0.0724807 2.30686 0
M  V30 6288 C 599.069 -0.835975 1.43529 0
M  V30 6289 O 600.254 -0.816849 1.7243 0
M  V30 6290 C 597.394 -1.04753 3.28817 0
M  V30 6291 C 596.507 -0.282367 4.31076 0
M  V30 6292 C 595.642 -1.2493 5.163 0
M  V30 6293 C 594.681 -0.473349 6.10267 0
M  V30 6294 N 593.818 -1.39079 6.88187 0
M  V30 6295 H 598.658 0.669477 2.90383 0
M  V30 6296 H 596.195 0.341927 1.43071 0
M  V30 6297 H 598.153 -1.62623 3.842 0
M  V30 6298 H 596.783 -1.75661 2.70819 0
M  V30 6299 H 595.835 0.412268 3.78159 0
M  V30 6300 H 597.147 0.321955 4.9776 0
M  V30 6301 H 596.301 -1.89931 5.76204 0
M  V30 6302 H 595.04 -1.88755 4.49692 0
M  V30 6303 H 594.045 0.190142 5.49471 0
M  V30 6304 H 595.27 0.16019 6.78911 0
M  V30 6305 H 593.216 -2.01623 6.24247 0
M  V30 6306 H 593.133 -0.840513 7.51313 0
M  V30 6307 H 594.401 -2.02961 7.52613 0
M  V30 6308 N 598.631 -1.53133 0.372548 0
M  V30 6309 C 599.879 -2.00958 -0.214534 0
M  V30 6310 C 600.2 -1.26135 -1.48711 0
M  V30 6311 O 599.47 -0.376597 -1.92246 0
M  V30 6312 H 598.05 -0.742456 -0.0822664 0
M  V30 6313 H 600.712 -1.88367 0.500385 0
M  V30 6314 H 599.808 -3.09031 -0.436605 0
M  V30 6315 N 600.109 -0.101901 -1.5727 0
M  V30 6316 C 601.039 0.851544 -2.17419 0
M  V30 6317 C 602.02 1.28942 -1.10941 0
M  V30 6318 O 603.205 1.35509 -1.39107 0
M  V30 6319 C 600.335 2.10816 -2.75996 0
M  V30 6320 C 599.289 1.80867 -3.87906 0
M  V30 6321 C 598.615 3.13413 -4.33216 0
M  V30 6322 C 599.915 1.0903 -5.10793 0
M  V30 6323 H 601.609 0.350381 -2.97343 0
M  V30 6324 H 599.155 0.16709 -1.43027 0
M  V30 6325 H 601.108 2.77959 -3.16729 0
M  V30 6326 H 599.832 2.63227 -1.93337 0
M  V30 6327 H 598.491 1.16119 -3.47724 0
M  V30 6328 H 598.139 3.63725 -3.47438 0
M  V30 6329 H 597.839 2.94155 -5.08671 0
M  V30 6330 H 599.363 3.81704 -4.76586 0
M  V30 6331 H 600.777 1.66295 -5.48652 0
M  V30 6332 H 599.174 0.99927 -5.91722 0
M  V30 6333 H 600.244 0.0741704 -4.84843 0
M  V30 6334 N 601.587 1.56661 0.17182 0
M  V30 6335 C 602.535 1.97289 1.23207 0
M  V30 6336 C 603.529 0.861566 1.45854 0
M  V30 6337 O 604.735 1.04668 1.4644 0
M  V30 6338 H 601.11 0.627681 0.41415 0
M  V30 6339 H 603.081 2.85662 0.862542 0
M  V30 6340 C 601.83 2.34849 2.564 0
M  V30 6341 H 601.153 3.19903 2.39797 0
M  V30 6342 H 602.593 2.67121 3.29276 0
M  V30 6343 C 601.052 1.19172 3.15119 0
M  V30 6344 O 601.582 0.479113 3.98833 0
M  V30 6345 N 599.788 0.962415 2.74201 0
M  V30 6346 H 599.335 1.54365 2.06226 0
M  V30 6347 H 599.293 0.190272 3.13824 0
M  V30 6348 N 603.065 -0.440357 1.51323 0
M  V30 6349 C 603.995 -1.54174 1.75364 0
M  V30 6350 C 604.976 -1.59039 0.603375 0
M  V30 6351 O 606.161 -1.74815 0.845774 0
M  V30 6352 C 603.291 -2.92277 1.87593 0
M  V30 6353 C 602.245 -3.02274 3.03009 0
M  V30 6354 C 601.571 -4.42327 3.00418 0
M  V30 6355 C 602.871 -2.76634 4.43024 0
M  V30 6356 H 604.565 -1.34307 2.67585 0
M  V30 6357 H 602.111 -0.644678 1.28763 0
M  V30 6358 H 604.064 -3.69284 2.02995 0
M  V30 6359 H 602.788 -3.13369 0.920179 0
M  V30 6360 H 601.447 -2.27706 2.87307 0
M  V30 6361 H 601.095 -4.60382 2.02626 0
M  V30 6362 H 600.795 -4.49946 3.77918 0
M  V30 6363 H 602.319 -5.21312 3.17909 0
M  V30 6364 H 603.733 -3.43376 4.59093 0
M  V30 6365 H 602.13 -2.95666 5.22208 0
M  V30 6366 H 603.2 -1.72262 4.5327 0
M  V30 6367 N 604.543 -1.41418 -0.695603 0
M  V30 6368 C 605.959 -1.23887 -1.00619 0
M  V30 6369 C 606.159 -0.128206 -2.01092 0
M  V30 6370 O 605.215 0.507408 -2.47349 0
M  V30 6371 C 606.528 -2.58816 -1.53083 0
M  V30 6372 C 608.076 -2.65998 -1.64967 0
M  V30 6373 C 608.551 -4.01244 -2.20833 0
M  V30 6374 N 610.042 -4.0309 -2.28194 0
M  V30 6375 C 610.777 -5.04539 -2.72448 0
M  V30 6376 N 610.273 -6.16378 -3.16306 0
M  V30 6377 N 612.066 -4.91901 -2.72011 0
M  V30 6378 H 604.217 -2.12379 -0.0300061 0
M  V30 6379 H 606.48 -0.944958 -0.0758797 0
M  V30 6380 H 606.186 -3.40842 -0.867147 0
M  V30 6381 H 606.06 -2.81299 -2.51298 0
M  V30 6382 H 608.447 -1.84331 -2.30448 0
M  V30 6383 H 608.528 -2.47325 -0.652982 0
M  V30 6384 H 608.172 -4.83359 -1.55968 0
M  V30 6385 H 608.102 -4.17257 -3.21254 0
M  V30 6386 H 610.593 -3.22341 -1.97242 0
M  V30 6387 H 610.906 -6.89658 -3.487 0
M  V30 6388 H 609.251 -6.19914 -3.14215 0
M  V30 6389 H 612.442 -4.03613 -2.37095 0
M  V30 6390 H 612.615 -5.71102 -3.06181 0
M  V30 6391 N 606.021 0.929856 -1.27246 0
M  V30 6392 C 607.27 1.67182 -1.12842 0
M  V30 6393 C 607.583 1.9287 0.325666 0
M  V30 6394 O 608.789 2.64999 0.590572 0
M  V30 6395 C 607.245 3.01097 -1.97151 0
M  V30 6396 C 606.853 2.83115 -3.47203 0
M  V30 6397 C 608.597 3.78907 -1.91389 0
M  V30 6398 C 606.504 4.12573 -4.23719 0
M  V30 6399 H 605.434 0.627064 -0.418697 0
M  V30 6400 H 608.085 1.0332 -1.51649 0
M  V30 6401 H 606.467 3.66004 -1.51186 0
M  V30 6402 H 607.641 2.26989 -4.01015 0
M  V30 6403 H 605.956 2.18736 -3.54321 0
M  V30 6404 H 608.553 4.74837 -2.45834 0
M  V30 6405 H 608.896 4.0674 -0.887047 0
M  V30 6406 H 609.429 3.20794 -2.35237 0
M  V30 6407 H 606.168 3.8992 -5.26918 0
M  V30 6408 H 605.688 4.68371 -3.74685 0
M  V30 6409 H 607.367 4.8095 -4.32777 0
M  V30 6410 N 607.499 1.09233 1.13605 0
M  V30 6411 C 608.446 0.729921 2.18954 0
M  V30 6412 C 609.416 -0.287916 1.63586 0
M  V30 6413 O 610.601 -0.170003 1.90041 0
M  V30 6414 C 607.741 0.154489 3.44754 0
M  V30 6415 C 606.854 1.22613 4.14234 0
M  V30 6416 C 605.989 0.613657 5.27644 0
M  V30 6417 C 605.028 1.66674 5.8897 0
M  V30 6418 N 604.165 1.07545 6.93814 0
M  V30 6419 H 609.005 1.63257 2.49302 0
M  V30 6420 H 606.542 0.815693 1.22413 0
M  V30 6421 H 608.5 -0.196923 4.16735 0
M  V30 6422 H 607.13 -0.711433 3.14863 0
M  V30 6423 H 606.182 1.69485 3.40557 0
M  V30 6424 H 607.494 2.0238 4.55899 0
M  V30 6425 H 606.648 0.210976 6.06333 0
M  V30 6426 H 605.387 -0.215584 4.87223 0
M  V30 6427 H 604.392 2.07899 5.08978 0
M  V30 6428 H 605.617 2.49861 6.31464 0
M  V30 6429 H 603.563 0.267451 6.55455 0
M  V30 6430 H 603.48 1.81011 7.3401 0
M  V30 6431 H 604.748 0.698906 7.7636 0
M  V30 6432 N 608.977 -1.30795 0.87923 0
M  V30 6433 C 610.202 -2.01063 0.508769 0
M  V30 6434 C 610.627 -1.65508 -0.893803 0
M  V30 6435 O 609.985 -0.868616 -1.59138 0
M  V30 6436 C 610.033 -3.54054 0.683991 0
M  V30 6437 O 609.137 -4.11498 -0.272654 0
M  V30 6438 H 608.478 -0.632786 0.201191 0
M  V30 6439 H 611.008 -1.66776 1.18519 0
M  V30 6440 H 611.018 -4.03845 0.580798 0
M  V30 6441 H 609.693 -3.79271 1.70665 0
M  V30 6442 H 608.27 -3.72695 -0.12364 0
M  V30 6443 N 610.455 -0.639598 -1.44038 0
M  V30 6444 C 611.703 -0.147188 -2.01563 0
M  V30 6445 C 612.024 1.2384 -1.50628 0
M  V30 6446 O 611.294 1.82452 -0.713316 0
M  V30 6447 H 609.874 -0.0514231 -0.745228 0
M  V30 6448 H 612.536 -0.828205 -1.76428 0
M  V30 6449 H 611.632 -0.121358 -3.11864 0
M  V30 6450 N 611.933 1.52934 -0.380664 0
M  V30 6451 C 612.843 2.29921 0.466192 0
M  V30 6452 C 613.859 1.36488 1.07922 0
M  V30 6453 O 615.035 1.69553 1.0869 0
M  V30 6454 C 612.1 3.08468 1.58266 0
M  V30 6455 C 611.161 4.17595 0.995627 0
M  V30 6456 C 610.394 4.92387 2.05889 0
M  V30 6457 O 610.617 4.67184 3.27254 0
M  V30 6458 O 609.551 5.77949 1.68102 0
M  V30 6459 H 613.377 3.03274 -0.160735 0
M  V30 6460 H 610.962 1.48698 -0.144617 0
M  V30 6461 H 612.844 3.57469 2.23145 0
M  V30 6462 H 611.519 2.37937 2.19471 0
M  V30 6463 H 610.426 3.72811 0.310332 0
M  V30 6464 H 611.759 4.90336 0.427918 0
M  V30 6465 N 613.412 0.11024 1.57214 0
M  V30 6466 C 614.64 -0.557834 1.99238 0
M  V30 6467 C 615.055 -1.60778 0.989734 0
M  V30 6468 O 614.412 -1.82491 -0.0186092 0
M  V30 6469 C 614.463 -1.19189 3.41286 0
M  V30 6470 O 614.184 -0.183919 4.37714 0
M  V30 6471 C 615.685 -1.94413 3.98395 0
M  V30 6472 H 612.905 -0.148392 0.654386 0
M  V30 6473 H 615.449 0.193996 2.03578 0
M  V30 6474 H 613.604 -1.89456 3.37913 0
M  V30 6475 H 614.018 -0.643475 5.20538 0
M  V30 6476 H 615.492 -2.34116 4.99894 0
M  V30 6477 H 615.969 -2.81592 3.3705 0
M  V30 6478 H 616.575 -1.28928 4.05287 0
M  V30 6479 N 614.89 -1.56749 -0.16351 0
M  V30 6480 C 616.136 -1.82704 -0.880168 0
M  V30 6481 C 616.469 -0.689311 -1.81555 0
M  V30 6482 O 615.744 0.308224 -1.92042 0
M  V30 6483 C 616.027 -3.19084 -1.66905 0
M  V30 6484 C 615.88 -4.43397 -0.756269 0
M  V30 6485 C 617.199 -3.52493 -2.63509 0
M  V30 6486 H 614.318 -0.664608 -0.318535 0
M  V30 6487 H 616.96 -1.89438 -0.146036 0
M  V30 6488 H 615.11 -3.13475 -2.2949 0
M  V30 6489 H 616.782 -4.61079 -0.14269 0
M  V30 6490 H 615.025 -4.33752 -0.0647944 0
M  V30 6491 H 615.696 -5.3539 -1.34393 0
M  V30 6492 H 618.172 -3.58606 -2.11047 0
M  V30 6493 H 617.048 -4.48979 -3.15767 0
M  V30 6494 H 617.309 -2.77597 -3.44082 0
M  V30 6495 N 616.368 0.432326 -1.51554 0
M  V30 6496 C 617.331 1.50765 -1.72634 0
M  V30 6497 C 618.331 1.49334 -0.596314 0
M  V30 6498 O 619.521 1.51268 -0.863925 0
M  V30 6499 C 616.653 2.90284 -1.7874 0
M  V30 6500 H 617.846 1.33377 -2.68609 0
M  V30 6501 H 615.399 0.661329 -1.4162 0
M  V30 6502 H 616.134 3.13071 -0.845977 0
M  V30 6503 H 615.919 2.92727 -2.6087 0
M  V30 6504 H 617.409 3.68282 -1.96871 0
M  V30 6505 N 617.846 1.41785 0.688094 0
M  V30 6506 C 618.776 1.47 1.8142 0
M  V30 6507 C 619.757 0.327881 1.6691 0
M  V30 6508 O 620.942 0.540362 1.86531 0
M  V30 6509 C 618.072 1.35876 3.19617 0
M  V30 6510 C 617.026 2.47976 3.48844 0
M  V30 6511 C 616.352 2.21915 4.86475 0
M  V30 6512 C 617.652 3.90309 3.47068 0
M  V30 6513 H 619.346 2.41247 1.77314 0
M  V30 6514 H 616.892 1.16116 0.851651 0
M  V30 6515 H 618.845 1.38134 3.98117 0
M  V30 6516 H 617.569 0.38116 3.24368 0
M  V30 6517 H 616.228 2.45013 2.72698 0
M  V30 6518 H 615.876 1.2248 4.8786 0
M  V30 6519 H 615.576 2.97037 5.06994 0
M  V30 6520 H 617.1 2.25901 5.67275 0
M  V30 6521 H 618.514 3.94947 4.1556 0
M  V30 6522 H 616.911 4.65175 3.7912 0
M  V30 6523 H 617.981 4.17927 2.45896 0
M  V30 6524 N 619.324 -0.923095 1.27737 0
M  V30 6525 C 620.57 -1.67375 1.14514 0
M  V30 6526 C 620.903 -1.91751 -0.307424 0
M  V30 6527 O 620.178 -1.51119 -1.22447 0
M  V30 6528 C 620.461 -3.03745 1.9342 0
M  V30 6529 C 620.314 -2.86581 3.46686 0
M  V30 6530 C 621.633 -4.04144 1.74228 0
M  V30 6531 H 618.752 -0.607427 0.417374 0
M  V30 6532 H 621.394 -1.07089 1.56946 0
M  V30 6533 H 619.544 -3.55204 1.5736 0
M  V30 6534 H 621.216 -2.42203 3.92601 0
M  V30 6535 H 619.459 -2.21829 3.72793 0
M  V30 6536 H 620.13 -3.83381 3.97143 0
M  V30 6537 H 622.606 -3.61712 2.05678 0
M  V30 6538 H 621.482 -4.97543 2.31824 0
M  V30 6539 H 621.743 -4.36661 0.691373 0
M  V30 6540 N 620.802 -1.09834 -1.13024 0
M  V30 6541 C 622.05 -0.835297 -1.8403 0
M  V30 6542 C 622.371 0.640944 -1.84165 0
M  V30 6543 O 621.641 1.46517 -1.30037 0
M  V30 6544 H 620.221 -0.306018 -0.681441 0
M  V30 6545 H 622.883 -1.38734 -1.36891 0
M  V30 6546 H 621.979 -1.19258 -2.88416 0
M  V30 6547 N 622.28 1.30327 -0.886154 0
M  V30 6548 C 623.21 2.30549 -0.370028 0
M  V30 6549 C 624.191 1.61039 0.547751 0
M  V30 6550 O 625.376 1.8864 0.461353 0
M  V30 6551 C 622.506 3.44808 0.415275 0
M  V30 6552 C 621.46 4.26024 -0.41085 0
M  V30 6553 C 620.786 5.32347 0.501128 0
M  V30 6554 C 622.086 4.95433 -1.65359 0
M  V30 6555 H 623.78 2.73969 -1.20754 0
M  V30 6556 H 621.326 1.3171 -0.582097 0
M  V30 6557 H 623.279 4.13986 0.78699 0
M  V30 6558 H 622.003 3.00197 1.28644 0
M  V30 6559 H 620.662 3.58535 -0.764719 0
M  V30 6560 H 620.31 4.83982 1.37004 0
M  V30 6561 H 620.01 5.87581 -0.0478356 0
M  V30 6562 H 621.534 6.0438 0.869333 0
M  V30 6563 H 622.948 5.5712 -1.35239 0
M  V30 6564 H 621.345 5.60537 -2.14284 0
M  V30 6565 H 622.415 4.21493 -2.39733 0
M  V30 6566 N 623.758 0.647228 1.43697 0
M  V30 6567 C 624.706 -0.0600105 2.32523 0
M  V30 6568 C 625.7 -0.819277 1.48271 0
M  V30 6569 O 626.906 -0.730356 1.64517 0
M  V30 6570 H 623.281 -0.0381872 0.75103 0
M  V30 6571 H 625.252 0.706978 2.89904 0
M  V30 6572 C 624.001 -1.0169 3.32497 0
M  V30 6573 H 623.324 -0.442083 3.97348 0
M  V30 6574 H 624.764 -1.48095 3.97296 0
M  V30 6575 C 623.223 -2.11002 2.6264 0
M  V30 6576 O 623.753 -3.19302 2.4374 0
M  V30 6577 N 621.959 -1.87388 2.22113 0
M  V30 6578 H 621.506 -0.993174 2.37684 0
M  V30 6579 H 621.464 -2.60723 1.75701 0
M  V30 6580 N 625.236 -1.5273 0.388769 0
M  V30 6581 C 626.484 -2.01174 -0.193208 0
M  V30 6582 C 626.805 -1.27705 -1.47365 0
M  V30 6583 O 626.075 -0.396966 -1.91836 0
M  V30 6584 H 624.655 -0.743287 -0.0743871 0
M  V30 6585 H 627.317 -1.87826 0.520336 0
M  V30 6586 H 626.413 -3.09477 -0.403803 0
M  V30 6587 N 626.714 -0.118576 -1.57153 0
M  V30 6588 C 627.939 0.550582 -1.99958 0
M  V30 6589 C 628.364 1.59458 -0.997736 0
M  V30 6590 O 627.722 1.81274 0.0306269 0
M  V30 6591 C 627.77 1.15379 -3.41643 0
M  V30 6592 O 626.874 2.26932 -3.44348 0
M  V30 6593 H 626.215 0.137567 -0.649593 0
M  V30 6594 H 628.745 -0.206926 -2.03551 0
M  V30 6595 H 628.755 1.48942 -3.79843 0
M  V30 6596 H 627.43 0.389087 -4.14076 0
M  V30 6597 H 626.007 1.94812 -3.17967 0
M  V30 6598 N 628.193 1.56834 0.155195 0
M  V30 6599 C 629.441 1.82536 0.867462 0
M  V30 6600 C 629.762 0.698168 1.82073 0
M  V30 6601 O 629.032 -0.280807 1.93877 0
M  V30 6602 H 627.612 0.673401 0.323327 0
M  V30 6603 H 630.274 1.94313 0.151156 0
M  V30 6604 H 629.37 2.77171 1.43466 0
M  V30 6605 N 629.671 -0.424282 1.51781 0
M  V30 6606 C 630.618 -1.51591 1.74037 0
M  V30 6607 C 631.588 -1.55556 0.582358 0
M  V30 6608 O 632.773 -1.72364 0.818245 0
M  V30 6609 C 629.913 -2.89188 1.8832 0
M  V30 6610 C 629.026 -2.9465 3.1592 0
M  V30 6611 C 628.161 -4.23452 3.20721 0
M  V30 6612 C 627.2 -4.22831 4.42584 0
M  V30 6613 N 626.337 -5.43178 4.44862 0
M  V30 6614 H 631.177 -1.31917 2.67212 0
M  V30 6615 H 628.714 -0.640599 1.32419 0
M  V30 6616 H 630.672 -3.69044 1.94583 0
M  V30 6617 H 629.302 -3.07392 0.985402 0
M  V30 6618 H 628.354 -2.07378 3.18902 0
M  V30 6619 H 629.666 -2.90055 4.05795 0
M  V30 6620 H 628.82 -5.1169 3.25973 0
M  V30 6621 H 627.559 -4.30722 2.28757 0
M  V30 6622 H 626.564 -3.32984 4.37495 0
M  V30 6623 H 627.789 -4.17213 5.35826 0
M  V30 6624 H 625.735 -5.51145 3.55775 0
M  V30 6625 H 625.652 -5.40515 5.28563 0
M  V30 6626 H 626.92 -6.33412 4.54324 0
M  V30 6627 N 631.149 -1.42148 -0.680565 0
M  V30 6628 C 632.374 -1.45901 -1.47403 0
M  V30 6629 C 632.799 -0.0700985 -1.87969 0
M  V30 6630 O 632.157 0.930145 -1.55621 0
M  V30 6631 C 632.205 -2.38661 -2.70321 0
M  V30 6632 O 631.309 -1.85399 -3.68376 0
M  V30 6633 H 630.65 -0.494565 -0.443059 0
M  V30 6634 H 633.18 -1.86774 -0.835251 0
M  V30 6635 H 633.19 -2.55046 -3.18458 0
M  V30 6636 H 631.865 -3.39571 -2.40134 0
M  V30 6637 H 630.442 -1.78541 -3.2738 0
M  V30 6638 N 632.627 0.916307 -1.28225 0
M  V30 6639 C 633.855 1.69901 -1.18073 0
M  V30 6640 C 634.27 1.86988 0.260968 0
M  V30 6641 O 633.627 1.39505 1.17663 0
M  V30 6642 C 633.678 3.09254 -1.87201 0
M  V30 6643 O 633.399 2.92959 -3.2574 0
M  V30 6644 C 634.9 4.0362 -1.83319 0
M  V30 6645 H 632.12 0.531181 -0.409985 0
M  V30 6646 H 634.664 1.14703 -1.69303 0
M  V30 6647 H 632.819 3.61277 -1.39848 0
M  V30 6648 H 633.233 3.81139 -3.60324 0
M  V30 6649 H 634.707 4.98873 -2.36282 0
M  V30 6650 H 635.184 4.3176 -0.805007 0
M  V30 6651 H 635.79 3.57524 -2.3034 0
M  V30 6652 N 634.105 1.10431 1.1244 0
M  V30 6653 C 635.351 0.847972 1.84221 0
M  V30 6654 C 635.684 -0.624903 1.83871 0
M  V30 6655 O 634.959 -1.46074 1.28423 0
M  V30 6656 C 635.242 1.39695 3.319 0
M  V30 6657 C 635.095 2.93668 3.40704 0
M  V30 6658 C 636.414 1.03924 4.27654 0
M  V30 6659 H 633.533 0.309502 0.668863 0
M  V30 6660 H 636.175 1.36745 1.31912 0
M  V30 6661 H 634.325 0.955095 3.76577 0
M  V30 6662 H 635.997 3.46379 3.04662 0
M  V30 6663 H 634.24 3.30272 2.81252 0
M  V30 6664 H 634.911 3.27162 4.446 0
M  V30 6665 H 637.387 1.42049 3.91102 0
M  V30 6666 H 636.263 1.45027 5.29394 0
M  V30 6667 H 636.524 -0.051336 4.4207 0
M  V30 6668 N 635.583 -1.29855 0.893053 0
M  V30 6669 C 636.829 -1.96116 0.516349 0
M  V30 6670 C 637.162 -1.70281 -0.933695 0
M  V30 6671 O 636.437 -1.01205 -1.66096 0
M  V30 6672 C 636.72 -3.51068 0.801455 0
M  V30 6673 C 636.573 -3.86387 2.30272 0
M  V30 6674 C 637.892 -4.39186 0.283423 0
M  V30 6675 H 635.011 -0.712335 0.189072 0
M  V30 6676 H 637.653 -1.53587 1.11852 0
M  V30 6677 H 635.803 -3.87424 0.288949 0
M  V30 6678 H 637.475 -3.60012 2.88425 0
M  V30 6679 H 635.718 -3.34167 2.76613 0
M  V30 6680 H 636.389 -4.94512 2.45279 0
M  V30 6681 H 638.865 -4.09785 0.722187 0
M  V30 6682 H 637.741 -5.46505 0.512169 0
M  V30 6683 H 638.002 -4.34511 -0.815643 0
M  V30 6684 N 637.061 -0.65484 -1.43351 0
M  V30 6685 C 637.993 0.0744757 -2.29079 0
M  V30 6686 C 639.006 0.7855 -1.42596 0
M  V30 6687 O 640.195 0.642986 -1.66517 0
M  V30 6688 C 637.295 1.12859 -3.19556 0
M  V30 6689 C 636.468 0.495381 -4.34586 0
M  V30 6690 C 635.527 1.44659 -5.05925 0
M  V30 6691 O 634.553 0.954567 -5.61139 0
M  V30 6692 N 635.755 2.78051 -5.09576 0
M  V30 6693 H 638.52 -0.661346 -2.92312 0
M  V30 6694 H 636.081 -0.497744 -1.54059 0
M  V30 6695 H 638.073 1.76577 -3.64147 0
M  V30 6696 H 636.643 1.76636 -2.57912 0
M  V30 6697 H 635.863 -0.32092 -3.92892 0
M  V30 6698 H 637.151 0.0534203 -5.08772 0
M  V30 6699 H 636.549 3.20584 -4.66093 0
M  V30 6700 H 635.106 3.37068 -5.57878 0
M  V30 6701 N 638.539 1.52521 -0.396863 0
M  V30 6702 C 639.469 2.29582 0.425941 0
M  V30 6703 C 640.45 1.33281 1.05689 0
M  V30 6704 O 641.635 1.62181 1.06823 0
M  V30 6705 C 638.765 3.10821 1.54943 0
M  V30 6706 C 637.719 4.15069 1.04413 0
M  V30 6707 C 637.045 4.84578 2.26028 0
M  V30 6708 C 638.345 5.22191 0.106767 0
M  V30 6709 H 640.039 2.98612 -0.217045 0
M  V30 6710 H 637.585 1.43611 -0.105826 0
M  V30 6711 H 639.538 3.63492 2.13193 0
M  V30 6712 H 638.262 2.39538 2.22011 0
M  V30 6713 H 636.921 3.63389 0.484118 0
M  V30 6714 H 636.569 4.09835 2.91623 0
M  V30 6715 H 636.269 5.55043 1.92876 0
M  V30 6716 H 637.793 5.40056 2.84906 0
M  V30 6717 H 639.207 5.70176 0.597685 0
M  V30 6718 H 637.604 5.99947 -0.135352 0
M  V30 6719 H 638.674 4.77531 -0.842134 0
M  V30 6720 N 640.017 0.126909 1.57088 0
M  V30 6721 C 640.947 -0.816847 2.18746 0
M  V30 6722 C 641.928 -1.27161 1.12979 0
M  V30 6723 O 643.113 -1.33279 1.41246 0
M  V30 6724 C 640.243 -2.06398 2.79315 0
M  V30 6725 C 639.197 -1.74673 3.90735 0
M  V30 6726 C 638.523 -3.06482 4.38147 0
M  V30 6727 C 639.823 -1.0089 5.12463 0
M  V30 6728 H 641.517 -0.303032 2.97863 0
M  V30 6729 H 639.063 -0.144314 1.43275 0
M  V30 6730 H 641.016 -2.72885 3.2111 0
M  V30 6731 H 639.74 -2.60118 1.975 0
M  V30 6732 H 638.399 -1.10572 3.49527 0
M  V30 6733 H 638.047 -3.58152 3.5318 0
M  V30 6734 H 637.747 -2.86025 5.13287 0
M  V30 6735 H 639.271 -3.74073 4.82599 0
M  V30 6736 H 640.685 -1.57546 5.51228 0
M  V30 6737 H 639.082 -0.905006 5.93237 0
M  V30 6738 H 640.152 0.00297335 4.849 0
M  V30 6739 N 641.495 -1.56914 -0.146875 0
M  V30 6740 C 642.427 -1.94878 -1.20645 0
M  V30 6741 C 643.44 -0.844633 -1.39175 0
M  V30 6742 O 644.629 -1.12304 -1.38744 0
M  V30 6743 C 641.729 -2.20769 -2.57127 0
M  V30 6744 C 640.902 -3.52053 -2.59572 0
M  V30 6745 C 639.961 -3.66482 -3.77594 0
M  V30 6746 O 638.987 -4.38873 -3.62462 0
M  V30 6747 N 640.189 -3.03156 -4.95052 0
M  V30 6748 H 642.954 -2.86374 -0.883757 0
M  V30 6749 H 640.515 -1.58366 -0.336436 0
M  V30 6750 H 642.507 -2.27664 -3.34591 0
M  V30 6751 H 641.077 -1.35538 -2.81688 0
M  V30 6752 H 640.297 -3.56598 -1.68023 0
M  V30 6753 H 641.585 -4.38396 -2.58238 0
M  V30 6754 H 640.983 -2.44258 -5.10249 0
M  V30 6755 H 639.54 -3.15611 -5.70292 0
M  V30 6756 N 642.974 0.416227 -1.52004 0
M  V30 6757 C 644.39 0.754319 -1.40649 0
M  V30 6758 C 644.59 1.95059 -0.505392 0
M  V30 6759 O 643.646 2.5248 0.0315057 0
M  V30 6760 C 644.959 1.0149 -2.83055 0
M  V30 6761 C 646.507 1.11805 -2.9235 0
M  V30 6762 C 646.982 1.41144 -4.35709 0
M  V30 6763 N 648.473 1.48024 -4.38911 0
M  V30 6764 C 649.208 1.72338 -5.46889 0
M  V30 6765 N 648.704 1.94303 -6.64995 0
M  V30 6766 N 650.497 1.74294 -5.34395 0
M  V30 6767 H 642.648 -0.371324 -2.09129 0
M  V30 6768 H 644.911 -0.103811 -0.942299 0
M  V30 6769 H 644.617 0.208345 -3.51082 0
M  V30 6770 H 644.491 1.93697 -3.23668 0
M  V30 6771 H 646.878 1.91521 -2.24508 0
M  V30 6772 H 646.959 0.17451 -2.55204 0
M  V30 6773 H 646.603 0.619484 -5.04108 0
M  V30 6774 H 646.533 2.36739 -4.70385 0
M  V30 6775 H 649.024 1.32868 -3.53772 0
M  V30 6776 H 649.337 2.12286 -7.43071 0
M  V30 6777 H 647.682 1.91582 -6.68073 0
M  V30 6778 H 650.873 1.56667 -4.41104 0
M  V30 6779 H 651.046 1.92904 -6.18621 0
M  V30 6780 N 644.452 1.42507 0.673017 0
M  V30 6781 C 645.382 1.48916 1.79851 0
M  V30 6782 C 646.363 0.345566 1.66553 0
M  V30 6783 O 647.548 0.560116 1.85947 0
M  V30 6784 C 644.678 1.39258 3.18158 0
M  V30 6785 C 643.632 2.51662 3.46194 0
M  V30 6786 C 642.958 2.27062 4.84094 0
M  V30 6787 C 644.258 3.93968 3.42909 0
M  V30 6788 H 645.952 2.43114 1.74745 0
M  V30 6789 H 643.498 1.17013 0.839288 0
M  V30 6790 H 645.451 1.42349 3.96629 0
M  V30 6791 H 644.175 0.415542 3.23946 0
M  V30 6792 H 642.834 2.47891 2.70084 0
M  V30 6793 H 642.482 1.27648 4.86534 0
M  V30 6794 H 642.182 3.02398 5.03815 0
M  V30 6795 H 643.706 2.31905 5.64847 0
M  V30 6796 H 645.12 3.99332 4.11347 0
M  V30 6797 H 643.517 4.6917 3.74165 0
M  V30 6798 H 644.587 4.20512 2.41449 0
M  V30 6799 N 645.93 -0.909495 1.28709 0
M  V30 6800 C 647.16 -1.69027 1.188 0
M  V30 6801 C 647.568 -1.87469 -0.255329 0
M  V30 6802 O 646.911 -1.40458 -1.18394 0
M  V30 6803 C 646.973 -3.10064 1.81936 0
M  V30 6804 C 646.637 -3.14891 3.31199 0
M  V30 6805 C 647.634 -2.95768 4.27571 0
M  V30 6806 C 645.319 -3.37269 3.7223 0
M  V30 6807 C 647.313 -2.98942 5.6295 0
M  V30 6808 C 645 -3.40074 5.07733 0
M  V30 6809 C 645.998 -3.20932 6.02903 0
M  V30 6810 O 645.686 -3.23507 7.35934 0
M  V30 6811 H 645.418 -0.535014 0.413203 0
M  V30 6812 H 647.972 -1.14645 1.70428 0
M  V30 6813 H 646.202 -3.66005 1.24808 0
M  V30 6814 H 647.891 -3.70185 1.66486 0
M  V30 6815 H 648.657 -2.78302 3.97206 0
M  V30 6816 H 644.536 -3.51212 2.98615 0
M  V30 6817 H 648.08 -2.83919 6.37209 0
M  V30 6818 H 643.977 -3.5707 5.37747 0
M  V30 6819 H 644.745 -3.3984 7.44615 0
M  V30 6820 N 647.408 -1.11026 -1.11852 0
M  V30 6821 C 648.685 -0.768347 -1.79877 0
M  V30 6822 C 649.065 0.744261 -1.97545 0
M  V30 6823 O 648.413 1.67271 -1.55669 0
M  V30 6824 C 648.623 -1.52648 -3.13846 0
M  V30 6825 C 649.971 -1.70297 -3.88953 0
M  V30 6826 O 650.995 -1.49037 -3.23522 0
M  V30 6827 O 649.854 -2.05593 -5.06353 0
M  V30 6828 H 646.948 -0.277891 -0.778913 0
M  V30 6829 H 649.494 -1.21343 -1.18633 0
M  V30 6830 H 648.266 -2.55564 -2.96315 0
M  V30 6831 H 647.889 -1.07466 -3.82801 0
M  V30 6832 N 648.886 1.2938 -0.899927 0
M  V30 6833 C 650.297 1.77644 -0.574427 0
M  V30 6834 C 650.648 1.73824 0.909928 0
M  V30 6835 O 649.773 1.32429 1.71147 0
M  V30 6836 C 650.368 3.22573 -1.03595 0
M  V30 6837 C 648.927 3.68614 -0.76161 0
M  V30 6838 C 648.074 2.49483 -1.21052 0
M  V30 6839 H 651.025 1.16038 -1.08263 0
M  V30 6840 H 651.046 3.78684 -0.371337 0
M  V30 6841 H 650.558 3.25321 -2.11631 0
M  V30 6842 H 648.659 3.7134 0.306127 0
M  V30 6843 H 648.772 4.59402 -1.35965 0
M  V30 6844 H 647.136 2.46798 -0.629515 0
M  V30 6845 H 647.919 2.54959 -2.29893 0
M  V30 6846 N 650.364 0.662433 1.43002 0
M  V30 6847 C 651.641 0.109096 1.95296 0
M  V30 6848 C 652.021 -1.37313 1.60338 0
M  V30 6849 O 651.369 -2.1032 0.893187 0
M  V30 6850 C 651.579 0.365096 3.47085 0
M  V30 6851 C 652.927 0.274964 4.23709 0
M  V30 6852 O 653.951 0.29816 3.5495 0
M  V30 6853 O 652.81 0.206549 5.4611 0
M  V30 6854 H 649.904 -0.00429724 0.826989 0
M  V30 6855 H 652.45 0.736308 1.52894 0
M  V30 6856 H 651.222 1.39237 3.65689 0
M  V30 6857 H 650.845 -0.294733 3.96506 0
M  V30 6858 N 651.842 -1.52309 0.404946 0
M  V30 6859 C 653.119 -1.94237 -0.230544 0
M  V30 6860 C 653.499 -1.34154 -1.6299 0
M  V30 6861 O 652.847 -0.515713 -2.22604 0
M  V30 6862 C 653.057 -3.48166 -0.241106 0
M  V30 6863 C 654.405 -4.22074 -0.462488 0
M  V30 6864 O 655.429 -3.54754 -0.320644 0
M  V30 6865 O 654.288 -5.41443 -0.741708 0
M  V30 6866 H 651.382 -0.813766 -0.147358 0
M  V30 6867 H 653.928 -1.6333 0.460587 0
M  V30 6868 H 652.7 -3.84269 0.738467 0
M  V30 6869 H 652.323 -3.85422 -0.97651 0
M  V30 6870 N 653.32 -0.135238 -1.57019 0
M  V30 6871 C 654.568 0.51777 -1.95355 0
M  V30 6872 C 654.889 1.6617 -1.02042 0
M  V30 6873 O 654.159 1.95738 -0.0797343 0
M  V30 6874 H 652.739 0.194264 -0.721298 0
M  V30 6875 H 655.401 -0.207983 -1.93787 0
M  V30 6876 H 654.497 0.901675 -2.98791 0
M  V30 6877 N 654.798 1.5699 0.138552 0
M  V30 6878 C 656.045 1.83809 0.849732 0
M  V30 6879 C 656.373 0.717409 1.80786 0
M  V30 6880 O 655.628 -0.292897 1.93496 0
M  V30 6881 C 655.927 3.17007 1.65049 0
M  V30 6882 C 655.593 4.43037 0.838398 0
M  V30 6883 C 654.255 4.77262 0.614385 0
M  V30 6884 C 656.607 5.20495 0.271044 0
M  V30 6885 C 653.935 5.864 -0.187552 0
M  V30 6886 C 656.287 6.30476 -0.517979 0
M  V30 6887 C 654.951 6.63245 -0.75249 0
M  V30 6888 H 654.221 0.672605 0.310939 0
M  V30 6889 H 656.868 1.91166 0.112971 0
M  V30 6890 H 655.173 3.05138 2.4576 0
M  V30 6891 H 656.87 3.34975 2.20437 0
M  V30 6892 H 653.46 4.16211 1.02307 0
M  V30 6893 H 657.644 4.94422 0.431371 0
M  V30 6894 H 652.9 6.10226 -0.378659 0
M  V30 6895 H 657.074 6.89686 -0.964694 0
M  V30 6896 H 654.701 7.47648 -1.37573 0
M  V30 6897 N 656.276 -0.40816 1.52223 0
M  V30 6898 C 657.525 -1.15212 1.65557 0
M  V30 6899 C 657.838 -1.9163 0.392096 0
M  V30 6900 O 659.044 -2.68458 0.405256 0
M  V30 6901 C 657.5 -2.09691 2.92502 0
M  V30 6902 C 657.108 -1.38785 4.25961 0
M  V30 6903 C 658.852 -2.8434 3.152 0
M  V30 6904 C 656.759 -2.31919 5.44029 0
M  V30 6905 H 655.689 -0.433776 0.616729 0
M  V30 6906 H 658.34 -0.4165 1.78711 0
M  V30 6907 H 656.722 -2.8681 2.7305 0
M  V30 6908 H 657.896 -0.670248 4.55899 0
M  V30 6909 H 656.211 -0.761741 4.09373 0
M  V30 6910 H 658.808 -3.54166 4.00587 0
M  V30 6911 H 659.151 -3.47344 2.29473 0
M  V30 6912 H 659.684 -2.14321 3.35129 0
M  V30 6913 H 656.423 -1.7356 6.32105 0
M  V30 6914 H 655.943 -3.0165 5.18428 0
M  V30 6915 H 657.622 -2.92424 5.77146 0
M  V30 6916 N 657.755 -1.42862 -0.66545 0
M  V30 6917 C 658.688 -1.41509 -1.79026 0
M  V30 6918 C 659.666 -0.278106 -1.60204 0
M  V30 6919 O 660.85 -0.469792 -1.82552 0
M  V30 6920 C 657.977 -1.21494 -3.1616 0
M  V30 6921 C 657.023 -2.38308 -3.53711 0
M  V30 6922 S 657.856 -4.00852 -3.55075 0
M  V30 6923 C 659.012 -3.83197 -4.94885 0
M  V30 6924 H 659.245 -2.36691 -1.79902 0
M  V30 6925 H 656.778 -1.29746 -0.836977 0
M  V30 6926 H 658.736 -1.10633 -3.95311 0
M  V30 6927 H 657.397 -0.27881 -3.1286 0
M  V30 6928 H 656.59 -2.20076 -4.53412 0
M  V30 6929 H 656.192 -2.45732 -2.81943 0
M  V30 6930 H 658.484 -3.44765 -5.83218 0
M  V30 6931 H 659.427 -4.82607 -5.18166 0
M  V30 6932 H 659.835 -3.15884 -4.67843 0
M  V30 6933 N 659.233 0.902656 -1.29189 0
M  V30 6934 C 660.479 1.65532 -1.17163 0
M  V30 6935 C 660.812 1.92216 0.276879 0
M  V30 6936 O 660.087 1.53048 1.20027 0
M  V30 6937 C 660.37 3.00629 -1.98228 0
M  V30 6938 C 660.223 2.81029 -3.51202 0
M  V30 6939 C 661.542 4.01321 -1.80635 0
M  V30 6940 H 658.661 0.60071 -0.426985 0
M  V30 6941 H 661.303 1.04578 -1.5863 0
M  V30 6942 H 659.453 3.52656 -1.62991 0
M  V30 6943 H 661.125 2.35927 -3.96404 0
M  V30 6944 H 659.368 2.1587 -3.76275 0
M  V30 6945 H 660.039 3.77014 -4.03192 0
M  V30 6946 H 662.515 3.58394 -2.11406 0
M  V30 6947 H 661.391 4.93792 -2.3971 0
M  V30 6948 H 661.652 4.35505 -0.760754 0
M  V30 6949 N 660.711 1.11618 1.11262 0
M  V30 6950 C 661.988 0.777876 1.79467 0
M  V30 6951 C 662.368 -0.733774 1.97937 0
M  V30 6952 O 661.716 -1.66443 1.56554 0
M  V30 6953 C 661.926 1.5431 3.13032 0
M  V30 6954 C 663.274 1.72357 3.88044 0
M  V30 6955 O 664.298 1.5075 3.22727 0
M  V30 6956 O 663.157 2.08276 5.05256 0
M  V30 6957 H 660.251 0.282018 0.777428 0
M  V30 6958 H 662.797 1.21971 1.17988 0
M  V30 6959 H 661.569 2.57132 2.94956 0
M  V30 6960 H 661.192 1.09495 3.82226 0
M  V30 6961 N 662.189 -1.289 0.906776 0
M  V30 6962 C 663.099 -2.31256 0.394707 0
M  V30 6963 C 664.115 -1.66231 -0.514121 0
M  V30 6964 O 665.291 -1.97347 -0.401994 0
M  V30 6965 C 662.356 -3.44792 -0.363191 0
M  V30 6966 C 661.417 -4.25391 0.578012 0
M  V30 6967 C 660.65 -5.33506 -0.143811 0
M  V30 6968 O 660.873 -5.53786 -1.36665 0
M  V30 6969 O 659.807 -5.99673 0.5173 0
M  V30 6970 H 663.633 -2.77051 1.24405 0
M  V30 6971 H 661.218 -1.33466 0.671346 0
M  V30 6972 H 663.1 -4.139 -0.791503 0
M  V30 6973 H 661.775 -3.01093 -1.18848 0
M  V30 6974 H 660.682 -3.58899 1.05558 0
M  V30 6975 H 662.015 -4.72752 1.36992 0
M  V30 6976 N 663.667 -0.670007 -1.42649 0
M  V30 6977 C 664.615 0.0230106 -2.32589 0
M  V30 6978 C 665.609 0.795585 -1.49555 0
M  V30 6979 O 666.815 0.70409 -1.65658 0
M  V30 6980 H 663.19 0.0262342 -0.751542 0
M  V30 6981 H 665.161 -0.753009 -2.88743 0
M  V30 6982 C 663.91 0.963872 -3.34073 0
M  V30 6983 H 663.233 0.378813 -3.98001 0
M  V30 6984 H 664.673 1.41755 -3.99602 0
M  V30 6985 C 663.132 2.06797 -2.65964 0
M  V30 6986 O 663.662 3.15383 -2.48789 0
M  V30 6987 N 661.868 1.83831 -2.25066 0
M  V30 6988 H 661.415 0.955235 -2.39234 0
M  V30 6989 H 661.373 2.57895 -1.79827 0
M  V30 6990 N 665.145 1.52092 -0.413018 0
M  V30 6991 C 666.422 1.94356 0.22024 0
M  V30 6992 C 666.802 1.35017 1.62277 0
M  V30 6993 O 666.15 0.527511 2.22328 0
M  V30 6994 C 666.36 3.48289 0.222638 0
M  V30 6995 C 667.708 4.22313 0.440098 0
M  V30 6996 O 668.732 3.54919 0.301826 0
M  V30 6997 O 667.591 5.41829 0.712984 0
M  V30 6998 H 664.685 0.814536 0.14304 0
M  V30 6999 H 667.231 1.63083 -0.469242 0
M  V30 7000 H 666.003 3.83872 -0.758836 0
M  V30 7001 H 665.626 3.85934 0.956057 0
M  V30 7002 N 666.623 0.143563 1.56945 0
M  V30 7003 C 667.872 -0.50835 1.95189 0
M  V30 7004 C 668.185 -1.66239 1.03073 0
M  V30 7005 O 669.391 -2.3787 1.30882 0
M  V30 7006 C 667.847 -0.955735 3.46978 0
M  V30 7007 C 667.455 0.171183 4.47673 0
M  V30 7008 C 669.199 -1.57763 3.94095 0
M  V30 7009 C 667.106 -0.294279 5.90667 0
M  V30 7010 H 666.036 -0.193679 0.728701 0
M  V30 7011 H 668.687 0.227357 1.82086 0
M  V30 7012 H 667.069 -1.7466 3.55401 0
M  V30 7013 H 668.243 0.948049 4.50942 0
M  V30 7014 H 666.558 0.701273 4.10452 0
M  V30 7015 H 669.155 -1.93745 4.98364 0
M  V30 7016 H 669.498 -2.46531 3.35452 0
M  V30 7017 H 670.031 -0.851728 3.88575 0
M  V30 7018 H 666.77 0.557939 6.53121 0
M  V30 7019 H 666.29 -1.0371 5.90766 0
M  V30 7020 H 667.969 -0.747426 6.42668 0
M  V30 7021 N 668.101 -1.57061 -0.130224 0
M  V30 7022 C 669.517 -1.52103 -0.483413 0
M  V30 7023 C 669.717 -0.854752 -1.82473 0
M  V30 7024 O 668.773 -0.432342 -2.48771 0
M  V30 7025 C 670.086 -2.96872 -0.47825 0
M  V30 7026 C 671.634 -3.07902 -0.562592 0
M  V30 7027 C 672.109 -4.54211 -0.587929 0
M  V30 7028 N 673.6 -4.58621 -0.649684 0
M  V30 7029 C 674.335 -5.69227 -0.690551 0
M  V30 7030 N 673.831 -6.89358 -0.689743 0
M  V30 7031 N 675.624 -5.57304 -0.732708 0
M  V30 7032 H 667.775 -1.98764 0.748779 0
M  V30 7033 H 670.038 -0.907248 0.274965 0
M  V30 7034 H 669.744 -3.48944 0.439444 0
M  V30 7035 H 669.618 -3.53716 -1.31013 0
M  V30 7036 H 672.005 -2.5584 -1.47071 0
M  V30 7037 H 672.086 -2.54073 0.296764 0
M  V30 7038 H 671.73 -5.06915 0.316096 0
M  V30 7039 H 671.66 -5.0584 -1.46401 0
M  V30 7040 H 674.151 -3.72146 -0.656927 0
M  V30 7041 H 674.464 -7.69408 -0.723239 0
M  V30 7042 H 672.809 -6.91884 -0.657347 0
M  V30 7043 H 676 -4.62363 -0.730625 0
M  V30 7044 H 676.173 -6.43515 -0.76109 0
M  V30 7045 N 669.579 0.400081 -1.52437 0
M  V30 7046 C 670.542 1.4707 -1.75793 0
M  V30 7047 C 671.542 1.48036 -0.627856 0
M  V30 7048 O 672.732 1.49401 -0.895817 0
M  V30 7049 C 669.864 2.86427 -1.84858 0
M  V30 7050 H 671.057 1.27649 -2.71377 0
M  V30 7051 H 668.61 0.631141 -1.42991 0
M  V30 7052 H 669.345 3.11207 -0.912194 0
M  V30 7053 H 669.13 2.87128 -2.6702 0
M  V30 7054 H 670.62 3.64023 -2.04638 0
M  V30 7055 N 671.057 1.43213 0.657864 0
M  V30 7056 C 671.987 1.50815 1.78262 0
M  V30 7057 C 672.968 0.363211 1.66177 0
M  V30 7058 O 674.153 0.579806 1.85343 0
M  V30 7059 C 671.283 1.42625 3.16663 0
M  V30 7060 C 670.237 2.5532 3.43505 0
M  V30 7061 C 669.563 2.32184 4.81658 0
M  V30 7062 C 670.863 3.97583 3.38711 0
M  V30 7063 H 672.557 2.44954 1.72157 0
M  V30 7064 H 670.103 1.17896 0.82683 0
M  V30 7065 H 672.056 1.46548 3.95097 0
M  V30 7066 H 670.78 0.449877 3.23487 0
M  V30 7067 H 669.439 2.50742 2.6744 0
M  V30 7068 H 669.087 1.32801 4.85153 0
M  V30 7069 H 668.787 3.07724 5.00579 0
M  V30 7070 H 670.311 2.37883 5.62356 0
M  V30 7071 H 671.725 4.03673 4.07089 0
M  V30 7072 H 670.122 4.73112 3.69168 0
M  V30 7073 H 671.192 4.23049 2.36976 0
M  V30 7074 N 672.536 -0.895792 1.29666 0
M  V30 7075 C 673.484 -2.02173 1.15017 0
M  V30 7076 C 674.478 -1.69276 0.0647651 0
M  V30 7077 O 675.684 -1.7859 0.224846 0
M  V30 7078 H 672.059 -0.662719 0.355397 0
M  V30 7079 H 674.03 -2.11666 2.10334 0
M  V30 7080 C 672.779 -3.37212 0.847555 0
M  V30 7081 H 672.102 -3.6303 1.67479 0
M  V30 7082 H 673.542 -4.16668 0.785106 0
M  V30 7083 C 672.001 -3.33891 -0.44929 0
M  V30 7084 O 672.531 -3.73673 -1.47415 0
M  V30 7085 N 670.737 -2.86991 -0.456547 0
M  V30 7086 H 670.284 -2.54813 0.377925 0
M  V30 7087 H 670.242 -2.85152 -1.32423 0
M  V30 7088 N 674.014 -1.12206 -1.10668 0
M  V30 7089 C 675.26 -0.877172 -1.82848 0
M  V30 7090 C 675.593 0.595571 -1.84842 0
M  V30 7091 O 674.868 1.44013 -1.30731 0
M  V30 7092 C 675.151 -1.44957 -3.29635 0
M  V30 7093 C 675.004 -2.99051 -3.35989 0
M  V30 7094 C 676.323 -1.10714 -4.25946 0
M  V30 7095 H 673.442 -0.320103 -0.663854 0
M  V30 7096 H 676.084 -1.38827 -1.2972 0
M  V30 7097 H 674.234 -1.01488 -3.7501 0
M  V30 7098 H 675.906 -3.51182 -2.99113 0
M  V30 7099 H 674.149 -3.34705 -2.75962 0
M  V30 7100 H 674.82 -3.34194 -4.39339 0
M  V30 7101 H 677.296 -1.48254 -3.88793 0
M  V30 7102 H 676.172 -1.5343 -5.2702 0
M  V30 7103 H 676.433 -0.019 -4.42096 0
M  V30 7104 N 675.492 1.28418 -0.913599 0
M  V30 7105 C 676.908 1.47411 -0.611728 0
M  V30 7106 C 677.108 1.83018 0.843008 0
M  V30 7107 O 676.164 1.93505 1.6221 0
M  V30 7108 C 677.477 2.57703 -1.5495 0
M  V30 7109 C 679.025 2.71572 -1.5562 0
M  V30 7110 C 679.5 3.85008 -2.48058 0
M  V30 7111 N 680.991 3.92361 -2.46184 0
M  V30 7112 C 681.726 4.79516 -3.14407 0
M  V30 7113 N 681.222 5.71262 -3.91958 0
M  V30 7114 N 683.015 4.73125 -3.03495 0
M  V30 7115 H 675.166 1.03585 -1.85429 0
M  V30 7116 H 677.429 0.515907 -0.795326 0
M  V30 7117 H 677.135 2.38298 -2.58663 0
M  V30 7118 H 677.009 3.54801 -1.28048 0
M  V30 7119 H 679.396 2.90366 -0.526441 0
M  V30 7120 H 679.477 1.75006 -1.86565 0
M  V30 7121 H 679.121 3.66969 -3.51136 0
M  V30 7122 H 679.051 4.80971 -2.14416 0
M  V30 7123 H 681.542 3.26749 -1.89851 0
M  V30 7124 H 681.855 6.34593 -4.41034 0
M  V30 7125 H 680.2 5.71103 -3.96063 0
M  V30 7126 H 683.391 4.00442 -2.42413 0
M  V30 7127 H 683.564 5.40834 -3.56935 0
M  V30 7128 N 676.97 0.677563 1.42291 0
M  V30 7129 C 677.92 -0.0218641 2.2799 0
M  V30 7130 C 678.904 -0.770816 1.41235 0
M  V30 7131 O 680.096 -0.649273 1.64662 0
M  V30 7132 C 677.225 -0.970449 3.29298 0
M  V30 7133 C 676.311 -0.218695 4.23536 0
M  V30 7134 N 676.702 0.777908 4.99782 0
M  V30 7135 C 675 -0.456748 4.43655 0
M  V30 7136 C 675.701 1.22632 5.68627 0
M  V30 7137 N 674.677 0.55573 5.40752 0
M  V30 7138 H 678.479 0.742516 2.84366 0
M  V30 7139 H 675.993 0.506862 1.54288 0
M  V30 7140 H 677.99 -1.48652 3.89497 0
M  V30 7141 H 676.65 -1.73463 2.74483 0
M  V30 7142 H 677.661 1.15754 5.04798 0
M  V30 7143 H 674.338 -1.20021 3.99877 0
M  V30 7144 H 675.728 2.05231 6.39789 0
M  V30 7145 N 678.448 -1.51871 0.421078 0
M  V30 7146 C 679.678 -2.06057 -0.149723 0
M  V30 7147 C 680.086 -1.29002 -1.38402 0
M  V30 7148 O 679.429 -0.338385 -1.80556 0
M  V30 7149 C 679.491 -3.55216 -0.553339 0
M  V30 7150 C 679.155 -4.53408 0.571879 0
M  V30 7151 C 680.152 -4.99586 1.4391 0
M  V30 7152 C 677.837 -4.967 0.747979 0
M  V30 7153 C 679.831 -5.87711 2.46727 0
M  V30 7154 C 677.518 -5.84619 1.77944 0
M  V30 7155 C 678.516 -6.30021 2.63748 0
M  V30 7156 O 678.204 -7.16197 3.65126 0
M  V30 7157 H 677.936 -0.675744 -0.0186102 0
M  V30 7158 H 680.49 -1.96618 0.594166 0
M  V30 7159 H 678.72 -3.62381 -1.34969 0
M  V30 7160 H 680.409 -3.91992 -1.05342 0
M  V30 7161 H 681.175 -4.66846 1.31451 0
M  V30 7162 H 677.054 -4.60913 0.0897357 0
M  V30 7163 H 680.598 -6.2307 3.13734 0
M  V30 7164 H 676.495 -6.16771 1.90429 0
M  V30 7165 H 677.263 -7.34337 3.61512 0
M  V30 7166 N 679.926 -0.151884 -1.56866 0
M  V30 7167 C 681.342 0.204486 -1.58285 0
M  V30 7168 C 681.542 1.6431 -1.16639 0
M  V30 7169 O 680.598 2.37077 -0.868946 0
M  V30 7170 C 681.911 -0.0587019 -3.00643 0
M  V30 7171 C 683.459 0.00462303 -3.13 0
M  V30 7172 C 683.934 -0.231297 -4.57416 0
M  V30 7173 N 685.425 -0.178394 -4.62856 0
M  V30 7174 C 686.16 -0.335379 -5.72418 0
M  V30 7175 N 685.656 -0.550355 -6.90611 0
M  V30 7176 N 687.449 -0.272641 -5.61438 0
M  V30 7177 H 679.6 -1.09116 -1.82229 0
M  V30 7178 H 681.863 -0.432311 -0.843689 0
M  V30 7179 H 681.569 -1.05453 -3.35518 0
M  V30 7180 H 681.443 0.658508 -3.71407 0
M  V30 7181 H 683.83 0.991009 -2.77962 0
M  V30 7182 H 683.911 -0.744992 -2.44711 0
M  V30 7183 H 683.555 -1.2148 -4.93158 0
M  V30 7184 H 683.485 0.5387 -5.23837 0
M  V30 7185 H 685.976 -0.0170923 -3.77896 0
M  V30 7186 H 686.289 -0.660116 -7.69976 0
M  V30 7187 H 684.634 -0.586736 -6.92519 0
M  V30 7188 H 687.825 -0.105421 -4.67981 0
M  V30 7189 H 687.998 -0.398418 -6.46774 0
M  V30 7190 N 681.404 1.57128 0.121893 0
M  V30 7191 C 682.681 1.75664 0.860327 0
M  V30 7192 C 683.061 0.726585 1.98202 0
M  V30 7193 O 682.409 -0.24999 2.27128 0
M  V30 7194 C 682.619 3.20571 1.37968 0
M  V30 7195 C 683.967 3.82988 1.83317 0
M  V30 7196 O 684.991 3.24156 1.47654 0
M  V30 7197 O 683.85 4.86393 2.49168 0
M  V30 7198 H 680.944 0.719153 0.408348 0
M  V30 7199 H 683.49 1.6937 0.105859 0
M  V30 7200 H 682.262 3.87056 0.57477 0
M  V30 7201 H 681.885 3.31392 2.19694 0
M  V30 7202 N 682.882 -0.391992 1.52647 0
M  V30 7203 C 683.832 -1.47815 1.73594 0
M  V30 7204 C 684.816 -1.49693 0.589979 0
M  V30 7205 O 686.008 -1.5538 0.847701 0
M  V30 7206 C 683.137 -2.85561 1.90551 0
M  V30 7207 C 682.223 -2.88264 3.1107 0
M  V30 7208 N 682.614 -2.60642 4.33474 0
M  V30 7209 C 680.912 -3.19432 3.11254 0
M  V30 7210 C 681.613 -2.70351 5.15058 0
M  V30 7211 N 680.589 -3.03956 4.50679 0
M  V30 7212 H 684.391 -1.2528 2.65861 0
M  V30 7213 H 681.905 -0.599907 1.50913 0
M  V30 7214 H 683.902 -3.63759 2.03678 0
M  V30 7215 H 682.562 -3.09081 0.994952 0
M  V30 7216 H 683.573 -2.34718 4.61658 0
M  V30 7217 H 680.25 -3.48436 2.29997 0
M  V30 7218 H 681.64 -2.52565 6.22624 0
M  V30 7219 N 684.36 -1.4356 -0.65026 0
M  V30 7220 C 685.609 -1.44619 -1.406 0
M  V30 7221 C 685.922 -0.0752645 -1.95455 0
M  V30 7222 O 687.128 0.0366832 -2.71475 0
M  V30 7223 C 685.584 -2.54511 -2.54465 0
M  V30 7224 C 685.192 -3.97723 -2.06204 0
M  V30 7225 C 686.936 -2.64768 -3.31811 0
M  V30 7226 C 684.843 -4.99075 -3.17298 0
M  V30 7227 H 683.773 -0.537983 -0.52829 0
M  V30 7228 H 686.424 -1.69559 -0.701561 0
M  V30 7229 H 684.806 -2.22777 -3.27393 0
M  V30 7230 H 685.98 -4.38932 -1.40267 0
M  V30 7231 H 684.295 -3.91538 -1.41729 0
M  V30 7232 H 686.892 -3.37664 -4.14593 0
M  V30 7233 H 687.235 -1.69936 -3.80036 0
M  V30 7234 H 687.768 -2.95817 -2.65964 0
M  V30 7235 H 684.507 -5.95469 -2.74038 0
M  V30 7236 H 684.027 -4.62476 -3.81937 0
M  V30 7237 H 685.706 -5.21913 -3.82382 0
M  V30 7238 N 685.838 0.888903 -1.30139 0
M  V30 7239 C 687.086 1.63713 -1.18501 0
M  V30 7240 C 687.407 1.9324 0.261399 0
M  V30 7241 O 686.677 1.56608 1.17689 0
M  V30 7242 H 685.257 0.606861 -0.435579 0
M  V30 7243 H 687.919 1.06525 -1.63213 0
M  V30 7244 H 687.015 2.58894 -1.743 0
M  V30 7245 N 687.317 1.12792 1.10072 0
M  V30 7246 C 688.563 0.886857 1.82381 0
M  V30 7247 C 688.896 -0.58576 1.85155 0
M  V30 7248 O 688.171 -1.43317 1.31493 0
M  V30 7249 C 688.454 1.46703 3.28862 0
M  V30 7250 C 688.307 3.00829 3.34398 0
M  V30 7251 C 689.626 1.12971 4.25353 0
M  V30 7252 H 686.745 0.32362 0.662148 0
M  V30 7253 H 689.387 1.39513 1.28982 0
M  V30 7254 H 687.537 1.03476 3.74466 0
M  V30 7255 H 689.209 3.52764 2.97247 0
M  V30 7256 H 687.452 3.36164 2.74183 0
M  V30 7257 H 688.123 3.36519 4.3756 0
M  V30 7258 H 690.599 1.50313 3.88001 0
M  V30 7259 H 689.475 1.56223 5.26199 0
M  V30 7260 H 689.736 0.0424452 4.4208 0
M  V30 7261 N 688.795 -1.27931 0.920396 0
M  V30 7262 C 690.041 -1.94977 0.557832 0
M  V30 7263 C 690.374 -1.72224 -0.897365 0
M  V30 7264 O 689.649 -1.04705 -1.63912 0
M  V30 7265 C 689.932 -3.49289 0.875741 0
M  V30 7266 C 689.785 -3.81416 2.38416 0
M  V30 7267 C 691.104 -4.38486 0.376517 0
M  V30 7268 H 688.223 -0.708164 0.20414 0
M  V30 7269 H 690.865 -1.5118 1.15085 0
M  V30 7270 H 689.015 -3.86724 0.371062 0
M  V30 7271 H 690.687 -3.53813 2.95997 0
M  V30 7272 H 688.93 -3.28225 2.83639 0
M  V30 7273 H 689.601 -4.89198 2.55713 0
M  V30 7274 H 692.077 -4.08161 0.808945 0
M  V30 7275 H 690.953 -5.45296 0.627976 0
M  V30 7276 H 691.214 -4.36143 -0.723293 0
M  V30 7277 N 690.273 -0.685099 -1.4193 0
M  V30 7278 C 691.498 -0.218842 -2.06242 0
M  V30 7279 C 691.923 1.11923 -1.51178 0
M  V30 7280 O 691.281 1.69837 -0.634446 0
M  V30 7281 C 691.329 -0.175592 -3.60172 0
M  V30 7282 O 690.433 0.852776 -4.03487 0
M  V30 7283 H 689.774 -0.109531 -0.654904 0
M  V30 7284 H 692.304 -0.937013 -1.81882 0
M  V30 7285 H 692.314 -0.00291151 -4.08 0
M  V30 7286 H 690.989 -1.15222 -3.99621 0
M  V30 7287 H 689.566 0.650301 -3.67186 0
M  V30 7288 N 691.751 1.51645 -0.429126 0
M  V30 7289 C 692.683 2.25279 0.422124 0
M  V30 7290 C 693.696 1.28986 0.993299 0
M  V30 7291 O 694.885 1.54797 0.888836 0
M  V30 7292 C 691.985 2.98666 1.60162 0
M  V30 7293 C 691.158 4.2199 1.15078 0
M  V30 7294 C 690.217 4.78028 2.19946 0
M  V30 7295 O 689.243 5.40084 1.79716 0
M  V30 7296 N 690.445 4.61342 3.5234 0
M  V30 7297 H 693.21 2.98971 -0.208931 0
M  V30 7298 H 690.771 1.59838 -0.257568 0
M  V30 7299 H 692.763 3.33044 2.29922 0
M  V30 7300 H 691.333 2.28036 2.13818 0
M  V30 7301 H 690.553 3.932 0.280552 0
M  V30 7302 H 691.841 5.02037 0.826831 0
M  V30 7303 H 691.239 4.11894 3.87763 0
M  V30 7304 H 689.796 5.00104 4.18019 0
M  V30 7305 N 693.229 0.160201 1.56784 0
M  V30 7306 C 694.139 -0.787167 2.21 0
M  V30 7307 C 695.155 -1.26167 1.19825 0
M  V30 7308 O 696.331 -1.31611 1.52448 0
M  V30 7309 C 693.396 -2.00364 2.8294 0
M  V30 7310 C 692.457 -1.5771 3.99282 0
M  V30 7311 C 691.69 -2.73558 4.58259 0
M  V30 7312 O 691.913 -3.90129 4.16119 0
M  V30 7313 O 690.847 -2.48271 5.48311 0
M  V30 7314 H 694.673 -0.270462 3.02493 0
M  V30 7315 H 692.258 -0.0674666 1.49248 0
M  V30 7316 H 694.14 -2.71529 3.22257 0
M  V30 7317 H 692.815 -2.50961 2.04451 0
M  V30 7318 H 691.722 -0.835274 3.64656 0
M  V30 7319 H 693.055 -1.11815 4.79331 0
M  V30 7320 N 694.707 -1.5719 -0.113559 0
M  V30 7321 C 696.118 -1.74259 -0.670116 0
M  V30 7322 C 696.469 -0.779694 -1.80042 0
M  V30 7323 O 695.594 0.0461353 -2.16351 0
M  V30 7324 C 696.189 -3.15981 -1.22236 0
M  V30 7325 C 694.748 -3.34537 -1.72516 0
M  V30 7326 C 693.895 -2.70116 -0.627098 0
M  V30 7327 H 696.846 -1.58301 0.112396 0
M  V30 7328 H 696.867 -3.17832 -2.09197 0
M  V30 7329 H 696.379 -3.86038 -0.39949 0
M  V30 7330 H 694.48 -2.6953 -2.57263 0
M  V30 7331 H 694.593 -4.42737 -1.83086 0
M  V30 7332 H 692.957 -2.31501 -1.06204 0
M  V30 7333 H 693.74 -3.42802 0.184889 0
M  V30 7334 N 696.185 0.383891 -1.52853 0
M  V30 7335 C 697.431 1.13009 -1.68395 0
M  V30 7336 C 697.764 1.89488 -0.425195 0
M  V30 7337 O 697.039 1.8574 0.577136 0
M  V30 7338 C 697.322 2.10419 -2.92226 0
M  V30 7339 C 697.175 1.3767 -4.28214 0
M  V30 7340 C 698.494 3.10781 -3.11614 0
M  V30 7341 H 695.613 0.409463 -0.612788 0
M  V30 7342 H 698.255 0.412895 -1.85459 0
M  V30 7343 H 696.405 2.71579 -2.77808 0
M  V30 7344 H 698.077 0.794352 -4.54409 0
M  V30 7345 H 696.32 0.678533 -4.2846 0
M  V30 7346 H 696.991 2.08874 -5.10956 0
M  V30 7347 H 699.467 2.59715 -3.25096 0
M  V30 7348 H 698.343 3.76179 -3.99725 0
M  V30 7349 H 698.604 3.79933 -2.2606 0
M  V30 7350 N 697.663 1.43903 0.642637 0
M  V30 7351 C 698.593 1.52697 1.76652 0
M  V30 7352 C 699.574 0.380816 1.65782 0
M  V30 7353 O 700.759 0.599432 1.84717 0
M  V30 7354 C 697.889 1.45975 3.15133 0
M  V30 7355 C 696.843 2.58949 3.40778 0
M  V30 7356 C 696.169 2.37279 4.79169 0
M  V30 7357 C 697.469 4.01153 3.34475 0
M  V30 7358 H 699.163 2.46766 1.69549 0
M  V30 7359 H 696.709 1.18767 0.814279 0
M  V30 7360 H 698.662 1.5073 3.93521 0
M  V30 7361 H 697.386 0.484162 3.22991 0
M  V30 7362 H 696.045 2.53564 2.64765 0
M  V30 7363 H 695.693 1.37939 4.83717 0
M  V30 7364 H 695.393 3.13016 4.97287 0
M  V30 7365 H 696.917 2.43834 5.59801 0
M  V30 7366 H 698.331 4.07968 4.02784 0
M  V30 7367 H 696.728 4.77001 3.64129 0
M  V30 7368 H 697.798 4.25539 2.32475 0
M  V30 7369 N 699.141 -0.881989 1.30609 0
M  V30 7370 C 700.388 -1.63405 1.19604 0
M  V30 7371 C 700.716 -1.92905 -0.248574 0
M  V30 7372 O 699.971 -1.55062 -1.19391 0
M  V30 7373 C 700.27 -2.97999 1.97311 0
M  V30 7374 C 699.936 -2.88039 3.46907 0
M  V30 7375 C 698.598 -2.85029 3.877 0
M  V30 7376 C 700.95 -2.75948 4.42156 0
M  V30 7377 C 698.278 -2.67772 5.2203 0
M  V30 7378 C 700.63 -2.60228 5.76597 0
M  V30 7379 C 699.294 -2.55595 6.16626 0
M  V30 7380 H 698.564 -0.597941 0.437662 0
M  V30 7381 H 701.211 -1.02524 1.61744 0
M  V30 7382 H 699.516 -3.62847 1.47815 0
M  V30 7383 H 701.213 -3.55156 1.86186 0
M  V30 7384 H 697.803 -2.91192 3.14492 0
M  V30 7385 H 701.987 -2.77337 4.1158 0
M  V30 7386 H 697.243 -2.62601 5.52133 0
M  V30 7387 H 701.417 -2.49847 6.50038 0
M  V30 7388 H 699.044 -2.41981 7.20659 0
M  V30 7389 N 700.619 -1.13374 -1.09472 0
M  V30 7390 C 701.867 -0.893422 -1.8128 0
M  V30 7391 C 702.188 0.582029 -1.86111 0
M  V30 7392 O 701.458 1.42305 -1.34633 0
M  V30 7393 H 700.038 -0.327543 -0.67136 0
M  V30 7394 H 702.7 -1.43018 -1.32408 0
M  V30 7395 H 701.796 -1.28374 -2.84476 0
M  V30 7396 N 702.098 1.27442 -0.927168 0
M  V30 7397 C 703.326 1.98498 -0.583622 0
M  V30 7398 C 703.741 1.69171 0.838241 0
M  V30 7399 O 703.098 0.951969 1.55704 0
M  V30 7400 C 703.149 3.52552 -0.799341 0
M  V30 7401 O 702.87 3.80851 -2.16527 0
M  V30 7402 C 704.371 4.4086 -0.464436 0
M  V30 7403 H 701.591 0.633487 -0.221213 0
M  V30 7404 H 704.135 1.62308 -1.24404 0
M  V30 7405 H 702.29 3.86955 -0.185728 0
M  V30 7406 H 702.704 4.75441 -2.21487 0
M  V30 7407 H 704.178 5.47967 -0.666075 0
M  V30 7408 H 704.655 4.35082 0.599995 0
M  V30 7409 H 705.261 4.11977 -1.05617 0
M  V30 7410 N 703.576 0.692616 1.41565 0
M  V30 7411 C 704.804 0.231279 2.05603 0
M  V30 7412 C 705.219 -1.11837 1.52111 0
M  V30 7413 O 704.576 -1.6983 0.66813 0
M  V30 7414 C 704.627 0.177125 3.61066 0
M  V30 7415 O 704.348 1.47346 4.12578 0
M  V30 7416 C 705.849 -0.30556 4.42246 0
M  V30 7417 H 703.069 0.108238 0.662213 0
M  V30 7418 H 705.613 0.944369 1.81389 0
M  V30 7419 H 703.768 -0.486769 3.8433 0
M  V30 7420 H 704.182 1.35861 5.06599 0
M  V30 7421 H 705.656 -0.29233 5.51225 0
M  V30 7422 H 706.133 -1.34393 4.18133 0
M  V30 7423 H 706.739 0.327229 4.24039 0
M  V30 7424 N 705.054 -1.51416 0.437162 0
M  V30 7425 C 706.303 -2.01275 -0.130865 0
M  V30 7426 C 706.616 -1.32593 -1.438 0
M  V30 7427 O 707.822 -1.7342 -2.08897 0
M  V30 7428 C 706.278 -3.5878 -0.283763 0
M  V30 7429 C 705.886 -4.36399 1.01293 0
M  V30 7430 C 707.63 -4.16786 -0.805569 0
M  V30 7431 C 705.537 -5.85608 0.825687 0
M  V30 7432 H 704.467 -0.752157 -0.0526818 0
M  V30 7433 H 707.118 -1.74524 0.566896 0
M  V30 7434 H 705.5 -3.81976 -1.04452 0
M  V30 7435 H 706.674 -4.24948 1.78201 0
M  V30 7436 H 704.989 -3.89843 1.46326 0
M  V30 7437 H 707.586 -5.25972 -0.962146 0
M  V30 7438 H 707.929 -3.75949 -1.78796 0
M  V30 7439 H 708.462 -3.97666 -0.103125 0
M  V30 7440 H 705.201 -6.30857 1.78045 0
M  V30 7441 H 704.721 -5.99723 0.0964029 0
M  V30 7442 H 706.4 -6.45226 0.478815 0
M  V30 7443 N 706.532 -0.168513 -1.56696 0
M  V30 7444 C 707.757 0.486688 -2.01609 0
M  V30 7445 C 708.182 1.56203 -1.04796 0
M  V30 7446 O 707.54 1.8128 -0.0270596 0
M  V30 7447 C 707.588 1.04451 -3.45141 0
M  V30 7448 O 706.692 2.15862 -3.51393 0
M  V30 7449 H 706.033 0.116831 -0.653641 0
M  V30 7450 H 708.563 -0.271579 -2.0279 0
M  V30 7451 H 708.573 1.36782 -3.84389 0
M  V30 7452 H 707.248 0.257155 -4.15104 0
M  V30 7453 H 705.825 1.84597 -3.24004 0
M  V30 7454 N 708.01 1.57248 0.105221 0
M  V30 7455 C 708.958 2.02337 1.14728 0
M  V30 7456 C 709.952 0.922652 1.42069 0
M  V30 7457 O 711.158 1.10785 1.41869 0
M  V30 7458 H 707.533 0.644682 0.387155 0
M  V30 7459 H 709.504 2.89063 0.740607 0
M  V30 7460 C 708.253 2.45513 2.46209 0
M  V30 7461 H 707.576 3.29785 2.26013 0
M  V30 7462 H 709.016 2.80846 3.1765 0
M  V30 7463 C 707.475 1.3243 3.09781 0
M  V30 7464 O 708.005 0.647841 3.96442 0
M  V30 7465 N 706.211 1.07785 2.69872 0
M  V30 7466 H 705.758 1.62973 1.99493 0
M  V30 7467 H 705.716 0.323204 3.12734 0
M  V30 7468 N 709.488 -0.375779 1.53054 0
M  V30 7469 C 710.436 -1.48015 1.79428 0
M  V30 7470 C 711.43 -1.55893 0.662854 0
M  V30 7471 O 712.636 -1.58901 0.845599 0
M  V30 7472 H 709.011 -0.492887 0.56795 0
M  V30 7473 H 710.982 -1.22971 2.71884 0
M  V30 7474 C 709.731 -2.84984 1.99197 0
M  V30 7475 H 709.054 -2.79677 2.85693 0
M  V30 7476 H 710.494 -3.61462 2.21633 0
M  V30 7477 C 708.953 -3.28025 0.768183 0
M  V30 7478 O 709.483 -4.01671 -0.0480482 0
M  V30 7479 N 707.689 -2.84454 0.594521 0
M  V30 7480 H 707.236 -2.24688 1.25988 0
M  V30 7481 H 707.194 -3.13609 -0.222916 0
M  V30 7482 N 710.966 -1.44241 -0.634997 0
M  V30 7483 C 712.215 -1.46102 -1.39058 0
M  V30 7484 C 712.528 -0.0959909 -1.95364 0
M  V30 7485 O 713.734 0.00788751 -2.71499 0
M  V30 7486 C 712.19 -2.57195 -2.51751 0
M  V30 7487 C 711.798 -3.99888 -2.01974 0
M  V30 7488 C 713.542 -2.68272 -3.28984 0
M  V30 7489 C 711.449 -5.02412 -3.11987 0
M  V30 7490 H 710.379 -0.543556 -0.522554 0
M  V30 7491 H 713.03 -1.70294 -0.683538 0
M  V30 7492 H 711.412 -2.26237 -3.25012 0
M  V30 7493 H 712.586 -4.40396 -1.35604 0
M  V30 7494 H 710.901 -3.93019 -1.37568 0
M  V30 7495 H 713.498 -3.42042 -4.10988 0
M  V30 7496 H 713.841 -1.73957 -3.78212 0
M  V30 7497 H 714.374 -2.98622 -2.62812 0
M  V30 7498 H 711.113 -5.98342 -2.67707 0
M  V30 7499 H 710.633 -4.66501 -3.77011 0
M  V30 7500 H 712.312 -5.25939 -3.76825 0
M  V30 7501 N 712.444 0.87505 -1.31075 0
M  V30 7502 C 713.391 1.98178 -1.18296 0
M  V30 7503 C 714.361 1.65952 -0.0699923 0
M  V30 7504 O 715.546 1.8926 -0.241951 0
M  V30 7505 C 712.686 3.33399 -0.891024 0
M  V30 7506 C 711.799 3.78253 -2.08684 0
M  V30 7507 C 710.934 5.02166 -1.73212 0
M  V30 7508 C 709.973 5.39455 -2.89231 0
M  V30 7509 N 709.11 6.54549 -2.53989 0
M  V30 7510 H 713.95 2.0844 -2.12971 0
M  V30 7511 H 711.487 1.02047 -1.05948 0
M  V30 7512 H 713.445 4.11246 -0.702338 0
M  V30 7513 H 712.075 3.22794 0.0188799 0
M  V30 7514 H 711.127 2.9623 -2.38646 0
M  V30 7515 H 712.439 4.01821 -2.95536 0
M  V30 7516 H 711.593 5.87666 -1.50777 0
M  V30 7517 H 710.332 4.80491 -0.83544 0
M  V30 7518 H 709.337 4.52477 -3.12321 0
M  V30 7519 H 710.562 5.63098 -3.79601 0
M  V30 7520 H 708.508 6.3443 -1.66838 0
M  V30 7521 H 708.425 6.78035 -3.34372 0
M  V30 7522 H 709.693 7.43254 -2.34934 0
M  V30 7523 N 713.922 1.13953 1.08869 0
M  V30 7524 C 715.152 0.926825 1.84644 0
M  V30 7525 C 715.56 -0.527941 1.81685 0
M  V30 7526 O 714.903 -1.37742 1.21543 0
M  V30 7527 C 714.965 1.34416 3.33426 0
M  V30 7528 C 714.629 2.81351 3.60126 0
M  V30 7529 C 715.626 3.79486 3.55368 0
M  V30 7530 C 713.311 3.1865 3.88288 0
M  V30 7531 C 715.305 5.1293 3.78393 0
M  V30 7532 C 712.992 4.5227 4.10968 0
M  V30 7533 C 713.99 5.4922 4.06013 0
M  V30 7534 O 713.678 6.80429 4.28102 0
M  V30 7535 H 713.41 0.33013 0.589907 0
M  V30 7536 H 715.964 1.51738 1.38436 0
M  V30 7537 H 714.194 0.696901 3.80368 0
M  V30 7538 H 715.883 1.10302 3.90626 0
M  V30 7539 H 716.649 3.52017 3.3363 0
M  V30 7540 H 712.528 2.43785 3.91267 0
M  V30 7541 H 716.072 5.88591 3.74442 0
M  V30 7542 H 711.969 4.79462 4.32188 0
M  V30 7543 H 712.737 6.86617 4.45533 0
M  V30 7544 N 715.4 -1.26948 0.933913 0
M  V30 7545 C 716.648 -1.93704 0.576484 0
M  V30 7546 C 716.969 -1.73702 -0.886145 0
M  V30 7547 O 716.239 -1.08838 -1.62884 0
M  V30 7548 H 714.819 -0.716812 0.210214 0
M  V30 7549 H 717.481 -1.54534 1.18766 0
M  V30 7550 H 716.577 -3.01987 0.788055 0
M  V30 7551 N 716.879 -0.700114 -1.41195 0
M  V30 7552 C 718.295 -0.372114 -1.55201 0
M  V30 7553 C 718.495 1.12053 -1.6747 0
M  V30 7554 O 717.551 1.90642 -1.65566 0
M  V30 7555 C 718.864 -1.12462 -2.78878 0
M  V30 7556 C 720.412 -1.10941 -2.92679 0
M  V30 7557 C 720.887 -1.84376 -4.19249 0
M  V30 7558 N 722.378 -1.81368 -4.26216 0
M  V30 7559 C 723.113 -2.35024 -5.23021 0
M  V30 7560 N 722.609 -2.9717 -6.25829 0
M  V30 7561 N 724.402 -2.25254 -5.14992 0
M  V30 7562 H 716.553 -1.66816 -1.31477 0
M  V30 7563 H 718.816 -0.704223 -0.634644 0
M  V30 7564 H 718.522 -2.17937 -2.76037 0
M  V30 7565 H 718.396 -0.706152 -3.70531 0
M  V30 7566 H 720.783 -0.062911 -2.95033 0
M  V30 7567 H 720.864 -1.56698 -2.02187 0
M  V30 7568 H 720.508 -2.89008 -4.17656 0
M  V30 7569 H 720.438 -1.3605 -5.08722 0
M  V30 7570 H 722.929 -1.36062 -3.52556 0
M  V30 7571 H 723.242 -3.35668 -6.96094 0
M  V30 7572 H 721.587 -3.01249 -6.26318 0
M  V30 7573 H 724.778 -1.76372 -4.33602 0
M  V30 7574 H 724.951 -2.67373 -5.90268 0
M  V30 7575 N 718.357 1.51182 -0.445186 0
M  V30 7576 C 719.634 1.9478 0.178965 0
M  V30 7577 C 720.014 1.38428 1.59376 0
M  V30 7578 O 719.362 0.574552 2.21159 0
M  V30 7579 C 719.572 3.48683 0.148711 0
M  V30 7580 C 720.92 4.23152 0.35042 0
M  V30 7581 O 721.944 3.55479 0.226474 0
M  V30 7582 O 720.803 5.4322 0.597893 0
M  V30 7583 H 717.897 0.817387 0.12573 0
M  V30 7584 H 720.443 1.62051 -0.503729 0
M  V30 7585 H 719.215 3.82176 -0.84009 0
M  V30 7586 H 718.838 3.87875 0.873979 0
M  V30 7587 N 719.835 0.176821 1.56605 0
M  V30 7588 C 721.112 -0.513365 1.88743 0
M  V30 7589 C 721.492 -1.80929 1.08757 0
M  V30 7590 O 720.84 -2.27765 0.183127 0
M  V30 7591 C 721.05 -0.749925 3.40848 0
M  V30 7592 C 722.398 -1.07747 4.10701 0
M  V30 7593 O 723.422 -0.838277 3.46196 0
M  V30 7594 O 722.281 -1.52901 5.24675 0
M  V30 7595 H 719.375 -0.265296 0.783292 0
M  V30 7596 H 721.921 0.215669 1.68324 0
M  V30 7597 H 720.693 0.16599 3.90948 0
M  V30 7598 H 720.316 -1.53208 3.66897 0
M  V30 7599 N 721.313 -1.57302 -0.09688 0
M  V30 7600 C 722.559 -1.86273 -0.801885 0
M  V30 7601 C 722.892 -0.765694 -1.78468 0
M  V30 7602 O 722.167 0.226495 -1.93177 0
M  V30 7603 C 722.45 -3.25876 -1.53221 0
M  V30 7604 C 722.303 -4.46205 -0.567529 0
M  V30 7605 C 723.622 -3.63352 -2.48321 0
M  V30 7606 H 720.741 -0.67752 -0.29006 0
M  V30 7607 H 723.383 -1.89887 -0.0655577 0
M  V30 7608 H 721.533 -3.22926 -2.15988 0
M  V30 7609 H 723.205 -4.6127 0.0529982 0
M  V30 7610 H 721.448 -4.33636 0.119233 0
M  V30 7611 H 722.119 -5.40608 -1.11564 0
M  V30 7612 H 724.595 -3.67234 -1.95648 0
M  V30 7613 H 723.471 -4.61968 -2.9644 0
M  V30 7614 H 723.732 -2.91941 -3.31998 0
M  V30 7615 N 722.791 0.367657 -1.53252 0
M  V30 7616 C 724.019 1.13119 -1.73239 0
M  V30 7617 C 724.434 1.831 -0.460404 0
M  V30 7618 O 723.791 1.73483 0.566557 0
M  V30 7619 C 723.842 2.16308 -2.89643 0
M  V30 7620 O 723.563 1.49175 -4.1192 0
M  V30 7621 C 725.064 3.05224 -3.21486 0
M  V30 7622 H 722.284 0.338318 -0.579467 0
M  V30 7623 H 724.828 0.42721 -1.99988 0
M  V30 7624 H 722.983 2.82307 -2.65295 0
M  V30 7625 H 723.397 2.17912 -4.7709 0
M  V30 7626 H 724.871 3.73613 -4.06346 0
M  V30 7627 H 725.348 3.69919 -2.36763 0
M  V30 7628 H 725.954 2.44843 -3.47753 0
M  V30 7629 N 724.269 1.44576 0.627338 0
M  V30 7630 C 725.546 1.38033 1.38586 0
M  V30 7631 C 725.926 0.0409468 2.1106 0
M  V30 7632 O 725.274 -0.976582 2.0658 0
M  V30 7633 C 725.484 2.58102 2.34913 0
M  V30 7634 C 726.832 3.02332 2.98129 0
M  V30 7635 O 727.856 2.58334 2.45238 0
M  V30 7636 O 726.715 3.78628 3.94085 0
M  V30 7637 H 723.809 0.546801 0.620434 0
M  V30 7638 H 726.355 1.56672 0.652077 0
M  V30 7639 H 725.127 3.4719 1.80485 0
M  V30 7640 H 724.75 2.41696 3.15703 0
M  V30 7641 N 725.747 -0.868086 1.31537 0
M  V30 7642 C 726.657 -2.00801 1.21311 0
M  V30 7643 C 727.673 -1.73518 0.129431 0
M  V30 7644 O 728.849 -1.98378 0.347588 0
M  V30 7645 C 725.914 -3.3419 0.922935 0
M  V30 7646 C 724.975 -3.74783 2.0937 0
M  V30 7647 C 724.208 -5.01807 1.81728 0
M  V30 7648 O 724.431 -5.65404 0.753313 0
M  V30 7649 O 723.365 -5.39213 2.67457 0
M  V30 7650 H 727.191 -2.12361 2.17109 0
M  V30 7651 H 724.776 -0.996684 1.11295 0
M  V30 7652 H 726.658 -4.14174 0.777033 0
M  V30 7653 H 725.333 -3.237 -0.00500301 0
M  V30 7654 H 724.24 -2.95432 2.29501 0
M  V30 7655 H 725.573 -3.89902 3.00396 0
M  V30 7656 N 727.225 -1.14528 -1.08264 0
M  V30 7657 C 728.135 -0.84728 -2.18765 0
M  V30 7658 C 729.151 0.172826 -1.7314 0
M  V30 7659 O 730.327 0.000985336 -2.014 0
M  V30 7660 C 727.392 -0.330633 -3.4512 0
M  V30 7661 C 726.453 -1.41348 -4.05363 0
M  V30 7662 C 725.686 -0.921387 -5.25686 0
M  V30 7663 O 725.909 0.236587 -5.69909 0
M  V30 7664 O 724.843 -1.70101 -5.77364 0
M  V30 7665 H 728.669 -1.7708 -2.46731 0
M  V30 7666 H 726.254 -0.923661 -1.17426 0
M  V30 7667 H 728.136 -0.0485053 -4.21372 0
M  V30 7668 H 726.811 0.565147 -3.18728 0
M  V30 7669 H 725.718 -1.74908 -3.30693 0
M  V30 7670 H 727.051 -2.28383 -4.36007 0
M  V30 7671 N 728.703 1.26451 -0.940633 0
M  V30 7672 C 729.636 2.24771 -0.394094 0
M  V30 7673 C 730.614 1.54169 0.516781 0
M  V30 7674 O 731.798 1.82942 0.454352 0
M  V30 7675 C 728.925 3.3591 0.433807 0
M  V30 7676 C 727.971 4.24472 -0.415464 0
M  V30 7677 S 728.804 5.0293 -1.83907 0
M  V30 7678 C 729.96 6.17546 -1.01921 0
M  V30 7679 H 730.193 2.70782 -1.22737 0
M  V30 7680 H 727.726 1.35308 -0.743709 0
M  V30 7681 H 729.684 4.00387 0.905576 0
M  V30 7682 H 728.345 2.88512 1.24175 0
M  V30 7683 H 727.538 5.03525 0.218833 0
M  V30 7684 H 727.14 3.64857 -0.821897 0
M  V30 7685 H 729.432 6.76996 -0.261227 0
M  V30 7686 H 730.375 6.8528 -1.78318 0
M  V30 7687 H 730.783 5.6176 -0.555511 0
M  V30 7688 N 730.181 0.707592 1.40822 0
M  V30 7689 C 731.091 0.0507246 2.34545 0
M  V30 7690 C 732.107 -0.752727 1.56876 0
M  V30 7691 O 733.283 -0.687524 1.89302 0
M  V30 7692 C 730.348 -0.865731 3.35717 0
M  V30 7693 C 729.409 -0.0531313 4.29267 0
M  V30 7694 C 728.642 -0.925939 5.25606 0
M  V30 7695 O 728.865 -2.16531 5.27703 0
M  V30 7696 O 727.799 -0.369194 6.00767 0
M  V30 7697 H 731.625 0.823587 2.9232 0
M  V30 7698 H 729.21 0.46801 1.4188 0
M  V30 7699 H 731.092 -1.39091 3.97783 0
M  V30 7700 H 729.767 -1.61788 2.80368 0
M  V30 7701 H 728.674 0.516931 3.70511 0
M  V30 7702 H 730.007 0.660617 4.87747 0
M  V30 7703 N 731.66 -1.50943 0.453197 0
M  V30 7704 C 733.076 -1.59245 0.106342 0
M  V30 7705 C 733.276 -1.46287 -1.38572 0
M  V30 7706 O 732.332 -1.31219 -2.15726 0
M  V30 7707 C 733.645 -2.93797 0.640595 0
M  V30 7708 C 735.193 -3.07148 0.602435 0
M  V30 7709 C 735.668 -4.44247 1.11393 0
M  V30 7710 N 737.159 -4.50611 1.07258 0
M  V30 7711 C 737.894 -5.55049 1.43905 0
M  V30 7712 N 737.39 -6.66828 1.87914 0
M  V30 7713 N 739.183 -5.45494 1.35621 0
M  V30 7714 H 731.334 -1.5761 1.42382 0
M  V30 7715 H 733.597 -0.74384 0.587713 0
M  V30 7716 H 733.303 -3.087 1.68515 0
M  V30 7717 H 733.177 -3.77127 0.0742272 0
M  V30 7718 H 735.564 -2.91903 -0.433171 0
M  V30 7719 H 735.645 -2.25619 1.20539 0
M  V30 7720 H 735.289 -4.60239 2.14808 0
M  V30 7721 H 735.219 -5.2434 0.487353 0
M  V30 7722 H 737.71 -3.70391 0.749585 0
M  V30 7723 H 738.023 -7.42558 2.14072 0
M  V30 7724 H 736.368 -6.67995 1.91853 0
M  V30 7725 H 739.559 -4.57053 1.01093 0
M  V30 7726 H 739.732 -6.2677 1.64508 0
M  V30 7727 N 733.138 -0.185124 -1.56509 0
M  V30 7728 C 734.101 0.72591 -2.17401 0
M  V30 7729 C 735.101 1.14819 -1.12575 0
M  V30 7730 O 736.291 1.0629 -1.38015 0
M  V30 7731 C 733.423 1.98979 -2.76803 0
M  V30 7732 H 734.616 0.195588 -2.99262 0
M  V30 7733 H 732.169 0.0644772 -1.56167 0
M  V30 7734 H 732.904 2.56287 -1.98714 0
M  V30 7735 H 732.689 1.69583 -3.53531 0
M  V30 7736 H 734.179 2.63966 -3.23592 0
M  V30 7737 N 734.616 1.57351 0.0885366 0
M  V30 7738 C 735.579 2.01557 1.09121 0
M  V30 7739 C 736.579 0.910052 1.3257 0
M  V30 7740 O 737.769 1.17537 1.28572 0
M  V30 7741 C 734.901 2.38189 2.43883 0
M  V30 7742 H 736.094 2.91361 0.710562 0
M  V30 7743 H 733.647 1.52694 0.333779 0
M  V30 7744 H 734.382 1.5136 2.86811 0
M  V30 7745 H 734.167 3.18846 2.28209 0
M  V30 7746 H 735.657 2.73025 3.15986 0
M  V30 7747 N 736.094 -0.359525 1.53444 0
M  V30 7748 C 737.51 -0.701599 1.43352 0
M  V30 7749 C 737.71 -1.93049 0.577439 0
M  V30 7750 O 736.766 -2.52423 0.0622224 0
M  V30 7751 C 738.079 -0.90915 2.86627 0
M  V30 7752 C 739.627 -1.00878 2.96298 0
M  V30 7753 C 740.102 -1.24876 4.40647 0
M  V30 7754 N 741.593 -1.31632 4.44103 0
M  V30 7755 C 742.328 -1.51922 5.52908 0
M  V30 7756 N 741.824 -1.69489 6.71748 0
M  V30 7757 N 743.617 -1.54341 5.40496 0
M  V30 7758 H 735.768 0.448685 2.07607 0
M  V30 7759 H 738.031 0.138713 0.937797 0
M  V30 7760 H 737.737 -0.0778997 3.51614 0
M  V30 7761 H 737.611 -1.81551 3.30634 0
M  V30 7762 H 739.998 -1.83057 2.31461 0
M  V30 7763 H 740.079 -0.0796721 2.55676 0
M  V30 7764 H 739.723 -0.431961 5.0606 0
M  V30 7765 H 739.653 -2.19118 4.78848 0
M  V30 7766 H 742.144 -1.19646 3.5846 0
M  V30 7767 H 742.457 -1.84561 7.50438 0
M  V30 7768 H 740.802 -1.66655 6.74723 0
M  V30 7769 H 743.993 -1.40188 4.46615 0
M  V30 7770 H 744.166 -1.69812 6.25354 0
M  V30 7771 N 737.572 -1.44907 -0.619662 0
M  V30 7772 C 738.482 -1.55168 -1.75955 0
M  V30 7773 C 739.498 -0.43672 -1.6843 0
M  V30 7774 O 740.674 -0.695704 -1.89002 0
M  V30 7775 C 737.739 -1.50397 -3.12381 0
M  V30 7776 C 736.8 -2.72835 -3.31451 0
M  V30 7777 C 736.033 -2.68283 -4.61368 0
M  V30 7778 O 736.256 -1.74929 -5.42914 0
M  V30 7779 O 735.19 -3.59308 -4.82889 0
M  V30 7780 H 739.016 -2.51493 -1.7025 0
M  V30 7781 H 736.601 -1.27282 -0.782289 0
M  V30 7782 H 738.483 -1.50301 -3.93685 0
M  V30 7783 H 737.158 -0.572197 -3.18603 0
M  V30 7784 H 736.065 -2.78496 -2.49781 0
M  V30 7785 H 737.398 -3.65098 -3.30098 0
M  V30 7786 N 739.05 0.861098 -1.31996 0
M  V30 7787 C 740.013 1.95068 -1.20338 0
M  V30 7788 C 741.013 1.60289 -0.128114 0
M  V30 7789 O 742.203 1.70048 -0.378044 0
M  V30 7790 C 739.335 3.30153 -0.849205 0
M  V30 7791 H 740.528 2.06833 -2.17164 0
M  V30 7792 H 738.081 1.05049 -1.15734 0
M  V30 7793 H 738.816 3.24087 0.117508 0
M  V30 7794 H 738.601 3.56771 -1.62655 0
M  V30 7795 H 740.091 4.10025 -0.791782 0
M  V30 7796 N 740.528 1.15101 1.07655 0
M  V30 7797 C 741.476 0.840714 2.16875 0
M  V30 7798 C 742.47 -0.184594 1.68391 0
M  V30 7799 O 743.676 -0.0399315 1.79956 0
M  V30 7800 H 740.051 0.254192 0.707736 0
M  V30 7801 H 742.022 1.76959 2.40266 0
M  V30 7802 C 740.771 0.343018 3.46004 0
M  V30 7803 H 740.094 1.12335 3.83694 0
M  V30 7804 H 741.534 0.16453 4.23681 0
M  V30 7805 C 739.993 -0.934881 3.23669 0
M  V30 7806 O 740.523 -2.00706 3.47965 0
M  V30 7807 N 738.729 -0.873167 2.77172 0
M  V30 7808 H 738.276 -0.000479072 2.576 0
M  V30 7809 H 738.234 -1.72873 2.62607 0
M  V30 7810 N 742.006 -1.2595 0.947325 0
M  V30 7811 C 742.969 -2.24407 0.466285 0
M  V30 7812 C 743.969 -1.55054 -0.426005 0
M  V30 7813 O 745.159 -1.7275 -0.224319 0
M  V30 7814 C 742.291 -3.39326 -0.327201 0
M  V30 7815 H 743.484 -2.68477 1.33642 0
M  V30 7816 H 741.037 -1.38211 0.729887 0
M  V30 7817 H 741.772 -3.00667 -1.21532 0
M  V30 7818 H 741.557 -3.9085 0.312839 0
M  V30 7819 H 743.047 -4.12455 -0.653477 0
M  V30 7820 N 743.484 -0.715051 -1.40445 0
M  V30 7821 C 744.714 -0.263576 -2.04912 0
M  V30 7822 C 745.122 1.09943 -1.53978 0
M  V30 7823 O 744.465 1.70203 -0.691133 0
M  V30 7824 C 744.527 -0.165048 -3.59121 0
M  V30 7825 C 744.191 -1.46325 -4.32941 0
M  V30 7826 C 745.188 -2.40506 -4.60926 0
M  V30 7827 C 742.873 -1.72203 -4.7186 0
M  V30 7828 C 744.867 -3.58812 -5.26814 0
M  V30 7829 C 742.554 -2.9079 -5.3748 0
M  V30 7830 C 743.552 -3.83917 -5.64887 0
M  V30 7831 O 743.24 -5.00424 -6.29151 0
M  V30 7832 H 742.972 -0.116317 -0.665918 0
M  V30 7833 H 745.526 -0.973774 -1.8085 0
M  V30 7834 H 743.756 0.601088 -3.82 0
M  V30 7835 H 745.445 0.251794 -4.05118 0
M  V30 7836 H 746.211 -2.21778 -4.31323 0
M  V30 7837 H 742.09 -1.00571 -4.49896 0
M  V30 7838 H 745.634 -4.31517 -5.48123 0
M  V30 7839 H 741.531 -3.09428 -5.66502 0
M  V30 7840 H 742.299 -5.00494 -6.47648 0
M  V30 7841 N 744.962 1.50701 -0.461195 0
M  V30 7842 C 746.239 1.94958 0.158296 0
M  V30 7843 C 746.619 1.40111 1.57899 0
M  V30 7844 O 745.967 0.597976 2.20537 0
M  V30 7845 C 746.177 3.48821 0.11172 0
M  V30 7846 C 747.525 4.23499 0.30552 0
M  V30 7847 O 748.549 3.557 0.188758 0
M  V30 7848 O 747.408 5.43823 0.540244 0
M  V30 7849 H 744.502 0.818674 0.117054 0
M  V30 7850 H 747.048 1.61508 -0.520888 0
M  V30 7851 H 745.82 3.81263 -0.880577 0
M  V30 7852 H 745.443 3.88781 0.832791 0
M  V30 7853 N 746.441 0.193421 1.56409 0
M  V30 7854 C 747.688 -0.445789 1.97532 0
M  V30 7855 C 748.016 -1.61744 1.08024 0
M  V30 7856 O 747.271 -1.95338 0.118982 0
M  V30 7857 C 747.57 -0.949718 3.44551 0
M  V30 7858 C 747.236 0.108383 4.5077 0
M  V30 7859 C 745.898 0.399126 4.79542 0
M  V30 7860 C 748.25 0.825423 5.14622 0
M  V30 7861 C 745.578 1.41192 5.69457 0
M  V30 7862 C 747.93 1.82735 6.05632 0
M  V30 7863 C 746.594 2.12531 6.32761 0
M  V30 7864 H 745.864 -0.163126 0.722822 0
M  V30 7865 H 748.511 0.290035 1.89291 0
M  V30 7866 H 746.816 -1.76378 3.49854 0
M  V30 7867 H 748.513 -1.45367 3.73724 0
M  V30 7868 H 745.103 -0.128392 4.28408 0
M  V30 7869 H 749.287 0.61403 4.92487 0
M  V30 7870 H 744.543 1.6487 5.88751 0
M  V30 7871 H 748.717 2.3882 6.5417 0
M  V30 7872 H 746.344 2.91155 7.02234 0
M  V30 7873 N 747.919 -1.57396 -0.0801906 0
M  V30 7874 C 749.168 -1.8602 -0.779702 0
M  V30 7875 C 749.481 -0.784864 -1.79163 0
M  V30 7876 O 750.687 -0.958691 -2.54011 0
M  V30 7877 C 749.143 -3.29942 -1.43758 0
M  V30 7878 C 748.751 -4.45584 -0.464654 0
M  V30 7879 C 750.495 -3.67775 -2.11995 0
M  V30 7880 C 748.402 -5.80544 -1.12797 0
M  V30 7881 H 747.332 -0.69392 -0.294943 0
M  V30 7882 H 749.983 -1.83471 -0.0328527 0
M  V30 7883 H 748.365 -3.27078 -2.2324 0
M  V30 7884 H 749.539 -4.59824 0.299749 0
M  V30 7885 H 747.854 -4.16247 0.112813 0
M  V30 7886 H 750.451 -4.65896 -2.62383 0
M  V30 7887 H 750.794 -2.9715 -2.91561 0
M  V30 7888 H 751.327 -3.72593 -1.39354 0
M  V30 7889 H 748.066 -6.54439 -0.372807 0
M  V30 7890 H 747.586 -5.70119 -1.86344 0
M  V30 7891 H 749.265 -6.25602 -1.6502 0
M  V30 7892 N 749.397 0.351382 -1.53633 0
M  V30 7893 C 750.33 1.45407 -1.75875 0
M  V30 7894 C 751.308 1.50822 -0.607566 0
M  V30 7895 O 752.492 1.68658 -0.841818 0
M  V30 7896 C 749.619 2.8369 -1.85034 0
M  V30 7897 C 748.665 2.95935 -3.07123 0
M  V30 7898 S 749.498 2.63215 -4.66345 0
M  V30 7899 C 750.654 4.03622 -4.78373 0
M  V30 7900 H 750.887 1.26322 -2.69128 0
M  V30 7901 H 748.42 0.546581 -1.44402 0
M  V30 7902 H 750.378 3.6336 -1.90996 0
M  V30 7903 H 749.039 3.00076 -0.928074 0
M  V30 7904 H 748.232 3.97243 -3.10183 0
M  V30 7905 H 747.834 2.24205 -2.99346 0
M  V30 7906 H 750.126 4.98046 -4.593 0
M  V30 7907 H 751.069 4.05559 -5.80454 0
M  V30 7908 H 751.477 3.91282 -4.06889 0
M  V30 7909 N 750.875 1.45233 0.611969 0
M  V30 7910 C 751.785 1.56098 1.7513 0
M  V30 7911 C 752.801 0.445646 1.68196 0
M  V30 7912 O 753.977 0.705718 1.88631 0
M  V30 7913 C 751.042 1.52052 3.11579 0
M  V30 7914 C 750.103 2.74589 3.29999 0
M  V30 7915 C 749.336 2.70726 4.59938 0
M  V30 7916 O 749.559 1.77806 5.41979 0
M  V30 7917 O 748.493 3.61864 4.80976 0
M  V30 7918 H 752.319 2.52392 1.68914 0
M  V30 7919 H 749.904 1.27695 0.775528 0
M  V30 7920 H 751.786 1.52387 3.92882 0
M  V30 7921 H 750.461 0.589085 3.18295 0
M  V30 7922 H 749.368 2.79817 2.48301 0
M  V30 7923 H 750.701 3.66843 3.28157 0
M  V30 7924 N 752.353 -0.854086 1.3245 0
M  V30 7925 C 753.6 -1.60831 1.23043 0
M  V30 7926 C 753.928 -1.93389 -0.2076 0
M  V30 7927 O 753.183 -1.5756 -1.16075 0
M  V30 7928 C 753.482 -2.93746 2.03587 0
M  V30 7929 C 753.148 -2.80615 3.52939 0
M  V30 7930 C 751.81 -2.76742 3.93659 0
M  V30 7931 C 754.162 -2.66507 4.4791 0
M  V30 7932 C 751.49 -2.56638 5.27592 0
M  V30 7933 C 753.842 -2.47939 5.81987 0
M  V30 7934 C 752.506 -2.42458 6.21909 0
M  V30 7935 H 751.776 -0.588523 0.450247 0
M  V30 7936 H 754.423 -0.990699 1.63882 0
M  V30 7937 H 752.728 -3.5963 1.55478 0
M  V30 7938 H 754.425 -3.51127 1.93677 0
M  V30 7939 H 751.015 -2.84456 3.20598 0
M  V30 7940 H 755.199 -2.68544 4.1737 0
M  V30 7941 H 750.455 -2.50831 5.57579 0
M  V30 7942 H 754.629 -2.36002 6.55192 0
M  V30 7943 H 752.256 -2.2664 7.2563 0
M  V30 7944 N 753.831 -1.1567 -1.07043 0
M  V30 7945 C 755.242 -0.942408 -1.61169 0
M  V30 7946 C 755.593 0.515537 -1.89306 0
M  V30 7947 O 754.718 1.38726 -1.66084 0
M  V30 7948 C 755.313 -1.70431 -2.92812 0
M  V30 7949 C 753.872 -1.53521 -3.43669 0
M  V30 7950 C 753.019 -1.7179 -2.17678 0
M  V30 7951 H 755.97 -1.3065 -0.9009 0
M  V30 7952 H 755.991 -1.17566 -3.61882 0
M  V30 7953 H 755.503 -2.76538 -2.72302 0
M  V30 7954 H 753.604 -0.498224 -3.69254 0
M  V30 7955 H 753.717 -2.31422 -4.19501 0
M  V30 7956 H 752.081 -1.14468 -2.27529 0
M  V30 7957 H 752.864 -2.79269 -1.99659 0
M  V30 7958 N 755.309 1.25446 -0.953992 0
M  V30 7959 C 756.257 2.27909 -0.46478 0
M  V30 7960 C 757.251 1.62904 0.464607 0
M  V30 7961 O 758.457 1.76733 0.341407 0
M  V30 7962 H 754.832 0.74036 -0.131798 0
M  V30 7963 H 756.803 2.66559 -1.34122 0
M  V30 7964 C 755.552 3.46853 0.242589 0
M  V30 7965 H 754.875 3.97105 -0.463418 0
M  V30 7966 H 756.315 4.20432 0.548919 0
M  V30 7967 C 754.774 3.03386 1.46487 0
M  V30 7968 O 755.304 3.09342 2.56262 0
M  V30 7969 N 753.51 2.58584 1.32599 0
M  V30 7970 H 753.057 2.53938 0.432834 0
M  V30 7971 H 753.015 2.29866 2.14497 0
M  V30 7972 N 756.787 0.722489 1.40064 0
M  V30 7973 C 757.734 0.0743738 2.3068 0
M  V30 7974 C 758.704 -0.743004 1.48555 0
M  V30 7975 O 759.889 -0.705536 1.77276 0
M  V30 7976 C 757.029 -0.836292 3.34814 0
M  V30 7977 C 756.142 -0.00764663 4.31999 0
M  V30 7978 C 755.277 -0.918428 5.232 0
M  V30 7979 C 754.316 -0.0842838 6.12042 0
M  V30 7980 N 753.453 -0.950316 6.95639 0
M  V30 7981 H 758.293 0.852794 2.85537 0
M  V30 7982 H 755.83 0.432222 1.40607 0
M  V30 7983 H 757.788 -1.3786 3.93765 0
M  V30 7984 H 756.418 -1.58082 2.81443 0
M  V30 7985 H 755.47 0.651928 3.74772 0
M  V30 7986 H 756.782 0.63786 4.94705 0
M  V30 7987 H 755.936 -1.52902 5.87116 0
M  V30 7988 H 754.675 -1.59774 4.60786 0
M  V30 7989 H 753.68 0.5392 5.4715 0
M  V30 7990 H 754.905 0.591628 6.76518 0
M  V30 7991 H 752.851 -1.61515 6.35806 0
M  V30 7992 H 752.768 -0.361004 7.55138 0
M  V30 7993 H 754.036 -1.54687 7.63997 0
M  V30 7994 N 758.265 -1.50454 0.469181 0
M  V30 7995 C 759.512 -2.02315 -0.086469 0
M  V30 7996 C 759.84 -1.3513 -1.39893 0
M  V30 7997 O 759.095 -0.465341 -1.90087 0
M  V30 7998 C 759.394 -3.55963 -0.320207 0
M  V30 7999 C 759.06 -4.41615 0.910318 0
M  V30 8000 C 757.722 -4.64743 1.2477 0
M  V30 8001 C 760.074 -4.91661 1.72971 0
M  V30 8002 C 757.402 -5.35161 2.40457 0
M  V30 8003 C 759.754 -5.6335 2.87785 0
M  V30 8004 C 758.418 -5.84732 3.2194 0
M  V30 8005 H 757.688 -0.740324 -0.0316412 0
M  V30 8006 H 760.335 -1.81087 0.622872 0
M  V30 8007 H 758.64 -3.75695 -1.11177 0
M  V30 8008 H 760.337 -3.93653 -0.764071 0
M  V30 8009 H 756.927 -4.23833 0.637467 0
M  V30 8010 H 761.111 -4.73649 1.48224 0
M  V30 8011 H 756.367 -5.49924 2.67196 0
M  V30 8012 H 760.541 -6.0111 3.51624 0
M  V30 8013 H 758.168 -6.39074 4.1169 0
M  V30 8014 N 759.743 -0.201713 -1.56304 0
M  V30 8015 C 760.691 0.733133 -2.20744 0
M  V30 8016 C 761.685 1.2148 -1.18064 0
M  V30 8017 O 762.891 1.17692 -1.36193 0
M  V30 8018 H 759.266 0.254789 -0.707521 0
M  V30 8019 H 761.237 0.165996 -2.97938 0
M  V30 8020 C 759.986 1.93925 -2.88597 0
M  V30 8021 H 759.309 1.5777 -3.67353 0
M  V30 8022 H 760.749 2.57158 -3.37114 0
M  V30 8023 C 759.208 2.78219 -1.89989 0
M  V30 8024 O 759.738 3.76353 -1.40432 0
M  V30 8025 N 757.944 2.43847 -1.58072 0
M  V30 8026 H 757.491 1.64103 -1.98565 0
M  V30 8027 H 757.449 3.0053 -0.923524 0
M  V30 8028 N 761.222 1.57436 0.0718424 0
M  V30 8029 C 762.45 1.91474 0.783932 0
M  V30 8030 C 762.865 0.797669 1.71122 0
M  V30 8031 O 762.222 -0.228989 1.81058 0
M  V30 8032 C 762.273 3.25259 1.57761 0
M  V30 8033 O 761.994 4.3267 0.687596 0
M  V30 8034 C 763.495 3.7331 2.3907 0
M  V30 8035 H 760.715 0.632901 0.222885 0
M  V30 8036 H 763.259 2.04457 0.0421262 0
M  V30 8037 H 761.414 3.13804 2.27169 0
M  V30 8038 H 761.828 5.09641 1.23962 0
M  V30 8039 H 763.302 4.69551 2.90216 0
M  V30 8040 H 763.779 3.02318 3.18591 0
M  V30 8041 H 764.385 3.8771 1.74818 0
M  V30 8042 N 762.7 -0.34323 1.53817 0
M  V30 8043 C 763.63 -1.42709 1.84814 0
M  V30 8044 C 764.611 -1.5488 0.703297 0
M  V30 8045 O 765.796 -1.69082 0.955237 0
M  V30 8046 C 762.926 -2.79756 2.05801 0
M  V30 8047 C 761.88 -2.82392 3.21619 0
M  V30 8048 C 761.206 -4.22326 3.2794 0
M  V30 8049 C 762.506 -2.479 4.59721 0
M  V30 8050 H 764.2 -1.17018 2.75585 0
M  V30 8051 H 761.746 -0.561485 1.32602 0
M  V30 8052 H 763.699 -3.55627 2.26069 0
M  V30 8053 H 762.423 -3.06883 1.11761 0
M  V30 8054 H 761.082 -2.08974 3.01207 0
M  V30 8055 H 760.73 -4.46564 2.31494 0
M  V30 8056 H 760.43 -4.25001 4.05768 0
M  V30 8057 H 761.954 -5.00039 3.50419 0
M  V30 8058 H 763.368 -3.13484 4.80001 0
M  V30 8059 H 761.765 -2.61857 5.39954 0
M  V30 8060 H 762.835 -1.43087 4.63308 0
M  V30 8061 N 764.178 -1.45556 -0.604258 0
M  V30 8062 C 765.424 -1.49968 -1.36519 0
M  V30 8063 C 765.757 -0.142236 -1.93678 0
M  V30 8064 O 765.032 0.843717 -1.75247 0
M  V30 8065 C 765.315 -2.58146 -2.51063 0
M  V30 8066 C 765.168 -4.03346 -1.99078 0
M  V30 8067 C 766.487 -2.62581 -3.53184 0
M  V30 8068 H 763.606 -0.545993 -0.495036 0
M  V30 8069 H 766.248 -1.77382 -0.680845 0
M  V30 8070 H 764.398 -2.34901 -3.09441 0
M  V30 8071 H 766.07 -4.37811 -1.45323 0
M  V30 8072 H 764.313 -4.13845 -1.30055 0
M  V30 8073 H 764.984 -4.74731 -2.81664 0
M  V30 8074 H 767.46 -2.83419 -3.04652 0
M  V30 8075 H 766.336 -3.40131 -4.30816 0
M  V30 8076 H 766.597 -1.67798 -4.09019 0
M  V30 8077 N 765.656 0.84705 -1.32902 0
M  V30 8078 C 766.904 1.5986 -1.2365 0
M  V30 8079 C 767.225 1.93974 0.199789 0
M  V30 8080 O 766.495 1.60273 1.12648 0
M  V30 8081 H 765.075 0.592696 -0.454665 0
M  V30 8082 H 767.737 1.01278 -1.66519 0
M  V30 8083 H 766.833 2.53218 -1.82448 0
M  V30 8084 N 767.134 1.16236 1.06428 0
M  V30 8085 C 768.044 0.881976 2.1739 0
M  V30 8086 C 769.06 -0.145259 1.73393 0
M  V30 8087 O 770.236 0.0310558 2.01376 0
M  V30 8088 C 767.301 0.385496 3.4455 0
M  V30 8089 C 766.362 1.47779 4.03063 0
M  V30 8090 C 765.595 1.0049 5.24154 0
M  V30 8091 O 765.818 -0.145889 5.70213 0
M  V30 8092 O 764.752 1.79265 5.74585 0
M  V30 8093 H 768.578 1.80983 2.43883 0
M  V30 8094 H 766.163 0.942226 1.15942 0
M  V30 8095 H 768.045 0.115536 4.21242 0
M  V30 8096 H 766.72 -0.514369 3.19587 0
M  V30 8097 H 765.627 1.80147 3.27869 0
M  V30 8098 H 766.96 2.35291 4.32318 0
M  V30 8099 N 768.612 -1.24939 0.960631 0
M  V30 8100 C 769.559 -2.25658 0.484459 0
M  V30 8101 C 770.529 -1.59422 -0.466242 0
M  V30 8102 O 771.714 -1.87015 -0.378169 0
M  V30 8103 C 768.854 -3.44359 -0.225958 0
M  V30 8104 C 767.967 -4.25214 0.762682 0
M  V30 8105 C 767.102 -5.31192 0.0290931 0
M  V30 8106 C 766.141 -6.03739 1.00827 0
M  V30 8107 N 765.278 -7.01437 0.305155 0
M  V30 8108 H 770.118 -2.65758 1.34821 0
M  V30 8109 H 767.655 -1.30648 0.675983 0
M  V30 8110 H 769.613 -4.12035 -0.654472 0
M  V30 8111 H 768.243 -3.05118 -1.05371 0
M  V30 8112 H 767.295 -3.57144 1.30966 0
M  V30 8113 H 768.607 -4.75406 1.50964 0
M  V30 8114 H 767.761 -6.04971 -0.457763 0
M  V30 8115 H 766.5 -4.81889 -0.750614 0
M  V30 8116 H 765.505 -5.2877 1.50607 0
M  V30 8117 H 766.73 -6.55131 1.7883 0
M  V30 8118 H 764.676 -6.54415 -0.455704 0
M  V30 8119 H 764.593 -7.49475 0.991104 0
M  V30 8120 H 765.861 -7.79336 -0.159966 0
M  V30 8121 N 770.09 -0.729906 -1.39679 0
M  V30 8122 C 771.338 -0.275077 -2.00219 0
M  V30 8123 C 771.659 1.1401 -1.58199 0
M  V30 8124 O 770.929 1.77546 -0.827904 0
M  V30 8125 H 769.509 -0.0987127 -0.740449 0
M  V30 8126 H 772.171 -0.93873 -1.70804 0
M  V30 8127 H 771.267 -0.319446 -3.10461 0
M  V30 8128 N 771.568 1.50203 -0.477153 0
M  V30 8129 C 772.531 2.27194 0.302599 0
M  V30 8130 C 773.531 1.32221 0.915112 0
M  V30 8131 O 774.721 1.55593 0.783348 0
M  V30 8132 C 771.853 3.0938 1.43167 0
M  V30 8133 H 773.046 2.97575 -0.372678 0
M  V30 8134 H 770.599 1.54578 -0.231392 0
M  V30 8135 H 771.334 2.43509 2.14182 0
M  V30 8136 H 771.119 3.79181 0.998197 0
M  V30 8137 H 772.609 3.67592 1.98157 0
M  V30 8138 N 773.046 0.209999 1.56195 0
M  V30 8139 C 773.978 -0.736967 2.17029 0
M  V30 8140 C 774.991 -1.16599 1.13616 0
M  V30 8141 O 776.18 -1.09914 1.40646 0
M  V30 8142 C 773.28 -2.00852 2.72969 0
M  V30 8143 C 772.453 -1.73691 4.01435 0
M  V30 8144 C 771.512 -2.85439 4.42053 0
M  V30 8145 O 770.538 -2.54405 5.09183 0
M  V30 8146 N 771.74 -4.14135 4.06783 0
M  V30 8147 H 774.505 -0.216656 2.98916 0
M  V30 8148 H 772.066 0.0285672 1.61875 0
M  V30 8149 H 774.058 -2.74778 2.97118 0
M  V30 8150 H 772.628 -2.43963 1.95451 0
M  V30 8151 H 771.848 -0.834676 3.85262 0
M  V30 8152 H 773.136 -1.52961 4.85263 0
M  V30 8153 H 772.534 -4.42196 3.52816 0
M  V30 8154 H 771.091 -4.84642 4.35851 0
M  V30 8155 N 774.524 -1.57472 -0.0634922 0
M  V30 8156 C 775.457 -1.99571 -1.10664 0
M  V30 8157 C 776.435 -0.874015 -1.37112 0
M  V30 8158 O 777.619 -1.13702 -1.50347 0
M  V30 8159 C 774.746 -2.3395 -2.44918 0
M  V30 8160 C 773.792 -3.56213 -2.34551 0
M  V30 8161 S 774.625 -5.06727 -1.73169 0
M  V30 8162 C 775.781 -5.44316 -3.08984 0
M  V30 8163 H 776.014 -2.87739 -0.747905 0
M  V30 8164 H 773.547 -1.5198 -0.272316 0
M  V30 8165 H 775.505 -2.54431 -3.22141 0
M  V30 8166 H 774.166 -1.46297 -2.7795 0
M  V30 8167 H 773.359 -3.77812 -3.33578 0
M  V30 8168 H 772.961 -3.35406 -1.65466 0
M  V30 8169 H 775.253 -5.42894 -4.05305 0
M  V30 8170 H 776.196 -6.4502 -2.92156 0
M  V30 8171 H 776.604 -4.71781 -3.09972 0
M  V30 8172 N 776.003 0.335068 -1.53997 0
M  V30 8173 C 777.228 1.09859 -1.75914 0
M  V30 8174 C 777.653 1.81308 -0.500915 0
M  V30 8175 O 777.011 1.72854 0.54693 0
M  V30 8176 C 777.059 2.08122 -2.94478 0
M  V30 8177 O 776.163 3.15805 -2.65219 0
M  V30 8178 H 775.504 0.317313 -0.583274 0
M  V30 8179 H 778.034 0.382872 -2.00986 0
M  V30 8180 H 778.044 2.51195 -3.21504 0
M  V30 8181 H 776.719 1.55517 -3.8573 0
M  V30 8182 H 775.296 2.77489 -2.49107 0
M  V30 8183 N 777.481 1.45874 0.596531 0
M  V30 8184 C 778.729 1.5017 1.35253 0
M  V30 8185 C 779.05 0.149246 1.94428 0
M  V30 8186 O 778.32 -0.82268 1.77789 0
M  V30 8187 H 776.9 0.553052 0.502138 0
M  V30 8188 H 779.562 1.81908 0.699671 0
M  V30 8189 H 778.658 2.24671 2.16632 0
M  V30 8190 N 778.959 -0.83999 1.33349 0
M  V30 8191 C 780.207 -1.59202 1.24496 0
M  V30 8192 C 780.528 -1.94077 -0.189499 0
M  V30 8193 O 779.798 -1.60868 -1.11796 0
M  V30 8194 H 778.378 -0.590276 0.457802 0
M  V30 8195 H 781.04 -1.00394 1.67054 0
M  V30 8196 H 780.136 -2.52247 1.83788 0
M  V30 8197 N 780.437 -1.16799 -1.0581 0
M  V30 8198 C 781.369 -0.836774 -2.13379 0
M  V30 8199 C 782.382 0.158116 -1.6203 0
M  V30 8200 O 783.571 -0.0673211 -1.78373 0
M  V30 8201 C 780.671 -0.225959 -3.38146 0
M  V30 8202 C 779.844 -1.26217 -4.18794 0
M  V30 8203 C 778.903 -0.670257 -5.21914 0
M  V30 8204 O 777.929 -1.34042 -5.53192 0
M  V30 8205 N 779.131 0.540683 -5.77977 0
M  V30 8206 H 781.896 -1.76257 -2.42391 0
M  V30 8207 H 779.457 -1.06599 -1.21853 0
M  V30 8208 H 781.449 0.18317 -4.04285 0
M  V30 8209 H 780.019 0.603494 -3.06719 0
M  V30 8210 H 779.239 -1.84729 -3.48237 0
M  V30 8211 H 780.527 -1.9613 -4.69479 0
M  V30 8212 H 779.925 1.10322 -5.54838 0
M  V30 8213 H 778.482 0.891958 -6.45668 0
M  V30 8214 N 781.915 1.24427 -0.967243 0
M  V30 8215 C 782.862 2.25398 -0.496419 0
M  V30 8216 C 783.832 1.59667 0.457781 0
M  V30 8217 O 785.017 1.87213 0.368246 0
M  V30 8218 C 782.157 3.44474 0.207693 0
M  V30 8219 C 781.27 4.24804 -0.785221 0
M  V30 8220 C 780.405 5.31169 -0.0572631 0
M  V30 8221 C 779.444 6.03195 -1.04027 0
M  V30 8222 N 778.581 7.01265 -0.34235 0
M  V30 8223 H 783.421 2.65039 -1.36229 0
M  V30 8224 H 780.958 1.30288 -0.682902 0
M  V30 8225 H 782.916 4.12376 0.632612 0
M  V30 8226 H 781.546 3.05672 1.03752 0
M  V30 8227 H 780.598 3.56445 -1.32858 0
M  V30 8228 H 781.91 4.74599 -1.53483 0
M  V30 8229 H 781.064 6.05205 0.425674 0
M  V30 8230 H 779.803 4.8228 0.725047 0
M  V30 8231 H 778.808 5.27964 -1.53409 0
M  V30 8232 H 780.033 6.54173 -1.82302 0
M  V30 8233 H 777.979 6.54648 0.420993 0
M  V30 8234 H 777.896 7.48939 -1.03084 0
M  V30 8235 H 779.164 7.7941 0.118634 0
M  V30 8236 N 783.393 0.737304 1.3929 0
M  V30 8237 C 784.325 0.0592106 2.29124 0
M  V30 8238 C 785.338 -0.701026 1.46934 0
M  V30 8239 O 786.527 -0.544808 1.69983 0
M  V30 8240 C 783.627 -0.940358 3.25592 0
M  V30 8241 C 782.8 -0.241163 4.36735 0
M  V30 8242 C 781.859 -1.14916 5.13498 0
M  V30 8243 O 780.885 -0.625783 5.6575 0
M  V30 8244 N 782.087 -2.47869 5.2492 0
M  V30 8245 H 784.852 0.830647 2.87959 0
M  V30 8246 H 782.413 0.586718 1.50895 0
M  V30 8247 H 784.405 -1.55046 3.73822 0
M  V30 8248 H 782.975 -1.61299 2.67771 0
M  V30 8249 H 782.195 0.549441 3.90352 0
M  V30 8250 H 783.483 0.243299 5.08218 0
M  V30 8251 H 782.881 -2.92864 4.83991 0
M  V30 8252 H 781.438 -3.03969 5.76581 0
M  V30 8253 N 784.871 -1.49948 0.485112 0
M  V30 8254 C 786.287 -1.58984 0.140096 0
M  V30 8255 C 786.487 -1.49194 -1.35438 0
M  V30 8256 O 785.543 -1.35765 -2.12894 0
M  V30 8257 C 786.856 -2.92372 0.702769 0
M  V30 8258 C 788.404 -3.05801 0.66745 0
M  V30 8259 C 788.879 -4.41785 1.20791 0
M  V30 8260 N 790.37 -4.48234 1.16792 0
M  V30 8261 C 791.105 -5.51871 1.55646 0
M  V30 8262 N 790.601 -6.62692 2.02016 0
M  V30 8263 N 792.394 -5.42494 1.47161 0
M  V30 8264 H 784.545 -1.54555 1.45693 0
M  V30 8265 H 786.808 -0.731206 0.603359 0
M  V30 8266 H 786.514 -3.05056 1.75025 0
M  V30 8267 H 786.388 -3.76885 0.154205 0
M  V30 8268 H 788.775 -2.92757 -0.371157 0
M  V30 8269 H 788.856 -2.23011 1.25298 0
M  V30 8270 H 788.5 -4.55579 2.24522 0
M  V30 8271 H 788.43 -5.23188 0.598464 0
M  V30 8272 H 790.921 -3.68718 0.827982 0
M  V30 8273 H 791.234 -7.3785 2.29775 0
M  V30 8274 H 789.579 -6.63775 2.05979 0
M  V30 8275 H 792.77 -4.54806 1.10765 0
M  V30 8276 H 792.943 -6.2314 1.77766 0
M  V30 8277 N 786.349 -0.21828 -1.56081 0
M  V30 8278 C 787.598 0.414644 -1.97392 0
M  V30 8279 C 787.911 1.61132 -1.10887 0
M  V30 8280 O 789.117 2.31355 -1.42082 0
M  V30 8281 C 787.573 0.789099 -3.51143 0
M  V30 8282 C 787.181 -0.384578 -4.46346 0
M  V30 8283 C 788.925 1.38781 -4.01173 0
M  V30 8284 C 786.832 0.0121288 -5.91399 0
M  V30 8285 H 785.762 0.158691 -0.737111 0
M  V30 8286 H 788.413 -0.313974 -1.80794 0
M  V30 8287 H 786.795 1.57505 -3.6333 0
M  V30 8288 H 787.969 -1.16212 -4.45905 0
M  V30 8289 H 786.284 -0.896306 -4.06639 0
M  V30 8290 H 788.881 1.69746 -5.07041 0
M  V30 8291 H 789.224 2.30245 -3.46833 0
M  V30 8292 H 789.757 0.665364 -3.92196 0
M  V30 8293 H 786.496 -0.868917 -6.49715 0
M  V30 8294 H 786.016 0.754053 -5.95041 0
M  V30 8295 H 787.695 0.439949 -6.45502 0
M  V30 8296 N 787.827 1.57504 0.0551401 0
M  V30 8297 C 788.79 2.03826 1.04821 0
M  V30 8298 C 789.79 0.937968 1.30609 0
M  V30 8299 O 790.98 1.20237 1.2605 0
M  V30 8300 C 788.112 2.43309 2.38775 0
M  V30 8301 H 789.305 2.92802 0.6486 0
M  V30 8302 H 786.858 1.53368 0.301315 0
M  V30 8303 H 787.593 1.5741 2.83536 0
M  V30 8304 H 787.378 3.23615 2.21395 0
M  V30 8305 H 788.868 2.79666 3.10124 0
M  V30 8306 N 789.305 -0.326896 1.54172 0
M  V30 8307 C 790.554 -1.06274 1.71431 0
M  V30 8308 C 790.867 -1.89282 0.493123 0
M  V30 8309 O 792.073 -2.65933 0.54699 0
M  V30 8310 C 790.529 -1.93892 3.03206 0
M  V30 8311 C 790.137 -1.16011 4.32719 0
M  V30 8312 C 791.881 -2.67232 3.29829 0
M  V30 8313 C 789.788 -2.02755 5.55558 0
M  V30 8314 H 788.718 -0.400475 0.638855 0
M  V30 8315 H 791.369 -0.321184 1.80667 0
M  V30 8316 H 789.751 -2.71933 2.87869 0
M  V30 8317 H 790.925 -0.427643 4.58811 0
M  V30 8318 H 789.24 -0.54367 4.12836 0
M  V30 8319 H 791.837 -3.32434 4.18798 0
M  V30 8320 H 792.18 -3.34692 2.47562 0
M  V30 8321 H 792.713 -1.96255 3.46018 0
M  V30 8322 H 789.452 -1.3981 6.40417 0
M  V30 8323 H 788.972 -2.73745 5.33689 0
M  V30 8324 H 790.651 -2.61419 5.91835 0
M  V30 8325 N 790.784 -1.46188 -0.588786 0
M  V30 8326 C 791.747 -1.55882 -1.68029 0
M  V30 8327 C 792.747 -0.436515 -1.54762 0
M  V30 8328 O 793.937 -0.700626 -1.59489 0
M  V30 8329 C 791.069 -1.47332 -3.07418 0
M  V30 8330 H 792.262 -2.5315 -1.60795 0
M  V30 8331 H 789.815 -1.33908 -0.806116 0
M  V30 8332 H 790.55 -0.513193 -3.20214 0
M  V30 8333 H 790.335 -2.28753 -3.18456 0
M  V30 8334 H 791.825 -1.57187 -3.86887 0
M  V30 8335 N 792.262 0.832906 -1.33792 0
M  V30 8336 C 793.678 1.1245 -1.13257 0
M  V30 8337 C 793.878 2.01369 0.0725832 0
M  V30 8338 O 792.934 2.41071 0.751082 0
M  V30 8339 C 794.247 1.78084 -2.42294 0
M  V30 8340 C 795.795 1.90624 -2.48257 0
M  V30 8341 C 796.27 2.59673 -3.77271 0
M  V30 8342 N 797.761 2.67181 -3.78376 0
M  V30 8343 C 798.496 3.21313 -4.74916 0
M  V30 8344 N 797.992 3.76086 -5.81835 0
M  V30 8345 N 799.785 3.19621 -4.62384 0
M  V30 8346 H 791.936 0.241244 -2.11026 0
M  V30 8347 H 794.199 0.169557 -0.932713 0
M  V30 8348 H 793.905 1.20209 -3.30519 0
M  V30 8349 H 793.779 2.78049 -2.5489 0
M  V30 8350 H 796.166 2.4765 -1.60478 0
M  V30 8351 H 796.247 0.89591 -2.39598 0
M  V30 8352 H 795.891 2.03304 -4.65435 0
M  V30 8353 H 795.821 3.61189 -3.8321 0
M  V30 8354 H 798.312 2.28346 -3.01108 0
M  V30 8355 H 798.625 4.15612 -6.51526 0
M  V30 8356 H 796.97 3.74357 -5.85561 0
M  V30 8357 H 800.161 2.76091 -3.7801 0
M  V30 8358 H 800.334 3.61504 -5.37791 0
M  V30 8359 N 793.74 1.17359 1.05189 0
M  V30 8360 C 794.703 0.892604 2.11105 0
M  V30 8361 C 795.703 -0.117236 1.60372 0
M  V30 8362 O 796.893 0.114936 1.7382 0
M  V30 8363 C 794.025 0.337032 3.3923 0
M  V30 8364 H 795.218 1.83169 2.37464 0
M  V30 8365 H 792.771 0.984051 1.21434 0
M  V30 8366 H 793.506 -0.609198 3.18527 0
M  V30 8367 H 793.291 1.06484 3.77364 0
M  V30 8368 H 794.781 0.158763 4.17298 0
M  V30 8369 N 795.218 -1.23913 0.973828 0
M  V30 8370 C 796.148 -2.27453 0.527969 0
M  V30 8371 C 797.129 -1.6443 -0.435513 0
M  V30 8372 O 798.314 -1.9137 -0.330306 0
M  V30 8373 C 795.444 -3.4685 -0.176757 0
M  V30 8374 C 794.398 -4.22181 0.703352 0
M  V30 8375 C 793.724 -5.34534 -0.133215 0
M  V30 8376 C 795.024 -4.82865 1.99096 0
M  V30 8377 H 796.718 -2.65 1.3934 0
M  V30 8378 H 794.264 -1.27388 0.671446 0
M  V30 8379 H 796.217 -4.18424 -0.499934 0
M  V30 8380 H 794.941 -3.08346 -1.07659 0
M  V30 8381 H 793.6 -3.52416 1.00989 0
M  V30 8382 H 793.248 -4.92271 -1.03338 0
M  V30 8383 H 792.948 -5.85855 0.452494 0
M  V30 8384 H 794.472 -6.08933 -0.450924 0
M  V30 8385 H 795.886 -5.46481 1.73297 0
M  V30 8386 H 794.283 -5.44444 2.52389 0
M  V30 8387 H 795.353 -4.03977 2.68199 0
M  V30 8388 N 796.696 -0.74468 -1.38897 0
M  V30 8389 C 797.942 -0.297324 -2.00609 0
M  V30 8390 C 798.275 1.11547 -1.58968 0
M  V30 8391 O 797.55 1.76227 -0.823057 0
M  V30 8392 C 797.833 -0.410125 -3.57757 0
M  V30 8393 C 797.686 -1.86338 -4.09387 0
M  V30 8394 C 799.005 0.20176 -4.39637 0
M  V30 8395 H 796.124 -0.109509 -0.728819 0
M  V30 8396 H 798.766 -0.942653 -1.64967 0
M  V30 8397 H 796.916 0.139287 -3.8825 0
M  V30 8398 H 798.588 -2.47042 -3.89574 0
M  V30 8399 H 796.831 -2.38146 -3.62586 0
M  V30 8400 H 797.502 -1.89352 -5.18507 0
M  V30 8401 H 799.978 -0.266703 -4.15244 0
M  V30 8402 H 798.854 0.0925415 -5.48822 0
M  V30 8403 H 799.115 1.289 -4.22891 0
M  V30 8404 N 798.174 1.49689 -0.493057 0
M  V30 8405 C 799.59 1.58907 -0.148526 0
M  V30 8406 C 799.79 1.4991 1.34645 0
M  V30 8407 O 798.846 1.36893 2.12171 0
M  V30 8408 C 800.159 2.91996 -0.718265 0
M  V30 8409 C 801.707 3.05443 -0.683658 0
M  V30 8410 C 802.182 4.41138 -1.23132 0
M  V30 8411 N 803.673 4.47608 -1.19167 0
M  V30 8412 C 804.408 5.51038 -1.5857 0
M  V30 8413 N 803.904 6.61612 -2.05528 0
M  V30 8414 N 805.697 5.41706 -1.50036 0
M  V30 8415 H 797.848 1.5378 -1.46511 0
M  V30 8416 H 800.111 0.727996 -0.607228 0
M  V30 8417 H 799.817 3.04123 -1.7664 0
M  V30 8418 H 799.691 3.76798 -0.17419 0
M  V30 8419 H 802.078 2.92949 0.355626 0
M  V30 8420 H 802.159 2.22344 -1.26479 0
M  V30 8421 H 801.803 4.54382 -2.26935 0
M  V30 8422 H 801.733 5.22864 -0.626201 0
M  V30 8423 H 804.224 3.68274 -0.847524 0
M  V30 8424 H 804.537 7.36622 -2.33685 0
M  V30 8425 H 802.882 6.62674 -2.09497 0
M  V30 8426 H 806.073 4.54212 -1.13176 0
M  V30 8427 H 806.246 6.22188 -1.81068 0
M  V30 8428 N 799.652 0.226554 1.55963 0
M  V30 8429 C 800.6 -0.697922 2.21882 0
M  V30 8430 C 801.594 -1.19586 1.19981 0
M  V30 8431 O 802.8 -1.15511 1.38048 0
M  V30 8432 H 799.175 -0.243501 0.711485 0
M  V30 8433 H 801.146 -0.118576 2.98164 0
M  V30 8434 C 799.895 -1.89309 2.91646 0
M  V30 8435 H 799.218 -1.51906 3.69817 0
M  V30 8436 H 800.658 -2.51762 3.41162 0
M  V30 8437 C 799.117 -2.75162 1.94391 0
M  V30 8438 O 799.647 -3.74071 1.46402 0
M  V30 8439 N 797.853 -2.41302 1.61932 0
M  V30 8440 H 797.4 -1.60923 2.01151 0
M  V30 8441 H 797.358 -2.99023 0.971219 0
M  V30 8442 N 801.13 -1.57531 -0.0467866 0
M  V30 8443 C 802.541 -1.76945 -0.595603 0
M  V30 8444 C 802.892 -0.855354 -1.76573 0
M  V30 8445 O 802.017 -0.045668 -2.16352 0
M  V30 8446 C 802.612 -3.20881 -1.08725 0
M  V30 8447 C 801.171 -3.41553 -1.58172 0
M  V30 8448 C 800.318 -2.72533 -0.511968 0
M  V30 8449 H 803.269 -1.57682 0.179436 0
M  V30 8450 H 803.29 -3.26419 -1.95528 0
M  V30 8451 H 802.802 -3.87385 -0.235398 0
M  V30 8452 H 800.903 -2.80199 -2.456 0
M  V30 8453 H 801.016 -4.50104 -1.64143 0
M  V30 8454 H 799.38 -2.35797 -0.962899 0
M  V30 8455 H 800.163 -3.41709 0.330117 0
M  V30 8456 N 802.608 0.318715 -1.54344 0
M  V30 8457 C 803.555 1.39242 -1.84066 0
M  V30 8458 C 804.525 1.51175 -0.688134 0
M  V30 8459 O 805.71 1.66318 -0.935039 0
M  V30 8460 C 802.85 2.75528 -2.07794 0
M  V30 8461 C 801.963 2.72187 -3.35467 0
M  V30 8462 C 801.098 4.00352 -3.4913 0
M  V30 8463 C 800.137 3.91338 -4.7066 0
M  V30 8464 N 799.274 5.11242 -4.81224 0
M  V30 8465 H 804.114 1.13196 -2.75664 0
M  V30 8466 H 801.651 0.547857 -1.36517 0
M  V30 8467 H 803.609 3.54763 -2.19543 0
M  V30 8468 H 802.239 2.99873 -1.19482 0
M  V30 8469 H 801.291 1.84917 -3.3243 0
M  V30 8470 H 802.603 2.61411 -4.24812 0
M  V30 8471 H 801.757 4.88019 -3.60448 0
M  V30 8472 H 800.496 4.1394 -2.57886 0
M  V30 8473 H 799.501 3.02055 -4.59394 0
M  V30 8474 H 800.726 3.7931 -5.63294 0
M  V30 8475 H 798.672 5.25327 -3.92897 0
M  V30 8476 H 798.589 5.0282 -5.64543 0
M  V30 8477 H 799.857 6.0061 -4.96879 0
M  V30 8478 N 804.086 1.46499 0.581025 0
M  V30 8479 C 805.335 1.51162 1.3354 0
M  V30 8480 C 805.648 0.168433 1.94873 0
M  V30 8481 O 806.854 0.092883 2.71341 0
M  V30 8482 C 805.31 2.66362 2.42032 0
M  V30 8483 C 804.918 4.07109 1.86994 0
M  V30 8484 C 806.662 2.80297 3.188 0
M  V30 8485 C 804.569 5.13645 2.93125 0
M  V30 8486 H 803.499 0.562576 0.502021 0
M  V30 8487 H 806.15 1.72713 0.619863 0
M  V30 8488 H 804.532 2.38143 3.16392 0
M  V30 8489 H 805.706 4.45125 1.19166 0
M  V30 8490 H 804.021 3.97854 1.22887 0
M  V30 8491 H 806.618 3.5706 3.9801 0
M  V30 8492 H 806.961 1.87875 3.71495 0
M  V30 8493 H 807.494 3.0817 2.51547 0
M  V30 8494 H 804.233 6.07866 2.45315 0
M  V30 8495 H 803.753 4.80172 3.59437 0
M  V30 8496 H 805.432 5.39562 3.57046 0
M  V30 8497 N 805.565 -0.825799 1.34232 0
M  V30 8498 C 806.495 -1.95151 1.28212 0
M  V30 8499 C 807.476 -1.69345 0.160123 0
M  V30 8500 O 808.661 -1.90983 0.352019 0
M  V30 8501 C 805.791 -3.31554 1.03388 0
M  V30 8502 C 804.745 -3.71793 2.12023 0
M  V30 8503 C 804.071 -5.06147 1.72392 0
M  V30 8504 C 805.371 -3.84193 3.53826 0
M  V30 8505 H 807.065 -2.00445 2.22401 0
M  V30 8506 H 804.611 -0.962996 1.07063 0
M  V30 8507 H 806.564 -4.09889 0.978225 0
M  V30 8508 H 805.288 -3.26551 0.0564142 0
M  V30 8509 H 803.947 -2.95731 2.16654 0
M  V30 8510 H 803.595 -4.97628 0.733137 0
M  V30 8511 H 803.295 -5.34041 2.451 0
M  V30 8512 H 804.819 -5.86943 1.68317 0
M  V30 8513 H 806.233 -4.52806 3.51624 0
M  V30 8514 H 804.63 -4.23538 4.2513 0
M  V30 8515 H 805.7 -2.86272 3.91377 0
M  V30 8516 N 807.043 -1.17915 -1.04565 0
M  V30 8517 C 808.292 -0.965816 -1.77073 0
M  V30 8518 C 808.605 0.506005 -1.88942 0
M  V30 8519 O 809.811 0.837717 -2.58253 0
M  V30 8520 C 808.267 -1.67894 -3.18339 0
M  V30 8521 C 807.875 -3.18972 -3.1458 0
M  V30 8522 C 809.619 -1.54823 -3.9526 0
M  V30 8523 C 807.526 -3.82946 -4.50674 0
M  V30 8524 H 806.456 -0.357729 -0.663736 0
M  V30 8525 H 809.107 -1.41235 -1.17153 0
M  V30 8526 H 807.489 -1.16016 -3.78624 0
M  V30 8527 H 808.663 -3.77835 -2.63776 0
M  V30 8528 H 806.978 -3.32127 -2.51159 0
M  V30 8529 H 809.575 -1.99984 -4.95894 0
M  V30 8530 H 809.918 -0.499727 -4.1329 0
M  V30 8531 H 810.451 -2.03953 -3.41538 0
M  V30 8532 H 807.19 -4.8782 -4.37849 0
M  V30 8533 H 806.71 -3.2887 -5.01602 0
M  V30 8534 H 808.389 -3.85518 -5.196 0
M  V30 8535 N 808.521 1.23394 -0.980386 0
M  V30 8536 C 809.451 2.2717 -0.540024 0
M  V30 8537 C 810.432 1.64659 0.426787 0
M  V30 8538 O 811.617 1.91543 0.320153 0
M  V30 8539 C 808.747 3.46939 0.15836 0
M  V30 8540 C 807.701 4.21802 -0.725732 0
M  V30 8541 C 807.027 5.34597 0.104866 0
M  V30 8542 C 808.327 4.81802 -2.01654 0
M  V30 8543 H 810.021 2.64257 -1.40743 0
M  V30 8544 H 807.567 1.2703 -0.678193 0
M  V30 8545 H 809.52 4.18683 0.477737 0
M  V30 8546 H 808.244 3.08912 1.06022 0
M  V30 8547 H 806.903 3.51875 -1.02857 0
M  V30 8548 H 806.551 4.92812 1.00726 0
M  V30 8549 H 806.251 5.85607 -0.483557 0
M  V30 8550 H 807.775 6.09163 0.418624 0
M  V30 8551 H 809.189 5.45554 -1.76193 0
M  V30 8552 H 807.586 5.43098 -2.55273 0
M  V30 8553 H 808.656 4.02549 -2.70338 0
M  V30 8554 N 809.999 0.752036 1.385 0
M  V30 8555 C 811.276 0.233075 1.94206 0
M  V30 8556 C 811.656 -1.26838 1.68746 0
M  V30 8557 O 811.004 -2.04214 1.02513 0
M  V30 8558 C 811.214 0.58509 3.44061 0
M  V30 8559 C 812.562 0.543871 4.21102 0
M  V30 8560 O 813.586 0.523291 3.52335 0
M  V30 8561 O 812.445 0.553436 5.4369 0
M  V30 8562 H 809.539 0.0483049 0.825588 0
M  V30 8563 H 812.085 0.832053 1.47902 0
M  V30 8564 H 810.857 1.62212 3.56094 0
M  V30 8565 H 810.48 -0.0419738 3.97578 0
M  V30 8566 N 811.477 -1.49425 0.500989 0
M  V30 8567 C 812.387 -2.32899 -0.282011 0
M  V30 8568 C 813.403 -1.44632 -0.967346 0
M  V30 8569 O 814.579 -1.77654 -0.94873 0
M  V30 8570 C 811.644 -3.20069 -1.33253 0
M  V30 8571 C 810.705 -4.24186 -0.660636 0
M  V30 8572 C 809.938 -5.07191 -1.6611 0
M  V30 8573 O 810.161 -4.91712 -2.89094 0
M  V30 8574 O 809.095 -5.8948 -1.21643 0
M  V30 8575 H 812.921 -3.01038 0.401224 0
M  V30 8576 H 810.506 -1.47079 0.262323 0
M  V30 8577 H 812.388 -3.74071 -1.94033 0
M  V30 8578 H 811.063 -2.54625 -1.9987 0
M  V30 8579 H 809.97 -3.74098 -0.0130959 0
M  V30 8580 H 811.303 -4.92186 -0.0369179 0
M  V30 8581 N 812.955 -0.234822 -1.55841 0
M  V30 8582 C 813.918 0.656378 -2.196 0
M  V30 8583 C 814.918 1.11179 -1.16171 0
M  V30 8584 O 816.108 1.01845 -1.41326 0
M  V30 8585 C 813.24 1.90072 -2.82993 0
M  V30 8586 H 814.433 0.100281 -2.99732 0
M  V30 8587 H 811.986 0.0147613 -1.56293 0
M  V30 8588 H 812.721 2.49836 -2.06767 0
M  V30 8589 H 812.506 1.5825 -3.58747 0
M  V30 8590 H 813.996 2.53538 -3.31826 0
M  V30 8591 N 814.433 1.57553 0.0384317 0
M  V30 8592 C 815.661 1.93093 0.743141 0
M  V30 8593 C 816.076 0.833787 1.69391 0
M  V30 8594 O 815.433 -0.190532 1.81503 0
M  V30 8595 C 815.484 3.28533 1.50826 0
M  V30 8596 O 815.205 4.34032 0.595665 0
M  V30 8597 C 816.706 3.78297 2.31098 0
M  V30 8598 H 813.926 0.637486 0.20941 0
M  V30 8599 H 816.47 2.045 -0.00125154 0
M  V30 8600 H 814.625 3.18552 2.20462 0
M  V30 8601 H 815.039 5.12155 1.13124 0
M  V30 8602 H 816.513 4.75602 2.80191 0
M  V30 8603 H 816.99 3.09008 3.12107 0
M  V30 8604 H 817.596 3.91331 1.66555 0
M  V30 8605 N 815.911 -0.310526 1.54511 0
M  V30 8606 C 817.136 -1.07046 1.7764 0
M  V30 8607 C 817.561 -1.80488 0.529696 0
M  V30 8608 O 816.919 -1.73702 -0.519361 0
M  V30 8609 C 816.967 -2.03411 2.97752 0
M  V30 8610 O 816.071 -3.11545 2.7021 0
M  V30 8611 H 815.412 -0.307994 0.588248 0
M  V30 8612 H 817.942 -0.350848 2.01569 0
M  V30 8613 H 817.952 -2.46048 3.2546 0
M  V30 8614 H 816.627 -1.49361 3.88155 0
M  V30 8615 H 815.204 -2.7349 2.53491 0
M  V30 8616 N 817.389 -1.46805 -0.573248 0
M  V30 8617 C 818.352 -1.57655 -1.66366 0
M  V30 8618 C 819.352 -0.452905 -1.5429 0
M  V30 8619 O 820.542 -0.717502 -1.58737 0
M  V30 8620 C 817.674 -1.50584 -3.05839 0
M  V30 8621 H 818.867 -2.54842 -1.581 0
M  V30 8622 H 816.42 -1.34756 -0.791868 0
M  V30 8623 H 817.155 -0.547127 -3.19651 0
M  V30 8624 H 816.94 -2.32118 -3.16012 0
M  V30 8625 H 818.43 -1.61282 -3.85199 0
M  V30 8626 N 818.867 0.818669 -1.34668 0
M  V30 8627 C 819.797 1.94468 -1.29245 0
M  V30 8628 C 820.778 1.69257 -0.169101 0
M  V30 8629 O 821.963 1.90794 -0.362143 0
M  V30 8630 C 819.093 3.31001 -1.05145 0
M  V30 8631 C 818.047 3.70663 -2.13992 0
M  V30 8632 C 817.373 5.05226 -1.75074 0
M  V30 8633 C 818.673 3.82312 -3.55858 0
M  V30 8634 H 820.367 1.99263 -2.2346 0
M  V30 8635 H 817.913 0.957304 -1.07572 0
M  V30 8636 H 819.866 4.09364 -0.999949 0
M  V30 8637 H 818.59 3.26517 -0.0737312 0
M  V30 8638 H 817.249 2.94578 -2.18219 0
M  V30 8639 H 816.897 4.97233 -0.759518 0
M  V30 8640 H 816.597 5.32734 -2.47928 0
M  V30 8641 H 818.121 5.86042 -1.71427 0
M  V30 8642 H 819.535 4.50935 -3.5402 0
M  V30 8643 H 817.932 4.21278 -4.2737 0
M  V30 8644 H 819.002 2.84193 -3.9289 0
M  V30 8645 N 820.346 1.18468 1.03938 0
M  V30 8646 C 821.623 0.890435 1.74157 0
M  V30 8647 C 822.003 -0.606409 2.02203 0
M  V30 8648 O 821.351 -1.5615 1.66822 0
M  V30 8649 C 821.561 1.73906 3.02585 0
M  V30 8650 C 822.909 1.96686 3.76297 0
M  V30 8651 O 823.933 1.70969 3.12487 0
M  V30 8652 O 822.792 2.39986 4.90988 0
M  V30 8653 H 819.886 0.330889 0.757919 0
M  V30 8654 H 822.432 1.29228 1.09992 0
M  V30 8655 H 821.204 2.75369 2.78006 0
M  V30 8656 H 820.827 1.33581 3.74489 0
M  V30 8657 N 821.824 -1.22873 0.986916 0
M  V30 8658 C 823.049 -1.96028 0.677341 0
M  V30 8659 C 823.474 -1.72487 -0.750319 0
M  V30 8660 O 822.832 -1.00036 -1.51203 0
M  V30 8661 C 822.88 -3.46983 0.981593 0
M  V30 8662 O 821.984 -4.12328 0.0770729 0
M  V30 8663 H 821.325 -0.613458 0.254096 0
M  V30 8664 H 823.855 -1.56132 1.32227 0
M  V30 8665 H 823.865 -3.9747 0.920969 0
M  V30 8666 H 822.54 -3.63442 2.02194 0
M  V30 8667 H 821.117 -3.72402 0.192666 0
M  V30 8668 N 823.302 -0.75937 -1.38099 0
M  V30 8669 C 824.212 -0.13774 -2.34195 0
M  V30 8670 C 825.228 0.693985 -1.59561 0
M  V30 8671 O 826.404 0.616792 -1.91723 0
M  V30 8672 C 823.469 0.740535 -3.38699 0
M  V30 8673 C 822.53 -0.106225 -4.29169 0
M  V30 8674 C 821.763 0.730225 -5.28681 0
M  V30 8675 O 821.986 1.96796 -5.35376 0
M  V30 8676 O 820.92 0.145969 -6.01723 0
M  V30 8677 H 824.746 -0.931512 -2.89061 0
M  V30 8678 H 822.331 -0.520345 -1.40046 0
M  V30 8679 H 824.213 1.24232 -4.02672 0
M  V30 8680 H 822.888 1.51271 -2.8618 0
M  V30 8681 H 821.795 -0.654088 -3.68337 0
M  V30 8682 H 823.128 -0.841186 -4.84959 0
M  V30 8683 N 824.78 1.49157 -0.508906 0
M  V30 8684 C 826.005 2.07376 0.0315182 0
M  V30 8685 C 826.43 1.36575 1.2934 0
M  V30 8686 O 825.788 0.424963 1.76249 0
M  V30 8687 C 825.836 3.59661 0.260118 0
M  V30 8688 O 824.94 3.90255 1.33322 0
M  V30 8689 H 824.281 0.663334 -0.029739 0
M  V30 8690 H 826.811 1.91857 -0.710791 0
M  V30 8691 H 826.821 4.05056 0.489225 0
M  V30 8692 H 825.496 4.10601 -0.661794 0
M  V30 8693 H 824.073 3.56661 1.08844 0
M  V30 8694 N 826.258 0.243083 1.55714 0
M  V30 8695 C 827.205 -0.658078 2.21219 0
M  V30 8696 C 828.175 -1.1742 1.17481 0
M  V30 8697 O 829.36 -1.22937 1.45915 0
M  V30 8698 C 826.5 -1.85104 2.91257 0
M  V30 8699 C 825.613 -1.3718 4.09641 0
M  V30 8700 C 824.748 -2.52403 4.67404 0
M  V30 8701 C 823.787 -2.01321 5.78045 0
M  V30 8702 N 822.924 -3.09896 6.30007 0
M  V30 8703 H 827.764 -0.0927854 2.97856 0
M  V30 8704 H 825.301 -0.0340375 1.47061 0
M  V30 8705 H 827.259 -2.55179 3.3006 0
M  V30 8706 H 825.889 -2.38887 2.17101 0
M  V30 8707 H 824.941 -0.565232 3.76177 0
M  V30 8708 H 826.253 -0.957409 4.89525 0
M  V30 8709 H 825.407 -3.30525 5.08761 0
M  V30 8710 H 824.146 -2.97142 3.86728 0
M  V30 8711 H 823.151 -1.21667 5.36169 0
M  V30 8712 H 824.376 -1.57556 6.6057 0
M  V30 8713 H 822.322 -3.54077 5.52237 0
M  V30 8714 H 822.239 -2.72776 7.05074 0
M  V30 8715 H 823.507 -3.8809 6.76023 0
M  V30 8716 N 827.736 -1.57571 -0.0300757 0
M  V30 8717 C 828.961 -1.93879 -0.736601 0
M  V30 8718 C 829.386 -0.842998 -1.68152 0
M  V30 8719 O 828.744 0.20135 -1.80178 0
M  V30 8720 C 828.792 -3.29247 -1.47066 0
M  V30 8721 O 827.896 -3.21426 -2.58378 0
M  V30 8722 H 827.237 -0.633735 -0.198181 0
M  V30 8723 H 829.767 -2.04595 0.0141485 0
M  V30 8724 H 829.777 -3.64113 -1.84081 0
M  V30 8725 H 828.452 -4.08565 -0.77764 0
M  V30 8726 H 827.029 -2.98189 -2.23914 0
M  V30 8727 N 829.214 0.302327 -1.54673 0
M  V30 8728 C 830.177 1.35592 -1.8479 0
M  V30 8729 C 831.177 1.43743 -0.72073 0
M  V30 8730 O 832.367 1.43402 -0.989017 0
M  V30 8731 C 829.499 2.74091 -2.02699 0
M  V30 8732 H 830.692 1.10132 -2.78946 0
M  V30 8733 H 828.245 0.538926 -1.46715 0
M  V30 8734 H 828.98 3.04775 -1.10826 0
M  V30 8735 H 828.765 2.69565 -2.8474 0
M  V30 8736 H 830.255 3.50272 -2.27374 0
M  V30 8737 N 830.692 1.47107 0.565454 0
M  V30 8738 C 831.938 1.53535 1.32495 0
M  V30 8739 C 832.271 0.193537 1.93233 0
M  V30 8740 O 831.546 -0.796956 1.77423 0
M  V30 8741 C 831.829 2.64712 2.4413 0
M  V30 8742 C 831.682 4.08482 1.88314 0
M  V30 8743 C 833.001 2.71853 3.46098 0
M  V30 8744 H 830.12 0.558926 0.480386 0
M  V30 8745 H 832.762 1.79125 0.633575 0
M  V30 8746 H 830.912 2.43023 3.03104 0
M  V30 8747 H 832.584 4.4151 1.33665 0
M  V30 8748 H 830.827 4.17148 1.19037 0
M  V30 8749 H 831.498 4.82032 2.68978 0
M  V30 8750 H 833.974 2.91397 2.97031 0
M  V30 8751 H 832.85 3.51433 4.21646 0
M  V30 8752 H 833.111 1.78584 4.04426 0
M  V30 8753 N 832.17 -0.811516 1.35101 0
M  V30 8754 C 833.102 -1.93102 1.23468 0
M  V30 8755 C 834.115 -1.62021 0.159095 0
M  V30 8756 O 835.304 -1.73682 0.411945 0
M  V30 8757 C 832.404 -3.27345 0.877404 0
M  V30 8758 C 831.577 -3.86368 2.05033 0
M  V30 8759 C 830.636 -4.99009 1.66963 0
M  V30 8760 O 829.662 -5.16698 2.38772 0
M  V30 8761 N 830.864 -5.7749 0.590394 0
M  V30 8762 H 833.629 -2.0361 2.19916 0
M  V30 8763 H 831.19 -0.988687 1.28205 0
M  V30 8764 H 833.182 -4.00163 0.604298 0
M  V30 8765 H 831.752 -3.126 0.00275267 0
M  V30 8766 H 830.972 -3.05804 2.48752 0
M  V30 8767 H 832.26 -4.22533 2.83449 0
M  V30 8768 H 831.658 -5.657 -0.00633259 0
M  V30 8769 H 830.215 -6.50708 0.377055 0
M  V30 8770 N 833.648 -1.19017 -1.03309 0
M  V30 8771 C 834.611 -0.926076 -2.09658 0
M  V30 8772 C 835.611 0.0917077 -1.60538 0
M  V30 8773 O 836.801 -0.142574 -1.73616 0
M  V30 8774 C 833.933 -0.390958 -3.38651 0
M  V30 8775 H 835.126 -1.86923 -2.3452 0
M  V30 8776 H 832.679 -1.00325 -1.19853 0
M  V30 8777 H 833.414 0.558446 -3.19456 0
M  V30 8778 H 833.199 -1.12474 -3.75622 0
M  V30 8779 H 834.689 -0.225131 -4.16993 0
M  V30 8780 N 835.127 1.22348 -0.993418 0
M  V30 8781 C 836.09 2.22522 -0.549251 0
M  V30 8782 C 837.09 1.56529 0.368164 0
M  V30 8783 O 838.28 1.73463 0.16005 0
M  V30 8784 C 835.412 3.40307 0.201037 0
M  V30 8785 H 836.605 2.63332 -1.43515 0
M  V30 8786 H 834.158 1.35407 -0.78068 0
M  V30 8787 H 834.893 3.0497 1.10289 0
M  V30 8788 H 834.678 3.8942 -0.457685 0
M  V30 8789 H 836.168 4.14597 0.499946 0
M  V30 8790 N 836.605 0.766683 1.37694 0
M  V30 8791 C 837.535 0.163432 2.32927 0
M  V30 8792 C 838.516 -0.688861 1.55527 0
M  V30 8793 O 839.701 -0.627363 1.83787 0
M  V30 8794 C 836.831 -0.720416 3.39746 0
M  V30 8795 C 835.785 0.0301718 4.27989 0
M  V30 8796 C 835.111 -0.972788 5.25776 0
M  V30 8797 C 836.411 1.20623 5.0818 0
M  V30 8798 H 838.105 0.958988 2.83626 0
M  V30 8799 H 835.651 0.462601 1.36367 0
M  V30 8800 H 837.604 -1.15221 4.05342 0
M  V30 8801 H 836.328 -1.54844 2.8756 0
M  V30 8802 H 834.987 0.442685 3.63917 0
M  V30 8803 H 834.635 -1.79522 4.69873 0
M  V30 8804 H 834.335 -0.475145 5.85676 0
M  V30 8805 H 835.859 -1.40362 5.94248 0
M  V30 8806 H 837.273 0.851341 5.66944 0
M  V30 8807 H 835.67 1.63561 5.7738 0
M  V30 8808 H 836.74 2.01281 4.41151 0
M  V30 8809 N 838.083 -1.48885 0.516809 0
M  V30 8810 C 838.993 -2.33185 -0.257293 0
M  V30 8811 C 840.009 -1.4565 -0.951952 0
M  V30 8812 O 841.185 -1.78651 -0.929834 0
M  V30 8813 C 838.25 -3.21465 -1.29851 0
M  V30 8814 C 837.311 -4.24863 -0.615608 0
M  V30 8815 C 836.544 -5.08925 -1.60722 0
M  V30 8816 O 836.767 -4.9475 -2.83863 0
M  V30 8817 O 835.701 -5.90737 -1.15384 0
M  V30 8818 H 839.527 -3.00596 0.433131 0
M  V30 8819 H 837.112 -1.46792 0.277908 0
M  V30 8820 H 838.994 -3.76108 -1.90055 0
M  V30 8821 H 837.669 -2.5673 -1.97158 0
M  V30 8822 H 836.576 -3.74091 0.0265829 0
M  V30 8823 H 837.909 -4.92198 0.0152871 0
M  V30 8824 N 839.561 -0.251338 -1.55583 0
M  V30 8825 C 840.508 0.646337 -2.21565 0
M  V30 8826 C 841.478 1.16796 -1.18102 0
M  V30 8827 O 842.663 1.22162 -1.46564 0
M  V30 8828 C 839.803 1.83557 -2.92234 0
M  V30 8829 C 838.916 1.35006 -4.10363 0
M  V30 8830 C 838.051 2.4992 -4.68736 0
M  V30 8831 C 837.09 1.98253 -5.79105 0
M  V30 8832 N 836.227 3.06551 -6.31642 0
M  V30 8833 H 841.067 0.0769881 -2.97901 0
M  V30 8834 H 838.604 0.026238 -1.47077 0
M  V30 8835 H 840.562 2.53425 -3.31408 0
M  V30 8836 H 839.192 2.37733 -2.18364 0
M  V30 8837 H 838.244 0.545274 -3.76472 0
M  V30 8838 H 839.556 0.931435 -4.90026 0
M  V30 8839 H 838.71 3.27823 -5.10507 0
M  V30 8840 H 837.449 2.95086 -3.88298 0
M  V30 8841 H 836.454 1.18822 -5.36807 0
M  V30 8842 H 837.679 1.54051 -6.61396 0
M  V30 8843 H 835.625 3.51143 -5.54107 0
M  V30 8844 H 835.542 2.69033 -7.06511 0
M  V30 8845 H 836.81 3.84499 -6.78071 0
M  V30 8846 N 841.039 1.57585 0.0217189 0
M  V30 8847 C 842.002 2.06004 1.00474 0
M  V30 8848 C 843.002 0.965461 1.2859 0
M  V30 8849 O 844.192 1.22884 1.23471 0
M  V30 8850 C 841.324 2.48319 2.33561 0
M  V30 8851 H 842.517 2.94112 0.586346 0
M  V30 8852 H 840.07 1.53973 0.268716 0
M  V30 8853 H 840.805 1.63389 2.80133 0
M  V30 8854 H 840.59 3.28239 2.1448 0
M  V30 8855 H 842.08 2.86181 3.04122 0
M  V30 8856 N 842.517 -0.29412 1.54831 0
M  V30 8857 C 843.742 -1.05156 1.78765 0
M  V30 8858 C 844.167 -1.79916 0.548809 0
M  V30 8859 O 843.525 -1.74243 -0.500909 0
M  V30 8860 C 843.573 -2.00242 2.99893 0
M  V30 8861 O 842.677 -3.08662 2.73499 0
M  V30 8862 H 842.018 -0.301737 0.591482 0
M  V30 8863 H 844.548 -0.329449 2.0193 0
M  V30 8864 H 844.558 -2.42583 3.28051 0
M  V30 8865 H 843.233 -1.45235 3.89717 0
M  V30 8866 H 841.81 -2.70786 2.56377 0
M  V30 8867 N 843.995 -1.47404 -0.557645 0
M  V30 8868 C 844.942 -1.59859 -1.66475 0
M  V30 8869 C 845.912 -0.441644 -1.60121 0
M  V30 8870 O 847.097 -0.661641 -1.78961 0
M  V30 8871 C 844.237 -1.61843 -3.04797 0
M  V30 8872 C 843.35 -2.8845 -3.2159 0
M  V30 8873 C 842.485 -2.81773 -4.50308 0
M  V30 8874 C 841.524 -4.03208 -4.60532 0
M  V30 8875 N 840.661 -3.94769 -5.80604 0
M  V30 8876 H 845.501 -2.54415 -1.55168 0
M  V30 8877 H 843.038 -1.26194 -0.755876 0
M  V30 8878 H 844.996 -1.60976 -3.84893 0
M  V30 8879 H 843.626 -0.707997 -3.1494 0
M  V30 8880 H 842.678 -2.99186 -2.34929 0
M  V30 8881 H 843.99 -3.78379 -3.25009 0
M  V30 8882 H 843.144 -2.79153 -5.38663 0
M  V30 8883 H 841.883 -1.89527 -4.49367 0
M  V30 8884 H 840.888 -4.06133 -3.70589 0
M  V30 8885 H 842.113 -4.9658 -4.63233 0
M  V30 8886 H 840.059 -3.05326 -5.80613 0
M  V30 8887 H 839.976 -4.78375 -5.854 0
M  V30 8888 H 841.244 -3.96165 -6.71322 0
M  V30 8889 N 845.473 0.80434 -1.35529 0
M  V30 8890 C 846.721 1.55845 -1.28673 0
M  V30 8891 C 847.042 1.94511 0.137976 0
M  V30 8892 O 846.312 1.63775 1.07492 0
M  V30 8893 H 844.892 0.577931 -0.473291 0
M  V30 8894 H 847.554 0.959293 -1.69657 0
M  V30 8895 H 846.65 2.47285 -1.90411 0
M  V30 8896 N 846.951 1.19563 1.02676 0
M  V30 8897 C 848.367 0.948304 1.28372 0
M  V30 8898 C 848.567 -0.378096 1.97921 0
M  V30 8899 O 847.623 -1.1091 2.26838 0
M  V30 8900 C 848.936 2.12381 2.12873 0
M  V30 8901 C 850.484 2.16366 2.26174 0
M  V30 8902 C 850.959 3.33374 3.14048 0
M  V30 8903 N 852.45 3.33323 3.21636 0
M  V30 8904 C 853.185 4.20504 3.89825 0
M  V30 8905 N 852.681 5.17845 4.60227 0
M  V30 8906 N 854.474 4.08375 3.86246 0
M  V30 8907 H 846.625 2.04899 0.559485 0
M  V30 8908 H 848.888 0.89606 0.309484 0
M  V30 8909 H 848.594 3.08383 1.69094 0
M  V30 8910 H 848.468 2.09621 3.1359 0
M  V30 8911 H 850.855 1.20933 2.69182 0
M  V30 8912 H 850.936 2.23179 1.25 0
M  V30 8913 H 850.58 4.29087 2.71747 0
M  V30 8914 H 850.51 3.23798 4.15286 0
M  V30 8915 H 853.001 2.62863 2.71498 0
M  V30 8916 H 853.314 5.80712 5.09896 0
M  V30 8917 H 851.659 5.21791 4.59085 0
M  V30 8918 H 854.85 3.31606 3.30386 0
M  V30 8919 H 855.023 4.76532 4.39114 0
M  V30 8920 N 848.429 -1.21819 0.999893 0
M  V30 8921 C 849.657 -1.94758 0.698359 0
M  V30 8922 C 850.072 -1.73771 -0.738183 0
M  V30 8923 O 849.429 -1.04113 -1.49889 0
M  V30 8924 C 849.48 -3.47292 1.00353 0
M  V30 8925 O 849.201 -3.67579 2.38363 0
M  V30 8926 C 850.702 -4.37403 0.72068 0
M  V30 8927 H 847.922 -0.619512 0.257771 0
M  V30 8928 H 850.466 -1.54778 1.33656 0
M  V30 8929 H 848.621 -3.85213 0.411018 0
M  V30 8930 H 849.035 -4.61719 2.48829 0
M  V30 8931 H 850.509 -5.43151 0.984422 0
M  V30 8932 H 850.986 -4.3784 -0.345309 0
M  V30 8933 H 851.592 -4.05119 1.29456 0
M  V30 8934 N 849.908 -0.773975 -1.37286 0
M  V30 8935 C 851.136 -0.350758 -2.03905 0
M  V30 8936 C 851.551 1.02779 -1.58373 0
M  V30 8937 O 850.908 1.65646 -0.766009 0
M  V30 8938 C 850.959 -0.387335 -3.59419 0
M  V30 8939 O 850.68 -1.7115 -4.03286 0
M  V30 8940 C 852.181 0.047198 -4.43275 0
M  V30 8941 H 849.401 -0.146663 -0.654775 0
M  V30 8942 H 851.945 -1.04852 -1.75574 0
M  V30 8943 H 850.1 0.261865 -3.86514 0
M  V30 8944 H 850.514 -1.65166 -4.97816 0
M  V30 8945 H 851.988 -0.0295474 -5.51992 0
M  V30 8946 H 852.465 1.09786 -4.25257 0
M  V30 8947 H 853.071 -0.573899 -4.2141 0
M  V30 8948 N 851.386 1.48609 -0.524698 0
M  V30 8949 C 852.635 2.01696 0.0132937 0
M  V30 8950 C 852.948 1.40751 1.35825 0
M  V30 8951 O 854.154 1.85304 1.9843 0
M  V30 8952 C 852.61 3.59824 0.0741012 0
M  V30 8953 C 852.218 4.2975 -1.26564 0
M  V30 8954 C 853.962 4.20774 0.5612 0
M  V30 8955 C 851.869 5.79798 -1.16571 0
M  V30 8956 H 850.799 0.753949 0.00873931 0
M  V30 8957 H 853.45 1.70922 -0.667684 0
M  V30 8958 H 851.832 3.87416 0.820043 0
M  V30 8959 H 853.006 4.13836 -2.02674 0
M  V30 8960 H 851.321 3.80649 -1.68806 0
M  V30 8961 H 853.918 5.30687 0.653853 0
M  V30 8962 H 854.261 3.85734 1.56573 0
M  V30 8963 H 854.794 3.97591 -0.128901 0
M  V30 8964 H 851.533 6.19403 -2.14523 0
M  V30 8965 H 851.053 5.9814 -0.445894 0
M  V30 8966 H 852.732 6.41337 -0.854186 0
M  V30 8967 N 852.864 0.259585 1.55447 0
M  V30 8968 C 854.11 -0.362143 1.9954 0
M  V30 8969 C 854.443 -1.5666 1.14767 0
M  V30 8970 O 853.718 -1.93319 0.214025 0
M  V30 8971 C 854.001 -0.759588 3.51998 0
M  V30 8972 C 853.854 0.451134 4.47532 0
M  V30 8973 C 855.173 -1.60186 4.09913 0
M  V30 8974 H 852.292 -0.130157 0.725416 0
M  V30 8975 H 854.934 0.363431 1.86492 0
M  V30 8976 H 853.084 -1.3778 3.63248 0
M  V30 8977 H 854.756 1.08965 4.48246 0
M  V30 8978 H 852.999 1.092 4.19831 0
M  V30 8979 H 853.67 0.129518 5.51848 0
M  V30 8980 H 856.146 -1.0799 4.01842 0
M  V30 8981 H 855.022 -1.84879 5.16828 0
M  V30 8982 H 855.283 -2.57787 3.59163 0
M  V30 8983 N 854.342 -1.57594 -0.0133615 0
M  V30 8984 C 855.588 -1.90262 -0.702019 0
M  V30 8985 C 855.921 -0.859219 -1.74158 0
M  V30 8986 O 855.196 0.123778 -1.94106 0
M  V30 8987 C 855.479 -3.3354 -1.35732 0
M  V30 8988 C 855.332 -4.48586 -0.330208 0
M  V30 8989 C 856.651 -3.76004 -2.28712 0
M  V30 8990 H 853.77 -0.691943 -0.253739 0
M  V30 8991 H 856.412 -1.89967 0.0351894 0
M  V30 8992 H 854.562 -3.33921 -1.98567 0
M  V30 8993 H 856.234 -4.6034 0.297433 0
M  V30 8994 H 854.477 -4.32394 0.348926 0
M  V30 8995 H 855.148 -5.45762 -0.827508 0
M  V30 8996 H 857.624 -3.77089 -1.75906 0
M  V30 8997 H 856.5 -4.77032 -2.71535 0
M  V30 8998 H 856.761 -3.09129 -3.16056 0
M  V30 8999 N 855.82 0.285905 -1.54985 0
M  V30 9000 C 856.783 1.33625 -1.86218 0
M  V30 9001 C 857.783 1.42971 -0.735936 0
M  V30 9002 O 858.973 1.42345 -1.00417 0
M  V30 9003 C 856.105 2.71926 -2.05595 0
M  V30 9004 H 857.298 1.07167 -2.80099 0
M  V30 9005 H 854.851 0.523335 -1.47278 0
M  V30 9006 H 855.586 3.03583 -1.14053 0
M  V30 9007 H 855.371 2.6653 -2.87583 0
M  V30 9008 H 856.861 3.47841 -2.31077 0
M  V30 9009 N 857.298 1.47698 0.54982 0
M  V30 9010 C 858.248 1.57145 1.65195 0
M  V30 9011 C 859.232 0.429839 1.55052 0
M  V30 9012 O 860.424 0.68018 1.63409 0
M  V30 9013 C 857.553 1.59573 3.0396 0
M  V30 9014 C 856.639 2.79144 3.19279 0
M  V30 9015 N 857.03 4.03769 3.04638 0
M  V30 9016 C 855.328 2.76061 3.50295 0
M  V30 9017 C 856.029 4.83887 3.22845 0
M  V30 9018 N 855.005 4.1634 3.49517 0
M  V30 9019 H 858.807 2.51266 1.52455 0
M  V30 9020 H 856.321 1.43795 0.754773 0
M  V30 9021 H 858.318 1.64431 3.83103 0
M  V30 9022 H 856.978 0.66553 3.17806 0
M  V30 9023 H 857.989 4.34515 2.81811 0
M  V30 9024 H 854.666 1.92211 3.70622 0
M  V30 9025 H 856.056 5.92724 3.1643 0
M  V30 9026 N 858.776 -0.797141 1.35954 0
M  V30 9027 C 860.192 -1.09408 1.16198 0
M  V30 9028 C 860.392 -2.01491 -0.0191682 0
M  V30 9029 O 859.448 -2.42977 -0.686902 0
M  V30 9030 C 860.761 -1.71597 2.46931 0
M  V30 9031 C 862.309 -1.83974 2.53224 0
M  V30 9032 C 862.784 -2.49579 3.84024 0
M  V30 9033 N 864.275 -2.57055 3.85327 0
M  V30 9034 C 865.01 -3.08608 4.83268 0
M  V30 9035 N 864.506 -3.60527 5.91601 0
M  V30 9036 N 866.299 -3.07249 4.70696 0
M  V30 9037 H 858.45 -0.185209 2.11591 0
M  V30 9038 H 860.713 -0.144768 0.936881 0
M  V30 9039 H 860.419 -1.11404 3.3359 0
M  V30 9040 H 860.293 -2.71193 2.62172 0
M  V30 9041 H 862.68 -2.43308 1.66988 0
M  V30 9042 H 862.761 -0.83207 2.41889 0
M  V30 9043 H 862.405 -1.90892 4.70662 0
M  V30 9044 H 862.335 -3.50902 3.92651 0
M  V30 9045 H 864.826 -2.20283 3.07057 0
M  V30 9046 H 865.139 -3.98192 6.62317 0
M  V30 9047 H 863.484 -3.587 5.95281 0
M  V30 9048 H 866.675 -2.65972 3.85197 0
M  V30 9049 H 866.848 -3.47119 5.47186 0
M  V30 9050 N 860.254 -1.20106 -1.0204 0
M  V30 9051 C 861.184 -0.970301 -2.12385 0
M  V30 9052 C 862.165 0.099378 -1.69809 0
M  V30 9053 O 863.35 -0.057365 -1.94115 0
M  V30 9054 C 860.48 -0.517431 -3.43424 0
M  V30 9055 C 859.434 -1.52992 -3.99722 0
M  V30 9056 C 858.76 -0.933817 -5.26483 0
M  V30 9057 C 860.06 -2.91257 -4.33551 0
M  V30 9058 H 861.754 -1.89316 -2.31948 0
M  V30 9059 H 859.3 -0.911655 -1.11467 0
M  V30 9060 H 861.253 -0.343243 -4.2 0
M  V30 9061 H 859.977 0.441049 -3.23608 0
M  V30 9062 H 858.636 -1.6914 -3.2525 0
M  V30 9063 H 858.284 0.0324763 -5.0299 0
M  V30 9064 H 857.984 -1.60999 -5.65113 0
M  V30 9065 H 859.508 -0.770614 -6.05718 0
M  V30 9066 H 860.922 -2.78642 -5.0103 0
M  V30 9067 H 859.319 -3.55745 -4.83286 0
M  V30 9068 H 860.389 -3.43269 -3.42483 0
M  V30 9069 N 861.732 1.21287 -1.00634 0
M  V30 9070 C 862.957 1.94925 -0.708441 0
M  V30 9071 C 863.382 1.73659 0.722783 0
M  V30 9072 O 862.74 1.02429 1.49593 0
M  V30 9073 C 862.788 3.45377 -1.03667 0
M  V30 9074 O 861.892 4.12153 -0.142661 0
M  V30 9075 H 861.233 0.609338 -0.263824 0
M  V30 9076 H 863.763 1.54008 -1.34695 0
M  V30 9077 H 863.773 3.95954 -0.984086 0
M  V30 9078 H 862.448 3.6018 -2.0795 0
M  V30 9079 H 861.025 3.72048 -0.251888 0
M  V30 9080 N 863.21 0.781244 1.36873 0
M  V30 9081 C 864.438 0.361566 2.03716 0
M  V30 9082 C 864.853 -1.01937 1.58916 0
M  V30 9083 O 864.21 -1.65237 0.774783 0
M  V30 9084 C 864.261 0.406391 3.59208 0
M  V30 9085 O 863.982 1.73286 4.02372 0
M  V30 9086 C 865.483 -0.0236894 4.43294 0
M  V30 9087 H 862.703 0.150133 0.653988 0
M  V30 9088 H 865.247 1.05781 1.75016 0
M  V30 9089 H 863.402 -0.241364 3.86647 0
M  V30 9090 H 863.816 1.67804 4.96933 0
M  V30 9091 H 865.29 0.0588205 5.51969 0
M  V30 9092 H 865.767 -1.07529 4.25833 0
M  V30 9093 H 866.373 0.59624 4.211 0
M  V30 9094 N 864.689 -1.48329 0.532571 0
M  V30 9095 C 865.938 -2.017 -0.00259705 0
M  V30 9096 C 866.251 -1.41469 -1.35077 0
M  V30 9097 O 867.457 -1.86354 -1.97445 0
M  V30 9098 C 865.913 -3.59858 -0.0550179 0
M  V30 9099 C 865.521 -4.29073 1.28842 0
M  V30 9100 C 867.265 -4.21066 -0.538878 0
M  V30 9101 C 865.172 -5.79171 1.19644 0
M  V30 9102 H 864.102 -0.753985 -0.00474081 0
M  V30 9103 H 866.753 -1.70565 0.676739 0
M  V30 9104 H 865.135 -3.87846 -0.799486 0
M  V30 9105 H 866.309 -4.12755 2.04865 0
M  V30 9106 H 864.624 -3.79748 1.70822 0
M  V30 9107 H 867.221 -5.31026 -0.6257 0
M  V30 9108 H 867.564 -3.86559 -1.54525 0
M  V30 9109 H 868.097 -3.97517 0.149984 0
M  V30 9110 H 864.836 -6.18257 2.17805 0
M  V30 9111 H 864.356 -5.97895 0.477609 0
M  V30 9112 H 866.035 -6.40875 0.888186 0
M  V30 9113 N 866.167 -0.267825 -1.55308 0
M  V30 9114 C 867.583 0.0865107 -1.59365 0
M  V30 9115 C 867.783 1.55205 -1.28505 0
M  V30 9116 O 866.839 2.29978 -1.04241 0
M  V30 9117 C 868.152 -0.28155 -2.99379 0
M  V30 9118 C 869.7 -0.227565 -3.12172 0
M  V30 9119 C 870.175 -0.569959 -4.5444 0
M  V30 9120 N 871.666 -0.521238 -4.60258 0
M  V30 9121 C 872.401 -0.759061 -5.68354 0
M  V30 9122 N 871.897 -1.06112 -6.84626 0
M  V30 9123 N 873.69 -0.688351 -5.57869 0
M  V30 9124 H 865.841 -1.22332 -1.73633 0
M  V30 9125 H 868.104 -0.493703 -0.809297 0
M  V30 9126 H 867.81 -1.3005 -3.26772 0
M  V30 9127 H 867.684 0.381192 -3.75269 0
M  V30 9128 H 870.071 0.782093 -2.84548 0
M  V30 9129 H 870.152 -0.924461 -2.38511 0
M  V30 9130 H 869.796 -1.57727 -4.82788 0
M  V30 9131 H 869.726 0.148646 -5.2639 0
M  V30 9132 H 872.217 -0.297359 -3.76728 0
M  V30 9133 H 872.53 -1.22945 -7.62958 0
M  V30 9134 H 870.875 -1.09881 -6.86259 0
M  V30 9135 H 874.066 -0.452268 -4.6591 0
M  V30 9136 H 874.239 -0.877081 -6.42037 0
M  V30 9137 N 867.645 1.57599 0.00500368 0
M  V30 9138 C 868.87 1.95026 0.705663 0
M  V30 9139 C 869.295 0.869643 1.6679 0
M  V30 9140 O 868.653 -0.172659 1.80476 0
M  V30 9141 C 868.701 3.31545 1.4181 0
M  V30 9142 O 867.805 3.25495 2.53232 0
M  V30 9143 H 867.146 0.636808 0.188074 0
M  V30 9144 H 869.676 2.04547 -0.046696 0
M  V30 9145 H 869.686 3.66996 1.78265 0
M  V30 9146 H 868.361 4.09751 0.712543 0
M  V30 9147 H 866.938 3.01714 2.19142 0
M  V30 9148 N 869.123 -0.277682 1.55134 0
M  V30 9149 C 870.086 -1.32635 1.86924 0
M  V30 9150 C 871.086 -1.42578 0.743507 0
M  V30 9151 O 872.276 -1.4181 1.01171 0
M  V30 9152 C 869.408 -2.70832 2.07034 0
M  V30 9153 H 870.601 -1.0568 2.80663 0
M  V30 9154 H 868.154 -0.515517 1.47554 0
M  V30 9155 H 868.889 -3.02974 1.15661 0
M  V30 9156 H 868.674 -2.65001 2.88993 0
M  V30 9157 H 870.164 -3.46611 2.32918 0
M  V30 9158 N 870.601 -1.47988 -0.541979 0
M  V30 9159 C 871.878 -1.45878 -1.30303 0
M  V30 9160 C 872.258 -0.163931 -2.10463 0
M  V30 9161 O 871.606 0.854479 -2.11922 0
M  V30 9162 C 871.816 -2.71359 -2.19466 0
M  V30 9163 C 873.164 -3.19199 -2.79995 0
M  V30 9164 O 874.188 -2.72193 -2.2976 0
M  V30 9165 O 873.047 -4.00961 -3.71339 0
M  V30 9166 H 870.141 -0.582043 -0.587498 0
M  V30 9167 H 872.687 -1.60207 -0.559623 0
M  V30 9168 H 871.459 -3.57122 -1.59936 0
M  V30 9169 H 871.082 -2.59692 -3.01075 0
M  V30 9170 N 872.079 0.78992 -1.36375 0
M  V30 9171 C 873.009 1.91683 -1.33341 0
M  V30 9172 C 873.99 1.68861 -0.204965 0
M  V30 9173 O 875.175 1.89982 -0.402531 0
M  V30 9174 C 872.305 3.28696 -1.12143 0
M  V30 9175 C 871.259 3.66041 -2.21806 0
M  V30 9176 C 870.585 5.01399 -1.85751 0
M  V30 9177 C 871.885 3.74677 -3.63888 0
M  V30 9178 H 873.579 1.94478 -2.27637 0
M  V30 9179 H 871.125 0.934271 -1.09578 0
M  V30 9180 H 873.078 4.07151 -1.08656 0
M  V30 9181 H 871.802 3.26287 -0.142974 0
M  V30 9182 H 870.461 2.89883 -2.24418 0
M  V30 9183 H 870.109 4.9551 -0.864817 0
M  V30 9184 H 869.809 5.27355 -2.59173 0
M  V30 9185 H 871.333 5.82274 -1.83819 0
M  V30 9186 H 872.747 4.43324 -3.63506 0
M  V30 9187 H 871.144 4.12118 -4.3621 0
M  V30 9188 H 872.214 2.75795 -3.9883 0
M  V30 9189 N 873.557 1.20646 1.01402 0
M  V30 9190 C 874.806 1.01242 1.7445 0
M  V30 9191 C 875.119 -0.455732 1.90217 0
M  V30 9192 O 876.325 -0.768951 2.60383 0
M  V30 9193 C 874.781 1.76275 3.13776 0
M  V30 9194 C 874.389 3.27201 3.06013 0
M  V30 9195 C 876.133 1.65248 3.91016 0
M  V30 9196 C 874.04 3.9476 4.40362 0
M  V30 9197 H 872.97 0.375202 0.654018 0
M  V30 9198 H 875.621 1.44292 1.13367 0
M  V30 9199 H 874.003 1.26013 3.75415 0
M  V30 9200 H 875.177 3.84695 2.53665 0
M  V30 9201 H 873.492 3.38669 2.42265 0
M  V30 9202 H 876.089 2.13061 4.90417 0
M  V30 9203 H 876.432 0.609128 4.1182 0
M  V30 9204 H 876.965 2.12937 3.3601 0
M  V30 9205 H 873.704 4.99258 4.24761 0
M  V30 9206 H 873.224 3.42054 4.92706 0
M  V30 9207 H 874.903 3.99159 5.09196 0
M  V30 9208 N 875.035 -1.20752 1.01276 0
M  V30 9209 C 876.281 -1.90302 0.700924 0
M  V30 9210 C 876.614 -1.78406 -0.767142 0
M  V30 9211 O 875.889 -1.16575 -1.55694 0
M  V30 9212 C 876.172 -3.41831 1.13242 0
M  V30 9213 C 876.025 -3.6268 2.66051 0
M  V30 9214 C 877.344 -4.34486 0.700738 0
M  V30 9215 H 874.463 -0.69107 0.256107 0
M  V30 9216 H 877.105 -1.42227 1.25982 0
M  V30 9217 H 875.255 -3.82906 0.656902 0
M  V30 9218 H 876.927 -3.30882 3.21426 0
M  V30 9219 H 875.17 -3.06281 3.07204 0
M  V30 9220 H 875.841 -4.68882 2.91296 0
M  V30 9221 H 878.317 -4.01036 1.10948 0
M  V30 9222 H 877.193 -5.39136 1.03073 0
M  V30 9223 H 877.454 -4.40307 -0.39778 0
M  V30 9224 N 876.513 -0.788492 -1.36457 0
M  V30 9225 C 877.741 -0.372365 -2.03522 0
M  V30 9226 C 878.156 1.01093 -1.59454 0
M  V30 9227 O 877.513 1.64824 -0.783535 0
M  V30 9228 C 877.564 -0.425435 -3.58988 0
M  V30 9229 O 877.285 -1.75418 -4.01448 0
M  V30 9230 C 878.786 0.000180167 -4.433 0
M  V30 9231 H 876.006 -0.1536 -0.653183 0
M  V30 9232 H 878.55 -1.06708 -1.74452 0
M  V30 9233 H 876.705 0.220856 -3.8677 0
M  V30 9234 H 877.119 -1.70437 -4.96036 0
M  V30 9235 H 878.593 -0.0880919 -5.5193 0
M  V30 9236 H 879.07 1.05269 -4.26398 0
M  V30 9237 H 879.676 -0.618563 -4.20778 0
M  V30 9238 N 877.991 1.48044 -0.54043 0
M  V30 9239 C 878.921 2.32597 0.205178 0
M  V30 9240 C 879.902 1.42748 0.925041 0
M  V30 9241 O 881.087 1.71624 0.908784 0
M  V30 9242 C 878.217 3.24175 1.24612 0
M  V30 9243 C 877.171 4.23131 0.64376 0
M  V30 9244 C 876.497 5.03915 1.78812 0
M  V30 9245 C 877.797 5.20831 -0.39144 0
M  V30 9246 H 879.491 2.95184 -0.500676 0
M  V30 9247 H 877.037 1.41948 -0.242225 0
M  V30 9248 H 878.99 3.82158 1.77576 0
M  V30 9249 H 877.714 2.59608 1.98169 0
M  V30 9250 H 876.373 3.66349 0.135554 0
M  V30 9251 H 876.021 4.35765 2.51232 0
M  V30 9252 H 875.721 5.709 1.39094 0
M  V30 9253 H 877.245 5.64753 2.32134 0
M  V30 9254 H 878.659 5.73277 0.0515064 0
M  V30 9255 H 877.056 5.95926 -0.706569 0
M  V30 9256 H 878.126 4.6733 -1.29345 0
M  V30 9257 N 879.47 0.276058 1.55163 0
M  V30 9258 C 880.417 -0.611006 2.22565 0
M  V30 9259 C 881.387 -1.14902 1.19945 0
M  V30 9260 O 882.572 -1.19815 1.48489 0
M  V30 9261 C 879.712 -1.78885 2.95117 0
M  V30 9262 C 878.825 -1.2846 4.12458 0
M  V30 9263 C 877.96 -2.42432 4.72652 0
M  V30 9264 C 876.999 -1.89015 5.82185 0
M  V30 9265 N 876.136 -2.96463 6.36439 0
M  V30 9266 H 880.976 -0.0295849 2.97985 0
M  V30 9267 H 878.513 -0.00283607 1.471 0
M  V30 9268 H 880.471 -2.48121 3.35398 0
M  V30 9269 H 879.101 -2.34229 2.22119 0
M  V30 9270 H 878.153 -0.485312 3.77292 0
M  V30 9271 H 879.465 -0.853358 4.91446 0
M  V30 9272 H 878.619 -3.19659 5.15658 0
M  V30 9273 H 877.358 -2.88872 3.92943 0
M  V30 9274 H 876.363 -1.10267 5.38629 0
M  V30 9275 H 877.588 -1.43509 6.63763 0
M  V30 9276 H 875.534 -3.42283 5.59623 0
M  V30 9277 H 875.451 -2.57759 7.10701 0
M  V30 9278 H 876.719 -3.73663 6.84103 0
M  V30 9279 N 880.948 -1.576 0.00335426 0
M  V30 9280 C 882.225 -1.81945 -0.718015 0
M  V30 9281 C 882.605 -0.881788 -1.91801 0
M  V30 9282 O 881.953 0.0687118 -2.28397 0
M  V30 9283 C 882.163 -3.30521 -1.12058 0
M  V30 9284 C 883.511 -3.96345 -1.52303 0
M  V30 9285 O 884.535 -3.34864 -1.21428 0
M  V30 9286 O 883.394 -5.04655 -2.09728 0
M  V30 9287 H 880.488 -0.749328 -0.34991 0
M  V30 9288 H 883.034 -1.69675 0.0290654 0
M  V30 9289 H 881.806 -3.90399 -0.265378 0
M  V30 9290 H 881.429 -3.47802 -1.92665 0
M  V30 9291 N 882.426 0.269451 -1.5528 0
M  V30 9292 C 883.674 0.998604 -1.75705 0
M  V30 9293 C 883.995 1.86691 -0.563175 0
M  V30 9294 O 883.265 1.91305 0.421811 0
M  V30 9295 H 881.845 0.371698 -0.647958 0
M  V30 9296 H 884.507 0.292826 -1.92688 0
M  V30 9297 H 883.603 1.63348 -2.6594 0
M  V30 9298 N 883.904 1.48273 0.534124 0
M  V30 9299 C 884.837 1.57053 1.65559 0
M  V30 9300 C 885.815 0.421213 1.5705 0
M  V30 9301 O 886.999 0.632242 1.77581 0
M  V30 9302 C 884.126 1.49465 3.03937 0
M  V30 9303 C 883.172 2.69186 3.30819 0
M  V30 9304 S 884.005 4.31192 3.17543 0
M  V30 9305 C 885.161 4.26197 4.58375 0
M  V30 9306 H 885.394 2.51927 1.57861 0
M  V30 9307 H 882.927 1.36755 0.716763 0
M  V30 9308 H 884.885 1.45775 3.83745 0
M  V30 9309 H 883.546 0.559357 3.09079 0
M  V30 9310 H 882.739 2.60005 4.31756 0
M  V30 9311 H 882.341 2.70118 2.58674 0
M  V30 9312 H 884.633 3.95874 5.49809 0
M  V30 9313 H 885.576 5.27299 4.72611 0
M  V30 9314 H 885.984 3.56723 4.37503 0
M  V30 9315 N 885.382 -0.782676 1.36792 0
M  V30 9316 C 886.312 -1.90973 1.34356 0
M  V30 9317 C 887.293 -1.6875 0.213917 0
M  V30 9318 O 888.478 -1.89766 0.412601 0
M  V30 9319 C 885.608 -3.28097 1.13884 0
M  V30 9320 C 884.562 -3.6486 2.23744 0
M  V30 9321 C 883.888 -5.00406 1.88408 0
M  V30 9322 C 885.188 -3.72742 3.6587 0
M  V30 9323 H 886.882 -1.93268 2.28665 0
M  V30 9324 H 884.428 -0.928447 1.10072 0
M  V30 9325 H 886.381 -4.06569 1.10813 0
M  V30 9326 H 885.105 -3.26206 0.160275 0
M  V30 9327 H 883.764 -2.88689 2.25952 0
M  V30 9328 H 883.412 -4.95044 0.891083 0
M  V30 9329 H 883.112 -5.25973 2.61966 0
M  V30 9330 H 884.636 -5.81291 1.86905 0
M  V30 9331 H 886.05 -4.4139 3.65852 0
M  V30 9332 H 884.447 -4.09798 4.38389 0
M  V30 9333 H 885.517 -2.73676 4.00287 0
M  V30 9334 N 886.86 -1.21182 -1.00761 0
M  V30 9335 C 887.823 -0.970339 -2.07646 0
M  V30 9336 C 888.823 0.0576345 -1.60697 0
M  V30 9337 O 890.013 -0.179369 -1.73274 0
M  V30 9338 C 887.145 -0.462703 -3.37745 0
M  V30 9339 H 888.338 -1.91856 -2.30502 0
M  V30 9340 H 885.891 -1.02844 -1.17698 0
M  V30 9341 H 886.626 0.490559 -3.20568 0
M  V30 9342 H 886.411 -1.20416 -3.73152 0
M  V30 9343 H 887.901 -0.313531 -4.16421 0
M  V30 9344 N 888.338 1.20213 -1.01915 0
M  V30 9345 C 889.248 2.26763 -0.601311 0
M  V30 9346 C 890.264 1.70185 0.362369 0
M  V30 9347 O 891.44 2.00165 0.222682 0
M  V30 9348 C 888.505 3.46662 0.0512879 0
M  V30 9349 C 887.566 4.18459 -0.958659 0
M  V30 9350 C 886.799 5.32634 -0.337107 0
M  V30 9351 O 887.022 5.63841 0.86251 0
M  V30 9352 O 885.956 5.9258 -1.05511 0
M  V30 9353 H 889.782 2.64725 -1.48844 0
M  V30 9354 H 887.367 1.2688 -0.788784 0
M  V30 9355 H 889.249 4.19345 0.41564 0
M  V30 9356 H 887.924 3.1057 0.912572 0
M  V30 9357 H 886.831 3.47937 -1.37442 0
M  V30 9358 H 888.164 4.58498 -1.78999 0
M  V30 9359 N 889.816 0.795718 1.36037 0
M  V30 9360 C 890.763 0.196548 2.29962 0
M  V30 9361 C 891.733 -0.663213 1.52285 0
M  V30 9362 O 892.918 -0.610574 1.80767 0
M  V30 9363 C 890.058 -0.657639 3.38776 0
M  V30 9364 C 889.171 0.221358 4.31433 0
M  V30 9365 C 888.306 -0.6398 5.27333 0
M  V30 9366 C 887.345 0.240265 6.11628 0
M  V30 9367 N 886.482 -0.580237 6.99698 0
M  V30 9368 H 891.322 1.00295 2.80615 0
M  V30 9369 H 888.859 0.506147 1.38118 0
M  V30 9370 H 890.817 -1.16793 4.00519 0
M  V30 9371 H 889.447 -1.42941 2.89426 0
M  V30 9372 H 888.499 0.84967 3.70789 0
M  V30 9373 H 889.811 0.899195 4.90628 0
M  V30 9374 H 888.965 -1.21566 5.94396 0
M  V30 9375 H 887.704 -1.35124 4.68607 0
M  V30 9376 H 886.709 0.828474 5.43522 0
M  V30 9377 H 887.934 0.949403 6.72431 0
M  V30 9378 H 885.88 -1.27585 6.43473 0
M  V30 9379 H 885.797 0.0397853 7.5599 0
M  V30 9380 H 887.065 -1.13972 7.71123 0
M  V30 9381 N 891.294 -1.47756 0.548274 0
M  V30 9382 C 892.542 -2.02089 0.0208542 0
M  V30 9383 C 892.863 -1.42589 -1.33017 0
M  V30 9384 O 892.133 -0.597825 -1.86555 0
M  V30 9385 H 890.713 -0.746985 0.00472023 0
M  V30 9386 H 893.375 -1.81262 0.716257 0
M  V30 9387 H 892.471 -3.12012 -0.0739016 0
M  V30 9388 N 892.772 -0.284283 -1.55015 0
M  V30 9389 C 893.735 0.586182 -2.21577 0
M  V30 9390 C 894.735 1.07427 -1.1965 0
M  V30 9391 O 895.925 0.972977 -1.44495 0
M  V30 9392 C 893.057 1.80973 -2.88897 0
M  V30 9393 H 894.25 0.00487253 -2.999 0
M  V30 9394 H 891.803 -0.0349696 -1.56261 0
M  V30 9395 H 892.538 2.43131 -2.14611 0
M  V30 9396 H 892.323 1.46757 -3.636 0
M  V30 9397 H 893.813 2.42853 -3.39724 0
M  V30 9398 N 894.251 1.57596 -0.0117121 0
M  V30 9399 C 895.201 2.05641 0.98467 0
M  V30 9400 C 896.185 0.953422 1.2961 0
M  V30 9401 O 897.377 1.21712 1.28512 0
M  V30 9402 C 894.506 2.57285 2.27286 0
M  V30 9403 C 893.592 3.74483 1.99057 0
M  V30 9404 N 893.983 4.85741 1.41029 0
M  V30 9405 C 892.281 3.82637 2.2914 0
M  V30 9406 C 892.982 5.67094 1.29536 0
M  V30 9407 N 891.958 5.13459 1.78497 0
M  V30 9408 H 895.76 2.89069 0.530702 0
M  V30 9409 H 893.274 1.6124 0.193717 0
M  V30 9410 H 895.271 2.89988 2.99521 0
M  V30 9411 H 893.931 1.75281 2.73325 0
M  V30 9412 H 894.942 5.06352 1.08756 0
M  V30 9413 H 891.619 3.11509 2.77972 0
M  V30 9414 H 893.009 6.66525 0.848144 0
M  V30 9415 N 895.729 -0.261212 1.5542 0
M  V30 9416 C 896.692 -1.30645 1.8832 0
M  V30 9417 C 897.692 -1.41782 0.758588 0
M  V30 9418 O 898.882 -1.40729 1.02669 0
M  V30 9419 C 896.014 -2.6862 2.09895 0
M  V30 9420 H 897.207 -1.02698 2.81768 0
M  V30 9421 H 894.76 -0.499838 1.48092 0
M  V30 9422 H 895.495 -3.0173 1.18868 0
M  V30 9423 H 895.28 -2.61921 2.91787 0
M  V30 9424 H 896.77 -3.44121 2.36581 0
M  V30 9425 N 897.207 -1.48554 -0.526253 0
M  V30 9426 C 898.117 -1.66044 -1.65731 0
M  V30 9427 C 899.133 -0.542951 -1.65312 0
M  V30 9428 O 900.309 -0.814495 -1.84195 0
M  V30 9429 C 897.374 -1.69959 -3.02184 0
M  V30 9430 C 896.435 -2.93362 -3.13428 0
M  V30 9431 C 895.668 -2.97081 -4.43372 0
M  V30 9432 O 895.891 -2.09103 -5.3069 0
M  V30 9433 O 894.825 -3.8929 -4.59061 0
M  V30 9434 H 898.651 -2.61811 -1.53912 0
M  V30 9435 H 896.236 -1.31999 -0.699759 0
M  V30 9436 H 898.118 -1.75033 -3.83329 0
M  V30 9437 H 896.793 -0.773658 -3.14319 0
M  V30 9438 H 895.7 -2.93818 -2.31564 0
M  V30 9439 H 897.033 -3.85352 -3.06211 0
M  V30 9440 N 898.685 0.775411 -1.37205 0
M  V30 9441 C 899.615 1.90258 -1.35367 0
M  V30 9442 C 900.596 1.68634 -0.222864 0
M  V30 9443 O 901.781 1.89545 -0.422659 0
M  V30 9444 C 898.911 3.27488 -1.15623 0
M  V30 9445 C 897.865 3.63668 -2.25676 0
M  V30 9446 C 897.191 4.994 -1.91059 0
M  V30 9447 C 898.491 3.70797 -3.67841 0
M  V30 9448 H 900.185 1.92053 -2.29687 0
M  V30 9449 H 897.731 0.922597 -1.10563 0
M  V30 9450 H 899.684 4.05976 -1.12968 0
M  V30 9451 H 898.408 3.26117 -0.177573 0
M  V30 9452 H 897.067 2.87486 -2.2748 0
M  V30 9453 H 896.715 4.94565 -0.917324 0
M  V30 9454 H 896.415 5.24576 -2.64751 0
M  V30 9455 H 897.939 5.80291 -1.89985 0
M  V30 9456 H 899.353 4.39444 -3.68187 0
M  V30 9457 H 897.75 4.07468 -4.40556 0
M  V30 9458 H 898.82 2.71549 -4.01732 0
M  V30 9459 N 900.163 1.21714 1.00117 0
M  V30 9460 C 901.096 0.923113 2.08696 0
M  V30 9461 C 902.074 -0.130827 1.62073 0
M  V30 9462 O 903.258 -0.00103064 1.885 0
M  V30 9463 C 900.385 0.386807 3.36484 0
M  V30 9464 C 899.431 1.42414 4.0202 0
M  V30 9465 S 900.264 2.99466 4.43937 0
M  V30 9466 C 901.42 2.47452 5.74907 0
M  V30 9467 H 901.653 1.84258 2.33315 0
M  V30 9468 H 899.186 1.0473 1.1345 0
M  V30 9469 H 901.144 0.0839547 4.10414 0
M  V30 9470 H 899.805 -0.511413 3.09909 0
M  V30 9471 H 898.998 0.998593 4.94008 0
M  V30 9472 H 898.6 1.67527 3.34381 0
M  V30 9473 H 900.892 1.88177 6.50842 0
M  V30 9474 H 901.835 3.37898 6.22279 0
M  V30 9475 H 902.243 1.89027 5.31911 0
M  V30 9476 N 901.641 -1.19671 1.02551 0
M  V30 9477 C 902.604 -2.20987 0.608055 0
M  V30 9478 C 903.604 -1.5745 -0.326534 0
M  V30 9479 O 904.794 -1.73827 -0.114003 0
M  V30 9480 C 901.926 -3.4072 -0.11074 0
M  V30 9481 H 903.119 -2.59434 1.50446 0
M  V30 9482 H 900.672 -1.3329 0.816307 0
M  V30 9483 H 901.407 -3.07787 -1.02165 0
M  V30 9484 H 901.192 -3.88069 0.560772 0
M  V30 9485 H 902.682 -4.15776 -0.389848 0
M  V30 9486 N 903.119 -0.802921 -1.35613 0
M  V30 9487 C 904.066 -0.20874 -2.29854 0
M  V30 9488 C 905.036 0.655128 -1.52634 0
M  V30 9489 O 906.221 0.600979 -1.81088 0
M  V30 9490 C 903.361 0.639663 -3.3912 0
M  V30 9491 C 902.474 -0.244234 -4.31309 0
M  V30 9492 C 901.609 0.611825 -5.27665 0
M  V30 9493 C 900.648 -0.272698 -6.11492 0
M  V30 9494 N 899.785 0.543122 -6.99996 0
M  V30 9495 H 904.625 -1.01782 -2.80079 0
M  V30 9496 H 902.162 -0.513465 -1.37848 0
M  V30 9497 H 904.12 1.14668 -4.01132 0
M  V30 9498 H 902.75 1.41404 -2.9018 0
M  V30 9499 H 901.802 -0.869322 -3.70334 0
M  V30 9500 H 903.114 -0.925202 -4.90144 0
M  V30 9501 H 902.268 1.18412 -5.95032 0
M  V30 9502 H 901.007 1.32637 -4.69317 0
M  V30 9503 H 900.012 -0.857287 -5.43075 0
M  V30 9504 H 901.237 -0.985051 -6.71918 0
M  V30 9505 H 899.183 1.24171 -6.44141 0
M  V30 9506 H 899.1 -0.0798767 -7.55958 0
M  V30 9507 H 900.368 1.09881 -7.71717 0
M  V30 9508 N 904.597 1.47463 -0.556102 0
M  V30 9509 C 906.013 1.58134 -0.21579 0
M  V30 9510 C 906.213 1.55486 1.28166 0
M  V30 9511 O 905.269 1.45768 2.06174 0
M  V30 9512 C 906.582 2.88686 -0.841464 0
M  V30 9513 C 908.13 3.02268 -0.812591 0
M  V30 9514 C 908.605 4.35518 -1.41731 0
M  V30 9515 N 910.096 4.42151 -1.38045 0
M  V30 9516 C 910.831 5.43817 -1.81799 0
M  V30 9517 N 910.327 6.52299 -2.33404 0
M  V30 9518 N 912.12 5.34855 -1.72877 0
M  V30 9519 H 904.271 1.47428 -1.52901 0
M  V30 9520 H 906.534 0.701586 -0.637559 0
M  V30 9521 H 906.24 2.96358 -1.8938 0
M  V30 9522 H 906.114 3.7572 -0.333846 0
M  V30 9523 H 908.501 2.94194 0.231056 0
M  V30 9524 H 908.582 2.16779 -1.35796 0
M  V30 9525 H 908.226 4.44348 -2.46002 0
M  V30 9526 H 908.156 5.19737 -0.847402 0
M  V30 9527 H 910.647 3.64348 -1.00296 0
M  V30 9528 H 910.96 7.26047 -2.64717 0
M  V30 9529 H 909.305 6.53192 -2.37414 0
M  V30 9530 H 912.496 4.49004 -1.32338 0
M  V30 9531 H 912.669 6.13949 -2.07294 0
M  V30 9532 N 906.075 0.2925 1.54862 0
M  V30 9533 C 907.323 -0.318633 1.99572 0
M  V30 9534 C 907.644 -1.55062 1.1824 0
M  V30 9535 O 906.914 -1.93943 0.276226 0
M  V30 9536 H 905.494 -0.120722 0.737181 0
M  V30 9537 H 908.156 0.401862 1.90712 0
M  V30 9538 H 907.252 -0.596542 3.06346 0
M  V30 9539 N 907.553 -1.57587 0.0200696 0
M  V30 9540 C 908.483 -2.12702 -0.963333 0
M  V30 9541 C 909.464 -1.04094 -1.34531 0
M  V30 9542 O 910.649 -1.31881 -1.42552 0
M  V30 9543 C 907.779 -2.64673 -2.24868 0
M  V30 9544 C 906.733 -3.77987 -2.00772 0
M  V30 9545 C 906.059 -4.16351 -3.35494 0
M  V30 9546 C 907.359 -5.0444 -1.35416 0
M  V30 9547 H 909.053 -2.95121 -0.504363 0
M  V30 9548 H 906.599 -1.41966 -0.24116 0
M  V30 9549 H 908.552 -3.01862 -2.94036 0
M  V30 9550 H 907.276 -1.79403 -2.72914 0
M  V30 9551 H 905.935 -3.41223 -1.34025 0
M  V30 9552 H 905.583 -3.28075 -3.81282 0
M  V30 9553 H 905.283 -4.92705 -3.20181 0
M  V30 9554 H 906.807 -4.56115 -4.05945 0
M  V30 9555 H 908.221 -5.39273 -1.94571 0
M  V30 9556 H 906.618 -5.85732 -1.30529 0
M  V30 9557 H 907.688 -4.83803 -0.325923 0
M  V30 9558 N 909.032 0.252966 -1.55557 0
M  V30 9559 C 910.262 0.998115 -1.8089 0
M  V30 9560 C 910.67 1.79679 -0.592623 0
M  V30 9561 O 910.013 1.78151 0.448093 0
M  V30 9562 C 910.075 1.98878 -2.99479 0
M  V30 9563 C 909.739 1.37761 -4.35742 0
M  V30 9564 C 910.736 0.783142 -5.13968 0
M  V30 9565 C 908.421 1.39879 -4.8243 0
M  V30 9566 C 910.415 0.218004 -6.37027 0
M  V30 9567 C 908.102 0.829801 -6.0544 0
M  V30 9568 C 909.1 0.240426 -6.82577 0
M  V30 9569 O 908.788 -0.319797 -8.03264 0
M  V30 9570 H 908.52 0.29963 -0.605969 0
M  V30 9571 H 911.074 0.282978 -2.03441 0
M  V30 9572 H 909.304 2.74206 -2.72669 0
M  V30 9573 H 910.993 2.59686 -3.11959 0
M  V30 9574 H 911.759 0.759326 -4.79019 0
M  V30 9575 H 907.638 1.84692 -4.22386 0
M  V30 9576 H 911.182 -0.242654 -6.97178 0
M  V30 9577 H 907.079 0.850924 -6.39867 0
M  V30 9578 H 907.847 -0.211078 -8.18228 0
M  V30 9579 N 910.51 1.48831 0.518367 0
M  V30 9580 C 911.74 1.60886 1.29612 0
M  V30 9581 C 912.148 0.272713 1.87224 0
M  V30 9582 O 911.491 -0.749653 1.67708 0
M  V30 9583 C 911.553 2.60541 2.47707 0
M  V30 9584 C 911.217 4.05324 2.11095 0
M  V30 9585 C 912.214 4.92658 1.66084 0
M  V30 9586 C 909.899 4.50942 2.21262 0
M  V30 9587 C 911.893 6.23641 1.3172 0
M  V30 9588 C 909.58 5.81943 1.8651 0
M  V30 9589 C 910.578 6.68116 1.41812 0
M  V30 9590 O 910.266 7.96677 1.07522 0
M  V30 9591 H 909.998 0.544968 0.399982 0
M  V30 9592 H 912.552 1.95474 0.630799 0
M  V30 9593 H 910.782 2.21098 3.17258 0
M  V30 9594 H 912.471 2.62308 3.09757 0
M  V30 9595 H 913.237 4.58649 1.5769 0
M  V30 9596 H 909.116 3.84048 2.55007 0
M  V30 9597 H 912.66 6.90857 0.967598 0
M  V30 9598 H 908.557 6.15484 1.94549 0
M  V30 9599 H 909.325 8.09534 1.2082 0
M  V30 9600 N 911.988 -0.768124 1.37614 0
M  V30 9601 C 913.213 -1.56239 1.36397 0
M  V30 9602 C 913.638 -1.8804 -0.0475839 0
M  V30 9603 O 912.996 -1.495 -1.02564 0
M  V30 9604 C 913.044 -2.84716 2.21289 0
M  V30 9605 O 912.148 -3.79249 1.62001 0
M  V30 9606 H 911.489 -0.473119 0.465891 0
M  V30 9607 H 914.019 -0.950415 1.81186 0
M  V30 9608 H 914.029 -3.33784 2.34632 0
M  V30 9609 H 912.704 -2.60899 3.2389 0
M  V30 9610 H 911.281 -3.37904 1.57719 0
M  V30 9611 N 913.466 -1.22244 -0.994698 0
M  V30 9612 C 914.396 -1.01513 -2.10279 0
M  V30 9613 C 915.377 0.0633365 -1.69982 0
M  V30 9614 O 916.562 -0.0985268 -1.9395 0
M  V30 9615 C 913.692 -0.59016 -3.42249 0
M  V30 9616 C 912.646 -1.61436 -3.96387 0
M  V30 9617 C 911.972 -1.04528 -5.24383 0
M  V30 9618 C 913.272 -3.00388 -4.27276 0
M  V30 9619 H 914.966 -1.94194 -2.2788 0
M  V30 9620 H 912.512 -0.935094 -1.09508 0
M  V30 9621 H 914.465 -0.432254 -4.19177 0
M  V30 9622 H 913.189 0.372308 -3.24471 0
M  V30 9623 H 911.848 -1.76001 -3.21589 0
M  V30 9624 H 911.496 -0.0742225 -5.02945 0
M  V30 9625 H 911.196 -1.72949 -5.61571 0
M  V30 9626 H 912.72 -0.898922 -6.03947 0
M  V30 9627 H 914.134 -2.89207 -4.95007 0
M  V30 9628 H 912.531 -3.65916 -4.75631 0
M  V30 9629 H 913.601 -3.50456 -3.35125 0
M  V30 9630 N 914.944 1.19125 -1.03184 0
M  V30 9631 C 916.19 1.89163 -0.731111 0
M  V30 9632 C 916.523 1.79604 0.738662 0
M  V30 9633 O 915.798 1.19037 1.53819 0
M  V30 9634 C 916.081 3.39986 -1.18666 0
M  V30 9635 C 915.934 3.58401 -2.71788 0
M  V30 9636 C 917.253 4.33316 -0.769772 0
M  V30 9637 H 914.372 0.686908 -0.267069 0
M  V30 9638 H 917.014 1.40205 -1.28229 0
M  V30 9639 H 915.164 3.81813 -0.717736 0
M  V30 9640 H 916.836 3.25727 -3.26649 0
M  V30 9641 H 915.079 3.01355 -3.12038 0
M  V30 9642 H 915.75 4.64189 -2.98719 0
M  V30 9643 H 918.226 3.9922 -1.17314 0
M  V30 9644 H 917.102 5.37427 -1.11637 0
M  V30 9645 H 917.363 4.40884 0.327681 0
M  V30 9646 N 916.422 0.810101 1.35185 0
M  V30 9647 C 917.355 0.168416 2.27578 0
M  V30 9648 C 918.333 -0.667664 1.4826 0
M  V30 9649 O 919.517 -0.634184 1.77512 0
M  V30 9650 C 916.644 -0.765994 3.29925 0
M  V30 9651 C 915.69 -0.00908802 4.26499 0
M  V30 9652 S 916.523 1.32936 5.18737 0
M  V30 9653 C 917.679 0.399485 6.24624 0
M  V30 9654 H 917.912 0.951753 2.81654 0
M  V30 9655 H 915.445 0.60534 1.42039 0
M  V30 9656 H 917.403 -1.2996 3.89385 0
M  V30 9657 H 916.064 -1.52275 2.7472 0
M  V30 9658 H 915.257 -0.718919 4.98846 0
M  V30 9659 H 914.859 0.454663 3.71226 0
M  V30 9660 H 917.151 -0.413904 6.76234 0
M  V30 9661 H 918.094 1.09225 6.99625 0
M  V30 9662 H 918.502 -0.00638358 5.645 0
M  V30 9663 N 917.9 -1.47166 0.563914 0
M  V30 9664 C 919.125 -2.0735 0.0454698 0
M  V30 9665 C 919.55 -1.41281 -1.24182 0
M  V30 9666 O 918.908 -0.490084 -1.7455 0
M  V30 9667 C 918.956 -3.60378 -0.126453 0
M  V30 9668 O 918.06 -3.94934 -1.18746 0
M  V30 9669 H 917.401 -0.661773 0.0543377 0
M  V30 9670 H 919.931 -1.89086 0.781508 0
M  V30 9671 H 919.941 -4.06593 -0.338554 0
M  V30 9672 H 918.616 -4.07862 0.81373 0
M  V30 9673 H 917.193 -3.60455 -0.955318 0
M  V30 9674 N 919.378 -0.300708 -1.54705 0
M  V30 9675 C 920.31 0.609179 -2.20956 0
M  V30 9676 C 921.323 1.09776 -1.20221 0
M  V30 9677 O 922.512 1.01527 -1.46815 0
M  V30 9678 C 919.612 1.84595 -2.84214 0
M  V30 9679 C 918.785 1.49991 -4.10879 0
M  V30 9680 C 917.844 2.5918 -4.57943 0
M  V30 9681 O 916.87 2.24285 -5.23149 0
M  V30 9682 N 918.072 3.89714 -4.30236 0
M  V30 9683 H 920.837 0.0420111 -2.99671 0
M  V30 9684 H 918.398 -0.122896 -1.61433 0
M  V30 9685 H 920.39 2.56988 -3.12633 0
M  V30 9686 H 918.96 2.32152 -2.09342 0
M  V30 9687 H 918.18 0.608637 -3.89473 0
M  V30 9688 H 919.468 1.24409 -4.93356 0
M  V30 9689 H 918.866 4.20874 -3.77997 0
M  V30 9690 H 917.423 4.58406 -4.63365 0
M  V30 9691 N 920.856 1.57574 -0.0284266 0
M  V30 9692 C 922.133 1.83064 0.688979 0
M  V30 9693 C 922.513 0.91219 1.90374 0
M  V30 9694 O 921.861 -0.0323672 2.28477 0
M  V30 9695 C 922.071 3.32262 1.06785 0
M  V30 9696 C 923.419 3.98717 1.45978 0
M  V30 9697 O 924.443 3.36753 1.16085 0
M  V30 9698 O 923.302 5.07927 2.01673 0
M  V30 9699 H 920.396 0.7548 0.337944 0
M  V30 9700 H 922.942 1.69607 -0.0560555 0
M  V30 9701 H 921.714 3.90772 0.203235 0
M  V30 9702 H 921.337 3.50823 1.87107 0
M  V30 9703 N 922.334 -0.244713 1.55689 0
M  V30 9704 C 923.583 -0.970373 1.76824 0
M  V30 9705 C 923.896 -1.86402 0.592764 0
M  V30 9706 O 925.102 -2.62659 0.687186 0
M  V30 9707 C 923.558 -1.77547 3.13058 0
M  V30 9708 C 923.166 -0.929104 4.3826 0
M  V30 9709 C 924.91 -2.49373 3.43531 0
M  V30 9710 C 922.817 -1.73021 5.65524 0
M  V30 9711 H 921.747 -0.366048 0.659185 0
M  V30 9712 H 924.398 -0.224964 1.82116 0
M  V30 9713 H 922.78 -2.56291 3.01879 0
M  V30 9714 H 923.954 -0.183836 4.60433 0
M  V30 9715 H 922.269 -0.324071 4.15137 0
M  V30 9716 H 924.866 -3.09767 4.35831 0
M  V30 9717 H 925.209 -3.21099 2.64955 0
M  V30 9718 H 925.742 -1.77637 3.55935 0
M  V30 9719 H 922.481 -1.05666 6.46927 0
M  V30 9720 H 922.001 -2.45071 5.47449 0
M  V30 9721 H 923.68 -2.2968 6.0486 0
M  V30 9722 N 923.813 -1.49104 -0.510467 0
M  V30 9723 C 924.76 -1.65074 -1.61305 0
M  V30 9724 C 925.73 -0.492362 -1.58635 0
M  V30 9725 O 926.915 -0.718241 -1.76765 0
M  V30 9726 C 924.055 -1.71457 -2.99493 0
M  V30 9727 C 923.168 -2.98536 -3.12251 0
M  V30 9728 C 922.303 -2.95957 -4.41116 0
M  V30 9729 C 921.342 -4.17655 -4.47471 0
M  V30 9730 N 920.479 -4.13041 -5.67751 0
M  V30 9731 H 925.319 -2.59222 -1.46996 0
M  V30 9732 H 922.856 -1.28535 -0.715346 0
M  V30 9733 H 924.814 -1.7314 -3.79577 0
M  V30 9734 H 923.444 -0.807834 -3.12528 0
M  V30 9735 H 922.496 -3.06509 -2.25292 0
M  V30 9736 H 923.808 -3.88527 -3.12807 0
M  V30 9737 H 922.962 -2.96149 -5.2951 0
M  V30 9738 H 921.701 -2.03728 -4.4311 0
M  V30 9739 H 920.706 -4.17717 -3.57481 0
M  V30 9740 H 921.931 -5.11066 -4.472 0
M  V30 9741 H 919.877 -3.23643 -5.70606 0
M  V30 9742 H 919.794 -4.96757 -5.69884 0
M  V30 9743 H 921.062 -4.17322 -6.58379 0
M  V30 9744 N 925.291 0.760815 -1.38019 0
M  V30 9745 C 926.238 1.8744 -1.34666 0
M  V30 9746 C 927.208 1.64762 -0.210386 0
M  V30 9747 O 928.393 1.86528 -0.401479 0
M  V30 9748 C 925.533 3.24648 -1.17037 0
M  V30 9749 C 924.646 3.59206 -2.3999 0
M  V30 9750 C 923.781 4.8568 -2.15148 0
M  V30 9751 C 922.82 5.13002 -3.3391 0
M  V30 9752 N 921.957 6.30668 -3.08549 0
M  V30 9753 H 926.797 1.8964 -2.29871 0
M  V30 9754 H 924.334 0.927004 -1.14215 0
M  V30 9755 H 926.292 4.03814 -1.04834 0
M  V30 9756 H 924.922 3.21793 -0.254758 0
M  V30 9757 H 923.974 2.74939 -2.62893 0
M  V30 9758 H 925.286 3.75328 -3.28527 0
M  V30 9759 H 924.44 5.72773 -2.00039 0
M  V30 9760 H 923.179 4.71682 -1.23965 0
M  V30 9761 H 922.184 4.2438 -3.49545 0
M  V30 9762 H 923.409 5.28901 -4.25958 0
M  V30 9763 H 921.355 6.18008 -2.20006 0
M  V30 9764 H 921.272 6.47257 -3.90633 0
M  V30 9765 H 922.54 7.20669 -2.9708 0
M  V30 9766 N 926.769 1.22769 0.988202 0
M  V30 9767 C 927.732 1.00325 2.06076 0
M  V30 9768 C 928.732 -0.0320618 1.60768 0
M  V30 9769 O 929.922 0.206912 1.72967 0
M  V30 9770 C 927.054 0.516376 3.36966 0
M  V30 9771 H 928.247 1.95499 2.27421 0
M  V30 9772 H 925.8 1.04704 1.16047 0
M  V30 9773 H 926.535 -0.439498 3.21308 0
M  V30 9774 H 926.32 1.26337 3.71189 0
M  V30 9775 H 927.81 0.37974 4.1587 0
M  V30 9776 N 928.247 -1.18576 1.03814 0
M  V30 9777 C 929.524 -1.8433 0.654358 0
M  V30 9778 C 929.904 -1.92504 -0.866338 0
M  V30 9779 O 929.252 -1.44904 -1.76678 0
M  V30 9780 C 929.462 -3.22778 1.32723 0
M  V30 9781 C 930.81 -3.98841 1.45641 0
M  V30 9782 O 931.834 -3.32209 1.28514 0
M  V30 9783 O 930.693 -5.18219 1.73526 0
M  V30 9784 H 927.787 -0.794766 0.228638 0
M  V30 9785 H 930.333 -1.25989 1.13687 0
M  V30 9786 H 929.105 -3.11717 2.36534 0
M  V30 9787 H 928.728 -3.88772 0.833176 0
M  V30 9788 N 929.725 -0.817259 -1.34754 0
M  V30 9789 C 930.635 -0.236946 -2.334 0
M  V30 9790 C 931.651 0.625685 -1.62361 0
M  V30 9791 O 932.827 0.534921 -1.94166 0
M  V30 9792 C 929.892 0.596215 -3.41535 0
M  V30 9793 C 928.953 -0.288154 -4.28332 0
M  V30 9794 C 928.186 0.505337 -5.31302 0
M  V30 9795 O 928.409 1.73912 -5.43241 0
M  V30 9796 O 927.343 -0.109374 -6.01801 0
M  V30 9797 H 931.169 -1.05327 -2.84851 0
M  V30 9798 H 928.754 -0.579275 -1.37713 0
M  V30 9799 H 930.636 1.07041 -4.07578 0
M  V30 9800 H 929.311 1.38997 -2.92338 0
M  V30 9801 H 928.218 -0.809724 -3.65232 0
M  V30 9802 H 929.551 -1.04612 -4.80955 0
M  V30 9803 N 931.203 1.46865 -0.571711 0
M  V30 9804 C 932.135 2.28277 0.205479 0
M  V30 9805 C 933.148 1.37866 0.865835 0
M  V30 9806 O 934.337 1.62564 0.737247 0
M  V30 9807 C 931.437 3.12572 1.30965 0
M  V30 9808 C 930.61 4.31038 0.743328 0
M  V30 9809 C 929.669 4.96815 1.73382 0
M  V30 9810 O 928.695 5.54755 1.2742 0
M  V30 9811 N 929.897 4.92825 3.06764 0
M  V30 9812 H 932.662 2.95618 -0.49294 0
M  V30 9813 H 930.223 1.56655 -0.408744 0
M  V30 9814 H 932.215 3.53442 1.97131 0
M  V30 9815 H 930.785 2.47378 1.91109 0
M  V30 9816 H 930.005 3.94084 -0.0955004 0
M  V30 9817 H 931.293 5.07632 0.344556 0
M  V30 9818 H 930.691 4.46978 3.46738 0
M  V30 9819 H 929.248 5.3767 3.68449 0
M  V30 9820 N 932.681 0.308908 1.54543 0
M  V30 9821 C 933.614 -0.605854 2.20011 0
M  V30 9822 C 934.592 -1.1269 1.17216 0
M  V30 9823 O 935.776 -1.19363 1.45893 0
M  V30 9824 C 932.903 -1.82977 2.85021 0
M  V30 9825 C 931.949 -1.44126 4.0141 0
M  V30 9826 S 932.782 -0.490445 5.33249 0
M  V30 9827 C 933.938 -1.72198 6.01746 0
M  V30 9828 H 934.171 -0.0496911 2.97258 0
M  V30 9829 H 931.704 0.0930238 1.5412 0
M  V30 9830 H 933.662 -2.53211 3.23102 0
M  V30 9831 H 932.323 -2.35711 2.07604 0
M  V30 9832 H 931.516 -2.35288 4.45708 0
M  V30 9833 H 931.118 -0.818788 3.64927 0
M  V30 9834 H 933.41 -2.66147 6.23034 0
M  V30 9835 H 934.353 -1.32142 6.95661 0
M  V30 9836 H 934.761 -1.90229 5.31482 0
M  V30 9837 N 934.159 -1.57557 0.0367827 0
M  V30 9838 C 935.069 -2.14148 -0.958017 0
M  V30 9839 C 936.085 -1.09564 -1.35173 0
M  V30 9840 O 937.261 -1.4166 -1.43158 0
M  V30 9841 C 934.326 -2.6636 -2.21931 0
M  V30 9842 C 933.387 -3.85688 -1.8853 0
M  V30 9843 C 932.62 -4.35401 -3.08645 0
M  V30 9844 O 932.843 -3.8425 -4.21554 0
M  V30 9845 O 931.777 -5.27158 -2.90497 0
M  V30 9846 H 935.603 -2.99442 -0.506797 0
M  V30 9847 H 933.188 -1.48259 -0.184275 0
M  V30 9848 H 935.07 -2.99976 -2.9596 0
M  V30 9849 H 933.745 -1.84145 -2.66219 0
M  V30 9850 H 932.652 -3.56985 -1.11861 0
M  V30 9851 H 933.985 -4.69089 -1.49052 0
M  V30 9852 N 935.637 0.236453 -1.55816 0
M  V30 9853 C 936.862 0.98449 -1.82545 0
M  V30 9854 C 937.287 1.77755 -0.615206 0
M  V30 9855 O 936.645 1.75982 0.435895 0
M  V30 9856 C 936.693 1.88973 -3.07118 0
M  V30 9857 O 935.797 2.98298 -2.84766 0
M  V30 9858 H 935.138 0.279577 -0.602273 0
M  V30 9859 H 937.668 0.254277 -2.03014 0
M  V30 9860 H 937.678 2.3024 -3.36829 0
M  V30 9861 H 936.353 1.30671 -3.94839 0
M  V30 9862 H 934.93 2.61085 -2.6625 0
M  V30 9863 N 937.115 1.49373 0.502552 0
M  V30 9864 C 938.048 1.60529 1.6219 0
M  V30 9865 C 939.026 0.454431 1.56121 0
M  V30 9866 O 940.21 0.669768 1.762 0
M  V30 9867 C 937.337 1.55879 3.00698 0
M  V30 9868 C 936.383 2.76143 3.25034 0
M  V30 9869 S 937.216 4.37831 3.08325 0
M  V30 9870 C 938.372 4.35824 4.49231 0
M  V30 9871 H 938.605 2.55219 1.52482 0
M  V30 9872 H 936.138 1.38244 0.687594 0
M  V30 9873 H 938.096 1.53882 3.80566 0
M  V30 9874 H 936.757 0.624791 3.07823 0
M  V30 9875 H 935.95 2.69104 4.26144 0
M  V30 9876 H 935.552 2.75544 2.52886 0
M  V30 9877 H 937.844 4.07447 5.41288 0
M  V30 9878 H 938.787 5.37206 4.6132 0
M  V30 9879 H 939.195 3.65923 4.29838 0
M  V30 9880 N 938.594 -0.753485 1.38421 0
M  V30 9881 C 939.822 -1.54272 1.37868 0
M  V30 9882 C 940.237 -1.88774 -0.0315155 0
M  V30 9883 O 939.594 -1.52785 -0.998148 0
M  V30 9884 C 939.645 -2.84179 2.23438 0
M  V30 9885 O 939.366 -2.51149 3.58965 0
M  V30 9886 C 940.867 -3.78316 2.31067 0
M  V30 9887 H 938.087 -0.47735 0.47157 0
M  V30 9888 H 940.631 -0.932509 1.82001 0
M  V30 9889 H 938.786 -3.41577 1.82767 0
M  V30 9890 H 939.2 -3.34466 4.04021 0
M  V30 9891 H 940.674 -4.66418 2.95226 0
M  V30 9892 H 941.151 -4.18757 1.32436 0
M  V30 9893 H 941.757 -3.26842 2.72129 0
M  V30 9894 N 940.072 -1.23292 -0.981677 0
M  V30 9895 C 941.302 -1.0893 -1.7555 0
M  V30 9896 C 941.71 0.362219 -1.857 0
M  V30 9897 O 941.053 1.2624 -1.33451 0
M  V30 9898 C 941.115 -1.6389 -3.19969 0
M  V30 9899 C 940.779 -3.12632 -3.33332 0
M  V30 9900 C 941.776 -4.0994 -3.19758 0
M  V30 9901 C 939.461 -3.52314 -3.58022 0
M  V30 9902 C 941.455 -5.44915 -3.30676 0
M  V30 9903 C 939.142 -4.87434 -3.6858 0
M  V30 9904 C 940.14 -5.83544 -3.54916 0
M  V30 9905 O 939.828 -7.16209 -3.65102 0
M  V30 9906 H 939.56 -0.381901 -0.557788 0
M  V30 9907 H 942.114 -1.63586 -1.24213 0
M  V30 9908 H 940.344 -1.03653 -3.72549 0
M  V30 9909 H 942.033 -1.45023 -3.79108 0
M  V30 9910 H 942.799 -3.80625 -3.00582 0
M  V30 9911 H 938.678 -2.78022 -3.67729 0
M  V30 9912 H 942.222 -6.19913 -3.19928 0
M  V30 9913 H 938.119 -5.16426 -3.87265 0
M  V30 9914 H 938.887 -7.23941 -3.81905 0
M  V30 9915 N 941.55 1.18024 -1.04442 0
M  V30 9916 C 942.775 1.92573 -0.770097 0
M  V30 9917 C 943.2 1.75871 0.667169 0
M  V30 9918 O 942.558 1.07136 1.46258 0
M  V30 9919 C 942.606 3.41904 -1.14602 0
M  V30 9920 O 941.71 4.11491 -0.273712 0
M  V30 9921 H 941.051 0.600636 -0.283076 0
M  V30 9922 H 943.581 1.49645 -1.39526 0
M  V30 9923 H 943.591 3.92623 -1.10956 0
M  V30 9924 H 942.266 3.53382 -2.19304 0
M  V30 9925 H 940.843 3.71059 -0.370124 0
M  V30 9926 N 943.028 0.824394 1.34319 0
M  V30 9927 C 944.256 0.426194 2.02463 0
M  V30 9928 C 944.671 -0.968298 1.62078 0
M  V30 9929 O 944.028 -1.62689 0.82696 0
M  V30 9930 C 944.079 0.520465 3.57734 0
M  V30 9931 O 943.8 1.86 3.96656 0
M  V30 9932 C 945.301 0.117353 4.43145 0
M  V30 9933 H 942.521 0.170864 0.648881 0
M  V30 9934 H 945.065 1.11296 1.71562 0
M  V30 9935 H 943.22 -0.118233 3.8722 0
M  V30 9936 H 943.634 1.83528 4.91343 0
M  V30 9937 H 945.108 0.234395 5.51502 0
M  V30 9938 H 945.585 -0.939271 4.29039 0
M  V30 9939 H 946.191 0.729908 4.1899 0
M  V30 9940 N 944.506 -1.46559 0.579492 0
M  V30 9941 C 945.416 -2.34066 -0.15816 0
M  V30 9942 C 946.432 -1.49556 -0.88932 0
M  V30 9943 O 947.608 -1.82434 -0.853226 0
M  V30 9944 C 944.673 -3.26683 -1.161 0
M  V30 9945 C 943.734 -4.27092 -0.434855 0
M  V30 9946 C 942.967 -5.15283 -1.38992 0
M  V30 9947 O 943.19 -5.06345 -2.62623 0
M  V30 9948 O 942.124 -5.95099 -0.902253 0
M  V30 9949 H 945.95 -2.98488 0.560234 0
M  V30 9950 H 943.535 -1.45482 0.339918 0
M  V30 9951 H 945.417 -3.8383 -1.73932 0
M  V30 9952 H 944.092 -2.64862 -1.86091 0
M  V30 9953 H 942.999 -3.73641 0.185224 0
M  V30 9954 H 944.332 -4.9169 0.224031 0
M  V30 9955 N 945.984 -0.3171 -1.54377 0
M  V30 9956 C 947.4 0.035766 -1.5956 0
M  V30 9957 C 947.6 1.51038 -1.33378 0
M  V30 9958 O 946.656 2.26546 -1.11505 0
M  V30 9959 C 947.969 -0.376652 -2.98332 0
M  V30 9960 C 949.517 -0.326765 -3.1129 0
M  V30 9961 C 949.992 -0.714247 -4.52396 0
M  V30 9962 N 951.483 -0.667402 -4.58367 0
M  V30 9963 C 952.218 -0.939494 -5.65651 0
M  V30 9964 N 951.714 -1.27839 -6.80903 0
M  V30 9965 N 953.507 -0.865484 -5.55397 0
M  V30 9966 H 945.658 -1.27794 -1.69654 0
M  V30 9967 H 947.921 -0.5192 -0.79318 0
M  V30 9968 H 947.627 -1.40381 -3.22469 0
M  V30 9969 H 947.501 0.261611 -3.76292 0
M  V30 9970 H 949.888 0.69117 -2.86892 0
M  V30 9971 H 949.969 -0.999873 -2.35449 0
M  V30 9972 H 949.613 -1.73007 -4.77526 0
M  V30 9973 H 949.543 -0.0188962 -5.26597 0
M  V30 9974 H 952.034 -0.417062 -3.75592 0
M  V30 9975 H 952.347 -1.47155 -7.5866 0
M  V30 9976 H 950.692 -1.31658 -6.82416 0
M  V30 9977 H 953.883 -0.600265 -4.64235 0
M  V30 9978 H 954.056 -1.0809 -6.38921 0
M  V30 9979 N 947.462 1.57535 -0.0451378 0
M  V30 9980 C 948.409 2.11176 0.931313 0
M  V30 9981 C 949.379 1.01765 1.31275 0
M  V30 9982 O 950.564 1.29279 1.40327 0
M  V30 9983 C 947.704 2.65639 2.20295 0
M  V30 9984 C 946.817 3.89114 1.87654 0
M  V30 9985 C 945.952 4.31914 3.09232 0
M  V30 9986 C 944.991 5.48105 2.72484 0
M  V30 9987 N 944.128 5.85986 3.86736 0
M  V30 9988 H 948.968 2.94318 0.466986 0
M  V30 9989 H 946.505 1.45462 0.218886 0
M  V30 9990 H 948.463 2.95312 2.94697 0
M  V30 9991 H 947.093 1.85303 2.64316 0
M  V30 9992 H 946.145 3.6607 1.03427 0
M  V30 9993 H 947.457 4.7358 1.56601 0
M  V30 9994 H 946.611 4.63108 3.91939 0
M  V30 9995 H 945.35 3.46247 3.43459 0
M  V30 9996 H 944.355 5.16589 1.88192 0
M  V30 9997 H 945.58 6.35482 2.39455 0
M  V30 9998 H 943.526 5.03273 4.20775 0
M  V30 9999 H 943.443 6.65129 3.5936 0
M  V30 10000 H 944.711 6.21793 4.701 0
M  V30 10001 N 948.94 -0.228186 1.55939 0
M  V30 10002 C 950.168 -0.970618 1.8272 0
M  V30 10003 C 950.583 -1.78212 0.623385 0
M  V30 10004 O 949.94 -1.77879 -0.408063 0
M  V30 10005 C 949.991 -1.89352 3.07942 0
M  V30 10006 O 949.712 -1.11483 4.23678 0
M  V30 10007 C 951.213 -2.75039 3.47661 0
M  V30 10008 H 948.433 -0.284772 0.607574 0
M  V30 10009 H 950.977 -0.245419 2.03022 0
M  V30 10010 H 949.132 -2.57275 2.89635 0
M  V30 10011 H 949.546 -1.74073 4.94772 0
M  V30 10012 H 951.02 -3.35511 4.38334 0
M  V30 10013 H 951.497 -3.471 2.69106 0
M  V30 10014 H 952.103 -2.1254 3.68384 0
M  V30 10015 N 950.418 -1.49637 -0.494624 0
M  V30 10016 C 951.366 -1.6727 -1.61627 0
M  V30 10017 C 952.36 -0.538587 -1.6061 0
M  V30 10018 O 953.566 -0.718411 -1.65042 0
M  V30 10019 H 949.941 -0.527557 -0.535899 0
M  V30 10020 H 951.912 -2.61405 -1.43909 0
M  V30 10021 C 950.661 -1.7624 -2.99725 0
M  V30 10022 H 949.984 -2.62886 -3.01216 0
M  V30 10023 H 951.424 -1.92611 -3.77726 0
M  V30 10024 C 949.883 -0.508632 -3.33038 0
M  V30 10025 O 950.413 0.362828 -4.00058 0
M  V30 10026 N 948.619 -0.369667 -2.88239 0
M  V30 10027 H 948.166 -1.07984 -2.33875 0
M  V30 10028 H 948.124 0.468112 -3.10896 0
M  V30 10029 N 951.896 0.746133 -1.38819 0
M  V30 10030 C 953.121 1.54049 -1.38866 0
M  V30 10031 C 953.546 1.88092 0.0176624 0
M  V30 10032 O 952.904 1.51113 1.00173 0
M  V30 10033 C 952.952 2.8116 -2.25791 0
M  V30 10034 O 952.056 3.76623 -1.68014 0
M  V30 10035 H 951.397 0.465648 -0.473359 0
M  V30 10036 H 953.927 0.921469 -1.82675 0
M  V30 10037 H 953.937 3.30009 -2.39913 0
M  V30 10038 H 952.612 2.55713 -3.27999 0
M  V30 10039 H 951.189 3.35352 -1.63074 0
M  V30 10040 N 953.375 1.23811 0.975125 0
M  V30 10041 C 954.305 1.04846 2.08638 0
M  V30 10042 C 955.286 -0.0362859 1.70061 0
M  V30 10043 O 956.471 0.12937 1.93769 0
M  V30 10044 C 953.601 0.644534 3.41267 0
M  V30 10045 C 952.555 1.67722 3.93768 0
M  V30 10046 C 951.881 1.12857 5.22654 0
M  V30 10047 C 953.181 3.07147 4.22443 0
M  V30 10048 H 954.875 1.97795 2.24761 0
M  V30 10049 H 952.421 0.952397 1.08006 0
M  V30 10050 H 954.374 0.498887 4.18436 0
M  V30 10051 H 953.098 -0.320641 3.25022 0
M  V30 10052 H 951.757 1.81095 3.18748 0
M  V30 10053 H 951.405 0.154227 5.02764 0
M  V30 10054 H 951.105 1.81862 5.58749 0
M  V30 10055 H 952.629 0.994891 6.0244 0
M  V30 10056 H 954.043 2.97045 4.90344 0
M  V30 10057 H 952.44 3.73437 4.6975 0
M  V30 10058 H 953.51 3.55743 3.29507 0
M  V30 10059 N 954.853 -1.17469 1.05066 0
M  V30 10060 C 956.264 -1.69334 0.786304 0
M  V30 10061 C 956.615 -1.83604 -0.691671 0
M  V30 10062 O 955.74 -1.52269 -1.53763 0
M  V30 10063 C 956.335 -3.07572 1.42074 0
M  V30 10064 C 954.894 -3.56609 1.20446 0
M  V30 10065 C 954.041 -2.329 1.50508 0
M  V30 10066 H 956.992 -1.02003 1.21577 0
M  V30 10067 H 957.013 -3.71352 0.829334 0
M  V30 10068 H 956.525 -2.97154 2.49642 0
M  V30 10069 H 954.626 -3.72306 0.147968 0
M  V30 10070 H 954.739 -4.39446 1.90852 0
M  V30 10071 H 953.103 -2.37305 0.925124 0
M  V30 10072 H 953.886 -2.25093 2.59207 0
M  V30 10073 N 956.331 -0.831506 -1.3388 0
M  V30 10074 C 957.261 -0.274378 -2.31882 0
M  V30 10075 C 958.242 0.613872 -1.58637 0
M  V30 10076 O 959.427 0.538961 -1.86571 0
M  V30 10077 C 956.557 0.557498 -3.42796 0
M  V30 10078 C 955.511 -0.234337 -4.27358 0
M  V30 10079 C 954.837 0.720825 -5.29819 0
M  V30 10080 C 956.137 -1.44732 -5.01847 0
M  V30 10081 H 957.831 -1.09322 -2.78728 0
M  V30 10082 H 955.377 -0.527136 -1.34005 0
M  V30 10083 H 957.33 0.957501 -4.10378 0
M  V30 10084 H 956.054 1.40947 -2.94621 0
M  V30 10085 H 954.713 -0.61581 -3.61391 0
M  V30 10086 H 954.361 1.569 -4.77903 0
M  V30 10087 H 954.061 0.195171 -5.87276 0
M  V30 10088 H 955.585 1.1185 -6.00268 0
M  V30 10089 H 956.999 -1.12087 -5.62236 0
M  V30 10090 H 955.396 -1.90923 -5.68919 0
M  V30 10091 H 956.466 -2.22099 -4.31045 0
M  V30 10092 N 957.809 1.4625 -0.587256 0
M  V30 10093 C 958.759 2.27407 0.164393 0
M  V30 10094 C 959.743 1.36138 0.857628 0
M  V30 10095 O 960.935 1.60279 0.750973 0
M  V30 10096 C 958.064 3.22585 1.17447 0
M  V30 10097 C 957.15 4.21339 0.483121 0
M  V30 10098 N 957.541 5.03669 -0.46385 0
M  V30 10099 C 955.839 4.39931 0.73329 0
M  V30 10100 C 956.54 5.75182 -0.868334 0
M  V30 10101 N 955.516 5.43169 -0.216487 0
M  V30 10102 H 959.318 2.88453 -0.563237 0
M  V30 10103 H 956.832 1.57155 -0.409388 0
M  V30 10104 H 958.829 3.79439 1.72718 0
M  V30 10105 H 957.489 2.63098 1.90288 0
M  V30 10106 H 958.5 5.11049 -0.839602 0
M  V30 10107 H 955.177 3.91588 1.44792 0
M  V30 10108 H 956.567 6.51371 -1.64821 0
M  V30 10109 N 959.287 0.325282 1.54207 0
M  V30 10110 C 960.512 -0.281418 2.05482 0
M  V30 10111 C 960.937 -1.44869 1.19977 0
M  V30 10112 O 960.295 -1.80088 0.209275 0
M  V30 10113 C 960.343 -0.692029 3.53897 0
M  V30 10114 O 959.447 -1.7942 3.71325 0
M  V30 10115 H 958.788 -0.0504872 0.662078 0
M  V30 10116 H 961.318 0.474191 1.99029 0
M  V30 10117 H 961.328 -0.974219 3.96198 0
M  V30 10118 H 960.003 0.161709 4.15586 0
M  V30 10119 H 958.58 -1.51069 3.40929 0
M  V30 10120 N 960.765 -1.57509 0.0534917 0
M  V30 10121 C 962.011 -1.93068 -0.62069 0
M  V30 10122 C 962.344 -0.932313 -1.70357 0
M  V30 10123 O 961.619 0.0413393 -1.94456 0
M  V30 10124 C 961.902 -3.38997 -1.21463 0
M  V30 10125 C 961.755 -4.49583 -0.13965 0
M  V30 10126 C 963.074 -3.85366 -2.12558 0
M  V30 10127 H 960.193 -0.702083 -0.224163 0
M  V30 10128 H 962.835 -1.89647 0.115729 0
M  V30 10129 H 960.985 -3.42043 -1.84226 0
M  V30 10130 H 962.657 -4.58664 0.492411 0
M  V30 10131 H 960.9 -4.30525 0.532006 0
M  V30 10132 H 961.571 -5.48781 -0.595287 0
M  V30 10133 H 964.047 -3.8421 -1.59755 0
M  V30 10134 H 962.923 -4.8812 -2.51058 0
M  V30 10135 H 963.184 -3.22256 -3.02661 0
M  V30 10136 N 962.243 0.219913 -1.56058 0
M  V30 10137 C 963.19 1.27254 -1.92549 0
M  V30 10138 C 964.16 1.46493 -0.782883 0
M  V30 10139 O 965.345 1.60035 -1.03892 0
M  V30 10140 C 962.485 2.61756 -2.24896 0
M  V30 10141 C 961.598 2.50302 -3.52098 0
M  V30 10142 C 960.733 3.77338 -3.73884 0
M  V30 10143 C 959.772 3.60613 -4.94595 0
M  V30 10144 N 958.909 4.79603 -5.12763 0
M  V30 10145 H 963.749 0.954352 -2.82305 0
M  V30 10146 H 961.286 0.459928 -1.39725 0
M  V30 10147 H 963.244 3.40082 -2.4166 0
M  V30 10148 H 961.874 2.91668 -1.38311 0
M  V30 10149 H 960.926 1.63401 -3.43517 0
M  V30 10150 H 962.238 2.33866 -4.40577 0
M  V30 10151 H 961.392 4.64108 -3.90754 0
M  V30 10152 H 960.131 3.96702 -2.83689 0
M  V30 10153 H 959.136 2.72228 -4.77674 0
M  V30 10154 H 960.361 3.42719 -5.86277 0
M  V30 10155 H 958.307 4.99277 -4.2551 0
M  V30 10156 H 958.224 4.65899 -5.95377 0
M  V30 10157 H 959.492 5.67794 -5.34069 0
M  V30 10158 N 963.721 1.49897 0.486681 0
M  V30 10159 C 964.946 1.64106 1.26823 0
M  V30 10160 C 965.371 0.317967 1.85393 0
M  V30 10161 O 964.729 -0.71626 1.66551 0
M  V30 10162 C 964.777 2.72301 2.36399 0
M  V30 10163 O 963.881 2.32469 3.40634 0
M  V30 10164 H 963.222 0.548794 0.373793 0
M  V30 10165 H 965.752 1.96177 0.581017 0
M  V30 10166 H 965.762 2.94906 2.81948 0
M  V30 10167 H 964.437 3.68335 1.93137 0
M  V30 10168 H 963.014 2.20251 3.00905 0
M  V30 10169 N 965.199 -0.738761 1.39212 0
M  V30 10170 C 966.448 -1.49368 1.35543 0
M  V30 10171 C 966.761 -1.95543 -0.0471091 0
M  V30 10172 O 967.967 -2.70714 -0.206376 0
M  V30 10173 C 966.423 -2.69882 2.381 0
M  V30 10174 C 966.031 -2.30672 3.8405 0
M  V30 10175 C 967.775 -3.47718 2.435 0
M  V30 10176 C 965.682 -3.47886 4.78256 0
M  V30 10177 H 964.612 -0.560898 0.503894 0
M  V30 10178 H 967.263 -0.806221 1.6484 0
M  V30 10179 H 965.645 -3.40684 2.01867 0
M  V30 10180 H 966.819 -1.67441 4.29302 0
M  V30 10181 H 965.134 -1.65936 3.81909 0
M  V30 10182 H 967.731 -4.34897 3.11077 0
M  V30 10183 H 968.074 -3.89919 1.45838 0
M  V30 10184 H 968.607 -2.83942 2.78606 0
M  V30 10185 H 965.346 -3.10739 5.77167 0
M  V30 10186 H 964.866 -4.10111 4.37686 0
M  V30 10187 H 966.545 -4.14271 4.96979 0
M  V30 10188 N 966.677 -1.24326 -0.968545 0
M  V30 10189 C 967.624 -1.0349 -2.06297 0
M  V30 10190 C 968.594 0.0515333 -1.6602 0
M  V30 10191 O 969.779 -0.102924 -1.90522 0
M  V30 10192 C 966.919 -0.64487 -3.39021 0
M  V30 10193 C 966.032 -1.80469 -3.92498 0
M  V30 10194 C 965.167 -1.36032 -5.13487 0
M  V30 10195 C 964.206 -2.49014 -5.59159 0
M  V30 10196 N 963.343 -2.05451 -6.71367 0
M  V30 10197 H 968.183 -1.97161 -2.23454 0
M  V30 10198 H 965.72 -0.982028 -1.0952 0
M  V30 10199 H 967.678 -0.399771 -4.1528 0
M  V30 10200 H 966.308 0.254845 -3.21792 0
M  V30 10201 H 965.36 -2.16348 -3.12886 0
M  V30 10202 H 966.672 -2.65365 -4.22354 0
M  V30 10203 H 965.826 -1.07405 -5.97117 0
M  V30 10204 H 964.565 -0.481887 -4.85313 0
M  V30 10205 H 963.57 -2.78402 -4.74102 0
M  V30 10206 H 964.795 -3.37413 -5.89346 0
M  V30 10207 H 962.741 -1.20004 -6.4493 0
M  V30 10208 H 962.658 -2.83901 -7.00668 0
M  V30 10209 H 963.926 -1.79962 -7.58442 0
M  V30 10210 N 968.156 1.1691 -1.05688 0
M  V30 10211 C 969.381 1.91745 -0.790478 0
M  V30 10212 C 969.806 1.76568 0.648478 0
M  V30 10213 O 969.164 1.08682 1.45114 0
M  V30 10214 C 969.212 3.4067 -1.18222 0
M  V30 10215 O 968.316 4.11177 -0.317341 0
M  V30 10216 H 967.657 0.5976 -0.28943 0
M  V30 10217 H 970.187 1.48157 -1.41105 0
M  V30 10218 H 970.197 3.91424 -1.15114 0
M  V30 10219 H 968.872 3.51036 -2.2304 0
M  V30 10220 H 967.449 3.70645 -0.409459 0
M  V30 10221 N 969.634 0.838594 1.33437 0
M  V30 10222 C 970.911 0.356112 1.92331 0
M  V30 10223 C 971.291 -1.1585 1.76471 0
M  V30 10224 O 970.639 -1.97281 1.15293 0
M  V30 10225 C 970.849 0.802715 3.39643 0
M  V30 10226 C 972.197 0.810575 4.16791 0
M  V30 10227 O 973.221 0.746304 3.48294 0
M  V30 10228 O 972.08 0.898082 5.3907 0
M  V30 10229 H 969.174 0.100711 0.820845 0
M  V30 10230 H 971.72 0.924428 1.42311 0
M  V30 10231 H 970.492 1.84529 3.45057 0
M  V30 10232 H 970.115 0.210956 3.9704 0
M  V30 10233 N 971.112 -1.45937 0.595003 0
M  V30 10234 C 972.359 -2.0232 0.0853053 0
M  V30 10235 C 972.687 -1.465 -1.27937 0
M  V30 10236 O 971.942 -0.624767 -1.85459 0
M  V30 10237 C 972.241 -3.57396 -0.0173747 0
M  V30 10238 C 971.907 -4.32311 1.28131 0
M  V30 10239 C 970.569 -4.52496 1.63708 0
M  V30 10240 C 972.921 -4.75233 2.14017 0
M  V30 10241 C 970.249 -5.12857 2.84947 0
M  V30 10242 C 972.601 -5.36933 3.34493 0
M  V30 10243 C 971.265 -5.55343 3.70338 0
M  V30 10244 H 970.535 -0.740342 0.0312154 0
M  V30 10245 H 973.182 -1.75157 0.774103 0
M  V30 10246 H 971.487 -3.83766 -0.789371 0
M  V30 10247 H 973.184 -3.98713 -0.427699 0
M  V30 10248 H 969.774 -4.16905 0.994374 0
M  V30 10249 H 973.958 -4.59383 1.87833 0
M  V30 10250 H 969.214 -5.253 3.12841 0
M  V30 10251 H 973.388 -5.69147 4.01304 0
M  V30 10252 H 971.015 -6.01883 4.64371 0
M  V30 10253 N 972.59 -0.333456 -1.54032 0
M  V30 10254 C 973.839 0.267081 -1.99924 0
M  V30 10255 C 974.152 1.52463 -1.22534 0
M  V30 10256 O 975.358 2.20178 -1.58852 0
M  V30 10257 C 973.814 0.526456 -3.56029 0
M  V30 10258 C 973.422 -0.714607 -4.42264 0
M  V30 10259 C 975.166 1.0864 -4.10363 0
M  V30 10260 C 973.073 -0.42659 -5.89859 0
M  V30 10261 H 972.003 0.103577 -0.746852 0
M  V30 10262 H 974.654 -0.447218 -1.77967 0
M  V30 10263 H 973.036 1.3012 -3.74012 0
M  V30 10264 H 974.21 -1.48968 -4.36056 0
M  V30 10265 H 972.525 -1.19547 -3.9887 0
M  V30 10266 H 975.122 1.31668 -5.18235 0
M  V30 10267 H 975.465 2.03884 -3.62956 0
M  V30 10268 H 975.998 0.37261 -3.96051 0
M  V30 10269 H 972.737 -1.34847 -6.4148 0
M  V30 10270 H 972.257 0.310588 -5.98995 0
M  V30 10271 H 973.936 -0.0400807 -6.46988 0
M  V30 10272 N 974.068 1.57479 -0.061844 0
M  V30 10273 C 975.345 1.84484 0.649993 0
M  V30 10274 C 975.725 0.952366 1.88396 0
M  V30 10275 O 975.073 0.0161035 2.28494 0
M  V30 10276 C 975.283 3.34452 0.997133 0
M  V30 10277 C 976.631 4.01724 1.37488 0
M  V30 10278 O 977.655 3.3914 1.08916 0
M  V30 10279 O 976.514 5.12091 1.90854 0
M  V30 10280 H 973.608 0.761798 0.321858 0
M  V30 10281 H 976.154 1.6945 -0.0920192 0
M  V30 10282 H 974.926 3.91115 0.120301 0
M  V30 10283 H 974.549 3.54713 1.79624 0
M  V30 10284 N 975.546 -0.211634 1.56173 0
M  V30 10285 C 976.493 -1.26231 1.93221 0
M  V30 10286 C 977.463 -1.46076 0.790641 0
M  V30 10287 O 978.648 -1.59482 1.04739 0
M  V30 10288 C 975.788 -2.60559 2.26281 0
M  V30 10289 C 974.901 -2.48431 3.5342 0
M  V30 10290 C 974.036 -3.7535 3.7588 0
M  V30 10291 C 973.075 -3.57985 4.96501 0
M  V30 10292 N 972.212 -4.76877 5.15299 0
M  V30 10293 H 977.052 -0.939367 2.82807 0
M  V30 10294 H 974.589 -0.452511 1.39967 0
M  V30 10295 H 976.547 -3.38796 2.43461 0
M  V30 10296 H 975.177 -2.9093 1.39855 0
M  V30 10297 H 974.229 -1.61577 3.44379 0
M  V30 10298 H 975.541 -2.31526 4.41811 0
M  V30 10299 H 974.695 -4.62029 3.9321 0
M  V30 10300 H 973.434 -3.95191 2.85788 0
M  V30 10301 H 972.439 -2.69691 4.79111 0
M  V30 10302 H 973.664 -3.39605 5.88086 0
M  V30 10303 H 971.61 -4.97013 4.28152 0
M  V30 10304 H 971.527 -4.62735 5.9784 0
M  V30 10305 H 972.795 -5.64954 5.37073 0
M  V30 10306 N 977.024 -1.50153 -0.478725 0
M  V30 10307 C 977.987 -1.67916 -1.56003 0
M  V30 10308 C 978.987 -0.550111 -1.51097 0
M  V30 10309 O 980.177 -0.817001 -1.53853 0
M  V30 10310 C 977.309 -1.6973 -2.95643 0
M  V30 10311 H 978.502 -2.6438 -1.41573 0
M  V30 10312 H 976.055 -1.39519 -0.704565 0
M  V30 10313 H 976.79 -0.749306 -3.15525 0
M  V30 10314 H 976.575 -2.51745 -3.00611 0
M  V30 10315 H 978.065 -1.85453 -3.74162 0
M  V30 10316 N 978.502 0.731368 -1.39602 0
M  V30 10317 C 979.412 1.87579 -1.40894 0
M  V30 10318 C 980.428 1.71336 -0.303319 0
M  V30 10319 O 981.604 1.93875 -0.545377 0
M  V30 10320 C 978.669 3.23211 -1.25442 0
M  V30 10321 C 977.73 3.51822 -2.46008 0
M  V30 10322 C 976.963 4.80982 -2.31284 0
M  V30 10323 O 977.186 5.54958 -1.31824 0
M  V30 10324 O 976.12 5.09574 -3.20341 0
M  V30 10325 H 979.946 1.89444 -2.3737 0
M  V30 10326 H 977.531 0.879675 -1.20756 0
M  V30 10327 H 979.413 4.04257 -1.18972 0
M  V30 10328 H 978.088 3.22108 -0.320637 0
M  V30 10329 H 976.995 2.70847 -2.58055 0
M  V30 10330 H 978.328 3.57707 -3.38093 0
M  V30 10331 N 979.98 1.24838 0.961938 0
M  V30 10332 C 980.89 1.06304 2.09133 0
M  V30 10333 C 981.906 0.00221475 1.74 0
M  V30 10334 O 983.082 0.201611 2.00388 0
M  V30 10335 C 980.147 0.676117 3.40043 0
M  V30 10336 C 979.208 1.81407 3.89089 0
M  V30 10337 C 978.441 1.44551 5.13752 0
M  V30 10338 O 978.664 0.337894 5.69398 0
M  V30 10339 O 977.598 2.27316 5.57325 0
M  V30 10340 H 981.424 2.01001 2.27667 0
M  V30 10341 H 979.009 1.0371 1.07539 0
M  V30 10342 H 980.891 0.472124 4.18747 0
M  V30 10343 H 979.566 -0.241667 3.22797 0
M  V30 10344 H 978.473 2.07286 3.11421 0
M  V30 10345 H 979.806 2.71083 4.10822 0
M  V30 10346 N 981.458 -1.16348 1.06306 0
M  V30 10347 C 982.683 -1.91323 0.800636 0
M  V30 10348 C 983.108 -1.7691 -0.639105 0
M  V30 10349 O 982.466 -1.0945 -1.44535 0
M  V30 10350 C 982.514 -3.40038 1.20027 0
M  V30 10351 O 981.618 -4.11003 0.339142 0
M  V30 10352 H 980.959 -0.596057 0.292595 0
M  V30 10353 H 983.489 -1.47406 1.41889 0
M  V30 10354 H 983.499 -3.90808 1.17188 0
M  V30 10355 H 982.174 -3.49848 2.24898 0
M  V30 10356 H 980.751 -3.70423 0.42911 0
M  V30 10357 N 982.937 -0.845659 -1.3299 0
M  V30 10358 C 984.165 -0.45835 -2.01759 0
M  V30 10359 C 984.58 0.94239 -1.63598 0
M  V30 10360 O 983.937 1.61353 -0.852738 0
M  V30 10361 C 983.988 -0.577311 -3.5686 0
M  V30 10362 O 983.709 -1.92287 -3.93646 0
M  V30 10363 C 985.21 -0.187839 -4.42902 0
M  V30 10364 H 982.43 -0.181165 -0.646081 0
M  V30 10365 H 984.974 -1.14011 -1.6977 0
M  V30 10366 H 983.129 0.0566146 -3.87359 0
M  V30 10367 H 983.543 -1.91322 -4.88361 0
M  V30 10368 H 985.017 -0.322105 -5.51059 0
M  V30 10369 H 985.494 0.870896 -4.30479 0
M  V30 10370 H 986.1 -0.796473 -4.17776 0
M  V30 10371 N 984.415 1.45619 -0.602734 0
M  V30 10372 C 985.347 2.28662 0.157012 0
M  V30 10373 C 986.36 1.39672 0.836396 0
M  V30 10374 O 987.549 1.64091 0.702599 0
M  V30 10375 C 984.649 3.1528 1.24306 0
M  V30 10376 C 983.822 4.32517 0.651731 0
M  V30 10377 C 982.881 5.00381 1.62804 0
M  V30 10378 O 981.907 5.57333 1.15624 0
M  V30 10379 N 983.109 4.99221 2.96241 0
M  V30 10380 H 985.874 2.94506 -0.555535 0
M  V30 10381 H 983.435 1.55753 -0.441881 0
M  V30 10382 H 985.427 3.57544 1.8959 0
M  V30 10383 H 983.997 2.51376 1.85819 0
M  V30 10384 H 983.217 3.93793 -0.17907 0
M  V30 10385 H 984.505 5.08249 0.236802 0
M  V30 10386 H 983.903 4.54232 3.37179 0
M  V30 10387 H 982.46 5.45364 3.56961 0
M  V30 10388 N 985.893 0.34162 1.53853 0
M  V30 10389 C 987.118 -0.259608 2.05769 0
M  V30 10390 C 987.543 -1.43588 1.21507 0
M  V30 10391 O 986.901 -1.79856 0.228364 0
M  V30 10392 C 986.949 -0.654455 3.54611 0
M  V30 10393 O 986.053 -1.75472 3.73207 0
M  V30 10394 H 985.394 -0.0434621 0.662576 0
M  V30 10395 H 987.924 0.495274 1.98515 0
M  V30 10396 H 987.934 -0.932142 3.97209 0
M  V30 10397 H 986.609 0.205779 4.15391 0
M  V30 10398 H 985.186 -1.47444 3.42512 0
M  V30 10399 N 987.371 -1.57444 0.0701946 0
M  V30 10400 C 988.318 -2.12631 -0.897599 0
M  V30 10401 C 989.288 -1.03841 -1.29639 0
M  V30 10402 O 990.473 -1.31495 -1.38253 0
M  V30 10403 C 987.613 -2.6911 -2.16041 0
M  V30 10404 C 986.726 -3.9205 -1.8144 0
M  V30 10405 C 985.861 -4.36778 -3.02321 0
M  V30 10406 C 984.9 -5.52371 -2.63729 0
M  V30 10407 N 984.037 -5.92065 -3.77364 0
M  V30 10408 H 988.877 -2.95024 -0.420104 0
M  V30 10409 H 986.414 -1.45792 -0.195716 0
M  V30 10410 H 988.372 -2.99963 -2.89962 0
M  V30 10411 H 987.002 -1.89484 -2.61334 0
M  V30 10412 H 986.054 -3.67669 -0.975896 0
M  V30 10413 H 987.366 -4.76011 -1.49046 0
M  V30 10414 H 986.52 -4.69285 -3.84521 0
M  V30 10415 H 985.259 -3.51668 -3.37907 0
M  V30 10416 H 984.264 -5.19517 -1.7995 0
M  V30 10417 H 985.489 -6.39212 -2.29315 0
M  V30 10418 H 983.435 -5.09904 -4.12715 0
M  V30 10419 H 983.352 -6.70762 -3.48733 0
M  V30 10420 H 984.62 -6.29193 -4.60148 0
M  V30 10421 N 988.849 0.203349 -1.56283 0
M  V30 10422 C 989.759 1.27266 -1.9708 0
M  V30 10423 C 990.775 1.50268 -0.877236 0
M  V30 10424 O 991.951 1.63044 -1.18231 0
M  V30 10425 C 989.016 2.59871 -2.29495 0
M  V30 10426 C 988.077 2.45012 -3.52516 0
M  V30 10427 C 987.31 3.71293 -3.83376 0
M  V30 10428 O 987.533 4.75106 -3.15643 0
M  V30 10429 O 986.467 3.67316 -4.76826 0
M  V30 10430 H 990.293 0.956461 -2.88246 0
M  V30 10431 H 987.878 0.407688 -1.4373 0
M  V30 10432 H 989.76 3.38152 -2.51458 0
M  V30 10433 H 988.435 2.91135 -1.415 0
M  V30 10434 H 987.342 1.6487 -3.35811 0
M  V30 10435 H 988.675 2.18683 -4.40952 0
M  V30 10436 N 990.327 1.50405 0.470755 0
M  V30 10437 C 991.576 1.60652 1.21959 0
M  V30 10438 C 991.889 0.312521 1.93087 0
M  V30 10439 O 993.095 0.293901 2.69905 0
M  V30 10440 C 991.551 2.83581 2.21607 0
M  V30 10441 C 991.159 4.19858 1.5628 0
M  V30 10442 C 992.903 3.03173 2.9713 0
M  V30 10443 C 990.81 5.33974 2.54217 0
M  V30 10444 H 989.74 0.598264 0.458907 0
M  V30 10445 H 992.391 1.76836 0.490041 0
M  V30 10446 H 990.773 2.60957 2.97855 0
M  V30 10447 H 991.947 4.52738 0.85819 0
M  V30 10448 H 990.262 4.05873 0.930366 0
M  V30 10449 H 992.859 3.856 3.70428 0
M  V30 10450 H 993.202 2.14914 3.56536 0
M  V30 10451 H 993.735 3.2598 2.27995 0
M  V30 10452 H 990.474 6.24388 1.99549 0
M  V30 10453 H 989.994 5.05511 3.22829 0
M  V30 10454 H 991.673 5.64561 3.16039 0
M  V30 10455 N 991.805 -0.723954 1.39988 0
M  V30 10456 C 993.03 -1.5182 1.41299 0
M  V30 10457 C 993.455 -1.88096 0.0122636 0
M  V30 10458 O 992.813 -1.52687 -0.977559 0
M  V30 10459 C 992.861 -2.77532 2.30235 0
M  V30 10460 O 991.965 -3.73903 1.73984 0
M  V30 10461 H 991.306 -0.458058 0.480707 0
M  V30 10462 H 993.836 -0.892291 1.84118 0
M  V30 10463 H 993.846 -3.2615 2.45132 0
M  V30 10464 H 992.521 -2.50462 3.32026 0
M  V30 10465 H 991.098 -3.32715 1.68389 0
M  V30 10466 N 993.283 -1.25346 -0.955304 0
M  V30 10467 C 994.213 -1.08152 -2.06943 0
M  V30 10468 C 995.194 0.00922598 -1.70097 0
M  V30 10469 O 996.379 -0.160181 -1.93538 0
M  V30 10470 C 993.509 -0.698745 -3.40198 0
M  V30 10471 C 992.463 -1.73965 -3.9105 0
M  V30 10472 C 991.789 -1.21158 -5.20792 0
M  V30 10473 C 993.089 -3.13829 -4.17503 0
M  V30 10474 H 994.783 -2.01345 -2.21586 0
M  V30 10475 H 992.329 -0.969459 -1.06478 0
M  V30 10476 H 994.282 -0.565394 -4.1759 0
M  V30 10477 H 993.006 0.268892 -3.25491 0
M  V30 10478 H 991.665 -1.86143 -3.15827 0
M  V30 10479 H 991.313 -0.234193 -5.02455 0
M  V30 10480 H 991.013 -1.90728 -5.55785 0
M  V30 10481 H 992.537 -1.09061 -6.00781 0
M  V30 10482 H 993.951 -3.04809 -4.85556 0
M  V30 10483 H 992.348 -3.80863 -4.63749 0
M  V30 10484 H 993.418 -3.6094 -3.23806 0
M  V30 10485 N 994.761 1.15782 -1.06922 0
M  V30 10486 C 996.172 1.68062 -0.813144 0
M  V30 10487 C 996.523 1.84681 0.662374 0
M  V30 10488 O 995.648 1.54696 1.51321 0
M  V30 10489 C 996.243 3.05273 -1.46949 0
M  V30 10490 C 994.802 3.54647 -1.26104 0
M  V30 10491 C 993.949 2.30477 -1.54194 0
M  V30 10492 H 996.9 1.00056 -1.23185 0
M  V30 10493 H 996.921 3.69986 -0.888308 0
M  V30 10494 H 996.433 2.93145 -2.54337 0
M  V30 10495 H 994.534 3.72024 -0.20718 0
M  V30 10496 H 994.647 4.36354 -1.97819 0
M  V30 10497 H 993.011 2.35803 -0.96276 0
M  V30 10498 H 993.794 2.2094 -2.62755 0
M  V30 10499 N 996.239 0.8527 1.3254 0
M  V30 10500 C 997.149 0.298744 2.3269 0
M  V30 10501 C 998.165 -0.582418 1.63963 0
M  V30 10502 O 999.341 -0.483253 1.95516 0
M  V30 10503 C 996.406 -0.505453 3.42996 0
M  V30 10504 C 995.467 0.401618 4.27417 0
M  V30 10505 C 994.7 -0.364294 5.32455 0
M  V30 10506 O 994.923 -1.59448 5.47661 0
M  V30 10507 O 993.857 0.268892 6.01299 0
M  V30 10508 H 997.683 1.12843 2.81958 0
M  V30 10509 H 995.268 0.615584 1.36128 0
M  V30 10510 H 997.15 -0.961974 4.10273 0
M  V30 10511 H 995.825 -1.31197 2.95921 0
M  V30 10512 H 994.732 0.906274 3.62957 0
M  V30 10513 H 996.065 1.17327 4.78012 0
M  V30 10514 N 997.718 -1.45297 0.610449 0
M  V30 10515 C 998.964 -2.02518 0.106917 0
M  V30 10516 C 999.297 -1.47747 -1.26034 0
M  V30 10517 O 998.572 -0.65329 -1.832 0
M  V30 10518 C 998.855 -3.6003 0.0710975 0
M  V30 10519 C 998.708 -4.25128 1.46922 0
M  V30 10520 C 1000.03 -4.35778 -0.61524 0
M  V30 10521 H 997.146 -0.735896 0.040327 0
M  V30 10522 H 999.788 -1.73117 0.782968 0
M  V30 10523 H 997.938 -3.85209 -0.504611 0
M  V30 10524 H 999.61 -4.11125 2.09223 0
M  V30 10525 H 997.853 -3.83418 2.02911 0
M  V30 10526 H 998.524 -5.34046 1.39637 0
M  V30 10527 H 1001 -4.1591 -0.125871 0
M  V30 10528 H 999.876 -5.45506 -0.609419 0
M  V30 10529 H 1000.14 -4.08859 -1.68186 0
M  V30 10530 N 999.196 -0.349774 -1.5367 0
M  V30 10531 C 1000.42 0.248692 -2.05904 0
M  V30 10532 C 1000.85 1.42942 -1.22267 0
M  V30 10533 O 1000.2 1.79732 -0.237899 0
M  V30 10534 C 1000.25 0.635639 -3.54953 0
M  V30 10535 O 999.356 1.7349 -3.74132 0
M  V30 10536 H 998.697 0.0399477 -0.662797 0
M  V30 10537 H 1001.23 -0.505795 -1.9825 0
M  V30 10538 H 1001.24 0.911064 -3.97698 0
M  V30 10539 H 999.912 -0.227805 -4.15276 0
M  V30 10540 H 998.489 1.45626 -3.43289 0
M  V30 10541 N 1000.67 1.57404 -0.0785433 0
M  V30 10542 C 1001.6 2.16131 0.883726 0
M  V30 10543 C 1002.58 1.09015 1.30575 0
M  V30 10544 O 1003.77 1.3708 1.37559 0
M  V30 10545 C 1000.9 2.72836 2.1489 0
M  V30 10546 C 999.854 3.85178 1.86605 0
M  V30 10547 C 999.18 4.28516 3.1981 0
M  V30 10548 C 1000.48 5.09118 1.16601 0
M  V30 10549 H 1002.17 2.9679 0.394484 0
M  V30 10550 H 999.72 1.42763 0.188304 0
M  V30 10551 H 1001.67 3.12567 2.8263 0
M  V30 10552 H 1000.4 1.89408 2.66068 0
M  V30 10553 H 999.056 3.45962 1.21268 0
M  V30 10554 H 998.704 3.42 3.68843 0
M  V30 10555 H 998.404 5.04249 3.01674 0
M  V30 10556 H 999.928 4.70868 3.88737 0
M  V30 10557 H 1001.34 5.46123 1.74422 0
M  V30 10558 H 999.739 5.90173 1.087 0
M  V30 10559 H 1000.81 4.8468 0.146138 0
M  V30 10560 N 1002.15 -0.195058 1.56388 0
M  V30 10561 C 1003.08 -1.24444 1.97575 0
M  V30 10562 C 1004.06 -1.47471 0.847717 0
M  V30 10563 O 1005.25 -1.59208 1.11205 0
M  V30 10564 C 1002.38 -2.58866 2.31529 0
M  V30 10565 C 1001.33 -2.50451 3.47071 0
M  V30 10566 C 1000.66 -3.89146 3.667 0
M  V30 10567 C 1001.96 -2.02953 4.81256 0
M  V30 10568 H 1003.65 -0.902178 2.85484 0
M  V30 10569 H 1001.2 -0.43254 1.3735 0
M  V30 10570 H 1003.15 -3.3246 2.58936 0
M  V30 10571 H 1001.87 -2.94833 1.40502 0
M  V30 10572 H 1000.53 -1.79313 3.19754 0
M  V30 10573 H 1000.18 -4.22466 2.73004 0
M  V30 10574 H 999.882 -3.84391 4.44429 0
M  V30 10575 H 1001.41 -4.64363 3.96484 0
M  V30 10576 H 1002.82 -2.66306 5.07695 0
M  V30 10577 H 1001.22 -2.092 5.62455 0
M  V30 10578 H 1002.29 -0.982757 4.74837 0
M  V30 10579 N 1003.63 -1.50653 -0.462772 0
M  V30 10580 C 1004.58 -1.70122 -1.55971 0
M  V30 10581 C 1005.55 -0.542581 -1.56988 0
M  V30 10582 O 1006.73 -0.774114 -1.74391 0
M  V30 10583 C 1003.87 -1.80899 -2.93887 0
M  V30 10584 C 1002.98 -3.08318 -3.02595 0
M  V30 10585 C 1002.12 -3.09841 -4.31477 0
M  V30 10586 C 1001.16 -4.3168 -4.33957 0
M  V30 10587 N 1000.3 -4.30894 -5.54323 0
M  V30 10588 H 1005.14 -2.63768 -1.38674 0
M  V30 10589 H 1002.67 -1.30746 -0.674091 0
M  V30 10590 H 1004.63 -1.85128 -3.73876 0
M  V30 10591 H 1003.26 -0.906854 -3.098 0
M  V30 10592 H 1002.31 -3.13521 -2.15427 0
M  V30 10593 H 1003.62 -3.98282 -3.00288 0
M  V30 10594 H 1002.78 -3.12845 -5.1982 0
M  V30 10595 H 1001.52 -2.17722 -4.36404 0
M  V30 10596 H 1000.52 -4.28879 -3.4401 0
M  V30 10597 H 1001.75 -5.25035 -4.30715 0
M  V30 10598 H 999.694 -3.41633 -5.6002 0
M  V30 10599 H 999.611 -5.14636 -5.53792 0
M  V30 10600 H 1000.88 -4.38056 -6.44769 0
M  V30 10601 N 1005.11 0.71652 -1.4037 0
M  V30 10602 C 1006.36 1.47193 -1.37903 0
M  V30 10603 C 1006.67 1.95593 0.0159939 0
M  V30 10604 O 1007.88 2.71009 0.163282 0
M  V30 10605 C 1006.33 2.6606 -2.42363 0
M  V30 10606 C 1005.94 2.24533 -3.87671 0
M  V30 10607 C 1007.68 3.438 -2.49001 0
M  V30 10608 C 1005.59 3.40234 -4.8373 0
M  V30 10609 H 1004.52 0.552811 -0.512753 0
M  V30 10610 H 1007.17 0.779894 -1.66102 0
M  V30 10611 H 1005.55 3.37429 -2.07262 0
M  V30 10612 H 1006.73 1.6059 -4.31911 0
M  V30 10613 H 1005.04 1.59839 -3.845 0
M  V30 10614 H 1007.64 4.29893 -3.17956 0
M  V30 10615 H 1007.98 3.8755 -1.52023 0
M  V30 10616 H 1008.52 2.79474 -2.83088 0
M  V30 10617 H 1005.26 3.01517 -5.82037 0
M  V30 10618 H 1004.78 4.03095 -4.44156 0
M  V30 10619 H 1006.45 4.06312 -5.03507 0
M  V30 10620 N 1006.59 1.25851 0.948643 0
M  V30 10621 C 1007.52 1.09248 2.06367 0
M  V30 10622 C 1008.5 -0.000205168 1.701 0
M  V30 10623 O 1009.68 0.170442 1.93451 0
M  V30 10624 C 1006.81 0.716777 3.39823 0
M  V30 10625 C 1005.77 1.76036 3.90122 0
M  V30 10626 C 1005.09 1.23918 5.20143 0
M  V30 10627 C 1006.39 3.16039 4.15833 0
M  V30 10628 H 1008.09 2.02518 2.20515 0
M  V30 10629 H 1005.63 0.975093 1.05962 0
M  V30 10630 H 1007.59 0.587531 4.17284 0
M  V30 10631 H 1006.31 -0.251626 3.25629 0
M  V30 10632 H 1004.97 1.87815 3.14835 0
M  V30 10633 H 1004.62 0.260836 5.02323 0
M  V30 10634 H 1004.32 1.93673 5.54765 0
M  V30 10635 H 1005.84 1.12245 6.00194 0
M  V30 10636 H 1007.25 3.0738 4.83933 0
M  V30 10637 H 1005.65 3.83317 4.61723 0
M  V30 10638 H 1006.72 3.62652 3.21887 0
M  V30 10639 N 1008.06 -1.15214 1.07534 0
M  V30 10640 C 1009.01 -2.20013 0.697337 0
M  V30 10641 C 1009.98 -1.6314 -0.312168 0
M  V30 10642 O 1011.17 -1.89768 -0.198196 0
M  V30 10643 C 1008.31 -3.44945 0.103293 0
M  V30 10644 C 1007.42 -4.16009 1.1645 0
M  V30 10645 C 1006.55 -5.28496 0.535261 0
M  V30 10646 C 1005.59 -5.9138 1.57912 0
M  V30 10647 N 1004.73 -6.95335 0.972332 0
M  V30 10648 H 1009.57 -2.51698 1.59538 0
M  V30 10649 H 1007.11 -1.2361 0.797431 0
M  V30 10650 H 1009.07 -4.16397 -0.258766 0
M  V30 10651 H 1007.7 -3.13772 -0.758096 0
M  V30 10652 H 1006.75 -3.43035 1.64411 0
M  V30 10653 H 1008.06 -4.58853 1.9559 0
M  V30 10654 H 1007.21 -6.06579 0.120942 0
M  V30 10655 H 1005.95 -4.8685 -0.287889 0
M  V30 10656 H 1004.96 -5.12008 2.0032 0
M  V30 10657 H 1006.18 -6.35103 2.40459 0
M  V30 10658 H 1004.13 -6.55779 0.170119 0
M  V30 10659 H 1004.05 -7.36616 1.70095 0
M  V30 10660 H 1005.31 -7.77312 0.583577 0
M  V30 10661 N 1009.54 -0.859717 -1.32086 0
M  V30 10662 C 1010.47 -0.323502 -2.31248 0
M  V30 10663 C 1011.45 0.580085 -1.59903 0
M  V30 10664 O 1012.64 0.499265 -1.87673 0
M  V30 10665 C 1009.77 0.484661 -3.43902 0
M  V30 10666 C 1008.72 -0.324933 -4.26765 0
M  V30 10667 C 1008.05 0.608281 -5.31229 0
M  V30 10668 C 1009.35 -1.55344 -4.98664 0
M  V30 10669 H 1011.04 -1.15209 -2.76346 0
M  V30 10670 H 1008.59 -0.555442 -1.32856 0
M  V30 10671 H 1010.54 0.870238 -4.12316 0
M  V30 10672 H 1009.27 1.34666 -2.97544 0
M  V30 10673 H 1007.92 -0.692328 -3.60003 0
M  V30 10674 H 1007.57 1.46727 -4.81124 0
M  V30 10675 H 1007.27 0.0705571 -5.87558 0
M  V30 10676 H 1008.8 0.990925 -6.02506 0
M  V30 10677 H 1010.21 -1.23987 -5.59732 0
M  V30 10678 H 1008.61 -2.02947 -5.64741 0
M  V30 10679 H 1009.68 -2.31192 -4.26237 0
M  V30 10680 N 1011.02 1.44971 -0.618145 0
M  V30 10681 C 1011.97 2.32354 0.106846 0
M  V30 10682 C 1012.96 1.4659 0.848984 0
M  V30 10683 O 1014.17 1.63012 0.763354 0
M  V30 10684 H 1010.54 0.750108 0.0533109 0
M  V30 10685 H 1012.51 2.9127 -0.648426 0
M  V30 10686 C 1011.26 3.30381 1.08368 0
M  V30 10687 H 1010.59 3.96377 0.52205 0
M  V30 10688 H 1012.03 3.94231 1.56069 0
M  V30 10689 C 1010.49 2.58336 2.1625 0
M  V30 10690 O 1011.02 2.37258 3.24148 0
M  V30 10691 N 1009.22 2.18292 1.91825 0
M  V30 10692 H 1008.77 2.35635 1.04086 0
M  V30 10693 H 1008.73 1.70413 2.6421 0
M  V30 10694 N 1012.5 0.357919 1.53482 0
M  V30 10695 C 1013.45 -0.49217 2.25491 0
M  V30 10696 C 1014.42 -1.08382 1.25867 0
M  V30 10697 O 1015.6 -1.11775 1.54632 0
M  V30 10698 C 1012.74 -1.6299 3.04185 0
M  V30 10699 C 1011.85 -1.06416 4.18688 0
M  V30 10700 C 1010.99 -2.17037 4.84839 0
M  V30 10701 C 1010.03 -1.57889 5.91386 0
M  V30 10702 N 1009.16 -2.6231 6.51259 0
M  V30 10703 H 1014 0.128412 2.97723 0
M  V30 10704 H 1011.54 0.0751423 1.46908 0
M  V30 10705 H 1013.5 -2.29993 3.48079 0
M  V30 10706 H 1012.13 -2.22125 2.34223 0
M  V30 10707 H 1011.18 -0.284635 3.79334 0
M  V30 10708 H 1012.49 -0.591654 4.95279 0
M  V30 10709 H 1011.65 -2.91876 5.31877 0
M  V30 10710 H 1010.39 -2.67636 4.07703 0
M  V30 10711 H 1009.39 -0.815605 5.43717 0
M  V30 10712 H 1010.62 -1.08123 6.70437 0
M  V30 10713 H 1008.56 -3.12137 5.7698 0
M  V30 10714 H 1008.48 -2.19724 7.23365 0
M  V30 10715 H 1009.75 -3.36875 7.02948 0
M  V30 10716 N 1013.98 -1.5736 0.0868897 0
M  V30 10717 C 1015.39 -1.81356 -0.443499 0
M  V30 10718 C 1015.74 -1.00192 -1.68689 0
M  V30 10719 O 1014.86 -0.228863 -2.15186 0
M  V30 10720 C 1015.46 -3.28941 -0.811387 0
M  V30 10721 C 1014.02 -3.53729 -1.28656 0
M  V30 10722 C 1013.16 -2.75891 -0.279153 0
M  V30 10723 H 1016.12 -1.55594 0.312427 0
M  V30 10724 H 1016.14 -3.41815 -1.6716 0
M  V30 10725 H 1015.65 -3.87987 0.0937598 0
M  V30 10726 H 1013.75 -3.00005 -2.2097 0
M  V30 10727 H 1013.86 -4.62396 -1.25406 0
M  V30 10728 H 1012.23 -2.4311 -0.759595 0
M  V30 10729 H 1013.01 -3.37682 0.618529 0
M  V30 10730 N 1015.45 0.186762 -1.56489 0
M  V30 10731 C 1016.36 1.25169 -1.98419 0
M  V30 10732 C 1017.38 1.49329 -0.893124 0
M  V30 10733 O 1018.56 1.61781 -1.19954 0
M  V30 10734 C 1015.62 2.57422 -2.32239 0
M  V30 10735 C 1014.68 2.4126 -3.55095 0
M  V30 10736 C 1013.92 3.67206 -3.87292 0
M  V30 10737 O 1014.14 4.71731 -3.20665 0
M  V30 10738 O 1013.07 3.62238 -4.80695 0
M  V30 10739 H 1016.9 0.925834 -2.89244 0
M  V30 10740 H 1014.48 0.392421 -1.44154 0
M  V30 10741 H 1016.37 3.35466 -2.5503 0
M  V30 10742 H 1015.04 2.89618 -1.44579 0
M  V30 10743 H 1013.95 1.61299 -3.37541 0
M  V30 10744 H 1015.28 2.13994 -4.43247 0
M  V30 10745 N 1016.93 1.50896 0.454776 0
M  V30 10746 C 1018.18 1.63905 1.20444 0
M  V30 10747 C 1018.53 0.342692 1.89323 0
M  V30 10748 O 1017.83 -0.660465 1.79857 0
M  V30 10749 C 1018.02 2.76839 2.26042 0
M  V30 10750 C 1017.85 4.17332 1.67524 0
M  V30 10751 C 1016.62 4.83512 1.46779 0
M  V30 10752 C 1018.82 5.01022 1.1611 0
M  V30 10753 N 1016.8 6.08171 0.83675 0
M  V30 10754 C 1018.17 6.16538 0.654283 0
M  V30 10755 C 1020.23 4.86677 1.05119 0
M  V30 10756 C 1018.93 7.19284 0.0483821 0
M  V30 10757 C 1020.95 5.89614 0.459211 0
M  V30 10758 C 1020.32 7.0439 -0.0371476 0
M  V30 10759 H 1016.42 0.653802 0.42903 0
M  V30 10760 H 1019 1.88069 0.503783 0
M  V30 10761 H 1017.17 2.54369 2.93515 0
M  V30 10762 H 1018.9 2.7912 2.93043 0
M  V30 10763 H 1015.66 4.41082 1.72464 0
M  V30 10764 H 1016.08 6.7485 0.539176 0
M  V30 10765 H 1020.72 3.98211 1.42085 0
M  V30 10766 H 1018.44 8.07412 -0.333438 0
M  V30 10767 H 1022.03 5.80582 0.376315 0
M  V30 10768 H 1020.91 7.8268 -0.488035 0
M  V30 10769 N 1018.41 -0.709066 1.40748 0
M  V30 10770 C 1019.82 -1.28847 1.35112 0
M  V30 10771 C 1020.17 -1.9618 0.0277149 0
M  V30 10772 O 1019.3 -1.97955 -0.874233 0
M  V30 10773 C 1019.89 -2.34306 2.44716 0
M  V30 10774 C 1018.45 -2.87856 2.4252 0
M  V30 10775 C 1017.6 -1.61723 2.25257 0
M  V30 10776 H 1020.55 -0.504742 1.50459 0
M  V30 10777 H 1020.57 -3.15297 2.12998 0
M  V30 10778 H 1020.08 -1.85271 3.41022 0
M  V30 10779 H 1018.18 -3.41103 1.49931 0
M  V30 10780 H 1018.3 -3.39205 3.38344 0
M  V30 10781 H 1016.66 -1.87032 1.7289 0
M  V30 10782 H 1017.44 -1.14703 3.23571 0
M  V30 10783 N 1019.89 -1.26353 -0.941956 0
M  V30 10784 C 1021.14 -1.11851 -1.68806 0
M  V30 10785 C 1021.46 0.33829 -1.91535 0
M  V30 10786 O 1020.72 1.26495 -1.49324 0
M  V30 10787 C 1021.02 -1.83195 -3.06879 0
M  V30 10788 C 1020.68 -3.33093 -3.03908 0
M  V30 10789 C 1019.35 -3.73982 -3.02805 0
M  V30 10790 C 1021.7 -4.28803 -2.96273 0
M  V30 10791 C 1019.03 -5.08971 -2.91832 0
M  V30 10792 C 1021.38 -5.6383 -2.86842 0
M  V30 10793 C 1020.04 -6.04032 -2.84081 0
M  V30 10794 H 1019.31 -0.409293 -0.617706 0
M  V30 10795 H 1021.96 -1.56785 -1.09957 0
M  V30 10796 H 1020.26 -1.30728 -3.69347 0
M  V30 10797 H 1021.96 -1.69416 -3.63455 0
M  V30 10798 H 1018.55 -3.00566 -3.05546 0
M  V30 10799 H 1022.74 -3.98195 -2.96234 0
M  V30 10800 H 1017.99 -5.39282 -2.88072 0
M  V30 10801 H 1022.17 -6.37676 -2.79898 0
M  V30 10802 H 1019.79 -7.08586 -2.75335 0
M  V30 10803 N 1021.37 1.14642 -1.08144 0
M  V30 10804 C 1022.61 1.85892 -0.810683 0
M  V30 10805 C 1022.95 1.82575 0.661821 0
M  V30 10806 O 1022.22 1.25454 1.48632 0
M  V30 10807 C 1022.5 3.34647 -1.32979 0
M  V30 10808 C 1022.36 3.46551 -2.86744 0
M  V30 10809 C 1023.68 4.29661 -0.952864 0
M  V30 10810 H 1020.8 0.674963 -0.295963 0
M  V30 10811 H 1023.44 1.3464 -1.3406 0
M  V30 10812 H 1021.59 3.78425 -0.87903 0
M  V30 10813 H 1023.26 3.11579 -3.40171 0
M  V30 10814 H 1021.5 2.87849 -3.24539 0
M  V30 10815 H 1022.17 4.51101 -3.18138 0
M  V30 10816 H 1024.65 3.93885 -1.34141 0
M  V30 10817 H 1023.53 5.32209 -1.34331 0
M  V30 10818 H 1023.79 4.41877 0.140392 0
M  V30 10819 N 1022.85 0.866709 1.31628 0
M  V30 10820 C 1024.09 0.476731 1.97117 0
M  V30 10821 C 1024.42 -0.967813 1.68366 0
M  V30 10822 O 1023.7 -1.68101 0.978377 0
M  V30 10823 C 1023.98 0.730561 3.52611 0
M  V30 10824 C 1023.84 2.2244 3.90948 0
M  V30 10825 C 1025.15 0.19488 4.39668 0
M  V30 10826 H 1022.27 0.174682 0.715999 0
M  V30 10827 H 1024.92 1.08735 1.5581 0
M  V30 10828 H 1023.07 0.210834 3.87927 0
M  V30 10829 H 1024.74 2.81113 3.6575 0
M  V30 10830 H 1022.98 2.69824 3.39673 0
M  V30 10831 H 1023.65 2.35266 4.99353 0
M  V30 10832 H 1026.13 0.639478 4.11157 0
M  V30 10833 H 1025 0.401958 5.47426 0
M  V30 10834 H 1025.26 -0.90302 4.32779 0
M  V30 10835 N 1024.32 -1.44642 0.625825 0
M  V30 10836 C 1025.25 -2.33397 -0.0692188 0
M  V30 10837 C 1026.23 -1.47898 -0.840241 0
M  V30 10838 O 1027.42 -1.7663 -0.807176 0
M  V30 10839 C 1024.55 -3.30888 -1.055 0
M  V30 10840 C 1023.5 -4.26164 -0.395968 0
M  V30 10841 C 1022.83 -5.13483 -1.49128 0
M  V30 10842 C 1024.13 -5.17663 0.694433 0
M  V30 10843 H 1025.82 -2.91763 0.671925 0
M  V30 10844 H 1023.37 -1.40294 0.324573 0
M  V30 10845 H 1025.32 -3.91861 -1.54993 0
M  V30 10846 H 1024.05 -2.7072 -1.82696 0
M  V30 10847 H 1022.71 -3.66516 0.0782691 0
M  V30 10848 H 1022.35 -4.49672 -2.25399 0
M  V30 10849 H 1022.05 -5.78038 -1.05573 0
M  V30 10850 H 1023.58 -5.77327 -1.98813 0
M  V30 10851 H 1024.99 -5.72602 0.282818 0
M  V30 10852 H 1023.39 -5.90793 1.05281 0
M  V30 10853 H 1024.46 -4.58994 1.56372 0
M  V30 10854 N 1025.8 -0.366053 -1.5329 0
M  V30 10855 C 1027.05 0.223051 -2.00865 0
M  V30 10856 C 1027.37 1.49244 -1.25504 0
M  V30 10857 O 1026.64 1.92404 -0.368444 0
M  V30 10858 H 1025.22 0.085413 -0.742101 0
M  V30 10859 H 1027.88 -0.492396 -1.88578 0
M  V30 10860 H 1026.98 0.449701 -3.08843 0
M  V30 10861 N 1027.28 1.57312 -0.0952337 0
M  V30 10862 C 1028.51 1.98697 0.57682 0
M  V30 10863 C 1028.92 0.974347 1.61716 0
M  V30 10864 O 1028.28 -0.036022 1.82464 0
M  V30 10865 C 1028.33 3.40133 1.2244 0
M  V30 10866 O 1028.05 4.37518 0.225678 0
M  V30 10867 C 1029.55 3.96522 1.98205 0
M  V30 10868 H 1026.77 0.65294 0.154629 0
M  V30 10869 H 1029.32 2.03754 -0.174562 0
M  V30 10870 H 1027.47 3.3609 1.92671 0
M  V30 10871 H 1027.89 5.199 0.693116 0
M  V30 10872 H 1029.36 4.97637 2.38875 0
M  V30 10873 H 1029.84 3.34347 2.84796 0
M  V30 10874 H 1030.44 4.04038 1.3279 0
M  V30 10875 N 1028.76 -0.17846 1.56586 0
M  V30 10876 C 1029.69 -1.22342 1.98884 0
M  V30 10877 C 1030.67 -1.46564 0.86331 0
M  V30 10878 O 1031.85 -1.58019 1.12887 0
M  V30 10879 C 1028.98 -2.56396 2.34261 0
M  V30 10880 C 1027.94 -2.46756 3.49708 0
M  V30 10881 C 1027.26 -3.85235 3.70807 0
M  V30 10882 C 1028.56 -1.97838 4.83381 0
M  V30 10883 H 1030.26 -0.871848 2.86425 0
M  V30 10884 H 1027.8 -0.417948 1.37801 0
M  V30 10885 H 1029.76 -3.29695 2.62448 0
M  V30 10886 H 1028.48 -2.93327 1.43621 0
M  V30 10887 H 1027.14 -1.75912 3.21637 0
M  V30 10888 H 1026.79 -4.19547 2.7747 0
M  V30 10889 H 1026.49 -3.79655 4.48481 0
M  V30 10890 H 1028.01 -4.60131 4.01387 0
M  V30 10891 H 1029.43 -2.60906 5.10491 0
M  V30 10892 H 1027.82 -2.03223 5.64642 0
M  V30 10893 H 1028.89 -0.932339 4.75852 0
M  V30 10894 N 1030.24 -1.51135 -0.446768 0
M  V30 10895 C 1031.2 -1.71187 -1.52406 0
M  V30 10896 C 1032.2 -0.582037 -1.49897 0
M  V30 10897 O 1033.39 -0.849452 -1.52085 0
M  V30 10898 C 1030.52 -1.75962 -2.91976 0
M  V30 10899 H 1031.71 -2.67324 -1.35934 0
M  V30 10900 H 1029.27 -1.40982 -0.674813 0
M  V30 10901 H 1030 -0.816065 -3.13864 0
M  V30 10902 H 1029.79 -2.58065 -2.95203 0
M  V30 10903 H 1031.28 -1.93347 -3.70144 0
M  V30 10904 N 1031.71 0.701592 -1.41122 0
M  V30 10905 C 1032.94 1.49553 -1.43696 0
M  V30 10906 C 1033.36 1.88053 -0.0421865 0
M  V30 10907 O 1032.72 1.54223 0.953144 0
M  V30 10908 C 1032.77 2.73834 -2.34622 0
M  V30 10909 O 1031.87 3.71088 -1.7991 0
M  V30 10910 H 1031.21 0.450352 -0.487933 0
M  V30 10911 H 1033.74 0.862886 -1.85514 0
M  V30 10912 H 1033.75 3.22209 -2.5029 0
M  V30 10913 H 1032.43 2.45149 -3.35969 0
M  V30 10914 H 1031.01 3.29994 -1.73661 0
M  V30 10915 N 1033.19 1.2685 0.935242 0
M  V30 10916 C 1034.44 1.12912 1.6846 0
M  V30 10917 C 1034.77 -0.325708 1.91449 0
M  V30 10918 O 1034.05 -1.23884 1.49944 0
M  V30 10919 C 1034.33 1.90513 3.05576 0
M  V30 10920 C 1034.18 3.43936 2.89876 0
M  V30 10921 C 1035.5 1.70363 4.05789 0
M  V30 10922 H 1032.62 0.411559 0.611382 0
M  V30 10923 H 1035.26 1.55917 1.08582 0
M  V30 10924 H 1033.41 1.53963 3.5669 0
M  V30 10925 H 1035.08 3.90272 2.45939 0
M  V30 10926 H 1033.33 3.70659 2.25376 0
M  V30 10927 H 1034 3.93467 3.87153 0
M  V30 10928 H 1036.47 2.02217 3.63659 0
M  V30 10929 H 1035.35 2.27066 4.99732 0
M  V30 10930 H 1035.61 0.649674 4.373 0
M  V30 10931 N 1034.67 -1.14067 1.0875 0
M  V30 10932 C 1035.6 -2.21385 0.74236 0
M  V30 10933 C 1036.58 -1.67833 -0.276805 0
M  V30 10934 O 1037.77 -1.93647 -0.1464 0
M  V30 10935 C 1034.9 -3.46956 0.154644 0
M  V30 10936 C 1033.85 -4.13555 1.10255 0
M  V30 10937 C 1033.18 -5.3337 0.376877 0
M  V30 10938 C 1034.48 -4.6169 2.44213 0
M  V30 10939 H 1036.17 -2.50512 1.63964 0
M  V30 10940 H 1033.72 -1.20408 0.789807 0
M  V30 10941 H 1035.67 -4.21284 -0.0988419 0
M  V30 10942 H 1034.39 -3.17203 -0.777789 0
M  V30 10943 H 1033.05 -3.41186 1.34119 0
M  V30 10944 H 1032.7 -4.99879 -0.559472 0
M  V30 10945 H 1032.4 -5.78875 1.00884 0
M  V30 10946 H 1033.92 -6.10458 0.131527 0
M  V30 10947 H 1035.34 -5.27475 2.24595 0
M  V30 10948 H 1033.74 -5.17909 3.03134 0
M  V30 10949 H 1034.81 -3.76574 3.05483 0
M  V30 10950 N 1036.15 -0.873678 -1.31166 0
M  V30 10951 C 1037.1 -0.321349 -2.3037 0
M  V30 10952 C 1038.09 0.565568 -1.5968 0
M  V30 10953 O 1039.3 0.451257 -1.74252 0
M  V30 10954 H 1035.67 -0.0852425 -0.747153 0
M  V30 10955 H 1037.64 -1.17191 -2.74425 0
M  V30 10956 C 1036.39 0.459016 -3.44657 0
M  V30 10957 H 1035.71 -0.214185 -3.99226 0
M  V30 10958 H 1037.15 0.810758 -4.16176 0
M  V30 10959 C 1035.61 1.65173 -2.93632 0
M  V30 10960 O 1036.14 2.75105 -2.92711 0
M  V30 10961 N 1034.35 1.4851 -2.49786 0
M  V30 10962 H 1033.9 0.590785 -2.50734 0
M  V30 10963 H 1033.85 2.28452 -2.16002 0
M  V30 10964 N 1037.63 1.44308 -0.633487 0
M  V30 10965 C 1038.87 2.01624 -0.138643 0
M  V30 10966 C 1039.2 1.50101 1.24477 0
M  V30 10967 O 1038.47 0.705575 1.82752 0
M  V30 10968 H 1037.05 0.745439 -0.0482636 0
M  V30 10969 H 1039.71 1.76777 -0.820719 0
M  V30 10970 H 1038.8 3.11913 -0.108136 0
M  V30 10971 N 1039.1 0.374177 1.53094 0
M  V30 10972 C 1040.33 -0.213325 2.05797 0
M  V30 10973 C 1040.75 -1.41753 1.24706 0
M  V30 10974 O 1040.1 -1.80183 0.289868 0
M  V30 10975 C 1040.16 -0.598367 3.56513 0
M  V30 10976 O 1039.88 0.557983 4.34532 0
M  V30 10977 C 1041.38 -1.24334 4.25507 0
M  V30 10978 H 1038.6 -0.0357398 0.670048 0
M  V30 10979 H 1041.14 0.535035 1.97377 0
M  V30 10980 H 1039.3 -1.29663 3.65056 0
M  V30 10981 H 1039.71 0.244911 5.23928 0
M  V30 10982 H 1041.18 -1.46325 5.32253 0
M  V30 10983 H 1041.66 -2.20622 3.79766 0
M  V30 10984 H 1042.27 -0.586269 4.2124 0
M  V30 10985 N 1040.58 -1.57259 0.103575 0
M  V30 10986 C 1041.83 -1.94945 -0.558953 0
M  V30 10987 C 1042.16 -0.986038 -1.67305 0
M  V30 10988 O 1041.44 -0.0205464 -1.94489 0
M  V30 10989 C 1041.72 -3.42689 -1.10617 0
M  V30 10990 C 1041.57 -4.498 0.00345246 0
M  V30 10991 C 1042.89 -3.91933 -2.00191 0
M  V30 10992 H 1040.01 -0.708859 -0.201713 0
M  V30 10993 H 1042.65 -1.89183 0.176006 0
M  V30 10994 H 1040.8 -3.4773 -1.73251 0
M  V30 10995 H 1042.47 -4.56866 0.638082 0
M  V30 10996 H 1040.72 -4.28615 0.668705 0
M  V30 10997 H 1041.39 -5.50397 -0.420396 0
M  V30 10998 H 1043.86 -3.89098 -1.4745 0
M  V30 10999 H 1042.74 -4.9586 -2.35402 0
M  V30 11000 H 1043 -3.31722 -2.92255 0
M  V30 11001 N 1042.06 0.170153 -1.56679 0
M  V30 11002 C 1043.01 1.21531 -1.9291 0
M  V30 11003 C 1043.99 1.39742 -0.797553 0
M  V30 11004 O 1045.19 1.41693 -1.06075 0
M  V30 11005 C 1042.32 2.55447 -2.29351 0
M  V30 11006 C 1041.4 2.40925 -3.49022 0
M  V30 11007 N 1041.79 1.96118 -4.66231 0
M  V30 11008 C 1040.09 2.71747 -3.53652 0
M  V30 11009 C 1040.79 1.94086 -5.48366 0
M  V30 11010 N 1039.77 2.36533 -4.89441 0
M  V30 11011 H 1043.57 0.860602 -2.81018 0
M  V30 11012 H 1041.08 0.378415 -1.5793 0
M  V30 11013 H 1043.08 3.30972 -2.53502 0
M  V30 11014 H 1041.74 2.9172 -1.42583 0
M  V30 11015 H 1042.75 1.66438 -4.90427 0
M  V30 11016 H 1039.43 3.1205 -2.77365 0
M  V30 11017 H 1040.82 1.61132 -6.52293 0
M  V30 11018 N 1043.54 1.5137 0.438746 0
M  V30 11019 C 1044.95 1.56462 1.01866 0
M  V30 11020 C 1045.3 0.387244 1.9234 0
M  V30 11021 O 1044.43 -0.496131 2.10636 0
M  V30 11022 C 1045.02 2.83557 1.85421 0
M  V30 11023 C 1043.58 2.91224 2.38464 0
M  V30 11024 C 1042.73 2.51109 1.17641 0
M  V30 11025 H 1045.68 1.57167 0.220072 0
M  V30 11026 H 1045.7 2.6724 2.70857 0
M  V30 11027 H 1045.21 3.69229 1.19546 0
M  V30 11028 H 1043.31 2.09979 3.07798 0
M  V30 11029 H 1043.42 3.94844 2.71358 0
M  V30 11030 H 1041.79 2.04276 1.5213 0
M  V30 11031 H 1042.57 3.39125 0.533785 0
M  V30 11032 N 1045.02 -0.694098 1.41492 0
M  V30 11033 C 1046.26 -1.4563 1.41137 0
M  V30 11034 C 1046.6 -1.94189 0.0208428 0
M  V30 11035 O 1045.87 -1.69628 -0.951655 0
M  V30 11036 C 1046.15 -2.66714 2.41941 0
M  V30 11037 C 1046.01 -2.23912 3.90107 0
M  V30 11038 C 1047.33 -3.68913 2.39981 0
M  V30 11039 H 1044.44 -0.52821 0.513968 0
M  V30 11040 H 1047.09 -0.790437 1.72778 0
M  V30 11041 H 1045.24 -3.23525 2.1509 0
M  V30 11042 H 1046.91 -1.72417 4.27867 0
M  V30 11043 H 1045.15 -1.5568 4.04903 0
M  V30 11044 H 1045.82 -3.108 4.56188 0
M  V30 11045 H 1048.3 -3.21779 2.63813 0
M  V30 11046 H 1047.17 -4.51242 3.12524 0
M  V30 11047 H 1047.44 -4.18711 1.41892 0
M  V30 11048 N 1046.49 -1.27344 -0.928501 0
M  V30 11049 C 1047.74 -1.13635 -1.6761 0
M  V30 11050 C 1048.07 0.317957 -1.91884 0
M  V30 11051 O 1047.32 1.24904 -1.50657 0
M  V30 11052 C 1047.62 -1.86439 -3.04918 0
M  V30 11053 C 1047.29 -3.36298 -3.00358 0
M  V30 11054 C 1045.95 -3.77173 -2.98821 0
M  V30 11055 C 1048.3 -4.31921 -2.91708 0
M  V30 11056 C 1045.63 -5.12037 -2.86417 0
M  V30 11057 C 1047.98 -5.66841 -2.80846 0
M  V30 11058 C 1046.65 -6.07011 -2.77659 0
M  V30 11059 H 1045.92 -0.415821 -0.61333 0
M  V30 11060 H 1048.56 -1.57943 -1.08288 0
M  V30 11061 H 1046.87 -1.34638 -3.6794 0
M  V30 11062 H 1048.57 -1.73261 -3.61637 0
M  V30 11063 H 1045.16 -3.0379 -3.0234 0
M  V30 11064 H 1049.34 -4.01314 -2.91994 0
M  V30 11065 H 1044.6 -5.42307 -2.82336 0
M  V30 11066 H 1048.77 -6.40608 -2.73119 0
M  V30 11067 H 1046.4 -7.11467 -2.67804 0
M  V30 11068 N 1047.97 1.13488 -1.09353 0
M  V30 11069 C 1049.2 1.89133 -0.85108 0
M  V30 11070 C 1049.62 1.78542 0.591976 0
M  V30 11071 O 1048.98 1.13243 1.41583 0
M  V30 11072 C 1049.03 3.36736 -1.29001 0
M  V30 11073 O 1048.13 4.09959 -0.447993 0
M  V30 11074 H 1047.47 0.58809 -0.308296 0
M  V30 11075 H 1050 1.43593 -1.45747 0
M  V30 11076 H 1050.01 3.87564 -1.27508 0
M  V30 11077 H 1048.69 3.43762 -2.34095 0
M  V30 11078 H 1047.27 3.69155 -0.52717 0
M  V30 11079 N 1049.45 0.880621 1.30701 0
M  V30 11080 C 1050.7 0.492957 1.95583 0
M  V30 11081 C 1051.01 -0.961863 1.70316 0
M  V30 11082 O 1052.22 -1.45617 2.29146 0
M  V30 11083 C 1050.68 0.830656 3.50183 0
M  V30 11084 C 1050.28 2.30295 3.84276 0
M  V30 11085 C 1052.03 0.511979 4.21401 0
M  V30 11086 C 1049.93 2.58251 5.32034 0
M  V30 11087 H 1048.86 0.18062 0.732047 0
M  V30 11088 H 1051.52 1.075 1.48715 0
M  V30 11089 H 1049.9 0.177752 3.95601 0
M  V30 11090 H 1051.07 2.99981 3.49783 0
M  V30 11091 H 1049.39 2.58873 3.2615 0
M  V30 11092 H 1051.98 0.697935 5.30125 0
M  V30 11093 H 1052.33 -0.548327 4.12673 0
M  V30 11094 H 1052.86 1.12189 3.81652 0
M  V30 11095 H 1049.6 3.63005 5.45809 0
M  V30 11096 H 1049.12 1.9317 5.67843 0
M  V30 11097 H 1050.8 2.43527 5.99419 0
M  V30 11098 N 1050.93 -1.4397 0.641131 0
M  V30 11099 C 1052.18 -2.01163 0.147026 0
M  V30 11100 C 1052.49 -1.51099 -1.24211 0
M  V30 11101 O 1053.7 -2.00487 -1.83078 0
M  V30 11102 C 1052.15 -3.59275 0.212068 0
M  V30 11103 C 1051.76 -4.18334 1.60314 0
M  V30 11104 C 1053.51 -4.23903 -0.225057 0
M  V30 11105 C 1051.41 -5.68701 1.62276 0
M  V30 11106 H 1050.34 -0.75226 0.051201 0
M  V30 11107 H 1052.99 -1.65075 0.801396 0
M  V30 11108 H 1051.38 -3.92708 -0.509589 0
M  V30 11109 H 1052.55 -3.96422 2.34918 0
M  V30 11110 H 1050.86 -3.66031 1.9852 0
M  V30 11111 H 1053.46 -5.34205 -0.230074 0
M  V30 11112 H 1053.8 -3.96956 -1.25426 0
M  V30 11113 H 1054.34 -3.95309 0.44444 0
M  V30 11114 H 1051.08 -6.00397 2.63066 0
M  V30 11115 H 1050.6 -5.92705 0.919797 0
M  V30 11116 H 1052.28 -6.32521 1.36112 0
M  V30 11117 N 1052.41 -0.382291 -1.52893 0
M  V30 11118 C 1053.65 0.202133 -2.01489 0
M  V30 11119 C 1053.98 1.47399 -1.26901 0
M  V30 11120 O 1053.24 1.92439 -0.355771 0
M  V30 11121 C 1053.54 0.523437 -3.53546 0
M  V30 11122 C 1053.2 -0.656042 -4.46102 0
M  V30 11123 C 1051.86 -0.979633 -4.71123 0
M  V30 11124 C 1054.22 -1.44545 -5.00756 0
M  V30 11125 C 1051.54 -2.0943 -5.48047 0
M  V30 11126 C 1053.9 -2.55066 -5.78899 0
M  V30 11127 C 1052.56 -2.87942 -6.02201 0
M  V30 11128 H 1051.83 0.0739659 -0.737299 0
M  V30 11129 H 1054.48 -0.518196 -1.84356 0
M  V30 11130 H 1052.78 1.325 -3.68715 0
M  V30 11131 H 1054.48 0.988148 -3.88634 0
M  V30 11132 H 1051.07 -0.393818 -4.26787 0
M  V30 11133 H 1055.25 -1.20869 -4.81357 0
M  V30 11134 H 1050.51 -2.3528 -5.64317 0
M  V30 11135 H 1054.68 -3.1664 -6.20252 0
M  V30 11136 H 1052.31 -3.74435 -6.61591 0
M  V30 11137 N 1053.89 1.57202 -0.111913 0
M  V30 11138 C 1054.85 2.13778 0.826534 0
M  V30 11139 C 1055.85 1.07097 1.19945 0
M  V30 11140 O 1057.04 1.32906 1.12613 0
M  V30 11141 C 1054.17 2.6722 2.11675 0
M  V30 11142 H 1055.36 2.98023 0.334975 0
M  V30 11143 H 1052.92 1.55696 0.137256 0
M  V30 11144 H 1053.65 1.86542 2.65278 0
M  V30 11145 H 1053.44 3.45235 1.8589 0
M  V30 11146 H 1054.93 3.10926 2.78774 0
M  V30 11147 N 1055.36 -0.161842 1.56767 0
M  V30 11148 C 1056.31 -1.2002 1.97139 0
M  V30 11149 C 1057.28 -1.43486 0.836713 0
M  V30 11150 O 1058.47 -1.56069 1.0976 0
M  V30 11151 C 1055.61 -2.53228 2.34456 0
M  V30 11152 C 1054.72 -2.37062 3.61145 0
M  V30 11153 C 1053.85 -3.63202 3.87631 0
M  V30 11154 C 1052.89 -3.42008 5.07638 0
M  V30 11155 N 1052.03 -4.60242 5.30209 0
M  V30 11156 H 1056.87 -0.848918 2.85653 0
M  V30 11157 H 1054.41 -0.407753 1.41336 0
M  V30 11158 H 1056.36 -3.30879 2.54116 0
M  V30 11159 H 1054.99 -2.86333 1.4904 0
M  V30 11160 H 1054.05 -1.50539 3.49345 0
M  V30 11161 H 1055.36 -2.17353 4.48953 0
M  V30 11162 H 1054.51 -4.49285 4.0771 0
M  V30 11163 H 1053.25 -3.85899 2.98216 0
M  V30 11164 H 1052.26 -2.54312 4.87448 0
M  V30 11165 H 1053.48 -3.20724 5.98593 0
M  V30 11166 H 1051.43 -4.8314 4.43747 0
M  V30 11167 H 1051.34 -4.43481 6.12259 0
M  V30 11168 H 1052.61 -5.47581 5.54775 0
M  V30 11169 N 1056.84 -1.516 -0.430713 0
M  V30 11170 C 1058.09 -1.63829 -1.17657 0
M  V30 11171 C 1058.4 -0.363605 -1.92191 0
M  V30 11172 O 1059.61 -0.365358 -2.6903 0
M  V30 11173 C 1058.07 -2.89357 -2.14011 0
M  V30 11174 C 1057.67 -4.23854 -1.45094 0
M  V30 11175 C 1059.42 -3.10944 -2.88988 0
M  V30 11176 C 1057.32 -5.40526 -2.3997 0
M  V30 11177 H 1056.25 -0.610221 -0.442884 0
M  V30 11178 H 1058.91 -1.78073 -0.442984 0
M  V30 11179 H 1057.29 -2.68762 -2.90832 0
M  V30 11180 H 1058.46 -4.54854 -0.737853 0
M  V30 11181 H 1056.78 -4.08197 -0.822429 0
M  V30 11182 H 1059.37 -3.95286 -3.60074 0
M  V30 11183 H 1059.72 -2.24291 -3.50712 0
M  V30 11184 H 1060.25 -3.3191 -2.19272 0
M  V30 11185 H 1056.99 -6.29459 -1.82925 0
M  V30 11186 H 1056.51 -5.13893 -3.09313 0
M  V30 11187 H 1058.19 -5.72741 -3.00959 0
M  V30 11188 N 1058.32 0.686584 -1.41858 0
M  V30 11189 C 1059.57 1.44235 -1.40994 0
M  V30 11190 C 1059.88 1.95583 -0.0254979 0
M  V30 11191 O 1061.09 2.71294 0.10576 0
M  V30 11192 C 1059.54 2.6086 -2.47952 0
M  V30 11193 C 1059.15 2.16259 -3.92347 0
M  V30 11194 C 1060.9 3.38441 -2.56237 0
M  V30 11195 C 1058.8 3.29896 -4.90838 0
M  V30 11196 H 1057.73 0.54181 -0.524364 0
M  V30 11197 H 1060.38 0.744486 -1.67719 0
M  V30 11198 H 1058.77 3.32957 -2.14373 0
M  V30 11199 H 1059.94 1.51392 -4.35221 0
M  V30 11200 H 1058.25 1.51648 -3.87804 0
M  V30 11201 H 1060.85 4.23052 -3.27003 0
M  V30 11202 H 1061.19 3.84238 -1.6021 0
M  V30 11203 H 1061.73 2.73406 -2.88953 0
M  V30 11204 H 1058.47 2.89104 -5.88302 0
M  V30 11205 H 1057.99 3.93584 -4.52606 0
M  V30 11206 H 1059.67 3.95541 -5.12012 0
M  V30 11207 N 1059.8 1.27835 0.921735 0
M  V30 11208 C 1061.03 1.17352 1.704 0
M  V30 11209 C 1061.44 -0.268892 1.86875 0
M  V30 11210 O 1060.8 -1.18253 1.39005 0
M  V30 11211 C 1060.85 1.85889 3.10045 0
M  V30 11212 O 1060.57 3.24495 2.94338 0
M  V30 11213 C 1062.07 1.81607 4.04393 0
M  V30 11214 H 1059.29 0.40773 0.532914 0
M  V30 11215 H 1061.83 1.68815 1.15419 0
M  V30 11216 H 1059.99 1.38316 3.61867 0
M  V30 11217 H 1060.4 3.58705 3.82663 0
M  V30 11218 H 1061.88 2.34165 4.99871 0
M  V30 11219 H 1062.35 0.786697 4.32097 0
M  V30 11220 H 1062.96 2.28822 3.58498 0
M  V30 11221 N 1061.28 -1.12907 1.09954 0
M  V30 11222 C 1062.21 -2.17589 0.687769 0
M  V30 11223 C 1063.19 -1.59648 -0.308444 0
M  V30 11224 O 1064.37 -1.87343 -0.208527 0
M  V30 11225 C 1061.5 -3.38697 0.0140519 0
M  V30 11226 C 1060.54 -4.15254 0.972942 0
M  V30 11227 S 1061.38 -4.74205 2.48777 0
M  V30 11228 C 1062.53 -5.98653 1.82662 0
M  V30 11229 H 1062.77 -2.52181 1.57455 0
M  V30 11230 H 1060.3 -1.24289 0.916051 0
M  V30 11231 H 1062.26 -4.08844 -0.368343 0
M  V30 11232 H 1060.92 -3.02396 -0.849456 0
M  V30 11233 H 1060.11 -5.01999 0.448715 0
M  V30 11234 H 1059.71 -3.5079 1.297 0
M  V30 11235 H 1062 -6.67602 1.15388 0
M  V30 11236 H 1062.95 -6.55693 2.67343 0
M  V30 11237 H 1063.36 -5.49486 1.29325 0
M  V30 11238 N 1062.75 -0.88754 -1.30232 0
M  V30 11239 C 1064 -0.507279 -1.96043 0
M  V30 11240 C 1064.33 0.944059 -1.70052 0
M  V30 11241 O 1063.58 1.68255 -0.999444 0
M  V30 11242 C 1063.88 -0.731765 -3.49828 0
M  V30 11243 C 1063.55 -2.15858 -3.95874 0
M  V30 11244 C 1062.21 -2.54875 -4.08157 0
M  V30 11245 C 1064.56 -3.0883 -4.19849 0
M  V30 11246 C 1061.89 -3.86069 -4.41778 0
M  V30 11247 C 1064.24 -4.39559 -4.5494 0
M  V30 11248 C 1062.91 -4.78465 -4.65432 0
M  V30 11249 H 1062.18 -0.185627 -0.717373 0
M  V30 11250 H 1064.82 -1.12388 -1.55052 0
M  V30 11251 H 1063.13 -0.0321473 -3.91787 0
M  V30 11252 H 1064.83 -0.417107 -3.98825 0
M  V30 11253 H 1061.42 -1.84574 -3.86821 0
M  V30 11254 H 1065.6 -2.79906 -4.09837 0
M  V30 11255 H 1060.86 -4.1595 -4.48102 0
M  V30 11256 H 1065.03 -5.11636 -4.72442 0
M  V30 11257 H 1062.66 -5.80162 -4.91239 0
M  V30 11258 N 1064.23 1.43628 -0.648757 0
M  V30 11259 C 1065.48 2.01465 -0.16002 0
M  V30 11260 C 1065.8 1.51413 1.22878 0
M  V30 11261 O 1065.07 0.724919 1.81994 0
M  V30 11262 H 1063.65 0.744885 -0.0561672 0
M  V30 11263 H 1066.31 1.75897 -0.839422 0
M  V30 11264 H 1065.41 3.1178 -0.141213 0
M  V30 11265 N 1065.71 0.390394 1.52688 0
M  V30 11266 C 1066.66 -0.4591 2.28024 0
M  V30 11267 C 1067.65 -1.06212 1.31967 0
M  V30 11268 O 1068.86 -1.00247 1.49501 0
M  V30 11269 H 1065.23 -0.16681 0.733266 0
M  V30 11270 H 1067.2 0.197747 2.97744 0
M  V30 11271 C 1065.95 -1.5737 3.10048 0
M  V30 11272 H 1065.28 -1.11901 3.83821 0
M  V30 11273 H 1066.72 -2.1423 3.65898 0
M  V30 11274 C 1065.18 -2.53036 2.22429 0
M  V30 11275 O 1065.71 -3.5647 1.85181 0
M  V30 11276 N 1063.91 -2.22802 1.86567 0
M  V30 11277 H 1063.46 -1.38723 2.17057 0
M  V30 11278 H 1063.42 -2.87061 1.28233 0
M  V30 11279 N 1067.19 -1.57141 0.120249 0
M  V30 11280 C 1068.14 -2.16638 -0.846809 0
M  V30 11281 C 1069.13 -1.11594 -1.27449 0
M  V30 11282 O 1070.34 -1.29895 -1.24608 0
M  V30 11283 H 1066.71 -0.693331 -0.291197 0
M  V30 11284 H 1068.68 -2.96673 -0.320536 0
M  V30 11285 C 1067.43 -2.78134 -2.08655 0
M  V30 11286 H 1066.75 -3.58662 -1.76639 0
M  V30 11287 H 1068.19 -3.23301 -2.74322 0
M  V30 11288 C 1066.65 -1.7528 -2.87713 0
M  V30 11289 O 1067.18 -1.20693 -3.8314 0
M  V30 11290 N 1065.39 -1.45192 -2.51729 0
M  V30 11291 H 1064.94 -1.89773 -1.74195 0
M  V30 11292 H 1064.89 -0.766166 -3.04922 0
M  V30 11293 N 1068.67 0.153526 -1.5685 0
M  V30 11294 C 1069.94 0.895545 -1.73895 0
M  V30 11295 C 1070.32 1.99625 -0.686504 0
M  V30 11296 O 1069.67 2.26579 0.2957 0
M  V30 11297 C 1069.88 1.44399 -3.17726 0
M  V30 11298 C 1071.23 1.90996 -3.79217 0
M  V30 11299 O 1072.25 1.54155 -3.21115 0
M  V30 11300 O 1071.11 2.58917 -4.81274 0
M  V30 11301 H 1068.21 0.422755 -0.710779 0
M  V30 11302 H 1070.75 0.139961 -1.69122 0
M  V30 11303 H 1069.52 0.652635 -3.85819 0
M  V30 11304 H 1069.15 2.26326 -3.26898 0
M  V30 11305 N 1070.14 1.51827 0.422667 0
M  V30 11306 C 1071.09 1.74198 1.51406 0
M  V30 11307 C 1072.06 0.584013 1.55494 0
M  V30 11308 O 1073.25 0.820079 1.72277 0
M  V30 11309 C 1070.39 1.88627 2.88988 0
M  V30 11310 C 1069.5 3.16233 2.94314 0
M  V30 11311 C 1068.63 3.21172 4.2311 0
M  V30 11312 C 1067.67 4.43033 4.2236 0
M  V30 11313 N 1066.81 4.4544 5.42704 0
M  V30 11314 H 1071.65 2.67352 1.31632 0
M  V30 11315 H 1069.19 1.32487 0.63919 0
M  V30 11316 H 1071.15 1.94976 3.68837 0
M  V30 11317 H 1069.78 0.988673 3.07287 0
M  V30 11318 H 1068.83 3.19123 2.07039 0
M  V30 11319 H 1070.14 4.06104 2.89623 0
M  V30 11320 H 1069.29 3.26517 5.11343 0
M  V30 11321 H 1068.03 2.29216 4.30478 0
M  V30 11322 H 1067.04 4.37849 3.32518 0
M  V30 11323 H 1068.26 5.3627 4.16643 0
M  V30 11324 H 1066.21 3.56361 5.50766 0
M  V30 11325 H 1066.13 5.29138 5.39953 0
M  V30 11326 H 1067.39 4.54997 6.32928 0
M  V30 11327 N 1071.62 -0.679052 1.4222 0
M  V30 11328 C 1072.85 -1.46747 1.45852 0
M  V30 11329 C 1073.27 -1.88675 0.0685937 0
M  V30 11330 O 1072.62 -1.57861 -0.915757 0
M  V30 11331 C 1072.67 -2.71935 2.38188 0
M  V30 11332 O 1072.39 -2.31768 3.71773 0
M  V30 11333 C 1073.9 -3.65536 2.50796 0
M  V30 11334 H 1071.12 -0.451682 0.49621 0
M  V30 11335 H 1073.66 -0.834723 1.86689 0
M  V30 11336 H 1071.81 -3.31409 2.00616 0
M  V30 11337 H 1072.23 -3.12579 4.21182 0
M  V30 11338 H 1073.7 -4.50113 3.19535 0
M  V30 11339 H 1074.18 -4.11148 1.54447 0
M  V30 11340 H 1074.79 -3.11957 2.89072 0
M  V30 11341 N 1073.1 -1.28322 -0.914942 0
M  V30 11342 C 1074.33 -1.18254 -1.69775 0
M  V30 11343 C 1074.74 0.258978 -1.87015 0
M  V30 11344 O 1074.1 1.17514 -1.3963 0
M  V30 11345 C 1074.15 -1.8753 -3.09054 0
M  V30 11346 O 1073.87 -3.26051 -2.92613 0
M  V30 11347 C 1075.37 -1.83749 -4.03424 0
M  V30 11348 H 1072.59 -0.41055 -0.530744 0
M  V30 11349 H 1075.14 -1.69425 -1.14523 0
M  V30 11350 H 1073.29 -1.40233 -3.61128 0
M  V30 11351 H 1073.71 -3.60729 -3.80756 0
M  V30 11352 H 1075.18 -2.36813 -4.98622 0
M  V30 11353 H 1075.66 -0.809601 -4.31674 0
M  V30 11354 H 1076.26 -2.3072 -3.57279 0
M  V30 11355 N 1074.58 1.12322 -1.10551 0
M  V30 11356 C 1075.51 2.20176 -0.777486 0
M  V30 11357 C 1076.49 1.68252 0.250069 0
M  V30 11358 O 1077.67 1.93856 0.115574 0
M  V30 11359 C 1074.8 3.46666 -0.209822 0
M  V30 11360 C 1073.76 4.11749 -1.1682 0
M  V30 11361 C 1073.08 5.32703 -0.461684 0
M  V30 11362 C 1074.38 4.57746 -2.51527 0
M  V30 11363 H 1076.08 2.47872 -1.67928 0
M  V30 11364 H 1073.62 1.19136 -0.808863 0
M  V30 11365 H 1075.58 4.21388 0.0318068 0
M  V30 11366 H 1074.3 3.18401 0.727226 0
M  V30 11367 H 1072.96 3.39009 -1.3953 0
M  V30 11368 H 1072.61 5.00706 0.479875 0
M  V30 11369 H 1072.31 5.77197 -1.1008 0
M  V30 11370 H 1073.83 6.10172 -0.228629 0
M  V30 11371 H 1075.25 5.23835 -2.32958 0
M  V30 11372 H 1073.64 5.13021 -3.11335 0
M  V30 11373 H 1074.71 3.71667 -3.11435 0
M  V30 11374 N 1076.06 0.894434 1.2976 0
M  V30 11375 C 1077 0.366586 2.2787 0
M  V30 11376 C 1077.97 -0.548425 1.56785 0
M  V30 11377 O 1079.16 -0.474804 1.84798 0
M  V30 11378 C 1076.3 -0.404531 3.42721 0
M  V30 11379 C 1075.41 0.540774 4.28602 0
M  V30 11380 C 1074.55 -0.246875 5.30626 0
M  V30 11381 C 1073.59 0.693294 6.08161 0
M  V30 11382 N 1072.72 -0.059619 7.02075 0
M  V30 11383 H 1077.56 1.20834 2.72402 0
M  V30 11384 H 1075.1 0.607205 1.33983 0
M  V30 11385 H 1077.06 -0.86762 4.08079 0
M  V30 11386 H 1075.69 -1.21078 2.99232 0
M  V30 11387 H 1074.74 1.12237 3.63465 0
M  V30 11388 H 1076.05 1.26065 4.82606 0
M  V30 11389 H 1075.21 -0.771398 6.01776 0
M  V30 11390 H 1073.94 -0.999918 4.77339 0
M  V30 11391 H 1072.95 1.22936 5.35879 0
M  V30 11392 H 1074.17 1.44558 6.63536 0
M  V30 11393 H 1072.12 -0.795026 6.51165 0
M  V30 11394 H 1072.04 0.60045 7.53612 0
M  V30 11395 H 1073.31 -0.564577 7.77453 0
M  V30 11396 N 1077.53 -1.43282 0.656365 0
M  V30 11397 C 1078.48 -2.27932 -0.0557069 0
M  V30 11398 C 1079.47 -1.40075 -0.791698 0
M  V30 11399 O 1080.66 -1.6368 -0.673646 0
M  V30 11400 C 1077.79 -3.27821 -1.01923 0
M  V30 11401 C 1076.88 -4.23164 -0.281545 0
M  V30 11402 N 1077.27 -5.00882 0.703629 0
M  V30 11403 C 1075.56 -4.42928 -0.522558 0
M  V30 11404 C 1076.27 -5.70384 1.14177 0
M  V30 11405 N 1075.24 -5.41517 0.475394 0
M  V30 11406 H 1079.04 -2.85437 0.70022 0
M  V30 11407 H 1076.56 -1.55023 0.483902 0
M  V30 11408 H 1078.55 -3.87248 -1.54418 0
M  V30 11409 H 1077.21 -2.71878 -1.77518 0
M  V30 11410 H 1078.23 -5.06461 1.08247 0
M  V30 11411 H 1074.9 -3.98051 -1.25944 0
M  V30 11412 H 1076.29 -6.42765 1.95711 0
M  V30 11413 N 1079.01 -0.398486 -1.52479 0
M  V30 11414 C 1080.29 0.238776 -1.94137 0
M  V30 11415 C 1080.67 1.63558 -1.33462 0
M  V30 11416 O 1080.02 2.22821 -0.506272 0
M  V30 11417 C 1080.23 0.255863 -3.48061 0
M  V30 11418 C 1081.58 0.480376 -4.21874 0
M  V30 11419 O 1082.6 0.335679 -3.54615 0
M  V30 11420 O 1081.46 0.764654 -5.41124 0
M  V30 11421 H 1078.55 0.150806 -0.813134 0
M  V30 11422 H 1081.1 -0.453659 -1.63524 0
M  V30 11423 H 1079.87 -0.722171 -3.84578 0
M  V30 11424 H 1079.49 0.99284 -3.85004 0
M  V30 11425 N 1080.49 1.57075 -0.12858 0
M  V30 11426 C 1081.45 2.14643 0.803813 0
M  V30 11427 C 1082.45 1.08363 1.18803 0
M  V30 11428 O 1083.64 1.34093 1.11197 0
M  V30 11429 C 1080.78 2.6945 2.08829 0
M  V30 11430 H 1081.97 2.98362 0.303347 0
M  V30 11431 H 1079.52 1.55833 0.120735 0
M  V30 11432 H 1080.26 1.89345 2.63285 0
M  V30 11433 H 1080.04 3.47187 1.82218 0
M  V30 11434 H 1081.53 3.13865 2.7546 0
M  V30 11435 N 1081.97 -0.145205 1.5693 0
M  V30 11436 C 1082.88 -1.19864 2.01667 0
M  V30 11437 C 1083.9 -1.46909 0.932402 0
M  V30 11438 O 1085.07 -1.58543 1.24201 0
M  V30 11439 C 1082.14 -2.51174 2.38982 0
M  V30 11440 C 1081.2 -2.3176 3.61366 0
M  V30 11441 C 1080.43 -3.56809 3.96892 0
M  V30 11442 O 1080.65 -4.63063 3.33059 0
M  V30 11443 O 1079.59 -3.49366 4.9013 0
M  V30 11444 H 1083.41 -0.848821 2.91597 0
M  V30 11445 H 1081 -0.354063 1.45144 0
M  V30 11446 H 1082.88 -3.28587 2.63835 0
M  V30 11447 H 1081.56 -2.85683 1.52207 0
M  V30 11448 H 1080.46 -1.52293 3.41698 0
M  V30 11449 H 1081.8 -2.02167 4.48764 0
M  V30 11450 N 1083.45 -1.52049 -0.414609 0
M  V30 11451 C 1084.7 -1.65067 -1.15912 0
M  V30 11452 C 1085.01 -0.383969 -1.91794 0
M  V30 11453 O 1086.22 -0.393872 -2.68628 0
M  V30 11454 C 1084.67 -2.91611 -2.1093 0
M  V30 11455 C 1084.28 -4.25369 -1.4059 0
M  V30 11456 C 1086.02 -3.13992 -2.85674 0
M  V30 11457 C 1083.93 -5.43041 -2.34223 0
M  V30 11458 H 1082.86 -0.614884 -0.436387 0
M  V30 11459 H 1085.51 -1.78533 -0.424072 0
M  V30 11460 H 1083.89 -2.71831 -2.87965 0
M  V30 11461 H 1085.07 -4.55611 -0.689568 0
M  V30 11462 H 1083.38 -4.09047 -0.779088 0
M  V30 11463 H 1085.98 -3.99082 -3.55861 0
M  V30 11464 H 1086.32 -2.27998 -3.48314 0
M  V30 11465 H 1086.86 -3.34217 -2.1574 0
M  V30 11466 H 1083.59 -6.31364 -1.76238 0
M  V30 11467 H 1083.11 -5.17144 -3.03845 0
M  V30 11468 H 1084.79 -5.75901 -2.94868 0
M  V30 11469 N 1084.93 0.6715 -1.42579 0
M  V30 11470 C 1086.16 1.4576 -1.46416 0
M  V30 11471 C 1086.56 1.89051 -0.0749843 0
M  V30 11472 O 1085.91 1.58927 0.921296 0
M  V30 11473 C 1085.97 2.7365 -2.33144 0
M  V30 11474 C 1085.63 2.52414 -3.80968 0
M  V30 11475 C 1086.63 2.16804 -4.72538 0
M  V30 11476 C 1084.31 2.67306 -4.25268 0
M  V30 11477 C 1086.31 1.96358 -6.06401 0
M  V30 11478 C 1084 2.46475 -5.5919 0
M  V30 11479 C 1084.99 2.11055 -6.49573 0
M  V30 11480 O 1084.68 1.90428 -7.8102 0
M  V30 11481 H 1084.41 0.454896 -0.500045 0
M  V30 11482 H 1086.97 0.832198 -1.87786 0
M  V30 11483 H 1085.2 3.38684 -1.86629 0
M  V30 11484 H 1086.89 3.35543 -2.28398 0
M  V30 11485 H 1087.65 2.04891 -4.39596 0
M  V30 11486 H 1083.53 2.93854 -3.55206 0
M  V30 11487 H 1087.08 1.68634 -6.76911 0
M  V30 11488 H 1082.97 2.57985 -5.91704 0
M  V30 11489 H 1083.74 2.05 -7.92412 0
M  V30 11490 N 1086.4 1.28806 0.908124 0
M  V30 11491 C 1087.63 1.19271 1.69674 0
M  V30 11492 C 1088.05 -0.244403 1.86505 0
M  V30 11493 O 1087.41 -1.17668 1.37927 0
M  V30 11494 C 1087.46 1.9023 3.06341 0
M  V30 11495 O 1086.56 1.2136 3.94139 0
M  V30 11496 H 1085.9 0.413738 0.519343 0
M  V30 11497 H 1088.43 1.70227 1.13508 0
M  V30 11498 H 1088.44 1.98356 3.56537 0
M  V30 11499 H 1087.12 2.94762 2.93408 0
M  V30 11500 H 1085.7 1.21435 3.52573 0
M  V30 11501 N 1087.88 -1.11734 1.11145 0
M  V30 11502 C 1088.81 -2.16847 0.710809 0
M  V30 11503 C 1089.79 -1.59966 -0.291494 0
M  V30 11504 O 1090.98 -1.87554 -0.188645 0
M  V30 11505 C 1088.1 -3.38663 0.0499744 0
M  V30 11506 C 1087.15 -4.14199 1.01693 0
M  V30 11507 S 1087.98 -4.7154 2.53793 0
M  V30 11508 C 1089.14 -5.96682 1.89001 0
M  V30 11509 H 1089.37 -2.50497 1.60121 0
M  V30 11510 H 1086.9 -1.23311 0.929182 0
M  V30 11511 H 1088.86 -4.09212 -0.324959 0
M  V30 11512 H 1087.52 -3.03279 -0.817335 0
M  V30 11513 H 1086.72 -5.01494 0.501933 0
M  V30 11514 H 1086.32 -3.49395 1.33414 0
M  V30 11515 H 1088.61 -6.6634 1.22462 0
M  V30 11516 H 1089.55 -6.52821 2.74282 0
M  V30 11517 H 1089.96 -5.48084 1.35145 0
M  V30 11518 N 1089.36 -0.901303 -1.29284 0
M  V30 11519 C 1090.61 -0.52401 -1.94774 0
M  V30 11520 C 1090.92 0.934645 -1.71825 0
M  V30 11521 O 1092.13 1.41953 -2.31434 0
M  V30 11522 C 1090.58 -0.886262 -3.48817 0
M  V30 11523 C 1090.19 -2.3638 -3.80564 0
M  V30 11524 C 1091.94 -0.578955 -4.20533 0
M  V30 11525 C 1089.84 -2.66682 -5.27858 0
M  V30 11526 H 1088.77 -0.192244 -0.72908 0
M  V30 11527 H 1091.42 -1.09852 -1.46986 0
M  V30 11528 H 1089.81 -0.240666 -3.95268 0
M  V30 11529 H 1090.98 -3.05508 -3.44966 0
M  V30 11530 H 1089.29 -2.64029 -3.2199 0
M  V30 11531 H 1091.89 -0.782185 -5.28948 0
M  V30 11532 H 1092.23 0.482605 -4.13493 0
M  V30 11533 H 1092.77 -1.18246 -3.79819 0
M  V30 11534 H 1089.51 -3.71643 -5.39965 0
M  V30 11535 H 1089.03 -2.02179 -5.64698 0
M  V30 11536 H 1090.71 -2.53033 -5.95469 0
M  V30 11537 N 1090.84 1.42931 -0.663954 0
M  V30 11538 C 1092.08 2.01683 -0.181738 0
M  V30 11539 C 1092.41 1.52437 1.20802 0
M  V30 11540 O 1091.67 0.71254 1.82267 0
M  V30 11541 C 1091.97 3.57072 -0.153163 0
M  V30 11542 C 1091.63 4.25706 -1.48612 0
M  V30 11543 C 1090.29 4.4417 -1.85111 0
M  V30 11544 C 1092.65 4.6448 -2.36448 0
M  V30 11545 C 1089.97 4.98677 -3.09092 0
M  V30 11546 C 1092.33 5.20362 -3.5973 0
M  V30 11547 C 1090.99 5.37041 -3.96412 0
M  V30 11548 H 1090.26 0.73801 -0.0665026 0
M  V30 11549 H 1092.91 1.71264 -0.856791 0
M  V30 11550 H 1091.21 3.87095 0.605372 0
M  V30 11551 H 1092.91 4.00299 0.236981 0
M  V30 11552 H 1089.5 4.11686 -1.19215 0
M  V30 11553 H 1093.68 4.49898 -2.09537 0
M  V30 11554 H 1088.94 5.09776 -3.37547 0
M  V30 11555 H 1093.11 5.49352 -4.28001 0
M  V30 11556 H 1090.74 5.79042 -4.92559 0
M  V30 11557 N 1092.32 0.406567 1.52266 0
M  V30 11558 C 1093.56 -0.170305 2.02084 0
M  V30 11559 C 1093.89 -1.45008 1.29176 0
M  V30 11560 O 1093.17 -1.90399 0.39731 0
M  V30 11561 C 1093.45 -0.420627 3.57635 0
M  V30 11562 C 1093.31 0.87564 4.41194 0
M  V30 11563 C 1094.62 -1.20387 4.23314 0
M  V30 11564 H 1091.74 -0.0604219 0.734519 0
M  V30 11565 H 1094.39 0.539529 1.82179 0
M  V30 11566 H 1092.54 -1.0253 3.74726 0
M  V30 11567 H 1094.21 1.51192 4.35819 0
M  V30 11568 H 1092.45 1.48718 4.07511 0
M  V30 11569 H 1093.12 0.654916 5.48101 0
M  V30 11570 H 1095.6 -0.691972 4.10306 0
M  V30 11571 H 1094.47 -1.34776 5.32096 0
M  V30 11572 H 1094.73 -2.2238 3.82099 0
M  V30 11573 N 1093.79 -1.57004 0.136909 0
M  V30 11574 C 1095.04 -1.94972 -0.51662 0
M  V30 11575 C 1095.36 -1.02367 -1.66674 0
M  V30 11576 O 1096.56 -1.29873 -2.38423 0
M  V30 11577 C 1095.02 -3.4657 -0.970435 0
M  V30 11578 C 1094.63 -4.47741 0.152204 0
M  V30 11579 C 1096.37 -3.93423 -1.59432 0
M  V30 11580 C 1094.28 -5.90537 -0.319315 0
M  V30 11581 H 1093.21 -0.727873 -0.196766 0
M  V30 11582 H 1095.86 -1.82181 0.219637 0
M  V30 11583 H 1094.24 -3.54657 -1.76165 0
M  V30 11584 H 1095.41 -4.5134 0.928925 0
M  V30 11585 H 1093.73 -4.10746 0.683867 0
M  V30 11586 H 1096.33 -4.97539 -1.95856 0
M  V30 11587 H 1096.67 -3.34404 -2.47951 0
M  V30 11588 H 1097.2 -3.8821 -0.868193 0
M  V30 11589 H 1093.94 -6.53352 0.530248 0
M  V30 11590 H 1093.46 -5.90321 -1.06213 0
M  V30 11591 H 1095.14 -6.42346 -0.774662 0
M  V30 11592 N 1095.27 0.136881 -1.57004 0
M  V30 11593 C 1096.2 1.17026 -2.02057 0
M  V30 11594 C 1097.18 1.44223 -0.901866 0
M  V30 11595 O 1098.37 1.54971 -1.17037 0
M  V30 11596 C 1095.5 2.50095 -2.40977 0
M  V30 11597 C 1094.45 2.37398 -3.56127 0
M  V30 11598 C 1093.78 3.75268 -3.80891 0
M  V30 11599 C 1095.08 1.84952 -4.88457 0
M  V30 11600 H 1096.77 0.795601 -2.88636 0
M  V30 11601 H 1094.32 0.381266 -1.38861 0
M  V30 11602 H 1096.27 3.22621 -2.71097 0
M  V30 11603 H 1095 2.89416 -1.51348 0
M  V30 11604 H 1093.65 1.67322 -3.26188 0
M  V30 11605 H 1093.3 4.12043 -2.88496 0
M  V30 11606 H 1093 3.67631 -4.5839 0
M  V30 11607 H 1094.53 4.49327 -4.13446 0
M  V30 11608 H 1095.94 2.4728 -5.17229 0
M  V30 11609 H 1094.34 1.88181 -5.69832 0
M  V30 11610 H 1095.41 0.805848 -4.78157 0
M  V30 11611 N 1096.75 1.52266 0.40654 0
M  V30 11612 C 1098 1.66123 1.15097 0
M  V30 11613 C 1098.32 0.394836 1.90961 0
M  V30 11614 O 1097.59 -0.590349 1.86793 0
M  V30 11615 H 1096.17 0.612317 0.427875 0
M  V30 11616 H 1098.83 1.89318 0.463106 0
M  V30 11617 H 1097.93 2.50351 1.86361 0
M  V30 11618 N 1098.23 -0.663929 1.42933 0
M  V30 11619 C 1099.47 -1.42603 1.44195 0
M  V30 11620 C 1099.81 -1.94101 0.0620284 0
M  V30 11621 O 1099.08 -1.71609 -0.91546 0
M  V30 11622 C 1099.37 -2.61522 2.47544 0
M  V30 11623 C 1099.22 -2.15587 3.94769 0
M  V30 11624 C 1100.54 -3.6374 2.47753 0
M  V30 11625 H 1097.66 -0.517189 0.525056 0
M  V30 11626 H 1100.3 -0.75361 1.74415 0
M  V30 11627 H 1098.45 -3.1889 2.21904 0
M  V30 11628 H 1100.12 -1.63303 4.31428 0
M  V30 11629 H 1098.36 -1.47057 4.08114 0
M  V30 11630 H 1099.03 -3.01053 4.62678 0
M  V30 11631 H 1101.51 -3.16111 2.70579 0
M  V30 11632 H 1100.39 -4.44512 3.22025 0
M  V30 11633 H 1100.65 -4.15607 1.50742 0
M  V30 11634 N 1099.71 -1.29285 -0.901281 0
M  V30 11635 C 1100.96 -1.16538 -1.64626 0
M  V30 11636 C 1101.27 0.282623 -1.93547 0
M  V30 11637 O 1102.47 0.531396 -2.66249 0
M  V30 11638 C 1100.93 -2.03809 -2.96631 0
M  V30 11639 C 1100.54 -3.53423 -2.75311 0
M  V30 11640 C 1102.28 -1.99782 -3.7455 0
M  V30 11641 C 1100.19 -4.32804 -4.03032 0
M  V30 11642 H 1099.12 -0.432561 -0.617581 0
M  V30 11643 H 1101.77 -1.53912 -0.999159 0
M  V30 11644 H 1100.15 -1.59302 -3.62545 0
M  V30 11645 H 1101.33 -4.05971 -2.18 0
M  V30 11646 H 1099.64 -3.59106 -2.10789 0
M  V30 11647 H 1102.24 -2.5635 -4.69243 0
M  V30 11648 H 1102.58 -0.97743 -4.04663 0
M  V30 11649 H 1103.11 -2.42324 -3.15474 0
M  V30 11650 H 1099.85 -5.35473 -3.78086 0
M  V30 11651 H 1099.37 -3.85025 -4.59909 0
M  V30 11652 H 1101.05 -4.43383 -4.71191 0
M  V30 11653 N 1101.18 1.11143 -1.11736 0
M  V30 11654 C 1102.42 1.84576 -0.878119 0
M  V30 11655 C 1102.79 1.82851 0.585605 0
M  V30 11656 O 1103.99 2.51763 0.941732 0
M  V30 11657 C 1102.26 3.27628 -1.4281 0
M  V30 11658 S 1103.82 4.18276 -1.3263 0
M  V30 11659 H 1100.64 0.636442 -0.316958 0
M  V30 11660 H 1103.24 1.33794 -1.42546 0
M  V30 11661 H 1101.94 3.2645 -2.48714 0
M  V30 11662 H 1101.47 3.83479 -0.877925 0
M  V30 11663 H 1103.49 4.95335 -0.292878 0
M  V30 11664 N 1102.66 0.908147 1.28804 0
M  V30 11665 C 1103.91 0.538404 1.95211 0
M  V30 11666 C 1104.24 -0.916886 1.71533 0
M  V30 11667 O 1103.49 -1.66643 1.02609 0
M  V30 11668 C 1103.79 0.787327 3.4862 0
M  V30 11669 C 1103.46 2.22129 3.92389 0
M  V30 11670 C 1102.12 2.61336 4.04051 0
M  V30 11671 C 1104.47 3.15471 4.14883 0
M  V30 11672 C 1101.8 3.93048 4.3558 0
M  V30 11673 C 1104.15 4.46741 4.47889 0
M  V30 11674 C 1102.82 4.85809 4.57761 0
M  V30 11675 H 1102.09 0.197016 0.714329 0
M  V30 11676 H 1104.73 1.14841 1.53244 0
M  V30 11677 H 1103.04 0.0944731 3.91686 0
M  V30 11678 H 1104.73 0.480503 3.98111 0
M  V30 11679 H 1101.32 1.90704 3.83836 0
M  V30 11680 H 1105.51 2.86391 4.05332 0
M  V30 11681 H 1100.76 4.23027 4.41428 0
M  V30 11682 H 1104.94 5.19087 4.64243 0
M  V30 11683 H 1102.57 5.87904 4.81947 0
M  V30 11684 N 1104.14 -1.42577 0.671525 0
M  V30 11685 C 1105.39 -2.01882 0.192716 0
M  V30 11686 C 1105.72 -1.52959 -1.19654 0
M  V30 11687 O 1104.99 -0.730404 -1.80265 0
M  V30 11688 C 1105.28 -3.59404 0.223734 0
M  V30 11689 C 1105.13 -4.18514 1.64821 0
M  V30 11690 C 1106.45 -4.37996 -0.429858 0
M  V30 11691 H 1103.57 -0.733523 0.0715026 0
M  V30 11692 H 1106.21 -1.69641 0.855689 0
M  V30 11693 H 1104.36 -3.87003 -0.340776 0
M  V30 11694 H 1106.03 -4.01881 2.26472 0
M  V30 11695 H 1104.28 -3.74467 2.1899 0
M  V30 11696 H 1104.95 -5.27643 1.62162 0
M  V30 11697 H 1107.42 -4.16069 0.0506433 0
M  V30 11698 H 1106.3 -5.476 -0.377503 0
M  V30 11699 H 1106.56 -4.15625 -1.50693 0
M  V30 11700 N 1105.62 -0.414636 -1.52048 0
M  V30 11701 C 1106.84 0.161137 -2.06773 0
M  V30 11702 C 1107.27 1.37628 -1.2822 0
M  V30 11703 O 1106.63 1.78562 -0.313915 0
M  V30 11704 C 1106.67 0.48452 -3.5733 0
M  V30 11705 O 1105.78 1.57466 -3.81154 0
M  V30 11706 H 1105.12 0.0118003 -0.663895 0
M  V30 11707 H 1107.65 -0.589424 -1.95926 0
M  V30 11708 H 1107.66 0.741567 -4.01204 0
M  V30 11709 H 1106.33 -0.403733 -4.13936 0
M  V30 11710 H 1104.91 1.30935 -3.49157 0
M  V30 11711 N 1107.1 1.56929 -0.145233 0
M  V30 11712 C 1108.33 2.00141 0.51257 0
M  V30 11713 C 1108.73 1.0243 1.59075 0
M  V30 11714 O 1108.08 0.0130063 1.83695 0
M  V30 11715 C 1108.14 3.39785 1.17417 0
M  V30 11716 C 1107.8 4.56365 0.240801 0
M  V30 11717 C 1108.8 5.17183 -0.530847 0
M  V30 11718 C 1106.49 5.02093 0.144221 0
M  V30 11719 C 1108.48 6.22136 -1.38654 0
M  V30 11720 C 1106.17 6.06902 -0.71508 0
M  V30 11721 C 1107.16 6.66793 -1.47907 0
M  V30 11722 O 1106.85 7.69573 -2.32405 0
M  V30 11723 H 1106.58 0.661747 0.138085 0
M  V30 11724 H 1109.14 2.04037 -0.236269 0
M  V30 11725 H 1107.37 3.32722 1.97061 0
M  V30 11726 H 1109.06 3.67115 1.73152 0
M  V30 11727 H 1109.82 4.82754 -0.466256 0
M  V30 11728 H 1105.7 4.55206 0.728613 0
M  V30 11729 H 1109.25 6.68812 -1.98333 0
M  V30 11730 H 1105.14 6.40758 -0.78097 0
M  V30 11731 H 1105.91 7.86786 -2.25634 0
M  V30 11732 N 1108.58 -0.128553 1.57075 0
M  V30 11733 C 1109.82 -0.83801 1.84347 0
M  V30 11734 C 1110.15 -1.80325 0.728906 0
M  V30 11735 O 1109.41 -1.93678 -0.280571 0
M  V30 11736 C 1109.7 -1.63027 3.18052 0
M  V30 11737 C 1109.37 -0.810171 4.43562 0
M  V30 11738 C 1108.03 -0.583984 4.77643 0
M  V30 11739 C 1110.38 -0.237896 5.20657 0
M  V30 11740 C 1107.71 0.224887 5.86269 0
M  V30 11741 C 1110.06 0.558114 6.30133 0
M  V30 11742 C 1108.73 0.794706 6.62752 0
M  V30 11743 H 1108 -0.30665 0.674572 0
M  V30 11744 H 1110.65 -0.100797 1.91235 0
M  V30 11745 H 1108.95 -2.43812 3.06697 0
M  V30 11746 H 1110.65 -2.183 3.36372 0
M  V30 11747 H 1107.24 -0.996547 4.16854 0
M  V30 11748 H 1111.42 -0.399881 4.94686 0
M  V30 11749 H 1106.68 0.417507 6.09973 0
M  V30 11750 H 1110.85 1.00859 6.89058 0
M  V30 11751 H 1108.48 1.42331 7.46757 0
M  V30 11752 N 1110.05 -1.5248 -0.398459 0
M  V30 11753 C 1110.99 -1.71321 -1.50746 0
M  V30 11754 C 1111.96 -0.5609 -1.52619 0
M  V30 11755 O 1113.15 -0.789557 -1.71167 0
M  V30 11756 C 1110.28 -1.76223 -2.89246 0
M  V30 11757 C 1109.32 -2.97878 -3.05239 0
M  V30 11758 S 1110.15 -4.58031 -2.77431 0
M  V30 11759 C 1111.31 -4.65735 -4.18141 0
M  V30 11760 H 1111.54 -2.65117 -1.34538 0
M  V30 11761 H 1109.08 -1.42653 -0.590727 0
M  V30 11762 H 1111.03 -1.79733 -3.69062 0
M  V30 11763 H 1109.7 -0.83536 -3.02788 0
M  V30 11764 H 1108.89 -2.97821 -4.06594 0
M  V30 11765 H 1108.49 -2.92311 -2.33304 0
M  V30 11766 H 1110.78 -4.43768 -5.11934 0
M  V30 11767 H 1111.73 -5.67709 -4.23217 0
M  V30 11768 H 1112.13 -3.94664 -4.03609 0
M  V30 11769 N 1111.53 0.65634 -1.43283 0
M  V30 11770 C 1112.46 1.78184 -1.44164 0
M  V30 11771 C 1113.48 1.59249 -0.338177 0
M  V30 11772 O 1114.67 1.68027 -0.60242 0
M  V30 11773 C 1111.77 3.15566 -1.23577 0
M  V30 11774 C 1110.94 3.61187 -2.46704 0
M  V30 11775 C 1110 4.77361 -2.21388 0
M  V30 11776 O 1109.02 4.8696 -2.94718 0
M  V30 11777 N 1110.23 5.67351 -1.22855 0
M  V30 11778 H 1112.99 1.77907 -2.41183 0
M  V30 11779 H 1110.55 0.840076 -1.38399 0
M  V30 11780 H 1112.54 3.90968 -1.04529 0
M  V30 11781 H 1111.11 3.10633 -0.350155 0
M  V30 11782 H 1110.33 2.76263 -2.81198 0
M  V30 11783 H 1111.62 3.88413 -3.28652 0
M  V30 11784 H 1111.02 5.62265 -0.622417 0
M  V30 11785 H 1109.58 6.42487 -1.09791 0
M  V30 11786 N 1113.01 1.29761 0.894412 0
M  V30 11787 C 1114.26 1.17806 1.64214 0
M  V30 11788 C 1114.58 -0.269588 1.93127 0
M  V30 11789 O 1113.85 -1.18352 1.56107 0
M  V30 11790 H 1112.43 0.433002 0.608702 0
M  V30 11791 H 1115.09 1.6276 1.07216 0
M  V30 11792 H 1114.19 1.73201 2.5963 0
M  V30 11793 N 1114.49 -1.10549 1.12324 0
M  V30 11794 C 1115.42 -2.18911 0.812416 0
M  V30 11795 C 1116.4 -1.68628 -0.22327 0
M  V30 11796 O 1117.58 -1.94015 -0.0847184 0
M  V30 11797 C 1114.71 -3.46288 0.264947 0
M  V30 11798 C 1113.67 -4.09838 1.23356 0
M  V30 11799 C 1112.99 -5.31901 0.546374 0
M  V30 11800 C 1114.29 -4.53686 2.58778 0
M  V30 11801 H 1115.99 -2.45169 1.71851 0
M  V30 11802 H 1113.53 -1.17834 0.827715 0
M  V30 11803 H 1115.49 -4.21385 0.0352364 0
M  V30 11804 H 1114.21 -3.19517 -0.676479 0
M  V30 11805 H 1112.87 -3.36746 1.44906 0
M  V30 11806 H 1112.52 -5.01406 -0.400157 0
M  V30 11807 H 1112.22 -5.75372 1.19249 0
M  V30 11808 H 1113.74 -6.09731 0.325673 0
M  V30 11809 H 1115.16 -5.20063 2.41263 0
M  V30 11810 H 1113.55 -5.08003 3.19457 0
M  V30 11811 H 1114.62 -3.66665 3.17309 0
M  V30 11812 N 1115.97 -0.914965 -1.28321 0
M  V30 11813 C 1117.21 -0.548749 -1.94923 0
M  V30 11814 C 1117.54 0.907776 -1.72016 0
M  V30 11815 O 1116.8 1.66097 -1.03491 0
M  V30 11816 C 1117.09 -0.805805 -3.48198 0
M  V30 11817 C 1116.76 -2.24207 -3.91206 0
M  V30 11818 C 1115.42 -2.63475 -4.02659 0
M  V30 11819 C 1117.77 -3.17667 -4.13204 0
M  V30 11820 C 1115.1 -3.95353 -4.3349 0
M  V30 11821 C 1117.45 -4.4911 -4.45514 0
M  V30 11822 C 1116.12 -4.8823 -4.55179 0
M  V30 11823 H 1115.39 -0.200801 -0.713274 0
M  V30 11824 H 1118.04 -1.15652 -1.52633 0
M  V30 11825 H 1116.34 -0.115244 -3.9163 0
M  V30 11826 H 1118.04 -0.501609 -3.9785 0
M  V30 11827 H 1114.63 -1.92737 -3.82819 0
M  V30 11828 H 1118.81 -2.88537 -4.03807 0
M  V30 11829 H 1114.07 -4.25362 -4.39178 0
M  V30 11830 H 1118.24 -5.21542 -4.61483 0
M  V30 11831 H 1115.87 -5.90451 -4.78823 0
M  V30 11832 N 1117.44 1.42219 -0.679077 0
M  V30 11833 C 1118.67 2.05516 -0.211342 0
M  V30 11834 C 1119.08 1.5113 1.13826 0
M  V30 11835 O 1118.42 0.647593 1.71907 0
M  V30 11836 C 1118.49 3.59425 -0.0736007 0
M  V30 11837 C 1118.15 4.36525 -1.3526 0
M  V30 11838 C 1119.15 4.66897 -2.28698 0
M  V30 11839 C 1116.83 4.76089 -1.60139 0
M  V30 11840 C 1118.83 5.35775 -3.45288 0
M  V30 11841 C 1116.51 5.44706 -2.77017 0
M  V30 11842 C 1117.51 5.74474 -3.69416 0
M  V30 11843 O 1117.2 6.41683 -4.8425 0
M  V30 11844 H 1116.93 0.668662 -0.0993318 0
M  V30 11845 H 1119.49 1.8327 -0.927434 0
M  V30 11846 H 1117.72 3.80346 0.69811 0
M  V30 11847 H 1119.4 4.04346 0.354813 0
M  V30 11848 H 1120.17 4.36828 -2.10729 0
M  V30 11849 H 1116.05 4.5231 -0.890887 0
M  V30 11850 H 1119.59 5.58927 -4.17428 0
M  V30 11851 H 1115.49 5.74194 -2.9491 0
M  V30 11852 H 1116.26 6.60175 -4.8385 0
M  V30 11853 N 1118.92 0.422693 1.51826 0
M  V30 11854 C 1120.17 -0.148348 2.01555 0
M  V30 11855 C 1120.49 -1.44483 1.30956 0
M  V30 11856 O 1119.76 -1.90904 0.439599 0
M  V30 11857 H 1118.34 -0.0578116 0.74476 0
M  V30 11858 H 1121 0.562046 1.8662 0
M  V30 11859 H 1120.1 -0.334766 3.10299 0
M  V30 11860 N 1120.4 -1.5685 0.153553 0
M  V30 11861 C 1121.82 -1.58306 -0.202801 0
M  V30 11862 C 1122.02 -1.16813 -1.64186 0
M  V30 11863 O 1121.07 -0.871468 -2.36985 0
M  V30 11864 C 1122.38 -3.00636 0.0619012 0
M  V30 11865 C 1123.93 -3.13 -0.00129219 0
M  V30 11866 C 1124.41 -4.57391 0.236164 0
M  V30 11867 N 1125.9 -4.62837 0.18332 0
M  V30 11868 C 1126.63 -5.72382 0.341471 0
M  V30 11869 N 1126.13 -6.90552 0.557704 0
M  V30 11870 N 1127.92 -5.61409 0.278615 0
M  V30 11871 H 1120.07 -1.82113 1.09309 0
M  V30 11872 H 1122.34 -0.843228 0.433209 0
M  V30 11873 H 1122.04 -3.35406 1.0581 0
M  V30 11874 H 1121.92 -3.71477 -0.654555 0
M  V30 11875 H 1124.3 -2.78068 -0.98805 0
M  V30 11876 H 1124.38 -2.44632 0.747596 0
M  V30 11877 H 1124.03 -4.93029 1.22005 0
M  V30 11878 H 1123.96 -5.23894 -0.533125 0
M  V30 11879 H 1126.45 -3.77894 0.0211138 0
M  V30 11880 H 1126.76 -7.69905 0.66831 0
M  V30 11881 H 1125.11 -6.92456 0.594105 0
M  V30 11882 H 1128.3 -4.6797 0.110401 0
M  V30 11883 H 1128.47 -6.46731 0.4053 0
M  V30 11884 N 1121.88 0.120221 -1.57141 0
M  V30 11885 C 1122.84 1.13159 -1.99318 0
M  V30 11886 C 1123.84 1.34376 -0.883158 0
M  V30 11887 O 1125.03 1.30914 -1.14922 0
M  V30 11888 C 1122.16 2.48632 -2.33227 0
M  V30 11889 H 1123.36 0.769119 -2.8987 0
M  V30 11890 H 1120.91 0.364475 -1.51991 0
M  V30 11891 H 1121.64 2.89802 -1.45551 0
M  V30 11892 H 1121.43 2.34587 -3.14184 0
M  V30 11893 H 1122.92 3.21423 -2.66603 0
M  V30 11894 N 1123.36 1.52689 0.390367 0
M  V30 11895 C 1124.6 1.67335 1.13329 0
M  V30 11896 C 1124.93 0.415068 1.90531 0
M  V30 11897 O 1124.2 -0.570504 1.87409 0
M  V30 11898 H 1122.78 0.616821 0.421356 0
M  V30 11899 H 1125.44 1.89799 0.443 0
M  V30 11900 H 1124.53 2.52314 1.83696 0
M  V30 11901 N 1124.83 -0.648732 1.43629 0
M  V30 11902 C 1125.74 -1.79046 1.51591 0
M  V30 11903 C 1126.76 -1.69276 0.402697 0
M  V30 11904 O 1127.94 -1.90366 0.657484 0
M  V30 11905 C 1125 -3.15347 1.44073 0
M  V30 11906 C 1124.06 -3.3688 2.66102 0
M  V30 11907 C 1123.3 -4.66679 2.58933 0
M  V30 11908 O 1123.52 -5.46328 1.63956 0
M  V30 11909 O 1122.45 -4.9003 3.49506 0
M  V30 11910 H 1126.28 -1.75283 2.48011 0
M  V30 11911 H 1123.86 -0.807774 1.2568 0
M  V30 11912 H 1125.75 -3.96633 1.42339 0
M  V30 11913 H 1124.42 -3.19691 0.50789 0
M  V30 11914 H 1123.33 -2.55341 2.73407 0
M  V30 11915 H 1124.66 -3.37386 3.58373 0
M  V30 11916 N 1126.31 -1.30234 -0.887518 0
M  V30 11917 C 1127.56 -1.18277 -1.63381 0
M  V30 11918 C 1127.87 0.262079 -1.93836 0
M  V30 11919 O 1129.08 0.503127 -2.66797 0
M  V30 11920 C 1127.54 -2.06944 -2.94452 0
M  V30 11921 C 1127.14 -3.56323 -2.71547 0
M  V30 11922 C 1128.89 -2.03743 -3.7241 0
M  V30 11923 C 1126.8 -4.37054 -3.98419 0
M  V30 11924 H 1125.73 -0.439087 -0.612959 0
M  V30 11925 H 1128.38 -1.54964 -0.982779 0
M  V30 11926 H 1126.76 -1.63138 -3.60835 0
M  V30 11927 H 1127.93 -4.08261 -2.13681 0
M  V30 11928 H 1126.25 -3.61321 -2.06969 0
M  V30 11929 H 1128.84 -2.61312 -4.66497 0
M  V30 11930 H 1129.19 -1.02029 -4.03603 0
M  V30 11931 H 1129.72 -2.45657 -3.12886 0
M  V30 11932 H 1126.46 -5.39453 -3.72385 0
M  V30 11933 H 1125.98 -3.89881 -4.55799 0
M  V30 11934 H 1127.66 -4.48356 -4.66462 0
M  V30 11935 N 1127.79 1.09952 -1.12909 0
M  V30 11936 C 1128.72 2.18477 -0.824014 0
M  V30 11937 C 1129.7 1.68744 0.214324 0
M  V30 11938 O 1130.89 1.94057 0.0744281 0
M  V30 11939 C 1128.02 3.46143 -0.283308 0
M  V30 11940 C 1126.97 4.09178 -1.25528 0
M  V30 11941 C 1126.3 5.31604 -0.574574 0
M  V30 11942 C 1127.6 4.52308 -2.6118 0
M  V30 11943 H 1129.29 2.44254 -1.73148 0
M  V30 11944 H 1126.84 1.17394 -0.833952 0
M  V30 11945 H 1128.79 4.21361 -0.057583 0
M  V30 11946 H 1127.51 3.19872 0.659525 0
M  V30 11947 H 1126.17 3.35973 -1.4669 0
M  V30 11948 H 1125.82 5.01611 0.37356 0
M  V30 11949 H 1125.52 5.74732 -1.22299 0
M  V30 11950 H 1127.04 6.0955 -0.358004 0
M  V30 11951 H 1128.46 5.18776 -2.44017 0
M  V30 11952 H 1126.86 5.06302 -3.22147 0
M  V30 11953 H 1127.93 3.64977 -3.19249 0
M  V30 11954 N 1129.27 0.921757 1.27833 0
M  V30 11955 C 1130.5 0.575202 1.98744 0
M  V30 11956 C 1130.91 -0.845405 1.68815 0
M  V30 11957 O 1130.27 -1.56106 0.94536 0
M  V30 11958 C 1130.32 0.784389 3.52888 0
M  V30 11959 O 1130.04 2.1491 3.81766 0
M  V30 11960 C 1131.54 0.445744 4.41053 0
M  V30 11961 H 1128.76 0.218525 0.634419 0
M  V30 11962 H 1131.31 1.23715 1.62834 0
M  V30 11963 H 1129.46 0.169323 3.8703 0
M  V30 11964 H 1129.87 2.19469 4.76375 0
M  V30 11965 H 1131.35 0.64284 5.48244 0
M  V30 11966 H 1131.83 -0.618433 4.34824 0
M  V30 11967 H 1132.43 1.03869 4.12421 0
M  V30 11968 N 1130.75 -1.41857 0.686609 0
M  V30 11969 C 1131.68 -2.28174 -0.0347358 0
M  V30 11970 C 1132.66 -1.41732 -0.796928 0
M  V30 11971 O 1133.84 -1.71165 -0.789607 0
M  V30 11972 C 1130.97 -3.21801 -1.0565 0
M  V30 11973 C 1130.01 -4.24727 -0.388523 0
M  V30 11974 S 1130.85 -5.28508 0.862546 0
M  V30 11975 C 1132 -6.25701 -0.157849 0
M  V30 11976 H 1132.24 -2.89005 0.697381 0
M  V30 11977 H 1129.77 -1.46861 0.476562 0
M  V30 11978 H 1131.73 -3.76278 -1.64089 0
M  V30 11979 H 1130.39 -2.60082 -1.76114 0
M  V30 11980 H 1129.58 -4.90471 -1.15991 0
M  V30 11981 H 1129.18 -3.73799 0.122567 0
M  V30 11982 H 1131.48 -6.6987 -1.01393 0
M  V30 11983 H 1132.42 -7.06569 0.465437 0
M  V30 11984 H 1132.83 -5.62204 -0.508614 0
M  V30 11985 N 1132.22 -0.430739 -1.51599 0
M  V30 11986 C 1133.64 -0.0826902 -1.59386 0
M  V30 11987 C 1133.84 1.40729 -1.44214 0
M  V30 11988 O 1132.9 2.1765 -1.28002 0
M  V30 11989 C 1134.21 -0.59691 -2.94716 0
M  V30 11990 C 1135.76 -0.556772 -3.08008 0
M  V30 11991 C 1136.23 -1.04786 -4.45852 0
M  V30 11992 N 1137.72 -1.00557 -4.52153 0
M  V30 11993 C 1138.46 -1.35649 -5.57124 0
M  V30 11994 N 1137.95 -1.77994 -6.69545 0
M  V30 11995 N 1139.75 -1.27508 -5.47447 0
M  V30 11996 H 1131.9 -1.40027 -1.59707 0
M  V30 11997 H 1134.16 -0.576606 -0.752482 0
M  V30 11998 H 1133.87 -1.63914 -3.11167 0
M  V30 11999 H 1133.74 -0.0182342 -3.77196 0
M  V30 12000 H 1136.13 0.476457 -2.91228 0
M  V30 12001 H 1136.21 -1.17177 -2.27383 0
M  V30 12002 H 1135.85 -2.07952 -4.63377 0
M  V30 12003 H 1135.78 -0.409461 -5.25006 0
M  V30 12004 H 1138.27 -0.694518 -3.71463 0
M  V30 12005 H 1138.59 -2.03026 -7.45654 0
M  V30 12006 H 1136.93 -1.81916 -6.70769 0
M  V30 12007 H 1140.12 -0.942969 -4.58504 0
M  V30 12008 H 1140.3 -1.55185 -6.29143 0
M  V30 12009 N 1133.7 1.56767 -0.161869 0
M  V30 12010 C 1134.63 2.20511 0.767918 0
M  V30 12011 C 1135.61 1.15783 1.24612 0
M  V30 12012 O 1136.8 1.44179 1.301 0
M  V30 12013 C 1133.93 2.83844 2.00125 0
M  V30 12014 C 1132.88 3.94528 1.65926 0
M  V30 12015 C 1132.21 4.44866 2.96646 0
M  V30 12016 C 1133.51 5.14583 0.894497 0
M  V30 12017 H 1135.2 2.98464 0.236607 0
M  V30 12018 H 1132.75 1.43561 0.112363 0
M  V30 12019 H 1134.7 3.27109 2.65664 0
M  V30 12020 H 1133.43 2.03246 2.55654 0
M  V30 12021 H 1132.08 3.51904 1.02759 0
M  V30 12022 H 1131.73 3.61071 3.50196 0
M  V30 12023 H 1131.43 5.19531 2.74521 0
M  V30 12024 H 1132.96 4.90812 3.6323 0
M  V30 12025 H 1134.37 5.54601 1.45228 0
M  V30 12026 H 1132.77 5.95105 0.772636 0
M  V30 12027 H 1133.84 4.84773 -0.110986 0
M  V30 12028 N 1135.18 -0.111886 1.57202 0
M  V30 12029 C 1136.6 -0.465629 1.52657 0
M  V30 12030 C 1136.8 -1.81463 0.875989 0
M  V30 12031 O 1135.85 -2.4825 0.461345 0
M  V30 12032 C 1137.17 -0.443571 2.9741 0
M  V30 12033 C 1138.71 -0.52662 3.08538 0
M  V30 12034 C 1139.19 -0.53488 4.54866 0
M  V30 12035 N 1140.68 -0.596117 4.59348 0
M  V30 12036 C 1141.41 -0.624073 5.69994 0
M  V30 12037 N 1140.91 -0.609245 6.90116 0
M  V30 12038 N 1142.7 -0.667619 5.58121 0
M  V30 12039 H 1134.85 0.771925 1.97876 0
M  V30 12040 H 1137.12 0.285534 0.903977 0
M  V30 12041 H 1136.82 0.480138 3.48407 0
M  V30 12042 H 1136.7 -1.26876 3.55221 0
M  V30 12043 H 1139.08 -1.44075 2.57539 0
M  V30 12044 H 1139.17 0.326396 2.53709 0
M  V30 12045 H 1138.81 0.375233 5.06512 0
M  V30 12046 H 1138.74 -1.40488 5.07514 0
M  V30 12047 H 1141.23 -0.613452 3.72888 0
M  V30 12048 H 1141.54 -0.633396 7.702 0
M  V30 12049 H 1139.89 -0.576557 6.92604 0
M  V30 12050 H 1143.08 -0.676616 4.63184 0
M  V30 12051 H 1143.25 -0.685938 6.44359 0
M  V30 12052 N 1136.66 -1.52894 -0.382264 0
M  V30 12053 C 1137.61 -1.74531 -1.46707 0
M  V30 12054 C 1138.59 -0.599499 -1.49315 0
M  V30 12055 O 1139.78 -0.857577 -1.54837 0
M  V30 12056 C 1136.91 -1.92366 -2.84342 0
M  V30 12057 C 1136 -3.12899 -2.86278 0
M  V30 12058 N 1136.39 -4.35125 -2.57876 0
M  V30 12059 C 1134.69 -3.13282 -3.17444 0
M  V30 12060 C 1135.39 -5.16769 -2.67066 0
M  V30 12061 N 1134.37 -4.52606 -3.0108 0
M  V30 12062 H 1138.17 -2.66653 -1.23585 0
M  V30 12063 H 1135.68 -1.51292 -0.590286 0
M  V30 12064 H 1137.68 -2.0599 -3.62455 0
M  V30 12065 H 1136.34 -1.01461 -3.08441 0
M  V30 12066 H 1137.35 -4.63143 -2.31774 0
M  V30 12067 H 1134.03 -2.32211 -3.46964 0
M  V30 12068 H 1135.42 -6.24219 -2.48595 0
M  V30 12069 N 1138.14 0.641106 -1.43971 0
M  V30 12070 C 1139.07 1.76489 -1.52885 0
M  V30 12071 C 1140.05 1.65742 -0.38258 0
M  V30 12072 O 1141.23 1.84653 -0.601397 0
M  V30 12073 C 1138.36 3.14977 -1.4631 0
M  V30 12074 C 1137.32 3.40502 -2.59311 0
M  V30 12075 C 1136.64 4.78916 -2.37789 0
M  V30 12076 C 1137.94 3.34048 -4.01509 0
M  V30 12077 H 1139.64 1.69286 -2.46946 0
M  V30 12078 H 1137.18 0.813015 -1.18853 0
M  V30 12079 H 1139.14 3.9336 -1.51149 0
M  V30 12080 H 1137.86 3.2294 -0.487599 0
M  V30 12081 H 1136.52 2.64495 -2.53846 0
M  V30 12082 H 1136.17 4.8357 -1.38454 0
M  V30 12083 H 1135.87 4.96954 -3.13545 0
M  V30 12084 H 1137.39 5.59541 -2.4443 0
M  V30 12085 H 1138.81 4.0235 -4.08396 0
M  V30 12086 H 1137.2 3.63622 -4.77388 0
M  V30 12087 H 1138.27 2.32022 -4.25786 0
M  V30 12088 N 1139.62 1.30703 0.880598 0
M  V30 12089 C 1140.58 1.17429 1.96832 0
M  V30 12090 C 1141.58 0.104305 1.60461 0
M  V30 12091 O 1142.77 0.352758 1.70591 0
M  V30 12092 C 1139.9 0.800099 3.31378 0
M  V30 12093 H 1141.09 2.14069 2.10034 0
M  V30 12094 H 1138.65 1.14162 1.06755 0
M  V30 12095 H 1139.38 -0.165606 3.23877 0
M  V30 12096 H 1139.17 1.57341 3.59146 0
M  V30 12097 H 1140.66 0.730826 4.11155 0
M  V30 12098 N 1141.09 -1.09351 1.1349 0
M  V30 12099 C 1142.34 -1.81543 0.897123 0
M  V30 12100 C 1142.67 -1.85754 -0.576703 0
M  V30 12101 O 1141.92 -1.32213 -1.44285 0
M  V30 12102 C 1142.22 -3.27498 1.43108 0
M  V30 12103 C 1141.89 -3.4342 2.92188 0
M  V30 12104 C 1140.55 -3.47473 3.32891 0
M  V30 12105 C 1142.9 -3.47894 3.88097 0
M  V30 12106 C 1140.23 -3.5358 4.68186 0
M  V30 12107 C 1142.58 -3.55535 5.23238 0
M  V30 12108 C 1141.25 -3.57857 5.63467 0
M  V30 12109 H 1140.52 -0.664314 0.32828 0
M  V30 12110 H 1143.16 -1.28819 1.41697 0
M  V30 12111 H 1141.47 -3.82865 0.831946 0
M  V30 12112 H 1143.17 -3.8189 1.22316 0
M  V30 12113 H 1139.76 -3.4095 2.59713 0
M  V30 12114 H 1143.94 -3.44002 3.57737 0
M  V30 12115 H 1139.2 -3.53665 4.9873 0
M  V30 12116 H 1143.37 -3.57942 5.9737 0
M  V30 12117 H 1141 -3.62341 6.68291 0
M  V30 12118 N 1142.57 -0.928524 -1.27343 0
M  V30 12119 C 1143.52 -0.426873 -2.26818 0
M  V30 12120 C 1144.49 0.506663 -1.58184 0
M  V30 12121 O 1145.67 0.425641 -1.85992 0
M  V30 12122 C 1142.81 0.313523 -3.43673 0
M  V30 12123 C 1141.93 -0.65422 -4.27018 0
M  V30 12124 C 1141.06 0.106102 -5.31094 0
M  V30 12125 C 1140.1 -0.854293 -6.06109 0
M  V30 12126 N 1139.24 -0.126545 -7.01986 0
M  V30 12127 H 1144.08 -1.28014 -2.69103 0
M  V30 12128 H 1141.61 -0.642515 -1.32326 0
M  V30 12129 H 1143.57 0.75912 -4.10236 0
M  V30 12130 H 1142.2 1.13102 -3.02337 0
M  V30 12131 H 1141.25 -1.21834 -3.60362 0
M  V30 12132 H 1142.57 -1.38817 -4.79094 0
M  V30 12133 H 1141.72 0.611577 -6.0361 0
M  V30 12134 H 1140.46 0.873009 -4.79823 0
M  V30 12135 H 1139.46 -1.37101 -5.32432 0
M  V30 12136 H 1140.69 -1.621 -6.5947 0
M  V30 12137 H 1138.64 0.622102 -6.53044 0
M  V30 12138 H 1138.55 -0.800046 -7.51755 0
M  V30 12139 H 1139.82 0.358251 -7.78676 0
M  V30 12140 N 1144.05 1.41491 -0.694123 0
M  V30 12141 C 1145.01 2.2917 -0.0368562 0
M  V30 12142 C 1146.01 1.44305 0.709426 0
M  V30 12143 O 1147.2 1.6547 0.544533 0
M  V30 12144 C 1144.33 3.27156 0.958201 0
M  V30 12145 H 1145.53 2.88787 -0.808829 0
M  V30 12146 H 1143.08 1.49453 -0.457538 0
M  V30 12147 H 1143.82 2.72516 1.75799 0
M  V30 12148 H 1143.6 3.89776 0.426227 0
M  V30 12149 H 1145.09 3.92863 1.41592 0
M  V30 12150 N 1145.53 0.438773 1.51369 0
M  V30 12151 C 1146.46 -0.417215 2.24354 0
M  V30 12152 C 1147.44 -1.02351 1.26345 0
M  V30 12153 O 1148.62 -1.06569 1.55484 0
M  V30 12154 C 1145.75 -1.58163 2.99503 0
M  V30 12155 C 1144.8 -1.09588 4.1218 0
M  V30 12156 S 1145.63 -0.0367491 5.35487 0
M  V30 12157 C 1146.78 -1.2058 6.14175 0
M  V30 12158 H 1147.02 0.202416 2.9661 0
M  V30 12159 H 1144.55 0.223306 1.52777 0
M  V30 12160 H 1146.51 -2.24917 3.43399 0
M  V30 12161 H 1145.17 -2.17268 2.26833 0
M  V30 12162 H 1144.36 -1.96667 4.64045 0
M  V30 12163 H 1143.96 -0.506564 3.70554 0
M  V30 12164 H 1146.26 -2.12387 6.43349 0
M  V30 12165 H 1147.2 -0.727087 7.04357 0
M  V30 12166 H 1147.61 -1.44501 5.45692 0
M  V30 12167 N 1147.01 -1.56678 0.170181 0
M  V30 12168 C 1147.94 -2.20916 -0.756213 0
M  V30 12169 C 1148.92 -1.16442 -1.23997 0
M  V30 12170 O 1150.1 -1.44867 -1.29333 0
M  V30 12171 C 1147.23 -2.84901 -1.98617 0
M  V30 12172 C 1146.19 -3.95403 -1.63831 0
M  V30 12173 C 1145.51 -4.46432 -2.94282 0
M  V30 12174 C 1146.81 -5.15051 -0.867195 0
M  V30 12175 H 1148.51 -2.98585 -0.220776 0
M  V30 12176 H 1146.05 -1.43619 -0.104748 0
M  V30 12177 H 1148 -3.28514 -2.63926 0
M  V30 12178 H 1146.73 -2.04598 -2.54572 0
M  V30 12179 H 1145.39 -3.52444 -1.00891 0
M  V30 12180 H 1145.04 -3.62923 -3.48276 0
M  V30 12181 H 1144.74 -5.20979 -2.71762 0
M  V30 12182 H 1146.26 -4.92731 -3.60622 0
M  V30 12183 H 1147.67 -5.55363 -1.42285 0
M  V30 12184 H 1146.07 -5.95507 -0.741065 0
M  V30 12185 H 1147.14 -4.84707 0.136693 0
M  V30 12186 N 1148.48 0.103547 -1.57259 0
M  V30 12187 C 1149.71 0.821158 -1.8958 0
M  V30 12188 C 1150.12 1.73213 -0.761184 0
M  V30 12189 O 1149.46 1.81611 0.27625 0
M  V30 12190 C 1149.53 1.69428 -3.17072 0
M  V30 12191 C 1149.19 0.956014 -4.46889 0
M  V30 12192 C 1150.19 0.289694 -5.19092 0
M  V30 12193 C 1147.87 0.932602 -4.93566 0
M  V30 12194 C 1149.87 -0.390164 -6.36205 0
M  V30 12195 C 1147.55 0.248954 -6.10593 0
M  V30 12196 C 1148.55 -0.411259 -6.81761 0
M  V30 12197 O 1148.24 -1.08396 -7.96559 0
M  V30 12198 H 1147.97 0.240508 -0.631769 0
M  V30 12199 H 1150.53 0.0877817 -2.05212 0
M  V30 12200 H 1148.76 2.46968 -2.97563 0
M  V30 12201 H 1150.44 2.28769 -3.3529 0
M  V30 12202 H 1151.21 0.299297 -4.84076 0
M  V30 12203 H 1147.09 1.43592 -4.38067 0
M  V30 12204 H 1150.63 -0.906057 -6.91691 0
M  V30 12205 H 1146.53 0.237168 -6.45064 0
M  V30 12206 H 1147.3 -0.990002 -8.12491 0
M  V30 12207 N 1149.96 1.53094 0.37415 0
M  V30 12208 C 1150.89 1.75199 1.47776 0
M  V30 12209 C 1151.91 0.632627 1.50006 0
M  V30 12210 O 1153.1 0.908688 1.5364 0
M  V30 12211 C 1150.2 1.80909 2.86575 0
M  V30 12212 C 1149.37 3.10432 3.08141 0
M  V30 12213 C 1148.43 3.07495 4.27005 0
M  V30 12214 O 1147.45 3.81319 4.22592 0
M  V30 12215 N 1148.66 2.27715 5.33972 0
M  V30 12216 H 1151.42 2.70423 1.29196 0
M  V30 12217 H 1148.98 1.51766 0.563802 0
M  V30 12218 H 1150.97 1.76432 3.64217 0
M  V30 12219 H 1149.54 0.930074 2.98443 0
M  V30 12220 H 1148.76 3.2828 2.18233 0
M  V30 12221 H 1150.05 3.96047 3.19413 0
M  V30 12222 H 1149.45 1.67231 5.40417 0
M  V30 12223 H 1148.01 2.29065 6.10223 0
M  V30 12224 N 1151.44 -0.633461 1.44309 0
M  V30 12225 C 1152.72 -1.3917 1.37444 0
M  V30 12226 C 1153.1 -2.11076 0.0319994 0
M  V30 12227 O 1152.44 -2.06164 -0.98533 0
M  V30 12228 C 1152.65 -2.36005 2.57104 0
M  V30 12229 C 1154 -2.99407 3.01065 0
M  V30 12230 O 1155.03 -2.46331 2.57292 0
M  V30 12231 O 1153.89 -3.95686 3.76954 0
M  V30 12232 H 1150.98 -0.622746 0.544166 0
M  V30 12233 H 1153.53 -0.658712 1.56394 0
M  V30 12234 H 1152.3 -1.81955 3.46422 0
M  V30 12235 H 1151.92 -3.16725 2.40356 0
M  V30 12236 N 1152.92 -1.31168 -0.873655 0
M  V30 12237 C 1154.17 -1.20003 -1.62118 0
M  V30 12238 C 1154.48 0.241505 -1.94103 0
M  V30 12239 O 1155.69 0.474801 -2.67316 0
M  V30 12240 C 1154.14 -2.10055 -2.92241 0
M  V30 12241 C 1153.75 -3.59183 -2.67752 0
M  V30 12242 C 1155.49 -2.07681 -3.70228 0
M  V30 12243 C 1153.4 -4.41255 -3.93761 0
M  V30 12244 H 1152.33 -0.445564 -0.608267 0
M  V30 12245 H 1154.98 -1.55997 -0.966287 0
M  V30 12246 H 1153.36 -1.66956 -3.59085 0
M  V30 12247 H 1154.54 -4.10504 -2.09339 0
M  V30 12248 H 1152.85 -3.63496 -2.03125 0
M  V30 12249 H 1155.45 -2.66246 -4.637 0
M  V30 12250 H 1155.79 -1.06304 -4.02499 0
M  V30 12251 H 1156.33 -2.48961 -3.10263 0
M  V30 12252 H 1153.07 -5.43372 -3.66643 0
M  V30 12253 H 1152.59 -3.94694 -4.51638 0
M  V30 12254 H 1154.26 -4.53278 -4.6168 0
M  V30 12255 N 1154.4 1.08748 -1.14068 0
M  V30 12256 C 1155.36 2.1375 -0.827266 0
M  V30 12257 C 1156.36 1.59936 0.166496 0
M  V30 12258 O 1157.55 1.74092 -0.0614305 0
M  V30 12259 C 1154.68 3.40106 -0.232557 0
M  V30 12260 H 1155.87 2.42985 -1.7578 0
M  V30 12261 H 1153.43 1.24402 -0.946244 0
M  V30 12262 H 1154.16 3.16503 0.706859 0
M  V30 12263 H 1153.95 3.8046 -0.948293 0
M  V30 12264 H 1155.44 4.17589 -0.0303662 0
M  V30 12265 N 1155.87 0.935264 1.26849 0
M  V30 12266 C 1157.12 0.590057 1.94653 0
M  V30 12267 C 1157.48 -0.860481 1.72086 0
M  V30 12268 O 1156.77 -1.60672 1.04379 0
M  V30 12269 C 1156.96 0.861098 3.46872 0
M  V30 12270 C 1156.79 2.33643 3.84241 0
M  V30 12271 C 1155.56 2.99052 4.07303 0
M  V30 12272 C 1157.76 3.3145 3.9325 0
M  V30 12273 N 1155.74 4.36659 4.31511 0
M  V30 12274 C 1157.11 4.54294 4.21921 0
M  V30 12275 C 1159.17 3.26555 3.75854 0
M  V30 12276 C 1157.87 5.72854 4.35006 0
M  V30 12277 C 1159.9 4.44435 3.90168 0
M  V30 12278 C 1159.26 5.66059 4.19233 0
M  V30 12279 H 1155.36 0.266182 0.735303 0
M  V30 12280 H 1157.94 1.20345 1.53053 0
M  V30 12281 H 1156.11 0.276803 3.87412 0
M  V30 12282 H 1157.84 0.477757 4.0187 0
M  V30 12283 H 1154.6 2.49692 4.02431 0
M  V30 12284 H 1155.02 5.07869 4.47658 0
M  V30 12285 H 1159.67 2.33585 3.52417 0
M  V30 12286 H 1157.38 6.66283 4.57266 0
M  V30 12287 H 1160.97 4.42174 3.78119 0
M  V30 12288 H 1159.85 6.55753 4.30068 0
M  V30 12289 N 1157.35 -1.41121 0.701616 0
M  V30 12290 C 1158.6 -2.0113 0.235147 0
M  V30 12291 C 1158.93 -1.55587 -1.16718 0
M  V30 12292 O 1158.18 -0.760615 -1.80314 0
M  V30 12293 C 1158.48 -3.5654 0.247781 0
M  V30 12294 C 1158.15 -4.21616 1.59846 0
M  V30 12295 C 1156.81 -4.39106 1.96822 0
M  V30 12296 C 1159.16 -4.58048 2.48679 0
M  V30 12297 C 1156.49 -4.90307 3.22205 0
M  V30 12298 C 1158.84 -5.10642 3.734 0
M  V30 12299 C 1157.51 -5.26343 4.10512 0
M  V30 12300 H 1156.78 -0.735987 0.0860462 0
M  V30 12301 H 1159.42 -1.68932 0.901898 0
M  V30 12302 H 1157.73 -3.88564 -0.502528 0
M  V30 12303 H 1159.42 -4.00787 -0.130766 0
M  V30 12304 H 1156.01 -4.08381 1.30088 0
M  V30 12305 H 1160.2 -4.44184 2.21391 0
M  V30 12306 H 1155.45 -5.00647 3.50945 0
M  V30 12307 H 1159.63 -5.37811 4.42416 0
M  V30 12308 H 1157.26 -5.65779 5.07738 0
M  V30 12309 N 1158.83 -0.446794 -1.51134 0
M  V30 12310 C 1160.11 0.176892 -1.94798 0
M  V30 12311 C 1160.49 1.59229 -1.38598 0
M  V30 12312 O 1159.84 2.21097 -0.576905 0
M  V30 12313 C 1160.05 0.145 -3.48699 0
M  V30 12314 C 1161.39 0.345917 -4.23189 0
M  V30 12315 O 1162.42 0.222691 -3.55503 0
M  V30 12316 O 1161.28 0.592112 -5.43283 0
M  V30 12317 H 1158.37 0.12486 -0.81752 0
M  V30 12318 H 1160.92 -0.505453 -1.61998 0
M  V30 12319 H 1159.69 -0.844156 -3.82086 0
M  V30 12320 H 1159.31 0.869851 -3.87968 0
M  V30 12321 N 1160.31 1.56586 -0.178487 0
M  V30 12322 C 1161.22 2.21903 0.761321 0
M  V30 12323 C 1162.23 1.21289 1.2476 0
M  V30 12324 O 1163.41 1.53974 1.29823 0
M  V30 12325 C 1160.48 2.85259 1.97048 0
M  V30 12326 C 1159.54 4.01095 1.53039 0
M  V30 12327 C 1158.77 4.61421 2.68191 0
M  V30 12328 O 1158.99 4.20644 3.85247 0
M  V30 12329 O 1157.93 5.51171 2.41855 0
M  V30 12330 H 1161.75 3.02788 0.235141 0
M  V30 12331 H 1159.34 1.49316 0.0500442 0
M  V30 12332 H 1161.22 3.25404 2.6775 0
M  V30 12333 H 1159.89 2.07366 2.48558 0
M  V30 12334 H 1158.8 3.65606 0.792661 0
M  V30 12335 H 1160.13 4.80603 1.06213 0
M  V30 12336 N 1161.79 -0.095206 1.57312 0
M  V30 12337 C 1162.73 -1.11551 2.02052 0
M  V30 12338 C 1163.7 -1.39808 0.896818 0
M  V30 12339 O 1164.89 -1.51273 1.1628 0
M  V30 12340 C 1162.03 -2.43056 2.44985 0
M  V30 12341 C 1161.14 -2.21531 3.70875 0
M  V30 12342 C 1160.28 -3.46434 4.02687 0
M  V30 12343 C 1159.32 -3.2017 5.21687 0
M  V30 12344 N 1158.45 -4.37339 5.49253 0
M  V30 12345 H 1163.29 -0.727 2.88996 0
M  V30 12346 H 1160.83 -0.347441 1.42938 0
M  V30 12347 H 1162.79 -3.19803 2.67921 0
M  V30 12348 H 1161.42 -2.79754 1.61051 0
M  V30 12349 H 1160.47 -1.35587 3.55416 0
M  V30 12350 H 1161.78 -1.98116 4.57768 0
M  V30 12351 H 1160.94 -4.31589 4.26399 0
M  V30 12352 H 1159.67 -3.72904 3.14315 0
M  V30 12353 H 1158.68 -2.33409 4.97796 0
M  V30 12354 H 1159.9 -2.95047 6.11657 0
M  V30 12355 H 1157.85 -4.63885 4.6384 0
M  V30 12356 H 1157.77 -4.17114 6.30517 0
M  V30 12357 H 1159.04 -5.23559 5.775 0
M  V30 12358 N 1163.26 -1.53291 -0.366026 0
M  V30 12359 C 1164.17 -1.82656 -1.47221 0
M  V30 12360 C 1165.19 -0.71491 -1.58635 0
M  V30 12361 O 1166.37 -1.00492 -1.74538 0
M  V30 12362 C 1163.43 -2.00995 -2.82492 0
M  V30 12363 C 1162.49 -3.24895 -2.8061 0
M  V30 12364 C 1161.73 -3.4235 -4.09429 0
M  V30 12365 O 1161.95 -2.6411 -5.05571 0
M  V30 12366 O 1160.88 -4.35702 -4.15268 0
M  V30 12367 H 1164.71 -2.76634 -1.2533 0
M  V30 12368 H 1162.29 -1.38665 -0.556084 0
M  V30 12369 H 1164.18 -2.14632 -3.62645 0
M  V30 12370 H 1162.85 -1.10207 -3.04362 0
M  V30 12371 H 1161.76 -3.16682 -1.99157 0
M  V30 12372 H 1163.09 -4.15604 -2.63694 0
M  V30 12373 N 1164.74 0.6258 -1.44643 0
M  V30 12374 C 1165.69 1.75869 -1.52226 0
M  V30 12375 C 1166.68 1.64765 -0.39355 0
M  V30 12376 O 1167.89 1.70779 -0.568718 0
M  V30 12377 H 1164.27 0.580712 -0.477784 0
M  V30 12378 H 1166.24 1.66596 -2.47565 0
M  V30 12379 C 1164.99 3.14217 -1.48873 0
M  V30 12380 H 1164.31 3.23411 -2.35043 0
M  V30 12381 H 1165.75 3.93365 -1.58239 0
M  V30 12382 C 1164.21 3.36243 -0.210299 0
M  V30 12383 O 1164.74 3.95243 0.717335 0
M  V30 12384 N 1162.94 2.90385 -0.111744 0
M  V30 12385 H 1162.49 2.42555 -0.867466 0
M  V30 12386 H 1162.45 3.05498 0.742871 0
M  V30 12387 N 1166.22 1.31629 0.866686 0
M  V30 12388 C 1167.45 1.24609 1.65793 0
M  V30 12389 C 1167.87 -0.184944 1.87189 0
M  V30 12390 O 1167.23 -1.1322 1.41601 0
M  V30 12391 C 1167.28 1.9988 3.00134 0
M  V30 12392 O 1166.38 1.33838 3.90079 0
M  V30 12393 H 1165.72 0.430051 0.505917 0
M  V30 12394 H 1168.25 1.73752 1.08035 0
M  V30 12395 H 1168.26 2.09599 3.50046 0
M  V30 12396 H 1166.94 3.03947 2.83882 0
M  V30 12397 H 1165.51 1.3259 3.48532 0
M  V30 12398 N 1167.7 -1.08142 1.14644 0
M  V30 12399 C 1168.93 -1.84318 0.939926 0
M  V30 12400 C 1169.34 -1.81735 -0.511636 0
M  V30 12401 O 1168.7 -1.22297 -1.35461 0
M  V30 12402 C 1168.75 -3.31744 1.43625 0
M  V30 12403 O 1168.47 -3.3435 2.83094 0
M  V30 12404 C 1169.97 -4.24717 1.27007 0
M  V30 12405 H 1167.19 -0.581781 0.334323 0
M  V30 12406 H 1169.74 -1.36561 1.52221 0
M  V30 12407 H 1167.89 -3.7688 0.896664 0
M  V30 12408 H 1168.31 -4.26399 3.05425 0
M  V30 12409 H 1169.78 -5.26262 1.66591 0
M  V30 12410 H 1170.26 -4.38682 0.213257 0
M  V30 12411 H 1170.86 -3.85409 1.79833 0
M  V30 12412 N 1169.18 -0.941978 -1.26351 0
M  V30 12413 C 1170.43 -0.588806 -1.93333 0
M  V30 12414 C 1170.75 0.875067 -1.74263 0
M  V30 12415 O 1170.02 1.62187 -1.09873 0
M  V30 12416 H 1168.6 -0.214774 -0.715459 0
M  V30 12417 H 1171.26 -1.19747 -1.53774 0
M  V30 12418 H 1170.35 -0.807267 -3.01479 0
M  V30 12419 N 1170.66 1.40747 -0.709091 0
M  V30 12420 C 1171.9 2.00606 -0.245324 0
M  V30 12421 C 1172.22 1.56489 1.16346 0
M  V30 12422 O 1171.49 0.801456 1.78755 0
M  V30 12423 H 1170.07 0.741833 -0.0877098 0
M  V30 12424 H 1172.74 1.72178 -0.913271 0
M  V30 12425 H 1171.83 3.10901 -0.273322 0
M  V30 12426 N 1172.13 0.454803 1.50895 0
M  V30 12427 C 1173.06 -0.337982 2.31041 0
M  V30 12428 C 1174.04 -1.00523 1.37219 0
M  V30 12429 O 1175.23 -1.00553 1.66141 0
M  V30 12430 C 1172.36 -1.42964 3.1651 0
M  V30 12431 C 1171.31 -0.884907 4.18752 0
M  V30 12432 C 1170.64 -2.07363 4.92854 0
M  V30 12433 C 1171.94 0.0926716 5.22218 0
M  V30 12434 H 1173.63 0.33089 2.97566 0
M  V30 12435 H 1171.18 0.160577 1.43102 0
M  V30 12436 H 1173.13 -1.9916 3.71367 0
M  V30 12437 H 1171.86 -2.12705 2.47839 0
M  V30 12438 H 1170.52 -0.345031 3.64973 0
M  V30 12439 H 1170.16 -2.75764 4.2067 0
M  V30 12440 H 1169.86 -1.71545 5.62002 0
M  V30 12441 H 1171.39 -2.6408 5.5054 0
M  V30 12442 H 1172.8 -0.379568 5.72042 0
M  V30 12443 H 1171.2 0.3643 5.98993 0
M  V30 12444 H 1172.27 1.02383 4.73968 0
M  V30 12445 N 1173.61 -1.56489 0.186789 0
M  V30 12446 C 1174.84 -2.01722 -0.459993 0
M  V30 12447 C 1175.25 -1.06697 -1.5576 0
M  V30 12448 O 1174.61 -0.0704212 -1.82364 0
M  V30 12449 C 1174.66 -3.46693 -1.02401 0
M  V30 12450 O 1174.38 -4.3809 0.0297916 0
M  V30 12451 C 1175.88 -4.07403 -1.7475 0
M  V30 12452 H 1173.1 -0.660845 -0.116298 0
M  V30 12453 H 1175.65 -2.02389 0.293059 0
M  V30 12454 H 1173.8 -3.46752 -1.72749 0
M  V30 12455 H 1174.22 -5.23057 -0.388821 0
M  V30 12456 H 1175.69 -5.10718 -2.09455 0
M  V30 12457 H 1176.17 -3.50383 -2.64818 0
M  V30 12458 H 1176.77 -4.11093 -1.09007 0
M  V30 12459 N 1175.09 0.086862 -1.5736 0
M  V30 12460 C 1176.32 0.802167 -1.90717 0
M  V30 12461 C 1176.73 1.71875 -0.781304 0
M  V30 12462 O 1176.09 1.80831 0.246255 0
M  V30 12463 C 1176.14 1.60858 -3.23739 0
M  V30 12464 O 1175.86 0.728851 -4.31995 0
M  V30 12465 C 1177.36 2.42621 -3.71012 0
M  V30 12466 H 1174.58 0.228914 -0.630745 0
M  V30 12467 H 1177.13 0.061634 -2.04407 0
M  V30 12468 H 1175.28 2.30153 -3.11622 0
M  V30 12469 H 1175.7 1.2882 -5.08435 0
M  V30 12470 H 1177.17 2.94683 -4.66761 0
M  V30 12471 H 1177.65 3.21462 -2.99264 0
M  V30 12472 H 1178.25 1.78509 -3.86024 0
M  V30 12473 N 1176.57 1.53483 0.357892 0
M  V30 12474 C 1177.82 1.69256 1.09706 0
M  V30 12475 C 1178.13 0.454888 1.90237 0
M  V30 12476 O 1179.34 0.4933 2.66981 0
M  V30 12477 C 1177.79 2.99238 1.99961 0
M  V30 12478 C 1177.4 4.30293 1.24706 0
M  V30 12479 C 1179.14 3.24378 2.73823 0
M  V30 12480 C 1177.05 5.5136 2.13907 0
M  V30 12481 H 1175.98 0.630657 0.413265 0
M  V30 12482 H 1178.63 1.79983 0.357518 0
M  V30 12483 H 1177.01 2.82332 2.77677 0
M  V30 12484 H 1178.19 4.57857 0.519995 0
M  V30 12485 H 1176.5 4.11656 0.626736 0
M  V30 12486 H 1179.1 4.12015 3.40805 0
M  V30 12487 H 1179.44 2.40769 3.39612 0
M  V30 12488 H 1179.98 3.41994 2.03187 0
M  V30 12489 H 1176.71 6.3747 1.52684 0
M  V30 12490 H 1176.23 5.28065 2.84442 0
M  V30 12491 H 1177.91 5.86448 2.7329 0
M  V30 12492 N 1178.05 -0.61812 1.44973 0
M  V30 12493 C 1178.98 -1.74035 1.55673 0
M  V30 12494 C 1179.96 -1.65112 0.4089 0
M  V30 12495 O 1181.14 -1.83673 0.630698 0
M  V30 12496 C 1178.27 -3.1261 1.51303 0
M  V30 12497 C 1177.23 -3.36334 2.64696 0
M  V30 12498 C 1176.55 -4.75072 2.45378 0
M  V30 12499 C 1177.85 -3.27618 4.06772 0
M  V30 12500 H 1179.55 -1.65336 2.49608 0
M  V30 12501 H 1177.09 -0.794003 1.20132 0
M  V30 12502 H 1179.04 -3.90906 1.57388 0
M  V30 12503 H 1177.77 -3.22123 0.538914 0
M  V30 12504 H 1176.43 -2.60423 2.58022 0
M  V30 12505 H 1176.08 -4.81306 1.46129 0
M  V30 12506 H 1175.78 -4.91903 3.21412 0
M  V30 12507 H 1177.3 -5.55582 2.53301 0
M  V30 12508 H 1178.71 -3.95802 4.14746 0
M  V30 12509 H 1177.11 -3.55981 4.83113 0
M  V30 12510 H 1178.18 -2.25219 4.29423 0
M  V30 12511 N 1179.52 -1.32087 -0.859693 0
M  V30 12512 C 1180.49 -1.20546 -1.94939 0
M  V30 12513 C 1181.49 -0.12982 -1.60275 0
M  V30 12514 O 1182.68 -0.379853 -1.70008 0
M  V30 12515 C 1179.81 -0.852717 -3.30063 0
M  V30 12516 H 1181 -2.17384 -2.06602 0
M  V30 12517 H 1178.55 -1.15846 -1.04926 0
M  V30 12518 H 1179.29 0.114059 -3.24099 0
M  V30 12519 H 1179.07 -1.63035 -3.56598 0
M  V30 12520 H 1180.56 -0.796145 -4.09941 0
M  V30 12521 N 1181 1.07532 -1.15215 0
M  V30 12522 C 1182.25 1.79474 -0.920439 0
M  V30 12523 C 1182.56 1.87593 0.553926 0
M  V30 12524 O 1183.77 2.56037 0.903169 0
M  V30 12525 C 1182.23 3.22509 -1.59738 0
M  V30 12526 C 1181.83 3.22596 -3.10863 0
M  V30 12527 C 1183.58 3.99072 -1.44714 0
M  V30 12528 C 1181.48 4.60273 -3.71352 0
M  V30 12529 H 1180.41 0.672625 -0.340722 0
M  V30 12530 H 1183.07 1.2071 -1.38208 0
M  V30 12531 H 1181.45 3.81454 -1.06342 0
M  V30 12532 H 1182.62 2.73306 -3.70999 0
M  V30 12533 H 1180.94 2.5953 -3.25627 0
M  V30 12534 H 1183.53 5.00823 -1.87299 0
M  V30 12535 H 1183.88 4.14428 -0.394386 0
M  V30 12536 H 1184.41 3.46617 -1.95195 0
M  V30 12537 H 1181.15 4.50122 -4.76519 0
M  V30 12538 H 1180.67 5.09809 -3.15998 0
M  V30 12539 H 1182.35 5.29243 -3.7217 0
M  V30 12540 N 1182.48 0.948665 1.2585 0
M  V30 12541 C 1183.76 0.517832 1.88621 0
M  V30 12542 C 1184.14 -1.00477 1.85654 0
M  V30 12543 O 1183.49 -1.868 1.31598 0
M  V30 12544 C 1183.7 1.08768 3.31618 0
M  V30 12545 C 1185.04 1.16089 4.08422 0
M  V30 12546 O 1186.07 1.0388 3.40716 0
M  V30 12547 O 1184.93 1.35172 5.29519 0
M  V30 12548 H 1182.02 0.169916 0.809356 0
M  V30 12549 H 1184.57 1.04171 1.33964 0
M  V30 12550 H 1183.34 2.13109 3.28177 0
M  V30 12551 H 1182.96 0.54669 3.93824 0
M  V30 12552 N 1183.96 -1.40369 0.716545 0
M  V30 12553 C 1185.21 -2.00101 0.253452 0
M  V30 12554 C 1185.52 -1.57471 -1.16027 0
M  V30 12555 O 1186.73 -2.09909 -1.72193 0
M  V30 12556 C 1185.18 -3.57645 0.402213 0
M  V30 12557 C 1184.79 -4.09248 1.82264 0
M  V30 12558 C 1186.53 -4.245 -3.88526e-05 0
M  V30 12559 C 1184.44 -5.59299 1.92193 0
M  V30 12560 H 1183.37 -0.748488 0.0910047 0
M  V30 12561 H 1186.02 -1.60595 0.887772 0
M  V30 12562 H 1184.4 -3.94857 -0.300706 0
M  V30 12563 H 1185.58 -3.83412 2.55601 0
M  V30 12564 H 1183.89 -3.54993 2.17644 0
M  V30 12565 H 1186.49 -5.34673 0.0534202 0
M  V30 12566 H 1186.83 -4.03046 -1.04208 0
M  V30 12567 H 1187.37 -3.92398 0.65336 0
M  V30 12568 H 1184.11 -5.85608 2.94522 0
M  V30 12569 H 1183.63 -5.86997 1.23268 0
M  V30 12570 H 1185.3 -6.24416 1.6945 0
M  V30 12571 N 1185.44 -0.462799 -1.50652 0
M  V30 12572 C 1186.4 0.324264 -2.26895 0
M  V30 12573 C 1187.4 0.927687 -1.31342 0
M  V30 12574 O 1188.59 0.798159 -1.54839 0
M  V30 12575 C 1185.72 1.46113 -3.08 0
M  V30 12576 H 1186.91 -0.344266 -2.97917 0
M  V30 12577 H 1184.47 -0.216631 -1.54791 0
M  V30 12578 H 1185.2 2.16496 -2.41454 0
M  V30 12579 H 1184.99 1.03433 -3.78212 0
M  V30 12580 H 1186.48 2.01655 -3.65684 0
M  V30 12581 N 1186.91 1.56388 -0.195085 0
M  V30 12582 C 1187.85 2.16316 0.757643 0
M  V30 12583 C 1188.86 1.12498 1.17678 0
M  V30 12584 O 1190.05 1.39591 1.11251 0
M  V30 12585 C 1187.15 2.7104 2.03447 0
M  V30 12586 C 1186.32 3.99759 1.77514 0
M  V30 12587 C 1185.38 4.3931 2.89644 0
M  V30 12588 O 1184.41 5.06732 2.59252 0
M  V30 12589 N 1185.61 4.02813 4.17998 0
M  V30 12590 H 1188.37 2.98696 0.24517 0
M  V30 12591 H 1185.93 1.61895 -0.0131194 0
M  V30 12592 H 1187.93 2.94483 2.776 0
M  V30 12593 H 1186.5 1.93114 2.45817 0
M  V30 12594 H 1185.72 3.84448 0.8714 0
M  V30 12595 H 1187 4.83782 1.57585 0
M  V30 12596 H 1186.4 3.4858 4.45543 0
M  V30 12597 H 1184.96 4.31206 4.88779 0
M  V30 12598 N 1188.39 -0.0785156 1.57404 0
M  V30 12599 C 1189.64 -0.777722 1.86103 0
M  V30 12600 C 1189.95 -1.79079 0.786771 0
M  V30 12601 O 1191.16 -2.53908 0.961393 0
M  V30 12602 C 1189.62 -1.43407 3.30095 0
M  V30 12603 C 1189.22 -0.459912 4.45633 0
M  V30 12604 C 1190.97 -2.11603 3.68 0
M  V30 12605 C 1188.88 -1.12179 5.80663 0
M  V30 12606 H 1187.81 -0.294205 0.694233 0
M  V30 12607 H 1190.46 -0.0309003 1.83474 0
M  V30 12608 H 1188.84 -2.22892 3.27315 0
M  V30 12609 H 1190.01 0.304642 4.59792 0
M  V30 12610 H 1188.33 0.117242 4.16235 0
M  V30 12611 H 1190.92 -2.61887 4.66175 0
M  V30 12612 H 1191.27 -2.91244 2.9746 0
M  V30 12613 H 1191.8 -1.38958 3.72741 0
M  V30 12614 H 1188.54 -0.365842 6.54478 0
M  V30 12615 H 1188.06 -1.85737 5.70317 0
M  V30 12616 H 1189.74 -1.64355 6.25777 0
M  V30 12617 N 1189.87 -1.5367 -0.349747 0
M  V30 12618 C 1190.8 -1.77528 -1.4497 0
M  V30 12619 C 1191.82 -0.656412 -1.4898 0
M  V30 12620 O 1193 -0.933016 -1.52174 0
M  V30 12621 C 1190.1 -1.85445 -2.8366 0
M  V30 12622 C 1189.28 -3.15295 -3.03163 0
M  V30 12623 C 1188.34 -3.1425 -4.22059 0
M  V30 12624 O 1187.36 -3.87994 -4.16472 0
M  V30 12625 N 1188.56 -2.36181 -5.30282 0
M  V30 12626 H 1191.33 -2.72444 -1.24877 0
M  V30 12627 H 1188.89 -1.52644 -0.539586 0
M  V30 12628 H 1190.88 -1.82204 -3.61364 0
M  V30 12629 H 1189.45 -0.977436 -2.96926 0
M  V30 12630 H 1188.67 -3.31711 -2.12983 0
M  V30 12631 H 1189.96 -4.01078 -3.13072 0
M  V30 12632 H 1189.36 -1.75808 -5.37688 0
M  V30 12633 H 1187.92 -2.38744 -6.06502 0
M  V30 12634 N 1191.35 0.610423 -1.45298 0
M  V30 12635 C 1192.6 1.3668 -1.48872 0
M  V30 12636 C 1192.92 1.94562 -0.130686 0
M  V30 12637 O 1192.19 1.76996 0.839607 0
M  V30 12638 H 1190.77 0.507393 -0.548235 0
M  V30 12639 H 1193.43 0.716997 -1.81232 0
M  V30 12640 H 1192.53 2.18766 -2.22593 0
M  V30 12641 N 1192.83 1.32541 0.852676 0
M  V30 12642 C 1193.79 1.21578 1.94297 0
M  V30 12643 C 1194.79 0.138318 1.60204 0
M  V30 12644 O 1195.98 0.388864 1.69804 0
M  V30 12645 C 1193.11 0.870209 3.29606 0
M  V30 12646 H 1194.3 2.18476 2.05446 0
M  V30 12647 H 1191.86 1.16401 1.0431 0
M  V30 12648 H 1192.59 -0.0968698 3.24155 0
M  V30 12649 H 1192.38 1.64924 3.55728 0
M  V30 12650 H 1193.87 0.817874 4.09513 0
M  V30 12651 N 1194.3 -1.0692 1.15784 0
M  V30 12652 C 1195.53 -1.8331 0.959422 0
M  V30 12653 C 1195.95 -1.82268 -0.492332 0
M  V30 12654 O 1195.3 -1.23727 -1.34156 0
M  V30 12655 C 1195.36 -3.30202 1.47135 0
M  V30 12656 O 1195.08 -3.31328 2.86624 0
M  V30 12657 C 1196.58 -4.23346 1.31504 0
M  V30 12658 H 1193.8 -0.578202 0.340475 0
M  V30 12659 H 1196.34 -1.34939 1.53661 0
M  V30 12660 H 1194.5 -3.75908 0.936587 0
M  V30 12661 H 1194.91 -4.23135 3.0993 0
M  V30 12662 H 1196.38 -5.24465 1.72163 0
M  V30 12663 H 1196.86 -4.38431 0.259773 0
M  V30 12664 H 1197.47 -3.8348 1.83911 0
M  V30 12665 N 1195.78 -0.955326 -1.25345 0
M  V30 12666 C 1197.03 -0.609278 -1.92697 0
M  V30 12667 C 1197.35 0.856535 -1.75181 0
M  V30 12668 O 1196.62 1.61013 -1.11587 0
M  V30 12669 H 1195.2 -0.22235 -0.713141 0
M  V30 12670 H 1197.86 -1.21372 -1.52496 0
M  V30 12671 H 1196.96 -0.839198 -3.00606 0
M  V30 12672 N 1197.26 1.39987 -0.723979 0
M  V30 12673 C 1198.49 2.0556 -0.275634 0
M  V30 12674 C 1198.91 1.54207 1.07711 0
M  V30 12675 O 1198.27 0.681041 1.68022 0
M  V30 12676 C 1198.32 3.59551 -0.27485 0
M  V30 12677 O 1197.42 4.05685 0.741182 0
M  V30 12678 H 1196.76 0.651634 -0.12755 0
M  V30 12679 H 1199.29 1.79229 -0.986814 0
M  V30 12680 H 1199.3 4.07837 -0.115425 0
M  V30 12681 H 1197.98 3.96291 -1.26198 0
M  V30 12682 H 1196.55 3.6884 0.548795 0
M  V30 12683 N 1198.74 0.470782 1.50404 0
M  V30 12684 C 1200.16 0.124919 1.5911 0
M  V30 12685 C 1200.36 -1.36855 1.47895 0
M  V30 12686 O 1199.41 -2.1418 1.33728 0
M  V30 12687 C 1200.72 0.674839 2.9303 0
M  V30 12688 C 1202.27 0.638239 3.06424 0
M  V30 12689 C 1202.75 1.1657 4.42917 0
M  V30 12690 N 1204.24 1.1251 4.49328 0
M  V30 12691 C 1204.97 1.50373 5.53331 0
M  V30 12692 N 1204.47 1.95684 6.6459 0
M  V30 12693 N 1206.26 1.41978 5.43874 0
M  V30 12694 H 1198.41 1.44212 1.55938 0
M  V30 12695 H 1200.68 0.596354 0.73693 0
M  V30 12696 H 1200.38 1.72106 3.06712 0
M  V30 12697 H 1200.26 0.118234 3.77015 0
M  V30 12698 H 1202.64 -0.399075 2.92389 0
M  V30 12699 H 1202.72 1.23164 2.24197 0
M  V30 12700 H 1202.37 2.20164 4.57701 0
M  V30 12701 H 1202.3 0.548513 5.23736 0
M  V30 12702 H 1204.79 0.79276 3.69491 0
M  V30 12703 H 1205.1 2.22724 7.40009 0
M  V30 12704 H 1203.45 1.99636 6.65711 0
M  V30 12705 H 1206.64 1.0642 4.55842 0
M  V30 12706 H 1206.81 1.71812 6.24808 0
M  V30 12707 N 1200.22 -1.56282 0.203376 0
M  V30 12708 C 1201.47 -1.96987 -0.433461 0
M  V30 12709 C 1201.78 -1.09344 -1.62183 0
M  V30 12710 O 1202.99 -1.39868 -2.327 0
M  V30 12711 C 1201.44 -3.50374 -0.82257 0
M  V30 12712 C 1201.05 -4.46693 0.341969 0
M  V30 12713 C 1202.79 -3.99831 -1.42603 0
M  V30 12714 C 1200.7 -5.9136 -0.0685608 0
M  V30 12715 H 1199.63 -0.735564 -0.165717 0
M  V30 12716 H 1202.28 -1.81085 0.296708 0
M  V30 12717 H 1200.66 -3.6181 -1.60964 0
M  V30 12718 H 1201.84 -4.46994 1.11952 0
M  V30 12719 H 1200.15 -4.07476 0.857463 0
M  V30 12720 H 1202.75 -5.05398 -1.74577 0
M  V30 12721 H 1203.09 -3.4462 -2.33544 0
M  V30 12722 H 1203.63 -3.91543 -0.702758 0
M  V30 12723 H 1200.36 -6.50515 0.80688 0
M  V30 12724 H 1199.88 -5.94295 -0.810798 0
M  V30 12725 H 1201.56 -6.45053 -0.501525 0
M  V30 12726 N 1201.7 0.070167 -1.57444 0
M  V30 12727 C 1202.94 0.767495 -1.8696 0
M  V30 12728 C 1203.26 1.78032 -0.795595 0
M  V30 12729 O 1202.53 1.95112 0.175566 0
M  V30 12730 H 1201.11 0.286443 -0.689898 0
M  V30 12731 H 1203.78 0.0458692 -1.94846 0
M  V30 12732 H 1202.87 1.28269 -2.84523 0
M  V30 12733 N 1203.17 1.53854 0.341593 0
M  V30 12734 C 1204.42 1.71447 1.08322 0
M  V30 12735 C 1204.75 0.477289 1.88243 0
M  V30 12736 O 1204.03 -0.525695 1.87261 0
M  V30 12737 C 1204.31 2.97917 2.02281 0
M  V30 12738 C 1204.16 4.31847 1.25809 0
M  V30 12739 C 1205.48 3.20065 3.0207 0
M  V30 12740 H 1202.6 0.623847 0.392408 0
M  V30 12741 H 1205.24 1.86527 0.361594 0
M  V30 12742 H 1203.39 2.85191 2.63815 0
M  V30 12743 H 1205.07 4.56427 0.668737 0
M  V30 12744 H 1203.31 4.30169 0.560119 0
M  V30 12745 H 1203.98 5.16522 1.94704 0
M  V30 12746 H 1206.46 3.32135 2.50651 0
M  V30 12747 H 1205.33 4.09947 3.65013 0
M  V30 12748 H 1205.59 2.36452 3.73554 0
M  V30 12749 N 1204.65 -0.602709 1.4562 0
M  V30 12750 C 1205.58 -1.72374 1.5751 0
M  V30 12751 C 1206.56 -1.64669 0.426389 0
M  V30 12752 O 1207.75 -1.82994 0.650143 0
M  V30 12753 C 1204.88 -3.10987 1.5461 0
M  V30 12754 C 1203.83 -3.33507 2.68248 0
M  V30 12755 C 1203.16 -4.72443 2.50403 0
M  V30 12756 C 1204.46 -3.23285 4.10224 0
M  V30 12757 H 1206.15 -1.62679 2.51348 0
M  V30 12758 H 1203.7 -0.781217 1.20967 0
M  V30 12759 H 1205.65 -3.89214 1.61525 0
M  V30 12760 H 1204.37 -3.21533 0.573049 0
M  V30 12761 H 1203.03 -2.57672 2.60769 0
M  V30 12762 H 1202.68 -4.79729 1.51226 0
M  V30 12763 H 1202.38 -4.88466 3.26611 0
M  V30 12764 H 1203.91 -5.52864 2.59179 0
M  V30 12765 H 1205.32 -3.91381 4.1892 0
M  V30 12766 H 1203.72 -3.50837 4.86861 0
M  V30 12767 H 1204.79 -2.20652 4.31788 0
M  V30 12768 N 1206.13 -1.32992 -0.845635 0
M  V30 12769 C 1207.36 -1.27087 -1.63268 0
M  V30 12770 C 1207.77 0.159481 -1.88125 0
M  V30 12771 O 1207.13 1.09948 -1.45663 0
M  V30 12772 C 1207.18 -2.03649 -2.98679 0
M  V30 12773 O 1206.9 -3.41104 -2.74918 0
M  V30 12774 C 1208.4 -2.04875 -3.93117 0
M  V30 12775 H 1205.62 -0.438107 -0.508236 0
M  V30 12776 H 1208.17 -1.75257 -1.05381 0
M  V30 12777 H 1206.32 -1.59178 -3.53187 0
M  V30 12778 H 1206.74 -3.80405 -3.61099 0
M  V30 12779 H 1208.21 -2.62911 -4.85368 0
M  V30 12780 H 1208.69 -1.03728 -4.26775 0
M  V30 12781 H 1209.29 -2.49334 -3.44547 0
M  V30 12782 N 1207.61 1.06304 -1.1635 0
M  V30 12783 C 1208.54 2.13732 -0.827721 0
M  V30 12784 C 1209.55 1.61962 0.164983 0
M  V30 12785 O 1210.74 1.784 -0.0597591 0
M  V30 12786 C 1207.84 3.38239 -0.211623 0
M  V30 12787 C 1207.01 4.19325 -1.2444 0
M  V30 12788 C 1206.07 5.22193 -0.648127 0
M  V30 12789 O 1205.1 5.53755 -1.31695 0
M  V30 12790 N 1206.3 5.77742 0.565179 0
M  V30 12791 H 1209.07 2.43136 -1.75228 0
M  V30 12792 H 1206.63 1.22304 -1.06081 0
M  V30 12793 H 1208.62 4.04204 0.200306 0
M  V30 12794 H 1207.19 3.06461 0.616491 0
M  V30 12795 H 1206.41 3.49017 -1.83251 0
M  V30 12796 H 1207.7 4.70306 -1.94138 0
M  V30 12797 H 1207.1 5.54366 1.12673 0
M  V30 12798 H 1205.65 6.45284 0.919321 0
M  V30 12799 N 1209.09 0.96196 1.24836 0
M  V30 12800 C 1210.03 0.479282 2.27609 0
M  V30 12801 C 1211.03 -0.454224 1.63197 0
M  V30 12802 O 1212.23 -0.330146 1.76946 0
M  V30 12803 H 1208.61 0.13651 0.739506 0
M  V30 12804 H 1210.58 1.35817 2.657 0
M  V30 12805 C 1209.33 -0.220499 3.47 0
M  V30 12806 H 1208.65 0.488694 3.96802 0
M  V30 12807 H 1210.09 -0.522137 4.20773 0
M  V30 12808 C 1208.55 -1.44552 3.04313 0
M  V30 12809 O 1209.08 -2.54287 3.10967 0
M  V30 12810 N 1207.29 -1.3095 2.59423 0
M  V30 12811 H 1206.83 -0.416656 2.54208 0
M  V30 12812 H 1206.79 -2.13029 2.31227 0
M  V30 12813 N 1210.56 -1.39601 0.731392 0
M  V30 12814 C 1211.53 -2.28992 0.0976037 0
M  V30 12815 C 1212.53 -1.46135 -0.670917 0
M  V30 12816 O 1213.72 -1.66856 -0.50047 0
M  V30 12817 C 1210.85 -3.29582 -0.871124 0
M  V30 12818 H 1212.04 -2.86541 0.885112 0
M  V30 12819 H 1209.59 -1.48188 0.497002 0
M  V30 12820 H 1210.33 -2.77082 -1.68512 0
M  V30 12821 H 1210.11 -3.9077 -0.322735 0
M  V30 12822 H 1211.6 -3.96479 -1.31126 0
M  V30 12823 N 1212.04 -0.478751 -1.50152 0
M  V30 12824 C 1213.27 0.0710485 -2.06778 0
M  V30 12825 C 1213.69 1.32826 -1.34174 0
M  V30 12826 O 1213.04 1.77758 -0.413304 0
M  V30 12827 C 1213.09 0.351351 -3.59789 0
M  V30 12828 O 1212.81 -0.855998 -4.29656 0
M  V30 12829 C 1214.32 0.947269 -4.33061 0
M  V30 12830 H 1211.54 -0.0105032 -0.670918 0
M  V30 12831 H 1214.08 -0.669732 -1.93222 0
M  V30 12832 H 1212.23 1.04207 -3.73121 0
M  V30 12833 H 1212.65 -0.605252 -5.20996 0
M  V30 12834 H 1214.12 1.09312 -5.41068 0
M  V30 12835 H 1214.6 1.93937 -3.94062 0
M  V30 12836 H 1215.21 0.294693 -4.24278 0
M  V30 12837 N 1213.52 1.56172 -0.211661 0
M  V30 12838 C 1214.47 2.21206 0.719063 0
M  V30 12839 C 1215.46 1.18835 1.20725 0
M  V30 12840 O 1216.67 1.36939 1.16823 0
M  V30 12841 H 1213.04 0.709129 0.250279 0
M  V30 12842 H 1215.01 2.98038 0.147022 0
M  V30 12843 C 1213.76 2.89826 1.92084 0
M  V30 12844 H 1213.09 3.68351 1.55428 0
M  V30 12845 H 1214.53 3.38744 2.55006 0
M  V30 12846 C 1212.99 1.91756 2.77004 0
M  V30 12847 O 1213.52 1.42826 3.75451 0
M  V30 12848 N 1211.72 1.59622 2.42836 0
M  V30 12849 H 1211.27 1.99606 1.62835 0
M  V30 12850 H 1211.23 0.942641 2.99936 0
M  V30 12851 N 1215 -0.0618163 1.57479 0
M  V30 12852 C 1215.93 -1.10452 1.99689 0
M  V30 12853 C 1216.91 -1.37019 0.875473 0
M  V30 12854 O 1218.09 -1.50226 1.13862 0
M  V30 12855 C 1215.22 -2.44669 2.34211 0
M  V30 12856 C 1214.27 -2.34172 3.56463 0
M  V30 12857 S 1215.1 -1.7263 5.06911 0
M  V30 12858 C 1216.26 -3.08405 5.44644 0
M  V30 12859 H 1216.49 -0.744843 2.87818 0
M  V30 12860 H 1214.02 -0.270698 1.52008 0
M  V30 12861 H 1215.98 -3.2187 2.54774 0
M  V30 12862 H 1214.64 -2.77794 1.46592 0
M  V30 12863 H 1213.83 -3.33175 3.78167 0
M  V30 12864 H 1213.44 -1.65109 3.35582 0
M  V30 12865 H 1215.73 -4.04727 5.43325 0
M  V30 12866 H 1216.67 -2.9147 6.4533 0
M  V30 12867 H 1217.08 -3.0947 4.72111 0
M  V30 12868 N 1216.48 -1.54033 -0.333429 0
M  V30 12869 C 1217.72 -1.71426 -1.0704 0
M  V30 12870 C 1218.05 -0.485496 -1.8886 0
M  V30 12871 O 1217.32 0.500555 -1.89397 0
M  V30 12872 H 1215.9 -0.632034 -0.398173 0
M  V30 12873 H 1218.56 -1.91312 -0.372252 0
M  V30 12874 H 1217.65 -2.58958 -1.74205 0
M  V30 12875 N 1217.95 0.594978 -1.45938 0
M  V30 12876 C 1218.88 1.71536 -1.58422 0
M  V30 12877 C 1219.87 1.64441 -0.435116 0
M  V30 12878 O 1221.05 1.82647 -0.659839 0
M  V30 12879 C 1218.18 3.10163 -1.56257 0
M  V30 12880 C 1217.13 3.3208 -2.70013 0
M  V30 12881 C 1216.46 4.71108 -2.52905 0
M  V30 12882 C 1217.76 3.21105 -4.11933 0
M  V30 12883 H 1219.45 1.61344 -2.52207 0
M  V30 12884 H 1217 0.774791 -1.2138 0
M  V30 12885 H 1218.95 3.88352 -1.63587 0
M  V30 12886 H 1217.68 3.21225 -0.590093 0
M  V30 12887 H 1216.34 2.56286 -2.62132 0
M  V30 12888 H 1215.98 4.7892 -1.53768 0
M  V30 12889 H 1215.68 4.86727 -3.29197 0
M  V30 12890 H 1217.21 5.51482 -2.62107 0
M  V30 12891 H 1218.62 3.89153 -4.2099 0
M  V30 12892 H 1217.02 3.4825 -4.88715 0
M  V30 12893 H 1218.09 2.18359 -4.32952 0
M  V30 12894 N 1219.43 1.33438 0.838571 0
M  V30 12895 C 1220.66 1.28097 1.63113 0
M  V30 12896 C 1221.08 -0.145197 1.87539 0
M  V30 12897 O 1220.44 -1.10191 1.43971 0
M  V30 12898 C 1220.49 2.06201 2.95827 0
M  V30 12899 O 1219.59 1.42082 3.87152 0
M  V30 12900 H 1218.93 0.440685 0.496681 0
M  V30 12901 H 1221.46 1.76004 1.04325 0
M  V30 12902 H 1221.47 2.16977 3.45521 0
M  V30 12903 H 1220.15 3.099 2.77371 0
M  V30 12904 H 1218.73 1.39953 3.45641 0
M  V30 12905 N 1220.91 -1.05686 1.16912 0
M  V30 12906 C 1222.16 -1.78862 0.955839 0
M  V30 12907 C 1222.49 -1.87257 -0.514645 0
M  V30 12908 O 1221.76 -1.36869 -1.38193 0
M  V30 12909 C 1222.05 -3.23021 1.59152 0
M  V30 12910 C 1221.9 -3.22669 3.13376 0
M  V30 12911 C 1223.22 -4.2073 1.29128 0
M  V30 12912 H 1220.34 -0.64931 0.348663 0
M  V30 12913 H 1222.98 -1.23561 1.44335 0
M  V30 12914 H 1221.13 -3.70243 1.17697 0
M  V30 12915 H 1222.8 -2.83562 3.63855 0
M  V30 12916 H 1221.05 -2.61149 3.46386 0
M  V30 12917 H 1221.72 -4.24394 3.52979 0
M  V30 12918 H 1224.19 -3.8198 1.65017 0
M  V30 12919 H 1223.07 -5.19851 1.76198 0
M  V30 12920 H 1223.33 -4.41595 0.21119 0
M  V30 12921 N 1222.39 -0.968567 -1.24324 0
M  V30 12922 C 1223.64 -0.626519 -1.91723 0
M  V30 12923 C 1223.95 0.84225 -1.76538 0
M  V30 12924 O 1225.16 1.29486 -2.38633 0
M  V30 12925 C 1223.61 -1.06992 -3.43629 0
M  V30 12926 C 1223.22 -2.5622 -3.67499 0
M  V30 12927 C 1224.96 -0.801057 -4.16873 0
M  V30 12928 C 1222.87 -2.94288 -5.1298 0
M  V30 12929 H 1221.8 -0.23062 -0.717865 0
M  V30 12930 H 1224.45 -1.17489 -1.40956 0
M  V30 12931 H 1222.83 -0.44985 -3.93437 0
M  V30 12932 H 1224.01 -3.23364 -3.28287 0
M  V30 12933 H 1222.32 -2.80726 -3.07542 0
M  V30 12934 H 1224.92 -1.06147 -5.24058 0
M  V30 12935 H 1225.26 0.262742 -4.1547 0
M  V30 12936 H 1225.8 -1.38213 -3.73017 0
M  V30 12937 H 1222.54 -3.99743 -5.19506 0
M  V30 12938 H 1222.06 -2.31829 -5.53187 0
M  V30 12939 H 1223.73 -2.84242 -5.81219 0
M  V30 12940 N 1223.87 1.39211 -0.738786 0
M  V30 12941 C 1225.12 1.99673 -0.285254 0
M  V30 12942 C 1225.43 1.59297 1.13507 0
M  V30 12943 O 1226.63 2.12622 1.68832 0
M  V30 12944 C 1225.09 3.5696 -0.45906 0
M  V30 12945 C 1224.7 4.06297 -1.88751 0
M  V30 12946 C 1226.44 4.24446 -0.0674954 0
M  V30 12947 C 1224.35 5.56171 -2.01067 0
M  V30 12948 H 1223.28 0.746945 -0.102901 0
M  V30 12949 H 1225.93 1.59163 -0.913209 0
M  V30 12950 H 1224.31 3.95285 0.23785 0
M  V30 12951 H 1225.49 3.79297 -2.61669 0
M  V30 12952 H 1223.8 3.51486 -2.23264 0
M  V30 12953 H 1226.4 5.34521 -0.138475 0
M  V30 12954 H 1226.74 4.04653 0.977823 0
M  V30 12955 H 1227.27 3.91309 -0.715704 0
M  V30 12956 H 1224.01 5.80849 -3.03801 0
M  V30 12957 H 1223.53 5.84961 -1.32591 0
M  V30 12958 H 1225.21 6.21642 -1.79362 0
M  V30 12959 N 1225.34 0.486708 1.49896 0
M  V30 12960 C 1226.57 -0.0622999 2.07306 0
M  V30 12961 C 1226.99 -1.31353 1.3464 0
M  V30 12962 O 1226.35 -1.76861 0.398752 0
M  V30 12963 C 1226.4 -0.313481 3.59235 0
M  V30 12964 O 1225.5 -1.39101 3.88233 0
M  V30 12965 H 1224.85 0.0198885 0.663702 0
M  V30 12966 H 1227.38 0.682232 1.92891 0
M  V30 12967 H 1227.39 -0.549302 4.04285 0
M  V30 12968 H 1226.06 0.600767 4.11538 0
M  V30 12969 H 1224.64 -1.14127 3.55006 0
M  V30 12970 N 1226.82 -1.56058 0.219941 0
M  V30 12971 C 1228.07 -1.9826 -0.412197 0
M  V30 12972 C 1228.4 -1.10754 -1.59887 0
M  V30 12973 O 1227.65 -0.15212 -1.95108 0
M  V30 12974 C 1227.95 -3.46113 -0.8911 0
M  V30 12975 C 1227.62 -4.50521 0.184877 0
M  V30 12976 C 1226.28 -4.78795 0.480462 0
M  V30 12977 C 1228.63 -5.13147 0.912652 0
M  V30 12978 C 1225.96 -5.66979 1.50837 0
M  V30 12979 C 1228.31 -6.02444 1.92988 0
M  V30 12980 C 1226.98 -6.29063 2.2324 0
M  V30 12981 H 1226.25 -0.725486 -0.150834 0
M  V30 12982 H 1228.89 -1.88771 0.322122 0
M  V30 12983 H 1227.2 -3.52797 -1.70415 0
M  V30 12984 H 1228.9 -3.76137 -1.39003 0
M  V30 12985 H 1225.49 -4.28564 -0.0556594 0
M  V30 12986 H 1229.67 -4.91374 0.697532 0
M  V30 12987 H 1224.93 -5.85868 1.74839 0
M  V30 12988 H 1229.1 -6.50022 2.49889 0
M  V30 12989 H 1226.73 -6.97191 3.03032 0
M  V30 12990 N 1228.3 0.053464 -1.57509 0
M  V30 12991 C 1229.55 0.748016 -1.87317 0
M  V30 12992 C 1229.86 1.77805 -0.815161 0
M  V30 12993 O 1231.07 2.52347 -1.00167 0
M  V30 12994 C 1229.53 1.38137 -3.32334 0
M  V30 12995 C 1229.13 0.388958 -4.46308 0
M  V30 12996 C 1230.88 2.05722 -3.7132 0
M  V30 12997 C 1228.78 1.02927 -5.82374 0
M  V30 12998 H 1227.71 0.283123 -0.698826 0
M  V30 12999 H 1230.37 0.00170723 -1.835 0
M  V30 13000 H 1228.75 2.17656 -3.3082 0
M  V30 13001 H 1229.92 -0.377752 -4.59249 0
M  V30 13002 H 1228.24 -0.183447 -4.15996 0
M  V30 13003 H 1230.83 2.54437 -4.70283 0
M  V30 13004 H 1231.18 2.86475 -3.02056 0
M  V30 13005 H 1231.71 1.3301 -3.74904 0
M  V30 13006 H 1228.45 0.261674 -6.54977 0
M  V30 13007 H 1227.97 1.7664 -5.732 0
M  V30 13008 H 1229.65 1.54378 -6.28312 0
M  V30 13009 N 1229.78 1.54207 0.325255 0
M  V30 13010 C 1231.01 1.76037 1.08141 0
M  V30 13011 C 1231.42 0.50816 1.82248 0
M  V30 13012 O 1230.76 -0.530709 1.75867 0
M  V30 13013 C 1230.82 2.89876 2.12632 0
M  V30 13014 C 1230.49 4.28841 1.57937 0
M  V30 13015 C 1231.48 5.09755 1.02205 0
M  V30 13016 C 1229.17 4.7538 1.62232 0
M  V30 13017 C 1231.16 6.35317 0.514929 0
M  V30 13018 C 1228.85 6.0091 1.11132 0
M  V30 13019 C 1229.85 6.80712 0.558575 0
M  V30 13020 O 1229.54 8.03881 0.05526 0
M  V30 13021 H 1229.27 0.591332 0.327571 0
M  V30 13022 H 1231.82 2.019 0.377572 0
M  V30 13023 H 1230.05 2.59581 2.86627 0
M  V30 13024 H 1231.74 2.99505 2.73955 0
M  V30 13025 H 1232.51 4.74955 0.981954 0
M  V30 13026 H 1228.39 4.1331 2.04195 0
M  V30 13027 H 1231.93 6.97551 0.0828314 0
M  V30 13028 H 1227.83 6.35201 1.14848 0
M  V30 13029 H 1228.59 8.18322 0.170842 0
M  V30 13030 N 1231.26 -0.58723 1.46251 0
M  V30 13031 C 1232.51 -1.34294 1.51028 0
M  V30 13032 C 1232.83 -1.94329 0.161623 0
M  V30 13033 O 1232.1 -1.78309 -0.811342 0
M  V30 13034 H 1230.68 -0.498607 0.556238 0
M  V30 13035 H 1233.34 -0.688074 1.8235 0
M  V30 13036 H 1232.43 -2.15197 2.26045 0
M  V30 13037 N 1232.74 -1.33881 -0.831482 0
M  V30 13038 C 1233.98 -1.26951 -1.58918 0
M  V30 13039 C 1234.34 0.161359 -1.91722 0
M  V30 13040 O 1233.63 1.1054 -1.56498 0
M  V30 13041 C 1233.82 -2.08544 -2.90249 0
M  V30 13042 C 1233.65 -3.5942 -2.70273 0
M  V30 13043 C 1232.42 -4.28718 -2.67449 0
M  V30 13044 C 1234.62 -4.53599 -2.42388 0
M  V30 13045 N 1232.6 -5.65496 -2.38929 0
M  V30 13046 C 1233.97 -5.7832 -2.23485 0
M  V30 13047 C 1236.03 -4.42605 -2.28046 0
M  V30 13048 C 1234.73 -6.93286 -1.91695 0
M  V30 13049 C 1236.76 -5.57395 -1.97649 0
M  V30 13050 C 1236.12 -6.81129 -1.79563 0
M  V30 13051 H 1232.22 -0.519762 -0.58427 0
M  V30 13052 H 1234.8 -1.68502 -0.97546 0
M  V30 13053 H 1232.97 -1.69302 -3.49559 0
M  V30 13054 H 1234.71 -1.93325 -3.55538 0
M  V30 13055 H 1231.46 -3.81068 -2.81219 0
M  V30 13056 H 1231.88 -6.37619 -2.27532 0
M  V30 13057 H 1236.53 -3.47571 -2.40737 0
M  V30 13058 H 1234.24 -7.88311 -1.7774 0
M  V30 13059 H 1237.83 -5.50828 -1.87296 0
M  V30 13060 H 1236.71 -7.68449 -1.56382 0
M  V30 13061 N 1234.21 1.05064 -1.1747 0
M  V30 13062 C 1235.12 2.16346 -0.907286 0
M  V30 13063 C 1236.14 1.7355 0.125013 0
M  V30 13064 O 1237.32 2.01326 -0.0545551 0
M  V30 13065 C 1234.38 3.44077 -0.425681 0
M  V30 13066 C 1233.44 4.01311 -1.52473 0
M  V30 13067 C 1232.67 5.22946 -1.06601 0
M  V30 13068 O 1232.9 5.70345 0.0793329 0
M  V30 13069 O 1231.83 5.72454 -1.85958 0
M  V30 13070 H 1235.66 2.41754 -1.83817 0
M  V30 13071 H 1233.24 1.14834 -0.955693 0
M  V30 13072 H 1235.12 4.21078 -0.164689 0
M  V30 13073 H 1233.8 3.20166 0.477037 0
M  V30 13074 H 1232.71 3.25744 -1.83961 0
M  V30 13075 H 1234.04 4.29543 -2.4032 0
M  V30 13076 N 1235.69 0.975146 1.23809 0
M  V30 13077 C 1236.62 0.45593 2.23599 0
M  V30 13078 C 1237.6 -0.474069 1.55536 0
M  V30 13079 O 1238.79 -0.40373 1.84126 0
M  V30 13080 C 1235.91 -0.341008 3.36979 0
M  V30 13081 C 1234.96 0.532362 4.23164 0
M  V30 13082 S 1235.79 1.97706 4.97667 0
M  V30 13083 C 1236.95 1.18912 6.145 0
M  V30 13084 H 1237.18 1.30157 2.67295 0
M  V30 13085 H 1234.71 0.78074 1.33206 0
M  V30 13086 H 1236.67 -0.794817 4.02732 0
M  V30 13087 H 1235.33 -1.16171 2.91827 0
M  V30 13088 H 1234.53 -0.0798928 5.03937 0
M  V30 13089 H 1234.13 0.922202 3.62452 0
M  V30 13090 H 1236.42 0.447823 6.76018 0
M  V30 13091 H 1237.36 1.97148 6.80102 0
M  V30 13092 H 1237.77 0.710216 5.60014 0
M  V30 13093 N 1237.17 -1.38817 0.746158 0
M  V30 13094 C 1238.4 -2.0457 0.309605 0
M  V30 13095 C 1238.81 -1.5627 -1.05948 0
M  V30 13096 O 1238.17 -0.73248 -1.67156 0
M  V30 13097 C 1238.22 -3.60126 0.314843 0
M  V30 13098 O 1237.94 -4.06652 1.6299 0
M  V30 13099 C 1239.44 -4.4309 -0.136497 0
M  V30 13100 H 1236.66 -0.657597 0.133441 0
M  V30 13101 H 1239.21 -1.77651 1.01293 0
M  V30 13102 H 1237.36 -3.85908 -0.339685 0
M  V30 13103 H 1237.78 -5.01042 1.55103 0
M  V30 13104 H 1239.25 -5.5194 -0.0816714 0
M  V30 13105 H 1239.73 -4.22959 -1.18332 0
M  V30 13106 H 1240.33 -4.22481 0.488879 0
M  V30 13107 N 1238.65 -0.49465 -1.49636 0
M  V30 13108 C 1239.89 0.0521172 -2.02433 0
M  V30 13109 C 1240.22 1.37579 -1.37485 0
M  V30 13110 O 1239.48 1.8927 -0.497538 0
M  V30 13111 C 1239.78 0.259743 -3.56455 0
M  V30 13112 C 1239.44 -0.985143 -4.40007 0
M  V30 13113 C 1238.1 -1.3264 -4.62558 0
M  V30 13114 C 1240.46 -1.81291 -4.88654 0
M  V30 13115 C 1237.78 -2.49506 -5.31003 0
M  V30 13116 C 1240.14 -2.97305 -5.58384 0
M  V30 13117 C 1238.8 -3.31818 -5.79183 0
M  V30 13118 H 1238.07 0.0190711 -0.740755 0
M  V30 13119 H 1240.72 -0.653519 -1.80004 0
M  V30 13120 H 1239.02 1.04785 -3.77528 0
M  V30 13121 H 1240.72 0.697146 -3.94893 0
M  V30 13122 H 1237.31 -0.709313 -4.2269 0
M  V30 13123 H 1241.49 -1.56242 -4.71065 0
M  V30 13124 H 1236.75 -2.76491 -5.4531 0
M  V30 13125 H 1240.92 -3.61777 -5.95055 0
M  V30 13126 H 1238.55 -4.22478 -6.31994 0
M  V30 13127 N 1240.13 1.55939 -0.228214 0
M  V30 13128 C 1241.06 2.2357 0.6737 0
M  V30 13129 C 1242.04 1.20964 1.1959 0
M  V30 13130 O 1243.22 1.49568 1.23867 0
M  V30 13131 C 1240.35 2.92076 1.87906 0
M  V30 13132 C 1239.31 4.01211 1.49043 0
M  V30 13133 C 1238.63 4.57047 2.77511 0
M  V30 13134 C 1239.93 5.17914 0.67544 0
M  V30 13135 H 1241.63 2.99199 0.109806 0
M  V30 13136 H 1239.17 1.43908 0.0513732 0
M  V30 13137 H 1241.12 3.38083 2.51551 0
M  V30 13138 H 1239.85 2.13906 2.46803 0
M  V30 13139 H 1238.51 3.55945 0.877411 0
M  V30 13140 H 1238.16 3.75599 3.34566 0
M  V30 13141 H 1237.86 5.30707 2.52239 0
M  V30 13142 H 1239.38 5.05776 3.42087 0
M  V30 13143 H 1240.79 5.60261 1.21575 0
M  V30 13144 H 1239.19 5.97847 0.519536 0
M  V30 13145 H 1240.26 4.83866 -0.316495 0
M  V30 13146 N 1241.6 -0.0451101 1.57535 0
M  V30 13147 C 1242.85 -0.738072 1.87711 0
M  V30 13148 C 1243.17 -1.7737 0.824579 0
M  V30 13149 O 1244.37 -2.51812 1.01503 0
M  V30 13150 C 1242.83 -1.36373 3.33062 0
M  V30 13151 C 1242.44 -0.365283 4.46508 0
M  V30 13152 C 1244.18 -2.0375 3.72406 0
M  V30 13153 C 1242.09 -0.998371 5.82912 0
M  V30 13154 H 1241.02 -0.279413 0.700317 0
M  V30 13155 H 1243.67 0.00802425 1.83498 0
M  V30 13156 H 1242.05 -2.15899 3.31969 0
M  V30 13157 H 1243.22 0.402102 4.59042 0
M  V30 13158 H 1241.54 0.205505 4.15893 0
M  V30 13159 H 1244.14 -2.51939 4.71625 0
M  V30 13160 H 1244.48 -2.84869 3.03571 0
M  V30 13161 H 1245.01 -1.3102 3.75604 0
M  V30 13162 H 1241.75 -0.226935 6.55107 0
M  V30 13163 H 1241.27 -1.73598 5.74129 0
M  V30 13164 H 1242.95 -1.51044 6.29122 0
M  V30 13165 N 1243.08 -1.54377 -0.317073 0
M  V30 13166 C 1244.01 -1.8721 -1.39552 0
M  V30 13167 C 1244.99 -0.729483 -1.53664 0
M  V30 13168 O 1246.18 -0.983799 -1.67437 0
M  V30 13169 C 1243.31 -2.1052 -2.76222 0
M  V30 13170 C 1242.26 -3.26366 -2.76892 0
M  V30 13171 C 1241.59 -3.35061 -4.16699 0
M  V30 13172 C 1242.89 -4.63862 -2.40061 0
M  V30 13173 H 1244.58 -2.77532 -1.12323 0
M  V30 13174 H 1242.13 -1.33536 -0.538897 0
M  V30 13175 H 1244.08 -2.32073 -3.51739 0
M  V30 13176 H 1242.81 -1.16953 -3.04942 0
M  V30 13177 H 1241.46 -3.0471 -2.03831 0
M  V30 13178 H 1241.11 -2.39041 -4.4257 0
M  V30 13179 H 1240.81 -4.12923 -4.18053 0
M  V30 13180 H 1242.34 -3.58856 -4.94019 0
M  V30 13181 H 1243.75 -4.85252 -3.05292 0
M  V30 13182 H 1242.15 -5.44321 -2.52655 0
M  V30 13183 H 1243.22 -4.6567 -1.35202 0
M  V30 13184 N 1244.56 0.579466 -1.4656 0
M  V30 13185 C 1245.79 1.36837 -1.55854 0
M  V30 13186 C 1246.21 1.87019 -0.20141 0
M  V30 13187 O 1245.57 1.61746 0.81901 0
M  V30 13188 C 1245.62 2.52965 -2.56985 0
M  V30 13189 O 1244.72 3.54505 -2.10713 0
M  V30 13190 H 1244.06 0.407379 -0.524345 0
M  V30 13191 H 1246.59 0.702558 -1.9216 0
M  V30 13192 H 1246.6 2.99838 -2.76697 0
M  V30 13193 H 1245.28 2.15793 -3.55536 0
M  V30 13194 H 1243.85 3.14089 -2.01003 0
M  V30 13195 N 1246.04 1.3432 0.824371 0
M  V30 13196 C 1247.29 1.25938 1.57552 0
M  V30 13197 C 1247.6 -0.169298 1.94866 0
M  V30 13198 O 1248.81 -0.375262 2.68894 0
M  V30 13199 C 1247.26 2.20757 2.84244 0
M  V30 13200 C 1246.87 3.68873 2.54237 0
M  V30 13201 C 1248.61 2.21279 3.62265 0
M  V30 13202 C 1246.52 4.55566 3.77113 0
M  V30 13203 H 1245.45 0.467832 0.591311 0
M  V30 13204 H 1248.1 1.59476 0.907724 0
M  V30 13205 H 1246.48 1.80168 3.52641 0
M  V30 13206 H 1247.66 4.17991 1.93959 0
M  V30 13207 H 1245.97 3.70784 1.89494 0
M  V30 13208 H 1248.57 2.83272 4.53499 0
M  V30 13209 H 1248.91 1.2117 3.98276 0
M  V30 13210 H 1249.45 2.60305 3.00809 0
M  V30 13211 H 1246.19 5.56605 3.46223 0
M  V30 13212 H 1245.71 4.11184 4.36678 0
M  V30 13213 H 1247.38 4.701 4.44539 0
M  V30 13214 N 1247.52 -1.0444 1.18026 0
M  V30 13215 C 1248.48 -2.10532 0.906028 0
M  V30 13216 C 1249.48 -1.60443 -0.107022 0
M  V30 13217 O 1250.67 -1.73744 0.126001 0
M  V30 13218 C 1247.8 -3.39008 0.358625 0
M  V30 13219 H 1248.99 -2.36293 1.84677 0
M  V30 13220 H 1246.55 -1.20805 0.991763 0
M  V30 13221 H 1247.28 -3.18908 -0.588904 0
M  V30 13222 H 1247.07 -3.76678 1.08884 0
M  V30 13223 H 1248.56 -4.17189 0.185331 0
M  V30 13224 N 1248.99 -0.981699 -1.2329 0
M  V30 13225 C 1250.41 -0.688087 -1.73558 0
M  V30 13226 C 1250.76 0.795633 -1.79344 0
M  V30 13227 O 1249.88 1.62227 -1.43218 0
M  V30 13228 C 1250.48 -1.24235 -3.152 0
M  V30 13229 C 1249.04 -0.998356 -3.62918 0
M  V30 13230 C 1248.18 -1.3693 -2.41134 0
M  V30 13231 H 1251.13 -1.15539 -1.08795 0
M  V30 13232 H 1251.15 -0.61541 -3.7549 0
M  V30 13233 H 1250.67 -2.32223 -3.10957 0
M  V30 13234 H 1248.77 0.0653847 -3.72543 0
M  V30 13235 H 1248.88 -1.65385 -4.49649 0
M  V30 13236 H 1247.24 -0.787773 -2.42211 0
M  V30 13237 H 1248.03 -2.45898 -2.39561 0
M  V30 13238 N 1250.47 1.3842 -0.753509 0
M  V30 13239 C 1251.72 2.00415 -0.310091 0
M  V30 13240 C 1252.05 1.59675 1.10532 0
M  V30 13241 O 1251.33 0.834261 1.757 0
M  V30 13242 C 1251.61 3.57488 -0.432897 0
M  V30 13243 C 1251.46 4.08193 -1.88941 0
M  V30 13244 C 1252.78 4.39757 0.173763 0
M  V30 13245 H 1249.9 0.728107 -0.114147 0
M  V30 13246 H 1252.54 1.64363 -0.953138 0
M  V30 13247 H 1250.69 3.88331 0.114563 0
M  V30 13248 H 1252.36 3.87993 -2.49517 0
M  V30 13249 H 1250.61 3.61063 -2.4045 0
M  V30 13250 H 1251.28 5.17291 -1.9265 0
M  V30 13251 H 1253.75 4.15066 -0.293137 0
M  V30 13252 H 1252.63 5.4887 0.057594 0
M  V30 13253 H 1252.89 4.23704 1.26205 0
M  V30 13254 N 1251.95 0.502579 1.49372 0
M  V30 13255 C 1252.88 -0.264307 2.31999 0
M  V30 13256 C 1253.86 -0.96107 1.40348 0
M  V30 13257 O 1255.05 -0.952167 1.69255 0
M  V30 13258 C 1252.18 -1.32822 3.20898 0
M  V30 13259 C 1251.13 -0.751236 4.21355 0
M  V30 13260 C 1250.46 -1.91578 4.99201 0
M  V30 13261 C 1251.76 0.258764 5.21659 0
M  V30 13262 H 1253.45 0.425391 2.96363 0
M  V30 13263 H 1251 0.206022 1.42519 0
M  V30 13264 H 1252.95 -1.87245 3.77515 0
M  V30 13265 H 1251.67 -2.04712 2.54481 0
M  V30 13266 H 1250.33 -0.228743 3.65886 0
M  V30 13267 H 1249.98 -2.62241 4.2923 0
M  V30 13268 H 1249.68 -1.53578 5.67175 0
M  V30 13269 H 1251.2 -2.46432 5.58663 0
M  V30 13270 H 1252.62 -0.197385 5.7296 0
M  V30 13271 H 1251.02 0.554681 5.97531 0
M  V30 13272 H 1252.09 1.1741 4.70471 0
M  V30 13273 N 1253.43 -1.55816 0.23648 0
M  V30 13274 C 1254.39 -2.1967 -0.654041 0
M  V30 13275 C 1255.39 -1.1629 -1.11056 0
M  V30 13276 O 1256.58 -1.41435 -1.01695 0
M  V30 13277 C 1253.71 -2.83196 -1.89771 0
M  V30 13278 H 1254.91 -2.99743 -0.0970911 0
M  V30 13279 H 1252.46 -1.56295 -0.013098 0
M  V30 13280 H 1253.19 -2.07033 -2.49616 0
M  V30 13281 H 1252.98 -3.58915 -1.57868 0
M  V30 13282 H 1254.47 -3.32095 -2.53184 0
M  V30 13283 N 1254.91 0.036755 -1.57557 0
M  V30 13284 C 1256.15 0.730186 -1.89199 0
M  V30 13285 C 1256.49 1.75414 -0.833271 0
M  V30 13286 O 1255.76 1.93901 0.152579 0
M  V30 13287 C 1256.04 1.40669 -3.31488 0
M  V30 13288 C 1255.9 0.396764 -4.48047 0
M  V30 13289 C 1257.22 2.34268 -3.72567 0
M  V30 13290 H 1254.33 0.263983 -0.6881 0
M  V30 13291 H 1256.98 -0.0069847 -1.89999 0
M  V30 13292 H 1255.13 2.03502 -3.30937 0
M  V30 13293 H 1256.8 -0.229062 -4.60731 0
M  V30 13294 H 1255.04 -0.284698 -4.32865 0
M  V30 13295 H 1255.71 0.908436 -5.44474 0
M  V30 13296 H 1258.19 1.81485 -3.74436 0
M  V30 13297 H 1257.06 2.78587 -4.72949 0
M  V30 13298 H 1257.33 3.20611 -3.04403 0
M  V30 13299 N 1256.39 1.54543 0.308881 0
M  V30 13300 C 1257.61 1.77431 1.06422 0
M  V30 13301 C 1258.03 0.529972 1.81209 0
M  V30 13302 O 1257.39 -0.499912 1.7552 0
M  V30 13303 C 1257.44 2.9769 2.05092 0
M  V30 13304 O 1257.16 4.17315 1.33341 0
M  V30 13305 C 1258.66 3.32905 2.92727 0
M  V30 13306 H 1255.88 0.591961 0.315948 0
M  V30 13307 H 1258.42 2.01473 0.350547 0
M  V30 13308 H 1256.58 2.7588 2.71973 0
M  V30 13309 H 1256.99 4.85061 1.99539 0
M  V30 13310 H 1258.47 4.20314 3.57827 0
M  V30 13311 H 1258.94 2.50713 3.6061 0
M  V30 13312 H 1259.55 3.56847 2.31388 0
M  V30 13313 N 1257.86 -0.571685 1.46866 0
M  V30 13314 C 1259.11 -1.32685 1.52444 0
M  V30 13315 C 1259.43 -1.94147 0.182225 0
M  V30 13316 O 1258.7 -1.79159 -0.792385 0
M  V30 13317 H 1257.28 -0.492679 0.561495 0
M  V30 13318 H 1259.94 -0.668694 1.8307 0
M  V30 13319 H 1259.04 -2.12788 2.28315 0
M  V30 13320 N 1259.34 -1.34755 -0.817236 0
M  V30 13321 C 1260.27 -1.21147 -1.93387 0
M  V30 13322 C 1261.25 -0.101788 -1.62281 0
M  V30 13323 O 1262.44 -0.267968 -1.86586 0
M  V30 13324 C 1259.56 -0.86301 -3.27521 0
M  V30 13325 C 1258.61 -1.98325 -3.77584 0
M  V30 13326 S 1259.44 -3.59751 -3.9666 0
M  V30 13327 C 1260.6 -3.26959 -5.33712 0
M  V30 13328 H 1260.83 -2.15667 -2.04634 0
M  V30 13329 H 1258.36 -1.19848 -0.973441 0
M  V30 13330 H 1260.32 -0.668754 -4.05016 0
M  V30 13331 H 1258.98 0.0639417 -3.14035 0
M  V30 13332 H 1258.18 -1.69332 -4.74703 0
M  V30 13333 H 1257.78 -2.13529 -3.07053 0
M  V30 13334 H 1260.07 -2.79126 -6.17329 0
M  V30 13335 H 1261.01 -4.23238 -5.67693 0
M  V30 13336 H 1261.42 -2.62996 -4.99493 0
M  V30 13337 N 1260.82 1.03812 -1.18578 0
M  V30 13338 C 1262.07 1.76455 -0.977071 0
M  V30 13339 C 1262.38 1.8926 0.493964 0
M  V30 13340 O 1263.59 2.58781 0.821256 0
M  V30 13341 C 1262.04 3.17264 -1.69917 0
M  V30 13342 C 1261.65 3.12543 -3.20969 0
M  V30 13343 C 1263.4 3.94266 -1.57337 0
M  V30 13344 C 1261.3 4.48226 -3.85807 0
M  V30 13345 H 1260.23 0.661445 -0.361949 0
M  V30 13346 H 1262.88 1.16252 -1.41978 0
M  V30 13347 H 1261.27 3.77878 -1.18424 0
M  V30 13348 H 1262.44 2.61364 -3.79507 0
M  V30 13349 H 1260.75 2.49039 -3.33719 0
M  V30 13350 H 1263.35 4.9461 -2.03137 0
M  V30 13351 H 1263.69 4.12963 -0.526033 0
M  V30 13352 H 1264.23 3.40232 -2.06124 0
M  V30 13353 H 1260.97 4.34734 -4.90599 0
M  V30 13354 H 1260.49 4.99497 -3.32058 0
M  V30 13355 H 1262.17 5.17135 -3.88819 0
M  V30 13356 N 1262.3 0.988223 1.22768 0
M  V30 13357 C 1263.21 0.543407 2.2822 0
M  V30 13358 C 1264.22 -0.405563 1.69208 0
M  V30 13359 O 1265.4 -0.273551 1.99534 0
M  V30 13360 C 1262.46 -0.139495 3.46419 0
M  V30 13361 C 1261.53 0.851853 4.20764 0
M  V30 13362 C 1260.76 0.201446 5.3332 0
M  V30 13363 O 1260.98 -1.00573 5.61464 0
M  V30 13364 O 1259.92 0.903956 5.95073 0
M  V30 13365 H 1263.74 1.42059 2.68427 0
M  V30 13366 H 1261.33 0.756239 1.28846 0
M  V30 13367 H 1263.21 -0.522226 4.18152 0
M  V30 13368 H 1261.88 -0.991315 3.08147 0
M  V30 13369 H 1260.79 1.28543 3.51322 0
M  V30 13370 H 1262.12 1.67273 4.62905 0
M  V30 13371 N 1263.78 -1.38018 0.760839 0
M  V30 13372 C 1265 -2.04231 0.331285 0
M  V30 13373 C 1265.42 -1.57385 -1.04285 0
M  V30 13374 O 1264.78 -0.750168 -1.66369 0
M  V30 13375 C 1264.83 -3.59772 0.353021 0
M  V30 13376 O 1264.55 -4.049 1.67294 0
M  V30 13377 C 1266.05 -4.4321 -0.0894942 0
M  V30 13378 H 1263.27 -0.656145 0.140408 0
M  V30 13379 H 1265.81 -1.76567 1.03172 0
M  V30 13380 H 1263.97 -3.86246 -0.298735 0
M  V30 13381 H 1264.38 -4.99369 1.60408 0
M  V30 13382 H 1265.86 -5.51995 -0.0231262 0
M  V30 13383 H 1266.33 -4.2419 -1.13839 0
M  V30 13384 H 1266.94 -4.21939 0.533661 0
M  V30 13385 N 1265.25 -0.510493 -1.49103 0
M  V30 13386 C 1266.22 0.251915 -2.27811 0
M  V30 13387 C 1267.22 0.885432 -1.34226 0
M  V30 13388 O 1268.41 0.748494 -1.573 0
M  V30 13389 C 1265.54 1.3624 -3.12492 0
M  V30 13390 H 1266.73 -0.438872 -2.96671 0
M  V30 13391 H 1264.28 -0.265767 -1.54024 0
M  V30 13392 H 1265.02 2.08705 -2.48219 0
M  V30 13393 H 1264.8 0.913485 -3.81311 0
M  V30 13394 H 1266.29 1.89919 -3.71915 0
M  V30 13395 N 1266.73 1.55688 -0.24474 0
M  V30 13396 C 1267.69 2.20014 0.642382 0
M  V30 13397 C 1268.69 1.16877 1.10437 0
M  V30 13398 O 1269.88 1.41972 1.00943 0
M  V30 13399 C 1267.02 2.84198 1.88267 0
M  V30 13400 H 1268.21 2.9979 0.0811937 0
M  V30 13401 H 1265.76 1.56299 0.00480917 0
M  V30 13402 H 1266.5 2.08354 2.48514 0
M  V30 13403 H 1266.28 3.59747 1.55963 0
M  V30 13404 H 1267.77 3.33434 2.5142 0
M  V30 13405 N 1268.21 -0.0283989 1.57574 0
M  V30 13406 C 1269.14 -1.06191 2.01987 0
M  V30 13407 C 1270.12 -1.35131 0.90434 0
M  V30 13408 O 1271.3 -1.47777 1.17023 0
M  V30 13409 C 1268.43 -2.39646 2.39348 0
M  V30 13410 C 1267.48 -2.26558 3.6135 0
M  V30 13411 S 1268.31 -1.61839 5.10459 0
M  V30 13412 C 1269.47 -2.96783 5.51063 0
M  V30 13413 H 1269.7 -0.683625 2.89333 0
M  V30 13414 H 1267.23 -0.238394 1.52548 0
M  V30 13415 H 1269.19 -3.16394 2.61544 0
M  V30 13416 H 1267.85 -2.74622 1.52452 0
M  V30 13417 H 1267.04 -3.25079 3.85149 0
M  V30 13418 H 1266.65 -1.57954 3.39008 0
M  V30 13419 H 1268.94 -3.93111 5.51788 0
M  V30 13420 H 1269.88 -2.77716 6.51367 0
M  V30 13421 H 1270.29 -2.99386 4.78569 0
M  V30 13422 N 1269.69 -1.54705 -0.300681 0
M  V30 13423 C 1270.92 -1.77993 -1.0548 0
M  V30 13424 C 1271.33 -0.539574 -1.80926 0
M  V30 13425 O 1270.69 0.490597 -1.75782 0
M  V30 13426 C 1270.74 -2.98774 -2.0351 0
M  V30 13427 O 1270.46 -4.18016 -1.31126 0
M  V30 13428 C 1271.96 -3.34452 -2.90958 0
M  V30 13429 H 1269.18 -0.593628 -0.312805 0
M  V30 13430 H 1271.72 -2.01656 -0.339858 0
M  V30 13431 H 1269.88 -2.77318 -2.70506 0
M  V30 13432 H 1270.29 -4.86113 -1.96963 0
M  V30 13433 H 1271.77 -4.22206 -3.55593 0
M  V30 13434 H 1272.24 -2.52622 -3.59275 0
M  V30 13435 H 1272.85 -3.58069 -2.29493 0
M  V30 13436 N 1271.17 0.563888 -1.47167 0
M  V30 13437 C 1272.41 1.31875 -1.53145 0
M  V30 13438 C 1272.74 1.94047 -0.192518 0
M  V30 13439 O 1272.01 1.79577 0.782872 0
M  V30 13440 H 1270.59 0.489694 -0.5641 0
M  V30 13441 H 1273.25 0.658976 -1.83422 0
M  V30 13442 H 1272.34 2.11574 -2.2944 0
M  V30 13443 N 1272.64 1.35187 0.810078 0
M  V30 13444 C 1273.89 1.28264 1.56699 0
M  V30 13445 C 1274.22 -0.143906 1.93967 0
M  V30 13446 O 1273.47 -1.10832 1.61291 0
M  V30 13447 C 1273.77 2.13135 2.86894 0
M  V30 13448 C 1273.44 3.61974 2.6886 0
M  V30 13449 C 1272.1 4.02545 2.63649 0
M  V30 13450 C 1274.45 4.5643 2.51636 0
M  V30 13451 C 1271.78 5.35745 2.39154 0
M  V30 13452 C 1274.13 5.89824 2.2867 0
M  V30 13453 C 1272.8 6.29544 2.2188 0
M  V30 13454 H 1272.07 0.469353 0.573401 0
M  V30 13455 H 1274.71 1.67051 0.936282 0
M  V30 13456 H 1273.02 1.67218 3.54324 0
M  V30 13457 H 1274.72 2.05117 3.44569 0
M  V30 13458 H 1271.31 3.29777 2.73761 0
M  V30 13459 H 1275.49 4.25974 2.54677 0
M  V30 13460 H 1270.75 5.65524 2.32363 0
M  V30 13461 H 1274.92 6.62597 2.14333 0
M  V30 13462 H 1272.55 7.32689 2.0266 0
M  V30 13463 N 1274.12 -1.03182 1.19127 0
M  V30 13464 C 1275.09 -2.09559 0.928307 0
M  V30 13465 C 1276.09 -1.60548 -0.0899992 0
M  V30 13466 O 1277.28 -1.736 0.144422 0
M  V30 13467 C 1274.41 -3.38609 0.394561 0
M  V30 13468 H 1275.6 -2.34321 1.87173 0
M  V30 13469 H 1273.15 -1.19746 1.00452 0
M  V30 13470 H 1273.89 -3.19515 -0.555046 0
M  V30 13471 H 1273.67 -3.75502 1.12873 0
M  V30 13472 H 1275.16 -4.16969 0.229569 0
M  V30 13473 N 1275.6 -0.99472 -1.22242 0
M  V30 13474 C 1276.55 -0.53946 -2.26258 0
M  V30 13475 C 1277.54 0.410796 -1.64344 0
M  V30 13476 O 1278.75 0.283116 -1.7776 0
M  V30 13477 H 1275.12 -0.156069 -0.735627 0
M  V30 13478 H 1277.09 -1.42814 -2.62005 0
M  V30 13479 C 1275.84 0.12842 -3.47463 0
M  V30 13480 H 1275.17 -0.593727 -3.95367 0
M  V30 13481 H 1276.61 0.410393 -4.22009 0
M  V30 13482 C 1275.07 1.36433 -3.08038 0
M  V30 13483 O 1275.6 2.45953 -3.176 0
M  V30 13484 N 1273.8 1.24026 -2.62804 0
M  V30 13485 H 1273.35 0.349111 -2.55223 0
M  V30 13486 H 1273.31 2.06824 -2.36794 0
M  V30 13487 N 1277.08 1.37613 -0.768148 0
M  V30 13488 C 1278.03 2.30311 -0.150176 0
M  V30 13489 C 1279 1.50918 0.69376 0
M  V30 13490 O 1280.18 1.795 0.64687 0
M  V30 13491 C 1277.32 3.37382 0.72576 0
M  V30 13492 C 1276.43 4.31791 -0.13439 0
M  V30 13493 C 1275.57 5.25937 0.745915 0
M  V30 13494 C 1274.61 6.11988 -0.116988 0
M  V30 13495 N 1273.74 6.98387 0.721091 0
M  V30 13496 H 1278.58 2.82579 -0.946212 0
M  V30 13497 H 1276.12 1.3911 -0.478217 0
M  V30 13498 H 1278.08 3.98084 1.24839 0
M  V30 13499 H 1276.71 2.86488 1.48743 0
M  V30 13500 H 1275.76 3.72426 -0.774793 0
M  V30 13501 H 1277.07 4.9234 -0.800163 0
M  V30 13502 H 1276.23 5.91826 1.33516 0
M  V30 13503 H 1274.97 4.6579 1.44538 0
M  V30 13504 H 1273.97 5.45081 -0.7188 0
M  V30 13505 H 1275.2 6.74207 -0.813732 0
M  V30 13506 H 1273.14 6.40772 1.40524 0
M  V30 13507 H 1273.06 7.55916 0.112536 0
M  V30 13508 H 1274.33 7.6867 1.29485 0
M  V30 13509 N 1278.56 0.518393 1.4883 0
M  V30 13510 C 1279.83 -0.0837498 1.95421 0
M  V30 13511 C 1280.21 -1.52435 1.46037 0
M  V30 13512 O 1279.56 -2.18093 0.681736 0
M  V30 13513 C 1279.77 0.0215333 3.48993 0
M  V30 13514 C 1281.12 -0.143615 4.24357 0
M  V30 13515 O 1282.14 -0.0528223 3.56161 0
M  V30 13516 O 1281 -0.332231 5.45489 0
M  V30 13517 H 1278.1 -0.0857132 0.822546 0
M  V30 13518 H 1280.64 0.582169 1.59402 0
M  V30 13519 H 1279.41 1.02549 3.77623 0
M  V30 13520 H 1279.04 -0.683756 3.91677 0
M  V30 13521 N 1280.03 -1.55556 0.252993 0
M  V30 13522 C 1280.98 -2.21634 -0.643979 0
M  V30 13523 C 1281.95 -1.18226 -1.1667 0
M  V30 13524 O 1283.14 -1.46694 -1.22006 0
M  V30 13525 C 1280.28 -2.92429 -1.83246 0
M  V30 13526 C 1279.39 -4.10506 -1.34569 0
M  V30 13527 C 1278.52 -4.69001 -2.49421 0
M  V30 13528 C 1277.56 -5.79315 -1.97636 0
M  V30 13529 N 1276.7 -6.31967 -3.05878 0
M  V30 13530 H 1281.54 -2.97909 -0.0738178 0
M  V30 13531 H 1279.08 -1.47079 -0.0246728 0
M  V30 13532 H 1281.04 -3.31678 -2.53072 0
M  V30 13533 H 1279.67 -2.18617 -2.375 0
M  V30 13534 H 1278.72 -3.76529 -0.541268 0
M  V30 13535 H 1280.03 -4.90125 -0.92622 0
M  V30 13536 H 1279.18 -5.10855 -3.27279 0
M  V30 13537 H 1277.92 -3.88612 -2.94673 0
M  V30 13538 H 1276.93 -5.36933 -1.18251 0
M  V30 13539 H 1278.15 -6.6156 -1.53347 0
M  V30 13540 H 1276.1 -5.5448 -3.50553 0
M  V30 13541 H 1276.02 -7.06797 -2.68281 0
M  V30 13542 H 1277.28 -6.7848 -3.83777 0
M  V30 13543 N 1281.51 0.0200419 -1.57587 0
M  V30 13544 C 1282.44 1.0456 -2.0396 0
M  V30 13545 C 1283.46 1.31922 -0.953962 0
M  V30 13546 O 1284.65 1.2925 -1.23112 0
M  V30 13547 C 1281.75 2.38514 -2.40758 0
M  V30 13548 C 1280.92 2.3038 -3.71812 0
M  V30 13549 C 1279.98 3.46856 -3.95698 0
M  V30 13550 O 1279 3.25944 -4.66636 0
M  V30 13551 N 1280.21 4.69033 -3.42036 0
M  V30 13552 H 1282.97 0.650282 -2.9256 0
M  V30 13553 H 1280.53 0.207818 -1.60561 0
M  V30 13554 H 1282.52 3.15172 -2.53868 0
M  V30 13555 H 1281.09 2.69859 -1.57781 0
M  V30 13556 H 1280.31 1.38762 -3.6897 0
M  V30 13557 H 1281.6 2.22097 -4.57767 0
M  V30 13558 H 1281 4.88923 -2.84553 0
M  V30 13559 H 1279.56 5.43025 -3.6051 0
M  V30 13560 N 1282.99 1.54862 0.292472 0
M  V30 13561 C 1283.9 1.89472 1.38339 0
M  V30 13562 C 1284.92 0.789783 1.55043 0
M  V30 13563 O 1286.09 1.08705 1.69544 0
M  V30 13564 C 1283.16 2.14244 2.72581 0
M  V30 13565 C 1282.22 3.37913 2.64789 0
M  V30 13566 C 1281.45 3.61494 3.92629 0
M  V30 13567 O 1281.67 2.87931 4.92394 0
M  V30 13568 O 1280.61 4.55019 3.94007 0
M  V30 13569 H 1284.43 2.82298 1.11989 0
M  V30 13570 H 1282.02 1.41161 0.489291 0
M  V30 13571 H 1283.9 2.31689 3.51991 0
M  V30 13572 H 1282.58 1.24603 2.98757 0
M  V30 13573 H 1281.48 3.25823 1.83821 0
M  V30 13574 H 1282.82 4.27711 2.43565 0
M  V30 13575 N 1284.47 -0.556076 1.47464 0
M  V30 13576 C 1285.4 -1.67275 1.62915 0
M  V30 13577 C 1286.38 -1.63229 0.478562 0
M  V30 13578 O 1287.56 -1.80833 0.708032 0
M  V30 13579 C 1284.69 -3.05911 1.64426 0
M  V30 13580 C 1283.65 -3.24804 2.78722 0
M  V30 13581 C 1282.97 -4.64238 2.65307 0
M  V30 13582 C 1284.27 -3.10071 4.20302 0
M  V30 13583 H 1285.97 -1.54601 2.56396 0
M  V30 13584 H 1283.51 -0.742337 1.23391 0
M  V30 13585 H 1285.47 -3.83878 1.73826 0
M  V30 13586 H 1284.19 -3.19547 0.675053 0
M  V30 13587 H 1282.85 -2.49246 2.68835 0
M  V30 13588 H 1282.5 -4.74675 1.66412 0
M  V30 13589 H 1282.2 -4.77828 3.41986 0
M  V30 13590 H 1283.72 -5.44339 2.76637 0
M  V30 13591 H 1285.14 -3.77855 4.3116 0
M  V30 13592 H 1283.53 -3.3517 4.97776 0
M  V30 13593 H 1284.6 -2.06803 4.38589 0
M  V30 13594 N 1285.95 -1.35615 -0.802897 0
M  V30 13595 C 1286.89 -1.28839 -1.91492 0
M  V30 13596 C 1287.86 -0.159621 -1.65331 0
M  V30 13597 O 1289.05 -0.343931 -1.87675 0
M  V30 13598 C 1286.19 -1.06999 -3.28093 0
M  V30 13599 C 1285.3 -2.28831 -3.66416 0
M  V30 13600 C 1284.44 -2.00111 -4.92066 0
M  V30 13601 C 1283.48 -3.17977 -5.23027 0
M  V30 13602 N 1282.61 -2.89009 -6.39858 0
M  V30 13603 H 1287.45 -2.2393 -1.96619 0
M  V30 13604 H 1284.99 -1.1131 -0.961687 0
M  V30 13605 H 1286.95 -0.923673 -4.06847 0
M  V30 13606 H 1285.58 -0.155684 -3.22424 0
M  V30 13607 H 1284.63 -2.54314 -2.82893 0
M  V30 13608 H 1285.94 -3.1683 -3.85253 0
M  V30 13609 H 1285.1 -1.82331 -5.78654 0
M  V30 13610 H 1283.84 -1.09402 -4.75271 0
M  V30 13611 H 1282.84 -3.3633 -4.34928 0
M  V30 13612 H 1284.07 -4.09493 -5.41749 0
M  V30 13613 H 1282.01 -2.00898 -6.24481 0
M  V30 13614 H 1281.93 -3.70544 -6.58964 0
M  V30 13615 H 1283.2 -2.74779 -7.29463 0
M  V30 13616 N 1287.43 1.02549 -1.19673 0
M  V30 13617 C 1288.38 2.09257 -0.905282 0
M  V30 13618 C 1289.36 1.60363 0.131302 0
M  V30 13619 O 1290.55 1.76842 -0.0748563 0
M  V30 13620 C 1287.68 3.40345 -0.449474 0
M  V30 13621 C 1286.77 3.95964 -1.51899 0
M  V30 13622 N 1287.16 4.25203 -2.73926 0
M  V30 13623 C 1285.46 4.24013 -1.38307 0
M  V30 13624 C 1286.16 4.69925 -3.42849 0
M  V30 13625 N 1285.13 4.71664 -2.70248 0
M  V30 13626 H 1288.93 2.29761 -1.83268 0
M  V30 13627 H 1286.45 1.2044 -1.0894 0
M  V30 13628 H 1288.45 4.16308 -0.222121 0
M  V30 13629 H 1287.11 3.2126 0.471402 0
M  V30 13630 H 1288.12 4.14381 -3.10658 0
M  V30 13631 H 1284.79 4.14174 -0.52592 0
M  V30 13632 H 1286.18 5.01442 -4.4722 0
M  V30 13633 N 1288.9 1.00119 1.21713 0
M  V30 13634 C 1289.87 0.563409 2.22167 0
M  V30 13635 C 1290.87 -0.35819 1.5676 0
M  V30 13636 O 1292.06 -0.149001 1.73562 0
M  V30 13637 C 1289.19 -0.179365 3.40428 0
M  V30 13638 H 1290.38 1.45189 2.62412 0
M  V30 13639 H 1287.93 0.789286 1.34907 0
M  V30 13640 H 1288.67 -1.08345 3.05666 0
M  V30 13641 H 1288.45 0.482471 3.8912 0
M  V30 13642 H 1289.94 -0.473537 4.14906 0
M  V30 13643 N 1290.38 -1.37203 0.775435 0
M  V30 13644 C 1291.63 -1.99207 0.340756 0
M  V30 13645 C 1291.95 -1.61861 -1.08747 0
M  V30 13646 O 1291.22 -0.88583 -1.74728 0
M  V30 13647 H 1289.8 -0.736803 0.123004 0
M  V30 13648 H 1292.46 -1.67625 0.994379 0
M  V30 13649 H 1291.56 -3.09243 0.421346 0
M  V30 13650 N 1291.86 -0.526279 -1.48553 0
M  V30 13651 C 1292.81 0.238513 -2.29564 0
M  V30 13652 C 1293.78 0.937222 -1.37133 0
M  V30 13653 O 1294.96 0.93897 -1.66096 0
M  V30 13654 C 1292.1 1.28173 -3.20415 0
M  V30 13655 C 1291.21 0.592244 -4.27921 0
M  V30 13656 C 1290.35 1.61808 -5.05956 0
M  V30 13657 C 1289.39 0.911846 -6.0527 0
M  V30 13658 N 1288.53 1.88305 -6.76377 0
M  V30 13659 H 1293.37 -0.458502 -2.94452 0
M  V30 13660 H 1290.9 -0.237948 -1.45163 0
M  V30 13661 H 1292.86 1.89883 -3.71484 0
M  V30 13662 H 1291.49 1.94718 -2.57458 0
M  V30 13663 H 1290.54 -0.138714 -3.80147 0
M  V30 13664 H 1291.85 0.0375427 -4.98786 0
M  V30 13665 H 1291.01 2.30956 -5.61021 0
M  V30 13666 H 1289.75 2.20667 -4.34922 0
M  V30 13667 H 1288.75 0.206273 -5.49413 0
M  V30 13668 H 1289.98 0.329415 -6.78301 0
M  V30 13669 H 1287.92 2.46079 -6.08096 0
M  V30 13670 H 1287.84 1.37969 -7.43304 0
M  V30 13671 H 1289.11 2.56663 -7.36033 0
M  V30 13672 N 1293.34 1.5542 -0.261239 0
M  V30 13673 C 1294.59 1.9846 0.360052 0
M  V30 13674 C 1294.9 1.15288 1.58013 0
M  V30 13675 O 1296.11 1.48408 2.27348 0
M  V30 13676 C 1294.56 3.53185 0.691964 0
M  V30 13677 C 1294.17 4.45116 -0.507521 0
M  V30 13678 C 1295.91 4.04848 1.27665 0
M  V30 13679 C 1293.82 5.91207 -0.150966 0
M  V30 13680 H 1292.75 0.741207 0.138303 0
M  V30 13681 H 1295.4 1.79859 -0.363712 0
M  V30 13682 H 1293.78 3.67535 1.47425 0
M  V30 13683 H 1294.96 4.42531 -1.28465 0
M  V30 13684 H 1293.27 4.04013 -1.0081 0
M  V30 13685 H 1295.87 5.11529 1.55699 0
M  V30 13686 H 1296.21 3.5305 2.20593 0
M  V30 13687 H 1296.75 3.93882 0.556955 0
M  V30 13688 H 1293.48 6.47072 -1.04776 0
M  V30 13689 H 1293 5.96894 0.589671 0
M  V30 13690 H 1294.68 6.4647 0.261772 0
M  V30 13691 N 1294.82 -0.0116844 1.57596 0
M  V30 13692 C 1295.78 -0.991601 2.0664 0
M  V30 13693 C 1296.78 -1.27973 0.973629 0
M  V30 13694 O 1297.97 -1.22686 1.23668 0
M  V30 13695 C 1295.1 -2.31975 2.49801 0
M  V30 13696 H 1296.29 -0.567607 2.9448 0
M  V30 13697 H 1293.85 -0.258906 1.54141 0
M  V30 13698 H 1294.58 -2.79087 1.65169 0
M  V30 13699 H 1294.37 -2.12386 3.29598 0
M  V30 13700 H 1295.86 -3.02294 2.88112 0
M  V30 13701 N 1296.29 -1.55015 -0.284256 0
M  V30 13702 C 1297.52 -1.79102 -1.03586 0
M  V30 13703 C 1297.94 -0.558733 -1.80343 0
M  V30 13704 O 1297.29 0.471925 -1.76293 0
M  V30 13705 C 1297.34 -3.00915 -2.0033 0
M  V30 13706 O 1297.07 -4.19384 -1.26685 0
M  V30 13707 C 1298.57 -3.3752 -2.87394 0
M  V30 13708 H 1295.79 -0.596912 -0.306491 0
M  V30 13709 H 1298.33 -2.02005 -0.31845 0
M  V30 13710 H 1296.49 -2.80171 -2.67549 0
M  V30 13711 H 1296.9 -4.88175 -1.91796 0
M  V30 13712 H 1298.37 -4.25953 -3.51095 0
M  V30 13713 H 1298.85 -2.56418 -3.56576 0
M  V30 13714 H 1299.46 -3.60483 -2.25682 0
M  V30 13715 N 1297.77 0.548248 -1.47757 0
M  V30 13716 C 1298.68 1.68178 -1.63565 0
M  V30 13717 C 1299.7 1.661 -0.518351 0
M  V30 13718 O 1300.87 1.85384 -0.787061 0
M  V30 13719 C 1297.94 3.04673 -1.65454 0
M  V30 13720 C 1297 3.17749 -2.88677 0
M  V30 13721 C 1296.23 4.47733 -2.90466 0
M  V30 13722 O 1296.46 5.33736 -2.01201 0
M  V30 13723 O 1295.39 4.64789 -3.82433 0
M  V30 13724 H 1299.22 1.57781 -2.59497 0
M  V30 13725 H 1296.8 0.719277 -1.30946 0
M  V30 13726 H 1298.68 3.85885 -1.69324 0
M  V30 13727 H 1297.36 3.15433 -0.726912 0
M  V30 13728 H 1296.26 2.359 -2.90348 0
M  V30 13729 H 1297.6 3.11897 -3.80763 0
M  V30 13730 N 1299.25 1.36039 0.795694 0
M  V30 13731 C 1300.21 1.29709 1.88966 0
M  V30 13732 C 1301.21 0.206142 1.59473 0
M  V30 13733 O 1302.4 0.460534 1.68002 0
M  V30 13734 C 1299.53 1.00922 3.25619 0
M  V30 13735 H 1300.73 2.26993 1.95995 0
M  V30 13736 H 1298.28 1.2072 0.992791 0
M  V30 13737 H 1299.02 0.0407027 3.24274 0
M  V30 13738 H 1298.8 1.79863 3.48413 0
M  V30 13739 H 1300.29 0.990826 4.05675 0
M  V30 13740 N 1300.73 -1.01913 1.20215 0
M  V30 13741 C 1301.66 -2.12282 0.97256 0
M  V30 13742 C 1302.64 -1.6982 -0.0975709 0
M  V30 13743 O 1303.82 -1.94109 0.0594307 0
M  V30 13744 C 1300.95 -3.43369 0.521085 0
M  V30 13745 C 1299.91 -3.99559 1.53417 0
M  V30 13746 C 1299.23 -5.26383 0.93942 0
M  V30 13747 C 1300.53 -4.33241 2.91718 0
M  V30 13748 H 1302.23 -2.31746 1.89563 0
M  V30 13749 H 1299.77 -1.1137 0.912841 0
M  V30 13750 H 1301.73 -4.19963 0.347713 0
M  V30 13751 H 1300.45 -3.23655 -0.437605 0
M  V30 13752 H 1299.11 -3.25069 1.69486 0
M  V30 13753 H 1298.76 -5.02993 -0.0271236 0
M  V30 13754 H 1298.46 -5.64942 1.616 0
M  V30 13755 H 1299.98 -6.05635 0.777059 0
M  V30 13756 H 1301.4 -5.00734 2.79175 0
M  V30 13757 H 1299.79 -4.82907 3.56259 0
M  V30 13758 H 1300.86 -3.42118 3.43633 0
M  V30 13759 N 1302.21 -1.00763 -1.2118 0
M  V30 13760 C 1303.12 -0.579646 -2.27326 0
M  V30 13761 C 1304.13 0.378592 -1.69831 0
M  V30 13762 O 1305.31 0.241772 -1.99944 0
M  V30 13763 C 1302.37 0.0843648 -3.46597 0
M  V30 13764 C 1301.43 -0.918685 -4.19355 0
M  V30 13765 C 1300.67 -0.286267 -5.32932 0
M  V30 13766 O 1300.89 0.916274 -5.62993 0
M  V30 13767 O 1299.82 -0.998513 -5.9356 0
M  V30 13768 H 1303.65 -1.46311 -2.66133 0
M  V30 13769 H 1301.24 -0.776641 -1.27627 0
M  V30 13770 H 1303.12 0.455636 -4.18929 0
M  V30 13771 H 1301.79 0.942166 -3.09685 0
M  V30 13772 H 1300.7 -1.34116 -3.49233 0
M  V30 13773 H 1302.03 -1.74616 -4.60185 0
M  V30 13774 N 1303.68 1.3679 -0.7827 0
M  V30 13775 C 1304.63 2.32019 -0.164358 0
M  V30 13776 C 1305.63 1.55476 0.672571 0
M  V30 13777 O 1306.83 1.7079 0.568406 0
M  V30 13778 H 1303.21 0.751214 -0.0343697 0
M  V30 13779 H 1305.18 2.81741 -0.983077 0
M  V30 13780 C 1303.93 3.4075 0.691727 0
M  V30 13781 H 1303.25 3.99759 0.0570885 0
M  V30 13782 H 1304.69 4.09719 1.09117 0
M  V30 13783 C 1303.15 2.81753 1.84708 0
M  V30 13784 O 1303.68 2.73378 2.94325 0
M  V30 13785 N 1301.89 2.39138 1.6511 0
M  V30 13786 H 1301.43 2.46149 0.759487 0
M  V30 13787 H 1301.39 2.0001 2.42576 0
M  V30 13788 N 1305.16 0.53415 1.48272 0
M  V30 13789 C 1306.41 -0.000450626 2.017 0
M  V30 13790 C 1306.72 -1.34926 1.41613 0
M  V30 13791 O 1307.93 -1.97246 1.86564 0
M  V30 13792 C 1306.39 -0.0511883 3.59864 0
M  V30 13793 C 1305.99 1.29298 4.28936 0
M  V30 13794 C 1307.74 -0.534397 4.21123 0
M  V30 13795 C 1305.65 1.2026 5.79044 0
M  V30 13796 H 1304.58 -0.00393844 0.75399 0
M  V30 13797 H 1307.23 0.678554 1.70493 0
M  V30 13798 H 1305.61 -0.795358 3.8793 0
M  V30 13799 H 1306.78 2.05305 4.12537 0
M  V30 13800 H 1305.1 1.71226 3.79566 0
M  V30 13801 H 1307.69 -0.620048 5.31093 0
M  V30 13802 H 1308.04 -1.54114 3.86723 0
M  V30 13803 H 1308.57 0.154215 3.97501 0
M  V30 13804 H 1305.31 2.18463 6.18025 0
M  V30 13805 H 1304.83 0.483971 5.97844 0
M  V30 13806 H 1306.51 0.895005 6.4078 0
M  V30 13807 N 1306.64 -1.55279 0.269478 0
M  V30 13808 C 1308.06 -1.59374 -0.0848147 0
M  V30 13809 C 1308.26 -1.2867 -1.55068 0
M  V30 13810 O 1307.31 -1.04486 -2.29867 0
M  V30 13811 C 1308.63 -2.99349 0.284735 0
M  V30 13812 C 1310.17 -3.12147 0.230887 0
M  V30 13813 C 1310.65 -4.54379 0.574795 0
M  V30 13814 N 1312.14 -4.60202 0.526136 0
M  V30 13815 C 1312.87 -5.68273 0.765109 0
M  V30 13816 N 1312.37 -6.84512 1.0684 0
M  V30 13817 N 1314.16 -5.57796 0.694287 0
M  V30 13818 H 1306.31 -1.73503 1.22517 0
M  V30 13819 H 1308.58 -0.808771 0.494564 0
M  V30 13820 H 1308.28 -3.26633 1.30398 0
M  V30 13821 H 1308.16 -3.75309 -0.377199 0
M  V30 13822 H 1310.54 -2.84631 -0.779064 0
M  V30 13823 H 1310.63 -2.38412 0.926998 0
M  V30 13824 H 1310.27 -4.8262 1.58241 0
M  V30 13825 H 1310.2 -5.26406 -0.143044 0
M  V30 13826 H 1312.69 -3.76696 0.301368 0
M  V30 13827 H 1313 -7.62826 1.23757 0
M  V30 13828 H 1311.35 -6.86141 1.10612 0
M  V30 13829 H 1314.54 -4.65862 0.457226 0
M  V30 13830 H 1314.71 -6.41943 0.883913 0
M  V30 13831 N 1308.12 0.00332656 -1.576 0
M  V30 13832 C 1309.35 0.699945 -1.94701 0
M  V30 13833 C 1309.76 1.67492 -0.871312 0
M  V30 13834 O 1309.12 1.81882 0.150054 0
M  V30 13835 C 1309.17 1.43471 -3.31811 0
M  V30 13836 O 1308.89 0.498835 -4.35251 0
M  V30 13837 C 1310.39 2.22614 -3.83351 0
M  V30 13838 H 1307.61 0.195158 -0.641993 0
M  V30 13839 H 1310.16 -0.0468044 -2.04446 0
M  V30 13840 H 1308.31 2.13311 -3.23384 0
M  V30 13841 H 1308.72 1.01688 -5.14548 0
M  V30 13842 H 1310.2 2.69527 -4.81725 0
M  V30 13843 H 1310.68 3.05146 -3.15883 0
M  V30 13844 H 1311.28 1.57796 -3.94944 0
M  V30 13845 N 1309.6 1.55164 0.276031 0
M  V30 13846 C 1310.85 1.74833 1.0058 0
M  V30 13847 C 1311.16 0.555089 1.87558 0
M  V30 13848 O 1312.36 0.634127 2.63991 0
M  V30 13849 C 1310.82 3.09417 1.83818 0
M  V30 13850 C 1310.43 4.36299 1.01721 0
M  V30 13851 C 1312.17 3.38437 2.56244 0
M  V30 13852 C 1310.08 5.61923 1.8438 0
M  V30 13853 H 1309.01 0.651676 0.379254 0
M  V30 13854 H 1311.66 1.81626 0.26161 0
M  V30 13855 H 1310.04 2.96654 2.62321 0
M  V30 13856 H 1311.22 4.59969 0.276565 0
M  V30 13857 H 1309.53 4.144 0.407645 0
M  V30 13858 H 1312.13 4.29501 3.18485 0
M  V30 13859 H 1312.47 2.58432 3.26372 0
M  V30 13860 H 1313 3.52284 1.84773 0
M  V30 13861 H 1309.74 6.44667 1.18679 0
M  V30 13862 H 1309.26 5.424 2.56051 0
M  V30 13863 H 1310.94 6.0011 2.4182 0
M  V30 13864 N 1311.07 -0.540404 1.48045 0
M  V30 13865 C 1312.32 -1.2987 1.55762 0
M  V30 13866 C 1312.65 -1.92877 0.226307 0
M  V30 13867 O 1311.93 -1.7875 -0.766727 0
M  V30 13868 C 1312.21 -2.39602 2.68817 0
M  V30 13869 C 1312.06 -1.81354 4.1162 0
M  V30 13870 C 1313.38 -3.41434 2.77688 0
M  V30 13871 H 1310.5 -0.47083 0.566999 0
M  V30 13872 H 1313.14 -0.603081 1.80175 0
M  V30 13873 H 1311.29 -2.98936 2.48132 0
M  V30 13874 H 1312.97 -1.26151 4.43716 0
M  V30 13875 H 1311.21 -1.1194 4.19108 0
M  V30 13876 H 1311.88 -2.60758 4.86528 0
M  V30 13877 H 1314.36 -2.92042 2.96396 0
M  V30 13878 H 1313.23 -4.15621 3.5854 0
M  V30 13879 H 1313.49 -4.01336 1.85422 0
M  V30 13880 N 1312.55 -1.36459 -0.788468 0
M  V30 13881 C 1313.78 -1.34063 -1.58246 0
M  V30 13882 C 1314.2 0.0754933 -1.87948 0
M  V30 13883 O 1313.56 1.04772 -1.47961 0
M  V30 13884 C 1313.61 -2.17038 -2.8797 0
M  V30 13885 O 1312.71 -1.56353 -3.81612 0
M  V30 13886 H 1312.05 -0.458816 -0.479983 0
M  V30 13887 H 1314.58 -1.79755 -0.977207 0
M  V30 13888 H 1314.59 -2.29651 -3.3723 0
M  V30 13889 H 1313.27 -3.19981 -2.65678 0
M  V30 13890 H 1311.85 -1.52685 -3.40208 0
M  V30 13891 N 1314.03 1.01274 -1.20754 0
M  V30 13892 C 1314.96 2.11763 -0.983805 0
M  V30 13893 C 1315.94 1.69869 0.0885635 0
M  V30 13894 O 1317.13 1.94075 -0.0697239 0
M  V30 13895 C 1314.26 3.43087 -0.539287 0
M  V30 13896 C 1313.21 3.9874 -1.55534 0
M  V30 13897 C 1312.54 5.25877 -0.967322 0
M  V30 13898 C 1313.84 4.31688 -2.94012 0
M  V30 13899 H 1315.53 2.30737 -1.90789 0
M  V30 13900 H 1313.08 1.10884 -0.918734 0
M  V30 13901 H 1315.03 4.19773 -0.369979 0
M  V30 13902 H 1313.75 3.23883 0.420435 0
M  V30 13903 H 1312.41 3.24166 -1.71207 0
M  V30 13904 H 1312.06 5.03 0.000448307 0
M  V30 13905 H 1311.76 5.64077 -1.64594 0
M  V30 13906 H 1313.28 6.05215 -0.809167 0
M  V30 13907 H 1314.7 4.99246 -2.81827 0
M  V30 13908 H 1313.1 4.81011 -3.58815 0
M  V30 13909 H 1314.17 3.4029 -3.45442 0
M  V30 13910 N 1315.51 1.01404 1.20644 0
M  V30 13911 C 1316.74 0.72104 1.93929 0
M  V30 13912 C 1317.15 -0.717853 1.7462 0
M  V30 13913 O 1316.51 -1.48664 1.05855 0
M  V30 13914 C 1316.56 1.04399 3.46097 0
M  V30 13915 O 1316.28 2.42637 3.64773 0
M  V30 13916 C 1317.78 0.771678 4.36532 0
M  V30 13917 H 1315 0.264983 0.616462 0
M  V30 13918 H 1317.55 1.35453 1.53208 0
M  V30 13919 H 1315.7 0.455946 3.84708 0
M  V30 13920 H 1316.12 2.54201 4.58783 0
M  V30 13921 H 1317.59 1.04774 5.41965 0
M  V30 13922 H 1318.07 -0.294188 4.38214 0
M  V30 13923 H 1318.67 1.34176 4.0358 0
M  V30 13924 N 1316.99 -1.36373 0.789944 0
M  V30 13925 C 1318.4 -1.52471 0.471686 0
M  V30 13926 C 1318.6 -1.74365 -1.0099 0
M  V30 13927 O 1317.66 -1.77546 -1.79538 0
M  V30 13928 C 1318.97 -2.71022 1.30259 0
M  V30 13929 C 1320.52 -2.84893 1.29633 0
M  V30 13930 C 1321 -4.0645 2.11098 0
M  V30 13931 N 1322.49 -4.13597 2.08547 0
M  V30 13932 C 1323.22 -5.06731 2.6835 0
M  V30 13933 N 1322.72 -6.05305 3.37013 0
M  V30 13934 N 1324.51 -4.9935 2.58081 0
M  V30 13935 H 1316.66 -1.20416 1.74968 0
M  V30 13936 H 1318.92 -0.587782 0.743785 0
M  V30 13937 H 1318.63 -2.61368 2.35329 0
M  V30 13938 H 1318.5 -3.6519 0.944254 0
M  V30 13939 H 1320.89 -2.94009 0.253542 0
M  V30 13940 H 1320.97 -1.91632 1.69443 0
M  V30 13941 H 1320.62 -3.98096 3.15408 0
M  V30 13942 H 1320.55 -4.98861 1.68659 0
M  V30 13943 H 1323.04 -3.4302 1.58573 0
M  V30 13944 H 1323.35 -6.72934 3.79974 0
M  V30 13945 H 1321.7 -6.05529 3.41116 0
M  V30 13946 H 1324.89 -4.21291 2.04039 0
M  V30 13947 H 1325.06 -5.71745 3.04979 0
M  V30 13948 N 1318.47 -0.542005 -1.47987 0
M  V30 13949 C 1319.38 0.217677 -2.33588 0
M  V30 13950 C 1320.39 0.927093 -1.47245 0
M  V30 13951 O 1321.57 0.899378 -1.80203 0
M  V30 13952 C 1318.63 1.24376 -3.23622 0
M  V30 13953 C 1317.69 0.543407 -4.25847 0
M  V30 13954 C 1316.93 1.5206 -5.11579 0
M  V30 13955 O 1317.15 2.75425 -4.99497 0
M  V30 13956 O 1316.08 1.05341 -5.9261 0
M  V30 13957 H 1319.91 -0.484089 -2.99817 0
M  V30 13958 H 1317.49 -0.302783 -1.463 0
M  V30 13959 H 1319.38 1.83644 -3.7928 0
M  V30 13960 H 1318.05 1.92772 -2.6004 0
M  V30 13961 H 1316.96 -0.090074 -3.73992 0
M  V30 13962 H 1318.29 -0.0988264 -4.92101 0
M  V30 13963 N 1319.94 1.55134 -0.277709 0
M  V30 13964 C 1320.89 2.2263 0.608637 0
M  V30 13965 C 1321.86 1.20067 1.14774 0
M  V30 13966 O 1323.05 1.48617 1.19657 0
M  V30 13967 C 1320.19 2.95308 1.78571 0
M  V30 13968 C 1319.3 4.12595 1.28021 0
M  V30 13969 C 1318.43 4.7291 2.41929 0
M  V30 13970 C 1317.47 5.82386 1.88395 0
M  V30 13971 N 1316.61 6.36754 2.95786 0
M  V30 13972 H 1321.45 2.97988 0.0264138 0
M  V30 13973 H 1318.99 1.471 0.00127068 0
M  V30 13974 H 1320.94 3.35662 2.47764 0
M  V30 13975 H 1319.57 2.22368 2.33992 0
M  V30 13976 H 1318.63 3.77343 0.481297 0
M  V30 13977 H 1319.94 4.91537 0.848128 0
M  V30 13978 H 1319.09 5.15997 3.1911 0
M  V30 13979 H 1317.83 3.93251 2.88453 0
M  V30 13980 H 1316.84 5.38746 1.09694 0
M  V30 13981 H 1318.06 6.63916 1.42803 0
M  V30 13982 H 1316.01 5.59987 3.41687 0
M  V30 13983 H 1315.92 7.10975 2.57002 0
M  V30 13984 H 1317.19 6.845 3.72935 0
M  V30 13985 N 1321.42 0.00503138 1.57599 0
M  V30 13986 C 1322.38 -0.969628 2.0768 0
M  V30 13987 C 1323.38 -1.26933 0.987148 0
M  V30 13988 O 1324.57 -1.21368 1.24962 0
M  V30 13989 C 1321.71 -2.29312 2.52247 0
M  V30 13990 H 1322.9 -0.536342 2.95065 0
M  V30 13991 H 1320.45 -0.242543 1.54407 0
M  V30 13992 H 1321.19 -2.7732 1.6812 0
M  V30 13993 H 1320.97 -2.08878 3.31832 0
M  V30 13994 H 1322.46 -2.99221 2.91302 0
M  V30 13995 N 1322.9 -1.55308 -0.267798 0
M  V30 13996 C 1324.15 -1.76159 -0.998707 0
M  V30 13997 C 1324.47 -0.565573 -1.86095 0
M  V30 13998 O 1323.73 0.45178 -1.90414 0
M  V30 13999 C 1324.03 -3.02286 -1.90678 0
M  V30 14000 C 1323.69 -4.34594 -1.20161 0
M  V30 14001 C 1322.36 -4.70553 -1.00664 0
M  V30 14002 C 1324.71 -5.16475 -0.7002 0
M  V30 14003 C 1322.04 -5.85945 -0.297629 0
M  V30 14004 C 1324.39 -6.326 -0.00475187 0
M  V30 14005 C 1323.05 -6.67195 0.20188 0
M  V30 14006 H 1322.32 -0.644613 -0.365453 0
M  V30 14007 H 1324.97 -1.89579 -0.270545 0
M  V30 14008 H 1323.27 -2.83788 -2.70133 0
M  V30 14009 H 1324.97 -3.15615 -2.47362 0
M  V30 14010 H 1321.56 -4.06334 -1.36348 0
M  V30 14011 H 1325.75 -4.89167 -0.838435 0
M  V30 14012 H 1321 -6.11268 -0.126864 0
M  V30 14013 H 1325.18 -6.95299 0.39151 0
M  V30 14014 H 1322.8 -7.56459 0.753252 0
M  V30 14015 N 1324.38 0.532545 -1.4833 0
M  V30 14016 C 1325.29 1.66433 -1.65339 0
M  V30 14017 C 1326.3 1.65541 -0.535939 0
M  V30 14018 O 1327.48 1.84539 -0.806679 0
M  V30 14019 C 1324.54 3.02901 -1.68676 0
M  V30 14020 C 1323.61 3.14669 -2.92031 0
M  V30 14021 C 1322.84 4.44627 -2.95199 0
M  V30 14022 O 1323.06 5.31572 -2.06851 0
M  V30 14023 O 1322 4.60707 -3.87341 0
M  V30 14024 H 1325.82 1.5502 -2.61156 0
M  V30 14025 H 1323.41 0.705348 -1.31701 0
M  V30 14026 H 1325.29 3.84068 -1.73407 0
M  V30 14027 H 1323.96 3.14644 -0.760327 0
M  V30 14028 H 1322.87 2.32807 -2.92834 0
M  V30 14029 H 1324.2 3.07841 -3.8405 0
M  V30 14030 N 1325.86 1.36875 0.78122 0
M  V30 14031 C 1326.79 1.27738 1.90304 0
M  V30 14032 C 1327.8 0.195147 1.61626 0
M  V30 14033 O 1328.99 0.450531 1.72721 0
M  V30 14034 C 1326.09 0.950103 3.25309 0
M  V30 14035 C 1325.26 2.13589 3.81705 0
M  V30 14036 C 1324.32 1.78037 4.95166 0
M  V30 14037 O 1323.35 2.50223 5.11251 0
M  V30 14038 N 1324.55 0.718886 5.76031 0
M  V30 14039 H 1327.31 2.24397 1.98661 0
M  V30 14040 H 1324.88 1.30376 0.959883 0
M  V30 14041 H 1326.87 0.693286 3.98717 0
M  V30 14042 H 1325.44 0.0723849 3.12516 0
M  V30 14043 H 1324.66 2.55502 3.00187 0
M  V30 14044 H 1325.95 2.9279 4.16114 0
M  V30 14045 H 1325.34 0.119681 5.65573 0
M  V30 14046 H 1323.9 0.521909 6.49707 0
M  V30 14047 N 1327.33 -1.00632 1.21289 0
M  V30 14048 C 1328.27 -2.09085 0.914258 0
M  V30 14049 C 1329.24 -1.62016 -0.137697 0
M  V30 14050 O 1330.43 -1.88498 -0.00902131 0
M  V30 14051 C 1327.56 -3.36645 0.37254 0
M  V30 14052 C 1326.6 -4.0262 1.40709 0
M  V30 14053 S 1327.43 -4.45203 2.97582 0
M  V30 14054 C 1328.59 -5.75951 2.45013 0
M  V30 14055 H 1328.82 -2.34094 1.83268 0
M  V30 14056 H 1326.36 -1.13893 1.04248 0
M  V30 14057 H 1328.31 -4.10446 0.0665561 0
M  V30 14058 H 1326.98 -3.09689 -0.524546 0
M  V30 14059 H 1326.17 -4.94427 0.977642 0
M  V30 14060 H 1325.77 -3.35088 1.66108 0
M  V30 14061 H 1328.06 -6.51634 1.85416 0
M  V30 14062 H 1329.01 -6.23706 3.35257 0
M  V30 14063 H 1329.41 -5.32707 1.8677 0
M  V30 14064 N 1328.81 -1.02043 -1.20104 0
M  V30 14065 C 1330.04 -0.730255 -1.93264 0
M  V30 14066 C 1330.45 0.71359 -1.75227 0
M  V30 14067 O 1329.79 1.49609 -1.06597 0
M  V30 14068 C 1329.85 -0.990978 -3.45572 0
M  V30 14069 C 1329.52 -2.4247 -3.87373 0
M  V30 14070 C 1330.52 -3.40569 -3.92822 0
M  V30 14071 C 1328.2 -2.76645 -4.19253 0
M  V30 14072 C 1330.19 -4.70904 -4.29568 0
M  V30 14073 C 1327.88 -4.07192 -4.55673 0
M  V30 14074 C 1328.88 -5.04132 -4.60804 0
M  V30 14075 O 1328.57 -6.32341 -4.96386 0
M  V30 14076 H 1328.3 -0.267146 -0.620974 0
M  V30 14077 H 1330.85 -1.36557 -1.53432 0
M  V30 14078 H 1329.08 -0.298508 -3.85546 0
M  V30 14079 H 1330.77 -0.691793 -3.99961 0
M  V30 14080 H 1331.54 -3.15503 -3.68352 0
M  V30 14081 H 1327.42 -2.01876 -4.14448 0
M  V30 14082 H 1330.96 -5.46566 -4.33487 0
M  V30 14083 H 1326.86 -4.32035 -4.796 0
M  V30 14084 H 1327.63 -6.36687 -5.14365 0
M  V30 14085 N 1330.29 1.35952 -0.797165 0
M  V30 14086 C 1331.2 2.33726 -0.202271 0
M  V30 14087 C 1332.22 1.61415 0.649719 0
M  V30 14088 O 1333.39 1.93351 0.563686 0
M  V30 14089 C 1330.46 3.40612 0.64685 0
M  V30 14090 C 1329.52 4.28712 -0.224536 0
M  V30 14091 C 1328.75 5.30493 0.584153 0
M  V30 14092 O 1328.97 5.40599 1.81957 0
M  V30 14093 O 1327.91 6.01897 -0.0200239 0
M  V30 14094 H 1331.73 2.86383 -1.01087 0
M  V30 14095 H 1329.32 1.38557 -0.558768 0
M  V30 14096 H 1331.2 4.05944 1.1308 0
M  V30 14097 H 1329.88 2.90243 1.43321 0
M  V30 14098 H 1328.78 3.66394 -0.755415 0
M  V30 14099 H 1330.12 4.82454 -0.974603 0
M  V30 14100 N 1331.77 0.549846 1.47697 0
M  V30 14101 C 1332.68 -0.205286 2.337 0
M  V30 14102 C 1333.69 -0.919271 1.47734 0
M  V30 14103 O 1334.87 -0.889808 1.80678 0
M  V30 14104 C 1331.94 -1.22658 3.24278 0
M  V30 14105 C 1331 -0.520815 4.26129 0
M  V30 14106 C 1330.23 -1.49345 5.12378 0
M  V30 14107 O 1330.45 -2.72772 5.00951 0
M  V30 14108 O 1329.39 -1.02197 5.93161 0
M  V30 14109 H 1333.21 0.499982 2.99556 0
M  V30 14110 H 1330.8 0.310538 1.46137 0
M  V30 14111 H 1332.68 -1.8163 3.80248 0
M  V30 14112 H 1331.35 -1.9139 2.61059 0
M  V30 14113 H 1330.26 0.109906 3.73939 0
M  V30 14114 H 1331.59 0.124922 4.92041 0
M  V30 14115 N 1333.25 -1.54984 0.285932 0
M  V30 14116 C 1334.18 -2.19087 -0.638448 0
M  V30 14117 C 1335.16 -1.1553 -1.14418 0
M  V30 14118 O 1336.34 -1.44105 -1.21516 0
M  V30 14119 C 1333.47 -2.82273 -1.87188 0
M  V30 14120 C 1332.51 -3.99226 -1.5007 0
M  V30 14121 S 1333.35 -5.32463 -0.569552 0
M  V30 14122 C 1334.5 -5.99124 -1.81112 0
M  V30 14123 H 1334.74 -2.97152 -0.0938139 0
M  V30 14124 H 1332.27 -1.54241 0.0701344 0
M  V30 14125 H 1334.23 -3.19307 -2.57979 0
M  V30 14126 H 1332.89 -2.04082 -2.38767 0
M  V30 14127 H 1332.08 -4.42166 -2.41878 0
M  V30 14128 H 1331.68 -3.63671 -0.872871 0
M  V30 14129 H 1333.98 -6.19015 -2.75367 0
M  V30 14130 H 1334.92 -6.93623 -1.42454 0
M  V30 14131 H 1335.33 -5.28599 -1.98098 0
M  V30 14132 N 1334.72 -0.0133892 -1.57594 0
M  V30 14133 C 1335.65 0.972341 -2.12292 0
M  V30 14134 C 1336.64 1.34971 -1.03522 0
M  V30 14135 O 1337.82 1.4311 -1.31275 0
M  V30 14136 C 1334.95 2.25988 -2.63717 0
M  V30 14137 C 1333.9 2.02373 -3.77133 0
M  V30 14138 C 1333.23 3.37256 -4.14925 0
M  V30 14139 C 1334.53 1.37553 -5.03861 0
M  V30 14140 H 1336.22 0.516869 -2.94905 0
M  V30 14141 H 1333.77 0.247176 -1.41863 0
M  V30 14142 H 1335.72 2.95313 -3.00613 0
M  V30 14143 H 1334.45 2.73672 -1.78244 0
M  V30 14144 H 1333.11 1.3547 -3.40651 0
M  V30 14145 H 1332.75 3.82669 -3.26456 0
M  V30 14146 H 1332.45 3.22267 -4.91343 0
M  V30 14147 H 1333.98 4.07875 -4.5439 0
M  V30 14148 H 1335.39 1.96855 -5.38443 0
M  V30 14149 H 1333.79 1.33011 -5.85174 0
M  V30 14150 H 1334.86 0.346429 -4.83661 0
M  V30 14151 N 1336.2 1.55448 0.259558 0
M  V30 14152 C 1337.13 1.85678 1.34373 0
M  V30 14153 C 1338.15 0.742155 1.449 0
M  V30 14154 O 1339.34 1.02015 1.46476 0
M  V30 14155 C 1336.44 2.01668 2.72366 0
M  V30 14156 C 1335.61 3.32434 2.84265 0
M  V30 14157 C 1334.67 3.38322 4.03019 0
M  V30 14158 O 1333.69 4.11616 3.93143 0
M  V30 14159 N 1334.9 2.66697 5.1561 0
M  V30 14160 H 1337.66 2.79261 1.08781 0
M  V30 14161 H 1335.22 1.5553 0.449672 0
M  V30 14162 H 1337.21 2.02963 3.50126 0
M  V30 14163 H 1335.78 1.14889 2.90722 0
M  V30 14164 H 1335 3.43564 1.93281 0
M  V30 14165 H 1336.29 4.18649 2.89155 0
M  V30 14166 H 1335.69 2.06857 5.26523 0
M  V30 14167 H 1334.25 2.73699 5.91551 0
M  V30 14168 N 1337.68 -0.524672 1.4861 0
M  V30 14169 C 1338.91 -1.30482 1.60568 0
M  V30 14170 C 1339.32 -1.86889 0.267952 0
M  V30 14171 O 1338.68 -1.66669 -0.743488 0
M  V30 14172 C 1338.73 -2.45191 2.65638 0
M  V30 14173 O 1338.45 -1.91107 3.9422 0
M  V30 14174 C 1339.95 -3.36931 2.88084 0
M  V30 14175 H 1337.17 -0.396612 0.541239 0
M  V30 14176 H 1339.72 -0.632392 1.94476 0
M  V30 14177 H 1337.87 -3.08308 2.34574 0
M  V30 14178 H 1338.29 -2.66234 4.51907 0
M  V30 14179 H 1339.76 -4.13755 3.65391 0
M  V30 14180 H 1340.24 -3.92487 1.97106 0
M  V30 14181 H 1340.84 -2.79601 3.20473 0
M  V30 14182 N 1339.16 -1.37287 -0.77395 0
M  V30 14183 C 1340.09 -1.28746 -1.89624 0
M  V30 14184 C 1341.1 -0.203715 -1.6152 0
M  V30 14185 O 1342.29 -0.459684 -1.72479 0
M  V30 14186 C 1339.39 -0.967342 -3.24801 0
M  V30 14187 C 1338.57 -2.1561 -3.80567 0
M  V30 14188 C 1337.62 -1.80661 -4.94215 0
M  V30 14189 O 1336.65 -2.5293 -5.09917 0
M  V30 14190 N 1337.85 -0.749424 -5.75642 0
M  V30 14191 H 1340.62 -2.25447 -1.97468 0
M  V30 14192 H 1338.18 -1.30883 -0.952956 0
M  V30 14193 H 1340.17 -0.714421 -3.98344 0
M  V30 14194 H 1338.74 -0.0889573 -3.12473 0
M  V30 14195 H 1337.96 -2.57091 -2.98828 0
M  V30 14196 H 1339.25 -2.94993 -4.14556 0
M  V30 14197 H 1338.65 -0.149673 -5.65502 0
M  V30 14198 H 1337.2 -0.556358 -6.49421 0
M  V30 14199 N 1340.64 0.999871 -1.21821 0
M  V30 14200 C 1341.59 2.0729 -0.949465 0
M  V30 14201 C 1342.57 1.60606 0.0972572 0
M  V30 14202 O 1343.76 1.76643 -0.11235 0
M  V30 14203 C 1340.89 3.39315 -0.521565 0
M  V30 14204 C 1339.98 3.92653 -1.60264 0
M  V30 14205 N 1340.37 4.19297 -2.82884 0
M  V30 14206 C 1338.67 4.20984 -1.4727 0
M  V30 14207 C 1339.37 4.62547 -3.52739 0
M  V30 14208 N 1338.34 4.65826 -2.80191 0
M  V30 14209 H 1342.15 2.25822 -1.881 0
M  V30 14210 H 1339.66 1.18102 -1.1147 0
M  V30 14211 H 1341.66 4.15743 -0.310376 0
M  V30 14212 H 1340.32 3.22187 0.403152 0
M  V30 14213 H 1341.33 4.07698 -3.19378 0
M  V30 14214 H 1338 4.12966 -0.613654 0
M  V30 14215 H 1339.39 4.91843 -4.57756 0
M  V30 14216 N 1342.11 1.02678 1.19562 0
M  V30 14217 C 1343.53 0.743467 1.41226 0
M  V30 14218 C 1343.73 -0.672786 1.89936 0
M  V30 14219 O 1342.79 -1.43908 2.07477 0
M  V30 14220 C 1344.1 1.77781 2.42517 0
M  V30 14221 C 1345.65 1.79711 2.56267 0
M  V30 14222 C 1346.12 2.82099 3.60811 0
M  V30 14223 N 1347.61 2.80902 3.68304 0
M  V30 14224 C 1348.35 3.5678 4.48882 0
M  V30 14225 N 1347.84 4.42367 5.33182 0
M  V30 14226 N 1349.64 3.45331 4.43512 0
M  V30 14227 H 1341.79 1.94094 0.862635 0
M  V30 14228 H 1344.05 0.839015 0.441313 0
M  V30 14229 H 1343.76 2.79295 2.13745 0
M  V30 14230 H 1343.63 1.59836 3.41661 0
M  V30 14231 H 1346.02 0.788756 2.84364 0
M  V30 14232 H 1346.1 2.01731 1.57284 0
M  V30 14233 H 1345.74 3.83104 3.33457 0
M  V30 14234 H 1345.67 2.57338 4.5944 0
M  V30 14235 H 1348.16 2.18826 3.08097 0
M  V30 14236 H 1348.48 4.97008 5.9178 0
M  V30 14237 H 1346.82 4.4644 5.3265 0
M  V30 14238 H 1350.01 2.77883 3.76695 0
M  V30 14239 H 1350.19 4.04718 5.06071 0
M  V30 14240 N 1343.59 -1.35528 0.804364 0
M  V30 14241 C 1344.54 -2.31728 0.20125 0
M  V30 14242 C 1345.53 -1.56527 -0.647751 0
M  V30 14243 O 1346.74 -1.71672 -0.541163 0
M  V30 14244 H 1343.12 -0.750572 0.0463165 0
M  V30 14245 H 1345.09 -2.80142 1.02777 0
M  V30 14246 C 1343.84 -3.41807 -0.637429 0
M  V30 14247 H 1343.16 -3.99799 0.00651699 0
M  V30 14248 H 1344.6 -4.11403 -1.02585 0
M  V30 14249 C 1343.06 -2.84655 -1.80202 0
M  V30 14250 O 1343.59 -2.78026 -2.89939 0
M  V30 14251 N 1341.79 -2.41735 -1.61285 0
M  V30 14252 H 1341.34 -2.47327 -0.720231 0
M  V30 14253 H 1341.3 -2.03844 -2.39364 0
M  V30 14254 N 1345.07 -0.557671 -1.47404 0
M  V30 14255 C 1346.3 -0.0386599 -2.06864 0
M  V30 14256 C 1346.71 1.25527 -1.41027 0
M  V30 14257 O 1346.07 1.75318 -0.506949 0
M  V30 14258 C 1346.12 0.160141 -3.61145 0
M  V30 14259 O 1345.84 -1.08255 -4.24515 0
M  V30 14260 C 1347.34 0.716381 -4.37473 0
M  V30 14261 H 1344.56 -0.0460523 -0.669418 0
M  V30 14262 H 1347.11 -0.771214 -1.894 0
M  V30 14263 H 1345.26 0.842826 -3.78121 0
M  V30 14264 H 1345.68 -0.88057 -5.17055 0
M  V30 14265 H 1347.15 0.804773 -5.46102 0
M  V30 14266 H 1347.63 1.72776 -4.03788 0
M  V30 14267 H 1348.23 0.0693787 -4.25243 0
M  V30 14268 N 1346.55 1.54831 -0.294147 0
M  V30 14269 C 1347.77 2.04873 0.32276 0
M  V30 14270 C 1348.2 1.17034 1.47257 0
M  V30 14271 O 1347.56 0.172949 1.80473 0
M  V30 14272 C 1347.61 3.52431 0.76319 0
M  V30 14273 O 1346.71 3.67635 1.86865 0
M  V30 14274 H 1346.05 0.660926 0.0638162 0
M  V30 14275 H 1348.58 1.99944 -0.433995 0
M  V30 14276 H 1348.59 3.94155 1.05385 0
M  V30 14277 H 1347.27 4.15827 -0.0779464 0
M  V30 14278 H 1345.84 3.37816 1.57907 0
M  V30 14279 N 1348.03 0.0217466 1.57585 0
M  V30 14280 C 1348.97 -0.962559 2.0977 0
M  V30 14281 C 1349.94 -1.32771 0.998053 0
M  V30 14282 O 1351.13 -1.42231 1.27181 0
M  V30 14283 C 1348.27 -2.24214 2.62339 0
M  V30 14284 C 1347.38 -1.9341 3.86286 0
M  V30 14285 C 1346.52 -3.15609 4.27275 0
M  V30 14286 C 1345.56 -2.8059 5.43999 0
M  V30 14287 N 1344.69 -3.95392 5.8018 0
M  V30 14288 H 1349.53 -0.510626 2.93593 0
M  V30 14289 H 1347.07 -0.240456 1.45121 0
M  V30 14290 H 1349.03 -2.99049 2.90905 0
M  V30 14291 H 1347.66 -2.67037 1.81358 0
M  V30 14292 H 1346.71 -1.08849 3.64494 0
M  V30 14293 H 1348.02 -1.63614 4.71203 0
M  V30 14294 H 1347.18 -3.9877 4.57239 0
M  V30 14295 H 1345.92 -3.48561 3.41111 0
M  V30 14296 H 1344.92 -1.9584 5.13738 0
M  V30 14297 H 1346.15 -2.48863 6.31858 0
M  V30 14298 H 1344.09 -4.282 4.96971 0
M  V30 14299 H 1344.01 -3.69195 6.59721 0
M  V30 14300 H 1345.28 -4.79279 6.14746 0
M  V30 14301 N 1349.51 -1.55583 -0.251311 0
M  V30 14302 C 1350.45 -1.89946 -1.31108 0
M  V30 14303 C 1351.42 -0.753209 -1.4804 0
M  V30 14304 O 1352.61 -1.00646 -1.62095 0
M  V30 14305 C 1349.75 -2.19576 -2.66233 0
M  V30 14306 C 1348.86 -3.46983 -2.57345 0
M  V30 14307 C 1348 -3.66206 -3.84794 0
M  V30 14308 C 1347.03 -4.87229 -3.70505 0
M  V30 14309 N 1346.17 -5.02996 -4.89836 0
M  V30 14310 H 1351.01 -2.80325 -1.01104 0
M  V30 14311 H 1348.55 -1.3877 -0.487986 0
M  V30 14312 H 1350.51 -2.3476 -3.44882 0
M  V30 14313 H 1349.14 -1.32406 -2.94395 0
M  V30 14314 H 1348.19 -3.40156 -1.70289 0
M  V30 14315 H 1349.5 -4.35776 -2.42695 0
M  V30 14316 H 1348.65 -3.81324 -4.71886 0
M  V30 14317 H 1347.39 -2.75638 -4.02337 0
M  V30 14318 H 1346.4 -4.72092 -2.81797 0
M  V30 14319 H 1347.62 -5.79253 -3.54462 0
M  V30 14320 H 1345.57 -4.15364 -5.07748 0
M  V30 14321 H 1345.49 -5.8587 -4.778 0
M  V30 14322 H 1346.75 -5.22521 -5.78439 0
M  V30 14323 N 1350.98 0.516783 -1.48886 0
M  V30 14324 C 1351.95 1.60226 -1.63891 0
M  V30 14325 C 1352.95 1.52448 -0.511479 0
M  V30 14326 O 1354.14 1.55882 -0.777582 0
M  V30 14327 C 1351.27 2.99867 -1.62151 0
M  V30 14328 H 1352.46 1.48256 -2.60692 0
M  V30 14329 H 1350.01 0.739844 -1.37681 0
M  V30 14330 H 1350.75 3.1733 -0.668764 0
M  V30 14331 H 1350.53 3.0692 -2.44013 0
M  V30 14332 H 1352.02 3.7876 -1.7587 0
M  V30 14333 N 1352.46 1.37696 0.766659 0
M  V30 14334 C 1353.39 1.2975 1.88938 0
M  V30 14335 C 1354.41 0.212278 1.6141 0
M  V30 14336 O 1355.6 0.468825 1.72233 0
M  V30 14337 C 1352.7 0.984553 3.24283 0
M  V30 14338 C 1351.87 2.17625 3.79418 0
M  V30 14339 C 1350.93 1.83279 4.9325 0
M  V30 14340 O 1349.95 2.55631 5.08568 0
M  V30 14341 N 1351.16 0.779941 5.75237 0
M  V30 14342 H 1353.92 2.26492 1.96269 0
M  V30 14343 H 1351.48 1.31387 0.946001 0
M  V30 14344 H 1353.47 0.735536 3.9796 0
M  V30 14345 H 1352.04 0.105527 3.12422 0
M  V30 14346 H 1351.26 2.58672 2.9746 0
M  V30 14347 H 1352.55 2.97187 4.12986 0
M  V30 14348 H 1351.95 0.179661 5.65415 0
M  V30 14349 H 1350.51 0.59079 6.49117 0
M  V30 14350 N 1353.94 -0.993397 1.22349 0
M  V30 14351 C 1355.19 -1.72707 1.04189 0
M  V30 14352 C 1355.5 -1.90963 -0.423381 0
M  V30 14353 O 1356.71 -2.61651 -0.724645 0
M  V30 14354 C 1355.16 -3.10739 1.81575 0
M  V30 14355 C 1354.77 -3.00415 3.32347 0
M  V30 14356 C 1356.52 -3.88155 1.71861 0
M  V30 14357 C 1354.42 -4.33598 4.02177 0
M  V30 14358 H 1353.35 -0.647556 0.386248 0
M  V30 14359 H 1356 -1.10902 1.46195 0
M  V30 14360 H 1354.39 -3.73222 1.32367 0
M  V30 14361 H 1355.56 -2.47099 3.88946 0
M  V30 14362 H 1353.87 -2.36482 3.42732 0
M  V30 14363 H 1356.47 -4.8673 2.21354 0
M  V30 14364 H 1356.81 -4.10726 0.678939 0
M  V30 14365 H 1357.35 -3.32347 2.18609 0
M  V30 14366 H 1354.09 -4.16226 5.06395 0
M  V30 14367 H 1353.61 -4.86829 3.50367 0
M  V30 14368 H 1355.29 -5.02348 4.07744 0
M  V30 14369 N 1355.42 -1.03311 -1.19015 0
M  V30 14370 C 1356.67 -0.727266 -1.88132 0
M  V30 14371 C 1356.98 0.747488 -1.80754 0
M  V30 14372 O 1358.19 1.16654 -2.45161 0
M  V30 14373 C 1356.64 -1.25056 -3.37474 0
M  V30 14374 C 1356.25 -2.7534 -3.534 0
M  V30 14375 C 1357.99 -1.02091 -4.12041 0
M  V30 14376 C 1355.9 -3.21066 -4.96659 0
M  V30 14377 H 1354.83 -0.268349 -0.704631 0
M  V30 14378 H 1357.48 -1.24795 -1.3453 0
M  V30 14379 H 1355.86 -0.65777 -3.90499 0
M  V30 14380 H 1357.04 -3.40311 -3.10684 0
M  V30 14381 H 1355.35 -2.96633 -2.92229 0
M  V30 14382 H 1357.95 -1.33777 -5.17695 0
M  V30 14383 H 1358.29 0.0421413 -4.16279 0
M  V30 14384 H 1358.83 -1.57792 -3.65166 0
M  V30 14385 H 1355.56 -4.26719 -4.97586 0
M  V30 14386 H 1355.08 -2.60826 -5.4012 0
M  V30 14387 H 1356.76 -3.14651 -5.65335 0
M  V30 14388 N 1356.9 1.35099 -0.81154 0
M  V30 14389 C 1358.14 1.98233 -0.393453 0
M  V30 14390 C 1358.46 1.64688 1.04417 0
M  V30 14391 O 1357.73 0.931845 1.72318 0
M  V30 14392 H 1356.31 0.733283 -0.142496 0
M  V30 14393 H 1358.98 1.6493 -1.03847 0
M  V30 14394 H 1358.07 3.08017 -0.503188 0
M  V30 14395 N 1358.37 0.56548 1.47106 0
M  V30 14396 C 1359.6 0.0476763 2.07345 0
M  V30 14397 C 1360.02 -1.24032 1.41413 0
M  V30 14398 O 1359.38 -1.74498 0.491941 0
M  V30 14399 C 1359.43 -0.122618 3.60391 0
M  V30 14400 O 1358.53 -1.18326 3.9506 0
M  V30 14401 H 1357.87 0.0550419 0.661715 0
M  V30 14402 H 1360.4 0.78352 1.89003 0
M  V30 14403 H 1360.41 -0.334227 4.06629 0
M  V30 14404 H 1359.09 0.81807 4.07775 0
M  V30 14405 H 1357.67 -0.951481 3.60557 0
M  V30 14406 N 1359.85 -1.54672 0.302354 0
M  V30 14407 C 1361.09 -2.02076 -0.30738 0
M  V30 14408 C 1361.46 -1.18603 -1.50988 0
M  V30 14409 O 1362.66 -1.5571 -2.19107 0
M  V30 14410 C 1360.93 -3.5137 -0.65375 0
M  V30 14411 S 1362.49 -4.20733 -1.24615 0
M  V30 14412 H 1359.31 -0.704725 -0.0942521 0
M  V30 14413 H 1361.91 -1.907 0.430542 0
M  V30 14414 H 1360.61 -4.09756 0.229892 0
M  V30 14415 H 1360.14 -3.66784 -1.42243 0
M  V30 14416 H 1362.16 -4.26624 -2.5339 0
M  V30 14417 N 1361.33 -0.0301034 -1.57571 0
M  V30 14418 C 1362.56 0.657533 -1.95857 0
M  V30 14419 C 1362.97 1.66138 -0.905244 0
M  V30 14420 O 1362.31 1.83299 0.12134 0
M  V30 14421 C 1362.37 1.41946 -3.3029 0
M  V30 14422 C 1362.04 0.573834 -4.53383 0
M  V30 14423 C 1363.03 -0.151282 -5.1968 0
M  V30 14424 C 1360.72 0.510947 -4.99695 0
M  V30 14425 C 1362.71 -0.927947 -6.30609 0
M  V30 14426 C 1360.4 -0.269422 -6.10506 0
M  V30 14427 C 1361.4 -0.987575 -6.75822 0
M  V30 14428 O 1361.09 -1.75515 -7.84506 0
M  V30 14429 H 1360.82 0.1861 -0.649879 0
M  V30 14430 H 1363.37 -0.0864526 -2.05218 0
M  V30 14431 H 1361.6 2.20861 -3.17423 0
M  V30 14432 H 1363.29 1.9953 -3.53472 0
M  V30 14433 H 1364.06 -0.112036 -4.84871 0
M  V30 14434 H 1359.94 1.05949 -4.4866 0
M  V30 14435 H 1363.48 -1.48901 -6.81524 0
M  V30 14436 H 1359.38 -0.310381 -6.44753 0
M  V30 14437 H 1360.15 -1.67503 -8.01177 0
M  V30 14438 N 1362.81 1.55714 0.243056 0
M  V30 14439 C 1363.77 1.89832 1.28438 0
M  V30 14440 C 1364.77 0.775083 1.40887 0
M  V30 14441 O 1365.96 1.04304 1.39521 0
M  V30 14442 C 1363.09 2.13016 2.66153 0
M  V30 14443 H 1364.29 2.82947 0.994022 0
M  V30 14444 H 1361.84 1.48665 0.482521 0
M  V30 14445 H 1362.57 1.22381 3.00322 0
M  V30 14446 H 1362.36 2.94824 2.58498 0
M  V30 14447 H 1363.85 2.40581 3.41336 0
M  V30 14448 N 1364.29 -0.50888 1.49158 0
M  V30 14449 C 1365.53 -1.2635 1.58247 0
M  V30 14450 C 1365.86 -1.92677 0.265654 0
M  V30 14451 O 1365.12 -1.80931 -0.745818 0
M  V30 14452 C 1365.42 -2.35875 2.6851 0
M  V30 14453 C 1365.08 -1.87059 4.10268 0
M  V30 14454 C 1363.74 -1.73464 4.48847 0
M  V30 14455 C 1366.1 -1.50429 4.9902 0
M  V30 14456 C 1363.42 -1.21606 5.73959 0
M  V30 14457 C 1365.78 -1.00026 6.24642 0
M  V30 14458 C 1364.44 -0.850646 6.62058 0
M  V30 14459 H 1363.71 -0.462346 0.579066 0
M  V30 14460 H 1366.36 -0.565528 1.82959 0
M  V30 14461 H 1364.66 -3.11428 2.37739 0
M  V30 14462 H 1366.36 -2.9395 2.72753 0
M  V30 14463 H 1362.95 -1.98597 3.79812 0
M  V30 14464 H 1367.13 -1.59782 4.69876 0
M  V30 14465 H 1362.39 -1.08728 6.01655 0
M  V30 14466 H 1366.56 -0.707608 6.92796 0
M  V30 14467 H 1364.19 -0.446627 7.58887 0
M  V30 14468 N 1365.76 -1.381 -0.759346 0
M  V30 14469 C 1366.99 -1.37389 -1.55367 0
M  V30 14470 C 1367.41 0.0356097 -1.88066 0
M  V30 14471 O 1366.77 1.0161 -1.5015 0
M  V30 14472 C 1366.82 -2.23098 -2.83302 0
M  V30 14473 O 1365.92 -1.64412 -3.7821 0
M  V30 14474 H 1365.27 -0.468894 -0.470143 0
M  V30 14475 H 1367.8 -1.81787 -0.938858 0
M  V30 14476 H 1367.81 -2.36753 -3.32283 0
M  V30 14477 H 1366.48 -3.25544 -2.58831 0
M  V30 14478 H 1365.06 -1.59867 -3.36893 0
M  V30 14479 N 1367.24 0.986894 -1.22875 0
M  V30 14480 C 1368.19 2.06271 -0.971398 0
M  V30 14481 C 1369.18 1.607 0.0802173 0
M  V30 14482 O 1370.37 1.76514 -0.131079 0
M  V30 14483 C 1367.5 3.38743 -0.557524 0
M  V30 14484 C 1366.58 3.90931 -1.64419 0
M  V30 14485 N 1366.97 4.16273 -2.87315 0
M  V30 14486 C 1365.27 4.19398 -1.51727 0
M  V30 14487 C 1365.97 4.5878 -3.57625 0
M  V30 14488 N 1364.95 4.62828 -2.85116 0
M  V30 14489 H 1368.75 2.23814 -1.90485 0
M  V30 14490 H 1366.27 1.16913 -1.12717 0
M  V30 14491 H 1368.26 4.1539 -0.354453 0
M  V30 14492 H 1366.92 3.22597 0.368957 0
M  V30 14493 H 1367.93 4.04288 -3.23684 0
M  V30 14494 H 1364.61 4.12291 -0.65742 0
M  V30 14495 H 1366 4.8696 -4.62947 0
M  V30 14496 N 1368.72 1.0394 1.18466 0
M  V30 14497 C 1369.68 0.633804 2.20262 0
M  V30 14498 C 1370.68 -0.308136 1.5782 0
M  V30 14499 O 1371.87 -0.0937087 1.73948 0
M  V30 14500 C 1369.01 -0.0709693 3.40826 0
M  V30 14501 H 1370.2 1.53463 2.57661 0
M  V30 14502 H 1367.75 0.831806 1.32328 0
M  V30 14503 H 1368.49 -0.985659 3.08958 0
M  V30 14504 H 1368.27 0.606023 3.87388 0
M  V30 14505 H 1369.76 -0.341298 4.16203 0
M  V30 14506 N 1370.2 -1.34667 0.818693 0
M  V30 14507 C 1371.45 -1.98414 0.404759 0
M  V30 14508 C 1371.77 -1.64919 -1.03112 0
M  V30 14509 O 1371.03 -0.910695 -1.73219 0
M  V30 14510 C 1371.33 -3.53157 0.549059 0
M  V30 14511 C 1370.99 -4.06552 1.95003 0
M  V30 14512 C 1369.66 -4.20846 2.33329 0
M  V30 14513 C 1372.01 -4.35324 2.86604 0
M  V30 14514 C 1369.34 -4.61236 3.62599 0
M  V30 14515 C 1371.69 -4.77159 4.15334 0
M  V30 14516 C 1370.35 -4.89658 4.53642 0
M  V30 14517 H 1369.62 -0.726047 0.148112 0
M  V30 14518 H 1372.27 -1.60681 1.04182 0
M  V30 14519 H 1370.57 -3.91425 -0.17141 0
M  V30 14520 H 1372.27 -4.00453 0.209374 0
M  V30 14521 H 1368.86 -3.95887 1.64231 0
M  V30 14522 H 1373.04 -4.23823 2.58239 0
M  V30 14523 H 1368.3 -4.69104 3.92112 0
M  V30 14524 H 1372.47 -4.98381 4.86404 0
M  V30 14525 H 1370.1 -5.20713 5.53861 0
M  V30 14526 N 1371.68 -0.573274 -1.46804 0
M  V30 14527 C 1372.93 -0.0530267 -2.0163 0
M  V30 14528 C 1373.24 1.31124 -1.45141 0
M  V30 14529 O 1374.44 1.92231 -1.91728 0
M  V30 14530 C 1372.9 -0.0442411 -3.59873 0
M  V30 14531 C 1372.51 -1.40625 -4.25357 0
M  V30 14532 C 1374.25 0.422556 -4.22392 0
M  V30 14533 C 1372.16 -1.3557 -5.75652 0
M  V30 14534 H 1371.09 -0.0160537 -0.753829 0
M  V30 14535 H 1373.74 -0.723518 -1.68634 0
M  V30 14536 H 1372.12 0.692225 -3.89903 0
M  V30 14537 H 1373.3 -2.1617 -4.06949 0
M  V30 14538 H 1371.61 -1.81229 -3.74893 0
M  V30 14539 H 1374.21 0.479021 -5.3255 0
M  V30 14540 H 1374.55 1.43806 -3.90673 0
M  V30 14541 H 1375.08 -0.259551 -3.96952 0
M  V30 14542 H 1371.82 -2.34772 -6.12015 0
M  V30 14543 H 1371.34 -0.642309 -5.96351 0
M  V30 14544 H 1373.02 -1.06458 -6.38182 0
M  V30 14545 N 1373.15 1.5451 -0.310553 0
M  V30 14546 C 1374.38 2.04442 0.297807 0
M  V30 14547 C 1374.79 1.18695 1.47337 0
M  V30 14548 O 1374.14 0.207405 1.82525 0
M  V30 14549 C 1374.2 3.50306 0.807851 0
M  V30 14550 C 1373.86 4.5635 -0.24369 0
M  V30 14551 C 1374.86 5.08656 -1.07539 0
M  V30 14552 C 1372.54 5.00798 -0.388138 0
M  V30 14553 C 1374.54 6.03961 -2.03738 0
M  V30 14554 C 1372.22 5.95921 -1.35357 0
M  V30 14555 C 1373.22 6.47387 -2.17667 0
M  V30 14556 O 1372.91 7.40644 -3.12571 0
M  V30 14557 H 1372.64 0.672646 0.0672525 0
M  V30 14558 H 1375.2 2.00389 -0.450948 0
M  V30 14559 H 1373.43 3.51714 1.6073 0
M  V30 14560 H 1375.12 3.83383 1.33314 0
M  V30 14561 H 1375.88 4.75105 -0.97471 0
M  V30 14562 H 1371.76 4.60361 0.242608 0
M  V30 14563 H 1375.3 6.44057 -2.68023 0
M  V30 14564 H 1371.2 6.2889 -1.45493 0
M  V30 14565 H 1371.97 7.58477 -3.0766 0
M  V30 14566 N 1374.63 0.0384594 1.57553 0
M  V30 14567 C 1375.88 -0.63814 1.92182 0
M  V30 14568 C 1376.21 -1.71595 0.915714 0
M  V30 14569 O 1375.46 -1.9556 -0.0739533 0
M  V30 14570 C 1375.76 -1.28439 3.33524 0
M  V30 14571 C 1375.43 -0.336034 4.49646 0
M  V30 14572 C 1374.09 -0.0750373 4.81141 0
M  V30 14573 C 1376.44 0.314642 5.20249 0
M  V30 14574 C 1373.77 0.844286 5.80593 0
M  V30 14575 C 1376.12 1.22208 6.20684 0
M  V30 14576 C 1374.79 1.49187 6.50615 0
M  V30 14577 H 1374.06 -0.233512 0.703245 0
M  V30 14578 H 1376.7 0.102223 1.91227 0
M  V30 14579 H 1375.01 -2.09973 3.30785 0
M  V30 14580 H 1376.71 -1.81462 3.57593 0
M  V30 14581 H 1373.3 -0.549638 4.25061 0
M  V30 14582 H 1377.48 0.126074 4.9614 0
M  V30 14583 H 1372.74 1.06092 6.02125 0
M  V30 14584 H 1376.91 1.7324 6.74508 0
M  V30 14585 H 1374.54 2.20588 7.27492 0
M  V30 14586 N 1376.11 -1.55841 -0.234795 0
M  V30 14587 C 1377.07 -1.9051 -1.2743 0
M  V30 14588 C 1378.07 -0.782543 -1.40474 0
M  V30 14589 O 1379.26 -1.05043 -1.38966 0
M  V30 14590 C 1376.4 -2.14424 -2.65019 0
M  V30 14591 H 1377.59 -2.83471 -0.979003 0
M  V30 14592 H 1375.14 -1.48919 -0.47463 0
M  V30 14593 H 1375.88 -1.23972 -2.99669 0
M  V30 14594 H 1375.66 -2.96191 -2.56931 0
M  V30 14595 H 1377.15 -2.42388 -3.40056 0
M  V30 14596 N 1377.59 0.500963 -1.49426 0
M  V30 14597 C 1378.82 1.27725 -1.62388 0
M  V30 14598 C 1379.23 1.86893 -0.294544 0
M  V30 14599 O 1378.57 1.68571 0.73003 0
M  V30 14600 C 1378.63 2.44649 -2.63414 0
M  V30 14601 C 1378.3 2.0635 -4.0776 0
M  V30 14602 C 1379.29 1.60323 -4.94563 0
M  V30 14603 C 1376.98 2.15984 -4.53493 0
M  V30 14604 C 1378.97 1.24433 -6.25136 0
M  V30 14605 C 1376.66 1.79706 -5.8408 0
M  V30 14606 C 1377.66 1.34005 -6.69725 0
M  V30 14607 O 1377.35 0.982171 -7.97878 0
M  V30 14608 H 1377.08 0.393595 -0.549599 0
M  V30 14609 H 1379.63 0.607944 -1.96197 0
M  V30 14610 H 1377.86 3.14656 -2.24785 0
M  V30 14611 H 1379.55 3.06675 -2.65905 0
M  V30 14612 H 1380.32 1.52326 -4.60458 0
M  V30 14613 H 1376.2 2.50507 -3.86998 0
M  V30 14614 H 1379.74 0.886906 -6.91939 0
M  V30 14615 H 1375.64 1.87352 -6.17713 0
M  V30 14616 H 1376.4 1.11364 -8.10889 0
M  V30 14617 N 1379.07 1.38501 0.752011 0
M  V30 14618 C 1380.03 1.35655 1.84744 0
M  V30 14619 C 1381.03 0.256772 1.58737 0
M  V30 14620 O 1382.22 0.513749 1.66452 0
M  V30 14621 C 1379.35 1.11231 3.22243 0
M  V30 14622 H 1380.55 2.33114 1.88674 0
M  V30 14623 H 1378.1 1.23818 0.953882 0
M  V30 14624 H 1378.83 0.143848 3.23981 0
M  V30 14625 H 1378.62 1.90857 3.42515 0
M  V30 14626 H 1380.11 1.11939 4.02318 0
M  V30 14627 N 1380.55 -0.980364 1.23396 0
M  V30 14628 C 1381.51 -2.05433 1.01635 0
M  V30 14629 C 1382.51 -1.60785 -0.0218244 0
M  V30 14630 O 1383.7 -1.72832 0.217922 0
M  V30 14631 C 1380.83 -3.36631 0.537822 0
M  V30 14632 H 1382.02 -2.26172 1.96943 0
M  V30 14633 H 1379.58 -1.15378 1.05441 0
M  V30 14634 H 1380.31 -3.21581 -0.41903 0
M  V30 14635 H 1380.1 -3.70377 1.28698 0
M  V30 14636 H 1381.59 -4.1562 0.406213 0
M  V30 14637 N 1382.02 -1.04567 -1.17913 0
M  V30 14638 C 1383.27 -0.750538 -1.87647 0
M  V30 14639 C 1383.59 0.72423 -1.81052 0
M  V30 14640 O 1382.86 1.52292 -1.23223 0
M  V30 14641 H 1381.44 -0.274636 -0.694683 0
M  V30 14642 H 1384.1 -1.32349 -1.43072 0
M  V30 14643 H 1383.2 -1.05987 -2.93553 0
M  V30 14644 N 1383.5 1.34231 -0.825823 0
M  V30 14645 C 1384.75 1.98196 -0.415276 0
M  V30 14646 C 1385.08 1.65463 1.02236 0
M  V30 14647 O 1384.33 0.919868 1.72734 0
M  V30 14648 C 1384.63 3.52861 -0.56778 0
M  V30 14649 C 1384.3 4.05512 -1.97157 0
M  V30 14650 C 1382.96 4.19602 -2.35557 0
M  V30 14651 C 1385.31 4.33798 -2.88909 0
M  V30 14652 C 1382.64 4.59307 -3.6504 0
M  V30 14653 C 1384.99 4.74949 -4.17859 0
M  V30 14654 C 1383.65 4.87245 -4.56233 0
M  V30 14655 H 1382.92 0.725251 -0.15196 0
M  V30 14656 H 1385.57 1.60126 -1.05033 0
M  V30 14657 H 1383.88 3.9151 0.15065 0
M  V30 14658 H 1385.57 4.00336 -0.230608 0
M  V30 14659 H 1382.16 3.9501 -1.66328 0
M  V30 14660 H 1386.35 4.22448 -2.60483 0
M  V30 14661 H 1381.6 4.67017 -3.94594 0
M  V30 14662 H 1385.78 4.95795 -4.8904 0
M  V30 14663 H 1383.4 5.17768 -5.56615 0
M  V30 14664 N 1384.98 0.581051 1.46498 0
M  V30 14665 C 1386.4 0.242599 1.57745 0
M  V30 14666 C 1386.6 -1.25508 1.57639 0
M  V30 14667 O 1385.65 -2.0367 1.49247 0
M  V30 14668 C 1386.96 0.890342 2.87217 0
M  V30 14669 C 1388.51 0.863778 3.00845 0
M  V30 14670 C 1388.99 1.49103 4.3305 0
M  V30 14671 N 1390.48 1.4553 4.39745 0
M  V30 14672 C 1391.21 1.91003 5.40653 0
M  V30 14673 N 1390.71 2.44442 6.48244 0
M  V30 14674 N 1392.5 1.8193 5.31844 0
M  V30 14675 H 1384.65 1.55382 1.44811 0
M  V30 14676 H 1386.92 0.649375 0.690664 0
M  V30 14677 H 1386.62 1.94383 2.93101 0
M  V30 14678 H 1386.5 0.397569 3.75099 0
M  V30 14679 H 1388.88 -0.181089 2.94544 0
M  V30 14680 H 1388.96 1.39455 2.14443 0
M  V30 14681 H 1388.61 2.53509 4.40109 0
M  V30 14682 H 1388.54 0.935496 5.18224 0
M  V30 14683 H 1391.03 1.06466 3.62593 0
M  V30 14684 H 1391.34 2.77002 7.2145 0
M  V30 14685 H 1389.69 2.48467 6.49068 0
M  V30 14686 H 1392.88 1.3994 4.46693 0
M  V30 14687 H 1393.05 2.17685 6.10342 0
M  V30 14688 N 1386.46 -1.54343 0.318742 0
M  V30 14689 C 1387.7 -2.0048 -0.285276 0
M  V30 14690 C 1388.03 -1.20698 -1.5252 0
M  V30 14691 O 1387.29 -0.275893 -1.93746 0
M  V30 14692 C 1387.59 -3.51079 -0.669181 0
M  V30 14693 C 1387.25 -4.48433 0.471017 0
M  V30 14694 C 1385.91 -4.74771 0.783985 0
M  V30 14695 C 1388.27 -5.06304 1.23715 0
M  V30 14696 C 1385.59 -5.56239 1.86589 0
M  V30 14697 C 1387.95 -5.88951 2.30911 0
M  V30 14698 C 1386.61 -6.13592 2.62794 0
M  V30 14699 H 1385.88 -0.73361 -0.10439 0
M  V30 14700 H 1388.53 -1.86341 0.441521 0
M  V30 14701 H 1386.83 -3.62921 -1.47633 0
M  V30 14702 H 1388.53 -3.84216 -1.148 0
M  V30 14703 H 1385.12 -4.2805 0.217004 0
M  V30 14704 H 1389.3 -4.85943 1.00862 0
M  V30 14705 H 1384.56 -5.73563 2.11744 0
M  V30 14706 H 1388.73 -6.32814 2.90722 0
M  V30 14707 H 1386.36 -6.76508 3.46757 0
M  V30 14708 N 1387.94 -0.0468143 -1.5753 0
M  V30 14709 C 1389.18 0.626699 -1.92138 0
M  V30 14710 C 1389.5 1.7164 -0.925463 0
M  V30 14711 O 1388.77 1.95876 0.0303531 0
M  V30 14712 H 1387.35 0.234479 -0.709245 0
M  V30 14713 H 1390.02 -0.0987892 -1.94649 0
M  V30 14714 H 1389.11 1.06811 -2.93254 0
M  V30 14715 N 1389.41 1.55964 0.226527 0
M  V30 14716 C 1390.38 1.91184 1.26418 0
M  V30 14717 C 1391.38 0.789982 1.40057 0
M  V30 14718 O 1392.57 1.05778 1.38407 0
M  V30 14719 C 1389.7 2.15826 2.63878 0
M  V30 14720 H 1390.89 2.83986 0.963956 0
M  V30 14721 H 1388.45 1.49169 0.466726 0
M  V30 14722 H 1389.18 1.2556 2.99007 0
M  V30 14723 H 1388.97 2.97549 2.55356 0
M  V30 14724 H 1390.46 2.44188 3.38765 0
M  V30 14725 N 1390.89 -0.493031 1.4969 0
M  V30 14726 C 1392.12 -1.26862 1.63063 0
M  V30 14727 C 1392.53 -1.86734 0.304451 0
M  V30 14728 O 1391.87 -1.68956 -0.72108 0
M  V30 14729 C 1391.94 -2.43249 2.64708 0
M  V30 14730 C 1391.6 -2.04185 4.08849 0
M  V30 14731 C 1392.6 -1.57698 4.95406 0
M  V30 14732 C 1390.28 -2.13576 4.54632 0
M  V30 14733 C 1392.28 -1.21116 6.25787 0
M  V30 14734 C 1389.96 -1.76606 5.85024 0
M  V30 14735 C 1390.96 -1.30451 6.70426 0
M  V30 14736 O 1390.65 -0.939844 7.98387 0
M  V30 14737 H 1390.38 -0.390674 0.551679 0
M  V30 14738 H 1392.93 -0.59753 1.96516 0
M  V30 14739 H 1391.16 -3.1346 2.26451 0
M  V30 14740 H 1392.85 -3.0526 2.67528 0
M  V30 14741 H 1393.62 -1.49882 4.6126 0
M  V30 14742 H 1389.5 -2.48451 3.88321 0
M  V30 14743 H 1393.04 -0.850198 6.924 0
M  V30 14744 H 1388.94 -1.84074 6.18698 0
M  V30 14745 H 1389.71 -1.07062 8.11468 0
M  V30 14746 N 1392.37 -1.38898 -0.744656 0
M  V30 14747 C 1393.3 -1.39571 -1.87195 0
M  V30 14748 C 1394.28 -0.260372 -1.68095 0
M  V30 14749 O 1395.47 -0.464776 -1.88556 0
M  V30 14750 C 1392.6 -1.22889 -3.24832 0
M  V30 14751 C 1391.55 -2.33721 -3.58551 0
M  V30 14752 C 1390.88 -2.02136 -4.9502 0
M  V30 14753 C 1392.18 -3.7601 -3.62511 0
M  V30 14754 H 1393.87 -2.33908 -1.86889 0
M  V30 14755 H 1391.42 -1.12591 -0.897739 0
M  V30 14756 H 1393.37 -1.21983 -4.03359 0
M  V30 14757 H 1392.09 -0.250172 -3.2564 0
M  V30 14758 H 1390.75 -2.33828 -2.82348 0
M  V30 14759 H 1390.4 -1.02726 -4.92399 0
M  V30 14760 H 1390.1 -2.76371 -5.18549 0
M  V30 14761 H 1391.62 -2.02864 -5.75915 0
M  V30 14762 H 1393.04 -3.77885 -4.31133 0
M  V30 14763 H 1391.44 -4.49524 -3.97553 0
M  V30 14764 H 1392.51 -4.07682 -2.62533 0
M  V30 14765 N 1393.85 0.973806 -1.23914 0
M  V30 14766 C 1395.1 1.71027 -1.06923 0
M  V30 14767 C 1395.41 1.91612 0.392947 0
M  V30 14768 O 1396.62 2.62771 0.682927 0
M  V30 14769 C 1395.07 3.07811 -1.86496 0
M  V30 14770 C 1394.68 2.9509 -3.37085 0
M  V30 14771 C 1396.42 3.85371 -1.78015 0
M  V30 14772 C 1394.33 4.27145 -4.09024 0
M  V30 14773 H 1393.26 0.641329 -0.396501 0
M  V30 14774 H 1395.91 1.08562 -1.47941 0
M  V30 14775 H 1394.29 3.71069 -1.38288 0
M  V30 14776 H 1395.47 2.4088 -3.92827 0
M  V30 14777 H 1393.78 2.30999 -3.46451 0
M  V30 14778 H 1396.38 4.83147 -2.2907 0
M  V30 14779 H 1396.72 4.09594 -0.744196 0
M  V30 14780 H 1397.26 3.28827 -2.23869 0
M  V30 14781 H 1394 4.08117 -5.12953 0
M  V30 14782 H 1393.52 4.81194 -3.58068 0
M  V30 14783 H 1395.19 4.95798 -4.15685 0
M  V30 14784 N 1395.33 1.05191 1.17357 0
M  V30 14785 C 1396.26 0.610878 2.20909 0
M  V30 14786 C 1397.27 -0.325369 1.59515 0
M  V30 14787 O 1398.46 -0.118104 1.78109 0
M  V30 14788 C 1395.56 -0.126086 3.38665 0
M  V30 14789 C 1394.73 0.820857 4.29629 0
M  V30 14790 C 1393.79 0.125154 5.26051 0
M  V30 14791 O 1392.82 0.759245 5.64114 0
M  V30 14792 N 1394.02 -1.13742 5.69248 0
M  V30 14793 H 1396.79 1.50158 2.5937 0
M  V30 14794 H 1394.35 0.933814 1.32256 0
M  V30 14795 H 1396.34 -0.601627 4.00203 0
M  V30 14796 H 1394.91 -0.918459 2.98803 0
M  V30 14797 H 1394.13 1.47602 3.65523 0
M  V30 14798 H 1395.42 1.46363 4.87294 0
M  V30 14799 H 1394.81 -1.67291 5.40398 0
M  V30 14800 H 1393.37 -1.55703 6.3293 0
M  V30 14801 N 1396.8 -1.33791 0.83293 0
M  V30 14802 C 1397.77 -2.27637 0.267196 0
M  V30 14803 C 1398.77 -1.50709 -0.560669 0
M  V30 14804 O 1399.96 -1.70109 -0.375321 0
M  V30 14805 C 1397.09 -3.35136 -0.624248 0
M  V30 14806 H 1398.28 -2.79186 1.09522 0
M  V30 14807 H 1395.84 -1.44093 0.605554 0
M  V30 14808 H 1396.57 -2.88818 -1.47494 0
M  V30 14809 H 1396.36 -3.92087 -0.0319827 0
M  V30 14810 H 1397.85 -4.05113 -1.01355 0
M  V30 14811 N 1398.28 -0.588812 -1.46187 0
M  V30 14812 C 1399.53 -0.0765765 -2.01955 0
M  V30 14813 C 1399.85 1.29034 -1.46203 0
M  V30 14814 O 1399.12 1.84836 -0.649044 0
M  V30 14815 H 1397.7 -0.025318 -0.746571 0
M  V30 14816 H 1400.36 -0.765971 -1.79217 0
M  V30 14817 H 1399.46 -0.0121702 -3.12098 0
M  V30 14818 N 1399.76 1.54172 -0.326923 0
M  V30 14819 C 1401.18 1.59579 0.0256055 0
M  V30 14820 C 1401.38 1.34337 1.50186 0
M  V30 14821 O 1400.43 1.12945 2.25831 0
M  V30 14822 C 1401.75 2.98086 -0.395641 0
M  V30 14823 C 1403.29 3.11075 -0.346579 0
M  V30 14824 C 1403.77 4.51932 -0.743039 0
M  V30 14825 N 1405.26 4.57932 -0.696575 0
M  V30 14826 C 1405.99 5.65041 -0.975493 0
M  V30 14827 N 1405.49 6.80075 -1.32172 0
M  V30 14828 N 1407.28 5.54835 -0.900831 0
M  V30 14829 H 1399.43 1.68836 -1.28872 0
M  V30 14830 H 1401.7 0.789858 -0.52424 0
M  V30 14831 H 1401.4 3.21568 -1.42431 0
M  V30 14832 H 1401.28 3.76451 0.237645 0
M  V30 14833 H 1403.66 2.87326 0.672889 0
M  V30 14834 H 1403.75 2.34807 -1.01484 0
M  V30 14835 H 1403.39 4.76415 -1.76044 0
M  V30 14836 H 1403.32 5.26574 -0.0524263 0
M  V30 14837 H 1405.81 3.75318 -0.440969 0
M  V30 14838 H 1406.12 7.57708 -1.51983 0
M  V30 14839 H 1404.47 6.81563 -1.36001 0
M  V30 14840 H 1407.66 4.63844 -0.629812 0
M  V30 14841 H 1407.83 6.3822 -1.12156 0
M  V30 14842 N 1401.24 0.0551678 1.57503 0
M  V30 14843 C 1402.17 -0.953348 2.07332 0
M  V30 14844 C 1403.15 -1.30148 0.974699 0
M  V30 14845 O 1404.33 -1.41366 1.24692 0
M  V30 14846 C 1401.46 -2.26622 2.51715 0
M  V30 14847 C 1400.51 -2.07085 3.72851 0
M  V30 14848 S 1401.34 -1.34553 5.1832 0
M  V30 14849 C 1402.5 -2.67155 5.6602 0
M  V30 14850 H 1402.73 -0.529294 2.9255 0
M  V30 14851 H 1400.26 -0.157196 1.53598 0
M  V30 14852 H 1402.22 -3.02085 2.77948 0
M  V30 14853 H 1400.88 -2.66155 1.66795 0
M  V30 14854 H 1400.07 -3.04206 4.01839 0
M  V30 14855 H 1399.68 -1.39761 3.46905 0
M  V30 14856 H 1401.97 -3.63309 5.7185 0
M  V30 14857 H 1402.91 -2.42798 6.65173 0
M  V30 14858 H 1403.32 -2.73597 4.93766 0
M  V30 14859 N 1402.72 -1.56081 -0.218252 0
M  V30 14860 C 1403.94 -1.83334 -0.958964 0
M  V30 14861 C 1404.36 -0.63472 -1.77811 0
M  V30 14862 O 1403.72 0.396729 -1.78136 0
M  V30 14863 C 1403.77 -3.09141 -1.87387 0
M  V30 14864 O 1403.49 -4.24379 -1.08783 0
M  V30 14865 C 1404.99 -3.49405 -2.7282 0
M  V30 14866 H 1402.21 -0.609375 -0.280898 0
M  V30 14867 H 1404.75 -2.03174 -0.232486 0
M  V30 14868 H 1402.91 -2.91267 -2.55426 0
M  V30 14869 H 1403.32 -4.9587 -1.70919 0
M  V30 14870 H 1404.8 -4.40461 -3.32713 0
M  V30 14871 H 1405.27 -2.71311 -3.45379 0
M  V30 14872 H 1405.88 -3.6973 -2.1019 0
M  V30 14873 N 1404.2 0.485086 -1.49949 0
M  V30 14874 C 1405.61 1.06629 -1.53255 0
M  V30 14875 C 1405.96 1.9344 -0.327915 0
M  V30 14876 O 1405.08 2.09011 0.560669 0
M  V30 14877 C 1405.68 1.94053 -2.77721 0
M  V30 14878 C 1404.24 2.47307 -2.83754 0
M  V30 14879 C 1403.38 1.25307 -2.47373 0
M  V30 14880 H 1406.33 0.268297 -1.56416 0
M  V30 14881 H 1406.36 2.78946 -2.58784 0
M  V30 14882 H 1405.87 1.30843 -3.65379 0
M  V30 14883 H 1403.97 3.1411 -2.00414 0
M  V30 14884 H 1404.08 2.83371 -3.86313 0
M  V30 14885 H 1402.45 1.5834 -1.99501 0
M  V30 14886 H 1403.23 0.637815 -3.37323 0
M  V30 14887 N 1405.67 1.39291 0.737279 0
M  V30 14888 C 1406.58 1.40098 1.88175 0
M  V30 14889 C 1407.6 0.296053 1.71463 0
M  V30 14890 O 1408.78 0.537153 1.94105 0
M  V30 14891 C 1405.84 1.24071 3.2374 0
M  V30 14892 C 1404.9 2.44515 3.52861 0
M  V30 14893 C 1404.13 2.29243 4.81958 0
M  V30 14894 O 1404.36 1.2947 5.55512 0
M  V30 14895 O 1403.29 3.18178 5.10927 0
M  V30 14896 H 1407.12 2.36565 1.90449 0
M  V30 14897 H 1404.7 1.20382 0.884786 0
M  V30 14898 H 1406.58 1.17257 4.04758 0
M  V30 14899 H 1405.26 0.30698 3.22241 0
M  V30 14900 H 1404.17 2.56905 2.71939 0
M  V30 14901 H 1405.5 3.36573 3.59137 0
M  V30 14902 N 1407.15 -0.967221 1.24429 0
M  V30 14903 C 1408.4 -1.70688 1.08213 0
M  V30 14904 C 1408.72 -1.91268 -0.379693 0
M  V30 14905 O 1407.99 -1.49077 -1.27094 0
M  V30 14906 H 1406.57 -0.632489 0.39745 0
M  V30 14907 H 1409.23 -1.16356 1.56356 0
M  V30 14908 H 1408.33 -2.69119 1.58055 0
M  V30 14909 N 1408.63 -1.05812 -1.16797 0
M  V30 14910 C 1409.56 -0.608879 -2.19927 0
M  V30 14911 C 1410.54 0.365798 -1.58432 0
M  V30 14912 O 1411.72 0.27593 -1.8647 0
M  V30 14913 C 1408.85 0.108061 -3.38528 0
M  V30 14914 C 1407.9 -0.822607 -4.18492 0
M  V30 14915 S 1408.73 -2.3152 -4.82865 0
M  V30 14916 C 1409.89 -1.60961 -6.04849 0
M  V30 14917 H 1410.12 -1.48261 -2.57693 0
M  V30 14918 H 1407.65 -0.870648 -1.27511 0
M  V30 14919 H 1409.61 0.515496 -4.0725 0
M  V30 14920 H 1408.27 0.95792 -2.99137 0
M  V30 14921 H 1407.46 -0.267448 -5.0329 0
M  V30 14922 H 1407.07 -1.1697 -3.55238 0
M  V30 14923 H 1409.36 -0.912454 -6.71327 0
M  V30 14924 H 1410.3 -2.43531 -6.64905 0
M  V30 14925 H 1410.71 -1.09431 -5.53792 0
M  V30 14926 N 1410.11 1.33347 -0.840014 0
M  V30 14927 C 1411.35 1.97745 -0.436274 0
M  V30 14928 C 1411.68 1.66538 1.00475 0
M  V30 14929 O 1410.94 0.938137 1.71748 0
M  V30 14930 C 1411.24 3.52239 -0.605173 0
M  V30 14931 C 1410.9 4.03398 -2.01446 0
M  V30 14932 C 1409.56 4.1708 -2.39994 0
M  V30 14933 C 1411.92 4.3071 -2.93494 0
M  V30 14934 C 1409.24 4.55409 -3.69891 0
M  V30 14935 C 1411.6 4.70491 -4.22873 0
M  V30 14936 C 1410.26 4.82379 -4.61375 0
M  V30 14937 H 1409.53 0.723599 -0.159644 0
M  V30 14938 H 1412.18 1.59003 -1.06725 0
M  V30 14939 H 1410.48 3.91648 0.109116 0
M  V30 14940 H 1412.18 4.00069 -0.273056 0
M  V30 14941 H 1408.77 3.93224 -1.70508 0
M  V30 14942 H 1412.95 4.19661 -2.64949 0
M  V30 14943 H 1408.21 4.62806 -3.99525 0
M  V30 14944 H 1412.38 4.9058 -4.94271 0
M  V30 14945 H 1410.01 5.11835 -5.62075 0
M  V30 14946 N 1411.59 0.596556 1.45873 0
M  V30 14947 C 1412.83 0.0850976 2.0152 0
M  V30 14948 C 1413.15 -1.28799 1.47208 0
M  V30 14949 O 1414.35 -1.89156 1.94762 0
M  V30 14950 C 1412.81 0.101488 3.59757 0
M  V30 14951 C 1412.42 1.47374 4.23066 0
M  V30 14952 C 1414.16 -0.355303 4.2301 0
M  V30 14953 C 1412.07 1.44711 5.73422 0
M  V30 14954 H 1411 0.0280444 0.753478 0
M  V30 14955 H 1413.65 0.750255 1.67462 0
M  V30 14956 H 1412.03 -0.630108 3.90955 0
M  V30 14957 H 1413.21 2.22617 4.03458 0
M  V30 14958 H 1411.52 1.87171 3.71962 0
M  V30 14959 H 1414.12 -0.394236 5.33245 0
M  V30 14960 H 1414.46 -1.37573 3.92911 0
M  V30 14961 H 1414.99 0.32267 3.96489 0
M  V30 14962 H 1411.73 2.44479 6.08203 0
M  V30 14963 H 1411.25 0.737102 5.95254 0
M  V30 14964 H 1412.93 1.16598 6.36407 0
M  V30 14965 N 1413.06 -1.53996 0.335095 0
M  V30 14966 C 1414.31 -2.01069 -0.264388 0
M  V30 14967 C 1414.64 -1.22271 -1.50876 0
M  V30 14968 O 1413.92 -0.30806 -1.92045 0
M  V30 14969 C 1414.2 -3.55283 -0.587 0
M  V30 14970 C 1414.05 -4.44799 0.668877 0
M  V30 14971 C 1415.37 -4.17238 -1.40003 0
M  V30 14972 H 1412.49 -0.730901 -0.0946202 0
M  V30 14973 H 1415.13 -1.84497 0.453958 0
M  V30 14974 H 1413.28 -3.69536 -1.19899 0
M  V30 14975 H 1414.96 -4.42398 1.30698 0
M  V30 14976 H 1413.2 -4.14005 1.29547 0
M  V30 14977 H 1413.87 -5.5056 0.398523 0
M  V30 14978 H 1416.35 -4.06631 -0.88262 0
M  V30 14979 H 1415.22 -5.2523 -1.59451 0
M  V30 14980 H 1415.48 -3.71309 -2.39962 0
M  V30 14981 N 1414.54 -0.0635198 -1.57472 0
M  V30 14982 C 1415.79 0.607484 -1.93173 0
M  V30 14983 C 1416.12 1.70117 -0.942897 0
M  V30 14984 O 1415.37 1.95653 0.042832 0
M  V30 14985 C 1415.67 1.23117 -3.35525 0
M  V30 14986 C 1415.34 0.264457 -4.50124 0
M  V30 14987 C 1414 -0.00151762 -4.812 0
M  V30 14988 C 1416.35 -0.39737 -5.19683 0
M  V30 14989 C 1413.68 -0.936547 -5.79177 0
M  V30 14990 C 1416.03 -1.32067 -6.18661 0
M  V30 14991 C 1414.69 -1.59519 -6.48159 0
M  V30 14992 H 1413.96 0.222294 -0.706871 0
M  V30 14993 H 1416.61 -0.132633 -1.9104 0
M  V30 14994 H 1414.92 2.04684 -3.34084 0
M  V30 14995 H 1416.61 1.7575 -3.60434 0
M  V30 14996 H 1413.2 0.481945 -4.25882 0
M  V30 14997 H 1417.39 -0.20499 -4.95876 0
M  V30 14998 H 1412.64 -1.15658 -6.00361 0
M  V30 14999 H 1416.82 -1.83949 -6.71666 0
M  V30 15000 H 1414.44 -2.32134 -7.23891 0
M  V30 15001 N 1416.02 1.56195 0.209972 0
M  V30 15002 C 1417.25 1.8384 0.949228 0
M  V30 15003 C 1417.66 0.644141 1.77472 0
M  V30 15004 O 1417.02 -0.387276 1.78344 0
M  V30 15005 C 1417.07 3.10131 1.85745 0
M  V30 15006 O 1416.79 4.2495 1.06531 0
M  V30 15007 C 1418.29 3.50847 2.70963 0
M  V30 15008 H 1415.51 0.610856 0.277662 0
M  V30 15009 H 1418.06 2.03295 0.221708 0
M  V30 15010 H 1416.21 2.92618 2.53877 0
M  V30 15011 H 1416.63 4.96769 1.68287 0
M  V30 15012 H 1418.1 4.4222 3.30372 0
M  V30 15013 H 1418.58 2.73139 3.43936 0
M  V30 15014 H 1419.18 3.7084 2.08226 0
M  V30 15015 N 1417.5 -0.477127 1.50204 0
M  V30 15016 C 1418.46 -1.55824 1.68082 0
M  V30 15017 C 1419.46 -1.51039 0.551719 0
M  V30 15018 O 1420.65 -1.53766 0.818638 0
M  V30 15019 C 1417.78 -2.95462 1.70044 0
M  V30 15020 H 1418.98 -1.41292 2.64531 0
M  V30 15021 H 1416.53 -0.70308 1.39594 0
M  V30 15022 H 1417.26 -3.15445 0.752663 0
M  V30 15023 H 1417.05 -3.00343 2.52065 0
M  V30 15024 H 1418.54 -3.73964 1.85851 0
M  V30 15025 N 1418.98 -1.3968 -0.729882 0
M  V30 15026 C 1420.23 -1.36492 -1.48502 0
M  V30 15027 C 1420.54 0.0346572 -1.95569 0
M  V30 15028 O 1421.74 0.189135 -2.7084 0
M  V30 15029 C 1420.2 -2.39813 -2.68361 0
M  V30 15030 C 1419.81 -3.85511 -2.28222 0
M  V30 15031 C 1421.55 -2.45709 -3.46161 0
M  V30 15032 C 1419.46 -4.80462 -3.44834 0
M  V30 15033 H 1418.39 -0.507455 -0.557679 0
M  V30 15034 H 1421.04 -1.6535 -0.795708 0
M  V30 15035 H 1419.42 -2.04033 -3.39392 0
M  V30 15036 H 1420.6 -4.30359 -1.64704 0
M  V30 15037 H 1418.91 -3.82957 -1.63501 0
M  V30 15038 H 1421.51 -3.1384 -4.32907 0
M  V30 15039 H 1421.85 -1.48318 -3.88983 0
M  V30 15040 H 1422.38 -2.80409 -2.82163 0
M  V30 15041 H 1419.12 -5.79134 -3.07057 0
M  V30 15042 H 1418.64 -4.40289 -4.07315 0
M  V30 15043 H 1420.32 -4.99607 -4.11098 0
M  V30 15044 N 1420.45 0.960609 -1.2494 0
M  V30 15045 C 1421.42 2.03791 -1.04891 0
M  V30 15046 C 1422.42 1.608 -0.00375792 0
M  V30 15047 O 1423.61 1.72463 -0.24539 0
M  V30 15048 C 1420.74 3.35733 -0.591309 0
M  V30 15049 H 1421.93 2.2301 -2.00516 0
M  V30 15050 H 1419.49 1.13686 -1.07263 0
M  V30 15051 H 1420.22 3.22207 0.367816 0
M  V30 15052 H 1420.01 3.68283 -1.34574 0
M  V30 15053 H 1421.5 4.14921 -0.472283 0
M  V30 15054 N 1421.93 1.0643 1.16234 0
M  V30 15055 C 1423.16 0.80148 1.9042 0
M  V30 15056 C 1423.57 -0.648064 1.77755 0
M  V30 15057 O 1422.91 -1.4555 1.12076 0
M  V30 15058 C 1422.98 1.11855 3.41656 0
M  V30 15059 C 1422.64 2.5668 3.78107 0
M  V30 15060 C 1423.64 3.54914 3.79911 0
M  V30 15061 C 1421.32 2.92015 4.08696 0
M  V30 15062 C 1423.32 4.86522 4.11795 0
M  V30 15063 C 1421 4.23823 4.40247 0
M  V30 15064 C 1422 5.20887 4.41776 0
M  V30 15065 O 1421.69 6.50329 4.72575 0
M  V30 15066 H 1421.42 0.290009 0.610632 0
M  V30 15067 H 1423.97 1.42157 1.48258 0
M  V30 15068 H 1422.2 0.441395 3.84173 0
M  V30 15069 H 1423.89 0.839759 3.97118 0
M  V30 15070 H 1424.66 3.28957 3.56388 0
M  V30 15071 H 1420.54 2.17119 4.0667 0
M  V30 15072 H 1424.08 5.62278 4.12903 0
M  V30 15073 H 1419.98 4.49538 4.63235 0
M  V30 15074 H 1420.75 6.55339 4.90381 0
M  V30 15075 N 1423.41 -1.329 0.847073 0
M  V30 15076 C 1424.66 -1.9712 0.445872 0
M  V30 15077 C 1424.98 -1.67398 -1.00014 0
M  V30 15078 O 1424.25 -0.977204 -1.69787 0
M  V30 15079 H 1422.83 -0.729247 0.161887 0
M  V30 15080 H 1425.49 -1.62118 1.08184 0
M  V30 15081 H 1424.59 -3.06575 0.584676 0
M  V30 15082 N 1424.89 -0.604284 -1.45555 0
M  V30 15083 C 1425.85 0.106526 -2.28952 0
M  V30 15084 C 1426.85 0.798277 -1.39586 0
M  V30 15085 O 1428.04 0.646943 -1.61741 0
M  V30 15086 C 1425.17 1.16091 -3.20524 0
M  V30 15087 H 1426.37 -0.626655 -2.9328 0
M  V30 15088 H 1423.92 -0.363183 -1.52022 0
M  V30 15089 H 1424.65 1.92496 -2.6099 0
M  V30 15090 H 1424.44 0.669137 -3.86348 0
M  V30 15091 H 1425.93 1.65882 -3.8324 0
M  V30 15092 N 1426.37 1.53816 -0.343257 0
M  V30 15093 C 1427.3 2.21306 0.556696 0
M  V30 15094 C 1428.28 1.19697 1.10051 0
M  V30 15095 O 1429.46 1.48515 1.16084 0
M  V30 15096 C 1426.59 2.89026 1.76583 0
M  V30 15097 C 1425.63 4.04521 1.35149 0
M  V30 15098 S 1426.47 5.3421 0.37154 0
M  V30 15099 C 1427.62 6.05433 1.58751 0
M  V30 15100 H 1427.86 2.97295 -0.0165367 0
M  V30 15101 H 1425.39 1.53874 -0.127331 0
M  V30 15102 H 1427.35 3.28662 2.45951 0
M  V30 15103 H 1426.01 2.12803 2.31028 0
M  V30 15104 H 1425.2 4.50839 2.25301 0
M  V30 15105 H 1424.8 3.66661 0.737296 0
M  V30 15106 H 1427.1 6.28808 2.52203 0
M  V30 15107 H 1428.04 6.98432 1.16613 0
M  V30 15108 H 1428.45 5.35588 1.78343 0
M  V30 15109 N 1427.84 0.0718701 1.57436 0
M  V30 15110 C 1428.81 -0.880671 2.11605 0
M  V30 15111 C 1429.81 -1.22632 1.0401 0
M  V30 15112 O 1431 -1.15958 1.29997 0
M  V30 15113 C 1428.13 -2.18407 2.61746 0
M  V30 15114 H 1429.32 -0.410712 2.97074 0
M  V30 15115 H 1426.88 -0.176836 1.55296 0
M  V30 15116 H 1427.61 -2.6994 1.79731 0
M  V30 15117 H 1427.4 -1.94616 3.40392 0
M  V30 15118 H 1428.89 -2.86596 3.03731 0
M  V30 15119 N 1429.32 -1.56304 -0.201686 0
M  V30 15120 C 1430.57 -1.79433 -0.921241 0
M  V30 15121 C 1430.88 -0.643943 -1.84696 0
M  V30 15122 O 1432.09 -0.759359 -2.60665 0
M  V30 15123 C 1430.55 -3.17835 -1.68846 0
M  V30 15124 C 1430.15 -4.40655 -0.807892 0
M  V30 15125 C 1431.9 -3.50277 -2.39805 0
M  V30 15126 C 1429.81 -5.7008 -1.5736 0
M  V30 15127 H 1428.74 -0.669029 -0.34773 0
M  V30 15128 H 1431.39 -1.82667 -0.174657 0
M  V30 15129 H 1429.77 -3.08832 -2.47869 0
M  V30 15130 H 1430.94 -4.60765 -0.0567923 0
M  V30 15131 H 1429.26 -4.15873 -0.209465 0
M  V30 15132 H 1431.85 -4.44207 -2.97631 0
M  V30 15133 H 1432.2 -2.7371 -3.1367 0
M  V30 15134 H 1432.73 -3.60698 -1.67754 0
M  V30 15135 H 1429.47 -6.49595 -0.877855 0
M  V30 15136 H 1428.99 -5.53999 -2.2988 0
M  V30 15137 H 1430.67 -6.10964 -2.12912 0
M  V30 15138 N 1430.8 0.469154 -1.50455 0
M  V30 15139 C 1432.05 1.21868 -1.61222 0
M  V30 15140 C 1432.37 1.9243 -0.315535 0
M  V30 15141 O 1431.64 1.84192 0.667083 0
M  V30 15142 H 1430.22 0.452828 -0.594101 0
M  V30 15143 H 1432.88 0.540993 -1.87241 0
M  V30 15144 H 1431.98 1.96554 -2.42431 0
M  V30 15145 N 1432.28 1.40065 0.722464 0
M  V30 15146 C 1433.19 1.42086 1.86678 0
M  V30 15147 C 1434.2 0.314223 1.71139 0
M  V30 15148 O 1435.38 0.55771 1.93524 0
M  V30 15149 C 1432.45 1.27498 3.22405 0
M  V30 15150 C 1431.51 2.48243 3.50248 0
M  V30 15151 C 1430.74 2.34342 4.79499 0
M  V30 15152 O 1430.96 1.35355 5.54108 0
M  V30 15153 O 1429.9 3.23579 5.07523 0
M  V30 15154 H 1433.72 2.38571 1.87929 0
M  V30 15155 H 1431.31 1.21314 0.871968 0
M  V30 15156 H 1433.19 1.21543 4.03491 0
M  V30 15157 H 1431.86 0.341141 3.21897 0
M  V30 15158 H 1430.77 2.59775 2.69199 0
M  V30 15159 H 1432.1 3.40364 3.55547 0
M  V30 15160 N 1433.76 -0.95397 1.25448 0
M  V30 15161 C 1434.99 -1.73331 1.12977 0
M  V30 15162 C 1435.4 -1.86131 -0.316364 0
M  V30 15163 O 1434.76 -1.35951 -1.21753 0
M  V30 15164 C 1434.81 -3.14675 1.77938 0
M  V30 15165 O 1434.53 -3.025 3.16899 0
M  V30 15166 C 1436.03 -4.08884 1.71256 0
M  V30 15167 H 1433.25 -0.543118 0.394036 0
M  V30 15168 H 1435.79 -1.19678 1.65823 0
M  V30 15169 H 1433.95 -3.6527 1.29062 0
M  V30 15170 H 1434.36 -3.91668 3.4885 0
M  V30 15171 H 1435.84 -5.05668 2.21368 0
M  V30 15172 H 1436.31 -4.33959 0.676476 0
M  V30 15173 H 1436.92 -3.64205 2.19624 0
M  V30 15174 N 1435.24 -1.07045 -1.15668 0
M  V30 15175 C 1436.17 -0.709413 -2.22463 0
M  V30 15176 C 1437.15 0.30169 -1.67403 0
M  V30 15177 O 1438.33 0.175131 -1.93409 0
M  V30 15178 C 1435.46 -0.103121 -3.47147 0
M  V30 15179 C 1434.42 -1.04103 -4.15146 0
M  V30 15180 C 1433.74 -0.297656 -5.33871 0
M  V30 15181 C 1435.04 -2.37332 -4.65264 0
M  V30 15182 H 1436.74 -1.60227 -2.52918 0
M  V30 15183 H 1434.28 -0.771846 -1.21567 0
M  V30 15184 H 1436.23 0.161371 -4.21091 0
M  V30 15185 H 1434.96 0.824792 -3.16014 0
M  V30 15186 H 1433.62 -1.2904 -3.43139 0
M  V30 15187 H 1433.27 0.633618 -4.98993 0
M  V30 15188 H 1432.97 -0.922789 -5.80309 0
M  V30 15189 H 1434.49 -0.0408892 -6.10586 0
M  V30 15190 H 1435.9 -2.1674 -5.30751 0
M  V30 15191 H 1434.3 -2.95412 -5.22352 0
M  V30 15192 H 1435.37 -2.99859 -3.81068 0
M  V30 15193 N 1436.71 1.32449 -0.85411 0
M  V30 15194 C 1437.96 1.97563 -0.4579 0
M  V30 15195 C 1438.29 1.67435 0.983835 0
M  V30 15196 O 1437.57 0.962292 1.69027 0
M  V30 15197 C 1437.85 3.53292 -0.69688 0
M  V30 15198 C 1437.7 3.93053 -2.18699 0
M  V30 15199 C 1439.02 4.39834 -0.152917 0
M  V30 15200 H 1436.14 0.717634 -0.167842 0
M  V30 15201 H 1438.78 1.5684 -1.07243 0
M  V30 15202 H 1436.93 3.88111 -0.173807 0
M  V30 15203 H 1438.61 3.68416 -2.7761 0
M  V30 15204 H 1436.85 3.42232 -2.6657 0
M  V30 15205 H 1437.52 5.01576 -2.3049 0
M  V30 15206 H 1440 4.11748 -0.600216 0
M  V30 15207 H 1438.87 5.47785 -0.349703 0
M  V30 15208 H 1439.13 4.31898 0.944276 0
M  V30 15209 N 1438.19 0.611994 1.45232 0
M  V30 15210 C 1439.12 -0.0914869 2.33321 0
M  V30 15211 C 1440.1 -0.854315 1.4709 0
M  V30 15212 O 1441.29 -0.823994 1.75852 0
M  V30 15213 C 1438.42 -1.08652 3.29867 0
M  V30 15214 C 1437.37 -0.436615 4.25767 0
M  V30 15215 C 1436.7 -1.54021 5.12037 0
M  V30 15216 C 1438 0.645005 5.18302 0
M  V30 15217 H 1439.69 0.644053 2.92391 0
M  V30 15218 H 1437.24 0.311171 1.40598 0
M  V30 15219 H 1439.19 -1.58726 3.90364 0
M  V30 15220 H 1437.91 -1.85271 2.68965 0
M  V30 15221 H 1436.57 0.0432918 3.66574 0
M  V30 15222 H 1436.22 -2.29679 4.475 0
M  V30 15223 H 1435.92 -1.11084 5.77005 0
M  V30 15224 H 1437.45 -2.04313 5.75403 0
M  V30 15225 H 1438.86 0.228166 5.72846 0
M  V30 15226 H 1437.26 0.996387 5.9177 0
M  V30 15227 H 1438.33 1.51985 4.60466 0
M  V30 15228 N 1439.67 -1.53632 0.351409 0
M  V30 15229 C 1440.63 -2.23916 -0.489293 0
M  V30 15230 C 1441.63 -1.24207 -1.02124 0
M  V30 15231 O 1442.82 -1.48589 -0.909235 0
M  V30 15232 C 1439.95 -2.96492 -1.68242 0
M  V30 15233 H 1441.15 -2.99637 0.125518 0
M  V30 15234 H 1438.7 -1.55961 0.102874 0
M  V30 15235 H 1439.44 -2.24978 -2.33571 0
M  V30 15236 H 1439.22 -3.69637 -1.3081 0
M  V30 15237 H 1440.71 -3.49961 -2.27853 0
M  V30 15238 N 1441.15 -0.0802183 -1.57396 0
M  V30 15239 C 1442.56 0.451183 -1.81166 0
M  V30 15240 C 1442.91 1.69112 -0.994764 0
M  V30 15241 O 1442.03 2.15281 -0.219739 0
M  V30 15242 C 1442.63 0.825324 -3.28594 0
M  V30 15243 C 1441.19 1.30154 -3.53181 0
M  V30 15244 C 1440.34 0.290846 -2.75771 0
M  V30 15245 H 1443.29 -0.305829 -1.55725 0
M  V30 15246 H 1443.31 1.68608 -3.41104 0
M  V30 15247 H 1442.82 -0.0773119 -3.88023 0
M  V30 15248 H 1440.92 2.22239 -2.99066 0
M  V30 15249 H 1441.03 1.27365 -4.6186 0
M  V30 15250 H 1439.4 0.769894 -2.42785 0
M  V30 15251 H 1440.18 -0.604209 -3.37941 0
M  V30 15252 N 1442.63 1.56409 0.193394 0
M  V30 15253 C 1443.54 1.97886 1.26009 0
M  V30 15254 C 1444.55 0.886786 1.49707 0
M  V30 15255 O 1445.73 1.19267 1.62288 0
M  V30 15256 C 1442.79 2.31145 2.58404 0
M  V30 15257 C 1441.85 3.54069 2.42763 0
M  V30 15258 C 1441.09 3.85732 3.68845 0
M  V30 15259 O 1441.31 3.18662 4.73086 0
M  V30 15260 O 1440.24 4.79155 3.64272 0
M  V30 15261 H 1444.07 2.88849 0.938087 0
M  V30 15262 H 1441.65 1.43987 0.398528 0
M  V30 15263 H 1443.54 2.53606 3.36544 0
M  V30 15264 H 1442.21 1.4335 2.90228 0
M  V30 15265 H 1441.12 3.36854 1.62728 0
M  V30 15266 H 1442.45 4.42335 2.15871 0
M  V30 15267 N 1444.1 -0.461169 1.50702 0
M  V30 15268 C 1445.33 -1.23375 1.65717 0
M  V30 15269 C 1445.74 -1.86047 0.343992 0
M  V30 15270 O 1445.08 -1.70447 -0.68508 0
M  V30 15271 C 1445.15 -2.3758 2.69808 0
M  V30 15272 C 1444.81 -1.95467 4.13088 0
M  V30 15273 C 1445.81 -1.47154 4.9864 0
M  V30 15274 C 1443.49 -2.03885 4.5906 0
M  V30 15275 C 1445.49 -1.07815 6.28215 0
M  V30 15276 C 1443.17 -1.64157 5.88639 0
M  V30 15277 C 1444.17 -1.16201 6.73043 0
M  V30 15278 O 1443.86 -0.770282 8.00201 0
M  V30 15279 H 1443.59 -0.378885 0.559841 0
M  V30 15280 H 1446.15 -0.555712 1.9774 0
M  V30 15281 H 1444.38 -3.08586 2.33049 0
M  V30 15282 H 1446.06 -2.99517 2.73942 0
M  V30 15283 H 1446.83 -1.40064 4.64335 0
M  V30 15284 H 1442.71 -2.40159 3.93503 0
M  V30 15285 H 1446.25 -0.703139 6.94047 0
M  V30 15286 H 1442.15 -1.70909 6.22463 0
M  V30 15287 H 1442.92 -0.898254 8.13556 0
M  V30 15288 N 1445.58 -1.40446 -0.715026 0
M  V30 15289 C 1446.81 -1.42263 -1.50917 0
M  V30 15290 C 1447.23 -0.0242402 -1.88084 0
M  V30 15291 O 1446.59 0.967817 -1.53307 0
M  V30 15292 C 1446.64 -2.31998 -2.7606 0
M  V30 15293 O 1445.74 -1.76361 -3.72787 0
M  V30 15294 H 1445.08 -0.483614 -0.454988 0
M  V30 15295 H 1447.61 -1.84682 -0.880549 0
M  V30 15296 H 1447.62 -2.47204 -3.24583 0
M  V30 15297 H 1446.3 -3.33614 -2.48343 0
M  V30 15298 H 1444.87 -1.70504 -3.31636 0
M  V30 15299 N 1447.06 0.947303 -1.25952 0
M  V30 15300 C 1448.01 2.04511 -1.06976 0
M  V30 15301 C 1448.98 1.66084 0.023347 0
M  V30 15302 O 1450.16 1.9032 -0.135247 0
M  V30 15303 C 1447.3 3.37878 -0.70232 0
M  V30 15304 C 1446.41 3.89379 -1.87105 0
M  V30 15305 C 1445.55 5.11104 -1.44728 0
M  V30 15306 C 1444.59 5.54852 -2.58469 0
M  V30 15307 N 1443.73 6.67784 -2.16817 0
M  V30 15308 H 1448.57 2.20075 -2.00925 0
M  V30 15309 H 1446.1 1.07837 -1.00048 0
M  V30 15310 H 1448.06 4.14542 -0.470199 0
M  V30 15311 H 1446.69 3.22179 0.20019 0
M  V30 15312 H 1445.74 3.09169 -2.21627 0
M  V30 15313 H 1447.05 4.17789 -2.72496 0
M  V30 15314 H 1446.21 5.95208 -1.17525 0
M  V30 15315 H 1444.95 4.84426 -0.564191 0
M  V30 15316 H 1443.95 4.69308 -2.86409 0
M  V30 15317 H 1445.18 5.83534 -3.47368 0
M  V30 15318 H 1443.12 6.428 -1.30934 0
M  V30 15319 H 1443.04 6.95749 -2.95753 0
M  V30 15320 H 1444.31 7.55278 -1.92809 0
M  V30 15321 N 1448.54 1.07657 1.15099 0
M  V30 15322 C 1449.5 0.703558 2.18135 0
M  V30 15323 C 1450.5 -0.257771 1.5872 0
M  V30 15324 O 1451.69 -0.0383211 1.74158 0
M  V30 15325 C 1448.82 0.0374978 3.40879 0
M  V30 15326 H 1450.02 1.61583 2.52648 0
M  V30 15327 H 1447.57 0.873484 1.29615 0
M  V30 15328 H 1448.3 -0.886868 3.11938 0
M  V30 15329 H 1448.09 0.728961 3.85264 0
M  V30 15330 H 1449.58 -0.208714 4.17078 0
M  V30 15331 N 1450.02 -1.31994 0.861122 0
M  V30 15332 C 1450.96 -2.28729 0.308476 0
M  V30 15333 C 1451.93 -1.55338 -0.588148 0
M  V30 15334 O 1453.12 -1.8353 -0.52168 0
M  V30 15335 C 1450.26 -3.4158 -0.491621 0
M  V30 15336 C 1449.37 -4.29839 0.431522 0
M  V30 15337 C 1448.51 -5.29826 -0.381836 0
M  V30 15338 C 1447.55 -6.09728 0.538296 0
M  V30 15339 N 1446.68 -7.01696 -0.238274 0
M  V30 15340 H 1451.52 -2.75389 1.13863 0
M  V30 15341 H 1449.06 -1.35485 0.572911 0
M  V30 15342 H 1451.02 -4.05738 -0.971193 0
M  V30 15343 H 1449.65 -2.96054 -1.28654 0
M  V30 15344 H 1448.7 -3.66204 1.02951 0
M  V30 15345 H 1450.01 -4.85658 1.13742 0
M  V30 15346 H 1449.17 -5.99618 -0.924297 0
M  V30 15347 H 1447.9 -4.7464 -1.12107 0
M  V30 15348 H 1446.91 -5.38834 1.09259 0
M  V30 15349 H 1448.13 -6.67 1.27625 0
M  V30 15350 H 1446.08 -6.4893 -0.960486 0
M  V30 15351 H 1446 -7.54896 0.408466 0
M  V30 15352 H 1447.27 -7.75764 -0.762252 0
M  V30 15353 N 1451.49 -0.619688 -1.44906 0
M  V30 15354 C 1452.72 -0.124598 -2.07025 0
M  V30 15355 C 1453.14 1.18698 -1.45919 0
M  V30 15356 O 1452.5 1.72552 -0.556366 0
M  V30 15357 C 1452.55 -0.0112238 -3.60598 0
M  V30 15358 O 1451.65 1.03582 -3.9918 0
M  V30 15359 H 1451 -0.0795631 -0.659216 0
M  V30 15360 H 1453.53 -0.853127 -1.85965 0
M  V30 15361 H 1453.54 0.183079 -4.07589 0
M  V30 15362 H 1452.21 -0.968849 -4.04458 0
M  V30 15363 H 1450.79 0.817008 -3.6384 0
M  V30 15364 N 1452.97 1.53444 -0.359552 0
M  V30 15365 C 1454.22 2.00769 0.231564 0
M  V30 15366 C 1454.54 1.2487 1.49775 0
M  V30 15367 O 1453.81 0.360284 1.92558 0
M  V30 15368 H 1452.39 0.741732 0.0885581 0
M  V30 15369 H 1455.05 1.88785 -0.484397 0
M  V30 15370 H 1454.15 3.0865 0.462789 0
M  V30 15371 N 1454.45 0.0885642 1.57351 0
M  V30 15372 C 1455.41 -0.858178 2.12528 0
M  V30 15373 C 1456.41 -1.21522 1.05304 0
M  V30 15374 O 1457.6 -1.14573 1.3122 0
M  V30 15375 C 1454.74 -2.15619 2.64048 0
M  V30 15376 H 1455.93 -0.37918 2.97493 0
M  V30 15377 H 1453.48 -0.160354 1.55475 0
M  V30 15378 H 1454.22 -2.68018 1.82584 0
M  V30 15379 H 1454 -1.90995 3.42437 0
M  V30 15380 H 1455.49 -2.83359 3.06753 0
M  V30 15381 N 1455.93 -1.56509 -0.185096 0
M  V30 15382 C 1456.89 -1.94468 -1.21305 0
M  V30 15383 C 1457.89 -0.826838 -1.37913 0
M  V30 15384 O 1459.08 -1.09411 -1.35554 0
M  V30 15385 C 1456.21 -2.22747 -2.58063 0
M  V30 15386 H 1457.41 -2.86442 -0.888323 0
M  V30 15387 H 1454.96 -1.50354 -0.427012 0
M  V30 15388 H 1455.69 -1.33443 -2.95573 0
M  V30 15389 H 1455.48 -3.04215 -2.47378 0
M  V30 15390 H 1456.97 -2.53084 -3.32172 0
M  V30 15391 N 1457.41 0.45317 -1.50944 0
M  V30 15392 C 1458.36 1.54689 -1.67498 0
M  V30 15393 C 1459.34 1.51949 -0.529193 0
M  V30 15394 O 1460.53 1.58669 -0.784415 0
M  V30 15395 C 1457.66 2.93006 -1.78892 0
M  V30 15396 C 1456.75 3.00562 -2.99204 0
M  V30 15397 N 1457.14 2.77893 -4.22621 0
M  V30 15398 C 1455.44 3.31712 -2.98132 0
M  V30 15399 C 1456.14 2.90882 -5.03749 0
M  V30 15400 N 1455.11 3.21866 -4.38068 0
M  V30 15401 H 1458.92 1.35889 -2.60598 0
M  V30 15402 H 1456.43 0.660219 -1.48374 0
M  V30 15403 H 1458.43 3.71669 -1.88858 0
M  V30 15404 H 1457.09 3.12838 -0.869626 0
M  V30 15405 H 1458.1 2.53126 -4.51827 0
M  V30 15406 H 1454.77 3.57419 -2.15773 0
M  V30 15407 H 1456.16 2.77444 -6.11943 0
M  V30 15408 N 1458.88 1.40823 0.707568 0
M  V30 15409 C 1459.81 1.44485 1.83429 0
M  V30 15410 C 1460.8 0.304848 1.67346 0
M  V30 15411 O 1461.98 0.514605 1.87258 0
M  V30 15412 C 1459.11 1.31458 3.21459 0
M  V30 15413 C 1458.06 2.43145 3.52228 0
M  V30 15414 C 1457.39 2.15189 4.89487 0
M  V30 15415 C 1458.69 3.85489 3.52414 0
M  V30 15416 H 1460.38 2.38781 1.80622 0
M  V30 15417 H 1457.93 1.14931 0.867572 0
M  V30 15418 H 1459.88 1.32635 3.99983 0
M  V30 15419 H 1458.61 0.336422 3.24863 0
M  V30 15420 H 1457.27 2.41231 2.76049 0
M  V30 15421 H 1456.91 1.15745 4.89502 0
M  V30 15422 H 1456.61 2.90022 5.11039 0
M  V30 15423 H 1458.14 2.18062 5.70334 0
M  V30 15424 H 1459.55 3.89183 4.20963 0
M  V30 15425 H 1457.95 4.59906 3.85495 0
M  V30 15426 H 1459.02 4.14499 2.51632 0
M  V30 15427 N 1460.36 -0.94061 1.26453 0
M  V30 15428 C 1461.61 -1.68687 1.12031 0
M  V30 15429 C 1461.94 -1.91571 -0.336252 0
M  V30 15430 O 1461.19 -1.49458 -1.26336 0
M  V30 15431 C 1461.49 -3.06683 1.83521 0
M  V30 15432 C 1461.16 -3.03553 3.33416 0
M  V30 15433 C 1459.82 -3.02407 3.74304 0
M  V30 15434 C 1462.17 -2.95817 4.29118 0
M  V30 15435 C 1459.5 -2.9129 5.09281 0
M  V30 15436 C 1461.85 -2.86242 5.64135 0
M  V30 15437 C 1460.52 -2.83438 6.04333 0
M  V30 15438 H 1459.79 -0.61727 0.40995 0
M  V30 15439 H 1462.43 -1.0979 1.56902 0
M  V30 15440 H 1460.74 -3.69208 1.31121 0
M  V30 15441 H 1462.43 -3.63274 1.69802 0
M  V30 15442 H 1459.02 -3.05226 3.00891 0
M  V30 15443 H 1463.21 -2.9581 3.9851 0
M  V30 15444 H 1458.46 -2.87498 5.39588 0
M  V30 15445 H 1462.64 -2.79219 6.37973 0
M  V30 15446 H 1460.27 -2.74581 7.08879 0
M  V30 15447 N 1461.84 -1.08266 -1.14527 0
M  V30 15448 C 1462.8 -0.715117 -2.17758 0
M  V30 15449 C 1463.8 0.24935 -1.58855 0
M  V30 15450 O 1464.99 0.0290846 -1.74176 0
M  V30 15451 C 1462.13 -0.055575 -3.40855 0
M  V30 15452 H 1463.32 -1.62921 -2.51787 0
M  V30 15453 H 1460.87 -0.880346 -1.2915 0
M  V30 15454 H 1461.61 0.870312 -3.12404 0
M  V30 15455 H 1461.39 -0.749382 -3.84872 0
M  V30 15456 H 1462.88 0.186592 -4.17183 0
M  V30 15457 N 1463.32 1.31536 -0.86811 0
M  V30 15458 C 1464.25 2.31037 -0.33822 0
M  V30 15459 C 1465.23 1.60269 0.569892 0
M  V30 15460 O 1466.42 1.87987 0.487305 0
M  V30 15461 C 1463.55 3.44203 0.462753 0
M  V30 15462 C 1462.5 4.26549 -0.3521 0
M  V30 15463 C 1461.83 5.31605 0.574443 0
M  V30 15464 C 1463.13 4.97665 -1.58516 0
M  V30 15465 H 1464.82 2.75607 -1.16967 0
M  V30 15466 H 1462.37 1.325 -0.56389 0
M  V30 15467 H 1464.32 4.12862 0.843967 0
M  V30 15468 H 1463.04 2.98396 1.32769 0
M  V30 15469 H 1461.7 3.59555 -0.715237 0
M  V30 15470 H 1461.35 4.82048 1.43661 0
M  V30 15471 H 1461.05 5.87591 0.0331436 0
M  V30 15472 H 1462.57 6.03124 0.952541 0
M  V30 15473 H 1463.99 5.58931 -1.27549 0
M  V30 15474 H 1462.38 5.63437 -2.06539 0
M  V30 15475 H 1463.45 4.24756 -2.33902 0
M  V30 15476 N 1464.8 0.627364 1.44575 0
M  V30 15477 C 1465.73 -0.066735 2.33405 0
M  V30 15478 C 1466.71 -0.838666 1.47988 0
M  V30 15479 O 1467.89 -0.805296 1.76716 0
M  V30 15480 C 1465.02 -1.05148 3.31 0
M  V30 15481 C 1463.98 -0.391433 4.26206 0
M  V30 15482 C 1463.3 -1.48581 5.13642 0
M  V30 15483 C 1464.6 0.699942 5.17589 0
M  V30 15484 H 1466.3 0.675029 2.91691 0
M  V30 15485 H 1463.84 0.326066 1.4026 0
M  V30 15486 H 1465.8 -1.54576 3.92026 0
M  V30 15487 H 1464.52 -1.82408 2.70915 0
M  V30 15488 H 1463.18 0.0821694 3.66508 0
M  V30 15489 H 1462.83 -2.2492 4.49911 0
M  V30 15490 H 1462.53 -1.04957 5.7815 0
M  V30 15491 H 1464.05 -1.98198 5.77538 0
M  V30 15492 H 1465.47 0.288911 5.72572 0
M  V30 15493 H 1463.86 1.0591 5.9068 0
M  V30 15494 H 1464.93 1.5686 4.58828 0
M  V30 15495 N 1466.28 -1.53251 0.367684 0
M  V30 15496 C 1467.19 -2.29518 -0.485669 0
M  V30 15497 C 1468.2 -1.35568 -1.09075 0
M  V30 15498 O 1469.38 -1.68626 -1.10124 0
M  V30 15499 C 1466.44 -3.07115 -1.60876 0
M  V30 15500 C 1465.5 -4.16736 -1.031 0
M  V30 15501 C 1464.74 -4.90624 -2.10056 0
M  V30 15502 O 1464.96 -4.64393 -3.31203 0
M  V30 15503 O 1463.89 -5.76503 -1.72996 0
M  V30 15504 H 1467.72 -3.034 0.135017 0
M  V30 15505 H 1465.3 -1.48816 0.132005 0
M  V30 15506 H 1467.19 -3.55564 -2.26168 0
M  V30 15507 H 1465.86 -2.36068 -2.21481 0
M  V30 15508 H 1464.77 -3.72534 -0.341928 0
M  V30 15509 H 1466.1 -4.89956 -0.469473 0
M  V30 15510 N 1467.75 -0.0969077 -1.57302 0
M  V30 15511 C 1468.7 0.861379 -2.14124 0
M  V30 15512 C 1469.67 1.27858 -1.06026 0
M  V30 15513 O 1470.86 1.36001 -1.33822 0
M  V30 15514 C 1468 2.11443 -2.72738 0
M  V30 15515 C 1467.11 1.7476 -3.95074 0
M  V30 15516 C 1466.24 2.94864 -4.41847 0
M  V30 15517 C 1465.28 2.54316 -5.56767 0
M  V30 15518 N 1464.42 3.67261 -5.98384 0
M  V30 15519 H 1469.26 0.369968 -2.95694 0
M  V30 15520 H 1466.8 0.170943 -1.46103 0
M  V30 15521 H 1468.75 2.84829 -3.04842 0
M  V30 15522 H 1467.38 2.5808 -1.93893 0
M  V30 15523 H 1466.44 0.91335 -3.69272 0
M  V30 15524 H 1467.75 1.40946 -4.78472 0
M  V30 15525 H 1466.9 3.76501 -4.75744 0
M  V30 15526 H 1465.64 3.31889 -3.57352 0
M  V30 15527 H 1464.65 1.71106 -5.22497 0
M  V30 15528 H 1465.87 2.18432 -6.43012 0
M  V30 15529 H 1463.82 4.04001 -5.16836 0
M  V30 15530 H 1463.73 3.37298 -6.76584 0
M  V30 15531 H 1465 4.49403 -6.36912 0
M  V30 15532 N 1469.23 1.56605 0.176793 0
M  V30 15533 C 1470.18 1.95985 1.21896 0
M  V30 15534 C 1471.15 0.822983 1.44278 0
M  V30 15535 O 1472.33 1.08266 1.57109 0
M  V30 15536 C 1469.47 2.32029 2.55454 0
M  V30 15537 C 1468.59 3.58867 2.40497 0
M  V30 15538 C 1467.72 3.84148 3.66884 0
M  V30 15539 C 1466.76 5.04352 3.46837 0
M  V30 15540 N 1465.9 5.25794 4.6528 0
M  V30 15541 H 1470.74 2.84829 0.876137 0
M  V30 15542 H 1468.27 1.4094 0.421221 0
M  V30 15543 H 1470.23 2.50947 3.33289 0
M  V30 15544 H 1468.86 1.46301 2.87743 0
M  V30 15545 H 1467.91 3.47893 1.53866 0
M  V30 15546 H 1469.23 4.46859 2.21627 0
M  V30 15547 H 1468.38 4.03404 4.53155 0
M  V30 15548 H 1467.12 2.9452 3.88727 0
M  V30 15549 H 1466.12 4.84999 2.58952 0
M  V30 15550 H 1467.35 5.95505 3.26421 0
M  V30 15551 H 1465.3 4.39117 4.87352 0
M  V30 15552 H 1465.21 6.07999 4.49303 0
M  V30 15553 H 1466.48 5.49524 5.5285 0
M  V30 15554 N 1470.71 -0.445159 1.51182 0
M  V30 15555 C 1472.12 -1.02528 1.56028 0
M  V30 15556 C 1472.47 -1.92503 0.379087 0
M  V30 15557 O 1471.6 -2.10424 -0.505056 0
M  V30 15558 C 1472.19 -1.86621 2.82768 0
M  V30 15559 C 1470.75 -2.39697 2.90211 0
M  V30 15560 C 1469.9 -1.18705 2.50608 0
M  V30 15561 H 1472.85 -0.226732 1.57072 0
M  V30 15562 H 1472.87 -2.71987 2.66089 0
M  V30 15563 H 1472.38 -1.2111 3.68719 0
M  V30 15564 H 1470.48 -3.08686 2.08672 0
M  V30 15565 H 1470.6 -2.73029 3.9369 0
M  V30 15566 H 1468.96 -1.52995 2.03629 0
M  V30 15567 H 1469.74 -0.548156 3.38895 0
M  V30 15568 N 1472.19 -1.41197 -0.700089 0
M  V30 15569 C 1473.14 -1.42885 -1.83539 0
M  V30 15570 C 1474.13 -0.307431 -1.66587 0
M  V30 15571 O 1475.34 -0.479238 -1.73503 0
M  V30 15572 H 1471.71 -0.446973 -0.604747 0
M  V30 15573 H 1473.68 -2.38576 -1.79231 0
M  V30 15574 C 1472.43 -1.3235 -3.21526 0
M  V30 15575 H 1471.75 -2.17926 -3.35184 0
M  V30 15576 H 1473.19 -1.37592 -4.01054 0
M  V30 15577 C 1471.65 -0.0353528 -3.36881 0
M  V30 15578 O 1472.18 0.921676 -3.90983 0
M  V30 15579 N 1470.39 0.0392479 -2.90573 0
M  V30 15580 H 1469.94 -0.740299 -2.46733 0
M  V30 15581 H 1469.89 0.900559 -3.01226 0
M  V30 15582 N 1473.67 0.933891 -1.2695 0
M  V30 15583 C 1474.91 1.67539 -1.1231 0
M  V30 15584 C 1475.23 1.92765 0.331788 0
M  V30 15585 O 1476.43 2.6481 0.598983 0
M  V30 15586 C 1474.89 3.01722 -1.96194 0
M  V30 15587 C 1474.5 2.84216 -3.46302 0
M  V30 15588 C 1476.24 3.79513 -1.90185 0
M  V30 15589 C 1474.15 4.13916 -4.22407 0
M  V30 15590 H 1473.08 0.62839 -0.416704 0
M  V30 15591 H 1475.73 1.03801 -1.5132 0
M  V30 15592 H 1474.11 3.66482 -1.50023 0
M  V30 15593 H 1475.29 2.28261 -4.00292 0
M  V30 15594 H 1473.6 2.1986 -3.53625 0
M  V30 15595 H 1476.2 4.75615 -2.44325 0
M  V30 15596 H 1476.54 4.07019 -0.874129 0
M  V30 15597 H 1477.07 3.21539 -2.34217 0
M  V30 15598 H 1473.81 3.91591 -5.25677 0
M  V30 15599 H 1473.33 4.69558 -3.73196 0
M  V30 15600 H 1475.01 4.82322 -4.31248 0
M  V30 15601 N 1475.14 1.08871 1.13951 0
M  V30 15602 C 1476.42 0.73388 1.81311 0
M  V30 15603 C 1476.8 -0.781824 1.96089 0
M  V30 15604 O 1476.15 -1.70211 1.52448 0
M  V30 15605 C 1476.36 1.46631 3.16702 0
M  V30 15606 C 1477.71 1.62843 3.92132 0
M  V30 15607 O 1478.73 1.42836 3.26307 0
M  V30 15608 O 1477.59 1.95893 5.10185 0
M  V30 15609 H 1474.68 0.262976 0.784074 0
M  V30 15610 H 1477.23 1.19057 1.20927 0
M  V30 15611 H 1476 2.49863 3.01138 0
M  V30 15612 H 1475.62 1.00141 3.84782 0
M  V30 15613 N 1476.62 -1.31073 0.875073 0
M  V30 15614 C 1477.85 -2.01223 0.502383 0
M  V30 15615 C 1478.27 -1.65223 -0.899053 0
M  V30 15616 O 1477.63 -0.863559 -1.59412 0
M  V30 15617 C 1477.68 -3.54269 0.672747 0
M  V30 15618 O 1476.78 -4.11409 -0.285718 0
M  V30 15619 H 1476.12 -0.633422 0.199181 0
M  V30 15620 H 1478.65 -1.67152 1.17989 0
M  V30 15621 H 1478.66 -4.04027 0.567973 0
M  V30 15622 H 1477.34 -3.79811 1.69459 0
M  V30 15623 H 1475.91 -3.72654 -0.135472 0
M  V30 15624 N 1478.1 -0.635022 -1.4424 0
M  V30 15625 C 1479.52 -0.300978 -1.56736 0
M  V30 15626 C 1479.72 1.19571 -1.62188 0
M  V30 15627 O 1478.77 1.97991 -1.56703 0
M  V30 15628 C 1480.09 -0.996327 -2.83714 0
M  V30 15629 C 1481.63 -0.97484 -2.97432 0
M  V30 15630 C 1482.11 -1.65073 -4.27218 0
M  V30 15631 N 1483.6 -1.6175 -4.3404 0
M  V30 15632 C 1484.33 -2.10938 -5.33191 0
M  V30 15633 N 1483.83 -2.68333 -6.38725 0
M  V30 15634 N 1485.62 -2.01544 -5.24725 0
M  V30 15635 H 1477.77 -1.60649 -1.38945 0
M  V30 15636 H 1480.04 -0.674561 -0.666087 0
M  V30 15637 H 1479.74 -2.05128 -2.85684 0
M  V30 15638 H 1479.62 -0.536511 -3.73365 0
M  V30 15639 H 1482 0.071646 -2.95013 0
M  V30 15640 H 1482.09 -1.47318 -2.0912 0
M  V30 15641 H 1481.73 -2.69669 -4.30397 0
M  V30 15642 H 1481.66 -1.12719 -5.14395 0
M  V30 15643 H 1484.15 -1.1985 -3.58392 0
M  V30 15644 H 1484.46 -3.03588 -7.10672 0
M  V30 15645 H 1482.81 -2.72385 -6.39399 0
M  V30 15646 H 1486 -1.56423 -4.41191 0
M  V30 15647 H 1486.17 -2.40187 -6.01842 0
M  V30 15648 N 1479.58 1.53054 -0.375806 0
M  V30 15649 C 1480.8 2.06296 0.213708 0
M  V30 15650 C 1481.23 1.24675 1.40846 0
M  V30 15651 O 1480.59 0.268371 1.79303 0
M  V30 15652 C 1480.63 3.55981 0.575301 0
M  V30 15653 O 1479.74 3.77023 1.67115 0
M  V30 15654 H 1479.08 0.66338 0.0286922 0
M  V30 15655 H 1481.61 1.97362 -0.539371 0
M  V30 15656 H 1481.62 3.99187 0.843431 0
M  V30 15657 H 1480.29 4.14829 -0.298258 0
M  V30 15658 H 1478.87 3.45712 1.39778 0
M  V30 15659 N 1481.06 0.105248 1.57248 0
M  V30 15660 C 1481.99 -0.880221 2.11624 0
M  V30 15661 C 1483 -1.23924 1.05578 0
M  V30 15662 O 1484.19 -1.19059 1.32994 0
M  V30 15663 C 1481.29 -2.18628 2.5895 0
M  V30 15664 C 1480.46 -2.00105 3.88943 0
M  V30 15665 C 1479.52 -3.14315 4.2201 0
M  V30 15666 O 1478.55 -2.87832 4.91061 0
M  V30 15667 N 1479.75 -4.4037 3.78226 0
M  V30 15668 H 1482.52 -0.415742 2.96802 0
M  V30 15669 H 1480.08 -0.0795714 1.61704 0
M  V30 15670 H 1482.07 -2.94002 2.7811 0
M  V30 15671 H 1480.64 -2.56467 1.78727 0
M  V30 15672 H 1479.86 -1.09003 3.7883 0
M  V30 15673 H 1481.15 -1.85018 4.73968 0
M  V30 15674 H 1480.54 -4.64765 3.22506 0
M  V30 15675 H 1479.1 -5.1266 4.02521 0
M  V30 15676 N 1482.53 -1.56697 -0.168486 0
M  V30 15677 C 1483.44 -1.99866 -1.22845 0
M  V30 15678 C 1484.46 -0.910491 -1.48277 0
M  V30 15679 O 1485.64 -1.21834 -1.6037 0
M  V30 15680 C 1482.7 -2.35227 -2.54694 0
M  V30 15681 C 1481.76 -3.57886 -2.37099 0
M  V30 15682 C 1481 -3.91551 -3.62661 0
M  V30 15683 O 1481.22 -3.26148 -4.67957 0
M  V30 15684 O 1480.15 -4.8489 -3.56603 0
M  V30 15685 H 1483.98 -2.90305 -0.892015 0
M  V30 15686 H 1481.56 -1.44602 -0.375571 0
M  V30 15687 H 1483.45 -2.58928 -3.32467 0
M  V30 15688 H 1482.12 -1.4795 -2.87911 0
M  V30 15689 H 1481.03 -3.394 -1.57348 0
M  V30 15690 H 1482.36 -4.45714 -2.08806 0
M  V30 15691 N 1484.01 0.437135 -1.51416 0
M  V30 15692 C 1485.26 1.18421 -1.63771 0
M  V30 15693 C 1485.58 1.91718 -0.356282 0
M  V30 15694 O 1484.85 1.85566 0.627863 0
M  V30 15695 H 1483.43 0.440125 -0.603572 0
M  V30 15696 H 1486.09 0.501155 -1.88347 0
M  V30 15697 H 1485.19 1.91367 -2.46546 0
M  V30 15698 N 1485.49 1.41566 0.692592 0
M  V30 15699 C 1486.44 1.43648 1.80648 0
M  V30 15700 C 1487.41 0.290497 1.6354 0
M  V30 15701 O 1488.59 0.491979 1.84348 0
M  V30 15702 C 1485.73 1.32733 3.18553 0
M  V30 15703 C 1484.85 2.57224 3.47073 0
M  V30 15704 C 1483.98 2.38581 4.74608 0
M  V30 15705 C 1483.02 3.58534 4.96105 0
M  V30 15706 N 1482.16 3.38942 6.14868 0
M  V30 15707 H 1487 2.38847 1.78203 0
M  V30 15708 H 1484.53 1.186 0.870193 0
M  V30 15709 H 1486.49 1.24405 3.9822 0
M  V30 15710 H 1485.12 0.411407 3.20168 0
M  V30 15711 H 1484.17 2.7599 2.6179 0
M  V30 15712 H 1485.49 3.46443 3.58858 0
M  V30 15713 H 1484.64 2.27738 5.62335 0
M  V30 15714 H 1483.38 1.46824 4.65074 0
M  V30 15715 H 1482.38 3.69828 4.06826 0
M  V30 15716 H 1483.61 4.51248 5.07496 0
M  V30 15717 H 1481.55 2.49887 6.06541 0
M  V30 15718 H 1481.47 4.21737 6.27434 0
M  V30 15719 H 1482.74 3.31877 7.05321 0
M  V30 15720 N 1486.97 -0.927146 1.27443 0
M  V30 15721 C 1487.92 -2.02783 1.10216 0
M  V30 15722 C 1488.89 -1.661 0.00307842 0
M  V30 15723 O 1490.07 -1.90081 0.165508 0
M  V30 15724 C 1487.21 -3.36718 0.755984 0
M  V30 15725 C 1486.32 -3.86353 1.93276 0
M  V30 15726 C 1485.46 -5.08737 1.52841 0
M  V30 15727 C 1484.5 -5.50669 2.67263 0
M  V30 15728 N 1483.63 -6.6425 2.27413 0
M  V30 15729 H 1488.47 -2.16851 2.04401 0
M  V30 15730 H 1486.01 -1.06232 1.0175 0
M  V30 15731 H 1487.97 -4.13741 0.53609 0
M  V30 15732 H 1486.6 -3.22456 -0.148909 0
M  V30 15733 H 1485.65 -3.05604 2.26518 0
M  V30 15734 H 1486.96 -4.13401 2.79108 0
M  V30 15735 H 1486.12 -5.93263 1.26979 0
M  V30 15736 H 1484.86 -4.83467 0.641187 0
M  V30 15737 H 1483.86 -4.64692 2.93839 0
M  V30 15738 H 1485.09 -5.77934 3.56607 0
M  V30 15739 H 1483.03 -6.40636 1.41143 0
M  V30 15740 H 1482.95 -6.90955 3.06784 0
M  V30 15741 H 1484.22 -7.52115 2.048 0
M  V30 15742 N 1488.45 -1.09474 -1.13372 0
M  V30 15743 C 1489.86 -0.850378 -1.66209 0
M  V30 15744 C 1490.21 0.621071 -1.86111 0
M  V30 15745 O 1489.33 1.47837 -1.58029 0
M  V30 15746 C 1489.93 -1.53713 -3.01924 0
M  V30 15747 C 1488.49 -1.33972 -3.5175 0
M  V30 15748 C 1487.63 -1.5929 -2.26985 0
M  V30 15749 H 1490.59 -1.25383 -0.972874 0
M  V30 15750 H 1490.61 -0.970503 -3.67915 0
M  V30 15751 H 1490.12 -2.60804 -2.87407 0
M  V30 15752 H 1488.22 -0.289998 -3.7147 0
M  V30 15753 H 1488.33 -2.0749 -4.31839 0
M  V30 15754 H 1486.7 -1.01505 -2.336 0
M  V30 15755 H 1487.48 -2.67611 -2.15033 0
M  V30 15756 N 1489.92 1.30607 -0.882012 0
M  V30 15757 C 1491.2 1.91056 -0.419153 0
M  V30 15758 C 1491.58 1.80185 1.09985 0
M  V30 15759 O 1490.93 1.21717 1.93384 0
M  V30 15760 C 1491.14 3.3682 -0.913949 0
M  V30 15761 C 1492.49 4.13901 -0.947169 0
M  V30 15762 O 1493.51 3.45652 -0.860412 0
M  V30 15763 O 1492.37 5.35826 -1.07483 0
M  V30 15764 H 1489.46 0.81709 -0.127645 0
M  V30 15765 H 1492.01 1.39195 -0.970717 0
M  V30 15766 H 1490.78 3.38804 -1.95774 0
M  V30 15767 H 1490.41 3.96132 -0.34138 0
M  V30 15768 N 1491.4 0.642663 1.43901 0
M  V30 15769 C 1492.63 0.159202 2.06287 0
M  V30 15770 C 1493.05 -1.17091 1.48105 0
M  V30 15771 O 1492.4 -1.72064 0.608302 0
M  V30 15772 C 1492.45 0.0506891 3.61464 0
M  V30 15773 O 1492.17 1.32821 4.17481 0
M  V30 15774 C 1493.68 -0.460103 4.40906 0
M  V30 15775 H 1490.9 0.085003 0.665594 0
M  V30 15776 H 1493.44 0.880328 1.84582 0
M  V30 15777 H 1491.59 -0.620938 3.82391 0
M  V30 15778 H 1492.01 1.18053 5.11042 0
M  V30 15779 H 1493.48 -0.48501 5.49865 0
M  V30 15780 H 1493.96 -1.4894 4.13175 0
M  V30 15781 H 1494.57 0.178668 4.24925 0
M  V30 15782 N 1492.88 -1.52852 0.383918 0
M  V30 15783 C 1494.12 -2.03421 -0.199832 0
M  V30 15784 C 1494.49 -1.26439 -1.44489 0
M  V30 15785 O 1495.69 -1.67105 -2.10545 0
M  V30 15786 C 1493.96 -3.54341 -0.466577 0
M  V30 15787 S 1495.52 -4.26747 -1.02138 0
M  V30 15788 H 1492.33 -0.70873 -0.0567636 0
M  V30 15789 H 1494.94 -1.8815 0.531022 0
M  V30 15790 H 1493.64 -4.07961 0.446772 0
M  V30 15791 H 1493.17 -3.73808 -1.226 0
M  V30 15792 H 1495.19 -4.39456 -2.3042 0
M  V30 15793 N 1494.36 -0.113586 -1.5719 0
M  V30 15794 C 1495.27 0.852428 -2.18565 0
M  V30 15795 C 1496.29 1.29668 -1.16026 0
M  V30 15796 O 1497.46 1.36079 -1.48474 0
M  V30 15797 C 1494.53 2.08675 -2.76867 0
M  V30 15798 C 1493.59 1.69493 -3.94424 0
M  V30 15799 C 1492.82 2.87042 -4.49936 0
M  V30 15800 O 1493.04 4.02311 -4.04354 0
M  V30 15801 O 1491.98 2.64439 -5.40699 0
M  V30 15802 H 1495.8 0.360144 -3.01557 0
M  V30 15803 H 1493.39 0.111744 -1.48982 0
M  V30 15804 H 1495.27 2.80976 -3.14054 0
M  V30 15805 H 1493.95 2.5692 -1.9691 0
M  V30 15806 H 1492.85 0.943161 -3.62016 0
M  V30 15807 H 1494.19 1.25995 -4.758 0
M  V30 15808 N 1495.84 1.56784 0.160173 0
M  V30 15809 C 1497.09 1.8226 0.873253 0
M  V30 15810 C 1497.41 0.692384 1.82294 0
M  V30 15811 O 1496.68 -0.286961 1.93787 0
M  V30 15812 H 1495.26 0.672371 0.325463 0
M  V30 15813 H 1497.92 1.94264 0.157325 0
M  V30 15814 H 1497.01 2.76714 1.44345 0
M  V30 15815 N 1497.32 -0.429099 1.51646 0
M  V30 15816 C 1498.26 -1.54202 1.74139 0
M  V30 15817 C 1499.26 -1.58117 0.607905 0
M  V30 15818 O 1500.46 -1.61763 0.789486 0
M  V30 15819 H 1496.84 -0.512456 0.550357 0
M  V30 15820 H 1498.81 -1.32408 2.67415 0
M  V30 15821 C 1497.56 -2.91779 1.89104 0
M  V30 15822 H 1496.88 -2.89502 2.75733 0
M  V30 15823 H 1498.32 -3.68995 2.08851 0
M  V30 15824 C 1496.78 -3.30512 0.652945 0
M  V30 15825 O 1497.31 -4.01257 -0.188553 0
M  V30 15826 N 1495.52 -2.86359 0.494634 0
M  V30 15827 H 1495.06 -2.28959 1.18049 0
M  V30 15828 H 1495.02 -3.12637 -0.332503 0
M  V30 15829 N 1498.79 -1.41931 -0.685074 0
M  V30 15830 C 1499.72 -1.47385 -1.81107 0
M  V30 15831 C 1500.7 -0.331433 -1.6684 0
M  V30 15832 O 1501.89 -0.544331 -1.86415 0
M  V30 15833 C 1499.02 -1.36555 -3.19327 0
M  V30 15834 C 1497.97 -2.48718 -3.48315 0
M  V30 15835 C 1497.3 -2.2295 -4.86002 0
M  V30 15836 C 1498.6 -3.91047 -3.46237 0
M  V30 15837 H 1500.29 -2.41624 -1.768 0
M  V30 15838 H 1497.84 -1.16297 -0.849178 0
M  V30 15839 H 1499.79 -1.38981 -3.97822 0
M  V30 15840 H 1498.52 -0.388063 -3.24286 0
M  V30 15841 H 1497.18 -2.45592 -2.72176 0
M  V30 15842 H 1496.82 -1.23518 -4.87598 0
M  V30 15843 H 1496.52 -2.98116 -5.0636 0
M  V30 15844 H 1498.05 -2.27108 -5.66793 0
M  V30 15845 H 1499.46 -3.95831 -4.14718 0
M  V30 15846 H 1497.86 -4.65981 -3.7813 0
M  V30 15847 H 1498.93 -4.1845 -2.45006 0
M  V30 15848 N 1500.27 0.920374 -1.27933 0
M  V30 15849 C 1501.18 2.05525 -1.13123 0
M  V30 15850 C 1502.2 1.73899 -0.059421 0
M  V30 15851 O 1503.37 1.99617 -0.267386 0
M  V30 15852 C 1500.44 3.37637 -0.787551 0
M  V30 15853 C 1499.5 3.82914 -1.94101 0
M  V30 15854 C 1498.73 5.08721 -1.61364 0
M  V30 15855 O 1498.96 5.6798 -0.524918 0
M  V30 15856 O 1497.89 5.4955 -2.45517 0
M  V30 15857 H 1501.72 2.20935 -2.08378 0
M  V30 15858 H 1499.3 1.04071 -1.07189 0
M  V30 15859 H 1501.18 4.16968 -0.609544 0
M  V30 15860 H 1499.86 3.23417 0.135407 0
M  V30 15861 H 1498.76 3.04438 -2.17413 0
M  V30 15862 H 1500.1 4.01687 -2.84444 0
M  V30 15863 N 1501.75 1.10074 1.1279 0
M  V30 15864 C 1503 0.840873 1.84216 0
M  V30 15865 C 1503.32 -0.633551 1.83892 0
M  V30 15866 O 1502.58 -1.48283 1.27714 0
M  V30 15867 C 1502.88 1.32969 3.31744 0
M  V30 15868 C 1502.54 2.81489 3.52242 0
M  V30 15869 C 1501.21 3.22048 3.57545 0
M  V30 15870 C 1503.56 3.77216 3.59664 0
M  V30 15871 C 1500.89 4.57092 3.67809 0
M  V30 15872 C 1503.24 5.12057 3.71457 0
M  V30 15873 C 1501.9 5.52196 3.75014 0
M  V30 15874 H 1501.17 0.307697 0.674095 0
M  V30 15875 H 1503.82 1.37669 1.33115 0
M  V30 15876 H 1502.12 0.713819 3.85243 0
M  V30 15877 H 1503.82 1.10515 3.8547 0
M  V30 15878 H 1500.41 2.49106 3.48775 0
M  V30 15879 H 1504.6 3.4699 3.5484 0
M  V30 15880 H 1499.85 4.87618 3.68834 0
M  V30 15881 H 1504.03 5.86081 3.76142 0
M  V30 15882 H 1501.65 6.56833 3.8272 0
M  V30 15883 N 1503.23 -1.30138 0.888926 0
M  V30 15884 C 1504.64 -1.48552 0.583486 0
M  V30 15885 C 1504.84 -1.81376 -0.877781 0
M  V30 15886 O 1503.9 -1.90374 -1.65873 0
M  V30 15887 C 1505.21 -2.60613 1.50004 0
M  V30 15888 C 1506.76 -2.74493 1.50409 0
M  V30 15889 C 1507.24 -3.89672 2.40666 0
M  V30 15890 N 1508.73 -3.96988 2.38652 0
M  V30 15891 C 1509.46 -4.85429 3.05199 0
M  V30 15892 N 1508.96 -5.78638 3.80985 0
M  V30 15893 N 1510.75 -4.78831 2.9441 0
M  V30 15894 H 1502.9 -1.07105 1.83418 0
M  V30 15895 H 1505.16 -0.530991 0.785336 0
M  V30 15896 H 1504.87 -2.43191 2.54069 0
M  V30 15897 H 1504.74 -3.5718 1.21254 0
M  V30 15898 H 1507.13 -2.91318 0.470933 0
M  V30 15899 H 1507.21 -1.78535 1.83191 0
M  V30 15900 H 1506.86 -3.73603 3.44069 0
M  V30 15901 H 1506.79 -4.84975 2.05198 0
M  V30 15902 H 1509.28 -3.30313 1.83581 0
M  V30 15903 H 1509.59 -6.42894 4.28844 0
M  V30 15904 H 1507.94 -5.78558 3.85092 0
M  V30 15905 H 1511.13 -4.04995 2.34727 0
M  V30 15906 H 1511.3 -5.47547 3.46549 0
M  V30 15907 N 1504.71 -0.650285 -1.43559 0
M  V30 15908 C 1505.62 0.0438076 -2.34559 0
M  V30 15909 C 1506.63 0.815316 -1.53716 0
M  V30 15910 O 1507.81 0.76323 -1.86378 0
M  V30 15911 C 1504.87 1.00028 -3.31957 0
M  V30 15912 C 1503.93 0.226027 -4.28705 0
M  V30 15913 C 1503.17 1.13694 -5.21449 0
M  V30 15914 O 1503.39 2.37614 -5.18551 0
M  V30 15915 O 1502.32 0.610924 -5.98792 0
M  V30 15916 H 1506.15 -0.705152 -2.954 0
M  V30 15917 H 1503.73 -0.410471 -1.43651 0
M  V30 15918 H 1505.62 1.55004 -3.91857 0
M  V30 15919 H 1504.29 1.72952 -2.73623 0
M  V30 15920 H 1503.2 -0.367244 -3.72293 0
M  V30 15921 H 1504.53 -0.463582 -4.90012 0
M  V30 15922 N 1506.18 1.52647 -0.392018 0
M  V30 15923 C 1507.43 2.01912 0.18958 0
M  V30 15924 C 1507.76 1.27786 1.46234 0
M  V30 15925 O 1507.04 0.379124 1.90769 0
M  V30 15926 C 1507.32 3.57217 0.454734 0
M  V30 15927 C 1507.17 4.4201 -0.833501 0
M  V30 15928 C 1508.49 4.22146 1.24421 0
M  V30 15929 H 1505.61 0.733909 0.0674281 0
M  V30 15930 H 1508.25 1.82685 -0.52212 0
M  V30 15931 H 1506.4 3.73731 1.06101 0
M  V30 15932 H 1508.08 4.37242 -1.47027 0
M  V30 15933 H 1506.32 4.08912 -1.44823 0
M  V30 15934 H 1506.99 5.48701 -0.602585 0
M  V30 15935 H 1509.47 4.09627 0.731093 0
M  V30 15936 H 1508.34 5.30786 1.39848 0
M  V30 15937 H 1508.6 3.7996 2.26016 0
M  V30 15938 N 1507.66 0.121921 1.57128 0
M  V30 15939 C 1508.89 -0.546325 2.00075 0
M  V30 15940 C 1509.31 -1.59245 1.00113 0
M  V30 15941 O 1508.67 -1.8128 -0.0267687 0
M  V30 15942 C 1508.72 -1.14651 3.41888 0
M  V30 15943 O 1507.82 -2.26199 3.4483 0
M  V30 15944 H 1507.16 -0.136184 0.649885 0
M  V30 15945 H 1509.69 0.211257 2.03506 0
M  V30 15946 H 1509.7 -1.48133 3.80159 0
M  V30 15947 H 1508.38 -0.380273 4.14158 0
M  V30 15948 H 1506.96 -1.94134 3.18381 0
M  V30 15949 N 1509.14 -1.56867 -0.151857 0
M  V30 15950 C 1510.39 -1.83082 -0.865285 0
M  V30 15951 C 1510.72 -0.702056 -1.81387 0
M  V30 15952 O 1509.97 0.309291 -1.9324 0
M  V30 15953 C 1510.27 -3.15597 -1.6773 0
M  V30 15954 C 1509.94 -4.4231 -0.875929 0
M  V30 15955 C 1508.6 -4.76724 -0.654826 0
M  V30 15956 C 1510.95 -5.20246 -0.315162 0
M  V30 15957 C 1508.28 -5.86538 0.13783 0
M  V30 15958 C 1510.63 -6.30892 0.464508 0
M  V30 15959 C 1509.29 -6.63859 0.696233 0
M  V30 15960 H 1508.56 -0.669945 -0.31663 0
M  V30 15961 H 1511.21 -1.91064 -0.129175 0
M  V30 15962 H 1509.52 -3.03044 -2.48338 0
M  V30 15963 H 1511.21 -3.33094 -2.23269 0
M  V30 15964 H 1507.8 -4.15328 -1.05832 0
M  V30 15965 H 1511.99 -4.94038 -0.473273 0
M  V30 15966 H 1507.24 -6.10525 0.32691 0
M  V30 15967 H 1511.42 -6.90479 0.906187 0
M  V30 15968 H 1509.04 -7.48788 1.3123 0
M  V30 15969 N 1510.62 0.421051 -1.51871 0
M  V30 15970 C 1511.87 1.16908 -1.65344 0
M  V30 15971 C 1512.19 1.90801 -0.377538 0
M  V30 15972 O 1511.45 1.84972 0.639061 0
M  V30 15973 C 1511.75 2.19819 -2.81806 0
M  V30 15974 C 1511.41 1.62821 -4.20476 0
M  V30 15975 C 1510.08 1.47 -4.58197 0
M  V30 15976 C 1512.43 1.21079 -5.06941 0
M  V30 15977 C 1509.76 0.879359 -5.80073 0
M  V30 15978 C 1512.11 0.634373 -6.29411 0
M  V30 15979 C 1510.77 0.4632 -6.65891 0
M  V30 15980 H 1510.04 0.427798 -0.605037 0
M  V30 15981 H 1512.69 0.457896 -1.85945 0
M  V30 15982 H 1510.99 2.97037 -2.55492 0
M  V30 15983 H 1512.69 2.77548 -2.89427 0
M  V30 15984 H 1509.28 1.76115 -3.90745 0
M  V30 15985 H 1513.46 1.32115 -4.78392 0
M  V30 15986 H 1508.72 0.734646 -6.0697 0
M  V30 15987 H 1512.89 0.302484 -6.95743 0
M  V30 15988 H 1510.52 0.00341397 -7.602 0
M  V30 15989 N 1512.1 1.42293 0.677538 0
M  V30 15990 C 1513.33 1.45797 1.46379 0
M  V30 15991 C 1513.73 0.0669696 1.89081 0
M  V30 15992 O 1513.08 -0.928025 1.58535 0
M  V30 15993 C 1513.14 2.31982 2.74635 0
M  V30 15994 C 1512.8 3.79894 2.54026 0
M  V30 15995 C 1513.8 4.71615 2.18805 0
M  V30 15996 C 1511.49 4.24131 2.69106 0
M  V30 15997 C 1513.48 6.05563 1.98927 0
M  V30 15998 C 1511.17 5.5814 2.48844 0
M  V30 15999 C 1512.16 6.48672 2.13807 0
M  V30 16000 O 1511.85 7.80206 1.93737 0
M  V30 16001 H 1511.58 0.498113 0.457012 0
M  V30 16002 H 1514.14 1.87432 0.840151 0
M  V30 16003 H 1512.37 1.85191 3.39472 0
M  V30 16004 H 1514.06 2.26974 3.36508 0
M  V30 16005 H 1514.82 4.38723 2.06753 0
M  V30 16006 H 1510.7 3.53957 2.95357 0
M  V30 16007 H 1514.25 6.7619 1.71502 0
M  V30 16008 H 1510.14 5.90605 2.60491 0
M  V30 16009 H 1510.91 7.91536 2.08357 0
M  V30 16010 N 1513.57 -0.913576 1.28419 0
M  V30 16011 C 1514.99 -1.47782 1.14094 0
M  V30 16012 C 1515.34 -1.94347 -0.269004 0
M  V30 16013 O 1514.46 -1.82474 -1.16328 0
M  V30 16014 C 1515.06 -2.6859 2.06507 0
M  V30 16015 C 1513.62 -3.21193 1.96245 0
M  V30 16016 C 1512.76 -1.939 1.98238 0
M  V30 16017 H 1515.71 -0.726271 1.41106 0
M  V30 16018 H 1515.73 -3.43858 1.62916 0
M  V30 16019 H 1515.25 -2.34668 3.09116 0
M  V30 16020 H 1513.35 -3.5984 0.966737 0
M  V30 16021 H 1513.46 -3.8643 2.83211 0
M  V30 16022 H 1511.82 -2.11006 1.42648 0
M  V30 16023 H 1512.61 -1.62273 3.02527 0
M  V30 16024 N 1515.05 -1.1067 -1.12204 0
M  V30 16025 C 1516.29 -0.860466 -1.85406 0
M  V30 16026 C 1516.66 0.603027 -1.82284 0
M  V30 16027 O 1517.86 0.965713 -2.50853 0
M  V30 16028 C 1516.13 -1.39677 -3.28976 0
M  V30 16029 S 1517.69 -1.28633 -4.19522 0
M  V30 16030 H 1514.51 -0.31087 -0.639438 0
M  V30 16031 H 1517.11 -1.41263 -1.35148 0
M  V30 16032 H 1515.81 -2.45588 -3.28808 0
M  V30 16033 H 1515.34 -0.841293 -3.84299 0
M  V30 16034 H 1517.36 -0.245599 -4.95592 0
M  V30 16035 N 1516.53 1.29665 -0.895815 0
M  V30 16036 C 1517.95 1.4824 -0.591355 0
M  V30 16037 C 1518.15 1.81839 0.86815 0
M  V30 16038 O 1517.2 1.91251 1.64861 0
M  V30 16039 C 1518.52 2.59814 -1.51384 0
M  V30 16040 C 1520.06 2.73691 -1.51862 0
M  V30 16041 C 1520.54 3.8839 -2.42729 0
M  V30 16042 N 1522.03 3.95717 -2.40754 0
M  V30 16043 C 1522.76 4.83804 -3.07769 0
M  V30 16044 N 1522.26 5.7661 -3.84048 0
M  V30 16045 N 1524.05 4.77263 -2.96946 0
M  V30 16046 H 1516.2 1.06131 -1.83984 0
M  V30 16047 H 1518.47 0.526819 -0.788141 0
M  V30 16048 H 1518.17 2.4184 -2.55355 0
M  V30 16049 H 1518.05 3.56532 -1.23147 0
M  V30 16050 H 1520.43 2.91064 -0.486375 0
M  V30 16051 H 1520.52 1.77561 -1.84135 0
M  V30 16052 H 1520.16 3.71773 -3.46045 0
M  V30 16053 H 1520.09 4.8388 -2.07767 0
M  V30 16054 H 1522.58 3.29334 -1.8533 0
M  V30 16055 H 1522.89 6.40611 -4.32247 0
M  V30 16056 H 1521.24 5.76507 -3.88155 0
M  V30 16057 H 1524.43 4.03744 -2.36871 0
M  V30 16058 H 1524.6 5.45701 -3.49448 0
M  V30 16059 N 1518.01 0.657889 1.43212 0
M  V30 16060 C 1519.42 0.252443 1.84985 0
M  V30 16061 C 1519.77 -1.20196 1.55072 0
M  V30 16062 O 1518.9 -1.91803 1.00202 0
M  V30 16063 C 1519.49 0.451388 3.3578 0
M  V30 16064 C 1518.05 0.100219 3.76267 0
M  V30 16065 C 1517.2 0.752009 2.66908 0
M  V30 16066 H 1520.15 0.861239 1.33298 0
M  V30 16067 H 1520.17 -0.30169 3.79302 0
M  V30 16068 H 1519.68 1.51001 3.5752 0
M  V30 16069 H 1517.78 -0.955618 3.60137 0
M  V30 16070 H 1517.89 0.528942 4.76171 0
M  V30 16071 H 1516.26 0.184823 2.54029 0
M  V30 16072 H 1517.04 1.81375 2.91476 0
M  V30 16073 N 1519.49 -1.52437 0.400108 0
M  V30 16074 C 1520.76 -1.94162 -0.23671 0
M  V30 16075 C 1521.14 -1.33636 -1.63416 0
M  V30 16076 O 1520.49 -0.508643 -2.22767 0
M  V30 16077 C 1520.7 -3.48088 -0.252159 0
M  V30 16078 C 1522.05 -4.21925 -0.475887 0
M  V30 16079 O 1523.07 -3.5465 -0.331905 0
M  V30 16080 O 1521.93 -5.41205 -0.758895 0
M  V30 16081 H 1519.03 -0.813294 -0.14994 0
M  V30 16082 H 1521.57 -1.63475 0.455399 0
M  V30 16083 H 1520.34 -3.84501 0.726263 0
M  V30 16084 H 1519.97 -3.8511 -0.988742 0
M  V30 16085 N 1520.96 -0.130252 -1.57061 0
M  V30 16086 C 1522.21 0.525784 -1.95866 0
M  V30 16087 C 1522.54 1.65607 -1.01429 0
M  V30 16088 O 1521.82 1.94426 -0.0535544 0
M  V30 16089 C 1522.1 1.04784 -3.44517 0
M  V30 16090 C 1521.95 -0.0797972 -4.49729 0
M  V30 16091 C 1523.27 1.9351 -3.95275 0
M  V30 16092 H 1520.39 0.189652 -0.71218 0
M  V30 16093 H 1523.03 -0.208091 -1.88857 0
M  V30 16094 H 1521.18 1.67324 -3.50621 0
M  V30 16095 H 1522.86 -0.715535 -4.55717 0
M  V30 16096 H 1521.1 -0.741358 -4.27418 0
M  V30 16097 H 1521.77 0.326915 -5.51031 0
M  V30 16098 H 1524.25 1.40825 -3.91545 0
M  V30 16099 H 1523.12 2.26952 -4.99784 0
M  V30 16100 H 1523.38 2.86583 -3.36634 0
M  V30 16101 N 1522.44 1.56945 0.143535 0
M  V30 16102 C 1523.69 1.83538 0.855563 0
M  V30 16103 C 1524.02 0.711666 1.81013 0
M  V30 16104 O 1523.27 -0.299039 1.93402 0
M  V30 16105 C 1523.57 3.16482 1.66054 0
M  V30 16106 C 1523.24 4.42768 0.85246 0
M  V30 16107 C 1521.9 4.77064 0.629535 0
M  V30 16108 C 1524.25 5.20406 0.287567 0
M  V30 16109 C 1521.58 5.86457 -0.168934 0
M  V30 16110 C 1523.93 6.30637 -0.49796 0
M  V30 16111 C 1522.6 6.6348 -0.731429 0
M  V30 16112 H 1521.87 0.671615 0.313073 0
M  V30 16113 H 1524.51 1.9113 0.11904 0
M  V30 16114 H 1522.82 3.04357 2.46727 0
M  V30 16115 H 1524.52 3.34274 2.215 0
M  V30 16116 H 1521.11 4.15884 1.03628 0
M  V30 16117 H 1525.29 4.94282 0.447066 0
M  V30 16118 H 1520.55 6.10343 -0.359283 0
M  V30 16119 H 1524.72 6.89989 -0.942792 0
M  V30 16120 H 1522.35 7.48081 -1.35199 0
M  V30 16121 N 1523.92 -0.412991 1.52093 0
M  V30 16122 C 1525.17 -1.15737 1.65191 0
M  V30 16123 C 1525.48 -1.91753 0.38601 0
M  V30 16124 O 1526.69 -2.68586 0.396731 0
M  V30 16125 C 1525.15 -2.10619 2.91835 0
M  V30 16126 C 1524.75 -1.40137 4.25518 0
M  V30 16127 C 1526.5 -2.85339 3.14296 0
M  V30 16128 C 1524.4 -2.33645 5.4329 0
M  V30 16129 H 1523.33 -0.435732 0.615348 0
M  V30 16130 H 1525.99 -0.422172 1.78578 0
M  V30 16131 H 1524.37 -2.87675 2.72138 0
M  V30 16132 H 1525.54 -0.684719 4.55684 0
M  V30 16133 H 1523.86 -0.774734 4.09129 0
M  V30 16134 H 1526.45 -3.55437 3.99461 0
M  V30 16135 H 1526.8 -3.48071 2.28369 0
M  V30 16136 H 1527.33 -2.15384 3.34447 0
M  V30 16137 H 1524.07 -1.75566 6.31551 0
M  V30 16138 H 1523.59 -3.03294 5.17467 0
M  V30 16139 H 1525.27 -2.94255 5.76215 0
M  V30 16140 N 1525.4 -1.4265 -0.669982 0
M  V30 16141 C 1526.33 -1.49298 -1.79534 0
M  V30 16142 C 1527.31 -0.34911 -1.66479 0
M  V30 16143 O 1528.5 -0.564072 -1.85828 0
M  V30 16144 C 1525.63 -1.39935 -3.17861 0
M  V30 16145 C 1524.58 -2.52398 -3.45657 0
M  V30 16146 C 1523.91 -2.28092 -4.8361 0
M  V30 16147 C 1525.21 -3.94697 -3.4207 0
M  V30 16148 H 1526.9 -2.43486 -1.74227 0
M  V30 16149 H 1524.45 -1.17191 -0.836796 0
M  V30 16150 H 1526.4 -1.43193 -3.96325 0
M  V30 16151 H 1525.12 -0.422436 -3.23857 0
M  V30 16152 H 1523.78 -2.48465 -2.69556 0
M  V30 16153 H 1523.43 -1.28683 -4.86261 0
M  V30 16154 H 1523.13 -3.03469 -5.0317 0
M  V30 16155 H 1524.65 -2.33107 -5.64352 0
M  V30 16156 H 1526.07 -4.00207 -4.10496 0
M  V30 16157 H 1524.46 -4.69965 -3.73166 0
M  V30 16158 H 1525.53 -4.21025 -2.40554 0
M  V30 16159 N 1526.88 0.906753 -1.28902 0
M  V30 16160 C 1528.29 1.18635 -1.06761 0
M  V30 16161 C 1528.49 2.00643 0.185594 0
M  V30 16162 O 1527.55 2.3647 0.885324 0
M  V30 16163 C 1528.86 1.91414 -2.31907 0
M  V30 16164 C 1530.41 2.04269 -2.37156 0
M  V30 16165 C 1530.89 2.80458 -3.62088 0
M  V30 16166 N 1532.38 2.88016 -3.62769 0
M  V30 16167 C 1533.11 3.47485 -4.56116 0
M  V30 16168 N 1532.61 4.08178 -5.59788 0
M  V30 16169 N 1534.4 3.45092 -4.43698 0
M  V30 16170 H 1526.55 0.359413 -2.09337 0
M  V30 16171 H 1528.81 0.221688 -0.921715 0
M  V30 16172 H 1528.52 1.38587 -3.23244 0
M  V30 16173 H 1528.39 2.91929 -2.38867 0
M  V30 16174 H 1530.78 2.56275 -1.46312 0
M  V30 16175 H 1530.86 1.0291 -2.34186 0
M  V30 16176 H 1530.51 2.2913 -4.53279 0
M  V30 16177 H 1530.44 3.82147 -3.62314 0
M  V30 16178 H 1532.93 2.44902 -2.87805 0
M  V30 16179 H 1533.24 4.51557 -6.27149 0
M  V30 16180 H 1531.59 4.06661 -5.63606 0
M  V30 16181 H 1534.78 2.96891 -3.61903 0
M  V30 16182 H 1534.95 3.91145 -5.16633 0
M  V30 16183 N 1528.36 1.11264 1.11616 0
M  V30 16184 C 1529.6 0.858664 1.82952 0
M  V30 16185 C 1529.92 -0.617439 1.84967 0
M  V30 16186 O 1529.19 -1.44849 1.31893 0
M  V30 16187 H 1527.77 0.314671 0.677489 0
M  V30 16188 H 1530.44 1.40466 1.35113 0
M  V30 16189 H 1529.53 1.22921 2.86874 0
M  V30 16190 N 1529.83 -1.29188 0.902679 0
M  V30 16191 C 1530.76 -2.3006 0.399357 0
M  V30 16192 C 1531.74 -1.61724 -0.527199 0
M  V30 16193 O 1532.93 -1.89213 -0.437293 0
M  V30 16194 C 1530.06 -3.45309 -0.371331 0
M  V30 16195 C 1529.01 -4.25466 0.465068 0
M  V30 16196 C 1528.34 -5.32941 -0.433295 0
M  V30 16197 C 1529.64 -4.93287 1.71655 0
M  V30 16198 H 1531.33 -2.72409 1.24233 0
M  V30 16199 H 1528.88 -1.30958 0.598822 0
M  V30 16200 H 1530.83 -4.14955 -0.734207 0
M  V30 16201 H 1529.56 -3.01811 -1.24811 0
M  V30 16202 H 1528.22 -3.57532 0.810315 0
M  V30 16203 H 1527.86 -4.85688 -1.3083 0
M  V30 16204 H 1527.56 -5.87472 0.122657 0
M  V30 16205 H 1529.09 -6.05438 -0.792298 0
M  V30 16206 H 1530.5 -5.55353 1.42323 0
M  V30 16207 H 1528.9 -5.57763 2.21405 0
M  V30 16208 H 1529.97 -4.18406 2.45081 0
M  V30 16209 N 1531.31 -0.665475 -1.42861 0
M  V30 16210 C 1532.54 -0.190399 -2.06524 0
M  V30 16211 C 1532.96 1.13995 -1.49622 0
M  V30 16212 O 1532.32 1.70695 -0.610981 0
M  V30 16213 C 1532.37 -0.12594 -3.6038 0
M  V30 16214 O 1531.47 0.908299 -4.02273 0
M  V30 16215 H 1530.81 -0.100495 -0.656351 0
M  V30 16216 H 1533.34 -0.911858 -1.83156 0
M  V30 16217 H 1533.35 0.0533153 -4.07965 0
M  V30 16218 H 1532.03 -1.09703 -4.01171 0
M  V30 16219 H 1530.6 0.700841 -3.66255 0
M  V30 16220 N 1532.79 1.52222 -0.408187 0
M  V30 16221 C 1533.72 2.29892 0.408868 0
M  V30 16222 C 1534.7 1.34063 1.04695 0
M  V30 16223 O 1535.89 1.6297 1.05615 0
M  V30 16224 C 1533.02 3.11964 1.52629 0
M  V30 16225 C 1531.97 4.15833 1.01326 0
M  V30 16226 C 1531.3 4.86244 2.2242 0
M  V30 16227 C 1532.6 5.22256 0.0679573 0
M  V30 16228 H 1534.29 2.98443 -0.23923 0
M  V30 16229 H 1531.84 1.43528 -0.116496 0
M  V30 16230 H 1533.79 3.65067 2.10486 0
M  V30 16231 H 1532.51 2.41181 2.20225 0
M  V30 16232 H 1531.17 3.63739 0.4571 0
M  V30 16233 H 1530.82 4.11991 2.88569 0
M  V30 16234 H 1530.52 5.56461 1.88746 0
M  V30 16235 H 1532.04 5.42159 2.80885 0
M  V30 16236 H 1533.46 5.70604 0.555295 0
M  V30 16237 H 1531.85 5.9983 -0.179934 0
M  V30 16238 H 1532.92 4.76892 -0.877599 0
M  V30 16239 N 1534.27 0.138579 1.5699 0
M  V30 16240 C 1535.49 -0.525074 2.00643 0
M  V30 16241 C 1535.92 -1.58174 1.01796 0
M  V30 16242 O 1535.28 -1.81298 -0.00754003 0
M  V30 16243 C 1535.32 -1.11019 3.43085 0
M  V30 16244 O 1534.43 -2.22529 3.4721 0
M  V30 16245 H 1533.77 -0.129283 0.651292 0
M  V30 16246 H 1536.3 0.23283 2.03271 0
M  V30 16247 H 1536.31 -1.44093 3.81708 0
M  V30 16248 H 1534.98 -0.336325 4.14538 0
M  V30 16249 H 1533.56 -1.90747 3.20422 0
M  V30 16250 N 1535.75 -1.57019 -0.13521 0
M  V30 16251 C 1536.99 -1.83178 -0.844308 0
M  V30 16252 C 1537.31 -0.7217 -1.81799 0
M  V30 16253 O 1538.51 -0.869232 -2.57209 0
M  V30 16254 C 1536.97 -3.2471 -1.55214 0
M  V30 16255 C 1536.58 -4.43685 -0.620268 0
M  V30 16256 C 1538.32 -3.60133 -2.24732 0
M  V30 16257 C 1536.23 -5.76242 -1.3304 0
M  V30 16258 H 1535.16 -0.683175 -0.319041 0
M  V30 16259 H 1537.81 -1.83243 -0.0970242 0
M  V30 16260 H 1536.19 -3.19067 -2.34547 0
M  V30 16261 H 1537.37 -4.60591 0.138685 0
M  V30 16262 H 1535.68 -4.16387 -0.0328906 0
M  V30 16263 H 1538.28 -4.56431 -2.78522 0
M  V30 16264 H 1538.62 -2.86767 -3.01779 0
M  V30 16265 H 1539.15 -3.67489 -1.52305 0
M  V30 16266 H 1535.89 -6.52734 -0.60155 0
M  V30 16267 H 1535.41 -5.63251 -2.06176 0
M  V30 16268 H 1537.09 -6.19445 -1.86808 0
M  V30 16269 N 1537.22 0.404919 -1.52309 0
M  V30 16270 C 1538.13 1.51822 -1.7885 0
M  V30 16271 C 1539.15 1.60403 -0.674307 0
M  V30 16272 O 1540.33 1.77038 -0.960175 0
M  V30 16273 C 1537.39 2.87516 -1.9374 0
M  V30 16274 C 1536.45 2.88787 -3.17648 0
M  V30 16275 C 1535.69 4.18009 -3.31819 0
M  V30 16276 O 1535.91 5.12129 -2.51158 0
M  V30 16277 O 1534.84 4.26222 -4.24992 0
M  V30 16278 H 1538.67 1.32329 -2.73354 0
M  V30 16279 H 1536.25 0.591193 -1.37205 0
M  V30 16280 H 1538.14 3.6799 -2.05333 0
M  V30 16281 H 1536.81 3.07068 -1.02425 0
M  V30 16282 H 1535.72 2.07152 -3.11511 0
M  V30 16283 H 1537.05 2.74185 -4.08758 0
M  V30 16284 N 1538.7 1.43003 0.662408 0
M  V30 16285 C 1540.12 1.26201 0.977003 0
M  V30 16286 C 1540.32 0.175104 2.00738 0
M  V30 16287 O 1539.37 -0.44954 2.48466 0
M  V30 16288 C 1540.69 2.62319 1.47001 0
M  V30 16289 C 1542.24 2.69776 1.58714 0
M  V30 16290 C 1542.71 4.06289 2.11408 0
M  V30 16291 N 1544.2 4.08307 2.18724 0
M  V30 16292 C 1544.94 5.10761 2.60598 0
M  V30 16293 N 1544.43 6.23593 3.01834 0
M  V30 16294 N 1546.23 4.98115 2.60456 0
M  V30 16295 H 1538.38 2.12391 -0.0195698 0
M  V30 16296 H 1540.64 0.946472 0.0538044 0
M  V30 16297 H 1540.35 3.42773 0.78736 0
M  V30 16298 H 1540.22 2.87088 2.44664 0
M  V30 16299 H 1542.61 1.89659 2.26083 0
M  V30 16300 H 1542.69 2.48782 0.595081 0
M  V30 16301 H 1542.33 4.86868 1.44644 0
M  V30 16302 H 1542.26 4.24641 3.11428 0
M  V30 16303 H 1544.75 3.26857 1.89665 0
M  V30 16304 H 1545.07 6.97609 3.32509 0
M  V30 16305 H 1543.41 6.27079 2.99661 0
M  V30 16306 H 1546.6 4.09037 2.27611 0
M  V30 16307 H 1546.77 5.78092 2.92769 0
M  V30 16308 N 1540.18 -0.899904 1.29381 0
M  V30 16309 C 1541.43 -1.64712 1.17109 0
M  V30 16310 C 1541.75 -1.93011 -0.277772 0
M  V30 16311 O 1541.02 -1.55604 -1.19013 0
M  V30 16312 H 1539.6 -0.610532 0.430418 0
M  V30 16313 H 1542.26 -1.07905 1.62304 0
M  V30 16314 H 1541.36 -2.60362 1.72098 0
M  V30 16315 N 1541.66 -1.11854 -1.11024 0
M  V30 16316 C 1542.61 -0.780825 -2.17191 0
M  V30 16317 C 1543.58 0.249657 -1.64213 0
M  V30 16318 O 1544.76 0.125603 -1.90386 0
M  V30 16319 C 1541.9 -0.23491 -3.443 0
M  V30 16320 C 1541.01 -1.32247 -4.1126 0
M  V30 16321 C 1540.15 -0.736638 -5.26068 0
M  V30 16322 C 1539.19 -1.80375 -5.8492 0
M  V30 16323 N 1538.32 -1.23709 -6.91115 0
M  V30 16324 H 1543.16 -1.69031 -2.45423 0
M  V30 16325 H 1540.7 -0.844041 -1.20476 0
M  V30 16326 H 1542.66 0.0996064 -4.17081 0
M  V30 16327 H 1541.29 0.637752 -3.16437 0
M  V30 16328 H 1540.34 -1.77387 -3.36509 0
M  V30 16329 H 1541.65 -2.12965 -4.51051 0
M  V30 16330 H 1540.81 -0.352432 -6.05675 0
M  V30 16331 H 1539.55 0.101811 -4.87594 0
M  V30 16332 H 1538.55 -2.19721 -5.03987 0
M  V30 16333 H 1539.78 -2.64531 -6.2546 0
M  V30 16334 H 1537.72 -0.420357 -6.54652 0
M  V30 16335 H 1537.64 -1.98093 -7.29586 0
M  V30 16336 H 1538.91 -0.879912 -7.74518 0
M  V30 16337 N 1543.14 1.28707 -0.909517 0
M  V30 16338 C 1544.36 1.99283 -0.556211 0
M  V30 16339 C 1544.78 1.68 0.861475 0
M  V30 16340 O 1544.14 0.930421 1.57001 0
M  V30 16341 C 1544.19 3.5362 -0.75068 0
M  V30 16342 O 1543.91 3.83799 -2.11258 0
M  V30 16343 C 1545.41 4.41459 -0.403637 0
M  V30 16344 H 1542.63 0.636476 -0.212462 0
M  V30 16345 H 1545.17 1.64007 -1.22156 0
M  V30 16346 H 1543.33 3.87174 -0.132384 0
M  V30 16347 H 1543.74 4.78448 -2.14913 0
M  V30 16348 H 1545.22 5.48833 -0.590496 0
M  V30 16349 H 1545.69 4.34214 0.659897 0
M  V30 16350 H 1546.3 4.13394 -0.999292 0
M  V30 16351 N 1544.61 0.673042 1.42506 0
M  V30 16352 C 1545.86 0.194864 2.01862 0
M  V30 16353 C 1546.19 -1.19491 1.53087 0
M  V30 16354 O 1545.47 -1.80187 0.732322 0
M  V30 16355 C 1545.75 0.227559 3.5938 0
M  V30 16356 C 1545.6 1.65266 4.18338 0
M  V30 16357 C 1546.92 -0.425197 4.38041 0
M  V30 16358 H 1544.04 0.0722831 0.733447 0
M  V30 16359 H 1546.68 0.857493 1.6955 0
M  V30 16360 H 1544.83 -0.336658 3.87039 0
M  V30 16361 H 1546.51 2.26899 4.0164 0
M  V30 16362 H 1544.75 2.19388 3.74234 0
M  V30 16363 H 1545.42 1.62724 5.2747 0
M  V30 16364 H 1547.9 0.0550709 4.16064 0
M  V30 16365 H 1546.77 -0.371675 5.4764 0
M  V30 16366 H 1547.03 -1.50251 4.15785 0
M  V30 16367 N 1546.09 -1.52004 0.416254 0
M  V30 16368 C 1547.06 -2.2579 -0.393882 0
M  V30 16369 C 1548.06 -1.28427 -0.967637 0
M  V30 16370 O 1549.25 -1.52311 -0.845396 0
M  V30 16371 C 1546.38 -3.03361 -1.55515 0
M  V30 16372 H 1547.57 -2.98835 0.252492 0
M  V30 16373 H 1545.12 -1.55384 0.168929 0
M  V30 16374 H 1545.86 -2.34682 -2.23818 0
M  V30 16375 H 1545.64 -3.74852 -1.15015 0
M  V30 16376 H 1547.13 -3.5931 -2.12805 0
M  V30 16377 N 1547.57 -0.146903 -1.56914 0
M  V30 16378 C 1548.82 0.504234 -1.96122 0
M  V30 16379 C 1549.15 1.64879 -1.03175 0
M  V30 16380 O 1548.4 1.95605 -0.0609397 0
M  V30 16381 C 1548.7 1.05159 -3.41579 0
M  V30 16382 C 1548.37 0.0254845 -4.50893 0
M  V30 16383 C 1547.03 -0.256589 -4.80515 0
M  V30 16384 C 1549.38 -0.672284 -5.16846 0
M  V30 16385 C 1546.71 -1.24224 -5.73398 0
M  V30 16386 C 1549.06 -1.64675 -6.1079 0
M  V30 16387 C 1547.72 -1.93652 -6.38792 0
M  V30 16388 H 1546.99 0.184512 -0.71766 0
M  V30 16389 H 1549.64 -0.233712 -1.90069 0
M  V30 16390 H 1547.95 1.86687 -3.44464 0
M  V30 16391 H 1549.64 1.56398 -3.69244 0
M  V30 16392 H 1546.23 0.255517 -4.27838 0
M  V30 16393 H 1550.42 -0.467555 -4.94093 0
M  V30 16394 H 1545.67 -1.47319 -5.93386 0
M  V30 16395 H 1549.85 -2.19294 -6.60971 0
M  V30 16396 H 1547.47 -2.70179 -7.10568 0
M  V30 16397 N 1549.05 1.57088 0.126881 0
M  V30 16398 C 1550.29 1.84709 0.837287 0
M  V30 16399 C 1550.63 0.731496 1.79897 0
M  V30 16400 O 1549.9 -0.263319 1.92709 0
M  V30 16401 C 1550.19 3.22893 1.59412 0
M  V30 16402 C 1550.04 4.45041 0.652578 0
M  V30 16403 C 1551.36 3.58547 2.5521 0
M  V30 16404 H 1548.48 0.671862 0.302937 0
M  V30 16405 H 1551.12 1.89727 0.101783 0
M  V30 16406 H 1549.27 3.18746 2.22112 0
M  V30 16407 H 1550.94 4.61287 0.0350382 0
M  V30 16408 H 1549.18 4.33785 -0.0364578 0
M  V30 16409 H 1549.85 5.38381 1.21861 0
M  V30 16410 H 1552.33 3.63434 2.0262 0
M  V30 16411 H 1551.21 4.56227 3.05202 0
M  V30 16412 H 1551.47 2.85552 3.37509 0
M  V30 16413 N 1550.53 -0.396836 1.52522 0
M  V30 16414 C 1551.77 -1.14037 1.66853 0
M  V30 16415 C 1552.1 -1.90706 0.406987 0
M  V30 16416 O 1551.37 -1.87165 -0.578443 0
M  V30 16417 H 1549.95 -0.423967 0.615029 0
M  V30 16418 H 1552.61 -0.451042 1.89609 0
M  V30 16419 H 1551.7 -1.84763 2.51533 0
M  V30 16420 N 1552.01 -1.43353 -0.654814 0
M  V30 16421 C 1553.23 -1.48536 -1.44748 0
M  V30 16422 C 1553.66 -0.103991 -1.87812 0
M  V30 16423 O 1553.01 0.901924 -1.57274 0
M  V30 16424 C 1553.06 -2.43498 -2.65972 0
M  V30 16425 O 1552.17 -1.92014 -3.64972 0
M  V30 16426 H 1551.51 -0.502476 -0.434067 0
M  V30 16427 H 1554.04 -1.88251 -0.801427 0
M  V30 16428 H 1554.05 -2.60748 -3.13806 0
M  V30 16429 H 1552.72 -3.43847 -2.3397 0
M  V30 16430 H 1551.3 -1.84417 -3.24106 0
M  V30 16431 N 1553.48 0.89303 -1.29857 0
M  V30 16432 C 1554.71 1.6827 -1.21243 0
M  V30 16433 C 1555.13 1.86778 0.222621 0
M  V30 16434 O 1554.49 1.39291 1.1605 0
M  V30 16435 C 1554.54 3.041 -1.93792 0
M  V30 16436 O 1553.64 3.92696 -1.25951 0
M  V30 16437 H 1552.98 0.514479 -0.419771 0
M  V30 16438 H 1555.51 1.11513 -1.7154 0
M  V30 16439 H 1555.52 3.54198 -2.02504 0
M  V30 16440 H 1554.2 2.89948 -2.98166 0
M  V30 16441 H 1552.78 3.51132 -1.25541 0
M  V30 16442 N 1554.96 1.12442 1.10429 0
M  V30 16443 C 1556.21 0.878021 1.82031 0
M  V30 16444 C 1556.53 -0.597787 1.85611 0
M  V30 16445 O 1555.8 -1.43442 1.33422 0
M  V30 16446 H 1554.38 0.321839 0.674113 0
M  V30 16447 H 1557.04 1.41891 1.33615 0
M  V30 16448 H 1556.14 1.25957 2.85554 0
M  V30 16449 N 1556.44 -1.28223 0.91633 0
M  V30 16450 C 1557.68 -1.96637 0.557957 0
M  V30 16451 C 1558.04 -1.70523 -0.882386 0
M  V30 16452 O 1559.24 -2.32529 -1.34846 0
M  V30 16453 C 1557.52 -3.46858 0.861633 0
M  V30 16454 S 1559.07 -4.34538 0.610066 0
M  V30 16455 H 1555.89 -0.680393 0.206364 0
M  V30 16456 H 1558.49 -1.55696 1.18233 0
M  V30 16457 H 1557.2 -3.63361 1.90781 0
M  V30 16458 H 1556.73 -3.9275 0.226011 0
M  V30 16459 H 1558.74 -4.93281 -0.537408 0
M  V30 16460 N 1557.92 -0.68059 -1.42147 0
M  V30 16461 C 1559.17 -0.204857 -2.01059 0
M  V30 16462 C 1559.49 1.19475 -1.54113 0
M  V30 16463 O 1558.76 1.80334 -0.765279 0
M  V30 16464 H 1557.34 -0.0727459 -0.743449 0
M  V30 16465 H 1560 -0.878396 -1.73983 0
M  V30 16466 H 1559.09 -0.210628 -3.11388 0
M  V30 16467 N 1559.4 1.51781 -0.424309 0
M  V30 16468 C 1560.34 2.27418 0.393668 0
M  V30 16469 C 1561.31 1.3046 1.02808 0
M  V30 16470 O 1562.5 1.59345 1.04946 0
M  V30 16471 C 1559.64 3.10983 1.49611 0
M  V30 16472 C 1558.75 4.22919 0.881123 0
M  V30 16473 C 1557.89 4.93816 1.95752 0
M  V30 16474 C 1556.92 5.97691 1.32028 0
M  V30 16475 N 1556.06 6.62047 2.33747 0
M  V30 16476 H 1560.9 2.96883 -0.257731 0
M  V30 16477 H 1558.44 1.46442 -0.138942 0
M  V30 16478 H 1560.4 3.57749 2.14642 0
M  V30 16479 H 1559.03 2.43658 2.11732 0
M  V30 16480 H 1558.08 3.80212 0.119445 0
M  V30 16481 H 1559.39 4.97383 0.375764 0
M  V30 16482 H 1558.54 5.44064 2.68476 0
M  V30 16483 H 1557.28 4.18954 2.49658 0
M  V30 16484 H 1556.29 5.46749 0.578444 0
M  V30 16485 H 1557.51 6.74504 0.788722 0
M  V30 16486 H 1555.46 5.90005 2.86757 0
M  V30 16487 H 1555.38 7.32234 1.88066 0
M  V30 16488 H 1556.64 7.16929 3.05995 0
M  V30 16489 N 1560.87 0.155222 1.56834 0
M  V30 16490 C 1562.1 -0.503763 2.01189 0
M  V30 16491 C 1562.52 -1.57086 1.03468 0
M  V30 16492 O 1561.88 -1.81296 0.0116895 0
M  V30 16493 C 1561.93 -1.07373 3.44243 0
M  V30 16494 O 1561.03 -2.18834 3.49551 0
M  V30 16495 H 1560.37 -0.122368 0.652627 0
M  V30 16496 H 1562.9 0.254377 2.03013 0
M  V30 16497 H 1562.91 -1.40036 3.83215 0
M  V30 16498 H 1561.59 -0.292339 4.14871 0
M  V30 16499 H 1560.17 -1.87337 3.22427 0
M  V30 16500 N 1562.35 -1.57153 -0.118549 0
M  V30 16501 C 1563.58 -1.89062 -0.840429 0
M  V30 16502 C 1563.99 -0.746516 -1.73414 0
M  V30 16503 O 1563.35 0.282638 -1.80298 0
M  V30 16504 C 1563.4 -3.20433 -1.67347 0
M  V30 16505 O 1563.12 -4.30439 -0.815739 0
M  V30 16506 C 1564.62 -3.66048 -2.50047 0
M  V30 16507 H 1561.84 -0.626005 -0.241575 0
M  V30 16508 H 1564.39 -2.04241 -0.102804 0
M  V30 16509 H 1562.54 -3.06922 -2.36385 0
M  V30 16510 H 1562.96 -5.05736 -1.39037 0
M  V30 16511 H 1564.43 -4.60729 -3.04028 0
M  V30 16512 H 1564.91 -2.92727 -3.27426 0
M  V30 16513 H 1565.51 -3.82349 -1.86251 0
M  V30 16514 N 1563.83 0.388742 -1.5273 0
M  V30 16515 C 1565.05 1.15946 -1.71963 0
M  V30 16516 C 1565.48 1.82949 -0.437173 0
M  V30 16517 O 1564.84 1.70834 0.607072 0
M  V30 16518 C 1564.89 2.18298 -2.87016 0
M  V30 16519 O 1563.99 3.24891 -2.54008 0
M  V30 16520 H 1563.33 0.337526 -0.571815 0
M  V30 16521 H 1565.86 0.452957 -1.99523 0
M  V30 16522 H 1565.87 2.6229 -3.12519 0
M  V30 16523 H 1564.55 1.68917 -3.80052 0
M  V30 16524 H 1563.12 2.86034 -2.39246 0
M  V30 16525 N 1565.31 1.43698 0.647203 0
M  V30 16526 C 1566.55 1.45849 1.40911 0
M  V30 16527 C 1566.89 0.0846767 1.94015 0
M  V30 16528 O 1566.16 -0.89537 1.72665 0
M  V30 16529 C 1566.44 2.50579 2.58616 0
M  V30 16530 C 1566.3 3.97258 2.10965 0
M  V30 16531 C 1567.62 2.51981 3.60824 0
M  V30 16532 H 1564.74 0.531056 0.511027 0
M  V30 16533 H 1567.38 1.75283 0.733204 0
M  V30 16534 H 1565.53 2.25611 3.16278 0
M  V30 16535 H 1567.2 4.33304 1.58257 0
M  V30 16536 H 1565.44 4.09802 1.42284 0
M  V30 16537 H 1566.11 4.6616 2.95633 0
M  V30 16538 H 1568.59 2.7425 3.12932 0
M  V30 16539 H 1567.47 3.27191 4.40723 0
M  V30 16540 H 1567.73 1.55582 4.1382 0
M  V30 16541 N 1566.79 -0.886131 1.30328 0
M  V30 16542 C 1567.72 -1.99733 1.12425 0
M  V30 16543 C 1568.73 -1.62659 0.067824 0
M  V30 16544 O 1569.92 -1.75721 0.313723 0
M  V30 16545 C 1567.02 -3.31757 0.692122 0
M  V30 16546 C 1566.19 -3.97276 1.83004 0
M  V30 16547 C 1565.25 -5.076 1.38666 0
M  V30 16548 O 1564.28 -5.29295 2.09368 0
M  V30 16549 N 1565.48 -5.79895 0.265039 0
M  V30 16550 H 1568.25 -2.15643 2.0813 0
M  V30 16551 H 1565.81 -1.05915 1.22449 0
M  V30 16552 H 1567.8 -4.02926 0.37854 0
M  V30 16553 H 1566.37 -3.12122 -0.172864 0
M  V30 16554 H 1565.59 -3.19295 2.3118 0
M  V30 16555 H 1566.88 -4.37789 2.59264 0
M  V30 16556 H 1566.27 -5.64771 -0.324121 0
M  V30 16557 H 1564.83 -6.51799 0.0109044 0
M  V30 16558 N 1568.26 -1.13026 -1.09832 0
M  V30 16559 C 1569.19 -0.826338 -2.18389 0
M  V30 16560 C 1570.18 0.212529 -1.68767 0
M  V30 16561 O 1571.36 0.072363 -1.94065 0
M  V30 16562 C 1568.49 -0.286991 -3.46112 0
M  V30 16563 C 1567.44 -1.25963 -4.09044 0
M  V30 16564 C 1566.77 -0.580231 -5.31542 0
M  V30 16565 C 1568.07 -2.61661 -4.5203 0
M  V30 16566 H 1569.76 -1.73408 -2.4407 0
M  V30 16567 H 1567.31 -0.835201 -1.17305 0
M  V30 16568 H 1569.26 -0.062067 -4.21354 0
M  V30 16569 H 1567.99 0.656121 -3.19942 0
M  V30 16570 H 1566.65 -1.47047 -3.35816 0
M  V30 16571 H 1566.29 0.368222 -5.0165 0
M  V30 16572 H 1565.99 -1.2291 -5.74601 0
M  V30 16573 H 1567.52 -0.36449 -6.09511 0
M  V30 16574 H 1568.93 -2.44569 -5.18516 0
M  V30 16575 H 1567.33 -3.22685 -5.05959 0
M  V30 16576 H 1568.4 -3.19637 -3.64637 0
M  V30 16577 N 1569.74 1.27735 -0.923117 0
M  V30 16578 C 1570.67 2.29395 -0.435907 0
M  V30 16579 C 1571.65 1.62542 0.501403 0
M  V30 16580 O 1572.84 1.89884 0.407135 0
M  V30 16581 C 1569.97 3.45856 0.316348 0
M  V30 16582 C 1568.92 4.24672 -0.532697 0
M  V30 16583 C 1568.25 5.33563 0.348454 0
M  V30 16584 C 1569.55 4.90494 -1.79481 0
M  V30 16585 H 1571.24 2.70398 -1.28551 0
M  V30 16586 H 1568.79 1.29989 -0.619581 0
M  V30 16587 H 1570.74 4.1607 0.668098 0
M  V30 16588 H 1569.47 3.03758 1.19994 0
M  V30 16589 H 1568.12 3.56198 -0.867093 0
M  V30 16590 H 1567.77 4.87708 1.23086 0
M  V30 16591 H 1567.47 5.87202 -0.216104 0
M  V30 16592 H 1569 6.06622 0.695878 0
M  V30 16593 H 1570.41 5.53019 -1.5114 0
M  V30 16594 H 1568.81 5.5417 -2.30251 0
M  V30 16595 H 1569.88 4.14454 -2.51707 0
M  V30 16596 N 1571.22 0.688118 1.41784 0
M  V30 16597 C 1572.15 -0.02099 2.2919 0
M  V30 16598 C 1573.17 -0.752005 1.44391 0
M  V30 16599 O 1574.35 -0.603947 1.67972 0
M  V30 16600 C 1571.45 -1.0537 3.22103 0
M  V30 16601 C 1570.63 -0.393817 4.35624 0
M  V30 16602 C 1569.69 -1.32812 5.09163 0
M  V30 16603 O 1568.71 -0.823341 5.63214 0
M  V30 16604 N 1569.91 -2.66083 5.15927 0
M  V30 16605 H 1572.68 0.729389 2.90689 0
M  V30 16606 H 1570.24 0.533564 1.52855 0
M  V30 16607 H 1572.23 -1.6803 3.68169 0
M  V30 16608 H 1570.8 -1.70568 2.61964 0
M  V30 16609 H 1570.02 0.41253 3.92035 0
M  V30 16610 H 1571.31 0.065338 5.08758 0
M  V30 16611 H 1570.71 -3.09619 4.73448 0
M  V30 16612 H 1569.27 -3.23956 5.65593 0
M  V30 16613 N 1572.7 -1.51554 0.432352 0
M  V30 16614 C 1574.11 -1.59377 0.0843863 0
M  V30 16615 C 1574.31 -1.44364 -1.40575 0
M  V30 16616 O 1573.37 -1.28234 -2.17514 0
M  V30 16617 C 1574.68 -2.94652 0.600046 0
M  V30 16618 C 1576.23 -3.07949 0.560049 0
M  V30 16619 C 1576.71 -4.4574 1.0526 0
M  V30 16620 N 1578.2 -4.52046 1.01038 0
M  V30 16621 C 1578.93 -5.56979 1.36242 0
M  V30 16622 N 1578.43 -6.69355 1.78707 0
M  V30 16623 N 1580.22 -5.47311 1.2809 0
M  V30 16624 H 1572.37 -1.59558 1.40197 0
M  V30 16625 H 1574.64 -0.751868 0.577406 0
M  V30 16626 H 1574.34 -3.10993 1.64245 0
M  V30 16627 H 1574.22 -3.77193 0.0222482 0
M  V30 16628 H 1576.6 -2.91279 -0.473357 0
M  V30 16629 H 1576.68 -2.27259 1.17419 0
M  V30 16630 H 1576.33 -4.63156 2.08445 0
M  V30 16631 H 1576.26 -5.24962 0.415047 0
M  V30 16632 H 1578.75 -3.71389 0.69847 0
M  V30 16633 H 1579.06 -7.45438 2.03819 0
M  V30 16634 H 1577.41 -6.70576 1.82629 0
M  V30 16635 H 1580.6 -4.58403 0.947848 0
M  V30 16636 H 1580.77 -6.28978 1.55855 0
M  V30 16637 N 1574.18 -0.163538 -1.56749 0
M  V30 16638 C 1575.11 0.765571 -2.20593 0
M  V30 16639 C 1576.09 1.24489 -1.15916 0
M  V30 16640 O 1577.27 1.29946 -1.44318 0
M  V30 16641 C 1574.4 1.99823 -2.84057 0
M  V30 16642 C 1573.36 1.65506 -3.94705 0
M  V30 16643 C 1572.68 2.96172 -4.45181 0
M  V30 16644 C 1573.98 0.88902 -5.14678 0
M  V30 16645 H 1575.68 0.233431 -2.98489 0
M  V30 16646 H 1573.22 0.110836 -1.43573 0
M  V30 16647 H 1575.18 2.65316 -3.27392 0
M  V30 16648 H 1573.9 2.55437 -2.03517 0
M  V30 16649 H 1572.56 1.02384 -3.52013 0
M  V30 16650 H 1572.21 3.49811 -3.61443 0
M  V30 16651 H 1571.91 2.73968 -5.19823 0
M  V30 16652 H 1573.43 3.62708 -4.91198 0
M  V30 16653 H 1574.84 1.44637 -5.54755 0
M  V30 16654 H 1573.24 0.766302 -5.95187 0
M  V30 16655 H 1574.31 -0.116145 -4.84761 0
M  V30 16656 N 1575.65 1.57214 0.110213 0
M  V30 16657 C 1576.88 1.8923 0.829187 0
M  V30 16658 C 1577.29 0.753834 1.73534 0
M  V30 16659 O 1576.64 -0.283946 1.81492 0
M  V30 16660 C 1576.7 3.16351 1.7077 0
M  V30 16661 C 1576.36 4.46479 0.974949 0
M  V30 16662 C 1577.36 5.18965 0.311696 0
M  V30 16663 C 1575.04 4.93167 0.953516 0
M  V30 16664 C 1577.04 6.36364 -0.363191 0
M  V30 16665 C 1574.72 6.10482 0.274836 0
M  V30 16666 C 1575.72 6.81929 -0.382355 0
M  V30 16667 O 1575.41 7.97011 -1.05019 0
M  V30 16668 H 1575.14 0.630744 0.243184 0
M  V30 16669 H 1577.7 2.05173 0.09648 0
M  V30 16670 H 1575.93 2.96513 2.48227 0
M  V30 16671 H 1577.62 3.34317 2.30189 0
M  V30 16672 H 1578.38 4.83944 0.319815 0
M  V30 16673 H 1574.26 4.37454 1.45448 0
M  V30 16674 H 1577.8 6.92069 -0.876728 0
M  V30 16675 H 1573.7 6.44958 0.26451 0
M  V30 16676 H 1574.47 8.12903 -0.95555 0
M  V30 16677 N 1577.13 -0.380637 1.52934 0
M  V30 16678 C 1578.41 -1.13958 1.58975 0
M  V30 16679 C 1578.79 -2.07503 0.388028 0
M  V30 16680 O 1578.14 -2.19844 -0.622984 0
M  V30 16681 C 1578.35 -1.89192 2.9327 0
M  V30 16682 C 1579.7 -2.44259 3.47308 0
M  V30 16683 O 1580.72 -1.99338 2.95199 0
M  V30 16684 O 1579.58 -3.26338 4.38367 0
M  V30 16685 H 1576.67 -0.521896 0.641525 0
M  V30 16686 H 1579.22 -0.385114 1.65272 0
M  V30 16687 H 1577.99 -1.20834 3.72176 0
M  V30 16688 H 1577.61 -2.71581 2.90395 0
M  V30 16689 N 1578.61 -1.44039 -0.639573 0
M  V30 16690 C 1580.02 -1.41236 -1.22104 0
M  V30 16691 C 1580.37 -0.123367 -1.95812 0
M  V30 16692 O 1579.5 0.776641 -2.01983 0
M  V30 16693 C 1580.09 -2.55853 -2.22092 0
M  V30 16694 C 1578.65 -2.56271 -2.75685 0
M  V30 16695 C 1577.8 -2.32877 -1.50544 0
M  V30 16696 H 1580.75 -1.52742 -0.430756 0
M  V30 16697 H 1580.77 -2.28123 -3.04533 0
M  V30 16698 H 1580.28 -3.49653 -1.68417 0
M  V30 16699 H 1578.38 -1.66389 -3.33385 0
M  V30 16700 H 1578.5 -3.54486 -3.22299 0
M  V30 16701 H 1576.86 -1.81807 -1.78377 0
M  V30 16702 H 1577.64 -3.2878 -0.987845 0
M  V30 16703 N 1580.09 0.879207 -1.30796 0
M  V30 16704 C 1581.33 1.63392 -1.20129 0
M  V30 16705 C 1581.67 1.92684 0.242164 0
M  V30 16706 O 1580.94 1.55188 1.17247 0
M  V30 16707 C 1581.23 2.97005 -2.03618 0
M  V30 16708 C 1581.08 2.74649 -3.56214 0
M  V30 16709 C 1582.4 3.97998 -1.87845 0
M  V30 16710 H 1579.52 0.592911 -0.437751 0
M  V30 16711 H 1582.16 1.017 -1.6049 0
M  V30 16712 H 1580.31 3.49659 -1.69326 0
M  V30 16713 H 1581.98 2.28738 -4.00595 0
M  V30 16714 H 1580.22 2.09048 -3.80107 0
M  V30 16715 H 1580.89 3.69681 -4.09927 0
M  V30 16716 H 1583.37 3.54523 -2.17836 0
M  V30 16717 H 1582.25 4.89388 -2.48578 0
M  V30 16718 H 1582.51 4.34062 -0.839183 0
M  V30 16719 N 1581.57 1.13606 1.09231 0
M  V30 16720 C 1582.5 0.77306 2.15769 0
M  V30 16721 C 1583.51 -0.206148 1.6149 0
M  V30 16722 O 1584.7 0.014338 1.78494 0
M  V30 16723 C 1581.8 0.125475 3.38668 0
M  V30 16724 C 1580.97 1.13728 4.22356 0
M  V30 16725 C 1580.03 0.515021 5.23674 0
M  V30 16726 O 1579.06 1.1756 5.56928 0
M  V30 16727 N 1580.26 -0.712028 5.76117 0
M  V30 16728 H 1583.03 1.68984 2.47517 0
M  V30 16729 H 1580.59 1.02935 1.24964 0
M  V30 16730 H 1582.58 -0.303109 4.03563 0
M  V30 16731 H 1581.15 -0.694284 3.04792 0
M  V30 16732 H 1580.37 1.74309 3.53568 0
M  V30 16733 H 1581.66 1.82106 4.75094 0
M  V30 16734 H 1581.06 -1.26745 5.51319 0
M  V30 16735 H 1579.61 -1.08324 6.42736 0
M  V30 16736 N 1583.05 -1.27244 0.929878 0
M  V30 16737 C 1584.29 -1.93886 0.570331 0
M  V30 16738 C 1584.61 -1.7342 -0.891656 0
M  V30 16739 O 1583.88 -1.0832 -1.63228 0
M  V30 16740 H 1582.46 -0.717476 0.207937 0
M  V30 16741 H 1585.13 -1.5491 1.18275 0
M  V30 16742 H 1584.22 -3.02236 0.778463 0
M  V30 16743 N 1584.52 -0.695628 -1.41417 0
M  V30 16744 C 1585.46 0.00883515 -2.29198 0
M  V30 16745 C 1586.47 0.744337 -1.44788 0
M  V30 16746 O 1587.66 0.59503 -1.6829 0
M  V30 16747 C 1584.76 1.0366 -3.22657 0
M  V30 16748 C 1583.93 0.37071 -4.35826 0
M  V30 16749 C 1582.99 1.3011 -5.09861 0
M  V30 16750 O 1582.02 0.793461 -5.63642 0
M  V30 16751 N 1583.22 2.63343 -5.1733 0
M  V30 16752 H 1585.98 -0.744795 -2.90298 0
M  V30 16753 H 1583.54 -0.541663 -1.5257 0
M  V30 16754 H 1585.54 1.66075 -3.69054 0
M  V30 16755 H 1584.11 1.69177 -2.62865 0
M  V30 16756 H 1583.33 -0.433315 -3.91811 0
M  V30 16757 H 1584.61 -0.0923178 -5.08716 0
M  V30 16758 H 1584.01 3.07103 -4.75083 0
M  V30 16759 H 1582.57 3.20952 -5.67303 0
M  V30 16760 N 1586 1.51322 -0.440383 0
M  V30 16761 C 1587.25 2.02413 0.125248 0
M  V30 16762 C 1587.58 1.32374 1.42094 0
M  V30 16763 O 1586.86 0.439624 1.89467 0
M  V30 16764 C 1587.14 3.58483 0.340858 0
M  V30 16765 C 1586.99 4.39134 -0.973701 0
M  V30 16766 C 1588.31 4.25891 1.10927 0
M  V30 16767 H 1585.43 0.735683 0.0440452 0
M  V30 16768 H 1588.07 1.80932 -0.579976 0
M  V30 16769 H 1586.22 3.76917 0.941572 0
M  V30 16770 H 1587.89 4.32343 -1.60863 0
M  V30 16771 H 1586.14 4.04097 -1.57759 0
M  V30 16772 H 1586.81 5.46506 -0.776845 0
M  V30 16773 H 1589.28 4.11746 0.600403 0
M  V30 16774 H 1588.16 5.34967 1.2289 0
M  V30 16775 H 1588.42 3.86958 2.13813 0
M  V30 16776 N 1587.48 0.171848 1.5666 0
M  V30 16777 C 1588.41 -0.753861 2.20996 0
M  V30 16778 C 1589.39 -1.23873 1.16574 0
M  V30 16779 O 1590.58 -1.29179 1.45005 0
M  V30 16780 C 1587.71 -1.98314 2.85112 0
M  V30 16781 C 1586.66 -1.6341 3.95577 0
M  V30 16782 C 1585.99 -2.93807 4.46745 0
M  V30 16783 C 1587.29 -0.861713 5.15142 0
M  V30 16784 H 1588.98 -0.217598 2.98608 0
M  V30 16785 H 1586.53 -0.10322 1.4363 0
M  V30 16786 H 1588.48 -2.63576 3.28794 0
M  V30 16787 H 1587.2 -2.54354 2.04869 0
M  V30 16788 H 1585.86 -1.00516 3.52551 0
M  V30 16789 H 1585.51 -3.47889 3.63293 0
M  V30 16790 H 1585.21 -2.71207 5.21268 0
M  V30 16791 H 1586.73 -3.60098 4.93114 0
M  V30 16792 H 1588.15 -1.41693 5.55514 0
M  V30 16793 H 1586.54 -0.734727 5.95585 0
M  V30 16794 H 1587.61 0.141851 4.84692 0
M  V30 16795 N 1588.96 -1.5727 -0.101874 0
M  V30 16796 C 1590.2 -1.85742 -0.8066 0
M  V30 16797 C 1590.53 -0.759408 -1.79062 0
M  V30 16798 O 1589.79 0.247657 -1.94127 0
M  V30 16799 C 1590.09 -3.20773 -1.57605 0
M  V30 16800 C 1589.75 -4.44873 -0.734768 0
M  V30 16801 C 1588.41 -4.78566 -0.502829 0
M  V30 16802 C 1590.77 -5.20986 -0.14949 0
M  V30 16803 C 1588.09 -5.85803 0.324363 0
M  V30 16804 C 1590.45 -6.29095 0.664987 0
M  V30 16805 C 1589.11 -6.61308 0.907082 0
M  V30 16806 H 1588.38 -0.679679 -0.295156 0
M  V30 16807 H 1591.03 -1.91378 -0.0683238 0
M  V30 16808 H 1589.33 -3.10791 -2.38571 0
M  V30 16809 H 1591.03 -3.40029 -2.12559 0
M  V30 16810 H 1587.62 -4.18485 -0.92565 0
M  V30 16811 H 1591.8 -4.95294 -0.315859 0
M  V30 16812 H 1587.06 -6.09176 0.520978 0
M  V30 16813 H 1591.23 -6.87246 1.1254 0
M  V30 16814 H 1588.86 -7.44234 1.54986 0
M  V30 16815 N 1590.44 0.372521 -1.53134 0
M  V30 16816 C 1591.71 1.13113 -1.59577 0
M  V30 16817 C 1592.09 2.07294 -0.399027 0
M  V30 16818 O 1591.44 2.20171 0.611316 0
M  V30 16819 C 1591.65 1.87635 -2.94269 0
M  V30 16820 C 1593 2.42414 -3.48598 0
M  V30 16821 O 1594.02 1.9777 -2.96252 0
M  V30 16822 O 1592.88 3.24008 -4.40092 0
M  V30 16823 H 1589.98 0.518486 -0.644284 0
M  V30 16824 H 1592.52 0.376344 -1.65474 0
M  V30 16825 H 1591.29 1.18859 -3.72811 0
M  V30 16826 H 1590.92 2.70037 -2.91831 0
M  V30 16827 N 1591.91 1.44376 0.631925 0
M  V30 16828 C 1593.16 1.46827 1.38875 0
M  V30 16829 C 1593.48 0.101789 1.94734 0
M  V30 16830 O 1592.75 -0.86579 1.7573 0
M  V30 16831 H 1591.33 0.540642 0.515475 0
M  V30 16832 H 1593.99 1.80148 0.743822 0
M  V30 16833 H 1593.09 2.19321 2.22047 0
M  V30 16834 N 1593.39 -0.872258 1.31261 0
M  V30 16835 C 1594.64 -1.62752 1.20994 0
M  V30 16836 C 1594.97 -1.9281 -0.231942 0
M  V30 16837 O 1594.25 -1.55808 -1.16423 0
M  V30 16838 C 1594.53 -2.95921 2.0519 0
M  V30 16839 C 1594.38 -2.72756 3.57665 0
M  V30 16840 C 1595.7 -3.96996 1.89953 0
M  V30 16841 H 1592.82 -0.590581 0.440889 0
M  V30 16842 H 1595.46 -1.00848 1.61027 0
M  V30 16843 H 1593.61 -3.48756 1.71177 0
M  V30 16844 H 1595.28 -2.26611 4.01803 0
M  V30 16845 H 1593.53 -2.07029 3.81211 0
M  V30 16846 H 1594.2 -3.67502 4.11882 0
M  V30 16847 H 1596.67 -3.53363 2.19713 0
M  V30 16848 H 1595.55 -4.88063 2.51169 0
M  V30 16849 H 1595.81 -4.33611 0.862191 0
M  V30 16850 N 1594.87 -1.14184 -1.08627 0
M  V30 16851 C 1596.15 -0.81955 -1.77603 0
M  V30 16852 C 1596.53 0.687377 -1.99595 0
M  V30 16853 O 1595.87 1.62744 -1.60396 0
M  V30 16854 C 1596.08 -1.61574 -3.09346 0
M  V30 16855 C 1597.43 -1.81367 -3.83916 0
M  V30 16856 O 1598.46 -1.58241 -3.19121 0
M  V30 16857 O 1597.32 -2.20011 -5.00257 0
M  V30 16858 H 1594.41 -0.300086 -0.770635 0
M  V30 16859 H 1596.96 -1.24691 -1.15109 0
M  V30 16860 H 1595.73 -2.63946 -2.88874 0
M  V30 16861 H 1595.35 -1.18386 -3.79566 0
M  V30 16862 N 1596.35 1.26749 -0.936613 0
M  V30 16863 C 1597.31 2.24794 -0.447243 0
M  V30 16864 C 1598.31 1.54688 0.439135 0
M  V30 16865 O 1599.5 1.72553 0.238957 0
M  V30 16866 C 1596.63 3.39036 0.355958 0
M  V30 16867 H 1597.83 2.696 -1.31361 0
M  V30 16868 H 1595.38 1.38825 -0.718143 0
M  V30 16869 H 1596.11 2.99625 1.24077 0
M  V30 16870 H 1595.9 3.91101 -0.279691 0
M  V30 16871 H 1597.39 4.11887 0.688421 0
M  V30 16872 N 1597.83 0.703118 1.41046 0
M  V30 16873 C 1598.77 0.0425767 2.30761 0
M  V30 16874 C 1599.74 -0.763406 1.47517 0
M  V30 16875 O 1600.93 -0.7299 1.76287 0
M  V30 16876 C 1598.07 -0.882353 3.33629 0
M  V30 16877 C 1597.18 -0.0671799 4.31948 0
M  V30 16878 C 1596.32 -0.990443 5.21885 0
M  V30 16879 C 1595.36 -0.168622 6.11868 0
M  V30 16880 N 1594.49 -1.04609 6.94263 0
M  V30 16881 H 1599.33 0.813363 2.86685 0
M  V30 16882 H 1596.87 0.412804 1.41189 0
M  V30 16883 H 1598.83 -1.43273 3.91827 0
M  V30 16884 H 1597.46 -1.61946 2.79237 0
M  V30 16885 H 1596.51 0.600219 3.75635 0
M  V30 16886 H 1597.82 0.569624 4.95537 0
M  V30 16887 H 1596.98 -1.60979 5.84954 0
M  V30 16888 H 1595.71 -1.66109 4.5854 0
M  V30 16889 H 1594.72 0.463746 5.47841 0
M  V30 16890 H 1595.94 0.49834 6.77269 0
M  V30 16891 H 1593.89 -1.70262 6.33519 0
M  V30 16892 H 1593.81 -0.465036 7.54568 0
M  V30 16893 H 1595.08 -1.65201 7.61793 0
M  V30 16894 N 1599.3 -1.51086 0.448402 0
M  V30 16895 C 1600.21 -2.3177 -0.363323 0
M  V30 16896 C 1601.23 -1.41159 -1.01736 0
M  V30 16897 O 1602.41 -1.74226 -1.01031 0
M  V30 16898 C 1599.47 -3.15211 -1.4437 0
M  V30 16899 C 1598.53 -4.21615 -0.808643 0
M  V30 16900 C 1597.77 -5.01069 -1.83754 0
M  V30 16901 O 1597.99 -4.81296 -3.06121 0
M  V30 16902 O 1596.92 -5.84863 -1.42193 0
M  V30 16903 H 1600.75 -3.02257 0.295653 0
M  V30 16904 H 1598.33 -1.47907 0.210703 0
M  V30 16905 H 1600.22 -3.67053 -2.07002 0
M  V30 16906 H 1598.89 -2.47476 -2.08656 0
M  V30 16907 H 1597.8 -3.73823 -0.143975 0
M  V30 16908 H 1599.13 -4.91756 -0.209098 0
M  V30 16909 N 1600.78 -0.180154 -1.56567 0
M  V30 16910 C 1601.71 0.742131 -2.21393 0
M  V30 16911 C 1602.69 1.23253 -1.1723 0
M  V30 16912 O 1603.88 1.28408 -1.45688 0
M  V30 16913 C 1601.01 1.96799 -2.8616 0
M  V30 16914 C 1599.96 1.6131 -3.96438 0
M  V30 16915 C 1599.29 2.91434 -4.48297 0
M  V30 16916 C 1600.59 0.834382 -5.15592 0
M  V30 16917 H 1602.28 0.201759 -2.98719 0
M  V30 16918 H 1599.83 0.0956016 -1.43682 0
M  V30 16919 H 1601.78 2.61828 -3.30188 0
M  V30 16920 H 1600.51 2.53264 -2.06215 0
M  V30 16921 H 1599.16 0.986451 -3.53079 0
M  V30 16922 H 1598.81 3.45958 -3.65133 0
M  V30 16923 H 1598.51 2.68439 -5.22699 0
M  V30 16924 H 1600.04 3.57478 -4.95017 0
M  V30 16925 H 1601.45 1.38745 -5.56258 0
M  V30 16926 H 1599.85 0.703132 -5.95966 0
M  V30 16927 H 1600.92 -0.167554 -4.8461 0
M  V30 16928 N 1602.26 1.57322 0.0935319 0
M  V30 16929 C 1603.21 2.03184 1.13222 0
M  V30 16930 C 1604.2 0.933184 1.41379 0
M  V30 16931 O 1605.41 1.11836 1.41042 0
M  V30 16932 H 1601.78 0.647541 0.382354 0
M  V30 16933 H 1603.75 2.89606 0.719105 0
M  V30 16934 C 1602.5 2.47336 2.44378 0
M  V30 16935 H 1601.83 3.31456 2.23556 0
M  V30 16936 H 1603.27 2.83199 3.15554 0
M  V30 16937 C 1601.73 1.34728 3.08788 0
M  V30 16938 O 1602.26 0.677285 3.95949 0
M  V30 16939 N 1600.46 1.09787 2.69063 0
M  V30 16940 H 1600.01 1.64451 1.98277 0
M  V30 16941 H 1599.97 0.346436 3.12485 0
M  V30 16942 N 1603.74 -0.364395 1.53329 0
M  V30 16943 C 1604.98 -1.10855 1.6982 0
M  V30 16944 C 1605.32 -1.88931 0.449291 0
M  V30 16945 O 1604.59 -1.8646 -0.553437 0
M  V30 16946 C 1604.88 -2.06681 2.94881 0
M  V30 16947 C 1604.73 -1.32206 4.29932 0
M  V30 16948 C 1606.05 -3.06788 3.15546 0
M  V30 16949 H 1603.17 -0.401626 0.617953 0
M  V30 16950 H 1605.81 -0.389244 1.8597 0
M  V30 16951 H 1603.96 -2.68019 2.81244 0
M  V30 16952 H 1605.63 -0.73642 4.55384 0
M  V30 16953 H 1603.87 -0.623916 4.2929 0
M  V30 16954 H 1604.54 -2.0235 5.13574 0
M  V30 16955 H 1607.02 -2.55554 3.28377 0
M  V30 16956 H 1605.9 -3.71059 4.04483 0
M  V30 16957 H 1606.16 -3.77023 2.3088 0
M  V30 16958 N 1605.22 -1.44709 -0.62426 0
M  V30 16959 C 1606.15 -1.48097 -1.74928 0
M  V30 16960 C 1607.16 -0.373567 -1.58456 0
M  V30 16961 O 1608.35 -0.639699 -1.66644 0
M  V30 16962 C 1605.45 -1.30576 -3.12735 0
M  V30 16963 C 1604.62 -2.54688 -3.55602 0
M  V30 16964 C 1603.68 -2.31966 -4.72311 0
M  V30 16965 O 1602.71 -3.05492 -4.80274 0
M  V30 16966 N 1603.91 -1.35463 -5.64473 0
M  V30 16967 H 1606.68 -2.45086 -1.72491 0
M  V30 16968 H 1604.24 -1.40236 -0.809039 0
M  V30 16969 H 1606.23 -1.13212 -3.88542 0
M  V30 16970 H 1604.8 -0.419262 -3.09776 0
M  V30 16971 H 1604.02 -2.87282 -2.69931 0
M  V30 16972 H 1605.31 -3.37223 -3.80996 0
M  V30 16973 H 1604.7 -0.747509 -5.60739 0
M  V30 16974 H 1603.26 -1.24075 -6.39882 0
M  V30 16975 N 1606.69 0.865285 -1.31722 0
M  V30 16976 C 1607.94 1.62098 -1.22865 0
M  V30 16977 C 1608.3 1.91249 0.210099 0
M  V30 16978 O 1607.59 1.53634 1.14487 0
M  V30 16979 C 1607.78 2.95462 -2.0109 0
M  V30 16980 C 1607.61 2.79333 -3.52425 0
M  V30 16981 C 1606.38 2.78273 -4.21773 0
M  V30 16982 C 1608.58 2.53854 -4.47284 0
M  V30 16983 N 1606.56 2.53243 -5.59233 0
M  V30 16984 C 1607.93 2.38131 -5.72445 0
M  V30 16985 C 1609.99 2.39236 -4.36658 0
M  V30 16986 C 1608.69 2.09276 -6.88183 0
M  V30 16987 C 1610.72 2.1177 -5.52184 0
M  V30 16988 C 1610.08 1.96839 -6.76338 0
M  V30 16989 H 1606.18 0.597308 -0.504724 0
M  V30 16990 H 1608.76 1.01803 -1.65965 0
M  V30 16991 H 1606.93 3.53754 -1.60352 0
M  V30 16992 H 1608.66 3.60343 -1.84214 0
M  V30 16993 H 1605.42 2.90826 -3.73788 0
M  V30 16994 H 1605.84 2.43686 -6.31622 0
M  V30 16995 H 1610.49 2.49505 -3.41331 0
M  V30 16996 H 1608.2 1.97745 -7.83532 0
M  V30 16997 H 1611.79 2.01253 -5.45883 0
M  V30 16998 H 1610.67 1.75888 -7.64221 0
M  V30 16999 N 1608.17 1.14759 1.0802 0
M  V30 17000 C 1609.1 0.860977 2.17047 0
M  V30 17001 C 1610.08 -0.185652 1.69084 0
M  V30 17002 O 1611.27 -0.0414797 1.94156 0
M  V30 17003 C 1608.4 0.342018 3.45612 0
M  V30 17004 C 1607.35 1.32455 4.06989 0
M  V30 17005 C 1606.68 0.664721 5.30552 0
M  V30 17006 C 1607.98 2.68819 4.4781 0
M  V30 17007 H 1609.67 1.77269 2.4128 0
M  V30 17008 H 1607.22 0.853757 1.15961 0
M  V30 17009 H 1609.17 0.129093 4.21202 0
M  V30 17010 H 1607.9 -0.605138 3.20945 0
M  V30 17011 H 1606.55 1.52371 3.33435 0
M  V30 17012 H 1606.2 -0.288367 5.02173 0
M  V30 17013 H 1605.9 1.32036 5.72573 0
M  V30 17014 H 1607.43 0.461412 6.08854 0
M  V30 17015 H 1608.84 2.52787 5.14559 0
M  V30 17016 H 1607.24 3.30694 5.00761 0
M  V30 17017 H 1608.31 3.25398 3.59506 0
M  V30 17018 N 1609.65 -1.26251 0.943322 0
M  V30 17019 C 1611.07 -1.45943 0.645966 0
M  V30 17020 C 1611.27 -1.84936 -0.800064 0
M  V30 17021 O 1610.32 -1.97238 -1.57649 0
M  V30 17022 C 1611.64 -2.54017 1.60922 0
M  V30 17023 C 1613.18 -2.67866 1.61916 0
M  V30 17024 C 1613.66 -3.79113 2.56977 0
M  V30 17025 N 1615.15 -3.86509 2.55275 0
M  V30 17026 C 1615.88 -4.72048 3.25513 0
M  V30 17027 N 1615.38 -5.61959 4.05184 0
M  V30 17028 N 1617.17 -4.65913 3.14454 0
M  V30 17029 H 1609.32 -0.992295 1.87796 0
M  V30 17030 H 1611.59 -0.497204 0.80715 0
M  V30 17031 H 1611.29 -2.32197 2.64155 0
M  V30 17032 H 1611.17 -3.51715 1.36294 0
M  V30 17033 H 1613.55 -2.89059 0.594067 0
M  V30 17034 H 1613.64 -1.70604 1.90598 0
M  V30 17035 H 1613.28 -3.58673 3.59605 0
M  V30 17036 H 1613.21 -4.75836 2.25583 0
M  V30 17037 H 1615.7 -3.22229 1.97425 0
M  V30 17038 H 1616.01 -6.24127 4.55725 0
M  V30 17039 H 1614.36 -5.61704 4.09285 0
M  V30 17040 H 1617.55 -3.94675 2.51693 0
M  V30 17041 H 1617.72 -5.32356 3.69461 0
M  V30 17042 N 1611.13 -0.710588 -1.40671 0
M  V30 17043 C 1612.35 -0.256007 -2.05814 0
M  V30 17044 C 1612.78 1.09178 -1.53173 0
M  V30 17045 O 1612.14 1.68665 -0.664977 0
M  V30 17046 C 1612.19 -0.240528 -3.59797 0
M  V30 17047 O 1611.29 0.779859 -4.04959 0
M  V30 17048 H 1610.63 -0.121326 -0.652822 0
M  V30 17049 H 1613.16 -0.969667 -1.80163 0
M  V30 17050 H 1613.17 -0.0765027 -4.07928 0
M  V30 17051 H 1611.85 -1.22411 -3.97478 0
M  V30 17052 H 1610.42 0.583965 -3.68299 0
M  V30 17053 N 1612.61 1.50847 -0.456408 0
M  V30 17054 C 1613.54 2.26004 0.381421 0
M  V30 17055 C 1614.55 1.30757 0.969872 0
M  V30 17056 O 1615.74 1.56375 0.86077 0
M  V30 17057 C 1612.84 3.01506 1.54748 0
M  V30 17058 C 1612.01 4.23997 1.07448 0
M  V30 17059 C 1611.07 4.81917 2.11288 0
M  V30 17060 O 1610.1 5.43238 1.69945 0
M  V30 17061 N 1611.3 4.67622 3.43962 0
M  V30 17062 H 1614.07 2.98545 -0.262823 0
M  V30 17063 H 1611.63 1.59347 -0.286357 0
M  V30 17064 H 1613.62 3.37137 2.23877 0
M  V30 17065 H 1612.19 2.31856 2.0967 0
M  V30 17066 H 1611.41 3.93642 0.209584 0
M  V30 17067 H 1612.7 5.03446 0.736144 0
M  V30 17068 H 1612.1 4.18821 3.8027 0
M  V30 17069 H 1610.65 5.07562 4.0893 0
M  V30 17070 N 1614.09 0.188454 1.56469 0
M  V30 17071 C 1615.33 -0.452238 1.96565 0
M  V30 17072 C 1615.65 -1.63219 1.07792 0
M  V30 17073 O 1616.85 -2.34024 1.37641 0
M  V30 17074 C 1615.31 -0.855966 3.49573 0
M  V30 17075 C 1614.92 0.299329 4.46999 0
M  V30 17076 C 1616.66 -1.46411 3.98452 0
M  V30 17077 C 1614.57 -0.124987 5.91268 0
M  V30 17078 H 1613.5 -0.172729 0.733949 0
M  V30 17079 H 1616.15 0.279415 1.8136 0
M  V30 17080 H 1614.53 -1.64409 3.60258 0
M  V30 17081 H 1615.71 1.07681 4.48042 0
M  V30 17082 H 1614.02 0.818542 4.08275 0
M  V30 17083 H 1616.62 -1.79392 5.03709 0
M  V30 17084 H 1616.96 -2.36822 3.42376 0
M  V30 17085 H 1617.49 -0.740088 3.90855 0
M  V30 17086 H 1614.23 0.744769 6.51255 0
M  V30 17087 H 1613.75 -0.86747 5.93494 0
M  V30 17088 H 1615.43 -0.563054 6.44545 0
M  V30 17089 N 1615.56 -1.5737 -0.0851874 0
M  V30 17090 C 1616.53 -2.01789 -1.08692 0
M  V30 17091 C 1617.53 -0.912872 -1.32376 0
M  V30 17092 O 1618.72 -1.1781 -1.28322 0
M  V30 17093 C 1615.85 -2.38708 -2.43375 0
M  V30 17094 H 1617.04 -2.91511 -0.704359 0
M  V30 17095 H 1614.59 -1.52765 -0.330528 0
M  V30 17096 H 1615.33 -1.5197 -2.86488 0
M  V30 17097 H 1615.11 -3.19331 -2.2753 0
M  V30 17098 H 1616.6 -2.73697 -3.15404 0
M  V30 17099 N 1617.04 0.356258 -1.53521 0
M  V30 17100 C 1618.29 1.09526 -1.69372 0
M  V30 17101 C 1618.6 1.90189 -0.456912 0
M  V30 17102 O 1619.81 2.66928 -0.496141 0
M  V30 17103 C 1618.27 1.99643 -2.99451 0
M  V30 17104 C 1617.87 1.24248 -4.30426 0
M  V30 17105 C 1619.62 2.73478 -3.24669 0
M  V30 17106 C 1617.52 2.13321 -5.51587 0
M  V30 17107 H 1616.45 0.412594 -0.631096 0
M  V30 17108 H 1619.11 0.355603 -1.80021 0
M  V30 17109 H 1617.49 2.77377 -2.82627 0
M  V30 17110 H 1618.66 0.515123 -4.57912 0
M  V30 17111 H 1616.98 0.622355 -4.11723 0
M  V30 17112 H 1619.57 3.40366 -4.12377 0
M  V30 17113 H 1619.92 3.39355 -2.4113 0
M  V30 17114 H 1620.45 2.02823 -3.4221 0
M  V30 17115 H 1617.19 1.52006 -6.37632 0
M  V30 17116 H 1616.71 2.8388 -5.28368 0
M  V30 17117 H 1618.39 2.72666 -5.86739 0
M  V30 17118 N 1618.52 1.45038 0.616577 0
M  V30 17119 C 1619.77 1.48805 1.37786 0
M  V30 17120 C 1620.1 0.125811 1.93792 0
M  V30 17121 O 1619.37 -0.858544 1.74526 0
M  V30 17122 C 1619.66 2.56008 2.53242 0
M  V30 17123 C 1619.51 4.01643 2.02491 0
M  V30 17124 C 1620.83 2.59578 3.55398 0
M  V30 17125 H 1617.95 0.541776 0.499647 0
M  V30 17126 H 1620.59 1.76799 0.695859 0
M  V30 17127 H 1618.74 2.32269 3.11422 0
M  V30 17128 H 1620.41 4.36564 1.4903 0
M  V30 17129 H 1618.65 4.12728 1.33559 0
M  V30 17130 H 1619.33 4.72326 2.85679 0
M  V30 17131 H 1621.8 2.80826 3.07044 0
M  V30 17132 H 1620.68 3.36466 4.33684 0
M  V30 17133 H 1620.94 1.64325 4.10426 0
M  V30 17134 N 1620 -0.858287 1.32179 0
M  V30 17135 C 1621.41 -1.4281 1.20259 0
M  V30 17136 C 1621.76 -1.95313 -0.186332 0
M  V30 17137 O 1620.88 -1.87244 -1.08484 0
M  V30 17138 C 1621.48 -2.59589 2.17713 0
M  V30 17139 C 1620.04 -3.1258 2.09691 0
M  V30 17140 C 1619.19 -1.85317 2.06283 0
M  V30 17141 H 1622.14 -0.665769 1.4406 0
M  V30 17142 H 1622.16 -3.36639 1.77354 0
M  V30 17143 H 1621.67 -2.21346 3.18791 0
M  V30 17144 H 1619.77 -3.55416 1.11849 0
M  V30 17145 H 1619.88 -3.74071 2.99346 0
M  V30 17146 H 1618.25 -2.04766 1.51469 0
M  V30 17147 H 1619.03 -1.49296 3.09137 0
M  V30 17148 N 1621.48 -1.1533 -1.07409 0
M  V30 17149 C 1622.41 -0.807289 -2.14512 0
M  V30 17150 C 1623.42 0.18043 -1.61797 0
M  V30 17151 O 1624.61 -0.042733 -1.78449 0
M  V30 17152 C 1621.71 -0.179338 -3.38425 0
M  V30 17153 C 1620.88 -1.20433 -4.20493 0
M  V30 17154 C 1619.94 -0.598268 -5.22788 0
M  V30 17155 O 1618.97 -1.26405 -5.54987 0
M  V30 17156 N 1620.17 0.620283 -5.77177 0
M  V30 17157 H 1622.93 -1.729 -2.44797 0
M  V30 17158 H 1620.5 -1.0491 -1.23311 0
M  V30 17159 H 1622.49 0.238867 -4.03994 0
M  V30 17160 H 1621.06 0.645706 -3.05858 0
M  V30 17161 H 1620.28 -1.79912 -3.5075 0
M  V30 17162 H 1621.57 -1.89642 -4.72137 0
M  V30 17163 H 1620.96 1.17958 -5.53265 0
M  V30 17164 H 1619.52 0.980853 -6.44378 0
M  V30 17165 N 1622.95 1.25748 -0.950004 0
M  V30 17166 C 1623.86 2.29783 -0.472971 0
M  V30 17167 C 1624.88 1.6788 0.457403 0
M  V30 17168 O 1626.06 1.98598 0.334779 0
M  V30 17169 C 1623.12 3.45826 0.245955 0
M  V30 17170 C 1622.18 4.23184 -0.722063 0
M  V30 17171 C 1621.41 5.33687 -0.0373517 0
M  V30 17172 O 1621.64 5.58105 1.1779 0
M  V30 17173 O 1620.57 5.97572 -0.72054 0
M  V30 17174 H 1624.4 2.72668 -1.33737 0
M  V30 17175 H 1621.98 1.31111 -0.71626 0
M  V30 17176 H 1623.86 4.16348 0.650563 0
M  V30 17177 H 1622.54 3.04953 1.0856 0
M  V30 17178 H 1621.45 3.55109 -1.17679 0
M  V30 17179 H 1622.78 4.67829 -1.52959 0
M  V30 17180 N 1624.43 0.718038 1.40292 0
M  V30 17181 C 1625.84 0.330675 1.83748 0
M  V30 17182 C 1626.19 -1.13511 1.6003 0
M  V30 17183 O 1625.32 -1.87381 1.08247 0
M  V30 17184 C 1625.91 0.593398 3.33563 0
M  V30 17185 C 1624.47 0.259717 3.75503 0
M  V30 17186 C 1623.62 0.864537 2.63479 0
M  V30 17187 H 1626.57 0.917 1.29525 0
M  V30 17188 H 1626.59 -0.140544 3.8024 0
M  V30 17189 H 1626.1 1.66028 3.50794 0
M  V30 17190 H 1624.2 -0.802011 3.63866 0
M  V30 17191 H 1624.32 0.730427 4.73499 0
M  V30 17192 H 1622.68 0.292399 2.53016 0
M  V30 17193 H 1623.46 1.93574 2.83521 0
M  V30 17194 N 1625.91 -1.50602 0.464402 0
M  V30 17195 C 1627.16 -2.02587 -0.0930295 0
M  V30 17196 C 1627.49 -1.34618 -1.3997 0
M  V30 17197 O 1626.76 -0.469711 -1.88743 0
M  V30 17198 C 1627.05 -3.5898 -0.283783 0
M  V30 17199 C 1626.9 -4.3753 1.04344 0
M  V30 17200 C 1628.22 -4.27602 -1.04138 0
M  V30 17201 H 1625.34 -0.73629 -0.0323356 0
M  V30 17202 H 1627.98 -1.79986 0.608687 0
M  V30 17203 H 1626.13 -3.78368 -0.881488 0
M  V30 17204 H 1627.8 -4.29729 1.67721 0
M  V30 17205 H 1626.05 -4.01536 1.64168 0
M  V30 17206 H 1626.72 -5.45201 0.863691 0
M  V30 17207 H 1629.19 -4.12649 -0.534822 0
M  V30 17208 H 1628.07 -5.36854 -1.14364 0
M  V30 17209 H 1628.33 -3.9031 -2.0763 0
M  V30 17210 N 1627.39 -0.19675 -1.56367 0
M  V30 17211 C 1628.32 0.718607 -2.22167 0
M  V30 17212 C 1629.3 1.22002 -1.1853 0
M  V30 17213 O 1630.48 1.26856 -1.47042 0
M  V30 17214 C 1627.61 1.93753 -2.88231 0
M  V30 17215 C 1626.57 1.57096 -3.98127 0
M  V30 17216 C 1625.89 2.86663 -4.51363 0
M  V30 17217 C 1627.19 0.779649 -5.16448 0
M  V30 17218 H 1628.89 0.170064 -2.98917 0
M  V30 17219 H 1626.43 0.0803568 -1.43776 0
M  V30 17220 H 1628.39 2.58312 -3.32946 0
M  V30 17221 H 1627.11 2.51063 -2.0889 0
M  V30 17222 H 1625.77 0.948947 -3.54105 0
M  V30 17223 H 1625.42 3.42066 -3.68782 0
M  V30 17224 H 1625.12 2.6288 -5.25517 0
M  V30 17225 H 1626.64 3.52207 -4.98781 0
M  V30 17226 H 1628.06 1.32838 -5.57698 0
M  V30 17227 H 1626.45 0.639882 -5.96679 0
M  V30 17228 H 1627.52 -0.218944 -4.84405 0
M  V30 17229 N 1628.87 1.57413 0.0768405 0
M  V30 17230 C 1630.11 1.87002 0.776948 0
M  V30 17231 C 1630.44 0.787799 1.77831 0
M  V30 17232 O 1629.7 -0.216742 1.94496 0
M  V30 17233 C 1630 3.2324 1.52482 0
M  V30 17234 C 1629.66 4.45986 0.663899 0
M  V30 17235 C 1628.32 4.79305 0.426629 0
M  V30 17236 C 1630.68 5.21157 0.0665867 0
M  V30 17237 C 1628 5.85213 -0.417518 0
M  V30 17238 C 1630.36 6.27958 -0.764986 0
M  V30 17239 C 1629.02 6.59781 -1.01218 0
M  V30 17240 H 1628.29 0.684289 0.284306 0
M  V30 17241 H 1630.94 1.91463 0.0378686 0
M  V30 17242 H 1629.24 3.14547 2.33596 0
M  V30 17243 H 1630.94 3.43368 2.07123 0
M  V30 17244 H 1627.53 4.19905 0.858956 0
M  V30 17245 H 1631.71 4.95734 0.237022 0
M  V30 17246 H 1626.97 6.0827 -0.617827 0
M  V30 17247 H 1631.14 6.85369 -1.23459 0
M  V30 17248 H 1628.77 7.41674 -1.66806 0
M  V30 17249 N 1630.34 -0.348112 1.53707 0
M  V30 17250 C 1631.29 -1.44755 1.82068 0
M  V30 17251 C 1632.29 -1.54672 0.690865 0
M  V30 17252 O 1633.49 -1.5735 0.874123 0
M  V30 17253 H 1629.87 -0.482562 0.576747 0
M  V30 17254 H 1631.84 -1.18047 2.74058 0
M  V30 17255 C 1630.59 -2.81345 2.04305 0
M  V30 17256 H 1629.91 -2.74479 2.90691 0
M  V30 17257 H 1631.35 -3.57405 2.28117 0
M  V30 17258 C 1629.81 -3.26586 0.827224 0
M  V30 17259 O 1630.34 -4.01693 0.0244098 0
M  V30 17260 N 1628.55 -2.83335 0.645731 0
M  V30 17261 H 1628.09 -2.22379 1.3002 0
M  V30 17262 H 1628.05 -3.1396 -0.166313 0
M  V30 17263 N 1631.82 -1.45363 -0.608876 0
M  V30 17264 C 1633.06 -1.50852 -1.37925 0
M  V30 17265 C 1633.43 -0.146034 -1.91444 0
M  V30 17266 O 1634.63 -0.0756115 -2.68694 0
M  V30 17267 C 1632.9 -2.55668 -2.49737 0
M  V30 17268 S 1634.46 -2.80371 -3.37546 0
M  V30 17269 H 1631.28 -0.533283 -0.470244 0
M  V30 17270 H 1633.88 -1.82435 -0.702697 0
M  V30 17271 H 1632.58 -3.53334 -2.08767 0
M  V30 17272 H 1632.11 -2.25731 -3.22194 0
M  V30 17273 H 1634.13 -2.13653 -4.47847 0
M  V30 17274 N 1633.3 0.851265 -1.32632 0
M  V30 17275 C 1634.53 1.64328 -1.26535 0
M  V30 17276 C 1634.95 1.87392 0.163086 0
M  V30 17277 O 1634.31 1.42913 1.1156 0
M  V30 17278 C 1634.36 2.97781 -2.03369 0
M  V30 17279 O 1633.46 3.8849 -1.38381 0
M  V30 17280 H 1632.8 0.500864 -0.435926 0
M  V30 17281 H 1635.33 1.06 -1.75001 0
M  V30 17282 H 1635.34 3.47576 -2.1367 0
M  V30 17283 H 1634.02 2.80316 -3.07239 0
M  V30 17284 H 1632.59 3.4696 -1.36649 0
M  V30 17285 N 1634.78 1.15898 1.06796 0
M  V30 17286 C 1636.03 0.931848 1.78884 0
M  V30 17287 C 1636.34 -0.54197 1.87942 0
M  V30 17288 O 1637.55 -0.886848 2.56607 0
M  V30 17289 C 1636 1.61788 3.21485 0
M  V30 17290 C 1635.61 3.12911 3.2061 0
M  V30 17291 C 1637.35 1.47252 3.98142 0
M  V30 17292 C 1635.26 3.74275 4.579 0
M  V30 17293 H 1634.19 0.344998 0.670442 0
M  V30 17294 H 1636.84 1.38974 1.19827 0
M  V30 17295 H 1635.22 1.08769 3.80769 0
M  V30 17296 H 1636.4 3.72732 2.70938 0
M  V30 17297 H 1634.71 3.27273 2.57451 0
M  V30 17298 H 1637.31 1.90484 4.9962 0
M  V30 17299 H 1637.65 0.420766 4.14168 0
M  V30 17300 H 1638.19 1.97398 3.45367 0
M  V30 17301 H 1634.93 4.79376 4.47078 0
M  V30 17302 H 1634.45 3.19238 5.07786 0
M  V30 17303 H 1636.12 3.75532 5.26863 0
M  V30 17304 N 1636.26 -1.25243 0.956659 0
M  V30 17305 C 1637.22 -2.24054 0.482949 0
M  V30 17306 C 1638.22 -1.55367 -0.41447 0
M  V30 17307 O 1639.41 -1.72912 -0.211475 0
M  V30 17308 C 1636.54 -3.3956 -0.301975 0
M  V30 17309 H 1637.73 -2.67476 1.35634 0
M  V30 17310 H 1635.29 -1.37665 0.740138 0
M  V30 17311 H 1636.02 -3.01561 -1.19294 0
M  V30 17312 H 1635.81 -3.90607 0.341876 0
M  V30 17313 H 1637.3 -4.1293 -0.622807 0
M  V30 17314 N 1637.73 -0.725468 -1.3991 0
M  V30 17315 C 1638.64 -0.0805887 -2.34462 0
M  V30 17316 C 1639.66 0.732689 -1.57822 0
M  V30 17317 O 1640.84 0.663362 -1.90162 0
M  V30 17318 C 1637.9 0.822908 -3.36792 0
M  V30 17319 C 1636.96 -0.00153812 -4.293 0
M  V30 17320 C 1636.2 0.85893 -5.26743 0
M  V30 17321 O 1636.42 2.09793 -5.30418 0
M  V30 17322 O 1635.35 0.292659 -6.01188 0
M  V30 17323 H 1639.18 -0.860746 -2.91247 0
M  V30 17324 H 1636.76 -0.48604 -1.41273 0
M  V30 17325 H 1638.65 1.34014 -3.99522 0
M  V30 17326 H 1637.32 1.58204 -2.82406 0
M  V30 17327 H 1636.23 -0.564072 -3.69823 0
M  V30 17328 H 1637.56 -0.722675 -4.86866 0
M  V30 17329 N 1639.21 1.50354 -0.472382 0
M  V30 17330 C 1640.16 2.30173 0.335135 0
M  V30 17331 C 1641.15 1.37517 0.98921 0
M  V30 17332 O 1642.36 1.54703 0.920168 0
M  V30 17333 H 1638.74 0.741212 0.126918 0
M  V30 17334 H 1640.71 2.96239 -0.358449 0
M  V30 17335 C 1639.46 3.18104 1.40375 0
M  V30 17336 H 1638.78 3.8931 0.90984 0
M  V30 17337 H 1640.22 3.76947 1.94132 0
M  V30 17338 C 1638.68 2.35785 2.40639 0
M  V30 17339 O 1639.21 2.04185 3.45936 0
M  V30 17340 N 1637.41 1.98342 2.12389 0
M  V30 17341 H 1636.96 2.2424 1.26784 0
M  V30 17342 H 1636.92 1.43567 2.79707 0
M  V30 17343 N 1640.69 0.205039 1.56261 0
M  V30 17344 C 1641.94 -0.431364 1.97033 0
M  V30 17345 C 1642.25 -1.62066 1.09517 0
M  V30 17346 O 1643.46 -2.32551 1.40116 0
M  V30 17347 C 1641.92 -0.818841 3.50461 0
M  V30 17348 C 1641.52 0.346723 4.46656 0
M  V30 17349 C 1643.27 -1.42177 3.99982 0
M  V30 17350 C 1641.17 -0.0622677 5.91367 0
M  V30 17351 H 1640.1 -0.164934 0.73574 0
M  V30 17352 H 1642.76 0.298635 1.81054 0
M  V30 17353 H 1641.14 -1.60579 3.61981 0
M  V30 17354 H 1642.31 1.12427 4.46874 0
M  V30 17355 H 1640.63 0.861799 4.07384 0
M  V30 17356 H 1643.22 -1.74039 5.05583 0
M  V30 17357 H 1643.57 -2.33177 3.44868 0
M  V30 17358 H 1644.1 -0.698591 3.91618 0
M  V30 17359 H 1640.84 0.813802 6.50429 0
M  V30 17360 H 1640.36 -0.804474 5.94381 0
M  V30 17361 H 1642.04 -0.49466 6.45106 0
M  V30 17362 N 1642.17 -1.57451 -0.0684915 0
M  V30 17363 C 1643.13 -2.0293 -1.06545 0
M  V30 17364 C 1644.13 -0.926861 -1.314 0
M  V30 17365 O 1645.32 -1.19164 -1.27065 0
M  V30 17366 C 1642.45 -2.41276 -2.4083 0
M  V30 17367 H 1643.65 -2.92242 -0.673401 0
M  V30 17368 H 1641.2 -1.53107 -0.314307 0
M  V30 17369 H 1641.94 -1.55 -2.8486 0
M  V30 17370 H 1641.72 -3.21727 -2.2413 0
M  V30 17371 H 1643.21 -2.77026 -3.12484 0
M  V30 17372 N 1643.65 0.339955 -1.5389 0
M  V30 17373 C 1644.88 1.09816 -1.74997 0
M  V30 17374 C 1645.29 1.82725 -0.490746 0
M  V30 17375 O 1644.63 1.75352 0.547467 0
M  V30 17376 C 1644.69 2.15388 -2.87834 0
M  V30 17377 C 1644.35 1.62022 -4.27315 0
M  V30 17378 C 1645.35 1.07064 -5.08757 0
M  V30 17379 C 1643.04 1.6676 -4.7381 0
M  V30 17380 C 1645.03 0.575529 -6.34796 0
M  V30 17381 C 1642.72 1.16861 -5.99822 0
M  V30 17382 C 1643.72 0.623505 -6.80148 0
M  V30 17383 O 1643.4 0.131966 -8.03792 0
M  V30 17384 H 1643.14 0.333199 -0.588179 0
M  V30 17385 H 1645.69 0.39682 -2.0153 0
M  V30 17386 H 1643.92 2.89091 -2.56834 0
M  V30 17387 H 1645.61 2.76801 -2.96877 0
M  V30 17388 H 1646.37 1.02723 -4.73997 0
M  V30 17389 H 1642.25 2.08129 -4.11343 0
M  V30 17390 H 1645.8 0.149389 -6.9744 0
M  V30 17391 H 1641.69 1.20904 -6.34076 0
M  V30 17392 H 1642.46 0.24892 -8.18121 0
M  V30 17393 N 1645.13 1.45684 0.601159 0
M  V30 17394 C 1646.37 1.4974 1.35729 0
M  V30 17395 C 1646.69 0.143072 1.94474 0
M  V30 17396 O 1645.96 -0.82832 1.77527 0
M  V30 17397 H 1644.54 0.551455 0.503892 0
M  V30 17398 H 1647.21 1.81685 0.705443 0
M  V30 17399 H 1646.3 2.23982 2.17344 0
M  V30 17400 N 1646.6 -0.84422 1.33082 0
M  V30 17401 C 1647.88 -1.58339 1.1484 0
M  V30 17402 C 1648.26 -2.09136 -0.287273 0
M  V30 17403 O 1647.61 -1.8891 -1.2855 0
M  V30 17404 C 1647.82 -2.72141 2.18496 0
M  V30 17405 C 1649.17 -3.41457 2.52373 0
M  V30 17406 O 1650.19 -2.82377 2.17122 0
M  V30 17407 O 1649.05 -4.48096 3.12845 0
M  V30 17408 H 1646.14 -0.697813 0.443831 0
M  V30 17409 H 1648.69 -0.88744 1.44646 0
M  V30 17410 H 1647.46 -2.32206 3.14954 0
M  V30 17411 H 1647.08 -3.49404 1.89744 0
M  V30 17412 N 1648.08 -1.16463 -1.0618 0
M  V30 17413 C 1649.03 -0.868264 -2.15787 0
M  V30 17414 C 1650.02 0.163135 -1.68613 0
M  V30 17415 O 1651.23 0.0170117 -1.79992 0
M  V30 17416 H 1647.6 -0.263184 -0.704442 0
M  V30 17417 H 1649.58 -1.80005 -2.37993 0
M  V30 17418 C 1648.32 -0.387052 -3.45539 0
M  V30 17419 H 1647.65 -1.17212 -3.82232 0
M  V30 17420 H 1649.09 -0.218471 -4.23437 0
M  V30 17421 C 1647.55 0.893588 -3.24833 0
M  V30 17422 O 1648.08 1.96259 -3.50493 0
M  V30 17423 N 1646.28 0.8378 -2.78261 0
M  V30 17424 H 1645.83 -0.0323251 -2.5758 0
M  V30 17425 H 1645.79 1.69515 -2.64787 0
M  V30 17426 N 1649.56 1.24734 -0.963288 0
M  V30 17427 C 1650.78 1.97285 -0.639808 0
M  V30 17428 C 1651.21 1.71024 0.783099 0
M  V30 17429 O 1650.57 0.971324 1.53085 0
M  V30 17430 C 1650.62 3.48793 -0.915197 0
M  V30 17431 O 1649.72 4.124 0.00162805 0
M  V30 17432 H 1649.06 0.618196 -0.242343 0
M  V30 17433 H 1651.59 1.58627 -1.29224 0
M  V30 17434 H 1651.6 3.99155 -0.84495 0
M  V30 17435 H 1650.28 3.67235 -1.95221 0
M  V30 17436 H 1648.85 3.72702 -0.121563 0
M  V30 17437 N 1651.04 0.732878 1.39523 0
M  V30 17438 C 1652.45 0.408236 1.54291 0
M  V30 17439 C 1652.65 -1.08114 1.7004 0
M  V30 17440 O 1651.71 -1.86726 1.6997 0
M  V30 17441 C 1653.02 1.1894 2.76177 0
M  V30 17442 C 1654.57 1.17742 2.9001 0
M  V30 17443 C 1655.05 1.94111 4.14831 0
M  V30 17444 N 1656.54 1.91266 4.21867 0
M  V30 17445 C 1657.27 2.47167 5.17394 0
M  V30 17446 N 1656.77 3.11696 6.18723 0
M  V30 17447 N 1658.56 2.37212 5.09595 0
M  V30 17448 H 1650.71 1.69839 1.27548 0
M  V30 17449 H 1652.97 0.718844 0.618035 0
M  V30 17450 H 1652.68 2.24321 2.70875 0
M  V30 17451 H 1652.55 0.792439 3.68782 0
M  V30 17452 H 1654.94 0.131752 2.94806 0
M  V30 17453 H 1655.02 1.61374 1.98474 0
M  V30 17454 H 1654.67 2.98677 4.10797 0
M  V30 17455 H 1654.6 1.47886 5.05408 0
M  V30 17456 H 1657.09 1.44254 3.49284 0
M  V30 17457 H 1657.4 3.51823 6.8807 0
M  V30 17458 H 1655.75 3.15785 6.19116 0
M  V30 17459 H 1658.94 1.86444 4.29367 0
M  V30 17460 H 1659.11 2.81076 5.83866 0
M  V30 17461 N 1652.52 -1.50101 0.480349 0
M  V30 17462 C 1653.76 -2.02674 -0.0715373 0
M  V30 17463 C 1654.09 -1.36095 -1.38535 0
M  V30 17464 O 1653.37 -0.489703 -1.88234 0
M  V30 17465 C 1653.65 -3.59261 -0.245693 0
M  V30 17466 C 1653.51 -4.36399 1.08979 0
M  V30 17467 C 1654.82 -4.28682 -0.995966 0
M  V30 17468 H 1651.94 -0.736592 -0.0245244 0
M  V30 17469 H 1654.59 -1.7933 0.627743 0
M  V30 17470 H 1652.74 -3.79281 -0.841308 0
M  V30 17471 H 1654.41 -4.27926 1.72269 0
M  V30 17472 H 1652.65 -3.99773 1.68417 0
M  V30 17473 H 1653.32 -5.44254 0.921468 0
M  V30 17474 H 1655.8 -4.13193 -0.491025 0
M  V30 17475 H 1654.67 -5.38037 -1.08663 0
M  V30 17476 H 1654.93 -3.92491 -2.03479 0
M  V30 17477 N 1653.99 -0.213323 -1.5615 0
M  V30 17478 C 1655.24 0.421221 -1.98377 0
M  V30 17479 C 1655.57 1.59998 -1.10065 0
M  V30 17480 O 1654.85 1.93869 -0.15654 0
M  V30 17481 C 1655.13 0.86375 -3.49587 0
M  V30 17482 C 1654.98 -0.318077 -4.48674 0
M  V30 17483 C 1656.3 1.72285 -4.04976 0
M  V30 17484 H 1653.42 0.151635 -0.721232 0
M  V30 17485 H 1656.06 -0.307907 -1.87488 0
M  V30 17486 H 1654.21 1.48503 -3.58998 0
M  V30 17487 H 1655.89 -0.956094 -4.51283 0
M  V30 17488 H 1654.13 -0.966881 -4.22888 0
M  V30 17489 H 1654.8 0.0343662 -5.51989 0
M  V30 17490 H 1657.28 1.19872 -3.98459 0
M  V30 17491 H 1656.15 2.0014 -5.11112 0
M  V30 17492 H 1656.41 2.68336 -3.51352 0
M  V30 17493 N 1655.47 1.57485 0.0601405 0
M  V30 17494 C 1656.88 1.76433 0.610583 0
M  V30 17495 C 1657.23 0.840353 1.77292 0
M  V30 17496 O 1656.36 0.0273238 2.16383 0
M  V30 17497 C 1656.95 3.19947 1.11441 0
M  V30 17498 C 1655.51 3.402 1.61062 0
M  V30 17499 C 1654.66 2.72089 0.535055 0
M  V30 17500 H 1657.61 1.57829 -0.166062 0
M  V30 17501 H 1657.63 3.24749 1.98288 0
M  V30 17502 H 1657.14 3.87172 0.268233 0
M  V30 17503 H 1655.25 2.78106 2.47967 0
M  V30 17504 H 1655.36 4.48696 1.67954 0
M  V30 17505 H 1653.72 2.34972 0.982855 0
M  V30 17506 H 1654.51 3.41977 -0.301135 0
M  V30 17507 N 1656.95 -0.331789 1.54068 0
M  V30 17508 C 1657.88 -1.41332 1.8587 0
M  V30 17509 C 1658.86 -1.54353 0.714787 0
M  V30 17510 O 1660.05 -1.68368 0.967777 0
M  V30 17511 C 1657.18 -2.78218 2.07875 0
M  V30 17512 C 1656.13 -2.79994 3.23709 0
M  V30 17513 C 1655.46 -4.19878 3.31069 0
M  V30 17514 C 1656.76 -2.44476 4.6155 0
M  V30 17515 H 1658.45 -1.14966 2.76447 0
M  V30 17516 H 1656 -0.551615 1.33016 0
M  V30 17517 H 1657.95 -3.53937 2.28706 0
M  V30 17518 H 1656.67 -3.06044 1.14038 0
M  V30 17519 H 1655.33 -2.0673 3.02751 0
M  V30 17520 H 1654.98 -4.44831 2.34807 0
M  V30 17521 H 1654.68 -4.21974 4.08915 0
M  V30 17522 H 1656.2 -4.97421 3.54125 0
M  V30 17523 H 1657.62 -3.09908 4.82317 0
M  V30 17524 H 1656.02 -2.57837 5.41886 0
M  V30 17525 H 1657.09 -1.3964 4.64358 0
M  V30 17526 N 1658.43 -1.46001 -0.593424 0
M  V30 17527 C 1659.71 -1.4123 -1.35327 0
M  V30 17528 C 1660.09 -0.0901956 -2.10907 0
M  V30 17529 O 1659.43 0.928102 -2.08803 0
M  V30 17530 C 1659.64 -2.63515 -2.28825 0
M  V30 17531 C 1660.99 -3.09208 -2.90991 0
M  V30 17532 O 1662.02 -2.63988 -2.39142 0
M  V30 17533 O 1660.87 -3.87723 -3.8514 0
M  V30 17534 H 1657.97 -0.561132 -0.607503 0
M  V30 17535 H 1660.51 -1.58151 -0.615333 0
M  V30 17536 H 1659.29 -3.51308 -1.72333 0
M  V30 17537 H 1658.91 -2.48999 -3.09976 0
M  V30 17538 N 1659.91 0.83715 -1.33527 0
M  V30 17539 C 1660.82 1.97915 -1.25964 0
M  V30 17540 C 1661.83 1.73169 -0.169894 0
M  V30 17541 O 1663.01 1.97513 -0.393793 0
M  V30 17542 C 1660.07 3.31945 -1.00068 0
M  V30 17543 C 1659.13 3.69795 -2.1806 0
M  V30 17544 C 1658.37 4.97429 -1.9339 0
M  V30 17545 O 1658.59 5.63492 -0.885069 0
M  V30 17546 O 1657.52 5.32823 -2.79969 0
M  V30 17547 H 1661.35 2.07236 -2.22007 0
M  V30 17548 H 1658.94 0.970437 -1.13591 0
M  V30 17549 H 1660.82 4.12248 -0.873487 0
M  V30 17550 H 1659.49 3.23623 -0.0705475 0
M  V30 17551 H 1658.4 2.89995 -2.36334 0
M  V30 17552 H 1659.73 3.82784 -3.09414 0
M  V30 17553 N 1661.38 1.17024 1.05561 0
M  V30 17554 C 1662.63 0.950769 1.77886 0
M  V30 17555 C 1662.95 -0.522005 1.88506 0
M  V30 17556 O 1664.15 -0.859582 2.57533 0
M  V30 17557 C 1662.61 1.65189 3.19751 0
M  V30 17558 C 1662.22 3.16294 3.17273 0
M  V30 17559 C 1663.96 1.51466 3.96558 0
M  V30 17560 C 1661.87 3.79111 4.53904 0
M  V30 17561 H 1660.8 0.352089 0.666745 0
M  V30 17562 H 1663.45 1.40237 1.18346 0
M  V30 17563 H 1661.83 1.12801 3.79594 0
M  V30 17564 H 1663 3.75585 2.66969 0
M  V30 17565 H 1661.32 3.29986 2.53966 0
M  V30 17566 H 1663.92 1.95772 4.97571 0
M  V30 17567 H 1664.26 0.46467 4.13699 0
M  V30 17568 H 1664.79 2.0105 3.43254 0
M  V30 17569 H 1661.53 4.84091 4.41969 0
M  V30 17570 H 1661.05 3.24606 5.04372 0
M  V30 17571 H 1662.73 3.81099 5.2285 0
M  V30 17572 N 1662.86 -1.24221 0.969889 0
M  V30 17573 C 1663.81 -2.25292 0.501215 0
M  V30 17574 C 1664.78 -1.59764 -0.454382 0
M  V30 17575 O 1665.96 -1.87291 -0.364261 0
M  V30 17576 C 1663.1 -3.44518 -0.200361 0
M  V30 17577 C 1662.22 -4.24636 0.79426 0
M  V30 17578 C 1661.35 -5.31156 0.068568 0
M  V30 17579 C 1660.39 -6.02973 1.05311 0
M  V30 17580 N 1659.53 -7.0119 0.357274 0
M  V30 17581 H 1664.37 -2.64749 1.36792 0
M  V30 17582 H 1661.91 -1.30142 0.685673 0
M  V30 17583 H 1663.86 -4.1251 -0.623833 0
M  V30 17584 H 1662.49 -3.05892 -1.03101 0
M  V30 17585 H 1661.55 -3.56161 1.33616 0
M  V30 17586 H 1662.86 -4.74271 1.54493 0
M  V30 17587 H 1662.01 -6.05294 -0.412792 0
M  V30 17588 H 1660.75 -4.82434 -0.714781 0
M  V30 17589 H 1659.76 -5.27636 1.54532 0
M  V30 17590 H 1660.98 -6.53784 1.83694 0
M  V30 17591 H 1658.93 -6.54736 -0.407059 0
M  V30 17592 H 1658.84 -7.48718 1.04677 0
M  V30 17593 H 1660.11 -7.79433 -0.102045 0
M  V30 17594 N 1664.34 -0.740267 -1.39132 0
M  V30 17595 C 1665.25 -0.105452 -2.34363 0
M  V30 17596 C 1666.27 0.715908 -1.5859 0
M  V30 17597 O 1667.44 0.643155 -1.90855 0
M  V30 17598 C 1664.51 0.787141 -3.37646 0
M  V30 17599 C 1663.57 -0.047071 -4.29274 0
M  V30 17600 C 1662.8 0.803014 -5.27624 0
M  V30 17601 O 1663.02 2.04155 -5.32613 0
M  V30 17602 O 1661.96 0.228879 -6.01465 0
M  V30 17603 H 1665.78 -0.891588 -2.90318 0
M  V30 17604 H 1663.37 -0.500996 -1.40749 0
M  V30 17605 H 1665.25 1.29769 -4.00921 0
M  V30 17606 H 1663.93 1.552 -2.84068 0
M  V30 17607 H 1662.83 -0.603265 -3.69204 0
M  V30 17608 H 1664.17 -0.774273 -4.86072 0
M  V30 17609 N 1665.82 1.49844 -0.488302 0
M  V30 17610 C 1666.78 2.27412 0.285706 0
M  V30 17611 C 1667.78 1.32897 0.905261 0
M  V30 17612 O 1668.97 1.56171 0.771763 0
M  V30 17613 C 1666.1 3.10435 1.40864 0
M  V30 17614 H 1667.3 2.9729 -0.394782 0
M  V30 17615 H 1664.85 1.54401 -0.242873 0
M  V30 17616 H 1665.58 2.45094 2.12367 0
M  V30 17617 H 1665.37 3.79913 0.969991 0
M  V30 17618 H 1666.86 3.69054 1.95419 0
M  V30 17619 N 1667.3 0.221601 1.56034 0
M  V30 17620 C 1668.26 -0.674973 2.19036 0
M  V30 17621 C 1669.26 -1.1216 1.15225 0
M  V30 17622 O 1670.45 -1.0304 1.40458 0
M  V30 17623 C 1667.58 -1.92465 2.81372 0
M  V30 17624 H 1668.77 -0.125689 2.99637 0
M  V30 17625 H 1666.33 -0.0280114 1.56275 0
M  V30 17626 H 1667.06 -2.5158 2.04641 0
M  V30 17627 H 1666.85 -1.61286 3.57392 0
M  V30 17628 H 1668.34 -2.56342 3.29664 0
M  V30 17629 N 1668.77 -1.57515 -0.0517878 0
M  V30 17630 C 1669.72 -2.06114 -1.07795 0
M  V30 17631 C 1670.72 -0.97034 -1.38855 0
M  V30 17632 O 1671.92 -1.15536 -1.38027 0
M  V30 17633 H 1668.3 -0.657451 -0.365051 0
M  V30 17634 H 1670.27 -2.9141 -0.642068 0
M  V30 17635 C 1669.02 -2.53728 -2.37734 0
M  V30 17636 H 1668.34 -3.37266 -2.14689 0
M  V30 17637 H 1669.78 -2.91466 -3.07934 0
M  V30 17638 C 1668.24 -1.42868 -3.05107 0
M  V30 17639 O 1668.77 -0.782025 -3.94014 0
M  V30 17640 N 1666.98 -1.16882 -2.66058 0
M  V30 17641 H 1666.52 -1.6965 -1.93847 0
M  V30 17642 H 1666.48 -0.429164 -3.11457 0
M  V30 17643 N 1670.25 0.323614 -1.54242 0
M  V30 17644 C 1671.22 1.38126 -1.82904 0
M  V30 17645 C 1672.22 1.44723 -0.700853 0
M  V30 17646 O 1673.41 1.44751 -0.969161 0
M  V30 17647 C 1670.54 2.76858 -1.98903 0
M  V30 17648 H 1671.73 1.13966 -2.77402 0
M  V30 17649 H 1669.28 0.559094 -1.45958 0
M  V30 17650 H 1670.02 3.06274 -1.06616 0
M  V30 17651 H 1669.8 2.73464 -2.80998 0
M  V30 17652 H 1671.29 3.53372 -2.22526 0
M  V30 17653 N 1671.73 1.46313 0.585673 0
M  V30 17654 C 1672.69 1.56239 1.67696 0
M  V30 17655 C 1673.69 0.439808 1.54668 0
M  V30 17656 O 1674.88 0.704019 1.5934 0
M  V30 17657 C 1672.02 1.47986 3.07104 0
M  V30 17658 H 1673.21 2.53492 1.60255 0
M  V30 17659 H 1670.76 1.3408 0.803264 0
M  V30 17660 H 1671.5 0.520007 3.20104 0
M  V30 17661 H 1671.28 2.2943 3.17969 0
M  V30 17662 H 1672.77 1.5801 3.86552 0
M  V30 17663 N 1673.21 -0.830057 1.33969 0
M  V30 17664 C 1674.16 -1.96189 1.2495 0
M  V30 17665 C 1675.15 -1.68743 0.149047 0
M  V30 17666 O 1676.36 -1.77248 0.31357 0
M  V30 17667 H 1672.73 -0.644184 0.387983 0
M  V30 17668 H 1674.7 -2.0092 2.20621 0
M  V30 17669 C 1673.45 -3.32569 1.01456 0
M  V30 17670 H 1672.78 -3.54232 1.85363 0
M  V30 17671 H 1674.22 -4.12237 0.991786 0
M  V30 17672 C 1672.67 -3.35715 -0.282331 0
M  V30 17673 O 1673.2 -3.80556 -1.28609 0
M  V30 17674 N 1671.41 -2.8891 -0.312952 0
M  V30 17675 H 1670.96 -2.52613 0.504446 0
M  V30 17676 H 1670.92 -2.91397 -1.18047 0
M  V30 17677 N 1674.69 -1.17582 -1.04939 0
M  V30 17678 C 1675.94 -0.960189 -1.77379 0
M  V30 17679 C 1676.25 0.512001 -1.8878 0
M  V30 17680 O 1677.46 0.845912 -2.57986 0
M  V30 17681 C 1675.91 -1.66882 -3.18871 0
M  V30 17682 C 1675.52 -3.17972 -3.15591 0
M  V30 17683 C 1677.26 -1.53567 -3.95749 0
M  V30 17684 C 1675.17 -3.81513 -4.51887 0
M  V30 17685 H 1674.1 -0.35562 -0.664869 0
M  V30 17686 H 1676.75 -1.40863 -1.17601 0
M  V30 17687 H 1675.13 -1.14813 -3.78991 0
M  V30 17688 H 1676.31 -3.76995 -2.64974 0
M  V30 17689 H 1674.62 -3.31328 -2.52212 0
M  V30 17690 H 1677.22 -1.98408 -4.96526 0
M  V30 17691 H 1677.56 -0.486603 -4.13446 0
M  V30 17692 H 1678.1 -2.02868 -3.42183 0
M  V30 17693 H 1674.83 -4.86428 -4.39395 0
M  V30 17694 H 1674.35 -3.27276 -5.02643 0
M  V30 17695 H 1676.03 -3.83867 -5.20822 0
M  V30 17696 N 1676.17 1.23705 -0.976463 0
M  V30 17697 C 1677.12 2.22789 -0.484676 0
M  V30 17698 C 1678.1 1.5482 0.43814 0
M  V30 17699 O 1679.29 1.74965 0.267635 0
M  V30 17700 C 1676.42 3.42624 0.21541 0
M  V30 17701 C 1675.51 4.17827 -0.726745 0
M  V30 17702 N 1675.9 4.70053 -1.86771 0
M  V30 17703 C 1674.2 4.42728 -0.539282 0
M  V30 17704 C 1674.9 5.27229 -2.45773 0
M  V30 17705 N 1673.87 5.14932 -1.742 0
M  V30 17706 H 1677.67 2.60795 -1.35511 0
M  V30 17707 H 1675.19 1.39191 -0.836644 0
M  V30 17708 H 1677.19 4.12775 0.585009 0
M  V30 17709 H 1675.85 3.06135 1.08218 0
M  V30 17710 H 1676.86 4.66519 -2.24901 0
M  V30 17711 H 1673.53 4.16541 0.282799 0
M  V30 17712 H 1674.92 5.78284 -3.42106 0
M  V30 17713 N 1677.64 0.747635 1.38738 0
M  V30 17714 C 1678.87 0.310484 2.05063 0
M  V30 17715 C 1679.29 -1.05078 1.56013 0
M  V30 17716 O 1678.65 -1.66842 0.709461 0
M  V30 17717 C 1678.7 0.335837 3.59033 0
M  V30 17718 O 1677.8 -0.672218 4.06884 0
M  V30 17719 H 1677.14 0.138591 0.649375 0
M  V30 17720 H 1679.67 1.01709 1.77529 0
M  V30 17721 H 1679.68 0.184631 4.07582 0
M  V30 17722 H 1678.36 1.32906 3.94092 0
M  V30 17723 H 1676.94 -0.486112 3.69718 0
M  V30 17724 N 1679.12 -1.49583 0.496242 0
M  V30 17725 C 1680.37 -2.02438 -0.049963 0
M  V30 17726 C 1680.7 -1.37632 -1.37433 0
M  V30 17727 O 1679.95 -0.499552 -1.89217 0
M  V30 17728 C 1680.25 -3.56482 -0.255949 0
M  V30 17729 C 1679.92 -4.39901 0.989824 0
M  V30 17730 C 1678.58 -4.62417 1.33132 0
M  V30 17731 C 1680.93 -4.88461 1.81811 0
M  V30 17732 C 1678.26 -5.30737 2.50071 0
M  V30 17733 C 1680.61 -5.58067 2.97899 0
M  V30 17734 C 1679.27 -5.7883 3.32434 0
M  V30 17735 H 1678.54 -0.740774 -0.0182828 0
M  V30 17736 H 1681.19 -1.79934 0.655434 0
M  V30 17737 H 1679.5 -3.77639 -1.04383 0
M  V30 17738 H 1681.19 -3.94967 -0.692943 0
M  V30 17739 H 1677.78 -4.22614 0.713811 0
M  V30 17740 H 1681.97 -4.70898 1.56743 0
M  V30 17741 H 1677.22 -5.45015 2.77072 0
M  V30 17742 H 1681.4 -5.9467 3.6241 0
M  V30 17743 H 1679.02 -6.31544 4.23151 0
M  V30 17744 N 1680.6 -0.229873 -1.55915 0
M  V30 17745 C 1681.85 0.399963 -1.97695 0
M  V30 17746 C 1682.16 1.60303 -1.12081 0
M  V30 17747 O 1683.37 2.30292 -1.43797 0
M  V30 17748 C 1681.82 0.762982 -3.51719 0
M  V30 17749 C 1681.43 -0.417738 -4.46048 0
M  V30 17750 C 1683.18 1.35796 -4.02194 0
M  V30 17751 C 1681.08 -0.0318216 -5.91391 0
M  V30 17752 H 1680.01 0.153209 -0.73827 0
M  V30 17753 H 1682.66 -0.327401 -1.80556 0
M  V30 17754 H 1681.05 1.548 -3.6449 0
M  V30 17755 H 1682.22 -1.19523 -4.45029 0
M  V30 17756 H 1680.53 -0.926501 -4.05962 0
M  V30 17757 H 1683.13 1.65974 -5.08288 0
M  V30 17758 H 1683.47 2.27661 -3.48534 0
M  V30 17759 H 1684.01 0.6362 -3.9268 0
M  V30 17760 H 1680.75 -0.917176 -6.49052 0
M  V30 17761 H 1680.27 0.709811 -5.95585 0
M  V30 17762 H 1681.95 0.391966 -6.45812 0
M  V30 17763 N 1682.08 1.5754 0.0434337 0
M  V30 17764 C 1682.99 2.08996 1.06574 0
M  V30 17765 C 1684 1.02544 1.40573 0
M  V30 17766 O 1685.18 1.34192 1.50181 0
M  V30 17767 C 1682.24 2.54723 2.35196 0
M  V30 17768 C 1681.31 3.75595 2.0791 0
M  V30 17769 C 1680.54 4.19132 3.304 0
M  V30 17770 O 1680.76 3.62303 4.40559 0
M  V30 17771 O 1679.7 5.11694 3.16944 0
M  V30 17772 H 1683.52 2.96475 0.658503 0
M  V30 17773 H 1681.11 1.47129 0.259475 0
M  V30 17774 H 1682.99 2.84529 3.1084 0
M  V30 17775 H 1681.66 1.70361 2.75243 0
M  V30 17776 H 1680.57 3.5083 1.2988 0
M  V30 17777 H 1681.9 4.60897 1.72727 0
M  V30 17778 N 1683.56 -0.31543 1.54411 0
M  V30 17779 C 1684.8 -1.05033 1.72663 0
M  V30 17780 C 1685.12 -1.8828 0.507504 0
M  V30 17781 O 1684.39 -1.89968 -0.478418 0
M  V30 17782 H 1682.97 -0.39077 0.636638 0
M  V30 17783 H 1685.64 -0.3499 1.91733 0
M  V30 17784 H 1684.73 -1.71171 2.60973 0
M  V30 17785 N 1685.03 -1.46622 -0.577906 0
M  V30 17786 C 1685.96 -1.60413 -1.69676 0
M  V30 17787 C 1686.95 -0.454277 -1.63922 0
M  V30 17788 O 1688.13 -0.68111 -1.81864 0
M  V30 17789 C 1685.26 -1.59866 -3.08318 0
M  V30 17790 C 1684.21 -2.7387 -3.28906 0
M  V30 17791 C 1683.54 -2.58386 -4.68125 0
M  V30 17792 C 1684.84 -4.15652 -3.16276 0
M  V30 17793 H 1686.53 -2.54073 -1.5839 0
M  V30 17794 H 1684.08 -1.22275 -0.760572 0
M  V30 17795 H 1686.03 -1.68108 -3.86417 0
M  V30 17796 H 1684.76 -0.627541 -3.20514 0
M  V30 17797 H 1683.42 -2.65105 -2.53209 0
M  V30 17798 H 1683.06 -1.59347 -4.77093 0
M  V30 17799 H 1682.76 -3.34855 -4.82852 0
M  V30 17800 H 1684.29 -2.68525 -5.48385 0
M  V30 17801 H 1685.7 -4.25503 -3.84214 0
M  V30 17802 H 1684.1 -4.92746 -3.42523 0
M  V30 17803 H 1685.17 -4.35471 -2.13291 0
M  V30 17804 N 1686.51 0.822941 -1.34408 0
M  V30 17805 C 1687.92 1.39571 -1.24003 0
M  V30 17806 C 1688.27 1.95739 0.134483 0
M  V30 17807 O 1687.4 1.90054 1.03481 0
M  V30 17808 C 1687.99 2.53726 -2.24519 0
M  V30 17809 C 1686.55 3.06911 -2.17905 0
M  V30 17810 C 1685.7 1.79783 -2.11124 0
M  V30 17811 H 1688.65 0.62734 -1.45774 0
M  V30 17812 H 1688.67 3.31818 -1.86217 0
M  V30 17813 H 1688.18 2.12816 -3.24547 0
M  V30 17814 H 1686.29 3.52326 -1.21233 0
M  V30 17815 H 1686.4 3.66003 -3.09158 0
M  V30 17816 H 1684.76 2.00679 -1.56845 0
M  V30 17817 H 1685.55 1.41047 -3.12987 0
M  V30 17818 N 1687.99 1.18137 1.04314 0
M  V30 17819 C 1688.9 0.921044 2.15764 0
M  V30 17820 C 1689.92 -0.11396 1.73626 0
M  V30 17821 O 1691.09 0.0673733 2.01287 0
M  V30 17822 C 1688.16 0.447581 3.43799 0
M  V30 17823 C 1687.22 1.55025 4.00332 0
M  V30 17824 C 1686.45 1.09928 5.22256 0
M  V30 17825 O 1686.67 -0.0430152 5.70384 0
M  V30 17826 O 1685.61 1.896 5.71258 0
M  V30 17827 H 1689.43 1.85353 2.40579 0
M  V30 17828 H 1687.02 0.962985 1.14223 0
M  V30 17829 H 1688.9 0.191497 4.20965 0
M  V30 17830 H 1687.58 -0.456641 3.20463 0
M  V30 17831 H 1686.48 1.86032 3.24566 0
M  V30 17832 H 1687.82 2.4305 4.28004 0
M  V30 17833 N 1689.47 -1.23186 0.98301 0
M  V30 17834 C 1690.42 -2.24748 0.525082 0
M  V30 17835 C 1691.39 -1.60237 -0.437411 0
M  V30 17836 O 1692.57 -1.87666 -0.344376 0
M  V30 17837 C 1689.71 -3.44711 -0.163809 0
M  V30 17838 C 1688.82 -4.23769 0.839254 0
M  V30 17839 C 1687.96 -5.31053 0.1249 0
M  V30 17840 C 1687 -6.01822 1.117 0
M  V30 17841 N 1686.13 -7.00772 0.431625 0
M  V30 17842 H 1690.97 -2.63283 1.39593 0
M  V30 17843 H 1688.51 -1.29407 0.699438 0
M  V30 17844 H 1690.47 -4.13148 -0.580046 0
M  V30 17845 H 1689.1 -3.06969 -0.998507 0
M  V30 17846 H 1688.15 -3.54724 1.37386 0
M  V30 17847 H 1689.46 -4.72606 1.59515 0
M  V30 17848 H 1688.62 -6.05698 -0.348569 0
M  V30 17849 H 1687.36 -4.83165 -0.663573 0
M  V30 17850 H 1686.36 -5.25967 1.6012 0
M  V30 17851 H 1687.59 -6.51799 1.90618 0
M  V30 17852 H 1685.53 -6.55131 -0.337592 0
M  V30 17853 H 1685.45 -7.47566 1.12613 0
M  V30 17854 H 1686.72 -7.79498 -0.0193703 0
M  V30 17855 N 1690.95 -0.754982 -1.38339 0
M  V30 17856 C 1692.18 -0.322156 -2.04073 0
M  V30 17857 C 1692.58 1.05488 -1.57063 0
M  V30 17858 O 1691.93 1.68154 -0.739597 0
M  V30 17859 C 1691.99 -0.267836 -3.58501 0
M  V30 17860 C 1691.65 -1.58665 -4.28572 0
M  V30 17861 C 1692.65 -2.53609 -4.53849 0
M  V30 17862 C 1690.34 -1.85647 -4.66734 0
M  V30 17863 C 1692.33 -3.73753 -5.16321 0
M  V30 17864 C 1690.02 -3.06065 -5.28931 0
M  V30 17865 C 1691.01 -3.99938 -5.53659 0
M  V30 17866 O 1690.7 -5.18238 -6.14561 0
M  V30 17867 H 1690.43 -0.135341 -0.662313 0
M  V30 17868 H 1692.99 -1.02517 -1.77987 0
M  V30 17869 H 1691.22 0.491434 -3.83565 0
M  V30 17870 H 1692.91 0.135662 -4.05673 0
M  V30 17871 H 1693.67 -2.3404 -4.24794 0
M  V30 17872 H 1689.55 -1.13415 -4.46831 0
M  V30 17873 H 1693.1 -4.47039 -5.35539 0
M  V30 17874 H 1688.99 -3.25526 -5.57408 0
M  V30 17875 H 1689.76 -5.18838 -6.33047 0
M  V30 17876 N 1692.42 1.49318 -0.504168 0
M  V30 17877 C 1693.37 2.30832 0.286237 0
M  V30 17878 C 1694.37 1.39585 0.959818 0
M  V30 17879 O 1695.57 1.5662 0.887146 0
M  V30 17880 H 1691.95 0.743738 0.111167 0
M  V30 17881 H 1693.92 2.95412 -0.421206 0
M  V30 17882 C 1692.67 3.2101 1.33596 0
M  V30 17883 H 1691.99 3.91152 0.827057 0
M  V30 17884 H 1693.43 3.8098 1.86093 0
M  V30 17885 C 1691.89 2.40836 2.35583 0
M  V30 17886 O 1692.42 2.11476 3.41527 0
M  V30 17887 N 1690.63 2.02802 2.08134 0
M  V30 17888 H 1690.17 2.26879 1.21999 0
M  V30 17889 H 1690.13 1.49467 2.76599 0
M  V30 17890 N 1693.9 0.238138 1.5579 0
M  V30 17891 C 1695.13 -0.393422 2.03125 0
M  V30 17892 C 1695.55 -1.52168 1.11761 0
M  V30 17893 O 1694.9 -1.82034 0.130341 0
M  V30 17894 C 1694.95 -0.909474 3.49873 0
M  V30 17895 O 1694.67 0.17381 4.37755 0
M  V30 17896 C 1696.18 -1.61261 4.12928 0
M  V30 17897 H 1693.4 -0.0945077 0.664311 0
M  V30 17898 H 1695.94 0.359442 2.01316 0
M  V30 17899 H 1694.09 -1.61255 3.52244 0
M  V30 17900 H 1694.51 -0.216641 5.24052 0
M  V30 17901 H 1695.98 -1.92551 5.17328 0
M  V30 17902 H 1696.46 -2.53155 3.589 0
M  V30 17903 H 1697.07 -0.954326 4.14455 0
M  V30 17904 N 1695.38 -1.57561 -0.0350783 0
M  V30 17905 C 1696.31 -2.02953 -1.06502 0
M  V30 17906 C 1697.33 -0.941331 -1.32826 0
M  V30 17907 O 1698.51 -1.21873 -1.30419 0
M  V30 17908 C 1695.61 -2.38471 -2.40801 0
M  V30 17909 C 1694.79 -3.69596 -2.33917 0
M  V30 17910 C 1693.85 -3.9237 -3.50616 0
M  V30 17911 O 1692.87 -4.63504 -3.30382 0
M  V30 17912 N 1694.07 -3.37544 -4.72275 0
M  V30 17913 H 1696.84 -2.91926 -0.678169 0
M  V30 17914 H 1694.4 -1.60355 -0.22313 0
M  V30 17915 H 1696.39 -2.50849 -3.1758 0
M  V30 17916 H 1694.96 -1.55199 -2.71352 0
M  V30 17917 H 1694.18 -3.67629 -1.42277 0
M  V30 17918 H 1695.47 -4.55627 -2.26455 0
M  V30 17919 H 1694.87 -2.79875 -4.91616 0
M  V30 17920 H 1693.43 -3.55312 -5.4644 0
M  V30 17921 N 1696.86 0.307236 -1.54576 0
M  V30 17922 C 1698.1 1.04476 -1.73818 0
M  V30 17923 C 1698.44 1.87134 -0.519102 0
M  V30 17924 O 1697.71 1.88386 0.483852 0
M  V30 17925 C 1698 1.95594 -3.02349 0
M  V30 17926 C 1697.85 1.16158 -4.34543 0
M  V30 17927 C 1699.17 2.94865 -3.26715 0
M  V30 17928 H 1696.29 0.378415 -0.632433 0
M  V30 17929 H 1698.93 0.319955 -1.87287 0
M  V30 17930 H 1697.08 2.57396 -2.90997 0
M  V30 17931 H 1698.75 0.5669 -4.57803 0
M  V30 17932 H 1696.99 0.464158 -4.3131 0
M  V30 17933 H 1697.66 1.8315 -5.2073 0
M  V30 17934 H 1700.14 2.4319 -3.37636 0
M  V30 17935 H 1699.02 3.55791 -4.17976 0
M  V30 17936 H 1699.28 3.68195 -2.44714 0
M  V30 17937 N 1698.34 1.46926 0.570122 0
M  V30 17938 C 1699.58 1.52585 1.32523 0
M  V30 17939 C 1699.91 0.184291 1.94127 0
M  V30 17940 O 1699.18 -0.790478 1.79244 0
M  V30 17941 H 1697.76 0.562019 0.492081 0
M  V30 17942 H 1700.42 1.83141 0.666746 0
M  V30 17943 H 1699.51 2.28541 2.12545 0
M  V30 17944 N 1699.82 -0.815801 1.34842 0
M  V30 17945 C 1700.75 -1.94193 1.29659 0
M  V30 17946 C 1701.73 -1.69221 0.172703 0
M  V30 17947 O 1702.91 -1.90716 0.366203 0
M  V30 17948 C 1700.04 -3.30777 1.0585 0
M  V30 17949 C 1699 -3.70207 2.1478 0
M  V30 17950 C 1698.32 -5.04852 1.76149 0
M  V30 17951 C 1699.62 -3.81553 3.56671 0
M  V30 17952 H 1701.32 -1.98787 2.23884 0
M  V30 17953 H 1698.86 -0.955013 1.07775 0
M  V30 17954 H 1700.81 -4.0915 1.00866 0
M  V30 17955 H 1699.54 -3.265 0.0806804 0
M  V30 17956 H 1698.2 -2.94113 2.18845 0
M  V30 17957 H 1697.85 -4.9707 0.770099 0
M  V30 17958 H 1697.55 -5.32205 2.49062 0
M  V30 17959 H 1699.07 -5.85676 1.72674 0
M  V30 17960 H 1700.48 -4.50181 3.54979 0
M  V30 17961 H 1698.88 -4.20367 4.28266 0
M  V30 17962 H 1699.95 -2.83356 3.93494 0
M  V30 17963 N 1701.29 -1.18689 -1.03686 0
M  V30 17964 C 1702.24 -0.917369 -2.11785 0
M  V30 17965 C 1703.21 0.144719 -1.65468 0
M  V30 17966 O 1704.4 0.00427016 -1.908 0
M  V30 17967 C 1701.54 -0.453396 -3.42109 0
M  V30 17968 C 1700.65 -1.58134 -4.02017 0
M  V30 17969 C 1699.78 -1.06971 -5.20318 0
M  V30 17970 C 1698.82 -2.17208 -5.72265 0
M  V30 17971 N 1697.96 -1.67411 -6.81849 0
M  V30 17972 H 1702.8 -1.84297 -2.34177 0
M  V30 17973 H 1700.34 -0.918951 -1.14864 0
M  V30 17974 H 1702.29 -0.165843 -4.1687 0
M  V30 17975 H 1700.92 0.435219 -3.19853 0
M  V30 17976 H 1699.98 -1.98429 -3.24546 0
M  V30 17977 H 1701.29 -2.41219 -4.36594 0
M  V30 17978 H 1700.44 -0.736906 -6.02208 0
M  V30 17979 H 1699.18 -0.208487 -4.87254 0
M  V30 17980 H 1698.19 -2.51328 -4.88993 0
M  V30 17981 H 1699.41 -3.03772 -6.07371 0
M  V30 17982 H 1697.36 -0.83584 -6.50653 0
M  V30 17983 H 1697.27 -2.44091 -7.15511 0
M  V30 17984 H 1698.54 -1.3707 -7.67354 0
M  V30 17985 N 1702.77 1.22662 -0.989529 0
M  V30 17986 C 1704.02 1.90944 -0.662187 0
M  V30 17987 C 1704.34 1.77477 0.807899 0
M  V30 17988 O 1703.61 1.15985 1.57874 0
M  V30 17989 H 1702.19 0.706738 -0.241932 0
M  V30 17990 H 1704.85 1.49091 -1.25531 0
M  V30 17991 H 1703.95 2.98177 -0.921777 0
M  V30 17992 N 1704.25 0.762308 1.37937 0
M  V30 17993 C 1705.21 0.148588 2.28718 0
M  V30 17994 C 1706.21 -0.638198 1.47593 0
M  V30 17995 O 1707.4 -0.463178 1.67929 0
M  V30 17996 C 1704.53 -0.797492 3.31441 0
M  V30 17997 H 1705.73 0.94872 2.84498 0
M  V30 17998 H 1703.28 0.529888 1.47044 0
M  V30 17999 H 1704.02 -1.62298 2.80767 0
M  V30 18000 H 1703.8 -0.23561 3.91391 0
M  V30 18001 H 1705.29 -1.22262 3.99302 0
M  V30 18002 N 1705.73 -1.49049 0.51208 0
M  V30 18003 C 1706.66 -2.27264 -0.297278 0
M  V30 18004 C 1707.67 -1.34266 -0.920674 0
M  V30 18005 O 1708.86 -1.59461 -0.80214 0
M  V30 18006 C 1705.96 -3.07042 -1.43452 0
M  V30 18007 C 1705.13 -4.27693 -0.916376 0
M  V30 18008 C 1704.19 -4.89427 -1.93256 0
M  V30 18009 O 1703.22 -5.49171 -1.49666 0
M  V30 18010 N 1704.42 -4.80066 -3.26369 0
M  V30 18011 H 1707.19 -2.97364 0.373445 0
M  V30 18012 H 1704.75 -1.58175 0.3453 0
M  V30 18013 H 1706.74 -3.45213 -2.1121 0
M  V30 18014 H 1705.31 -2.39478 -2.0092 0
M  V30 18015 H 1704.53 -3.94149 -0.0633415 0
M  V30 18016 H 1705.82 -5.05832 -0.548786 0
M  V30 18017 H 1705.22 -4.32646 -3.64464 0
M  V30 18018 H 1703.77 -5.2239 -3.89811 0
M  V30 18019 N 1707.21 -0.246397 -1.55662 0
M  V30 18020 C 1708.14 0.647563 -2.24341 0
M  V30 18021 C 1709.12 1.1817 -1.22352 0
M  V30 18022 O 1710.3 1.22114 -1.51003 0
M  V30 18023 C 1707.43 1.84485 -2.94249 0
M  V30 18024 C 1706.39 1.4435 -4.02923 0
M  V30 18025 C 1705.71 2.72158 -4.60255 0
M  V30 18026 C 1707.01 0.614951 -5.18667 0
M  V30 18027 H 1708.71 0.0748803 -2.99306 0
M  V30 18028 H 1706.25 0.034575 -1.43958 0
M  V30 18029 H 1708.2 2.47588 -3.40995 0
M  V30 18030 H 1706.93 2.4429 -2.16772 0
M  V30 18031 H 1705.59 0.835811 -3.56945 0
M  V30 18032 H 1705.24 3.3016 -3.79478 0
M  V30 18033 H 1704.94 2.46028 -5.33614 0
M  V30 18034 H 1706.46 3.36161 -5.09734 0
M  V30 18035 H 1707.87 1.15028 -5.61642 0
M  V30 18036 H 1706.27 0.449729 -5.98412 0
M  V30 18037 H 1707.34 -0.372943 -4.83464 0
M  V30 18038 N 1708.68 1.57577 0.026722 0
M  V30 18039 C 1709.91 1.94035 0.732473 0
M  V30 18040 C 1710.33 0.846575 1.67972 0
M  V30 18041 O 1709.69 -0.197514 1.80221 0
M  V30 18042 C 1709.74 3.2956 1.46365 0
M  V30 18043 O 1708.84 3.21975 2.57694 0
M  V30 18044 H 1708.18 0.634155 0.196832 0
M  V30 18045 H 1710.71 2.04592 -0.018503 0
M  V30 18046 H 1710.72 3.64504 1.83305 0
M  V30 18047 H 1709.4 4.0873 0.768943 0
M  V30 18048 H 1707.98 2.98665 2.23279 0
M  V30 18049 N 1710.16 -0.299034 1.54737 0
M  V30 18050 C 1711.41 -1.03195 1.73767 0
M  V30 18051 C 1711.73 -1.87731 0.527445 0
M  V30 18052 O 1711 -1.90465 -0.458242 0
M  V30 18053 H 1709.58 -0.383996 0.640747 0
M  V30 18054 H 1712.24 -0.329544 1.92094 0
M  V30 18055 H 1711.34 -1.68393 2.62774 0
M  V30 18056 N 1711.64 -1.47227 -0.562322 0
M  V30 18057 C 1712.89 -1.53286 -1.31712 0
M  V30 18058 C 1713.21 -0.194583 -1.94027 0
M  V30 18059 O 1712.48 0.780961 -1.7966 0
M  V30 18060 H 1711.06 -0.564621 -0.489094 0
M  V30 18061 H 1713.72 -1.83492 -0.657024 0
M  V30 18062 H 1712.82 -2.29665 -2.1133 0
M  V30 18063 N 1713.12 0.808639 -1.35273 0
M  V30 18064 C 1714.05 1.92839 -1.23878 0
M  V30 18065 C 1715.06 1.61987 -0.162543 0
M  V30 18066 O 1716.25 1.73593 -0.41564 0
M  V30 18067 C 1713.35 3.27158 -0.884369 0
M  V30 18068 C 1712.52 3.85931 -2.05855 0
M  V30 18069 C 1711.58 4.98652 -1.68025 0
M  V30 18070 O 1710.61 5.16188 -2.39871 0
M  V30 18071 N 1711.81 5.77363 -0.602684 0
M  V30 18072 H 1714.58 2.03141 -2.20349 0
M  V30 18073 H 1712.14 0.985956 -1.28415 0
M  V30 18074 H 1714.13 4.00033 -0.612814 0
M  V30 18075 H 1712.7 3.12599 -0.00940584 0
M  V30 18076 H 1711.92 3.05274 -2.49402 0
M  V30 18077 H 1713.21 4.21929 -2.84347 0
M  V30 18078 H 1712.61 5.657 -0.00570741 0
M  V30 18079 H 1711.16 6.50627 -0.390903 0
M  V30 18080 N 1714.6 1.19237 1.03055 0
M  V30 18081 C 1715.54 0.928588 2.11296 0
M  V30 18082 C 1716.51 -0.135941 1.65543 0
M  V30 18083 O 1717.7 0.00584847 1.90799 0
M  V30 18084 C 1714.84 0.471532 3.41863 0
M  V30 18085 C 1713.95 1.60264 4.01173 0
M  V30 18086 C 1713.09 1.09729 5.19743 0
M  V30 18087 C 1712.13 2.2024 5.71105 0
M  V30 18088 N 1711.26 1.71024 6.80952 0
M  V30 18089 H 1716.1 1.85536 2.33196 0
M  V30 18090 H 1713.64 0.925029 1.14375 0
M  V30 18091 H 1715.6 0.187949 4.16776 0
M  V30 18092 H 1714.23 -0.41825 3.20079 0
M  V30 18093 H 1713.28 2.00147 3.23489 0
M  V30 18094 H 1714.59 2.43531 4.35309 0
M  V30 18095 H 1713.75 0.768832 6.01809 0
M  V30 18096 H 1712.48 0.234324 4.87137 0
M  V30 18097 H 1711.49 2.53918 4.87653 0
M  V30 18098 H 1712.71 3.06989 6.05751 0
M  V30 18099 H 1710.66 0.870334 6.50201 0
M  V30 18100 H 1710.58 2.47882 7.14206 0
M  V30 18101 H 1711.85 1.41137 7.66616 0
M  V30 18102 N 1716.07 -1.22136 0.99602 0
M  V30 18103 C 1717.01 -2.23518 0.507162 0
M  V30 18104 C 1718.02 -1.57824 -0.399426 0
M  V30 18105 O 1719.21 -1.77364 -0.20106 0
M  V30 18106 C 1716.31 -3.37709 -0.283931 0
M  V30 18107 C 1715.48 -4.3299 0.619549 0
M  V30 18108 C 1714.54 -5.26062 -0.120376 0
M  V30 18109 O 1713.57 -5.67041 0.495269 0
M  V30 18110 N 1714.77 -5.63322 -1.40172 0
M  V30 18111 H 1717.53 -2.66092 1.37896 0
M  V30 18112 H 1715.09 -1.36468 0.871102 0
M  V30 18113 H 1717.09 -3.96961 -0.787661 0
M  V30 18114 H 1715.66 -2.94193 -1.05685 0
M  V30 18115 H 1714.88 -3.72011 1.3039 0
M  V30 18116 H 1716.16 -4.93591 1.23473 0
M  V30 18117 H 1715.56 -5.32006 -1.92318 0
M  V30 18118 H 1714.12 -6.24977 -1.85058 0
M  V30 18119 N 1717.55 -0.769612 -1.37531 0
M  V30 18120 C 1718.97 -0.449 -1.53154 0
M  V30 18121 C 1719.17 1.03568 -1.72847 0
M  V30 18122 O 1718.22 1.82154 -1.74861 0
M  V30 18123 C 1719.54 -1.26221 -2.72926 0
M  V30 18124 C 1721.09 -1.2539 -2.86786 0
M  V30 18125 C 1721.56 -2.05041 -4.09539 0
M  V30 18126 N 1723.05 -2.02384 -4.16647 0
M  V30 18127 C 1723.79 -2.60798 -5.10658 0
M  V30 18128 N 1723.28 -3.27991 -6.10241 0
M  V30 18129 N 1725.08 -2.5064 -5.03126 0
M  V30 18130 H 1717.23 -1.73161 -1.23 0
M  V30 18131 H 1719.49 -0.734977 -0.598759 0
M  V30 18132 H 1719.2 -2.31423 -2.64832 0
M  V30 18133 H 1719.07 -0.889937 -3.66551 0
M  V30 18134 H 1721.46 -0.209869 -2.94353 0
M  V30 18135 H 1721.54 -1.6658 -1.94126 0
M  V30 18136 H 1721.18 -3.09464 -4.02734 0
M  V30 18137 H 1721.11 -1.61234 -5.01309 0
M  V30 18138 H 1723.6 -1.53464 -3.45337 0
M  V30 18139 H 1723.92 -3.69942 -6.785 0
M  V30 18140 H 1722.26 -3.32089 -6.10526 0
M  V30 18141 H 1725.45 -1.97762 -4.24273 0
M  V30 18142 H 1725.62 -2.96458 -5.76209 0
M  V30 18143 N 1719.03 1.48775 -0.519977 0
M  V30 18144 C 1719.96 2.32292 0.237213 0
M  V30 18145 C 1720.94 1.4146 0.944625 0
M  V30 18146 O 1722.13 1.70355 0.932349 0
M  V30 18147 C 1719.26 3.22426 1.29068 0
M  V30 18148 C 1718.21 4.22204 0.702011 0
M  V30 18149 C 1717.54 5.01403 1.85739 0
M  V30 18150 C 1718.84 5.21321 -0.319626 0
M  V30 18151 H 1720.53 2.95846 -0.459949 0
M  V30 18152 H 1718.08 1.42268 -0.222641 0
M  V30 18153 H 1720.03 3.79674 1.82826 0
M  V30 18154 H 1718.75 2.56853 2.01728 0
M  V30 18155 H 1717.41 3.66128 0.186027 0
M  V30 18156 H 1717.06 4.32262 2.57214 0
M  V30 18157 H 1716.76 5.68929 1.46949 0
M  V30 18158 H 1718.28 5.615 2.39895 0
M  V30 18159 H 1719.7 5.73151 0.130505 0
M  V30 18160 H 1718.1 5.96843 -0.624377 0
M  V30 18161 H 1719.17 4.69069 -1.22893 0
M  V30 18162 N 1720.51 0.254649 1.55529 0
M  V30 18163 C 1721.47 -0.62836 2.20418 0
M  V30 18164 C 1722.47 -1.09691 1.17578 0
M  V30 18165 O 1723.66 -1.00037 1.42612 0
M  V30 18166 C 1720.79 -1.86453 2.85391 0
M  V30 18167 H 1721.99 -0.0621032 2.99836 0
M  V30 18168 H 1719.54 0.00514311 1.56299 0
M  V30 18169 H 1720.27 -2.47182 2.09932 0
M  V30 18170 H 1720.06 -1.53669 3.60733 0
M  V30 18171 H 1721.55 -2.49291 3.35028 0
M  V30 18172 N 1721.99 -1.57589 -0.0183649 0
M  V30 18173 C 1723.24 -1.88937 -0.706105 0
M  V30 18174 C 1723.55 -0.854565 -1.75945 0
M  V30 18175 O 1724.75 -1.05763 -2.50053 0
M  V30 18176 C 1723.21 -3.35329 -1.307 0
M  V30 18177 C 1722.82 -4.47064 -0.289444 0
M  V30 18178 C 1724.56 -3.75811 -1.97399 0
M  V30 18179 C 1722.47 -5.84523 -0.899288 0
M  V30 18180 H 1721.4 -0.704959 -0.267486 0
M  V30 18181 H 1724.05 -1.83458 0.0391685 0
M  V30 18182 H 1722.43 -3.35586 -2.10233 0
M  V30 18183 H 1723.61 -4.58294 0.479958 0
M  V30 18184 H 1721.92 -4.15484 0.276066 0
M  V30 18185 H 1724.52 -4.75834 -2.43898 0
M  V30 18186 H 1724.86 -3.08362 -2.79676 0
M  V30 18187 H 1725.39 -3.77774 -1.24626 0
M  V30 18188 H 1722.13 -6.55398 -0.11571 0
M  V30 18189 H 1721.65 -5.76993 -1.63828 0
M  V30 18190 H 1723.33 -6.31595 -1.40344 0
M  V30 18191 N 1723.46 0.290824 -1.54893 0
M  V30 18192 C 1724.43 1.34215 -1.85793 0
M  V30 18193 C 1725.43 1.43204 -0.731393 0
M  V30 18194 O 1726.62 1.42663 -0.999647 0
M  V30 18195 C 1723.75 2.72577 -2.0473 0
M  V30 18196 H 1724.94 1.08056 -2.79757 0
M  V30 18197 H 1722.5 0.528008 -1.47111 0
M  V30 18198 H 1723.23 3.03943 -1.13088 0
M  V30 18199 H 1723.02 2.67442 -2.86736 0
M  V30 18200 H 1724.51 3.48573 -2.29971 0
M  V30 18201 N 1724.94 1.47523 0.554506 0
M  V30 18202 C 1726.36 1.33101 0.880699 0
M  V30 18203 C 1726.56 0.323524 1.98886 0
M  V30 18204 O 1725.61 -0.263996 2.51116 0
M  V30 18205 C 1726.93 2.725 1.27138 0
M  V30 18206 C 1728.48 2.80805 1.38266 0
M  V30 18207 C 1728.95 4.20851 1.80688 0
M  V30 18208 N 1730.44 4.23406 1.87834 0
M  V30 18209 C 1731.18 5.28684 2.21993 0
M  V30 18210 N 1730.67 6.44264 2.54746 0
M  V30 18211 N 1732.47 5.16063 2.2279 0
M  V30 18212 H 1724.62 2.11661 -0.177062 0
M  V30 18213 H 1726.88 0.947856 -0.0165508 0
M  V30 18214 H 1726.59 3.47669 0.53093 0
M  V30 18215 H 1726.46 3.04445 2.22695 0
M  V30 18216 H 1728.85 2.05907 2.11391 0
M  V30 18217 H 1728.93 2.52511 0.408901 0
M  V30 18218 H 1728.57 4.96256 1.08131 0
M  V30 18219 H 1728.5 4.46572 2.79071 0
M  V30 18220 H 1730.99 3.40025 1.64897 0
M  V30 18221 H 1731.31 7.20351 2.79846 0
M  V30 18222 H 1729.65 6.4758 2.52321 0
M  V30 18223 H 1732.84 4.24793 1.96642 0
M  V30 18224 H 1733.01 5.98216 2.49081 0
M  V30 18225 N 1726.42 -0.801453 1.357 0
M  V30 18226 C 1727.38 -1.89514 1.28907 0
M  V30 18227 C 1728.38 -1.59559 0.19938 0
M  V30 18228 O 1729.57 -1.68196 0.453408 0
M  V30 18229 C 1726.71 -3.26044 0.995411 0
M  V30 18230 H 1727.9 -1.96956 2.2616 0
M  V30 18231 H 1725.45 -0.997899 1.20298 0
M  V30 18232 H 1726.19 -3.24289 0.0269561 0
M  V30 18233 H 1725.97 -3.49172 1.78385 0
M  V30 18234 H 1727.46 -4.06092 0.97362 0
M  V30 18235 N 1727.9 -1.19782 -1.02421 0
M  V30 18236 C 1728.83 -0.963553 -2.12692 0
M  V30 18237 C 1729.81 0.104769 -1.69777 0
M  V30 18238 O 1730.99 -0.0512017 -1.94132 0
M  V30 18239 C 1728.12 -0.506525 -3.43586 0
M  V30 18240 C 1727.08 -1.51722 -4.00206 0
M  V30 18241 C 1726.4 -0.917097 -5.26776 0
M  V30 18242 C 1727.7 -2.89879 -4.34474 0
M  V30 18243 H 1729.4 -1.88579 -2.32547 0
M  V30 18244 H 1726.94 -0.908111 -1.11756 0
M  V30 18245 H 1728.9 -0.329907 -4.20107 0
M  V30 18246 H 1727.62 0.451322 -3.23467 0
M  V30 18247 H 1726.28 -1.68106 -3.25785 0
M  V30 18248 H 1725.93 0.0484457 -5.02977 0
M  V30 18249 H 1725.63 -1.59204 -5.65622 0
M  V30 18250 H 1727.15 -0.751379 -6.05959 0
M  V30 18251 H 1728.57 -2.7705 -5.01913 0
M  V30 18252 H 1726.96 -3.54209 -4.84413 0
M  V30 18253 H 1728.03 -3.42179 -3.43571 0
M  V30 18254 N 1729.38 1.21606 -1.00248 0
M  V30 18255 C 1730.31 2.26159 -0.580911 0
M  V30 18256 C 1731.29 1.65402 0.397017 0
M  V30 18257 O 1732.47 1.92089 0.285552 0
M  V30 18258 C 1729.6 3.47168 0.0957564 0
M  V30 18259 C 1728.56 4.20425 -0.801695 0
M  V30 18260 C 1727.88 5.34699 0.00842241 0
M  V30 18261 C 1729.18 4.78086 -2.10311 0
M  V30 18262 H 1730.88 2.61675 -1.45487 0
M  V30 18263 H 1728.42 1.25786 -0.700995 0
M  V30 18264 H 1730.38 4.19477 0.402141 0
M  V30 18265 H 1729.1 3.10775 1.00433 0
M  V30 18266 H 1727.76 3.49963 -1.09187 0
M  V30 18267 H 1727.41 4.94548 0.918206 0
M  V30 18268 H 1727.11 5.84639 -0.589105 0
M  V30 18269 H 1728.63 6.09819 0.30868 0
M  V30 18270 H 1730.05 5.42287 -1.86004 0
M  V30 18271 H 1728.44 5.38405 -2.65028 0
M  V30 18272 H 1729.51 3.97607 -2.77555 0
M  V30 18273 N 1730.86 0.776895 1.37121 0
M  V30 18274 C 1731.79 0.124809 2.2886 0
M  V30 18275 C 1732.8 -0.658655 1.48881 0
M  V30 18276 O 1733.99 -0.4959 1.71473 0
M  V30 18277 C 1731.09 -0.84672 3.28152 0
M  V30 18278 C 1730.26 -0.11598 4.37246 0
M  V30 18279 C 1729.32 -1.00162 5.16579 0
M  V30 18280 O 1728.35 -0.463491 5.6731 0
M  V30 18281 N 1729.55 -2.32733 5.31804 0
M  V30 18282 H 1732.31 0.91278 2.85462 0
M  V30 18283 H 1729.88 0.629695 1.49152 0
M  V30 18284 H 1731.87 -1.44275 3.78109 0
M  V30 18285 H 1730.44 -1.53563 2.72281 0
M  V30 18286 H 1729.66 0.661015 3.88618 0
M  V30 18287 H 1730.95 0.388757 5.07313 0
M  V30 18288 H 1730.34 -2.78882 4.9218 0
M  V30 18289 H 1728.9 -2.8733 5.85051 0
M  V30 18290 N 1732.33 -1.48497 0.527859 0
M  V30 18291 C 1733.28 -2.2959 -0.23607 0
M  V30 18292 C 1734.25 -1.37232 -0.935762 0
M  V30 18293 O 1735.44 -1.66196 -0.937202 0
M  V30 18294 C 1732.58 -3.20551 -1.27832 0
M  V30 18295 C 1731.69 -4.27984 -0.58769 0
M  V30 18296 C 1730.82 -5.06128 -1.61269 0
M  V30 18297 C 1729.86 -6.05367 -0.905404 0
M  V30 18298 N 1729 -6.76577 -1.87585 0
M  V30 18299 H 1733.84 -2.94403 0.461635 0
M  V30 18300 H 1731.38 -1.45137 0.239493 0
M  V30 18301 H 1733.33 -3.71686 -1.89488 0
M  V30 18302 H 1731.96 -2.57665 -1.94444 0
M  V30 18303 H 1731.02 -3.80132 0.142759 0
M  V30 18304 H 1732.33 -4.9879 -0.0322348 0
M  V30 18305 H 1731.48 -5.61266 -2.30359 0
M  V30 18306 H 1730.22 -4.35157 -2.20204 0
M  V30 18307 H 1729.23 -5.49435 -0.200426 0
M  V30 18308 H 1730.45 -6.78335 -0.322197 0
M  V30 18309 H 1728.4 -6.08358 -2.45432 0
M  V30 18310 H 1728.31 -7.4345 -1.37178 0
M  V30 18311 H 1729.58 -7.36305 -2.5588 0
M  V30 18312 N 1733.81 -0.262893 -1.55392 0
M  V30 18313 C 1735.22 0.237224 -1.85187 0
M  V30 18314 C 1735.57 1.56383 -1.18486 0
M  V30 18315 O 1734.7 2.1126 -0.468849 0
M  V30 18316 C 1735.29 0.437206 -3.35967 0
M  V30 18317 C 1733.85 0.881568 -3.65931 0
M  V30 18318 C 1733 -0.0321489 -2.77281 0
M  V30 18319 H 1735.95 -0.485025 -1.51107 0
M  V30 18320 H 1735.97 1.27755 -3.58412 0
M  V30 18321 H 1735.48 -0.528474 -3.84485 0
M  V30 18322 H 1733.58 1.85915 -3.22903 0
M  V30 18323 H 1733.7 0.727355 -4.73547 0
M  V30 18324 H 1732.06 0.48204 -2.50097 0
M  V30 18325 H 1732.84 -0.99349 -3.2861 0
M  V30 18326 N 1735.29 1.57597 0.0100073 0
M  V30 18327 C 1736.24 2.07788 1.00463 0
M  V30 18328 C 1737.21 0.971101 1.34755 0
M  V30 18329 O 1738.39 1.2429 1.44764 0
M  V30 18330 C 1735.53 2.57769 2.29454 0
M  V30 18331 C 1734.64 3.8231 2.01153 0
M  V30 18332 C 1733.78 4.2083 3.24154 0
M  V30 18333 C 1732.82 5.38236 2.91494 0
M  V30 18334 N 1731.96 5.72096 4.07001 0
M  V30 18335 H 1736.8 2.92504 0.569675 0
M  V30 18336 H 1734.33 1.44607 0.269645 0
M  V30 18337 H 1736.29 2.84821 3.04849 0
M  V30 18338 H 1734.92 1.75942 2.70637 0
M  V30 18339 H 1733.97 3.62227 1.16171 0
M  V30 18340 H 1735.28 4.67811 1.73074 0
M  V30 18341 H 1734.44 4.49111 4.07902 0
M  V30 18342 H 1733.18 3.34019 3.55363 0
M  V30 18343 H 1732.18 5.09688 2.06151 0
M  V30 18344 H 1733.41 6.26716 2.61543 0
M  V30 18345 H 1731.35 4.88243 4.38126 0
M  V30 18346 H 1731.27 6.52148 3.82411 0
M  V30 18347 H 1732.54 6.04964 4.91567 0
M  V30 18348 N 1736.77 -0.282606 1.55045 0
M  V30 18349 C 1738.02 -1.0132 1.74405 0
M  V30 18350 C 1738.33 -1.87792 0.547133 0
M  V30 18351 O 1739.54 -2.64257 0.622931 0
M  V30 18352 C 1737.99 -1.85128 3.08635 0
M  V30 18353 C 1737.6 -1.0357 4.35864 0
M  V30 18354 C 1739.34 -2.57676 3.37347 0
M  V30 18355 C 1737.25 -1.86761 5.61137 0
M  V30 18356 H 1736.18 -0.382013 0.650063 0
M  V30 18357 H 1738.83 -0.269307 1.81513 0
M  V30 18358 H 1737.21 -2.63576 2.95539 0
M  V30 18359 H 1738.39 -0.296061 4.59848 0
M  V30 18360 H 1736.7 -0.425208 4.14223 0
M  V30 18361 H 1739.3 -3.20303 4.28147 0
M  V30 18362 H 1739.64 -3.27464 2.57046 0
M  V30 18363 H 1740.18 -1.86264 3.51497 0
M  V30 18364 H 1736.91 -1.2141 6.44158 0
M  V30 18365 H 1736.43 -2.58348 5.4131 0
M  V30 18366 H 1738.11 -2.44361 5.9908 0
M  V30 18367 N 1738.25 -1.47815 -0.546675 0
M  V30 18368 C 1739.18 -1.63976 -1.66235 0
M  V30 18369 C 1740.16 -0.488945 -1.62921 0
M  V30 18370 O 1741.34 -0.719532 -1.80378 0
M  V30 18371 C 1738.47 -1.6637 -3.04858 0
M  V30 18372 C 1737.43 -2.80785 -3.23023 0
M  V30 18373 C 1736.75 -2.68257 -4.62539 0
M  V30 18374 C 1738.05 -4.22267 -3.07388 0
M  V30 18375 H 1739.75 -2.57375 -1.52965 0
M  V30 18376 H 1737.29 -1.23861 -0.734465 0
M  V30 18377 H 1739.24 -1.76266 -3.82764 0
M  V30 18378 H 1737.97 -0.695386 -3.19111 0
M  V30 18379 H 1736.63 -2.70417 -2.47529 0
M  V30 18380 H 1736.28 -1.69431 -4.73606 0
M  V30 18381 H 1735.98 -3.45022 -4.75641 0
M  V30 18382 H 1737.5 -2.80097 -5.42566 0
M  V30 18383 H 1738.91 -4.33557 -3.75102 0
M  V30 18384 H 1737.31 -4.999 -3.31994 0
M  V30 18385 H 1738.38 -4.39897 -2.04006 0
M  V30 18386 N 1739.72 0.794246 -1.36123 0
M  V30 18387 C 1740.65 1.92105 -1.32732 0
M  V30 18388 C 1741.63 1.68925 -0.199603 0
M  V30 18389 O 1742.82 1.90109 -0.396498 0
M  V30 18390 C 1739.95 3.29051 -1.11098 0
M  V30 18391 C 1738.9 3.66743 -2.20643 0
M  V30 18392 C 1738.23 5.01986 -1.84159 0
M  V30 18393 C 1739.53 3.75831 -3.62696 0
M  V30 18394 H 1741.22 1.952 -2.27018 0
M  V30 18395 H 1738.77 0.937746 -1.09281 0
M  V30 18396 H 1740.72 4.07494 -1.07362 0
M  V30 18397 H 1739.45 3.26331 -0.132614 0
M  V30 18398 H 1738.11 2.90594 -2.23497 0
M  V30 18399 H 1737.75 4.95782 -0.849081 0
M  V30 18400 H 1737.45 5.28175 -2.57497 0
M  V30 18401 H 1738.98 5.82855 -1.8197 0
M  V30 18402 H 1740.39 4.44476 -3.62096 0
M  V30 18403 H 1738.79 4.135 -4.34899 0
M  V30 18404 H 1739.86 2.7706 -3.97952 0
M  V30 18405 N 1741.2 1.20323 1.01785 0
M  V30 18406 C 1742.13 0.974819 2.12178 0
M  V30 18407 C 1743.11 -0.0957637 1.6983 0
M  V30 18408 O 1744.3 0.0614963 1.94103 0
M  V30 18409 C 1741.43 0.524739 3.43313 0
M  V30 18410 C 1740.38 1.53842 3.99395 0
M  V30 18411 C 1739.71 0.945021 5.26283 0
M  V30 18412 C 1741.01 2.92179 4.3293 0
M  V30 18413 H 1742.7 1.8981 2.31544 0
M  V30 18414 H 1740.25 0.914025 1.11273 0
M  V30 18415 H 1742.2 0.352182 4.19926 0
M  V30 18416 H 1740.92 -0.434161 3.23701 0
M  V30 18417 H 1739.58 1.69832 3.24889 0
M  V30 18418 H 1739.23 -0.0217709 5.02995 0
M  V30 18419 H 1738.93 1.62201 5.64769 0
M  V30 18420 H 1740.46 0.783504 6.05552 0
M  V30 18421 H 1741.87 2.79708 5.00436 0
M  V30 18422 H 1740.27 3.56773 4.82528 0
M  V30 18423 H 1741.34 3.43997 3.41752 0
M  V30 18424 N 1742.68 -1.21073 1.00892 0
M  V30 18425 C 1743.96 -1.85871 0.609214 0
M  V30 18426 C 1744.34 -1.90334 -0.913023 0
M  V30 18427 O 1743.68 -1.40552 -1.80159 0
M  V30 18428 C 1743.89 -3.25918 1.24813 0
M  V30 18429 C 1745.24 -4.02274 1.35871 0
M  V30 18430 O 1746.27 -3.35244 1.20375 0
M  V30 18431 O 1745.13 -5.22296 1.60838 0
M  V30 18432 H 1742.22 -0.800105 0.20919 0
M  V30 18433 H 1744.77 -1.28724 1.10581 0
M  V30 18434 H 1743.54 -3.17392 2.28862 0
M  V30 18435 H 1743.16 -3.90688 0.738124 0
M  V30 18436 N 1744.16 -0.784156 -1.36707 0
M  V30 18437 C 1745.07 -0.179959 -2.33909 0
M  V30 18438 C 1746.08 0.665092 -1.60787 0
M  V30 18439 O 1747.26 0.582111 -1.92804 0
M  V30 18440 C 1744.33 0.679323 -3.3998 0
M  V30 18441 C 1743.39 -0.183618 -4.28907 0
M  V30 18442 C 1742.62 0.634747 -5.29912 0
M  V30 18443 O 1742.84 1.87107 -5.38839 0
M  V30 18444 O 1741.78 0.0374113 -6.01888 0
M  V30 18445 H 1745.6 -0.983499 -2.87334 0
M  V30 18446 H 1743.19 -0.545521 -1.39084 0
M  V30 18447 H 1745.07 1.16948 -4.04847 0
M  V30 18448 H 1743.74 1.46084 -2.88862 0
M  V30 18449 H 1742.65 -0.720419 -3.67098 0
M  V30 18450 H 1743.98 -0.928522 -4.83363 0
M  V30 18451 N 1745.64 1.48215 -0.535727 0
M  V30 18452 C 1746.6 2.28206 0.213212 0
M  V30 18453 C 1747.6 1.3571 0.862522 0
M  V30 18454 O 1748.79 1.58547 0.721688 0
M  V30 18455 C 1745.92 3.1476 1.30917 0
M  V30 18456 H 1747.11 2.95884 -0.489163 0
M  V30 18457 H 1744.67 1.53551 -0.291872 0
M  V30 18458 H 1745.4 2.51726 2.04462 0
M  V30 18459 H 1745.19 3.82806 0.848633 0
M  V30 18460 H 1746.68 3.75085 1.83579 0
M  V30 18461 N 1747.11 0.27113 1.5525 0
M  V30 18462 C 1748.34 -0.350248 2.03914 0
M  V30 18463 C 1748.76 -1.49763 1.14963 0
M  V30 18464 O 1748.11 -1.81717 0.168923 0
M  V30 18465 C 1748.17 -0.835056 3.51723 0
M  V30 18466 O 1747.89 0.266625 4.37288 0
M  V30 18467 C 1749.39 -1.52466 4.16256 0
M  V30 18468 H 1746.61 -0.0803955 0.666166 0
M  V30 18469 H 1749.15 0.402063 2.00509 0
M  V30 18470 H 1747.31 -1.53747 3.55585 0
M  V30 18471 H 1747.72 -0.105433 5.24394 0
M  V30 18472 H 1749.19 -1.81534 5.21296 0
M  V30 18473 H 1749.67 -2.45485 3.64189 0
M  V30 18474 H 1750.28 -0.8662 4.16386 0
M  V30 18475 N 1748.59 -1.576 -0.00164943 0
M  V30 18476 C 1749.82 -1.95176 -0.701511 0
M  V30 18477 C 1750.24 -0.873191 -1.66604 0
M  V30 18478 O 1749.6 0.168818 -1.80512 0
M  V30 18479 C 1749.65 -3.31847 -1.41104 0
M  V30 18480 O 1748.75 -3.26034 -2.52539 0
M  V30 18481 H 1748.09 -0.637207 -0.186718 0
M  V30 18482 H 1750.62 -2.04536 0.0510494 0
M  V30 18483 H 1750.63 -3.67374 -1.77483 0
M  V30 18484 H 1749.31 -4.09901 -0.70382 0
M  V30 18485 H 1747.89 -3.0218 -2.18499 0
M  V30 18486 N 1750.07 0.274379 -1.55193 0
M  V30 18487 C 1751.03 1.32237 -1.87206 0
M  V30 18488 C 1752.03 1.4242 -0.74654 0
M  V30 18489 O 1753.22 1.41595 -1.01472 0
M  V30 18490 C 1750.36 2.7039 -2.0761 0
M  V30 18491 H 1751.55 1.05083 -2.80887 0
M  V30 18492 H 1749.1 0.512375 -1.47663 0
M  V30 18493 H 1749.84 3.02727 -1.16306 0
M  V30 18494 H 1749.62 2.64385 -2.89556 0
M  V30 18495 H 1751.11 3.46114 -2.33655 0
M  V30 18496 N 1751.55 1.48103 0.538828 0
M  V30 18497 C 1752.48 1.64856 1.65363 0
M  V30 18498 C 1753.46 0.497579 1.6266 0
M  V30 18499 O 1754.64 0.729088 1.79994 0
M  V30 18500 C 1751.77 1.67984 3.03971 0
M  V30 18501 C 1750.73 2.82494 3.21529 0
M  V30 18502 C 1750.05 2.70706 4.6111 0
M  V30 18503 C 1751.35 4.23892 3.05145 0
M  V30 18504 H 1753.05 2.58183 1.51598 0
M  V30 18505 H 1750.59 1.24249 0.727886 0
M  V30 18506 H 1752.55 1.78294 3.81824 0
M  V30 18507 H 1751.27 0.712299 3.18738 0
M  V30 18508 H 1749.93 2.71725 2.46091 0
M  V30 18509 H 1749.58 1.7194 4.727 0
M  V30 18510 H 1749.28 3.47539 4.73804 0
M  V30 18511 H 1750.8 2.82971 5.41073 0
M  V30 18512 H 1752.22 4.3554 3.72797 0
M  V30 18513 H 1750.61 5.01654 3.29338 0
M  V30 18514 H 1751.68 4.40973 2.01671 0
M  V30 18515 N 1753.03 -0.787016 1.36542 0
M  V30 18516 C 1754.3 -1.53325 1.21452 0
M  V30 18517 C 1754.68 -2.10166 -0.198313 0
M  V30 18518 O 1754.03 -1.94192 -1.20422 0
M  V30 18519 C 1754.24 -2.62629 2.29841 0
M  V30 18520 C 1755.59 -3.30446 2.66628 0
M  V30 18521 O 1756.61 -2.72914 2.28903 0
M  V30 18522 O 1755.47 -4.34424 3.31569 0
M  V30 18523 H 1752.57 -0.678361 0.473028 0
M  V30 18524 H 1755.11 -0.825292 1.4828 0
M  V30 18525 H 1753.88 -2.18639 3.24519 0
M  V30 18526 H 1753.51 -3.41042 2.04393 0
M  V30 18527 N 1754.5 -1.20861 -1.01145 0
M  V30 18528 C 1755.45 -0.959005 -2.1191 0
M  V30 18529 C 1756.45 0.0914738 -1.69153 0
M  V30 18530 O 1757.65 -0.0593443 -1.79902 0
M  V30 18531 H 1754.03 -0.292825 -0.692645 0
M  V30 18532 H 1756 -1.89937 -2.30145 0
M  V30 18533 C 1754.75 -0.533258 -3.43586 0
M  V30 18534 H 1754.07 -1.33319 -3.76917 0
M  V30 18535 H 1755.51 -0.397868 -4.22129 0
M  V30 18536 C 1753.97 0.755011 -3.28331 0
M  V30 18537 O 1754.5 1.81217 -3.58502 0
M  V30 18538 N 1752.71 0.719026 -2.81564 0
M  V30 18539 H 1752.25 -0.141544 -2.57211 0
M  V30 18540 H 1752.21 1.58132 -2.71738 0
M  V30 18541 N 1755.98 1.20536 -1.01532 0
M  V30 18542 C 1757.26 1.85545 -0.619063 0
M  V30 18543 C 1757.64 1.90816 0.902916 0
M  V30 18544 O 1756.99 1.41506 1.79411 0
M  V30 18545 C 1757.2 3.25252 -1.26539 0
M  V30 18546 C 1758.55 4.01547 -1.38003 0
M  V30 18547 O 1759.57 3.34601 -1.22151 0
M  V30 18548 O 1758.43 5.21436 -1.63605 0
M  V30 18549 H 1755.52 0.798985 -0.21343 0
M  V30 18550 H 1758.07 1.28136 -1.11262 0
M  V30 18551 H 1756.84 3.16174 -2.30542 0
M  V30 18552 H 1756.46 3.90292 -0.758833 0
M  V30 18553 N 1757.46 0.791395 1.36289 0
M  V30 18554 C 1758.69 0.375566 2.03971 0
M  V30 18555 C 1759.11 -1.00061 1.59277 0
M  V30 18556 O 1758.47 -1.64501 0.762182 0
M  V30 18557 C 1758.52 0.449891 3.57783 0
M  V30 18558 O 1757.62 -0.54243 4.08817 0
M  V30 18559 H 1756.96 0.159181 0.644637 0
M  V30 18560 H 1759.49 1.07306 1.74203 0
M  V30 18561 H 1759.5 0.314206 4.06788 0
M  V30 18562 H 1758.18 1.45377 3.89665 0
M  V30 18563 H 1756.75 -0.368243 3.71077 0
M  V30 18564 N 1758.94 -1.47929 0.54358 0
M  V30 18565 C 1759.85 -2.33611 -0.215191 0
M  V30 18566 C 1760.87 -1.47343 -0.925526 0
M  V30 18567 O 1762.04 -1.80299 -0.897459 0
M  V30 18568 C 1759.11 -3.23755 -1.24031 0
M  V30 18569 C 1758.17 -4.25904 -0.538874 0
M  V30 18570 C 1757.4 -5.11741 -1.51516 0
M  V30 18571 O 1757.62 -4.9979 -2.74893 0
M  V30 18572 O 1756.56 -5.92722 -1.0471 0
M  V30 18573 H 1760.38 -2.99765 0.487279 0
M  V30 18574 H 1757.97 -1.46267 0.30434 0
M  V30 18575 H 1759.85 -3.79475 -1.8324 0
M  V30 18576 H 1758.53 -2.60245 -1.92495 0
M  V30 18577 H 1757.43 -3.73982 0.0940539 0
M  V30 18578 H 1758.77 -4.9209 0.104063 0
M  V30 18579 N 1760.42 -0.27936 -1.55104 0
M  V30 18580 C 1761.36 0.606268 -2.22695 0
M  V30 18581 C 1762.33 1.14646 -1.20189 0
M  V30 18582 O 1763.52 1.19498 -1.48744 0
M  V30 18583 C 1760.66 1.78256 -2.95497 0
M  V30 18584 C 1759.77 1.27582 -4.12731 0
M  V30 18585 C 1758.91 2.41425 -4.73167 0
M  V30 18586 C 1757.95 1.87775 -5.82586 0
M  V30 18587 N 1757.08 2.95108 -6.37068 0
M  V30 18588 H 1761.92 0.0232427 -2.97991 0
M  V30 18589 H 1759.46 -0.000294714 -1.471 0
M  V30 18590 H 1761.42 2.47406 -3.35925 0
M  V30 18591 H 1760.05 2.33755 -2.22617 0
M  V30 18592 H 1759.1 0.477281 -3.77394 0
M  V30 18593 H 1760.41 0.842897 -4.91627 0
M  V30 18594 H 1759.57 3.18561 -5.16337 0
M  V30 18595 H 1758.31 2.88035 -3.93557 0
M  V30 18596 H 1757.31 1.0912 -5.38862 0
M  V30 18597 H 1758.54 1.42096 -6.64067 0
M  V30 18598 H 1756.48 3.41091 -5.60351 0
M  V30 18599 H 1756.4 2.56246 -7.11248 0
M  V30 18600 H 1757.67 3.72206 -6.84896 0
M  V30 18601 N 1761.9 1.57599 -0.0067085 0
M  V30 18602 C 1763.14 1.9114 0.677733 0
M  V30 18603 C 1763.47 0.881328 1.7305 0
M  V30 18604 O 1762.75 -0.099049 1.94248 0
M  V30 18605 C 1763.03 3.35241 1.31474 0
M  V30 18606 C 1762.89 4.4897 0.273055 0
M  V30 18607 C 1764.2 3.78886 2.23905 0
M  V30 18608 H 1761.32 0.695119 0.244907 0
M  V30 18609 H 1763.97 1.89907 -0.059378 0
M  V30 18610 H 1762.12 3.36423 1.94299 0
M  V30 18611 H 1763.79 4.59924 -0.356031 0
M  V30 18612 H 1762.03 4.31915 -0.403961 0
M  V30 18613 H 1762.7 5.46772 0.757941 0
M  V30 18614 H 1765.18 3.79299 1.7109 0
M  V30 18615 H 1764.05 4.80451 2.65439 0
M  V30 18616 H 1764.31 3.13129 3.12094 0
M  V30 18617 N 1763.37 -0.266145 1.55336 0
M  V30 18618 C 1764.62 -0.998308 1.76527 0
M  V30 18619 C 1764.95 -1.85691 0.568535 0
M  V30 18620 O 1764.23 -1.89602 -0.433735 0
M  V30 18621 C 1764.51 -1.87509 3.07429 0
M  V30 18622 C 1764.36 -1.04596 4.3747 0
M  V30 18623 C 1765.68 -2.86099 3.34418 0
M  V30 18624 H 1762.8 -0.361514 0.642244 0
M  V30 18625 H 1765.44 -0.270186 1.88069 0
M  V30 18626 H 1763.59 -2.49591 2.97719 0
M  V30 18627 H 1765.27 -0.445323 4.59145 0
M  V30 18628 H 1763.51 -0.349641 4.32389 0
M  V30 18629 H 1764.18 -1.69279 5.25403 0
M  V30 18630 H 1766.66 -2.34153 3.43965 0
M  V30 18631 H 1765.53 -3.44584 4.27262 0
M  V30 18632 H 1765.79 -3.61577 2.5439 0
M  V30 18633 N 1764.85 -1.48386 -0.530967 0
M  V30 18634 C 1765.78 -1.58922 -1.65156 0
M  V30 18635 C 1766.8 -0.473583 -1.5576 0
M  V30 18636 O 1767.99 -0.744383 -1.62238 0
M  V30 18637 C 1765.09 -1.50201 -3.03798 0
M  V30 18638 C 1764.26 -2.76787 -3.38685 0
M  V30 18639 C 1763.32 -2.61534 -4.56603 0
M  V30 18640 O 1762.34 -3.35417 -4.59874 0
M  V30 18641 N 1763.55 -1.71087 -5.54716 0
M  V30 18642 H 1766.31 -2.55559 -1.56555 0
M  V30 18643 H 1763.87 -1.45097 -0.718216 0
M  V30 18644 H 1765.86 -1.37693 -3.80556 0
M  V30 18645 H 1764.43 -0.615419 -3.06482 0
M  V30 18646 H 1763.65 -3.03867 -2.51115 0
M  V30 18647 H 1764.94 -3.6077 -3.58779 0
M  V30 18648 H 1764.34 -1.10261 -5.54851 0
M  V30 18649 H 1762.9 -1.64518 -6.30696 0
M  V30 18650 N 1766.33 0.779763 -1.36958 0
M  V30 18651 C 1767.28 1.88277 -1.28592 0
M  V30 18652 C 1768.26 1.59941 -0.175389 0
M  V30 18653 O 1769.46 1.72208 -0.409071 0
M  V30 18654 C 1766.58 3.25632 -1.08715 0
M  V30 18655 C 1765.67 3.59945 -2.24277 0
M  V30 18656 N 1766.06 3.65497 -3.49636 0
M  V30 18657 C 1764.36 3.90064 -2.16255 0
M  V30 18658 C 1765.06 3.96328 -4.25792 0
M  V30 18659 N 1764.04 4.11812 -3.5484 0
M  V30 18660 H 1767.84 1.90809 -2.23538 0
M  V30 18661 H 1765.35 0.975794 -1.29815 0
M  V30 18662 H 1767.35 4.04529 -1.00807 0
M  V30 18663 H 1766.01 3.24368 -0.146786 0
M  V30 18664 H 1767.02 3.47902 -3.83647 0
M  V30 18665 H 1763.7 3.96669 -1.3023 0
M  V30 18666 H 1765.09 4.07466 -5.34248 0
M  V30 18667 N 1767.81 1.21396 1.00503 0
M  V30 18668 C 1768.77 0.974756 2.07439 0
M  V30 18669 C 1769.77 -0.0542142 1.60709 0
M  V30 18670 O 1770.96 0.183056 1.73236 0
M  V30 18671 C 1768.09 0.46989 3.37646 0
M  V30 18672 H 1769.29 1.92346 2.30094 0
M  V30 18673 H 1766.84 1.03095 1.17479 0
M  V30 18674 H 1767.57 -0.483735 3.20672 0
M  V30 18675 H 1767.36 1.2121 3.72895 0
M  V30 18676 H 1768.85 0.322393 4.16354 0
M  V30 18677 N 1769.29 -1.19996 1.0217 0
M  V30 18678 C 1770.22 -2.25206 0.616818 0
M  V30 18679 C 1771.2 -1.66013 -0.370653 0
M  V30 18680 O 1772.38 -1.92519 -0.254956 0
M  V30 18681 C 1769.51 -3.47276 -0.0405129 0
M  V30 18682 C 1768.47 -4.19096 0.868479 0
M  V30 18683 C 1767.79 -5.34645 0.0766447 0
M  V30 18684 C 1769.09 -4.7468 2.1789 0
M  V30 18685 H 1770.79 -2.59328 1.49632 0
M  V30 18686 H 1768.33 -1.24655 0.720917 0
M  V30 18687 H 1770.28 -4.20063 -0.335355 0
M  V30 18688 H 1769.01 -3.12333 -0.954759 0
M  V30 18689 H 1767.67 -3.48181 1.1474 0
M  V30 18690 H 1767.32 -4.95946 -0.839411 0
M  V30 18691 H 1767.02 -5.83628 0.682041 0
M  V30 18692 H 1768.54 -6.10233 -0.211624 0
M  V30 18693 H 1769.95 -5.39259 1.94608 0
M  V30 18694 H 1768.35 -5.34121 2.7356 0
M  V30 18695 H 1769.42 -3.93141 2.83845 0
M  V30 18696 N 1770.76 -0.798611 -1.35867 0
M  V30 18697 C 1772.04 -0.298858 -1.93303 0
M  V30 18698 C 1772.42 1.21038 -1.72954 0
M  V30 18699 O 1771.77 2.00617 -1.09386 0
M  V30 18700 C 1771.98 -0.701532 -3.41876 0
M  V30 18701 C 1773.33 -0.686486 -4.19014 0
M  V30 18702 O 1774.35 -0.642577 -3.50356 0
M  V30 18703 O 1773.21 -0.737653 -5.41499 0
M  V30 18704 H 1770.3 -0.0762987 -0.823473 0
M  V30 18705 H 1772.85 -0.881773 -1.44993 0
M  V30 18706 H 1771.62 -1.74204 -3.50383 0
M  V30 18707 H 1771.24 -0.092994 -3.97491 0
M  V30 18708 N 1772.24 1.47639 -0.551417 0
M  V30 18709 C 1773.19 2.29936 0.199514 0
M  V30 18710 C 1774.16 1.38704 0.913811 0
M  V30 18711 O 1775.34 1.67666 0.910643 0
M  V30 18712 C 1772.48 3.22544 1.22717 0
M  V30 18713 C 1771.6 4.28865 0.519527 0
M  V30 18714 C 1770.73 5.0863 1.53197 0
M  V30 18715 C 1769.77 6.06731 0.808981 0
M  V30 18716 N 1768.91 6.79476 1.76798 0
M  V30 18717 H 1773.75 2.93631 -0.508414 0
M  V30 18718 H 1771.28 1.44738 -0.262553 0
M  V30 18719 H 1773.24 3.74653 1.83551 0
M  V30 18720 H 1771.87 2.60726 1.9032 0
M  V30 18721 H 1770.92 3.79857 -0.203217 0
M  V30 18722 H 1772.24 4.98778 -0.0471224 0
M  V30 18723 H 1771.39 5.6486 2.214 0
M  V30 18724 H 1770.13 4.38605 2.13253 0
M  V30 18725 H 1769.13 5.49684 0.112991 0
M  V30 18726 H 1770.36 6.78762 0.214239 0
M  V30 18727 H 1768.31 6.12185 2.35722 0
M  V30 18728 H 1768.22 7.45539 1.25333 0
M  V30 18729 H 1769.49 7.40283 2.44133 0
M  V30 18730 N 1773.72 0.287581 1.54954 0
M  V30 18731 C 1774.68 -0.581465 2.21702 0
M  V30 18732 C 1775.68 -1.07172 1.19878 0
M  V30 18733 O 1776.87 -0.969899 1.44702 0
M  V30 18734 C 1774.01 -1.80358 2.89282 0
M  V30 18735 H 1775.2 0.00151035 2.999 0
M  V30 18736 H 1772.75 0.0382953 1.56253 0
M  V30 18737 H 1773.49 -2.42674 2.15128 0
M  V30 18738 H 1773.27 -1.45983 3.63911 0
M  V30 18739 H 1774.76 -2.42129 3.4024 0
M  V30 18740 N 1775.2 -1.57593 0.0150662 0
M  V30 18741 C 1776.61 -1.5591 -0.341189 0
M  V30 18742 C 1776.81 -1.01927 -1.73819 0
M  V30 18743 O 1775.87 -0.659752 -2.43728 0
M  V30 18744 C 1777.18 -3.00016 -0.202639 0
M  V30 18745 C 1778.73 -3.11777 -0.276457 0
M  V30 18746 C 1779.21 -4.57696 -0.166859 0
M  V30 18747 N 1780.7 -4.62657 -0.224287 0
M  V30 18748 C 1781.43 -5.73168 -0.163053 0
M  V30 18749 N 1780.93 -6.92781 -0.0515442 0
M  V30 18750 N 1782.72 -5.61685 -0.216018 0
M  V30 18751 H 1774.87 -1.91018 0.92876 0
M  V30 18752 H 1777.14 -0.878048 0.3574 0
M  V30 18753 H 1776.84 -3.43409 0.759136 0
M  V30 18754 H 1776.72 -3.64285 -0.978599 0
M  V30 18755 H 1779.1 -2.68305 -1.22868 0
M  V30 18756 H 1779.18 -2.50257 0.529637 0
M  V30 18757 H 1778.83 -5.01846 0.781888 0
M  V30 18758 H 1778.76 -5.17179 -0.991635 0
M  V30 18759 H 1781.25 -3.76617 -0.311188 0
M  V30 18760 H 1781.56 -7.72799 -0.0111287 0
M  V30 18761 H 1779.91 -6.94998 -0.0169584 0
M  V30 18762 H 1783.1 -4.67128 -0.301435 0
M  V30 18763 H 1783.27 -6.4779 -0.164834 0
M  V30 18764 N 1776.68 0.257904 -1.55475 0
M  V30 18765 C 1777.9 1.00531 -1.80834 0
M  V30 18766 C 1778.32 1.79369 -0.589263 0
M  V30 18767 O 1777.68 1.77068 0.441935 0
M  V30 18768 C 1777.73 1.95194 -3.04272 0
M  V30 18769 O 1777.45 1.19548 -4.21473 0
M  V30 18770 C 1778.95 2.81624 -3.42349 0
M  V30 18771 H 1776.17 0.296315 -0.602029 0
M  V30 18772 H 1778.71 0.284118 -2.02517 0
M  V30 18773 H 1776.87 2.62756 -2.84672 0
M  V30 18774 H 1777.28 1.83483 -4.9136 0
M  V30 18775 H 1778.76 3.43815 -4.31851 0
M  V30 18776 H 1779.23 3.52172 -2.62434 0
M  V30 18777 H 1779.84 2.19531 -3.64261 0
M  V30 18778 N 1778.15 1.48666 0.52309 0
M  V30 18779 C 1779.4 1.56724 1.27601 0
M  V30 18780 C 1779.72 0.245958 1.93443 0
M  V30 18781 O 1778.99 -0.733053 1.81668 0
M  V30 18782 H 1777.57 0.57739 0.473952 0
M  V30 18783 H 1780.24 1.85169 0.608144 0
M  V30 18784 H 1779.33 2.35188 2.05166 0
M  V30 18785 N 1779.63 -0.772489 1.37369 0
M  V30 18786 C 1781.05 -1.07294 1.18153 0
M  V30 18787 C 1781.25 -2.01493 0.0171782 0
M  V30 18788 O 1780.3 -2.44177 -0.642964 0
M  V30 18789 C 1781.62 -1.67116 2.49986 0
M  V30 18790 C 1783.17 -1.79377 2.56501 0
M  V30 18791 C 1783.64 -2.42612 3.88463 0
M  V30 18792 N 1785.13 -2.50063 3.89901 0
M  V30 18793 C 1785.87 -2.99841 4.88756 0
M  V30 18794 N 1785.36 -3.49798 5.98008 0
M  V30 18795 N 1787.16 -2.98709 4.76161 0
M  V30 18796 H 1779.31 -0.147014 2.11891 0
M  V30 18797 H 1781.57 -0.127846 0.93934 0
M  V30 18798 H 1781.28 -1.05369 3.35545 0
M  V30 18799 H 1781.15 -2.6642 2.67021 0
M  V30 18800 H 1783.54 -2.40257 1.71349 0
M  V30 18801 H 1783.62 -0.788304 2.4335 0
M  V30 18802 H 1783.26 -1.82372 4.74029 0
M  V30 18803 H 1783.19 -3.43763 3.98917 0
M  V30 18804 H 1785.68 -2.14709 3.1098 0
M  V30 18805 H 1786 -3.86181 6.69391 0
M  V30 18806 H 1784.34 -3.47905 6.01654 0
M  V30 18807 H 1787.53 -2.5898 3.89932 0
M  V30 18808 H 1787.7 -3.37193 5.53358 0
M  V30 18809 N 1781.11 -1.21927 -0.998575 0
M  V30 18810 C 1782.34 -1.06655 -1.77291 0
M  V30 18811 C 1782.75 0.38326 -1.84869 0
M  V30 18812 O 1782.11 1.26575 -1.31473 0
M  V30 18813 C 1782.16 -1.66478 -3.20885 0
M  V30 18814 O 1781.88 -3.05788 -3.13728 0
M  V30 18815 C 1783.38 -1.56404 -4.14792 0
M  V30 18816 H 1780.6 -0.3742 -0.55697 0
M  V30 18817 H 1783.15 -1.61401 -1.25579 0
M  V30 18818 H 1781.3 -1.15809 -3.69685 0
M  V30 18819 H 1781.72 -3.34503 -4.0399 0
M  V30 18820 H 1783.19 -2.02995 -5.1332 0
M  V30 18821 H 1783.67 -0.519591 -4.36116 0
M  V30 18822 H 1784.27 -2.06352 -3.71886 0
M  V30 18823 N 1782.59 1.19452 -1.02805 0
M  V30 18824 C 1783.83 1.90815 -0.732731 0
M  V30 18825 C 1784.19 1.77774 0.725275 0
M  V30 18826 O 1785.39 2.43726 1.13363 0
M  V30 18827 C 1783.66 3.37692 -1.17042 0
M  V30 18828 S 1785.22 4.27281 -0.998818 0
M  V30 18829 H 1782.04 0.65905 -0.266784 0
M  V30 18830 H 1784.64 1.44418 -1.31771 0
M  V30 18831 H 1783.35 3.44708 -2.2272 0
M  V30 18832 H 1782.88 3.8912 -0.5787 0
M  V30 18833 H 1784.89 4.96116 0.0911076 0
M  V30 18834 N 1784.07 0.805805 1.35442 0
M  V30 18835 C 1785 0.230077 2.32364 0
M  V30 18836 C 1785.98 -0.644034 1.57436 0
M  V30 18837 O 1787.16 -0.574467 1.85509 0
M  V30 18838 C 1784.29 -0.622814 3.4167 0
M  V30 18839 C 1783.25 0.152739 4.27727 0
M  V30 18840 C 1782.57 -0.821803 5.28347 0
M  V30 18841 C 1783.87 1.35128 5.04517 0
M  V30 18842 H 1785.57 1.03983 2.80763 0
M  V30 18843 H 1783.11 0.501467 1.34986 0
M  V30 18844 H 1785.07 -1.03564 4.08476 0
M  V30 18845 H 1783.79 -1.46544 2.91877 0
M  V30 18846 H 1782.45 0.546732 3.625 0
M  V30 18847 H 1782.1 -1.65991 4.74822 0
M  V30 18848 H 1781.8 -0.307209 5.86796 0
M  V30 18849 H 1783.32 -1.23285 5.98024 0
M  V30 18850 H 1784.73 1.01337 5.64273 0
M  V30 18851 H 1783.13 1.80031 5.72459 0
M  V30 18852 H 1784.2 2.13833 4.35205 0
M  V30 18853 N 1785.54 -1.47344 0.559239 0
M  V30 18854 C 1786.79 -2.02768 0.0359962 0
M  V30 18855 C 1787.12 -1.43247 -1.31126 0
M  V30 18856 O 1786.4 -0.588793 -1.85374 0
M  V30 18857 C 1786.68 -3.60058 -0.0549111 0
M  V30 18858 C 1786.53 -4.30008 1.31958 0
M  V30 18859 C 1787.85 -4.33359 -0.767331 0
M  V30 18860 H 1784.97 -0.736856 0.0145552 0
M  V30 18861 H 1787.61 -1.75751 0.72192 0
M  V30 18862 H 1785.76 -3.83208 -0.639076 0
M  V30 18863 H 1787.44 -4.18193 1.94711 0
M  V30 18864 H 1785.68 -3.90283 1.89372 0
M  V30 18865 H 1786.35 -5.38605 1.20867 0
M  V30 18866 H 1788.83 -4.15215 -0.27131 0
M  V30 18867 H 1787.7 -5.4304 -0.799905 0
M  V30 18868 H 1787.96 -4.02725 -1.82387 0
M  V30 18869 N 1787.02 -0.295795 -1.54799 0
M  V30 18870 C 1788.27 0.315473 -2.00331 0
M  V30 18871 C 1788.6 1.53939 -1.18392 0
M  V30 18872 O 1787.88 1.92767 -0.259086 0
M  V30 18873 C 1788.16 0.677227 -3.53674 0
M  V30 18874 C 1788.01 -0.555462 -4.46357 0
M  V30 18875 C 1789.33 1.50576 -4.1354 0
M  V30 18876 H 1786.45 0.113191 -0.728256 0
M  V30 18877 H 1789.09 -0.406858 -1.85593 0
M  V30 18878 H 1787.24 1.29264 -3.66365 0
M  V30 18879 H 1788.91 -1.19397 -4.45581 0
M  V30 18880 H 1787.16 -1.18968 -4.17168 0
M  V30 18881 H 1787.83 -0.25828 -5.51395 0
M  V30 18882 H 1790.3 0.985819 -4.04253 0
M  V30 18883 H 1789.18 1.72766 -5.21002 0
M  V30 18884 H 1789.44 2.49334 -3.65082 0
M  V30 18885 N 1788.5 1.57583 -0.0234236 0
M  V30 18886 C 1789.73 1.95861 0.666797 0
M  V30 18887 C 1790.14 0.899616 1.65989 0
M  V30 18888 O 1789.5 -0.119162 1.82111 0
M  V30 18889 C 1789.55 3.34198 1.37818 0
M  V30 18890 O 1789.27 4.36035 0.424887 0
M  V30 18891 C 1790.77 3.87074 2.16075 0
M  V30 18892 H 1787.99 0.645213 0.184233 0
M  V30 18893 H 1790.54 2.04338 -0.0814987 0
M  V30 18894 H 1788.69 3.26958 2.07792 0
M  V30 18895 H 1789.11 5.162 0.929394 0
M  V30 18896 H 1790.58 4.8623 2.61312 0
M  V30 18897 H 1791.06 3.21017 2.99741 0
M  V30 18898 H 1791.66 3.97565 1.5107 0
M  V30 18899 N 1789.98 -0.249655 1.5561 0
M  V30 18900 C 1790.93 -1.31189 1.86477 0
M  V30 18901 C 1791.91 -1.43619 0.725415 0
M  V30 18902 O 1793.11 -1.46907 0.987281 0
M  V30 18903 C 1790.23 -2.66786 2.16056 0
M  V30 18904 C 1789.32 -2.58371 3.36311 0
M  V30 18905 N 1789.71 -2.19587 4.55648 0
M  V30 18906 C 1788.01 -2.8939 3.39366 0
M  V30 18907 C 1788.71 -2.21737 5.3778 0
M  V30 18908 N 1787.69 -2.61131 4.76772 0
M  V30 18909 H 1791.49 -1.00248 2.76275 0
M  V30 18910 H 1789 -0.458283 1.558 0
M  V30 18911 H 1791 -3.43442 2.36333 0
M  V30 18912 H 1789.66 -2.98597 1.27555 0
M  V30 18913 H 1790.67 -1.91176 4.81323 0
M  V30 18914 H 1787.35 -3.25758 2.61128 0
M  V30 18915 H 1788.74 -1.94114 6.43249 0
M  V30 18916 N 1791.46 -1.48941 -0.515198 0
M  V30 18917 C 1792.87 -1.35389 -0.8451 0
M  V30 18918 C 1793.07 -0.376141 -1.97958 0
M  V30 18919 O 1792.13 0.197324 -2.51728 0
M  V30 18920 C 1793.44 -2.75775 -1.19868 0
M  V30 18921 C 1794.99 -2.84373 -1.30772 0
M  V30 18922 C 1795.47 -4.25494 -1.69466 0
M  V30 18923 N 1796.96 -4.28237 -1.76542 0
M  V30 18924 C 1797.69 -5.34384 -2.07898 0
M  V30 18925 N 1797.19 -6.50792 -2.37575 0
M  V30 18926 N 1798.98 -5.21789 -2.09029 0
M  V30 18927 H 1791.13 -2.11117 0.233118 0
M  V30 18928 H 1793.39 -0.947083 0.0416757 0
M  V30 18929 H 1793.1 -3.48955 -0.438565 0
M  V30 18930 H 1792.97 -3.10243 -2.14545 0
M  V30 18931 H 1795.36 -2.11439 -2.05858 0
M  V30 18932 H 1795.44 -2.53506 -0.341808 0
M  V30 18933 H 1795.09 -4.98949 -0.949358 0
M  V30 18934 H 1795.02 -4.53814 -2.67133 0
M  V30 18935 H 1797.51 -3.44278 -1.55824 0
M  V30 18936 H 1797.82 -7.27518 -2.60649 0
M  V30 18937 H 1796.17 -6.54042 -2.35062 0
M  V30 18938 H 1799.36 -4.29858 -1.85311 0
M  V30 18939 H 1799.53 -6.0461 -2.33133 0
M  V30 18940 N 1792.94 0.765193 -1.37777 0
M  V30 18941 C 1793.87 1.89247 -1.36777 0
M  V30 18942 C 1794.85 1.68463 -0.235389 0
M  V30 18943 O 1796.03 1.89225 -0.436733 0
M  V30 18944 C 1793.16 3.2662 -1.18053 0
M  V30 18945 C 1792.12 3.61981 -2.28372 0
M  V30 18946 C 1791.44 4.97967 -1.94765 0
M  V30 18947 C 1792.74 3.68053 -3.70587 0
M  V30 18948 H 1794.44 1.90341 -2.31108 0
M  V30 18949 H 1791.98 0.914355 -1.11245 0
M  V30 18950 H 1793.93 4.05125 -1.15982 0
M  V30 18951 H 1792.66 3.25976 -0.201803 0
M  V30 18952 H 1791.32 2.85788 -2.2961 0
M  V30 18953 H 1790.97 4.93869 -0.954052 0
M  V30 18954 H 1790.67 5.22594 -2.68642 0
M  V30 18955 H 1792.19 5.78864 -1.94292 0
M  V30 18956 H 1793.6 4.36696 -3.71443 0
M  V30 18957 H 1792 4.04183 -4.43572 0
M  V30 18958 H 1793.07 2.68556 -4.03739 0
M  V30 18959 N 1794.41 1.22455 0.992094 0
M  V30 18960 C 1795.64 1.07677 1.77258 0
M  V30 18961 C 1796.06 -0.368377 1.84458 0
M  V30 18962 O 1795.42 -1.26614 1.29763 0
M  V30 18963 C 1795.47 1.69353 3.18358 0
M  V30 18964 O 1794.57 0.947746 4.01362 0
M  V30 18965 H 1793.91 0.378141 0.545807 0
M  V30 18966 H 1796.44 1.62269 1.2462 0
M  V30 18967 H 1796.45 1.7411 3.68985 0
M  V30 18968 H 1795.13 2.74515 3.12433 0
M  V30 18969 H 1793.71 0.976245 3.59894 0
M  V30 18970 N 1795.89 -1.18905 1.03437 0
M  V30 18971 C 1796.85 -2.20529 0.624461 0
M  V30 18972 C 1797.85 -1.57688 -0.314824 0
M  V30 18973 O 1799.04 -1.73906 -0.101082 0
M  V30 18974 C 1796.18 -3.40793 -0.0854166 0
M  V30 18975 H 1797.37 -2.58309 1.5237 0
M  V30 18976 H 1794.92 -1.32679 0.826189 0
M  V30 18977 H 1795.66 -3.08538 -0.998747 0
M  V30 18978 H 1795.44 -3.87642 0.589596 0
M  V30 18979 H 1796.93 -4.16055 -0.358938 0
M  V30 18980 N 1797.37 -0.812977 -1.35013 0
M  V30 18981 C 1798.62 -0.392801 -1.97838 0
M  V30 18982 C 1798.93 1.04728 -1.65201 0
M  V30 18983 O 1800.14 1.57088 -2.2144 0
M  V30 18984 C 1798.59 -0.651399 -3.53956 0
M  V30 18985 C 1798.2 -2.10444 -3.95496 0
M  V30 18986 C 1799.95 -0.296897 -4.2346 0
M  V30 18987 C 1797.85 -2.30845 -5.44485 0
M  V30 18988 H 1796.78 -0.143138 -0.740289 0
M  V30 18989 H 1799.43 -0.997933 -1.53992 0
M  V30 18990 H 1797.82 0.0237698 -3.95993 0
M  V30 18991 H 1798.99 -2.81795 -3.64593 0
M  V30 18992 H 1797.3 -2.41942 -3.389 0
M  V30 18993 H 1799.9 -0.427291 -5.3299 0
M  V30 18994 H 1800.24 0.757594 -4.09349 0
M  V30 18995 H 1800.78 -0.92624 -3.86866 0
M  V30 18996 H 1797.52 -3.34763 -5.63572 0
M  V30 18997 H 1797.04 -1.64027 -5.76936 0
M  V30 18998 H 1798.72 -2.12712 -6.11034 0
M  V30 18999 N 1798.85 1.47045 -0.567045 0
M  V30 19000 C 1799.78 2.28211 0.212726 0
M  V30 19001 C 1800.79 1.37591 0.870207 0
M  V30 19002 O 1801.98 1.62329 0.742404 0
M  V30 19003 C 1799.08 3.12155 1.31957 0
M  V30 19004 C 1798.25 4.30799 0.75701 0
M  V30 19005 C 1797.31 4.96262 1.74958 0
M  V30 19006 O 1796.34 5.54347 1.29181 0
M  V30 19007 N 1797.54 4.91848 3.08327 0
M  V30 19008 H 1800.31 2.95773 -0.483552 0
M  V30 19009 H 1797.87 1.56784 -0.403768 0
M  V30 19010 H 1799.86 3.52815 1.98252 0
M  V30 19011 H 1798.43 2.4677 1.91894 0
M  V30 19012 H 1797.65 3.94113 -0.0829881 0
M  V30 19013 H 1798.94 5.0752 0.360671 0
M  V30 19014 H 1798.34 4.45875 3.48155 0
M  V30 19015 H 1796.89 5.36497 3.70154 0
M  V30 19016 N 1800.33 0.304 1.5464 0
M  V30 19017 C 1801.27 -0.586475 2.25085 0
M  V30 19018 C 1802.27 -1.13458 1.25792 0
M  V30 19019 O 1803.47 -1.08487 1.43633 0
M  V30 19020 H 1799.85 -0.20774 0.722737 0
M  V30 19021 H 1801.82 0.0301682 2.98385 0
M  V30 19022 C 1800.57 -1.74539 3.00718 0
M  V30 19023 H 1799.89 -1.33287 3.76928 0
M  V30 19024 H 1801.33 -2.34447 3.53285 0
M  V30 19025 C 1799.79 -2.65132 2.07862 0
M  V30 19026 O 1800.32 -3.6631 1.64863 0
M  V30 19027 N 1798.53 -2.32932 1.73756 0
M  V30 19028 H 1798.07 -1.50698 2.08921 0
M  V30 19029 H 1798.03 -2.93811 1.11904 0
M  V30 19030 N 1801.8 -1.57568 0.0317802 0
M  V30 19031 C 1802.77 -2.09296 -0.934239 0
M  V30 19032 C 1803.77 -1.00855 -1.25239 0
M  V30 19033 O 1804.96 -1.27004 -1.19229 0
M  V30 19034 C 1802.09 -2.56103 -2.24998 0
M  V30 19035 H 1803.28 -2.95933 -0.486183 0
M  V30 19036 H 1800.83 -1.54796 -0.2163 0
M  V30 19037 H 1801.57 -1.72803 -2.74426 0
M  V30 19038 H 1801.35 -3.35329 -2.03216 0
M  V30 19039 H 1802.84 -2.96339 -2.94233 0
M  V30 19040 N 1803.28 0.241399 -1.5574 0
M  V30 19041 C 1804.56 0.991821 -1.68589 0
M  V30 19042 C 1804.94 2.03167 -0.573274 0
M  V30 19043 O 1804.29 2.2456 0.422521 0
M  V30 19044 C 1804.5 1.6202 -3.09112 0
M  V30 19045 C 1805.85 2.11998 -3.67889 0
M  V30 19046 O 1806.87 1.71951 -3.11948 0
M  V30 19047 O 1805.73 2.85545 -4.65968 0
M  V30 19048 H 1802.82 0.462017 -0.685907 0
M  V30 19049 H 1805.37 0.23475 -1.68068 0
M  V30 19050 H 1804.14 0.86835 -3.81543 0
M  V30 19051 H 1803.76 2.44333 -3.13667 0
M  V30 19052 N 1804.76 1.49212 0.507292 0
M  V30 19053 C 1805.69 1.68326 1.61829 0
M  V30 19054 C 1806.67 0.531969 1.61568 0
M  V30 19055 O 1807.86 0.767104 1.78407 0
M  V30 19056 C 1804.99 1.74394 3.0034 0
M  V30 19057 C 1803.94 2.89251 3.15465 0
M  V30 19058 C 1803.27 2.80426 4.55264 0
M  V30 19059 C 1804.57 4.30269 2.96085 0
M  V30 19060 H 1806.26 2.6134 1.46087 0
M  V30 19061 H 1803.81 1.25765 0.701367 0
M  V30 19062 H 1805.76 1.86353 3.77956 0
M  V30 19063 H 1804.48 0.779748 3.17155 0
M  V30 19064 H 1803.14 2.76884 2.40272 0
M  V30 19065 H 1802.79 1.81928 4.68947 0
M  V30 19066 H 1802.49 3.57511 4.66326 0
M  V30 19067 H 1804.01 2.94384 5.34949 0
M  V30 19068 H 1805.43 4.4335 3.63475 0
M  V30 19069 H 1803.83 5.08527 3.18623 0
M  V30 19070 H 1804.9 4.45151 1.92272 0
M  V30 19071 N 1806.24 -0.757876 1.38181 0
M  V30 19072 C 1807.49 -1.51222 1.33472 0
M  V30 19073 C 1807.8 -1.9546 -0.0740525 0
M  V30 19074 O 1809.01 -2.70404 -0.243664 0
M  V30 19075 C 1807.46 -2.73138 2.34358 0
M  V30 19076 C 1807.07 -2.35943 3.80835 0
M  V30 19077 C 1808.81 -3.51041 2.38685 0
M  V30 19078 C 1806.72 -3.54444 4.73417 0
M  V30 19079 H 1805.65 -0.567789 0.496116 0
M  V30 19080 H 1808.3 -0.828861 1.63714 0
M  V30 19081 H 1806.68 -3.43433 1.97153 0
M  V30 19082 H 1807.86 -1.73341 4.26954 0
M  V30 19083 H 1806.17 -1.71184 3.79585 0
M  V30 19084 H 1808.77 -4.39143 3.05054 0
M  V30 19085 H 1809.11 -3.91892 1.40451 0
M  V30 19086 H 1809.65 -2.87755 2.74667 0
M  V30 19087 H 1806.39 -3.18663 5.7283 0
M  V30 19088 H 1805.91 -4.16103 4.31993 0
M  V30 19089 H 1807.58 -4.21081 4.91223 0
M  V30 19090 N 1807.72 -1.22979 -0.985586 0
M  V30 19091 C 1808.96 -1.06033 -1.72872 0
M  V30 19092 C 1809.3 0.402572 -1.89982 0
M  V30 19093 O 1808.57 1.29824 -1.44831 0
M  V30 19094 C 1808.85 -1.78047 -3.13004 0
M  V30 19095 C 1808.71 -3.31979 -3.03497 0
M  V30 19096 C 1810.03 -1.53877 -4.12323 0
M  V30 19097 H 1807.14 -0.386594 -0.627466 0
M  V30 19098 H 1809.79 -1.51416 -1.14775 0
M  V30 19099 H 1807.94 -1.39469 -3.62603 0
M  V30 19100 H 1809.61 -3.80047 -2.61462 0
M  V30 19101 H 1807.85 -3.61279 -2.40125 0
M  V30 19102 H 1808.52 -3.7755 -4.02691 0
M  V30 19103 H 1811 -1.87402 -3.7151 0
M  V30 19104 H 1809.87 -2.06749 -5.08474 0
M  V30 19105 H 1810.14 -0.472972 -4.39563 0
M  V30 19106 N 1809.19 1.18355 -1.04066 0
M  V30 19107 C 1810.44 1.88614 -0.745148 0
M  V30 19108 C 1810.77 1.80147 0.725294 0
M  V30 19109 O 1810.05 1.20177 1.5293 0
M  V30 19110 C 1810.33 3.39095 -1.2119 0
M  V30 19111 C 1810.18 3.56372 -2.74444 0
M  V30 19112 C 1811.5 4.32732 -0.801953 0
M  V30 19113 H 1808.62 0.684905 -0.272166 0
M  V30 19114 H 1811.26 1.39248 -1.29267 0
M  V30 19115 H 1809.41 3.81269 -0.746091 0
M  V30 19116 H 1811.09 3.2329 -3.29061 0
M  V30 19117 H 1809.33 2.99028 -3.14269 0
M  V30 19118 H 1810 4.61956 -3.0216 0
M  V30 19119 H 1812.48 3.98337 -1.20278 0
M  V30 19120 H 1811.35 5.36583 -1.15628 0
M  V30 19121 H 1811.61 4.41115 0.294907 0
M  V30 19122 N 1810.67 0.820125 1.3458 0
M  V30 19123 C 1811.6 0.254709 2.32107 0
M  V30 19124 C 1812.58 -0.6273 1.58111 0
M  V30 19125 O 1813.77 -0.554759 1.86108 0
M  V30 19126 C 1810.9 -0.586541 3.42311 0
M  V30 19127 C 1809.85 0.198096 4.27541 0
M  V30 19128 C 1809.18 -0.765718 5.29189 0
M  V30 19129 C 1810.48 1.40472 5.03056 0
M  V30 19130 H 1812.17 1.06955 2.79644 0
M  V30 19131 H 1809.72 0.515756 1.34447 0
M  V30 19132 H 1811.67 -0.992259 4.09551 0
M  V30 19133 H 1810.4 -1.4344 2.93415 0
M  V30 19134 H 1809.05 0.585149 3.619 0
M  V30 19135 H 1808.7 -1.60946 4.76556 0
M  V30 19136 H 1808.4 -0.244954 5.87089 0
M  V30 19137 H 1809.93 -1.16935 5.99298 0
M  V30 19138 H 1811.34 1.07316 5.63166 0
M  V30 19139 H 1809.74 1.86092 5.70517 0
M  V30 19140 H 1810.81 2.18437 4.32913 0
M  V30 19141 N 1812.15 -1.46743 0.574835 0
M  V30 19142 C 1813.1 -2.27259 -0.183667 0
M  V30 19143 C 1814.08 -1.35406 -0.869139 0
M  V30 19144 O 1815.28 -1.59637 -0.764534 0
M  V30 19145 C 1812.41 -3.21578 -1.20178 0
M  V30 19146 C 1811.49 -4.20914 -0.518826 0
M  V30 19147 N 1811.88 -5.04044 0.421132 0
M  V30 19148 C 1810.18 -4.39293 -0.770561 0
M  V30 19149 C 1810.88 -5.75898 0.819539 0
M  V30 19150 N 1809.86 -5.43333 0.170429 0
M  V30 19151 H 1813.66 -2.8892 0.538761 0
M  V30 19152 H 1811.17 -1.57497 0.396049 0
M  V30 19153 H 1813.17 -3.77961 -1.75929 0
M  V30 19154 H 1811.83 -2.61476 -1.92511 0
M  V30 19155 H 1812.84 -5.11742 0.796245 0
M  V30 19156 H 1809.52 -3.90347 -1.48107 0
M  V30 19157 H 1810.91 -6.52745 1.59293 0
M  V30 19158 N 1813.63 -0.312197 -1.54477 0
M  V30 19159 C 1814.58 0.57453 -2.25393 0
M  V30 19160 C 1815.57 1.12789 -1.26392 0
M  V30 19161 O 1816.78 1.07724 -1.44207 0
M  V30 19162 H 1813.15 0.203904 -0.723828 0
M  V30 19163 H 1815.12 -0.0459918 -2.98365 0
M  V30 19164 C 1813.87 1.72942 -3.01639 0
M  V30 19165 H 1813.19 1.31286 -3.7763 0
M  V30 19166 H 1814.63 2.3257 -3.54524 0
M  V30 19167 C 1813.09 2.64026 -2.09266 0
M  V30 19168 O 1813.62 3.65431 -1.66803 0
M  V30 19169 N 1811.83 2.32007 -1.74989 0
M  V30 19170 H 1811.38 1.49588 -2.09717 0
M  V30 19171 H 1811.33 2.93213 -1.1346 0
M  V30 19172 N 1815.11 1.57549 -0.040136 0
M  V30 19173 C 1816.35 1.9187 0.634838 0
M  V30 19174 C 1816.68 0.918178 1.7203 0
M  V30 19175 O 1815.95 -0.0386563 1.95862 0
M  V30 19176 H 1814.53 0.708245 0.237483 0
M  V30 19177 H 1817.19 1.9469 -0.0905369 0
M  V30 19178 H 1816.28 2.92799 1.08053 0
M  V30 19179 N 1816.58 -0.233136 1.55866 0
M  V30 19180 C 1817.53 -1.28882 1.91463 0
M  V30 19181 C 1818.5 -1.47151 0.770435 0
M  V30 19182 O 1819.69 -1.6091 1.02531 0
M  V30 19183 C 1816.83 -2.63653 2.22668 0
M  V30 19184 C 1815.94 -2.53278 3.49963 0
M  V30 19185 C 1815.07 -3.80494 3.70672 0
M  V30 19186 C 1814.11 -3.64794 4.9152 0
M  V30 19187 N 1813.25 -4.83933 5.08678 0
M  V30 19188 H 1818.09 -0.978251 2.81486 0
M  V30 19189 H 1815.63 -0.471757 1.3933 0
M  V30 19190 H 1817.59 -3.42119 2.38769 0
M  V30 19191 H 1816.22 -2.9283 1.35833 0
M  V30 19192 H 1815.27 -1.66308 3.4212 0
M  V30 19193 H 1816.58 -2.37592 4.38579 0
M  V30 19194 H 1815.73 -4.67404 3.86806 0
M  V30 19195 H 1814.47 -3.99092 2.80315 0
M  V30 19196 H 1813.48 -2.76268 4.75348 0
M  V30 19197 H 1814.7 -3.47677 5.8335 0
M  V30 19198 H 1812.65 -5.02866 4.21262 0
M  V30 19199 H 1812.57 -4.7093 5.91406 0
M  V30 19200 H 1813.83 -5.72302 5.29236 0
M  V30 19201 N 1818.06 -1.49479 -0.499372 0
M  V30 19202 C 1819.31 -1.58295 -1.25003 0
M  V30 19203 C 1819.63 -0.275616 -1.93648 0
M  V30 19204 O 1820.83 -0.24234 -2.70416 0
M  V30 19205 C 1819.29 -2.793 -2.26979 0
M  V30 19206 C 1818.9 -4.16799 -1.64264 0
M  V30 19207 C 1820.64 -2.97447 -3.02862 0
M  V30 19208 C 1818.55 -5.29025 -2.6436 0
M  V30 19209 H 1817.48 -0.589398 -0.470241 0
M  V30 19210 H 1820.13 -1.75868 -0.523698 0
M  V30 19211 H 1818.51 -2.55225 -3.02781 0
M  V30 19212 H 1819.68 -4.51018 -0.944432 0
M  V30 19213 H 1818 -4.04024 -1.00765 0
M  V30 19214 H 1820.6 -3.78461 -3.77719 0
M  V30 19215 H 1820.94 -2.08071 -3.60572 0
M  V30 19216 H 1821.47 -3.2157 -2.34175 0
M  V30 19217 H 1818.21 -6.20466 -2.11429 0
M  V30 19218 H 1817.73 -4.99258 -3.32417 0
M  V30 19219 H 1819.41 -5.58427 -3.26755 0
M  V30 19220 N 1819.54 0.750537 -1.38581 0
M  V30 19221 C 1820.49 1.86434 -1.36056 0
M  V30 19222 C 1821.46 1.64601 -0.222625 0
M  V30 19223 O 1822.64 1.86225 -0.41533 0
M  V30 19224 C 1819.78 3.23769 -1.19447 0
M  V30 19225 C 1818.9 3.57412 -2.42653 0
M  V30 19226 C 1818.03 4.84067 -2.18751 0
M  V30 19227 C 1817.07 5.10506 -3.37713 0
M  V30 19228 N 1816.21 6.28358 -3.13227 0
M  V30 19229 H 1821.05 1.87927 -2.31274 0
M  V30 19230 H 1818.58 0.91849 -1.14901 0
M  V30 19231 H 1820.54 4.03024 -1.07832 0
M  V30 19232 H 1819.17 3.21595 -0.278665 0
M  V30 19233 H 1818.22 2.72978 -2.64929 0
M  V30 19234 H 1819.54 3.72876 -3.31307 0
M  V30 19235 H 1818.69 5.71271 -2.0429 0
M  V30 19236 H 1817.43 4.70748 -1.27467 0
M  V30 19237 H 1816.43 4.2177 -3.5269 0
M  V30 19238 H 1817.66 5.25721 -4.29877 0
M  V30 19239 H 1815.61 6.16355 -2.24593 0
M  V30 19240 H 1815.52 6.44337 -3.95432 0
M  V30 19241 H 1816.79 7.18441 -3.02428 0
M  V30 19242 N 1821.02 1.235 0.979051 0
M  V30 19243 C 1821.93 1.03412 2.10578 0
M  V30 19244 C 1822.95 -0.0217644 1.73986 0
M  V30 19245 O 1824.12 0.173977 2.00647 0
M  V30 19246 C 1821.19 0.629192 3.40943 0
M  V30 19247 C 1820.25 1.76028 3.91552 0
M  V30 19248 C 1819.48 1.37457 5.15695 0
M  V30 19249 O 1819.7 0.259393 5.6981 0
M  V30 19250 O 1818.64 2.19614 5.60404 0
M  V30 19251 H 1822.46 1.97845 2.30415 0
M  V30 19252 H 1820.05 1.02218 1.08958 0
M  V30 19253 H 1821.93 0.414372 4.19358 0
M  V30 19254 H 1820.61 -0.286128 3.22433 0
M  V30 19255 H 1819.51 2.02975 3.14248 0
M  V30 19256 H 1820.85 2.65396 4.14519 0
M  V30 19257 N 1822.5 -1.17802 1.04693 0
M  V30 19258 C 1823.43 -2.21166 0.601507 0
M  V30 19259 C 1824.44 -1.59376 -0.332128 0
M  V30 19260 O 1825.63 -1.78057 -0.125653 0
M  V30 19261 C 1822.73 -3.38609 -0.140442 0
M  V30 19262 C 1821.9 -4.29973 0.802637 0
M  V30 19263 C 1820.96 -5.26099 0.102853 0
M  V30 19264 O 1819.99 -5.6443 0.735325 0
M  V30 19265 N 1821.19 -5.68761 -1.16154 0
M  V30 19266 H 1823.96 -2.60004 1.49057 0
M  V30 19267 H 1821.52 -1.3265 0.928199 0
M  V30 19268 H 1823.51 -3.99944 -0.618587 0
M  V30 19269 H 1822.08 -2.98411 -0.931117 0
M  V30 19270 H 1821.3 -3.66146 1.46051 0
M  V30 19271 H 1822.59 -4.8791 1.44296 0
M  V30 19272 H 1821.99 -5.39684 -1.6958 0
M  V30 19273 H 1820.54 -6.32264 -1.58384 0
M  V30 19274 N 1823.98 -0.827251 -1.34143 0
M  V30 19275 C 1825.22 -0.41656 -1.9776 0
M  V30 19276 C 1825.54 1.02488 -1.65895 0
M  V30 19277 O 1824.81 1.71219 -0.951891 0
M  V30 19278 H 1823.39 -0.151044 -0.73157 0
M  V30 19279 H 1826.06 -1.05765 -1.63706 0
M  V30 19280 H 1825.15 -0.539101 -3.07409 0
M  V30 19281 N 1825.45 1.46436 -0.582609 0
M  V30 19282 C 1826.68 2.06768 -0.0737657 0
M  V30 19283 C 1827.1 1.43137 1.23115 0
M  V30 19284 O 1826.45 0.536633 1.74432 0
M  V30 19285 C 1826.5 3.61365 0.0988205 0
M  V30 19286 O 1826.23 4.22616 -1.15444 0
M  V30 19287 C 1827.73 4.38626 0.642025 0
M  V30 19288 H 1824.95 0.66854 -0.0574078 0
M  V30 19289 H 1827.49 1.88064 -0.80325 0
M  V30 19290 H 1825.65 3.79497 0.778526 0
M  V30 19291 H 1826.06 5.15486 -0.968204 0
M  V30 19292 H 1827.53 5.47389 0.711966 0
M  V30 19293 H 1828.01 4.06663 1.65897 0
M  V30 19294 H 1828.62 4.253 -0.00280852 0
M  V30 19295 N 1826.93 0.320385 1.54309 0
M  V30 19296 C 1827.88 -0.562498 2.20952 0
M  V30 19297 C 1828.87 -1.08408 1.18897 0
M  V30 19298 O 1830.06 -1.02163 1.4454 0
M  V30 19299 C 1827.19 -1.72448 2.96845 0
M  V30 19300 C 1826.27 -1.21794 4.06235 0
M  V30 19301 N 1826.66 -0.43084 5.03962 0
M  V30 19302 C 1824.96 -1.49695 4.20128 0
M  V30 19303 C 1825.66 -0.158687 5.81484 0
M  V30 19304 N 1824.64 -0.74393 5.38486 0
M  V30 19305 H 1828.44 0.0461894 2.93864 0
M  V30 19306 H 1825.95 0.126085 1.6191 0
M  V30 19307 H 1827.95 -2.36871 3.43071 0
M  V30 19308 H 1826.61 -2.33667 2.25455 0
M  V30 19309 H 1827.62 -0.0739708 5.17847 0
M  V30 19310 H 1824.3 -2.11522 3.59951 0
M  V30 19311 H 1825.69 0.47475 6.70221 0
M  V30 19312 N 1828.41 -1.57525 0.0484906 0
M  V30 19313 C 1829.34 -2.08313 -0.955941 0
M  V30 19314 C 1830.35 -1.01042 -1.2765 0
M  V30 19315 O 1831.54 -1.28615 -1.23776 0
M  V30 19316 C 1828.64 -2.509 -2.27821 0
M  V30 19317 C 1827.82 -3.81476 -2.13997 0
M  V30 19318 C 1826.88 -4.10404 -3.29325 0
M  V30 19319 O 1825.9 -4.80366 -3.05348 0
M  V30 19320 N 1827.1 -3.62104 -4.53719 0
M  V30 19321 H 1829.87 -2.95111 -0.522472 0
M  V30 19322 H 1827.43 -1.61312 -0.137816 0
M  V30 19323 H 1829.42 -2.6733 -3.03837 0
M  V30 19324 H 1827.99 -1.69365 -2.62744 0
M  V30 19325 H 1827.21 -3.74654 -1.22589 0
M  V30 19326 H 1828.5 -4.6699 -2.01985 0
M  V30 19327 H 1827.9 -3.05541 -4.7609 0
M  V30 19328 H 1826.45 -3.83778 -5.26838 0
M  V30 19329 N 1829.89 0.224867 -1.55988 0
M  V30 19330 C 1830.8 1.2997 -1.95307 0
M  V30 19331 C 1831.81 1.51463 -0.856444 0
M  V30 19332 O 1832.99 1.64658 -1.15973 0
M  V30 19333 C 1830.05 2.63009 -2.25892 0
M  V30 19334 C 1829.12 2.49847 -3.49106 0
M  V30 19335 C 1828.35 3.76541 -3.78223 0
M  V30 19336 O 1828.57 4.7941 -3.09066 0
M  V30 19337 O 1827.51 3.73852 -4.71718 0
M  V30 19338 H 1831.33 0.996093 -2.869 0
M  V30 19339 H 1828.92 0.427457 -1.43154 0
M  V30 19340 H 1830.8 3.41586 -2.46774 0
M  V30 19341 H 1829.47 2.93057 -1.37474 0
M  V30 19342 H 1828.38 1.69482 -3.33507 0
M  V30 19343 H 1829.71 2.24739 -4.37896 0
M  V30 19344 N 1831.37 1.49742 0.491438 0
M  V30 19345 C 1832.3 1.70033 1.60034 0
M  V30 19346 C 1833.28 0.549076 1.60994 0
M  V30 19347 O 1834.46 0.785983 1.77584 0
M  V30 19348 C 1831.59 1.7757 2.98473 0
M  V30 19349 C 1830.55 2.9258 3.12379 0
M  V30 19350 C 1829.87 2.85239 4.52264 0
M  V30 19351 C 1831.17 4.33385 2.91504 0
M  V30 19352 H 1832.87 2.62875 1.43307 0
M  V30 19353 H 1830.41 1.26502 0.687989 0
M  V30 19354 H 1832.36 1.90351 3.75958 0
M  V30 19355 H 1831.09 0.813343 3.1631 0
M  V30 19356 H 1829.75 2.79417 2.37322 0
M  V30 19357 H 1829.4 1.86892 4.66991 0
M  V30 19358 H 1829.1 3.62437 4.62508 0
M  V30 19359 H 1830.62 3.00041 5.31797 0
M  V30 19360 H 1832.03 4.4718 3.58752 0
M  V30 19361 H 1830.43 5.11878 3.13211 0
M  V30 19362 H 1831.5 4.47166 1.87539 0
M  V30 19363 N 1832.84 -0.743177 1.38977 0
M  V30 19364 C 1833.77 -1.87047 1.3977 0
M  V30 19365 C 1834.76 -1.68068 0.262161 0
M  V30 19366 O 1835.94 -1.88507 0.466782 0
M  V30 19367 C 1833.07 -3.24701 1.23234 0
M  V30 19368 C 1832.02 -3.58302 2.34102 0
M  V30 19369 C 1831.35 -4.94805 2.02663 0
M  V30 19370 C 1832.65 -3.62111 3.76395 0
M  V30 19371 H 1834.34 -1.8664 2.34107 0
M  V30 19372 H 1831.89 -0.896541 1.12686 0
M  V30 19373 H 1833.84 -4.03228 1.22412 0
M  V30 19374 H 1832.57 -3.25614 0.253638 0
M  V30 19375 H 1831.23 -2.82099 2.34128 0
M  V30 19376 H 1830.87 -4.92289 1.0325 0
M  V30 19377 H 1830.57 -5.18254 2.76922 0
M  V30 19378 H 1832.1 -5.75699 2.03477 0
M  V30 19379 H 1833.51 -4.30731 3.78343 0
M  V30 19380 H 1831.91 -3.97075 4.49946 0
M  V30 19381 H 1832.98 -2.62099 4.07961 0
M  V30 19382 N 1834.32 -1.24018 -0.972487 0
M  V30 19383 C 1835.74 -1.00454 -1.24021 0
M  V30 19384 C 1835.94 0.289568 -1.99409 0
M  V30 19385 O 1834.99 1.00696 -2.31552 0
M  V30 19386 C 1836.31 -2.21651 -2.03202 0
M  V30 19387 C 1837.86 -2.26225 -2.16312 0
M  V30 19388 C 1838.33 -3.47031 -2.98888 0
M  V30 19389 N 1839.82 -3.47318 -3.06471 0
M  V30 19390 C 1840.56 -4.3745 -3.70709 0
M  V30 19391 N 1840.05 -5.37829 -4.36705 0
M  V30 19392 N 1841.85 -4.25173 -3.67674 0
M  V30 19393 H 1834 -2.07187 -0.467668 0
M  V30 19394 H 1836.26 -0.908955 -0.269267 0
M  V30 19395 H 1835.97 -3.15608 -1.55191 0
M  V30 19396 H 1835.84 -2.2338 -3.03943 0
M  V30 19397 H 1838.23 -1.32803 -2.63529 0
M  V30 19398 H 1838.31 -2.28525 -1.14936 0
M  V30 19399 H 1837.95 -4.40765 -2.52366 0
M  V30 19400 H 1837.88 -3.41974 -4.00452 0
M  V30 19401 H 1840.37 -2.74695 -2.59521 0
M  V30 19402 H 1840.69 -6.02846 -4.83525 0
M  V30 19403 H 1839.03 -5.41721 -4.35389 0
M  V30 19404 H 1842.22 -3.45992 -3.15289 0
M  V30 19405 H 1842.39 -4.95617 -4.17454 0
M  V30 19406 N 1835.8 1.17245 -1.05316 0
M  V30 19407 C 1836.75 2.23357 -0.649174 0
M  V30 19408 C 1837.74 1.66152 0.33015 0
M  V30 19409 O 1838.95 1.78929 0.196078 0
M  V30 19410 H 1835.32 0.727139 -0.191762 0
M  V30 19411 H 1837.29 2.54728 -1.55423 0
M  V30 19412 C 1836.04 3.47676 -0.0412049 0
M  V30 19413 H 1835.37 3.92 -0.785858 0
M  V30 19414 H 1836.81 4.23509 0.204073 0
M  V30 19415 C 1835.27 3.14326 1.21247 0
M  V30 19416 O 1835.8 3.29218 2.3017 0
M  V30 19417 N 1834 2.68541 1.1106 0
M  V30 19418 H 1833.55 2.56622 0.224212 0
M  V30 19419 H 1833.51 2.466 1.95028 0
M  V30 19420 N 1837.28 0.834353 1.33702 0
M  V30 19421 C 1838.69 0.52156 1.50837 0
M  V30 19422 C 1838.89 -0.95203 1.77591 0
M  V30 19423 O 1837.95 -1.73603 1.83353 0
M  V30 19424 C 1839.26 1.39099 2.66593 0
M  V30 19425 C 1840.81 1.3893 2.80477 0
M  V30 19426 C 1841.29 2.24347 3.9929 0
M  V30 19427 N 1842.78 2.22032 4.06517 0
M  V30 19428 C 1843.51 2.84865 4.97634 0
M  V30 19429 N 1843.01 3.56732 5.93897 0
M  V30 19430 N 1844.8 2.74359 4.90595 0
M  V30 19431 H 1836.95 1.78832 1.14598 0
M  V30 19432 H 1839.22 0.762708 0.563011 0
M  V30 19433 H 1838.92 2.43795 2.53489 0
M  V30 19434 H 1838.8 1.06381 3.61888 0
M  V30 19435 H 1841.18 0.350069 2.93016 0
M  V30 19436 H 1841.26 1.75652 1.85957 0
M  V30 19437 H 1840.91 3.28326 3.8751 0
M  V30 19438 H 1840.84 1.84969 4.93046 0
M  V30 19439 H 1843.33 1.69765 3.37621 0
M  V30 19440 H 1843.64 4.01893 6.60077 0
M  V30 19441 H 1841.99 3.6084 5.93986 0
M  V30 19442 H 1845.18 2.17779 4.14355 0
M  V30 19443 H 1845.35 3.23612 5.61408 0
M  V30 19444 N 1838.76 -1.46125 0.590367 0
M  V30 19445 C 1840.03 -1.95597 0.0116648 0
M  V30 19446 C 1840.41 -1.53298 -1.45131 0
M  V30 19447 O 1839.76 -0.787298 -2.14508 0
M  V30 19448 C 1839.97 -3.48473 0.191727 0
M  V30 19449 C 1841.32 -4.24552 0.0635332 0
M  V30 19450 O 1842.34 -3.55995 0.120955 0
M  V30 19451 O 1841.2 -5.4646 -0.0657772 0
M  V30 19452 H 1838.3 -0.825748 -0.0454921 0
M  V30 19453 H 1840.84 -1.56372 0.659223 0
M  V30 19454 H 1839.61 -3.72172 1.20846 0
M  V30 19455 H 1839.24 -3.94545 -0.491905 0
M  V30 19456 N 1840.23 -0.328564 -1.54137 0
M  V30 19457 C 1841.48 0.273427 -1.99838 0
M  V30 19458 C 1841.8 1.52851 -1.22049 0
M  V30 19459 O 1843 2.20681 -1.58152 0
M  V30 19460 C 1841.46 0.537757 -3.5586 0
M  V30 19461 C 1841.07 -0.700562 -4.42489 0
M  V30 19462 C 1842.81 1.09943 -4.10016 0
M  V30 19463 C 1840.72 -0.40786 -5.89992 0
M  V30 19464 H 1839.65 0.105947 -0.746519 0
M  V30 19465 H 1842.3 -0.441565 -1.78108 0
M  V30 19466 H 1840.68 1.31307 -3.73597 0
M  V30 19467 H 1841.85 -1.47583 -4.36527 0
M  V30 19468 H 1840.17 -1.1828 -3.99248 0
M  V30 19469 H 1842.77 1.33312 -5.17815 0
M  V30 19470 H 1843.11 2.05035 -3.62307 0
M  V30 19471 H 1843.64 0.385182 -3.95931 0
M  V30 19472 H 1840.38 -1.32809 -6.41905 0
M  V30 19473 H 1839.9 0.329604 -5.98894 0
M  V30 19474 H 1841.58 -0.0195391 -6.46997 0
M  V30 19475 N 1841.71 1.57497 -0.0568439 0
M  V30 19476 C 1842.94 1.96945 0.624196 0
M  V30 19477 C 1843.35 0.933312 1.64578 0
M  V30 19478 O 1842.69 -0.0902107 1.83478 0
M  V30 19479 C 1842.76 3.32652 1.3632 0
M  V30 19480 C 1842.42 4.54292 0.496798 0
M  V30 19481 C 1843.42 5.19348 -0.239466 0
M  V30 19482 C 1841.1 5.0049 0.426059 0
M  V30 19483 C 1843.1 6.28943 -1.03485 0
M  V30 19484 C 1840.78 6.09961 -0.373005 0
M  V30 19485 C 1841.78 6.74049 -1.10214 0
M  V30 19486 O 1841.47 7.81414 -1.88805 0
M  V30 19487 H 1841.2 0.652944 0.175043 0
M  V30 19488 H 1843.75 2.05042 -0.121272 0
M  V30 19489 H 1841.98 3.21126 2.15442 0
M  V30 19490 H 1843.67 3.56808 1.93502 0
M  V30 19491 H 1844.44 4.84611 -0.194318 0
M  V30 19492 H 1840.32 4.50394 0.983188 0
M  V30 19493 H 1843.86 6.78898 -1.60447 0
M  V30 19494 H 1839.76 6.44134 -0.419771 0
M  V30 19495 H 1840.53 7.98219 -1.81077 0
M  V30 19496 N 1843.19 -0.216591 1.56105 0
M  V30 19497 C 1844.44 -0.940249 1.79348 0
M  V30 19498 C 1844.77 -1.84135 0.626451 0
M  V30 19499 O 1844.02 -1.91796 -0.388932 0
M  V30 19500 C 1844.32 -1.80637 3.08391 0
M  V30 19501 C 1843.99 -1.05808 4.3831 0
M  V30 19502 C 1842.65 -0.851392 4.73608 0
M  V30 19503 C 1845 -0.530015 5.18498 0
M  V30 19504 C 1842.33 -0.104822 5.86606 0
M  V30 19505 C 1844.68 0.203236 6.32273 0
M  V30 19506 C 1843.34 0.42113 6.6617 0
M  V30 19507 H 1842.61 -0.344062 0.656279 0
M  V30 19508 H 1845.26 -0.208069 1.90366 0
M  V30 19509 H 1843.57 -2.60656 2.92516 0
M  V30 19510 H 1845.26 -2.36852 3.23577 0
M  V30 19511 H 1841.85 -1.22915 4.10597 0
M  V30 19512 H 1846.04 -0.677154 4.91659 0
M  V30 19513 H 1841.29 0.074177 6.11355 0
M  V30 19514 H 1845.47 0.619898 6.93636 0
M  V30 19515 H 1843.09 1.00155 7.53573 0
M  V30 19516 N 1844.67 -1.5 -0.48349 0
M  V30 19517 C 1845.62 -1.67957 -1.58301 0
M  V30 19518 C 1846.59 -0.520895 -1.57721 0
M  V30 19519 O 1847.77 -0.750008 -1.75441 0
M  V30 19520 C 1844.91 -1.76832 -2.96352 0
M  V30 19521 C 1844.02 -3.04119 -3.06815 0
M  V30 19522 C 1843.16 -3.03865 -4.35706 0
M  V30 19523 C 1842.2 -4.25658 -4.39865 0
M  V30 19524 N 1841.33 -4.23214 -5.60209 0
M  V30 19525 H 1846.17 -2.61832 -1.42296 0
M  V30 19526 H 1843.71 -1.29804 -0.692045 0
M  V30 19527 H 1845.67 -1.79958 -3.76392 0
M  V30 19528 H 1844.3 -0.864074 -3.1102 0
M  V30 19529 H 1843.35 -3.10523 -2.19727 0
M  V30 19530 H 1844.66 -3.94106 -3.05748 0
M  V30 19531 H 1843.82 -3.05652 -5.24082 0
M  V30 19532 H 1842.56 -2.11687 -4.39363 0
M  V30 19533 H 1841.56 -4.24097 -3.49888 0
M  V30 19534 H 1842.79 -5.19049 -4.37909 0
M  V30 19535 H 1840.73 -3.33883 -5.64675 0
M  V30 19536 H 1840.65 -5.06956 -5.60832 0
M  V30 19537 H 1841.92 -4.29129 -6.50744 0
M  V30 19538 N 1846.15 0.735796 -1.39369 0
M  V30 19539 C 1847.08 1.86303 -1.4076 0
M  V30 19540 C 1848.06 1.67926 -0.27107 0
M  V30 19541 O 1849.24 1.88257 -0.476773 0
M  V30 19542 C 1846.37 3.24043 -1.24955 0
M  V30 19543 C 1845.33 3.57055 -2.35999 0
M  V30 19544 C 1844.65 4.93723 -2.05284 0
M  V30 19545 C 1845.95 3.60109 -3.7831 0
M  V30 19546 H 1847.65 1.85396 -2.35093 0
M  V30 19547 H 1845.19 0.890552 -1.1316 0
M  V30 19548 H 1847.15 4.02574 -1.24549 0
M  V30 19549 H 1845.87 3.25475 -0.270902 0
M  V30 19550 H 1844.53 2.80853 -2.35621 0
M  V30 19551 H 1844.18 4.91734 -1.05859 0
M  V30 19552 H 1843.88 5.16779 -2.79667 0
M  V30 19553 H 1845.4 5.74612 -2.06527 0
M  V30 19554 H 1846.81 4.28718 -3.80622 0
M  V30 19555 H 1845.21 3.94683 -4.52046 0
M  V30 19556 H 1846.28 2.59932 -4.09345 0
M  V30 19557 N 1847.63 1.24532 0.965897 0
M  V30 19558 C 1848.87 1.0877 1.71163 0
M  V30 19559 C 1849.2 -0.372297 1.90598 0
M  V30 19560 O 1848.48 -1.27503 1.46878 0
M  V30 19561 C 1848.76 1.83004 3.10131 0
M  V30 19562 C 1848.62 3.36765 2.98177 0
M  V30 19563 C 1849.93 1.60417 4.09822 0
M  V30 19564 H 1847.05 0.396528 0.621236 0
M  V30 19565 H 1849.7 1.53223 1.12351 0
M  V30 19566 H 1847.85 1.4522 3.60338 0
M  V30 19567 H 1849.52 3.84158 2.55382 0
M  V30 19568 H 1847.76 3.65053 2.34347 0
M  V30 19569 H 1848.43 3.83909 3.96633 0
M  V30 19570 H 1850.91 1.93289 3.68482 0
M  V30 19571 H 1849.78 2.14812 5.05121 0
M  V30 19572 H 1850.04 0.542843 4.38755 0
M  V30 19573 N 1849.1 -1.16685 1.05936 0
M  V30 19574 C 1850.05 -2.2301 0.66101 0
M  V30 19575 C 1851.05 -1.66324 -0.321334 0
M  V30 19576 O 1852.25 -1.7903 -0.186587 0
M  V30 19577 H 1848.63 -0.726112 0.195616 0
M  V30 19578 H 1850.6 -2.539 1.56772 0
M  V30 19579 C 1849.35 -3.47649 0.0596424 0
M  V30 19580 H 1848.67 -3.91578 0.806635 0
M  V30 19581 H 1850.11 -4.23611 -0.18161 0
M  V30 19582 C 1848.57 -3.14965 -1.19578 0
M  V30 19583 O 1849.1 -3.30434 -2.28421 0
M  V30 19584 N 1847.3 -2.69126 -1.09634 0
M  V30 19585 H 1846.85 -2.56738 -0.210599 0
M  V30 19586 H 1846.81 -2.4763 -1.93718 0
M  V30 19587 N 1850.58 -0.841432 -1.33258 0
M  V30 19588 C 1851.54 -0.281685 -2.27462 0
M  V30 19589 C 1852.54 0.551062 -1.51063 0
M  V30 19590 O 1853.73 0.364482 -1.70344 0
M  V30 19591 C 1850.87 0.602896 -3.35526 0
M  V30 19592 H 1852.06 -1.11298 -2.78483 0
M  V30 19593 H 1849.61 -0.614717 -1.43704 0
M  V30 19594 H 1850.35 1.45652 -2.89751 0
M  V30 19595 H 1850.13 0.00701634 -3.92099 0
M  V30 19596 H 1851.62 0.987735 -4.05751 0
M  V30 19597 N 1852.06 1.4581 -0.598108 0
M  V30 19598 C 1852.99 2.28611 0.164271 0
M  V30 19599 C 1854 1.39406 0.840827 0
M  V30 19600 O 1855.19 1.63867 0.707805 0
M  V30 19601 C 1852.29 3.14883 1.25306 0
M  V30 19602 C 1851.47 4.32308 0.66546 0
M  V30 19603 C 1850.53 4.99862 1.64392 0
M  V30 19604 O 1849.55 5.56963 1.17393 0
M  V30 19605 N 1850.75 4.98278 2.97825 0
M  V30 19606 H 1853.52 2.94681 -0.546181 0
M  V30 19607 H 1851.08 1.55893 -0.436933 0
M  V30 19608 H 1853.07 3.5694 1.90724 0
M  V30 19609 H 1851.64 2.50785 1.86616 0
M  V30 19610 H 1850.86 3.93848 -0.166567 0
M  V30 19611 H 1852.15 5.08171 0.252938 0
M  V30 19612 H 1851.55 4.53159 3.38619 0
M  V30 19613 H 1850.1 5.44228 3.58691 0
M  V30 19614 N 1853.54 0.336733 1.53961 0
M  V30 19615 C 1854.76 -0.26614 2.05685 0
M  V30 19616 C 1855.19 -1.43973 1.21051 0
M  V30 19617 O 1854.55 -1.79928 0.222652 0
M  V30 19618 C 1854.59 -0.66571 3.54402 0
M  V30 19619 O 1853.7 -1.76656 3.72648 0
M  V30 19620 H 1853.04 -0.0455655 0.662435 0
M  V30 19621 H 1855.57 0.488969 1.98671 0
M  V30 19622 H 1855.58 -0.944748 3.96911 0
M  V30 19623 H 1854.25 0.192589 4.15454 0
M  V30 19624 H 1852.83 -1.48531 3.42042 0
M  V30 19625 N 1855.02 -1.57465 0.0651956 0
M  V30 19626 C 1856.26 -1.93524 -0.606325 0
M  V30 19627 C 1856.59 -0.944947 -1.6966 0
M  V30 19628 O 1855.87 0.0268871 -1.94481 0
M  V30 19629 C 1856.15 -3.3989 -1.18941 0
M  V30 19630 C 1856.01 -4.49675 -0.106235 0
M  V30 19631 C 1857.32 -3.86935 -2.09689 0
M  V30 19632 H 1854.44 -0.703729 -0.218939 0
M  V30 19633 H 1857.09 -1.89556 0.12982 0
M  V30 19634 H 1855.24 -3.43402 -1.81679 0
M  V30 19635 H 1856.91 -4.58286 0.526483 0
M  V30 19636 H 1855.15 -4.30118 0.563985 0
M  V30 19637 H 1855.82 -5.49208 -0.554488 0
M  V30 19638 H 1858.3 -3.85387 -1.56895 0
M  V30 19639 H 1857.17 -4.89972 -2.47424 0
M  V30 19640 H 1857.43 -3.24496 -3.00258 0
M  V30 19641 N 1856.49 0.20831 -1.56217 0
M  V30 19642 C 1857.43 1.28196 -1.89996 0
M  V30 19643 C 1858.44 1.42381 -0.789394 0
M  V30 19644 O 1859.63 1.43043 -1.06776 0
M  V30 19645 C 1856.73 2.65588 -2.10514 0
M  V30 19646 C 1855.9 2.73181 -3.416 0
M  V30 19647 C 1854.96 3.91678 -3.5139 0
M  V30 19648 O 1853.99 3.79397 -4.24319 0
M  V30 19649 N 1855.19 5.06562 -2.83505 0
M  V30 19650 H 1857.95 0.995403 -2.82687 0
M  V30 19651 H 1855.51 0.398294 -1.56924 0
M  V30 19652 H 1857.51 3.43264 -2.14365 0
M  V30 19653 H 1856.08 2.86788 -1.24385 0
M  V30 19654 H 1855.3 1.81881 -3.49733 0
M  V30 19655 H 1856.58 2.75234 -4.27929 0
M  V30 19656 H 1855.98 5.19437 -2.24056 0
M  V30 19657 H 1854.54 5.82232 -2.93 0
M  V30 19658 O 1858.01 1.5758 0.353651 0
M  V30 19659 H 1858.7 1.65661 1.00379 0
M  V30 END ATOM
M  V30 BEGIN BOND
M  V30 END BOND
M  V30 END CTAB
M  END
$$$$
