drugbank_target|Q8N568 Serine/threonine-protein kinase DCLK2 (DB12010)
 OpenBabel12092121153D

  0  0  0     0  0            999 V3000
M  V30 BEGIN CTAB
M  V30 COUNTS 11744 11864 0 0 0
M  V30 BEGIN ATOM
M  V30 1 H -0.908 1.98254 -0.117106 0
M  V30 2 N 0 1.576 0 0
M  V30 3 C 0.933 2.03868 1.02534 0
M  V30 4 C 1.911 0.928543 1.3348 0
M  V30 5 O 3.095 1.19667 1.45644 0
M  V30 6 C 0.222 2.43627 2.35294 0
M  V30 7 C -0.732 3.65373 2.2001 0
M  V30 8 S 0.101 5.13292 1.52614 0
M  V30 9 C 1.257 5.56322 2.86805 0
M  V30 10 H 1.49 2.90518 0.631377 0
M  V30 11 H -0.977 1.52953 0.210867 0
M  V30 12 H 0.981 2.67203 3.11629 0
M  V30 13 H -0.358 1.57376 2.7183 0
M  V30 14 H -1.165 3.90944 3.18086 0
M  V30 15 H -1.563 3.418 1.51819 0
M  V30 16 H 0.729 5.58782 3.83104 0
M  V30 17 H 1.672 6.56266 2.65933 0
M  V30 18 H 2.08 4.83886 2.90714 0
M  V30 19 N 1.4781 -0.272755 1.55222 0
M  V30 20 C 2.4411 -1.32041 1.87344 0
M  V30 21 C 3.4411 -1.42342 0.74803 0
M  V30 22 O 4.6311 -1.41488 1.0162 0
M  V30 23 C 1.7631 -2.70173 2.07893 0
M  V30 24 H 2.9561 -1.04789 2.80997 0
M  V30 25 H 0.5091 -0.51083 1.47717 0
M  V30 26 H 1.2441 -3.02605 1.16622 0
M  V30 27 H 1.0291 -2.64082 2.89833 0
M  V30 28 H 2.5191 -3.45869 2.34017 0
M  V30 29 N 2.9562 -1.48159 -0.537278 0
M  V30 30 C 4.1812 -1.59707 -1.32319 0
M  V30 31 C 4.6062 -0.254859 -1.86365 0
M  V30 32 O 3.9642 0.772378 -1.64024 0
M  V30 33 C 4.0122 -2.6412 -2.45505 0
M  V30 34 O 3.1162 -2.20774 -3.48328 0
M  V30 35 H 2.4572 -0.535791 -0.392204 0
M  V30 36 H 4.9872 -1.94092 -0.647268 0
M  V30 37 H 4.9972 -2.85166 -2.91795 0
M  V30 38 H 3.6722 -3.61567 -2.05528 0
M  V30 39 H 2.2492 -2.09911 -3.08207 0
M  V30 40 N 4.4343 0.785586 -1.36625 0
M  V30 41 C 5.6623 1.57448 -1.3423 0
M  V30 42 C 6.0773 1.88649 0.0755653 0
M  V30 43 O 5.4343 1.50414 1.03354 0
M  V30 44 C 5.4853 2.89316 -2.16745 0
M  V30 45 O 5.2063 2.59459 -3.53005 0
M  V30 46 C 6.7073 3.83606 -2.22174 0
M  V30 47 H 3.9273 0.488226 -0.4603 0
M  V30 48 H 6.4713 0.974733 -1.79775 0
M  V30 49 H 4.6263 3.4575 -1.74745 0
M  V30 50 H 5.0403 3.43804 -3.96105 0
M  V30 51 H 6.5143 4.73181 -2.8426 0
M  V30 52 H 6.9913 4.21734 -1.22627 0
M  V30 53 H 7.5973 3.33104 -2.64427 0
M  V30 54 N 5.9124 1.20967 1.01018 0
M  V30 55 C 7.3284 0.965905 1.27053 0
M  V30 56 C 7.5284 -0.350785 1.98423 0
M  V30 57 O 6.5844 -1.07773 2.28344 0
M  V30 58 C 7.8974 2.15294 2.09926 0
M  V30 59 C 9.4454 2.19463 2.23171 0
M  V30 60 C 9.9204 3.3767 3.09424 0
M  V30 61 N 11.4114 3.37724 3.17012 0
M  V30 62 C 12.1464 4.25837 3.83993 0
M  V30 63 N 11.6424 5.24138 4.53047 0
M  V30 64 N 13.4354 4.1366 3.80581 0
M  V30 65 H 5.5864 2.0565 0.531194 0
M  V30 66 H 7.8494 0.90024 0.297106 0
M  V30 67 H 7.5554 3.10684 1.64828 0
M  V30 68 H 7.4294 2.13923 3.10672 0
M  V30 69 H 9.8164 1.24632 2.6749 0
M  V30 70 H 9.8974 2.2488 1.21912 0
M  V30 71 H 9.5414 4.32791 2.65808 0
M  V30 72 H 9.4714 3.29491 4.10784 0
M  V30 73 H 11.9624 2.6658 2.6785 0
M  V30 74 H 12.2754 5.87684 5.01844 0
M  V30 75 H 10.6204 5.28068 4.5185 0
M  V30 76 H 13.8114 3.36127 3.25785 0
M  V30 77 H 13.9844 4.82538 4.32505 0
M  V30 78 N 7.3905 -1.2043 1.01659 0
M  V30 79 C 8.6155 -1.94318 0.724942 0
M  V30 80 C 9.0405 -1.74266 -0.708034 0
M  V30 81 O 8.3985 -1.03694 -1.48719 0
M  V30 82 C 8.4465 -3.44486 1.06591 0
M  V30 83 O 7.5505 -4.12017 0.177599 0
M  V30 84 H 6.8915 -0.60708 0.26898 0
M  V30 85 H 9.4215 -1.52861 1.35995 0
M  V30 86 H 9.4315 -3.95106 1.01762 0
M  V30 87 H 8.1065 -3.58404 2.10997 0
M  V30 88 H 6.6835 -3.71821 0.283421 0
M  V30 89 N 8.8686 -0.792821 -1.36206 0
M  V30 90 C 10.1176 -0.363353 -1.984 0
M  V30 91 C 10.4306 1.07172 -1.63626 0
M  V30 92 O 11.6366 1.60362 -2.19081 0
M  V30 93 C 10.0926 -0.59872 -3.54885 0
M  V30 94 C 9.7006 -2.04543 -3.9858 0
M  V30 95 C 11.4446 -0.233926 -4.23855 0
M  V30 96 C 9.3516 -2.22727 -5.47856 0
M  V30 97 H 8.2816 -0.13212 -0.742334 0
M  V30 98 H 10.9326 -0.974935 -1.55458 0
M  V30 99 H 9.3146 0.0826222 -3.95914 0
M  V30 100 H 10.4886 -2.76345 -3.68741 0
M  V30 101 H 8.8036 -2.36879 -3.42458 0
M  V30 102 H 11.4006 -0.348027 -5.33566 0
M  V30 103 H 11.7436 0.818351 -4.08177 0
M  V30 104 H 12.2766 -0.868639 -3.882 0
M  V30 105 H 9.0156 -3.2635 -5.68486 0
M  V30 106 H 8.5356 -1.55434 -5.7931 0
M  V30 107 H 10.2146 -2.03607 -6.14128 0
M  V30 108 N 10.3467 1.47872 -0.545128 0
M  V30 109 C 11.2567 2.33633 0.212746 0
M  V30 110 C 12.2727 1.4744 0.923983 0
M  V30 111 O 13.4487 1.80393 0.895572 0
M  V30 112 C 10.5137 3.23884 1.23693 0
M  V30 113 C 9.5747 4.25961 0.534417 0
M  V30 114 C 8.8077 5.11899 1.5098 0
M  V30 115 O 9.0307 5.00077 2.7437 0
M  V30 116 O 7.9647 5.92831 1.0409 0
M  V30 117 H 11.7907 2.99714 -0.490416 0
M  V30 118 H 9.3757 1.46235 -0.305871 0
M  V30 119 H 11.2577 3.79666 1.82843 0
M  V30 120 H 9.9327 2.60446 1.92222 0
M  V30 121 H 8.8397 3.73972 -0.0979679 0
M  V30 122 H 10.1727 4.92079 -0.109213 0
M  V30 123 N 11.8248 0.280983 1.55075 0
M  V30 124 C 12.7548 -0.597469 2.25727 0
M  V30 125 C 13.7358 -1.15417 1.24952 0
M  V30 126 O 14.9208 -1.18722 1.53684 0
M  V30 127 C 12.0508 -1.7789 2.98283 0
M  V30 128 C 11.0048 -1.35347 4.06036 0
M  V30 129 C 10.3308 -2.61846 4.66198 0
M  V30 130 C 11.6308 -0.499354 5.19907 0
M  V30 131 H 13.3248 -0.00824265 2.99399 0
M  V30 132 H 10.8708 -0.0025244 1.44 0
M  V30 133 H 12.8238 -2.39937 3.46422 0
M  V30 134 H 11.5478 -2.39405 2.22155 0
M  V30 135 H 10.2068 -0.756156 3.58717 0
M  V30 136 H 9.8548 -3.21632 3.86732 0
M  V30 137 H 9.5548 -2.3409 5.38958 0
M  V30 138 H 11.0788 -3.24732 5.1709 0
M  V30 139 H 12.4928 -1.02498 5.64063 0
M  V30 140 H 10.8898 -0.316424 5.99265 0
M  V30 141 H 11.9598 0.480459 4.82514 0
M  V30 142 N 13.3029 -1.57598 0.00835791 0
M  V30 143 C 14.2129 -2.12385 -0.996487 0
M  V30 144 C 15.2289 -1.07108 -1.37127 0
M  V30 145 O 16.4049 -1.39055 -1.4569 0
M  V30 146 C 13.4699 -2.62314 -2.26699 0
M  V30 147 C 12.5309 -3.82225 -1.95456 0
M  V30 148 C 11.7639 -4.29763 -3.16449 0
M  V30 149 O 11.9869 -3.76584 -4.28416 0
M  V30 150 O 10.9209 -5.21832 -2.99958 0
M  V30 151 H 14.7469 -2.98479 -0.560725 0
M  V30 152 H 12.3319 -1.47903 -0.210987 0
M  V30 153 H 14.2139 -2.94589 -3.01322 0
M  V30 154 H 12.8889 -1.79313 -2.69497 0
M  V30 155 H 11.7959 -3.54909 -1.18282 0
M  V30 156 H 13.1289 -4.66324 -1.57489 0
M  V30 157 N 14.781 0.264519 -1.55364 0
M  V30 158 C 15.731 1.32966 -1.85214 0
M  V30 159 C 16.715 1.44306 -0.711653 0
M  V30 160 O 17.907 1.47844 -0.973192 0
M  V30 161 C 15.036 2.68839 -2.13495 0
M  V30 162 C 14.122 2.61575 -3.33825 0
M  V30 163 N 14.513 2.23933 -4.53528 0
M  V30 164 C 12.811 2.92621 -3.36584 0
M  V30 165 C 13.512 2.26868 -5.35636 0
M  V30 166 N 12.488 2.65677 -4.74254 0
M  V30 167 H 16.29 1.02884 -2.75304 0
M  V30 168 H 13.804 0.473157 -1.55354 0
M  V30 169 H 15.801 3.45685 -2.33039 0
M  V30 170 H 14.461 2.99802 -1.24694 0
M  V30 171 H 15.472 1.95769 -4.79474 0
M  V30 172 H 12.149 3.2824 -2.58002 0
M  V30 173 H 13.539 2.00254 -6.41364 0
M  V30 174 N 16.2591 1.48442 0.529413 0
M  V30 175 C 17.5061 1.56488 1.28521 0
M  V30 176 C 17.8341 0.239042 1.93025 0
M  V30 177 O 17.0891 -0.770713 1.79885 0
M  V30 178 C 17.3881 2.6523 2.39558 0
M  V30 179 C 17.0541 4.07648 1.92702 0
M  V30 180 C 15.7161 4.46411 1.79641 0
M  V30 181 C 18.0681 4.96896 1.573 0
M  V30 182 C 15.3961 5.72226 1.29514 0
M  V30 183 C 17.7481 6.23202 1.08636 0
M  V30 184 C 16.4121 6.60821 0.941919 0
M  V30 185 H 15.6821 0.572631 0.470292 0
M  V30 186 H 18.3291 1.82161 0.59072 0
M  V30 187 H 16.6341 2.33419 3.14679 0
M  V30 188 H 18.3311 2.68671 2.97686 0
M  V30 189 H 14.9211 3.77036 2.03819 0
M  V30 190 H 19.1051 4.67626 1.66251 0
M  V30 191 H 14.3611 6.00097 1.17019 0
M  V30 192 H 18.5351 6.91753 0.803136 0
M  V30 193 H 16.1621 7.58198 0.5513 0
M  V30 194 N 17.7372 -0.778329 1.37039 0
M  V30 195 C 18.6472 -1.92253 1.34446 0
M  V30 196 C 19.6632 -1.72267 0.244991 0
M  V30 197 O 20.8392 -1.95615 0.479258 0
M  V30 198 C 17.9042 -3.27282 1.144 0
M  V30 199 C 16.9652 -3.59969 2.33925 0
M  V30 200 C 16.1982 -4.88555 2.14825 0
M  V30 201 O 16.4212 -5.59113 1.12912 0
M  V30 202 O 15.3552 -5.20153 3.02861 0
M  V30 203 H 19.1812 -1.97392 2.30803 0
M  V30 204 H 16.7662 -0.920154 1.17701 0
M  V30 205 H 18.6482 -4.08062 1.05182 0
M  V30 206 H 17.3232 -3.23011 0.211124 0
M  V30 207 H 16.2302 -2.7945 2.48714 0
M  V30 208 H 17.5632 -3.68976 3.25757 0
M  V30 209 N 19.2153 -1.21501 -1.00376 0
M  V30 210 C 20.1253 -0.991447 -2.12621 0
M  V30 211 C 21.1413 0.0568446 -1.73907 0
M  V30 212 O 22.3173 -0.13348 -2.00957 0
M  V30 213 C 19.3823 -0.560312 -3.42142 0
M  V30 214 C 18.4433 -1.68096 -3.95022 0
M  V30 215 C 17.6763 -1.2703 -5.18362 0
M  V30 216 O 17.8993 -0.144438 -5.70217 0
M  V30 217 O 16.8333 -2.08269 -5.64719 0
M  V30 218 H 20.6593 -1.93158 -2.34358 0
M  V30 219 H 18.2443 -0.999999 -1.10997 0
M  V30 220 H 20.1263 -0.329724 -4.20108 0
M  V30 221 H 18.8013 0.351089 -3.2179 0
M  V30 222 H 17.7083 -1.96597 -3.18278 0
M  V30 223 H 19.0413 -2.56983 -4.19786 0
M  V30 224 N 20.6934 1.19889 -1.02296 0
M  V30 225 C 22.1094 1.41462 -0.738954 0
M  V30 226 C 22.3094 1.89721 0.678846 0
M  V30 227 O 21.3654 2.07016 1.4457 0
M  V30 228 C 22.6784 2.43083 -1.77005 0
M  V30 229 C 24.2264 2.5684 -1.78892 0
M  V30 230 C 24.7014 3.61709 -2.80945 0
M  V30 231 N 26.1924 3.69199 -2.79725 0
M  V30 232 C 26.9274 4.50019 -3.55345 0
M  V30 233 N 26.4234 5.34592 -4.40662 0
M  V30 234 N 28.2164 4.44612 -3.43914 0
M  V30 235 H 20.3674 0.868827 -1.93817 0
M  V30 236 H 22.6304 0.44399 -0.837602 0
M  V30 237 H 22.3364 2.14636 -2.78612 0
M  V30 238 H 22.2104 3.4217 -1.58744 0
M  V30 239 H 24.5974 2.84614 -0.779674 0
M  V30 240 H 24.6784 1.57927 -2.01228 0
M  V30 241 H 24.3224 3.34678 -3.82038 0
M  V30 242 H 24.2524 4.60259 -2.5587 0
M  V30 243 H 26.7434 3.08794 -2.17842 0
M  V30 244 H 27.0564 5.93363 -4.95116 0
M  V30 245 H 25.4014 5.34073 -4.44737 0
M  V30 246 H 28.5924 3.7758 -2.76679 0
M  V30 247 H 28.7654 5.0736 -4.031 0
M  V30 248 N 22.1715 0.800033 1.35784 0
M  V30 249 C 23.4485 0.30088 1.93272 0
M  V30 250 C 23.8285 -1.20857 1.73081 0
M  V30 251 O 23.1765 -2.00502 1.09596 0
M  V30 252 C 23.3865 0.70511 3.41803 0
M  V30 253 C 24.7345 0.690871 4.18942 0
M  V30 254 O 25.7585 0.646244 3.50289 0
M  V30 255 O 24.6175 0.74332 5.41421 0
M  V30 256 H 21.7115 0.0771605 0.823393 0
M  V30 257 H 24.2575 0.88329 1.449 0
M  V30 258 H 23.0295 1.74571 3.50201 0
M  V30 259 H 22.6525 0.0971541 3.97481 0
M  V30 260 N 23.6496 -1.47581 0.552962 0
M  V30 261 C 24.5966 -2.29957 -0.197108 0
M  V30 262 C 25.5666 -1.38799 -0.912359 0
M  V30 263 O 26.7516 -1.67761 -0.908888 0
M  V30 264 C 23.8916 -3.22672 -1.22379 0
M  V30 265 C 23.0046 -4.28919 -0.515038 0
M  V30 266 C 22.1396 -5.0879 -1.52664 0
M  V30 267 C 21.1786 -6.06815 -0.802631 0
M  V30 268 N 20.3156 -6.7966 -1.76086 0
M  V30 269 H 25.1556 -2.93578 0.511486 0
M  V30 270 H 22.6926 -1.4471 0.264067 0
M  V30 271 H 24.6506 -3.74845 -1.83159 0
M  V30 272 H 23.2806 -2.60925 -1.90047 0
M  V30 273 H 22.3326 -3.79835 0.207192 0
M  V30 274 H 23.6446 -4.98773 0.0523425 0
M  V30 275 H 22.7986 -5.65091 -2.20809 0
M  V30 276 H 21.5376 -4.38828 -2.12794 0
M  V30 277 H 20.5426 -5.49695 -0.107238 0
M  V30 278 H 21.7676 -6.78784 -0.207135 0
M  V30 279 H 19.7136 -6.12432 -2.35081 0
M  V30 280 H 19.6306 -7.45669 -1.24552 0
M  V30 281 H 20.8986 -7.40538 -2.43359 0
M  V30 282 N 25.1277 -0.289203 -1.54924 0
M  V30 283 C 26.5437 0.0645403 -1.59469 0
M  V30 284 C 26.7437 1.53419 -1.30632 0
M  V30 285 O 25.7997 2.2852 -1.074 0
M  V30 286 C 27.1127 -0.32278 -2.98963 0
M  V30 287 C 28.6607 -0.270564 -3.11828 0
M  V30 288 C 29.1357 -0.632532 -4.53611 0
M  V30 289 N 30.6267 -0.584617 -4.59496 0
M  V30 290 C 31.3617 -0.837314 -5.67254 0
M  V30 291 N 30.8577 -1.15536 -6.83098 0
M  V30 292 N 32.6507 -0.765166 -5.56868 0
M  V30 293 H 24.8017 -1.24714 -1.71931 0
M  V30 294 H 27.0647 -0.504809 -0.802416 0
M  V30 295 H 26.7707 -1.34541 -3.24948 0
M  V30 296 H 26.6447 0.32944 -3.75759 0
M  V30 297 H 29.0317 0.742805 -2.85598 0
M  V30 298 H 29.1127 -0.957242 -2.37214 0
M  V30 299 H 28.7567 -1.64365 -4.80569 0
M  V30 300 H 28.6867 0.07609 -5.26545 0
M  V30 301 H 31.1777 -0.349248 -3.76283 0
M  V30 302 H 31.4907 -1.33447 -7.61191 0
M  V30 303 H 29.8357 -1.19328 -6.84679 0
M  V30 304 H 33.0267 -0.516432 -4.65243 0
M  V30 305 H 33.1997 -0.965477 -6.40767 0
M  V30 306 N 26.6058 1.57591 -0.0167156 0
M  V30 307 C 28.0168 1.79201 0.523834 0
M  V30 308 C 28.3678 0.925796 1.72984 0
M  V30 309 O 27.4928 0.132792 2.15992 0
M  V30 310 C 28.0878 3.25 0.957091 0
M  V30 311 C 26.6468 3.47648 1.44283 0
M  V30 312 C 25.7938 2.74374 0.401757 0
M  V30 313 H 28.7448 1.56831 -0.242816 0
M  V30 314 H 28.7658 3.34031 1.82219 0
M  V30 315 H 28.2778 3.88019 0.0791415 0
M  V30 316 H 26.3788 2.89866 2.34113 0
M  V30 317 H 26.4918 4.56352 1.45877 0
M  V30 318 H 24.8558 2.39485 0.867121 0
M  V30 319 H 25.6388 3.40102 -0.467513 0
M  V30 320 N 28.0839 -0.256276 1.55502 0
M  V30 321 C 29.4999 -0.604325 1.47716 0
M  V30 322 C 29.6999 -1.88763 0.705039 0
M  V30 323 O 28.7559 -2.51445 0.230613 0
M  V30 324 C 30.0689 -0.715756 2.92057 0
M  V30 325 C 31.6169 -0.808706 3.02372 0
M  V30 326 C 32.0919 -0.951777 4.48001 0
M  V30 327 N 33.5829 -1.01688 4.519 0
M  V30 328 C 34.3179 -1.14668 5.61817 0
M  V30 329 N 33.8139 -1.24261 6.81565 0
M  V30 330 N 35.6069 -1.1791 5.49594 0
M  V30 331 H 27.7579 0.586291 2.04148 0
M  V30 332 H 30.0209 0.201015 0.926443 0
M  V30 333 H 29.7269 0.157027 3.51349 0
M  V30 334 H 29.6009 -1.59071 3.42018 0
M  V30 335 H 31.9879 -1.67195 2.43166 0
M  V30 336 H 32.0689 0.0912063 2.55637 0
M  V30 337 H 31.7129 -0.0931291 5.07815 0
M  V30 338 H 31.6429 -1.86659 4.92408 0
M  V30 339 H 34.1339 -0.954468 3.65648 0
M  V30 340 H 34.4469 -1.34046 7.61086 0
M  V30 341 H 32.7919 -1.21236 6.84344 0
M  V30 342 H 35.9829 -1.10057 4.54978 0
M  V30 343 H 36.1559 -1.27681 6.35296 0
M  V30 344 N 29.562 -1.4872 -0.521534 0
M  V30 345 C 30.973 -1.50607 -1.10337 0
M  V30 346 C 31.324 -0.280612 -1.94183 0
M  V30 347 O 30.449 0.611507 -2.0758 0
M  V30 348 C 31.044 -2.72903 -2.00772 0
M  V30 349 C 29.603 -2.77634 -2.54158 0
M  V30 350 C 28.75 -2.44241 -1.31307 0
M  V30 351 H 31.701 -1.55714 -0.306388 0
M  V30 352 H 31.722 -2.519 -2.85178 0
M  V30 353 H 31.234 -3.62077 -1.39721 0
M  V30 354 H 29.335 -1.92689 -3.18907 0
M  V30 355 H 29.448 -3.79283 -2.92714 0
M  V30 356 H 27.812 -1.95577 -1.63161 0
M  V30 357 H 28.595 -3.35666 -0.719943 0
M  V30 358 N 31.0401 0.771051 -1.3745 0
M  V30 359 C 32.2881 1.52661 -1.32435 0
M  V30 360 C 32.6091 1.9479 0.0905024 0
M  V30 361 O 31.8791 1.66348 1.03466 0
M  V30 362 H 30.4591 0.566218 -0.487244 0
M  V30 363 H 33.1211 0.917636 -1.71946 0
M  V30 364 H 32.2171 2.42568 -1.96385 0
M  V30 365 N 32.5182 1.22032 0.997298 0
M  V30 366 C 33.7432 1.06921 1.77715 0
M  V30 367 C 34.1682 -0.376226 1.84299 0
M  V30 368 O 33.5262 -1.27165 1.29223 0
M  V30 369 C 33.5742 1.67996 3.19076 0
M  V30 370 O 32.6782 0.930653 4.01762 0
M  V30 371 H 32.0192 0.375814 0.547412 0
M  V30 372 H 34.5492 1.61737 1.25309 0
M  V30 373 H 34.5592 1.72538 3.69723 0
M  V30 374 H 33.2342 2.73182 3.13599 0
M  V30 375 H 31.8112 0.960917 3.60307 0
M  V30 376 N 33.9963 -1.19345 1.0293 0
M  V30 377 C 35.4123 -1.41069 0.746446 0
M  V30 378 C 35.6123 -1.90078 -0.668776 0
M  V30 379 O 34.6683 -2.0778 -1.4347 0
M  V30 380 C 35.9813 -2.42141 1.78292 0
M  V30 381 C 37.5293 -2.55887 1.80252 0
M  V30 382 C 38.0043 -3.60214 2.8286 0
M  V30 383 N 39.4953 -3.67711 2.81679 0
M  V30 384 C 40.2303 -4.48128 3.57727 0
M  V30 385 N 39.7263 -5.32248 4.43491 0
M  V30 386 N 41.5193 -4.42782 3.46267 0
M  V30 387 H 33.6703 -0.858536 1.94275 0
M  V30 388 H 35.9333 -0.439541 0.839945 0
M  V30 389 H 35.6393 -2.13155 2.79746 0
M  V30 390 H 35.5133 -3.41323 1.60557 0
M  V30 391 H 37.9003 -2.84196 0.794757 0
M  V30 392 H 37.9813 -1.56858 2.02062 0
M  V30 393 H 37.6253 -3.32647 3.83807 0
M  V30 394 H 37.5553 -4.58895 2.58307 0
M  V30 395 H 40.0463 -3.07634 2.19476 0
M  V30 396 H 40.3593 -5.90729 4.98256 0
M  V30 397 H 38.7043 -5.31707 4.47564 0
M  V30 398 H 41.8953 -3.76107 2.78677 0
M  V30 399 H 42.0683 -5.05215 4.05785 0
M  V30 400 N 35.4744 -0.807222 -1.35358 0
M  V30 401 C 36.8904 -0.491038 -1.51858 0
M  V30 402 C 37.0904 0.987648 -1.75635 0
M  V30 403 O 36.1464 1.77265 -1.79815 0
M  V30 404 C 37.4594 -1.33695 -2.69344 0
M  V30 405 C 39.0074 -1.33246 -2.83222 0
M  V30 406 C 39.4824 -2.1625 -4.03733 0
M  V30 407 N 40.9734 -2.1379 -4.10911 0
M  V30 408 C 41.7084 -2.74772 -5.03277 0
M  V30 409 N 41.2044 -3.44684 -6.0097 0
M  V30 410 N 42.9974 -2.6441 -4.96028 0
M  V30 411 H 35.1484 -1.76485 -1.18181 0
M  V30 412 H 37.4114 -0.751199 -0.578276 0
M  V30 413 H 37.1174 -2.38634 -2.58354 0
M  V30 414 H 36.9914 -0.990618 -3.6396 0
M  V30 415 H 39.3784 -0.290911 -2.93663 0
M  V30 416 H 39.4594 -1.71866 -1.89461 0
M  V30 417 H 39.1034 -3.20445 -3.94052 0
M  V30 418 H 39.0334 -1.74989 -4.96675 0
M  V30 419 H 41.5244 -1.62923 -3.40976 0
M  V30 420 H 41.8374 -3.88501 -6.68047 0
M  V30 421 H 40.1824 -3.48788 -6.01142 0
M  V30 422 H 43.3734 -2.0938 -4.18662 0
M  V30 423 H 43.5464 -3.12225 -5.6782 0
M  V30 424 N 36.9525 1.47285 -0.560781 0
M  V30 425 C 38.2005 2.02064 -0.0379868 0
M  V30 426 C 38.5215 1.43711 1.31803 0
M  V30 427 O 37.7915 0.61362 1.86042 0
M  V30 428 H 36.3715 0.746918 -0.0110531 0
M  V30 429 H 39.0335 1.80648 -0.731598 0
M  V30 430 H 38.1295 3.12064 0.0474463 0
M  V30 431 N 38.4306 0.297415 1.54768 0
M  V30 432 C 39.3936 -0.567375 2.22066 0
M  V30 433 C 40.3936 -1.06409 1.20556 0
M  V30 434 O 41.5836 -0.960691 1.45315 0
M  V30 435 C 38.7156 -1.78517 2.90421 0
M  V30 436 H 39.9086 0.0205534 2.99893 0
M  V30 437 H 37.4616 0.0482163 1.56226 0
M  V30 438 H 38.1966 -2.41303 2.16664 0
M  V30 439 H 37.9816 -1.43669 3.64831 0
M  V30 440 H 39.4716 -2.39964 3.41771 0
M  V30 441 N 39.9087 -1.5758 0.0250728 0
M  V30 442 C 41.3197 -1.79476 -0.514323 0
M  V30 443 C 41.6707 -0.934956 -1.72491 0
M  V30 444 O 40.7957 -0.144245 -2.15919 0
M  V30 445 C 41.3907 -3.25503 -0.939842 0
M  V30 446 C 39.9497 -3.48408 -1.42438 0
M  V30 447 C 39.0967 -2.74583 -0.387201 0
M  V30 448 H 42.0477 -1.567 0.25113 0
M  V30 449 H 42.0687 -3.34992 -1.80445 0
M  V30 450 H 41.5807 -3.88056 -0.0585628 0
M  V30 451 H 39.6817 -2.91103 -2.32572 0
M  V30 452 H 39.7947 -4.57119 -1.43455 0
M  V30 453 H 38.1587 -2.39942 -0.854409 0
M  V30 454 H 38.9417 -3.39849 0.485543 0
M  V30 455 N 41.3868 0.248026 -1.55636 0
M  V30 456 C 42.6118 0.998028 -1.81808 0
M  V30 457 C 43.0368 1.78207 -0.601979 0
M  V30 458 O 42.3948 1.75653 0.448961 0
M  V30 459 C 42.4428 1.9125 -3.05705 0
M  V30 460 O 41.5468 3.00406 -2.82542 0
M  V30 461 H 40.8878 0.284045 -0.600179 0
M  V30 462 H 43.4178 0.269357 -2.02819 0
M  V30 463 H 43.4278 2.32737 -3.35108 0
M  V30 464 H 42.1028 1.33602 -3.93857 0
M  V30 465 H 40.6798 2.63056 -2.64303 0
M  V30 466 N 42.8649 1.48995 0.513639 0
M  V30 467 C 44.0899 1.61792 1.29762 0
M  V30 468 C 44.5149 0.284475 1.85936 0
M  V30 469 O 43.8729 -0.746185 1.65232 0
M  V30 470 C 43.9209 2.67993 2.41272 0
M  V30 471 O 43.0249 2.26287 3.44772 0
M  V30 472 H 42.3659 0.541963 0.38363 0
M  V30 473 H 44.8959 1.95097 0.616307 0
M  V30 474 H 44.9059 2.89772 2.87221 0
M  V30 475 H 43.5809 3.64791 1.9975 0
M  V30 476 H 42.1579 2.14788 3.04829 0
M  V30 477 N 44.343 -0.763751 1.37857 0
M  V30 478 C 45.568 -1.55805 1.36893 0
M  V30 479 C 45.993 -1.88054 -0.0416135 0
M  V30 480 O 45.351 -1.49825 -1.02089 0
M  V30 481 C 45.399 -2.84012 2.22192 0
M  V30 482 O 44.503 -3.78732 1.63204 0
M  V30 483 H 43.844 -0.471638 0.46739 0
M  V30 484 H 46.374 -0.944657 1.81487 0
M  V30 485 H 46.384 -3.33037 2.35691 0
M  V30 486 H 45.059 -2.59869 3.24716 0
M  V30 487 H 43.636 -3.37402 1.58791 0
M  V30 488 N 45.8211 -1.22559 -0.990812 0
M  V30 489 C 47.0691 -1.04933 -1.72724 0
M  V30 490 C 47.3901 0.416158 -1.90508 0
M  V30 491 O 46.6601 1.29918 -1.46622 0
M  V30 492 H 45.2401 -0.385296 -0.639965 0
M  V30 493 H 47.9021 -1.54105 -1.19322 0
M  V30 494 H 46.9981 -1.52886 -2.72089 0
M  V30 495 N 47.2992 1.18797 -1.03562 0
M  V30 496 C 48.5472 1.88278 -0.734569 0
M  V30 497 C 48.8682 1.8043 0.739586 0
M  V30 498 O 48.1382 1.21925 1.53333 0
M  V30 499 H 46.7182 0.696991 -0.268725 0
M  V30 500 H 49.3802 1.44192 -1.31129 0
M  V30 501 H 48.4762 2.94443 -1.03489 0
M  V30 502 N 48.7773 0.814389 1.34928 0
M  V30 503 C 50.0023 0.410097 2.03305 0
M  V30 504 C 50.4273 -0.973464 1.60951 0
M  V30 505 O 49.7853 -1.63185 0.789964 0
M  V30 506 C 49.8333 0.51049 3.56968 0
M  V30 507 O 48.9373 -0.473035 4.09678 0
M  V30 508 H 48.2783 0.170088 0.641846 0
M  V30 509 H 50.8083 1.10244 1.72358 0
M  V30 510 H 50.8183 0.383135 4.06197 0
M  V30 511 H 49.4933 1.51963 3.87144 0
M  V30 512 H 48.0703 -0.305272 3.71648 0
M  V30 513 N 50.2554 -1.46986 0.568584 0
M  V30 514 C 51.4804 -2.07335 0.0520528 0
M  V30 515 C 51.9054 -1.41675 -1.23733 0
M  V30 516 O 51.2634 -0.495623 -1.74394 0
M  V30 517 C 51.3114 -3.60417 -0.11501 0
M  V30 518 O 50.4154 -3.95309 -1.17492 0
M  V30 519 H 49.7564 -0.661597 0.0564385 0
M  V30 520 H 52.2864 -1.88837 0.787507 0
M  V30 521 H 52.2964 -4.06698 -0.325644 0
M  V30 522 H 50.9714 -4.07601 0.826675 0
M  V30 523 H 49.5484 -3.60757 -0.943869 0
M  V30 524 N 51.7335 -0.305618 -1.54608 0
M  V30 525 C 52.9585 0.307562 -2.05107 0
M  V30 526 C 53.3835 1.46385 -1.18123 0
M  V30 527 O 52.7415 1.8034 -0.186324 0
M  V30 528 C 52.7895 0.73704 -3.52987 0
M  V30 529 O 51.8935 1.84134 -3.6901 0
M  V30 530 H 51.2345 0.0589143 -0.661381 0
M  V30 531 H 53.7645 -0.448807 -1.99617 0
M  V30 532 H 53.7745 1.02459 -3.94925 0
M  V30 533 H 52.4495 -0.108773 -4.15758 0
M  V30 534 H 51.0265 1.55398 -3.38978 0
M  V30 535 N 53.2116 1.57565 -0.0334293 0
M  V30 536 C 54.4366 1.96689 0.657895 0
M  V30 537 C 54.8616 0.910057 1.64619 0
M  V30 538 O 54.2196 -0.128598 1.80843 0
M  V30 539 C 54.2676 3.34905 1.33683 0
M  V30 540 O 53.3716 3.31574 2.45219 0
M  V30 541 H 52.7126 0.641205 0.172489 0
M  V30 542 H 55.2426 2.04372 -0.0965621 0
M  V30 543 H 55.2526 3.71234 1.69262 0
M  V30 544 H 53.9276 4.11366 0.612411 0
M  V30 545 H 52.5046 3.06968 2.11719 0
M  V30 546 N 54.6897 -0.239769 1.55765 0
M  V30 547 C 55.9377 -0.964892 1.77579 0
M  V30 548 C 56.2587 -1.85582 0.598699 0
M  V30 549 O 55.5287 -1.92075 -0.385226 0
M  V30 550 H 54.1087 -0.359265 0.654933 0
M  V30 551 H 56.7707 -0.256001 1.93211 0
M  V30 552 H 55.8667 -1.58243 2.69009 0
M  V30 553 N 56.1678 -1.49265 -0.50573 0
M  V30 554 C 57.5788 -1.51769 -1.08734 0
M  V30 555 C 57.9298 -0.301192 -1.93874 0
M  V30 556 O 57.0548 0.589456 -2.08217 0
M  V30 557 C 57.6498 -2.75017 -1.97867 0
M  V30 558 C 56.2088 -2.80314 -2.51199 0
M  V30 559 C 55.3558 -2.4562 -1.28709 0
M  V30 560 H 58.3068 -1.56031 -0.289855 0
M  V30 561 H 58.3278 -2.5491 -2.82491 0
M  V30 562 H 57.8398 -3.63539 -1.35873 0
M  V30 563 H 55.9408 -1.96061 -3.16845 0
M  V30 564 H 56.0538 -3.82366 -2.88675 0
M  V30 565 H 54.4178 -1.97297 -1.61078 0
M  V30 566 H 55.2008 -3.36411 -0.6843 0
M  V30 567 N 57.6459 0.756429 -1.3826 0
M  V30 568 C 58.5929 1.87011 -1.35261 0
M  V30 569 C 59.5629 1.64695 -0.215616 0
M  V30 570 O 60.7479 1.864 -0.407399 0
M  V30 571 C 57.8879 3.24275 -1.18068 0
M  V30 572 C 57.0009 3.58442 -2.41129 0
M  V30 573 C 56.1359 4.84994 -2.16689 0
M  V30 574 C 55.1749 5.11939 -3.35537 0
M  V30 575 N 54.3119 6.29685 -3.10549 0
M  V30 576 H 59.1519 1.8891 -2.30472 0
M  V30 577 H 56.6889 0.923373 -1.14509 0
M  V30 578 H 58.6469 4.03479 -1.06116 0
M  V30 579 H 57.2769 3.21711 -0.264973 0
M  V30 580 H 56.3289 2.74103 -2.63764 0
M  V30 581 H 57.6409 3.74283 -3.29717 0
M  V30 582 H 56.7949 5.72135 -2.01857 0
M  V30 583 H 55.5339 4.71286 -1.25462 0
M  V30 584 H 54.5389 4.23268 -3.50891 0
M  V30 585 H 55.7639 5.27546 -4.27635 0
M  V30 586 H 53.7099 6.17306 -2.21967 0
M  V30 587 H 53.6269 6.46014 -3.92686 0
M  V30 588 H 54.8949 7.19722 -2.99367 0
M  V30 589 N 59.124 1.23083 0.984299 0
M  V30 590 C 60.372 1.05848 1.72165 0
M  V30 591 C 60.693 -0.406049 1.90726 0
M  V30 592 O 59.963 -1.29139 1.47309 0
M  V30 593 H 58.543 0.388685 0.637913 0
M  V30 594 H 61.205 1.54736 1.18503 0
M  V30 595 H 60.301 1.54327 2.71274 0
M  V30 596 N 60.6021 -1.18246 1.0419 0
M  V30 597 C 61.5501 -2.23968 0.627792 0
M  V30 598 C 62.5441 -1.65828 -0.346019 0
M  V30 599 O 63.7501 -1.78733 -0.213175 0
M  V30 600 H 60.1251 -0.728939 0.184802 0
M  V30 601 H 62.0961 -2.56202 1.52981 0
M  V30 602 C 60.8451 -3.47699 0.00796591 0
M  V30 603 H 60.1681 -3.92734 0.748347 0
M  V30 604 H 61.6081 -4.23294 -0.24455 0
M  V30 605 C 60.0671 -3.13153 -1.24246 0
M  V30 606 O 60.5971 -3.27003 -2.33307 0
M  V30 607 N 58.8031 -2.67467 -1.13622 0
M  V30 608 H 58.3501 -2.56396 -0.248734 0
M  V30 609 H 58.3081 -2.44724 -1.97377 0
M  V30 610 N 62.0802 -0.821533 -1.34494 0
M  V30 611 C 63.3282 -0.408139 -1.97936 0
M  V30 612 C 63.6492 1.03193 -1.65457 0
M  V30 613 O 62.9192 1.71622 -0.944595 0
M  V30 614 H 61.4992 -0.147928 -0.732206 0
M  V30 615 H 64.1612 -1.05067 -1.64155 0
M  V30 616 H 63.2572 -0.52601 -3.07635 0
M  V30 617 N 63.5583 1.46682 -0.576371 0
M  V30 618 C 64.4883 2.33028 0.148397 0
M  V30 619 C 65.4693 1.44961 0.889956 0
M  V30 620 O 66.6543 1.73789 0.866662 0
M  V30 621 C 63.7843 3.27117 1.1667 0
M  V30 622 C 62.7383 4.24575 0.540386 0
M  V30 623 C 62.0643 5.08126 1.6647 0
M  V30 624 C 63.3643 5.19722 -0.518331 0
M  V30 625 H 65.0583 2.93875 -0.572509 0
M  V30 626 H 62.6043 1.41315 -0.276768 0
M  V30 627 H 64.5573 3.86374 1.68204 0
M  V30 628 H 63.2813 2.64364 1.9178 0
M  V30 629 H 61.9403 3.66571 0.0461769 0
M  V30 630 H 61.5883 4.41762 2.40531 0
M  V30 631 H 61.2883 5.74122 1.25131 0
M  V30 632 H 62.8123 5.70246 2.18293 0
M  V30 633 H 64.2263 5.73232 -0.0883058 0
M  V30 634 H 62.6233 5.94026 -0.851679 0
M  V30 635 H 63.6933 4.64037 -1.40703 0
M  V30 636 N 65.0364 0.313813 1.54444 0
M  V30 637 C 66.2854 -0.292519 1.99568 0
M  V30 638 C 66.5984 -1.54011 1.20582 0
M  V30 639 O 67.8044 -2.22183 1.56035 0
M  V30 640 C 66.2604 -0.571752 3.55329 0
M  V30 641 C 65.8684 0.658229 4.43138 0
M  V30 642 C 67.6124 -1.13857 4.08946 0
M  V30 643 C 65.5194 0.351439 5.90355 0
M  V30 644 H 64.4494 -0.113079 0.745472 0
M  V30 645 H 67.1004 0.424518 1.78522 0
M  V30 646 H 65.4824 -1.34872 3.72325 0
M  V30 647 H 66.6564 1.43403 4.37918 0
M  V30 648 H 64.9714 1.14458 4.0036 0
M  V30 649 H 67.5684 -1.38257 5.16516 0
M  V30 650 H 67.9114 -2.08489 3.6033 0
M  V30 651 H 68.4444 -0.423015 3.95544 0
M  V30 652 H 65.1834 1.26667 6.43145 0
M  V30 653 H 64.7034 -0.386842 5.98551 0
M  V30 654 H 66.3824 -0.0423134 6.46986 0
M  V30 655 N 66.5145 -1.57545 0.0417849 0
M  V30 656 C 67.9255 -1.80011 -0.495259 0
M  V30 657 C 68.2765 -0.953199 -1.71489 0
M  V30 658 O 67.4015 -0.167138 -2.15754 0
M  V30 659 C 67.9965 -3.26482 -0.905265 0
M  V30 660 C 66.5555 -3.499 -1.38734 0
M  V30 661 C 65.7025 -2.74979 -0.358056 0
M  V30 662 H 68.6535 -1.56425 0.267736 0
M  V30 663 H 68.6745 -3.36887 -1.76882 0
M  V30 664 H 68.1865 -3.88096 -0.017401 0
M  V30 665 H 66.2875 -2.93553 -2.29471 0
M  V30 666 H 66.4005 -4.58615 -1.38598 0
M  V30 667 H 64.7645 -2.40834 -0.828912 0
M  V30 668 H 65.5475 -3.39315 0.521561 0
M  V30 669 N 67.9926 0.231505 -1.5589 0
M  V30 670 C 69.2176 0.978689 -1.82856 0
M  V30 671 C 69.6426 1.77559 -0.620846 0
M  V30 672 O 69.0006 1.76119 0.430305 0
M  V30 673 C 69.0486 1.87997 -3.07716 0
M  V30 674 O 68.1526 2.97393 -2.85712 0
M  V30 675 H 67.4936 0.277663 -0.603158 0
M  V30 676 H 70.0236 0.24783 -2.03093 0
M  V30 677 H 70.0336 2.2917 -3.37558 0
M  V30 678 H 68.7086 1.29417 -3.95252 0
M  V30 679 H 67.2856 2.60238 -2.67078 0
M  V30 680 N 69.4707 1.49531 0.497807 0
M  V30 681 C 70.8817 1.52344 1.07927 0
M  V30 682 C 71.2327 0.311469 1.93712 0
M  V30 683 O 70.3577 -0.578405 2.08527 0
M  V30 684 C 70.9527 2.76062 1.96405 0
M  V30 685 C 69.5117 2.81643 2.49709 0
M  V30 686 C 68.6587 2.46299 1.27404 0
M  V30 687 H 71.6097 1.56182 0.281576 0
M  V30 688 H 71.6307 2.56405 2.81135 0
M  V30 689 H 71.1427 3.64254 1.33943 0
M  V30 690 H 69.2437 1.97739 3.15801 0
M  V30 691 H 69.3567 3.83891 2.86643 0
M  V30 692 H 67.7207 1.98148 1.60029 0
M  V30 693 H 68.5037 3.36769 0.66645 0
M  V30 694 N 70.9488 -0.749086 1.3866 0
M  V30 695 C 71.9118 -1.84457 1.36045 0
M  V30 696 C 72.9118 -1.58682 0.260122 0
M  V30 697 O 74.1018 -1.66343 0.517261 0
M  V30 698 C 71.2338 -3.22008 1.11911 0
M  V30 699 H 72.4268 -1.88182 2.33512 0
M  V30 700 H 69.9798 -0.951266 1.24019 0
M  V30 701 H 70.7148 -3.2395 0.150686 0
M  V30 702 H 70.4998 -3.42111 1.91579 0
M  V30 703 H 71.9898 -4.0208 1.12788 0
M  V30 704 N 72.4269 -1.23603 -0.977757 0
M  V30 705 C 73.3769 -0.986664 -2.05545 0
M  V30 706 C 74.3609 0.0683009 -1.60755 0
M  V30 707 O 75.5529 -0.144162 -1.76412 0
M  V30 708 C 72.6819 -0.582623 -3.3832 0
M  V30 709 C 71.7679 -1.67313 -3.89701 0
M  V30 710 N 72.1589 -2.90394 -4.14132 0
M  V30 711 C 70.4569 -1.54832 -4.18262 0
M  V30 712 C 71.1579 -3.61017 -4.56116 0
M  V30 713 N 70.1339 -2.8854 -4.60701 0
M  V30 714 H 73.9359 -1.92139 -2.22396 0
M  V30 715 H 71.4499 -1.1358 -1.16074 0
M  V30 716 H 73.4469 -0.38524 -4.15116 0
M  V30 717 H 72.1069 0.34503 -3.22862 0
M  V30 718 H 73.1179 -3.26673 -4.01877 0
M  V30 719 H 69.7949 -0.687969 -4.11793 0
M  V30 720 H 71.1849 -4.66544 -4.83514 0
M  V30 721 N 73.905 1.17692 -1.04816 0
M  V30 722 C 75.13 1.92327 -0.776207 0
M  V30 723 C 75.555 1.76082 0.661581 0
M  V30 724 O 74.913 1.076 1.45917 0
M  V30 725 C 74.961 3.41539 -1.15687 0
M  V30 726 O 74.065 4.11402 -0.286775 0
M  V30 727 H 73.406 0.599735 -0.284981 0
M  V30 728 H 75.936 1.49201 -1.4 0
M  V30 729 H 75.946 3.92269 -1.12202 0
M  V30 730 H 74.621 3.52684 -2.20425 0
M  V30 731 H 73.198 3.70939 -0.381903 0
M  V30 732 N 75.3831 0.828654 1.34056 0
M  V30 733 C 76.3461 0.259927 2.27721 0
M  V30 734 C 77.3461 -0.565478 1.50529 0
M  V30 735 O 78.5361 -0.38075 1.69988 0
M  V30 736 C 75.6681 -0.634944 3.34935 0
M  V30 737 H 76.8611 1.0863 2.79534 0
M  V30 738 H 74.4141 0.600951 1.44285 0
M  V30 739 H 75.1491 -1.48416 2.88346 0
M  V30 740 H 74.9341 -0.0444999 3.92075 0
M  V30 741 H 76.4241 -1.02648 4.04788 0
M  V30 742 N 76.8612 -1.46375 0.584142 0
M  V30 743 C 77.8112 -2.27371 -0.169232 0
M  V30 744 C 78.7952 -1.35955 -0.860523 0
M  V30 745 O 79.9872 -1.60119 -0.754382 0
M  V30 746 C 77.1162 -3.22334 -1.18134 0
M  V30 747 C 76.2022 -4.21235 -0.492088 0
M  V30 748 N 76.5932 -5.03766 0.453129 0
M  V30 749 C 74.8912 -4.39773 -0.742652 0
M  V30 750 C 75.5922 -5.75366 0.85609 0
M  V30 751 N 74.5682 -5.43214 0.204926 0
M  V30 752 H 78.3702 -2.88572 0.557097 0
M  V30 753 H 75.8842 -1.57242 0.406042 0
M  V30 754 H 77.8812 -3.79071 -1.73525 0
M  V30 755 H 76.5412 -2.62693 -1.90847 0
M  V30 756 H 77.5522 -5.11227 0.828723 0
M  V30 757 H 74.2292 -3.91279 -1.45625 0
M  V30 758 H 75.6192 -6.5172 1.63434 0
M  V30 759 N 78.3393 -0.321999 -1.54275 0
M  V30 760 C 79.5793 0.281657 -2.0245 0
M  V30 761 C 79.9433 1.49468 -1.20513 0
M  V30 762 O 81.1443 2.17109 -1.58484 0
M  V30 763 C 79.4153 0.609014 -3.52173 0
M  V30 764 S 80.9743 1.19255 -4.22284 0
M  V30 765 H 77.7923 0.0852825 -0.705867 0
M  V30 766 H 80.3943 -0.454758 -1.90137 0
M  V30 767 H 79.0983 -0.281982 -4.0943 0
M  V30 768 H 78.6293 1.37567 -3.68563 0
M  V30 769 H 80.6443 2.47944 -4.29812 0
M  V30 770 N 79.8174 1.5752 -0.0501392 0
M  V30 771 C 81.0424 1.97376 0.636997 0
M  V30 772 C 81.4674 0.927466 1.63645 0
M  V30 773 O 80.8254 -0.10941 1.8097 0
M  V30 774 C 80.8734 3.36304 1.30123 0
M  V30 775 O 79.9774 3.34156 2.41689 0
M  V30 776 H 79.3184 0.642998 0.165679 0
M  V30 777 H 81.8484 2.04258 -0.118233 0
M  V30 778 H 81.8584 3.73008 1.65315 0
M  V30 779 H 80.5334 4.11993 0.568746 0
M  V30 780 H 79.1104 3.09196 2.08451 0
M  V30 781 N 81.2955 -0.223234 1.56011 0
M  V30 782 C 82.5425 -0.947875 1.78946 0
M  V30 783 C 82.8705 -1.844 0.618608 0
M  V30 784 O 82.1255 -1.91629 -0.397093 0
M  V30 785 C 82.4245 -1.81948 3.0762 0
M  V30 786 C 82.0905 -1.07672 4.37856 0
M  V30 787 C 80.7525 -0.871544 4.73242 0
M  V30 788 C 83.1045 -0.552081 5.18268 0
M  V30 789 C 80.4325 -0.129791 5.86556 0
M  V30 790 C 82.7845 0.17632 6.32354 0
M  V30 791 C 81.4485 0.39277 6.66343 0
M  V30 792 H 80.7185 -0.346852 0.654809 0
M  V30 793 H 83.3655 -0.216171 1.90276 0
M  V30 794 H 81.6705 -2.61899 2.91404 0
M  V30 795 H 83.3675 -2.38227 3.22566 0
M  V30 796 H 79.9575 -1.24662 4.1007 0
M  V30 797 H 84.1415 -0.698076 4.91366 0
M  V30 798 H 79.3975 0.048153 6.11381 0
M  V30 799 H 83.5715 0.590367 6.93893 0
M  V30 800 H 81.1985 0.969466 7.53993 0
M  V30 801 N 82.7736 -1.49793 -0.48987 0
M  V30 802 C 84.0036 -1.6333 -1.26518 0
M  V30 803 C 84.4116 -0.308392 -1.8667 0
M  V30 804 O 83.7546 0.717512 -1.69108 0
M  V30 805 C 83.8166 -2.6522 -2.4269 0
M  V30 806 C 83.4806 -4.09279 -2.03321 0
M  V30 807 C 84.4776 -4.95738 -1.56652 0
M  V30 808 C 82.1626 -4.55082 -2.12616 0
M  V30 809 C 84.1566 -6.26041 -1.19795 0
M  V30 810 C 81.8436 -5.85396 -1.75371 0
M  V30 811 C 82.8416 -6.707 -1.29036 0
M  V30 812 O 82.5296 -7.98584 -0.92299 0
M  V30 813 H 82.2616 -0.552502 -0.389509 0
M  V30 814 H 84.8156 -1.96642 -0.593381 0
M  V30 815 H 83.0456 -2.27112 -3.12981 0
M  V30 816 H 84.7346 -2.68171 -3.04695 0
M  V30 817 H 85.5006 -4.61575 -1.48908 0
M  V30 818 H 81.3796 -3.88844 -2.47631 0
M  V30 819 H 84.9236 -6.92578 -0.835582 0
M  V30 820 H 80.8206 -6.19085 -1.82768 0
M  V30 821 H 81.5886 -8.11692 -1.05349 0
M  V30 822 N 84.2517 0.741722 -1.39055 0
M  V30 823 C 85.6677 1.04638 -1.20512 0
M  V30 824 C 85.8677 2.01405 -0.0620218 0
M  V30 825 O 84.9237 2.45547 0.588457 0
M  V30 826 C 86.2367 1.6151 -2.53643 0
M  V30 827 C 87.7847 1.73623 -2.6043 0
M  V30 828 C 88.2597 2.33906 -3.93767 0
M  V30 829 N 89.7507 2.41323 -3.9537 0
M  V30 830 C 90.4857 2.88888 -4.95309 0
M  V30 831 N 89.9817 3.36401 -6.05645 0
M  V30 832 N 91.7747 2.88037 -4.82692 0
M  V30 833 H 83.9257 0.0998155 -2.12165 0
M  V30 834 H 86.1887 0.106907 -0.941953 0
M  V30 835 H 85.8947 0.978739 -3.37807 0
M  V30 836 H 85.7687 2.60411 -2.72885 0
M  V30 837 H 88.1557 2.36384 -1.76655 0
M  V30 838 H 88.2367 0.733945 -2.45045 0
M  V30 839 H 87.8807 1.71776 -4.7797 0
M  V30 840 H 87.8107 3.34799 -4.06469 0
M  V30 841 H 90.3017 2.07734 -3.15682 0
M  V30 842 H 90.6147 3.71186 -6.77821 0
M  V30 843 H 88.9597 3.34427 -6.09248 0
M  V30 844 H 92.1507 2.50237 -3.95599 0
M  V30 845 H 92.3237 3.24792 -5.60726 0
M  V30 846 N 85.7298 1.2412 0.971189 0
M  V30 847 C 86.9578 1.10575 1.74874 0
M  V30 848 C 87.3728 -0.342017 1.85676 0
M  V30 849 O 86.7298 -1.23617 1.34258 0
M  V30 850 C 86.7808 1.73579 3.171 0
M  V30 851 O 86.5018 3.12695 3.06844 0
M  V30 852 C 88.0028 1.65598 4.11208 0
M  V30 853 H 85.2228 0.386504 0.548503 0
M  V30 854 H 87.7668 1.64156 1.21955 0
M  V30 855 H 85.9218 1.24009 3.67016 0
M  V30 856 H 86.3358 3.43412 3.96445 0
M  V30 857 H 87.8098 2.1437 5.08674 0
M  V30 858 H 88.2868 0.616532 4.34851 0
M  V30 859 H 88.8928 2.14578 3.67201 0
M  V30 860 N 87.2079 -1.17134 1.05439 0
M  V30 861 C 88.6239 -1.39454 0.776201 0
M  V30 862 C 88.8239 -1.91454 -0.628307 0
M  V30 863 O 87.8799 -2.10777 -1.39031 0
M  V30 864 C 89.1929 -2.38305 1.83388 0
M  V30 865 C 90.7409 -2.52006 1.85639 0
M  V30 866 C 91.2159 -3.54133 2.90437 0
M  V30 867 N 92.7069 -3.61653 2.89415 0
M  V30 868 C 93.4419 -4.4044 3.67152 0
M  V30 869 N 92.9379 -5.22721 4.54681 0
M  V30 870 N 94.7309 -4.35337 3.55581 0
M  V30 871 H 86.8819 -0.817134 1.96053 0
M  V30 872 H 89.1449 -0.421626 0.849079 0
M  V30 873 H 88.8509 -2.07173 2.84204 0
M  V30 874 H 88.7249 -3.37841 1.67761 0
M  V30 875 H 91.1119 -2.82447 0.85486 0
M  V30 876 H 91.1929 -1.52537 2.05344 0
M  V30 877 H 90.8369 -3.24431 3.90777 0
M  V30 878 H 90.7669 -4.53313 2.67983 0
M  V30 879 H 93.2579 -3.02909 2.25952 0
M  V30 880 H 93.5709 -5.80027 5.10674 0
M  V30 881 H 91.9159 -5.22093 4.58741 0
M  V30 882 H 95.1069 -3.70112 2.86592 0
M  V30 883 H 95.2799 -4.96494 4.1641 0
M  V30 884 N 88.686 -0.835752 -1.33615 0
M  V30 885 C 89.914 -0.443344 -2.02094 0
M  V30 886 C 90.329 0.954522 -1.62894 0
M  V30 887 O 89.686 1.61982 -0.840723 0
M  V30 888 C 89.737 -0.550775 -3.5728 0
M  V30 889 O 89.458 -1.89356 -3.95065 0
M  V30 890 C 90.959 -0.154919 -4.43029 0
M  V30 891 H 88.179 -0.176359 -0.647409 0
M  V30 892 H 90.723 -1.12746 -1.70612 0
M  V30 893 H 88.878 0.0853997 -3.87306 0
M  V30 894 H 89.292 -1.87687 -4.89769 0
M  V30 895 H 90.766 -0.281144 -5.51284 0
M  V30 896 H 91.243 0.902863 -4.2982 0
M  V30 897 H 91.849 -0.765404 -4.18356 0
M  V30 898 N 90.1641 1.46063 -0.591896 0
M  V30 899 C 91.0941 2.33172 0.123673 0
M  V30 900 C 92.0751 1.45897 0.87453 0
M  V30 901 O 93.2601 1.74698 0.848181 0
M  V30 902 C 90.3901 3.28336 1.13194 0
M  V30 903 C 89.3441 4.25124 0.495324 0
M  V30 904 C 88.6701 5.09863 1.61071 0
M  V30 905 C 89.9701 5.19143 -0.573425 0
M  V30 906 H 91.6641 2.93252 -0.603646 0
M  V30 907 H 89.2101 1.41014 -0.291741 0
M  V30 908 H 91.1631 3.88137 1.64097 0
M  V30 909 H 89.8871 2.66383 1.88965 0
M  V30 910 H 88.5461 3.66599 0.00729452 0
M  V30 911 H 88.1941 4.44288 2.35832 0
M  V30 912 H 87.8941 5.75417 1.19035 0
M  V30 913 H 89.4181 5.72529 2.12233 0
M  V30 914 H 90.8321 5.73106 -0.1491 0
M  V30 915 H 89.2291 5.93089 -0.914636 0
M  V30 916 H 90.2991 4.62519 -1.45617 0
M  V30 917 N 91.6422 0.330177 1.54103 0
M  V30 918 C 92.5742 -0.566902 2.22079 0
M  V30 919 C 93.5872 -1.07462 1.22294 0
M  V30 920 O 94.7762 -0.987065 1.48726 0
M  V30 921 C 91.8762 -1.79138 2.87685 0
M  V30 922 C 91.0492 -1.42123 4.13666 0
M  V30 923 C 90.1082 -2.50394 4.62806 0
M  V30 924 O 89.1342 -2.14261 5.27334 0
M  V30 925 N 90.3362 -3.81433 4.37595 0
M  V30 926 H 93.1012 0.0151844 2.99696 0
M  V30 927 H 90.6622 0.153681 1.61169 0
M  V30 928 H 92.6542 -2.50975 3.1748 0
M  V30 929 H 91.2242 -2.28115 2.13734 0
M  V30 930 H 90.4442 -0.534201 3.90564 0
M  V30 931 H 91.7322 -1.14971 4.9564 0
M  V30 932 H 91.1302 -4.13584 3.8596 0
M  V30 933 H 89.6872 -4.4948 4.72029 0
M  V30 934 N 93.1203 -1.57491 0.0584922 0
M  V30 935 C 94.0833 -2.1085 -0.898617 0
M  V30 936 C 95.0833 -1.02964 -1.23511 0
M  V30 937 O 96.2733 -1.29007 -1.17059 0
M  V30 938 C 93.4053 -2.59881 -2.20623 0
M  V30 939 H 94.5983 -2.96715 -0.435936 0
M  V30 940 H 92.1513 -1.55141 -0.190023 0
M  V30 941 H 92.8863 -1.77431 -2.71457 0
M  V30 942 H 92.6713 -3.38727 -1.97501 0
M  V30 943 H 94.1613 -3.01285 -2.89166 0
M  V30 944 N 94.5984 0.214957 -1.56127 0
M  V30 945 C 95.5284 1.2695 -1.95974 0
M  V30 946 C 96.5094 1.48539 -0.828868 0
M  V30 947 O 97.6944 1.60611 -1.09168 0
M  V30 948 C 94.8244 2.61794 -2.28214 0
M  V30 949 C 93.7784 2.54851 -3.43853 0
M  V30 950 C 93.1044 3.93785 -3.61715 0
M  V30 951 C 94.4044 2.09065 -4.78632 0
M  V30 952 H 96.0984 0.93846 -2.84312 0
M  V30 953 H 93.6444 0.449996 -1.36788 0
M  V30 954 H 95.5974 3.35731 -2.54682 0
M  V30 955 H 94.3214 2.96599 -1.36736 0
M  V30 956 H 92.9804 1.8337 -3.17444 0
M  V30 957 H 92.6284 4.25908 -2.67602 0
M  V30 958 H 92.3284 3.90019 -4.39498 0
M  V30 959 H 93.8524 4.69374 -3.90539 0
M  V30 960 H 95.2664 2.7275 -5.04262 0
M  V30 961 H 93.6634 2.16346 -5.59745 0
M  V30 962 H 94.7334 1.04315 -4.73547 0
M  V30 963 N 96.0765 1.50051 0.48192 0
M  V30 964 C 97.3015 1.64508 1.26301 0
M  V30 965 C 97.7265 0.323851 1.85291 0
M  V30 966 O 97.0845 -0.710969 1.66778 0
M  V30 967 C 97.1325 2.7305 2.35533 0
M  V30 968 O 96.2365 2.3355 3.39895 0
M  V30 969 H 95.5775 0.549978 0.372048 0
M  V30 970 H 98.1075 1.9636 0.574786 0
M  V30 971 H 98.1175 2.95799 2.8101 0
M  V30 972 H 96.7925 3.68946 1.91967 0
M  V30 973 H 95.3695 2.21205 3.00204 0
M  V30 974 N 97.5546 -0.734337 1.39446 0
M  V30 975 C 98.7796 -1.52866 1.40167 0
M  V30 976 C 99.2046 -1.881 -0.00171513 0
M  V30 977 O 98.5626 -1.51957 -0.988879 0
M  V30 978 C 98.6106 -2.79235 2.28167 0
M  V30 979 O 97.7146 -3.75185 1.71201 0
M  V30 980 H 97.0556 -0.461618 0.477289 0
M  V30 981 H 99.5856 -0.905949 1.8345 0
M  V30 982 H 99.5956 -3.27963 2.42702 0
M  V30 983 H 98.2706 -2.52923 3.30156 0
M  V30 984 H 96.8476 -3.33958 1.65912 0
M  V30 985 N 99.0327 -1.24633 -0.964593 0
M  V30 986 C 99.9427 -1.05859 -2.09359 0
M  V30 987 C 100.959 0.00148855 -1.74 0
M  V30 988 O 102.135 -0.197346 -2.00431 0
M  V30 989 C 99.1997 -0.668879 -3.40187 0
M  V30 990 C 98.2607 -1.80578 -3.89474 0
M  V30 991 C 97.4937 -1.43457 -5.14058 0
M  V30 992 O 97.7167 -0.325775 -5.69469 0
M  V30 993 O 96.6507 -2.2613 -5.57807 0
M  V30 994 H 100.477 -2.00516 -2.28094 0
M  V30 995 H 98.0617 -1.03481 -1.0776 0
M  V30 996 H 99.9437 -0.463211 -4.18846 0
M  V30 997 H 98.6187 0.248536 -3.22744 0
M  V30 998 H 97.5257 -2.06623 -3.11862 0
M  V30 999 H 98.8587 -2.70208 -4.11398 0
M  V30 1000 N 100.511 1.16574 -1.06058 0
M  V30 1001 C 101.458 2.20883 -0.669263 0
M  V30 1002 C 102.428 1.62729 0.332918 0
M  V30 1003 O 103.613 1.895 0.222346 0
M  V30 1004 C 100.753 3.45049 -0.0593572 0
M  V30 1005 C 99.8658 4.17458 -1.11143 0
M  V30 1006 C 99.0008 5.29135 -0.467916 0
M  V30 1007 C 98.0398 5.93343 -1.50369 0
M  V30 1008 N 97.1768 6.96516 -0.883706 0
M  V30 1009 H 102.017 2.53709 -1.5632 0
M  V30 1010 H 99.5538 1.24616 -0.781625 0
M  V30 1011 H 101.512 4.16033 0.311771 0
M  V30 1012 H 100.142 3.12781 0.797992 0
M  V30 1013 H 99.1938 3.45101 -1.60029 0
M  V30 1014 H 100.506 4.61307 -1.89731 0
M  V30 1015 H 99.6598 6.06684 -0.0436871 0
M  V30 1016 H 98.3988 4.86443 0.349864 0
M  V30 1017 H 97.4038 5.14517 -1.93784 0
M  V30 1018 H 98.6288 6.38114 -2.32352 0
M  V30 1019 H 96.5748 6.55943 -0.086595 0
M  V30 1020 H 96.4918 7.38723 -1.607 0
M  V30 1021 H 97.7598 7.77993 -0.484543 0
M  V30 1022 N 101.989 0.842826 1.3317 0
M  V30 1023 C 102.936 0.276885 2.29133 0
M  V30 1024 C 103.906 -0.609527 1.54512 0
M  V30 1025 O 105.091 -0.546955 1.82792 0
M  V30 1026 C 102.231 -0.538707 3.40869 0
M  V30 1027 C 101.344 0.372169 4.30394 0
M  V30 1028 C 100.479 -0.454908 5.29249 0
M  V30 1029 C 99.5179 0.45411 6.10413 0
M  V30 1030 N 98.6549 -0.335075 7.013 0
M  V30 1031 H 103.495 1.10052 2.76934 0
M  V30 1032 H 101.032 0.554161 1.36262 0
M  V30 1033 H 102.99 -1.02709 4.0436 0
M  V30 1034 H 101.62 -1.32727 2.9425 0
M  V30 1035 H 100.672 0.97888 3.6759 0
M  V30 1036 H 101.984 1.0703 4.87182 0
M  V30 1037 H 101.138 -1.00695 5.98285 0
M  V30 1038 H 99.8769 -1.18646 4.73048 0
M  V30 1039 H 98.8819 1.01813 5.40291 0
M  V30 1040 H 100.107 1.18409 6.68697 0
M  V30 1041 H 98.0529 -1.04994 6.47543 0
M  V30 1042 H 97.9699 0.304262 7.55387 0
M  V30 1043 H 99.2379 -0.869224 7.74638 0
M  V30 1044 N 103.467 -1.45747 0.599634 0
M  V30 1045 C 104.43 -2.28917 -0.113835 0
M  V30 1046 C 105.43 -1.3933 -0.802729 0
M  V30 1047 O 106.62 -1.61534 -0.652103 0
M  V30 1048 C 103.752 -3.20152 -1.17114 0
M  V30 1049 H 104.945 -2.93478 0.617289 0
M  V30 1050 H 102.498 -1.52137 0.358327 0
M  V30 1051 H 103.233 -2.60374 -1.93329 0
M  V30 1052 H 103.018 -3.86133 -0.681468 0
M  V30 1053 H 104.508 -3.82708 -1.67105 0
M  V30 1054 N 104.945 -0.338344 -1.53925 0
M  V30 1055 C 105.892 0.520845 -2.24846 0
M  V30 1056 C 106.862 1.09976 -1.24477 0
M  V30 1057 O 108.047 1.13735 -1.53196 0
M  V30 1058 C 105.187 1.6685 -3.02084 0
M  V30 1059 C 104.3 1.11739 -4.17299 0
M  V30 1060 C 103.435 2.23193 -4.82036 0
M  V30 1061 C 102.474 1.65407 -5.89328 0
M  V30 1062 N 101.611 2.70582 -6.47866 0
M  V30 1063 H 106.451 -0.0904881 -2.97863 0
M  V30 1064 H 103.988 -0.0564282 -1.46992 0
M  V30 1065 H 105.946 2.34407 -3.45122 0
M  V30 1066 H 104.576 2.2509 -2.31375 0
M  V30 1067 H 103.628 0.332919 -3.7894 0
M  V30 1068 H 104.94 0.654677 -4.94485 0
M  V30 1069 H 104.094 2.98626 -5.28117 0
M  V30 1070 H 102.833 2.72807 -4.04262 0
M  V30 1071 H 101.838 0.884779 -5.42634 0
M  V30 1072 H 103.063 1.16652 -6.69006 0
M  V30 1073 H 101.009 3.1946 -5.72959 0
M  V30 1074 H 100.926 2.28917 -7.20509 0
M  V30 1075 H 102.194 3.45799 -6.98601 0
M  V30 1076 N 106.423 1.57458 -0.0668435 0
M  V30 1077 C 107.37 2.12439 0.902122 0
M  V30 1078 C 108.34 1.03565 1.2986 0
M  V30 1079 O 109.525 1.312 1.38532 0
M  V30 1080 C 106.665 2.6865 2.16614 0
M  V30 1081 C 105.778 3.91663 1.82274 0
M  V30 1082 C 104.913 4.36134 3.0325 0
M  V30 1083 C 103.952 5.51808 2.64904 0
M  V30 1084 N 103.089 5.9126 3.78624 0
M  V30 1085 H 107.929 2.94934 0.426382 0
M  V30 1086 H 105.466 1.4575 0.198819 0
M  V30 1087 H 107.424 2.99346 2.90599 0
M  V30 1088 H 106.054 1.88928 2.61737 0
M  V30 1089 H 105.106 3.6746 0.983719 0
M  V30 1090 H 106.418 4.75693 1.50059 0
M  V30 1091 H 105.572 4.68465 3.85519 0
M  V30 1092 H 104.311 3.50948 3.38655 0
M  V30 1093 H 103.316 5.19133 1.81055 0
M  V30 1094 H 104.541 6.38722 2.30675 0
M  V30 1095 H 102.487 5.09024 4.138 0
M  V30 1096 H 102.404 6.70018 3.5016 0
M  V30 1097 H 103.672 6.28212 4.61486 0
M  V30 1098 N 107.901 -0.206675 1.56239 0
M  V30 1099 C 108.864 -1.23976 1.92776 0
M  V30 1100 C 109.864 -1.39041 0.807729 0
M  V30 1101 O 111.054 -1.37051 1.0753 0
M  V30 1102 C 108.186 -2.61112 2.19165 0
M  V30 1103 H 109.379 -0.927764 2.85189 0
M  V30 1104 H 106.932 -0.447718 1.4975 0
M  V30 1105 H 107.667 -2.97386 1.29352 0
M  V30 1106 H 107.452 -2.51552 3.00772 0
M  V30 1107 H 108.942 -3.35633 2.48476 0
M  V30 1108 N 109.379 -1.50304 -0.473955 0
M  V30 1109 C 110.795 -1.37667 -0.807466 0
M  V30 1110 C 110.995 -0.430555 -1.96846 0
M  V30 1111 O 110.051 0.127874 -2.52176 0
M  V30 1112 C 111.364 -2.78974 -1.12223 0
M  V30 1113 C 112.912 -2.87868 -1.22885 0
M  V30 1114 C 113.387 -4.30003 -1.57676 0
M  V30 1115 N 114.878 -4.3294 -1.64673 0
M  V30 1116 C 115.613 -5.3991 -1.93091 0
M  V30 1117 N 115.109 -6.57092 -2.1955 0
M  V30 1118 N 116.902 -5.27351 -1.94569 0
M  V30 1119 H 109.053 -2.10394 0.291212 0
M  V30 1120 H 111.316 -0.945575 0.0677609 0
M  V30 1121 H 111.022 -3.50031 -0.342229 0
M  V30 1122 H 110.896 -3.16038 -2.05913 0
M  V30 1123 H 113.283 -2.17032 -1.99953 0
M  V30 1124 H 113.364 -2.54352 -0.271814 0
M  V30 1125 H 113.008 -5.01375 -0.81149 0
M  V30 1126 H 112.938 -4.61004 -2.54525 0
M  V30 1127 H 115.429 -3.48441 -1.46277 0
M  V30 1128 H 115.742 -7.34425 -2.405 0
M  V30 1129 H 114.087 -6.60272 -2.16948 0
M  V30 1130 H 117.278 -4.34801 -1.73394 0
M  V30 1131 H 117.451 -6.10805 -2.16381 0
M  V30 1132 N 110.857 0.726932 -1.39834 0
M  V30 1133 C 112.104 1.48664 -1.37496 0
M  V30 1134 C 112.432 1.94482 0.0264678 0
M  V30 1135 O 111.687 1.67692 1.00886 0
M  V30 1136 C 111.986 2.73495 -2.30077 0
M  V30 1137 C 111.652 2.46502 -3.77555 0
M  V30 1138 C 110.314 2.3885 -4.17737 0
M  V30 1139 C 112.666 2.23604 -4.70798 0
M  V30 1140 C 109.994 2.06352 -5.49214 0
M  V30 1141 C 112.346 1.92622 -6.02561 0
M  V30 1142 C 111.01 1.83444 -6.41798 0
M  V30 1143 H 110.28 0.544001 -0.503135 0
M  V30 1144 H 112.927 0.833657 -1.72402 0
M  V30 1145 H 111.232 3.43575 -1.88317 0
M  V30 1146 H 112.929 3.31549 -2.25558 0
M  V30 1147 H 109.519 2.5334 -3.45712 0
M  V30 1148 H 113.703 2.28479 -4.40581 0
M  V30 1149 H 108.959 1.97776 -5.78528 0
M  V30 1150 H 113.133 1.73914 -6.74334 0
M  V30 1151 H 110.76 1.58029 -7.43593 0
M  V30 1152 N 112.336 1.25143 0.95797 0
M  V30 1153 C 113.566 1.12261 1.73439 0
M  V30 1154 C 113.974 -0.326715 1.86358 0
M  V30 1155 O 113.317 -1.2367 1.35836 0
M  V30 1156 C 113.379 1.69966 3.16784 0
M  V30 1157 C 113.043 3.18936 3.27305 0
M  V30 1158 C 114.04 4.15968 3.11877 0
M  V30 1159 C 111.725 3.59083 3.51234 0
M  V30 1160 C 113.719 5.51126 3.20217 0
M  V30 1161 C 111.406 4.9438 3.5921 0
M  V30 1162 C 112.404 5.90211 3.43716 0
M  V30 1163 O 112.092 7.23046 3.51368 0
M  V30 1164 H 111.824 0.392476 0.550399 0
M  V30 1165 H 114.378 1.65927 1.21068 0
M  V30 1166 H 112.608 1.10744 3.70503 0
M  V30 1167 H 114.297 1.52232 3.76272 0
M  V30 1168 H 115.063 3.86292 2.93264 0
M  V30 1169 H 110.942 2.84989 3.62356 0
M  V30 1170 H 114.486 6.25905 3.0804 0
M  V30 1171 H 110.383 5.23723 3.77339 0
M  V30 1172 H 111.151 7.31097 3.6802 0
M  V30 1173 N 113.814 -1.1601 1.06675 0
M  V30 1174 C 115.23 -1.38622 0.790948 0
M  V30 1175 C 115.43 -1.92109 -0.607965 0
M  V30 1176 O 114.486 -2.12239 -1.36787 0
M  V30 1177 C 115.799 -2.36347 1.85905 0
M  V30 1178 C 117.347 -2.50023 1.88301 0
M  V30 1179 C 117.822 -3.51033 2.94176 0
M  V30 1180 N 119.313 -3.58563 2.93235 0
M  V30 1181 C 120.048 -4.36521 3.71803 0
M  V30 1182 N 119.544 -5.17869 4.602 0
M  V30 1183 N 121.337 -4.31541 3.60178 0
M  V30 1184 H 113.488 -0.796294 1.96908 0
M  V30 1185 H 115.751 -0.412597 0.853503 0
M  V30 1186 H 115.457 -2.04147 2.86386 0
M  V30 1187 H 115.331 -3.36042 1.71334 0
M  V30 1188 H 117.718 -2.81524 0.884769 0
M  V30 1189 H 117.799 -1.5035 2.06951 0
M  V30 1190 H 117.443 -3.20268 3.94196 0
M  V30 1191 H 117.373 -4.50445 2.72776 0
M  V30 1192 H 119.864 -3.00496 2.29152 0
M  V30 1193 H 120.177 -5.74578 5.16797 0
M  V30 1194 H 118.522 -5.17199 4.64253 0
M  V30 1195 H 121.713 -3.67051 2.90502 0
M  V30 1196 H 121.886 -4.9205 4.21653 0
M  V30 1197 N 115.292 -0.849877 -1.32721 0
M  V30 1198 C 116.24 -0.279745 -2.30912 0
M  V30 1199 C 117.234 0.594278 -1.58634 0
M  V30 1200 O 118.44 0.482613 -1.73409 0
M  V30 1201 H 114.815 -0.0717521 -0.748569 0
M  V30 1202 H 116.786 -1.12222 -2.76494 0
M  V30 1203 C 115.535 0.521108 -3.43773 0
M  V30 1204 H 114.858 -0.142141 -3.99547 0
M  V30 1205 H 116.298 0.885693 -4.14646 0
M  V30 1206 C 114.757 1.70442 -2.90605 0
M  V30 1207 O 115.287 2.8034 -2.87702 0
M  V30 1208 N 113.493 1.52991 -2.47067 0
M  V30 1209 H 113.04 0.635914 -2.49628 0
M  V30 1210 H 112.998 2.32311 -2.11847 0
M  V30 1211 N 116.77 1.45427 -0.607355 0
M  V30 1212 C 118.018 2.01841 -0.102253 0
M  V30 1213 C 118.339 1.47832 1.27164 0
M  V30 1214 O 117.609 0.672497 1.83995 0
M  V30 1215 H 116.189 0.746188 -0.0348101 0
M  V30 1216 H 118.851 1.78229 -0.7887 0
M  V30 1217 H 117.947 3.12057 -0.0518585 0
M  V30 1218 N 118.248 0.346503 1.53744 0
M  V30 1219 C 119.525 -0.304532 1.93215 0
M  V30 1220 C 119.905 -1.67993 1.27834 0
M  V30 1221 O 119.253 -2.24411 0.430352 0
M  V30 1222 C 119.463 -0.373852 3.46992 0
M  V30 1223 C 120.811 -0.62329 4.2 0
M  V30 1224 O 121.835 -0.455847 3.53271 0
M  V30 1225 O 120.694 -0.947879 5.38217 0
M  V30 1226 H 117.788 -0.178318 0.807547 0
M  V30 1227 H 120.334 0.397895 1.64969 0
M  V30 1228 H 119.106 0.591224 3.86808 0
M  V30 1229 H 118.729 -1.12294 3.81413 0
M  V30 1230 N 119.726 -1.57421 0.075193 0
M  V30 1231 C 121.142 -1.57099 -0.281444 0
M  V30 1232 C 121.342 -1.08486 -1.69803 0
M  V30 1233 O 120.398 -0.752279 -2.41033 0
M  V30 1234 C 121.711 -3.00571 -0.0880041 0
M  V30 1235 C 123.259 -3.12605 -0.157281 0
M  V30 1236 C 123.734 -4.57999 0.0079207 0
M  V30 1237 N 125.225 -4.63176 -0.0475725 0
M  V30 1238 C 125.96 -5.73373 0.0557876 0
M  V30 1239 N 125.456 -6.92473 0.21286 0
M  V30 1240 N 127.249 -5.621 -0.00152098 0
M  V30 1241 H 119.4 -1.87335 1.00098 0
M  V30 1242 H 121.663 -0.86377 0.390646 0
M  V30 1243 H 121.369 -3.40262 0.889629 0
M  V30 1244 H 121.243 -3.67754 -0.838875 0
M  V30 1245 H 123.63 -2.72798 -1.1254 0
M  V30 1246 H 123.711 -2.48053 0.62475 0
M  V30 1247 H 123.355 -4.98496 0.972824 0
M  V30 1248 H 123.285 -5.20586 -0.793556 0
M  V30 1249 H 125.776 -3.7753 -0.167244 0
M  V30 1250 H 126.089 -7.72279 0.283781 0
M  V30 1251 H 124.434 -6.94556 0.248267 0
M  V30 1252 H 127.625 -4.67938 -0.122958 0
M  V30 1253 H 127.798 -6.47948 0.0824844 0
M  V30 1254 N 121.204 0.198386 -1.56346 0
M  V30 1255 C 122.434 0.934215 -1.84271 0
M  V30 1256 C 122.842 1.77496 -0.655125 0
M  V30 1257 O 122.185 1.7961 0.385488 0
M  V30 1258 C 122.247 1.88278 -3.06254 0
M  V30 1259 C 121.911 1.22431 -4.40295 0
M  V30 1260 C 122.908 0.602839 -5.16393 0
M  V30 1261 C 120.593 1.22915 -4.87029 0
M  V30 1262 C 122.587 -0.0050083 -6.374 0
M  V30 1263 C 120.274 0.617465 -6.07973 0
M  V30 1264 C 121.272 0.00146341 -6.83 0
M  V30 1265 O 120.96 -0.600642 -8.01653 0
M  V30 1266 H 120.692 0.278245 -0.616081 0
M  V30 1267 H 123.246 0.211626 -2.04307 0
M  V30 1268 H 121.476 2.64498 -2.82095 0
M  V30 1269 H 123.165 2.48612 -3.20853 0
M  V30 1270 H 123.931 0.591265 -4.81382 0
M  V30 1271 H 119.81 1.69801 -4.28589 0
M  V30 1272 H 123.354 -0.48643 -6.95902 0
M  V30 1273 H 119.251 0.62653 -6.42452 0
M  V30 1274 H 120.019 -0.497225 -8.16988 0
M  V30 1275 N 122.682 1.50554 0.465978 0
M  V30 1276 C 123.929 1.61798 1.21768 0
M  V30 1277 C 124.257 0.320696 1.91838 0
M  V30 1278 O 123.512 -0.693724 1.82992 0
M  V30 1279 C 123.811 2.75152 2.28093 0
M  V30 1280 C 123.477 4.15454 1.75239 0
M  V30 1281 C 122.139 4.53628 1.60546 0
M  V30 1282 C 124.491 5.03121 1.36083 0
M  V30 1283 C 121.819 5.77204 1.05128 0
M  V30 1284 C 124.171 6.27249 0.821056 0
M  V30 1285 C 122.835 6.64221 0.660795 0
M  V30 1286 H 122.105 0.592063 0.445582 0
M  V30 1287 H 124.752 1.84503 0.512927 0
M  V30 1288 H 123.057 2.46556 3.04496 0
M  V30 1289 H 124.754 2.81055 2.86023 0
M  V30 1290 H 121.344 3.85341 1.87644 0
M  V30 1291 H 125.528 4.74257 1.46267 0
M  V30 1292 H 120.784 6.0452 0.91462 0
M  V30 1293 H 124.958 6.94537 0.509018 0
M  V30 1294 H 122.585 7.59854 0.229226 0
M  V30 1295 N 124.16 -0.719506 1.40217 0
M  V30 1296 C 125.107 -1.83359 1.40172 0
M  V30 1297 C 126.077 -1.64065 0.259206 0
M  V30 1298 O 127.262 -1.85254 0.456677 0
M  V30 1299 C 124.402 -3.2103 1.26624 0
M  V30 1300 C 123.515 -3.51923 2.50548 0
M  V30 1301 C 122.65 -4.79079 2.29471 0
M  V30 1302 C 121.689 -5.02863 3.48992 0
M  V30 1303 N 120.826 -6.2123 3.27135 0
M  V30 1304 H 125.666 -1.82733 2.35399 0
M  V30 1305 H 123.203 -0.892688 1.16917 0
M  V30 1306 H 125.161 -4.00524 1.16776 0
M  V30 1307 H 123.791 -3.20895 0.350176 0
M  V30 1308 H 122.843 -2.67014 2.70939 0
M  V30 1309 H 124.155 -3.6541 3.39525 0
M  V30 1310 H 123.309 -5.66582 2.16955 0
M  V30 1311 H 122.048 -4.67794 1.37913 0
M  V30 1312 H 121.053 -4.13816 3.6199 0
M  V30 1313 H 122.278 -5.16023 4.41472 0
M  V30 1314 H 120.224 -6.11204 2.38256 0
M  V30 1315 H 120.141 -6.35375 4.09675 0
M  V30 1316 H 121.409 -7.11532 3.18344 0
M  V30 1317 N 125.638 -1.25649 -0.95132 0
M  V30 1318 C 126.886 -1.10375 -1.69298 0
M  V30 1319 C 127.207 0.355339 -1.91735 0
M  V30 1320 O 126.477 1.25188 -1.50681 0
M  V30 1321 H 125.057 -0.405461 -0.627384 0
M  V30 1322 H 127.719 -1.57823 -1.14358 0
M  V30 1323 H 126.815 -1.61465 -2.67087 0
M  V30 1324 N 127.117 1.15442 -1.07289 0
M  V30 1325 C 128.047 2.22312 -0.714107 0
M  V30 1326 C 129.028 1.67467 0.298155 0
M  V30 1327 O 130.213 1.93445 0.171048 0
M  V30 1328 C 127.343 3.47124 -0.110448 0
M  V30 1329 C 126.297 4.14926 -1.04979 0
M  V30 1330 C 125.623 5.33807 -0.308924 0
M  V30 1331 C 126.923 4.64762 -2.38314 0
M  V30 1332 H 128.617 2.5258 -1.6076 0
M  V30 1333 H 126.163 1.21404 -0.77441 0
M  V30 1334 H 128.116 4.21124 0.152482 0
M  V30 1335 H 126.84 3.16187 0.81812 0
M  V30 1336 H 125.499 3.42866 -1.29764 0
M  V30 1337 H 125.147 4.99126 0.623084 0
M  V30 1338 H 124.847 5.80113 -0.935036 0
M  V30 1339 H 126.371 6.10576 -0.0537771 0
M  V30 1340 H 127.785 5.30292 -2.1786 0
M  V30 1341 H 126.182 5.21728 -2.96514 0
M  V30 1342 H 127.252 3.80434 -3.00663 0
M  V30 1343 N 128.595 0.856903 1.32268 0
M  V30 1344 C 129.841 0.462069 1.97466 0
M  V30 1345 C 130.174 -0.980298 1.67642 0
M  V30 1346 O 129.449 -1.68824 0.965858 0
M  V30 1347 C 129.732 0.704336 3.53145 0
M  V30 1348 C 129.585 2.19529 3.9259 0
M  V30 1349 C 130.904 0.1622 4.39801 0
M  V30 1350 H 128.023 0.169357 0.717278 0
M  V30 1351 H 130.665 1.07574 1.56614 0
M  V30 1352 H 128.815 0.181999 3.88073 0
M  V30 1353 H 130.487 2.78387 3.67829 0
M  V30 1354 H 128.73 2.67292 3.41668 0
M  V30 1355 H 129.401 2.31549 5.01088 0
M  V30 1356 H 131.877 0.608905 4.11621 0
M  V30 1357 H 130.753 0.361265 5.4771 0
M  V30 1358 H 131.014 -0.935158 4.32096 0
M  V30 1359 N 130.073 -1.45103 0.615059 0
M  V30 1360 C 131.32 -2.02183 0.113179 0
M  V30 1361 C 131.648 -1.48249 -1.25906 0
M  V30 1362 O 130.903 -0.650265 -1.84581 0
M  V30 1363 C 131.202 -3.57386 0.0318797 0
M  V30 1364 C 130.868 -4.30505 1.34077 0
M  V30 1365 C 129.53 -4.50197 1.69929 0
M  V30 1366 C 131.882 -4.72238 2.20546 0
M  V30 1367 C 129.21 -5.08881 2.91988 0
M  V30 1368 C 131.562 -5.32272 3.41861 0
M  V30 1369 C 130.226 -5.50187 3.77956 0
M  V30 1370 H 129.496 -0.739842 0.0414151 0
M  V30 1371 H 132.143 -1.74073 0.798168 0
M  V30 1372 H 130.448 -3.84817 -0.736409 0
M  V30 1373 H 132.145 -3.99264 -0.372712 0
M  V30 1374 H 128.735 -4.15496 1.05173 0
M  V30 1375 H 132.919 -4.56751 1.94146 0
M  V30 1376 H 128.175 -5.20939 3.2005 0
M  V30 1377 H 132.349 -5.63563 4.09109 0
M  V30 1378 H 129.976 -5.95427 4.72622 0
M  V30 1379 N 131.551 -0.354651 -1.53558 0
M  V30 1380 C 132.514 0.484566 -2.24019 0
M  V30 1381 C 133.514 1.01861 -1.24422 0
M  V30 1382 O 134.704 0.906097 -1.4878 0
M  V30 1383 C 131.836 1.67615 -2.96847 0
M  V30 1384 H 133.029 -0.131843 -2.9961 0
M  V30 1385 H 130.582 -0.106165 -1.55939 0
M  V30 1386 H 131.317 2.33095 -2.25471 0
M  V30 1387 H 131.102 1.30029 -3.69912 0
M  V30 1388 H 132.592 2.27114 -3.50441 0
M  V30 1389 N 133.029 1.57378 -0.0835403 0
M  V30 1390 C 134.278 1.93106 0.582498 0
M  V30 1391 C 134.591 0.96651 1.70053 0
M  V30 1392 O 135.797 1.21705 2.42693 0
M  V30 1393 C 134.253 3.43076 1.08751 0
M  V30 1394 C 133.861 4.48 -0.000146404 0
M  V30 1395 C 135.605 3.87785 1.72694 0
M  V30 1396 C 133.512 5.89113 0.519568 0
M  V30 1397 H 132.442 0.720775 0.221358 0
M  V30 1398 H 135.093 1.82821 -0.157675 0
M  V30 1399 H 133.475 3.48474 1.88101 0
M  V30 1400 H 134.649 4.54233 -0.775199 0
M  V30 1401 H 132.964 4.1283 -0.54406 0
M  V30 1402 H 135.561 4.90604 2.1263 0
M  V30 1403 H 135.904 3.25796 2.59158 0
M  V30 1404 H 136.437 3.8504 0.999457 0
M  V30 1405 H 133.176 6.54775 -0.308186 0
M  V30 1406 H 132.696 5.86376 1.26188 0
M  V30 1407 H 134.375 6.39346 0.992237 0
M  V30 1408 N 134.507 -0.190092 1.56449 0
M  V30 1409 C 135.732 -0.929864 1.85387 0
M  V30 1410 C 136.157 -1.7585 0.667704 0
M  V30 1411 O 135.515 -1.77198 -0.383459 0
M  V30 1412 C 135.563 -1.79773 3.12593 0
M  V30 1413 O 134.667 -2.89713 2.93496 0
M  V30 1414 H 134.008 -0.261574 0.610307 0
M  V30 1415 H 136.538 -0.193896 2.03679 0
M  V30 1416 H 136.548 -2.20139 3.43515 0
M  V30 1417 H 135.223 -1.18892 3.98544 0
M  V30 1418 H 133.8 -2.53065 2.73884 0
M  V30 1419 N 135.985 -1.50799 -0.457987 0
M  V30 1420 C 137.21 -1.66496 -1.23668 0
M  V30 1421 C 137.635 -0.353288 -1.84752 0
M  V30 1422 O 136.993 0.684346 -1.67888 0
M  V30 1423 C 137.041 -2.76763 -2.3116 0
M  V30 1424 O 136.145 -2.38928 -3.36136 0
M  V30 1425 H 135.486 -0.555828 -0.363252 0
M  V30 1426 H 138.016 -1.9725 -0.543474 0
M  V30 1427 H 138.026 -3.00232 -2.76269 0
M  V30 1428 H 136.701 -3.71954 -1.86073 0
M  V30 1429 H 135.278 -2.25953 -2.96647 0
M  V30 1430 N 137.463 0.71206 -1.40597 0
M  V30 1431 C 138.74 1.46536 -1.29563 0
M  V30 1432 C 139.12 2.10931 0.0844217 0
M  V30 1433 O 138.468 2.00418 1.0975 0
M  V30 1434 C 138.678 2.49821 -2.43701 0
M  V30 1435 C 140.026 3.15551 -2.841 0
M  V30 1436 O 141.05 2.60142 -2.4332 0
M  V30 1437 O 139.909 4.15867 -3.54566 0
M  V30 1438 H 137.003 0.651801 -0.509004 0
M  V30 1439 H 139.549 0.743935 -1.52524 0
M  V30 1440 H 138.321 2.00778 -3.35863 0
M  V30 1441 H 137.944 3.29495 -2.22528 0
M  V30 1442 N 138.941 1.26152 0.944643 0
M  V30 1443 C 140.357 1.03189 1.21754 0
M  V30 1444 C 140.557 -0.245112 2.00004 0
M  V30 1445 O 139.613 -0.955176 2.33736 0
M  V30 1446 C 140.926 2.26119 1.98219 0
M  V30 1447 C 142.474 2.30984 2.11224 0
M  V30 1448 C 142.949 3.53597 2.91089 0
M  V30 1449 N 144.44 3.54053 2.98664 0
M  V30 1450 C 145.175 4.45593 3.60881 0
M  V30 1451 N 144.671 5.47416 4.24626 0
M  V30 1452 N 146.464 4.33252 3.58119 0
M  V30 1453 H 138.615 2.08177 0.421437 0
M  V30 1454 H 140.878 0.914723 0.248969 0
M  V30 1455 H 140.584 3.18984 1.48128 0
M  V30 1456 H 140.458 2.3009 2.98895 0
M  V30 1457 H 142.845 1.38635 2.60508 0
M  V30 1458 H 142.926 2.31026 1.09821 0
M  V30 1459 H 142.57 4.46273 2.42493 0
M  V30 1460 H 142.5 3.50802 3.92741 0
M  V30 1461 H 144.991 2.80403 2.53343 0
M  V30 1462 H 145.304 6.13459 4.69987 0
M  V30 1463 H 143.649 5.51278 4.23223 0
M  V30 1464 H 146.84 3.52924 3.0751 0
M  V30 1465 H 147.013 5.04786 4.06319 0
M  V30 1466 N 140.419 -1.14872 1.07899 0
M  V30 1467 C 141.666 -1.85789 0.805532 0
M  V30 1468 C 141.994 -1.82649 -0.668561 0
M  V30 1469 O 141.249 -1.24858 -1.50695 0
M  V30 1470 C 141.548 -3.34223 1.26609 0
M  V30 1471 C 141.214 -3.57555 2.74709 0
M  V30 1472 C 139.876 -3.63631 3.1516 0
M  V30 1473 C 142.228 -3.66803 3.70277 0
M  V30 1474 C 139.556 -3.76473 4.49983 0
M  V30 1475 C 141.908 -3.8117 5.04869 0
M  V30 1476 C 140.572 -3.85494 5.44932 0
M  V30 1477 H 139.842 -0.679849 0.294765 0
M  V30 1478 H 142.489 -1.3572 1.35101 0
M  V30 1479 H 140.794 -3.86536 0.640103 0
M  V30 1480 H 142.491 -3.87511 1.03132 0
M  V30 1481 H 139.081 -3.5347 2.42398 0
M  V30 1482 H 143.265 -3.61404 3.40149 0
M  V30 1483 H 138.521 -3.7808 4.80484 0
M  V30 1484 H 142.695 -3.87268 5.78789 0
M  V30 1485 H 140.322 -3.95197 6.49403 0
M  V30 1486 N 141.898 -0.863906 -1.31812 0
M  V30 1487 C 143.314 -0.555004 -1.49639 0
M  V30 1488 C 143.514 0.912266 -1.79666 0
M  V30 1489 O 142.57 1.69479 -1.87171 0
M  V30 1490 C 143.883 -1.44998 -2.63431 0
M  V30 1491 C 145.431 -1.45138 -2.77316 0
M  V30 1492 C 145.906 -2.33179 -3.94197 0
M  V30 1493 N 147.397 -2.31025 -4.01474 0
M  V30 1494 C 148.132 -2.95871 -4.9117 0
M  V30 1495 N 147.628 -3.69863 -5.8581 0
M  V30 1496 N 149.421 -2.85211 -4.84367 0
M  V30 1497 H 141.572 -1.81339 -1.10589 0
M  V30 1498 H 143.835 -0.77505 -0.545895 0
M  V30 1499 H 143.541 -2.49377 -2.48 0
M  V30 1500 H 143.415 -1.14409 -3.59431 0
M  V30 1501 H 145.802 -0.415201 -2.92164 0
M  V30 1502 H 145.883 -1.79747 -1.82001 0
M  V30 1503 H 145.527 -3.3687 -3.80107 0
M  V30 1504 H 145.457 -1.95897 -4.88807 0
M  V30 1505 H 147.948 -1.77238 -3.33759 0
M  V30 1506 H 148.261 -4.16486 -6.50968 0
M  V30 1507 H 146.606 -3.73971 -5.85808 0
M  V30 1508 H 149.797 -2.26948 -4.09405 0
M  V30 1509 H 149.97 -3.36027 -5.54066 0
M  V30 1510 N 143.376 1.44774 -0.622745 0
M  V30 1511 C 144.601 2.06999 -0.128968 0
M  V30 1512 C 145.026 1.4617 1.1839 0
M  V30 1513 O 144.384 0.560007 1.72434 0
M  V30 1514 C 144.432 3.60595 -0.0188351 0
M  V30 1515 O 143.536 3.99398 1.02739 0
M  V30 1516 H 142.877 0.659047 -0.0809544 0
M  V30 1517 H 145.407 1.85784 -0.85705 0
M  V30 1518 H 145.417 4.07627 0.174476 0
M  V30 1519 H 144.092 4.04252 -0.977384 0
M  V30 1520 H 142.669 3.64011 0.809326 0
M  V30 1521 N 144.854 0.36279 1.53368 0
M  V30 1522 C 146.101 -0.227776 2.01215 0
M  V30 1523 C 146.429 -1.49003 1.25014 0
M  V30 1524 O 145.684 -1.92876 0.331236 0
M  V30 1525 C 145.983 -0.568417 3.52851 0
M  V30 1526 C 145.649 0.59918 4.46901 0
M  V30 1527 C 144.311 0.919559 4.72332 0
M  V30 1528 C 146.663 1.38156 5.02556 0
M  V30 1529 C 143.991 2.02434 5.5067 0
M  V30 1530 C 146.343 2.47674 5.821 0
M  V30 1531 C 145.007 2.8025 6.05819 0
M  V30 1532 H 144.277 -0.083349 0.736297 0
M  V30 1533 H 146.924 0.494677 1.85001 0
M  V30 1534 H 145.229 -1.37185 3.66998 0
M  V30 1535 H 146.926 -1.03756 3.87344 0
M  V30 1536 H 143.516 0.339437 4.27254 0
M  V30 1537 H 147.7 1.14729 4.82857 0
M  V30 1538 H 142.956 2.28075 5.67267 0
M  V30 1539 H 147.13 3.08716 6.24234 0
M  V30 1540 H 144.757 3.65979 6.66306 0
M  V30 1541 N 146.332 -1.57332 0.0918853 0
M  V30 1542 C 147.609 -1.85691 -0.614668 0
M  V30 1543 C 147.989 -0.988146 -1.86545 0
M  V30 1544 O 147.337 -0.0597055 -2.28422 0
M  V30 1545 C 147.547 -3.36294 -0.933126 0
M  V30 1546 C 148.895 -4.04275 -1.29796 0
M  V30 1547 O 149.919 -3.41157 -1.02424 0
M  V30 1548 O 148.778 -5.1564 -1.81047 0
M  V30 1549 H 145.872 -0.767802 -0.307261 0
M  V30 1550 H 148.418 -1.69244 0.12434 0
M  V30 1551 H 147.19 -3.91273 -0.0456404 0
M  V30 1552 H 146.813 -3.58076 -1.72822 0
M  V30 1553 N 147.81 0.181792 -1.56548 0
M  V30 1554 C 148.773 1.20894 -1.94724 0
M  V30 1555 C 149.773 1.37738 -0.829747 0
M  V30 1556 O 150.963 1.35323 -1.09697 0
M  V30 1557 C 148.095 2.57593 -2.23291 0
M  V30 1558 H 149.288 0.882275 -2.86629 0
M  V30 1559 H 146.841 0.423838 -1.50444 0
M  V30 1560 H 147.576 2.95291 -1.34067 0
M  V30 1561 H 147.361 2.46735 -3.04736 0
M  V30 1562 H 148.851 3.31637 -2.53785 0
M  V30 1563 N 149.288 1.51039 0.449983 0
M  V30 1564 C 150.218 1.74379 1.55288 0
M  V30 1565 C 151.199 0.593236 1.5942 0
M  V30 1566 O 152.384 0.834625 1.7535 0
M  V30 1567 C 149.514 1.85728 2.93466 0
M  V30 1568 C 148.468 3.01078 3.04197 0
M  V30 1569 C 147.794 2.97595 4.44231 0
M  V30 1570 C 149.094 4.41254 2.7945 0
M  V30 1571 H 150.788 2.66725 1.36008 0
M  V30 1572 H 148.334 1.2835 0.652864 0
M  V30 1573 H 150.287 2.0064 3.70569 0
M  V30 1574 H 149.011 0.900207 3.13949 0
M  V30 1575 H 147.67 2.85851 2.29531 0
M  V30 1576 H 147.318 1.99691 4.61663 0
M  V30 1577 H 147.018 3.75046 4.52343 0
M  V30 1578 H 148.542 3.14583 5.23326 0
M  V30 1579 H 149.956 4.56897 3.46292 0
M  V30 1580 H 148.353 5.20315 2.98985 0
M  V30 1581 H 149.423 4.52164 1.75144 0
M  V30 1582 N 150.766 -0.704594 1.40972 0
M  V30 1583 C 151.696 -1.83124 1.44872 0
M  V30 1584 C 152.677 -1.67281 0.30838 0
M  V30 1585 O 153.862 -1.87149 0.518556 0
M  V30 1586 C 150.992 -3.21181 1.32136 0
M  V30 1587 C 149.946 -3.51714 2.43888 0
M  V30 1588 C 149.272 -4.89032 2.16222 0
M  V30 1589 C 150.572 -3.516 3.86232 0
M  V30 1590 H 152.266 -1.80117 2.39161 0
M  V30 1591 H 149.812 -0.865145 1.15114 0
M  V30 1592 H 151.765 -3.99702 1.33479 0
M  V30 1593 H 150.489 -3.24791 0.343279 0
M  V30 1594 H 149.148 -2.75539 2.41813 0
M  V30 1595 H 148.796 -4.89256 1.16778 0
M  V30 1596 H 148.496 -5.10426 2.911 0
M  V30 1597 H 150.02 -5.69873 2.19265 0
M  V30 1598 H 151.434 -4.2014 3.9007 0
M  V30 1599 H 149.831 -3.84523 4.60719 0
M  V30 1600 H 150.901 -2.50757 4.15029 0
M  V30 1601 N 152.244 -1.26651 -0.937939 0
M  V30 1602 C 153.493 -1.11775 -1.67897 0
M  V30 1603 C 153.806 0.33794 -1.92659 0
M  V30 1604 O 155.012 0.607434 -2.64618 0
M  V30 1605 C 153.468 -1.9523 -3.02346 0
M  V30 1606 C 153.076 -3.45393 -2.8532 0
M  V30 1607 C 154.82 -1.88972 -3.80118 0
M  V30 1608 C 152.727 -4.21083 -4.15263 0
M  V30 1609 H 151.657 -0.414696 -0.629717 0
M  V30 1610 H 154.308 -1.50988 -1.04283 0
M  V30 1611 H 152.69 -1.48853 -3.66959 0
M  V30 1612 H 153.864 -3.99561 -2.29537 0
M  V30 1613 H 152.179 -3.52921 -2.20988 0
M  V30 1614 H 154.776 -2.42805 -4.76392 0
M  V30 1615 H 155.119 -0.86113 -4.07296 0
M  V30 1616 H 155.652 -2.33189 -3.22285 0
M  V30 1617 H 152.391 -5.24425 -3.93267 0
M  V30 1618 H 151.911 -3.71695 -4.70747 0
M  V30 1619 H 153.59 -4.29706 -4.83696 0
M  V30 1620 N 153.722 1.14298 -1.08507 0
M  V30 1621 C 154.632 2.23027 -0.727753 0
M  V30 1622 C 155.648 1.71952 0.26619 0
M  V30 1623 O 156.824 2.011 0.109882 0
M  V30 1624 C 153.889 3.46403 -0.143541 0
M  V30 1625 C 152.95 4.12413 -1.19223 0
M  V30 1626 C 152.183 5.29899 -0.635798 0
M  V30 1627 O 152.406 5.67796 0.544393 0
M  V30 1628 O 151.34 5.85717 -1.38634 0
M  V30 1629 H 155.166 2.55945 -1.63481 0
M  V30 1630 H 152.751 1.22248 -0.858817 0
M  V30 1631 H 154.633 4.21018 0.179404 0
M  V30 1632 H 153.308 3.15206 0.736659 0
M  V30 1633 H 152.215 3.39667 -1.56772 0
M  V30 1634 H 153.548 4.47718 -2.04474 0
M  V30 1635 N 155.201 0.870884 1.31352 0
M  V30 1636 C 156.131 0.343096 2.30966 0
M  V30 1637 C 157.112 -0.566507 1.60389 0
M  V30 1638 O 158.297 -0.483336 1.88089 0
M  V30 1639 C 155.427 -0.455487 3.443 0
M  V30 1640 C 154.381 0.361103 4.26474 0
M  V30 1641 C 153.707 -0.563221 5.31725 0
M  V30 1642 C 155.007 1.59566 4.97329 0
M  V30 1643 H 156.701 1.17548 2.75359 0
M  V30 1644 H 154.247 0.566686 1.32381 0
M  V30 1645 H 156.2 -0.83525 4.13039 0
M  V30 1646 H 154.924 -1.32139 2.98675 0
M  V30 1647 H 153.583 0.722825 3.59403 0
M  V30 1648 H 153.231 -1.42643 4.82351 0
M  V30 1649 H 152.931 -0.0207409 5.87596 0
M  V30 1650 H 154.455 -0.939808 6.03324 0
M  V30 1651 H 155.869 1.28728 5.58661 0
M  V30 1652 H 154.266 2.07728 5.63 0
M  V30 1653 H 155.336 2.34798 4.24262 0
M  V30 1654 N 156.679 -1.44442 0.630414 0
M  V30 1655 C 157.907 -2.06414 0.141671 0
M  V30 1656 C 158.322 -1.47105 -1.18345 0
M  V30 1657 O 157.679 -0.593662 -1.72574 0
M  V30 1658 C 157.73 -3.61494 0.0199784 0
M  V30 1659 O 157.451 -4.18594 1.29269 0
M  V30 1660 C 158.952 -4.40499 -0.497544 0
M  V30 1661 H 156.172 -0.666292 0.0793452 0
M  V30 1662 H 158.716 -1.85323 0.864614 0
M  V30 1663 H 156.871 -3.8185 -0.653402 0
M  V30 1664 H 157.285 -5.12026 1.13707 0
M  V30 1665 H 158.759 -5.49433 -0.531708 0
M  V30 1666 H 159.236 -4.11895 -1.52445 0
M  V30 1667 H 159.842 -4.25061 0.142562 0
M  V30 1668 N 158.157 -0.370918 -1.53173 0
M  V30 1669 C 159.573 -0.0200818 -1.59587 0
M  V30 1670 C 159.773 1.46279 -1.38581 0
M  V30 1671 O 158.829 2.22506 -1.19363 0
M  V30 1672 C 160.142 -0.4808 -2.96831 0
M  V30 1673 C 161.69 -0.435477 -3.09956 0
M  V30 1674 C 162.165 -0.872092 -4.4962 0
M  V30 1675 N 163.656 -0.827364 -4.55751 0
M  V30 1676 C 164.391 -1.13683 -5.62018 0
M  V30 1677 N 163.887 -1.51584 -6.76014 0
M  V30 1678 N 165.68 -1.05927 -5.52029 0
M  V30 1679 H 157.831 -1.33652 -1.65079 0
M  V30 1680 H 160.094 -0.546634 -0.774529 0
M  V30 1681 H 159.8 -1.51577 -3.1736 0
M  V30 1682 H 159.674 0.129796 -3.76977 0
M  V30 1683 H 162.061 0.590371 -2.89134 0
M  V30 1684 H 162.142 -1.08164 -2.31806 0
M  V30 1685 H 161.786 -1.89608 -4.71181 0
M  V30 1686 H 161.716 -0.203127 -5.26208 0
M  V30 1687 H 164.207 -0.548216 -3.73902 0
M  V30 1688 H 164.52 -1.73609 -7.53047 0
M  V30 1689 H 162.865 -1.55454 -6.77391 0
M  V30 1690 H 166.056 -0.762321 -4.61851 0
M  V30 1691 H 166.229 -1.30378 -6.34749 0
M  V30 1692 N 159.635 1.57281 -0.100228 0
M  V30 1693 C 160.86 1.99302 0.573881 0
M  V30 1694 C 161.285 0.979059 1.60611 0
M  V30 1695 O 160.643 -0.0517803 1.81226 0
M  V30 1696 C 160.691 3.40274 1.19358 0
M  V30 1697 O 159.795 3.41676 2.30935 0
M  V30 1698 H 159.136 0.647944 0.145138 0
M  V30 1699 H 161.666 2.03779 -0.183156 0
M  V30 1700 H 161.676 3.78078 1.53365 0
M  V30 1701 H 160.351 4.13594 0.437385 0
M  V30 1702 H 158.928 3.15672 1.98509 0
M  V30 1703 N 161.113 -0.173488 1.56642 0
M  V30 1704 C 162.043 -1.2171 1.99271 0
M  V30 1705 C 163.024 -1.46289 0.867959 0
M  V30 1706 O 164.209 -1.5766 1.13388 0
M  V30 1707 C 161.339 -2.55651 2.35074 0
M  V30 1708 C 160.293 -2.45645 3.50489 0
M  V30 1709 C 159.619 -3.84056 3.72028 0
M  V30 1710 C 160.919 -1.96302 4.84007 0
M  V30 1711 H 162.613 -0.86275 2.867 0
M  V30 1712 H 160.159 -0.413571 1.37933 0
M  V30 1713 H 162.112 -3.2886 2.63494 0
M  V30 1714 H 160.836 -2.92869 1.44552 0
M  V30 1715 H 159.495 -1.7489 3.22194 0
M  V30 1716 H 159.143 -4.18664 2.788 0
M  V30 1717 H 158.843 -3.7823 4.49684 0
M  V30 1718 H 160.367 -4.58854 4.02846 0
M  V30 1719 H 161.781 -2.59284 5.11317 0
M  V30 1720 H 160.178 -2.01429 5.65284 0
M  V30 1721 H 161.248 -0.917226 4.76146 0
M  V30 1722 N 162.591 -1.51276 -0.441967 0
M  V30 1723 C 163.816 -1.67799 -1.21895 0
M  V30 1724 C 164.241 -0.372864 -1.84367 0
M  V30 1725 O 163.599 0.666501 -1.68604 0
M  V30 1726 C 163.647 -2.79199 -2.28211 0
M  V30 1727 O 162.751 -2.42479 -3.33583 0
M  V30 1728 H 162.092 -0.559649 -0.357336 0
M  V30 1729 H 164.622 -1.97815 -0.522522 0
M  V30 1730 H 164.632 -3.03146 -2.73069 0
M  V30 1731 H 163.307 -3.73906 -1.82118 0
M  V30 1732 H 161.884 -2.29087 -2.94234 0
M  V30 1733 N 164.069 0.697108 -1.41344 0
M  V30 1734 C 165.346 1.45154 -1.31109 0
M  V30 1735 C 165.726 2.11009 0.0620449 0
M  V30 1736 O 165.074 2.01571 1.07618 0
M  V30 1737 C 165.284 2.47223 -2.46337 0
M  V30 1738 C 166.632 3.1252 -2.87431 0
M  V30 1739 O 167.656 2.57547 -2.46065 0
M  V30 1740 O 166.515 4.12083 -3.58957 0
M  V30 1741 H 163.609 0.646365 -0.515889 0
M  V30 1742 H 166.155 0.727716 -1.53305 0
M  V30 1743 H 164.927 1.97204 -3.37974 0
M  V30 1744 H 164.55 3.27116 -2.2601 0
M  V30 1745 N 165.547 1.27147 0.931209 0
M  V30 1746 C 166.495 1.09398 2.05268 0
M  V30 1747 C 167.489 0.0180591 1.6939 0
M  V30 1748 O 168.695 0.17551 1.79142 0
M  V30 1749 H 165.07 0.336986 0.672268 0
M  V30 1750 H 167.041 2.04416 2.17386 0
M  V30 1751 C 165.79 0.75424 3.39421 0
M  V30 1752 H 165.113 1.57404 3.67511 0
M  V30 1753 H 166.553 0.669903 4.18674 0
M  V30 1754 C 165.012 -0.541197 3.32525 0
M  V30 1755 O 165.542 -1.57664 3.69466 0
M  V30 1756 N 163.748 -0.535517 2.85623 0
M  V30 1757 H 163.295 0.307511 2.55758 0
M  V30 1758 H 163.253 -1.40236 2.81392 0
M  V30 1759 N 167.025 -1.13721 1.09112 0
M  V30 1760 C 168.271 -1.85198 0.826414 0
M  V30 1761 C 168.604 -1.83129 -0.646319 0
M  V30 1762 O 167.879 -1.2671 -1.47563 0
M  V30 1763 C 168.162 -3.33507 1.35812 0
M  V30 1764 C 168.015 -3.44108 2.89672 0
M  V30 1765 C 169.334 -4.28838 0.989256 0
M  V30 1766 H 166.453 -0.67243 0.301675 0
M  V30 1767 H 169.095 -1.33499 1.35197 0
M  V30 1768 H 167.245 -3.77666 0.911082 0
M  V30 1769 H 168.917 -3.08684 3.428 0
M  V30 1770 H 167.16 -2.85087 3.26967 0
M  V30 1771 H 167.831 -4.48388 3.21951 0
M  V30 1772 H 170.307 -3.92734 1.37475 0
M  V30 1773 H 169.183 -5.31051 1.38838 0
M  V30 1774 H 169.444 -4.4198 -0.102924 0
M  V30 1775 N 168.503 -0.877838 -1.30888 0
M  V30 1776 C 169.451 -0.328662 -2.30266 0
M  V30 1777 C 170.445 0.560496 -1.59859 0
M  V30 1778 O 171.651 0.445722 -1.74394 0
M  V30 1779 H 168.026 -0.0876142 -0.746879 0
M  V30 1780 H 169.997 -1.18061 -2.74051 0
M  V30 1781 C 168.746 0.448071 -3.44801 0
M  V30 1782 H 168.069 -0.226859 -3.99156 0
M  V30 1783 H 169.509 0.797541 -4.16432 0
M  V30 1784 C 167.968 1.64239 -2.94155 0
M  V30 1785 O 168.498 2.74175 -2.93583 0
M  V30 1786 N 166.704 1.47716 -2.50256 0
M  V30 1787 H 166.251 0.582821 -2.5092 0
M  V30 1788 H 166.209 2.27765 -2.16727 0
M  V30 1789 N 169.982 1.44106 -0.638065 0
M  V30 1790 C 170.912 2.33448 0.0494287 0
M  V30 1791 C 171.893 1.48606 0.827672 0
M  V30 1792 O 173.078 1.77308 0.792173 0
M  V30 1793 C 170.208 3.31771 1.02691 0
M  V30 1794 C 169.162 4.26485 0.359823 0
M  V30 1795 C 168.488 5.14729 1.44769 0
M  V30 1796 C 169.788 5.17056 -0.738296 0
M  V30 1797 H 171.482 2.91183 -0.696636 0
M  V30 1798 H 169.028 1.40014 -0.336456 0
M  V30 1799 H 170.981 3.93161 1.51666 0
M  V30 1800 H 169.705 2.7226 1.80395 0
M  V30 1801 H 168.364 3.66437 -0.10934 0
M  V30 1802 H 168.012 4.51566 2.21578 0
M  V30 1803 H 167.712 5.78913 1.00668 0
M  V30 1804 H 169.236 5.78991 1.93911 0
M  V30 1805 H 170.65 5.72342 -0.331354 0
M  V30 1806 H 169.047 5.89879 -1.10286 0
M  V30 1807 H 170.117 4.57652 -1.60258 0
M  V30 1808 N 171.46 0.379036 1.52974 0
M  V30 1809 C 172.871 -0.0972525 1.86447 0
M  V30 1810 C 173.222 -1.47027 1.29914 0
M  V30 1811 O 172.347 -2.07135 0.626433 0
M  V30 1812 C 172.942 -0.183248 3.38304 0
M  V30 1813 C 171.501 -0.603812 3.71525 0
M  V30 1814 C 170.648 0.240632 2.76254 0
M  V30 1815 H 173.599 0.597316 1.4703 0
M  V30 1816 H 173.62 -1.00432 3.67006 0
M  V30 1817 H 173.132 0.816191 3.79421 0
M  V30 1818 H 171.233 -1.61099 3.35973 0
M  V30 1819 H 171.346 -0.369086 4.77676 0
M  V30 1820 H 169.71 -0.292548 2.53014 0
M  V30 1821 H 170.493 1.23786 3.20206 0
M  V30 1822 N 172.938 -1.57226 0.108567 0
M  V30 1823 C 173.87 -2.11809 -0.875752 0
M  V30 1824 C 174.883 -1.05839 -1.23701 0
M  V30 1825 O 176.072 -1.33245 -1.18778 0
M  V30 1826 C 173.172 -2.59411 -2.18081 0
M  V30 1827 C 172.345 -3.89364 -1.99284 0
M  V30 1828 C 171.404 -4.22672 -3.13424 0
M  V30 1829 O 170.43 -4.91668 -2.86795 0
M  V30 1830 N 171.632 -3.79154 -4.3957 0
M  V30 1831 H 174.397 -2.9689 -0.409477 0
M  V30 1832 H 171.958 -1.61721 -0.076158 0
M  V30 1833 H 173.95 -2.7873 -2.93414 0
M  V30 1834 H 172.52 -1.79268 -2.5609 0
M  V30 1835 H 171.74 -3.79059 -1.08203 0
M  V30 1836 H 173.028 -4.74358 -1.84017 0
M  V30 1837 H 172.426 -3.23486 -4.64083 0
M  V30 1838 H 170.983 -4.03602 -5.11809 0
M  V30 1839 N 174.416 0.165178 -1.56732 0
M  V30 1840 C 175.664 0.879068 -1.8198 0
M  V30 1841 C 175.985 1.82514 -0.686561 0
M  V30 1842 O 175.255 1.93694 0.293146 0
M  V30 1843 H 173.835 0.327608 -0.671329 0
M  V30 1844 H 176.497 0.163526 -1.94213 0
M  V30 1845 H 175.593 1.45228 -2.76252 0
M  V30 1846 N 175.894 1.51508 0.433938 0
M  V30 1847 C 177.14 1.64588 1.18484 0
M  V30 1848 C 177.473 0.362666 1.90784 0
M  V30 1849 O 176.748 -0.637892 1.83742 0
M  V30 1850 C 177.031 2.85149 2.19913 0
M  V30 1851 C 176.884 4.23456 1.51674 0
M  V30 1852 C 178.203 3.01227 3.20858 0
M  V30 1853 H 175.322 0.598994 0.429389 0
M  V30 1854 H 177.964 1.84002 0.473647 0
M  V30 1855 H 176.114 2.68729 2.80566 0
M  V30 1856 H 177.786 4.51552 0.943322 0
M  V30 1857 H 176.029 4.25998 0.819035 0
M  V30 1858 H 176.7 5.03812 2.2556 0
M  V30 1859 H 179.176 3.16382 2.70263 0
M  V30 1860 H 178.052 3.87141 3.89118 0
M  V30 1861 H 178.313 2.13447 3.8716 0
M  V30 1862 N 177.372 -0.689602 1.41712 0
M  V30 1863 C 178.788 -1.00093 1.24312 0
M  V30 1864 C 178.988 -2.01036 0.136729 0
M  V30 1865 O 178.044 -2.47562 -0.496918 0
M  V30 1866 C 179.357 -1.51985 2.59463 0
M  V30 1867 C 180.905 -1.63838 2.66695 0
M  V30 1868 C 181.38 -2.1913 4.02177 0
M  V30 1869 N 182.871 -2.26483 4.04054 0
M  V30 1870 C 183.606 -2.70306 5.0569 0
M  V30 1871 N 183.102 -3.13691 6.17713 0
M  V30 1872 N 184.895 -2.69923 4.9305 0
M  V30 1873 H 177.046 -0.0210029 2.1239 0
M  V30 1874 H 179.309 -0.0718733 0.945272 0
M  V30 1875 H 179.015 -0.85269 3.41207 0
M  V30 1876 H 178.889 -2.50103 2.82362 0
M  V30 1877 H 181.276 -2.29664 1.85306 0
M  V30 1878 H 181.357 -0.642492 2.476 0
M  V30 1879 H 181.001 -1.53918 4.84016 0
M  V30 1880 H 180.931 -3.19482 4.18615 0
M  V30 1881 H 183.422 -1.95874 3.23174 0
M  V30 1882 H 183.735 -3.45773 6.9113 0
M  V30 1883 H 182.08 -3.11585 6.21241 0
M  V30 1884 H 185.271 -2.35382 4.04614 0
M  V30 1885 H 185.444 -3.03758 5.72394 0
M  V30 1886 N 178.85 -1.27639 -0.924453 0
M  V30 1887 C 180.078 -1.16989 -1.70649 0
M  V30 1888 C 180.493 0.272869 -1.86818 0
M  V30 1889 O 179.85 1.18549 -1.38753 0
M  V30 1890 C 179.901 -1.85229 -3.10439 0
M  V30 1891 O 179.622 -3.23868 -2.95028 0
M  V30 1892 C 181.123 -1.80746 -4.04779 0
M  V30 1893 H 178.343 -0.406595 -0.53378 0
M  V30 1894 H 180.887 -1.68569 -1.15778 0
M  V30 1895 H 179.042 -1.37545 -3.6216 0
M  V30 1896 H 179.456 -3.57889 -3.83426 0
M  V30 1897 H 180.93 -2.33101 -5.00368 0
M  V30 1898 H 181.407 -0.777499 -4.32263 0
M  V30 1899 H 182.013 -2.28059 -3.58984 0
M  V30 1900 N 180.328 1.1314 -1.09713 0
M  V30 1901 C 181.577 1.83838 -0.829851 0
M  V30 1902 C 181.89 1.84599 0.646728 0
M  V30 1903 O 183.096 2.51218 1.02965 0
M  V30 1904 C 181.552 3.30069 -1.43466 0
M  V30 1905 C 181.16 3.37688 -2.94399 0
M  V30 1906 C 182.904 4.05788 -1.24645 0
M  V30 1907 C 180.811 4.78209 -3.47952 0
M  V30 1908 H 179.741 0.68877 -0.306777 0
M  V30 1909 H 182.392 1.27448 -1.3202 0
M  V30 1910 H 180.774 3.8628 -0.871996 0
M  V30 1911 H 181.948 2.91456 -3.56918 0
M  V30 1912 H 180.263 2.75436 -3.12289 0
M  V30 1913 H 182.86 5.09535 -1.62107 0
M  V30 1914 H 183.203 4.15878 -0.187357 0
M  V30 1915 H 183.736 3.55915 -1.77678 0
M  V30 1916 H 180.475 4.73311 -4.53495 0
M  V30 1917 H 179.995 5.24924 -2.90198 0
M  V30 1918 H 181.674 5.47133 -3.45332 0
M  V30 1919 N 181.806 0.884767 1.30421 0
M  V30 1920 C 183.036 0.517293 2.00019 0
M  V30 1921 C 183.444 -0.898632 1.66497 0
M  V30 1922 O 182.787 -1.60245 0.898181 0
M  V30 1923 C 182.849 0.612025 3.54252 0
M  V30 1924 C 182.513 1.99222 4.1129 0
M  V30 1925 C 183.51 2.9616 4.273 0
M  V30 1926 C 181.195 2.29755 4.46674 0
M  V30 1927 C 183.189 4.21764 4.77906 0
M  V30 1928 C 180.876 3.55606 4.96979 0
M  V30 1929 C 181.874 4.51425 5.12547 0
M  V30 1930 O 181.562 5.75043 5.61766 0
M  V30 1931 H 181.294 0.198529 0.64619 0
M  V30 1932 H 183.848 1.1919 1.67281 0
M  V30 1933 H 182.078 -0.119561 3.86515 0
M  V30 1934 H 183.767 0.255859 4.05093 0
M  V30 1935 H 184.533 2.73882 4.00267 0
M  V30 1936 H 180.412 1.55942 4.33824 0
M  V30 1937 H 183.956 4.96561 4.89972 0
M  V30 1938 H 179.853 3.7772 5.23448 0
M  V30 1939 H 180.621 5.77422 5.80109 0
M  V30 1940 N 183.284 -1.43765 0.645699 0
M  V30 1941 C 184.512 -2.06253 0.163556 0
M  V30 1942 C 184.927 -1.48352 -1.16778 0
M  V30 1943 O 184.284 -0.611932 -1.71935 0
M  V30 1944 C 184.335 -3.61453 0.0583186 0
M  V30 1945 O 184.056 -4.172 1.33702 0
M  V30 1946 C 185.557 -4.41002 -0.450795 0
M  V30 1947 H 182.777 -0.665413 0.0864077 0
M  V30 1948 H 185.321 -1.84396 0.884222 0
M  V30 1949 H 183.476 -3.82522 -0.612865 0
M  V30 1950 H 183.89 -5.10791 1.19131 0
M  V30 1951 H 185.364 -5.49966 -0.473403 0
M  V30 1952 H 185.841 -4.13488 -1.48068 0
M  V30 1953 H 186.447 -4.24886 0.187637 0
M  V30 1954 N 184.763 -0.387143 -1.52771 0
M  V30 1955 C 186.012 0.19697 -2.00736 0
M  V30 1956 C 186.325 1.48082 -1.27793 0
M  V30 1957 O 187.531 2.14485 -1.66458 0
M  V30 1958 C 185.987 0.401568 -3.57653 0
M  V30 1959 C 185.595 -0.868907 -4.39493 0
M  V30 1960 C 187.339 0.942164 -4.13912 0
M  V30 1961 C 185.246 -0.632705 -5.88006 0
M  V30 1962 H 184.176 0.0773827 -0.750019 0
M  V30 1963 H 186.827 -0.50921 -1.76293 0
M  V30 1964 H 185.209 1.16954 -3.78335 0
M  V30 1965 H 186.383 -1.64133 -4.30577 0
M  V30 1966 H 184.698 -1.33429 -3.94443 0
M  V30 1967 H 187.295 1.13455 -5.22525 0
M  V30 1968 H 187.638 1.9106 -3.69867 0
M  V30 1969 H 188.171 0.233814 -3.97112 0
M  V30 1970 H 184.91 -1.57208 -6.36369 0
M  V30 1971 H 184.43 0.100825 -5.99715 0
M  V30 1972 H 186.109 -0.26642 -6.46451 0
M  V30 1973 N 186.241 1.57166 -0.116904 0
M  V30 1974 C 187.518 1.86645 0.585049 0
M  V30 1975 C 187.898 1.0177 1.84949 0
M  V30 1976 O 187.246 0.0960379 2.28298 0
M  V30 1977 C 187.456 3.37736 0.879507 0
M  V30 1978 C 188.804 4.06289 1.23348 0
M  V30 1979 O 189.828 3.42743 0.969836 0
M  V30 1980 O 188.687 5.18455 1.7282 0
M  V30 1981 H 185.781 0.772593 0.295007 0
M  V30 1982 H 188.327 1.69025 -0.151249 0
M  V30 1983 H 187.099 3.91296 -0.0166136 0
M  V30 1984 H 186.722 3.6078 1.67103 0
M  V30 1985 N 187.719 -0.156864 1.56817 0
M  V30 1986 C 188.967 -0.869404 1.82444 0
M  V30 1987 C 189.288 -1.82147 0.69623 0
M  V30 1988 O 188.558 -1.93847 -0.28287 0
M  V30 1989 H 187.138 -0.324043 0.673056 0
M  V30 1990 H 189.8 -0.153224 1.94297 0
M  V30 1991 H 188.896 -1.43761 2.77019 0
M  V30 1992 N 189.197 -1.51736 -0.425897 0
M  V30 1993 C 190.422 -1.69082 -1.20108 0
M  V30 1994 C 190.847 -0.392398 -1.83962 0
M  V30 1995 O 190.205 0.64858 -1.69302 0
M  V30 1996 C 190.253 -2.81604 -2.25237 0
M  V30 1997 O 189.357 -2.46004 -3.30992 0
M  V30 1998 H 188.698 -0.563408 -0.35138 0
M  V30 1999 H 191.228 -1.98358 -0.501512 0
M  V30 2000 H 191.238 -3.06025 -2.69838 0
M  V30 2001 H 189.913 -3.75817 -1.78142 0
M  V30 2002 H 188.49 -2.32195 -2.91787 0
M  V30 2003 N 190.675 0.682077 -1.42076 0
M  V30 2004 C 192.091 0.994324 -1.24841 0
M  V30 2005 C 192.291 2.0096 -0.147389 0
M  V30 2006 O 191.347 2.47822 0.483782 0
M  V30 2007 C 192.66 1.50607 -2.60265 0
M  V30 2008 C 194.208 1.62421 -2.6756 0
M  V30 2009 C 194.683 2.16994 -4.03333 0
M  V30 2010 N 196.174 2.24337 -4.0525 0
M  V30 2011 C 196.909 2.67621 -5.07116 0
M  V30 2012 N 196.405 3.1041 -6.19368 0
M  V30 2013 N 198.198 2.67305 -4.94474 0
M  V30 2014 H 190.349 0.00973908 -2.12398 0
M  V30 2015 H 192.612 0.0668593 -0.945639 0
M  V30 2016 H 192.318 0.834583 -3.41654 0
M  V30 2017 H 192.192 2.48602 -2.83684 0
M  V30 2018 H 194.579 2.28678 -1.86521 0
M  V30 2019 H 194.66 0.629352 -2.47937 0
M  V30 2020 H 194.304 1.51349 -4.84826 0
M  V30 2021 H 194.234 3.17258 -4.20304 0
M  V30 2022 H 196.725 1.94158 -3.24209 0
M  V30 2023 H 197.038 3.42103 -6.92954 0
M  V30 2024 H 195.383 3.08286 -6.22884 0
M  V30 2025 H 198.574 2.33233 -4.05857 0
M  V30 2026 H 198.747 3.00718 -5.73997 0
M  V30 2027 N 192.153 1.28127 0.917671 0
M  V30 2028 C 193.1 1.11717 2.0196 0
M  V30 2029 C 194.07 0.0153929 1.66093 0
M  V30 2030 O 195.255 0.179596 1.89953 0
M  V30 2031 C 192.395 0.780927 3.36148 0
M  V30 2032 C 191.508 1.96135 3.84909 0
M  V30 2033 C 190.643 1.56609 5.0759 0
M  V30 2034 C 189.682 2.71339 5.48673 0
M  V30 2035 N 188.819 2.32332 6.62545 0
M  V30 2036 H 193.659 2.06003 2.15329 0
M  V30 2037 H 191.196 1.02535 1.05475 0
M  V30 2038 H 193.154 0.56675 4.13333 0
M  V30 2039 H 191.784 -0.124998 3.22558 0
M  V30 2040 H 190.836 2.28777 3.03916 0
M  V30 2041 H 192.148 2.82165 4.1132 0
M  V30 2042 H 191.302 1.31374 5.92305 0
M  V30 2043 H 190.041 0.677014 4.82978 0
M  V30 2044 H 189.046 2.97276 4.62501 0
M  V30 2045 H 190.271 3.60882 5.75274 0
M  V30 2046 H 188.217 1.45889 6.39572 0
M  V30 2047 H 188.134 3.11899 6.88662 0
M  V30 2048 H 189.402 2.10371 7.50576 0
M  V30 2049 N 193.631 -1.12557 1.10312 0
M  V30 2050 C 194.877 -1.84311 0.846011 0
M  V30 2051 C 195.21 -1.83805 -0.626859 0
M  V30 2052 O 194.485 -1.28268 -1.46211 0
M  V30 2053 C 194.768 -3.32048 1.39341 0
M  V30 2054 C 194.621 -3.41016 2.93305 0
M  V30 2055 C 195.94 -4.27764 1.03468 0
M  V30 2056 H 193.059 -0.669192 0.30879 0
M  V30 2057 H 195.701 -1.32057 1.36605 0
M  V30 2058 H 193.851 -3.76678 0.951087 0
M  V30 2059 H 195.523 -3.05031 3.46055 0
M  V30 2060 H 193.766 -2.81603 3.29973 0
M  V30 2061 H 194.437 -4.44948 3.26689 0
M  V30 2062 H 196.913 -3.91253 1.41633 0
M  V30 2063 H 195.789 -5.29549 1.44463 0
M  V30 2064 H 196.05 -4.42064 -0.0560404 0
M  V30 2065 N 195.109 -0.891671 -1.2995 0
M  V30 2066 C 196.337 -0.52866 -2.00032 0
M  V30 2067 C 196.752 0.884574 -1.66795 0
M  V30 2068 O 196.109 1.5827 -0.908669 0
M  V30 2069 C 196.16 -0.701814 -3.54622 0
M  V30 2070 O 195.881 -2.05942 -3.86678 0
M  V30 2071 C 197.382 -0.342683 -4.41973 0
M  V30 2072 H 194.602 -0.203659 -0.639347 0
M  V30 2073 H 197.146 -1.19881 -1.65677 0
M  V30 2074 H 195.301 -0.0789468 -3.8732 0
M  V30 2075 H 195.715 -2.08291 -4.81368 0
M  V30 2076 H 197.189 -0.514709 -5.49595 0
M  V30 2077 H 197.666 0.71975 -4.33262 0
M  V30 2078 H 198.272 -0.942154 -4.14733 0
M  V30 2079 N 196.587 1.43421 -0.653314 0
M  V30 2080 C 197.812 2.06678 -0.172846 0
M  V30 2081 C 198.237 1.48648 1.15262 0
M  V30 2082 O 197.595 0.596457 1.71208 0
M  V30 2083 C 197.643 3.60474 -0.0953184 0
M  V30 2084 O 196.747 4.01487 0.942442 0
M  V30 2085 H 196.088 0.657181 -0.0949155 0
M  V30 2086 H 198.618 1.83925 -0.896265 0
M  V30 2087 H 198.628 4.07905 0.0879728 0
M  V30 2088 H 197.303 4.02088 -1.06291 0
M  V30 2089 H 195.88 3.65646 0.731932 0
M  V30 2090 N 198.065 0.39524 1.52563 0
M  V30 2091 C 198.995 -0.428384 2.29537 0
M  V30 2092 C 199.976 -1.05831 1.33169 0
M  V30 2093 O 201.161 -1.06995 1.62067 0
M  V30 2094 C 198.291 -1.55274 3.10656 0
M  V30 2095 C 197.245 -1.04855 4.14957 0
M  V30 2096 C 196.571 -2.26543 4.84337 0
M  V30 2097 C 197.871 -0.112324 5.22179 0
M  V30 2098 H 199.565 0.213867 2.98635 0
M  V30 2099 H 197.111 0.104298 1.43622 0
M  V30 2100 H 199.064 -2.1358 3.63265 0
M  V30 2101 H 197.788 -2.22266 2.39302 0
M  V30 2102 H 196.447 -0.487985 3.63338 0
M  V30 2103 H 196.095 -2.92059 4.09525 0
M  V30 2104 H 195.795 -1.93466 5.54837 0
M  V30 2105 H 197.319 -2.85481 5.39753 0
M  V30 2106 H 198.733 -0.603752 5.70112 0
M  V30 2107 H 197.13 0.128968 5.99961 0
M  V30 2108 H 198.2 0.837052 4.77621 0
M  V30 2109 N 199.544 -1.57102 0.125237 0
M  V30 2110 C 200.821 -1.86953 -0.575142 0
M  V30 2111 C 201.201 -1.02749 -1.84407 0
M  V30 2112 O 200.549 -0.108144 -2.28244 0
M  V30 2113 C 200.759 -3.38198 -0.861583 0
M  V30 2114 C 202.107 -4.06937 -1.21192 0
M  V30 2115 O 203.131 -3.43252 -0.951645 0
M  V30 2116 O 201.99 -5.19364 -1.70068 0
M  V30 2117 H 199.084 -0.774147 -0.290906 0
M  V30 2118 H 201.63 -1.68942 0.160211 0
M  V30 2119 H 200.402 -3.91282 0.0373647 0
M  V30 2120 H 200.025 -3.61661 -1.65188 0
M  V30 2121 N 201.022 0.148545 -1.56898 0
M  V30 2122 C 201.932 1.20293 -2.01412 0
M  V30 2123 C 202.948 1.47107 -0.929273 0
M  V30 2124 O 204.124 1.58807 -1.23863 0
M  V30 2125 C 201.189 2.51682 -2.38447 0
M  V30 2126 C 200.25 2.32529 -3.60872 0
M  V30 2127 C 199.483 3.57653 -3.96132 0
M  V30 2128 O 199.706 4.63771 -3.32073 0
M  V30 2129 O 198.64 3.50408 -4.89385 0
M  V30 2130 H 202.466 0.855025 -2.91416 0
M  V30 2131 H 200.051 0.357151 -1.45068 0
M  V30 2132 H 201.933 3.29147 -2.63135 0
M  V30 2133 H 200.608 2.86006 -1.51599 0
M  V30 2134 H 199.515 1.53019 -3.41373 0
M  V30 2135 H 200.848 2.03121 -4.48333 0
M  V30 2136 N 202.5 1.5196 0.417844 0
M  V30 2137 C 203.43 1.77634 1.51554 0
M  V30 2138 C 204.411 0.626918 1.58126 0
M  V30 2139 O 205.596 0.871632 1.7354 0
M  V30 2140 C 202.726 1.91911 2.8946 0
M  V30 2141 C 201.68 3.07463 2.97743 0
M  V30 2142 C 201.006 3.06951 4.37819 0
M  V30 2143 C 202.306 4.47082 2.70027 0
M  V30 2144 H 204 2.6955 1.3032 0
M  V30 2145 H 201.546 1.29706 0.625492 0
M  V30 2146 H 203.499 2.08455 3.6623 0
M  V30 2147 H 202.223 0.966598 3.11969 0
M  V30 2148 H 200.882 2.90656 2.23416 0
M  V30 2149 H 200.53 2.09438 4.57323 0
M  V30 2150 H 200.23 3.84556 4.44286 0
M  V30 2151 H 201.754 3.25613 5.16535 0
M  V30 2152 H 203.168 4.6414 3.36522 0
M  V30 2153 H 201.565 5.2654 2.87881 0
M  V30 2154 H 202.635 4.55777 1.65514 0
M  V30 2155 N 203.978 -0.674533 1.42435 0
M  V30 2156 C 204.908 -1.80009 1.48724 0
M  V30 2157 C 205.889 -1.6659 0.343793 0
M  V30 2158 O 207.074 -1.86007 0.558137 0
M  V30 2159 C 204.204 -3.18306 1.38919 0
M  V30 2160 C 203.158 -3.46461 2.51294 0
M  V30 2161 C 202.484 -4.84335 2.26547 0
M  V30 2162 C 203.784 -3.43328 3.93603 0
M  V30 2163 H 205.478 -1.75004 2.42928 0
M  V30 2164 H 203.024 -0.840533 1.16923 0
M  V30 2165 H 204.977 -3.9678 1.41927 0
M  V30 2166 H 203.701 -3.2399 0.412094 0
M  V30 2167 H 202.36 -2.70348 2.47604 0
M  V30 2168 H 202.008 -4.86669 1.2713 0
M  V30 2169 H 201.708 -5.04136 3.01861 0
M  V30 2170 H 203.232 -5.65094 2.31304 0
M  V30 2171 H 204.646 -4.11772 3.98894 0
M  V30 2172 H 203.043 -3.74664 4.68771 0
M  V30 2173 H 204.113 -2.41897 4.20255 0
M  V30 2174 N 205.456 -1.28612 -0.910864 0
M  V30 2175 C 206.366 -1.14643 -2.0468 0
M  V30 2176 C 207.382 -0.0723121 -1.7385 0
M  V30 2177 O 208.558 -0.282178 -1.99413 0
M  V30 2178 C 205.623 -0.812561 -3.37044 0
M  V30 2179 C 204.684 -1.96935 -3.81465 0
M  V30 2180 C 203.917 -1.65131 -5.07511 0
M  V30 2181 O 204.14 -0.567013 -5.67575 0
M  V30 2182 O 203.074 -2.49585 -5.47714 0
M  V30 2183 H 206.9 -2.1001 -2.19384 0
M  V30 2184 H 204.485 -1.07958 -1.03274 0
M  V30 2185 H 206.367 -0.640441 -4.16505 0
M  V30 2186 H 205.042 0.111426 -3.23508 0
M  V30 2187 H 203.949 -2.19664 -3.02818 0
M  V30 2188 H 205.282 -2.87414 -3.99567 0
M  V30 2189 N 206.934 1.1197 -1.10907 0
M  V30 2190 C 208.182 1.83225 -0.852819 0
M  V30 2191 C 208.503 1.84769 0.623341 0
M  V30 2192 O 207.773 1.3143 1.45269 0
M  V30 2193 H 206.353 0.67849 -0.312507 0
M  V30 2194 H 209.015 1.3556 -1.40033 0
M  V30 2195 H 208.111 2.87265 -1.22005 0
M  V30 2196 N 208.412 0.89855 1.29475 0
M  V30 2197 C 209.322 0.379974 2.31502 0
M  V30 2198 C 210.338 -0.524695 1.659 0
M  V30 2199 O 211.514 -0.414551 1.97087 0
M  V30 2200 C 208.579 -0.385138 3.44554 0
M  V30 2201 C 207.64 0.550914 4.2575 0
M  V30 2202 C 206.873 -0.177778 5.33404 0
M  V30 2203 O 207.096 -1.40189 5.52904 0
M  V30 2204 O 206.03 0.479106 5.9999 0
M  V30 2205 H 209.856 1.22639 2.77837 0
M  V30 2206 H 207.441 0.662834 1.33891 0
M  V30 2207 H 209.323 -0.817841 4.13388 0
M  V30 2208 H 207.998 -1.20763 3.0033 0
M  V30 2209 H 206.905 1.03271 3.59564 0
M  V30 2210 H 208.238 1.33979 4.73614 0
M  V30 2211 N 209.89 -1.43072 0.660911 0
M  V30 2212 C 211.115 -2.06584 0.183805 0
M  V30 2213 C 211.54 -1.49257 -1.14472 0
M  V30 2214 O 210.898 -0.605528 -1.70889 0
M  V30 2215 C 210.946 -3.60418 0.114434 0
M  V30 2216 O 210.05 -4.01981 -0.921137 0
M  V30 2217 H 209.391 -0.656669 0.0983994 0
M  V30 2218 H 211.921 -1.83447 0.906006 0
M  V30 2219 H 211.931 -4.07946 -0.0663394 0
M  V30 2220 H 210.606 -4.01519 1.08422 0
M  V30 2221 H 209.183 -3.66029 -0.71253 0
M  V30 2222 N 211.368 -0.403325 -1.52352 0
M  V30 2223 C 212.598 0.17376 -2.05868 0
M  V30 2224 C 213.006 1.39898 -1.27378 0
M  V30 2225 O 212.349 1.80939 -0.31729 0
M  V30 2226 C 212.411 0.594756 -3.54546 0
M  V30 2227 C 212.075 -0.518926 -4.54044 0
M  V30 2228 C 213.072 -1.3807 -5.01231 0
M  V30 2229 C 210.757 -0.689961 -4.97539 0
M  V30 2230 C 212.751 -2.39852 -5.90551 0
M  V30 2231 C 210.438 -1.71109 -5.86656 0
M  V30 2232 C 211.436 -2.56378 -6.33056 0
M  V30 2233 O 211.124 -3.56743 -7.20409 0
M  V30 2234 H 210.856 0.0264951 -0.675481 0
M  V30 2235 H 213.41 -0.571179 -1.97299 0
M  V30 2236 H 211.64 1.39189 -3.60782 0
M  V30 2237 H 213.329 1.0991 -3.90736 0
M  V30 2238 H 214.095 -1.25994 -4.68349 0
M  V30 2239 H 209.974 -0.035939 -4.60986 0
M  V30 2240 H 213.518 -3.06441 -6.26689 0
M  V30 2241 H 209.415 -1.83218 -6.18952 0
M  V30 2242 H 210.183 -3.52918 -7.38506 0
M  V30 2243 N 212.846 1.57033 -0.133567 0
M  V30 2244 C 214.092 1.95976 0.521649 0
M  V30 2245 C 214.425 1.01779 1.65393 0
M  V30 2246 O 213.7 0.0576581 1.94415 0
M  V30 2247 C 213.983 3.44738 1.04057 0
M  V30 2248 C 213.836 4.49711 -0.0892897 0
M  V30 2249 C 215.155 3.95682 1.92675 0
M  V30 2250 H 212.274 0.712579 0.188149 0
M  V30 2251 H 214.916 1.88813 -0.212076 0
M  V30 2252 H 213.066 3.50973 1.66583 0
M  V30 2253 H 214.738 4.55565 -0.725152 0
M  V30 2254 H 212.981 4.27261 -0.750378 0
M  V30 2255 H 213.652 5.51099 0.315284 0
M  V30 2256 H 216.128 3.91841 1.39998 0
M  V30 2257 H 215.004 5.00262 2.25897 0
M  V30 2258 H 215.265 3.37239 2.85872 0
M  V30 2259 N 214.325 -0.140222 1.56975 0
M  V30 2260 C 215.565 -0.857823 1.85528 0
M  V30 2261 C 215.929 -1.78039 0.718768 0
M  V30 2262 O 217.13 -2.53795 0.885521 0
M  V30 2263 C 215.401 -1.60615 3.19277 0
M  V30 2264 S 216.96 -2.36824 3.69405 0
M  V30 2265 H 213.778 -0.286727 0.650622 0
M  V30 2266 H 216.38 -0.117408 1.95147 0
M  V30 2267 H 215.084 -0.919994 3.99955 0
M  V30 2268 H 214.615 -2.38735 3.12681 0
M  V30 2269 H 216.63 -3.62148 3.3921 0
M  V30 2270 N 215.803 -1.52179 -0.40978 0
M  V30 2271 C 216.766 -1.74853 -1.48186 0
M  V30 2272 C 217.766 -0.618417 -1.48433 0
M  V30 2273 O 218.956 -0.886286 -1.49969 0
M  V30 2274 C 216.088 -1.8303 -2.87598 0
M  V30 2275 H 217.281 -2.70559 -1.29374 0
M  V30 2276 H 214.834 -1.42586 -0.640233 0
M  V30 2277 H 215.569 -0.89236 -3.11781 0
M  V30 2278 H 215.354 -2.65187 -2.88822 0
M  V30 2279 H 216.844 -2.02316 -3.65319 0
M  V30 2280 N 217.281 0.66697 -1.42791 0
M  V30 2281 C 218.506 1.46004 -1.47301 0
M  V30 2282 C 218.931 1.87894 -0.0880317 0
M  V30 2283 O 218.289 1.56502 0.915253 0
M  V30 2284 C 218.337 2.68031 -2.41229 0
M  V30 2285 O 217.441 3.6659 -1.88906 0
M  V30 2286 H 216.782 0.43832 -0.49877 0
M  V30 2287 H 219.312 0.817391 -1.87563 0
M  V30 2288 H 219.322 3.1601 -2.58073 0
M  V30 2289 H 217.997 2.36883 -3.41847 0
M  V30 2290 H 216.574 3.25661 -1.81656 0
M  V30 2291 N 218.759 1.29093 0.90403 0
M  V30 2292 C 219.707 1.13727 2.02901 0
M  V30 2293 C 220.701 0.0539853 1.69314 0
M  V30 2294 O 221.907 0.213469 1.7873 0
M  V30 2295 H 218.282 0.35117 0.664969 0
M  V30 2296 H 220.253 2.08982 2.13001 0
M  V30 2297 C 219.002 0.826066 3.37745 0
M  V30 2298 H 218.325 1.65164 3.64089 0
M  V30 2299 H 219.765 0.758559 4.17159 0
M  V30 2300 C 218.224 -0.470541 3.33598 0
M  V30 2301 O 218.754 -1.49792 3.72727 0
M  V30 2302 N 216.96 -0.474812 2.86695 0
M  V30 2303 H 216.507 0.361692 2.55048 0
M  V30 2304 H 216.465 -1.34236 2.84303 0
M  V30 2305 N 220.237 -1.11381 1.11499 0
M  V30 2306 C 221.147 -2.21019 0.786628 0
M  V30 2307 C 222.163 -1.72597 -0.220507 0
M  V30 2308 O 223.339 -2.01321 -0.0565251 0
M  V30 2309 C 220.404 -3.459 0.235333 0
M  V30 2310 C 219.465 -4.09107 1.30115 0
M  V30 2311 C 218.698 -5.28027 0.776068 0
M  V30 2312 O 218.921 -5.6904 -0.393661 0
M  V30 2313 O 217.855 -5.81835 1.54114 0
M  V30 2314 H 221.681 -2.51521 1.70209 0
M  V30 2315 H 219.266 -1.19928 0.890928 0
M  V30 2316 H 221.148 -4.21346 -0.067715 0
M  V30 2317 H 219.823 -3.17049 -0.652828 0
M  V30 2318 H 218.73 -3.35391 1.65722 0
M  V30 2319 H 220.063 -4.42139 2.16273 0
M  V30 2320 N 221.715 -0.905404 -1.28997 0
M  V30 2321 C 223.126 -0.581953 -1.77398 0
M  V30 2322 C 223.477 0.902552 -1.74208 0
M  V30 2323 O 222.602 1.70584 -1.33154 0
M  V30 2324 C 223.197 -1.04961 -3.22131 0
M  V30 2325 C 221.756 -0.777229 -3.68288 0
M  V30 2326 C 220.903 -1.22109 -2.48967 0
M  V30 2327 H 223.854 -1.08754 -1.15578 0
M  V30 2328 H 223.875 -0.387387 -3.78523 0
M  V30 2329 H 223.387 -2.13008 -3.24421 0
M  V30 2330 H 221.488 0.290383 -3.71467 0
M  V30 2331 H 221.601 -1.37911 -4.58822 0
M  V30 2332 H 219.965 -0.639971 -2.46529 0
M  V30 2333 H 220.748 -2.30972 -2.53982 0
M  V30 2334 N 223.193 1.4272 -0.668489 0
M  V30 2335 C 224.44 2.01624 -0.18814 0
M  V30 2336 C 224.768 1.5282 1.20317 0
M  V30 2337 O 224.023 0.718323 1.8204 0
M  V30 2338 C 224.322 3.57021 -0.164499 0
M  V30 2339 C 223.988 4.25232 -1.49962 0
M  V30 2340 C 222.65 4.4358 -1.8652 0
M  V30 2341 C 225.002 4.63727 -2.37921 0
M  V30 2342 C 222.33 4.97694 -3.10674 0
M  V30 2343 C 224.682 5.19218 -3.6138 0
M  V30 2344 C 223.346 5.3578 -3.98115 0
M  V30 2345 H 222.616 0.737795 -0.0688454 0
M  V30 2346 H 225.263 1.70991 -0.862225 0
M  V30 2347 H 223.568 3.87285 0.593079 0
M  V30 2348 H 225.265 4.00372 0.224271 0
M  V30 2349 H 221.855 4.11306 -1.20522 0
M  V30 2350 H 226.039 4.4923 -2.10964 0
M  V30 2351 H 221.295 5.08702 -3.39164 0
M  V30 2352 H 225.469 5.4799 -4.29743 0
M  V30 2353 H 223.096 5.77475 -4.94395 0
M  V30 2354 N 224.671 0.411399 1.52136 0
M  V30 2355 C 226.087 0.0623865 1.59478 0
M  V30 2356 C 226.287 -1.42554 1.4241 0
M  V30 2357 O 225.343 -2.19263 1.2522 0
M  V30 2358 C 226.656 0.559331 2.95452 0
M  V30 2359 C 228.204 0.517503 3.08692 0
M  V30 2360 C 228.679 0.990994 4.4715 0
M  V30 2361 N 230.17 0.947908 4.53397 0
M  V30 2362 C 230.905 1.28544 5.58806 0
M  V30 2363 N 230.401 1.69454 6.71757 0
M  V30 2364 N 232.194 1.20526 5.49026 0
M  V30 2365 H 224.345 1.37982 1.61477 0
M  V30 2366 H 226.608 0.566977 0.759764 0
M  V30 2367 H 226.314 1.59938 3.1323 0
M  V30 2368 H 226.188 -0.0298014 3.77188 0
M  V30 2369 H 228.575 -0.513505 2.90598 0
M  V30 2370 H 228.656 1.14272 2.28857 0
M  V30 2371 H 228.3 2.02034 4.65988 0
M  V30 2372 H 228.23 0.34257 5.25485 0
M  V30 2373 H 230.721 0.647157 3.72317 0
M  V30 2374 H 231.034 1.93513 7.48179 0
M  V30 2375 H 229.379 1.73359 6.73032 0
M  V30 2376 H 232.57 0.884505 4.59667 0
M  V30 2377 H 232.743 1.47161 6.31069 0
M  V30 2378 N 226.149 -1.5696 0.141893 0
M  V30 2379 C 227.096 -2.16501 -0.799737 0
M  V30 2380 C 228.066 -1.09643 -1.24771 0
M  V30 2381 O 229.251 -1.3766 -1.32115 0
M  V30 2382 C 226.391 -2.78679 -2.03549 0
M  V30 2383 C 225.504 -3.99914 -1.6338 0
M  V30 2384 C 224.639 -4.50106 -2.82096 0
M  V30 2385 C 223.678 -5.63819 -2.38275 0
M  V30 2386 N 222.815 -6.08651 -3.49983 0
M  V30 2387 H 227.655 -2.96632 -0.285179 0
M  V30 2388 H 225.192 -1.46533 -0.129053 0
M  V30 2389 H 227.15 -3.1287 -2.75986 0
M  V30 2390 H 225.78 -2.012 -2.52425 0
M  V30 2391 H 224.832 -3.71735 -0.807279 0
M  V30 2392 H 226.144 -4.82311 -1.27192 0
M  V30 2393 H 225.298 -4.86325 -3.62729 0
M  V30 2394 H 224.037 -3.66706 -3.21525 0
M  V30 2395 H 223.042 -5.2718 -1.56081 0
M  V30 2396 H 224.267 -6.49 -1.99938 0
M  V30 2397 H 222.213 -5.28188 -3.89042 0
M  V30 2398 H 222.13 -6.85961 -3.17794 0
M  V30 2399 H 223.398 -6.49515 -4.30988 0
M  V30 2400 N 227.627 0.131896 -1.57047 0
M  V30 2401 C 228.873 0.843179 -1.84441 0
M  V30 2402 C 229.206 1.80129 -0.725749 0
M  V30 2403 O 228.481 1.92624 0.269469 0
M  V30 2404 C 228.764 1.60442 -3.22382 0
M  V30 2405 C 228.617 0.666782 -4.4483 0
M  V30 2406 C 229.936 2.56354 -3.5773 0
M  V30 2407 H 227.055 0.305081 -0.670891 0
M  V30 2408 H 229.697 0.107839 -1.89694 0
M  V30 2409 H 227.847 2.23128 -3.18035 0
M  V30 2410 H 229.519 0.0497646 -4.61273 0
M  V30 2411 H 227.762 -0.022609 -4.33794 0
M  V30 2412 H 228.433 1.23579 -5.37989 0
M  V30 2413 H 230.909 2.0378 -3.62785 0
M  V30 2414 H 229.785 3.06657 -4.5525 0
M  V30 2415 H 230.046 3.38419 -2.84473 0
M  V30 2416 N 229.106 1.52395 0.401703 0
M  V30 2417 C 230.383 1.57387 1.16141 0
M  V30 2418 C 230.763 0.359359 2.08019 0
M  V30 2419 O 230.111 -0.65326 2.18963 0
M  V30 2420 C 230.321 2.90631 1.93221 0
M  V30 2421 C 231.669 3.43904 2.49028 0
M  V30 2422 O 232.693 2.92421 2.03393 0
M  V30 2423 O 231.552 4.33823 3.32356 0
M  V30 2424 H 228.646 0.634262 0.530698 0
M  V30 2425 H 231.192 1.64725 0.407883 0
M  V30 2426 H 229.964 3.70473 1.25958 0
M  V30 2427 H 229.587 2.8662 2.75563 0
M  V30 2428 N 230.584 -0.659388 1.43143 0
M  V30 2429 C 231.814 -1.44513 1.47646 0
M  V30 2430 C 232.222 -1.88981 0.0910095 0
M  V30 2431 O 231.565 -1.59702 -0.907789 0
M  V30 2432 C 231.627 -2.71663 2.35456 0
M  V30 2433 C 231.291 -2.49175 3.83094 0
M  V30 2434 C 232.288 -2.1279 4.74359 0
M  V30 2435 C 229.973 -2.63691 4.27519 0
M  V30 2436 C 231.967 -1.9121 6.08044 0
M  V30 2437 C 229.654 -2.41726 5.61259 0
M  V30 2438 C 230.652 -2.0554 6.51339 0
M  V30 2439 O 230.34 -1.838 7.82606 0
M  V30 2440 H 230.072 -0.45064 0.503884 0
M  V30 2441 H 232.626 -0.816248 1.88485 0
M  V30 2442 H 230.856 -3.37089 1.89493 0
M  V30 2443 H 232.545 -3.33595 2.31235 0
M  V30 2444 H 233.311 -2.01157 4.41317 0
M  V30 2445 H 229.19 -2.90832 3.57684 0
M  V30 2446 H 232.734 -1.62889 6.78316 0
M  V30 2447 H 228.631 -2.52959 5.9387 0
M  V30 2448 H 229.399 -1.98275 7.94122 0
M  V30 2449 N 232.062 -1.29571 -0.897171 0
M  V30 2450 C 233.29 -1.20583 -1.68129 0
M  V30 2451 C 233.705 0.233181 -1.87354 0
M  V30 2452 O 233.062 1.15579 -1.41236 0
M  V30 2453 C 233.113 -1.91772 -3.06441 0
M  V30 2454 O 232.834 -3.30053 -2.88091 0
M  V30 2455 C 234.335 -1.89291 -4.00854 0
M  V30 2456 H 231.555 -0.417826 -0.525036 0
M  V30 2457 H 234.099 -1.70987 -1.12177 0
M  V30 2458 H 232.254 -1.45196 -3.59161 0
M  V30 2459 H 232.668 -3.65942 -3.75748 0
M  V30 2460 H 234.142 -2.43662 -4.95311 0
M  V30 2461 H 234.619 -0.869014 -4.30517 0
M  V30 2462 H 235.225 -2.35622 -3.54066 0
M  V30 2463 N 233.54 1.10788 -1.12088 0
M  V30 2464 C 234.487 2.17025 -0.785407 0
M  V30 2465 C 235.457 1.64265 0.246191 0
M  V30 2466 O 236.642 1.90412 0.121584 0
M  V30 2467 C 233.782 3.44249 -0.242177 0
M  V30 2468 C 232.895 4.1098 -1.33115 0
M  V30 2469 C 232.03 5.25911 -0.747741 0
M  V30 2470 C 231.069 5.84538 -1.81609 0
M  V30 2471 N 230.206 6.90853 -1.25167 0
M  V30 2472 H 235.046 2.45066 -1.69548 0
M  V30 2473 H 232.583 1.20297 -0.846582 0
M  V30 2474 H 234.541 4.17101 0.0908026 0
M  V30 2475 H 233.171 3.16571 0.631072 0
M  V30 2476 H 232.223 3.36133 -1.78097 0
M  V30 2477 H 233.535 4.50601 -2.13917 0
M  V30 2478 H 232.689 6.056 -0.365216 0
M  V30 2479 H 231.428 4.87614 0.0915188 0
M  V30 2480 H 230.433 5.03522 -2.20785 0
M  V30 2481 H 231.658 6.249 -2.6585 0
M  V30 2482 H 229.604 6.54562 -0.434174 0
M  V30 2483 H 229.521 7.29166 -1.99633 0
M  V30 2484 H 230.789 7.7433 -0.896259 0
M  V30 2485 N 235.018 0.912232 1.28515 0
M  V30 2486 C 235.966 0.389597 2.29314 0
M  V30 2487 C 236.96 -0.517915 1.61289 0
M  V30 2488 O 238.166 -0.399328 1.75515 0
M  V30 2489 H 234.541 0.107386 0.744293 0
M  V30 2490 H 236.512 1.25286 2.70825 0
M  V30 2491 C 235.261 -0.356496 3.45868 0
M  V30 2492 H 234.584 0.332608 3.98414 0
M  V30 2493 H 236.024 -0.686851 4.184 0
M  V30 2494 C 234.483 -1.56383 2.98406 0
M  V30 2495 O 235.013 -2.66294 3.00749 0
M  V30 2496 N 233.219 -1.41029 2.54085 0
M  V30 2497 H 232.766 -0.516089 2.52377 0
M  V30 2498 H 232.724 -2.21939 2.22689 0
M  V30 2499 N 236.496 -1.42363 0.676048 0
M  V30 2500 C 237.745 -2.00745 0.196037 0
M  V30 2501 C 238.058 -1.54083 -1.20489 0
M  V30 2502 O 239.264 -2.04891 -1.78134 0
M  V30 2503 C 237.72 -3.58651 0.299616 0
M  V30 2504 C 237.328 -4.143 1.70468 0
M  V30 2505 C 239.072 -4.24326 -0.121619 0
M  V30 2506 C 236.979 -5.64574 1.76096 0
M  V30 2507 H 235.909 -0.750787 0.0695301 0
M  V30 2508 H 238.56 -1.63072 0.841412 0
M  V30 2509 H 236.942 -3.93833 -0.413673 0
M  V30 2510 H 238.116 -3.90575 2.44515 0
M  V30 2511 H 236.431 -3.61081 2.07387 0
M  V30 2512 H 239.028 -5.34607 -0.0997362 0
M  V30 2513 H 239.371 -3.99897 -1.15708 0
M  V30 2514 H 239.904 -3.94108 0.540706 0
M  V30 2515 H 236.643 -5.93804 2.77628 0
M  V30 2516 H 236.163 -5.90286 1.06406 0
M  V30 2517 H 237.842 -6.29013 1.51496 0
M  V30 2518 N 237.974 -0.419461 -1.51915 0
M  V30 2519 C 238.922 0.415502 -2.28859 0
M  V30 2520 C 239.916 1.03674 -1.3397 0
M  V30 2521 O 241.122 0.973757 -1.51387 0
M  V30 2522 H 237.497 0.152786 -0.736315 0
M  V30 2523 H 239.468 -0.254531 -2.97312 0
M  V30 2524 C 238.217 1.51425 -3.12995 0
M  V30 2525 H 237.54 1.04556 -3.85886 0
M  V30 2526 H 238.98 2.07208 -3.6992 0
M  V30 2527 C 237.439 2.48745 -2.27217 0
M  V30 2528 O 237.969 3.52871 -1.9195 0
M  V30 2529 N 236.175 2.19202 -1.90785 0
M  V30 2530 H 235.722 1.34556 -2.19664 0
M  V30 2531 H 235.68 2.84561 -1.33687 0
M  V30 2532 N 239.452 1.56882 -0.150215 0
M  V30 2533 C 240.863 1.82995 0.370076 0
M  V30 2534 C 241.214 1.06907 1.64515 0
M  V30 2535 O 240.339 0.315369 2.1409 0
M  V30 2536 C 240.934 3.31942 0.678208 0
M  V30 2537 C 239.493 3.58625 1.14301 0
M  V30 2538 C 238.64 2.76792 0.167778 0
M  V30 2539 H 241.591 1.54209 -0.374858 0
M  V30 2540 H 241.612 3.48272 1.53254 0
M  V30 2541 H 241.124 3.87294 -0.249991 0
M  V30 2542 H 239.225 3.08664 2.08704 0
M  V30 2543 H 239.338 4.67073 1.06676 0
M  V30 2544 H 237.702 2.45972 0.661037 0
M  V30 2545 H 238.485 3.34916 -0.754069 0
M  V30 2546 N 240.93 -0.123565 1.57115 0
M  V30 2547 C 241.878 -1.17082 2.00984 0
M  V30 2548 C 242.872 -1.43136 0.906009 0
M  V30 2549 O 244.078 -1.43152 1.09121 0
M  V30 2550 H 240.453 -0.394653 0.64012 0
M  V30 2551 H 242.424 -0.774292 2.88179 0
M  V30 2552 C 241.173 -2.49057 2.42623 0
M  V30 2553 H 240.496 -2.29846 3.27125 0
M  V30 2554 H 241.936 -3.20906 2.7712 0
M  V30 2555 C 240.395 -3.11305 1.28805 0
M  V30 2556 O 240.925 -3.97171 0.60153 0
M  V30 2557 N 239.131 -2.71111 1.04628 0
M  V30 2558 H 238.678 -2.01382 1.60634 0
M  V30 2559 H 238.636 -3.1309 0.286685 0
M  V30 2560 N 242.408 -1.52605 -0.393616 0
M  V30 2561 C 243.654 -1.68624 -1.13743 0
M  V30 2562 C 244.009 -0.418687 -1.87789 0
M  V30 2563 O 243.302 0.58747 -1.82371 0
M  V30 2564 C 243.496 -2.85721 -2.14705 0
M  V30 2565 C 243.325 -4.23742 -1.50575 0
M  V30 2566 C 242.095 -4.89033 -1.2718 0
M  V30 2567 C 244.293 -5.05293 -0.958311 0
M  V30 2568 N 242.275 -6.11048 -0.591058 0
M  V30 2569 C 243.646 -6.18673 -0.405367 0
M  V30 2570 C 245.701 -4.90517 -0.854274 0
M  V30 2571 C 244.404 -7.18895 0.241434 0
M  V30 2572 C 246.43 -5.90986 -0.221301 0
M  V30 2573 C 245.792 -7.03669 0.320894 0
M  V30 2574 H 241.891 -0.670556 -0.402342 0
M  V30 2575 H 244.475 -1.89946 -0.427607 0
M  V30 2576 H 242.646 -2.65987 -2.83029 0
M  V30 2577 H 244.378 -2.90699 -2.8156 0
M  V30 2578 H 241.133 -4.47672 -1.54554 0
M  V30 2579 H 241.557 -6.76474 -0.266862 0
M  V30 2580 H 246.199 -4.03612 -1.25926 0
M  V30 2581 H 243.917 -8.05413 0.658448 0
M  V30 2582 H 247.503 -5.81626 -0.142111 0
M  V30 2583 H 246.383 -7.80078 0.802956 0
M  V30 2584 N 243.887 0.651787 -1.4349 0
M  V30 2585 C 245.112 1.44434 -1.48841 0
M  V30 2586 C 245.537 1.8779 -0.107955 0
M  V30 2587 O 244.895 1.57464 0.898602 0
M  V30 2588 C 244.943 2.65458 -2.44059 0
M  V30 2589 O 244.047 3.64566 -1.92784 0
M  V30 2590 H 243.388 0.433005 -0.503391 0
M  V30 2591 H 245.918 0.797451 -1.88419 0
M  V30 2592 H 245.928 3.13255 -2.6141 0
M  V30 2593 H 244.603 2.33244 -3.4434 0
M  V30 2594 H 243.18 3.23716 -1.851 0
M  V30 2595 N 245.365 1.30045 0.890287 0
M  V30 2596 C 246.611 1.18737 1.64406 0
M  V30 2597 C 246.944 -0.258525 1.92472 0
M  V30 2598 O 246.219 -1.18562 1.54186 0
M  V30 2599 C 246.502 2.01087 2.98724 0
M  V30 2600 C 246.355 3.53867 2.77665 0
M  V30 2601 C 247.674 1.84457 3.9958 0
M  V30 2602 H 244.793 0.432698 0.596608 0
M  V30 2603 H 247.435 1.5962 1.0306 0
M  V30 2604 H 245.585 1.66349 3.51084 0
M  V30 2605 H 247.257 3.98637 2.32133 0
M  V30 2606 H 245.5 3.78318 2.12269 0
M  V30 2607 H 246.171 4.06772 3.7315 0
M  V30 2608 H 248.647 2.14817 3.56361 0
M  V30 2609 H 247.523 2.44411 4.91482 0
M  V30 2610 H 247.784 0.802276 4.3476 0
M  V30 2611 N 246.843 -1.10192 1.12674 0
M  V30 2612 C 247.791 -2.18694 0.792196 0
M  V30 2613 C 248.785 -1.67938 -0.222058 0
M  V30 2614 O 249.991 -1.79822 -0.0800074 0
M  V30 2615 H 246.366 -0.713223 0.238364 0
M  V30 2616 H 248.337 -2.44149 1.71564 0
M  V30 2617 C 247.086 -3.46682 0.265859 0
M  V30 2618 H 246.409 -3.86101 1.03761 0
M  V30 2619 H 247.849 -4.23942 0.0701128 0
M  V30 2620 C 246.308 -3.21506 -1.00675 0
M  V30 2621 O 246.838 -3.43408 -2.08408 0
M  V30 2622 N 245.044 -2.75158 -0.934692 0
M  V30 2623 H 244.591 -2.57535 -0.0578604 0
M  V30 2624 H 244.549 -2.58691 -1.7868 0
M  V30 2625 N 248.321 -0.919034 -1.28029 0
M  V30 2626 C 249.57 -0.550802 -1.94034 0
M  V30 2627 C 249.883 0.910877 -1.73096 0
M  V30 2628 O 251.089 1.3875 -2.33368 0
M  V30 2629 C 249.545 -0.934249 -3.47563 0
M  V30 2630 C 249.153 -2.41602 -3.7727 0
M  V30 2631 C 250.897 -0.636854 -4.19696 0
M  V30 2632 C 248.804 -2.73932 -5.24133 0
M  V30 2633 H 247.734 -0.202273 -0.726362 0
M  V30 2634 H 250.385 -1.11867 -1.45458 0
M  V30 2635 H 248.767 -0.295115 -3.94899 0
M  V30 2636 H 249.941 -3.10233 -3.40723 0
M  V30 2637 H 248.256 -2.68441 -3.18321 0
M  V30 2638 H 250.853 -0.855005 -5.2782 0
M  V30 2639 H 251.196 0.425575 -4.14119 0
M  V30 2640 H 251.729 -1.23469 -3.78154 0
M  V30 2641 H 248.468 -3.79049 -5.34792 0
M  V30 2642 H 247.988 -2.09942 -5.61858 0
M  V30 2643 H 249.667 -2.61215 -5.91925 0
M  V30 2644 N 249.799 1.42003 -0.683588 0
M  V30 2645 C 250.746 2.30798 -0.0107309 0
M  V30 2646 C 251.716 1.4645 0.783688 0
M  V30 2647 O 252.901 1.75263 0.754156 0
M  V30 2648 C 250.041 3.3238 0.928306 0
M  V30 2649 C 249.154 4.31814 0.126776 0
M  V30 2650 C 248.289 5.20468 1.06236 0
M  V30 2651 C 247.328 6.11577 0.253035 0
M  V30 2652 N 246.465 6.92754 1.14179 0
M  V30 2653 H 251.305 2.8778 -0.773727 0
M  V30 2654 H 248.842 1.41745 -0.393283 0
M  V30 2655 H 250.8 3.89813 1.48666 0
M  V30 2656 H 249.43 2.76976 1.65783 0
M  V30 2657 H 248.482 3.76427 -0.54833 0
M  V30 2658 H 249.794 4.96276 -0.501192 0
M  V30 2659 H 248.948 5.82677 1.69035 0
M  V30 2660 H 247.687 4.56204 1.7242 0
M  V30 2661 H 246.692 5.48428 -0.388108 0
M  V30 2662 H 247.917 6.77892 -0.404839 0
M  V30 2663 H 245.863 6.3111 1.78987 0
M  V30 2664 H 245.78 7.53855 0.569111 0
M  V30 2665 H 247.048 7.59441 1.75697 0
M  V30 2666 N 251.277 0.427512 1.51691 0
M  V30 2667 C 252.525 -0.141948 2.01601 0
M  V30 2668 C 252.846 -1.44067 1.31414 0
M  V30 2669 O 252.116 -1.90763 0.445658 0
M  V30 2670 H 250.696 -0.0554468 0.744939 0
M  V30 2671 H 253.358 0.567968 1.86441 0
M  V30 2672 H 252.454 -0.324913 3.10404 0
M  V30 2673 N 252.755 -1.56801 0.158532 0
M  V30 2674 C 254.003 -1.96102 -0.488712 0
M  V30 2675 C 254.324 -1.04498 -1.64636 0
M  V30 2676 O 253.594 -0.108783 -1.95598 0
M  V30 2677 H 252.174 -0.724102 -0.183535 0
M  V30 2678 H 254.836 -1.93457 0.236728 0
M  V30 2679 H 253.932 -3.00097 -0.857219 0
M  V30 2680 N 254.233 0.115231 -1.57178 0
M  V30 2681 C 255.461 0.836437 -1.89239 0
M  V30 2682 C 255.876 1.73256 -0.750175 0
M  V30 2683 O 255.233 1.80357 0.278832 0
M  V30 2684 C 255.284 1.66671 -3.20785 0
M  V30 2685 O 255.005 0.806652 -4.3061 0
M  V30 2686 C 256.506 2.49274 -3.66575 0
M  V30 2687 H 253.726 0.240253 -0.626514 0
M  V30 2688 H 256.27 0.0984932 -2.04263 0
M  V30 2689 H 254.425 2.35737 -3.0742 0
M  V30 2690 H 254.839 1.37969 -5.06028 0
M  V30 2691 H 256.313 3.03055 -4.6137 0
M  V30 2692 H 256.79 3.26807 -2.93417 0
M  V30 2693 H 257.396 1.85443 -3.82741 0
M  V30 2694 N 255.711 1.52812 0.385517 0
M  V30 2695 C 256.936 1.72207 1.15583 0
M  V30 2696 C 257.361 0.441034 1.82857 0
M  V30 2697 O 256.719 -0.603465 1.70962 0
M  V30 2698 C 256.767 2.87476 2.17692 0
M  V30 2699 O 255.871 2.54693 3.24354 0
M  V30 2700 H 255.212 0.572526 0.336319 0
M  V30 2701 H 257.742 1.99618 0.448744 0
M  V30 2702 H 257.752 3.13072 2.6163 0
M  V30 2703 H 256.427 3.80408 1.68115 0
M  V30 2704 H 255.004 2.3985 2.85529 0
M  V30 2705 N 257.189 -0.644168 1.43834 0
M  V30 2706 C 258.605 -0.960875 1.27434 0
M  V30 2707 C 258.805 -2.00499 0.200618 0
M  V30 2708 O 257.861 -2.49018 -0.417906 0
M  V30 2709 C 259.174 -1.43653 2.64167 0
M  V30 2710 C 260.722 -1.55271 2.71772 0
M  V30 2711 C 261.197 -2.06224 4.08944 0
M  V30 2712 N 262.688 -2.13513 4.11055 0
M  V30 2713 C 263.423 -2.54081 5.14033 0
M  V30 2714 N 262.919 -2.9388 6.27381 0
M  V30 2715 N 264.712 -2.54101 5.01387 0
M  V30 2716 H 256.863 0.0465779 2.12349 0
M  V30 2717 H 259.126 -0.0417638 0.94708 0
M  V30 2718 H 258.832 -0.743706 3.43747 0
M  V30 2719 H 258.706 -2.40993 2.90176 0
M  V30 2720 H 261.093 -2.23653 1.92519 0
M  V30 2721 H 261.174 -0.563395 2.49519 0
M  V30 2722 H 260.818 -1.38441 4.88668 0
M  V30 2723 H 260.748 -3.06003 4.28567 0
M  V30 2724 H 263.239 -1.85493 3.29242 0
M  V30 2725 H 263.552 -3.2361 7.01781 0
M  V30 2726 H 261.897 -2.91663 6.30839 0
M  V30 2727 H 265.088 -2.22391 4.11898 0
M  V30 2728 H 265.261 -2.85394 5.81768 0
M  V30 2729 N 258.668 -1.30515 -0.883378 0
M  V30 2730 C 259.631 -1.1701 -1.97082 0
M  V30 2731 C 260.631 -0.10089 -1.60483 0
M  V30 2732 O 261.821 -0.349127 -1.70666 0
M  V30 2733 C 258.953 -0.793045 -3.31547 0
M  V30 2734 H 260.146 -2.13622 -2.10489 0
M  V30 2735 H 257.699 -1.13935 -1.06998 0
M  V30 2736 H 258.434 0.172499 -3.23841 0
M  V30 2737 H 258.219 -1.56576 -3.5948 0
M  V30 2738 H 259.709 -0.722073 -4.1131 0
M  V30 2739 N 260.146 1.09593 -1.13257 0
M  V30 2740 C 261.076 2.18214 -0.830946 0
M  V30 2741 C 262.057 1.68812 0.208966 0
M  V30 2742 O 263.242 1.9408 0.0682666 0
M  V30 2743 C 260.372 3.46051 -0.294296 0
M  V30 2744 C 259.326 4.08778 -1.26826 0
M  V30 2745 C 258.652 5.31419 -0.591449 0
M  V30 2746 C 259.952 4.51476 -2.62615 0
M  V30 2747 H 261.646 2.43703 -1.73923 0
M  V30 2748 H 259.192 1.17128 -0.837675 0
M  V30 2749 H 261.145 4.2134 -0.0709606 0
M  V30 2750 H 259.869 3.20079 0.649366 0
M  V30 2751 H 258.528 3.35505 -1.47756 0
M  V30 2752 H 258.176 5.01727 0.357633 0
M  V30 2753 H 257.876 5.74341 -1.24123 0
M  V30 2754 H 259.4 6.09433 -0.377355 0
M  V30 2755 H 260.814 5.17999 -2.45663 0
M  V30 2756 H 259.211 5.05277 -3.23752 0
M  V30 2757 H 260.281 3.63962 -3.20406 0
M  V30 2758 N 261.624 0.925811 1.2754 0
M  V30 2759 C 262.587 0.428129 2.25166 0
M  V30 2760 C 263.587 -0.452261 1.54309 0
M  V30 2761 O 264.777 -0.253608 1.72344 0
M  V30 2762 C 261.909 -0.384749 3.38722 0
M  V30 2763 H 263.102 1.29066 2.70706 0
M  V30 2764 H 260.655 0.706323 1.3943 0
M  V30 2765 H 261.39 -1.26618 2.98561 0
M  V30 2766 H 261.175 0.246454 3.91325 0
M  V30 2767 H 262.665 -0.723389 4.11287 0
M  V30 2768 N 263.102 -1.41638 0.69111 0
M  V30 2769 C 264.065 -2.29178 0.0319786 0
M  V30 2770 C 265.065 -1.44153 -0.712496 0
M  V30 2771 O 266.255 -1.65354 -0.548053 0
M  V30 2772 C 263.387 -3.26952 -0.965161 0
M  V30 2773 H 264.58 -2.88959 0.802681 0
M  V30 2774 H 262.133 -1.4955 0.454356 0
M  V30 2775 H 262.868 -2.72142 -1.76378 0
M  V30 2776 H 262.653 -3.89685 -0.434522 0
M  V30 2777 H 264.143 -3.92561 -1.42428 0
M  V30 2778 N 264.58 -0.43555 -1.51462 0
M  V30 2779 C 265.543 0.365137 -2.26273 0
M  V30 2780 C 266.543 0.951227 -1.29647 0
M  V30 2781 O 267.733 0.825958 -1.53374 0
M  V30 2782 C 264.865 1.51645 -3.05314 0
M  V30 2783 H 266.058 -0.290474 -2.9849 0
M  V30 2784 H 263.611 -0.188676 -1.55157 0
M  V30 2785 H 264.346 2.20816 -2.3751 0
M  V30 2786 H 264.131 1.10238 -3.76284 0
M  V30 2787 H 265.621 2.08218 -3.61987 0
M  V30 2788 N 266.058 1.56714 -0.166846 0
M  V30 2789 C 267.283 2.01557 0.488833 0
M  V30 2790 C 267.708 1.0463 1.56314 0
M  V30 2791 O 267.066 0.0251304 1.81283 0
M  V30 2792 C 267.114 3.4503 1.04818 0
M  V30 2793 O 266.218 3.51163 2.16236 0
M  V30 2794 H 265.559 0.653516 0.117526 0
M  V30 2795 H 268.089 2.02818 -0.269421 0
M  V30 2796 H 268.099 3.84243 1.37191 0
M  V30 2797 H 266.774 4.15077 0.261572 0
M  V30 2798 H 265.351 3.23807 1.84942 0
M  V30 2799 N 267.536 -0.106894 1.57237 0
M  V30 2800 C 268.761 -0.830287 1.90055 0
M  V30 2801 C 269.186 -1.72064 0.75998 0
M  V30 2802 O 268.544 -1.78982 -0.288991 0
M  V30 2803 C 268.592 -1.6295 3.21683 0
M  V30 2804 O 267.696 -2.73748 3.08441 0
M  V30 2805 H 267.037 -0.228855 0.623315 0
M  V30 2806 H 269.567 -0.085658 2.04421 0
M  V30 2807 H 269.577 -2.01621 3.54701 0
M  V30 2808 H 268.252 -0.975989 4.04286 0
M  V30 2809 H 266.829 -2.38192 2.86913 0
M  V30 2810 N 269.014 -1.53014 -0.377408 0
M  V30 2811 C 270.26 -1.68872 -1.12294 0
M  V30 2812 C 270.593 -0.433224 -1.89306 0
M  V30 2813 O 269.868 0.569258 -1.85983 0
M  V30 2814 C 270.151 -2.93115 -2.09179 0
M  V30 2815 C 270.004 -4.28794 -1.35853 0
M  V30 2816 C 271.323 -3.12928 -3.09458 0
M  V30 2817 H 268.442 -0.614518 -0.406862 0
M  V30 2818 H 271.084 -1.85633 -0.40503 0
M  V30 2819 H 269.234 -2.78956 -2.70399 0
M  V30 2820 H 270.906 -4.54742 -0.775082 0
M  V30 2821 H 269.149 -4.28744 -0.660364 0
M  V30 2822 H 269.82 -5.11837 -2.06706 0
M  V30 2823 H 272.296 -3.26194 -2.58334 0
M  V30 2824 H 271.172 -4.01316 -3.74482 0
M  V30 2825 H 271.433 -2.27669 -3.78971 0
M  V30 2826 N 270.492 0.636531 -1.44174 0
M  V30 2827 C 271.439 1.74875 -1.50624 0
M  V30 2828 C 272.409 1.62275 -0.35442 0
M  V30 2829 O 273.594 1.82276 -0.563908 0
M  V30 2830 C 270.734 3.13102 -1.45125 0
M  V30 2831 C 269.847 3.36717 -2.7064 0
M  V30 2832 C 268.982 4.64885 -2.57013 0
M  V30 2833 C 268.021 4.8166 -3.77717 0
M  V30 2834 N 267.158 6.01101 -3.62798 0
M  V30 2835 H 271.998 1.68697 -2.45653 0
M  V30 2836 H 269.535 0.823004 -1.21922 0
M  V30 2837 H 271.493 3.93034 -1.39929 0
M  V30 2838 H 270.123 3.18308 -0.536671 0
M  V30 2839 H 269.175 2.50763 -2.86046 0
M  V30 2840 H 270.487 3.44993 -3.60252 0
M  V30 2841 H 269.641 5.52969 -2.49619 0
M  V30 2842 H 268.38 4.58957 -1.64953 0
M  V30 2843 H 267.385 3.92007 -3.85501 0
M  V30 2844 H 268.61 4.89406 -4.70807 0
M  V30 2845 H 266.556 5.96273 -2.73486 0
M  V30 2846 H 266.473 6.10409 -4.46023 0
M  V30 2847 H 267.741 6.91761 -3.59286 0
M  V30 2848 N 271.97 1.30982 0.876444 0
M  V30 2849 C 273.195 1.23373 1.66715 0
M  V30 2850 C 273.62 -0.19885 1.87046 0
M  V30 2851 O 272.978 -1.1427 1.40756 0
M  V30 2852 C 273.026 1.97644 3.01611 0
M  V30 2853 O 272.13 1.30935 3.91062 0
M  V30 2854 H 271.471 0.426279 0.509099 0
M  V30 2855 H 274.001 1.72944 1.09323 0
M  V30 2856 H 274.011 2.06992 3.51594 0
M  V30 2857 H 272.686 3.01829 2.86133 0
M  V30 2858 H 271.263 1.29996 3.49507 0
M  V30 2859 N 273.449 -1.08991 1.13837 0
M  V30 2860 C 274.359 -2.19301 0.833333 0
M  V30 2861 C 275.375 -1.73026 -0.183847 0
M  V30 2862 O 276.551 -2.01395 -0.0138092 0
M  V30 2863 C 273.616 -3.45323 0.308651 0
M  V30 2864 C 272.677 -4.06255 1.38764 0
M  V30 2865 C 271.91 -5.26262 0.887896 0
M  V30 2866 O 272.133 -5.69747 -0.27287 0
M  V30 2867 O 271.067 -5.78435 1.66421 0
M  V30 2868 H 274.893 -2.47854 1.75506 0
M  V30 2869 H 272.478 -1.18012 0.916166 0
M  V30 2870 H 274.36 -4.21394 0.0216739 0
M  V30 2871 H 273.035 -3.18362 -0.585431 0
M  V30 2872 H 271.942 -3.318 1.72799 0
M  V30 2873 H 273.275 -4.37452 2.25602 0
M  V30 2874 N 274.927 -0.932562 -1.27047 0
M  V30 2875 C 276.173 -0.576412 -1.94436 0
M  V30 2876 C 276.506 0.880891 -1.73072 0
M  V30 2877 O 275.781 1.62905 -1.06264 0
M  V30 2878 C 276.064 -0.909031 -3.48437 0
M  V30 2879 C 275.917 -2.42044 -3.79123 0
M  V30 2880 C 277.236 -0.418341 -4.38107 0
M  V30 2881 H 274.355 -0.210888 -0.706184 0
M  V30 2882 H 276.997 -1.16522 -1.50075 0
M  V30 2883 H 275.147 -0.407947 -3.86352 0
M  V30 2884 H 276.819 -2.99359 -3.50973 0
M  V30 2885 H 275.062 -2.86758 -3.25503 0
M  V30 2886 H 275.733 -2.6037 -4.86736 0
M  V30 2887 H 278.209 -0.847856 -4.0737 0
M  V30 2888 H 277.085 -0.679981 -5.44672 0
M  V30 2889 H 277.346 0.681642 -4.36814 0
M  V30 2890 N 276.405 1.4127 -0.698611 0
M  V30 2891 C 277.352 2.30773 -0.0352094 0
M  V30 2892 C 278.322 1.47273 0.768111 0
M  V30 2893 O 279.507 1.76053 0.735524 0
M  V30 2894 C 276.647 3.33346 0.893 0
M  V30 2895 C 275.76 4.31924 0.0809695 0
M  V30 2896 C 274.895 5.21566 1.0071 0
M  V30 2897 C 273.934 6.11811 0.188155 0
M  V30 2898 N 273.071 6.93926 1.06825 0
M  V30 2899 H 277.911 2.86943 -0.804207 0
M  V30 2900 H 275.448 1.4132 -0.408294 0
M  V30 2901 H 277.406 3.91368 1.44523 0
M  V30 2902 H 276.036 2.78719 1.62836 0
M  V30 2903 H 275.088 3.75825 -0.588224 0
M  V30 2904 H 276.4 4.95716 -0.553801 0
M  V30 2905 H 275.554 5.84437 1.62845 0
M  V30 2906 H 274.293 4.58008 1.67572 0
M  V30 2907 H 273.298 5.47986 -0.446254 0
M  V30 2908 H 274.523 6.77425 -0.476716 0
M  V30 2909 H 272.469 6.32973 1.72283 0
M  V30 2910 H 272.386 7.54416 0.489123 0
M  V30 2911 H 273.654 7.61262 1.67632 0
M  V30 2912 N 277.883 0.443576 1.51229 0
M  V30 2913 C 278.793 -0.370721 2.31652 0
M  V30 2914 C 279.809 -1.02186 1.40833 0
M  V30 2915 O 280.985 -1.01586 1.73903 0
M  V30 2916 C 278.05 -1.45376 3.14749 0
M  V30 2917 C 277.111 -0.822099 4.21355 0
M  V30 2918 C 276.344 -1.85353 5.0048 0
M  V30 2919 O 276.567 -3.07656 4.80316 0
M  V30 2920 O 275.501 -1.4406 5.84406 0
M  V30 2921 H 279.327 0.286002 3.0235 0
M  V30 2922 H 276.912 0.20598 1.47973 0
M  V30 2923 H 278.794 -2.08173 3.66391 0
M  V30 2924 H 277.469 -2.09445 2.46809 0
M  V30 2925 H 276.376 -0.155909 3.73775 0
M  V30 2926 H 277.709 -0.224797 4.91686 0
M  V30 2927 N 279.361 -1.56624 0.175154 0
M  V30 2928 C 280.586 -2.01813 -0.478137 0
M  V30 2929 C 281.011 -1.05457 -1.55757 0
M  V30 2930 O 280.369 -0.0347439 -1.81267 0
M  V30 2931 C 280.417 -3.45581 -1.02987 0
M  V30 2932 O 279.521 -3.52305 -2.14371 0
M  V30 2933 H 278.862 -0.65413 -0.114059 0
M  V30 2934 H 281.392 -2.02673 0.280173 0
M  V30 2935 H 281.402 -3.84965 -1.35151 0
M  V30 2936 H 280.077 -4.1521 -0.239556 0
M  V30 2937 H 278.654 -3.24783 -1.83222 0
M  V30 2938 N 280.839 0.0985539 -1.57292 0
M  V30 2939 C 281.786 1.11981 -2.01814 0
M  V30 2940 C 282.756 1.39999 -0.89384 0
M  V30 2941 O 283.941 1.5152 -1.15958 0
M  V30 2942 C 281.081 2.43577 -2.44467 0
M  V30 2943 C 280.194 2.2232 -3.70402 0
M  V30 2944 C 279.329 3.4729 -4.01949 0
M  V30 2945 C 278.368 3.2128 -5.21005 0
M  V30 2946 N 277.505 4.38507 -5.48321 0
M  V30 2947 H 282.345 0.733149 -2.88841 0
M  V30 2948 H 279.882 0.350482 -1.42864 0
M  V30 2949 H 281.84 3.20373 -2.6724 0
M  V30 2950 H 280.47 2.80097 -1.60455 0
M  V30 2951 H 279.522 1.36343 -3.55126 0
M  V30 2952 H 280.834 1.99089 -4.57345 0
M  V30 2953 H 279.988 4.32495 -4.25479 0
M  V30 2954 H 278.727 3.73572 -3.13521 0
M  V30 2955 H 277.732 2.34468 -4.97298 0
M  V30 2956 H 278.957 2.96348 -6.11028 0
M  V30 2957 H 276.903 4.64871 -4.62851 0
M  V30 2958 H 276.82 4.18455 -6.29628 0
M  V30 2959 H 278.088 5.24787 -5.76385 0
M  V30 2960 N 282.317 1.53212 0.369288 0
M  V30 2961 C 283.594 1.59815 1.12776 0
M  V30 2962 C 283.974 0.403402 2.0721 0
M  V30 2963 O 283.322 -0.606667 2.20299 0
M  V30 2964 C 283.532 2.94664 1.87013 0
M  V30 2965 C 284.88 3.49109 2.41677 0
M  V30 2966 O 285.904 2.96669 1.97144 0
M  V30 2967 O 284.763 4.40775 3.23079 0
M  V30 2968 H 281.857 0.645376 0.517125 0
M  V30 2969 H 284.403 1.65553 0.37285 0
M  V30 2970 H 283.175 3.73061 1.18071 0
M  V30 2971 H 282.798 2.92401 2.69421 0
M  V30 2972 N 283.795 -0.628877 1.44509 0
M  V30 2973 C 285.042 -1.38839 1.47411 0
M  V30 2974 C 285.37 -1.94202 0.10757 0
M  V30 2975 O 284.625 -1.74243 -0.890947 0
M  V30 2976 C 284.924 -2.56995 2.48371 0
M  V30 2977 C 284.59 -2.19908 3.93639 0
M  V30 2978 C 283.252 -2.09506 4.33198 0
M  V30 2979 C 285.604 -1.9064 4.85083 0
M  V30 2980 C 282.932 -1.68028 5.62124 0
M  V30 2981 C 285.284 -1.50655 6.14399 0
M  V30 2982 C 283.948 -1.38796 6.5291 0
M  V30 2983 H 283.218 -0.508048 0.539414 0
M  V30 2984 H 285.865 -0.712913 1.77735 0
M  V30 2985 H 284.17 -3.29786 2.11538 0
M  V30 2986 H 285.867 -3.15223 2.47861 0
M  V30 2987 H 282.457 -2.28922 3.62343 0
M  V30 2988 H 286.641 -1.97585 4.55273 0
M  V30 2989 H 281.897 -1.57452 5.90778 0
M  V30 2990 H 286.071 -1.27048 6.84713 0
M  V30 2991 H 283.698 -1.06429 7.52713 0
M  V30 2992 N 285.273 -1.31445 -0.869486 0
M  V30 2993 C 286.522 -1.20517 -1.61736 0
M  V30 2994 C 286.835 0.235341 -1.94179 0
M  V30 2995 O 288.041 0.466312 -2.67465 0
M  V30 2996 C 286.497 -2.10982 -2.91573 0
M  V30 2997 C 286.105 -3.60032 -2.66611 0
M  V30 2998 C 287.849 -2.08856 -3.69567 0
M  V30 2999 C 285.756 -4.42503 -3.92358 0
M  V30 3000 H 284.686 -0.447493 -0.606849 0
M  V30 3001 H 287.337 -1.56303 -0.96133 0
M  V30 3002 H 285.719 -1.68095 -3.58553 0
M  V30 3003 H 286.893 -4.11167 -2.08035 0
M  V30 3004 H 285.208 -3.64139 -2.0197 0
M  V30 3005 H 287.805 -2.67716 -4.62852 0
M  V30 3006 H 288.148 -1.07582 -4.02159 0
M  V30 3007 H 288.681 -2.49945 -3.09471 0
M  V30 3008 H 285.42 -5.44533 -3.64916 0
M  V30 3009 H 284.94 -3.96125 -4.50383 0
M  V30 3010 H 286.619 -4.54741 -4.60238 0
M  V30 3011 N 286.751 1.08385 -1.14413 0
M  V30 3012 C 287.698 2.15311 -0.831265 0
M  V30 3013 C 288.668 1.64751 0.211292 0
M  V30 3014 O 289.853 1.90627 0.0811674 0
M  V30 3015 C 286.993 3.43658 -0.315143 0
M  V30 3016 C 286.106 4.08064 -1.41802 0
M  V30 3017 C 285.241 5.24207 -0.859126 0
M  V30 3018 C 284.28 5.80554 -1.93967 0
M  V30 3019 N 283.417 6.88042 -1.39793 0
M  V30 3020 H 288.257 2.41415 -1.74708 0
M  V30 3021 H 285.794 1.18474 -0.871909 0
M  V30 3022 H 287.752 4.172 0.00230884 0
M  V30 3023 H 286.382 3.17839 0.56378 0
M  V30 3024 H 285.434 3.3228 -1.85187 0
M  V30 3025 H 286.746 4.45962 -2.23427 0
M  V30 3026 H 285.9 6.04689 -0.49359 0
M  V30 3027 H 284.639 4.87699 -0.011932 0
M  V30 3028 H 283.644 4.98725 -2.31415 0
M  V30 3029 H 284.869 6.19121 -2.79046 0
M  V30 3030 H 282.815 6.53493 -0.572919 0
M  V30 3031 H 282.732 7.24767 -2.15054 0
M  V30 3032 H 284 7.72255 -1.0603 0
M  V30 3033 N 288.23 0.939286 1.26551 0
M  V30 3034 C 289.641 0.628782 1.75793 0
M  V30 3035 C 289.992 -0.856046 1.7654 0
M  V30 3036 O 289.117 -1.66994 1.3763 0
M  V30 3037 C 289.712 1.13465 3.19235 0
M  V30 3038 C 288.271 0.874601 3.66098 0
M  V30 3039 C 287.418 1.28667 2.45642 0
M  V30 3040 H 290.369 1.1178 1.12654 0
M  V30 3041 H 290.39 0.487609 3.77363 0
M  V30 3042 H 289.902 2.21535 3.1866 0
M  V30 3043 H 288.003 -0.191793 3.72106 0
M  V30 3044 H 288.116 1.50028 4.55004 0
M  V30 3045 H 286.48 0.705109 2.44745 0
M  V30 3046 H 287.263 2.37625 2.47769 0
M  V30 3047 N 289.708 -1.40897 0.706093 0
M  V30 3048 C 290.655 -2.30751 0.0474474 0
M  V30 3049 C 291.625 -1.47678 -0.76029 0
M  V30 3050 O 292.81 -1.76441 -0.726177 0
M  V30 3051 C 289.95 -3.33815 -0.875309 0
M  V30 3052 C 289.063 -4.31961 -0.0580623 0
M  V30 3053 C 288.198 -5.22093 -0.979425 0
M  V30 3054 C 287.237 -6.11902 -0.155706 0
M  V30 3055 N 286.374 -6.94482 -1.03144 0
M  V30 3056 H 291.214 -2.86513 0.819413 0
M  V30 3057 H 288.751 -1.41102 0.415783 0
M  V30 3058 H 290.709 -3.92129 -1.42446 0
M  V30 3059 H 289.339 -2.79579 -1.61356 0
M  V30 3060 H 288.391 -3.75507 0.608147 0
M  V30 3061 H 289.703 -4.95415 0.580082 0
M  V30 3062 H 288.857 -5.85292 -1.59744 0
M  V30 3063 H 287.596 -4.5889 -1.65141 0
M  V30 3064 H 286.601 -5.47742 0.475309 0
M  V30 3065 H 287.826 -6.77162 0.512635 0
M  V30 3066 H 285.772 -6.33877 -1.68924 0
M  V30 3067 H 285.689 -7.54665 -0.449108 0
M  V30 3068 H 286.957 -7.6214 -1.63593 0
M  V30 3069 N 291.186 -0.45159 -1.50991 0
M  V30 3070 C 292.116 0.342898 -2.30969 0
M  V30 3071 C 293.097 1.00815 -1.37005 0
M  V30 3072 O 294.282 1.00907 -1.65926 0
M  V30 3073 C 291.412 1.43637 -3.16205 0
M  V30 3074 C 290.366 0.893818 -4.18563 0
M  V30 3075 C 289.692 2.08411 -4.92411 0
M  V30 3076 C 290.992 -0.0815568 -5.22236 0
M  V30 3077 H 292.686 -0.324556 -2.97636 0
M  V30 3078 H 290.232 -0.157531 -1.43136 0
M  V30 3079 H 292.185 1.9995 -3.70942 0
M  V30 3080 H 290.909 2.13232 -2.47386 0
M  V30 3081 H 289.568 0.352798 -3.64898 0
M  V30 3082 H 289.216 2.76658 -4.20082 0
M  V30 3083 H 288.916 1.72741 -5.61636 0
M  V30 3084 H 290.44 2.65251 -5.49976 0
M  V30 3085 H 291.854 0.391742 -5.7196 0
M  V30 3086 H 290.251 -0.351551 -5.99069 0
M  V30 3087 H 291.321 -1.01374 -4.74185 0
M  V30 3088 N 292.664 1.56529 -0.183458 0
M  V30 3089 C 293.91 1.97537 0.459036 0
M  V30 3090 C 294.243 1.06989 1.62071 0
M  V30 3091 O 293.518 0.11948 1.94133 0
M  V30 3092 C 293.801 3.47874 0.930368 0
M  V30 3093 C 293.654 4.492 -0.232317 0
M  V30 3094 C 294.973 4.01612 1.79989 0
M  V30 3095 H 292.092 0.718204 0.165383 0
M  V30 3096 H 294.734 1.88042 -0.272038 0
M  V30 3097 H 292.884 3.56095 1.55333 0
M  V30 3098 H 294.556 4.53027 -0.86972 0
M  V30 3099 H 292.799 4.24657 -0.885928 0
M  V30 3100 H 293.47 5.51823 0.139796 0
M  V30 3101 H 295.946 3.96097 1.27461 0
M  V30 3102 H 294.822 5.07195 2.09867 0
M  V30 3103 H 295.083 3.46163 2.74998 0
M  V30 3104 N 294.142 -0.090211 1.57342 0
M  V30 3105 C 295.37 -0.806224 1.90546 0
M  V30 3106 C 295.785 -1.72041 0.777644 0
M  V30 3107 O 295.142 -1.80778 -0.250103 0
M  V30 3108 C 295.193 -1.61546 3.23396 0
M  V30 3109 O 294.914 -0.738043 4.31839 0
M  V30 3110 C 296.415 -2.4341 3.70495 0
M  V30 3111 H 293.635 -0.230256 0.630257 0
M  V30 3112 H 296.179 -0.0659843 2.04394 0
M  V30 3113 H 294.334 -2.30816 3.11131 0
M  V30 3114 H 294.748 -1.29901 5.08159 0
M  V30 3115 H 296.222 -2.95676 4.66133 0
M  V30 3116 H 296.699 -3.22098 2.98579 0
M  V30 3117 H 297.305 -1.79331 3.85643 0
M  V30 3118 N 295.62 -1.53406 -0.361157 0
M  V30 3119 C 296.866 -1.70054 -1.10496 0
M  V30 3120 C 297.199 -0.453278 -1.88836 0
M  V30 3121 O 296.474 0.5495 -1.86576 0
M  V30 3122 C 296.757 -2.95317 -2.06058 0
M  V30 3123 C 296.61 -4.3021 -1.31298 0
M  V30 3124 C 297.929 -3.16193 -3.06121 0
M  V30 3125 H 295.048 -0.618799 -0.400321 0
M  V30 3126 H 297.69 -1.86052 -0.385318 0
M  V30 3127 H 295.84 -2.81809 -2.67425 0
M  V30 3128 H 297.512 -4.55538 -0.726807 0
M  V30 3129 H 295.755 -4.29421 -0.614853 0
M  V30 3130 H 296.426 -5.14 -2.01265 0
M  V30 3131 H 298.902 -3.28916 -2.5486 0
M  V30 3132 H 297.778 -4.05266 -3.70204 0
M  V30 3133 H 298.039 -2.31676 -3.76535 0
M  V30 3134 N 297.098 0.621204 -1.44841 0
M  V30 3135 C 298.347 1.37658 -1.47422 0
M  V30 3136 C 298.66 1.95264 -0.114629 0
M  V30 3137 O 299.866 2.71494 -0.0180199 0
M  V30 3138 C 298.322 2.49285 -2.59586 0
M  V30 3139 C 297.93 1.98149 -4.01797 0
M  V30 3140 C 299.674 3.26409 -2.71399 0
M  V30 3141 C 297.581 3.07178 -5.05367 0
M  V30 3142 H 296.511 0.517344 -0.548517 0
M  V30 3143 H 299.162 0.667257 -1.70938 0
M  V30 3144 H 297.544 3.22839 -2.29328 0
M  V30 3145 H 298.718 1.31395 -4.41669 0
M  V30 3146 H 297.033 1.33812 -3.94314 0
M  V30 3147 H 299.63 4.07706 -3.45948 0
M  V30 3148 H 299.973 3.76535 -1.77559 0
M  V30 3149 H 300.506 2.5995 -3.01116 0
M  V30 3150 H 297.245 2.61985 -6.00869 0
M  V30 3151 H 296.765 3.72542 -4.70077 0
M  V30 3152 H 298.444 3.71789 -5.29511 0
M  V30 3153 N 298.576 1.31904 0.862503 0
M  V30 3154 C 299.992 1.10724 1.14945 0
M  V30 3155 C 300.192 -0.117421 2.01158 0
M  V30 3156 O 299.248 -0.804595 2.39338 0
M  V30 3157 C 300.561 2.38267 1.83437 0
M  V30 3158 C 302.109 2.43949 1.96106 0
M  V30 3159 C 302.584 3.71394 2.68013 0
M  V30 3160 N 304.075 3.72331 2.75543 0
M  V30 3161 C 304.81 4.67641 3.31812 0
M  V30 3162 N 304.306 5.73313 3.88953 0
M  V30 3163 N 306.099 4.5515 3.29841 0
M  V30 3164 H 298.25 2.10436 0.288191 0
M  V30 3165 H 300.513 0.928705 0.190292 0
M  V30 3166 H 300.219 3.27759 1.27542 0
M  V30 3167 H 300.093 2.48633 2.83657 0
M  V30 3168 H 302.48 1.54922 2.51164 0
M  V30 3169 H 302.561 2.37543 0.949059 0
M  V30 3170 H 302.205 4.60791 2.13621 0
M  V30 3171 H 302.135 3.75069 3.69636 0
M  V30 3172 H 304.626 2.95947 2.34997 0
M  V30 3173 H 304.939 6.42107 4.30022 0
M  V30 3174 H 303.284 5.77077 3.87308 0
M  V30 3175 H 306.475 3.71766 2.84443 0
M  V30 3176 H 306.648 5.29604 3.73394 0
M  V30 3177 N 300.054 -1.07777 1.14986 0
M  V30 3178 C 301.279 -1.84558 0.946213 0
M  V30 3179 C 301.704 -1.81323 -0.500362 0
M  V30 3180 O 301.062 -1.20301 -1.35637 0
M  V30 3181 C 301.11 -3.29736 1.45968 0
M  V30 3182 O 300.214 -4.07149 0.65601 0
M  V30 3183 H 299.555 -0.571641 0.33782 0
M  V30 3184 H 302.085 -1.35991 1.52865 0
M  V30 3185 H 302.095 -3.80574 1.47063 0
M  V30 3186 H 300.77 -3.31406 2.51283 0
M  V30 3187 H 299.347 -3.65994 0.714322 0
M  V30 3188 N 301.532 -0.945985 -1.26051 0
M  V30 3189 C 302.78 -0.594941 -1.93145 0
M  V30 3190 C 303.101 0.86953 -1.7454 0
M  V30 3191 O 302.371 1.61838 -1.10387 0
M  V30 3192 H 300.951 -0.217044 -0.714773 0
M  V30 3193 H 303.613 -1.20235 -1.53393 0
M  V30 3194 H 302.709 -0.816835 -3.01221 0
M  V30 3195 N 303.011 1.40521 -0.713556 0
M  V30 3196 C 304.257 2.01221 -0.252564 0
M  V30 3197 C 304.59 1.56444 1.1506 0
M  V30 3198 O 303.865 0.783597 1.78017 0
M  V30 3199 C 304.148 3.58582 -0.330332 0
M  V30 3200 C 304.001 4.13437 -1.77173 0
M  V30 3201 C 305.32 4.39079 0.299641 0
M  V30 3202 H 302.439 0.731077 -0.0932471 0
M  V30 3203 H 305.081 1.67026 -0.905673 0
M  V30 3204 H 303.231 3.87844 0.225737 0
M  V30 3205 H 304.903 3.9498 -2.38303 0
M  V30 3206 H 303.146 3.67801 -2.3001 0
M  V30 3207 H 303.817 5.22597 -1.77755 0
M  V30 3208 H 306.293 4.15735 -0.174139 0
M  V30 3209 H 305.169 5.4848 0.214771 0
M  V30 3210 H 305.43 4.19915 1.38288 0
M  V30 3211 N 304.489 0.459591 1.5075 0
M  V30 3212 C 305.436 -0.340524 2.28274 0
M  V30 3213 C 306.406 -0.997371 1.32822 0
M  V30 3214 O 307.591 -1.01202 1.61749 0
M  V30 3215 C 304.731 -1.42317 3.14388 0
M  V30 3216 C 303.844 -0.782251 4.24859 0
M  V30 3217 C 302.979 -1.84182 4.98247 0
M  V30 3218 C 302.018 -1.18053 6.00608 0
M  V30 3219 N 301.155 -2.18244 6.67319 0
M  V30 3220 H 305.995 0.326899 2.96202 0
M  V30 3221 H 303.532 0.173057 1.46078 0
M  V30 3222 H 305.49 -2.06241 3.62658 0
M  V30 3223 H 304.12 -2.05992 2.4853 0
M  V30 3224 H 303.172 -0.0307404 3.80388 0
M  V30 3225 H 304.484 -0.259663 4.98124 0
M  V30 3226 H 303.638 -2.55714 5.50177 0
M  V30 3227 H 302.377 -2.39819 4.24662 0
M  V30 3228 H 301.382 -0.450776 5.47949 0
M  V30 3229 H 302.607 -0.631202 6.7616 0
M  V30 3230 H 300.553 -2.72919 5.96533 0
M  V30 3231 H 300.47 -1.70938 7.36421 0
M  V30 3232 H 301.738 -2.89191 7.23871 0
M  V30 3233 N 305.967 -1.56429 0.191757 0
M  V30 3234 C 307.378 -1.83912 -0.321428 0
M  V30 3235 C 307.729 -1.11231 -1.61623 0
M  V30 3236 O 306.854 -0.37202 -2.13178 0
M  V30 3237 C 307.449 -3.33624 -0.589961 0
M  V30 3238 C 306.008 -3.6153 -1.04753 0
M  V30 3239 C 305.155 -2.7714 -0.0943327 0
M  V30 3240 H 308.106 -1.53161 0.415612 0
M  V30 3241 H 308.127 -3.52213 -1.43966 0
M  V30 3242 H 307.639 -3.86495 0.352588 0
M  V30 3243 H 305.74 -3.14089 -2.00447 0
M  V30 3244 H 305.853 -4.69737 -0.942549 0
M  V30 3245 H 304.217 -2.47638 -0.595589 0
M  V30 3246 H 305 -3.32799 0.842601 0
M  V30 3247 N 307.445 0.0818655 -1.57387 0
M  V30 3248 C 308.861 0.436412 -1.53517 0
M  V30 3249 C 309.061 1.79758 -0.910459 0
M  V30 3250 O 308.117 2.47324 -0.508636 0
M  V30 3251 C 309.43 0.386734 -2.98203 0
M  V30 3252 C 310.978 0.467644 -3.09487 0
M  V30 3253 C 311.453 0.447978 -4.55804 0
M  V30 3254 N 312.944 0.508348 -4.60402 0
M  V30 3255 C 313.679 0.515184 -5.71081 0
M  V30 3256 N 313.175 0.477435 -6.91153 0
M  V30 3257 N 314.968 0.560988 -5.59294 0
M  V30 3258 H 307.119 -0.809546 -1.96367 0
M  V30 3259 H 309.382 -0.302733 -0.898363 0
M  V30 3260 H 309.088 -0.546539 -3.47427 0
M  V30 3261 H 308.962 1.20075 -3.57578 0
M  V30 3262 H 311.349 1.39134 -2.60242 0
M  V30 3263 H 311.43 -0.374753 -2.5304 0
M  V30 3264 H 311.074 -0.471826 -5.05704 0
M  V30 3265 H 311.004 1.30777 -5.10103 0
M  V30 3266 H 313.495 0.54218 -3.7399 0
M  V30 3267 H 313.808 0.486299 -7.71268 0
M  V30 3268 H 312.153 0.444278 -6.93579 0
M  V30 3269 H 315.344 0.5881 -4.64391 0
M  V30 3270 H 315.517 0.562846 -6.45551 0
M  V30 3271 N 308.923 1.53595 0.353017 0
M  V30 3272 C 309.87 1.80919 1.43308 0
M  V30 3273 C 310.84 0.654288 1.5267 0
M  V30 3274 O 312.025 0.897759 1.6836 0
M  V30 3275 C 309.165 2.01605 2.80089 0
M  V30 3276 C 308.278 3.29321 2.79593 0
M  V30 3277 C 307.413 3.40125 4.0803 0
M  V30 3278 C 306.452 4.61826 4.01725 0
M  V30 3279 N 305.589 4.69716 5.21834 0
M  V30 3280 H 310.429 2.73074 1.19308 0
M  V30 3281 H 307.966 1.35263 0.578131 0
M  V30 3282 H 309.924 2.11586 3.59565 0
M  V30 3283 H 308.554 1.12772 3.0246 0
M  V30 3284 H 307.606 3.28229 1.92276 0
M  V30 3285 H 308.918 4.18884 2.70809 0
M  V30 3286 H 308.072 3.49488 4.95927 0
M  V30 3287 H 306.811 2.48601 4.19582 0
M  V30 3288 H 305.816 4.52552 3.12213 0
M  V30 3289 H 307.041 5.54705 3.91764 0
M  V30 3290 H 304.987 3.81097 5.33948 0
M  V30 3291 H 304.904 5.53202 5.1527 0
M  V30 3292 H 306.172 4.83376 6.11529 0
M  V30 3293 N 310.401 -0.613514 1.45168 0
M  V30 3294 C 311.364 -1.7065 1.53007 0
M  V30 3295 C 312.364 -1.5548 0.410184 0
M  V30 3296 O 313.554 -1.60656 0.673455 0
M  V30 3297 C 310.686 -3.09875 1.42093 0
M  V30 3298 H 311.879 -1.65068 2.50385 0
M  V30 3299 H 309.432 -0.828728 1.32521 0
M  V30 3300 H 310.167 -3.21039 0.458769 0
M  V30 3301 H 309.952 -3.22293 2.23315 0
M  V30 3302 H 311.442 -3.895 1.50598 0
M  V30 3303 N 311.879 -1.3236 -0.855495 0
M  V30 3304 C 313.125 -1.23054 -1.612 0
M  V30 3305 C 313.458 0.207404 -1.93089 0
M  V30 3306 O 312.733 1.14432 -1.57275 0
M  V30 3307 C 313.016 -2.08937 -2.93287 0
M  V30 3308 C 312.869 -3.61105 -2.68185 0
M  V30 3309 C 314.188 -1.94986 -3.94549 0
M  V30 3310 H 311.307 -0.448364 -0.584926 0
M  V30 3311 H 313.949 -1.62297 -0.987917 0
M  V30 3312 H 312.099 -1.75599 -3.46551 0
M  V30 3313 H 313.771 -4.04652 -2.21483 0
M  V30 3314 H 312.014 -3.83813 -2.02164 0
M  V30 3315 H 312.685 -4.16522 -3.62234 0
M  V30 3316 H 315.161 -2.24189 -3.5054 0
M  V30 3317 H 314.037 -2.57356 -4.84829 0
M  V30 3318 H 314.298 -0.917263 -4.3248 0
M  V30 3319 N 313.357 1.07166 -1.15556 0
M  V30 3320 C 314.773 1.31899 -0.898603 0
M  V30 3321 C 314.973 1.96333 0.453383 0
M  V30 3322 O 314.029 2.22438 1.19489 0
M  V30 3323 C 315.342 2.20826 -2.04099 0
M  V30 3324 C 316.89 2.34269 -2.07574 0
M  V30 3325 C 317.365 3.26546 -3.21141 0
M  V30 3326 N 318.856 3.34127 -3.20801 0
M  V30 3327 C 319.591 4.05595 -4.05315 0
M  V30 3328 N 319.087 4.79661 -4.99897 0
M  V30 3329 N 320.88 4.01555 -3.93332 0
M  V30 3330 H 313.031 0.637302 -2.02613 0
M  V30 3331 H 315.294 0.343468 -0.883591 0
M  V30 3332 H 315 1.80744 -3.01703 0
M  V30 3333 H 314.874 3.21364 -1.97496 0
M  V30 3334 H 317.261 2.73603 -1.10568 0
M  V30 3335 H 317.342 1.33429 -2.18244 0
M  V30 3336 H 316.986 2.87931 -4.184 0
M  V30 3337 H 316.916 4.27345 -3.07708 0
M  V30 3338 H 319.407 2.81336 -2.52306 0
M  V30 3339 H 319.72 5.31694 -5.60822 0
M  V30 3340 H 318.065 4.78671 -5.03884 0
M  V30 3341 H 321.256 3.42806 -3.18751 0
M  V30 3342 H 321.429 4.56987 -4.5942 0
M  V30 3343 N 314.835 0.952656 1.25548 0
M  V30 3344 C 316.084 0.602053 1.92505 0
M  V30 3345 C 316.397 -0.864663 1.75451 0
M  V30 3346 O 317.603 -1.32514 2.36965 0
M  V30 3347 C 316.059 1.02607 3.44963 0
M  V30 3348 C 315.667 2.51519 3.70732 0
M  V30 3349 C 317.411 0.747905 4.1786 0
M  V30 3350 C 315.318 2.87732 5.16686 0
M  V30 3351 H 314.248 0.22146 0.720744 0
M  V30 3352 H 316.899 1.15684 1.42441 0
M  V30 3353 H 315.281 0.399712 3.93978 0
M  V30 3354 H 316.455 3.19157 3.32378 0
M  V30 3355 H 314.77 2.76786 3.11092 0
M  V30 3356 H 317.367 0.994647 5.25367 0
M  V30 3357 H 317.71 -0.315629 4.15102 0
M  V30 3358 H 318.243 1.33452 3.74747 0
M  V30 3359 H 314.982 3.93095 5.24554 0
M  V30 3360 H 314.502 2.24765 5.56094 0
M  V30 3361 H 316.181 2.76817 5.84792 0
M  V30 3362 N 316.313 -1.40141 0.720998 0
M  V30 3363 C 317.243 -2.33339 0.0867621 0
M  V30 3364 C 318.224 -1.53178 -0.739622 0
M  V30 3365 O 319.409 -1.81625 -0.687449 0
M  V30 3366 C 316.539 -3.37194 -0.831728 0
M  V30 3367 C 315.493 -4.27857 -0.110558 0
M  V30 3368 C 314.819 -5.22294 -1.14513 0
M  V30 3369 C 316.119 -5.11872 1.0385 0
M  V30 3370 H 317.813 -2.86626 0.865219 0
M  V30 3371 H 315.359 -1.37814 0.417516 0
M  V30 3372 H 317.312 -4.01335 -1.28485 0
M  V30 3373 H 316.036 -2.82314 -1.64214 0
M  V30 3374 H 314.695 -3.65176 0.322797 0
M  V30 3375 H 314.343 -4.63717 -1.94874 0
M  V30 3376 H 314.043 -5.83797 -0.667446 0
M  V30 3377 H 315.567 -5.89312 -1.59824 0
M  V30 3378 H 316.981 -5.69436 0.664482 0
M  V30 3379 H 315.378 -5.82445 1.4449 0
M  V30 3380 H 316.448 -4.4753 1.86668 0
M  V30 3381 N 317.792 -0.46758 -1.50504 0
M  V30 3382 C 318.722 0.318381 -2.31319 0
M  V30 3383 C 319.703 0.993564 -1.38066 0
M  V30 3384 O 320.888 0.991411 -1.66987 0
M  V30 3385 C 318.018 1.40275 -3.17711 0
M  V30 3386 C 316.972 0.849373 -4.19487 0
M  V30 3387 C 316.298 2.03177 -4.94594 0
M  V30 3388 C 317.598 -0.136942 -5.2212 0
M  V30 3389 H 319.292 -0.356106 -2.97275 0
M  V30 3390 H 316.838 -0.172703 -1.42961 0
M  V30 3391 H 318.791 1.96004 -3.73042 0
M  V30 3392 H 317.515 2.10596 -2.49634 0
M  V30 3393 H 316.174 0.314076 -3.65252 0
M  V30 3394 H 315.822 2.72187 -4.22993 0
M  V30 3395 H 315.522 1.66774 -5.63436 0
M  V30 3396 H 317.046 2.59403 -5.52759 0
M  V30 3397 H 318.46 0.331056 -5.72343 0
M  V30 3398 H 316.857 -0.41507 -5.98663 0
M  V30 3399 H 317.927 -1.06398 -4.73083 0
M  V30 3400 N 319.27 1.56325 -0.20005 0
M  V30 3401 C 320.218 2.20666 0.735482 0
M  V30 3402 C 321.212 1.17934 1.21605 0
M  V30 3403 O 322.418 1.36068 1.17837 0
M  V30 3404 H 318.793 0.70725 0.255542 0
M  V30 3405 H 320.764 2.9792 0.169166 0
M  V30 3406 C 319.513 2.88391 1.94232 0
M  V30 3407 H 318.836 3.67185 1.58161 0
M  V30 3408 H 320.276 3.3684 2.57517 0
M  V30 3409 C 318.735 1.89692 2.78421 0
M  V30 3410 O 319.265 1.40032 3.76502 0
M  V30 3411 N 317.471 1.57813 2.44015 0
M  V30 3412 H 317.018 1.9839 1.64314 0
M  V30 3413 H 316.976 0.920325 3.00628 0
M  V30 3414 N 320.748 -0.0735177 1.57428 0
M  V30 3415 C 321.695 -1.08756 2.0357 0
M  V30 3416 C 322.665 -1.38559 0.916 0
M  V30 3417 O 323.85 -1.49656 1.18354 0
M  V30 3418 C 320.99 -2.39657 2.48311 0
M  V30 3419 C 320.103 -2.16399 3.73892 0
M  V30 3420 C 319.238 -3.40852 4.07423 0
M  V30 3421 C 318.277 -3.1295 5.2605 0
M  V30 3422 N 317.414 -4.29729 5.55228 0
M  V30 3423 H 322.254 -0.687104 2.8997 0
M  V30 3424 H 319.791 -0.327709 1.43403 0
M  V30 3425 H 321.749 -3.16081 2.72303 0
M  V30 3426 H 320.379 -2.77508 1.64891 0
M  V30 3427 H 319.431 -1.30676 3.57251 0
M  V30 3428 H 320.743 -1.91788 4.60455 0
M  V30 3429 H 319.897 -4.25671 4.32306 0
M  V30 3430 H 318.636 -3.68537 3.19425 0
M  V30 3431 H 317.641 -2.26526 5.00965 0
M  V30 3432 H 318.866 -2.86589 6.15665 0
M  V30 3433 H 316.812 -4.57448 4.70188 0
M  V30 3434 H 316.729 -4.08385 6.36206 0
M  V30 3435 H 317.997 -5.1555 5.84661 0
M  V30 3436 N 322.226 -1.5378 -0.344866 0
M  V30 3437 C 323.173 -1.81676 -1.42346 0
M  V30 3438 C 324.143 -0.662376 -1.52321 0
M  V30 3439 O 325.328 -0.906675 -1.67881 0
M  V30 3440 C 322.468 -2.03087 -2.79015 0
M  V30 3441 C 321.581 -3.30799 -2.77842 0
M  V30 3442 C 320.716 -3.42285 -4.0622 0
M  V30 3443 C 319.755 -4.6395 -3.9927 0
M  V30 3444 N 318.892 -4.72477 -5.19336 0
M  V30 3445 H 323.732 -2.73703 -1.17858 0
M  V30 3446 H 321.269 -1.35568 -0.570949 0
M  V30 3447 H 323.227 -2.1349 -3.58438 0
M  V30 3448 H 321.857 -1.14375 -3.01858 0
M  V30 3449 H 320.909 -3.29244 -1.90533 0
M  V30 3450 H 322.221 -4.20314 -2.68584 0
M  V30 3451 H 321.375 -3.52113 -4.94066 0
M  V30 3452 H 320.114 -2.50823 -4.18258 0
M  V30 3453 H 319.119 -4.54201 -3.09809 0
M  V30 3454 H 320.344 -5.56775 -3.88817 0
M  V30 3455 H 318.29 -3.83924 -5.3192 0
M  V30 3456 H 318.207 -5.55927 -5.12329 0
M  V30 3457 H 319.475 -4.86613 -6.08957 0
M  V30 3458 N 323.704 0.605807 -1.45491 0
M  V30 3459 C 324.932 1.39136 -1.5313 0
M  V30 3460 C 325.347 1.88082 -0.164507 0
M  V30 3461 O 324.704 1.62316 0.834247 0
M  V30 3462 C 324.755 2.59463 -2.51716 0
M  V30 3463 O 324.476 2.12551 -3.83084 0
M  V30 3464 C 325.977 3.52301 -2.6907 0
M  V30 3465 H 323.197 0.425849 -0.51855 0
M  V30 3466 H 325.741 0.73865 -1.90694 0
M  V30 3467 H 323.896 3.20772 -2.17219 0
M  V30 3468 H 324.31 2.90744 -4.36541 0
M  V30 3469 H 325.784 4.33271 -3.42024 0
M  V30 3470 H 326.261 4.02757 -1.75167 0
M  V30 3471 H 326.867 2.96845 -3.04571 0
M  V30 3472 N 325.182 1.32811 0.848464 0
M  V30 3473 C 326.145 1.22194 1.9391 0
M  V30 3474 C 327.145 0.143404 1.60159 0
M  V30 3475 O 328.335 0.394253 1.6968 0
M  V30 3476 C 325.467 0.88067 3.29328 0
M  V30 3477 H 326.66 2.19127 2.04752 0
M  V30 3478 H 324.213 1.16731 1.0394 0
M  V30 3479 H 324.948 -0.0865776 3.24184 0
M  V30 3480 H 324.733 1.66052 3.55203 0
M  V30 3481 H 326.223 0.830871 4.09251 0
M  V30 3482 N 326.66 -1.06551 1.16123 0
M  V30 3483 C 327.61 -2.12209 0.833736 0
M  V30 3484 C 328.594 -1.59825 -0.185656 0
M  V30 3485 O 329.786 -1.76994 0.0147906 0
M  V30 3486 C 326.915 -3.41674 0.333697 0
M  V30 3487 C 326.001 -4.00892 1.38372 0
M  V30 3488 N 326.392 -4.34256 2.59337 0
M  V30 3489 C 324.69 -4.28463 1.23836 0
M  V30 3490 C 325.391 -4.81291 3.26701 0
M  V30 3491 N 324.367 -4.80565 2.54083 0
M  V30 3492 H 328.169 -2.35849 1.75364 0
M  V30 3493 H 325.683 -1.24068 1.04789 0
M  V30 3494 H 327.68 -4.16822 0.0806918 0
M  V30 3495 H 326.34 -3.19475 -0.58017 0
M  V30 3496 H 327.351 -4.24687 2.96415 0
M  V30 3497 H 324.028 -4.15721 0.38504 0
M  V30 3498 H 325.418 -5.16332 4.29943 0
M  V30 3499 N 328.138 -0.959301 -1.25041 0
M  V30 3500 C 329.363 -0.633507 -1.97488 0
M  V30 3501 C 329.788 0.788555 -1.70773 0
M  V30 3502 O 329.146 1.53394 -0.966431 0
M  V30 3503 C 329.194 -0.904057 -3.49083 0
M  V30 3504 O 328.298 0.0147939 -4.12397 0
M  V30 3505 H 327.639 -0.240368 -0.618966 0
M  V30 3506 H 330.169 -1.28717 -1.59038 0
M  V30 3507 H 330.179 -0.832203 -3.99423 0
M  V30 3508 H 328.854 -1.94048 -3.67856 0
M  V30 3509 H 327.431 -0.109664 -3.72739 0
M  V30 3510 N 329.616 1.39756 -0.72842 0
M  V30 3511 C 330.863 2.00645 -0.273487 0
M  V30 3512 C 331.191 1.57786 1.13727 0
M  V30 3513 O 330.446 0.794886 1.7883 0
M  V30 3514 C 330.745 3.56002 -0.315776 0
M  V30 3515 C 330.411 4.18489 -1.67863 0
M  V30 3516 C 329.073 4.3527 -2.05166 0
M  V30 3517 C 331.425 4.53219 -2.57375 0
M  V30 3518 C 328.753 4.84069 -3.31503 0
M  V30 3519 C 331.105 5.03423 -3.83077 0
M  V30 3520 C 329.769 5.18413 -4.20481 0
M  V30 3521 H 329.039 0.734211 -0.100076 0
M  V30 3522 H 331.686 1.6718 -0.933972 0
M  V30 3523 H 329.991 3.89452 0.428285 0
M  V30 3524 H 331.688 4.00963 0.0542575 0
M  V30 3525 H 328.278 4.05824 -1.37858 0
M  V30 3526 H 332.462 4.39878 -2.29827 0
M  V30 3527 H 327.718 4.93859 -3.60435 0
M  V30 3528 H 331.892 5.2927 -4.52599 0
M  V30 3529 H 329.519 5.55987 -5.18443 0
M  V30 3530 N 331.094 0.475555 1.50254 0
M  V30 3531 C 332.004 -0.321501 2.32387 0
M  V30 3532 C 333.02 -0.991755 1.42969 0
M  V30 3533 O 334.196 -0.978747 1.76018 0
M  V30 3534 C 331.261 -1.38667 3.17762 0
M  V30 3535 C 330.322 -0.732538 4.23004 0
M  V30 3536 C 329.555 -1.74695 5.04299 0
M  V30 3537 O 329.778 -2.97399 4.86734 0
M  V30 3538 O 328.712 -1.31631 5.8733 0
M  V30 3539 H 332.538 0.350071 3.01676 0
M  V30 3540 H 330.123 0.237321 1.47503 0
M  V30 3541 H 332.005 -2.00354 3.70724 0
M  V30 3542 H 330.68 -2.04163 2.51196 0
M  V30 3543 H 329.587 -0.0765902 3.74022 0
M  V30 3544 H 330.92 -0.120452 4.92053 0
M  V30 3545 N 332.573 -1.56217 0.208337 0
M  V30 3546 C 333.505 -2.1695 -0.739276 0
M  V30 3547 C 334.518 -1.13492 -1.1672 0
M  V30 3548 O 335.707 -1.40529 -1.10063 0
M  V30 3549 C 332.807 -2.72755 -2.01142 0
M  V30 3550 C 331.98 -4.0125 -1.74118 0
M  V30 3551 C 331.039 -4.41749 -2.85909 0
M  V30 3552 O 330.065 -5.08912 -2.54946 0
M  V30 3553 N 331.267 -4.06342 -4.14568 0
M  V30 3554 H 334.032 -2.98893 -0.219837 0
M  V30 3555 H 331.593 -1.61878 0.0268445 0
M  V30 3556 H 333.585 -2.96826 -2.75094 0
M  V30 3557 H 332.155 -1.95191 -2.4417 0
M  V30 3558 H 331.375 -3.85173 -0.838775 0
M  V30 3559 H 332.663 -4.851 -1.53477 0
M  V30 3560 H 332.061 -3.52345 -4.42571 0
M  V30 3561 H 330.618 -4.35335 -4.85105 0
M  V30 3562 N 334.051 0.0651679 -1.57465 0
M  V30 3563 C 335.297 0.764193 -1.87851 0
M  V30 3564 C 335.63 1.76889 -0.801495 0
M  V30 3565 O 334.905 1.93594 0.187528 0
M  V30 3566 C 335.188 1.46625 -3.28897 0
M  V30 3567 C 335.041 0.477515 -4.47258 0
M  V30 3568 C 336.36 2.4095 -3.68281 0
M  V30 3569 H 333.479 0.276351 -0.683227 0
M  V30 3570 H 336.121 0.0272868 -1.8998 0
M  V30 3571 H 334.271 2.09438 -3.27212 0
M  V30 3572 H 335.943 -0.145922 -4.61069 0
M  V30 3573 H 334.186 -0.206576 -4.33308 0
M  V30 3574 H 334.857 1.0065 -5.42746 0
M  V30 3575 H 337.333 1.88209 -3.71102 0
M  V30 3576 H 336.209 2.87072 -4.67847 0
M  V30 3577 H 336.47 3.26049 -2.98571 0
M  V30 3578 N 335.529 1.53961 0.336706 0
M  V30 3579 C 336.459 1.85417 1.41925 0
M  V30 3580 C 337.44 0.709856 1.5458 0
M  V30 3581 O 338.625 0.962396 1.68676 0
M  V30 3582 C 335.755 2.06985 2.78881 0
M  V30 3583 C 334.709 3.22813 2.81026 0
M  V30 3584 C 334.035 3.29727 4.20932 0
M  V30 3585 C 335.335 4.60767 2.45949 0
M  V30 3586 H 337.029 2.76079 1.15848 0
M  V30 3587 H 334.575 1.32839 0.555859 0
M  V30 3588 H 336.528 2.27575 3.54665 0
M  V30 3589 H 335.252 1.13061 3.06406 0
M  V30 3590 H 333.911 3.0209 2.07695 0
M  V30 3591 H 333.559 2.33385 4.45579 0
M  V30 3592 H 333.259 4.07566 4.23277 0
M  V30 3593 H 334.783 3.52536 4.98549 0
M  V30 3594 H 336.197 4.81325 3.11446 0
M  V30 3595 H 334.594 5.4106 2.59566 0
M  V30 3596 H 335.664 4.6391 1.41122 0
M  V30 3597 N 337.007 -0.598083 1.45811 0
M  V30 3598 C 338.235 -1.38322 1.53866 0
M  V30 3599 C 338.65 -1.87992 0.174479 0
M  V30 3600 O 338.007 -1.62756 -0.825627 0
M  V30 3601 C 338.058 -2.58125 2.53089 0
M  V30 3602 O 337.779 -2.10516 3.84206 0
M  V30 3603 C 339.28 -3.50869 2.70935 0
M  V30 3604 H 336.5 -0.423093 0.520801 0
M  V30 3605 H 339.044 -0.728527 1.91083 0
M  V30 3606 H 337.199 -3.19615 2.18917 0
M  V30 3607 H 337.613 -2.88425 4.38077 0
M  V30 3608 H 339.087 -4.31451 3.44317 0
M  V30 3609 H 339.564 -4.01822 1.77301 0
M  V30 3610 H 340.17 -2.95225 3.06141 0
M  V30 3611 N 338.485 -1.33259 -0.841409 0
M  V30 3612 C 339.762 -1.15174 -1.58096 0
M  V30 3613 C 340.142 0.282858 -2.09196 0
M  V30 3614 O 339.49 1.28151 -1.89181 0
M  V30 3615 C 339.7 -2.1907 -2.71679 0
M  V30 3616 C 341.048 -2.53093 -3.40924 0
M  V30 3617 O 342.072 -2.17717 -2.81918 0
M  V30 3618 O 340.931 -3.1379 -4.47435 0
M  V30 3619 H 338.025 -0.445303 -0.696875 0
M  V30 3620 H 340.571 -1.44833 -0.884385 0
M  V30 3621 H 339.343 -3.15443 -2.31541 0
M  V30 3622 H 338.966 -1.90481 -3.49002 0
M  V30 3623 N 339.963 1.05934 -1.16686 0
M  V30 3624 C 341.212 1.78188 -0.945085 0
M  V30 3625 C 341.525 1.88338 0.528021 0
M  V30 3626 O 342.731 2.57258 0.867799 0
M  V30 3627 C 341.187 3.20277 -1.64167 0
M  V30 3628 C 340.795 3.18281 -3.15279 0
M  V30 3629 C 342.539 3.97039 -1.502 0
M  V30 3630 C 340.446 4.55112 -3.7766 0
M  V30 3631 H 339.376 0.667866 -0.349959 0
M  V30 3632 H 342.027 1.18794 -1.39858 0
M  V30 3633 H 340.409 3.79952 -1.11589 0
M  V30 3634 H 341.583 2.68167 -3.74731 0
M  V30 3635 H 339.898 2.55018 -3.29173 0
M  V30 3636 H 342.495 4.98194 -1.94183 0
M  V30 3637 H 342.838 4.13845 -0.451461 0
M  V30 3638 H 343.371 3.43894 -1.99954 0
M  V30 3639 H 340.11 4.43512 -4.82677 0
M  V30 3640 H 339.63 5.05406 -3.22994 0
M  V30 3641 H 341.309 5.24064 -3.79428 0
M  V30 3642 N 341.441 0.965919 1.2453 0
M  V30 3643 C 342.669 0.644385 1.96609 0
M  V30 3644 C 343.084 -0.785823 1.71669 0
M  V30 3645 O 342.441 -1.52703 0.999399 0
M  V30 3646 C 342.492 0.907375 3.49927 0
M  V30 3647 O 342.213 2.28136 3.74013 0
M  V30 3648 C 343.714 0.599784 4.39224 0
M  V30 3649 H 340.934 0.240588 0.626385 0
M  V30 3650 H 343.478 1.29337 1.58405 0
M  V30 3651 H 341.633 0.304631 3.862 0
M  V30 3652 H 342.047 2.36002 4.68405 0
M  V30 3653 H 343.521 0.834263 5.45659 0
M  V30 3654 H 343.998 -0.465921 4.36722 0
M  V30 3655 H 344.604 1.18235 4.08535 0
M  V30 3656 N 342.919 -1.39368 0.735821 0
M  V30 3657 C 343.829 -2.34395 0.0979693 0
M  V30 3658 C 344.845 -1.58361 -0.720968 0
M  V30 3659 O 346.021 -1.90648 -0.649245 0
M  V30 3660 C 343.086 -3.37393 -0.797916 0
M  V30 3661 C 342.147 -4.29287 0.0333662 0
M  V30 3662 C 341.38 -5.27365 -0.819854 0
M  V30 3663 O 341.603 -5.31959 -2.05855 0
M  V30 3664 O 340.537 -6.01389 -0.248079 0
M  V30 3665 H 344.363 -2.90601 0.882315 0
M  V30 3666 H 341.948 -1.40909 0.4965 0
M  V30 3667 H 343.83 -4.00505 -1.31048 0
M  V30 3668 H 342.505 -2.83571 -1.56106 0
M  V30 3669 H 341.412 -3.69395 0.591475 0
M  V30 3670 H 342.745 -4.86317 0.758752 0
M  V30 3671 N 344.397 -0.483516 -1.5 0
M  V30 3672 C 345.36 0.292965 -2.2732 0
M  V30 3673 C 346.36 0.909499 -1.32608 0
M  V30 3674 O 347.55 0.776745 -1.55924 0
M  V30 3675 C 344.682 1.41854 -3.09984 0
M  V30 3676 H 345.875 -0.385289 -2.97415 0
M  V30 3677 H 343.428 -0.237942 -1.54478 0
M  V30 3678 H 344.163 2.13148 -2.44414 0
M  V30 3679 H 343.948 0.982114 -3.79601 0
M  V30 3680 H 345.438 1.96597 -3.68429 0
M  V30 3681 N 345.875 1.56104 -0.216619 0
M  V30 3682 C 347.124 1.97348 0.416744 0
M  V30 3683 C 347.437 1.10715 1.6125 0
M  V30 3684 O 348.643 1.41836 2.31506 0
M  V30 3685 C 347.099 3.51059 0.792835 0
M  V30 3686 C 346.707 4.46387 -0.379828 0
M  V30 3687 C 348.451 4.01026 1.39208 0
M  V30 3688 C 346.358 5.91397 0.0184223 0
M  V30 3689 H 345.288 0.736942 0.159475 0
M  V30 3690 H 347.939 1.80827 -0.31205 0
M  V30 3691 H 346.321 3.63162 1.57891 0
M  V30 3692 H 347.495 4.46029 -1.15737 0
M  V30 3693 H 345.81 4.06734 -0.891979 0
M  V30 3694 H 348.407 5.0686 1.70286 0
M  V30 3695 H 348.75 3.46587 2.30614 0
M  V30 3696 H 349.283 3.92125 0.669537 0
M  V30 3697 H 346.022 6.49807 -0.862002 0
M  V30 3698 H 345.542 5.94961 0.760384 0
M  V30 3699 H 347.221 6.45455 0.446818 0
M  V30 3700 N 347.353 -0.0568162 1.57498 0
M  V30 3701 C 348.3 -1.06591 2.04712 0
M  V30 3702 C 349.27 -1.3758 0.930644 0
M  V30 3703 O 350.455 -1.48392 1.19935 0
M  V30 3704 C 347.595 -2.3701 2.50839 0
M  V30 3705 C 346.708 -2.12421 3.76167 0
M  V30 3706 C 345.843 -3.36511 4.11015 0
M  V30 3707 C 344.882 -3.07353 5.2934 0
M  V30 3708 N 344.019 -4.23816 5.59754 0
M  V30 3709 H 348.859 -0.65631 2.90683 0
M  V30 3710 H 346.396 -0.312481 1.43743 0
M  V30 3711 H 348.354 -3.13175 2.7564 0
M  V30 3712 H 346.984 -2.75744 1.67825 0
M  V30 3713 H 346.036 -1.2688 3.58616 0
M  V30 3714 H 347.348 -1.86894 4.62463 0
M  V30 3715 H 346.502 -4.21062 4.36797 0
M  V30 3716 H 345.241 -3.65128 3.23315 0
M  V30 3717 H 344.246 -2.212 5.03339 0
M  V30 3718 H 345.471 -2.80043 6.1867 0
M  V30 3719 H 343.417 -4.52436 4.75014 0
M  V30 3720 H 343.334 -4.01614 6.40501 0
M  V30 3721 H 344.602 -5.0932 5.90096 0
M  V30 3722 N 348.832 -1.54138 -0.328536 0
M  V30 3723 C 349.762 -1.86167 -1.40939 0
M  V30 3724 C 350.743 -0.718044 -1.54202 0
M  V30 3725 O 351.928 -0.971328 -1.68163 0
M  V30 3726 C 349.058 -2.08461 -2.77779 0
M  V30 3727 C 348.012 -3.24299 -2.7931 0
M  V30 3728 C 347.338 -3.31955 -4.19178 0
M  V30 3729 C 348.638 -4.62065 -2.43502 0
M  V30 3730 H 350.332 -2.76689 -1.14383 0
M  V30 3731 H 347.878 -1.33132 -0.548806 0
M  V30 3732 H 349.831 -2.29453 -3.53454 0
M  V30 3733 H 348.555 -1.14684 -3.05802 0
M  V30 3734 H 347.214 -3.03187 -2.0609 0
M  V30 3735 H 346.862 -2.35745 -4.44335 0
M  V30 3736 H 346.562 -4.09805 -4.2111 0
M  V30 3737 H 348.086 -3.55175 -4.96672 0
M  V30 3738 H 349.5 -4.8297 -3.08889 0
M  V30 3739 H 347.897 -5.42429 -2.56693 0
M  V30 3740 H 348.967 -4.64652 -1.38659 0
M  V30 3741 N 350.31 0.590341 -1.46126 0
M  V30 3742 C 351.587 1.35029 -1.41515 0
M  V30 3743 C 351.967 2.10888 -0.0946472 0
M  V30 3744 O 351.315 2.08998 0.923693 0
M  V30 3745 C 351.525 2.28269 -2.63997 0
M  V30 3746 C 352.873 2.90338 -3.09821 0
M  V30 3747 O 353.897 2.38585 -2.64492 0
M  V30 3748 O 352.756 3.84321 -3.88535 0
M  V30 3749 H 349.85 0.606317 -0.562413 0
M  V30 3750 H 352.396 0.611994 -1.58281 0
M  V30 3751 H 351.168 1.71591 -3.51671 0
M  V30 3752 H 350.791 3.0945 -2.49652 0
M  V30 3753 N 351.788 1.33704 0.83433 0
M  V30 3754 C 353.013 1.28615 1.62705 0
M  V30 3755 C 353.438 -0.139242 1.87584 0
M  V30 3756 O 352.796 -1.09734 1.4432 0
M  V30 3757 C 352.844 2.07139 2.95171 0
M  V30 3758 O 351.948 1.4331 3.86699 0
M  V30 3759 H 351.289 0.44226 0.49528 0
M  V30 3760 H 353.819 1.76335 1.03766 0
M  V30 3761 H 353.829 2.18073 3.44831 0
M  V30 3762 H 352.504 3.10779 2.76386 0
M  V30 3763 H 351.081 1.4105 3.45195 0
M  V30 3764 N 353.266 -1.05314 1.17247 0
M  V30 3765 C 354.514 -1.77941 0.958194 0
M  V30 3766 C 354.835 -1.88089 -0.514556 0
M  V30 3767 O 354.105 -1.39676 -1.37359 0
M  V30 3768 H 352.685 -0.659116 0.351533 0
M  V30 3769 H 355.347 -1.27166 1.47699 0
M  V30 3770 H 354.443 -2.79663 1.38546 0
M  V30 3771 N 354.744 -0.972509 -1.24016 0
M  V30 3772 C 355.99 -0.637978 -1.92504 0
M  V30 3773 C 356.323 0.825383 -1.75787 0
M  V30 3774 O 355.598 1.59442 -1.11393 0
M  V30 3775 C 355.881 -1.01942 -3.45369 0
M  V30 3776 C 355.734 -2.53983 -3.71231 0
M  V30 3777 C 357.053 -0.55751 -4.36555 0
M  V30 3778 H 354.172 -0.233248 -0.699117 0
M  V30 3779 H 356.814 -1.21238 -1.46292 0
M  V30 3780 H 354.964 -0.530656 -3.84859 0
M  V30 3781 H 356.636 -3.10374 -3.41271 0
M  V30 3782 H 354.879 -2.96968 -3.16216 0
M  V30 3783 H 355.55 -2.75723 -4.78206 0
M  V30 3784 H 358.026 -0.977029 -4.04467 0
M  V30 3785 H 356.902 -0.85292 -5.42233 0
M  V30 3786 H 357.163 0.542328 -4.38761 0
M  V30 3787 N 356.222 1.38976 -0.743202 0
M  V30 3788 C 357.468 2.0064 -0.295189 0
M  V30 3789 C 357.801 1.5885 1.11716 0
M  V30 3790 O 357.076 0.821181 1.76315 0
M  V30 3791 C 357.359 3.578 -0.406318 0
M  V30 3792 C 357.212 4.09586 -1.85903 0
M  V30 3793 C 358.531 4.39616 0.206439 0
M  V30 3794 H 355.65 0.728935 -0.108733 0
M  V30 3795 H 358.292 1.65067 -0.940897 0
M  V30 3796 H 356.442 3.88235 0.143419 0
M  V30 3797 H 358.114 3.89837 -2.46627 0
M  V30 3798 H 356.357 3.6284 -2.3776 0
M  V30 3799 H 357.028 5.18708 -1.888 0
M  V30 3800 H 359.504 4.15273 -0.262283 0
M  V30 3801 H 358.38 5.48812 0.0983819 0
M  V30 3802 H 358.641 4.22754 1.2935 0
M  V30 3803 N 357.7 0.491464 1.49741 0
M  V30 3804 C 358.647 -0.292027 2.28945 0
M  V30 3805 C 359.617 -0.968973 1.34908 0
M  V30 3806 O 360.802 -0.97748 1.6386 0
M  V30 3807 C 357.942 -1.35617 3.17336 0
M  V30 3808 C 357.055 -0.691957 4.26422 0
M  V30 3809 C 356.19 -1.73572 5.02042 0
M  V30 3810 C 355.229 -1.05286 6.02977 0
M  V30 3811 N 354.366 -2.0404 6.71798 0
M  V30 3812 H 359.206 0.389654 2.95442 0
M  V30 3813 H 356.743 0.204003 1.45679 0
M  V30 3814 H 358.701 -1.98502 3.66951 0
M  V30 3815 H 357.331 -2.00674 2.52844 0
M  V30 3816 H 356.383 0.0499523 3.80367 0
M  V30 3817 H 357.695 -0.153946 4.98562 0
M  V30 3818 H 356.849 -2.43987 5.55478 0
M  V30 3819 H 355.588 -2.30757 4.29654 0
M  V30 3820 H 354.593 -0.334446 5.48782 0
M  V30 3821 H 355.818 -0.487636 6.77347 0
M  V30 3822 H 353.764 -2.60205 6.02187 0
M  V30 3823 H 353.681 -1.55279 7.39881 0
M  V30 3824 H 354.949 -2.73772 7.29842 0
M  V30 3825 N 359.178 -1.55987 0.224894 0
M  V30 3826 C 360.594 -1.59066 -0.130426 0
M  V30 3827 C 360.794 -1.24176 -1.5869 0
M  V30 3828 O 359.85 -0.978592 -2.32766 0
M  V30 3829 C 361.163 -3.00042 0.198883 0
M  V30 3830 C 362.711 -3.1268 0.141391 0
M  V30 3831 C 363.186 -4.55839 0.444422 0
M  V30 3832 N 364.677 -4.6152 0.394115 0
M  V30 3833 C 365.412 -5.70231 0.602038 0
M  V30 3834 N 364.908 -6.87291 0.871914 0
M  V30 3835 N 366.701 -5.59555 0.534245 0
M  V30 3836 H 358.852 -1.76941 1.17497 0
M  V30 3837 H 361.115 -0.822604 0.471197 0
M  V30 3838 H 360.821 -3.30234 1.2099 0
M  V30 3839 H 360.695 -3.74075 -0.484535 0
M  V30 3840 H 363.082 -2.82283 -0.860265 0
M  V30 3841 H 363.163 -2.40969 0.858335 0
M  V30 3842 H 362.807 -4.86954 1.44353 0
M  V30 3843 H 362.737 -5.2578 -0.293752 0
M  V30 3844 H 365.228 -3.77405 0.193356 0
M  V30 3845 H 365.541 -7.66058 1.01858 0
M  V30 3846 H 363.886 -6.89028 0.909145 0
M  V30 3847 H 367.077 -4.6698 0.323612 0
M  V30 3848 H 367.25 -6.44211 0.699693 0
M  V30 3849 N 360.656 0.0484629 -1.57525 0
M  V30 3850 C 361.586 1.0549 -2.08313 0
M  V30 3851 C 362.567 1.38929 -0.981463 0
M  V30 3852 O 363.752 1.48151 -1.25558 0
M  V30 3853 C 360.882 2.36162 -2.54646 0
M  V30 3854 C 359.836 2.17016 -3.68901 0
M  V30 3855 C 359.162 3.53278 -4.01371 0
M  V30 3856 C 360.462 1.57219 -4.98076 0
M  V30 3857 H 362.156 0.632195 -2.92649 0
M  V30 3858 H 359.702 0.302654 -1.40784 0
M  V30 3859 H 361.655 3.06882 -2.88793 0
M  V30 3860 H 360.379 2.80456 -1.67368 0
M  V30 3861 H 359.038 1.48733 -3.35073 0
M  V30 3862 H 358.686 3.95185 -3.11188 0
M  V30 3863 H 358.386 3.41299 -4.78318 0
M  V30 3864 H 359.91 4.25391 -4.38035 0
M  V30 3865 H 361.324 2.17832 -5.30304 0
M  V30 3866 H 359.721 1.55871 -5.79503 0
M  V30 3867 H 360.791 0.535956 -4.81929 0
M  V30 3868 N 362.134 1.5431 0.320358 0
M  V30 3869 C 363.374 1.74395 1.0661 0
M  V30 3870 C 363.738 0.508602 1.85141 0
M  V30 3871 O 364.939 0.586856 2.62316 0
M  V30 3872 C 363.21 2.98619 1.96371 0
M  V30 3873 S 364.769 3.39621 2.77854 0
M  V30 3874 H 361.587 0.613204 0.359863 0
M  V30 3875 H 364.189 1.9249 0.341727 0
M  V30 3876 H 362.893 3.86673 1.3752 0
M  V30 3877 H 362.424 2.83055 2.73209 0
M  V30 3878 H 364.439 2.95172 3.98858 0
M  V30 3879 N 363.613 -0.582584 1.46437 0
M  V30 3880 C 364.841 -1.36682 1.55324 0
M  V30 3881 C 365.256 -1.87796 0.194409 0
M  V30 3882 O 364.613 -1.63623 -0.808318 0
M  V30 3883 C 364.664 -2.55426 2.55812 0
M  V30 3884 O 364.385 -2.0643 3.86417 0
M  V30 3885 C 365.886 -3.47976 2.74641 0
M  V30 3886 H 363.106 -0.417545 0.525259 0
M  V30 3887 H 365.65 -0.708219 1.91845 0
M  V30 3888 H 363.805 -3.17275 2.22295 0
M  V30 3889 H 364.219 -2.83762 4.41111 0
M  V30 3890 H 365.693 -4.27775 3.48874 0
M  V30 3891 H 366.17 -3.99919 1.81553 0
M  V30 3892 H 366.776 -2.91962 3.09255 0
M  V30 3893 N 365.091 -1.34144 -0.827227 0
M  V30 3894 C 366.021 -1.28005 -1.95287 0
M  V30 3895 C 367.002 -0.158321 -1.69362 0
M  V30 3896 O 368.187 -0.349987 -1.9102 0
M  V30 3897 C 365.317 -1.03036 -3.31664 0
M  V30 3898 C 364.271 -2.11628 -3.72019 0
M  V30 3899 C 363.597 -1.71854 -5.0633 0
M  V30 3900 C 364.897 -3.53417 -3.8457 0
M  V30 3901 H 366.591 -2.22187 -2.00682 0
M  V30 3902 H 364.137 -1.0696 -0.964135 0
M  V30 3903 H 366.09 -0.973863 -4.09993 0
M  V30 3904 H 364.814 -0.0529391 -3.26557 0
M  V30 3905 H 363.473 -2.16339 -2.95961 0
M  V30 3906 H 363.121 -0.727841 -4.97706 0
M  V30 3907 H 362.821 -2.44531 -5.34302 0
M  V30 3908 H 364.345 -1.67692 -5.87122 0
M  V30 3909 H 365.759 -3.51142 -4.5318 0
M  V30 3910 H 364.156 -4.24679 -4.2399 0
M  V30 3911 H 365.226 -3.91072 -2.86689 0
M  V30 3912 N 366.569 1.04691 -1.17803 0
M  V30 3913 C 367.846 1.7472 -0.879328 0
M  V30 3914 C 368.226 2.01812 0.619271 0
M  V30 3915 O 367.574 1.65824 1.57209 0
M  V30 3916 C 367.784 3.03686 -1.71976 0
M  V30 3917 C 369.132 3.77542 -1.94286 0
M  V30 3918 O 370.156 3.13569 -1.68976 0
M  V30 3919 O 369.015 4.92506 -2.36855 0
M  V30 3920 H 366.109 0.760011 -0.326056 0
M  V30 3921 H 368.655 1.10813 -1.28525 0
M  V30 3922 H 367.427 2.79754 -2.73594 0
M  V30 3923 H 367.05 3.75332 -1.31194 0
M  V30 3924 N 368.047 0.979072 1.23499 0
M  V30 3925 C 369.295 0.645941 1.91499 0
M  V30 3926 C 369.616 -0.822948 1.76784 0
M  V30 3927 O 368.886 -1.58854 1.14639 0
M  V30 3928 H 367.466 0.235919 0.708767 0
M  V30 3929 H 370.128 1.2426 1.50152 0
M  V30 3930 H 369.224 0.896411 2.9895 0
M  V30 3931 N 369.525 -1.3858 0.750561 0
M  V30 3932 C 370.472 -2.30483 0.120835 0
M  V30 3933 C 371.442 -1.50022 -0.712923 0
M  V30 3934 O 372.627 -1.78662 -0.669676 0
M  V30 3935 C 369.767 -3.36431 -0.768666 0
M  V30 3936 C 368.88 -4.31927 0.0793922 0
M  V30 3937 C 368.015 -5.24944 -0.81283 0
M  V30 3938 C 367.054 -6.12088 0.0390447 0
M  V30 3939 N 366.191 -6.97412 -0.809969 0
M  V30 3940 H 371.031 -2.83761 0.91015 0
M  V30 3941 H 368.568 -1.39707 0.460463 0
M  V30 3942 H 370.526 -3.96462 -1.29898 0
M  V30 3943 H 369.156 -2.8457 -1.5238 0
M  V30 3944 H 368.208 -3.73382 0.727303 0
M  V30 3945 H 369.52 -4.93319 0.737401 0
M  V30 3946 H 368.674 -5.90078 -1.41042 0
M  V30 3947 H 367.413 -4.63911 -1.50458 0
M  V30 3948 H 366.418 -5.45952 0.649328 0
M  V30 3949 H 367.643 -6.75189 0.727809 0
M  V30 3950 H 365.589 -6.38931 -1.48672 0
M  V30 3951 H 365.506 -7.55712 -0.208789 0
M  V30 3952 H 366.774 -7.66959 -1.39263 0
M  V30 3953 N 371.003 -0.499398 -1.49478 0
M  V30 3954 C 371.935 0.316575 -2.27003 0
M  V30 3955 C 372.948 0.932047 -1.33479 0
M  V30 3956 O 374.137 0.815658 -1.58774 0
M  V30 3957 C 371.237 1.46055 -3.05812 0
M  V30 3958 C 370.41 0.952679 -4.26899 0
M  V30 3959 C 369.469 1.97407 -4.87767 0
M  V30 3960 O 368.495 1.54326 -5.4788 0
M  V30 3961 N 369.697 3.30436 -4.77276 0
M  V30 3962 H 372.462 -0.348168 -2.97671 0
M  V30 3963 H 370.023 -0.33185 -1.58463 0
M  V30 3964 H 372.015 2.14135 -3.43407 0
M  V30 3965 H 370.585 2.02948 -2.37762 0
M  V30 3966 H 369.805 0.0968248 -3.94081 0
M  V30 3967 H 371.093 0.59174 -5.05347 0
M  V30 3968 H 370.491 3.68126 -4.29534 0
M  V30 3969 H 369.048 3.94235 -5.19059 0
M  V30 3970 N 372.481 1.55866 -0.233164 0
M  V30 3971 C 373.727 1.98897 0.395959 0
M  V30 3972 C 374.06 1.12091 1.58585 0
M  V30 3973 O 373.335 0.181182 1.93654 0
M  V30 3974 C 373.618 3.50658 0.819224 0
M  V30 3975 C 373.471 4.48233 -0.375109 0
M  V30 3976 C 374.79 4.07135 1.67121 0
M  V30 3977 H 371.909 0.723102 0.142451 0
M  V30 3978 H 374.551 1.87082 -0.331725 0
M  V30 3979 H 372.701 3.60857 1.43925 0
M  V30 3980 H 374.373 4.50031 -1.01341 0
M  V30 3981 H 372.616 4.21624 -1.02058 0
M  V30 3982 H 373.287 5.51988 -0.0358328 0
M  V30 3983 H 375.763 3.99952 1.14795 0
M  V30 3984 H 374.639 5.13615 1.93625 0
M  V30 3985 H 374.9 3.54736 2.63846 0
M  V30 3986 N 373.959 -0.0401083 1.57549 0
M  V30 3987 C 375.187 -0.745196 1.93014 0
M  V30 3988 C 375.602 -1.6948 0.831984 0
M  V30 3989 O 374.959 -1.81482 -0.192463 0
M  V30 3990 C 375.01 -1.51176 3.28372 0
M  V30 3991 O 374.731 -0.600284 4.33968 0
M  V30 3992 C 376.232 -2.315 3.78051 0
M  V30 3993 H 373.452 -0.210088 0.637263 0
M  V30 3994 H 375.996 -0.000924689 2.045 0
M  V30 3995 H 374.151 -2.20801 3.18317 0
M  V30 3996 H 374.565 -1.13669 5.12035 0
M  V30 3997 H 376.039 -2.80697 4.75303 0
M  V30 3998 H 376.516 -3.12436 3.08675 0
M  V30 3999 H 377.122 -1.66971 3.91153 0
M  V30 4000 N 375.437 -1.54477 -0.31217 0
M  V30 4001 C 376.677 -1.74958 -1.05684 0
M  V30 4002 C 377.041 -0.518414 -1.84869 0
M  V30 4003 O 378.242 -0.600759 -2.62001 0
M  V30 4004 C 376.513 -2.99656 -1.94785 0
M  V30 4005 S 378.072 -3.4109 -2.76049 0
M  V30 4006 H 374.89 -0.615104 -0.356606 0
M  V30 4007 H 377.492 -1.92669 -0.331514 0
M  V30 4008 H 376.196 -3.87397 -1.35468 0
M  V30 4009 H 375.727 -2.845 -2.71704 0
M  V30 4010 H 377.742 -2.97283 -3.97287 0
M  V30 4011 N 376.915 0.57481 -1.46744 0
M  V30 4012 C 377.845 1.69337 -1.60771 0
M  V30 4013 C 378.826 1.63825 -0.457736 0
M  V30 4014 O 380.011 1.8172 -0.684947 0
M  V30 4015 C 377.141 3.0798 -1.60517 0
M  V30 4016 C 376.095 3.28327 -2.74564 0
M  V30 4017 C 375.421 4.67578 -2.59373 0
M  V30 4018 C 376.721 3.15398 -4.16319 0
M  V30 4019 H 378.415 1.57853 -2.54407 0
M  V30 4020 H 375.961 0.75799 -1.22436 0
M  V30 4021 H 377.914 3.86061 -1.68923 0
M  V30 4022 H 376.638 3.20381 -0.634305 0
M  V30 4023 H 375.297 2.52649 -2.65639 0
M  V30 4024 H 374.945 4.76755 -1.60353 0
M  V30 4025 H 374.645 4.82144 -3.35873 0
M  V30 4026 H 376.169 5.47817 -2.69682 0
M  V30 4027 H 377.583 3.83315 -4.26313 0
M  V30 4028 H 375.98 3.41482 -4.93468 0
M  V30 4029 H 377.05 2.12372 -4.3592 0
M  V30 4030 N 378.394 1.34581 0.820102 0
M  V30 4031 C 379.326 1.22236 1.93884 0
M  V30 4032 C 380.339 0.148776 1.62119 0
M  V30 4033 O 381.528 0.400877 1.7394 0
M  V30 4034 C 378.628 0.856542 3.27897 0
M  V30 4035 C 377.801 2.02569 3.87666 0
M  V30 4036 C 376.86 1.63782 5.00062 0
M  V30 4037 O 375.886 2.35477 5.18208 0
M  V30 4038 N 377.088 0.553611 5.77854 0
M  V30 4039 H 379.853 2.18615 2.05006 0
M  V30 4040 H 377.414 1.27573 0.99683 0
M  V30 4041 H 379.406 0.578806 4.0054 0
M  V30 4042 H 377.976 -0.0171518 3.12595 0
M  V30 4043 H 377.196 2.468 3.07382 0
M  V30 4044 H 378.484 2.80752 4.24329 0
M  V30 4045 H 377.882 -0.0423528 5.65684 0
M  V30 4046 H 376.439 0.335614 6.50935 0
M  V30 4047 N 379.872 -1.04064 1.18357 0
M  V30 4048 C 381.149 -1.74252 0.888581 0
M  V30 4049 C 381.529 -2.02138 -0.60856 0
M  V30 4050 O 380.877 -1.66656 -1.56327 0
M  V30 4051 C 381.087 -3.0277 1.73584 0
M  V30 4052 C 382.435 -3.76506 1.96286 0
M  V30 4053 O 383.459 -3.12668 1.70637 0
M  V30 4054 O 382.318 -4.91243 2.39464 0
M  V30 4055 H 379.412 -0.758271 0.330082 0
M  V30 4056 H 381.958 -1.1013 1.2911 0
M  V30 4057 H 380.73 -2.78299 2.75073 0
M  V30 4058 H 380.353 -3.74631 1.33183 0
M  V30 4059 N 381.35 -0.985608 -1.22978 0
M  V30 4060 C 382.597 -0.657386 -1.91532 0
M  V30 4061 C 382.925 0.809707 -1.76845 0
M  V30 4062 O 382.18 1.60021 -1.12658 0
M  V30 4063 C 382.479 -1.00014 -3.43121 0
M  V30 4064 C 382.145 -2.4583 -3.77993 0
M  V30 4065 C 380.807 -2.85679 -3.87222 0
M  V30 4066 C 383.159 -3.40378 -3.94705 0
M  V30 4067 C 380.487 -4.19081 -4.10595 0
M  V30 4068 C 382.839 -4.73429 -4.1958 0
M  V30 4069 C 381.503 -5.1303 -4.27032 0
M  V30 4070 H 380.773 -0.240555 -0.700867 0
M  V30 4071 H 383.42 -1.24044 -1.45895 0
M  V30 4072 H 381.725 -0.335072 -3.90365 0
M  V30 4073 H 383.422 -0.724322 -3.94404 0
M  V30 4074 H 380.012 -2.13939 -3.71387 0
M  V30 4075 H 384.196 -3.10766 -3.8696 0
M  V30 4076 H 379.452 -4.49362 -4.14589 0
M  V30 4077 H 383.626 -5.46644 -4.31455 0
M  V30 4078 H 381.253 -6.16418 -4.44896 0
M  V30 4079 N 382.828 1.3818 -0.7579 0
M  V30 4080 C 384.075 2.00019 -0.315985 0
M  V30 4081 C 384.403 1.60163 1.10355 0
M  V30 4082 O 383.658 0.83264 1.77103 0
M  V30 4083 C 383.957 3.55252 -0.391218 0
M  V30 4084 C 383.623 4.14834 -1.76702 0
M  V30 4085 C 382.285 4.30821 -2.14353 0
M  V30 4086 C 384.637 4.47658 -2.66931 0
M  V30 4087 C 381.965 4.76928 -3.41696 0
M  V30 4088 C 384.317 4.95184 -3.93669 0
M  V30 4089 C 382.981 5.09377 -4.31383 0
M  V30 4090 H 382.251 0.731923 -0.115627 0
M  V30 4091 H 384.898 1.65161 -0.969223 0
M  V30 4092 H 383.203 3.90273 0.34558 0
M  V30 4093 H 384.9 4.00988 -0.030805 0
M  V30 4094 H 381.49 4.02808 -1.46435 0
M  V30 4095 H 385.674 4.34904 -2.39106 0
M  V30 4096 H 380.93 4.86103 -3.70829 0
M  V30 4097 H 385.104 5.19551 -4.63724 0
M  V30 4098 H 382.731 5.44865 -5.30119 0
M  V30 4099 N 384.306 0.507319 1.49211 0
M  V30 4100 C 385.554 -0.0348839 2.0207 0
M  V30 4101 C 385.875 -1.36898 1.38866 0
M  V30 4102 O 385.145 -1.88133 0.546151 0
M  V30 4103 H 383.725 -0.0158812 0.746831 0
M  V30 4104 H 386.387 0.665998 1.83168 0
M  V30 4105 H 385.483 -0.159917 3.1169 0
M  V30 4106 N 385.784 -1.5574 0.241426 0
M  V30 4107 C 387.061 -1.90704 -0.434881 0
M  V30 4108 C 387.441 -1.16145 -1.76277 0
M  V30 4109 O 386.789 -0.277152 -2.26813 0
M  V30 4110 C 386.999 -3.43657 -0.608343 0
M  V30 4111 C 388.347 -4.14806 -0.906725 0
M  V30 4112 O 389.371 -3.49366 -0.694408 0
M  V30 4113 O 388.23 -5.30548 -1.31075 0
M  V30 4114 H 385.324 -0.793592 -0.23268 0
M  V30 4115 H 387.87 -1.67288 0.285086 0
M  V30 4116 H 386.642 -3.89927 0.327505 0
M  V30 4117 H 386.265 -3.72918 -1.37906 0
M  V30 4118 N 387.262 0.0317525 -1.57568 0
M  V30 4119 C 388.539 0.758366 -1.803 0
M  V30 4120 C 388.919 1.93718 -0.838845 0
M  V30 4121 O 388.267 2.28187 0.119571 0
M  V30 4122 C 388.477 1.19392 -3.27943 0
M  V30 4123 C 389.825 1.61094 -3.92854 0
M  V30 4124 O 390.849 1.28857 -3.32076 0
M  V30 4125 O 389.708 2.20918 -4.99858 0
M  V30 4126 H 386.802 0.366514 -0.741348 0
M  V30 4127 H 389.348 0.00873765 -1.69698 0
M  V30 4128 H 388.12 0.352275 -3.89711 0
M  V30 4129 H 387.743 2.00365 -3.43424 0
M  V30 4130 N 388.74 1.54641 0.303973 0
M  V30 4131 C 390.017 1.64455 1.05896 0
M  V30 4132 C 390.397 0.490923 2.05312 0
M  V30 4133 O 389.745 -0.512685 2.22674 0
M  V30 4134 C 389.955 3.02331 1.74347 0
M  V30 4135 C 391.303 3.59045 2.26653 0
M  V30 4136 O 392.327 3.04764 1.84384 0
M  V30 4137 O 391.186 4.54081 3.04093 0
M  V30 4138 H 388.28 0.666729 0.489287 0
M  V30 4139 H 390.826 1.66986 0.302298 0
M  V30 4140 H 389.598 3.77734 1.02142 0
M  V30 4141 H 389.221 3.03565 2.56777 0
M  V30 4142 N 390.218 -0.567019 1.47046 0
M  V30 4143 C 391.464 -1.32658 1.53394 0
M  V30 4144 C 391.797 -1.93254 0.19148 0
M  V30 4145 O 391.072 -1.77338 -0.798844 0
M  V30 4146 C 391.355 -2.44412 2.64452 0
M  V30 4147 C 391.208 -1.88749 4.08282 0
M  V30 4148 C 392.527 -3.46387 2.71485 0
M  V30 4149 H 389.646 -0.48098 0.558415 0
M  V30 4150 H 392.288 -0.635481 1.79058 0
M  V30 4151 H 390.438 -3.03363 2.427 0
M  V30 4152 H 392.11 -1.34134 4.41368 0
M  V30 4153 H 390.353 -1.19481 4.17021 0
M  V30 4154 H 391.024 -2.69491 4.81745 0
M  V30 4155 H 393.5 -2.9734 2.91081 0
M  V30 4156 H 392.376 -4.2202 3.50985 0
M  V30 4157 H 392.637 -4.04616 1.78153 0
M  V30 4158 N 391.696 -1.35014 -0.812953 0
M  V30 4159 C 392.943 -1.27931 -1.56971 0
M  V30 4160 C 393.271 0.148034 -1.93936 0
M  V30 4161 O 392.526 1.11175 -1.61054 0
M  V30 4162 C 392.825 -2.12524 -2.87347 0
M  V30 4163 C 392.491 -3.61401 -2.6963 0
M  V30 4164 C 391.153 -4.01983 -2.64506 0
M  V30 4165 C 393.505 -4.55894 -2.52607 0
M  V30 4166 C 390.833 -5.35235 -2.40293 0
M  V30 4167 C 393.185 -5.89336 -2.29925 0
M  V30 4168 C 391.849 -6.2907 -2.23219 0
M  V30 4169 H 391.119 -0.468131 -0.574399 0
M  V30 4170 H 393.766 -1.66851 -0.939836 0
M  V30 4171 H 392.071 -1.66463 -3.54679 0
M  V30 4172 H 393.768 -2.04383 -3.45005 0
M  V30 4173 H 390.358 -3.29193 -2.74463 0
M  V30 4174 H 394.542 -4.25431 -2.55583 0
M  V30 4175 H 389.798 -5.65028 -2.33566 0
M  V30 4176 H 393.972 -6.62139 -2.15743 0
M  V30 4177 H 391.599 -7.32256 -2.04219 0
M  V30 4178 N 393.175 1.03435 -1.18907 0
M  V30 4179 C 394.424 1.76143 -0.982669 0
M  V30 4180 C 394.737 1.89416 0.487953 0
M  V30 4181 O 395.943 2.59041 0.813036 0
M  V30 4182 C 394.399 3.16722 -1.70924 0
M  V30 4183 C 394.007 3.11522 -3.21959 0
M  V30 4184 C 395.751 3.93764 -1.58588 0
M  V30 4185 C 393.658 4.46999 -3.87228 0
M  V30 4186 H 392.588 0.660292 -0.364047 0
M  V30 4187 H 395.239 1.158 -1.42347 0
M  V30 4188 H 393.621 3.775 -1.19623 0
M  V30 4189 H 394.795 2.60158 -3.80335 0
M  V30 4190 H 393.11 2.47978 -3.34508 0
M  V30 4191 H 395.707 4.93963 -2.04707 0
M  V30 4192 H 396.05 4.12794 -0.539142 0
M  V30 4193 H 396.583 3.39576 -2.07203 0
M  V30 4194 H 393.322 4.33174 -4.91976 0
M  V30 4195 H 392.842 4.98441 -3.33642 0
M  V30 4196 H 394.521 5.15898 -3.90459 0
M  V30 4197 N 394.653 0.992116 1.22453 0
M  V30 4198 C 395.616 0.546883 2.2258 0
M  V30 4199 C 396.616 -0.369829 1.56489 0
M  V30 4200 O 397.806 -0.161896 1.73446 0
M  V30 4201 C 394.938 -0.204659 3.40285 0
M  V30 4202 H 396.131 1.43234 2.63484 0
M  V30 4203 H 393.684 0.779239 1.3549 0
M  V30 4204 H 394.419 -1.10614 3.04853 0
M  V30 4205 H 394.204 0.45354 3.89468 0
M  V30 4206 H 395.694 -0.504358 4.14543 0
M  V30 4207 N 396.131 -1.37776 0.765217 0
M  V30 4208 C 397.371 -2.01691 0.331669 0
M  V30 4209 C 397.735 -1.59432 -1.06983 0
M  V30 4210 O 398.936 -2.15761 -1.60314 0
M  V30 4211 C 397.207 -3.54385 0.463261 0
M  V30 4212 S 398.766 -4.38652 0.114011 0
M  V30 4213 H 395.584 -0.699387 0.127979 0
M  V30 4214 H 398.186 -1.68084 0.998396 0
M  V30 4215 H 396.89 -3.82629 1.48401 0
M  V30 4216 H 396.421 -3.92783 -0.220246 0
M  V30 4217 H 398.436 -4.84021 -1.09261 0
M  V30 4218 N 397.609 -0.515225 -1.4894 0
M  V30 4219 C 398.857 0.0241671 -2.02086 0
M  V30 4220 C 399.178 1.3616 -1.3959 0
M  V30 4221 O 398.448 1.87841 -0.556121 0
M  V30 4222 H 397.028 0.0119203 -0.746905 0
M  V30 4223 H 399.69 -0.675702 -1.82812 0
M  V30 4224 H 398.786 0.143385 -3.1177 0
M  V30 4225 N 399.087 1.5561 -0.249682 0
M  V30 4226 C 400.498 1.84979 0.252949 0
M  V30 4227 C 400.849 1.17153 1.57384 0
M  V30 4228 O 399.974 0.450884 2.11651 0
M  V30 4229 C 400.569 3.35584 0.465732 0
M  V30 4230 C 399.128 3.65169 0.912624 0
M  V30 4231 C 398.275 2.77299 -0.00859085 0
M  V30 4232 H 401.226 1.51513 -0.47217 0
M  V30 4233 H 401.247 3.57313 1.30795 0
M  V30 4234 H 400.759 3.8492 -0.49579 0
M  V30 4235 H 398.86 3.21312 1.88652 0
M  V30 4236 H 398.973 4.72912 0.767559 0
M  V30 4237 H 397.337 2.49678 0.50327 0
M  V30 4238 H 398.12 3.29442 -0.965537 0
M  V30 4239 N 400.565 -0.0233959 1.57583 0
M  V30 4240 C 401.475 -1.03907 2.10334 0
M  V30 4241 C 402.491 -1.39257 1.04323 0
M  V30 4242 O 403.667 -1.48462 1.36091 0
M  V30 4243 C 400.732 -2.31938 2.57693 0
M  V30 4244 C 399.793 -2.03117 3.78209 0
M  V30 4245 C 399.026 -3.25043 4.233 0
M  V30 4246 O 399.249 -4.35916 3.67876 0
M  V30 4247 O 398.183 -3.10411 5.15683 0
M  V30 4248 H 402.009 -0.620748 2.97288 0
M  V30 4249 H 399.594 -0.240743 1.47448 0
M  V30 4250 H 401.476 -3.07196 2.88458 0
M  V30 4251 H 400.151 -2.73055 1.73847 0
M  V30 4252 H 399.058 -1.25408 3.52454 0
M  V30 4253 H 400.391 -1.66852 4.63056 0
M  V30 4254 N 402.043 -1.548 -0.295768 0
M  V30 4255 C 402.99 -1.86113 -1.36494 0
M  V30 4256 C 403.96 -0.7105 -1.50137 0
M  V30 4257 O 405.145 -0.959626 -1.64912 0
M  V30 4258 C 402.285 -2.11861 -2.72413 0
M  V30 4259 C 401.398 -3.39471 -2.67177 0
M  V30 4260 C 400.533 -3.55035 -3.95125 0
M  V30 4261 C 399.572 -4.76418 -3.84308 0
M  V30 4262 N 398.709 -4.8876 -5.04042 0
M  V30 4263 H 403.549 -2.77314 -1.09091 0
M  V30 4264 H 401.086 -1.37315 -0.52753 0
M  V30 4265 H 403.044 -2.24786 -3.51464 0
M  V30 4266 H 401.674 -1.2392 -2.98066 0
M  V30 4267 H 400.726 -3.35139 -1.79962 0
M  V30 4268 H 402.038 -4.28646 -2.55076 0
M  V30 4269 H 401.192 -3.67653 -4.82614 0
M  V30 4270 H 399.931 -2.64002 -4.10066 0
M  V30 4271 H 398.936 -4.63827 -2.95202 0
M  V30 4272 H 400.161 -5.68863 -3.70906 0
M  V30 4273 H 398.107 -4.00652 -5.19436 0
M  V30 4274 H 398.024 -5.71945 -4.94384 0
M  V30 4275 H 399.292 -5.0574 -5.93167 0
M  V30 4276 N 403.521 0.559213 -1.47345 0
M  V30 4277 C 404.768 1.31648 -1.53867 0
M  V30 4278 C 405.096 1.93468 -0.200104 0
M  V30 4279 O 404.351 1.78295 0.806799 0
M  V30 4280 C 404.65 2.44853 -2.6035 0
M  V30 4281 C 404.316 2.00876 -4.03683 0
M  V30 4282 C 402.978 1.88599 -4.42701 0
M  V30 4283 C 405.33 1.67279 -4.93626 0
M  V30 4284 C 402.658 1.41017 -5.69501 0
M  V30 4285 C 405.01 1.21169 -6.20887 0
M  V30 4286 C 403.674 1.07487 -6.58789 0
M  V30 4287 H 402.944 0.481734 -0.56304 0
M  V30 4288 H 405.591 0.627301 -1.80934 0
M  V30 4289 H 403.896 3.19318 -2.27032 0
M  V30 4290 H 405.593 3.03039 -2.62619 0
M  V30 4291 H 402.183 2.11374 -3.72853 0
M  V30 4292 H 406.367 1.75638 -4.64182 0
M  V30 4293 H 401.623 1.29086 -5.97618 0
M  V30 4294 H 405.797 0.942345 -6.89995 0
M  V30 4295 H 403.424 0.703946 -7.56934 0
M  V30 4296 N 404.999 1.35443 0.805782 0
M  V30 4297 C 406.415 1.15499 1.10146 0
M  V30 4298 C 406.615 -0.0319975 2.01475 0
M  V30 4299 O 405.671 -0.70236 2.42535 0
M  V30 4300 C 406.984 2.45833 1.73166 0
M  V30 4301 C 408.532 2.52047 1.85583 0
M  V30 4302 C 409.007 3.82427 2.52019 0
M  V30 4303 N 410.498 3.83682 2.59504 0
M  V30 4304 C 411.233 4.81294 3.11679 0
M  V30 4305 N 410.729 5.89294 3.64287 0
M  V30 4306 N 412.522 4.6873 3.1024 0
M  V30 4307 H 404.673 2.11469 0.198678 0
M  V30 4308 H 406.936 0.93594 0.150731 0
M  V30 4309 H 406.642 3.32874 1.13526 0
M  V30 4310 H 406.516 2.6044 2.72857 0
M  V30 4311 H 408.903 1.65435 2.44367 0
M  V30 4312 H 408.984 2.41354 0.847455 0
M  V30 4313 H 408.628 4.69437 1.93885 0
M  V30 4314 H 408.558 3.90409 3.53395 0
M  V30 4315 H 411.049 3.05648 2.22234 0
M  V30 4316 H 411.362 6.59768 4.02401 0
M  V30 4317 H 409.707 5.92985 3.62483 0
M  V30 4318 H 412.898 3.83496 2.68419 0
M  V30 4319 H 413.071 5.44965 3.50596 0
M  V30 4320 N 406.477 -1.02803 1.19454 0
M  V30 4321 C 407.707 -1.79581 1.02149 0
M  V30 4322 C 408.115 -1.84182 -0.432851 0
M  V30 4323 O 407.458 -1.28534 -1.31243 0
M  V30 4324 C 407.52 -3.25993 1.51554 0
M  V30 4325 C 407.184 -3.45025 2.99678 0
M  V30 4326 C 408.181 -3.35175 3.97434 0
M  V30 4327 C 405.866 -3.71212 3.38389 0
M  V30 4328 C 407.86 -3.51238 5.31893 0
M  V30 4329 C 405.547 -3.8692 4.73008 0
M  V30 4330 C 406.545 -3.76936 5.69569 0
M  V30 4331 O 406.233 -3.92179 7.01748 0
M  V30 4332 H 405.965 -0.571962 0.360327 0
M  V30 4333 H 408.519 -1.30367 1.58725 0
M  V30 4334 H 406.749 -3.76235 0.893543 0
M  V30 4335 H 408.438 -3.84368 1.30444 0
M  V30 4336 H 409.204 -3.14895 3.68872 0
M  V30 4337 H 405.083 -3.78075 2.6378 0
M  V30 4338 H 408.627 -3.43362 6.07247 0
M  V30 4339 H 404.524 -4.06699 5.01265 0
M  V30 4340 H 405.292 -4.09265 7.08833 0
M  V30 4341 N 407.956 -0.998596 -1.21925 0
M  V30 4342 C 408.919 -0.558679 -2.22287 0
M  V30 4343 C 409.919 0.361525 -1.56683 0
M  V30 4344 O 411.109 0.152695 -1.73529 0
M  V30 4345 C 408.241 0.18661 -3.40389 0
M  V30 4346 H 409.434 -1.4463 -2.62721 0
M  V30 4347 H 406.987 -0.786413 -1.35075 0
M  V30 4348 H 407.722 1.08996 -3.05435 0
M  V30 4349 H 407.507 -0.474188 -3.89222 0
M  V30 4350 H 408.997 0.482367 -4.14805 0
M  V30 4351 N 409.434 1.37368 -0.772513 0
M  V30 4352 C 410.366 2.28899 -0.117502 0
M  V30 4353 C 411.379 1.4867 0.663405 0
M  V30 4354 O 412.568 1.71314 0.501372 0
M  V30 4355 C 409.668 3.2788 0.857192 0
M  V30 4356 C 408.841 4.37207 0.129938 0
M  V30 4357 C 407.9 5.16257 1.01811 0
M  V30 4358 O 406.926 5.67159 0.481601 0
M  V30 4359 N 408.128 5.31058 2.3443 0
M  V30 4360 H 410.893 2.85752 -0.903662 0
M  V30 4361 H 408.454 1.49353 -0.62493 0
M  V30 4362 H 410.446 3.77647 1.45482 0
M  V30 4363 H 409.016 2.7179 1.54432 0
M  V30 4364 H 408.236 3.88827 -0.648605 0
M  V30 4365 H 409.524 5.07434 -0.372559 0
M  V30 4366 H 408.922 4.91287 2.80452 0
M  V30 4367 H 407.479 5.84131 2.89197 0
M  V30 4368 N 410.912 0.523116 1.48665 0
M  V30 4369 C 412.189 -0.0775449 1.95446 0
M  V30 4370 C 412.569 -1.5197 1.4652 0
M  V30 4371 O 411.917 -2.17876 0.688657 0
M  V30 4372 C 412.127 0.0326135 3.48985 0
M  V30 4373 C 413.475 -0.130141 4.24401 0
M  V30 4374 O 414.499 -0.0415142 3.56176 0
M  V30 4375 O 413.358 -0.31491 5.45592 0
M  V30 4376 H 410.452 -0.0831012 0.822814 0
M  V30 4377 H 412.998 0.587227 1.59216 0
M  V30 4378 H 411.77 1.03748 3.77296 0
M  V30 4379 H 411.393 -0.671317 3.91892 0
M  V30 4380 N 412.39 -1.55475 0.257931 0
M  V30 4381 C 413.667 -1.91155 -0.414629 0
M  V30 4382 C 414.047 -1.18008 -1.75035 0
M  V30 4383 O 413.395 -0.301193 -2.26506 0
M  V30 4384 C 413.605 -3.44283 -0.571859 0
M  V30 4385 C 414.953 -4.15744 -0.862678 0
M  V30 4386 O 415.977 -3.50083 -0.657314 0
M  V30 4387 O 414.836 -5.31909 -1.2544 0
M  V30 4388 H 411.93 -0.796016 -0.22425 0
M  V30 4389 H 414.476 -1.66976 0.302814 0
M  V30 4390 H 413.248 -3.89558 0.368844 0
M  V30 4391 H 412.871 -3.7436 -1.33943 0
M  V30 4392 N 413.868 0.0150385 -1.57593 0
M  V30 4393 C 415.115 0.703001 -1.89906 0
M  V30 4394 C 415.443 1.74604 -0.856944 0
M  V30 4395 O 414.698 1.95197 0.140287 0
M  V30 4396 C 414.997 1.39686 -3.28972 0
M  V30 4397 C 414.663 0.488457 -4.48246 0
M  V30 4398 C 413.325 0.2383 -4.8061 0
M  V30 4399 C 415.677 -0.137881 -5.21018 0
M  V30 4400 C 413.005 -0.646738 -5.83125 0
M  V30 4401 C 415.357 -1.0107 -6.24474 0
M  V30 4402 C 414.021 -1.27019 -6.55303 0
M  V30 4403 H 413.291 0.257246 -0.694914 0
M  V30 4404 H 415.938 -0.037259 -1.91464 0
M  V30 4405 H 414.243 2.21079 -3.23468 0
M  V30 4406 H 415.94 1.93495 -3.51227 0
M  V30 4407 H 412.53 0.693593 -4.22951 0
M  V30 4408 H 416.714 0.0423953 -4.96282 0
M  V30 4409 H 411.97 -0.855937 -6.05379 0
M  V30 4410 H 416.144 -1.50247 -6.79999 0
M  V30 4411 H 413.771 -1.95769 -7.3456 0
M  V30 4412 N 415.346 1.54954 0.287554 0
M  V30 4413 C 416.592 1.75132 1.02257 0
M  V30 4414 C 416.925 0.542858 1.86458 0
M  V30 4415 O 416.2 -0.459856 1.88986 0
M  V30 4416 C 416.483 3.04812 1.91733 0
M  V30 4417 C 416.336 4.35985 1.10622 0
M  V30 4418 C 417.655 3.30438 2.90687 0
M  V30 4419 H 414.774 0.637194 0.370341 0
M  V30 4420 H 417.416 1.87678 0.296111 0
M  V30 4421 H 415.566 2.94247 2.53675 0
M  V30 4422 H 417.238 4.58487 0.508636 0
M  V30 4423 H 415.481 4.31865 0.409271 0
M  V30 4424 H 416.152 5.23017 1.76513 0
M  V30 4425 H 418.628 3.40701 2.38877 0
M  V30 4426 H 417.504 4.22467 3.50447 0
M  V30 4427 H 417.765 2.49377 3.65053 0
M  V30 4428 N 416.824 -0.551391 1.4764 0
M  V30 4429 C 417.754 -1.66757 1.63445 0
M  V30 4430 C 418.735 -1.63077 0.483742 0
M  V30 4431 O 419.92 -1.80607 0.71377 0
M  V30 4432 C 417.05 -3.05387 1.65396 0
M  V30 4433 C 416.004 -3.23918 2.79752 0
M  V30 4434 C 415.33 -4.63393 2.66779 0
M  V30 4435 C 416.63 -3.08735 4.21284 0
M  V30 4436 H 418.324 -1.53786 2.56886 0
M  V30 4437 H 415.87 -0.738415 1.23626 0
M  V30 4438 H 417.823 -3.83325 1.75043 0
M  V30 4439 H 416.547 -3.19332 0.685195 0
M  V30 4440 H 415.206 -2.48391 2.69625 0
M  V30 4441 H 414.854 -4.74144 1.67918 0
M  V30 4442 H 414.554 -4.7674 3.43501 0
M  V30 4443 H 416.078 -5.43458 2.78364 0
M  V30 4444 H 417.492 -3.76484 4.32357 0
M  V30 4445 H 415.889 -3.33588 4.98838 0
M  V30 4446 H 416.959 -2.0541 4.39243 0
M  V30 4447 N 418.302 -1.35869 -0.798587 0
M  V30 4448 C 419.579 -1.20145 -1.54352 0
M  V30 4449 C 419.959 0.216161 -2.0999 0
M  V30 4450 O 419.307 1.22068 -1.93162 0
M  V30 4451 C 419.517 -2.27602 -2.64572 0
M  V30 4452 C 420.865 -2.63811 -3.32699 0
M  V30 4453 O 421.889 -2.26576 -2.74849 0
M  V30 4454 O 420.748 -3.27866 -4.37226 0
M  V30 4455 H 417.842 -0.467248 -0.682355 0
M  V30 4456 H 420.388 -1.47574 -0.837859 0
M  V30 4457 H 419.16 -3.2265 -2.21388 0
M  V30 4458 H 418.783 -2.01488 -3.42766 0
M  V30 4459 N 419.78 1.02168 -1.19998 0
M  V30 4460 C 420.73 2.08969 -0.911921 0
M  V30 4461 C 421.714 1.60404 0.12621 0
M  V30 4462 O 422.906 1.76817 -0.0804706 0
M  V30 4463 C 420.035 3.402 -0.460277 0
M  V30 4464 C 419.121 3.9548 -1.53155 0
M  V30 4465 N 419.512 4.24332 -2.75275 0
M  V30 4466 C 417.81 4.23572 -1.39653 0
M  V30 4467 C 418.511 4.68834 -3.44339 0
M  V30 4468 N 417.487 4.70804 -2.71744 0
M  V30 4469 H 421.289 2.29178 -1.83997 0
M  V30 4470 H 418.803 1.20094 -1.09322 0
M  V30 4471 H 420.8 4.16235 -0.235337 0
M  V30 4472 H 419.46 3.21408 0.4612 0
M  V30 4473 H 420.471 4.13393 -3.11973 0
M  V30 4474 H 417.148 4.14005 -0.539067 0
M  V30 4475 H 418.538 5.00019 -4.4881 0
M  V30 4476 N 421.258 1.00505 1.21394 0
M  V30 4477 C 422.483 0.706367 1.95001 0
M  V30 4478 C 422.908 -0.72463 1.73582 0
M  V30 4479 O 422.266 -1.49702 1.0227 0
M  V30 4480 C 422.314 1.03299 3.45487 0
M  V30 4481 O 421.418 0.138275 4.12168 0
M  V30 4482 H 420.759 0.263175 0.609619 0
M  V30 4483 H 423.289 1.34531 1.54151 0
M  V30 4484 H 423.299 0.979872 3.96059 0
M  V30 4485 H 421.974 2.07567 3.60401 0
M  V30 4486 H 420.551 0.247928 3.72075 0
M  V30 4487 N 422.737 -1.36956 0.779787 0
M  V30 4488 C 423.647 -2.33965 0.172491 0
M  V30 4489 C 424.663 -1.60574 -0.670222 0
M  V30 4490 O 425.839 -1.92617 -0.588263 0
M  V30 4491 C 422.904 -3.39761 -0.690173 0
M  V30 4492 C 421.965 -4.28964 0.169924 0
M  V30 4493 C 421.198 -5.29707 -0.651662 0
M  V30 4494 O 421.421 -5.38238 -1.88827 0
M  V30 4495 O 420.355 -6.01873 -0.0566264 0
M  V30 4496 H 424.181 -2.87647 0.974321 0
M  V30 4497 H 421.766 -1.39258 0.541078 0
M  V30 4498 H 423.648 -4.04471 -1.1824 0
M  V30 4499 H 422.323 -2.88394 -1.47006 0
M  V30 4500 H 421.23 -3.67326 0.708696 0
M  V30 4501 H 422.563 -4.83656 0.913085 0
M  V30 4502 N 424.215 -0.530993 -1.48385 0
M  V30 4503 C 425.455 0.000718982 -2.044 0
M  V30 4504 C 425.819 1.31485 -1.39913 0
M  V30 4505 O 427.02 1.93265 -1.86821 0
M  V30 4506 C 425.291 0.119177 -3.57201 0
M  V30 4507 S 426.85 0.600806 -4.34667 0
M  V30 4508 H 423.668 -0.0125473 -0.710889 0
M  V30 4509 H 426.27 -0.711783 -1.82082 0
M  V30 4510 H 424.974 -0.842061 -4.01668 0
M  V30 4511 H 424.505 0.856026 -3.83974 0
M  V30 4512 H 426.52 1.86514 -4.59812 0
M  V30 4513 N 425.693 1.55336 -0.266172 0
M  V30 4514 C 427.109 1.59356 0.0882065 0
M  V30 4515 C 427.309 1.2834 1.55342 0
M  V30 4516 O 426.365 1.03996 2.30089 0
M  V30 4517 C 427.678 2.99409 -0.278364 0
M  V30 4518 C 429.226 3.12196 -0.224243 0
M  V30 4519 C 429.701 4.545 -0.565123 0
M  V30 4520 N 431.192 4.60313 -0.51634 0
M  V30 4521 C 431.927 5.68434 -0.753013 0
M  V30 4522 N 431.423 6.84738 -1.05383 0
M  V30 4523 N 433.216 5.57942 -0.682414 0
M  V30 4524 H 425.367 1.73764 -1.22147 0
M  V30 4525 H 427.63 0.809822 -0.492841 0
M  V30 4526 H 427.336 3.2691 -1.29703 0
M  V30 4527 H 427.21 3.75228 0.385186 0
M  V30 4528 H 429.597 2.84464 0.78512 0
M  V30 4529 H 429.678 2.38609 -0.921922 0
M  V30 4530 H 429.322 4.82956 -1.57213 0
M  V30 4531 H 429.252 5.26374 0.154248 0
M  V30 4532 H 431.743 3.7676 -0.29335 0
M  V30 4533 H 432.056 7.63088 -1.22133 0
M  V30 4534 H 430.401 6.86375 -1.09151 0
M  V30 4535 H 433.592 4.65958 -0.44731 0
M  V30 4536 H 433.765 6.4213 -0.870248 0
M  V30 4537 N 427.171 -0.0066808 1.57599 0
M  V30 4538 C 428.417 -0.693947 1.90558 0
M  V30 4539 C 428.75 -1.73792 0.866594 0
M  V30 4540 O 428.025 -1.94156 -0.115548 0
M  V30 4541 C 428.308 -1.34317 3.34112 0
M  V30 4542 C 428.161 -0.311189 4.48722 0
M  V30 4543 C 429.48 -2.27116 3.7697 0
M  V30 4544 H 426.599 -0.250803 0.693013 0
M  V30 4545 H 429.241 0.043242 1.89951 0
M  V30 4546 H 427.391 -1.9715 3.3476 0
M  V30 4547 H 429.063 0.316944 4.6021 0
M  V30 4548 H 427.306 0.367253 4.32243 0
M  V30 4549 H 427.977 -0.804366 5.46108 0
M  V30 4550 H 430.453 -1.74306 3.77831 0
M  V30 4551 H 429.329 -2.69511 4.78179 0
M  V30 4552 H 429.59 -3.14743 3.10466 0
M  V30 4553 N 428.649 -1.55105 -0.279332 0
M  V30 4554 C 429.579 -1.90557 -1.34945 0
M  V30 4555 C 430.56 -0.766738 -1.51839 0
M  V30 4556 O 431.745 -1.02434 -1.64988 0
M  V30 4557 C 428.875 -2.17193 -2.71006 0
M  V30 4558 C 427.829 -3.33021 -2.68851 0
M  V30 4559 C 427.155 -3.45123 -4.08405 0
M  V30 4560 C 428.455 -4.69578 -2.28678 0
M  V30 4561 H 430.149 -2.80188 -1.05522 0
M  V30 4562 H 427.695 -1.34811 -0.506173 0
M  V30 4563 H 429.648 -2.40581 -3.45975 0
M  V30 4564 H 428.372 -1.24355 -3.01999 0
M  V30 4565 H 427.031 -3.0959 -1.9634 0
M  V30 4566 H 426.679 -2.49762 -4.3661 0
M  V30 4567 H 426.379 -4.22995 -4.07859 0
M  V30 4568 H 427.903 -3.70796 -4.85121 0
M  V30 4569 H 429.317 -4.92553 -2.93368 0
M  V30 4570 H 427.714 -5.5032 -2.39306 0
M  V30 4571 H 428.784 -4.68828 -1.23807 0
M  V30 4572 N 430.127 0.543554 -1.4793 0
M  V30 4573 C 431.074 1.64942 -1.6144 0
M  V30 4574 C 432.044 1.59692 -0.456903 0
M  V30 4575 O 433.229 1.78321 -0.678688 0
M  V30 4576 C 430.369 3.03238 -1.64744 0
M  V30 4577 C 429.482 3.18823 -2.91506 0
M  V30 4578 C 428.617 4.47599 -2.86057 0
M  V30 4579 C 427.656 4.56664 -4.07584 0
M  V30 4580 N 426.793 5.76811 -4.00292 0
M  V30 4581 H 431.633 1.52733 -2.55884 0
M  V30 4582 H 429.17 0.7438 -1.2691 0
M  V30 4583 H 431.128 3.83339 -1.64641 0
M  V30 4584 H 429.758 3.1425 -0.738017 0
M  V30 4585 H 428.81 2.32064 -3.01414 0
M  V30 4586 H 430.122 3.21384 -3.81463 0
M  V30 4587 H 429.276 5.35975 -2.84281 0
M  V30 4588 H 428.015 4.47538 -1.93807 0
M  V30 4589 H 427.02 3.66697 -4.09651 0
M  V30 4590 H 428.245 4.58474 -5.00978 0
M  V30 4591 H 426.191 5.77673 -3.10853 0
M  V30 4592 H 426.108 5.80808 -4.8394 0
M  V30 4593 H 427.376 6.67512 -4.02553 0
M  V30 4594 N 431.605 1.3629 0.791371 0
M  V30 4595 C 432.83 1.33726 1.58531 0
M  V30 4596 C 433.255 -0.0794933 1.87932 0
M  V30 4597 O 432.613 -1.05087 1.47738 0
M  V30 4598 C 432.661 2.16425 2.88431 0
M  V30 4599 O 431.765 1.5554 3.81944 0
M  V30 4600 H 431.106 0.457793 0.480959 0
M  V30 4601 H 433.636 1.79547 0.981031 0
M  V30 4602 H 433.646 2.28933 3.37718 0
M  V30 4603 H 432.321 3.19415 2.66359 0
M  V30 4604 H 430.898 1.51961 3.40532 0
M  V30 4605 N 433.083 -1.0153 1.20538 0
M  V30 4606 C 434.308 -1.79283 1.04271 0
M  V30 4607 C 434.733 -1.8372 -0.403544 0
M  V30 4608 O 434.091 -1.27321 -1.2907 0
M  V30 4609 C 434.139 -3.21535 1.63241 0
M  V30 4610 O 433.243 -4.03099 0.870908 0
M  V30 4611 H 432.584 -0.55293 0.367647 0
M  V30 4612 H 435.114 -1.27696 1.59859 0
M  V30 4613 H 435.124 -3.72243 1.6703 0
M  V30 4614 H 433.799 -3.1762 2.68497 0
M  V30 4615 H 432.376 -3.61693 0.907323 0
M  V30 4616 N 434.561 -1.01147 -1.20859 0
M  V30 4617 C 435.791 -0.715872 -1.93801 0
M  V30 4618 C 436.199 0.726592 -1.74692 0
M  V30 4619 O 435.542 1.50397 -1.05482 0
M  V30 4620 C 435.604 -0.965269 -3.46299 0
M  V30 4621 C 435.268 -2.39584 -3.89164 0
M  V30 4622 C 436.265 -3.3764 -3.95342 0
M  V30 4623 C 433.95 -2.73522 -4.21297 0
M  V30 4624 C 435.944 -4.67698 -4.33056 0
M  V30 4625 C 433.631 -4.03794 -4.58687 0
M  V30 4626 C 434.629 -5.00693 -4.64538 0
M  V30 4627 O 434.317 -6.28635 -5.01072 0
M  V30 4628 H 434.049 -0.262524 -0.622942 0
M  V30 4629 H 436.603 -1.35413 -1.54443 0
M  V30 4630 H 434.833 -0.269847 -3.85757 0
M  V30 4631 H 436.522 -0.662051 -4.00464 0
M  V30 4632 H 437.288 -3.12757 -3.70686 0
M  V30 4633 H 433.167 -1.9879 -4.15937 0
M  V30 4634 H 436.711 -5.4333 -4.37537 0
M  V30 4635 H 432.608 -4.28459 -4.82797 0
M  V30 4636 H 433.376 -6.32847 -5.19083 0
M  V30 4637 N 436.039 1.36541 -0.78704 0
M  V30 4638 C 437.264 2.0409 -0.369053 0
M  V30 4639 C 437.689 1.58957 1.00569 0
M  V30 4640 O 437.047 0.756926 1.64743 0
M  V30 4641 C 437.095 3.57924 -0.438466 0
M  V30 4642 O 436.199 4.08642 0.555479 0
M  V30 4643 H 435.54 0.645142 -0.157122 0
M  V30 4644 H 438.07 1.74545 -1.06749 0
M  V30 4645 H 438.08 4.06887 -0.301218 0
M  V30 4646 H 436.755 3.90127 -1.44132 0
M  V30 4647 H 435.332 3.70958 0.380088 0
M  V30 4648 N 437.518 0.538854 1.48102 0
M  V30 4649 C 438.934 0.19732 1.58376 0
M  V30 4650 C 439.134 -1.29971 1.5398 0
M  V30 4651 O 438.19 -2.07861 1.43352 0
M  V30 4652 C 439.503 0.807716 2.89649 0
M  V30 4653 C 441.051 0.77726 3.03196 0
M  V30 4654 C 441.526 1.36639 4.37143 0
M  V30 4655 N 443.017 1.32875 4.43732 0
M  V30 4656 C 443.752 1.7544 5.45901 0
M  V30 4657 N 443.248 2.25776 6.54979 0
M  V30 4658 N 445.041 1.66623 5.36836 0
M  V30 4659 H 437.192 1.5117 1.49202 0
M  V30 4660 H 439.455 0.629327 0.708979 0
M  V30 4661 H 439.161 1.85909 2.98548 0
M  V30 4662 H 439.035 0.289975 3.76084 0
M  V30 4663 H 441.422 -0.265374 2.93904 0
M  V30 4664 H 441.503 1.33256 2.18349 0
M  V30 4665 H 441.147 2.408 4.47189 0
M  V30 4666 H 441.077 0.786689 5.20691 0
M  V30 4667 H 443.568 0.96037 3.65493 0
M  V30 4668 H 443.881 2.56226 7.29087 0
M  V30 4669 H 442.226 2.29775 6.55918 0
M  V30 4670 H 445.417 1.27089 4.50517 0
M  V30 4671 H 445.59 2.00115 6.16326 0
M  V30 4672 N 438.996 -1.55193 0.274407 0
M  V30 4673 C 440.221 -2.04446 -0.348824 0
M  V30 4674 C 440.646 -1.15149 -1.48735 0
M  V30 4675 O 440.004 -0.149952 -1.80679 0
M  V30 4676 C 440.052 -3.51431 -0.808009 0
M  V30 4677 O 439.156 -3.65225 -1.91531 0
M  V30 4678 H 438.497 -0.66006 -0.0722276 0
M  V30 4679 H 441.027 -2.00481 0.408498 0
M  V30 4680 H 441.037 -3.92781 -1.10395 0
M  V30 4681 H 439.712 -4.15892 0.0249865 0
M  V30 4682 H 438.289 -3.35778 -1.62196 0
M  V30 4683 N 440.474 -0.00167713 -1.576 0
M  V30 4684 C 441.699 0.69739 -1.95323 0
M  V30 4685 C 442.124 1.6642 -0.876706 0
M  V30 4686 O 441.482 1.80548 0.165007 0
M  V30 4687 C 441.53 1.40403 -3.32144 0
M  V30 4688 O 440.634 2.5185 -3.26566 0
M  V30 4689 H 439.975 0.185373 -0.637599 0
M  V30 4690 H 442.505 -0.0553665 -2.04525 0
M  V30 4691 H 442.515 1.76707 -3.67748 0
M  V30 4692 H 441.19 0.695167 -4.10049 0
M  V30 4693 H 439.767 2.17861 -3.0264 0
M  V30 4694 N 441.952 1.55251 0.271103 0
M  V30 4695 C 442.915 1.87484 1.31842 0
M  V30 4696 C 443.915 0.749545 1.42262 0
M  V30 4697 O 445.105 1.01771 1.4138 0
M  V30 4698 C 442.237 2.0818 2.69951 0
M  V30 4699 H 443.43 2.81108 1.0449 0
M  V30 4700 H 440.983 1.47771 0.509258 0
M  V30 4701 H 441.718 1.16944 3.02481 0
M  V30 4702 H 441.503 2.90114 2.63774 0
M  V30 4703 H 442.993 2.34385 3.4562 0
M  V30 4704 N 443.43 -0.535701 1.48216 0
M  V30 4705 C 444.676 -1.29375 1.56173 0
M  V30 4706 C 445.009 -1.92804 0.232429 0
M  V30 4707 O 444.284 -1.78992 -0.761048 0
M  V30 4708 C 444.567 -2.38747 2.69577 0
M  V30 4709 C 444.42 -1.80046 4.12193 0
M  V30 4710 C 445.739 -3.40551 2.78771 0
M  V30 4711 H 442.858 -0.469027 0.568491 0
M  V30 4712 H 445.5 -0.597358 1.80365 0
M  V30 4713 H 443.65 -2.98147 2.4908 0
M  V30 4714 H 445.322 -1.24742 4.44114 0
M  V30 4715 H 443.565 -1.10609 4.19462 0
M  V30 4716 H 444.236 -2.59212 4.87353 0
M  V30 4717 H 446.712 -2.91099 2.97322 0
M  V30 4718 H 445.588 -4.1448 3.59857 0
M  V30 4719 H 445.849 -4.00746 1.86696 0
M  V30 4720 N 444.908 -1.36708 -0.784132 0
M  V30 4721 C 445.855 -1.31466 -1.89698 0
M  V30 4722 C 446.825 -0.18239 -1.65096 0
M  V30 4723 O 448.01 -0.369762 -1.87183 0
M  V30 4724 C 445.15 -1.1151 -3.26588 0
M  V30 4725 C 444.263 -2.33859 -3.63227 0
M  V30 4726 C 443.398 -2.06873 -4.89262 0
M  V30 4727 C 442.437 -3.25154 -5.18595 0
M  V30 4728 N 441.574 -2.978 -6.35814 0
M  V30 4729 H 446.414 -2.26619 -1.93515 0
M  V30 4730 H 443.951 -1.12625 -0.946256 0
M  V30 4731 H 445.909 -0.979653 -4.05535 0
M  V30 4732 H 444.539 -0.200103 -3.22179 0
M  V30 4733 H 443.591 -2.58188 -2.79362 0
M  V30 4734 H 444.903 -3.22109 -3.8085 0
M  V30 4735 H 444.057 -1.90289 -5.76086 0
M  V30 4736 H 442.796 -1.15942 -4.73718 0
M  V30 4737 H 441.801 -3.42292 -4.30251 0
M  V30 4738 H 443.026 -4.1692 -5.36055 0
M  V30 4739 H 440.972 -2.09485 -6.21653 0
M  V30 4740 H 440.889 -3.7959 -6.53794 0
M  V30 4741 H 442.157 -2.84805 -7.25607 0
M  V30 4742 N 446.386 1.0089 -1.21074 0
M  V30 4743 C 447.616 1.77933 -1.04993 0
M  V30 4744 C 448.024 1.84847 0.403495 0
M  V30 4745 O 447.367 1.30606 1.29181 0
M  V30 4746 C 447.429 3.23541 -1.56722 0
M  V30 4747 C 447.093 3.40214 -3.05129 0
M  V30 4748 C 448.09 3.2881 -4.02716 0
M  V30 4749 C 445.775 3.65781 -3.44252 0
M  V30 4750 C 447.769 3.42732 -5.37414 0
M  V30 4751 C 445.456 3.79346 -4.79103 0
M  V30 4752 C 446.454 3.67827 -5.75493 0
M  V30 4753 O 446.142 3.80965 -7.07899 0
M  V30 4754 H 445.874 0.566157 -0.369381 0
M  V30 4755 H 448.428 1.27826 -1.60779 0
M  V30 4756 H 446.658 3.74766 -0.953285 0
M  V30 4757 H 448.347 3.82245 -1.36543 0
M  V30 4758 H 449.113 3.08986 -3.73835 0
M  V30 4759 H 444.992 3.73831 -2.69762 0
M  V30 4760 H 448.536 3.33658 -6.12632 0
M  V30 4761 H 444.433 3.98672 -5.07672 0
M  V30 4762 H 445.201 3.97937 -7.15254 0
M  V30 4763 N 447.864 1.01787 1.20321 0
M  V30 4764 C 449.089 0.727009 1.9424 0
M  V30 4765 C 449.514 -0.706179 1.74341 0
M  V30 4766 O 448.872 -1.48609 1.03852 0
M  V30 4767 C 448.92 1.06958 3.44372 0
M  V30 4768 O 448.024 0.181983 4.11998 0
M  V30 4769 H 447.365 0.269626 0.606793 0
M  V30 4770 H 449.895 1.36158 1.52716 0
M  V30 4771 H 449.905 1.02182 3.94997 0
M  V30 4772 H 448.58 2.11378 3.58179 0
M  V30 4773 H 447.157 0.287378 3.71791 0
M  V30 4774 N 449.342 -1.36122 0.79427 0
M  V30 4775 C 450.59 -1.98718 0.368177 0
M  V30 4776 C 450.911 -1.63345 -1.06506 0
M  V30 4777 O 450.181 -0.909825 -1.73491 0
M  V30 4778 H 448.761 -0.735038 0.133146 0
M  V30 4779 H 451.423 -1.66239 1.01739 0
M  V30 4780 H 450.519 -3.08633 0.463923 0
M  V30 4781 N 450.82 -0.546701 -1.47814 0
M  V30 4782 C 452.045 -0.021268 -2.07389 0
M  V30 4783 C 452.47 1.25822 -1.39822 0
M  V30 4784 O 451.828 1.75111 -0.46968 0
M  V30 4785 C 451.876 0.168502 -3.60206 0
M  V30 4786 O 450.98 1.23347 -3.93522 0
M  V30 4787 H 450.321 -0.0466108 -0.662362 0
M  V30 4788 H 452.851 -0.759387 -1.89985 0
M  V30 4789 H 452.861 0.385982 -4.0617 0
M  V30 4790 H 451.536 -0.766075 -4.08784 0
M  V30 4791 H 450.113 0.997319 -3.59316 0
M  V30 4792 N 452.299 1.55045 -0.282633 0
M  V30 4793 C 453.246 2.22822 0.601566 0
M  V30 4794 C 454.216 1.20431 1.14392 0
M  V30 4795 O 455.401 1.48996 1.19184 0
M  V30 4796 C 452.541 2.95873 1.77632 0
M  V30 4797 C 451.654 4.12999 1.26711 0
M  V30 4798 C 450.789 4.73676 2.40426 0
M  V30 4799 C 449.828 5.82981 1.86545 0
M  V30 4800 N 448.965 6.3769 2.93762 0
M  V30 4801 H 453.805 2.97995 0.0169528 0
M  V30 4802 H 451.342 1.471 -0.00339964 0
M  V30 4803 H 453.3 3.36447 2.46697 0
M  V30 4804 H 451.93 2.2311 2.33285 0
M  V30 4805 H 450.982 3.77494 0.469314 0
M  V30 4806 H 452.294 4.91803 0.832518 0
M  V30 4807 H 451.448 5.17008 3.17471 0
M  V30 4808 H 450.187 3.94164 2.87203 0
M  V30 4809 H 449.192 5.39092 1.07983 0
M  V30 4810 H 450.417 6.64366 1.40694 0
M  V30 4811 H 448.363 5.61069 3.39908 0
M  V30 4812 H 448.28 7.11788 2.54744 0
M  V30 4813 H 449.548 6.8568 3.7076 0
M  V30 4814 N 453.777 0.010035 1.57597 0
M  V30 4815 C 455.002 -0.687021 1.95691 0
M  V30 4816 C 455.427 -1.65952 0.885519 0
M  V30 4817 O 454.785 -1.80633 -0.15543 0
M  V30 4818 C 454.833 -1.3864 3.32884 0
M  V30 4819 O 453.937 -2.50115 3.27897 0
M  V30 4820 H 453.278 -0.181989 0.638573 0
M  V30 4821 H 455.808 0.0662122 2.04493 0
M  V30 4822 H 455.818 -1.74754 3.6868 0
M  V30 4823 H 454.493 -0.673411 4.10412 0
M  V30 4824 H 453.07 -2.16253 3.03791 0
M  V30 4825 N 455.255 -1.55392 -0.262866 0
M  V30 4826 C 456.666 -1.67079 -0.833158 0
M  V30 4827 C 457.017 -0.604539 -1.86654 0
M  V30 4828 O 456.142 0.252138 -2.14926 0
M  V30 4829 C 456.737 -3.02891 -1.51797 0
M  V30 4830 C 455.296 -3.16571 -2.03617 0
M  V30 4831 C 454.443 -2.62909 -0.881701 0
M  V30 4832 H 457.394 -1.58652 -0.0389986 0
M  V30 4833 H 457.415 -2.96445 -2.38538 0
M  V30 4834 H 456.927 -3.80473 -0.765619 0
M  V30 4835 H 455.028 -2.43782 -2.81782 0
M  V30 4836 H 455.141 -4.23271 -2.24452 0
M  V30 4837 H 453.505 -2.20324 -1.27786 0
M  V30 4838 H 454.288 -3.43003 -0.14269 0
M  V30 4839 N 456.733 0.527833 -1.48498 0
M  V30 4840 C 457.981 1.28101 -1.56316 0
M  V30 4841 C 458.302 1.9352 -0.239781 0
M  V30 4842 O 457.572 1.81433 0.738849 0
M  V30 4843 H 456.152 0.475793 -0.575873 0
M  V30 4844 H 458.814 0.614052 -1.84974 0
M  V30 4845 H 457.91 2.05916 -2.34532 0
M  V30 4846 N 458.211 1.37122 0.776871 0
M  V30 4847 C 459.622 1.28667 1.35284 0
M  V30 4848 C 459.973 -0.0680035 1.96082 0
M  V30 4849 O 459.098 -0.969743 1.93455 0
M  V30 4850 C 459.693 2.32997 2.45963 0
M  V30 4851 C 458.252 2.28191 2.99342 0
M  V30 4852 C 457.399 2.17101 1.72517 0
M  V30 4853 H 460.35 1.47819 0.577527 0
M  V30 4854 H 460.371 1.97366 3.2531 0
M  V30 4855 H 459.883 3.3158 2.01684 0
M  V30 4856 H 457.984 1.33115 3.4801 0
M  V30 4857 H 458.097 3.21397 3.55304 0
M  V30 4858 H 456.461 1.63562 1.95242 0
M  V30 4859 H 457.244 3.17591 1.30348 0
M  V30 4860 N 459.689 -1.00246 1.21608 0
M  V30 4861 C 460.914 -1.78167 1.06167 0
M  V30 4862 C 461.339 -1.84138 -0.384035 0
M  V30 4863 O 460.697 -1.28683 -1.27712 0
M  V30 4864 C 460.745 -3.19786 1.66642 0
M  V30 4865 O 459.849 -4.02153 0.913613 0
M  V30 4866 H 459.19 -0.549 0.37349 0
M  V30 4867 H 461.72 -1.25994 1.61204 0
M  V30 4868 H 461.73 -3.70451 1.70969 0
M  V30 4869 H 460.405 -3.14754 2.7185 0
M  V30 4870 H 458.982 -3.60711 0.945635 0
M  V30 4871 N 461.167 -1.02423 -1.1978 0
M  V30 4872 C 462.583 -0.740459 -1.41384 0
M  V30 4873 C 462.783 0.676827 -1.89793 0
M  V30 4874 O 461.839 1.4435 -2.0717 0
M  V30 4875 C 463.152 -1.77264 -2.42895 0
M  V30 4876 C 464.7 -1.79165 -2.56649 0
M  V30 4877 C 465.175 -2.8133 -3.6141 0
M  V30 4878 N 466.666 -2.80118 -3.68901 0
M  V30 4879 C 467.401 -3.55824 -4.49641 0
M  V30 4880 N 466.897 -4.41231 -5.34123 0
M  V30 4881 N 468.69 -3.44387 -4.44246 0
M  V30 4882 H 460.841 -1.9391 -0.866764 0
M  V30 4883 H 463.104 -0.838074 -0.443098 0
M  V30 4884 H 462.81 -2.7884 -2.14339 0
M  V30 4885 H 462.684 -1.59108 -3.42001 0
M  V30 4886 H 465.071 -0.782702 -2.84531 0
M  V30 4887 H 465.152 -2.01396 -1.57713 0
M  V30 4888 H 464.796 -3.82394 -3.34271 0
M  V30 4889 H 464.726 -2.56359 -4.59986 0
M  V30 4890 H 467.217 -2.1817 -3.08562 0
M  V30 4891 H 467.53 -4.95747 -5.92836 0
M  V30 4892 H 465.875 -4.45306 -5.33599 0
M  V30 4893 H 469.066 -2.7708 -3.77285 0
M  V30 4894 H 469.239 -4.0364 -5.06931 0
M  V30 4895 N 462.645 1.35699 -0.801477 0
M  V30 4896 C 464.061 1.52065 -0.484596 0
M  V30 4897 C 464.261 1.75215 0.995084 0
M  V30 4898 O 463.317 1.79061 1.78026 0
M  V30 4899 C 464.63 2.69908 -1.32552 0
M  V30 4900 C 466.178 2.83784 -1.32044 0
M  V30 4901 C 466.653 4.04646 -2.14536 0
M  V30 4902 N 468.144 4.11814 -2.12046 0
M  V30 4903 C 468.879 5.04437 -2.72636 0
M  V30 4904 N 468.375 6.02426 -3.42133 0
M  V30 4905 N 470.168 4.97144 -2.62305 0
M  V30 4906 H 462.319 1.18928 -1.75983 0
M  V30 4907 H 464.582 0.581455 -0.748741 0
M  V30 4908 H 464.288 2.59363 -2.37537 0
M  V30 4909 H 464.162 3.64376 -0.975181 0
M  V30 4910 H 466.549 2.93783 -0.27846 0
M  V30 4911 H 466.63 1.90188 -1.71062 0
M  V30 4912 H 466.274 3.95407 -3.18772 0
M  V30 4913 H 466.204 4.97413 -1.72882 0
M  V30 4914 H 468.695 3.41664 -1.61476 0
M  V30 4915 H 469.008 6.69688 -3.85666 0
M  V30 4916 H 467.353 6.02615 -3.46237 0
M  V30 4917 H 470.544 4.19546 -2.07603 0
M  V30 4918 H 470.717 5.69138 -3.09815 0
M  V30 4919 N 464.123 0.554532 1.47522 0
M  V30 4920 C 465.348 0.0322661 2.07375 0
M  V30 4921 C 465.773 -1.25079 1.40488 0
M  V30 4922 O 465.131 -1.74859 0.47896 0
M  V30 4923 C 465.179 -0.149397 3.6029 0
M  V30 4924 O 464.283 -1.21259 3.9417 0
M  V30 4925 H 463.624 0.0501228 0.662106 0
M  V30 4926 H 466.154 0.769452 1.8958 0
M  V30 4927 H 466.164 -0.364437 4.06369 0
M  V30 4928 H 464.839 0.787743 4.08372 0
M  V30 4929 H 463.416 -0.97825 3.5984 0
M  V30 4930 N 465.601 -1.54893 0.290851 0
M  V30 4931 C 466.548 -2.23138 -0.58974 0
M  V30 4932 C 467.518 -1.21036 -1.13752 0
M  V30 4933 O 468.703 -1.49626 -1.18392 0
M  V30 4934 C 465.843 -2.96811 -1.76061 0
M  V30 4935 C 464.956 -4.13665 -1.24519 0
M  V30 4936 C 464.091 -4.74944 -2.3791 0
M  V30 4937 C 463.13 -5.83963 -1.83451 0
M  V30 4938 N 462.267 -6.39239 -2.90376 0
M  V30 4939 H 467.107 -2.98 -0.00114915 0
M  V30 4940 H 464.644 -1.47096 0.0112006 0
M  V30 4941 H 466.602 -3.37751 -2.44909 0
M  V30 4942 H 465.232 -2.24344 -2.32098 0
M  V30 4943 H 464.284 -3.77737 -0.449288 0
M  V30 4944 H 465.596 -4.92238 -0.806424 0
M  V30 4945 H 464.75 -5.18684 -3.14724 0
M  V30 4946 H 463.489 -3.95682 -2.85109 0
M  V30 4947 H 462.494 -5.39657 -1.05122 0
M  V30 4948 H 463.719 -6.65103 -1.37169 0
M  V30 4949 H 461.665 -5.62864 -3.36927 0
M  V30 4950 H 461.582 -7.13129 -2.50965 0
M  V30 4951 H 462.85 -6.87637 -3.67118 0
M  V30 4952 N 467.08 -0.0183926 -1.57589 0
M  V30 4953 C 468.305 0.676634 -1.96052 0
M  V30 4954 C 468.73 1.6548 -0.894307 0
M  V30 4955 O 468.088 1.80712 0.145849 0
M  V30 4956 C 468.136 1.36872 -3.33614 0
M  V30 4957 O 467.24 2.48372 -3.29219 0
M  V30 4958 H 466.581 0.1786 -0.63953 0
M  V30 4959 H 469.111 -0.077056 -2.04455 0
M  V30 4960 H 469.121 1.72797 -3.69601 0
M  V30 4961 H 467.796 0.651636 -4.10763 0
M  V30 4962 H 466.373 2.14639 -3.04934 0
M  V30 4963 N 468.558 1.5553 0.254621 0
M  V30 4964 C 469.969 1.67518 0.824286 0
M  V30 4965 C 470.32 0.614429 1.86331 0
M  V30 4966 O 469.445 -0.240736 2.15057 0
M  V30 4967 C 470.04 3.03692 1.50189 0
M  V30 4968 C 468.599 3.17646 2.01935 0
M  V30 4969 C 467.746 2.63373 0.867746 0
M  V30 4970 H 470.697 1.58671 0.0305843 0
M  V30 4971 H 470.718 2.97706 2.36962 0
M  V30 4972 H 470.23 3.80874 0.745431 0
M  V30 4973 H 468.331 2.45273 2.80485 0
M  V30 4974 H 468.444 4.24455 2.22204 0
M  V30 4975 H 466.808 2.20999 1.26616 0
M  V30 4976 H 467.591 3.43074 0.124498 0
M  V30 4977 N 470.036 -0.519951 1.48776 0
M  V30 4978 C 470.999 -1.60574 1.6355 0
M  V30 4979 C 471.999 -1.52557 0.508234 0
M  V30 4980 O 473.189 -1.56047 0.774262 0
M  V30 4981 C 470.321 -3.00211 1.61512 0
M  V30 4982 H 471.514 -1.4881 2.60376 0
M  V30 4983 H 469.067 -0.742772 1.37523 0
M  V30 4984 H 469.802 -3.17471 0.662009 0
M  V30 4985 H 469.587 -3.07439 2.43359 0
M  V30 4986 H 471.077 -3.79134 1.75064 0
M  V30 4987 N 471.514 -1.37532 -0.769588 0
M  V30 4988 C 472.739 -1.36231 -1.56384 0
M  V30 4989 C 473.164 0.0495849 -1.88035 0
M  V30 4990 O 472.522 1.02723 -1.49391 0
M  V30 4991 C 472.57 -2.20986 -2.84952 0
M  V30 4992 O 471.674 -1.61597 -3.79421 0
M  V30 4993 H 471.015 -0.465387 -0.473615 0
M  V30 4994 H 473.545 -1.81085 -0.952342 0
M  V30 4995 H 473.555 -2.34277 -3.34034 0
M  V30 4996 H 472.23 -3.23612 -2.61243 0
M  V30 4997 H 470.807 -1.57359 -3.38072 0
M  V30 4998 N 472.992 0.995999 -1.22138 0
M  V30 4999 C 474.238 1.73767 -1.04561 0
M  V30 5000 C 474.571 1.89633 0.418698 0
M  V30 5001 O 473.846 1.43723 1.3105 0
M  V30 5002 C 474.129 3.14505 -1.75382 0
M  V30 5003 C 473.982 3.06306 -3.29388 0
M  V30 5004 C 475.301 4.13615 -1.50369 0
M  V30 5005 H 472.42 0.630728 -0.38125 0
M  V30 5006 H 475.062 1.16057 -1.50435 0
M  V30 5007 H 473.212 3.63775 -1.36383 0
M  V30 5008 H 474.884 2.64681 -3.77812 0
M  V30 5009 H 473.127 2.43186 -3.59226 0
M  V30 5010 H 473.798 4.05884 -3.74116 0
M  V30 5011 H 476.274 3.73089 -1.84239 0
M  V30 5012 H 475.15 5.10212 -2.02421 0
M  V30 5013 H 475.411 4.39949 -0.435611 0
M  V30 5014 N 474.47 1.03057 1.19235 0
M  V30 5015 C 475.418 0.606391 2.24557 0
M  V30 5016 C 476.412 -0.361826 1.65491 0
M  V30 5017 O 477.618 -0.23022 1.78522 0
M  V30 5018 H 473.993 0.177838 0.730669 0
M  V30 5019 H 475.964 1.50529 2.5765 0
M  V30 5020 C 474.713 -0.0252127 3.47691 0
M  V30 5021 H 474.036 0.710838 3.9343 0
M  V30 5022 H 475.476 -0.284931 4.23042 0
M  V30 5023 C 473.935 -1.27229 3.11953 0
M  V30 5024 O 474.465 -2.36416 3.24762 0
M  V30 5025 N 472.671 -1.16169 2.6637 0
M  V30 5026 H 472.218 -0.273189 2.56147 0
M  V30 5027 H 472.176 -1.99703 2.42829 0
M  V30 5028 N 475.948 -1.35272 0.808662 0
M  V30 5029 C 477.196 -1.98316 0.389233 0
M  V30 5030 C 477.517 -1.64465 -1.04767 0
M  V30 5031 O 476.787 -0.928175 -1.72516 0
M  V30 5032 H 475.367 -0.733585 0.140935 0
M  V30 5033 H 478.029 -1.6515 1.03496 0
M  V30 5034 H 477.125 -3.08123 0.496631 0
M  V30 5035 N 477.426 -0.562348 -1.47226 0
M  V30 5036 C 478.654 -0.0452275 -2.06851 0
M  V30 5037 C 479.069 1.25078 -1.41424 0
M  V30 5038 O 478.426 1.75156 -0.512513 0
M  V30 5039 C 478.477 0.148674 -3.61194 0
M  V30 5040 O 478.198 -1.09602 -4.24169 0
M  V30 5041 C 479.699 0.702488 -4.37699 0
M  V30 5042 H 476.919 -0.0481775 -0.669268 0
M  V30 5043 H 479.463 -0.777223 -1.89155 0
M  V30 5044 H 477.618 0.830817 -3.78386 0
M  V30 5045 H 478.032 -0.896982 -5.16773 0
M  V30 5046 H 479.506 0.78743 -5.46355 0
M  V30 5047 H 479.983 1.71493 -4.04335 0
M  V30 5048 H 480.589 0.0558772 -4.25263 0
M  V30 5049 N 478.904 1.54736 -0.299062 0
M  V30 5050 C 480.315 1.8569 0.193971 0
M  V30 5051 C 480.666 1.22101 1.53577 0
M  V30 5052 O 479.791 0.51799 2.10109 0
M  V30 5053 C 480.386 3.36895 0.358733 0
M  V30 5054 C 478.945 3.67887 0.795986 0
M  V30 5055 C 478.092 2.77131 -0.096807 0
M  V30 5056 H 481.043 1.49934 -0.520134 0
M  V30 5057 H 481.064 3.61294 1.19361 0
M  V30 5058 H 480.576 3.83148 -0.617998 0
M  V30 5059 H 478.677 3.27151 1.78334 0
M  V30 5060 H 478.79 4.75114 0.616718 0
M  V30 5061 H 477.154 2.51153 0.423581 0
M  V30 5062 H 477.937 3.26204 -1.06986 0
M  V30 5063 N 480.382 0.0267497 1.57577 0
M  V30 5064 C 481.607 -0.666227 1.96408 0
M  V30 5065 C 482.032 -1.65004 0.903071 0
M  V30 5066 O 481.39 -1.80787 -0.136263 0
M  V30 5067 C 481.438 -1.35101 3.34335 0
M  V30 5068 O 480.542 -2.46623 3.30531 0
M  V30 5069 H 479.883 -0.175206 0.640468 0
M  V30 5070 H 482.413 0.0878977 2.04411 0
M  V30 5071 H 482.423 -1.70834 3.70513 0
M  V30 5072 H 481.098 -0.629844 4.11103 0
M  V30 5073 H 479.675 -2.13019 3.06068 0
M  V30 5074 N 481.861 -1.55662 -0.24637 0
M  V30 5075 C 483.086 -1.81914 -0.996093 0
M  V30 5076 C 483.511 -0.603875 -1.78143 0
M  V30 5077 O 482.869 0.447091 -1.75701 0
M  V30 5078 C 482.917 -3.05908 -1.90925 0
M  V30 5079 O 482.021 -2.82861 -3.00105 0
M  V30 5080 H 481.362 -0.600481 -0.283406 0
M  V30 5081 H 483.892 -2.02848 -0.267199 0
M  V30 5082 H 483.902 -3.35356 -2.3238 0
M  V30 5083 H 482.577 -3.93999 -1.33183 0
M  V30 5084 H 481.154 -2.64583 -2.62775 0
M  V30 5085 N 483.339 0.512053 -1.4905 0
M  V30 5086 C 484.271 1.63121 -1.6101 0
M  V30 5087 C 485.284 1.55145 -0.493352 0
M  V30 5088 O 486.473 1.61278 -0.764955 0
M  V30 5089 C 483.573 3.01863 -1.54052 0
M  V30 5090 C 482.746 3.35138 -2.81072 0
M  V30 5091 C 481.805 4.5324 -2.67319 0
M  V30 5092 O 480.831 4.55571 -3.41238 0
M  V30 5093 N 482.033 5.52495 -1.78127 0
M  V30 5094 H 484.798 1.53292 -2.5753 0
M  V30 5095 H 482.359 0.699706 -1.45999 0
M  V30 5096 H 484.351 3.78774 -1.42521 0
M  V30 5097 H 482.921 3.05675 -0.654345 0
M  V30 5098 H 482.141 2.4723 -3.07036 0
M  V30 5099 H 483.429 3.54162 -3.65304 0
M  V30 5100 H 482.827 5.53403 -1.17308 0
M  V30 5101 H 481.384 6.28553 -1.72525 0
M  V30 5102 N 484.817 1.37938 0.762283 0
M  V30 5103 C 485.747 1.37176 1.88958 0
M  V30 5104 C 486.728 0.238945 1.68413 0
M  V30 5105 O 487.913 0.440726 1.89133 0
M  V30 5106 C 485.043 1.18742 3.2637 0
M  V30 5107 C 483.997 2.29136 3.61498 0
M  V30 5108 C 483.323 1.95816 4.97554 0
M  V30 5109 C 484.623 3.71363 3.6727 0
M  V30 5110 H 486.317 2.31509 1.89853 0
M  V30 5111 H 483.863 1.11438 0.912005 0
M  V30 5112 H 485.816 1.16837 4.04879 0
M  V30 5113 H 484.54 0.208683 3.25933 0
M  V30 5114 H 483.199 2.30213 2.85303 0
M  V30 5115 H 482.847 0.964475 4.93667 0
M  V30 5116 H 482.547 2.69745 5.22026 0
M  V30 5117 H 484.071 1.95513 5.78452 0
M  V30 5118 H 485.485 3.72364 4.35911 0
M  V30 5119 H 483.882 4.44425 4.03245 0
M  V30 5120 H 484.952 4.04305 2.67704 0
M  V30 5121 N 486.295 -0.989507 1.22664 0
M  V30 5122 C 487.52 -1.77031 1.08051 0
M  V30 5123 C 487.945 -1.84535 -0.364483 0
M  V30 5124 O 487.303 -1.3003 -1.2634 0
M  V30 5125 C 487.351 -3.18 1.70024 0
M  V30 5126 O 486.455 -4.01161 0.956216 0
M  V30 5127 H 485.796 -0.545008 0.379292 0
M  V30 5128 H 488.326 -1.24277 1.62531 0
M  V30 5129 H 488.336 -3.68616 1.74888 0
M  V30 5130 H 487.011 -3.11853 2.75174 0
M  V30 5131 H 485.588 -3.59687 0.98384 0
M  V30 5132 N 487.773 -1.03688 -1.18687 0
M  V30 5133 C 489.001 -0.757918 -1.92518 0
M  V30 5134 C 489.416 0.684398 -1.75959 0
M  V30 5135 O 488.773 1.46617 -1.08673 0
M  V30 5136 C 488.824 -1.10985 -3.44042 0
M  V30 5137 O 488.545 -2.49554 -3.60076 0
M  V30 5138 C 490.046 -0.854844 -4.3498 0
M  V30 5139 H 487.266 -0.276699 -0.611293 0
M  V30 5140 H 489.81 -1.38352 -1.50595 0
M  V30 5141 H 487.965 -0.529279 -3.83767 0
M  V30 5142 H 488.379 -2.6291 -4.53849 0
M  V30 5143 H 489.853 -1.15098 -5.39867 0
M  V30 5144 H 490.33 0.210507 -4.38695 0
M  V30 5145 H 490.936 -1.41853 -4.00946 0
M  V30 5146 N 489.251 1.34841 -0.815825 0
M  V30 5147 C 490.662 1.80937 -0.46029 0
M  V30 5148 C 491.013 1.67685 1.01863 0
M  V30 5149 O 490.138 1.21277 1.79223 0
M  V30 5150 C 490.733 3.28509 -0.828708 0
M  V30 5151 C 489.292 3.72712 -0.525644 0
M  V30 5152 C 488.439 2.56676 -1.04941 0
M  V30 5153 H 491.39 1.22688 -1.00664 0
M  V30 5154 H 491.411 3.80279 -0.129757 0
M  V30 5155 H 490.923 3.38122 -1.90513 0
M  V30 5156 H 489.024 3.68642 0.541666 0
M  V30 5157 H 489.137 4.67119 -1.06474 0
M  V30 5158 H 487.501 2.50302 -0.471286 0
M  V30 5159 H 488.284 2.69063 -2.13214 0
M  V30 5160 N 490.729 0.570148 1.46925 0
M  V30 5161 C 491.676 -0.170257 2.30171 0
M  V30 5162 C 492.646 -0.896099 1.39855 0
M  V30 5163 O 493.831 -0.889248 1.68811 0
M  V30 5164 C 490.971 -1.18605 3.24079 0
M  V30 5165 C 490.084 -0.464947 4.29491 0
M  V30 5166 C 489.219 -1.46716 5.10537 0
M  V30 5167 C 488.258 -0.731758 6.0771 0
M  V30 5168 N 487.395 -1.68142 6.81669 0
M  V30 5169 H 492.235 0.545713 2.92961 0
M  V30 5170 H 489.772 0.280938 1.44392 0
M  V30 5171 H 491.73 -1.78771 3.76957 0
M  V30 5172 H 490.36 -1.86989 2.63125 0
M  V30 5173 H 489.412 0.251506 3.79568 0
M  V30 5174 H 490.724 0.110548 4.98677 0
M  V30 5175 H 489.878 -2.14199 5.6763 0
M  V30 5176 H 488.617 -2.07658 4.41282 0
M  V30 5177 H 487.622 -0.0430787 5.49783 0
M  V30 5178 H 488.847 -0.127904 6.7898 0
M  V30 5179 H 486.793 -2.27918 6.15134 0
M  V30 5180 H 486.71 -1.15841 7.47072 0
M  V30 5181 H 487.978 -2.347 7.43328 0
M  V30 5182 N 492.207 -1.54576 0.307264 0
M  V30 5183 C 493.432 -2.05139 -0.305379 0
M  V30 5184 C 493.857 -1.18278 -1.46259 0
M  V30 5185 O 493.215 -0.188243 -1.8032 0
M  V30 5186 C 493.263 -3.53066 -0.733283 0
M  V30 5187 O 492.367 -3.69206 -1.83741 0
M  V30 5188 H 491.708 -0.661444 -0.0582105 0
M  V30 5189 H 494.238 -1.99569 0.450931 0
M  V30 5190 H 494.248 -3.95034 -1.02039 0
M  V30 5191 H 492.923 -4.15746 0.113198 0
M  V30 5192 H 491.5 -3.39143 -1.55037 0
M  V30 5193 N 493.685 -0.035106 -1.57561 0
M  V30 5194 C 494.913 0.652258 -1.9635 0
M  V30 5195 C 495.328 1.65317 -0.911897 0
M  V30 5196 O 494.685 1.82194 0.105657 0
M  V30 5197 C 494.736 1.35337 -3.35211 0
M  V30 5198 O 494.457 0.392548 -4.36338 0
M  V30 5199 C 495.958 2.13199 -3.88666 0
M  V30 5200 H 493.178 0.179444 -0.646561 0
M  V30 5201 H 495.722 -0.0966459 -2.04271 0
M  V30 5202 H 493.877 2.05362 -3.28489 0
M  V30 5203 H 494.291 0.891097 -5.16875 0
M  V30 5204 H 495.765 2.577 -4.88154 0
M  V30 5205 H 496.242 2.97353 -3.23231 0
M  V30 5206 H 496.848 1.48118 -3.98674 0
M  V30 5207 N 495.163 1.55791 0.238111 0
M  V30 5208 C 496.11 1.9105 1.29493 0
M  V30 5209 C 497.08 0.765733 1.47397 0
M  V30 5210 O 498.265 1.02017 1.61236 0
M  V30 5211 C 495.405 2.21826 2.64362 0
M  V30 5212 C 494.518 3.49153 2.54394 0
M  V30 5213 C 493.653 3.69455 3.81676 0
M  V30 5214 C 492.692 4.90353 3.66361 0
M  V30 5215 N 491.829 5.07131 4.85554 0
M  V30 5216 H 496.669 2.81172 0.987233 0
M  V30 5217 H 494.206 1.39179 0.476203 0
M  V30 5218 H 496.164 2.37675 3.4288 0
M  V30 5219 H 494.794 1.34897 2.93262 0
M  V30 5220 H 493.846 3.41587 1.67399 0
M  V30 5221 H 495.158 4.37818 2.38991 0
M  V30 5222 H 494.312 3.85311 4.68636 0
M  V30 5223 H 493.051 2.7904 3.99985 0
M  V30 5224 H 492.056 4.74464 2.77784 0
M  V30 5225 H 493.281 5.82237 3.49538 0
M  V30 5226 H 491.227 4.19654 5.04209 0
M  V30 5227 H 491.144 5.89899 4.72816 0
M  V30 5228 H 492.412 5.27407 5.73988 0
M  V30 5229 N 496.642 -0.504142 1.49319 0
M  V30 5230 C 497.867 -1.28729 1.62615 0
M  V30 5231 C 498.292 -1.85752 0.296309 0
M  V30 5232 O 497.65 -1.65704 -0.735649 0
M  V30 5233 C 497.698 -2.39561 2.69524 0
M  V30 5234 O 496.802 -3.43324 2.28478 0
M  V30 5235 H 496.143 -0.380172 0.544395 0
M  V30 5236 H 498.673 -0.603872 1.95485 0
M  V30 5237 H 498.683 -2.8537 2.91595 0
M  V30 5238 H 497.358 -1.97423 3.66056 0
M  V30 5239 H 495.935 -3.03455 2.16725 0
M  V30 5240 N 498.12 -1.38341 -0.754957 0
M  V30 5241 C 499.345 -1.37882 -1.5493 0
M  V30 5242 C 499.77 0.0296385 -1.88077 0
M  V30 5243 O 499.128 1.01133 -1.50472 0
M  V30 5244 C 499.176 -2.23996 -2.82592 0
M  V30 5245 O 498.28 -1.65612 -3.77686 0
M  V30 5246 H 497.621 -0.470384 -0.468652 0
M  V30 5247 H 500.151 -1.82084 -0.933082 0
M  V30 5248 H 500.161 -2.37806 -3.3153 0
M  V30 5249 H 498.836 -3.26365 -2.57796 0
M  V30 5250 H 497.413 -1.60936 -3.36384 0
M  V30 5251 N 499.598 0.982988 -1.23187 0
M  V30 5252 C 500.823 1.76455 -1.08988 0
M  V30 5253 C 501.248 1.84726 0.354691 0
M  V30 5254 O 500.606 1.30699 1.25649 0
M  V30 5255 C 500.654 3.17094 -1.71708 0
M  V30 5256 O 499.758 4.00648 -0.977477 0
M  V30 5257 H 499.099 0.542988 -0.382177 0
M  V30 5258 H 501.629 1.23413 -1.63188 0
M  V30 5259 H 501.639 3.67684 -1.76841 0
M  V30 5260 H 500.314 3.10389 -2.76823 0
M  V30 5261 H 498.891 3.59161 -1.0029 0
M  V30 5262 N 501.076 1.04316 1.18135 0
M  V30 5263 C 502.301 0.768047 1.92655 0
M  V30 5264 C 502.726 -0.66904 1.758 0
M  V30 5265 O 502.084 -1.46372 1.06981 0
M  V30 5266 C 502.132 1.14239 3.42026 0
M  V30 5267 O 501.236 0.269333 4.1152 0
M  V30 5268 H 500.577 0.282436 0.600937 0
M  V30 5269 H 503.107 1.39367 1.49793 0
M  V30 5270 H 503.117 1.10538 3.92741 0
M  V30 5271 H 501.792 2.18928 3.53615 0
M  V30 5272 H 500.369 0.366175 3.71098 0
M  V30 5273 N 502.554 -1.34406 0.822964 0
M  V30 5274 C 503.779 -2.0304 0.423034 0
M  V30 5275 C 504.204 -1.61568 -0.963196 0
M  V30 5276 O 503.562 -0.800339 -1.62678 0
M  V30 5277 C 503.61 -3.56636 0.53321 0
M  V30 5278 O 502.714 -4.09971 -0.446939 0
M  V30 5279 H 502.055 -0.64075 0.174171 0
M  V30 5280 H 504.585 -1.71653 1.11339 0
M  V30 5281 H 504.595 -4.05945 0.408991 0
M  V30 5282 H 503.27 -3.86168 1.54425 0
M  V30 5283 H 501.847 -3.71835 -0.281601 0
M  V30 5284 N 504.032 -0.577932 -1.46621 0
M  V30 5285 C 505.443 -0.150071 -1.86096 0
M  V30 5286 C 505.794 1.28563 -1.48209 0
M  V30 5287 O 504.919 1.97036 -0.894754 0
M  V30 5288 C 505.514 -0.265576 -3.37758 0
M  V30 5289 C 504.073 0.10738 -3.76247 0
M  V30 5290 C 503.22 -0.603711 -2.70649 0
M  V30 5291 H 506.171 -0.786438 -1.37844 0
M  V30 5292 H 506.192 0.510352 -3.77062 0
M  V30 5293 H 505.704 -1.3106 -3.65301 0
M  V30 5294 H 503.805 1.15272 -3.54321 0
M  V30 5295 H 503.918 -0.26561 -4.78363 0
M  V30 5296 H 502.282 -0.0444884 -2.54661 0
M  V30 5297 H 503.065 -1.65029 -3.01032 0
M  V30 5298 N 505.51 1.54411 -0.315457 0
M  V30 5299 C 506.738 2.04833 0.291738 0
M  V30 5300 C 507.153 1.19203 1.46411 0
M  V30 5301 O 506.51 0.220867 1.81159 0
M  V30 5302 C 506.561 3.53969 0.73404 0
M  V30 5303 O 506.282 4.36346 -0.391682 0
M  V30 5304 C 507.783 4.2045 1.40489 0
M  V30 5305 H 505.003 0.668195 0.0612947 0
M  V30 5306 H 507.547 1.99276 -0.45929 0
M  V30 5307 H 505.702 3.5984 1.43506 0
M  V30 5308 H 506.116 5.24481 -0.0447088 0
M  V30 5309 H 507.59 5.26278 1.66539 0
M  V30 5310 H 508.067 3.71067 2.3496 0
M  V30 5311 H 508.673 4.18694 0.746662 0
M  V30 5312 N 506.988 0.0434614 1.5754 0
M  V30 5313 C 508.213 -0.645358 1.97104 0
M  V30 5314 C 508.638 -1.64037 0.920521 0
M  V30 5315 O 507.996 -1.80922 -0.11708 0
M  V30 5316 C 508.044 -1.31547 3.35749 0
M  V30 5317 O 507.148 -2.43103 3.33129 0
M  V30 5318 H 506.489 -0.168403 0.64229 0
M  V30 5319 H 509.019 0.109573 2.04306 0
M  V30 5320 H 509.029 -1.66895 3.72304 0
M  V30 5321 H 507.704 -0.586205 4.11748 0
M  V30 5322 H 506.281 -2.0976 3.0831 0
M  V30 5323 N 508.466 -1.55915 -0.229846 0
M  V30 5324 C 509.877 -1.68809 -0.797531 0
M  V30 5325 C 510.228 -0.643995 -1.8533 0
M  V30 5326 O 509.353 0.206492 -2.15413 0
M  V30 5327 C 509.948 -3.06043 -1.45338 0
M  V30 5328 C 508.507 -3.20819 -1.96856 0
M  V30 5329 C 507.654 -2.6472 -0.825736 0
M  V30 5330 H 510.605 -1.58699 -0.00533733 0
M  V30 5331 H 510.626 -3.01438 -2.32196 0
M  V30 5332 H 510.138 -3.82012 -0.684743 0
M  V30 5333 H 508.239 -2.49704 -2.76548 0
M  V30 5334 H 508.352 -4.27937 -2.15423 0
M  V30 5335 H 506.716 -2.22985 -1.23084 0
M  V30 5336 H 507.499 -3.43229 -0.0699019 0
M  V30 5337 N 509.944 0.496216 -1.49584 0
M  V30 5338 C 511.192 1.24756 -1.58998 0
M  V30 5339 C 511.513 1.92968 -0.280775 0
M  V30 5340 O 510.783 1.82959 0.700198 0
M  V30 5341 H 509.363 0.463471 -0.585836 0
M  V30 5342 H 512.025 0.574678 -1.86235 0
M  V30 5343 H 511.121 2.00895 -2.38847 0
M  V30 5344 N 511.423 1.38739 0.74761 0
M  V30 5345 C 512.648 1.38702 1.54197 0
M  V30 5346 C 513.073 -0.019664 1.8809 0
M  V30 5347 O 512.431 -1.00333 1.51006 0
M  V30 5348 C 512.479 2.25492 2.814 0
M  V30 5349 O 511.583 1.67613 3.76802 0
M  V30 5350 H 510.924 0.472863 0.466151 0
M  V30 5351 H 513.454 1.82577 0.923413 0
M  V30 5352 H 513.464 2.39561 3.30264 0
M  V30 5353 H 512.139 3.27727 2.56062 0
M  V30 5354 H 510.716 1.62718 3.35526 0
M  V30 5355 N 512.901 -0.976442 1.23707 0
M  V30 5356 C 514.148 -1.71827 1.07153 0
M  V30 5357 C 514.476 -1.9053 -0.390982 0
M  V30 5358 O 513.731 -1.45779 -1.30564 0
M  V30 5359 C 514.03 -3.11814 1.74662 0
M  V30 5360 C 513.696 -3.12978 3.24585 0
M  V30 5361 C 512.358 -3.13003 3.6549 0
M  V30 5362 C 514.71 -3.07986 4.20469 0
M  V30 5363 C 512.038 -3.05757 5.00729 0
M  V30 5364 C 514.39 -3.02282 5.55705 0
M  V30 5365 C 513.054 -3.00631 5.95968 0
M  V30 5366 H 512.324 -0.628758 0.392102 0
M  V30 5367 H 514.971 -1.14239 1.53693 0
M  V30 5368 H 513.276 -3.72812 1.20492 0
M  V30 5369 H 514.973 -3.67989 1.59328 0
M  V30 5370 H 511.563 -3.13718 2.92026 0
M  V30 5371 H 515.747 -3.07103 3.89874 0
M  V30 5372 H 511.003 -3.02834 5.31132 0
M  V30 5373 H 515.177 -2.97376 6.29714 0
M  V30 5374 H 512.804 -2.94771 7.00724 0
M  V30 5375 N 514.379 -1.04941 -1.1758 0
M  V30 5376 C 515.795 -0.770282 -1.39781 0
M  V30 5377 C 515.995 0.636417 -1.91186 0
M  V30 5378 O 515.051 1.39923 -2.10185 0
M  V30 5379 C 516.364 -1.82376 -2.3908 0
M  V30 5380 C 517.912 -1.84569 -2.52791 0
M  V30 5381 C 518.387 -2.88933 -3.55361 0
M  V30 5382 N 519.878 -2.8788 -3.62877 0
M  V30 5383 C 520.613 -3.65282 -4.41992 0
M  V30 5384 N 520.109 -4.52461 -5.24643 0
M  V30 5385 N 521.902 -3.53732 -4.36841 0
M  V30 5386 H 514.053 -1.95705 -0.825438 0
M  V30 5387 H 516.316 -0.847284 -0.425222 0
M  V30 5388 H 516.022 -2.83323 -2.08376 0
M  V30 5389 H 515.896 -1.66327 -3.38549 0
M  V30 5390 H 518.283 -0.842879 -2.82807 0
M  V30 5391 H 518.364 -2.04696 -1.53406 0
M  V30 5392 H 518.008 -3.89398 -3.26085 0
M  V30 5393 H 517.938 -2.66059 -4.54445 0
M  V30 5394 H 520.429 -2.24666 -3.03864 0
M  V30 5395 H 520.742 -5.08211 -5.82187 0
M  V30 5396 H 519.087 -4.56524 -5.24033 0
M  V30 5397 H 522.278 -2.85021 -3.71323 0
M  V30 5398 H 522.451 -4.14302 -4.98255 0
M  V30 5399 N 515.857 1.33968 -0.830081 0
M  V30 5400 C 517.105 1.97672 -0.420734 0
M  V30 5401 C 517.426 1.66111 1.02138 0
M  V30 5402 O 516.696 0.955503 1.71017 0
M  V30 5403 H 515.276 0.73125 -0.152587 0
M  V30 5404 H 517.938 1.63483 -1.0611 0
M  V30 5405 H 517.034 3.07294 -0.545588 0
M  V30 5406 N 517.335 0.585699 1.46312 0
M  V30 5407 C 518.265 -0.133556 2.33118 0
M  V30 5408 C 519.246 -0.880707 1.45525 0
M  V30 5409 O 520.431 -0.855579 1.74337 0
M  V30 5410 C 517.561 -1.14585 3.27853 0
M  V30 5411 C 516.515 -0.513341 4.2491 0
M  V30 5412 C 515.841 -1.63231 5.09175 0
M  V30 5413 C 517.141 0.551413 5.19381 0
M  V30 5414 H 518.835 0.59121 2.93505 0
M  V30 5415 H 516.381 0.285761 1.41136 0
M  V30 5416 H 518.334 -1.65741 3.87438 0
M  V30 5417 H 517.058 -1.90093 2.65579 0
M  V30 5418 H 515.717 -0.0228349 3.66593 0
M  V30 5419 H 515.365 -2.37713 4.43285 0
M  V30 5420 H 515.065 -1.21473 5.74907 0
M  V30 5421 H 516.589 -2.14658 5.71624 0
M  V30 5422 H 518.003 0.124804 5.73164 0
M  V30 5423 H 516.4 0.889486 5.93471 0
M  V30 5424 H 517.47 1.43655 4.63132 0
M  V30 5425 N 518.813 -1.54241 0.323641 0
M  V30 5426 C 519.76 -2.24339 -0.542277 0
M  V30 5427 C 520.73 -1.23421 -1.11159 0
M  V30 5428 O 521.915 -1.52104 -1.15192 0
M  V30 5429 C 519.055 -3.00479 -1.69725 0
M  V30 5430 C 518.168 -4.16214 -1.15716 0
M  V30 5431 C 517.303 -4.79884 -2.27783 0
M  V30 5432 C 516.342 -5.87722 -1.71023 0
M  V30 5433 N 515.479 -6.45254 -2.76752 0
M  V30 5434 H 520.319 -2.97935 0.0620613 0
M  V30 5435 H 517.856 -1.47039 0.0423993 0
M  V30 5436 H 519.814 -3.42869 -2.3769 0
M  V30 5437 H 518.444 -2.29217 -2.27288 0
M  V30 5438 H 517.496 -3.78605 -0.369063 0
M  V30 5439 H 518.808 -4.93838 -0.701832 0
M  V30 5440 H 517.962 -5.25243 -3.03651 0
M  V30 5441 H 516.701 -4.01641 -2.76652 0
M  V30 5442 H 515.706 -5.41765 -0.936518 0
M  V30 5443 H 516.931 -6.67863 -1.2303 0
M  V30 5444 H 514.877 -5.69884 -3.24912 0
M  V30 5445 H 514.794 -7.18292 -2.35782 0
M  V30 5446 H 516.062 -6.95269 -3.5245 0
M  V30 5447 N 520.291 -0.0518155 -1.57515 0
M  V30 5448 C 521.223 0.951542 -2.08515 0
M  V30 5449 C 522.236 1.27436 -1.01311 0
M  V30 5450 O 523.425 1.23504 -1.28876 0
M  V30 5451 C 520.525 2.27291 -2.5138 0
M  V30 5452 C 519.698 2.13191 -3.81927 0
M  V30 5453 C 518.757 3.28458 -4.11098 0
M  V30 5454 O 517.783 3.04334 -4.81009 0
M  V30 5455 N 518.985 4.52954 -3.63061 0
M  V30 5456 H 521.75 0.516242 -2.9522 0
M  V30 5457 H 519.311 0.13441 -1.61341 0
M  V30 5458 H 521.303 3.03272 -2.67971 0
M  V30 5459 H 519.873 2.62386 -1.69919 0
M  V30 5460 H 519.093 1.21798 -3.74912 0
M  V30 5461 H 520.381 2.00999 -4.67415 0
M  V30 5462 H 519.779 4.75444 -3.06545 0
M  V30 5463 H 518.336 5.26026 -3.84889 0
M  V30 5464 N 521.769 1.56035 0.221574 0
M  V30 5465 C 523.018 1.78245 0.944016 0
M  V30 5466 C 523.331 0.620371 1.85501 0
M  V30 5467 O 524.537 0.726103 2.6161 0
M  V30 5468 C 522.993 3.15659 1.7288 0
M  V30 5469 C 522.601 4.39591 0.863942 0
M  V30 5470 C 524.345 3.47195 2.44246 0
M  V30 5471 C 522.252 5.6803 1.64607 0
M  V30 5472 H 521.182 0.664547 0.356222 0
M  V30 5473 H 523.833 1.8243 0.197904 0
M  V30 5474 H 522.215 3.0565 2.51781 0
M  V30 5475 H 523.389 4.60655 0.115464 0
M  V30 5476 H 521.704 4.15572 0.262407 0
M  V30 5477 H 524.301 4.40381 3.03263 0
M  V30 5478 H 524.644 2.69693 3.1713 0
M  V30 5479 H 525.177 3.58533 1.72334 0
M  V30 5480 H 521.916 6.48425 0.960507 0
M  V30 5481 H 521.436 5.51027 2.36917 0
M  V30 5482 H 523.115 6.08203 2.20675 0
M  V30 5483 N 523.247 -0.488276 1.49845 0
M  V30 5484 C 524.472 -1.26997 1.63971 0
M  V30 5485 C 524.897 -1.85427 0.315994 0
M  V30 5486 O 524.255 -1.66475 -0.718032 0
M  V30 5487 C 524.303 -2.36689 2.72049 0
M  V30 5488 O 523.407 -3.40882 2.32107 0
M  V30 5489 H 522.748 -0.374376 0.548396 0
M  V30 5490 H 525.278 -0.583104 1.96115 0
M  V30 5491 H 525.288 -2.82262 2.94605 0
M  V30 5492 H 523.963 -1.93529 3.68129 0
M  V30 5493 H 522.54 -3.01139 2.19931 0
M  V30 5494 N 524.725 -1.39134 -0.740242 0
M  V30 5495 C 525.688 -1.37217 -1.83587 0
M  V30 5496 C 526.688 -0.270221 -1.58513 0
M  V30 5497 O 527.878 -0.527843 -1.6601 0
M  V30 5498 C 525.01 -1.13959 -3.21288 0
M  V30 5499 H 526.203 -2.34705 -1.86691 0
M  V30 5500 H 523.756 -1.24622 -0.94335 0
M  V30 5501 H 524.491 -0.17131 -3.23847 0
M  V30 5502 H 524.276 -1.93754 -3.40884 0
M  V30 5503 H 525.766 -1.15346 -4.01354 0
M  V30 5504 N 526.204 0.969867 -1.24223 0
M  V30 5505 C 527.154 2.04913 -0.999732 0
M  V30 5506 C 528.138 1.60795 0.0580636 0
M  V30 5507 O 529.33 1.76317 -0.155392 0
M  V30 5508 C 526.459 3.37942 -0.604154 0
M  V30 5509 C 525.545 3.88628 -1.69791 0
M  V30 5510 N 525.936 4.12274 -2.93025 0
M  V30 5511 C 524.234 4.17268 -1.57492 0
M  V30 5512 C 524.935 4.53808 -3.63914 0
M  V30 5513 N 523.911 4.58855 -2.91468 0
M  V30 5514 H 527.713 2.21168 -1.93551 0
M  V30 5515 H 525.227 1.15349 -1.14317 0
M  V30 5516 H 527.224 4.14863 -0.411665 0
M  V30 5517 H 525.884 3.23075 0.324465 0
M  V30 5518 H 526.895 3.99789 -3.29225 0
M  V30 5519 H 523.572 4.11346 -0.714175 0
M  V30 5520 H 524.962 4.80534 -4.69614 0
M  V30 5521 N 527.682 1.05563 1.17022 0
M  V30 5522 C 528.93 0.76642 1.87004 0
M  V30 5523 C 529.251 -0.708854 1.8166 0
M  V30 5524 O 528.521 -1.51242 1.2451 0
M  V30 5525 H 527.101 0.280516 0.692329 0
M  V30 5526 H 529.763 1.33557 1.41945 0
M  V30 5527 H 528.859 1.08472 2.92644 0
M  V30 5528 N 529.16 -1.33526 0.837174 0
M  V30 5529 C 530.576 -1.50727 0.524743 0
M  V30 5530 C 530.776 -1.77792 -0.948279 0
M  V30 5531 O 529.832 -1.83719 -1.73216 0
M  V30 5532 C 531.145 -2.66299 1.39661 0
M  V30 5533 C 532.693 -2.80183 1.39521 0
M  V30 5534 C 533.168 -3.98815 2.25189 0
M  V30 5535 N 534.659 -4.06047 2.2289 0
M  V30 5536 C 535.394 -4.97032 2.85915 0
M  V30 5537 N 534.89 -5.93143 3.57985 0
M  V30 5538 N 536.683 -4.90015 2.75394 0
M  V30 5539 H 528.834 -1.1422 1.79074 0
M  V30 5540 H 531.097 -0.561399 0.763894 0
M  V30 5541 H 530.803 -2.52974 2.4433 0
M  V30 5542 H 530.677 -3.61663 1.07145 0
M  V30 5543 H 533.064 -2.92942 0.356253 0
M  V30 5544 H 533.145 -1.85586 1.76044 0
M  V30 5545 H 532.789 -3.86817 3.29143 0
M  V30 5546 H 532.719 -4.92654 1.86009 0
M  V30 5547 H 535.21 -3.37262 1.70478 0
M  V30 5548 H 535.523 -6.59227 4.03286 0
M  V30 5549 H 533.868 -5.93223 3.62093 0
M  V30 5550 H 537.059 -4.13894 2.18654 0
M  V30 5551 H 537.232 -5.60724 3.24796 0
M  V30 5552 N 530.638 -0.59345 -1.46 0
M  V30 5553 C 531.863 -0.0872365 -2.07216 0
M  V30 5554 C 532.288 1.2131 -1.43755 0
M  V30 5555 O 531.646 1.73528 -0.525152 0
M  V30 5556 C 531.694 0.0538197 -3.6056 0
M  V30 5557 O 530.798 1.10765 -3.97247 0
M  V30 5558 H 530.139 -0.0676598 -0.660544 0
M  V30 5559 H 532.669 -0.819445 -1.87473 0
M  V30 5560 H 532.679 0.256567 -4.07193 0
M  V30 5561 H 531.354 -0.895739 -4.0614 0
M  V30 5562 H 529.931 0.882501 -3.62307 0
M  V30 5563 N 532.116 1.54067 -0.331816 0
M  V30 5564 C 533.341 2.05599 0.272705 0
M  V30 5565 C 533.766 1.2059 1.44359 0
M  V30 5566 O 533.124 0.216907 1.79998 0
M  V30 5567 C 533.172 3.54188 0.677021 0
M  V30 5568 O 532.276 3.72082 1.77844 0
M  V30 5569 H 531.617 0.662286 0.0476801 0
M  V30 5570 H 534.147 1.98826 -0.482624 0
M  V30 5571 H 534.157 3.96608 0.957415 0
M  V30 5572 H 532.832 4.15513 -0.179325 0
M  V30 5573 H 531.409 3.41566 1.49622 0
M  V30 5574 N 533.594 0.0601682 1.57485 0
M  V30 5575 C 534.819 -0.624416 1.97777 0
M  V30 5576 C 535.244 -1.63051 0.937867 0
M  V30 5577 O 534.602 -1.81036 -0.0978845 0
M  V30 5578 C 534.65 -1.27979 3.37126 0
M  V30 5579 O 533.754 -2.39556 3.35688 0
M  V30 5580 H 533.095 -0.161581 0.64404 0
M  V30 5581 H 535.625 0.131237 2.04179 0
M  V30 5582 H 535.635 -1.62937 3.74053 0
M  V30 5583 H 534.31 -0.542501 4.12347 0
M  V30 5584 H 532.887 -2.06478 3.10517 0
M  V30 5585 N 535.072 -1.5615 -0.213296 0
M  V30 5586 C 536.02 -1.93953 -1.28394 0
M  V30 5587 C 537.014 -0.822592 -1.48087 0
M  V30 5588 O 538.22 -1.00748 -1.49164 0
M  V30 5589 H 534.595 -0.61648 -0.430646 0
M  V30 5590 H 536.566 -2.83275 -0.937977 0
M  V30 5591 C 535.315 -2.27969 -2.62537 0
M  V30 5592 H 534.638 -3.13432 -2.48194 0
M  V30 5593 H 536.078 -2.58297 -3.36242 0
M  V30 5594 C 534.537 -1.10775 -3.18167 0
M  V30 5595 O 535.067 -0.373201 -3.99963 0
M  V30 5596 N 533.273 -0.889377 -2.76656 0
M  V30 5597 H 532.82 -1.48843 -2.10246 0
M  V30 5598 H 532.778 -0.107 -3.14218 0
M  V30 5599 N 536.55 0.480323 -1.50102 0
M  V30 5600 C 537.796 1.23489 -1.60867 0
M  V30 5601 C 538.129 1.91809 -0.303827 0
M  V30 5602 O 537.404 1.81694 0.694092 0
M  V30 5603 C 537.687 2.28578 -2.78252 0
M  V30 5604 C 537.54 1.64624 -4.18592 0
M  V30 5605 C 538.859 3.2997 -2.91218 0
M  V30 5606 H 535.978 0.447605 -0.585507 0
M  V30 5607 H 538.62 0.530005 -1.82458 0
M  V30 5608 H 536.77 2.88697 -2.59974 0
M  V30 5609 H 538.442 1.08173 -4.48438 0
M  V30 5610 H 536.685 0.949645 -4.23278 0
M  V30 5611 H 537.356 2.40946 -4.96638 0
M  V30 5612 H 539.832 2.79864 -3.07921 0
M  V30 5613 H 538.708 4.00839 -3.74993 0
M  V30 5614 H 538.969 3.93541 -2.0144 0
M  V30 5615 N 538.028 1.39524 0.732853 0
M  V30 5616 C 538.976 1.38563 1.86824 0
M  V30 5617 C 539.97 0.268467 1.67259 0
M  V30 5618 O 541.176 0.438613 1.74574 0
M  V30 5619 H 537.551 0.432737 0.615014 0
M  V30 5620 H 539.522 2.34328 1.84751 0
M  V30 5621 C 538.271 1.2481 3.24527 0
M  V30 5622 H 537.594 2.10044 3.40179 0
M  V30 5623 H 539.034 1.28194 4.04156 0
M  V30 5624 C 537.493 -0.0432825 3.36872 0
M  V30 5625 O 538.023 -1.01268 3.88726 0
M  V30 5626 N 536.229 -0.107055 2.90403 0
M  V30 5627 H 535.776 0.682512 2.48394 0
M  V30 5628 H 535.734 -0.970618 2.99042 0
M  V30 5629 N 539.506 -0.963266 1.24736 0
M  V30 5630 C 540.754 -1.70343 1.08755 0
M  V30 5631 C 541.075 -1.91387 -0.373619 0
M  V30 5632 O 540.345 -1.4948 -1.2662 0
M  V30 5633 H 538.925 -0.631224 0.399456 0
M  V30 5634 H 541.587 -1.15859 1.56725 0
M  V30 5635 H 540.683 -2.68616 1.58909 0
M  V30 5636 N 540.985 -1.06182 -1.16461 0
M  V30 5637 C 542.233 -0.776326 -1.86595 0
M  V30 5638 C 542.554 0.69921 -1.82033 0
M  V30 5639 O 541.824 1.50579 -1.2531 0
M  V30 5640 H 540.404 -0.284184 -0.690832 0
M  V30 5641 H 543.066 -1.34308 -1.41235 0
M  V30 5642 H 542.162 -1.10022 -2.92064 0
M  V30 5643 N 542.463 1.3308 -0.844243 0
M  V30 5644 C 543.874 1.7992 -0.498566 0
M  V30 5645 C 544.225 1.69808 0.982834 0
M  V30 5646 O 543.35 1.25051 1.7661 0
M  V30 5647 C 543.945 3.26677 -0.898204 0
M  V30 5648 C 542.504 3.71513 -0.604583 0
M  V30 5649 C 541.651 2.54393 -1.10362 0
M  V30 5650 H 544.602 1.20526 -1.03244 0
M  V30 5651 H 544.623 3.79918 -0.21039 0
M  V30 5652 H 544.135 3.34004 -1.97643 0
M  V30 5653 H 542.236 3.69708 0.46335 0
M  V30 5654 H 542.349 4.64755 -1.16358 0
M  V30 5655 H 540.713 2.49246 -0.524273 0
M  V30 5656 H 541.496 2.6448 -2.18873 0
M  V30 5657 N 543.941 0.601185 1.45683 0
M  V30 5658 C 544.851 -0.123395 2.34275 0
M  V30 5659 C 545.867 -0.86702 1.5086 0
M  V30 5660 O 547.043 -0.826049 1.8368 0
M  V30 5661 C 544.108 -1.11237 3.2837 0
M  V30 5662 C 543.169 -0.371405 4.2769 0
M  V30 5663 C 542.402 -1.31327 5.1729 0
M  V30 5664 O 542.625 -2.55078 5.10188 0
M  V30 5665 O 541.559 -0.813811 5.96373 0
M  V30 5666 H 545.385 0.604483 2.97623 0
M  V30 5667 H 542.97 0.361477 1.44961 0
M  V30 5668 H 544.852 -1.68214 3.8637 0
M  V30 5669 H 543.527 -1.82139 2.67595 0
M  V30 5670 H 542.434 0.24067 3.73325 0
M  V30 5671 H 543.767 0.296998 4.91303 0
M  V30 5672 N 545.419 -1.53889 0.339982 0
M  V30 5673 C 546.349 -2.27843 -0.510856 0
M  V30 5674 C 547.33 -1.29267 -1.10563 0
M  V30 5675 O 548.515 -1.58104 -1.12768 0
M  V30 5676 C 545.645 -3.04857 -1.66372 0
M  V30 5677 C 544.599 -4.10907 -1.19746 0
M  V30 5678 C 543.925 -4.75855 -2.43857 0
M  V30 5679 C 545.225 -5.21435 -0.300501 0
M  V30 5680 H 546.919 -2.99212 0.106067 0
M  V30 5681 H 544.465 -1.43904 0.0524533 0
M  V30 5682 H 546.418 -3.5533 -2.26537 0
M  V30 5683 H 545.142 -2.31133 -2.30749 0
M  V30 5684 H 543.801 -3.61342 -0.618654 0
M  V30 5685 H 543.449 -3.9873 -3.06633 0
M  V30 5686 H 543.149 -5.47502 -2.13343 0
M  V30 5687 H 544.673 -5.2911 -3.04754 0
M  V30 5688 H 546.087 -5.67565 -0.80889 0
M  V30 5689 H 544.484 -6.00036 -0.0874076 0
M  V30 5690 H 545.554 -4.80328 0.664321 0
M  V30 5691 N 546.897 -0.0685191 -1.57451 0
M  V30 5692 C 548.174 0.642167 -1.84758 0
M  V30 5693 C 548.554 1.87991 -0.960344 0
M  V30 5694 O 547.902 2.28485 -0.0257894 0
M  V30 5695 C 548.112 0.982946 -3.34872 0
M  V30 5696 C 549.46 1.35784 -4.02303 0
M  V30 5697 O 550.484 1.07477 -3.39598 0
M  V30 5698 O 549.343 1.88681 -5.12895 0
M  V30 5699 H 546.437 0.318625 -0.763156 0
M  V30 5700 H 548.983 -0.0992015 -1.6941 0
M  V30 5701 H 547.755 0.10372 -3.91163 0
M  V30 5702 H 547.378 1.78119 -3.55471 0
M  V30 5703 N 548.375 1.56261 0.205012 0
M  V30 5704 C 549.791 1.49623 0.555433 0
M  V30 5705 C 549.991 0.766719 1.86343 0
M  V30 5706 O 549.047 0.313158 2.50551 0
M  V30 5707 C 550.36 2.94253 0.619347 0
M  V30 5708 C 551.908 3.04868 0.708855 0
M  V30 5709 C 552.383 4.50888 0.803969 0
M  V30 5710 N 553.874 4.54999 0.867758 0
M  V30 5711 C 554.609 5.65284 0.96135 0
M  V30 5712 N 554.105 6.85282 1.01786 0
M  V30 5713 N 555.898 5.53174 0.997771 0
M  V30 5714 H 548.049 2.0211 -0.653094 0
M  V30 5715 H 550.312 0.919333 -0.231366 0
M  V30 5716 H 550.018 3.50643 -0.272458 0
M  V30 5717 H 549.892 3.47063 1.47741 0
M  V30 5718 H 552.279 2.48532 1.5911 0
M  V30 5719 H 552.36 2.55199 -0.175205 0
M  V30 5720 H 552.004 5.07846 -0.0738798 0
M  V30 5721 H 551.934 4.98279 1.70369 0
M  V30 5722 H 554.425 3.68588 0.833735 0
M  V30 5723 H 554.738 7.65081 1.08951 0
M  V30 5724 H 553.083 6.8796 0.986706 0
M  V30 5725 H 556.274 4.5835 0.950392 0
M  V30 5726 H 556.447 6.39151 1.06725 0
M  V30 5727 N 549.853 -0.472356 1.50355 0
M  V30 5728 C 551.093 -1.23439 1.62918 0
M  V30 5729 C 551.457 -1.89284 0.321801 0
M  V30 5730 O 552.658 -2.66854 0.322852 0
M  V30 5731 C 550.929 -2.25119 2.7759 0
M  V30 5732 S 552.488 -3.10278 3.10279 0
M  V30 5733 H 549.306 -0.41911 0.574341 0
M  V30 5734 H 551.908 -0.531621 1.88133 0
M  V30 5735 H 550.612 -1.75324 3.71066 0
M  V30 5736 H 550.143 -3.00026 2.54457 0
M  V30 5737 H 552.158 -4.26257 2.54007 0
M  V30 5738 N 551.331 -1.39911 -0.725443 0
M  V30 5739 C 552.58 -1.36963 -1.48068 0
M  V30 5740 C 552.893 0.0284478 -1.95579 0
M  V30 5741 O 554.099 0.180535 -2.70899 0
M  V30 5742 C 552.555 -2.40664 -2.67598 0
M  V30 5743 C 552.163 -3.86234 -2.26997 0
M  V30 5744 C 553.907 -2.46807 -3.45379 0
M  V30 5745 C 551.814 -4.81554 -3.43307 0
M  V30 5746 H 550.744 -0.509223 -0.556065 0
M  V30 5747 H 553.395 -1.65602 -0.790454 0
M  V30 5748 H 551.777 -2.05109 -3.38742 0
M  V30 5749 H 552.951 -4.3088 -1.63337 0
M  V30 5750 H 551.266 -3.83475 -1.62284 0
M  V30 5751 H 553.863 -3.15213 -4.31909 0
M  V30 5752 H 554.206 -1.49552 -3.8851 0
M  V30 5753 H 554.739 -2.81303 -2.81271 0
M  V30 5754 H 551.478 -5.80106 -3.05217 0
M  V30 5755 H 550.998 -4.4158 -4.05915 0
M  V30 5756 H 552.677 -5.0091 -4.0951 0
M  V30 5757 N 552.809 0.956637 -1.25245 0
M  V30 5758 C 554.034 1.74104 -1.12706 0
M  V30 5759 C 554.459 1.85436 0.315429 0
M  V30 5760 O 553.817 1.33334 1.22848 0
M  V30 5761 C 553.865 3.1338 -1.78396 0
M  V30 5762 O 552.969 3.98485 -1.06224 0
M  V30 5763 H 552.31 0.53476 -0.393609 0
M  V30 5764 H 554.84 1.19924 -1.65769 0
M  V30 5765 H 554.85 3.6385 -1.846 0
M  V30 5766 H 553.525 3.04448 -2.83345 0
M  V30 5767 H 552.102 3.56952 -1.07886 0
M  V30 5768 N 554.287 1.06798 1.15896 0
M  V30 5769 C 555.698 0.811355 1.68149 0
M  V30 5770 C 556.049 -0.664339 1.8461 0
M  V30 5771 O 555.174 -1.51485 1.54535 0
M  V30 5772 C 555.769 1.46624 3.05429 0
M  V30 5773 C 554.328 1.25726 3.54781 0
M  V30 5774 C 553.475 1.53949 2.3064 0
M  V30 5775 H 556.426 1.23078 1.00187 0
M  V30 5776 H 556.447 0.88437 3.7008 0
M  V30 5777 H 555.959 2.54025 2.93416 0
M  V30 5778 H 554.06 0.20322 3.72045 0
M  V30 5779 H 554.173 1.97354 4.36564 0
M  V30 5780 H 552.537 0.96025 2.35905 0
M  V30 5781 H 553.32 2.6252 2.2122 0
M  V30 5782 N 555.766 -1.3263 0.851289 0
M  V30 5783 C 556.676 -2.32722 0.296268 0
M  V30 5784 C 557.692 -1.63901 -0.584162 0
M  V30 5785 O 558.868 -1.95465 -0.485334 0
M  V30 5786 C 555.933 -3.42942 -0.509103 0
M  V30 5787 C 554.994 -4.2746 0.397069 0
M  V30 5788 C 554.227 -5.32416 -0.36996 0
M  V30 5789 O 554.45 -5.47491 -1.6003 0
M  V30 5790 O 553.384 -6.01327 0.262493 0
M  V30 5791 H 557.21 -2.82078 1.12543 0
M  V30 5792 H 554.795 -1.36194 0.614135 0
M  V30 5793 H 556.677 -4.1017 -0.96634 0
M  V30 5794 H 555.352 -2.95781 -1.31512 0
M  V30 5795 H 554.259 -3.63053 0.902411 0
M  V30 5796 H 555.592 -4.78136 1.16818 0
M  V30 5797 N 557.244 -0.608902 -1.45362 0
M  V30 5798 C 558.492 -0.104401 -2.0183 0
M  V30 5799 C 558.813 1.27007 -1.47967 0
M  V30 5800 O 558.083 1.83924 -0.674455 0
M  V30 5801 H 556.663 -0.0356042 -0.746151 0
M  V30 5802 H 559.325 -0.790596 -1.78145 0
M  V30 5803 H 558.421 -0.0551793 -3.12051 0
M  V30 5804 N 558.722 1.53707 -0.348139 0
M  V30 5805 C 559.968 2.01286 0.247332 0
M  V30 5806 C 560.301 1.23546 1.49834 0
M  V30 5807 O 559.576 0.324331 1.91777 0
M  V30 5808 C 559.859 3.55768 0.556858 0
M  V30 5809 C 559.712 4.44216 -0.706564 0
M  V30 5810 C 561.031 4.1841 1.3646 0
M  V30 5811 H 558.15 0.731677 0.0884201 0
M  V30 5812 H 560.792 1.84106 -0.469584 0
M  V30 5813 H 558.942 3.70539 1.16761 0
M  V30 5814 H 560.614 4.41274 -1.34444 0
M  V30 5815 H 558.857 4.12892 -1.33052 0
M  V30 5816 H 559.528 5.50202 -0.445186 0
M  V30 5817 H 562.004 4.07365 0.848113 0
M  V30 5818 H 560.88 5.26563 1.54992 0
M  V30 5819 H 561.141 3.7333 2.36805 0
M  V30 5820 N 560.2 0.0768682 1.57412 0
M  V30 5821 C 561.148 -0.906229 2.1422 0
M  V30 5822 C 562.142 -1.30477 1.08037 0
M  V30 5823 O 563.348 -1.28143 1.2641 0
M  V30 5824 H 559.723 -0.310207 0.685037 0
M  V30 5825 H 561.694 -0.402228 2.95677 0
M  V30 5826 C 560.443 -2.16245 2.72274 0
M  V30 5827 H 559.766 -1.86463 3.53655 0
M  V30 5828 H 561.206 -2.83134 3.15613 0
M  V30 5829 C 559.665 -2.92437 1.67279 0
M  V30 5830 O 560.195 -3.86322 1.10081 0
M  V30 5831 N 558.401 -2.55637 1.38195 0
M  V30 5832 H 557.948 -1.79363 1.84897 0
M  V30 5833 H 557.906 -3.06919 0.681787 0
M  V30 5834 N 561.678 -1.56367 -0.196722 0
M  V30 5835 C 562.926 -1.80172 -0.915554 0
M  V30 5836 C 563.247 -0.649649 -1.8386 0
M  V30 5837 O 562.517 0.332111 -1.93064 0
M  V30 5838 H 561.097 -0.664592 -0.341067 0
M  V30 5839 H 563.759 -1.93844 -0.202622 0
M  V30 5840 H 562.855 -2.7327 -1.50764 0
M  V30 5841 N 563.156 0.464375 -1.50603 0
M  V30 5842 C 564.104 1.58224 -1.70493 0
M  V30 5843 C 565.098 1.59492 -0.570836 0
M  V30 5844 O 566.304 1.63561 -0.751517 0
M  V30 5845 H 562.679 0.525161 -0.538247 0
M  V30 5846 H 564.65 1.38613 -2.64252 0
M  V30 5847 C 563.399 2.96113 -1.82243 0
M  V30 5848 H 562.722 2.95858 -2.68901 0
M  V30 5849 H 564.162 3.73769 -2.00182 0
M  V30 5850 C 562.621 3.31946 -0.575628 0
M  V30 5851 O 563.151 4.00708 0.282152 0
M  V30 5852 N 561.357 2.87436 -0.427665 0
M  V30 5853 H 560.904 2.31652 -1.12674 0
M  V30 5854 H 560.862 3.11776 0.405379 0
M  V30 5855 N 564.634 1.40294 0.718013 0
M  V30 5856 C 566.05 1.2227 1.02577 0
M  V30 5857 C 566.25 0.0961976 2.0127 0
M  V30 5858 O 565.306 -0.546695 2.46511 0
M  V30 5859 C 566.619 2.56348 1.57182 0
M  V30 5860 C 568.167 2.6334 1.69178 0
M  V30 5861 C 568.642 3.9768 2.27188 0
M  V30 5862 N 570.133 3.99409 2.34578 0
M  V30 5863 C 570.868 5.00141 2.8044 0
M  V30 5864 N 570.364 6.11268 3.26073 0
M  V30 5865 N 572.157 4.87511 2.79802 0
M  V30 5866 H 564.308 2.12304 0.0637899 0
M  V30 5867 H 566.571 0.943632 0.0909036 0
M  V30 5868 H 566.277 3.3942 0.921262 0
M  V30 5869 H 566.151 2.77266 2.55741 0
M  V30 5870 H 568.538 1.80641 2.33351 0
M  V30 5871 H 568.619 2.46255 0.692247 0
M  V30 5872 H 568.263 4.80817 1.63638 0
M  V30 5873 H 568.193 4.12093 3.27852 0
M  V30 5874 H 570.684 3.19162 2.02346 0
M  V30 5875 H 570.997 6.84023 3.59628 0
M  V30 5876 H 569.342 6.14837 3.24038 0
M  V30 5877 H 572.533 3.9979 2.43487 0
M  V30 5878 H 572.706 5.66158 3.15228 0
M  V30 5879 N 566.112 -0.949982 1.2575 0
M  V30 5880 C 567.352 -1.70994 1.11984 0
M  V30 5881 C 567.716 -1.89095 -0.332746 0
M  V30 5882 O 568.917 -2.62192 -0.592331 0
M  V30 5883 C 567.188 -3.05286 1.85837 0
M  V30 5884 S 568.747 -3.96477 1.88019 0
M  V30 5885 H 565.565 -0.587689 0.400178 0
M  V30 5886 H 568.167 -1.13271 1.59342 0
M  V30 5887 H 566.871 -2.89785 2.90608 0
M  V30 5888 H 566.402 -3.68069 1.38885 0
M  V30 5889 H 568.417 -4.86814 0.96057 0
M  V30 5890 N 567.59 -1.07411 -1.15328 0
M  V30 5891 C 568.815 -0.818856 -1.90551 0
M  V30 5892 C 569.24 0.622194 -1.77512 0
M  V30 5893 O 568.598 1.43484 -1.10824 0
M  V30 5894 C 568.646 -1.23267 -3.38877 0
M  V30 5895 O 567.75 -0.378345 -4.10661 0
M  V30 5896 H 567.091 -0.29827 -0.593238 0
M  V30 5897 H 569.621 -1.43289 -1.46046 0
M  V30 5898 H 569.631 -1.20912 -3.89672 0
M  V30 5899 H 568.306 -2.28226 -3.47686 0
M  V30 5900 H 566.883 -0.464437 -3.69996 0
M  V30 5901 N 569.068 1.32177 -0.85831 0
M  V30 5902 C 569.978 2.32561 -0.308606 0
M  V30 5903 C 570.994 1.64209 0.575462 0
M  V30 5904 O 572.17 1.95719 0.474961 0
M  V30 5905 C 569.235 3.43207 0.490909 0
M  V30 5906 C 568.296 4.27243 -0.419733 0
M  V30 5907 C 567.529 5.32605 0.341719 0
M  V30 5908 O 567.752 5.48332 1.57125 0
M  V30 5909 O 566.686 6.0118 -0.294379 0
M  V30 5910 H 570.512 2.81477 -1.14037 0
M  V30 5911 H 568.097 1.35866 -0.621349 0
M  V30 5912 H 569.979 4.10677 0.944574 0
M  V30 5913 H 568.654 2.96474 1.29941 0
M  V30 5914 H 567.561 3.62569 -0.921652 0
M  V30 5915 H 568.894 4.7751 -1.19352 0
M  V30 5916 N 570.547 0.616602 1.45037 0
M  V30 5917 C 571.772 0.120192 2.07051 0
M  V30 5918 C 572.197 -1.19008 1.45666 0
M  V30 5919 O 571.555 -1.7267 0.552692 0
M  V30 5920 C 571.603 0.00354901 3.606 0
M  V30 5921 O 570.707 -1.04431 3.98958 0
M  V30 5922 H 570.048 0.0781599 0.659384 0
M  V30 5923 H 572.578 0.849167 1.86146 0
M  V30 5924 H 572.588 -0.191754 4.07549 0
M  V30 5925 H 571.263 0.960239 4.04663 0
M  V30 5926 H 569.84 -0.824749 3.63665 0
M  V30 5927 N 572.025 -1.5352 0.356285 0
M  V30 5928 C 573.25 -2.06007 -0.239961 0
M  V30 5929 C 573.675 -1.22872 -1.42422 0
M  V30 5930 O 573.033 -0.245516 -1.7963 0
M  V30 5931 C 573.081 -3.5522 -0.620587 0
M  V30 5932 O 572.185 -3.74864 -1.71902 0
M  V30 5933 H 571.526 -0.662961 -0.0371377 0
M  V30 5934 H 574.056 -1.98033 0.514194 0
M  V30 5935 H 574.066 -3.98081 -0.894197 0
M  V30 5936 H 572.741 -4.15175 0.245407 0
M  V30 5937 H 571.318 -3.43904 -1.44169 0
M  V30 5938 N 573.503 -0.0852151 -1.57369 0
M  V30 5939 C 574.731 0.58946 -1.98325 0
M  V30 5940 C 575.146 1.62333 -0.96403 0
M  V30 5941 O 574.503 1.82438 0.0476395 0
M  V30 5942 C 574.554 1.24604 -3.39347 0
M  V30 5943 O 574.275 0.253532 -4.37366 0
M  V30 5944 C 575.776 2.00726 -3.95252 0
M  V30 5945 H 572.996 0.158783 -0.651942 0
M  V30 5946 H 575.54 -0.161584 -2.03861 0
M  V30 5947 H 573.695 1.94808 -3.34856 0
M  V30 5948 H 574.109 0.726207 -5.19448 0
M  V30 5949 H 575.583 2.42039 -4.96106 0
M  V30 5950 H 576.06 2.86919 -3.32527 0
M  V30 5951 H 576.666 1.3536 -4.03185 0
M  V30 5952 N 574.981 1.5647 0.188427 0
M  V30 5953 C 575.911 1.98101 1.23606 0
M  V30 5954 C 576.892 0.853961 1.47111 0
M  V30 5955 O 578.077 1.11879 1.58735 0
M  V30 5956 C 575.207 2.32624 2.57882 0
M  V30 5957 C 574.161 3.48129 2.48978 0
M  V30 5958 C 573.487 3.68347 3.87588 0
M  V30 5959 C 574.787 4.82112 2.00911 0
M  V30 5960 H 576.481 2.85864 0.890068 0
M  V30 5961 H 574.027 1.37532 0.426714 0
M  V30 5962 H 575.98 2.60343 3.3136 0
M  V30 5963 H 574.704 1.41751 2.94235 0
M  V30 5964 H 573.363 3.20511 1.77956 0
M  V30 5965 H 573.011 2.74793 4.21305 0
M  V30 5966 H 572.711 4.46055 3.82503 0
M  V30 5967 H 574.235 3.98449 4.62678 0
M  V30 5968 H 575.649 5.08819 2.64151 0
M  V30 5969 H 574.046 5.63337 2.06814 0
M  V30 5970 H 575.116 4.75249 0.96262 0
M  V30 5971 N 576.459 -0.456382 1.50847 0
M  V30 5972 C 577.389 -1.56025 1.73719 0
M  V30 5973 C 578.37 -1.5967 0.586473 0
M  V30 5974 O 579.555 -1.75702 0.827185 0
M  V30 5975 C 576.685 -2.94251 1.84483 0
M  V30 5976 C 575.639 -3.05471 2.99786 0
M  V30 5977 C 574.965 -4.45489 2.95709 0
M  V30 5978 C 576.265 -2.81318 4.40065 0
M  V30 5979 H 577.959 -1.37138 2.66146 0
M  V30 5980 H 575.505 -0.658299 1.28072 0
M  V30 5981 H 577.458 -3.71417 1.99067 0
M  V30 5982 H 576.182 -3.14328 0.886891 0
M  V30 5983 H 574.841 -2.30741 2.84876 0
M  V30 5984 H 574.489 -4.62505 1.97732 0
M  V30 5985 H 574.189 -4.53929 3.73125 0
M  V30 5986 H 575.713 -5.24655 3.12362 0
M  V30 5987 H 577.127 -3.48226 4.55425 0
M  V30 5988 H 575.524 -3.01188 5.19043 0
M  V30 5989 H 576.594 -1.7706 4.51418 0
M  V30 5990 N 577.937 -1.40673 -0.710563 0
M  V30 5991 C 578.847 -1.43663 -1.85467 0
M  V30 5992 C 579.863 -0.328721 -1.70867 0
M  V30 5993 O 581.039 -0.574098 -1.93044 0
M  V30 5994 C 578.104 -1.30226 -3.21313 0
M  V30 5995 C 577.165 -2.51204 -3.48131 0
M  V30 5996 C 576.398 -2.38398 -4.77495 0
M  V30 5997 O 576.621 -1.40048 -5.5294 0
M  V30 5998 O 575.555 -3.2787 -5.04762 0
M  V30 5999 H 579.381 -2.40156 -1.859 0
M  V30 6000 H 576.966 -1.22049 -0.861652 0
M  V30 6001 H 578.848 -1.2496 -4.02446 0
M  V30 6002 H 577.523 -0.368419 -3.21597 0
M  V30 6003 H 576.43 -2.62048 -2.66987 0
M  V30 6004 H 577.763 -3.43366 -3.52648 0
M  V30 6005 N 579.415 0.9433 -1.26252 0
M  V30 6006 C 580.362 2.0417 -1.07625 0
M  V30 6007 C 581.332 1.6609 0.0180738 0
M  V30 6008 O 582.517 1.90276 -0.141289 0
M  V30 6009 C 579.657 3.37653 -0.713043 0
M  V30 6010 C 578.77 3.88783 -1.8834 0
M  V30 6011 C 577.905 5.10642 -1.4635 0
M  V30 6012 C 576.944 5.54028 -2.60229 0
M  V30 6013 N 576.081 6.67092 -2.18936 0
M  V30 6014 H 580.921 2.19436 -2.01623 0
M  V30 6015 H 578.458 1.07519 -1.00389 0
M  V30 6016 H 580.416 4.14391 -0.483358 0
M  V30 6017 H 579.046 3.22241 0.18996 0
M  V30 6018 H 578.098 3.08464 -2.22608 0
M  V30 6019 H 579.41 4.16922 -2.73821 0
M  V30 6020 H 578.564 5.94832 -1.19414 0
M  V30 6021 H 577.303 4.84244 -0.579568 0
M  V30 6022 H 576.308 4.68396 -2.87898 0
M  V30 6023 H 577.533 5.82429 -3.49219 0
M  V30 6024 H 575.479 6.42381 -1.32974 0
M  V30 6025 H 575.396 6.94806 -2.97961 0
M  V30 6026 H 576.664 7.54662 -1.95206 0
M  V30 6027 N 580.893 1.08022 1.14757 0
M  V30 6028 C 582.123 0.827646 1.89298 0
M  V30 6029 C 582.531 -0.623506 1.78631 0
M  V30 6030 O 581.874 -1.43991 1.14071 0
M  V30 6031 C 581.936 1.16553 3.40082 0
M  V30 6032 C 581.6 2.61866 3.74533 0
M  V30 6033 C 582.597 3.60116 3.74984 0
M  V30 6034 C 580.282 2.97619 4.04633 0
M  V30 6035 C 582.276 4.92151 4.05051 0
M  V30 6036 C 579.963 4.2985 4.34364 0
M  V30 6037 C 580.961 5.26926 4.34555 0
M  V30 6038 O 580.649 6.5678 4.63568 0
M  V30 6039 H 580.381 0.298396 0.606577 0
M  V30 6040 H 582.935 1.44187 1.46285 0
M  V30 6041 H 581.165 0.494296 3.83528 0
M  V30 6042 H 582.854 0.894407 3.95923 0
M  V30 6043 H 583.62 3.33837 3.51821 0
M  V30 6044 H 579.499 2.22702 4.03639 0
M  V30 6045 H 583.043 5.67915 4.05115 0
M  V30 6046 H 578.94 4.55879 4.56995 0
M  V30 6047 H 579.708 6.62035 4.81303 0
M  V30 6048 N 582.371 -1.3172 0.865308 0
M  V30 6049 C 583.318 -2.2863 0.315736 0
M  V30 6050 C 584.288 -1.55524 -0.583213 0
M  V30 6051 O 585.473 -1.83694 -0.51585 0
M  V30 6052 C 582.613 -3.41735 -0.480773 0
M  V30 6053 C 581.726 -4.297 0.445167 0
M  V30 6054 C 580.861 -5.29944 -0.365012 0
M  V30 6055 C 579.9 -6.09554 0.557651 0
M  V30 6056 N 579.037 -7.01768 -0.215994 0
M  V30 6057 H 583.877 -2.75026 1.14736 0
M  V30 6058 H 581.414 -1.35302 0.577209 0
M  V30 6059 H 583.372 -4.06045 -0.958306 0
M  V30 6060 H 582.002 -2.96461 -1.27714 0
M  V30 6061 H 581.054 -3.65875 1.04113 0
M  V30 6062 H 582.366 -4.85295 1.15284 0
M  V30 6063 H 581.52 -5.99908 -0.905255 0
M  V30 6064 H 580.259 -4.74994 -1.106 0
M  V30 6065 H 579.264 -5.38485 1.10969 0
M  V30 6066 H 580.489 -6.66591 1.29742 0
M  V30 6067 H 578.435 -6.49232 -0.939878 0
M  V30 6068 H 578.352 -7.54762 0.432431 0
M  V30 6069 H 579.62 -7.76002 -0.737618 0
M  V30 6070 N 583.85 -0.624285 -1.44708 0
M  V30 6071 C 585.099 -0.123539 -2.01321 0
M  V30 6072 C 585.412 1.25966 -1.49639 0
M  V30 6073 O 586.618 1.85405 -1.98336 0
M  V30 6074 C 585.074 -0.170124 -3.59498 0
M  V30 6075 C 584.682 -1.55421 -4.20176 0
M  V30 6076 C 586.426 0.274513 -4.23611 0
M  V30 6077 C 584.332 -1.55628 -5.70556 0
M  V30 6078 H 583.263 -0.0424183 -0.752806 0
M  V30 6079 H 585.913 -0.782076 -1.65999 0
M  V30 6080 H 584.296 0.555385 -3.92086 0
M  V30 6081 H 585.47 -2.30276 -3.99136 0
M  V30 6082 H 583.784 -1.94235 -3.68323 0
M  V30 6083 H 586.382 0.292402 -5.339 0
M  V30 6084 H 586.725 1.3005 -3.95465 0
M  V30 6085 H 587.258 -0.398275 -3.95801 0
M  V30 6086 H 583.997 -2.56041 -6.03426 0
M  V30 6087 H 583.517 -0.850563 -5.93739 0
M  V30 6088 H 585.196 -1.28721 -6.34066 0
M  V30 6089 N 585.328 1.53329 -0.364422 0
M  V30 6090 C 586.576 2.00842 0.225189 0
M  V30 6091 C 586.897 1.25345 1.49378 0
M  V30 6092 O 586.167 0.366396 1.92443 0
M  V30 6093 H 584.747 0.742009 0.0862027 0
M  V30 6094 H 587.409 1.8863 -0.490389 0
M  V30 6095 H 586.505 3.08795 0.452987 0
M  V30 6096 N 586.806 0.0935595 1.57322 0
M  V30 6097 C 587.753 -0.865935 2.1394 0
M  V30 6098 C 588.723 -1.28083 1.05754 0
M  V30 6099 O 589.908 -1.36285 1.33533 0
M  V30 6100 C 587.048 -2.12023 2.72287 0
M  V30 6101 C 586.161 -1.756 3.94701 0
M  V30 6102 C 585.296 -2.95804 4.41218 0
M  V30 6103 C 584.335 -2.555 5.56225 0
M  V30 6104 N 583.472 -3.68534 5.97601 0
M  V30 6105 H 588.312 -0.376261 2.95615 0
M  V30 6106 H 585.849 -0.174052 1.46067 0
M  V30 6107 H 587.807 -2.85477 3.04235 0
M  V30 6108 H 586.437 -2.58492 1.93343 0
M  V30 6109 H 585.489 -0.921208 3.69077 0
M  V30 6110 H 586.801 -1.41964 4.78171 0
M  V30 6111 H 585.955 -3.77513 4.74941 0
M  V30 6112 H 584.694 -3.32649 3.56645 0
M  V30 6113 H 583.699 -1.72218 5.22131 0
M  V30 6114 H 584.924 -2.19801 6.42545 0
M  V30 6115 H 582.87 -4.051 5.15974 0
M  V30 6116 H 582.787 -3.38737 6.75865 0
M  V30 6117 H 584.055 -4.50757 6.35955 0
M  V30 6118 N 588.284 -1.56567 -0.180126 0
M  V30 6119 C 589.53 -1.81761 -0.899497 0
M  V30 6120 C 589.863 -0.670015 -1.82276 0
M  V30 6121 O 589.138 0.328575 -1.91705 0
M  V30 6122 C 589.421 -3.17296 -1.7028 0
M  V30 6123 C 589.274 -4.4257 -0.803255 0
M  V30 6124 C 590.593 -3.49678 -2.67233 0
M  V30 6125 H 587.712 -0.661192 -0.325567 0
M  V30 6126 H 590.354 -1.89272 -0.16612 0
M  V30 6127 H 588.504 -3.11023 -2.32802 0
M  V30 6128 H 590.176 -4.60902 -0.191585 0
M  V30 6129 H 588.419 -4.33658 -0.110796 0
M  V30 6130 H 589.09 -5.33935 -1.40064 0
M  V30 6131 H 591.566 -3.56347 -2.14839 0
M  V30 6132 H 590.442 -4.45605 -3.20511 0
M  V30 6133 H 590.703 -2.73932 -3.47007 0
M  V30 6134 N 589.762 0.448376 -1.51087 0
M  V30 6135 C 591.011 1.19561 -1.62444 0
M  V30 6136 C 591.324 1.92602 -0.341151 0
M  V30 6137 O 592.53 2.69439 -0.333936 0
M  V30 6138 C 590.986 2.17373 -2.8684 0
M  V30 6139 C 590.594 1.5003 -4.22131 0
M  V30 6140 C 592.338 2.92597 -3.0755 0
M  V30 6141 C 590.245 2.46262 -5.37689 0
M  V30 6142 H 589.175 0.449975 -0.605011 0
M  V30 6143 H 591.826 0.463735 -1.77544 0
M  V30 6144 H 590.208 2.93948 -2.65349 0
M  V30 6145 H 591.382 0.790886 -4.53962 0
M  V30 6146 H 589.697 0.870011 -4.0721 0
M  V30 6147 H 592.294 3.64663 -3.91056 0
M  V30 6148 H 592.637 3.53306 -2.20183 0
M  V30 6149 H 593.17 2.23131 -3.29329 0
M  V30 6150 H 589.909 1.90258 -6.27281 0
M  V30 6151 H 589.429 3.15289 -5.10248 0
M  V30 6152 H 591.108 3.07623 -5.6919 0
M  V30 6153 N 591.24 1.41047 0.703093 0
M  V30 6154 C 592.488 1.39723 1.4602 0
M  V30 6155 C 592.809 0.00461257 1.94999 0
M  V30 6156 O 592.079 -0.952292 1.71196 0
M  V30 6157 H 590.659 0.514281 0.541779 0
M  V30 6158 H 593.321 1.76217 0.832678 0
M  V30 6159 H 592.417 2.07982 2.32701 0
M  V30 6160 N 592.718 -0.936591 1.26751 0
M  V30 6161 C 593.995 -1.66094 1.03306 0
M  V30 6162 C 594.375 -2.06568 -0.435058 0
M  V30 6163 O 593.723 -1.79305 -1.41641 0
M  V30 6164 C 593.933 -2.86969 1.98619 0
M  V30 6165 C 595.281 -3.58516 2.27489 0
M  V30 6166 O 596.305 -2.97082 1.96522 0
M  V30 6167 O 595.164 -4.69181 2.80235 0
M  V30 6168 H 592.258 -0.727568 0.393158 0
M  V30 6169 H 594.804 -0.987914 1.3798 0
M  V30 6170 H 593.576 -2.53985 2.9767 0
M  V30 6171 H 593.199 -3.61996 1.64454 0
M  V30 6172 N 594.196 -1.08629 -1.14182 0
M  V30 6173 C 595.444 -0.815731 -1.84906 0
M  V30 6174 C 595.765 0.660441 -1.83475 0
M  V30 6175 O 595.035 1.47888 -1.28476 0
M  V30 6176 H 593.615 -0.298773 -0.684648 0
M  V30 6177 H 596.277 -1.37274 -1.38354 0
M  V30 6178 H 595.373 -1.16193 -2.89665 0
M  V30 6179 N 595.674 1.31259 -0.872281 0
M  V30 6180 C 596.622 2.30404 -0.318897 0
M  V30 6181 C 597.616 1.5962 0.567267 0
M  V30 6182 O 598.822 1.74204 0.453111 0
M  V30 6183 H 595.197 0.747243 -0.0844474 0
M  V30 6184 H 597.168 2.74549 -1.16899 0
M  V30 6185 C 595.917 3.44608 0.462683 0
M  V30 6186 H 595.24 3.99248 -0.209936 0
M  V30 6187 H 596.68 4.1609 0.815187 0
M  V30 6188 C 595.139 2.93456 1.65485 0
M  V30 6189 O 595.669 2.92418 2.75417 0
M  V30 6190 N 593.875 2.49628 1.48776 0
M  V30 6191 H 593.422 2.50671 0.593452 0
M  V30 6192 H 593.38 2.15759 2.28682 0
M  V30 6193 N 597.152 0.631951 1.44375 0
M  V30 6194 C 598.399 0.136767 2.02038 0
M  V30 6195 C 598.727 -1.24168 1.49709 0
M  V30 6196 O 597.982 -1.83809 0.671763 0
M  V30 6197 C 598.281 0.0735861 3.57324 0
M  V30 6198 C 597.947 1.39092 4.28911 0
M  V30 6199 C 596.609 1.75171 4.48184 0
M  V30 6200 C 598.961 2.26042 4.69632 0
M  V30 6201 C 596.289 2.97907 5.05439 0
M  V30 6202 C 598.641 3.4805 5.28246 0
M  V30 6203 C 597.305 3.84351 5.45738 0
M  V30 6204 H 596.575 0.0500466 0.739308 0
M  V30 6205 H 599.222 0.818429 1.7313 0
M  V30 6206 H 597.527 -0.691449 3.8565 0
M  V30 6207 H 599.224 -0.326091 3.99672 0
M  V30 6208 H 595.814 1.10015 4.1424 0
M  V30 6209 H 599.998 1.99463 4.54454 0
M  V30 6210 H 595.254 3.26108 5.17169 0
M  V30 6211 H 599.428 4.15658 5.5875 0
M  V30 6212 H 597.055 4.79538 5.8987 0
M  V30 6213 N 598.631 -1.53133 0.372548 0
M  V30 6214 C 599.594 -2.24569 -0.458389 0
M  V30 6215 C 600.594 -1.25603 -1.00402 0
M  V30 6216 O 601.784 -1.49827 -0.888672 0
M  V30 6217 C 598.916 -2.98783 -1.6414 0
M  V30 6218 H 600.109 -2.99436 0.166799 0
M  V30 6219 H 597.662 -1.55805 0.124357 0
M  V30 6220 H 598.397 -2.28176 -2.30448 0
M  V30 6221 H 598.182 -3.71404 -1.25704 0
M  V30 6222 H 599.672 -3.53068 -2.23008 0
M  V30 6223 N 600.109 -0.101901 -1.5727 0
M  V30 6224 C 601.355 0.561027 -1.94885 0
M  V30 6225 C 601.688 1.6741 -0.984258 0
M  V30 6226 O 600.963 1.94491 -0.0184767 0
M  V30 6227 C 601.246 1.10982 -3.42571 0
M  V30 6228 C 601.099 0.00133418 -4.498 0
M  V30 6229 C 602.418 2.00608 -3.9172 0
M  V30 6230 H 599.537 0.202467 -0.708644 0
M  V30 6231 H 602.179 -0.173992 -1.89202 0
M  V30 6232 H 600.329 1.73621 -3.47546 0
M  V30 6233 H 602.001 -0.63322 -4.56933 0
M  V30 6234 H 600.244 -0.664143 -4.28686 0
M  V30 6235 H 600.915 0.426253 -5.50352 0
M  V30 6236 H 603.391 1.47864 -3.88941 0
M  V30 6237 H 602.267 2.3593 -4.95609 0
M  V30 6238 H 602.528 2.92608 -3.3141 0
M  V30 6239 N 601.587 1.56661 0.17182 0
M  V30 6240 C 602.833 1.82235 0.889845 0
M  V30 6241 C 603.166 0.679673 1.81918 0
M  V30 6242 O 602.441 -0.318404 1.91876 0
M  V30 6243 C 602.724 3.18195 1.68595 0
M  V30 6244 C 602.577 4.42989 0.779773 0
M  V30 6245 C 603.896 3.5109 2.65375 0
M  V30 6246 H 601.015 0.66291 0.322056 0
M  V30 6247 H 603.657 1.89358 0.15608 0
M  V30 6248 H 601.807 3.12253 2.3115 0
M  V30 6249 H 603.479 4.60997 0.16714 0
M  V30 6250 H 601.722 4.33711 0.0877964 0
M  V30 6251 H 602.393 5.3467 1.3723 0
M  V30 6252 H 604.869 3.57482 2.12946 0
M  V30 6253 H 603.745 4.47298 3.18144 0
M  V30 6254 H 604.006 2.75768 3.45549 0
M  V30 6255 N 603.065 -0.440357 1.51323 0
M  V30 6256 C 604.012 -1.53429 1.72419 0
M  V30 6257 C 604.982 -1.56165 0.565826 0
M  V30 6258 O 606.167 -1.73222 0.799917 0
M  V30 6259 C 603.307 -2.91169 1.85242 0
M  V30 6260 C 602.42 -2.97985 3.12777 0
M  V30 6261 C 601.555 -4.26829 3.16212 0
M  V30 6262 C 600.594 -4.27501 4.38074 0
M  V30 6263 N 599.731 -5.47866 4.39076 0
M  V30 6264 H 604.571 -1.34743 2.65797 0
M  V30 6265 H 602.108 -0.654608 1.31732 0
M  V30 6266 H 604.066 -3.71087 1.90658 0
M  V30 6267 H 602.696 -3.0842 0.952744 0
M  V30 6268 H 601.748 -2.10749 3.16685 0
M  V30 6269 H 603.06 -2.94342 4.02696 0
M  V30 6270 H 602.214 -5.15118 3.20527 0
M  V30 6271 H 600.953 -4.33124 2.24176 0
M  V30 6272 H 599.958 -3.37606 4.33938 0
M  V30 6273 H 601.183 -4.22873 5.31371 0
M  V30 6274 H 599.129 -5.54887 3.49909 0
M  V30 6275 H 599.046 -5.46091 5.22801 0
M  V30 6276 H 600.314 -6.38195 4.4758 0
M  V30 6277 N 604.543 -1.41418 -0.695603 0
M  V30 6278 C 605.453 -1.45622 -1.83933 0
M  V30 6279 C 606.469 -0.346825 -1.70508 0
M  V30 6280 O 607.645 -0.59454 -1.92424 0
M  V30 6281 C 604.71 -1.33627 -3.19914 0
M  V30 6282 C 603.771 -2.54882 -3.45447 0
M  V30 6283 C 603.004 -2.43449 -4.7494 0
M  V30 6284 O 603.227 -1.45905 -5.51424 0
M  V30 6285 O 602.161 -3.33206 -5.01256 0
M  V30 6286 H 605.987 -2.42114 -1.83342 0
M  V30 6287 H 603.572 -1.22956 -0.848658 0
M  V30 6288 H 605.454 -1.29221 -4.01098 0
M  V30 6289 H 604.129 -0.402508 -3.21188 0
M  V30 6290 H 603.036 -2.64865 -2.64192 0
M  V30 6291 H 604.369 -3.47087 -3.48987 0
M  V30 6292 N 606.021 0.929856 -1.27246 0
M  V30 6293 C 607.261 1.6919 -1.14691 0
M  V30 6294 C 607.625 1.896 0.302621 0
M  V30 6295 O 608.826 2.63102 0.550543 0
M  V30 6296 C 607.097 3.02291 -1.9067 0
M  V30 6297 S 608.656 3.93436 -1.94303 0
M  V30 6298 H 605.474 0.581248 -0.409477 0
M  V30 6299 H 608.076 1.10722 -1.61124 0
M  V30 6300 H 606.78 2.85125 -2.95181 0
M  V30 6301 H 606.311 3.65813 -1.44723 0
M  V30 6302 H 608.326 4.85224 -1.0379 0
M  V30 6303 N 607.499 1.09233 1.13605 0
M  V30 6304 C 608.748 0.82205 1.84188 0
M  V30 6305 C 609.061 -0.654548 1.84323 0
M  V30 6306 O 610.267 -1.04029 2.50779 0
M  V30 6307 C 608.723 1.42066 3.30674 0
M  V30 6308 C 608.331 2.92965 3.38933 0
M  V30 6309 C 610.075 1.22924 4.06313 0
M  V30 6310 C 607.982 3.45922 4.79679 0
M  V30 6311 H 606.912 0.303854 0.690064 0
M  V30 6312 H 609.563 1.31479 1.28006 0
M  V30 6313 H 607.945 0.855613 3.86646 0
M  V30 6314 H 609.119 3.55679 2.92966 0
M  V30 6315 H 607.434 3.11118 2.76757 0
M  V30 6316 H 610.031 1.59945 5.10217 0
M  V30 6317 H 610.374 0.169726 4.15954 0
M  V30 6318 H 610.907 1.76168 3.56665 0
M  V30 6319 H 607.646 4.51484 4.75229 0
M  V30 6320 H 607.166 2.87971 5.26149 0
M  V30 6321 H 608.845 3.43009 5.48592 0
M  V30 6322 N 608.977 -1.30795 0.87923 0
M  V30 6323 C 610.254 -1.91145 0.415086 0
M  V30 6324 C 610.634 -1.7995 -1.10368 0
M  V30 6325 O 609.982 -1.21305 -1.93642 0
M  V30 6326 C 610.192 -3.37014 0.906778 0
M  V30 6327 C 611.54 -4.14101 0.938358 0
M  V30 6328 O 612.564 -3.45834 0.853053 0
M  V30 6329 O 611.423 -5.36054 1.06342 0
M  V30 6330 H 608.517 -0.81736 0.125905 0
M  V30 6331 H 611.063 -1.39401 0.967753 0
M  V30 6332 H 609.835 -3.3922 1.95053 0
M  V30 6333 H 609.458 -3.96204 0.332948 0
M  V30 6334 N 610.455 -0.639598 -1.44038 0
M  V30 6335 C 611.871 -0.305953 -1.5664 0
M  V30 6336 C 612.071 1.19055 -1.62567 0
M  V30 6337 O 611.127 1.97492 -1.57331 0
M  V30 6338 C 612.44 -1.00533 -2.83397 0
M  V30 6339 C 613.988 -0.984278 -2.97121 0
M  V30 6340 C 614.463 -1.66428 -4.26691 0
M  V30 6341 N 615.954 -1.63127 -4.33525 0
M  V30 6342 C 616.689 -2.12629 -5.32519 0
M  V30 6343 N 616.185 -2.70359 -6.3787 0
M  V30 6344 N 617.978 -2.03208 -5.24083 0
M  V30 6345 H 610.129 -1.6109 -1.38434 0
M  V30 6346 H 612.392 -0.676672 -0.663942 0
M  V30 6347 H 612.098 -2.06034 -2.85032 0
M  V30 6348 H 611.972 -0.548362 -3.73193 0
M  V30 6349 H 614.359 0.0622792 -2.95034 0
M  V30 6350 H 614.44 -1.47981 -2.08651 0
M  V30 6351 H 614.084 -2.71034 -4.29538 0
M  V30 6352 H 614.014 -1.14351 -5.14034 0
M  V30 6353 H 616.505 -1.20987 -3.58009 0
M  V30 6354 H 616.818 -3.05842 -7.09704 0
M  V30 6355 H 615.163 -2.74414 -6.38531 0
M  V30 6356 H 618.354 -1.57823 -4.40692 0
M  V30 6357 H 618.527 -2.42097 -6.01077 0
M  V30 6358 N 611.933 1.52934 -0.380664 0
M  V30 6359 C 613.158 2.06363 0.207157 0
M  V30 6360 C 613.583 1.25122 1.4045 0
M  V30 6361 O 612.941 0.274062 1.79217 0
M  V30 6362 C 612.989 3.56162 0.563996 0
M  V30 6363 O 612.093 3.77552 1.65917 0
M  V30 6364 H 611.434 0.663468 0.0265859 0
M  V30 6365 H 613.964 1.9719 -0.545635 0
M  V30 6366 H 613.974 3.99453 0.830752 0
M  V30 6367 H 612.649 4.14732 -0.311427 0
M  V30 6368 H 611.226 3.46154 1.3868 0
M  V30 6369 N 613.412 0.11024 1.57214 0
M  V30 6370 C 614.64 -0.557834 1.99238 0
M  V30 6371 C 615.055 -1.60778 0.989734 0
M  V30 6372 O 614.412 -1.82491 -0.0186092 0
M  V30 6373 C 614.463 -1.19189 3.41286 0
M  V30 6374 O 614.184 -0.183919 4.37714 0
M  V30 6375 C 615.685 -1.94413 3.98395 0
M  V30 6376 H 612.905 -0.148392 0.654386 0
M  V30 6377 H 615.449 0.193996 2.03578 0
M  V30 6378 H 613.604 -1.89456 3.37913 0
M  V30 6379 H 614.018 -0.643475 5.20538 0
M  V30 6380 H 615.492 -2.34116 4.99894 0
M  V30 6381 H 615.969 -2.81592 3.3705 0
M  V30 6382 H 616.575 -1.28928 4.05287 0
M  V30 6383 N 614.89 -1.56749 -0.16351 0
M  V30 6384 C 616.138 -1.82074 -0.87713 0
M  V30 6385 C 616.459 -0.688503 -1.82441 0
M  V30 6386 O 615.729 0.291085 -1.93725 0
M  V30 6387 H 614.309 -0.671677 -0.326893 0
M  V30 6388 H 616.971 -1.9423 -0.161459 0
M  V30 6389 H 616.067 -2.76407 -1.44934 0
M  V30 6390 N 616.368 0.432326 -1.51554 0
M  V30 6391 C 617.315 1.52512 -1.7323 0
M  V30 6392 C 618.285 1.55863 -0.5741 0
M  V30 6393 O 619.47 1.72796 -0.809093 0
M  V30 6394 C 616.61 2.90183 -1.86783 0
M  V30 6395 C 615.723 2.96322 -3.14352 0
M  V30 6396 C 614.858 4.25147 -3.18471 0
M  V30 6397 C 613.897 4.25172 -4.40335 0
M  V30 6398 N 613.034 5.45529 -4.41975 0
M  V30 6399 H 617.874 1.33332 -2.66508 0
M  V30 6400 H 615.411 0.647613 -1.32077 0
M  V30 6401 H 617.369 3.70071 -1.92623 0
M  V30 6402 H 615.999 3.0791 -0.969087 0
M  V30 6403 H 615.051 2.09066 -3.17798 0
M  V30 6404 H 616.363 2.92203 -4.04251 0
M  V30 6405 H 615.517 5.13411 -3.23255 0
M  V30 6406 H 614.256 4.31929 -2.2647 0
M  V30 6407 H 613.261 3.353 -4.35723 0
M  V30 6408 H 614.486 4.20049 -5.33606 0
M  V30 6409 H 612.432 5.53024 -3.52847 0
M  V30 6410 H 612.349 5.43311 -5.25689 0
M  V30 6411 H 613.617 6.35812 -4.50958 0
M  V30 6412 N 617.846 1.41785 0.688094 0
M  V30 6413 C 618.756 1.46596 1.83158 0
M  V30 6414 C 619.772 0.355862 1.70322 0
M  V30 6415 O 620.948 0.604737 1.92106 0
M  V30 6416 C 618.013 1.35322 3.192 0
M  V30 6417 C 617.074 2.56711 3.4409 0
M  V30 6418 C 616.307 2.45965 4.73642 0
M  V30 6419 O 616.53 1.48827 5.50642 0
M  V30 6420 O 615.464 3.35859 4.99482 0
M  V30 6421 H 619.29 2.43083 1.82056 0
M  V30 6422 H 616.875 1.23404 0.842126 0
M  V30 6423 H 618.757 1.31347 4.00407 0
M  V30 6424 H 617.432 0.419536 3.2097 0
M  V30 6425 H 616.339 2.66262 2.62784 0
M  V30 6426 H 617.672 3.48933 3.47141 0
M  V30 6427 N 619.324 -0.923095 1.27737 0
M  V30 6428 C 620.571 -1.67127 1.14345 0
M  V30 6429 C 620.899 -1.92017 -0.30982 0
M  V30 6430 O 620.154 -1.51185 -1.24264 0
M  V30 6431 C 620.453 -3.04125 1.8773 0
M  V30 6432 C 620.119 -2.98929 3.37568 0
M  V30 6433 C 618.781 -2.9722 3.78436 0
M  V30 6434 C 621.133 -2.89875 4.33154 0
M  V30 6435 C 618.461 -2.84244 5.13247 0
M  V30 6436 C 620.813 -2.7844 5.68026 0
M  V30 6437 C 619.477 -2.75083 6.08182 0
M  V30 6438 H 618.747 -0.611562 0.418417 0
M  V30 6439 H 621.394 -1.07618 1.584 0
M  V30 6440 H 619.699 -3.67366 1.36196 0
M  V30 6441 H 621.396 -3.609 1.74792 0
M  V30 6442 H 617.986 -3.0105 3.05069 0
M  V30 6443 H 622.17 -2.9029 4.02548 0
M  V30 6444 H 617.426 -2.80034 5.43499 0
M  V30 6445 H 621.6 -2.70401 6.4176 0
M  V30 6446 H 619.227 -2.64786 7.12596 0
M  V30 6447 N 620.802 -1.09834 -1.13024 0
M  V30 6448 C 621.765 -0.745058 -2.16752 0
M  V30 6449 C 622.765 0.227435 -1.59183 0
M  V30 6450 O 623.955 0.0050786 -1.74199 0
M  V30 6451 C 621.087 -0.102543 -3.40746 0
M  V30 6452 H 622.28 -1.66375 -2.49518 0
M  V30 6453 H 619.833 -0.898061 -1.27924 0
M  V30 6454 H 620.568 0.827177 -3.13573 0
M  V30 6455 H 620.353 -0.80235 -3.83803 0
M  V30 6456 H 621.843 0.129082 -4.174 0
M  V30 6457 N 622.28 1.30327 -0.886154 0
M  V30 6458 C 623.21 2.30549 -0.370028 0
M  V30 6459 C 624.191 1.61039 0.547751 0
M  V30 6460 O 625.376 1.8864 0.461353 0
M  V30 6461 C 622.506 3.44808 0.415275 0
M  V30 6462 C 621.46 4.26024 -0.41085 0
M  V30 6463 C 620.786 5.32347 0.501128 0
M  V30 6464 C 622.086 4.95433 -1.65359 0
M  V30 6465 H 623.78 2.73969 -1.20754 0
M  V30 6466 H 621.326 1.3171 -0.582097 0
M  V30 6467 H 623.279 4.13986 0.78699 0
M  V30 6468 H 622.003 3.00197 1.28644 0
M  V30 6469 H 620.662 3.58535 -0.764719 0
M  V30 6470 H 620.31 4.83982 1.37004 0
M  V30 6471 H 620.01 5.87581 -0.0478356 0
M  V30 6472 H 621.534 6.0438 0.869333 0
M  V30 6473 H 622.948 5.5712 -1.35239 0
M  V30 6474 H 621.345 5.60537 -2.14284 0
M  V30 6475 H 622.415 4.21493 -2.39733 0
M  V30 6476 N 623.758 0.647228 1.43697 0
M  V30 6477 C 624.705 -0.0480092 2.3075 0
M  V30 6478 C 625.675 -0.820705 1.44408 0
M  V30 6479 O 626.86 -0.798515 1.73287 0
M  V30 6480 C 624 -1.01259 3.2991 0
M  V30 6481 C 623.113 -0.236629 4.31351 0
M  V30 6482 C 622.248 -1.19447 5.17596 0
M  V30 6483 C 621.287 -0.408595 6.10735 0
M  V30 6484 N 620.424 -1.31772 6.89623 0
M  V30 6485 H 625.264 0.700238 2.89656 0
M  V30 6486 H 622.801 0.357082 1.427 0
M  V30 6487 H 624.759 -1.58538 3.85903 0
M  V30 6488 H 623.389 -1.72778 2.72667 0
M  V30 6489 H 622.441 0.452353 3.77701 0
M  V30 6490 H 623.753 0.374731 4.9739 0
M  V30 6491 H 622.907 -1.83809 5.78186 0
M  V30 6492 H 621.646 -1.83975 4.51669 0
M  V30 6493 H 620.651 0.24841 5.49239 0
M  V30 6494 H 621.876 0.232188 6.78703 0
M  V30 6495 H 619.822 -1.94991 6.2635 0
M  V30 6496 H 619.739 -0.760779 7.52162 0
M  V30 6497 H 621.007 -1.94967 7.54724 0
M  V30 6498 N 625.236 -1.5273 0.388769 0
M  V30 6499 C 626.485 -2.00757 -0.194833 0
M  V30 6500 C 626.798 -1.27951 -1.47946 0
M  V30 6501 O 628.004 -1.66686 -2.14308 0
M  V30 6502 C 626.46 -3.57695 -0.397762 0
M  V30 6503 C 626.068 -4.394 0.873583 0
M  V30 6504 C 627.812 -4.14012 -0.937759 0
M  V30 6505 C 625.719 -5.87938 0.638962 0
M  V30 6506 H 624.649 -0.750101 -0.0765845 0
M  V30 6507 H 627.3 -1.76239 0.511086 0
M  V30 6508 H 625.682 -3.7846 -1.16552 0
M  V30 6509 H 626.856 -4.30403 1.64591 0
M  V30 6510 H 625.171 -3.94301 1.33849 0
M  V30 6511 H 627.768 -5.22645 -1.12899 0
M  V30 6512 H 628.111 -3.7007 -1.90666 0
M  V30 6513 H 628.644 -3.97137 -0.229588 0
M  V30 6514 H 625.383 -6.36202 1.57885 0
M  V30 6515 H 624.903 -5.99726 -0.094443 0
M  V30 6516 H 626.582 -6.46423 0.273299 0
M  V30 6517 N 626.714 -0.118576 -1.57153 0
M  V30 6518 C 627.963 0.539339 -1.94355 0
M  V30 6519 C 628.276 1.67858 -1.00415 0
M  V30 6520 O 629.482 2.39922 -1.27081 0
M  V30 6521 C 627.938 1.01082 -3.45414 0
M  V30 6522 C 627.546 -0.0999402 -4.47889 0
M  V30 6523 C 629.29 1.64013 -3.91535 0
M  V30 6524 C 627.197 0.388212 -5.90124 0
M  V30 6525 H 626.127 0.205247 -0.725527 0
M  V30 6526 H 628.778 -0.19836 -1.82425 0
M  V30 6527 H 627.16 1.80292 -3.52577 0
M  V30 6528 H 628.334 -0.876189 -4.52393 0
M  V30 6529 H 626.649 -0.635885 -4.11516 0
M  V30 6530 H 629.246 2.01649 -4.95219 0
M  V30 6531 H 629.589 2.51836 -3.31488 0
M  V30 6532 H 630.122 0.913439 -3.87171 0
M  V30 6533 H 626.861 -0.453963 -6.53926 0
M  V30 6534 H 626.381 1.13095 -5.89041 0
M  V30 6535 H 628.06 0.849574 -6.41398 0
M  V30 6536 N 628.193 1.56834 0.155195 0
M  V30 6537 C 629.47 1.73799 0.897395 0
M  V30 6538 C 629.85 0.684379 1.99698 0
M  V30 6539 O 629.198 -0.298111 2.26547 0
M  V30 6540 C 629.408 3.17572 1.44737 0
M  V30 6541 C 630.756 3.79014 1.91399 0
M  V30 6542 O 631.78 3.20951 1.54496 0
M  V30 6543 O 630.639 4.80998 2.59429 0
M  V30 6544 H 627.733 0.710329 0.423511 0
M  V30 6545 H 630.279 1.69107 0.141761 0
M  V30 6546 H 629.051 3.85749 0.656741 0
M  V30 6547 H 628.674 3.26657 2.26674 0
M  V30 6548 N 629.671 -0.424282 1.51781 0
M  V30 6549 C 630.618 -1.51591 1.74037 0
M  V30 6550 C 631.588 -1.55556 0.582358 0
M  V30 6551 O 632.773 -1.72364 0.818245 0
M  V30 6552 C 629.913 -2.89188 1.8832 0
M  V30 6553 C 629.026 -2.9465 3.1592 0
M  V30 6554 C 628.161 -4.23452 3.20721 0
M  V30 6555 C 627.2 -4.22831 4.42584 0
M  V30 6556 N 626.337 -5.43178 4.44862 0
M  V30 6557 H 631.177 -1.31917 2.67212 0
M  V30 6558 H 628.714 -0.640599 1.32419 0
M  V30 6559 H 630.672 -3.69044 1.94583 0
M  V30 6560 H 629.302 -3.07392 0.985402 0
M  V30 6561 H 628.354 -2.07378 3.18902 0
M  V30 6562 H 629.666 -2.90055 4.05795 0
M  V30 6563 H 628.82 -5.1169 3.25973 0
M  V30 6564 H 627.559 -4.30722 2.28757 0
M  V30 6565 H 626.564 -3.32984 4.37495 0
M  V30 6566 H 627.789 -4.17213 5.35826 0
M  V30 6567 H 625.735 -5.51145 3.55775 0
M  V30 6568 H 625.652 -5.40515 5.28563 0
M  V30 6569 H 626.92 -6.33412 4.54324 0
M  V30 6570 N 631.149 -1.42148 -0.680565 0
M  V30 6571 C 632.112 -1.4488 -1.77602 0
M  V30 6572 C 633.112 -0.337209 -1.57224 0
M  V30 6573 O 634.302 -0.597778 -1.63622 0
M  V30 6574 C 631.434 -1.27483 -3.16166 0
M  V30 6575 H 632.627 -2.42412 -1.76568 0
M  V30 6576 H 630.18 -1.28511 -0.889645 0
M  V30 6577 H 630.915 -0.30851 -3.22829 0
M  V30 6578 H 630.7 -2.08037 -3.3236 0
M  V30 6579 H 632.19 -1.32265 -3.96101 0
M  V30 6580 N 632.627 0.916307 -1.28225 0
M  V30 6581 C 633.574 2.01841 -1.11932 0
M  V30 6582 C 634.544 1.66091 -0.0171604 0
M  V30 6583 O 635.729 1.89934 -0.181617 0
M  V30 6584 C 632.869 3.36065 -0.784504 0
M  V30 6585 C 631.982 3.847 -1.96544 0
M  V30 6586 C 631.117 5.07423 -1.57149 0
M  V30 6587 C 630.156 5.48384 -2.71922 0
M  V30 6588 N 629.293 6.62298 -2.33037 0
M  V30 6589 H 634.133 2.1511 -2.06232 0
M  V30 6590 H 631.67 1.05366 -1.02647 0
M  V30 6591 H 633.628 4.13272 -0.571148 0
M  V30 6592 H 632.258 3.22571 0.121565 0
M  V30 6593 H 631.31 3.03673 -2.291 0
M  V30 6594 H 632.622 4.1102 -2.82603 0
M  V30 6595 H 631.776 5.92165 -1.32004 0
M  V30 6596 H 630.515 4.82906 -0.682153 0
M  V30 6597 H 629.52 4.62184 -2.97768 0
M  V30 6598 H 630.745 5.7489 -3.61494 0
M  V30 6599 H 628.691 6.39416 -1.4657 0
M  V30 6600 H 628.608 6.8833 -3.12631 0
M  V30 6601 H 629.876 7.50352 -2.11169 0
M  V30 6602 N 634.105 1.10431 1.1244 0
M  V30 6603 C 635.345 0.856518 1.85589 0
M  V30 6604 C 635.709 -0.606905 1.82156 0
M  V30 6605 O 636.91 -0.97105 2.50647 0
M  V30 6606 C 635.181 1.38977 3.29272 0
M  V30 6607 S 636.74 1.27739 4.19795 0
M  V30 6608 H 633.558 0.309509 0.640098 0
M  V30 6609 H 636.16 1.40975 1.35449 0
M  V30 6610 H 634.864 2.44887 3.2933 0
M  V30 6611 H 634.395 0.833112 3.84477 0
M  V30 6612 H 636.41 0.235051 4.95643 0
M  V30 6613 N 635.583 -1.29855 0.893053 0
M  V30 6614 C 636.823 -1.97612 0.522399 0
M  V30 6615 C 637.187 -1.68903 -0.913 0
M  V30 6616 O 638.388 -2.30059 -1.39019 0
M  V30 6617 C 636.659 -3.48356 0.79893 0
M  V30 6618 S 638.218 -4.35568 0.531588 0
M  V30 6619 H 635.036 -0.684005 0.194058 0
M  V30 6620 H 637.638 -1.57803 1.15406 0
M  V30 6621 H 636.342 -3.66743 1.84196 0
M  V30 6622 H 635.873 -3.93094 0.155133 0
M  V30 6623 H 637.888 -4.92232 -0.626295 0
M  V30 6624 N 637.061 -0.65484 -1.43351 0
M  V30 6625 C 638.309 -0.168559 -2.01396 0
M  V30 6626 C 638.63 1.22235 -1.51933 0
M  V30 6627 O 637.9 1.81685 -0.732627 0
M  V30 6628 H 636.48 -0.0593244 -0.744641 0
M  V30 6629 H 639.142 -0.846871 -1.75539 0
M  V30 6630 H 638.238 -0.154428 -3.11718 0
M  V30 6631 N 638.539 1.52521 -0.396863 0
M  V30 6632 C 639.486 2.26671 0.434624 0
M  V30 6633 C 640.456 1.28584 1.05144 0
M  V30 6634 O 641.641 1.57426 1.07804 0
M  V30 6635 C 638.781 3.08234 1.55196 0
M  V30 6636 C 637.894 4.21261 0.957262 0
M  V30 6637 C 637.029 4.90205 2.04627 0
M  V30 6638 C 636.068 5.95213 1.42787 0
M  V30 6639 N 635.205 6.57723 2.45651 0
M  V30 6640 H 640.045 2.973 -0.204139 0
M  V30 6641 H 637.582 1.46669 -0.112505 0
M  V30 6642 H 639.54 3.53819 2.2106 0
M  V30 6643 H 638.17 2.398 2.16092 0
M  V30 6644 H 637.222 3.79935 0.188005 0
M  V30 6645 H 638.534 4.96624 0.465416 0
M  V30 6646 H 637.688 5.39133 2.78246 0
M  V30 6647 H 636.427 4.14383 2.57174 0
M  V30 6648 H 635.432 5.45616 0.676968 0
M  V30 6649 H 636.657 6.72972 0.910255 0
M  V30 6650 H 634.603 5.84737 2.97353 0
M  V30 6651 H 634.52 7.28723 2.01243 0
M  V30 6652 H 635.788 7.11293 3.18876 0
M  V30 6653 N 640.017 0.126909 1.57088 0
M  V30 6654 C 640.927 -0.833867 2.1928 0
M  V30 6655 C 641.943 -1.2868 1.17122 0
M  V30 6656 O 643.119 -1.34815 1.49622 0
M  V30 6657 C 640.184 -2.0632 2.78627 0
M  V30 6658 C 639.245 -1.66143 3.95847 0
M  V30 6659 C 638.478 -2.83217 4.52354 0
M  V30 6660 O 638.701 -3.98868 4.0775 0
M  V30 6661 O 637.635 -2.59846 5.42922 0
M  V30 6662 H 641.461 -0.334564 3.01852 0
M  V30 6663 H 639.046 -0.0991091 1.49071 0
M  V30 6664 H 640.928 -2.78304 3.16425 0
M  V30 6665 H 639.603 -2.55242 1.99082 0
M  V30 6666 H 638.51 -0.912435 3.62802 0
M  V30 6667 H 639.843 -1.21957 4.76852 0
M  V30 6668 N 641.495 -1.56914 -0.146875 0
M  V30 6669 C 642.445 -1.94693 -1.18653 0
M  V30 6670 C 643.429 -0.81821 -1.38543 0
M  V30 6671 O 644.621 -1.08167 -1.40103 0
M  V30 6672 C 641.75 -2.33117 -2.52014 0
M  V30 6673 C 640.836 -3.5256 -2.35717 0
M  V30 6674 N 641.227 -4.69091 -1.89175 0
M  V30 6675 C 639.525 -3.57647 -2.66467 0
M  V30 6676 C 640.226 -5.51187 -1.85924 0
M  V30 6677 N 639.202 -4.92899 -2.29242 0
M  V30 6678 H 643.004 -2.82264 -0.81879 0
M  V30 6679 H 640.518 -1.58474 -0.354929 0
M  V30 6680 H 642.515 -2.58387 -3.27172 0
M  V30 6681 H 641.175 -1.46898 -2.89571 0
M  V30 6682 H 642.186 -4.92844 -1.59139 0
M  V30 6683 H 638.863 -2.81967 -3.07898 0
M  V30 6684 H 640.253 -6.54613 -1.51431 0
M  V30 6685 N 642.974 0.416227 -1.52004 0
M  V30 6686 C 643.904 1.51365 -1.77795 0
M  V30 6687 C 644.885 1.58059 -0.628601 0
M  V30 6688 O 646.07 1.73447 -0.873478 0
M  V30 6689 C 643.2 2.89256 -1.92219 0
M  V30 6690 C 642.154 2.97415 -3.0778 0
M  V30 6691 C 641.48 4.37492 -3.07417 0
M  V30 6692 C 642.78 2.69551 -4.47369 0
M  V30 6693 H 644.474 1.30033 -2.69688 0
M  V30 6694 H 642.02 0.624112 -1.29772 0
M  V30 6695 H 643.973 3.66008 -2.08845 0
M  V30 6696 H 642.697 3.11866 -0.969917 0
M  V30 6697 H 641.356 2.23107 -2.90893 0
M  V30 6698 H 641.004 4.571 -2.09925 0
M  V30 6699 H 640.704 4.43877 -3.85029 0
M  V30 6700 H 642.228 5.16188 -3.26162 0
M  V30 6701 H 643.642 3.36028 -4.64497 0
M  V30 6702 H 642.039 2.87321 -5.26846 0
M  V30 6703 H 643.109 1.65029 -4.55953 0
M  V30 6704 N 644.452 1.42507 0.673017 0
M  V30 6705 C 645.701 1.42364 1.42883 0
M  V30 6706 C 646.014 0.0441598 1.9555 0
M  V30 6707 O 647.22 -0.0798679 2.71382 0
M  V30 6708 C 645.676 2.5043 2.58482 0
M  V30 6709 C 645.284 3.94392 2.12506 0
M  V30 6710 C 647.028 2.59455 3.35981 0
M  V30 6711 C 644.935 4.93964 3.25198 0
M  V30 6712 H 643.865 0.52951 0.536782 0
M  V30 6713 H 646.516 1.68422 0.728448 0
M  V30 6714 H 644.898 2.1754 3.30896 0
M  V30 6715 H 646.072 4.36645 1.47233 0
M  V30 6716 H 644.387 3.89233 1.4794 0
M  V30 6717 H 646.984 3.31025 4.19912 0
M  V30 6718 H 647.327 1.63869 3.82691 0
M  V30 6719 H 647.86 2.91549 2.70637 0
M  V30 6720 H 644.599 5.91034 2.83477 0
M  V30 6721 H 644.119 4.56341 3.89247 0
M  V30 6722 H 645.798 5.15763 3.90637 0
M  V30 6723 N 645.93 -0.909495 1.28709 0
M  V30 6724 C 646.84 -2.04558 1.14861 0
M  V30 6725 C 647.856 -1.73842 0.0741621 0
M  V30 6726 O 649.032 -1.99383 0.2843 0
M  V30 6727 C 646.097 -3.36957 0.816148 0
M  V30 6728 C 645.158 -3.81255 1.97341 0
M  V30 6729 C 644.391 -5.07335 1.65671 0
M  V30 6730 O 644.614 -5.67514 0.573053 0
M  V30 6731 O 643.548 -5.47449 2.50167 0
M  V30 6732 H 647.374 -2.19161 2.10243 0
M  V30 6733 H 644.959 -1.03159 1.08068 0
M  V30 6734 H 646.841 -4.16436 0.644873 0
M  V30 6735 H 645.516 -3.2352 -0.107983 0
M  V30 6736 H 644.423 -3.02584 2.19986 0
M  V30 6737 H 645.756 -3.99261 2.87839 0
M  V30 6738 N 647.408 -1.11026 -1.11852 0
M  V30 6739 C 648.356 -0.759643 -2.19846 0
M  V30 6740 C 649.35 0.246964 -1.6759 0
M  V30 6741 O 650.556 0.106693 -1.79684 0
M  V30 6742 H 646.931 -0.22775 -0.716683 0
M  V30 6743 H 648.902 -1.6792 -2.46669 0
M  V30 6744 C 647.651 -0.214364 -3.47039 0
M  V30 6745 H 646.974 -0.980175 -3.87599 0
M  V30 6746 H 648.414 -0.00717047 -4.23999 0
M  V30 6747 C 646.873 1.05436 -3.19976 0
M  V30 6748 O 647.403 2.13483 -3.40276 0
M  V30 6749 N 645.609 0.975436 -2.7374 0
M  V30 6750 H 645.156 0.0960853 -2.57421 0
M  V30 6751 H 645.114 1.82501 -2.5601 0
M  V30 6752 N 648.886 1.2938 -0.899927 0
M  V30 6753 C 649.796 2.31462 -0.382437 0
M  V30 6754 C 650.812 1.65956 0.522929 0
M  V30 6755 O 651.988 1.97131 0.412454 0
M  V30 6756 C 649.053 3.44595 0.381472 0
M  V30 6757 C 648.114 4.25692 -0.555444 0
M  V30 6758 C 647.347 5.33422 0.172102 0
M  V30 6759 O 647.57 5.53053 1.396 0
M  V30 6760 O 646.504 5.99939 -0.485491 0
M  V30 6761 H 650.33 2.77706 -1.22934 0
M  V30 6762 H 647.915 1.33821 -0.664259 0
M  V30 6763 H 649.797 4.13474 0.813442 0
M  V30 6764 H 648.472 3.00458 1.20443 0
M  V30 6765 H 647.379 3.59453 -1.03653 0
M  V30 6766 H 648.712 4.73471 -1.34483 0
M  V30 6767 N 650.364 0.662433 1.43002 0
M  V30 6768 C 651.61 0.179857 2.02001 0
M  V30 6769 C 651.943 -1.20625 1.52195 0
M  V30 6770 O 651.218 -1.80726 0.718911 0
M  V30 6771 C 651.501 0.200845 3.59539 0
M  V30 6772 C 651.354 1.62153 4.19555 0
M  V30 6773 C 652.673 -0.457738 4.37713 0
M  V30 6774 H 649.792 0.0668305 0.733964 0
M  V30 6775 H 652.434 0.84487 1.70182 0
M  V30 6776 H 650.584 -0.365411 3.86778 0
M  V30 6777 H 652.256 2.23908 4.03315 0
M  V30 6778 H 650.499 2.16601 3.75854 0
M  V30 6779 H 651.17 1.58799 5.28665 0
M  V30 6780 H 653.646 0.0241495 4.16093 0
M  V30 6781 H 652.522 -0.412363 5.47349 0
M  V30 6782 H 652.783 -1.53336 4.14657 0
M  V30 6783 N 651.842 -1.52309 0.404946 0
M  V30 6784 C 653.067 -2.06666 -0.1743 0
M  V30 6785 C 653.492 -1.27341 -1.38441 0
M  V30 6786 O 652.85 -0.302539 -1.78758 0
M  V30 6787 C 652.898 -3.57014 -0.507262 0
M  V30 6788 O 652.002 -3.80144 -1.59889 0
M  V30 6789 H 651.343 -0.663807 -0.0160273 0
M  V30 6790 H 653.873 -1.96297 0.576937 0
M  V30 6791 H 653.883 -4.00724 -0.767098 0
M  V30 6792 H 652.558 -4.14184 0.377368 0
M  V30 6793 H 651.135 -3.48316 -1.33155 0
M  V30 6794 N 653.32 -0.135238 -1.57019 0
M  V30 6795 C 654.569 0.518694 -1.94917 0
M  V30 6796 C 654.882 1.66783 -1.0219 0
M  V30 6797 O 656.088 2.38561 -1.29619 0
M  V30 6798 C 654.544 0.974123 -3.46466 0
M  V30 6799 C 654.152 -0.147439 -4.47757 0
M  V30 6800 C 655.896 1.59851 -3.93253 0
M  V30 6801 C 653.803 0.325599 -5.90503 0
M  V30 6802 H 652.733 0.19754 -0.727663 0
M  V30 6803 H 655.384 -0.217698 -1.82204 0
M  V30 6804 H 653.766 1.76542 -3.5447 0
M  V30 6805 H 654.94 -0.924122 -4.51438 0
M  V30 6806 H 653.255 -0.679496 -4.10818 0
M  V30 6807 H 655.852 1.96385 -4.9733 0
M  V30 6808 H 656.195 2.48306 -3.3414 0
M  V30 6809 H 656.728 0.872323 -3.88118 0
M  V30 6810 H 653.467 -0.523295 -6.53408 0
M  V30 6811 H 652.987 1.06841 -5.90208 0
M  V30 6812 H 654.666 0.781498 -6.42263 0
M  V30 6813 N 654.798 1.5699 0.138552 0
M  V30 6814 C 655.728 2.01933 1.17241 0
M  V30 6815 C 656.709 0.90033 1.44319 0
M  V30 6816 O 657.894 1.16872 1.55095 0
M  V30 6817 C 655.024 2.40711 2.50351 0
M  V30 6818 C 653.978 3.55874 2.37776 0
M  V30 6819 C 653.304 3.80491 3.75674 0
M  V30 6820 C 654.604 4.8826 1.85472 0
M  V30 6821 H 656.298 2.88551 0.798672 0
M  V30 6822 H 653.844 1.3882 0.382743 0
M  V30 6823 H 655.797 2.70754 3.22909 0
M  V30 6824 H 654.521 1.5104 2.89576 0
M  V30 6825 H 653.18 3.2601 1.67669 0
M  V30 6826 H 652.828 2.88057 4.12349 0
M  V30 6827 H 652.528 4.57998 3.68119 0
M  V30 6828 H 654.052 4.12967 4.49767 0
M  V30 6829 H 655.466 5.16965 2.4783 0
M  V30 6830 H 653.863 5.69631 1.88787 0
M  V30 6831 H 654.933 4.78071 0.810935 0
M  V30 6832 N 656.276 -0.40816 1.52223 0
M  V30 6833 C 657.692 -0.74685 1.41047 0
M  V30 6834 C 657.892 -1.94788 0.51573 0
M  V30 6835 O 656.948 -2.52494 -0.0181156 0
M  V30 6836 C 658.261 -0.999878 2.83589 0
M  V30 6837 C 659.809 -1.10253 2.92939 0
M  V30 6838 C 660.284 -1.38832 4.36451 0
M  V30 6839 N 661.775 -1.45694 4.3969 0
M  V30 6840 C 662.51 -1.69435 5.47795 0
M  V30 6841 N 662.006 -1.90774 6.66016 0
M  V30 6842 N 663.799 -1.71458 5.35312 0
M  V30 6843 H 655.95 0.382409 2.08929 0
M  V30 6844 H 658.213 0.108807 0.941735 0
M  V30 6845 H 657.919 -0.189723 3.51188 0
M  V30 6846 H 657.793 -1.91978 3.24691 0
M  V30 6847 H 660.18 -1.90328 2.2552 0
M  V30 6848 H 660.261 -0.160973 2.55293 0
M  V30 6849 H 659.905 -0.592741 5.04429 0
M  V30 6850 H 659.835 -2.34241 4.71634 0
M  V30 6851 H 662.326 -1.3099 3.54472 0
M  V30 6852 H 662.639 -2.08342 7.44186 0
M  V30 6853 H 660.984 -1.88037 6.69079 0
M  V30 6854 H 664.175 -1.54326 4.41929 0
M  V30 6855 H 664.348 -1.89621 6.19635 0
M  V30 6856 N 657.755 -1.42862 -0.66545 0
M  V30 6857 C 659.171 -1.25993 -0.979687 0
M  V30 6858 C 659.371 -0.170831 -2.00775 0
M  V30 6859 O 658.427 0.454827 -2.4837 0
M  V30 6860 C 659.74 -2.62005 -1.47559 0
M  V30 6861 C 661.288 -2.69437 -1.59288 0
M  V30 6862 C 661.763 -4.05838 -2.12272 0
M  V30 6863 N 663.254 -4.0784 -2.19592 0
M  V30 6864 C 663.989 -5.10205 -2.61684 0
M  V30 6865 N 663.485 -6.22949 -3.03161 0
M  V30 6866 N 665.278 -4.9756 -2.61516 0
M  V30 6867 H 657.429 -2.12395 0.0150493 0
M  V30 6868 H 659.692 -0.946355 -0.0558187 0
M  V30 6869 H 659.398 -3.42605 -0.794654 0
M  V30 6870 H 659.272 -2.86566 -2.45275 0
M  V30 6871 H 661.659 -1.89178 -2.26486 0
M  V30 6872 H 661.74 -2.48655 -0.600374 0
M  V30 6873 H 661.384 -4.86559 -1.4568 0
M  V30 6874 H 661.314 -4.23977 -3.12331 0
M  V30 6875 H 663.805 -3.26452 -1.90361 0
M  V30 6876 H 664.118 -6.96899 -3.33993 0
M  V30 6877 H 662.463 -6.2644 -3.00995 0
M  V30 6878 H 665.654 -4.08551 -2.28481 0
M  V30 6879 H 665.827 -5.77468 -2.93999 0
M  V30 6880 N 659.233 0.902656 -1.29189 0
M  V30 6881 C 660.479 1.65532 -1.17163 0
M  V30 6882 C 660.812 1.92216 0.276879 0
M  V30 6883 O 660.087 1.53048 1.20027 0
M  V30 6884 C 660.37 3.00629 -1.98228 0
M  V30 6885 C 660.223 2.81029 -3.51202 0
M  V30 6886 C 661.542 4.01321 -1.80635 0
M  V30 6887 H 658.661 0.60071 -0.426985 0
M  V30 6888 H 661.303 1.04578 -1.5863 0
M  V30 6889 H 659.453 3.52656 -1.62991 0
M  V30 6890 H 661.125 2.35927 -3.96404 0
M  V30 6891 H 659.368 2.1587 -3.76275 0
M  V30 6892 H 660.039 3.77014 -4.03192 0
M  V30 6893 H 662.515 3.58394 -2.11406 0
M  V30 6894 H 661.391 4.93792 -2.3971 0
M  V30 6895 H 661.652 4.35505 -0.760754 0
M  V30 6896 N 660.711 1.11618 1.11262 0
M  V30 6897 C 661.658 0.7762 2.17356 0
M  V30 6898 C 662.628 -0.253152 1.6416 0
M  V30 6899 O 663.813 -0.129655 1.90359 0
M  V30 6900 C 660.953 0.227581 3.44349 0
M  V30 6901 C 660.066 1.31372 4.1154 0
M  V30 6902 C 659.201 0.72544 5.26223 0
M  V30 6903 C 658.24 1.7913 5.85302 0
M  V30 6904 N 657.377 1.22237 6.91377 0
M  V30 6905 H 662.217 1.68508 2.45783 0
M  V30 6906 H 659.754 0.841475 1.20655 0
M  V30 6907 H 661.712 -0.108483 4.17059 0
M  V30 6908 H 660.342 -0.644486 3.16301 0
M  V30 6909 H 659.394 1.7667 3.36885 0
M  V30 6910 H 660.706 2.12005 4.51504 0
M  V30 6911 H 659.86 0.339541 6.05749 0
M  V30 6912 H 658.599 -0.112188 4.87571 0
M  V30 6913 H 657.604 2.18648 5.04453 0
M  V30 6914 H 658.829 2.63199 6.26022 0
M  V30 6915 H 656.775 0.406423 6.5474 0
M  V30 6916 H 656.692 1.9654 7.30006 0
M  V30 6917 H 657.96 0.863426 7.74703 0
M  V30 6918 N 662.189 -1.289 0.906776 0
M  V30 6919 C 663.139 -2.25122 0.361109 0
M  V30 6920 C 664.123 -1.52169 -0.52283 0
M  V30 6921 O 665.315 -1.73223 -0.363691 0
M  V30 6922 C 662.444 -3.40915 -0.403982 0
M  V30 6923 C 661.53 -4.21198 0.495279 0
M  V30 6924 N 661.921 -4.79636 1.60572 0
M  V30 6925 C 660.219 -4.45027 0.294372 0
M  V30 6926 C 660.92 -5.39977 2.16332 0
M  V30 6927 N 659.896 -5.23753 1.45546 0
M  V30 6928 H 663.698 -2.67869 1.20927 0
M  V30 6929 H 661.212 -1.43592 0.758632 0
M  V30 6930 H 663.209 -4.08922 -0.811695 0
M  V30 6931 H 661.869 -2.99703 -1.24932 0
M  V30 6932 H 662.88 -4.78209 1.98838 0
M  V30 6933 H 659.557 -4.14348 -0.512021 0
M  V30 6934 H 660.947 -5.96266 3.09704 0
M  V30 6935 N 663.667 -0.670007 -1.42649 0
M  V30 6936 C 665.078 -0.268118 -1.84765 0
M  V30 6937 C 665.429 1.18877 -1.56086 0
M  V30 6938 O 664.554 1.90947 -1.01825 0
M  V30 6939 C 665.149 -0.47984 -3.35385 0
M  V30 6940 C 663.708 -0.132116 -3.76168 0
M  V30 6941 C 662.855 -0.774611 -2.66261 0
M  V30 6942 H 665.806 -0.872509 -1.32563 0
M  V30 6943 H 665.827 0.269522 -3.79544 0
M  V30 6944 H 665.339 -1.54026 -3.56227 0
M  V30 6945 H 663.44 0.92505 -3.60934 0
M  V30 6946 H 663.553 -0.569294 -4.75706 0
M  V30 6947 H 661.917 -0.206353 -2.53863 0
M  V30 6948 H 662.7 -1.83839 -2.89928 0
M  V30 6949 N 665.145 1.52092 -0.413018 0
M  V30 6950 C 666.093 2.28681 0.425199 0
M  V30 6951 C 667.087 1.3353 1.04241 0
M  V30 6952 O 668.293 1.50973 0.980166 0
M  V30 6953 H 664.668 0.735661 0.155906 0
M  V30 6954 H 666.639 2.97418 -0.241926 0
M  V30 6955 C 665.388 3.1235 1.5275 0
M  V30 6956 H 664.711 3.85439 1.06191 0
M  V30 6957 H 666.151 3.69038 2.08774 0
M  V30 6958 C 664.61 2.26161 2.49706 0
M  V30 6959 O 665.14 1.90452 3.53682 0
M  V30 6960 N 663.346 1.89854 2.20008 0
M  V30 6961 H 662.893 2.19092 1.35486 0
M  V30 6962 H 662.851 1.3248 2.85125 0
M  V30 6963 N 666.623 0.143563 1.56945 0
M  V30 6964 C 667.872 -0.50835 1.95189 0
M  V30 6965 C 668.185 -1.66239 1.03073 0
M  V30 6966 O 669.391 -2.3787 1.30882 0
M  V30 6967 C 667.847 -0.955735 3.46978 0
M  V30 6968 C 667.455 0.171183 4.47673 0
M  V30 6969 C 669.199 -1.57763 3.94095 0
M  V30 6970 C 667.106 -0.294279 5.90667 0
M  V30 6971 H 666.036 -0.193679 0.728701 0
M  V30 6972 H 668.687 0.227357 1.82086 0
M  V30 6973 H 667.069 -1.7466 3.55401 0
M  V30 6974 H 668.243 0.948049 4.50942 0
M  V30 6975 H 666.558 0.701273 4.10452 0
M  V30 6976 H 669.155 -1.93745 4.98364 0
M  V30 6977 H 669.498 -2.46531 3.35452 0
M  V30 6978 H 670.031 -0.851728 3.88575 0
M  V30 6979 H 666.77 0.557939 6.53121 0
M  V30 6980 H 666.29 -1.0371 5.90766 0
M  V30 6981 H 667.969 -0.747426 6.42668 0
M  V30 6982 N 668.101 -1.57061 -0.130224 0
M  V30 6983 C 669.35 -1.83446 -0.838488 0
M  V30 6984 C 669.663 -0.727468 -1.81569 0
M  V30 6985 O 670.869 -0.877394 -2.56932 0
M  V30 6986 C 669.325 -3.25201 -1.54182 0
M  V30 6987 C 668.933 -4.4388 -0.606178 0
M  V30 6988 C 670.677 -3.60844 -2.23588 0
M  V30 6989 C 668.584 -5.76661 -1.31209 0
M  V30 6990 H 667.514 -0.684185 -0.316871 0
M  V30 6991 H 670.165 -1.83273 -0.0912059 0
M  V30 6992 H 668.547 -3.1981 -2.33533 0
M  V30 6993 H 669.721 -4.60545 0.153308 0
M  V30 6994 H 668.036 -4.16395 -0.0196705 0
M  V30 6995 H 670.633 -4.57313 -2.77072 0
M  V30 6996 H 670.976 -2.87724 -3.00867 0
M  V30 6997 H 671.509 -3.67971 -1.51137 0
M  V30 6998 H 668.248 -6.52922 -0.580823 0
M  V30 6999 H 667.768 -5.63902 -2.04387 0
M  V30 7000 H 669.447 -6.20035 -1.8484 0
M  V30 7001 N 669.579 0.400081 -1.52437 0
M  V30 7002 C 670.512 1.50929 -1.7116 0
M  V30 7003 C 671.49 1.52679 -0.559275 0
M  V30 7004 O 672.674 1.71251 -0.787735 0
M  V30 7005 C 669.801 2.89433 -1.75915 0
M  V30 7006 C 668.847 3.05556 -2.97553 0
M  V30 7007 S 669.68 2.77919 -4.57735 0
M  V30 7008 C 670.836 4.18636 -4.6529 0
M  V30 7009 H 671.069 1.3482 -2.64973 0
M  V30 7010 H 668.602 0.592245 -1.4259 0
M  V30 7011 H 670.56 3.69253 -1.7934 0
M  V30 7012 H 669.221 3.02877 -0.832137 0
M  V30 7013 H 668.414 4.0691 -2.97388 0
M  V30 7014 H 668.016 2.33615 -2.92062 0
M  V30 7015 H 670.308 5.12406 -4.43223 0
M  V30 7016 H 671.251 4.23821 -5.67258 0
M  V30 7017 H 671.659 4.04029 -3.94234 0
M  V30 7018 N 671.057 1.43213 0.657864 0
M  V30 7019 C 671.987 1.50815 1.78262 0
M  V30 7020 C 672.968 0.363211 1.66177 0
M  V30 7021 O 674.153 0.579806 1.85343 0
M  V30 7022 C 671.283 1.42625 3.16663 0
M  V30 7023 C 670.237 2.5532 3.43505 0
M  V30 7024 C 669.563 2.32184 4.81658 0
M  V30 7025 C 670.863 3.97583 3.38711 0
M  V30 7026 H 672.557 2.44954 1.72157 0
M  V30 7027 H 670.103 1.17896 0.82683 0
M  V30 7028 H 672.056 1.46548 3.95097 0
M  V30 7029 H 670.78 0.449877 3.23487 0
M  V30 7030 H 669.439 2.50742 2.6744 0
M  V30 7031 H 669.087 1.32801 4.85153 0
M  V30 7032 H 668.787 3.07724 5.00579 0
M  V30 7033 H 670.311 2.37883 5.62356 0
M  V30 7034 H 671.725 4.03673 4.07089 0
M  V30 7035 H 670.122 4.73112 3.69168 0
M  V30 7036 H 671.192 4.23049 2.36976 0
M  V30 7037 N 672.536 -0.895792 1.29666 0
M  V30 7038 C 673.782 -1.64908 1.18039 0
M  V30 7039 C 674.115 -1.9236 -0.266682 0
M  V30 7040 O 673.39 -1.53682 -1.19214 0
M  V30 7041 C 673.673 -2.99574 1.99819 0
M  V30 7042 C 673.526 -2.79163 3.52687 0
M  V30 7043 C 674.845 -4.00358 1.82761 0
M  V30 7044 H 671.964 -0.598437 0.430165 0
M  V30 7045 H 674.606 -1.03736 1.59182 0
M  V30 7046 H 672.756 -3.51786 1.64859 0
M  V30 7047 H 674.428 -2.33821 3.9765 0
M  V30 7048 H 672.671 -2.13871 3.77414 0
M  V30 7049 H 673.342 -3.74871 4.05186 0
M  V30 7050 H 675.818 -3.57268 2.13304 0
M  V30 7051 H 674.694 -4.92514 2.42325 0
M  V30 7052 H 674.955 -4.35096 0.783839 0
M  V30 7053 N 674.014 -1.12206 -1.10668 0
M  V30 7054 C 674.924 -0.800686 -2.20513 0
M  V30 7055 C 675.94 0.209512 -1.72734 0
M  V30 7056 O 677.116 0.043705 -2.01353 0
M  V30 7057 C 674.181 -0.257353 -3.45744 0
M  V30 7058 C 673.242 -1.32718 -4.0827 0
M  V30 7059 C 672.475 -0.809674 -5.27522 0
M  V30 7060 O 672.698 0.35742 -5.69279 0
M  V30 7061 O 671.632 -1.57816 -5.80842 0
M  V30 7062 H 675.458 -1.71807 -2.50432 0
M  V30 7063 H 673.043 -0.898546 -1.19359 0
M  V30 7064 H 674.925 0.0408849 -4.2138 0
M  V30 7065 H 673.6 0.632627 -3.17458 0
M  V30 7066 H 672.507 -1.67855 -3.34329 0
M  V30 7067 H 673.84 -2.19083 -4.40753 0
M  V30 7068 N 675.492 1.28418 -0.913599 0
M  V30 7069 C 676.402 2.31043 -0.406965 0
M  V30 7070 C 677.418 1.66501 0.505298 0
M  V30 7071 O 678.594 1.97558 0.391522 0
M  V30 7072 C 675.659 3.4498 0.344901 0
M  V30 7073 C 674.72 4.25078 -0.600563 0
M  V30 7074 C 673.953 5.33575 0.115516 0
M  V30 7075 O 674.176 5.54503 1.33727 0
M  V30 7076 O 673.11 5.9939 -0.549095 0
M  V30 7077 H 676.936 2.76387 -1.25873 0
M  V30 7078 H 674.521 1.33109 -0.678415 0
M  V30 7079 H 676.403 4.14314 0.769542 0
M  V30 7080 H 675.078 3.01719 1.1725 0
M  V30 7081 H 673.985 3.58334 -1.0746 0
M  V30 7082 H 675.318 4.72018 -1.39497 0
M  V30 7083 N 676.97 0.677563 1.42291 0
M  V30 7084 C 677.903 -0.0492638 2.28147 0
M  V30 7085 C 678.881 -0.805936 1.41221 0
M  V30 7086 O 680.065 -0.80049 1.70659 0
M  V30 7087 C 677.192 -1.07697 3.21122 0
M  V30 7088 C 676.238 -0.41556 4.24471 0
M  V30 7089 S 677.071 0.828876 5.29046 0
M  V30 7090 C 678.227 -0.197687 6.25588 0
M  V30 7091 H 678.46 0.678965 2.89443 0
M  V30 7092 H 675.993 0.467201 1.47162 0
M  V30 7093 H 677.951 -1.66482 3.75225 0
M  V30 7094 H 676.612 -1.77766 2.58956 0
M  V30 7095 H 675.805 -1.19112 4.89723 0
M  V30 7096 H 675.407 0.0987632 3.7387 0
M  V30 7097 H 677.699 -1.05656 6.69211 0
M  V30 7098 H 678.642 0.420437 7.06851 0
M  V30 7099 H 679.05 -0.544401 5.61869 0
M  V30 7100 N 678.448 -1.51871 0.421078 0
M  V30 7101 C 679.358 -2.31077 -0.405069 0
M  V30 7102 C 680.374 -1.39301 -1.04265 0
M  V30 7103 O 681.55 -1.72376 -1.04157 0
M  V30 7104 C 678.615 -3.12556 -1.50032 0
M  V30 7105 C 677.676 -4.20088 -0.884559 0
M  V30 7106 C 676.909 -4.97673 -1.92762 0
M  V30 7107 O 677.132 -4.75696 -3.14753 0
M  V30 7108 O 676.066 -5.82203 -1.52719 0
M  V30 7109 H 679.892 -3.02742 0.241086 0
M  V30 7110 H 677.477 -1.48263 0.183991 0
M  V30 7111 H 679.359 -3.6326 -2.13589 0
M  V30 7112 H 678.034 -2.43672 -2.13086 0
M  V30 7113 H 676.941 -3.73502 -0.211379 0
M  V30 7114 H 678.274 -4.91298 -0.297763 0
M  V30 7115 N 679.926 -0.151884 -1.56866 0
M  V30 7116 C 681.154 0.504813 -2.00647 0
M  V30 7117 C 681.569 1.58098 -1.03201 0
M  V30 7118 O 680.926 1.82476 -0.0297814 0
M  V30 7119 C 680.977 1.10099 -3.44326 0
M  V30 7120 O 680.698 0.0678021 -4.38048 0
M  V30 7121 C 682.199 1.83782 -4.03409 0
M  V30 7122 H 679.419 0.130989 -0.65809 0
M  V30 7123 H 681.963 -0.247903 -2.02992 0
M  V30 7124 H 680.118 1.8043 -3.42817 0
M  V30 7125 H 680.532 0.505237 -5.22061 0
M  V30 7126 H 682.006 2.2078 -5.05925 0
M  V30 7127 H 682.483 2.72557 -3.44397 0
M  V30 7128 H 683.089 1.18138 -4.08563 0
M  V30 7129 N 681.404 1.57128 0.121893 0
M  V30 7130 C 682.367 1.99197 1.13372 0
M  V30 7131 C 683.367 0.881728 1.3447 0
M  V30 7132 O 684.557 1.14783 1.31036 0
M  V30 7133 C 681.689 2.32963 2.4888 0
M  V30 7134 H 682.882 2.89788 0.772204 0
M  V30 7135 H 680.435 1.51952 0.366093 0
M  V30 7136 H 681.17 1.45243 2.89957 0
M  V30 7137 H 680.955 3.13934 2.34921 0
M  V30 7138 H 682.445 2.66261 3.21706 0
M  V30 7139 N 682.882 -0.391992 1.52647 0
M  V30 7140 C 684.11 -1.1586 1.71418 0
M  V30 7141 C 684.525 -1.8381 0.431216 0
M  V30 7142 O 683.882 -1.7256 -0.594085 0
M  V30 7143 C 683.933 -2.20888 2.86165 0
M  V30 7144 O 683.654 -1.5571 4.09495 0
M  V30 7145 C 685.155 -3.103 3.1659 0
M  V30 7146 H 682.375 -0.347494 0.574011 0
M  V30 7147 H 684.919 -0.458972 1.99283 0
M  V30 7148 H 683.074 -2.86492 2.6077 0
M  V30 7149 H 683.488 -2.25474 4.73563 0
M  V30 7150 H 684.962 -3.8003 4.00351 0
M  V30 7151 H 685.439 -3.73639 2.30848 0
M  V30 7152 H 686.045 -2.50345 3.43813 0
M  V30 7153 N 684.36 -1.4356 -0.65026 0
M  V30 7154 C 685.27 -1.514 -1.79207 0
M  V30 7155 C 686.286 -0.400895 -1.69319 0
M  V30 7156 O 687.462 -0.655458 -1.90436 0
M  V30 7157 C 684.527 -1.43737 -3.155 0
M  V30 7158 C 683.588 -2.65743 -3.37163 0
M  V30 7159 C 682.821 -2.58436 -4.66954 0
M  V30 7160 O 683.044 -1.63374 -5.46503 0
M  V30 7161 O 681.978 -3.48984 -4.90402 0
M  V30 7162 H 685.804 -2.47825 -1.75547 0
M  V30 7163 H 683.389 -1.25594 -0.809111 0
M  V30 7164 H 685.271 -1.41916 -3.96784 0
M  V30 7165 H 683.946 -0.504488 -3.19745 0
M  V30 7166 H 682.853 -2.73136 -2.55632 0
M  V30 7167 H 684.186 -3.58014 -3.37768 0
M  V30 7168 N 685.838 0.888903 -1.30139 0
M  V30 7169 C 686.768 2.01046 -1.18755 0
M  V30 7170 C 687.749 1.69916 -0.0791438 0
M  V30 7171 O 688.934 1.92445 -0.260498 0
M  V30 7172 C 686.064 3.36109 -0.874518 0
M  V30 7173 C 685.018 3.81486 -1.94043 0
M  V30 7174 C 684.344 5.13796 -1.48047 0
M  V30 7175 C 685.644 4.00637 -3.35093 0
M  V30 7176 H 687.338 2.10828 -2.12584 0
M  V30 7177 H 684.884 1.01298 -1.02346 0
M  V30 7178 H 686.837 4.14089 -0.781548 0
M  V30 7179 H 685.561 3.26449 0.0994519 0
M  V30 7180 H 684.22 3.05731 -2.02297 0
M  V30 7181 H 683.868 5.0056 -0.494878 0
M  V30 7182 H 683.568 5.45127 -2.19341 0
M  V30 7183 H 685.092 5.94305 -1.40121 0
M  V30 7184 H 686.506 4.69067 -3.2962 0
M  V30 7185 H 684.903 4.43339 -4.04438 0
M  V30 7186 H 685.973 3.0462 -3.77273 0
M  V30 7187 N 687.317 1.12792 1.10072 0
M  V30 7188 C 688.564 0.885545 1.82111 0
M  V30 7189 C 688.892 -0.588519 1.85383 0
M  V30 7190 O 688.147 -1.45124 1.31292 0
M  V30 7191 C 688.446 1.4102 3.28403 0
M  V30 7192 C 688.112 2.89995 3.45273 0
M  V30 7193 C 686.774 3.30671 3.49585 0
M  V30 7194 C 689.126 3.85874 3.50358 0
M  V30 7195 C 686.454 4.65925 3.56553 0
M  V30 7196 C 688.806 5.20963 3.58859 0
M  V30 7197 C 687.47 5.61177 3.61437 0
M  V30 7198 H 686.74 0.324044 0.666391 0
M  V30 7199 H 689.387 1.40874 1.29718 0
M  V30 7200 H 687.692 0.807551 3.83387 0
M  V30 7201 H 689.389 1.19882 3.82661 0
M  V30 7202 H 685.979 2.57537 3.42597 0
M  V30 7203 H 690.163 3.5554 3.46273 0
M  V30 7204 H 685.419 4.96468 3.56833 0
M  V30 7205 H 689.593 5.95079 3.61738 0
M  V30 7206 H 687.22 6.6597 3.66589 0
M  V30 7207 N 688.795 -1.27931 0.920396 0
M  V30 7208 C 689.725 -2.29487 0.431024 0
M  V30 7209 C 690.706 -1.62435 -0.504861 0
M  V30 7210 O 691.891 -1.89797 -0.411176 0
M  V30 7211 C 689.021 -3.45788 -0.323709 0
M  V30 7212 C 687.975 -4.24784 0.523658 0
M  V30 7213 C 687.301 -5.33488 -0.359809 0
M  V30 7214 C 688.601 -4.90874 1.78437 0
M  V30 7215 H 690.295 -2.70671 1.27975 0
M  V30 7216 H 687.841 -1.30121 0.616813 0
M  V30 7217 H 689.794 -4.15927 -0.676952 0
M  V30 7218 H 688.518 -3.03502 -1.2064 0
M  V30 7219 H 687.177 -3.56382 0.85951 0
M  V30 7220 H 686.825 -4.87445 -1.24124 0
M  V30 7221 H 686.525 -5.87247 0.203605 0
M  V30 7222 H 688.049 -6.06472 -0.708787 0
M  V30 7223 H 689.463 -5.53339 1.49963 0
M  V30 7224 H 687.86 -5.54659 2.29071 0
M  V30 7225 H 688.93 -4.14988 2.50824 0
M  V30 7226 N 690.273 -0.685099 -1.4193 0
M  V30 7227 C 691.519 -0.211971 -2.01689 0
M  V30 7228 C 691.852 1.18189 -1.54094 0
M  V30 7229 O 691.127 1.79559 -0.747572 0
M  V30 7230 C 691.41 -0.258019 -3.59174 0
M  V30 7231 C 691.263 -1.68807 -4.16922 0
M  V30 7232 C 692.582 0.388044 -4.38386 0
M  V30 7233 H 689.701 -0.0784987 -0.732808 0
M  V30 7234 H 692.343 -0.871837 -1.68816 0
M  V30 7235 H 690.493 0.303832 -3.8731 0
M  V30 7236 H 692.165 -2.30296 -3.99702 0
M  V30 7237 H 690.408 -2.22553 -3.72361 0
M  V30 7238 H 691.079 -1.6719 -5.26072 0
M  V30 7239 H 693.555 -0.0903432 -4.16002 0
M  V30 7240 H 692.431 0.325232 -5.47936 0
M  V30 7241 H 692.692 1.4672 -4.17044 0
M  V30 7242 N 691.751 1.51645 -0.429126 0
M  V30 7243 C 692.684 2.24083 0.431492 0
M  V30 7244 C 693.662 1.25691 1.03153 0
M  V30 7245 O 694.846 1.54802 1.07557 0
M  V30 7246 C 691.973 2.9849 1.60067 0
M  V30 7247 C 691.019 4.11474 1.12211 0
M  V30 7248 S 691.852 5.35453 0.0708449 0
M  V30 7249 C 693.008 6.13395 1.24488 0
M  V30 7250 H 693.241 2.96733 -0.183525 0
M  V30 7251 H 690.774 1.52916 -0.213574 0
M  V30 7252 H 692.732 3.4196 2.27099 0
M  V30 7253 H 691.393 2.25445 2.18708 0
M  V30 7254 H 690.586 4.62784 1.99618 0
M  V30 7255 H 690.188 3.70223 0.530149 0
M  V30 7256 H 692.48 6.41984 2.16479 0
M  V30 7257 H 693.423 7.0388 0.771921 0
M  V30 7258 H 693.831 5.44761 1.47973 0
M  V30 7259 N 693.229 0.160201 1.56784 0
M  V30 7260 C 694.139 -0.787167 2.21 0
M  V30 7261 C 695.155 -1.26167 1.19825 0
M  V30 7262 O 696.331 -1.31611 1.52448 0
M  V30 7263 C 693.396 -2.00364 2.8294 0
M  V30 7264 C 692.457 -1.5771 3.99282 0
M  V30 7265 C 691.69 -2.73558 4.58259 0
M  V30 7266 O 691.913 -3.90129 4.16119 0
M  V30 7267 O 690.847 -2.48271 5.48311 0
M  V30 7268 H 694.673 -0.270462 3.02493 0
M  V30 7269 H 692.258 -0.0674666 1.49248 0
M  V30 7270 H 694.14 -2.71529 3.22257 0
M  V30 7271 H 692.815 -2.50961 2.04451 0
M  V30 7272 H 691.722 -0.835274 3.64656 0
M  V30 7273 H 693.055 -1.11815 4.79331 0
M  V30 7274 N 694.707 -1.5719 -0.113559 0
M  V30 7275 C 695.637 -2.03772 -1.14013 0
M  V30 7276 C 696.618 -0.923176 -1.42869 0
M  V30 7277 O 697.803 -1.19325 -1.53216 0
M  V30 7278 C 694.933 -2.44663 -2.4649 0
M  V30 7279 C 693.887 -3.59612 -2.32085 0
M  V30 7280 C 693.213 -3.8642 -3.69573 0
M  V30 7281 C 694.513 -4.91149 -1.7768 0
M  V30 7282 H 696.207 -2.89785 -0.752665 0
M  V30 7283 H 693.753 -1.39412 -0.360609 0
M  V30 7284 H 695.706 -2.75857 -3.18561 0
M  V30 7285 H 694.43 -1.55628 -2.87137 0
M  V30 7286 H 693.089 -3.28636 -1.62461 0
M  V30 7287 H 692.737 -2.94581 -4.07715 0
M  V30 7288 H 692.437 -4.63797 -3.60786 0
M  V30 7289 H 693.961 -4.2007 -4.4314 0
M  V30 7290 H 695.375 -5.20843 -2.39574 0
M  V30 7291 H 693.772 -5.72562 -1.79701 0
M  V30 7292 H 694.842 -4.79301 -0.734776 0
M  V30 7293 N 696.185 0.383891 -1.52853 0
M  V30 7294 C 697.431 1.13009 -1.68395 0
M  V30 7295 C 697.764 1.89488 -0.425195 0
M  V30 7296 O 697.039 1.8574 0.577136 0
M  V30 7297 C 697.322 2.10419 -2.92226 0
M  V30 7298 C 697.175 1.3767 -4.28214 0
M  V30 7299 C 698.494 3.10781 -3.11614 0
M  V30 7300 H 695.613 0.409463 -0.612788 0
M  V30 7301 H 698.255 0.412895 -1.85459 0
M  V30 7302 H 696.405 2.71579 -2.77808 0
M  V30 7303 H 698.077 0.794352 -4.54409 0
M  V30 7304 H 696.32 0.678533 -4.2846 0
M  V30 7305 H 696.991 2.08874 -5.10956 0
M  V30 7306 H 699.467 2.59715 -3.25096 0
M  V30 7307 H 698.343 3.76179 -3.99725 0
M  V30 7308 H 698.604 3.79933 -2.2606 0
M  V30 7309 N 697.663 1.43903 0.642637 0
M  V30 7310 C 698.61 1.49881 1.75512 0
M  V30 7311 C 699.58 0.347538 1.62423 0
M  V30 7312 O 700.765 0.556177 1.82514 0
M  V30 7313 C 697.905 1.43797 3.13714 0
M  V30 7314 C 697.018 2.6921 3.37861 0
M  V30 7315 C 696.153 2.5504 4.6597 0
M  V30 7316 C 695.192 3.75671 4.83257 0
M  V30 7317 N 694.329 3.60247 6.02633 0
M  V30 7318 H 699.169 2.44935 1.69737 0
M  V30 7319 H 696.706 1.21572 0.828165 0
M  V30 7320 H 698.664 1.38262 3.93624 0
M  V30 7321 H 697.294 0.523173 3.18532 0
M  V30 7322 H 696.346 2.8498 2.51973 0
M  V30 7323 H 697.658 3.58786 3.46517 0
M  V30 7324 H 696.812 2.47273 5.54023 0
M  V30 7325 H 695.551 1.63006 4.59653 0
M  V30 7326 H 694.556 3.83836 3.93637 0
M  V30 7327 H 695.781 4.68728 4.91397 0
M  V30 7328 H 693.727 2.70955 5.97427 0
M  V30 7329 H 693.644 4.43431 6.12295 0
M  V30 7330 H 694.912 3.56351 6.93278 0
M  V30 7331 N 699.141 -0.881989 1.30609 0
M  V30 7332 C 700.389 -1.63082 1.19368 0
M  V30 7333 C 700.71 -1.93376 -0.251147 0
M  V30 7334 O 699.98 -1.5723 -1.16857 0
M  V30 7335 H 698.56 -0.604542 0.438791 0
M  V30 7336 H 701.222 -1.05658 1.63776 0
M  V30 7337 H 700.318 -2.57966 1.7567 0
M  V30 7338 N 700.619 -1.13374 -1.09472 0
M  V30 7339 C 701.867 -0.893422 -1.8128 0
M  V30 7340 C 702.188 0.582029 -1.86111 0
M  V30 7341 O 701.458 1.42305 -1.34633 0
M  V30 7342 H 700.038 -0.327543 -0.67136 0
M  V30 7343 H 702.7 -1.43018 -1.32408 0
M  V30 7344 H 701.796 -1.28374 -2.84476 0
M  V30 7345 N 702.098 1.27442 -0.927168 0
M  V30 7346 C 703.375 1.89473 -0.485742 0
M  V30 7347 C 703.755 1.83922 1.03614 0
M  V30 7348 O 703.103 1.28409 1.89007 0
M  V30 7349 C 703.313 3.33417 -1.03123 0
M  V30 7350 C 704.661 4.10333 -1.0914 0
M  V30 7351 O 705.685 3.4243 -0.98082 0
M  V30 7352 O 704.544 5.31737 -1.26165 0
M  V30 7353 H 701.638 0.812124 -0.156154 0
M  V30 7354 H 704.184 1.35713 -1.01882 0
M  V30 7355 H 702.956 3.31747 -2.07508 0
M  V30 7356 H 702.579 3.94695 -0.479767 0
M  V30 7357 N 703.576 0.692616 1.41565 0
M  V30 7358 C 704.506 0.0397325 2.33466 0
M  V30 7359 C 705.487 -0.770334 1.51657 0
M  V30 7360 O 706.672 -0.723903 1.80203 0
M  V30 7361 C 703.802 -0.899495 3.3545 0
M  V30 7362 C 702.756 -0.196738 4.27548 0
M  V30 7363 C 702.082 -1.25012 5.19881 0
M  V30 7364 C 703.382 0.935158 5.1386 0
M  V30 7365 H 705.076 0.807296 2.88311 0
M  V30 7366 H 702.622 0.389665 1.38628 0
M  V30 7367 H 704.575 -1.36545 3.98665 0
M  V30 7368 H 703.299 -1.69869 2.78948 0
M  V30 7369 H 701.958 0.249158 3.65752 0
M  V30 7370 H 701.606 -2.04177 4.59696 0
M  V30 7371 H 701.306 -0.784931 5.82334 0
M  V30 7372 H 702.83 -1.71665 5.85972 0
M  V30 7373 H 704.244 0.549619 5.70659 0
M  V30 7374 H 702.641 1.32726 5.85238 0
M  V30 7375 H 703.711 1.77613 4.512 0
M  V30 7376 N 705.054 -1.51416 0.437162 0
M  V30 7377 C 706.301 -2.02086 -0.129364 0
M  V30 7378 C 706.629 -1.32133 -1.42728 0
M  V30 7379 O 705.884 -0.424916 -1.91031 0
M  V30 7380 C 706.183 -3.55203 -0.39564 0
M  V30 7381 C 705.849 -4.43447 0.81644 0
M  V30 7382 C 704.511 -4.67285 1.14884 0
M  V30 7383 C 706.863 -4.95219 1.62503 0
M  V30 7384 C 704.191 -5.40141 2.29052 0
M  V30 7385 C 706.543 -5.69327 2.7577 0
M  V30 7386 C 705.207 -5.91429 3.09464 0
M  V30 7387 H 704.477 -0.739486 -0.0473375 0
M  V30 7388 H 707.124 -1.82368 0.584321 0
M  V30 7389 H 705.429 -3.73252 -1.19121 0
M  V30 7390 H 707.126 -3.91944 -0.847399 0
M  V30 7391 H 703.716 -4.2509 0.547422 0
M  V30 7392 H 707.9 -4.76686 1.38144 0
M  V30 7393 H 703.156 -5.55468 2.55471 0
M  V30 7394 H 707.33 -6.08433 3.38795 0
M  V30 7395 H 704.957 -6.47662 3.98042 0
M  V30 7396 N 706.532 -0.168513 -1.56696 0
M  V30 7397 C 707.809 0.523367 -1.88468 0
M  V30 7398 C 708.189 1.81503 -1.07796 0
M  V30 7399 O 707.537 2.27859 -0.171045 0
M  V30 7400 C 707.747 0.767991 -3.40445 0
M  V30 7401 C 709.095 1.09924 -4.10124 0
M  V30 7402 O 710.119 0.856625 -3.45746 0
M  V30 7403 O 708.978 1.55681 -5.23856 0
M  V30 7404 H 706.072 0.269447 -0.781874 0
M  V30 7405 H 708.618 -0.206739 -1.68436 0
M  V30 7406 H 707.39 -0.145254 -3.9103 0
M  V30 7407 H 707.013 1.55151 -3.66079 0
M  V30 7408 N 708.01 1.57248 0.105221 0
M  V30 7409 C 708.973 2.00388 1.11252 0
M  V30 7410 C 709.973 0.89594 1.33527 0
M  V30 7411 O 711.163 1.16166 1.29811 0
M  V30 7412 C 708.295 2.35589 2.46395 0
M  V30 7413 H 709.488 2.90591 0.741424 0
M  V30 7414 H 707.041 1.52332 0.349956 0
M  V30 7415 H 707.776 1.4831 2.884 0
M  V30 7416 H 707.561 3.16408 2.31578 0
M  V30 7417 H 709.051 2.69658 3.18864 0
M  V30 7418 N 709.488 -0.375779 1.53054 0
M  V30 7419 C 710.737 -1.11674 1.67964 0
M  V30 7420 C 711.05 -1.90755 0.432655 0
M  V30 7421 O 712.256 -2.67538 0.462109 0
M  V30 7422 C 710.712 -2.0344 2.96884 0
M  V30 7423 C 710.32 -1.29719 4.28809 0
M  V30 7424 C 712.064 -2.7759 3.2116 0
M  V30 7425 C 709.971 -2.20327 5.48826 0
M  V30 7426 H 708.901 -0.420597 0.625791 0
M  V30 7427 H 711.552 -0.378499 1.79554 0
M  V30 7428 H 709.934 -2.80953 2.79072 0
M  V30 7429 H 711.108 -0.573394 4.57219 0
M  V30 7430 H 709.423 -0.674735 4.10897 0
M  V30 7431 H 712.02 -3.4559 4.0801 0
M  V30 7432 H 712.363 -3.42399 2.36789 0
M  V30 7433 H 712.896 -2.07164 3.396 0
M  V30 7434 H 709.635 -1.60113 6.35645 0
M  V30 7435 H 709.155 -2.90585 5.2471 0
M  V30 7436 H 710.834 -2.80116 5.83219 0
M  V30 7437 N 710.966 -1.44241 -0.634997 0
M  V30 7438 C 712.194 -1.50296 -1.42193 0
M  V30 7439 C 712.609 -0.12658 -1.88375 0
M  V30 7440 O 711.966 0.86678 -1.60603 0
M  V30 7441 C 712.017 -2.46437 -2.64482 0
M  V30 7442 O 711.738 -3.78724 -2.20226 0
M  V30 7443 C 713.239 -2.61918 -3.57651 0
M  V30 7444 H 710.459 -0.509865 -0.43621 0
M  V30 7445 H 713.003 -1.89167 -0.776921 0
M  V30 7446 H 711.158 -2.10712 -3.25083 0
M  V30 7447 H 711.572 -4.30595 -2.9948 0
M  V30 7448 H 713.046 -3.33225 -4.40074 0
M  V30 7449 H 713.523 -1.67017 -4.06204 0
M  V30 7450 H 714.129 -2.98528 -3.02921 0
M  V30 7451 N 712.444 0.87505 -1.31075 0
M  V30 7452 C 713.669 1.66583 -1.23551 0
M  V30 7453 C 714.094 1.87067 0.19686 0
M  V30 7454 O 713.452 1.40877 1.1412 0
M  V30 7455 C 713.5 3.01401 -1.97965 0
M  V30 7456 O 712.604 3.90923 -1.31351 0
M  V30 7457 H 711.945 0.508645 -0.426821 0
M  V30 7458 H 714.475 1.09139 -1.7306 0
M  V30 7459 H 714.485 3.51374 -2.07366 0
M  V30 7460 H 713.16 2.85812 -3.02133 0
M  V30 7461 H 711.737 3.49369 -1.30368 0
M  V30 7462 N 713.922 1.13953 1.08869 0
M  V30 7463 C 715.147 0.928559 1.85452 0
M  V30 7464 C 715.572 -0.517642 1.80837 0
M  V30 7465 O 714.93 -1.36779 1.19001 0
M  V30 7466 C 714.978 1.42814 3.31114 0
M  V30 7467 O 714.082 0.617129 4.07756 0
M  V30 7468 H 713.423 0.33235 0.574839 0
M  V30 7469 H 715.953 1.5156 1.37443 0
M  V30 7470 H 715.963 1.43425 3.8196 0
M  V30 7471 H 714.638 2.48109 3.33788 0
M  V30 7472 H 713.215 0.679365 3.66659 0
M  V30 7473 N 715.4 -1.26948 0.933913 0
M  V30 7474 C 716.628 -1.98186 0.59414 0
M  V30 7475 C 717.043 -1.69614 -0.829257 0
M  V30 7476 O 716.4 -0.960213 -1.55197 0
M  V30 7477 C 716.451 -3.52123 0.818026 0
M  V30 7478 O 716.172 -3.79698 2.18543 0
M  V30 7479 C 717.673 -4.40608 0.48781 0
M  V30 7480 H 714.893 -0.632305 0.224569 0
M  V30 7481 H 717.437 -1.61646 1.25263 0
M  V30 7482 H 715.592 -3.86851 0.206246 0
M  V30 7483 H 716.006 -4.7426 2.24005 0
M  V30 7484 H 717.48 -5.47606 0.695126 0
M  V30 7485 H 717.957 -4.35394 -0.576913 0
M  V30 7486 H 718.563 -4.11411 1.078 0
M  V30 7487 N 716.879 -0.700114 -1.41195 0
M  V30 7488 C 717.826 -0.0376652 -2.30769 0
M  V30 7489 C 718.796 0.766544 -1.47354 0
M  V30 7490 O 719.981 0.73365 -1.76131 0
M  V30 7491 C 717.121 0.889452 -3.33441 0
M  V30 7492 C 716.234 0.076373 -4.31932 0
M  V30 7493 C 715.369 1.00155 -5.21673 0
M  V30 7494 C 714.408 0.181644 -6.1183 0
M  V30 7495 N 713.545 1.06087 -6.94039 0
M  V30 7496 H 718.385 -0.80726 -2.86858 0
M  V30 7497 H 715.922 -0.409798 -1.41277 0
M  V30 7498 H 717.88 1.44107 -3.91522 0
M  V30 7499 H 716.51 1.6254 -2.78892 0
M  V30 7500 H 715.562 -0.592223 -3.75762 0
M  V30 7501 H 716.874 -0.559076 -4.95657 0
M  V30 7502 H 716.028 1.62223 -5.8461 0
M  V30 7503 H 714.767 1.67085 -4.58186 0
M  V30 7504 H 713.772 -0.452085 -5.47938 0
M  V30 7505 H 714.997 -0.483925 -6.77374 0
M  V30 7506 H 712.943 1.7161 -6.33156 0
M  V30 7507 H 712.86 0.481094 -7.54468 0
M  V30 7508 H 714.128 1.66822 -7.6144 0
M  V30 7509 N 718.357 1.51182 -0.445186 0
M  V30 7510 C 719.587 2.06269 0.116922 0
M  V30 7511 C 719.995 1.31188 1.36332 0
M  V30 7512 O 719.338 0.367067 1.79995 0
M  V30 7513 C 719.4 3.56051 0.496757 0
M  V30 7514 C 719.064 4.52441 -0.64394 0
M  V30 7515 C 720.061 4.97233 -1.5184 0
M  V30 7516 C 717.746 4.95447 -0.826905 0
M  V30 7517 C 719.74 5.83712 -2.56046 0
M  V30 7518 C 717.427 5.81714 -1.87222 0
M  V30 7519 C 718.425 6.25745 -2.73738 0
M  V30 7520 O 718.113 7.10298 -3.76474 0
M  V30 7521 H 717.845 0.675954 0.00785733 0
M  V30 7522 H 720.399 1.95648 -0.625371 0
M  V30 7523 H 718.629 3.64483 1.29187 0
M  V30 7524 H 720.318 3.93618 0.990928 0
M  V30 7525 H 721.084 4.64696 -1.38862 0
M  V30 7526 H 716.963 4.60712 -0.163052 0
M  V30 7527 H 720.507 6.18 -3.23607 0
M  V30 7528 H 716.404 6.13664 -2.00218 0
M  V30 7529 H 717.172 7.28493 -3.73149 0
M  V30 7530 N 719.835 0.176821 1.56605 0
M  V30 7531 C 721.063 -0.472828 2.01425 0
M  V30 7532 C 721.478 -1.56436 1.05703 0
M  V30 7533 O 720.835 -1.82405 0.058808 0
M  V30 7534 C 720.886 -1.04607 3.46034 0
M  V30 7535 O 720.607 0.00189608 4.381 0
M  V30 7536 C 722.108 -1.7734 4.06282 0
M  V30 7537 H 719.328 -0.120503 0.660091 0
M  V30 7538 H 721.872 0.280166 2.02572 0
M  V30 7539 H 720.027 -1.74953 3.45645 0
M  V30 7540 H 720.441 -0.422118 5.22799 0
M  V30 7541 H 721.915 -2.12703 5.09374 0
M  V30 7542 H 722.392 -2.67043 3.4869 0
M  V30 7543 H 722.998 -1.11623 4.10391 0
M  V30 7544 N 721.313 -1.57302 -0.09688 0
M  V30 7545 C 722.223 -2.05258 -1.13606 0
M  V30 7546 C 723.239 -0.977137 -1.43972 0
M  V30 7547 O 724.415 -1.29018 -1.54649 0
M  V30 7548 C 721.48 -2.46593 -2.43706 0
M  V30 7549 C 720.541 -3.68322 -2.20538 0
M  V30 7550 C 719.774 -4.07676 -3.44435 0
M  V30 7551 O 719.997 -3.47141 -4.52603 0
M  V30 7552 O 718.931 -5.00641 -3.34129 0
M  V30 7553 H 722.757 -2.94069 -0.758752 0
M  V30 7554 H 720.342 -1.46164 -0.309263 0
M  V30 7555 H 722.224 -2.73814 -3.20318 0
M  V30 7556 H 720.899 -1.6092 -2.80867 0
M  V30 7557 H 719.806 -3.4622 -1.41713 0
M  V30 7558 H 721.139 -4.54769 -1.88271 0
M  V30 7559 N 722.791 0.367657 -1.53252 0
M  V30 7560 C 724.207 0.709191 -1.42978 0
M  V30 7561 C 724.407 1.93352 -0.567193 0
M  V30 7562 O 723.463 2.52453 -0.0488349 0
M  V30 7563 C 724.776 0.924338 -2.86141 0
M  V30 7564 C 726.324 1.02448 -2.95759 0
M  V30 7565 C 726.799 1.27211 -4.39979 0
M  V30 7566 N 728.29 1.33986 -4.43398 0
M  V30 7567 C 729.025 1.54852 -5.52095 0
M  V30 7568 N 728.521 1.73049 -6.7084 0
M  V30 7569 N 730.314 1.57205 -5.39669 0
M  V30 7570 H 722.465 -0.437669 -2.07842 0
M  V30 7571 H 724.728 -0.133737 -0.938519 0
M  V30 7572 H 724.434 0.0965455 -3.51567 0
M  V30 7573 H 724.308 1.83302 -3.29667 0
M  V30 7574 H 726.695 1.84282 -2.30487 0
M  V30 7575 H 726.776 0.0932301 -2.5563 0
M  V30 7576 H 726.42 0.458792 -5.05824 0
M  V30 7577 H 726.35 2.21654 -4.77679 0
M  V30 7578 H 728.841 1.21545 -3.5782 0
M  V30 7579 H 729.154 1.88538 -7.49449 0
M  V30 7580 H 727.499 1.70231 -6.7383 0
M  V30 7581 H 730.69 1.42555 -4.45865 0
M  V30 7582 H 730.863 1.73126 -6.24445 0
M  V30 7583 N 724.269 1.44576 0.627338 0
M  V30 7584 C 725.546 1.38033 1.38586 0
M  V30 7585 C 725.926 0.0409468 2.1106 0
M  V30 7586 O 725.274 -0.976582 2.0658 0
M  V30 7587 C 725.484 2.58102 2.34913 0
M  V30 7588 C 726.832 3.02332 2.98129 0
M  V30 7589 O 727.856 2.58334 2.45238 0
M  V30 7590 O 726.715 3.78628 3.94085 0
M  V30 7591 H 723.809 0.546801 0.620434 0
M  V30 7592 H 726.355 1.56672 0.652077 0
M  V30 7593 H 725.127 3.4719 1.80485 0
M  V30 7594 H 724.75 2.41696 3.15703 0
M  V30 7595 N 725.747 -0.868086 1.31537 0
M  V30 7596 C 726.995 -1.61807 1.21091 0
M  V30 7597 C 727.316 -1.93631 -0.230623 0
M  V30 7598 O 726.586 -1.5846 -1.15183 0
M  V30 7599 H 725.166 -0.599854 0.445178 0
M  V30 7600 H 727.828 -1.03915 1.64887 0
M  V30 7601 H 726.924 -2.56088 1.78396 0
M  V30 7602 N 727.225 -1.14528 -1.08264 0
M  V30 7603 C 728.45 -0.938381 -1.84957 0
M  V30 7604 C 728.875 0.508044 -1.81109 0
M  V30 7605 O 728.233 1.36146 -1.19724 0
M  V30 7606 C 728.281 -1.44568 -3.30352 0
M  V30 7607 O 727.385 -0.638745 -4.07423 0
M  V30 7608 H 726.726 -0.335394 -0.573068 0
M  V30 7609 H 729.256 -1.52287 -1.36637 0
M  V30 7610 H 729.266 -1.45449 -3.81194 0
M  V30 7611 H 727.941 -2.49876 -3.32468 0
M  V30 7612 H 726.518 -0.698801 -3.66294 0
M  V30 7613 N 728.703 1.26451 -0.940633 0
M  V30 7614 C 729.666 2.24651 -0.454378 0
M  V30 7615 C 730.666 1.54826 0.434222 0
M  V30 7616 O 731.856 1.72628 0.233477 0
M  V30 7617 C 728.988 3.39148 0.345192 0
M  V30 7618 H 730.181 2.69182 -1.32217 0
M  V30 7619 H 727.734 1.38596 -0.722547 0
M  V30 7620 H 728.469 3.00018 1.23125 0
M  V30 7621 H 728.254 3.9101 -0.292107 0
M  V30 7622 H 729.744 4.12103 0.675341 0
M  V30 7623 N 730.181 0.707592 1.40822 0
M  V30 7624 C 731.114 -0.000859377 2.282 0
M  V30 7625 C 732.092 -0.7758 1.42899 0
M  V30 7626 O 733.276 -0.76411 1.72318 0
M  V30 7627 C 730.403 -1.00861 3.23334 0
M  V30 7628 C 729.449 -0.32543 4.25257 0
M  V30 7629 S 730.282 0.940908 5.27169 0
M  V30 7630 C 731.438 -0.0649459 6.25866 0
M  V30 7631 H 731.671 0.740207 2.87938 0
M  V30 7632 H 729.204 0.498311 1.46138 0
M  V30 7633 H 731.162 -1.58485 3.78672 0
M  V30 7634 H 729.823 -1.72233 2.62668 0
M  V30 7635 H 729.016 -1.08697 4.92139 0
M  V30 7636 H 728.618 0.178044 3.73576 0
M  V30 7637 H 730.91 -0.914377 6.71301 0
M  V30 7638 H 731.853 0.570276 7.058 0
M  V30 7639 H 732.261 -0.425098 5.62897 0
M  V30 7640 N 731.66 -1.50943 0.453197 0
M  V30 7641 C 732.906 -2.02512 -0.108082 0
M  V30 7642 C 733.239 -1.33574 -1.40967 0
M  V30 7643 O 732.514 -0.455671 -1.89087 0
M  V30 7644 C 732.797 -3.58759 -0.310453 0
M  V30 7645 C 732.65 -4.38293 1.0109 0
M  V30 7646 C 733.969 -4.26816 -1.07313 0
M  V30 7647 H 731.088 -0.73603 -0.0378064 0
M  V30 7648 H 733.73 -1.80433 0.595295 0
M  V30 7649 H 731.88 -3.77702 -0.909582 0
M  V30 7650 H 733.552 -4.30964 1.64523 0
M  V30 7651 H 731.795 -4.02745 1.61179 0
M  V30 7652 H 732.466 -5.45828 0.82315 0
M  V30 7653 H 734.942 -4.1224 -0.565473 0
M  V30 7654 H 733.818 -5.35989 -1.1835 0
M  V30 7655 H 734.079 -3.88757 -2.10525 0
M  V30 7656 N 733.138 -0.185124 -1.56509 0
M  V30 7657 C 734.368 0.461469 -2.0138 0
M  V30 7658 C 734.776 1.56417 -1.06445 0
M  V30 7659 O 734.119 1.83603 -0.0597515 0
M  V30 7660 C 734.181 1.08731 -3.42663 0
M  V30 7661 C 733.845 0.124581 -4.5683 0
M  V30 7662 C 734.842 -0.662295 -5.15664 0
M  V30 7663 C 732.527 0.0163947 -5.02297 0
M  V30 7664 C 734.521 -1.54442 -6.18406 0
M  V30 7665 C 732.208 -0.869301 -6.04885 0
M  V30 7666 C 733.206 -1.64828 -6.62813 0
M  V30 7667 O 732.894 -2.51915 -7.63409 0
M  V30 7668 H 732.626 0.1212 -0.665046 0
M  V30 7669 H 735.18 -0.288119 -2.03369 0
M  V30 7670 H 733.41 1.8853 -3.37629 0
M  V30 7671 H 735.099 1.63753 -3.71403 0
M  V30 7672 H 735.865 -0.588963 -4.81411 0
M  V30 7673 H 731.744 0.61253 -4.56913 0
M  V30 7674 H 735.288 -2.15289 -6.63548 0
M  V30 7675 H 731.185 -0.943786 -6.38563 0
M  V30 7676 H 731.953 -2.45584 -7.80789 0
M  V30 7677 N 734.616 1.57351 0.0885366 0
M  V30 7678 C 735.564 2.03542 1.12576 0
M  V30 7679 C 736.558 0.937668 1.41082 0
M  V30 7680 O 737.764 1.12283 1.40686 0
M  V30 7681 H 734.139 0.648752 0.380296 0
M  V30 7682 H 736.11 2.89833 0.709906 0
M  V30 7683 C 734.859 2.4811 2.43591 0
M  V30 7684 H 734.182 3.32164 2.22502 0
M  V30 7685 H 735.622 2.842 3.14653 0
M  V30 7686 C 734.081 1.35708 3.08359 0
M  V30 7687 O 734.611 0.689852 3.95732 0
M  V30 7688 N 732.817 1.10641 2.68713 0
M  V30 7689 H 732.364 1.6508 1.97753 0
M  V30 7690 H 732.322 0.356355 3.12374 0
M  V30 7691 N 736.094 -0.359525 1.53444 0
M  V30 7692 C 737.024 -1.44662 1.8329 0
M  V30 7693 C 738.005 -1.55617 0.68683 0
M  V30 7694 O 739.19 -1.70086 0.93725 0
M  V30 7695 C 736.32 -2.81923 2.02822 0
M  V30 7696 C 735.274 -2.85787 3.18606 0
M  V30 7697 C 734.6 -4.25781 3.23442 0
M  V30 7698 C 735.9 -2.52762 4.57065 0
M  V30 7699 H 737.594 -1.19934 2.74329 0
M  V30 7700 H 735.14 -0.575517 1.31999 0
M  V30 7701 H 737.093 -3.58005 2.22285 0
M  V30 7702 H 735.817 -3.08051 1.085 0
M  V30 7703 H 734.476 -2.12157 2.98973 0
M  V30 7704 H 734.124 -4.48994 2.26745 0
M  V30 7705 H 733.824 -4.29281 4.01238 0
M  V30 7706 H 735.348 -5.03727 3.45096 0
M  V30 7707 H 736.762 -3.18557 4.76649 0
M  V30 7708 H 735.159 -2.67569 5.37147 0
M  V30 7709 H 736.229 -1.47993 4.61764 0
M  V30 7710 N 737.572 -1.44907 -0.619662 0
M  V30 7711 C 738.535 -1.52282 -1.71297 0
M  V30 7712 C 739.535 -0.40359 -1.55653 0
M  V30 7713 O 740.725 -0.666638 -1.6094 0
M  V30 7714 C 737.857 -1.40778 -3.10474 0
M  V30 7715 H 739.05 -2.49683 -1.66128 0
M  V30 7716 H 736.603 -1.32168 -0.834339 0
M  V30 7717 H 737.338 -0.445156 -3.2123 0
M  V30 7718 H 737.123 -2.21947 -3.23237 0
M  V30 7719 H 738.613 -1.48946 -3.90135 0
M  V30 7720 N 739.05 0.861098 -1.31996 0
M  V30 7721 C 739.998 1.99052 -1.20337 0
M  V30 7722 C 740.992 1.69045 -0.109623 0
M  V30 7723 O 742.198 1.77931 -0.272117 0
M  V30 7724 H 738.573 0.653064 -0.372843 0
M  V30 7725 H 740.544 2.06015 -2.15872 0
M  V30 7726 C 739.293 3.34846 -0.936663 0
M  V30 7727 H 738.616 3.58462 -1.77045 0
M  V30 7728 H 740.056 4.1444 -0.895302 0
M  V30 7729 C 738.515 3.34965 0.360607 0
M  V30 7730 O 739.045 3.7745 1.37456 0
M  V30 7731 N 737.251 2.88101 0.380296 0
M  V30 7732 H 736.798 2.53721 -0.445351 0
M  V30 7733 H 736.756 2.88563 1.24816 0
M  V30 7734 N 740.528 1.15101 1.07655 0
M  V30 7735 C 741.491 0.847625 2.12951 0
M  V30 7736 C 742.491 -0.151227 1.60087 0
M  V30 7737 O 743.681 0.0780399 1.74025 0
M  V30 7738 C 740.813 0.265 3.39868 0
M  V30 7739 H 742.006 1.7809 2.41296 0
M  V30 7740 H 739.559 0.958072 1.23494 0
M  V30 7741 H 740.294 -0.676625 3.17163 0
M  V30 7742 H 740.079 0.984554 3.79538 0
M  V30 7743 H 741.569 0.0702121 4.17541 0
M  V30 7744 N 742.006 -1.2595 0.947325 0
M  V30 7745 C 742.936 -2.28521 0.479604 0
M  V30 7746 C 743.917 -1.63469 -0.470293 0
M  V30 7747 O 745.102 -1.90627 -0.370824 0
M  V30 7748 C 742.232 -3.46397 -0.250289 0
M  V30 7749 C 741.186 -4.23578 0.613643 0
M  V30 7750 C 740.512 -5.34131 -0.246568 0
M  V30 7751 C 741.812 -4.86979 1.88809 0
M  V30 7752 H 743.506 -2.67895 1.33688 0
M  V30 7753 H 741.052 -1.28783 0.644274 0
M  V30 7754 H 743.005 -4.17269 -0.588576 0
M  V30 7755 H 741.729 -3.05993 -1.14175 0
M  V30 7756 H 740.388 -3.54478 0.93491 0
M  V30 7757 H 740.036 -4.89968 -1.13756 0
M  V30 7758 H 739.736 -5.86683 0.328123 0
M  V30 7759 H 741.26 -6.07839 -0.579986 0
M  V30 7760 H 742.674 -5.50034 1.61666 0
M  V30 7761 H 741.071 -5.49675 2.40784 0
M  V30 7762 H 742.141 -4.09575 2.5957 0
M  V30 7763 N 743.484 -0.715051 -1.40445 0
M  V30 7764 C 744.9 -0.388555 -1.54798 0
M  V30 7765 C 745.1 1.10271 -1.68649 0
M  V30 7766 O 744.156 1.88875 -1.67578 0
M  V30 7767 C 745.469 -1.15414 -2.77669 0
M  V30 7768 C 747.017 -1.14039 -2.91486 0
M  V30 7769 C 747.492 -1.88812 -4.1727 0
M  V30 7770 N 748.983 -1.85878 -4.24268 0
M  V30 7771 C 749.718 -2.40558 -5.20499 0
M  V30 7772 N 749.214 -3.03791 -6.22642 0
M  V30 7773 N 751.007 -2.30703 -5.12574 0
M  V30 7774 H 743.158 -1.68201 -1.297 0
M  V30 7775 H 745.421 -0.710915 -0.627139 0
M  V30 7776 H 745.127 -2.20853 -2.7371 0
M  V30 7777 H 745.001 -0.745412 -3.69761 0
M  V30 7778 H 747.388 -0.0941996 -2.9495 0
M  V30 7779 H 747.469 -1.58834 -2.00513 0
M  V30 7780 H 747.113 -2.93422 -4.14568 0
M  V30 7781 H 747.043 -1.41438 -5.0725 0
M  V30 7782 H 749.534 -1.39794 -3.51093 0
M  V30 7783 H 749.847 -3.43032 -6.92495 0
M  V30 7784 H 748.192 -3.07875 -6.23087 0
M  V30 7785 H 751.383 -1.80961 -4.31707 0
M  V30 7786 H 751.556 -2.73618 -5.87398 0
M  V30 7787 N 744.962 1.50701 -0.461195 0
M  V30 7788 C 746.192 2.06381 0.0950376 0
M  V30 7789 C 746.6 1.32627 1.34933 0
M  V30 7790 O 745.943 0.386137 1.79596 0
M  V30 7791 C 746.005 3.56558 0.458965 0
M  V30 7792 C 745.669 4.51732 -0.691891 0
M  V30 7793 C 746.666 4.95594 -1.57105 0
M  V30 7794 C 744.351 4.94542 -0.879407 0
M  V30 7795 C 746.345 5.80963 -2.62223 0
M  V30 7796 C 744.032 5.79695 -1.93382 0
M  V30 7797 C 745.03 6.22806 -2.80359 0
M  V30 7798 O 744.718 7.06265 -3.83986 0
M  V30 7799 H 744.45 0.676 0.000687488 0
M  V30 7800 H 747.004 1.94974 -0.646087 0
M  V30 7801 H 745.234 3.65832 1.25314 0
M  V30 7802 H 746.923 3.94647 0.949124 0
M  V30 7803 H 747.689 4.63197 -1.43783 0
M  V30 7804 H 743.568 4.60513 -0.211907 0
M  V30 7805 H 747.112 6.14533 -3.30143 0
M  V30 7806 H 743.009 6.11506 -2.06715 0
M  V30 7807 H 743.777 7.24494 -3.80855 0
M  V30 7808 N 746.441 0.193421 1.56409 0
M  V30 7809 C 747.371 -0.723334 2.22014 0
M  V30 7810 C 748.352 -1.22254 1.1827 0
M  V30 7811 O 749.537 -1.27168 1.46771 0
M  V30 7812 C 746.667 -1.94366 2.87818 0
M  V30 7813 C 745.621 -1.57943 3.97791 0
M  V30 7814 C 744.947 -2.87623 4.50752 0
M  V30 7815 C 746.247 -0.790639 5.16281 0
M  V30 7816 H 747.941 -0.176426 2.9888 0
M  V30 7817 H 745.487 -0.0834166 1.43758 0
M  V30 7818 H 747.44 -2.5902 3.32396 0
M  V30 7819 H 746.164 -2.51507 2.08355 0
M  V30 7820 H 744.823 -0.956482 3.53903 0
M  V30 7821 H 744.471 -3.4285 3.68053 0
M  V30 7822 H 744.171 -2.63998 5.24956 0
M  V30 7823 H 745.695 -3.53268 4.9803 0
M  V30 7824 H 747.109 -1.34024 5.57414 0
M  V30 7825 H 745.506 -0.65258 5.96541 0
M  V30 7826 H 746.576 0.208633 4.84451 0
M  V30 7827 N 747.919 -1.57396 -0.0801906 0
M  V30 7828 C 748.869 -1.9955 -1.10289 0
M  V30 7829 C 749.853 -0.876234 -1.34948 0
M  V30 7830 O 751.045 -1.14012 -1.35389 0
M  V30 7831 C 748.174 -2.43596 -2.419 0
M  V30 7832 C 747.26 -3.6224 -2.20551 0
M  V30 7833 N 747.651 -4.76693 -1.69109 0
M  V30 7834 C 745.949 -3.68627 -2.51059 0
M  V30 7835 C 746.65 -5.58577 -1.62379 0
M  V30 7836 N 745.626 -5.02178 -2.0813 0
M  V30 7837 H 749.428 -2.85483 -0.698335 0
M  V30 7838 H 746.942 -1.59837 -0.287395 0
M  V30 7839 H 748.939 -2.72031 -3.15919 0
M  V30 7840 H 747.599 -1.59047 -2.8308 0
M  V30 7841 H 748.61 -4.9915 -1.38092 0
M  V30 7842 H 745.287 -2.94772 -2.95661 0
M  V30 7843 H 746.677 -6.60447 -1.2353 0
M  V30 7844 N 749.397 0.351382 -1.53633 0
M  V30 7845 C 750.645 1.09034 -1.70165 0
M  V30 7846 C 750.966 1.89413 -0.463422 0
M  V30 7847 O 750.236 1.888 0.522624 0
M  V30 7848 H 748.816 0.405522 -0.627344 0
M  V30 7849 H 751.478 0.394554 -1.90865 0
M  V30 7850 H 750.574 1.77215 -2.56907 0
M  V30 7851 N 750.875 1.45233 0.611969 0
M  V30 7852 C 751.805 1.5641 1.73373 0
M  V30 7853 C 752.786 0.415896 1.64937 0
M  V30 7854 O 753.971 0.638478 1.83404 0
M  V30 7855 C 751.101 1.52627 3.11965 0
M  V30 7856 C 750.055 2.66119 3.35208 0
M  V30 7857 C 749.381 2.4739 4.74028 0
M  V30 7858 C 750.681 4.08157 3.25891 0
M  V30 7859 H 752.375 2.50307 1.64277 0
M  V30 7860 H 749.921 1.20467 0.788904 0
M  V30 7861 H 751.874 1.59043 3.90235 0
M  V30 7862 H 750.598 0.552564 3.21892 0
M  V30 7863 H 749.257 2.59123 2.59327 0
M  V30 7864 H 748.905 1.48168 4.80682 0
M  V30 7865 H 748.605 3.23494 4.90536 0
M  V30 7866 H 750.129 2.55653 5.54503 0
M  V30 7867 H 751.543 4.1642 3.9404 0
M  V30 7868 H 749.94 4.84617 3.5393 0
M  V30 7869 H 751.01 4.30374 2.23397 0
M  V30 7870 N 752.353 -0.854086 1.3245 0
M  V30 7871 C 753.578 -1.64597 1.26185 0
M  V30 7872 C 754.003 -1.87357 -0.167074 0
M  V30 7873 O 753.361 -1.42675 -1.11864 0
M  V30 7874 C 753.409 -2.98213 2.02734 0
M  V30 7875 O 752.513 -3.88784 1.37554 0
M  V30 7876 H 751.854 -0.50179 0.434859 0
M  V30 7877 H 754.384 -1.06372 1.74775 0
M  V30 7878 H 754.394 -3.4803 2.1293 0
M  V30 7879 H 753.069 -2.80969 3.06642 0
M  V30 7880 H 751.646 -3.4725 1.3591 0
M  V30 7881 N 753.831 -1.1567 -1.07043 0
M  V30 7882 C 755.08 -0.928039 -1.79082 0
M  V30 7883 C 755.393 0.545968 -1.87826 0
M  V30 7884 O 756.599 0.892308 -2.56418 0
M  V30 7885 C 755.055 -1.61103 -3.21829 0
M  V30 7886 C 754.663 -3.12228 -3.21275 0
M  V30 7887 C 756.407 -1.46404 -3.98455 0
M  V30 7888 C 754.314 -3.733 -4.58695 0
M  V30 7889 H 753.244 -0.34357 -0.671175 0
M  V30 7890 H 755.895 -1.38718 -1.20123 0
M  V30 7891 H 754.277 -1.07958 -3.81 0
M  V30 7892 H 755.451 -3.72155 -2.71731 0
M  V30 7893 H 753.766 -3.26725 -2.58147 0
M  V30 7894 H 756.363 -1.8942 -5.00024 0
M  V30 7895 H 756.706 -0.41195 -4.14257 0
M  V30 7896 H 757.239 -1.96663 -3.45787 0
M  V30 7897 H 753.978 -4.78423 -4.48098 0
M  V30 7898 H 753.498 -3.18157 -5.08465 0
M  V30 7899 H 755.177 -3.7441 -5.27661 0
M  V30 7900 N 755.309 1.25446 -0.953992 0
M  V30 7901 C 756.555 1.9343 -0.60933 0
M  V30 7902 C 756.888 1.74542 0.851388 0
M  V30 7903 O 756.163 1.09014 1.61078 0
M  V30 7904 C 756.446 3.46844 -0.968041 0
M  V30 7905 C 756.299 3.74961 -2.48444 0
M  V30 7906 C 757.618 4.37334 -0.492641 0
M  V30 7907 H 754.737 0.702502 -0.222844 0
M  V30 7908 H 757.379 1.48076 -1.19053 0
M  V30 7909 H 755.529 3.85604 -0.473465 0
M  V30 7910 H 757.201 3.45841 -3.05273 0
M  V30 7911 H 755.444 3.20589 -2.92241 0
M  V30 7912 H 756.115 4.82246 -2.68594 0
M  V30 7913 H 758.591 4.05873 -0.916878 0
M  V30 7914 H 757.467 5.43439 -0.772331 0
M  V30 7915 H 757.728 4.37908 0.607403 0
M  V30 7916 N 756.787 0.722489 1.40064 0
M  V30 7917 C 757.737 0.0506801 2.27944 0
M  V30 7918 C 758.721 -0.725493 1.43615 0
M  V30 7919 O 759.913 -0.596559 1.66644 0
M  V30 7920 C 757.042 -0.865195 3.32219 0
M  V30 7921 C 756.128 -0.0838393 4.24017 0
M  V30 7922 N 756.519 0.936516 4.97054 0
M  V30 7923 C 754.817 -0.315371 4.44884 0
M  V30 7924 C 755.518 1.4066 5.64437 0
M  V30 7925 N 754.494 0.727485 5.3871 0
M  V30 7926 H 758.296 0.832609 2.8186 0
M  V30 7927 H 755.81 0.555691 1.52597 0
M  V30 7928 H 757.807 -1.36186 3.94029 0
M  V30 7929 H 756.467 -1.64642 2.79862 0
M  V30 7930 H 757.478 1.31755 5.0086 0
M  V30 7931 H 754.155 -1.07238 4.03492 0
M  V30 7932 H 755.545 2.25482 6.32936 0
M  V30 7933 N 758.265 -1.50454 0.469181 0
M  V30 7934 C 759.681 -1.59124 0.123226 0
M  V30 7935 C 759.881 -1.47749 -1.37013 0
M  V30 7936 O 758.937 -1.335 -2.14322 0
M  V30 7937 C 760.25 -2.93101 0.67172 0
M  V30 7938 C 761.798 -3.06491 0.634978 0
M  V30 7939 C 762.273 -4.43041 1.16098 0
M  V30 7940 N 763.764 -4.49448 1.12031 0
M  V30 7941 C 764.499 -5.53491 1.49784 0
M  V30 7942 N 763.995 -6.64798 1.94976 0
M  V30 7943 N 765.788 -5.44025 1.41399 0
M  V30 7944 H 757.939 -1.56091 1.44046 0
M  V30 7945 H 760.202 -0.737564 0.59557 0
M  V30 7946 H 759.908 -3.06895 1.7178 0
M  V30 7947 H 759.782 -3.77027 0.114222 0
M  V30 7948 H 762.169 -2.92346 -0.402187 0
M  V30 7949 H 762.25 -2.24328 1.22926 0
M  V30 7950 H 761.894 -4.57935 2.19677 0
M  V30 7951 H 761.824 -5.23794 0.542939 0
M  V30 7952 H 764.315 -3.69575 0.788828 0
M  V30 7953 H 764.628 -7.40246 2.21936 0
M  V30 7954 H 762.973 -6.65923 1.98927 0
M  V30 7955 H 766.164 -4.55955 1.05935 0
M  V30 7956 H 766.337 -6.2499 1.71147 0
M  V30 7957 N 759.743 -0.201713 -1.56304 0
M  V30 7958 C 761.02 0.483273 -1.89536 0
M  V30 7959 C 761.4 1.79176 -1.11621 0
M  V30 7960 O 760.748 2.27445 -0.219339 0
M  V30 7961 C 760.958 0.695604 -3.41998 0
M  V30 7962 C 762.306 1.012 -4.12364 0
M  V30 7963 O 763.33 0.783094 -3.47485 0
M  V30 7964 O 762.189 1.44534 -5.27041 0
M  V30 7965 H 759.283 0.252801 -0.787414 0
M  V30 7966 H 761.829 -0.24242 -1.6796 0
M  V30 7967 H 760.601 -0.228165 -3.90634 0
M  V30 7968 H 760.224 1.47351 -3.69288 0
M  V30 7969 N 761.222 1.57436 0.0718424 0
M  V30 7970 C 762.471 1.86431 0.769826 0
M  V30 7971 C 762.784 0.794355 1.78744 0
M  V30 7972 O 763.99 0.972148 2.53499 0
M  V30 7973 C 762.446 3.307 1.42006 0
M  V30 7974 C 762.054 4.45824 0.441017 0
M  V30 7975 C 763.798 3.68894 2.10041 0
M  V30 7976 C 761.705 5.81134 1.09717 0
M  V30 7977 H 760.635 0.695474 0.291259 0
M  V30 7978 H 763.286 1.83485 0.0231224 0
M  V30 7979 H 761.668 3.28257 2.21502 0
M  V30 7980 H 762.842 4.59659 -0.32413 0
M  V30 7981 H 761.157 4.16181 -0.134886 0
M  V30 7982 H 763.754 4.67281 2.59908 0
M  V30 7983 H 764.097 2.98692 2.89981 0
M  V30 7984 H 764.63 3.73326 1.37376 0
M  V30 7985 H 761.369 6.54628 0.338095 0
M  V30 7986 H 760.889 5.711 1.83317 0
M  V30 7987 H 762.568 6.26468 1.617 0
M  V30 7988 N 762.7 -0.34323 1.53817 0
M  V30 7989 C 763.647 -1.42153 1.81827 0
M  V30 7990 C 764.617 -1.52251 0.663996 0
M  V30 7991 O 765.802 -1.67784 0.908461 0
M  V30 7992 C 762.942 -2.78799 2.03384 0
M  V30 7993 C 762.055 -2.7749 3.31094 0
M  V30 7994 C 761.19 -4.05856 3.42717 0
M  V30 7995 C 760.229 -3.98776 4.64375 0
M  V30 7996 N 759.366 -5.18833 4.73029 0
M  V30 7997 H 764.206 -1.17567 2.73829 0
M  V30 7998 H 761.743 -0.569506 1.35628 0
M  V30 7999 H 763.701 -3.58211 2.13872 0
M  V30 8000 H 762.331 -3.01736 1.14696 0
M  V30 8001 H 761.383 -1.90182 3.29446 0
M  V30 8002 H 762.695 -2.68137 4.206 0
M  V30 8003 H 761.849 -4.93691 3.52638 0
M  V30 8004 H 760.588 -4.1799 2.51267 0
M  V30 8005 H 759.593 -3.09325 4.5453 0
M  V30 8006 H 760.818 -3.88224 5.57189 0
M  V30 8007 H 758.764 -5.31511 3.84489 0
M  V30 8008 H 758.681 -5.11737 5.56472 0
M  V30 8009 H 759.949 -6.08439 4.87261 0
M  V30 8010 N 764.178 -1.45556 -0.604258 0
M  V30 8011 C 765.589 -1.44171 -1.18624 0
M  V30 8012 C 765.94 -0.171081 -1.95453 0
M  V30 8013 O 765.065 0.727156 -2.03817 0
M  V30 8014 C 765.66 -2.61193 -2.15786 0
M  V30 8015 C 764.219 -2.62918 -2.69353 0
M  V30 8016 C 763.366 -2.36479 -1.4482 0
M  V30 8017 H 766.317 -1.53747 -0.393381 0
M  V30 8018 H 766.338 -2.35481 -2.98879 0
M  V30 8019 H 765.85 -3.53656 -1.59841 0
M  V30 8020 H 763.951 -1.7447 -3.29228 0
M  V30 8021 H 764.064 -3.6224 -3.13559 0
M  V30 8022 H 762.428 -1.86103 -1.73891 0
M  V30 8023 H 763.211 -3.31091 -0.907376 0
M  V30 8024 N 765.656 0.84705 -1.32902 0
M  V30 8025 C 766.566 1.98845 -1.2449 0
M  V30 8026 C 767.582 1.7329 -0.15702 0
M  V30 8027 O 768.758 1.978 -0.379104 0
M  V30 8028 C 765.823 3.32679 -0.975985 0
M  V30 8029 C 764.884 3.71405 -2.15306 0
M  V30 8030 C 764.117 4.98853 -1.89688 0
M  V30 8031 O 764.34 5.64134 -0.843168 0
M  V30 8032 O 763.274 5.34889 -2.76002 0
M  V30 8033 H 767.1 2.0888 -2.2046 0
M  V30 8034 H 764.685 0.978852 -1.12867 0
M  V30 8035 H 766.567 4.12885 -0.842826 0
M  V30 8036 H 765.242 3.23667 -0.0464954 0
M  V30 8037 H 764.149 2.91743 -2.34172 0
M  V30 8038 H 765.482 3.85073 -3.06561 0
M  V30 8039 N 767.134 1.16236 1.06428 0
M  V30 8040 C 768.082 0.863669 2.15971 0
M  V30 8041 C 769.076 -0.166723 1.68578 0
M  V30 8042 O 770.282 -0.0208425 1.79988 0
M  V30 8043 H 766.657 0.261684 0.705 0
M  V30 8044 H 768.628 1.79498 2.38376 0
M  V30 8045 C 767.377 0.379697 3.45621 0
M  V30 8046 H 766.7 1.16399 3.82481 0
M  V30 8047 H 768.14 0.209458 4.23482 0
M  V30 8048 C 766.599 -0.900499 3.24642 0
M  V30 8049 O 767.129 -1.97004 3.50074 0
M  V30 8050 N 765.335 -0.843721 2.78082 0
M  V30 8051 H 764.882 0.0268429 2.57586 0
M  V30 8052 H 764.84 -1.70078 2.64425 0
M  V30 8053 N 768.612 -1.24939 0.960631 0
M  V30 8054 C 769.542 -2.28 0.503815 0
M  V30 8055 C 770.523 -1.63959 -0.452928 0
M  V30 8056 O 771.708 -1.91009 -0.350585 0
M  V30 8057 C 768.838 -3.46643 -0.213535 0
M  V30 8058 C 767.792 -4.22903 0.658535 0
M  V30 8059 C 767.118 -5.34363 -0.189902 0
M  V30 8060 C 768.418 -4.84949 1.93963 0
M  V30 8061 H 770.112 -2.66462 1.36521 0
M  V30 8062 H 767.658 -1.28093 0.657897 0
M  V30 8063 H 769.611 -4.1787 -0.544286 0
M  V30 8064 H 768.335 -3.07187 -1.10923 0
M  V30 8065 H 766.994 -3.53467 0.972455 0
M  V30 8066 H 766.642 -4.91147 -1.08553 0
M  V30 8067 H 766.342 -5.86302 0.390331 0
M  V30 8068 H 767.866 -6.0842 -0.515484 0
M  V30 8069 H 769.28 -5.48288 1.67491 0
M  V30 8070 H 767.677 -5.47091 2.46601 0
M  V30 8071 H 768.747 -4.06799 2.639 0
M  V30 8072 N 770.09 -0.729906 -1.39679 0
M  V30 8073 C 771.02 -0.101618 -2.33279 0
M  V30 8074 C 772.001 0.729854 -1.53646 0
M  V30 8075 O 773.186 0.67587 -1.82059 0
M  V30 8076 C 770.316 0.81024 -3.37716 0
M  V30 8077 C 769.27 0.0833126 -4.27919 0
M  V30 8078 C 768.596 1.11185 -5.23012 0
M  V30 8079 C 769.896 -1.07107 -5.112 0
M  V30 8080 H 771.59 -0.883452 -2.86069 0
M  V30 8081 H 769.136 -0.426283 -1.37546 0
M  V30 8082 H 771.089 1.25927 -4.02145 0
M  V30 8083 H 769.813 1.62413 -2.83354 0
M  V30 8084 H 768.472 -0.346043 -3.64963 0
M  V30 8085 H 768.12 1.91917 -4.64948 0
M  V30 8086 H 767.82 0.63026 -5.8421 0
M  V30 8087 H 769.344 1.56068 -5.90318 0
M  V30 8088 H 770.758 -0.700726 -5.69002 0
M  V30 8089 H 769.155 -1.48196 -5.81514 0
M  V30 8090 H 770.225 -1.89513 -4.46332 0
M  V30 8091 N 771.568 1.50203 -0.477153 0
M  V30 8092 C 772.814 2.02658 0.0758507 0
M  V30 8093 C 773.147 1.358 1.38824 0
M  V30 8094 O 772.422 0.485696 1.88338 0
M  V30 8095 C 772.705 3.59208 0.253339 0
M  V30 8096 C 772.558 4.36629 -1.0805 0
M  V30 8097 C 773.877 4.28469 1.00509 0
M  V30 8098 H 770.996 0.736538 0.0260921 0
M  V30 8099 H 773.638 1.79464 -0.623925 0
M  V30 8100 H 771.788 3.79101 0.849378 0
M  V30 8101 H 773.46 4.28292 -1.71358 0
M  V30 8102 H 771.703 4.0013 -1.67566 0
M  V30 8103 H 772.374 5.44449 -0.909883 0
M  V30 8104 H 774.85 4.13087 0.499818 0
M  V30 8105 H 773.726 5.37804 1.09808 0
M  V30 8106 H 773.987 3.92057 2.04314 0
M  V30 8107 N 773.046 0.209999 1.56195 0
M  V30 8108 C 774.286 -0.4268 1.99894 0
M  V30 8109 C 774.65 -1.57763 1.0943 0
M  V30 8110 O 775.851 -2.27964 1.42428 0
M  V30 8111 C 774.122 -0.861188 3.46869 0
M  V30 8112 S 775.681 -1.49372 4.12593 0
M  V30 8113 H 772.499 -0.135922 0.697887 0
M  V30 8114 H 775.101 0.316573 1.9292 0
M  V30 8115 H 773.805 -0.0137653 4.10398 0
M  V30 8116 H 773.336 -1.63766 3.57693 0
M  V30 8117 H 775.351 -2.7827 4.10829 0
M  V30 8118 N 774.524 -1.57472 -0.0634922 0
M  V30 8119 C 775.434 -2.07621 -1.09227 0
M  V30 8120 C 776.45 -1.00746 -1.41867 0
M  V30 8121 O 777.626 -1.32269 -1.51878 0
M  V30 8122 C 774.691 -2.51707 -2.38421 0
M  V30 8123 C 773.752 -3.72917 -2.12676 0
M  V30 8124 C 772.985 -4.14891 -3.3571 0
M  V30 8125 O 773.208 -3.56663 -4.45137 0
M  V30 8126 O 772.142 -5.07616 -3.23434 0
M  V30 8127 H 775.968 -2.95612 -0.696205 0
M  V30 8128 H 773.553 -1.46787 -0.27819 0
M  V30 8129 H 775.435 -2.80547 -3.14438 0
M  V30 8130 H 774.11 -1.66842 -2.77391 0
M  V30 8131 H 773.017 -3.49148 -1.34337 0
M  V30 8132 H 774.35 -4.5866 -1.78583 0
M  V30 8133 N 776.003 0.335068 -1.53997 0
M  V30 8134 C 777.233 1.0926 -1.75345 0
M  V30 8135 C 777.641 1.82568 -0.496545 0
M  V30 8136 O 776.984 1.75525 0.541897 0
M  V30 8137 C 777.046 2.14473 -2.88516 0
M  V30 8138 C 776.71 1.60665 -4.27827 0
M  V30 8139 C 777.707 1.05448 -5.09094 0
M  V30 8140 C 775.392 1.65255 -4.74337 0
M  V30 8141 C 777.386 0.555372 -6.34976 0
M  V30 8142 C 775.073 1.14956 -6.0019 0
M  V30 8143 C 776.071 0.601907 -6.80343 0
M  V30 8144 O 775.759 0.106445 -8.0383 0
M  V30 8145 H 775.491 0.331329 -0.589234 0
M  V30 8146 H 778.045 0.39042 -2.01655 0
M  V30 8147 H 776.275 2.88274 -2.5775 0
M  V30 8148 H 777.964 2.75857 -2.97755 0
M  V30 8149 H 778.73 1.01218 -4.74321 0
M  V30 8150 H 774.609 2.06822 -4.12002 0
M  V30 8151 H 778.153 0.127245 -6.97484 0
M  V30 8152 H 774.05 1.18891 -6.34457 0
M  V30 8153 H 774.818 0.222944 -8.18196 0
M  V30 8154 N 777.481 1.45874 0.596531 0
M  V30 8155 C 778.892 1.44798 1.17857 0
M  V30 8156 C 779.243 0.181443 1.95359 0
M  V30 8157 O 778.368 -0.716336 2.042 0
M  V30 8158 C 778.963 2.62333 2.14398 0
M  V30 8159 C 777.522 2.64342 2.67955 0
M  V30 8160 C 776.669 2.37244 1.43564 0
M  V30 8161 H 779.62 1.53954 0.385222 0
M  V30 8162 H 779.641 2.37063 2.97626 0
M  V30 8163 H 779.153 3.54499 1.57963 0
M  V30 8164 H 777.254 1.76213 3.28298 0
M  V30 8165 H 777.367 3.63897 3.11634 0
M  V30 8166 H 775.731 1.87022 1.72901 0
M  V30 8167 H 776.514 3.31568 0.889805 0
M  V30 8168 N 778.959 -0.83999 1.33349 0
M  V30 8169 C 780.236 -1.57973 1.15342 0
M  V30 8170 C 780.616 -2.09226 -0.280632 0
M  V30 8171 O 779.964 -1.89317 -1.2795 0
M  V30 8172 C 780.174 -2.71446 2.19359 0
M  V30 8173 C 781.522 -3.40654 2.53456 0
M  V30 8174 O 782.546 -2.81686 2.18017 0
M  V30 8175 O 781.405 -4.47101 3.14266 0
M  V30 8176 H 778.499 -0.6964 0.446044 0
M  V30 8177 H 781.045 -0.882843 1.44927 0
M  V30 8178 H 779.817 -2.31205 3.1569 0
M  V30 8179 H 779.44 -3.488 1.90852 0
M  V30 8180 N 780.437 -1.16799 -1.0581 0
M  V30 8181 C 781.685 -0.950642 -1.78346 0
M  V30 8182 C 782.006 0.522524 -1.87869 0
M  V30 8183 O 781.276 1.3795 -1.39092 0
M  V30 8184 H 779.856 -0.348736 -0.6606 0
M  V30 8185 H 782.518 -1.47158 -1.27791 0
M  V30 8186 H 781.614 -1.37359 -2.80248 0
M  V30 8187 N 781.915 1.24427 -0.967243 0
M  V30 8188 C 783.143 1.96541 -0.646477 0
M  V30 8189 C 783.558 1.71753 0.783996 0
M  V30 8190 O 782.915 1.00102 1.52597 0
M  V30 8191 C 782.966 3.4983 -0.911098 0
M  V30 8192 O 782.687 3.7377 -2.28534 0
M  V30 8193 C 784.188 4.3916 -0.604458 0
M  V30 8194 H 781.408 0.626129 -0.241255 0
M  V30 8195 H 783.952 1.58268 -1.29505 0
M  V30 8196 H 782.107 3.86168 -0.308741 0
M  V30 8197 H 782.521 4.68154 -2.365 0
M  V30 8198 H 783.995 5.4557 -0.840069 0
M  V30 8199 H 784.472 4.36771 0.461273 0
M  V30 8200 H 785.078 4.08409 -1.1867 0
M  V30 8201 N 783.393 0.737304 1.3929 0
M  V30 8202 C 784.34 0.0988364 2.30588 0
M  V30 8203 C 785.31 -0.727206 1.49335 0
M  V30 8204 O 786.495 -0.686694 1.78014 0
M  V30 8205 C 783.635 -0.800734 3.35682 0
M  V30 8206 C 782.748 0.0381731 4.31983 0
M  V30 8207 C 781.883 -0.862884 5.24145 0
M  V30 8208 C 780.922 -0.0193639 6.12097 0
M  V30 8209 N 780.059 -0.87648 6.96608 0
M  V30 8210 H 784.899 0.883031 2.84617 0
M  V30 8211 H 782.436 0.447111 1.4014 0
M  V30 8212 H 784.394 -1.33676 3.95205 0
M  V30 8213 H 783.024 -1.55088 2.83103 0
M  V30 8214 H 782.076 0.691641 3.74059 0
M  V30 8215 H 783.388 0.690294 4.94 0
M  V30 8216 H 782.542 -1.46667 5.88705 0
M  V30 8217 H 781.281 -1.54878 4.62454 0
M  V30 8218 H 780.286 0.597202 5.46547 0
M  V30 8219 H 781.511 0.663348 6.75852 0
M  V30 8220 H 779.457 -1.54762 6.37483 0
M  V30 8221 H 779.374 -0.280892 7.55478 0
M  V30 8222 H 780.642 -1.46575 7.65595 0
M  V30 8223 N 784.871 -1.49948 0.485112 0
M  V30 8224 C 786.096 -2.073 -0.0645059 0
M  V30 8225 C 786.521 -1.345 -1.31497 0
M  V30 8226 O 785.879 -0.39687 -1.76903 0
M  V30 8227 C 785.927 -3.59201 -0.317304 0
M  V30 8228 O 785.031 -3.88085 -1.39514 0
M  V30 8229 H 784.372 -0.663723 0.0191822 0
M  V30 8230 H 786.902 -1.92963 0.680179 0
M  V30 8231 H 786.912 -4.04227 -0.553604 0
M  V30 8232 H 785.587 -4.11602 0.596387 0
M  V30 8233 H 784.164 -3.54885 -1.14504 0
M  V30 8234 N 786.349 -0.21828 -1.56081 0
M  V30 8235 C 787.279 0.687922 -2.23136 0
M  V30 8236 C 788.26 1.20357 -1.202 0
M  V30 8237 O 789.445 1.24817 -1.48776 0
M  V30 8238 C 786.575 1.89762 -2.90874 0
M  V30 8239 C 785.529 1.51595 -4.00254 0
M  V30 8240 C 784.855 2.80415 -4.55271 0
M  V30 8241 C 786.155 0.708404 -5.17474 0
M  V30 8242 H 787.849 0.128854 -2.99123 0
M  V30 8243 H 785.395 0.0605354 -1.43873 0
M  V30 8244 H 787.348 2.53699 -3.36474 0
M  V30 8245 H 786.072 2.4816 -2.1233 0
M  V30 8246 H 784.731 0.900058 -3.55379 0
M  V30 8247 H 784.379 3.36951 -3.73461 0
M  V30 8248 H 784.079 2.55613 -5.2909 0
M  V30 8249 H 785.603 3.453 -5.03587 0
M  V30 8250 H 787.017 1.2514 -5.59476 0
M  V30 8251 H 785.414 0.557593 -5.97504 0
M  V30 8252 H 786.484 -0.285679 -4.84058 0
M  V30 8253 N 787.827 1.57504 0.0551401 0
M  V30 8254 C 788.774 2.04825 1.06373 0
M  V30 8255 C 789.744 0.932108 1.37481 0
M  V30 8256 O 790.929 1.20093 1.48265 0
M  V30 8257 C 788.069 2.51091 2.36743 0
M  V30 8258 C 787.182 3.76392 2.12021 0
M  V30 8259 C 786.317 4.11373 3.36074 0
M  V30 8260 C 785.356 5.29666 3.0679 0
M  V30 8261 N 784.493 5.60205 4.2322 0
M  V30 8262 H 789.333 2.90753 0.653216 0
M  V30 8263 H 786.87 1.43776 0.310951 0
M  V30 8264 H 788.828 2.75973 3.12881 0
M  V30 8265 H 787.458 1.68118 2.75565 0
M  V30 8266 H 786.51 3.58751 1.26498 0
M  V30 8267 H 787.822 4.62662 1.86401 0
M  V30 8268 H 786.976 4.37245 4.20597 0
M  V30 8269 H 785.715 3.23704 3.64784 0
M  V30 8270 H 784.72 5.03574 2.20664 0
M  V30 8271 H 785.945 6.18968 2.79385 0
M  V30 8272 H 783.891 4.75495 4.5193 0
M  V30 8273 H 783.808 6.40928 4.00933 0
M  V30 8274 H 785.076 5.90637 5.08692 0
M  V30 8275 N 789.305 -0.326896 1.54172 0
M  V30 8276 C 790.235 -1.40741 1.86317 0
M  V30 8277 C 791.216 -1.54125 0.719684 0
M  V30 8278 O 792.401 -1.6806 0.973117 0
M  V30 8279 C 789.531 -2.77557 2.08757 0
M  V30 8280 C 788.485 -2.78965 3.24596 0
M  V30 8281 C 787.811 -4.18824 3.32401 0
M  V30 8282 C 789.111 -2.4301 4.62324 0
M  V30 8283 H 790.805 -1.14088 2.76811 0
M  V30 8284 H 788.351 -0.547389 1.3319 0
M  V30 8285 H 790.304 -3.53209 2.29829 0
M  V30 8286 H 789.028 -3.0568 1.15009 0
M  V30 8287 H 787.687 -2.05767 3.03406 0
M  V30 8288 H 787.335 -4.44083 2.36218 0
M  V30 8289 H 787.035 -4.20673 4.10253 0
M  V30 8290 H 788.559 -4.96294 3.55703 0
M  V30 8291 H 789.973 -3.08375 4.83299 0
M  V30 8292 H 788.37 -2.56116 5.42701 0
M  V30 8293 H 789.44 -1.38165 4.64799 0
M  V30 8294 N 790.784 -1.46188 -0.588786 0
M  V30 8295 C 792.032 -1.50885 -1.34455 0
M  V30 8296 C 792.353 -0.159555 -1.94346 0
M  V30 8297 O 791.623 0.813239 -1.78222 0
M  V30 8298 H 790.203 -0.555707 -0.499198 0
M  V30 8299 H 792.865 -1.82277 -0.690014 0
M  V30 8300 H 791.961 -2.25816 -2.15438 0
M  V30 8301 N 792.262 0.832906 -1.33792 0
M  V30 8302 C 793.539 1.57359 -1.16178 0
M  V30 8303 C 793.919 2.09372 0.269532 0
M  V30 8304 O 793.267 1.89993 1.26944 0
M  V30 8305 C 793.477 2.70279 -2.20795 0
M  V30 8306 C 794.825 3.39305 -2.55259 0
M  V30 8307 O 795.849 2.80526 -2.19508 0
M  V30 8308 O 794.708 4.45428 -3.16632 0
M  V30 8309 H 791.802 0.694025 -0.449731 0
M  V30 8310 H 794.348 0.875144 -1.45394 0
M  V30 8311 H 793.12 2.29527 -3.16911 0
M  V30 8312 H 792.743 3.47782 -1.927 0
M  V30 8313 N 793.74 1.17359 1.05189 0
M  V30 8314 C 794.987 0.961987 1.78191 0
M  V30 8315 C 795.315 -0.509363 1.87712 0
M  V30 8316 O 794.57 -1.39425 1.37329 0
M  V30 8317 C 794.869 1.54821 3.22126 0
M  V30 8318 C 794.535 3.04378 3.32663 0
M  V30 8319 C 793.197 3.45201 3.35246 0
M  V30 8320 C 795.549 4.00387 3.33677 0
M  V30 8321 C 792.877 4.80629 3.36471 0
M  V30 8322 C 795.229 5.35715 3.36441 0
M  V30 8323 C 793.893 5.76002 3.37311 0
M  V30 8324 H 793.163 0.352016 0.652047 0
M  V30 8325 H 795.81 1.46249 1.23627 0
M  V30 8326 H 794.115 0.969432 3.79617 0
M  V30 8327 H 795.812 1.36004 3.77232 0
M  V30 8328 H 792.402 2.71836 3.31366 0
M  V30 8329 H 796.586 3.69906 3.30882 0
M  V30 8330 H 791.842 5.11155 3.35455 0
M  V30 8331 H 796.016 6.09886 3.36173 0
M  V30 8332 H 793.643 6.80919 3.38013 0
M  V30 8333 N 795.218 -1.23913 0.973828 0
M  V30 8334 C 796.466 -1.91771 0.637817 0
M  V30 8335 C 796.787 -1.76434 -0.830435 0
M  V30 8336 O 796.057 -1.13965 -1.59339 0
M  V30 8337 H 794.637 -0.709761 0.232912 0
M  V30 8338 H 797.299 -1.50677 1.23622 0
M  V30 8339 H 796.395 -2.99327 0.883731 0
M  V30 8340 N 796.696 -0.74468 -1.38897 0
M  V30 8341 C 797.626 -0.126355 -2.33158 0
M  V30 8342 C 798.607 0.713517 -1.54412 0
M  V30 8343 O 799.792 0.656523 -1.82766 0
M  V30 8344 C 796.922 0.774375 -3.38557 0
M  V30 8345 C 795.876 0.0379214 -4.27983 0
M  V30 8346 C 795.202 1.05631 -5.24162 0
M  V30 8347 C 796.502 -1.12523 -5.10035 0
M  V30 8348 H 798.196 -0.913744 -2.85116 0
M  V30 8349 H 795.742 -0.440847 -1.37086 0
M  V30 8350 H 797.695 1.21655 -4.03458 0
M  V30 8351 H 796.419 1.59399 -2.85061 0
M  V30 8352 H 795.078 -0.384733 -3.64576 0
M  V30 8353 H 794.726 1.86975 -4.66958 0
M  V30 8354 H 794.426 0.568261 -5.84846 0
M  V30 8355 H 795.95 1.49799 -5.9194 0
M  V30 8356 H 797.364 -0.761037 -5.68226 0
M  V30 8357 H 795.761 -1.54355 -5.79909 0
M  V30 8358 H 796.831 -1.94237 -4.44297 0
M  V30 8359 N 798.174 1.49689 -0.493057 0
M  V30 8360 C 799.137 2.27502 0.278485 0
M  V30 8361 C 800.137 1.33184 0.901037 0
M  V30 8362 O 801.327 1.56415 0.766801 0
M  V30 8363 C 798.459 3.10881 1.39878 0
M  V30 8364 H 799.652 2.97163 -0.404219 0
M  V30 8365 H 797.205 1.54324 -0.247774 0
M  V30 8366 H 797.94 2.45767 2.11587 0
M  V30 8367 H 797.725 3.80219 0.957924 0
M  V30 8368 H 799.215 3.69673 1.94247 0
M  V30 8369 N 799.652 0.226554 1.55963 0
M  V30 8370 C 800.88 -0.408507 2.02827 0
M  V30 8371 C 801.295 -1.52994 1.10627 0
M  V30 8372 O 800.652 -1.82126 0.116809 0
M  V30 8373 C 800.703 -0.93545 3.49187 0
M  V30 8374 O 800.424 0.141273 4.37872 0
M  V30 8375 C 801.925 -1.64325 4.11719 0
M  V30 8376 H 799.145 -0.099442 0.66359 0
M  V30 8377 H 801.689 0.344471 2.01578 0
M  V30 8378 H 799.844 -1.63868 3.51036 0
M  V30 8379 H 800.258 -0.25558 5.23877 0
M  V30 8380 H 801.732 -1.9639 5.15883 0
M  V30 8381 H 802.209 -2.55815 3.57009 0
M  V30 8382 H 802.815 -0.9851 4.13734 0
M  V30 8383 N 801.13 -1.57531 -0.0467866 0
M  V30 8384 C 802.376 -1.8873 -0.742218 0
M  V30 8385 C 802.709 -0.822084 -1.75941 0
M  V30 8386 O 801.984 0.164922 -1.938 0
M  V30 8387 C 802.267 -3.30586 -1.42776 0
M  V30 8388 C 802.12 -4.47785 -0.425285 0
M  V30 8389 C 803.439 -3.71068 -2.36636 0
M  V30 8390 H 800.558 -0.686406 -0.268359 0
M  V30 8391 H 803.2 -1.89999 -0.00511341 0
M  V30 8392 H 801.35 -3.29634 -2.05605 0
M  V30 8393 H 803.022 -4.60867 0.199721 0
M  V30 8394 H 801.265 -4.33037 0.25713 0
M  V30 8395 H 801.936 -5.43884 -0.943086 0
M  V30 8396 H 804.412 -3.73273 -1.83866 0
M  V30 8397 H 803.288 -4.71165 -2.81593 0
M  V30 8398 H 803.549 -3.02355 -3.22542 0
M  V30 8399 N 802.608 0.318715 -1.54344 0
M  V30 8400 C 803.854 1.05765 -1.73037 0
M  V30 8401 C 804.187 1.87514 -0.505181 0
M  V30 8402 O 803.462 1.88021 0.497838 0
M  V30 8403 C 803.745 1.97836 -3.00887 0
M  V30 8404 C 803.598 1.19384 -4.33668 0
M  V30 8405 C 804.917 2.97285 -3.24514 0
M  V30 8406 H 802.036 0.383104 -0.629603 0
M  V30 8407 H 804.678 0.333864 -1.87044 0
M  V30 8408 H 802.828 2.59552 -2.89076 0
M  V30 8409 H 804.5 0.600906 -4.57369 0
M  V30 8410 H 802.743 0.496198 -4.30953 0
M  V30 8411 H 803.414 1.87014 -5.19355 0
M  V30 8412 H 805.89 2.45693 -3.35819 0
M  V30 8413 H 804.766 3.58887 -4.15321 0
M  V30 8414 H 805.027 3.70003 -2.41971 0
M  V30 8415 N 804.086 1.46499 0.581025 0
M  V30 8416 C 804.996 1.59778 1.71779 0
M  V30 8417 C 806.012 0.481223 1.67213 0
M  V30 8418 O 807.188 0.74557 1.87091 0
M  V30 8419 C 804.253 1.58626 3.08283 0
M  V30 8420 C 803.314 2.81527 3.241 0
M  V30 8421 C 802.547 2.80421 4.54092 0
M  V30 8422 O 802.77 1.89262 5.38085 0
M  V30 8423 O 801.704 3.71984 4.73193 0
M  V30 8424 H 805.53 2.55918 1.63523 0
M  V30 8425 H 803.115 1.29311 0.748267 0
M  V30 8426 H 804.997 1.60686 3.89561 0
M  V30 8427 H 803.672 0.656467 3.16973 0
M  V30 8428 H 802.579 2.85021 2.42309 0
M  V30 8429 H 803.912 3.73721 3.20302 0
M  V30 8430 N 805.565 -0.825799 1.34232 0
M  V30 8431 C 806.813 -1.57873 1.26177 0
M  V30 8432 C 807.134 -1.94267 -0.168904 0
M  V30 8433 O 806.404 -1.62045 -1.10084 0
M  V30 8434 H 804.984 -0.585388 0.464037 0
M  V30 8435 H 807.646 -0.986163 1.6811 0
M  V30 8436 H 806.742 -2.50283 1.86453 0
M  V30 8437 N 807.043 -1.17915 -1.04565 0
M  V30 8438 C 808.454 -0.976383 -1.59134 0
M  V30 8439 C 808.805 0.475267 -1.90357 0
M  V30 8440 O 807.93 1.35172 -1.6899 0
M  V30 8441 C 808.525 -1.76604 -2.89131 0
M  V30 8442 C 807.084 -1.60777 -3.40335 0
M  V30 8443 C 806.231 -1.76369 -2.13985 0
M  V30 8444 H 809.182 -1.32532 -0.872985 0
M  V30 8445 H 809.203 -1.25215 -3.59307 0
M  V30 8446 H 808.715 -2.82252 -2.66375 0
M  V30 8447 H 806.816 -0.576436 -3.68114 0
M  V30 8448 H 806.929 -2.40268 -4.14497 0
M  V30 8449 H 805.293 -1.19268 -2.25049 0
M  V30 8450 H 806.076 -2.83441 -1.9369 0
M  V30 8451 N 808.521 1.23394 -0.980386 0
M  V30 8452 C 809.451 2.2717 -0.540024 0
M  V30 8453 C 810.432 1.64659 0.426787 0
M  V30 8454 O 811.617 1.91543 0.320153 0
M  V30 8455 C 808.747 3.46939 0.15836 0
M  V30 8456 C 807.701 4.21802 -0.725732 0
M  V30 8457 C 807.027 5.34597 0.104866 0
M  V30 8458 C 808.327 4.81802 -2.01654 0
M  V30 8459 H 810.021 2.64257 -1.40743 0
M  V30 8460 H 807.567 1.2703 -0.678193 0
M  V30 8461 H 809.52 4.18683 0.477737 0
M  V30 8462 H 808.244 3.08912 1.06022 0
M  V30 8463 H 806.903 3.51875 -1.02857 0
M  V30 8464 H 806.551 4.92812 1.00726 0
M  V30 8465 H 806.251 5.85607 -0.483557 0
M  V30 8466 H 807.775 6.09163 0.418624 0
M  V30 8467 H 809.189 5.45554 -1.76193 0
M  V30 8468 H 807.586 5.43098 -2.55273 0
M  V30 8469 H 808.656 4.02549 -2.70338 0
M  V30 8470 N 809.999 0.752036 1.385 0
M  V30 8471 C 811.229 0.317812 2.04141 0
M  V30 8472 C 811.637 -1.05822 1.56839 0
M  V30 8473 O 810.98 -1.68311 0.736016 0
M  V30 8474 C 811.042 0.260205 3.58557 0
M  V30 8475 C 810.706 1.57753 4.28909 0
M  V30 8476 C 811.703 2.52642 4.54387 0
M  V30 8477 C 809.388 1.84653 4.67128 0
M  V30 8478 C 811.382 3.72653 5.17116 0
M  V30 8479 C 809.069 3.04938 5.29581 0
M  V30 8480 C 810.067 3.98759 5.54509 0
M  V30 8481 O 809.755 5.16929 6.15662 0
M  V30 8482 H 809.487 0.133931 0.6626 0
M  V30 8483 H 812.041 1.02138 1.78205 0
M  V30 8484 H 810.271 -0.499596 3.83459 0
M  V30 8485 H 811.96 -0.144295 4.05643 0
M  V30 8486 H 812.726 2.33135 4.25292 0
M  V30 8487 H 808.605 1.12464 4.47071 0
M  V30 8488 H 812.149 4.45898 5.36489 0
M  V30 8489 H 808.046 3.24339 5.58099 0
M  V30 8490 H 808.814 5.1749 6.3415 0
M  V30 8491 N 811.477 -1.49425 0.500989 0
M  V30 8492 C 812.705 -2.06861 -0.0403443 0
M  V30 8493 C 813.12 -1.36132 -1.30819 0
M  V30 8494 O 812.477 -0.439647 -1.77125 0
M  V30 8495 C 812.528 -3.6027 -0.297902 0
M  V30 8496 O 812.249 -4.28338 0.919686 0
M  V30 8497 C 813.75 -4.34419 -0.882876 0
M  V30 8498 H 810.97 -0.670688 0.0204619 0
M  V30 8499 H 813.514 -1.92207 0.698342 0
M  V30 8500 H 811.669 -3.74627 -0.98657 0
M  V30 8501 H 812.083 -5.2004 0.682528 0
M  V30 8502 H 813.557 -5.42631 -1.01268 0
M  V30 8503 H 814.034 -3.96898 -1.88066 0
M  V30 8504 H 814.64 -4.24669 -0.231677 0
M  V30 8505 N 812.955 -0.234822 -1.55841 0
M  V30 8506 C 814.201 0.393843 -1.98939 0
M  V30 8507 C 814.534 1.58466 -1.1226 0
M  V30 8508 O 813.809 1.93635 -0.183242 0
M  V30 8509 C 814.092 0.815492 -3.50745 0
M  V30 8510 C 813.945 -0.379878 -4.48193 0
M  V30 8511 C 815.264 1.66687 -4.07312 0
M  V30 8512 H 812.383 0.141681 -0.723253 0
M  V30 8513 H 815.025 -0.333716 -1.87046 0
M  V30 8514 H 813.175 1.43541 -3.6101 0
M  V30 8515 H 814.847 -1.0182 -4.49923 0
M  V30 8516 H 813.09 -1.02507 -4.21515 0
M  V30 8517 H 813.761 -0.0417069 -5.51984 0
M  V30 8518 H 816.237 1.14369 -4.00074 0
M  V30 8519 H 815.113 1.93078 -5.13821 0
M  V30 8520 H 815.374 2.63468 -3.55017 0
M  V30 8521 N 814.433 1.57553 0.0384317 0
M  V30 8522 C 815.673 1.90687 0.736069 0
M  V30 8523 C 816.037 0.832381 1.73019 0
M  V30 8524 O 817.238 1.04777 2.47538 0
M  V30 8525 C 815.509 3.28994 1.39635 0
M  V30 8526 S 817.068 3.83944 2.12444 0
M  V30 8527 H 813.886 0.667799 0.244059 0
M  V30 8528 H 816.488 1.95498 -0.00901643 0
M  V30 8529 H 815.192 4.05067 0.659465 0
M  V30 8530 H 814.723 3.27463 2.18018 0
M  V30 8531 H 816.738 3.61916 3.39457 0
M  V30 8532 N 815.911 -0.310526 1.54511 0
M  V30 8533 C 817.159 -1.04484 1.72996 0
M  V30 8534 C 817.48 -1.88118 0.513479 0
M  V30 8535 O 816.75 -1.90119 -0.472384 0
M  V30 8536 H 815.33 -0.388747 0.637875 0
M  V30 8537 H 817.992 -0.343811 1.91844 0
M  V30 8538 H 817.088 -1.70341 2.61515 0
M  V30 8539 N 817.389 -1.46805 -0.573248 0
M  V30 8540 C 818.617 -1.56191 -1.3569 0
M  V30 8541 C 819.032 -0.206362 -1.87669 0
M  V30 8542 O 818.389 0.797883 -1.64134 0
M  V30 8543 C 818.44 -2.57433 -2.53792 0
M  V30 8544 O 818.161 -3.87724 -2.03965 0
M  V30 8545 C 819.662 -2.76851 -3.4622 0
M  V30 8546 H 816.882 -0.527907 -0.414192 0
M  V30 8547 H 819.426 -1.92292 -0.695989 0
M  V30 8548 H 817.581 -2.24311 -3.15854 0
M  V30 8549 H 817.995 -4.42909 -2.80948 0
M  V30 8550 H 819.469 -3.5159 -4.25545 0
M  V30 8551 H 819.946 -1.84095 -3.98755 0
M  V30 8552 H 820.552 -3.11107 -2.89987 0
M  V30 8553 N 818.867 0.818669 -1.34668 0
M  V30 8554 C 820.278 1.39177 -1.24446 0
M  V30 8555 C 820.629 1.9578 0.128268 0
M  V30 8556 O 819.754 1.90382 1.02877 0
M  V30 8557 C 820.349 2.53012 -2.25323 0
M  V30 8558 C 818.908 3.06218 -2.18878 0
M  V30 8559 C 818.055 1.79112 -2.11694 0
M  V30 8560 H 821.006 0.622709 -1.45973 0
M  V30 8561 H 821.027 3.31226 -1.8727 0
M  V30 8562 H 820.539 2.11784 -3.25221 0
M  V30 8563 H 818.64 3.51939 -1.22351 0
M  V30 8564 H 818.753 3.65019 -3.10319 0
M  V30 8565 H 817.117 2.0018 -1.57481 0
M  V30 8566 H 817.9 1.40053 -3.13433 0
M  V30 8567 N 820.346 1.18468 1.03938 0
M  V30 8568 C 821.574 1.00576 1.80809 0
M  V30 8569 C 821.989 -0.445786 1.83462 0
M  V30 8570 O 821.346 -1.30964 1.27101 0
M  V30 8571 C 821.397 1.55491 3.26351 0
M  V30 8572 O 821.118 2.94963 3.23926 0
M  V30 8573 C 822.619 1.42236 4.19862 0
M  V30 8574 H 819.839 0.35508 0.56935 0
M  V30 8575 H 822.383 1.57046 1.30984 0
M  V30 8576 H 820.538 1.03195 3.73403 0
M  V30 8577 H 820.952 3.20598 4.15111 0
M  V30 8578 H 822.426 1.85455 5.19914 0
M  V30 8579 H 822.903 0.371267 4.37628 0
M  V30 8580 H 823.509 1.9361 3.78675 0
M  V30 8581 N 821.824 -1.22873 0.986916 0
M  V30 8582 C 823.054 -1.95204 0.67668 0
M  V30 8583 C 823.462 -1.73193 -0.761641 0
M  V30 8584 O 822.805 -1.0243 -1.52492 0
M  V30 8585 C 822.867 -3.48173 0.895302 0
M  V30 8586 C 822.531 -3.93912 2.31695 0
M  V30 8587 C 823.528 -4.02064 3.29607 0
M  V30 8588 C 821.213 -4.26722 2.64978 0
M  V30 8589 C 823.207 -4.42391 4.58878 0
M  V30 8590 C 820.894 -4.66729 3.94471 0
M  V30 8591 C 821.892 -4.74531 4.91232 0
M  V30 8592 O 821.58 -5.13636 6.18412 0
M  V30 8593 H 821.312 -0.628105 0.24992 0
M  V30 8594 H 823.866 -1.5714 1.32274 0
M  V30 8595 H 822.096 -3.86223 0.192072 0
M  V30 8596 H 823.785 -4.01717 0.581233 0
M  V30 8597 H 824.551 -3.76912 3.05225 0
M  V30 8598 H 820.43 -4.19858 1.9037 0
M  V30 8599 H 823.974 -4.48395 5.34404 0
M  V30 8600 H 819.871 -4.91332 4.18645 0
M  V30 8601 H 820.639 -5.31728 6.2226 0
M  V30 8602 N 823.302 -0.75937 -1.38099 0
M  V30 8603 C 824.548 -0.318584 -2.00282 0
M  V30 8604 C 824.881 1.09854 -1.60143 0
M  V30 8605 O 824.156 1.75344 -0.841702 0
M  V30 8606 C 824.439 -0.448047 -3.57302 0
M  V30 8607 C 824.292 -1.9067 -4.07388 0
M  V30 8608 C 825.611 0.155119 -4.39827 0
M  V30 8609 H 822.73 -0.117233 -0.727616 0
M  V30 8610 H 825.372 -0.960097 -1.63958 0
M  V30 8611 H 823.522 0.0981003 -3.88376 0
M  V30 8612 H 825.194 -2.5116 -3.86932 0
M  V30 8613 H 823.437 -2.41979 -3.6004 0
M  V30 8614 H 824.108 -1.94841 -5.1647 0
M  V30 8615 H 826.584 -0.31073 -4.14938 0
M  V30 8616 H 825.46 0.0343264 -5.48889 0
M  V30 8617 H 825.721 1.24407 -4.24235 0
M  V30 8618 N 824.78 1.49157 -0.508906 0
M  V30 8619 C 825.743 2.27784 0.25434 0
M  V30 8620 C 826.743 1.34132 0.88686 0
M  V30 8621 O 827.933 1.5722 0.750168 0
M  V30 8622 C 825.065 3.12347 1.36573 0
M  V30 8623 H 826.258 2.96718 -0.435714 0
M  V30 8624 H 823.811 1.54052 -0.264128 0
M  V30 8625 H 824.546 2.47997 2.08969 0
M  V30 8626 H 824.331 3.81213 0.917543 0
M  V30 8627 H 825.821 3.71712 1.90315 0
M  V30 8628 N 826.258 0.243083 1.55714 0
M  V30 8629 C 827.669 -0.260788 1.8487 0
M  V30 8630 C 828.02 -1.57879 1.16485 0
M  V30 8631 O 827.145 -2.1184 0.441908 0
M  V30 8632 C 827.74 -0.479954 3.35383 0
M  V30 8633 C 826.299 -0.928096 3.64778 0
M  V30 8634 C 825.446 -0.00316416 2.773 0
M  V30 8635 H 828.397 0.465743 1.51712 0
M  V30 8636 H 828.418 -1.32308 3.56756 0
M  V30 8637 H 827.93 0.479468 3.85127 0
M  V30 8638 H 826.031 -1.90012 3.20509 0
M  V30 8639 H 826.144 -0.7876 4.72582 0
M  V30 8640 H 824.508 -0.513849 2.49463 0
M  V30 8641 H 825.291 0.951562 3.29849 0
M  V30 8642 N 827.736 -1.57571 -0.0300757 0
M  V30 8643 C 828.646 -2.09892 -1.04798 0
M  V30 8644 C 829.662 -1.03732 -1.39698 0
M  V30 8645 O 830.838 -1.35461 -1.49038 0
M  V30 8646 C 827.903 -2.56707 -2.33028 0
M  V30 8647 C 826.964 -3.77345 -2.04718 0
M  V30 8648 C 826.197 -4.21918 -3.26834 0
M  V30 8649 O 826.42 -3.66025 -4.37472 0
M  V30 8650 O 825.354 -5.14362 -3.12594 0
M  V30 8651 H 829.18 -2.97023 -0.633344 0
M  V30 8652 H 826.765 -1.47344 -0.246991 0
M  V30 8653 H 828.647 -2.87154 -3.08417 0
M  V30 8654 H 827.322 -1.72688 -2.73789 0
M  V30 8655 H 826.229 -3.51919 -1.26901 0
M  V30 8656 H 827.562 -4.62345 -1.68813 0
M  V30 8657 N 829.214 0.302327 -1.54673 0
M  V30 8658 C 830.463 1.03533 -1.73101 0
M  V30 8659 C 830.776 1.88473 -0.523174 0
M  V30 8660 O 831.982 2.65029 -0.589229 0
M  V30 8661 C 830.438 1.89043 -3.06252 0
M  V30 8662 C 830.046 1.09112 -4.3451 0
M  V30 8663 C 831.79 2.61951 -3.34039 0
M  V30 8664 C 829.697 1.93891 -5.58713 0
M  V30 8665 H 828.627 0.390261 -0.645145 0
M  V30 8666 H 831.278 0.2924 -1.81155 0
M  V30 8667 H 829.66 2.67319 -2.92159 0
M  V30 8668 H 830.834 0.354596 -4.59434 0
M  V30 8669 H 829.149 0.477923 -4.13648 0
M  V30 8670 H 831.746 3.25729 -4.24033 0
M  V30 8671 H 832.089 3.30711 -2.52855 0
M  V30 8672 H 832.622 1.90725 -3.49097 0
M  V30 8673 H 829.361 1.29604 -6.4256 0
M  V30 8674 H 828.881 2.6522 -5.37976 0
M  V30 8675 H 830.56 2.51971 -5.95919 0
M  V30 8676 N 830.692 1.47107 0.565454 0
M  V30 8677 C 831.941 1.5257 1.31929 0
M  V30 8678 C 832.254 0.189092 1.94684 0
M  V30 8679 O 833.46 0.121657 2.71227 0
M  V30 8680 C 831.916 2.68914 2.39193 0
M  V30 8681 C 831.524 4.09069 1.82665 0
M  V30 8682 C 833.268 2.83663 3.1581 0
M  V30 8683 C 831.175 5.16726 2.87661 0
M  V30 8684 H 830.105 0.567869 0.496025 0
M  V30 8685 H 832.756 1.73361 0.60151 0
M  V30 8686 H 831.138 2.41486 3.13848 0
M  V30 8687 H 832.312 4.46364 1.14438 0
M  V30 8688 H 830.627 3.99135 1.1866 0
M  V30 8689 H 833.224 3.61261 3.94201 0
M  V30 8690 H 833.567 1.91804 3.69482 0
M  V30 8691 H 834.1 3.10821 2.48265 0
M  V30 8692 H 830.839 6.10433 2.38854 0
M  V30 8693 H 830.359 4.83957 3.54324 0
M  V30 8694 H 832.038 5.43319 3.51303 0
M  V30 8695 N 832.17 -0.811516 1.35101 0
M  V30 8696 C 833.133 -1.90467 1.27495 0
M  V30 8697 C 834.133 -1.59703 0.187516 0
M  V30 8698 O 835.323 -1.68528 0.440896 0
M  V30 8699 C 832.455 -3.26774 0.971154 0
M  V30 8700 H 833.648 -1.98631 2.2469 0
M  V30 8701 H 831.201 -1.00681 1.19553 0
M  V30 8702 H 831.936 -3.243 0.0028557 0
M  V30 8703 H 831.721 -3.50488 1.75785 0
M  V30 8704 H 833.211 -4.06804 0.943414 0
M  V30 8705 N 833.648 -1.19017 -1.03309 0
M  V30 8706 C 834.558 -0.939303 -2.14975 0
M  V30 8707 C 835.574 0.0992359 -1.73717 0
M  V30 8708 O 836.75 -0.0844362 -2.01223 0
M  V30 8709 C 833.815 -0.476712 -3.43407 0
M  V30 8710 C 832.876 -1.58413 -3.99003 0
M  V30 8711 C 832.109 -1.14352 -5.21305 0
M  V30 8712 O 832.332 -0.00534408 -5.704 0
M  V30 8713 O 831.266 -1.94436 -5.6963 0
M  V30 8714 H 835.092 -1.87386 -2.38998 0
M  V30 8715 H 832.677 -0.972635 -1.13403 0
M  V30 8716 H 834.559 -0.22718 -4.20787 0
M  V30 8717 H 833.234 0.429455 -3.20839 0
M  V30 8718 H 832.141 -1.88777 -3.22977 0
M  V30 8719 H 833.474 -2.4667 -4.25928 0
M  V30 8720 N 835.127 1.22348 -0.993418 0
M  V30 8721 C 836.355 1.95125 -0.688021 0
M  V30 8722 C 836.77 1.73377 0.747388 0
M  V30 8723 O 836.127 1.03317 1.50439 0
M  V30 8724 C 836.178 3.47819 -0.985097 0
M  V30 8725 O 835.899 3.68838 -2.3641 0
M  V30 8726 C 837.4 4.37779 -0.697474 0
M  V30 8727 H 834.62 0.62087 -0.254481 0
M  V30 8728 H 837.164 1.55485 -1.32833 0
M  V30 8729 H 835.319 3.85426 -0.390583 0
M  V30 8730 H 835.733 4.63032 -2.46377 0
M  V30 8731 H 837.207 5.43666 -0.955604 0
M  V30 8732 H 837.684 4.37651 0.368524 0
M  V30 8733 H 838.29 4.05799 -1.27306 0
M  V30 8734 N 836.605 0.766683 1.37694 0
M  V30 8735 C 837.853 0.328065 1.9942 0
M  V30 8736 C 838.174 -1.09775 1.61166 0
M  V30 8737 O 837.444 -1.75288 0.874686 0
M  V30 8738 H 836.024 0.11831 0.737572 0
M  V30 8739 H 838.686 0.983686 1.68255 0
M  V30 8740 H 837.782 0.401647 3.09505 0
M  V30 8741 N 838.083 -1.48885 0.516809 0
M  V30 8742 C 839.313 -2.06592 -0.018375 0
M  V30 8743 C 839.721 -1.37543 -1.29917 0
M  V30 8744 O 839.064 -0.452527 -1.78039 0
M  V30 8745 C 839.126 -3.58016 -0.326315 0
M  V30 8746 C 838.79 -4.48853 0.859072 0
M  V30 8747 C 839.787 -4.89422 1.75391 0
M  V30 8748 C 837.472 -4.90937 1.06235 0
M  V30 8749 C 839.466 -5.70831 2.83604 0
M  V30 8750 C 837.153 -5.72119 2.14763 0
M  V30 8751 C 838.151 -6.11972 3.03281 0
M  V30 8752 O 837.839 -6.91527 4.09934 0
M  V30 8753 H 837.571 -0.675559 0.0244023 0
M  V30 8754 H 840.125 -1.92442 0.718005 0
M  V30 8755 H 838.355 -3.70231 -1.1165 0
M  V30 8756 H 840.044 -3.97898 -0.801999 0
M  V30 8757 H 840.81 -4.57542 1.60875 0
M  V30 8758 H 836.689 -4.59409 0.382677 0
M  V30 8759 H 840.233 -6.01857 3.52724 0
M  V30 8760 H 836.13 -6.03412 2.29268 0
M  V30 8761 H 836.898 -7.0986 4.07482 0
M  V30 8762 N 839.561 -0.251338 -1.55583 0
M  V30 8763 C 840.809 0.371434 -1.98657 0
M  V30 8764 C 841.13 1.58143 -1.14087 0
M  V30 8765 O 840.4 1.94607 -0.224708 0
M  V30 8766 H 838.98 0.140225 -0.733721 0
M  V30 8767 H 841.642 -0.351157 -1.9171 0
M  V30 8768 H 840.738 0.677554 -3.04657 0
M  V30 8769 N 841.039 1.57585 0.0217189 0
M  V30 8770 C 841.969 2.10073 1.01939 0
M  V30 8771 C 842.95 1.0049 1.37243 0
M  V30 8772 O 844.135 1.28055 1.45999 0
M  V30 8773 C 841.265 2.58618 2.31806 0
M  V30 8774 C 840.219 3.72531 2.10724 0
M  V30 8775 C 839.545 4.07309 3.46415 0
M  V30 8776 C 840.845 5.00672 1.48743 0
M  V30 8777 H 842.539 2.9368 0.582432 0
M  V30 8778 H 840.085 1.41277 0.278715 0
M  V30 8779 H 842.038 2.9396 3.01936 0
M  V30 8780 H 840.762 1.72104 2.77575 0
M  V30 8781 H 839.421 3.37549 1.43025 0
M  V30 8782 H 839.069 3.17851 3.89846 0
M  V30 8783 H 838.769 4.84042 3.33132 0
M  V30 8784 H 840.293 4.45192 4.17895 0
M  V30 8785 H 841.707 5.33925 2.088 0
M  V30 8786 H 840.104 5.82065 1.46013 0
M  V30 8787 H 841.174 4.82769 0.45408 0
M  V30 8788 N 842.517 -0.29412 1.54831 0
M  V30 8789 C 843.464 -1.36296 1.86258 0
M  V30 8790 C 844.434 -1.50061 0.712097 0
M  V30 8791 O 845.619 -1.64809 0.961381 0
M  V30 8792 C 842.759 -2.72187 2.12151 0
M  V30 8793 C 841.872 -2.66816 3.39755 0
M  V30 8794 C 841.007 -3.94747 3.55455 0
M  V30 8795 C 840.046 -3.838 4.76827 0
M  V30 8796 N 839.183 -5.03521 4.89296 0
M  V30 8797 H 844.023 -1.08796 2.7743 0
M  V30 8798 H 841.56 -0.526069 1.37371 0
M  V30 8799 H 843.518 -3.51225 2.25159 0
M  V30 8800 H 842.148 -2.97934 1.24237 0
M  V30 8801 H 841.2 -1.79605 3.3533 0
M  V30 8802 H 842.512 -2.5462 4.28917 0
M  V30 8803 H 841.666 -4.82223 3.68166 0
M  V30 8804 H 840.405 -4.09785 2.64438 0
M  V30 8805 H 839.41 -2.94708 4.64141 0
M  V30 8806 H 840.635 -3.70301 5.69258 0
M  V30 8807 H 838.581 -5.1901 4.01204 0
M  V30 8808 H 838.498 -4.93775 5.72471 0
M  V30 8809 H 839.766 -5.92629 5.06371 0
M  V30 8810 N 843.995 -1.47404 -0.557645 0
M  V30 8811 C 845.241 -1.54235 -1.31679 0
M  V30 8812 C 845.574 -0.203782 -1.93128 0
M  V30 8813 O 844.849 0.787536 -1.77843 0
M  V30 8814 C 845.132 -2.66003 -2.42723 0
M  V30 8815 C 844.985 -4.09475 -1.86145 0
M  V30 8816 C 846.304 -2.73685 -3.44652 0
M  V30 8817 H 843.423 -0.561466 -0.477415 0
M  V30 8818 H 846.065 -1.79459 -0.624067 0
M  V30 8819 H 844.215 -2.44627 -3.01811 0
M  V30 8820 H 845.887 -4.42213 -1.31321 0
M  V30 8821 H 844.13 -4.17774 -1.16823 0
M  V30 8822 H 844.801 -4.83451 -2.66418 0
M  V30 8823 H 847.277 -2.92968 -2.95481 0
M  V30 8824 H 846.153 -3.53665 -4.19777 0
M  V30 8825 H 846.414 -1.80726 -4.03473 0
M  V30 8826 N 845.473 0.80434 -1.35529 0
M  V30 8827 C 846.75 1.5486 -1.1949 0
M  V30 8828 C 847.13 2.09897 0.22506 0
M  V30 8829 O 846.478 1.92643 1.22886 0
M  V30 8830 C 846.688 2.65535 -2.26478 0
M  V30 8831 C 848.036 3.33814 -2.62399 0
M  V30 8832 O 849.06 2.75807 -2.25409 0
M  V30 8833 O 847.919 4.38612 -3.26009 0
M  V30 8834 H 845.013 0.68433 -0.464351 0
M  V30 8835 H 847.559 0.844107 -1.47217 0
M  V30 8836 H 846.331 2.22754 -3.21709 0
M  V30 8837 H 845.954 3.43617 -2.00033 0
M  V30 8838 N 846.951 1.19563 1.02676 0
M  V30 8839 C 848.2 0.993864 1.75514 0
M  V30 8840 C 848.513 -0.475882 1.89723 0
M  V30 8841 O 849.719 -0.796525 2.59553 0
M  V30 8842 C 848.175 1.72937 3.15628 0
M  V30 8843 C 847.783 3.23937 3.09466 0
M  V30 8844 C 849.527 1.61092 3.92746 0
M  V30 8845 C 847.434 3.90067 4.44524 0
M  V30 8846 H 846.364 0.368244 0.657961 0
M  V30 8847 H 849.015 1.43081 1.14891 0
M  V30 8848 H 847.397 1.22025 3.76731 0
M  V30 8849 H 848.571 3.81983 2.57731 0
M  V30 8850 H 846.886 3.3608 2.45843 0
M  V30 8851 H 849.483 2.07848 4.92649 0
M  V30 8852 H 849.826 0.565415 4.12442 0
M  V30 8853 H 850.359 2.09361 3.3825 0
M  V30 8854 H 847.098 4.94725 4.30032 0
M  V30 8855 H 846.618 3.36809 4.96306 0
M  V30 8856 H 848.297 3.93736 5.13401 0
M  V30 8857 N 848.429 -1.21819 0.999893 0
M  V30 8858 C 849.675 -1.91325 0.690373 0
M  V30 8859 C 850.03 -1.76323 -0.769929 0
M  V30 8860 O 849.323 -1.12585 -1.55033 0
M  V30 8861 C 849.517 -3.4193 1.04012 0
M  V30 8862 C 849.346 -3.71585 2.53287 0
M  V30 8863 C 848.116 -3.91219 3.19806 0
M  V30 8864 C 850.314 -3.75502 3.5143 0
M  V30 8865 N 848.296 -4.08246 4.58485 0
M  V30 8866 C 849.667 -3.97753 4.75597 0
M  V30 8867 C 851.722 -3.58383 3.45638 0
M  V30 8868 C 850.425 -4.04662 5.94677 0
M  V30 8869 C 852.451 -3.66555 4.64103 0
M  V30 8870 C 851.813 -3.89263 5.87072 0
M  V30 8871 H 847.912 -0.720484 0.304018 0
M  V30 8872 H 850.496 -1.46595 1.28133 0
M  V30 8873 H 848.667 -3.85452 0.477671 0
M  V30 8874 H 850.399 -3.98846 0.685864 0
M  V30 8875 H 847.154 -3.88917 2.7026 0
M  V30 8876 H 847.578 -4.20673 5.30437 0
M  V30 8877 H 852.22 -3.39807 2.51576 0
M  V30 8878 H 849.938 -4.22039 6.89136 0
M  V30 8879 H 853.524 -3.54639 4.61218 0
M  V30 8880 H 852.404 -3.95424 6.77207 0
M  V30 8881 N 849.908 -0.773975 -1.37286 0
M  V30 8882 C 850.871 -0.167974 -2.28584 0
M  V30 8883 C 851.871 0.625662 -1.48129 0
M  V30 8884 O 853.061 0.448924 -1.68316 0
M  V30 8885 C 850.193 0.769364 -3.32105 0
M  V30 8886 H 851.386 -0.972806 -2.83684 0
M  V30 8887 H 848.939 -0.542335 -1.46589 0
M  V30 8888 H 849.674 1.59912 -2.82132 0
M  V30 8889 H 849.459 0.202419 -3.91577 0
M  V30 8890 H 850.949 1.18872 -4.00324 0
M  V30 8891 N 851.386 1.48609 -0.524698 0
M  V30 8892 C 852.349 2.28041 0.230166 0
M  V30 8893 C 853.349 1.35065 0.872584 0
M  V30 8894 O 854.539 1.58007 0.73345 0
M  V30 8895 C 851.671 3.13778 1.33252 0
M  V30 8896 H 852.864 2.96239 -0.467161 0
M  V30 8897 H 850.417 1.53763 -0.280452 0
M  V30 8898 H 851.152 2.502 2.06327 0
M  V30 8899 H 850.937 3.82165 0.877058 0
M  V30 8900 H 852.427 3.7371 1.86362 0
M  V30 8901 N 852.864 0.259585 1.55447 0
M  V30 8902 C 854.112 -0.360893 1.98852 0
M  V30 8903 C 854.433 -1.57535 1.14924 0
M  V30 8904 O 853.703 -1.94485 0.235025 0
M  V30 8905 H 852.283 -0.136332 0.734454 0
M  V30 8906 H 854.945 0.361319 1.91522 0
M  V30 8907 H 854.041 -0.661388 3.05012 0
M  V30 8908 N 854.342 -1.57594 -0.0133615 0
M  V30 8909 C 855.588 -1.90262 -0.702019 0
M  V30 8910 C 855.921 -0.859219 -1.74158 0
M  V30 8911 O 855.196 0.123778 -1.94106 0
M  V30 8912 C 855.479 -3.3354 -1.35732 0
M  V30 8913 C 855.332 -4.48586 -0.330208 0
M  V30 8914 C 856.651 -3.76004 -2.28712 0
M  V30 8915 H 853.77 -0.691943 -0.253739 0
M  V30 8916 H 856.412 -1.89967 0.0351894 0
M  V30 8917 H 854.562 -3.33921 -1.98567 0
M  V30 8918 H 856.234 -4.6034 0.297433 0
M  V30 8919 H 854.477 -4.32394 0.348926 0
M  V30 8920 H 855.148 -5.45762 -0.827508 0
M  V30 8921 H 857.624 -3.77089 -1.75906 0
M  V30 8922 H 856.5 -4.77032 -2.71535 0
M  V30 8923 H 856.761 -3.09129 -3.16056 0
M  V30 8924 N 855.82 0.285905 -1.54985 0
M  V30 8925 C 857.069 1.01691 -1.74189 0
M  V30 8926 C 857.382 1.87908 -0.543135 0
M  V30 8927 O 858.588 2.64389 -0.617305 0
M  V30 8928 C 857.044 1.85785 -3.0824 0
M  V30 8929 C 856.652 1.04497 -4.35642 0
M  V30 8930 C 858.396 2.58393 -3.36798 0
M  V30 8931 C 856.303 1.87955 -5.60738 0
M  V30 8932 H 855.233 0.383396 -0.649248 0
M  V30 8933 H 857.884 0.27317 -1.81455 0
M  V30 8934 H 856.266 2.64205 -2.94978 0
M  V30 8935 H 857.44 0.305847 -4.59784 0
M  V30 8936 H 855.755 0.434023 -4.14132 0
M  V30 8937 H 858.352 3.21214 -4.27464 0
M  V30 8938 H 858.695 3.28011 -2.56349 0
M  V30 8939 H 859.228 1.87012 -3.511 0
M  V30 8940 H 855.967 1.22781 -6.43898 0
M  V30 8941 H 855.487 2.59499 -5.40759 0
M  V30 8942 H 857.166 2.45636 -5.98558 0
M  V30 8943 N 857.298 1.47698 0.54982 0
M  V30 8944 C 858.526 1.5833 1.33188 0
M  V30 8945 C 858.941 0.236193 1.87317 0
M  V30 8946 O 858.298 -0.77167 1.65383 0
M  V30 8947 C 858.349 2.61438 2.49664 0
M  V30 8948 O 858.07 3.9092 1.97771 0
M  V30 8949 C 859.571 2.82324 3.41772 0
M  V30 8950 H 856.791 0.53443 0.405741 0
M  V30 8951 H 859.335 1.93375 0.665309 0
M  V30 8952 H 857.49 2.29307 3.12245 0
M  V30 8953 H 857.904 4.47323 2.73866 0
M  V30 8954 H 859.378 3.58316 4.19897 0
M  V30 8955 H 859.855 1.90416 3.95776 0
M  V30 8956 H 860.461 3.15682 2.85 0
M  V30 8957 N 858.776 -0.797141 1.35954 0
M  V30 8958 C 860.006 -1.5835 1.32698 0
M  V30 8959 C 860.414 -1.88959 -0.0955298 0
M  V30 8960 O 859.757 -1.49987 -1.06064 0
M  V30 8961 C 859.819 -2.93529 2.0756 0
M  V30 8962 C 859.483 -2.85688 3.56695 0
M  V30 8963 C 860.48 -2.58467 4.51099 0
M  V30 8964 C 858.165 -3.04508 3.99475 0
M  V30 8965 C 860.159 -2.50157 5.8626 0
M  V30 8966 C 857.846 -2.9582 5.34728 0
M  V30 8967 C 858.844 -2.68681 6.27933 0
M  V30 8968 O 858.532 -2.59973 7.60703 0
M  V30 8969 H 858.264 -0.49807 0.457059 0
M  V30 8970 H 860.818 -0.997889 1.79531 0
M  V30 8971 H 859.048 -3.54111 1.55378 0
M  V30 8972 H 860.737 -3.54744 1.9726 0
M  V30 8973 H 861.503 -2.43638 4.19363 0
M  V30 8974 H 857.382 -3.24641 3.27306 0
M  V30 8975 H 860.926 -2.28894 6.58979 0
M  V30 8976 H 856.823 -3.10211 5.66074 0
M  V30 8977 H 857.591 -2.75511 7.70737 0
M  V30 8978 N 860.254 -1.20106 -1.0204 0
M  V30 8979 C 861.503 -1.00316 -1.74985 0
M  V30 8980 C 861.816 0.465814 -1.89972 0
M  V30 8981 O 863.022 0.782749 -2.59972 0
M  V30 8982 C 861.478 -1.74608 -3.14706 0
M  V30 8983 C 861.086 -3.25573 -3.07744 0
M  V30 8984 C 862.83 -1.63172 -3.91887 0
M  V30 8985 C 860.737 -3.92419 -4.42449 0
M  V30 8986 H 859.667 -0.371728 -0.655999 0
M  V30 8987 H 862.318 -1.43688 -1.14131 0
M  V30 8988 H 860.7 -1.24021 -3.76078 0
M  V30 8989 H 861.874 -3.83345 -2.55702 0
M  V30 8990 H 860.189 -3.3738 -2.44057 0
M  V30 8991 H 862.786 -2.10457 -4.9154 0
M  V30 8992 H 863.129 -0.58728 -4.12137 0
M  V30 8993 H 863.662 -2.11152 -3.37135 0
M  V30 8994 H 860.401 -4.96998 -4.27403 0
M  V30 8995 H 859.921 -3.39436 -4.94513 0
M  V30 8996 H 861.6 -3.96453 -5.11306 0
M  V30 8997 N 861.732 1.21287 -1.00634 0
M  V30 8998 C 862.662 2.25973 -0.588089 0
M  V30 8999 C 863.643 1.65527 0.391764 0
M  V30 9000 O 864.828 1.92179 0.279452 0
M  V30 9001 C 861.958 3.47197 0.0847336 0
M  V30 9002 C 860.912 4.20168 -0.815039 0
M  V30 9003 C 860.238 5.34699 -0.00855393 0
M  V30 9004 C 861.538 4.77416 -2.11828 0
M  V30 9005 H 863.232 2.61212 -1.46317 0
M  V30 9006 H 860.778 1.25563 -0.704985 0
M  V30 9007 H 862.731 4.19602 0.388821 0
M  V30 9008 H 861.455 3.11092 0.994456 0
M  V30 9009 H 860.114 3.49614 -1.10297 0
M  V30 9010 H 859.762 4.94837 0.902499 0
M  V30 9011 H 859.462 5.84449 -0.607664 0
M  V30 9012 H 860.986 6.09914 0.289317 0
M  V30 9013 H 862.4 5.41694 -1.87725 0
M  V30 9014 H 860.797 5.37561 -2.66736 0
M  V30 9015 H 861.867 3.96724 -2.78816 0
M  V30 9016 N 863.21 0.781244 1.36873 0
M  V30 9017 C 864.14 0.188128 2.32741 0
M  V30 9018 C 865.121 -0.672326 1.56249 0
M  V30 9019 O 866.306 -0.607835 1.84442 0
M  V30 9020 C 863.436 -0.684341 3.40491 0
M  V30 9021 C 862.39 0.0755641 4.27933 0
M  V30 9022 C 861.716 -0.916968 5.26779 0
M  V30 9023 C 863.016 1.26006 5.06873 0
M  V30 9024 H 864.71 0.989016 2.82593 0
M  V30 9025 H 862.256 0.477038 1.35869 0
M  V30 9026 H 864.209 -1.10915 4.06541 0
M  V30 9027 H 862.933 -1.51785 2.89187 0
M  V30 9028 H 861.592 0.481258 3.63427 0
M  V30 9029 H 861.24 -1.74528 4.71751 0
M  V30 9030 H 860.94 -0.413 5.86147 0
M  V30 9031 H 862.464 -1.34052 5.95703 0
M  V30 9032 H 863.878 0.911425 5.66009 0
M  V30 9033 H 862.275 1.69676 5.75613 0
M  V30 9034 H 863.345 2.05948 4.38991 0
M  V30 9035 N 864.689 -1.48329 0.532571 0
M  V30 9036 C 865.929 -2.044 0.00145618 0
M  V30 9037 C 866.293 -1.40053 -1.31336 0
M  V30 9038 O 867.494 -1.87026 -1.93066 0
M  V30 9039 C 865.765 -3.57214 -0.115376 0
M  V30 9040 S 867.324 -4.34731 -0.59618 0
M  V30 9041 H 864.142 -0.710876 0.0133038 0
M  V30 9042 H 866.744 -1.82006 0.71372 0
M  V30 9043 H 865.448 -4.01579 0.846335 0
M  V30 9044 H 864.979 -3.84065 -0.85194 0
M  V30 9045 H 866.994 -4.6001 -1.86025 0
M  V30 9046 N 866.167 -0.267825 -1.55308 0
M  V30 9047 C 867.415 0.350343 -1.9904 0
M  V30 9048 C 867.736 1.56924 -1.15758 0
M  V30 9049 O 867.006 1.94358 -0.245336 0
M  V30 9050 H 865.586 0.132435 -0.735167 0
M  V30 9051 H 868.248 -0.371471 -1.91327 0
M  V30 9052 H 867.344 0.645203 -3.05358 0
M  V30 9053 N 867.645 1.57599 0.00500368 0
M  V30 9054 C 868.892 1.90349 0.690895 0
M  V30 9055 C 869.22 0.868045 1.74055 0
M  V30 9056 O 868.475 -0.127855 1.95282 0
M  V30 9057 C 868.774 3.29855 1.37588 0
M  V30 9058 C 868.44 4.48548 0.459906 0
M  V30 9059 C 867.102 4.80752 0.207693 0
M  V30 9060 C 869.454 5.20919 -0.171054 0
M  V30 9061 C 866.782 5.82701 -0.683855 0
M  V30 9062 C 869.134 6.23818 -1.05045 0
M  V30 9063 C 867.798 6.54481 -1.31189 0
M  V30 9064 H 867.068 0.696538 0.252816 0
M  V30 9065 H 869.715 1.91436 -0.0494495 0
M  V30 9066 H 868.02 3.24869 2.19015 0
M  V30 9067 H 869.717 3.52452 1.91255 0
M  V30 9068 H 866.307 4.23384 0.666648 0
M  V30 9069 H 870.491 4.96299 0.0107942 0
M  V30 9070 H 865.747 6.04822 -0.894467 0
M  V30 9071 H 869.921 6.79029 -1.54574 0
M  V30 9072 H 867.548 7.33299 -2.00442 0
M  V30 9073 N 869.123 -0.277682 1.55134 0
M  V30 9074 C 870.534 -0.849063 1.66276 0
M  V30 9075 C 870.885 -1.87223 0.5867 0
M  V30 9076 O 870.01 -2.14676 -0.272635 0
M  V30 9077 C 870.605 -1.54681 3.01429 0
M  V30 9078 C 869.164 -2.06628 3.14614 0
M  V30 9079 C 868.311 -0.906748 2.62056 0
M  V30 9080 H 871.262 -0.0541357 1.58608 0
M  V30 9081 H 871.283 -2.41356 2.94156 0
M  V30 9082 H 870.795 -0.80189 3.79725 0
M  V30 9083 H 868.896 -2.84095 2.41082 0
M  V30 9084 H 869.009 -2.2848 4.2111 0
M  V30 9085 H 867.373 -1.29882 2.19095 0
M  V30 9086 H 868.156 -0.175414 3.42852 0
M  V30 9087 N 870.601 -1.47988 -0.541979 0
M  V30 9088 C 872.012 -1.49073 -1.12402 0
M  V30 9089 C 872.363 -0.253825 -1.94551 0
M  V30 9090 O 871.488 0.640056 -2.06718 0
M  V30 9091 C 872.083 -2.7011 -2.04514 0
M  V30 9092 C 870.642 -2.74105 -2.5796 0
M  V30 9093 C 869.789 -2.42409 -1.3466 0
M  V30 9094 H 872.74 -1.55277 -0.327818 0
M  V30 9095 H 872.761 -2.47946 -2.88623 0
M  V30 9096 H 872.273 -3.60117 -1.44697 0
M  V30 9097 H 870.374 -1.88276 -3.21532 0
M  V30 9098 H 870.487 -3.75213 -2.97913 0
M  V30 9099 H 868.851 -1.9331 -1.65841 0
M  V30 9100 H 869.634 -3.34642 -0.766133 0
M  V30 9101 N 872.079 0.78992 -1.36375 0
M  V30 9102 C 873.326 1.54777 -1.30576 0
M  V30 9103 C 873.654 1.94159 0.115095 0
M  V30 9104 O 872.909 1.62918 1.08426 0
M  V30 9105 C 873.208 2.83698 -2.17371 0
M  V30 9106 C 872.874 2.63457 -3.65925 0
M  V30 9107 C 871.536 2.57645 -4.06415 0
M  V30 9108 C 873.888 2.44833 -4.60115 0
M  V30 9109 C 871.216 2.31174 -5.39236 0
M  V30 9110 C 873.568 2.19889 -5.93154 0
M  V30 9111 C 872.232 2.1251 -6.32768 0
M  V30 9112 H 871.502 0.566371 -0.477813 0
M  V30 9113 H 874.149 0.91138 -1.68422 0
M  V30 9114 H 872.454 3.51802 -1.72459 0
M  V30 9115 H 874.151 3.41487 -2.10209 0
M  V30 9116 H 870.741 2.68836 -3.33804 0
M  V30 9117 H 874.925 2.48325 -4.29707 0
M  V30 9118 H 870.181 2.23942 -5.68911 0
M  V30 9119 H 874.355 2.04473 -6.65705 0
M  V30 9120 H 871.982 1.91761 -7.35616 0
M  V30 9121 N 873.557 1.20646 1.01402 0
M  V30 9122 C 874.973 0.961866 1.27359 0
M  V30 9123 C 875.173 -0.357083 1.98311 0
M  V30 9124 O 874.229 -1.08498 2.28001 0
M  V30 9125 C 875.542 2.14627 2.10609 0
M  V30 9126 C 877.09 2.18753 2.23866 0
M  V30 9127 C 877.565 3.36686 3.10494 0
M  V30 9128 N 879.056 3.36716 3.18083 0
M  V30 9129 C 879.791 4.24615 3.85343 0
M  V30 9130 N 879.287 5.22697 4.54708 0
M  V30 9131 N 881.08 4.12449 3.81893 0
M  V30 9132 H 873.231 2.05481 0.537721 0
M  V30 9133 H 875.494 0.899292 0.299963 0
M  V30 9134 H 875.2 3.10159 1.65814 0
M  V30 9135 H 875.074 2.12935 3.11349 0
M  V30 9136 H 877.461 1.23782 2.67885 0
M  V30 9137 H 877.542 2.24492 1.22626 0
M  V30 9138 H 877.186 4.31945 2.67181 0
M  V30 9139 H 877.116 3.28185 4.11828 0
M  V30 9140 H 879.607 2.65728 2.68695 0
M  V30 9141 H 879.92 5.86087 5.03708 0
M  V30 9142 H 878.265 5.26631 4.53525 0
M  V30 9143 H 881.456 3.35091 3.26851 0
M  V30 9144 H 881.629 4.81162 4.34035 0
M  V30 9145 N 875.035 -1.20752 1.01276 0
M  V30 9146 C 876.26 -1.94547 0.718769 0
M  V30 9147 C 876.685 -1.7404 -0.713563 0
M  V30 9148 O 876.043 -1.03221 -1.49047 0
M  V30 9149 C 876.091 -3.44823 1.05497 0
M  V30 9150 O 875.195 -4.12072 0.164516 0
M  V30 9151 H 874.536 -0.607931 0.267051 0
M  V30 9152 H 877.066 -1.53292 1.35509 0
M  V30 9153 H 877.076 -3.95427 1.00507 0
M  V30 9154 H 875.751 -3.59072 2.09858 0
M  V30 9155 H 874.328 -3.71909 0.271615 0
M  V30 9156 N 876.513 -0.788492 -1.36457 0
M  V30 9157 C 877.423 -0.187385 -2.3385 0
M  V30 9158 C 878.439 0.659984 -1.60998 0
M  V30 9159 O 879.615 0.575986 -1.92988 0
M  V30 9160 C 876.68 0.668525 -3.40194 0
M  V30 9161 C 875.741 -0.197234 -4.28847 0
M  V30 9162 C 874.974 0.61792 -5.30111 0
M  V30 9163 O 875.197 1.85396 -5.3943 0
M  V30 9164 O 874.131 0.0183016 -6.01897 0
M  V30 9165 H 877.957 -0.992617 -2.87021 0
M  V30 9166 H 875.542 -0.549934 -1.3891 0
M  V30 9167 H 877.424 1.15663 -4.05216 0
M  V30 9168 H 876.099 1.45166 -2.89324 0
M  V30 9169 H 875.006 -0.73207 -3.66867 0
M  V30 9170 H 876.339 -0.943863 -4.83065 0
M  V30 9171 N 877.991 1.48044 -0.54043 0
M  V30 9172 C 878.939 2.31461 0.229862 0
M  V30 9173 C 879.933 1.41884 0.925495 0
M  V30 9174 O 881.139 1.58736 0.848689 0
M  V30 9175 H 877.514 0.746227 0.0929975 0
M  V30 9176 H 879.485 2.94297 -0.493118 0
M  V30 9177 C 878.234 3.24172 1.25729 0
M  V30 9178 H 877.557 3.93052 0.731426 0
M  V30 9179 H 878.997 3.85404 1.76747 0
M  V30 9180 C 877.456 2.4651 2.2964 0
M  V30 9181 O 877.986 2.19742 3.36268 0
M  V30 9182 N 876.192 2.07817 2.03127 0
M  V30 9183 H 875.739 2.29786 1.1643 0
M  V30 9184 H 875.697 1.56168 2.72872 0
M  V30 9185 N 879.47 0.276058 1.55163 0
M  V30 9186 C 880.418 -0.626978 2.2399 0
M  V30 9187 C 881.412 -1.15708 1.23725 0
M  V30 9188 O 882.618 -1.1106 1.41653 0
M  V30 9189 H 878.993 -0.220742 0.718872 0
M  V30 9190 H 880.964 -0.0236569 2.98391 0
M  V30 9191 C 879.713 -1.79935 2.97521 0
M  V30 9192 H 879.036 -1.40064 3.74463 0
M  V30 9193 H 880.476 -2.40781 3.48999 0
M  V30 9194 C 878.935 -2.68838 2.03046 0
M  V30 9195 O 879.465 -3.69224 1.58229 0
M  V30 9196 N 877.671 -2.36028 1.69527 0
M  V30 9197 H 877.218 -1.54442 2.06169 0
M  V30 9198 H 877.176 -2.95782 1.06586 0
M  V30 9199 N 880.948 -1.576 0.00335426 0
M  V30 9200 C 881.878 -2.11668 -0.985839 0
M  V30 9201 C 882.859 -1.02661 -1.35627 0
M  V30 9202 O 884.044 -1.30361 -1.43943 0
M  V30 9203 C 881.174 -2.62273 -2.27662 0
M  V30 9204 C 880.128 -3.75837 -2.0477 0
M  V30 9205 C 879.454 -4.12769 -3.39891 0
M  V30 9206 C 880.754 -5.02975 -1.40759 0
M  V30 9207 H 882.448 -2.9457 -0.535637 0
M  V30 9208 H 879.994 -1.41702 -0.256204 0
M  V30 9209 H 881.947 -2.98727 -2.97221 0
M  V30 9210 H 880.671 -1.76498 -2.74802 0
M  V30 9211 H 879.33 -3.39782 -1.37636 0
M  V30 9212 H 878.978 -3.24013 -3.8474 0
M  V30 9213 H 878.678 -4.89281 -3.25389 0
M  V30 9214 H 880.202 -4.51784 -4.1076 0
M  V30 9215 H 881.616 -5.37179 -2.00279 0
M  V30 9216 H 880.013 -5.84315 -1.36734 0
M  V30 9217 H 881.083 -4.83431 -0.377218 0
M  V30 9218 N 882.426 0.269451 -1.5528 0
M  V30 9219 C 883.358 1.35553 -1.84819 0
M  V30 9220 C 884.371 1.45369 -0.732914 0
M  V30 9221 O 885.56 1.47122 -1.0108 0
M  V30 9222 C 882.66 2.73645 -1.9993 0
M  V30 9223 C 881.833 2.86376 -3.30617 0
M  V30 9224 C 880.892 4.05165 -3.35749 0
M  V30 9225 O 879.918 3.95756 -4.09104 0
M  V30 9226 N 881.12 5.17297 -2.63408 0
M  V30 9227 H 883.885 1.10557 -2.78563 0
M  V30 9228 H 881.446 0.459566 -1.5524 0
M  V30 9229 H 883.438 3.51411 -2.00729 0
M  V30 9230 H 882.008 2.91448 -1.13035 0
M  V30 9231 H 881.228 1.95465 -3.42326 0
M  V30 9232 H 882.516 2.91815 -4.16799 0
M  V30 9233 H 881.914 5.2783 -2.03501 0
M  V30 9234 H 880.471 5.93281 -2.69927 0
M  V30 9235 N 883.904 1.48273 0.534124 0
M  V30 9236 C 884.814 1.65162 1.66609 0
M  V30 9237 C 885.83 0.534177 1.65598 0
M  V30 9238 O 887.006 0.804715 1.84625 0
M  V30 9239 C 884.071 1.68354 3.03081 0
M  V30 9240 C 883.132 2.91696 3.1498 0
M  V30 9241 C 882.365 2.94725 4.44941 0
M  V30 9242 O 882.588 2.06285 5.31792 0
M  V30 9243 O 881.522 3.8685 4.61119 0
M  V30 9244 H 885.348 2.60991 1.55298 0
M  V30 9245 H 882.933 1.31626 0.706749 0
M  V30 9246 H 884.815 1.72998 3.84252 0
M  V30 9247 H 883.49 0.756978 3.14725 0
M  V30 9248 H 882.397 2.92586 2.33119 0
M  V30 9249 H 883.73 3.83722 3.0825 0
M  V30 9250 N 885.382 -0.782676 1.36792 0
M  V30 9251 C 886.659 -1.52939 1.21939 0
M  V30 9252 C 887.039 -2.10228 -0.191639 0
M  V30 9253 O 886.387 -1.94574 -1.19805 0
M  V30 9254 C 886.597 -2.61898 2.30674 0
M  V30 9255 C 887.945 -3.29598 2.67676 0
M  V30 9256 O 888.969 -2.72186 2.29768 0
M  V30 9257 O 887.828 -4.3337 3.32946 0
M  V30 9258 H 884.922 -0.676856 0.47518 0
M  V30 9259 H 887.468 -0.82058 1.48542 0
M  V30 9260 H 886.24 -2.17607 3.25212 0
M  V30 9261 H 885.863 -3.40391 2.05475 0
M  V30 9262 N 886.86 -1.21182 -1.00761 0
M  V30 9263 C 887.79 -0.992773 -2.11344 0
M  V30 9264 C 888.771 0.0813618 -1.69905 0
M  V30 9265 O 889.956 -0.0779503 -1.94043 0
M  V30 9266 C 887.086 -0.553826 -3.42856 0
M  V30 9267 C 886.04 -1.57223 -3.98077 0
M  V30 9268 C 885.366 -0.989605 -5.25463 0
M  V30 9269 C 886.666 -2.95839 -4.30438 0
M  V30 9270 H 888.36 -1.91766 -2.29927 0
M  V30 9271 H 885.906 -0.923426 -1.10494 0
M  V30 9272 H 887.859 -0.387771 -4.19612 0
M  V30 9273 H 886.583 0.406702 -3.24058 0
M  V30 9274 H 885.242 -1.7258 -3.23437 0
M  V30 9275 H 884.89 -0.0208743 -5.02996 0
M  V30 9276 H 884.59 -1.66984 -5.63374 0
M  V30 9277 H 886.114 -0.834815 -6.04866 0
M  V30 9278 H 887.528 -2.8394 -4.98047 0
M  V30 9279 H 885.925 -3.60851 -4.79486 0
M  V30 9280 H 886.995 -3.46882 -3.38823 0
M  V30 9281 N 888.338 1.20213 -1.01915 0
M  V30 9282 C 889.585 1.89647 -0.709955 0
M  V30 9283 C 889.913 1.7901 0.760631 0
M  V30 9284 O 889.168 1.17028 1.56853 0
M  V30 9285 C 889.467 3.40232 -1.09438 0
M  V30 9286 C 889.133 3.7107 -2.5616 0
M  V30 9287 C 887.795 3.79196 -2.96249 0
M  V30 9288 C 890.147 3.85169 -3.51133 0
M  V30 9289 C 887.475 3.98882 -4.30244 0
M  V30 9290 C 889.827 4.06365 -4.8482 0
M  V30 9291 C 888.491 4.12722 -5.24611 0
M  V30 9292 H 887.761 0.693967 -0.259791 0
M  V30 9293 H 890.408 1.42419 -1.2802 0
M  V30 9294 H 888.713 3.89292 -0.442596 0
M  V30 9295 H 890.41 3.92257 -0.832811 0
M  V30 9296 H 887 3.65346 -2.24099 0
M  V30 9297 H 891.184 3.78243 -3.21319 0
M  V30 9298 H 886.44 4.02039 -4.60624 0
M  V30 9299 H 890.614 4.16216 -5.58334 0
M  V30 9300 H 888.241 4.27728 -6.28453 0
M  V30 9301 N 889.816 0.795718 1.36037 0
M  V30 9302 C 891.093 0.294743 1.93367 0
M  V30 9303 C 891.473 -1.21406 1.72696 0
M  V30 9304 O 890.821 -2.00849 1.08959 0
M  V30 9305 C 891.031 0.694254 3.42025 0
M  V30 9306 C 892.379 0.677566 4.19159 0
M  V30 9307 O 893.403 0.635119 3.50492 0
M  V30 9308 O 892.262 0.726127 5.41655 0
M  V30 9309 H 889.356 0.0745459 0.823633 0
M  V30 9310 H 891.902 0.878685 1.4518 0
M  V30 9311 H 890.674 1.73458 3.50753 0
M  V30 9312 H 890.297 0.0845338 3.9751 0
M  V30 9313 N 891.294 -1.47756 0.548274 0
M  V30 9314 C 892.226 -2.27921 -0.24177 0
M  V30 9315 C 893.239 -1.36471 -0.887658 0
M  V30 9316 O 894.428 -1.6137 -0.763016 0
M  V30 9317 C 891.528 -3.10449 -1.35922 0
M  V30 9318 C 890.701 -4.298 -0.811808 0
M  V30 9319 C 889.76 -4.93994 -1.81264 0
M  V30 9320 O 888.786 -5.52657 -1.3623 0
M  V30 9321 N 889.988 -4.87882 -3.14566 0
M  V30 9322 H 892.753 -2.96365 0.445848 0
M  V30 9323 H 890.314 -1.57286 0.383769 0
M  V30 9324 H 892.306 -3.50261 -2.02729 0
M  V30 9325 H 890.876 -2.44306 -1.95021 0
M  V30 9326 H 890.096 -3.94186 0.0327929 0
M  V30 9327 H 891.384 -5.0702 -0.425272 0
M  V30 9328 H 890.782 -4.41405 -3.53805 0
M  V30 9329 H 889.339 -5.3174 -3.76956 0
M  V30 9330 N 892.772 -0.284283 -1.55015 0
M  V30 9331 C 894.021 0.33055 -1.98973 0
M  V30 9332 C 894.334 1.56284 -1.17621 0
M  V30 9333 O 895.54 2.2512 -1.51767 0
M  V30 9334 C 893.996 0.639457 -3.54174 0
M  V30 9335 C 893.604 -0.573543 -4.44313 0
M  V30 9336 C 895.348 1.21641 -4.06699 0
M  V30 9337 C 893.255 -0.238715 -5.90918 0
M  V30 9338 H 892.185 0.127285 -0.743179 0
M  V30 9339 H 894.836 -0.390372 -1.793 0
M  V30 9340 H 893.218 1.41953 -3.69683 0
M  V30 9341 H 894.392 -1.3502 -4.40575 0
M  V30 9342 H 892.707 -1.06797 -4.02472 0
M  V30 9343 H 895.304 1.48088 -5.13784 0
M  V30 9344 H 895.647 2.15328 -3.56286 0
M  V30 9345 H 896.18 0.498422 -3.94665 0
M  V30 9346 H 892.919 -1.1437 -6.45445 0
M  V30 9347 H 892.439 0.500997 -5.97704 0
M  V30 9348 H 894.118 0.165774 -6.46788 0
M  V30 9349 N 894.251 1.57596 -0.0117121 0
M  V30 9350 C 895.181 2.12188 0.9746 0
M  V30 9351 C 896.162 1.03379 1.35081 0
M  V30 9352 O 897.347 1.31123 1.4325 0
M  V30 9353 C 894.477 2.63477 2.26268 0
M  V30 9354 C 893.431 3.76917 2.02774 0
M  V30 9355 C 892.757 4.14566 3.37697 0
M  V30 9356 C 894.057 5.03715 1.38089 0
M  V30 9357 H 895.751 2.9485 0.520007 0
M  V30 9358 H 893.297 1.41836 0.248685 0
M  V30 9359 H 895.25 3.00299 2.95633 0
M  V30 9360 H 893.974 1.77953 2.73862 0
M  V30 9361 H 892.633 3.40507 1.35832 0
M  V30 9362 H 892.281 3.26048 3.83016 0
M  V30 9363 H 891.981 4.91 3.22789 0
M  V30 9364 H 893.505 4.53956 4.08358 0
M  V30 9365 H 894.919 5.38233 1.97428 0
M  V30 9366 H 893.316 5.85032 1.33634 0
M  V30 9367 H 894.386 4.83624 0.351575 0
M  V30 9368 N 895.729 -0.261212 1.5542 0
M  V30 9369 C 896.692 -1.30645 1.8832 0
M  V30 9370 C 897.692 -1.41782 0.758588 0
M  V30 9371 O 898.882 -1.40729 1.02669 0
M  V30 9372 C 896.014 -2.6862 2.09895 0
M  V30 9373 H 897.207 -1.02698 2.81768 0
M  V30 9374 H 894.76 -0.499838 1.48092 0
M  V30 9375 H 895.495 -3.0173 1.18868 0
M  V30 9376 H 895.28 -2.61921 2.91787 0
M  V30 9377 H 896.77 -3.44121 2.36581 0
M  V30 9378 N 897.207 -1.48554 -0.526253 0
M  V30 9379 C 898.455 -1.56452 -1.27935 0
M  V30 9380 C 898.776 -0.24184 -1.93495 0
M  V30 9381 O 898.046 0.736917 -1.81511 0
M  V30 9382 H 896.626 -0.576379 -0.47518 0
M  V30 9383 H 899.288 -1.85039 -0.612083 0
M  V30 9384 H 898.384 -2.34751 -2.05666 0
M  V30 9385 N 898.685 0.775411 -1.37205 0
M  V30 9386 C 899.632 1.88857 -1.32671 0
M  V30 9387 C 900.602 1.64976 -0.192899 0
M  V30 9388 O 901.787 1.86944 -0.381673 0
M  V30 9389 C 898.927 3.25871 -1.13588 0
M  V30 9390 C 898.04 3.61731 -2.36167 0
M  V30 9391 C 897.175 4.87934 -2.09985 0
M  V30 9392 C 896.214 5.16514 -3.2845 0
M  V30 9393 N 895.351 6.33905 -3.01842 0
M  V30 9394 H 900.191 1.92068 -2.27846 0
M  V30 9395 H 897.728 0.939066 -1.13225 0
M  V30 9396 H 899.686 4.04903 -1.00546 0
M  V30 9397 H 898.316 3.22045 -0.220613 0
M  V30 9398 H 897.368 2.77712 -2.59962 0
M  V30 9399 H 898.68 3.78792 -3.24528 0
M  V30 9400 H 897.834 5.74863 -1.93953 0
M  V30 9401 H 896.573 4.7297 -1.18956 0
M  V30 9402 H 895.578 4.28063 -3.45025 0
M  V30 9403 H 896.803 5.33389 -4.20325 0
M  V30 9404 H 894.749 6.20306 -2.13439 0
M  V30 9405 H 894.666 6.51364 -3.83746 0
M  V30 9406 H 895.934 7.23779 -2.8942 0
M  V30 9407 N 900.163 1.21714 1.00117 0
M  V30 9408 C 901.093 1.00397 2.10815 0
M  V30 9409 C 902.074 -0.0723502 1.69946 0
M  V30 9410 O 903.259 0.0882398 1.93999 0
M  V30 9411 C 900.389 0.572001 3.42557 0
M  V30 9412 C 899.343 1.59331 3.97237 0
M  V30 9413 C 898.669 1.01746 5.2493 0
M  V30 9414 C 899.969 2.98117 4.28863 0
M  V30 9415 H 901.663 1.92983 2.28906 0
M  V30 9416 H 899.209 0.929273 1.10002 0
M  V30 9417 H 901.162 0.410018 4.19401 0
M  V30 9418 H 899.886 -0.38951 3.24269 0
M  V30 9419 H 898.545 1.74293 3.22518 0
M  V30 9420 H 898.193 0.0475491 5.02978 0
M  V30 9421 H 897.893 1.69969 5.62481 0
M  V30 9422 H 899.417 0.866881 6.04415 0
M  V30 9423 H 900.831 2.86578 4.96534 0
M  V30 9424 H 899.228 3.63389 4.77565 0
M  V30 9425 H 900.298 3.48674 3.36979 0
M  V30 9426 N 901.641 -1.19671 1.02551 0
M  V30 9427 C 902.551 -2.26441 0.613329 0
M  V30 9428 C 903.567 -1.70375 -0.353339 0
M  V30 9429 O 904.743 -2.0028 -0.212064 0
M  V30 9430 C 901.808 -3.46684 -0.0329028 0
M  V30 9431 C 900.869 -4.17945 0.980837 0
M  V30 9432 C 900.102 -5.32448 0.36535 0
M  V30 9433 O 900.325 -5.64291 -0.832596 0
M  V30 9434 O 899.259 -5.92012 1.08652 0
M  V30 9435 H 903.085 -2.63932 1.50246 0
M  V30 9436 H 900.67 -1.2646 0.795502 0
M  V30 9437 H 902.552 -4.1956 -0.393395 0
M  V30 9438 H 901.227 -3.1105 -0.896089 0
M  V30 9439 H 900.134 -3.47204 1.39286 0
M  V30 9440 H 901.467 -4.57542 1.81428 0
M  V30 9441 N 903.119 -0.802921 -1.35613 0
M  V30 9442 C 904.366 -0.381576 -1.98872 0
M  V30 9443 C 904.694 1.0503 -1.63704 0
M  V30 9444 O 903.949 1.7427 -0.890418 0
M  V30 9445 C 904.248 -0.507806 -3.53774 0
M  V30 9446 C 903.914 -1.90245 -4.088 0
M  V30 9447 C 902.576 -2.28401 -4.2354 0
M  V30 9448 C 904.928 -2.81504 -4.3864 0
M  V30 9449 C 902.256 -3.57192 -4.65436 0
M  V30 9450 C 904.608 -4.09737 -4.81973 0
M  V30 9451 C 903.272 -4.47897 -4.94919 0
M  V30 9452 H 902.542 -0.139629 -0.727726 0
M  V30 9453 H 905.189 -1.023 -1.61886 0
M  V30 9454 H 903.494 0.21708 -3.91198 0
M  V30 9455 H 905.191 -0.162625 -4.0067 0
M  V30 9456 H 901.781 -1.596 -3.97776 0
M  V30 9457 H 905.965 -2.53276 -4.26808 0
M  V30 9458 H 901.221 -3.86611 -4.73648 0
M  V30 9459 H 905.395 -4.80555 -5.04024 0
M  V30 9460 H 903.022 -5.47747 -5.27141 0
M  V30 9461 N 904.597 1.47463 -0.556102 0
M  V30 9462 C 906.008 1.86298 -0.122429 0
M  V30 9463 C 906.359 1.46285 1.30749 0
M  V30 9464 O 905.484 0.865405 1.98342 0
M  V30 9465 C 906.079 3.38115 -0.215407 0
M  V30 9466 C 904.638 3.76046 0.163223 0
M  V30 9467 C 903.785 2.71515 -0.563466 0
M  V30 9468 H 906.736 1.38996 -0.765888 0
M  V30 9469 H 906.757 3.76263 0.566271 0
M  V30 9470 H 906.269 3.67207 -1.25622 0
M  V30 9471 H 904.37 3.5257 1.20519 0
M  V30 9472 H 904.483 4.78705 -0.194568 0
M  V30 9473 H 902.847 2.54699 -0.00667879 0
M  V30 9474 H 903.63 3.03449 -1.60542 0
M  V30 9475 N 906.075 0.2925 1.54862 0
M  V30 9476 C 907.038 -0.574423 2.21885 0
M  V30 9477 C 908.038 -1.06791 1.20218 0
M  V30 9478 O 909.228 -0.9653 1.45009 0
M  V30 9479 C 906.36 -1.79438 2.89853 0
M  V30 9480 H 907.553 0.0110319 2.99898 0
M  V30 9481 H 905.106 0.043256 1.5624 0
M  V30 9482 H 905.841 -2.4199 2.15897 0
M  V30 9483 H 905.626 -1.44827 3.64373 0
M  V30 9484 H 907.116 -2.41048 3.41007 0
M  V30 9485 N 907.553 -1.57587 0.0200696 0
M  V30 9486 C 908.964 -1.79312 -0.520019 0
M  V30 9487 C 909.315 -0.929475 -1.72787 0
M  V30 9488 O 908.44 -0.137389 -2.15963 0
M  V30 9489 C 909.035 -3.25203 -0.950172 0
M  V30 9490 C 907.594 -3.47954 -1.43543 0
M  V30 9491 C 906.741 -2.74459 -0.395917 0
M  V30 9492 H 909.692 -1.56779 0.246153 0
M  V30 9493 H 909.713 -3.34418 -1.81508 0
M  V30 9494 H 909.225 -3.88035 -0.070883 0
M  V30 9495 H 907.326 -2.90363 -2.33495 0
M  V30 9496 H 907.439 -4.56661 -1.44905 0
M  V30 9497 H 905.803 -2.39669 -0.862022 0
M  V30 9498 H 906.586 -3.40001 0.47475 0
M  V30 9499 N 909.032 0.252966 -1.55557 0
M  V30 9500 C 910.262 0.998115 -1.8089 0
M  V30 9501 C 910.67 1.79679 -0.592623 0
M  V30 9502 O 910.013 1.78151 0.448093 0
M  V30 9503 C 910.075 1.98878 -2.99479 0
M  V30 9504 C 909.739 1.37761 -4.35742 0
M  V30 9505 C 910.736 0.783142 -5.13968 0
M  V30 9506 C 908.421 1.39879 -4.8243 0
M  V30 9507 C 910.415 0.218004 -6.37027 0
M  V30 9508 C 908.102 0.829801 -6.0544 0
M  V30 9509 C 909.1 0.240426 -6.82577 0
M  V30 9510 O 908.788 -0.319797 -8.03264 0
M  V30 9511 H 908.52 0.29963 -0.605969 0
M  V30 9512 H 911.074 0.282978 -2.03441 0
M  V30 9513 H 909.304 2.74206 -2.72669 0
M  V30 9514 H 910.993 2.59686 -3.11959 0
M  V30 9515 H 911.759 0.759326 -4.79019 0
M  V30 9516 H 907.638 1.84692 -4.22386 0
M  V30 9517 H 911.182 -0.242654 -6.97178 0
M  V30 9518 H 907.079 0.850924 -6.39867 0
M  V30 9519 H 907.847 -0.211078 -8.18228 0
M  V30 9520 N 910.51 1.48831 0.518367 0
M  V30 9521 C 911.756 1.58649 1.27287 0
M  V30 9522 C 912.111 0.262085 1.90607 0
M  V30 9523 O 911.404 -0.736154 1.76894 0
M  V30 9524 C 911.598 2.67003 2.3758 0
M  V30 9525 C 911.427 4.09851 1.85073 0
M  V30 9526 C 910.197 4.76852 1.67154 0
M  V30 9527 C 912.395 4.95646 1.37256 0
M  V30 9528 N 910.377 6.04075 1.09394 0
M  V30 9529 C 911.748 6.13208 0.915189 0
M  V30 9530 C 913.803 4.8178 1.25666 0
M  V30 9531 C 912.506 7.18431 0.353411 0
M  V30 9532 C 914.532 5.87136 0.708873 0
M  V30 9533 C 913.894 7.03914 0.261642 0
M  V30 9534 H 909.993 0.635017 0.456374 0
M  V30 9535 H 912.577 1.85763 0.583097 0
M  V30 9536 H 910.748 2.41691 3.04039 0
M  V30 9537 H 912.48 2.6644 3.04617 0
M  V30 9538 H 909.235 4.3337 1.91017 0
M  V30 9539 H 909.659 6.71955 0.824917 0
M  V30 9540 H 914.301 3.91826 1.58846 0
M  V30 9541 H 912.019 8.08099 0.00931313 0
M  V30 9542 H 915.605 5.78463 0.622221 0
M  V30 9543 H 914.485 7.84046 -0.155634 0
M  V30 9544 N 911.988 -0.768124 1.37614 0
M  V30 9545 C 913.265 -1.51637 1.23554 0
M  V30 9546 C 913.645 -2.1042 -0.169331 0
M  V30 9547 O 912.993 -1.95834 -1.17735 0
M  V30 9548 C 913.203 -2.59436 2.33439 0
M  V30 9549 C 914.551 -3.2674 2.71157 0
M  V30 9550 O 915.575 -2.69733 2.32642 0
M  V30 9551 O 914.434 -4.29814 3.37524 0
M  V30 9552 H 911.528 -0.671778 0.482332 0
M  V30 9553 H 914.074 -0.804779 1.49403 0
M  V30 9554 H 912.846 -2.14146 3.27502 0
M  V30 9555 H 912.469 -3.38192 2.09073 0
M  V30 9556 N 913.466 -1.22244 -0.994698 0
M  V30 9557 C 914.414 -0.988118 -2.10568 0
M  V30 9558 C 915.408 0.0681541 -1.69263 0
M  V30 9559 O 916.614 -0.0841311 -1.79803 0
M  V30 9560 H 912.989 -0.302343 -0.688544 0
M  V30 9561 H 914.96 -1.93091 -2.27505 0
M  V30 9562 C 913.709 -0.580557 -3.42819 0
M  V30 9563 H 913.032 -1.385 -3.75044 0
M  V30 9564 H 914.472 -0.456004 -4.21541 0
M  V30 9565 C 912.931 0.709692 -3.2934 0
M  V30 9566 O 913.461 1.76259 -3.60965 0
M  V30 9567 N 911.667 0.680155 -2.82528 0
M  V30 9568 H 911.214 -0.176977 -2.56991 0
M  V30 9569 H 911.172 1.54372 -2.73892 0
M  V30 9570 N 914.944 1.19125 -1.03184 0
M  V30 9571 C 916.193 1.8821 -0.725264 0
M  V30 9572 C 916.506 1.80674 0.749411 0
M  V30 9573 O 917.712 2.45037 1.16915 0
M  V30 9574 C 916.168 3.37607 -1.24697 0
M  V30 9575 C 915.776 3.53693 -2.74964 0
M  V30 9576 C 917.52 4.12149 -1.01652 0
M  V30 9577 C 915.427 4.97001 -3.20538 0
M  V30 9578 H 914.357 0.704916 -0.267599 0
M  V30 9579 H 917.008 1.34663 -1.24652 0
M  V30 9580 H 915.39 3.90569 -0.653614 0
M  V30 9581 H 916.564 3.11046 -3.39981 0
M  V30 9582 H 914.879 2.92544 -2.96322 0
M  V30 9583 H 917.476 5.17837 -1.33226 0
M  V30 9584 H 917.819 4.16274 0.0465712 0
M  V30 9585 H 918.352 3.65334 -1.57403 0
M  V30 9586 H 915.091 4.9804 -4.26189 0
M  V30 9587 H 914.611 5.40398 -2.60251 0
M  V30 9588 H 916.29 5.65669 -3.14049 0
M  V30 9589 N 916.422 0.810101 1.35185 0
M  V30 9590 C 917.65 0.404696 2.02903 0
M  V30 9591 C 918.065 -0.985434 1.61042 0
M  V30 9592 O 917.422 -1.63557 0.809658 0
M  V30 9593 C 917.473 0.482493 3.58266 0
M  V30 9594 O 917.194 1.81782 3.98606 0
M  V30 9595 C 918.695 0.070345 4.43244 0
M  V30 9596 H 915.915 0.163972 0.650657 0
M  V30 9597 H 918.459 1.0947 1.72733 0
M  V30 9598 H 916.614 -0.159296 3.87072 0
M  V30 9599 H 917.028 1.78306 4.93262 0
M  V30 9600 H 918.502 0.175888 5.5172 0
M  V30 9601 H 918.979 -0.984724 4.28018 0
M  V30 9602 H 919.585 0.685427 4.1974 0
M  V30 9603 N 917.9 -1.47166 0.563914 0
M  V30 9604 C 919.177 -1.95586 -0.0236172 0
M  V30 9605 C 919.557 -1.50655 -1.47872 0
M  V30 9606 O 918.905 -0.748479 -2.15894 0
M  V30 9607 C 919.115 -3.48762 0.128841 0
M  V30 9608 C 920.463 -4.24598 -0.0130544 0
M  V30 9609 O 921.487 -3.56155 0.0567242 0
M  V30 9610 O 920.346 -5.46253 -0.164332 0
M  V30 9611 H 917.44 -0.824793 -0.0603789 0
M  V30 9612 H 919.986 -1.57536 0.63091 0
M  V30 9613 H 918.758 -3.74291 1.14113 0
M  V30 9614 H 918.381 -3.93594 -0.56299 0
M  V30 9615 N 919.378 -0.300708 -1.54705 0
M  V30 9616 C 920.603 0.314073 -2.05008 0
M  V30 9617 C 921.028 1.46759 -1.17657 0
M  V30 9618 O 920.386 1.80398 -0.180598 0
M  V30 9619 C 920.434 0.748243 -3.52752 0
M  V30 9620 O 919.538 1.85305 -3.68424 0
M  V30 9621 H 918.879 0.0610139 -0.661191 0
M  V30 9622 H 921.409 -0.442467 -1.99758 0
M  V30 9623 H 921.419 1.03713 -3.94598 0
M  V30 9624 H 920.094 -0.095573 -4.1579 0
M  V30 9625 H 918.671 1.56473 -3.38483 0
M  V30 9626 N 920.856 1.57574 -0.0284266 0
M  V30 9627 C 921.819 2.09096 0.938691 0
M  V30 9628 C 922.819 1.00588 1.25454 0
M  V30 9629 O 924.009 1.2675 1.19499 0
M  V30 9630 C 921.141 2.55624 2.25542 0
M  V30 9631 H 922.334 2.95829 0.49248 0
M  V30 9632 H 919.887 1.5475 0.219594 0
M  V30 9633 H 920.622 1.72218 2.74793 0
M  V30 9634 H 920.407 3.34896 2.03929 0
M  V30 9635 H 921.897 2.95712 2.94863 0
M  V30 9636 N 922.334 -0.244713 1.55689 0
M  V30 9637 C 923.281 -1.30301 1.905 0
M  V30 9638 C 924.251 -1.4772 0.759478 0
M  V30 9639 O 925.436 -1.61667 1.01333 0
M  V30 9640 C 922.576 -2.653 2.20703 0
M  V30 9641 C 921.689 -2.55872 3.48071 0
M  V30 9642 C 920.824 -3.83238 3.67834 0
M  V30 9643 C 919.863 -3.68436 4.88796 0
M  V30 9644 N 919 -4.877 5.05068 0
M  V30 9645 H 923.84 -0.999143 2.80751 0
M  V30 9646 H 921.377 -0.482099 1.38976 0
M  V30 9647 H 923.335 -3.43884 2.36219 0
M  V30 9648 H 921.965 -2.93831 1.33653 0
M  V30 9649 H 921.017 -1.68846 3.40874 0
M  V30 9650 H 922.329 -2.40845 4.36801 0
M  V30 9651 H 921.483 -4.70266 3.83321 0
M  V30 9652 H 920.222 -4.01165 2.77341 0
M  V30 9653 H 919.227 -2.79793 4.73282 0
M  V30 9654 H 920.452 -3.52003 5.8075 0
M  V30 9655 H 918.398 -5.05983 4.17513 0
M  V30 9656 H 918.315 -4.75312 5.8789 0
M  V30 9657 H 919.583 -5.76219 5.24969 0
M  V30 9658 N 923.813 -1.49104 -0.510467 0
M  V30 9659 C 924.723 -1.67792 -1.6396 0
M  V30 9660 C 925.739 -0.560454 -1.64727 0
M  V30 9661 O 926.915 -0.833985 -1.83321 0
M  V30 9662 C 923.98 -1.73154 -3.00364 0
M  V30 9663 C 923.041 -2.9667 -3.10299 0
M  V30 9664 C 922.274 -3.01767 -4.40196 0
M  V30 9665 O 922.497 -2.1472 -5.28443 0
M  V30 9666 O 921.431 -3.94137 -4.54906 0
M  V30 9667 H 925.257 -2.63428 -1.51126 0
M  V30 9668 H 922.842 -1.32734 -0.685719 0
M  V30 9669 H 924.724 -1.79089 -3.81451 0
M  V30 9670 H 923.399 -0.806952 -3.1348 0
M  V30 9671 H 922.306 -2.96257 -2.28435 0
M  V30 9672 H 923.639 -3.88578 -3.02106 0
M  V30 9673 N 925.291 0.760815 -1.38019 0
M  V30 9674 C 926.221 1.88811 -1.37377 0
M  V30 9675 C 927.202 1.68388 -0.240737 0
M  V30 9676 O 928.387 1.89086 -0.442739 0
M  V30 9677 C 925.517 3.26244 -1.1909 0
M  V30 9678 C 924.471 3.61254 -2.29521 0
M  V30 9679 C 923.797 4.97346 -1.96345 0
M  V30 9680 C 925.097 3.66874 -3.71753 0
M  V30 9681 H 926.791 1.89606 -2.31711 0
M  V30 9682 H 924.337 0.910818 -1.11535 0
M  V30 9683 H 926.29 4.04755 -1.17267 0
M  V30 9684 H 925.014 3.2591 -0.212152 0
M  V30 9685 H 923.673 2.85057 -2.30517 0
M  V30 9686 H 923.321 4.93564 -0.969728 0
M  V30 9687 H 923.021 5.21739 -2.703 0
M  V30 9688 H 924.545 5.78244 -1.96129 0
M  V30 9689 H 925.959 4.35514 -3.72828 0
M  V30 9690 H 924.356 4.02772 -4.44853 0
M  V30 9691 H 925.426 2.67273 -4.0459 0
M  V30 9692 N 926.769 1.22769 0.988202 0
M  V30 9693 C 928.018 1.0492 1.72263 0
M  V30 9694 C 928.331 -0.415282 1.91141 0
M  V30 9695 O 929.537 -0.713547 2.61956 0
M  V30 9696 C 927.993 1.82891 3.09966 0
M  V30 9697 C 927.601 3.33618 2.99003 0
M  V30 9698 C 929.345 1.73505 3.87423 0
M  V30 9699 C 927.252 4.04012 4.3189 0
M  V30 9700 H 926.182 0.38899 0.645912 0
M  V30 9701 H 928.833 1.46664 1.10281 0
M  V30 9702 H 927.215 1.33948 3.72658 0
M  V30 9703 H 928.389 3.8999 2.45448 0
M  V30 9704 H 926.704 3.43732 2.35027 0
M  V30 9705 H 929.301 2.23416 4.85787 0
M  V30 9706 H 929.644 0.696344 4.10435 0
M  V30 9707 H 930.177 2.20016 3.31418 0
M  V30 9708 H 926.916 5.08155 4.14075 0
M  V30 9709 H 926.436 3.52428 4.8534 0
M  V30 9710 H 928.115 4.0987 5.00615 0
M  V30 9711 N 928.247 -1.18576 1.03814 0
M  V30 9712 C 929.472 -1.92978 0.759873 0
M  V30 9713 C 929.897 -1.75514 -0.676486 0
M  V30 9714 O 929.255 -1.06359 -1.46824 0
M  V30 9715 C 929.303 -3.42507 1.12788 0
M  V30 9716 O 928.407 -4.1163 0.251886 0
M  V30 9717 H 927.748 -0.602129 0.279886 0
M  V30 9718 H 930.278 -1.50383 1.3873 0
M  V30 9719 H 930.288 -3.93206 1.08872 0
M  V30 9720 H 928.963 -3.5454 2.17427 0
M  V30 9721 H 927.54 -3.7125 0.350441 0
M  V30 9722 N 929.725 -0.817259 -1.34754 0
M  V30 9723 C 930.657 -0.192695 -2.28389 0
M  V30 9724 C 931.67 0.614167 -1.50771 0
M  V30 9725 O 932.859 0.444776 -1.7287 0
M  V30 9726 C 929.959 0.748929 -3.30521 0
M  V30 9727 C 929.132 -0.0138762 -4.37398 0
M  V30 9728 C 928.191 0.847825 -5.19325 0
M  V30 9729 O 927.217 0.29487 -5.68436 0
M  V30 9730 N 928.419 2.16843 -5.38479 0
M  V30 9731 H 931.184 -0.997122 -2.82626 0
M  V30 9732 H 928.745 -0.673696 -1.47217 0
M  V30 9733 H 930.737 1.32987 -3.82226 0
M  V30 9734 H 929.307 1.45412 -2.7672 0
M  V30 9735 H 928.527 -0.776093 -3.86485 0
M  V30 9736 H 929.815 -0.539191 -5.05935 0
M  V30 9737 H 929.213 2.64148 -5.00242 0
M  V30 9738 H 927.77 2.69835 -5.93323 0
M  V30 9739 N 931.203 1.46865 -0.571711 0
M  V30 9740 C 932.136 2.27176 0.215944 0
M  V30 9741 C 933.114 1.34951 0.907035 0
M  V30 9742 O 934.298 1.64349 0.923127 0
M  V30 9743 C 931.425 3.12388 1.30888 0
M  V30 9744 C 930.471 4.20296 0.724804 0
M  V30 9745 S 931.304 5.33691 -0.439839 0
M  V30 9746 C 932.46 6.22468 0.654564 0
M  V30 9747 H 932.693 2.93633 -0.465518 0
M  V30 9748 H 930.226 1.50184 -0.358351 0
M  V30 9749 H 932.184 3.62049 1.93471 0
M  V30 9750 H 930.845 2.45265 1.96224 0
M  V30 9751 H 930.038 4.79703 1.54599 0
M  V30 9752 H 929.64 3.73591 0.174861 0
M  V30 9753 H 931.932 6.59694 1.54304 0
M  V30 9754 H 932.875 7.08033 0.0975111 0
M  V30 9755 H 933.283 5.56384 0.953762 0
M  V30 9756 N 932.681 0.308908 1.54543 0
M  V30 9757 C 933.611 -0.556657 2.26768 0
M  V30 9758 C 934.592 -1.13145 1.27013 0
M  V30 9759 O 935.777 -1.15931 1.558 0
M  V30 9760 C 932.907 -1.72481 3.01443 0
M  V30 9761 C 931.861 -1.28001 4.08411 0
M  V30 9762 C 931.187 -2.53395 4.70845 0
M  V30 9763 C 932.487 -0.405497 5.20724 0
M  V30 9764 H 934.181 0.0457618 2.99365 0
M  V30 9765 H 931.727 0.0234495 1.43981 0
M  V30 9766 H 933.68 -2.3365 3.50693 0
M  V30 9767 H 932.404 -2.35359 2.26437 0
M  V30 9768 H 931.063 -0.69133 3.60022 0
M  V30 9769 H 930.711 -3.14604 3.92471 0
M  V30 9770 H 930.411 -2.2433 5.43093 0
M  V30 9771 H 931.935 -3.15352 5.22863 0
M  V30 9772 H 933.349 -0.923076 5.6582 0
M  V30 9773 H 931.746 -0.208282 5.99738 0
M  V30 9774 H 932.816 0.567412 4.81569 0
M  V30 9775 N 934.159 -1.57557 0.0367827 0
M  V30 9776 C 935.091 -2.07597 -0.971395 0
M  V30 9777 C 936.104 -1.0009 -1.28397 0
M  V30 9778 O 937.293 -1.27692 -1.24728 0
M  V30 9779 C 934.393 -2.492 -2.2968 0
M  V30 9780 C 933.566 -3.79875 -2.16826 0
M  V30 9781 C 932.625 -4.07946 -3.32366 0
M  V30 9782 O 931.651 -4.78083 -3.0891 0
M  V30 9783 N 932.853 -3.58722 -4.56397 0
M  V30 9784 H 935.618 -2.94714 -0.544389 0
M  V30 9785 H 933.179 -1.61205 -0.1498 0
M  V30 9786 H 935.171 -2.65065 -3.05815 0
M  V30 9787 H 933.741 -1.67407 -2.63995 0
M  V30 9788 H 932.961 -3.73732 -1.2537 0
M  V30 9789 H 934.249 -4.65476 -2.0545 0
M  V30 9790 H 933.647 -3.01994 -4.78347 0
M  V30 9791 H 932.204 -3.79852 -5.29675 0
M  V30 9792 N 935.637 0.236453 -1.55816 0
M  V30 9793 C 936.883 0.964439 -1.784 0
M  V30 9794 C 937.216 1.84573 -0.603868 0
M  V30 9795 O 936.491 1.90395 0.397473 0
M  V30 9796 C 936.774 1.81608 -3.10951 0
M  V30 9797 C 936.627 0.962283 -4.39386 0
M  V30 9798 C 937.946 2.79665 -3.39817 0
M  V30 9799 H 935.065 0.349192 -0.649026 0
M  V30 9800 H 937.707 0.234247 -1.8855 0
M  V30 9801 H 935.857 2.43864 -3.02428 0
M  V30 9802 H 937.529 0.35762 -4.59912 0
M  V30 9803 H 935.772 0.267062 -4.32977 0
M  V30 9804 H 936.443 1.59222 -5.28538 0
M  V30 9805 H 938.919 2.27546 -3.4837 0
M  V30 9806 H 937.795 3.36367 -4.33761 0
M  V30 9807 H 938.056 3.56657 -2.61244 0
M  V30 9808 N 937.115 1.49373 0.502552 0
M  V30 9809 C 938.063 1.66411 1.62512 0
M  V30 9810 C 939.057 0.530062 1.60893 0
M  V30 9811 O 940.263 0.709648 1.65421 0
M  V30 9812 H 936.638 0.524707 0.538689 0
M  V30 9813 H 938.609 2.60639 1.45293 0
M  V30 9814 C 937.358 1.74648 3.00655 0
M  V30 9815 H 936.681 2.61285 3.02606 0
M  V30 9816 H 938.121 1.90605 3.78742 0
M  V30 9817 C 936.58 0.490963 3.33303 0
M  V30 9818 O 937.11 -0.384039 3.9986 0
M  V30 9819 N 935.316 0.354375 2.88431 0
M  V30 9820 H 934.863 1.06742 2.34444 0
M  V30 9821 H 934.821 -0.484593 3.10643 0
M  V30 9822 N 938.594 -0.753485 1.38421 0
M  V30 9823 C 939.84 -1.51485 1.34834 0
M  V30 9824 C 940.173 -1.94102 -0.0615381 0
M  V30 9825 O 939.448 -1.65439 -1.02274 0
M  V30 9826 C 939.731 -2.76736 2.30411 0
M  V30 9827 C 939.584 -2.40256 3.80259 0
M  V30 9828 C 940.903 -3.7876 2.24119 0
M  V30 9829 H 938.022 -0.549534 0.491102 0
M  V30 9830 H 940.664 -0.863006 1.6927 0
M  V30 9831 H 938.814 -3.32357 2.01175 0
M  V30 9832 H 940.486 -1.90409 4.20169 0
M  V30 9833 H 938.729 -1.72714 3.97935 0
M  V30 9834 H 939.4 -3.29869 4.42595 0
M  V30 9835 H 941.876 -3.32679 2.49928 0
M  V30 9836 H 940.752 -4.64092 2.93104 0
M  V30 9837 H 941.013 -4.24352 1.24006 0
M  V30 9838 N 940.072 -1.23292 -0.981677 0
M  V30 9839 C 940.982 -1.02964 -2.10798 0
M  V30 9840 C 941.998 0.0254674 -1.73981 0
M  V30 9841 O 943.174 -0.169706 -2.00684 0
M  V30 9842 C 940.239 -0.621934 -3.41076 0
M  V30 9843 C 939.3 -1.75194 -3.91926 0
M  V30 9844 C 938.533 -1.36359 -5.15986 0
M  V30 9845 O 938.756 -0.247265 -5.69864 0
M  V30 9846 O 937.69 -2.18421 -5.60871 0
M  V30 9847 H 941.516 -1.97354 -2.30836 0
M  V30 9848 H 939.101 -1.01986 -1.09175 0
M  V30 9849 H 940.983 -0.405446 -4.19445 0
M  V30 9850 H 939.658 0.29299 -3.22371 0
M  V30 9851 H 938.565 -2.02305 -3.1468 0
M  V30 9852 H 939.898 -2.64513 -4.15083 0
M  V30 9853 N 941.55 1.18024 -1.04442 0
M  V30 9854 C 942.513 2.19992 -0.643136 0
M  V30 9855 C 943.513 1.57949 0.301444 0
M  V30 9856 O 944.703 1.73986 0.0863341 0
M  V30 9857 C 941.835 3.40853 0.0565208 0
M  V30 9858 H 943.028 2.57008 -1.54554 0
M  V30 9859 H 940.581 1.31974 -0.837408 0
M  V30 9860 H 941.316 3.09373 0.972553 0
M  V30 9861 H 941.101 3.87128 -0.622439 0
M  V30 9862 H 942.591 4.16344 0.323652 0
M  V30 9863 N 943.028 0.824394 1.34319 0
M  V30 9864 C 944.444 0.510336 1.51221 0
M  V30 9865 C 944.644 -0.965201 1.76879 0
M  V30 9866 O 943.7 -1.74961 1.82057 0
M  V30 9867 C 945.013 1.37114 2.6762 0
M  V30 9868 C 946.561 1.36842 2.81502 0
M  V30 9869 C 947.036 2.21374 4.00946 0
M  V30 9870 N 948.527 2.19005 4.08156 0
M  V30 9871 C 949.262 2.81159 4.99737 0
M  V30 9872 N 948.758 3.52309 5.96532 0
M  V30 9873 N 950.551 2.70706 4.9262 0
M  V30 9874 H 942.702 1.77976 1.15924 0
M  V30 9875 H 944.965 0.758503 0.568663 0
M  V30 9876 H 944.671 2.41905 2.55294 0
M  V30 9877 H 944.545 1.03689 3.62669 0
M  V30 9878 H 946.932 0.328284 2.93268 0
M  V30 9879 H 947.013 1.74265 1.87257 0
M  V30 9880 H 946.657 3.25437 3.8994 0
M  V30 9881 H 946.587 1.813 4.94407 0
M  V30 9882 H 949.078 1.67252 3.38874 0
M  V30 9883 H 949.391 3.96977 6.63045 0
M  V30 9884 H 947.736 3.56415 5.96652 0
M  V30 9885 H 950.927 2.14694 4.15962 0
M  V30 9886 H 951.1 3.19431 5.63798 0
M  V30 9887 N 944.506 -1.46559 0.579492 0
M  V30 9888 C 945.746 -2.04292 0.0664837 0
M  V30 9889 C 946.11 -1.44161 -1.26814 0
M  V30 9890 O 947.311 -1.93074 -1.87018 0
M  V30 9891 C 945.582 -3.574 -0.00167254 0
M  V30 9892 S 947.141 -4.36408 -0.457572 0
M  V30 9893 H 943.959 -0.710092 0.035913 0
M  V30 9894 H 946.561 -1.79644 0.771263 0
M  V30 9895 H 945.265 -3.98683 0.973666 0
M  V30 9896 H 944.796 -3.8658 -0.729321 0
M  V30 9897 H 946.811 -4.65695 -1.71296 0
M  V30 9898 N 945.984 -0.3171 -1.54377 0
M  V30 9899 C 947.212 0.289558 -2.04864 0
M  V30 9900 C 947.627 1.46284 -1.19359 0
M  V30 9901 O 946.984 1.81135 -0.222795 0
M  V30 9902 C 947.035 0.730273 -3.54047 0
M  V30 9903 O 946.756 -0.396325 -4.36304 0
M  V30 9904 C 948.257 1.40041 -4.20599 0
M  V30 9905 H 945.477 0.0605836 -0.668259 0
M  V30 9906 H 948.021 -0.461411 -1.99227 0
M  V30 9907 H 946.176 1.43123 -3.59992 0
M  V30 9908 H 946.59 -0.0502901 -5.24476 0
M  V30 9909 H 948.064 1.65979 -5.26455 0
M  V30 9910 H 948.541 2.34565 -3.71316 0
M  V30 9911 H 949.147 0.742206 -4.18774 0
M  V30 9912 N 947.462 1.57535 -0.0451378 0
M  V30 9913 C 948.425 2.1008 0.916461 0
M  V30 9914 C 949.425 1.01913 1.2438 0
M  V30 9915 O 950.615 1.2801 1.18148 0
M  V30 9916 C 947.747 2.58001 2.22818 0
M  V30 9917 H 948.94 2.96334 0.461076 0
M  V30 9918 H 946.493 1.54974 0.203169 0
M  V30 9919 H 947.228 1.75123 2.72951 0
M  V30 9920 H 947.013 3.3704 2.00366 0
M  V30 9921 H 948.503 2.98822 2.9171 0
M  V30 9922 N 948.94 -0.228186 1.55939 0
M  V30 9923 C 950.188 -0.951668 1.78291 0
M  V30 9924 C 950.509 -1.85132 0.612474 0
M  V30 9925 O 949.779 -1.92356 -0.370942 0
M  V30 9926 H 948.359 -0.354388 0.657585 0
M  V30 9927 H 951.021 -0.241635 1.93396 0
M  V30 9928 H 950.117 -1.56239 2.70177 0
M  V30 9929 N 950.418 -1.49637 -0.494624 0
M  V30 9930 C 951.35 -1.62902 -1.61231 0
M  V30 9931 C 952.363 -0.511425 -1.54558 0
M  V30 9932 O 953.552 -0.783724 -1.60375 0
M  V30 9933 C 950.652 -1.57564 -3.00045 0
M  V30 9934 C 949.825 -2.84964 -3.31835 0
M  V30 9935 C 948.884 -2.72591 -4.5009 0
M  V30 9936 O 947.91 -3.46532 -4.51558 0
M  V30 9937 N 949.112 -1.84563 -5.50379 0
M  V30 9938 H 951.877 -2.59301 -1.50276 0
M  V30 9939 H 949.438 -1.46806 -0.68262 0
M  V30 9940 H 951.43 -1.46932 -3.77085 0
M  V30 9941 H 950 -0.689974 -3.0489 0
M  V30 9942 H 949.22 -3.099 -2.4363 0
M  V30 9943 H 950.508 -3.69412 -3.49875 0
M  V30 9944 H 949.906 -1.23758 -5.51997 0
M  V30 9945 H 948.463 -1.79849 -6.26496 0
M  V30 9946 N 951.896 0.746133 -1.38819 0
M  V30 9947 C 953.145 1.50085 -1.34749 0
M  V30 9948 C 953.458 1.95516 0.0574786 0
M  V30 9949 O 954.664 2.70601 0.22073 0
M  V30 9950 C 953.12 2.71141 -2.36665 0
M  V30 9951 C 952.728 2.32706 -3.82821 0
M  V30 9952 C 954.472 3.49005 -2.41652 0
M  V30 9953 C 952.379 3.50418 -4.76405 0
M  V30 9954 H 951.309 0.563563 -0.500912 0
M  V30 9955 H 953.96 0.814951 -1.6441 0
M  V30 9956 H 952.342 3.4175 -2.00058 0
M  V30 9957 H 953.516 1.69715 -4.28408 0
M  V30 9958 H 951.831 1.67959 -3.81023 0
M  V30 9959 H 954.428 4.36541 -3.08766 0
M  V30 9960 H 954.771 3.90687 -1.43769 0
M  V30 9961 H 955.304 2.85416 -2.77097 0
M  V30 9962 H 952.043 3.13795 -5.75511 0
M  V30 9963 H 951.563 4.12426 -4.35505 0
M  V30 9964 H 953.242 4.16901 -4.94775 0
M  V30 9965 N 953.375 1.23811 0.975125 0
M  V30 9966 C 954.305 1.04846 2.08638 0
M  V30 9967 C 955.286 -0.0362859 1.70061 0
M  V30 9968 O 956.471 0.12937 1.93769 0
M  V30 9969 C 953.601 0.644534 3.41267 0
M  V30 9970 C 952.555 1.67722 3.93768 0
M  V30 9971 C 951.881 1.12857 5.22654 0
M  V30 9972 C 953.181 3.07147 4.22443 0
M  V30 9973 H 954.875 1.97795 2.24761 0
M  V30 9974 H 952.421 0.952397 1.08006 0
M  V30 9975 H 954.374 0.498887 4.18436 0
M  V30 9976 H 953.098 -0.320641 3.25022 0
M  V30 9977 H 951.757 1.81095 3.18748 0
M  V30 9978 H 951.405 0.154227 5.02764 0
M  V30 9979 H 951.105 1.81862 5.58749 0
M  V30 9980 H 952.629 0.994891 6.0244 0
M  V30 9981 H 954.043 2.97045 4.90344 0
M  V30 9982 H 952.44 3.73437 4.6975 0
M  V30 9983 H 953.51 3.55743 3.29507 0
M  V30 9984 N 954.853 -1.17469 1.05066 0
M  V30 9985 C 956.078 -1.92162 0.780298 0
M  V30 9986 C 956.503 -1.76222 -0.657832 0
M  V30 9987 O 955.861 -1.0791 -1.45688 0
M  V30 9988 C 955.909 -3.41292 1.16414 0
M  V30 9989 O 955.013 -4.1134 0.295531 0
M  V30 9990 H 954.354 -0.599127 0.286257 0
M  V30 9991 H 956.884 -1.48903 1.40318 0
M  V30 9992 H 956.894 -3.92029 1.13036 0
M  V30 9993 H 955.569 -3.52214 2.21175 0
M  V30 9994 H 954.146 -3.70857 0.389797 0
M  V30 9995 N 956.331 -0.831506 -1.3388 0
M  V30 9996 C 957.281 -0.231656 -2.2682 0
M  V30 9997 C 958.265 0.609075 -1.48926 0
M  V30 9998 O 959.457 0.462249 -1.70857 0
M  V30 9999 C 956.586 0.59846 -3.38043 0
M  V30 10000 C 955.672 -0.253372 -4.23342 0
M  V30 10001 N 956.063 -1.32854 -4.8804 0
M  V30 10002 C 954.361 -0.0391537 -4.45983 0
M  V30 10003 C 955.062 -1.85069 -5.51475 0
M  V30 10004 N 954.038 -1.15327 -5.31226 0
M  V30 10005 H 957.84 -1.05396 -2.74352 0
M  V30 10006 H 955.354 -0.675195 -1.47699 0
M  V30 10007 H 957.351 1.04443 -4.03605 0
M  V30 10008 H 956.011 1.41882 -2.92061 0
M  V30 10009 H 957.022 -1.71139 -4.88806 0
M  V30 10010 H 953.699 0.748356 -4.10738 0
M  V30 10011 H 955.089 -2.75065 -6.13016 0
M  V30 10012 N 957.809 1.4625 -0.587256 0
M  V30 10013 C 959.22 1.85997 -0.161918 0
M  V30 10014 C 959.571 1.49025 1.27616 0
M  V30 10015 O 958.696 0.907282 1.96462 0
M  V30 10016 C 959.291 3.37582 -0.287077 0
M  V30 10017 C 957.85 3.76308 0.0834211 0
M  V30 10018 C 956.997 2.70259 -0.620932 0
M  V30 10019 H 959.948 1.3734 -0.795199 0
M  V30 10020 H 959.969 3.77379 0.486333 0
M  V30 10021 H 959.481 3.64459 -1.33383 0
M  V30 10022 H 957.582 3.55047 1.13013 0
M  V30 10023 H 957.695 4.78184 -0.296064 0
M  V30 10024 H 956.059 2.54628 -0.0607027 0
M  V30 10025 H 956.842 2.99975 -1.66942 0
M  V30 10026 N 959.287 0.325282 1.54207 0
M  V30 10027 C 960.533 -0.269944 2.01601 0
M  V30 10028 C 960.888 -1.49643 1.20933 0
M  V30 10029 O 960.181 -1.89486 0.283838 0
M  V30 10030 C 960.375 -0.654292 3.5136 0
M  V30 10031 C 960.204 0.533397 4.46525 0
M  V30 10032 C 958.974 1.03304 4.94628 0
M  V30 10033 C 961.172 1.38613 4.95269 0
M  V30 10034 N 959.154 2.18495 5.73701 0
M  V30 10035 C 960.525 2.38519 5.72284 0
M  V30 10036 C 962.58 1.41369 4.77409 0
M  V30 10037 C 961.283 3.40988 6.3334 0
M  V30 10038 C 963.309 2.4271 5.39301 0
M  V30 10039 C 962.671 3.41343 6.16169 0
M  V30 10040 H 958.77 -0.0625778 0.779492 0
M  V30 10041 H 961.354 0.460711 1.89171 0
M  V30 10042 H 959.525 -1.35408 3.64032 0
M  V30 10043 H 961.257 -1.23114 3.85519 0
M  V30 10044 H 958.012 0.604045 4.69732 0
M  V30 10045 H 958.436 2.76605 6.17915 0
M  V30 10046 H 963.078 0.664796 4.17541 0
M  V30 10047 H 960.796 4.16784 6.92327 0
M  V30 10048 H 964.382 2.45647 5.27398 0
M  V30 10049 H 963.262 4.18476 6.6321 0
M  V30 10050 N 960.765 -1.57509 0.0534917 0
M  V30 10051 C 962.011 -1.93068 -0.62069 0
M  V30 10052 C 962.344 -0.932313 -1.70357 0
M  V30 10053 O 961.619 0.0413393 -1.94456 0
M  V30 10054 C 961.902 -3.38997 -1.21463 0
M  V30 10055 C 961.755 -4.49583 -0.13965 0
M  V30 10056 C 963.074 -3.85366 -2.12558 0
M  V30 10057 H 960.193 -0.702083 -0.224163 0
M  V30 10058 H 962.835 -1.89647 0.115729 0
M  V30 10059 H 960.985 -3.42043 -1.84226 0
M  V30 10060 H 962.657 -4.58664 0.492411 0
M  V30 10061 H 960.9 -4.30525 0.532006 0
M  V30 10062 H 961.571 -5.48781 -0.595287 0
M  V30 10063 H 964.047 -3.8421 -1.59755 0
M  V30 10064 H 962.923 -4.8812 -2.51058 0
M  V30 10065 H 963.184 -3.22256 -3.02661 0
M  V30 10066 N 962.243 0.219913 -1.56058 0
M  V30 10067 C 963.468 0.965073 -1.83579 0
M  V30 10068 C 963.893 1.77092 -0.634024 0
M  V30 10069 O 963.251 1.76434 0.417205 0
M  V30 10070 C 963.299 1.85705 -3.09105 0
M  V30 10071 O 962.403 2.95261 -2.87914 0
M  V30 10072 H 961.744 0.273173 -0.605204 0
M  V30 10073 H 964.274 0.23273 -2.03272 0
M  V30 10074 H 964.284 2.26655 -3.39252 0
M  V30 10075 H 962.959 1.26476 -3.96203 0
M  V30 10076 H 961.536 2.58246 -2.69005 0
M  V30 10077 N 963.721 1.49897 0.486681 0
M  V30 10078 C 964.998 1.50614 1.24799 0
M  V30 10079 C 965.378 0.24193 2.09709 0
M  V30 10080 O 964.726 -0.775237 2.14947 0
M  V30 10081 C 964.936 2.79318 2.09243 0
M  V30 10082 C 966.284 3.29371 2.67955 0
M  V30 10083 O 967.308 2.80533 2.19499 0
M  V30 10084 O 966.167 4.14466 3.56202 0
M  V30 10085 H 963.261 0.603447 0.565491 0
M  V30 10086 H 965.807 1.62174 0.499778 0
M  V30 10087 H 964.579 3.62812 1.46572 0
M  V30 10088 H 964.202 2.70687 2.91229 0
M  V30 10089 N 965.199 -0.738761 1.39212 0
M  V30 10090 C 966.476 -1.48982 1.26742 0
M  V30 10091 C 966.856 -2.10732 -0.12466 0
M  V30 10092 O 966.204 -1.98287 -1.13554 0
M  V30 10093 C 966.414 -2.54427 2.38889 0
M  V30 10094 C 967.762 -3.20915 2.78027 0
M  V30 10095 O 968.786 -2.64738 2.38311 0
M  V30 10096 O 967.645 -4.22558 3.46565 0
M  V30 10097 H 964.739 -0.661395 0.496473 0
M  V30 10098 H 967.285 -0.772907 1.51077 0
M  V30 10099 H 966.057 -2.07151 3.3197 0
M  V30 10100 H 965.68 -3.33682 2.162 0
M  V30 10101 N 966.677 -1.24326 -0.968545 0
M  V30 10102 C 967.64 -1.03591 -2.04454 0
M  V30 10103 C 968.64 0.0064809 -1.60799 0
M  V30 10104 O 969.83 -0.234404 -1.72616 0
M  V30 10105 C 966.962 -0.56992 -3.36102 0
M  V30 10106 H 968.155 -1.99092 -2.24282 0
M  V30 10107 H 965.708 -1.06537 -1.14366 0
M  V30 10108 H 966.443 0.388325 -3.21967 0
M  V30 10109 H 966.228 -1.32227 -3.69132 0
M  V30 10110 H 967.718 -0.445854 -4.15213 0
M  V30 10111 N 968.156 1.1691 -1.05688 0
M  V30 10112 C 969.381 1.91745 -0.790478 0
M  V30 10113 C 969.806 1.76568 0.648478 0
M  V30 10114 O 969.164 1.08682 1.45114 0
M  V30 10115 C 969.212 3.4067 -1.18222 0
M  V30 10116 O 968.316 4.11177 -0.317341 0
M  V30 10117 H 967.657 0.5976 -0.28943 0
M  V30 10118 H 970.187 1.48157 -1.41105 0
M  V30 10119 H 970.197 3.91424 -1.15114 0
M  V30 10120 H 968.872 3.51036 -2.2304 0
M  V30 10121 H 967.449 3.70645 -0.409459 0
M  V30 10122 N 969.634 0.838594 1.33437 0
M  V30 10123 C 970.566 0.229006 2.28053 0
M  V30 10124 C 971.579 -0.590103 1.51729 0
M  V30 10125 O 972.768 -0.417218 1.73556 0
M  V30 10126 C 969.868 -0.696251 3.31671 0
M  V30 10127 C 969.041 0.0834606 4.3732 0
M  V30 10128 C 968.1 -0.765097 5.20608 0
M  V30 10129 O 967.126 -0.2044 5.68833 0
M  V30 10130 N 968.328 -2.08249 5.4186 0
M  V30 10131 H 971.093 1.04196 2.81004 0
M  V30 10132 H 968.654 0.697031 1.46127 0
M  V30 10133 H 970.646 -1.26889 3.84293 0
M  V30 10134 H 969.216 -1.40992 2.78998 0
M  V30 10135 H 968.436 0.837481 3.85201 0
M  V30 10136 H 969.724 0.619613 5.05013 0
M  V30 10137 H 969.122 -2.56156 5.04381 0
M  V30 10138 H 967.679 -2.60362 5.97541 0
M  V30 10139 N 971.112 -1.45937 0.595003 0
M  V30 10140 C 972.022 -2.34221 -0.133325 0
M  V30 10141 C 973.038 -1.50491 -0.873407 0
M  V30 10142 O 974.214 -1.83328 -0.833828 0
M  V30 10143 C 971.279 -3.27896 -1.12628 0
M  V30 10144 C 970.34 -4.27529 -0.389532 0
M  V30 10145 C 969.573 -5.16729 -1.33519 0
M  V30 10146 O 969.796 -5.09102 -2.57238 0
M  V30 10147 O 968.73 -5.96023 -0.839084 0
M  V30 10148 H 972.556 -2.97877 0.591861 0
M  V30 10149 H 970.141 -1.45113 0.355329 0
M  V30 10150 H 972.023 -3.85654 -1.69851 0
M  V30 10151 H 970.698 -2.6682 -1.83272 0
M  V30 10152 H 969.605 -3.73424 0.224843 0
M  V30 10153 H 970.938 -4.91425 0.276169 0
M  V30 10154 N 972.59 -0.333456 -1.54032 0
M  V30 10155 C 973.538 0.543414 -2.26163 0
M  V30 10156 C 974.532 1.11037 -1.27934 0
M  V30 10157 O 975.738 1.05727 -1.45677 0
M  V30 10158 H 972.113 0.19391 -0.726569 0
M  V30 10159 H 974.084 -0.0871052 -2.98273 0
M  V30 10160 C 972.833 1.68769 -3.03994 0
M  V30 10161 H 972.156 1.26069 -3.79403 0
M  V30 10162 H 973.596 2.27662 -3.57695 0
M  V30 10163 C 972.055 2.61117 -2.12884 0
M  V30 10164 O 972.585 3.63097 -1.71823 0
M  V30 10165 N 970.791 2.29573 -1.7817 0
M  V30 10166 H 970.338 1.46684 -2.11759 0
M  V30 10167 H 970.296 2.91622 -1.1749 0
M  V30 10168 N 974.068 1.57479 -0.061844 0
M  V30 10169 C 975.016 2.13346 0.926629 0
M  V30 10170 C 976.01 1.06787 1.31502 0
M  V30 10171 O 977.216 1.25181 1.29343 0
M  V30 10172 H 973.591 0.682046 0.316729 0
M  V30 10173 H 975.562 2.95279 0.430424 0
M  V30 10174 C 974.311 2.70198 2.18834 0
M  V30 10175 H 973.634 3.51859 1.89829 0
M  V30 10176 H 975.074 3.12897 2.86132 0
M  V30 10177 C 973.533 1.64481 2.9402 0
M  V30 10178 O 974.063 1.0639 3.87355 0
M  V30 10179 N 972.269 1.35749 2.56944 0
M  V30 10180 H 971.816 1.83177 1.81119 0
M  V30 10181 H 971.774 0.652469 3.07555 0
M  V30 10182 N 975.546 -0.211634 1.56173 0
M  V30 10183 C 976.479 -1.28982 1.88252 0
M  V30 10184 C 977.457 -1.4474 0.740889 0
M  V30 10185 O 978.641 -1.60394 0.990249 0
M  V30 10186 C 975.768 -2.65879 2.09824 0
M  V30 10187 C 974.814 -2.67082 3.3252 0
M  V30 10188 S 975.647 -2.2016 4.8815 0
M  V30 10189 C 976.803 -3.58913 5.12769 0
M  V30 10190 H 977.036 -1.01578 2.79409 0
M  V30 10191 H 974.569 -0.414351 1.48736 0
M  V30 10192 H 976.527 -3.44688 2.22935 0
M  V30 10193 H 975.188 -2.90502 1.19447 0
M  V30 10194 H 974.381 -3.67703 3.44689 0
M  V30 10195 H 973.983 -1.96343 3.18317 0
M  V30 10196 H 976.275 -4.54671 5.02276 0
M  V30 10197 H 977.218 -3.51652 6.14611 0
M  V30 10198 H 977.626 -3.5306 4.40465 0
M  V30 10199 N 977.024 -1.50153 -0.478725 0
M  V30 10200 C 977.956 -1.64603 -1.59494 0
M  V30 10201 C 978.969 -0.527789 -1.54007 0
M  V30 10202 O 980.158 -0.80069 -1.59534 0
M  V30 10203 C 977.258 -1.60738 -2.98356 0
M  V30 10204 C 976.431 -2.88468 -3.28794 0
M  V30 10205 C 975.49 -2.77349 -4.47173 0
M  V30 10206 O 974.516 -3.51302 -4.47857 0
M  V30 10207 N 975.718 -1.9039 -5.4839 0
M  V30 10208 H 978.483 -2.6088 -1.47518 0
M  V30 10209 H 976.044 -1.47521 -0.667011 0
M  V30 10210 H 978.036 -1.50923 -3.75505 0
M  V30 10211 H 976.606 -0.722273 -3.04141 0
M  V30 10212 H 975.826 -3.12467 -2.40329 0
M  V30 10213 H 977.114 -3.73102 -3.45937 0
M  V30 10214 H 976.512 -1.29606 -5.50653 0
M  V30 10215 H 975.069 -1.86484 -6.24553 0
M  V30 10216 N 978.502 0.731368 -1.39602 0
M  V30 10217 C 979.465 1.8271 -1.38383 0
M  V30 10218 C 980.465 1.58338 -0.280309 0
M  V30 10219 O 981.655 1.65671 -0.538402 0
M  V30 10220 C 978.787 3.20556 -1.16002 0
M  V30 10221 H 979.98 1.85193 -2.35889 0
M  V30 10222 H 977.533 0.935396 -1.2522 0
M  V30 10223 H 978.268 3.23732 -0.191927 0
M  V30 10224 H 978.053 3.39643 -1.9592 0
M  V30 10225 H 979.543 4.00612 -1.17899 0
M  V30 10226 N 979.98 1.24838 0.961938 0
M  V30 10227 C 980.89 1.06304 2.09133 0
M  V30 10228 C 981.906 0.00221475 1.74 0
M  V30 10229 O 983.082 0.201611 2.00388 0
M  V30 10230 C 980.147 0.676117 3.40043 0
M  V30 10231 C 979.208 1.81407 3.89089 0
M  V30 10232 C 978.441 1.44551 5.13752 0
M  V30 10233 O 978.664 0.337894 5.69398 0
M  V30 10234 O 977.598 2.27316 5.57325 0
M  V30 10235 H 981.424 2.01001 2.27667 0
M  V30 10236 H 979.009 1.0371 1.07539 0
M  V30 10237 H 980.891 0.472124 4.18747 0
M  V30 10238 H 979.566 -0.241667 3.22797 0
M  V30 10239 H 978.473 2.07286 3.11421 0
M  V30 10240 H 979.806 2.71083 4.10822 0
M  V30 10241 N 981.458 -1.16348 1.06306 0
M  V30 10242 C 982.704 -1.87158 0.781007 0
M  V30 10243 C 983.037 -1.81499 -0.690784 0
M  V30 10244 O 982.312 -1.23074 -1.50609 0
M  V30 10245 C 982.595 -3.3672 1.27639 0
M  V30 10246 C 982.448 -3.51069 2.81194 0
M  V30 10247 C 983.767 -4.31122 0.884388 0
M  V30 10248 H 980.886 -0.679586 0.285187 0
M  V30 10249 H 983.528 -1.36756 1.31901 0
M  V30 10250 H 981.678 -3.79775 0.818715 0
M  V30 10251 H 983.35 -3.16952 3.35171 0
M  V30 10252 H 981.593 -2.92976 3.19918 0
M  V30 10253 H 982.264 -4.56105 3.10921 0
M  V30 10254 H 984.74 -3.95969 1.27858 0
M  V30 10255 H 983.616 -5.34279 1.25847 0
M  V30 10256 H 983.877 -4.41598 -0.210673 0
M  V30 10257 N 982.937 -0.845659 -1.3299 0
M  V30 10258 C 984.165 -0.45835 -2.01759 0
M  V30 10259 C 984.58 0.94239 -1.63598 0
M  V30 10260 O 983.937 1.61353 -0.852738 0
M  V30 10261 C 983.988 -0.577311 -3.5686 0
M  V30 10262 O 983.709 -1.92287 -3.93646 0
M  V30 10263 C 985.21 -0.187839 -4.42902 0
M  V30 10264 H 982.43 -0.181165 -0.646081 0
M  V30 10265 H 984.974 -1.14011 -1.6977 0
M  V30 10266 H 983.129 0.0566146 -3.87359 0
M  V30 10267 H 983.543 -1.91322 -4.88361 0
M  V30 10268 H 985.017 -0.322105 -5.51059 0
M  V30 10269 H 985.494 0.870896 -4.30479 0
M  V30 10270 H 986.1 -0.796473 -4.17776 0
M  V30 10271 N 984.415 1.45619 -0.602734 0
M  V30 10272 C 985.663 2.01873 -0.095844 0
M  V30 10273 C 985.984 1.47427 1.27633 0
M  V30 10274 O 985.254 0.666652 1.84208 0
M  V30 10275 H 983.834 0.746295 -0.0324408 0
M  V30 10276 H 986.496 1.78478 -0.783037 0
M  V30 10277 H 985.592 3.12072 -0.0419507 0
M  V30 10278 N 985.893 0.34162 1.53853 0
M  V30 10279 C 986.84 -0.516058 2.24957 0
M  V30 10280 C 987.81 -1.09711 1.2471 0
M  V30 10281 O 988.995 -1.13409 1.53438 0
M  V30 10282 C 986.135 -1.66207 3.02439 0
M  V30 10283 C 985.248 -1.10851 4.17536 0
M  V30 10284 C 984.383 -2.22167 4.82509 0
M  V30 10285 C 983.422 -1.64152 5.89678 0
M  V30 10286 N 982.559 -2.69203 6.4844 0
M  V30 10287 H 987.399 0.0968275 2.97843 0
M  V30 10288 H 984.936 0.0595565 1.46979 0
M  V30 10289 H 986.894 -2.33672 3.4562 0
M  V30 10290 H 985.524 -2.24597 2.31853 0
M  V30 10291 H 984.576 -0.324853 3.7901 0
M  V30 10292 H 985.888 -0.644151 4.94623 0
M  V30 10293 H 985.042 -2.97501 5.28751 0
M  V30 10294 H 983.781 -2.71946 4.04842 0
M  V30 10295 H 982.786 -0.873228 5.42821 0
M  V30 10296 H 984.011 -1.15228 6.69253 0
M  V30 10297 H 981.957 -3.1824 5.73637 0
M  V30 10298 H 981.874 -2.27383 7.20994 0
M  V30 10299 H 983.142 -3.44312 6.99335 0
M  V30 10300 N 987.371 -1.57444 0.0701946 0
M  V30 10301 C 988.301 -2.15659 -0.895176 0
M  V30 10302 C 989.282 -1.08321 -1.31151 0
M  V30 10303 O 990.467 -1.36349 -1.38284 0
M  V30 10304 C 987.597 -2.71693 -2.16334 0
M  V30 10305 C 986.551 -3.84183 -1.88645 0
M  V30 10306 C 985.877 -4.26814 -3.22078 0
M  V30 10307 C 987.177 -5.08493 -1.19299 0
M  V30 10308 H 988.871 -2.96576 -0.410217 0
M  V30 10309 H 986.417 -1.42662 -0.195872 0
M  V30 10310 H 988.37 -3.11064 -2.84284 0
M  V30 10311 H 987.094 -1.87994 -2.67069 0
M  V30 10312 H 985.753 -3.45314 -1.23101 0
M  V30 10313 H 985.401 -3.40039 -3.70651 0
M  V30 10314 H 985.101 -5.02642 -3.04344 0
M  V30 10315 H 986.625 -4.68799 -3.91228 0
M  V30 10316 H 988.039 -5.4519 -1.77316 0
M  V30 10317 H 986.436 -5.89588 -1.11828 0
M  V30 10318 H 987.506 -4.84595 -0.171839 0
M  V30 10319 N 988.849 0.203349 -1.56283 0
M  V30 10320 C 989.796 1.25205 -1.93888 0
M  V30 10321 C 990.766 1.45654 -0.798376 0
M  V30 10322 O 991.951 1.58924 -1.05583 0
M  V30 10323 C 989.091 2.59355 -2.27659 0
M  V30 10324 C 988.204 2.46553 -3.54733 0
M  V30 10325 C 987.339 3.73351 -3.77865 0
M  V30 10326 C 986.378 3.55347 -4.98392 0
M  V30 10327 N 985.515 4.74137 -5.17821 0
M  V30 10328 H 990.355 0.924356 -2.83301 0
M  V30 10329 H 987.892 0.445082 -1.40205 0
M  V30 10330 H 989.85 3.375 -2.45254 0
M  V30 10331 H 988.48 2.90184 -1.41396 0
M  V30 10332 H 987.532 1.59749 -3.45231 0
M  V30 10333 H 988.844 2.2918 -4.43033 0
M  V30 10334 H 987.998 4.59937 -3.95655 0
M  V30 10335 H 986.737 3.9367 -2.8788 0
M  V30 10336 H 985.742 2.67146 -4.80534 0
M  V30 10337 H 986.967 3.36482 -5.89879 0
M  V30 10338 H 984.913 4.94735 -4.30782 0
M  V30 10339 H 984.83 4.59558 -6.00285 0
M  V30 10340 H 986.098 5.62098 -5.40061 0
M  V30 10341 N 990.327 1.50405 0.470755 0
M  V30 10342 C 991.259 1.65447 1.58619 0
M  V30 10343 C 992.272 0.535949 1.53725 0
M  V30 10344 O 993.461 0.80914 1.59107 0
M  V30 10345 C 990.561 1.62318 2.975 0
M  V30 10346 C 989.734 2.90207 3.27259 0
M  V30 10347 C 988.793 2.79717 4.45696 0
M  V30 10348 O 987.819 3.53672 4.45987 0
M  V30 10349 N 989.021 1.93296 5.47373 0
M  V30 10350 H 991.786 2.61659 1.46132 0
M  V30 10351 H 989.347 1.47873 0.659178 0
M  V30 10352 H 991.339 1.52912 3.747 0
M  V30 10353 H 989.909 0.738392 3.03754 0
M  V30 10354 H 989.129 3.13737 2.38669 0
M  V30 10355 H 990.417 3.74931 3.43953 0
M  V30 10356 H 989.815 1.32524 5.49958 0
M  V30 10357 H 988.372 1.89793 6.23556 0
M  V30 10358 N 991.805 -0.723954 1.39988 0
M  V30 10359 C 992.755 -1.82943 1.36073 0
M  V30 10360 C 993.739 -1.59105 0.239682 0
M  V30 10361 O 994.931 -1.7042 0.478116 0
M  V30 10362 C 992.06 -3.20988 1.21745 0
M  V30 10363 C 991.146 -3.50618 2.38596 0
M  V30 10364 N 991.537 -3.51115 3.64077 0
M  V30 10365 C 989.835 -3.81035 2.31794 0
M  V30 10366 C 990.536 -3.78852 4.41413 0
M  V30 10367 N 989.512 -3.97182 3.71143 0
M  V30 10368 H 993.314 -1.81649 2.31043 0
M  V30 10369 H 990.828 -0.922703 1.33641 0
M  V30 10370 H 992.825 -4.00139 1.17022 0
M  V30 10371 H 991.485 -3.23513 0.277344 0
M  V30 10372 H 992.496 -3.32163 3.97351 0
M  V30 10373 H 989.173 -3.911 1.46105 0
M  V30 10374 H 990.563 -3.85612 5.5023 0
M  V30 10375 N 993.283 -1.25346 -0.955304 0
M  V30 10376 C 994.53 -1.10055 -1.69983 0
M  V30 10377 C 994.858 0.358586 -1.91166 0
M  V30 10378 O 994.113 1.28071 -1.47974 0
M  V30 10379 C 994.412 -1.7993 -3.08804 0
M  V30 10380 C 994.078 -3.29851 -3.07424 0
M  V30 10381 C 992.74 -3.7075 -3.06754 0
M  V30 10382 C 995.092 -4.25636 -3.00805 0
M  V30 10383 C 992.42 -5.05847 -2.97214 0
M  V30 10384 C 994.772 -5.60756 -2.92806 0
M  V30 10385 C 993.436 -6.00984 -2.90472 0
M  V30 10386 H 992.706 -0.402718 -0.622012 0
M  V30 10387 H 995.353 -1.5561 -1.11614 0
M  V30 10388 H 993.658 -1.26803 -3.70713 0
M  V30 10389 H 995.355 -1.65551 -3.65231 0
M  V30 10390 H 991.945 -2.97308 -3.08716 0
M  V30 10391 H 996.129 -3.9503 -3.00441 0
M  V30 10392 H 991.385 -5.36196 -2.93775 0
M  V30 10393 H 995.559 -6.34671 -2.86645 0
M  V30 10394 H 993.186 -7.05626 -2.82835 0
M  V30 10395 N 994.761 1.15782 -1.06922 0
M  V30 10396 C 995.709 2.22441 -0.679893 0
M  V30 10397 C 996.703 1.66591 0.307221 0
M  V30 10398 O 997.909 1.79182 0.171402 0
M  V30 10399 H 994.284 0.724427 -0.201765 0
M  V30 10400 H 996.255 2.52562 -1.58918 0
M  V30 10401 C 995.004 3.47586 -0.0891142 0
M  V30 10402 H 994.327 3.9088 -0.839805 0
M  V30 10403 H 995.767 4.2375 0.14569 0
M  V30 10404 C 994.226 3.15967 1.16903 0
M  V30 10405 O 994.756 3.32359 2.25611 0
M  V30 10406 N 992.962 2.70046 1.07349 0
M  V30 10407 H 992.509 2.56907 0.188825 0
M  V30 10408 H 992.467 2.49264 1.91611 0
M  V30 10409 N 996.239 0.8527 1.3254 0
M  V30 10410 C 997.187 0.284659 2.30852 0
M  V30 10411 C 998.181 -0.5909 1.5876 0
M  V30 10412 O 999.387 -0.478922 1.73512 0
M  V30 10413 H 995.762 0.0733452 0.748415 0
M  V30 10414 H 997.733 1.1281 2.76254 0
M  V30 10415 C 996.482 -0.51379 3.43883 0
M  V30 10416 H 995.805 0.150644 3.99516 0
M  V30 10417 H 997.245 -0.876866 4.14834 0
M  V30 10418 C 995.704 -1.69823 2.90967 0
M  V30 10419 O 996.234 -2.79727 2.88298 0
M  V30 10420 N 994.44 -1.52465 2.47392 0
M  V30 10421 H 993.987 -0.630599 2.49762 0
M  V30 10422 H 993.945 -2.31859 2.12341 0
M  V30 10423 N 997.718 -1.45297 0.610449 0
M  V30 10424 C 998.681 -2.28995 -0.0968194 0
M  V30 10425 C 999.681 -1.39923 -0.792353 0
M  V30 10426 O 1000.87 -1.62014 -0.64008 0
M  V30 10427 C 998.003 -3.21013 -1.14731 0
M  V30 10428 H 999.196 -2.93012 0.639082 0
M  V30 10429 H 996.749 -1.51867 0.369624 0
M  V30 10430 H 997.484 -2.61803 -1.91388 0
M  V30 10431 H 997.269 -3.86628 -0.652753 0
M  V30 10432 H 998.759 -3.8394 -1.64256 0
M  V30 10433 N 999.196 -0.349774 -1.5367 0
M  V30 10434 C 1000.13 0.496338 -2.28164 0
M  V30 10435 C 1001.11 1.09737 -1.29968 0
M  V30 10436 O 1002.29 1.11759 -1.58819 0
M  V30 10437 C 999.422 1.64428 -3.0591 0
M  V30 10438 C 998.376 1.17127 -4.11661 0
M  V30 10439 C 997.702 2.40822 -4.77398 0
M  V30 10440 C 999.002 0.267293 -5.21616 0
M  V30 10441 H 1000.7 -0.125117 -2.99138 0
M  V30 10442 H 998.242 -0.0616152 -1.43868 0
M  V30 10443 H 1000.19 2.2427 -3.56765 0
M  V30 10444 H 998.919 2.29272 -2.32598 0
M  V30 10445 H 997.578 0.595634 -3.61729 0
M  V30 10446 H 997.226 3.04088 -4.00674 0
M  V30 10447 H 996.926 2.09852 -5.48849 0
M  V30 10448 H 998.45 3.01378 -5.3104 0
M  V30 10449 H 999.864 0.772734 -5.68068 0
M  V30 10450 H 998.261 0.0491991 -6.0008 0
M  V30 10451 H 999.331 -0.694892 -4.79895 0
M  V30 10452 N 1000.67 1.57404 -0.0785433 0
M  V30 10453 C 1002.08 1.81118 0.45311 0
M  V30 10454 C 1002.44 0.992963 1.69218 0
M  V30 10455 O 1001.56 0.217448 2.15305 0
M  V30 10456 C 1002.16 3.28506 0.82882 0
M  V30 10457 C 1000.71 3.53042 1.3053 0
M  V30 10458 C 999.862 2.75739 0.29378 0
M  V30 10459 H 1002.81 1.55758 -0.304171 0
M  V30 10460 H 1002.83 3.40924 1.68971 0
M  V30 10461 H 1002.35 3.88031 -0.0731826 0
M  V30 10462 H 1000.45 2.98829 2.22558 0
M  V30 10463 H 1000.56 4.61724 1.27857 0
M  V30 10464 H 998.924 2.42703 0.772477 0
M  V30 10465 H 999.707 3.38005 -0.600613 0
M  V30 10466 N 1002.15 -0.195058 1.56388 0
M  V30 10467 C 1003.1 -1.24175 1.94549 0
M  V30 10468 C 1004.07 -1.45229 0.806089 0
M  V30 10469 O 1005.25 -1.58362 1.06425 0
M  V30 10470 C 1002.39 -2.58145 2.29031 0
M  V30 10471 C 1001.51 -2.44669 3.56035 0
M  V30 10472 C 1000.64 -3.71342 3.7984 0
M  V30 10473 C 999.681 -3.52699 5.0027 0
M  V30 10474 N 998.818 -4.71385 5.20328 0
M  V30 10475 H 1003.66 -0.909319 2.83788 0
M  V30 10476 H 1001.19 -0.437641 1.40439 0
M  V30 10477 H 1003.15 -3.36195 2.4704 0
M  V30 10478 H 1001.78 -2.8943 1.42933 0
M  V30 10479 H 1000.83 -1.57916 3.46073 0
M  V30 10480 H 1002.15 -2.26827 4.44242 0
M  V30 10481 H 1001.3 -4.57832 3.98088 0
M  V30 10482 H 1000.04 -3.92138 2.89964 0
M  V30 10483 H 999.045 -2.64594 4.81944 0
M  V30 10484 H 1000.27 -3.33349 5.91655 0
M  V30 10485 H 998.216 -4.92444 4.33399 0
M  V30 10486 H 998.133 -4.56368 6.02714 0
M  V30 10487 H 999.401 -5.59226 5.43035 0
M  V30 10488 N 1003.63 -1.50653 -0.462772 0
M  V30 10489 C 1004.56 -1.66286 -1.5774 0
M  V30 10490 C 1005.57 -0.544094 -1.53439 0
M  V30 10491 O 1006.76 -0.817566 -1.58676 0
M  V30 10492 C 1003.86 -1.63893 -2.96635 0
M  V30 10493 C 1003.04 -2.91939 -3.25716 0
M  V30 10494 C 1002.1 -2.82076 -4.44206 0
M  V30 10495 O 1001.12 -3.56032 -4.44106 0
M  V30 10496 N 1002.32 -1.96196 -5.4634 0
M  V30 10497 H 1005.09 -2.6243 -1.44742 0
M  V30 10498 H 1002.65 -1.48221 -0.651326 0
M  V30 10499 H 1004.64 -1.54897 -3.73884 0
M  V30 10500 H 1003.21 -0.75449 -3.03358 0
M  V30 10501 H 1002.43 -3.14998 -2.37002 0
M  V30 10502 H 1003.72 -3.7675 -3.4196 0
M  V30 10503 H 1003.12 -1.35439 -5.49247 0
M  V30 10504 H 1001.67 -1.93097 -6.2254 0
M  V30 10505 N 1005.11 0.71652 -1.4037 0
M  V30 10506 C 1006.06 1.85194 -1.40734 0
M  V30 10507 C 1007.05 1.66934 -0.287969 0
M  V30 10508 O 1008.26 1.74051 -0.458957 0
M  V30 10509 H 1004.63 0.609922 -0.439885 0
M  V30 10510 H 1006.6 1.82003 -2.36468 0
M  V30 10511 C 1005.35 3.23048 -1.28589 0
M  V30 10512 H 1004.67 3.37704 -2.13999 0
M  V30 10513 H 1006.11 4.02633 -1.32902 0
M  V30 10514 C 1004.57 3.369 0.00396512 0
M  V30 10515 O 1005.1 3.89881 0.967243 0
M  V30 10516 N 1003.31 2.90508 0.0731565 0
M  V30 10517 H 1002.86 2.4758 -0.711454 0
M  V30 10518 H 1002.81 3.00155 0.935652 0
M  V30 10519 N 1006.59 1.25851 0.948643 0
M  V30 10520 C 1007.81 1.13813 1.73382 0
M  V30 10521 C 1008.24 -0.303615 1.85633 0
M  V30 10522 O 1007.59 -1.21997 1.34114 0
M  V30 10523 C 1007.64 1.80388 3.12238 0
M  V30 10524 O 1006.75 1.08759 3.978 0
M  V30 10525 H 1006.09 0.397006 0.532243 0
M  V30 10526 H 1008.62 1.66529 1.18866 0
M  V30 10527 H 1008.63 1.86913 3.62667 0
M  V30 10528 H 1007.3 2.85278 3.02637 0
M  V30 10529 H 1005.88 1.10157 3.56258 0
M  V30 10530 N 1008.06 -1.15214 1.07534 0
M  V30 10531 C 1009.29 -1.89922 0.820804 0
M  V30 10532 C 1009.71 -1.78114 -0.626177 0
M  V30 10533 O 1009.06 -1.13435 -1.42964 0
M  V30 10534 C 1009.12 -3.40207 1.22236 0
M  V30 10535 O 1008.84 -3.51676 2.61257 0
M  V30 10536 C 1010.34 -4.31934 0.997393 0
M  V30 10537 H 1007.56 -0.601865 0.296647 0
M  V30 10538 H 1010.1 -1.45965 1.43229 0
M  V30 10539 H 1008.26 -3.8182 0.655167 0
M  V30 10540 H 1008.67 -4.44959 2.77689 0
M  V30 10541 H 1010.14 -5.35791 1.32785 0
M  V30 10542 H 1010.62 -4.3915 -0.0661599 0
M  V30 10543 H 1011.23 -3.96066 1.54958 0
M  V30 10544 N 1009.54 -0.859717 -1.32086 0
M  V30 10545 C 1010.77 -0.479724 -2.01262 0
M  V30 10546 C 1011.19 0.924985 -1.64589 0
M  V30 10547 O 1010.54 1.60439 -0.869803 0
M  V30 10548 C 1010.59 -0.615128 -3.56228 0
M  V30 10549 O 1010.31 -1.96451 -3.91585 0
M  V30 10550 C 1011.82 -0.234804 -4.42678 0
M  V30 10551 H 1009.04 -0.188007 -0.644123 0
M  V30 10552 H 1011.58 -1.15805 -1.68551 0
M  V30 10553 H 1009.73 0.0155268 -3.87397 0
M  V30 10554 H 1010.15 -1.96491 -4.86304 0
M  V30 10555 H 1011.62 -0.380534 -5.50687 0
M  V30 10556 H 1012.1 0.825189 -4.31378 0
M  V30 10557 H 1012.71 -0.840739 -4.16907 0
M  V30 10558 N 1011.02 1.44971 -0.618145 0
M  V30 10559 C 1012.25 2.06527 -0.124165 0
M  V30 10560 C 1012.66 1.46097 1.19588 0
M  V30 10561 O 1012.02 0.57901 1.73071 0
M  V30 10562 C 1012.07 3.61498 0.0106701 0
M  V30 10563 O 1011.79 4.19675 -1.25716 0
M  V30 10564 C 1013.29 4.40061 0.534872 0
M  V30 10565 H 1010.51 0.666941 -0.0736935 0
M  V30 10566 H 1013.06 1.8605 -0.848871 0
M  V30 10567 H 1011.21 3.81282 0.685752 0
M  V30 10568 H 1011.63 5.12972 -1.09362 0
M  V30 10569 H 1013.1 5.48963 0.57827 0
M  V30 10570 H 1013.58 4.10587 1.55931 0
M  V30 10571 H 1014.18 4.25167 -0.10652 0
M  V30 10572 N 1012.5 0.357919 1.53482 0
M  V30 10573 C 1013.75 -0.2337 2.00744 0
M  V30 10574 C 1014.07 -1.49908 1.2471 0
M  V30 10575 O 1013.34 -1.92597 0.358235 0
M  V30 10576 H 1011.92 -0.0893474 0.741637 0
M  V30 10577 H 1014.58 0.482388 1.88836 0
M  V30 10578 H 1013.68 -0.466073 3.086 0
M  V30 10579 N 1013.98 -1.5736 0.0868897 0
M  V30 10580 C 1015.22 -1.94341 -0.579598 0
M  V30 10581 C 1015.56 -0.968238 -1.68341 0
M  V30 10582 O 1014.83 8.29649e-05 -1.945 0
M  V30 10583 C 1015.11 -3.41497 -1.14245 0
M  V30 10584 C 1014.97 -4.49778 -0.044255 0
M  V30 10585 C 1016.29 -3.89788 -2.04336 0
M  V30 10586 H 1013.4 -0.70668 -0.20922 0
M  V30 10587 H 1016.05 -1.89359 0.15593 0
M  V30 10588 H 1014.2 -3.45873 -1.76929 0
M  V30 10589 H 1015.87 -4.57517 0.58959 0
M  V30 10590 H 1014.11 -4.293 0.623207 0
M  V30 10591 H 1014.78 -5.4992 -0.478749 0
M  V30 10592 H 1017.26 -3.87513 -1.51569 0
M  V30 10593 H 1016.13 -4.93335 -2.40648 0
M  V30 10594 H 1016.4 -3.28603 -2.95757 0
M  V30 10595 N 1015.45 0.186762 -1.56489 0
M  V30 10596 C 1016.68 0.925916 -1.85584 0
M  V30 10597 C 1017.1 1.75708 -0.671446 0
M  V30 10598 O 1016.46 1.7728 0.379687 0
M  V30 10599 C 1016.51 1.79107 -3.12975 0
M  V30 10600 O 1015.61 2.89088 -2.94112 0
M  V30 10601 H 1014.96 0.260275 -0.610863 0
M  V30 10602 H 1017.49 0.189561 -2.0372 0
M  V30 10603 H 1017.5 2.19408 -3.43983 0
M  V30 10604 H 1016.17 1.18044 -3.98796 0
M  V30 10605 H 1014.75 2.52482 -2.74422 0
M  V30 10606 N 1016.93 1.50896 0.454776 0
M  V30 10607 C 1018.18 1.6294 1.20741 0
M  V30 10608 C 1018.51 0.336339 1.91265 0
M  V30 10609 O 1017.79 -0.663153 1.82846 0
M  V30 10610 C 1018.07 2.82092 2.23822 0
M  V30 10611 C 1017.92 4.21326 1.57495 0
M  V30 10612 C 1019.24 2.96777 3.24979 0
M  V30 10613 H 1016.36 0.59302 0.437603 0
M  V30 10614 H 1019 1.83331 0.498959 0
M  V30 10615 H 1017.15 2.64837 2.84243 0
M  V30 10616 H 1018.82 4.50209 1.00546 0
M  V30 10617 H 1017.07 4.24829 0.877664 0
M  V30 10618 H 1017.74 5.00656 2.32482 0
M  V30 10619 H 1020.21 3.12627 2.74597 0
M  V30 10620 H 1019.09 3.81742 3.94416 0
M  V30 10621 H 1019.35 2.08091 3.90065 0
M  V30 10622 N 1018.41 -0.709066 1.40748 0
M  V30 10623 C 1019.66 -1.4646 1.38681 0
M  V30 10624 C 1019.97 -1.95599 -0.0056209 0
M  V30 10625 O 1021.18 -2.71091 -0.148907 0
M  V30 10626 C 1019.63 -2.64771 2.43771 0
M  V30 10627 C 1019.24 -2.22474 3.88856 0
M  V30 10628 C 1020.99 -3.42475 2.50821 0
M  V30 10629 C 1018.89 -3.37663 4.85528 0
M  V30 10630 H 1017.82 -0.550084 0.515678 0
M  V30 10631 H 1020.47 -0.771074 1.66513 0
M  V30 10632 H 1018.86 -3.36325 2.09048 0
M  V30 10633 H 1020.03 -1.58297 4.32757 0
M  V30 10634 H 1018.35 -1.57798 3.85342 0
M  V30 10635 H 1020.94 -4.28201 3.20232 0
M  V30 10636 H 1021.29 -3.86738 1.54076 0
M  V30 10637 H 1021.82 -2.77969 2.84567 0
M  V30 10638 H 1018.56 -2.98426 5.83628 0
M  V30 10639 H 1018.08 -4.00734 4.46287 0
M  V30 10640 H 1019.76 -4.03636 5.05655 0
M  V30 10641 N 1019.89 -1.26353 -0.941956 0
M  V30 10642 C 1020.82 -1.02163 -2.04054 0
M  V30 10643 C 1021.8 0.0533514 -1.62512 0
M  V30 10644 O 1022.98 -0.0889063 -1.8829 0
M  V30 10645 C 1020.11 -0.546908 -3.34255 0
M  V30 10646 C 1019.16 -1.61433 -3.94768 0
M  V30 10647 S 1019.99 -3.20306 -4.29144 0
M  V30 10648 C 1021.15 -2.746 -5.62446 0
M  V30 10649 H 1021.38 -1.9518 -2.24259 0
M  V30 10650 H 1018.91 -1.10024 -1.08324 0
M  V30 10651 H 1020.87 -0.279673 -4.09546 0
M  V30 10652 H 1019.53 0.36297 -3.11996 0
M  V30 10653 H 1018.72 -1.23315 -4.88681 0
M  V30 10654 H 1018.33 -1.8329 -3.26007 0
M  V30 10655 H 1020.62 -2.19015 -6.41123 0
M  V30 10656 H 1021.56 -3.67202 -6.05449 0
M  V30 10657 H 1021.97 -2.1419 -5.22286 0
M  V30 10658 N 1021.37 1.14642 -1.08144 0
M  V30 10659 C 1022.32 2.21708 -0.703448 0
M  V30 10660 C 1023.31 1.66907 0.289535 0
M  V30 10661 O 1024.52 1.79354 0.152387 0
M  V30 10662 H 1020.89 0.722247 -0.209437 0
M  V30 10663 H 1022.86 2.50862 -1.61588 0
M  V30 10664 C 1021.61 3.47472 -0.125975 0
M  V30 10665 H 1020.93 3.89967 -0.881216 0
M  V30 10666 H 1022.37 4.2388 0.100737 0
M  V30 10667 C 1020.83 3.17189 1.13546 0
M  V30 10668 O 1021.36 3.34733 2.22073 0
M  V30 10669 N 1019.57 2.71169 1.04479 0
M  V30 10670 H 1019.12 2.57093 0.161566 0
M  V30 10671 H 1019.07 2.51282 1.88957 0
M  V30 10672 N 1022.85 0.866709 1.31628 0
M  V30 10673 C 1024.07 0.49039 2.01004 0
M  V30 10674 C 1024.49 -0.916244 1.65077 0
M  V30 10675 O 1023.85 -1.59975 0.8783 0
M  V30 10676 C 1023.9 0.634011 3.55897 0
M  V30 10677 O 1023.62 1.98525 3.90537 0
M  V30 10678 C 1025.12 0.258277 4.42547 0
M  V30 10679 H 1022.34 0.191421 0.643117 0
M  V30 10680 H 1024.88 1.16698 1.67934 0
M  V30 10681 H 1023.04 0.00501801 3.874 0
M  V30 10682 H 1023.45 1.99067 4.85255 0
M  V30 10683 H 1024.93 0.409733 5.50477 0
M  V30 10684 H 1025.4 -0.802301 4.3181 0
M  V30 10685 H 1026.01 0.862837 4.16456 0
M  V30 10686 N 1024.32 -1.44642 0.625825 0
M  V30 10687 C 1025.29 -2.29085 -0.072526 0
M  V30 10688 C 1026.29 -1.40755 -0.777467 0
M  V30 10689 O 1027.48 -1.62684 -0.622861 0
M  V30 10690 C 1024.61 -3.22212 -1.1132 0
M  V30 10691 H 1025.8 -2.92317 0.670124 0
M  V30 10692 H 1023.35 -1.51466 0.38571 0
M  V30 10693 H 1024.09 -2.63819 -1.88601 0
M  V30 10694 H 1023.87 -3.87299 -0.611709 0
M  V30 10695 H 1025.36 -3.8566 -1.60175 0
M  V30 10696 N 1025.8 -0.366053 -1.5329 0
M  V30 10697 C 1026.73 0.47211 -2.28677 0
M  V30 10698 C 1027.71 1.08353 -1.31125 0
M  V30 10699 O 1028.9 1.10069 -1.59995 0
M  V30 10700 C 1026.03 1.61174 -3.07637 0
M  V30 10701 C 1024.98 1.12755 -4.12881 0
M  V30 10702 C 1024.31 2.35745 -4.79925 0
M  V30 10703 C 1025.61 0.211954 -5.2187 0
M  V30 10704 H 1027.3 -0.156838 -2.98989 0
M  V30 10705 H 1024.85 -0.0768709 -1.43795 0
M  V30 10706 H 1026.8 2.20473 -3.59123 0
M  V30 10707 H 1025.52 2.26793 -2.35016 0
M  V30 10708 H 1024.18 0.557234 -3.6234 0
M  V30 10709 H 1023.83 2.99821 -4.03877 0
M  V30 10710 H 1023.53 2.04019 -5.51044 0
M  V30 10711 H 1025.06 2.95729 -5.34207 0
M  V30 10712 H 1026.47 0.71244 -5.68856 0
M  V30 10713 H 1024.87 -0.0144501 -6.00098 0
M  V30 10714 H 1025.94 -0.745753 -4.79131 0
M  V30 10715 N 1027.28 1.57312 -0.0952337 0
M  V30 10716 C 1028.56 1.85822 0.610715 0
M  V30 10717 C 1028.94 0.992114 1.86334 0
M  V30 10718 O 1028.28 0.0645669 2.28409 0
M  V30 10719 C 1028.49 3.36492 0.925967 0
M  V30 10720 C 1029.84 4.0455 1.28936 0
M  V30 10721 O 1030.87 3.41374 1.01698 0
M  V30 10722 O 1029.73 5.16024 1.79949 0
M  V30 10723 H 1026.82 0.768454 0.305626 0
M  V30 10724 H 1029.37 1.69217 -0.127941 0
M  V30 10725 H 1028.14 3.91282 0.0373127 0
M  V30 10726 H 1027.76 3.58443 1.7206 0
M  V30 10727 N 1028.76 -0.17846 1.56586 0
M  V30 10728 C 1029.7 -1.22104 1.95855 0
M  V30 10729 C 1030.67 -1.44366 0.821447 0
M  V30 10730 O 1031.86 -1.57224 1.08098 0
M  V30 10731 C 1029 -2.55701 2.31757 0
M  V30 10732 C 1028.11 -2.40879 3.5861 0
M  V30 10733 C 1027.25 -3.67293 3.83757 0
M  V30 10734 C 1026.29 -3.47373 5.03982 0
M  V30 10735 N 1025.42 -4.65839 5.25298 0
M  V30 10736 H 1030.26 -0.879168 2.84736 0
M  V30 10737 H 1027.8 -0.422721 1.40895 0
M  V30 10738 H 1029.76 -3.33556 2.50592 0
M  V30 10739 H 1028.39 -2.87898 1.45995 0
M  V30 10740 H 1027.44 -1.54236 3.47729 0
M  V30 10741 H 1028.75 -2.22102 4.46623 0
M  V30 10742 H 1027.91 -4.53584 4.02922 0
M  V30 10743 H 1026.65 -3.89041 2.94107 0
M  V30 10744 H 1025.65 -2.59467 4.84723 0
M  V30 10745 H 1026.88 -3.27055 5.95157 0
M  V30 10746 H 1024.82 -4.8782 4.38598 0
M  V30 10747 H 1024.74 -4.4995 6.0752 0
M  V30 10748 H 1026.01 -5.53435 5.48936 0
M  V30 10749 N 1030.24 -1.51135 -0.446768 0
M  V30 10750 C 1031.15 -1.74595 -1.56696 0
M  V30 10751 C 1032.16 -0.629816 -1.62201 0
M  V30 10752 O 1033.34 -0.910987 -1.79619 0
M  V30 10753 C 1030.4 -1.85738 -2.9275 0
M  V30 10754 C 1029.46 -3.09564 -2.97437 0
M  V30 10755 C 1028.7 -3.20165 -4.27001 0
M  V30 10756 O 1028.92 -2.36939 -5.1886 0
M  V30 10757 O 1027.85 -4.13077 -4.3778 0
M  V30 10758 H 1031.68 -2.69601 -1.39817 0
M  V30 10759 H 1029.26 -1.35523 -0.628805 0
M  V30 10760 H 1031.15 -1.95107 -3.73512 0
M  V30 10761 H 1029.82 -0.939184 -3.09776 0
M  V30 10762 H 1028.73 -3.05679 -2.15664 0
M  V30 10763 H 1030.06 -4.01041 -2.85353 0
M  V30 10764 N 1031.71 0.701592 -1.41122 0
M  V30 10765 C 1032.96 1.45871 -1.39879 0
M  V30 10766 C 1033.28 1.94999 -0.00668769 0
M  V30 10767 O 1032.55 1.71298 0.95047 0
M  V30 10768 H 1031.13 0.541231 -0.514857 0
M  V30 10769 H 1033.79 0.830803 -1.76306 0
M  V30 10770 H 1032.89 2.32479 -2.0823 0
M  V30 10771 N 1033.19 1.2685 0.935242 0
M  V30 10772 C 1034.12 1.04717 2.0388 0
M  V30 10773 C 1035.14 0.00567507 1.62799 0
M  V30 10774 O 1036.33 0.246408 1.76791 0
M  V30 10775 C 1033.43 0.56496 3.34158 0
M  V30 10776 C 1032.6 1.67704 4.03973 0
M  V30 10777 C 1031.66 1.19186 5.12524 0
M  V30 10778 O 1030.68 1.89008 5.36903 0
M  V30 10779 N 1031.89 0.0434554 5.80484 0
M  V30 10780 H 1034.65 1.99746 2.23431 0
M  V30 10781 H 1032.21 1.18316 1.10512 0
M  V30 10782 H 1034.2 0.224436 4.04077 0
M  V30 10783 H 1032.77 -0.291899 3.11234 0
M  V30 10784 H 1031.99 2.18821 3.27889 0
M  V30 10785 H 1033.28 2.42361 4.47368 0
M  V30 10786 H 1032.68 -0.539502 5.63122 0
M  V30 10787 H 1031.24 -0.237946 6.51366 0
M  V30 10788 N 1034.67 -1.14067 1.0875 0
M  V30 10789 C 1035.92 -1.84535 0.814235 0
M  V30 10790 C 1036.23 -1.84044 -0.662355 0
M  V30 10791 O 1037.44 -2.50336 -1.05091 0
M  V30 10792 C 1035.89 -3.31273 1.40663 0
M  V30 10793 C 1035.5 -3.40171 2.91526 0
M  V30 10794 C 1037.25 -4.0683 1.21201 0
M  V30 10795 C 1035.15 -4.81141 3.43885 0
M  V30 10796 H 1034.08 -0.691346 0.300926 0
M  V30 10797 H 1036.73 -1.28562 1.30935 0
M  V30 10798 H 1035.12 -3.87005 0.839215 0
M  V30 10799 H 1036.29 -2.94471 3.54434 0
M  V30 10800 H 1034.61 -2.78073 3.09942 0
M  V30 10801 H 1037.2 -5.10891 1.57781 0
M  V30 10802 H 1037.55 -4.16022 0.152092 0
M  V30 10803 H 1038.08 -3.57408 1.74655 0
M  V30 10804 H 1034.82 -4.77138 4.49466 0
M  V30 10805 H 1034.34 -5.27365 2.85738 0
M  V30 10806 H 1036.02 -5.50042 3.40681 0
M  V30 10807 N 1036.15 -0.873678 -1.31166 0
M  V30 10808 C 1037.4 -0.486457 -1.9657 0
M  V30 10809 C 1037.72 0.962042 -1.69041 0
M  V30 10810 O 1036.98 1.69305 -0.981543 0
M  V30 10811 C 1037.28 -0.69462 -3.50585 0
M  V30 10812 C 1036.94 -2.11647 -3.98141 0
M  V30 10813 C 1035.61 -2.50531 -4.10838 0
M  V30 10814 C 1037.96 -3.0436 -4.23101 0
M  V30 10815 C 1035.29 -3.81361 -4.45848 0
M  V30 10816 C 1037.64 -4.34709 -4.59577 0
M  V30 10817 C 1036.3 -4.73502 -4.70481 0
M  V30 10818 H 1035.57 -0.178007 -0.719301 0
M  V30 10819 H 1038.22 -1.10737 -1.56235 0
M  V30 10820 H 1036.52 0.00940878 -3.91799 0
M  V30 10821 H 1038.22 -0.374782 -3.99245 0
M  V30 10822 H 1034.81 -1.8046 -3.88757 0
M  V30 10823 H 1038.99 -2.75544 -4.12782 0
M  V30 10824 H 1034.25 -4.11174 -4.52488 0
M  V30 10825 H 1038.42 -5.06596 -4.77842 0
M  V30 10826 H 1036.05 -5.74919 -4.97365 0
M  V30 10827 N 1037.63 1.44308 -0.633487 0
M  V30 10828 C 1038.87 2.03904 -0.14226 0
M  V30 10829 C 1039.23 1.48768 1.21376 0
M  V30 10830 O 1040.43 1.99882 1.79724 0
M  V30 10831 C 1038.7 3.5716 -0.130975 0
M  V30 10832 S 1040.26 4.37805 0.295287 0
M  V30 10833 H 1037.08 0.70827 -0.0622429 0
M  V30 10834 H 1039.68 1.76657 -0.837405 0
M  V30 10835 H 1038.39 3.94794 -1.12096 0
M  V30 10836 H 1037.92 3.89021 0.585342 0
M  V30 10837 H 1039.93 4.71732 1.53894 0
M  V30 10838 N 1039.1 0.374177 1.53094 0
M  V30 10839 C 1040.33 -0.215903 2.06273 0
M  V30 10840 C 1040.75 -1.40979 1.24526 0
M  V30 10841 O 1040.11 -1.79331 0.266462 0
M  V30 10842 C 1040.16 -0.579089 3.5592 0
M  V30 10843 O 1039.26 -1.67516 3.76845 0
M  V30 10844 H 1038.61 -0.0293981 0.663349 0
M  V30 10845 H 1041.14 0.537271 1.9742 0
M  V30 10846 H 1041.15 -0.847678 3.99097 0
M  V30 10847 H 1039.82 0.293843 4.14861 0
M  V30 10848 H 1038.4 -1.40146 3.45563 0
M  V30 10849 N 1040.58 -1.57259 0.103575 0
M  V30 10850 C 1041.53 -2.14487 -0.852295 0
M  V30 10851 C 1042.5 -1.06567 -1.27407 0
M  V30 10852 O 1043.68 -1.34398 -1.35432 0
M  V30 10853 C 1040.82 -2.73632 -2.10284 0
M  V30 10854 C 1039.94 -3.95811 -1.73083 0
M  V30 10855 C 1039.07 -4.43093 -2.92988 0
M  V30 10856 C 1038.11 -5.5784 -2.51953 0
M  V30 10857 N 1037.25 -5.99936 -3.64721 0
M  V30 10858 H 1042.09 -2.95849 -0.35743 0
M  V30 10859 H 1039.63 -1.46175 -0.164748 0
M  V30 10860 H 1041.58 -3.06046 -2.83534 0
M  V30 10861 H 1040.21 -1.94985 -2.57256 0
M  V30 10862 H 1039.27 -3.69656 -0.897688 0
M  V30 10863 H 1040.58 -4.79066 -1.38916 0
M  V30 10864 H 1039.73 -4.77335 -3.74481 0
M  V30 10865 H 1038.47 -3.58756 -3.30372 0
M  V30 10866 H 1037.48 -5.23217 -1.6889 0
M  V30 10867 H 1038.7 -6.43932 -2.15705 0
M  V30 10868 H 1036.65 -5.18543 -4.01807 0
M  V30 10869 H 1036.56 -6.78008 -3.34427 0
M  V30 10870 H 1037.83 -6.38812 -4.46699 0
M  V30 10871 N 1042.06 0.170153 -1.56679 0
M  V30 10872 C 1043.01 1.21531 -1.9291 0
M  V30 10873 C 1043.99 1.39742 -0.797553 0
M  V30 10874 O 1045.19 1.41693 -1.06075 0
M  V30 10875 C 1042.32 2.55447 -2.29351 0
M  V30 10876 C 1041.4 2.40925 -3.49022 0
M  V30 10877 N 1041.79 1.96118 -4.66231 0
M  V30 10878 C 1040.09 2.71747 -3.53652 0
M  V30 10879 C 1040.79 1.94086 -5.48366 0
M  V30 10880 N 1039.77 2.36533 -4.89441 0
M  V30 10881 H 1043.57 0.860602 -2.81018 0
M  V30 10882 H 1041.08 0.378415 -1.5793 0
M  V30 10883 H 1043.08 3.30972 -2.53502 0
M  V30 10884 H 1041.74 2.9172 -1.42583 0
M  V30 10885 H 1042.75 1.66438 -4.90427 0
M  V30 10886 H 1039.43 3.1205 -2.77365 0
M  V30 10887 H 1040.82 1.61132 -6.52293 0
M  V30 10888 N 1043.54 1.5137 0.438746 0
M  V30 10889 C 1044.78 1.65627 1.19779 0
M  V30 10890 C 1045.14 0.363885 1.8852 0
M  V30 10891 O 1046.34 0.382215 2.66069 0
M  V30 10892 C 1044.61 2.82536 2.18879 0
M  V30 10893 S 1046.17 3.17113 3.0329 0
M  V30 10894 H 1042.99 0.583535 0.406212 0
M  V30 10895 H 1045.59 1.89271 0.489582 0
M  V30 10896 H 1044.3 3.74879 1.67015 0
M  V30 10897 H 1043.83 2.61077 2.94283 0
M  V30 10898 H 1045.84 2.63439 4.20493 0
M  V30 10899 N 1045.02 -0.694098 1.41492 0
M  V30 10900 C 1045.95 -1.81943 1.39389 0
M  V30 10901 C 1046.96 -1.6009 0.295836 0
M  V30 10902 O 1048.15 -1.69565 0.557658 0
M  V30 10903 C 1045.25 -3.18731 1.15167 0
M  V30 10904 C 1044.42 -3.67601 2.37041 0
M  V30 10905 C 1043.48 -4.83063 2.08654 0
M  V30 10906 O 1042.51 -4.94603 2.81704 0
M  V30 10907 N 1043.71 -5.70409 1.0777 0
M  V30 10908 H 1046.48 -1.84239 2.36381 0
M  V30 10909 H 1044.04 -0.876475 1.36123 0
M  V30 10910 H 1046.03 -3.93602 0.941264 0
M  V30 10911 H 1044.6 -3.11452 0.267673 0
M  V30 10912 H 1043.82 -2.83622 2.73774 0
M  V30 10913 H 1045.11 -3.96991 3.18239 0
M  V30 10914 H 1044.5 -5.63718 0.473123 0
M  V30 10915 H 1043.06 -6.45172 0.927177 0
M  V30 10916 N 1046.49 -1.27344 -0.928501 0
M  V30 10917 C 1047.77 -1.04362 -1.65433 0
M  V30 10918 C 1048.15 0.421896 -2.06841 0
M  V30 10919 O 1047.5 1.40496 -1.80203 0
M  V30 10920 C 1047.71 -2.00442 -2.85699 0
M  V30 10921 C 1049.06 -2.29767 -3.57061 0
M  V30 10922 O 1050.08 -1.98409 -2.95825 0
M  V30 10923 O 1048.94 -2.83217 -4.67387 0
M  V30 10924 H 1046.03 -0.397783 -0.72505 0
M  V30 10925 H 1048.58 -1.38606 -0.979109 0
M  V30 10926 H 1047.35 -2.99281 -2.52085 0
M  V30 10927 H 1046.98 -1.66755 -3.60941 0
M  V30 10928 N 1047.97 1.13488 -1.09353 0
M  V30 10929 C 1049.2 1.89133 -0.85108 0
M  V30 10930 C 1049.62 1.78542 0.591976 0
M  V30 10931 O 1048.98 1.13243 1.41583 0
M  V30 10932 C 1049.03 3.36736 -1.29001 0
M  V30 10933 O 1048.13 4.09959 -0.447993 0
M  V30 10934 H 1047.47 0.58809 -0.308296 0
M  V30 10935 H 1050 1.43593 -1.45747 0
M  V30 10936 H 1050.01 3.87564 -1.27508 0
M  V30 10937 H 1048.69 3.43762 -2.34095 0
M  V30 10938 H 1047.27 3.69155 -0.52717 0
M  V30 10939 N 1049.45 0.880621 1.30701 0
M  V30 10940 C 1050.7 0.495894 1.95922 0
M  V30 10941 C 1051.02 -0.957214 1.69889 0
M  V30 10942 O 1050.29 -1.67245 1.0201 0
M  V30 10943 H 1048.87 0.180394 0.724891 0
M  V30 10944 H 1051.53 1.12274 1.59313 0
M  V30 10945 H 1050.63 0.662508 3.04987 0
M  V30 10946 N 1050.93 -1.4397 0.641131 0
M  V30 10947 C 1052.35 -1.56607 0.30762 0
M  V30 10948 C 1052.55 -1.62694 -1.18882 0
M  V30 10949 O 1051.6 -1.57541 -1.97325 0
M  V30 10950 C 1052.91 -2.83289 1.00834 0
M  V30 10951 C 1054.46 -2.97016 0.98744 0
M  V30 10952 C 1054.94 -4.26514 1.66882 0
M  V30 10953 N 1056.43 -4.33351 1.63589 0
M  V30 10954 C 1057.16 -5.32292 2.13196 0
M  V30 10955 N 1056.66 -6.37582 2.71038 0
M  V30 10956 N 1058.45 -5.23866 2.03766 0
M  V30 10957 H 1050.6 -1.38262 1.61237 0
M  V30 10958 H 1052.87 -0.663221 0.677378 0
M  V30 10959 H 1052.57 -2.84812 2.06337 0
M  V30 10960 H 1052.45 -3.73134 0.552333 0
M  V30 10961 H 1054.83 -2.95041 -0.0591395 0
M  V30 10962 H 1054.91 -2.08493 1.48203 0
M  V30 10963 H 1054.56 -4.2925 2.71491 0
M  V30 10964 H 1054.49 -5.13912 1.14898 0
M  V30 10965 H 1056.98 -3.5788 1.21368 0
M  V30 10966 H 1057.29 -7.09378 3.06597 0
M  V30 10967 H 1055.64 -6.38239 2.75093 0
M  V30 10968 H 1058.83 -4.40524 1.58291 0
M  V30 10969 H 1059 -6.00819 2.42737 0
M  V30 10970 N 1052.41 -0.382291 -1.52893 0
M  V30 10971 C 1053.82 0.0932841 -1.86467 0
M  V30 10972 C 1054.17 1.4675 -1.30226 0
M  V30 10973 O 1053.29 2.07001 -0.63084 0
M  V30 10974 C 1053.89 0.176048 -3.38342 0
M  V30 10975 C 1052.45 0.595904 -3.71653 0
M  V30 10976 C 1051.6 -0.246511 -2.76202 0
M  V30 10977 H 1054.55 -0.600443 -1.46903 0
M  V30 10978 H 1054.57 0.996512 -3.67219 0
M  V30 10979 H 1054.08 -0.824264 -3.79246 0
M  V30 10980 H 1052.18 1.60384 -3.36315 0
M  V30 10981 H 1052.29 0.358919 -4.77754 0
M  V30 10982 H 1050.66 0.287162 -2.53076 0
M  V30 10983 H 1051.44 -1.24467 -3.19942 0
M  V30 10984 N 1053.89 1.57202 -0.111913 0
M  V30 10985 C 1055.13 1.94565 0.546713 0
M  V30 10986 C 1055.45 0.995644 1.67666 0
M  V30 10987 O 1054.72 0.0506681 1.95834 0
M  V30 10988 H 1053.3 0.718334 0.204951 0
M  V30 10989 H 1055.97 1.94074 -0.179193 0
M  V30 10990 H 1055.06 2.9742 0.945931 0
M  V30 10991 N 1055.36 -0.161842 1.56767 0
M  V30 10992 C 1056.3 -1.22927 1.9226 0
M  V30 10993 C 1057.27 -1.42309 0.786562 0
M  V30 10994 O 1058.46 -1.57163 1.04078 0
M  V30 10995 C 1055.59 -2.59069 2.18177 0
M  V30 10996 C 1054.63 -2.56368 3.40849 0
M  V30 10997 S 1055.46 -2.04518 4.94907 0
M  V30 10998 C 1056.62 -3.42418 5.23928 0
M  V30 10999 H 1056.85 -0.926377 2.82499 0
M  V30 11000 H 1054.39 -0.366822 1.49979 0
M  V30 11001 H 1056.34 -3.37421 2.33789 0
M  V30 11002 H 1055.01 -2.86554 1.28629 0
M  V30 11003 H 1054.2 -3.56551 3.56213 0
M  V30 11004 H 1053.8 -1.86116 3.24402 0
M  V30 11005 H 1056.09 -4.38461 5.16486 0
M  V30 11006 H 1057.04 -3.3192 6.25487 0
M  V30 11007 H 1057.44 -3.38868 4.51474 0
M  V30 11008 N 1056.84 -1.516 -0.430713 0
M  V30 11009 C 1057.75 -1.76247 -1.54836 0
M  V30 11010 C 1058.77 -0.646985 -1.61524 0
M  V30 11011 O 1059.94 -0.929987 -1.78643 0
M  V30 11012 C 1057.01 -1.88833 -2.90763 0
M  V30 11013 C 1056.07 -3.12701 -2.94137 0
M  V30 11014 C 1055.3 -3.24676 -4.23581 0
M  V30 11015 O 1055.53 -2.42429 -5.16318 0
M  V30 11016 O 1054.46 -4.17697 -4.33374 0
M  V30 11017 H 1058.29 -2.71069 -1.3695 0
M  V30 11018 H 1055.87 -1.36182 -0.614396 0
M  V30 11019 H 1057.75 -1.99057 -3.71422 0
M  V30 11020 H 1056.43 -0.971987 -3.08762 0
M  V30 11021 H 1055.33 -3.0795 -2.1241 0
M  V30 11022 H 1056.67 -4.04045 -2.81084 0
M  V30 11023 N 1058.32 0.686584 -1.41858 0
M  V30 11024 C 1059.73 1.26682 -1.37145 0
M  V30 11025 C 1060.08 1.96112 -0.058922 0
M  V30 11026 O 1059.21 1.99321 0.842629 0
M  V30 11027 C 1059.8 2.30383 -2.48413 0
M  V30 11028 C 1058.36 2.83961 -2.47069 0
M  V30 11029 C 1057.51 1.58119 -2.27802 0
M  V30 11030 H 1060.46 0.480742 -1.51243 0
M  V30 11031 H 1060.48 3.11868 -2.17987 0
M  V30 11032 H 1059.99 1.79822 -3.43927 0
M  V30 11033 H 1058.09 3.38675 -1.55338 0
M  V30 11034 H 1058.21 3.3378 -3.43697 0
M  V30 11035 H 1056.57 1.84258 -1.75844 0
M  V30 11036 H 1057.35 1.09541 -3.25355 0
M  V30 11037 N 1059.8 1.27835 0.921735 0
M  V30 11038 C 1061.05 1.13904 1.6646 0
M  V30 11039 C 1061.36 -0.313379 1.93073 0
M  V30 11040 O 1062.57 -0.573687 2.6537 0
M  V30 11041 C 1061.02 1.99064 2.99836 0
M  V30 11042 C 1060.63 3.48998 2.80899 0
M  V30 11043 C 1062.37 1.93797 3.77681 0
M  V30 11044 C 1060.28 4.26337 4.09867 0
M  V30 11045 H 1059.21 0.422681 0.624385 0
M  V30 11046 H 1061.86 1.52303 1.02352 0
M  V30 11047 H 1060.24 1.53514 3.65034 0
M  V30 11048 H 1061.42 4.02452 2.24431 0
M  V30 11049 H 1059.73 3.55707 2.16476 0
M  V30 11050 H 1062.33 2.48852 4.73262 0
M  V30 11051 H 1062.67 0.912928 4.06167 0
M  V30 11052 H 1063.21 2.37275 3.19289 0
M  V30 11053 H 1059.94 5.2939 3.86557 0
M  V30 11054 H 1059.46 3.77659 4.65976 0
M  V30 11055 H 1061.14 4.3583 4.78185 0
M  V30 11056 N 1061.28 -1.12907 1.09954 0
M  V30 11057 C 1062.5 -1.88679 0.861099 0
M  V30 11058 C 1062.93 -1.78853 -0.582499 0
M  V30 11059 O 1062.28 -1.13992 -1.4098 0
M  V30 11060 C 1062.33 -3.36047 1.30785 0
M  V30 11061 O 1061.44 -4.09716 0.469728 0
M  V30 11062 H 1060.78 -0.586447 0.31141 0
M  V30 11063 H 1063.31 -1.42818 1.46507 0
M  V30 11064 H 1063.32 -3.86882 1.29562 0
M  V30 11065 H 1061.99 -3.42516 2.35914 0
M  V30 11066 H 1060.57 -3.6887 0.54674 0
M  V30 11067 N 1062.75 -0.88754 -1.30232 0
M  V30 11068 C 1064.16 -0.55745 -1.78184 0
M  V30 11069 C 1064.52 0.926474 -1.72948 0
M  V30 11070 O 1063.64 1.72403 -1.3079 0
M  V30 11071 C 1064.24 -1.00512 -3.23547 0
M  V30 11072 C 1062.79 -0.726402 -3.69324 0
M  V30 11073 C 1061.94 -1.18666 -2.50627 0
M  V30 11074 H 1064.89 -1.07151 -1.17066 0
M  V30 11075 H 1064.91 -0.335185 -3.79021 0
M  V30 11076 H 1064.43 -2.08517 -3.27326 0
M  V30 11077 H 1062.53 0.341548 -3.71031 0
M  V30 11078 H 1062.64 -1.31575 -4.60679 0
M  V30 11079 H 1061 -0.605936 -2.47387 0
M  V30 11080 H 1061.79 -2.2745 -2.57141 0
M  V30 11081 N 1064.23 1.43628 -0.648757 0
M  V30 11082 C 1065.48 2.02163 -0.160574 0
M  V30 11083 C 1065.81 1.51037 1.22072 0
M  V30 11084 O 1065.09 0.701633 1.81404 0
M  V30 11085 C 1065.37 3.59715 -0.166528 0
M  V30 11086 C 1065.22 4.21083 -1.58142 0
M  V30 11087 C 1066.54 4.37256 0.499485 0
M  V30 11088 H 1063.66 0.734568 -0.0598238 0
M  V30 11089 H 1066.3 1.70981 -0.828592 0
M  V30 11090 H 1064.45 3.86411 0.402302 0
M  V30 11091 H 1066.12 4.05433 -2.2005 0
M  V30 11092 H 1064.37 3.77904 -2.13005 0
M  V30 11093 H 1065.04 5.30156 -1.53748 0
M  V30 11094 H 1067.51 4.16097 0.0155561 0
M  V30 11095 H 1066.39 5.4693 0.464574 0
M  V30 11096 H 1066.65 4.13175 1.57286 0
M  V30 11097 N 1065.71 0.390394 1.52688 0
M  V30 11098 C 1067.12 -0.083394 1.86514 0
M  V30 11099 C 1067.47 -1.46057 1.31003 0
M  V30 11100 O 1066.6 -2.06663 0.641809 0
M  V30 11101 C 1067.19 -0.158102 3.38431 0
M  V30 11102 C 1065.75 -0.576186 3.71964 0
M  V30 11103 C 1064.9 0.261156 2.76068 0
M  V30 11104 H 1067.85 0.608226 1.46582 0
M  V30 11105 H 1067.87 -0.977023 3.67742 0
M  V30 11106 H 1067.38 0.844365 3.78803 0
M  V30 11107 H 1065.48 -1.58598 3.37161 0
M  V30 11108 H 1065.6 -0.333577 4.77937 0
M  V30 11109 H 1063.96 -0.273737 2.53225 0
M  V30 11110 H 1064.74 1.26162 3.19277 0
M  V30 11111 N 1067.19 -1.57141 0.120249 0
M  V30 11112 C 1068.6 -1.82256 -0.404931 0
M  V30 11113 C 1068.95 -1.03748 -1.66526 0
M  V30 11114 O 1068.08 -0.274456 -2.14653 0
M  V30 11115 C 1068.67 -3.30588 -0.741431 0
M  V30 11116 C 1067.23 -3.56379 -1.21124 0
M  V30 11117 C 1066.38 -2.76421 -0.220569 0
M  V30 11118 H 1069.33 -1.54897 0.345361 0
M  V30 11119 H 1069.35 -3.45284 -1.59872 0
M  V30 11120 H 1068.86 -3.87701 0.176036 0
M  V30 11121 H 1066.96 -3.04625 -2.14556 0
M  V30 11122 H 1067.07 -4.64952 -1.1557 0
M  V30 11123 H 1065.44 -2.44666 -0.707857 0
M  V30 11124 H 1066.22 -3.36294 0.690018 0
M  V30 11125 N 1068.67 0.153526 -1.5685 0
M  V30 11126 C 1069.89 0.886343 -1.87507 0
M  V30 11127 C 1070.32 1.74244 -0.708565 0
M  V30 11128 O 1069.67 1.78045 0.341997 0
M  V30 11129 C 1069.72 1.72428 -3.16703 0
M  V30 11130 O 1068.83 2.82784 -3.00178 0
M  V30 11131 H 1068.17 0.247259 -0.616246 0
M  V30 11132 H 1070.7 0.146306 -2.04076 0
M  V30 11133 H 1070.71 2.12062 -3.4856 0
M  V30 11134 H 1069.38 1.09558 -4.01211 0
M  V30 11135 H 1067.96 2.46604 -2.79716 0
M  V30 11136 N 1070.14 1.51827 0.422667 0
M  V30 11137 C 1071.39 1.65464 1.17258 0
M  V30 11138 C 1071.72 0.376834 1.90509 0
M  V30 11139 O 1071 -0.624219 1.84211 0
M  V30 11140 C 1071.28 2.86776 2.17788 0
M  V30 11141 C 1071.13 4.24571 1.48523 0
M  V30 11142 C 1072.45 3.03603 3.18611 0
M  V30 11143 H 1069.57 0.602169 0.424925 0
M  V30 11144 H 1072.21 1.84349 0.45996 0
M  V30 11145 H 1070.36 2.70806 2.78561 0
M  V30 11146 H 1072.04 4.5224 0.909739 0
M  V30 11147 H 1070.28 4.26595 0.787354 0
M  V30 11148 H 1070.95 5.05475 2.2181 0
M  V30 11149 H 1073.43 3.18381 2.67904 0
M  V30 11150 H 1072.3 3.90022 3.8623 0
M  V30 11151 H 1072.56 2.16318 3.85563 0
M  V30 11152 N 1071.62 -0.679052 1.4222 0
M  V30 11153 C 1072.53 -1.82221 1.47759 0
M  V30 11154 C 1073.55 -1.70092 0.3667 0
M  V30 11155 O 1074.72 -1.91718 0.616957 0
M  V30 11156 C 1071.79 -3.18332 1.37351 0
M  V30 11157 C 1070.85 -3.42449 2.58896 0
M  V30 11158 C 1070.08 -4.72067 2.48976 0
M  V30 11159 O 1070.31 -5.49683 1.5233 0
M  V30 11160 O 1069.24 -4.97333 3.39033 0
M  V30 11161 H 1073.07 -1.80504 2.44238 0
M  V30 11162 H 1070.65 -0.834251 1.23938 0
M  V30 11163 H 1072.53 -3.99563 1.33893 0
M  V30 11164 H 1071.21 -3.20696 0.439965 0
M  V30 11165 H 1070.12 -2.61083 2.6793 0
M  V30 11166 H 1071.45 -3.44912 3.51136 0
M  V30 11167 N 1073.1 -1.28322 -0.914942 0
M  V30 11168 C 1074.01 -1.13993 -2.05043 0
M  V30 11169 C 1075.03 -0.0667921 -1.73872 0
M  V30 11170 O 1076.2 -0.275845 -1.99502 0
M  V30 11171 C 1073.27 -0.801856 -3.373 0
M  V30 11172 C 1072.33 -1.95723 -3.82088 0
M  V30 11173 C 1071.56 -1.63519 -5.08033 0
M  V30 11174 O 1071.78 -0.54899 -5.67752 0
M  V30 11175 O 1070.72 -2.47844 -5.48504 0
M  V30 11176 H 1074.54 -2.09313 -2.2005 0
M  V30 11177 H 1072.13 -1.0763 -1.03616 0
M  V30 11178 H 1074.01 -0.627214 -4.16706 0
M  V30 11179 H 1072.69 0.121696 -3.23471 0
M  V30 11180 H 1071.59 -2.18702 -3.03514 0
M  V30 11181 H 1072.93 -2.86144 -4.00478 0
M  V30 11182 N 1074.58 1.12322 -1.10551 0
M  V30 11183 C 1075.83 1.83216 -0.84349 0
M  V30 11184 C 1076.14 1.85075 0.632992 0
M  V30 11185 O 1077.35 2.51976 1.01095 0
M  V30 11186 C 1075.8 3.28994 -1.45915 0
M  V30 11187 C 1075.41 3.3549 -2.96901 0
M  V30 11188 C 1077.15 4.0485 -1.27657 0
M  V30 11189 C 1075.06 4.7561 -3.51496 0
M  V30 11190 H 1073.99 0.686471 -0.311887 0
M  V30 11191 H 1076.64 1.26463 -1.32964 0
M  V30 11192 H 1075.02 3.85621 -0.900678 0
M  V30 11193 H 1076.2 2.88795 -3.59074 0
M  V30 11194 H 1074.51 2.73107 -3.14327 0
M  V30 11195 H 1077.11 5.08316 -1.65889 0
M  V30 11196 H 1077.45 4.15727 -0.218258 0
M  V30 11197 H 1077.99 3.54584 -1.80318 0
M  V30 11198 H 1074.73 4.69927 -4.56999 0
M  V30 11199 H 1074.25 5.22753 -2.94091 0
M  V30 11200 H 1075.92 5.44552 -3.49388 0
M  V30 11201 N 1076.06 0.894434 1.2976 0
M  V30 11202 C 1077.47 0.566892 1.77885 0
M  V30 11203 C 1077.82 -0.917289 1.73437 0
M  V30 11204 O 1076.94 -1.71707 1.31703 0
M  V30 11205 C 1077.54 1.02227 3.2301 0
M  V30 11206 C 1076.1 0.745978 3.68934 0
M  V30 11207 C 1075.24 1.19993 2.49994 0
M  V30 11208 H 1078.2 1.0777 1.16496 0
M  V30 11209 H 1078.22 0.355281 3.78838 0
M  V30 11210 H 1077.73 2.1025 3.26215 0
M  V30 11211 H 1075.83 -0.321866 3.71207 0
M  V30 11212 H 1075.94 1.34017 4.59974 0
M  V30 11213 H 1074.31 0.619047 2.47063 0
M  V30 11214 H 1075.09 2.28811 2.55931 0
M  V30 11215 N 1077.53 -1.43282 0.656365 0
M  V30 11216 C 1078.78 -2.02075 0.171293 0
M  V30 11217 C 1079.11 -1.51682 -1.21269 0
M  V30 11218 O 1078.39 -0.711243 -1.81029 0
M  V30 11219 C 1078.67 -3.59621 0.185602 0
M  V30 11220 C 1078.52 -4.20239 1.60373 0
M  V30 11221 C 1079.84 -4.37515 -0.476289 0
M  V30 11222 H 1076.96 -0.73424 0.0637185 0
M  V30 11223 H 1079.6 -1.70539 0.837648 0
M  V30 11224 H 1077.75 -3.86619 -0.381804 0
M  V30 11225 H 1079.43 -4.0426 2.22197 0
M  V30 11226 H 1077.67 -3.76769 2.15006 0
M  V30 11227 H 1078.34 -5.29333 1.56557 0
M  V30 11228 H 1080.82 -4.16099 0.00651073 0
M  V30 11229 H 1079.69 -5.47169 -0.435562 0
M  V30 11230 H 1079.95 -4.14003 -1.55093 0
M  V30 11231 N 1079.01 -0.398486 -1.52479 0
M  V30 11232 C 1080.42 0.0735015 -1.86555 0
M  V30 11233 C 1080.78 1.45361 -1.31775 0
M  V30 11234 O 1079.9 2.0632 -0.652759 0
M  V30 11235 C 1080.5 0.140152 -3.3851 0
M  V30 11236 C 1079.05 0.556451 -3.72264 0
M  V30 11237 C 1078.2 -0.275792 -2.75925 0
M  V30 11238 H 1081.15 -0.615991 -1.46257 0
M  V30 11239 H 1081.17 0.957507 -3.68255 0
M  V30 11240 H 1080.69 -0.864442 -3.7835 0
M  V30 11241 H 1078.79 1.56808 -3.37997 0
M  V30 11242 H 1078.9 0.308227 -4.78107 0
M  V30 11243 H 1077.26 0.260304 -2.53366 0
M  V30 11244 H 1078.05 -1.27854 -3.18604 0
M  V30 11245 N 1080.49 1.57075 -0.12858 0
M  V30 11246 C 1081.74 1.95134 0.526046 0
M  V30 11247 C 1082.06 1.01337 1.66601 0
M  V30 11248 O 1081.33 0.0714361 1.9577 0
M  V30 11249 H 1079.91 0.720468 0.19732 0
M  V30 11250 H 1082.57 1.93874 -0.199767 0
M  V30 11251 H 1081.67 2.98406 0.914332 0
M  V30 11252 N 1081.97 -0.145205 1.5693 0
M  V30 11253 C 1082.88 -1.19864 2.01667 0
M  V30 11254 C 1083.9 -1.46909 0.932402 0
M  V30 11255 O 1085.07 -1.58543 1.24201 0
M  V30 11256 C 1082.14 -2.51174 2.38982 0
M  V30 11257 C 1081.2 -2.3176 3.61366 0
M  V30 11258 C 1080.43 -3.56809 3.96892 0
M  V30 11259 O 1080.65 -4.63063 3.33059 0
M  V30 11260 O 1079.59 -3.49366 4.9013 0
M  V30 11261 H 1083.41 -0.848821 2.91597 0
M  V30 11262 H 1081 -0.354063 1.45144 0
M  V30 11263 H 1082.88 -3.28587 2.63835 0
M  V30 11264 H 1081.56 -2.85683 1.52207 0
M  V30 11265 H 1080.46 -1.52293 3.41698 0
M  V30 11266 H 1081.8 -2.02167 4.48764 0
M  V30 11267 N 1083.45 -1.52049 -0.414609 0
M  V30 11268 C 1084.41 -1.74382 -1.4874 0
M  V30 11269 C 1085.41 -0.613701 -1.48628 0
M  V30 11270 O 1086.6 -0.88152 -1.50249 0
M  V30 11271 C 1083.73 -1.82116 -2.88178 0
M  V30 11272 H 1084.93 -2.70147 -1.30233 0
M  V30 11273 H 1082.48 -1.42382 -0.644756 0
M  V30 11274 H 1083.21 -0.882457 -3.12063 0
M  V30 11275 H 1083 -2.64268 -2.89663 0
M  V30 11276 H 1084.49 -2.01155 -3.65959 0
M  V30 11277 N 1084.93 0.6715 -1.42579 0
M  V30 11278 C 1086.17 1.43366 -1.43436 0
M  V30 11279 C 1086.5 1.94131 -0.0517339 0
M  V30 11280 O 1085.78 1.71121 0.924548 0
M  V30 11281 C 1086.06 2.62832 -2.46154 0
M  V30 11282 C 1085.92 2.17677 -3.9362 0
M  V30 11283 C 1087.23 3.65049 -2.4582 0
M  V30 11284 H 1084.35 0.519967 -0.522306 0
M  V30 11285 H 1087 0.762849 -1.74013 0
M  V30 11286 H 1085.15 3.20062 -2.2021 0
M  V30 11287 H 1086.82 1.65588 -4.30556 0
M  V30 11288 H 1085.06 1.49219 -4.07328 0
M  V30 11289 H 1085.73 3.03503 -4.61075 0
M  V30 11290 H 1088.21 3.17541 -2.68899 0
M  V30 11291 H 1087.08 4.46213 -3.19664 0
M  V30 11292 H 1087.34 4.16401 -1.48536 0
M  V30 11293 N 1086.4 1.28806 0.908124 0
M  V30 11294 C 1087.81 1.14719 1.47297 0
M  V30 11295 C 1088.17 -0.260763 1.94459 0
M  V30 11296 O 1087.29 -1.15553 1.82966 0
M  V30 11297 C 1087.89 2.07643 2.67712 0
M  V30 11298 C 1086.44 1.97605 3.20358 0
M  V30 11299 C 1085.59 1.99058 1.93058 0
M  V30 11300 H 1088.54 1.41413 0.720283 0
M  V30 11301 H 1088.56 1.64372 3.43165 0
M  V30 11302 H 1088.08 3.10108 2.33355 0
M  V30 11303 H 1086.18 0.981982 3.59427 0
M  V30 11304 H 1086.29 2.84846 3.85226 0
M  V30 11305 H 1084.65 1.43541 2.104 0
M  V30 11306 H 1085.44 3.03212 1.60989 0
M  V30 11307 N 1087.88 -1.11734 1.11145 0
M  V30 11308 C 1088.84 -2.15868 0.770303 0
M  V30 11309 C 1089.84 -1.59438 -0.208842 0
M  V30 11310 O 1091.03 -1.74193 0.0152516 0
M  V30 11311 C 1088.17 -3.40603 0.142303 0
M  V30 11312 H 1089.36 -2.4756 1.69276 0
M  V30 11313 H 1086.91 -1.26867 0.912929 0
M  V30 11314 H 1087.65 -3.14517 -0.790526 0
M  V30 11315 H 1087.43 -3.8284 0.847087 0
M  V30 11316 H 1088.92 -4.17523 -0.0803608 0
M  V30 11317 N 1089.36 -0.901303 -1.29284 0
M  V30 11318 C 1090.77 -0.576317 -1.77582 0
M  V30 11319 C 1091.12 0.908078 -1.73921 0
M  V30 11320 O 1090.25 1.71006 -1.32611 0
M  V30 11321 C 1090.84 -1.03938 -3.22463 0
M  V30 11322 C 1089.4 -0.765533 -3.68533 0
M  V30 11323 C 1088.55 -1.21318 -2.49354 0
M  V30 11324 H 1091.5 -1.08386 -1.15923 0
M  V30 11325 H 1091.52 -0.375367 -3.78644 0
M  V30 11326 H 1091.03 -2.11977 -3.25096 0
M  V30 11327 H 1089.13 0.302176 -3.71373 0
M  V30 11328 H 1089.25 -1.36454 -4.59257 0
M  V30 11329 H 1087.61 -0.632141 -2.46731 0
M  V30 11330 H 1088.39 -2.30165 -2.54714 0
M  V30 11331 N 1090.84 1.42931 -0.663954 0
M  V30 11332 C 1092.07 2.06028 -0.189808 0
M  V30 11333 C 1092.48 1.49827 1.14879 0
M  V30 11334 O 1091.84 0.633778 1.71142 0
M  V30 11335 C 1091.89 3.61349 -0.104343 0
M  V30 11336 O 1091.61 4.15463 -1.39004 0
M  V30 11337 C 1093.11 4.4154 0.394599 0
M  V30 11338 H 1090.33 0.664259 -0.0948744 0
M  V30 11339 H 1092.87 1.83255 -0.907632 0
M  V30 11340 H 1091.03 3.83271 0.564103 0
M  V30 11341 H 1091.44 5.09233 -1.25626 0
M  V30 11342 H 1092.92 5.50525 0.403329 0
M  V30 11343 H 1093.39 4.1534 1.4279 0
M  V30 11344 H 1094 4.24612 -0.241729 0
M  V30 11345 N 1092.32 0.406567 1.52266 0
M  V30 11346 C 1093.73 -0.063607 1.86592 0
M  V30 11347 C 1094.08 -1.4466 1.32544 0
M  V30 11348 O 1093.2 -2.05971 0.663692 0
M  V30 11349 C 1093.8 -0.122198 3.3858 0
M  V30 11350 C 1092.36 -0.536701 3.72554 0
M  V30 11351 C 1091.5 0.290422 2.75775 0
M  V30 11352 H 1094.45 0.623738 1.45929 0
M  V30 11353 H 1094.48 -0.937964 3.68758 0
M  V30 11354 H 1093.99 0.884495 3.77887 0
M  V30 11355 H 1092.09 -1.55013 3.38824 0
M  V30 11356 H 1092.2 -0.282867 4.78264 0
M  V30 11357 H 1090.57 -0.246864 2.53501 0
M  V30 11358 H 1091.35 1.29541 3.17921 0
M  V30 11359 N 1093.79 -1.57004 0.136909 0
M  V30 11360 C 1095.21 -1.82675 -0.385577 0
M  V30 11361 C 1095.56 -1.05508 -1.65416 0
M  V30 11362 O 1094.68 -0.297207 -2.14349 0
M  V30 11363 C 1095.28 -3.31356 -0.706326 0
M  V30 11364 C 1093.84 -3.57644 -1.17337 0
M  V30 11365 C 1092.98 -2.7664 -0.191239 0
M  V30 11366 H 1095.93 -1.54522 0.36177 0
M  V30 11367 H 1095.95 -3.4696 -1.56201 0
M  V30 11368 H 1095.47 -3.87492 0.217147 0
M  V30 11369 H 1093.57 -3.06883 -2.11313 0
M  V30 11370 H 1093.68 -4.66152 -1.10632 0
M  V30 11371 H 1092.04 -2.45403 -0.681867 0
M  V30 11372 H 1092.83 -3.35543 0.725647 0
M  V30 11373 N 1095.27 0.136881 -1.57004 0
M  V30 11374 C 1096.18 1.18793 -2.023 0
M  V30 11375 C 1097.2 1.46412 -0.94018 0
M  V30 11376 O 1098.37 1.57883 -1.2504 0
M  V30 11377 C 1095.44 2.49903 -2.40311 0
M  V30 11378 C 1094.5 2.29841 -3.6259 0
M  V30 11379 C 1093.73 3.54699 -3.98779 0
M  V30 11380 O 1093.96 4.61291 -3.3551 0
M  V30 11381 O 1092.89 3.46761 -4.91976 0
M  V30 11382 H 1096.72 0.833345 -2.92043 0
M  V30 11383 H 1094.3 0.346361 -1.4533 0
M  V30 11384 H 1096.18 3.27183 -2.65574 0
M  V30 11385 H 1094.86 2.84872 -1.5372 0
M  V30 11386 H 1093.77 1.50478 -3.42501 0
M  V30 11387 H 1095.1 1.99784 -4.4983 0
M  V30 11388 N 1096.75 1.52266 0.40654 0
M  V30 11389 C 1097.98 1.70598 1.17945 0
M  V30 11390 C 1098.4 0.415793 1.83447 0
M  V30 11391 O 1097.76 -0.626968 1.70114 0
M  V30 11392 C 1097.81 2.84449 2.21633 0
M  V30 11393 O 1096.91 2.50199 3.27833 0
M  V30 11394 H 1096.25 0.567837 0.344177 0
M  V30 11395 H 1098.78 1.98981 0.476211 0
M  V30 11396 H 1098.79 3.09436 2.65919 0
M  V30 11397 H 1097.47 3.78055 1.73341 0
M  V30 11398 H 1096.04 2.35892 2.88807 0
M  V30 11399 N 1098.23 -0.663929 1.42933 0
M  V30 11400 C 1099.64 -1.24484 1.39143 0
M  V30 11401 C 1099.99 -1.95993 0.0901142 0
M  V30 11402 O 1099.12 -2.00636 -0.810812 0
M  V30 11403 C 1099.71 -2.26402 2.52047 0
M  V30 11404 C 1098.27 -2.79995 2.51555 0
M  V30 11405 C 1097.42 -1.54475 2.30289 0
M  V30 11406 H 1100.37 -0.456619 1.51989 0
M  V30 11407 H 1100.39 -3.08361 2.22921 0
M  V30 11408 H 1099.9 -1.74328 3.46744 0
M  V30 11409 H 1098 -3.36161 1.60707 0
M  V30 11410 H 1098.11 -3.2827 3.48964 0
M  V30 11411 H 1096.48 -1.81437 1.78753 0
M  V30 11412 H 1097.26 -1.04351 3.27056 0
M  V30 11413 N 1099.71 -1.29285 -0.901281 0
M  V30 11414 C 1100.93 -1.20048 -1.68511 0
M  V30 11415 C 1101.35 0.239128 -1.8728 0
M  V30 11416 O 1100.71 1.16027 -1.40869 0
M  V30 11417 C 1100.76 -1.90798 -3.07048 0
M  V30 11418 O 1100.48 -3.29137 -2.89138 0
M  V30 11419 C 1101.98 -1.88017 -4.01453 0
M  V30 11420 H 1099.2 -0.416157 -0.52636 0
M  V30 11421 H 1101.74 -1.7063 -1.12719 0
M  V30 11422 H 1099.9 -1.44055 -3.5962 0
M  V30 11423 H 1100.31 -3.64747 -3.76908 0
M  V30 11424 H 1101.79 -2.42088 -4.96082 0
M  V30 11425 H 1102.26 -0.855341 -4.30791 0
M  V30 11426 H 1102.87 -2.34497 -3.54812 0
M  V30 11427 N 1101.18 1.11143 -1.11736 0
M  V30 11428 C 1102.6 1.64462 -0.883693 0
M  V30 11429 C 1102.95 1.87324 0.583448 0
M  V30 11430 O 1102.07 1.60975 1.44623 0
M  V30 11431 C 1102.67 2.98765 -1.59764 0
M  V30 11432 C 1101.23 3.4898 -1.41032 0
M  V30 11433 C 1100.37 2.23729 -1.63831 0
M  V30 11434 H 1103.32 0.947415 -1.27317 0
M  V30 11435 H 1103.34 3.65885 -1.04443 0
M  V30 11436 H 1102.86 2.82094 -2.66542 0
M  V30 11437 H 1100.96 3.7081 -0.364781 0
M  V30 11438 H 1101.07 4.27571 -2.16148 0
M  V30 11439 H 1099.43 2.31507 -1.06191 0
M  V30 11440 H 1100.22 2.09597 -2.7189 0
M  V30 11441 N 1102.66 0.908147 1.28804 0
M  V30 11442 C 1103.61 0.363504 2.25084 0
M  V30 11443 C 1104.6 -0.52121 1.52224 0
M  V30 11444 O 1105.79 -0.361848 1.73262 0
M  V30 11445 C 1102.92 -0.400353 3.40958 0
M  V30 11446 C 1102 0.499761 4.21145 0
M  V30 11447 N 1102.39 1.61082 4.79464 0
M  V30 11448 C 1100.69 0.299108 4.44996 0
M  V30 11449 C 1101.39 2.16906 5.39747 0
M  V30 11450 N 1100.37 1.46103 5.23598 0
M  V30 11451 H 1104.17 1.21212 2.6774 0
M  V30 11452 H 1101.69 0.760159 1.43511 0
M  V30 11453 H 1103.68 -0.807343 4.09008 0
M  V30 11454 H 1102.34 -1.24613 2.99836 0
M  V30 11455 H 1103.35 1.99347 4.77997 0
M  V30 11456 H 1100.03 -0.507611 4.14403 0
M  V30 11457 H 1101.42 3.10338 5.95936 0
M  V30 11458 N 1104.14 -1.42577 0.671525 0
M  V30 11459 C 1105.55 -1.84736 0.270084 0
M  V30 11460 C 1105.9 -1.56212 -1.18711 0
M  V30 11461 O 1105.03 -1.02028 -1.90838 0
M  V30 11462 C 1105.62 -3.35334 0.483409 0
M  V30 11463 C 1104.18 -3.76154 0.136119 0
M  V30 11464 C 1103.33 -2.66179 0.777444 0
M  V30 11465 H 1106.28 -1.3247 0.873919 0
M  V30 11466 H 1106.3 -3.79573 -0.265483 0
M  V30 11467 H 1105.81 -3.56063 1.54405 0
M  V30 11468 H 1103.91 -3.61033 -0.921209 0
M  V30 11469 H 1104.03 -4.75645 0.574356 0
M  V30 11470 H 1102.39 -2.53841 0.209055 0
M  V30 11471 H 1103.17 -2.89732 1.84148 0
M  V30 11472 N 1105.62 -0.414636 -1.52048 0
M  V30 11473 C 1107.03 0.0537107 -1.86623 0
M  V30 11474 C 1107.38 1.43955 -1.3331 0
M  V30 11475 O 1106.51 2.05616 -0.674606 0
M  V30 11476 C 1107.1 0.104241 -3.3864 0
M  V30 11477 C 1105.66 0.516936 -3.72833 0
M  V30 11478 C 1104.81 -0.305042 -2.75617 0
M  V30 11479 H 1107.76 -0.631469 -1.45596 0
M  V30 11480 H 1107.78 0.918395 -3.6925 0
M  V30 11481 H 1107.29 -0.904523 -3.77412 0
M  V30 11482 H 1105.39 1.53214 -3.39641 0
M  V30 11483 H 1105.5 0.2575 -4.78408 0
M  V30 11484 H 1103.87 0.233416 -2.53628 0
M  V30 11485 H 1104.65 -1.31226 -3.1723 0
M  V30 11486 N 1107.1 1.56929 -0.145233 0
M  V30 11487 C 1108.51 1.82877 0.375884 0
M  V30 11488 C 1108.86 1.06384 1.64854 0
M  V30 11489 O 1107.98 0.30857 2.14189 0
M  V30 11490 C 1108.58 3.31725 0.688744 0
M  V30 11491 C 1107.14 3.58261 1.15439 0
M  V30 11492 C 1106.28 2.76737 0.176565 0
M  V30 11493 H 1109.24 1.54328 -0.36996 0
M  V30 11494 H 1109.26 3.47784 1.54359 0
M  V30 11495 H 1108.77 3.87371 -0.237694 0
M  V30 11496 H 1106.87 3.08 2.09683 0
M  V30 11497 H 1106.98 4.66732 1.08158 0
M  V30 11498 H 1105.35 2.45761 0.668843 0
M  V30 11499 H 1106.13 3.35154 -0.743432 0
M  V30 11500 N 1108.58 -0.128553 1.57075 0
M  V30 11501 C 1109.54 -1.14215 1.98715 0
M  V30 11502 C 1110.54 -1.34843 0.876019 0
M  V30 11503 O 1111.73 -1.31522 1.14227 0
M  V30 11504 C 1108.86 -2.49865 2.31905 0
M  V30 11505 H 1110.05 -0.784481 2.89458 0
M  V30 11506 H 1107.61 -0.372531 1.51796 0
M  V30 11507 H 1108.34 -2.9057 1.44012 0
M  V30 11508 H 1108.13 -2.3625 3.12935 0
M  V30 11509 H 1109.62 -3.22832 2.64895 0
M  V30 11510 N 1110.05 -1.5248 -0.398459 0
M  V30 11511 C 1111.02 -1.75949 -1.46883 0
M  V30 11512 C 1112.02 -0.629431 -1.47969 0
M  V30 11513 O 1113.21 -0.897407 -1.49306 0
M  V30 11514 C 1110.34 -1.85162 -2.8623 0
M  V30 11515 H 1111.53 -2.71513 -1.2736 0
M  V30 11516 H 1109.08 -1.43058 -0.629619 0
M  V30 11517 H 1109.82 -0.915505 -3.11109 0
M  V30 11518 H 1109.6 -2.67326 -2.86844 0
M  V30 11519 H 1111.09 -2.05025 -3.63805 0
M  V30 11520 N 1111.53 0.65634 -1.43283 0
M  V30 11521 C 1112.94 1.23744 -1.39801 0
M  V30 11522 C 1113.29 1.95942 -0.100507 0
M  V30 11523 O 1112.42 2.01063 0.800161 0
M  V30 11524 C 1113.01 2.25062 -2.53244 0
M  V30 11525 C 1111.57 2.78657 -2.53036 0
M  V30 11526 C 1110.72 1.53251 -2.31105 0
M  V30 11527 H 1113.67 0.448553 -1.52229 0
M  V30 11528 H 1113.69 3.07174 -2.24553 0
M  V30 11529 H 1113.2 1.72487 -3.47664 0
M  V30 11530 H 1111.3 3.35304 -1.62487 0
M  V30 11531 H 1111.42 3.26414 -3.507 0
M  V30 11532 H 1109.78 1.80487 -1.79713 0
M  V30 11533 H 1110.56 1.02615 -3.27605 0
M  V30 11534 N 1113.01 1.29761 0.894412 0
M  V30 11535 C 1114.26 1.17806 1.64214 0
M  V30 11536 C 1114.58 -0.269588 1.93127 0
M  V30 11537 O 1113.85 -1.18352 1.56107 0
M  V30 11538 H 1112.43 0.433002 0.608702 0
M  V30 11539 H 1115.09 1.6276 1.07216 0
M  V30 11540 H 1114.19 1.73201 2.5963 0
M  V30 11541 N 1114.49 -1.10549 1.12324 0
M  V30 11542 C 1115.74 -1.82124 0.876083 0
M  V30 11543 C 1116.06 -1.85547 -0.599761 0
M  V30 11544 O 1115.33 -1.33269 -1.43584 0
M  V30 11545 H 1113.91 -0.674455 0.321122 0
M  V30 11546 H 1116.57 -1.33766 1.41748 0
M  V30 11547 H 1115.66 -2.85688 1.25653 0
M  V30 11548 N 1115.97 -0.914965 -1.28321 0
M  V30 11549 C 1116.88 -0.409424 -2.31 0
M  V30 11550 C 1117.89 0.503526 -1.66555 0
M  V30 11551 O 1119.07 0.38942 -1.97599 0
M  V30 11552 C 1116.13 0.34123 -3.45017 0
M  V30 11553 C 1115.19 -0.605087 -4.25014 0
M  V30 11554 C 1114.43 0.109837 -5.33587 0
M  V30 11555 O 1114.65 1.33136 -5.54645 0
M  V30 11556 O 1113.58 -0.555474 -5.99331 0
M  V30 11557 H 1117.41 -1.26167 -2.76253 0
M  V30 11558 H 1114.99 -0.679831 -1.33036 0
M  V30 11559 H 1116.88 0.765132 -4.14396 0
M  V30 11560 H 1115.55 1.16929 -3.01843 0
M  V30 11561 H 1114.46 -1.07841 -3.58219 0
M  V30 11562 H 1115.79 -1.39999 -4.7187 0
M  V30 11563 N 1117.44 1.42219 -0.679077 0
M  V30 11564 C 1118.86 1.55737 -0.349034 0
M  V30 11565 C 1119.06 1.65789 1.14527 0
M  V30 11566 O 1118.12 1.62717 1.93079 0
M  V30 11567 C 1119.43 2.80516 -1.0831 0
M  V30 11568 C 1120.98 2.94294 -1.06584 0
M  V30 11569 C 1121.45 4.2194 -1.78132 0
M  V30 11570 N 1122.94 4.28861 -1.75021 0
M  V30 11571 C 1123.68 5.26453 -2.27234 0
M  V30 11572 N 1123.17 6.30171 -2.87847 0
M  V30 11573 N 1124.97 5.1828 -2.17584 0
M  V30 11574 H 1117.12 1.33939 -1.64846 0
M  V30 11575 H 1119.38 0.645029 -0.694725 0
M  V30 11576 H 1119.09 2.79241 -2.13816 0
M  V30 11577 H 1118.96 3.71539 -0.651069 0
M  V30 11578 H 1121.35 2.95094 -0.0191061 0
M  V30 11579 H 1121.43 2.04491 -1.53679 0
M  V30 11580 H 1121.07 4.21901 -2.82776 0
M  V30 11581 H 1121 5.10685 -1.28483 0
M  V30 11582 H 1123.49 3.54537 -1.30814 0
M  V30 11583 H 1123.81 7.01 -3.25298 0
M  V30 11584 H 1122.15 6.30721 -2.91918 0
M  V30 11585 H 1125.34 4.36172 -1.69916 0
M  V30 11586 H 1125.52 5.94172 -2.58581 0
M  V30 11587 N 1118.92 0.422693 1.51826 0
M  V30 11588 C 1119.88 -0.384307 2.25955 0
M  V30 11589 C 1120.88 -0.962184 1.28836 0
M  V30 11590 O 1122.07 -0.838931 1.52668 0
M  V30 11591 C 1119.21 -1.54228 3.04018 0
M  V30 11592 H 1120.4 0.265157 2.98726 0
M  V30 11593 H 1117.95 0.175515 1.55311 0
M  V30 11594 H 1118.69 -2.22822 2.35629 0
M  V30 11595 H 1118.47 -1.13425 3.75336 0
M  V30 11596 H 1119.96 -2.1128 3.60209 0
M  V30 11597 N 1120.4 -1.5685 0.153553 0
M  V30 11598 C 1121.65 -1.95946 -0.494936 0
M  V30 11599 C 1121.97 -1.03975 -1.64967 0
M  V30 11600 O 1121.24 -0.102572 -1.95631 0
M  V30 11601 H 1119.82 -0.723516 -0.185833 0
M  V30 11602 H 1122.48 -1.93531 0.230585 0
M  V30 11603 H 1121.58 -2.99823 -0.866743 0
M  V30 11604 N 1121.88 0.120221 -1.57141 0
M  V30 11605 C 1123.11 0.842441 -1.88972 0
M  V30 11606 C 1123.52 1.73494 -0.744671 0
M  V30 11607 O 1122.88 1.80268 0.284557 0
M  V30 11608 C 1122.93 1.67688 -3.20254 0
M  V30 11609 O 1122.65 0.820319 -4.30351 0
M  V30 11610 C 1124.15 2.50436 -3.65782 0
M  V30 11611 H 1121.37 0.242241 -0.625748 0
M  V30 11612 H 1123.91 0.104978 -2.0423 0
M  V30 11613 H 1122.07 2.36712 -3.0667 0
M  V30 11614 H 1122.48 1.39575 -5.05588 0
M  V30 11615 H 1123.96 3.04518 -4.60405 0
M  V30 11616 H 1124.43 3.27737 -2.92378 0
M  V30 11617 H 1125.04 1.86657 -3.82151 0
M  V30 11618 N 1123.36 1.52689 0.390367 0
M  V30 11619 C 1124.6 1.68866 1.13383 0
M  V30 11620 C 1124.96 0.422683 1.877 0
M  V30 11621 O 1124.25 -0.583587 1.82496 0
M  V30 11622 C 1124.44 2.86177 2.14096 0
M  V30 11623 C 1124.27 4.24062 1.49672 0
M  V30 11624 C 1123.04 4.89303 1.26139 0
M  V30 11625 C 1125.24 5.05496 0.947554 0
M  V30 11626 N 1123.22 6.11172 0.578051 0
M  V30 11627 C 1124.59 6.18758 0.392199 0
M  V30 11628 C 1126.65 4.90697 0.843832 0
M  V30 11629 C 1125.35 7.18842 -0.256734 0
M  V30 11630 C 1127.38 5.91032 0.208722 0
M  V30 11631 C 1126.74 7.03599 -0.33587 0
M  V30 11632 H 1122.84 0.671411 0.400914 0
M  V30 11633 H 1125.42 1.90037 0.423563 0
M  V30 11634 H 1123.59 2.66589 2.82462 0
M  V30 11635 H 1125.33 2.91298 2.80941 0
M  V30 11636 H 1122.08 4.48 1.53601 0
M  V30 11637 H 1122.51 6.76529 0.252464 0
M  V30 11638 H 1127.15 4.03879 1.25067 0
M  V30 11639 H 1124.87 8.05271 -0.675589 0
M  V30 11640 H 1128.45 5.81655 0.129732 0
M  V30 11641 H 1127.33 7.79906 -0.819557 0
M  V30 11642 N 1124.83 -0.648732 1.43629 0
M  V30 11643 C 1126.25 -0.964917 1.27128 0
M  V30 11644 C 1126.45 -2.00561 0.194251 0
M  V30 11645 O 1125.51 -2.48884 -0.42581 0
M  V30 11646 C 1126.82 -1.44491 2.6371 0
M  V30 11647 C 1128.37 -1.56133 2.71278 0
M  V30 11648 C 1128.84 -2.07521 4.08288 0
M  V30 11649 N 1130.33 -2.14817 4.10375 0
M  V30 11650 C 1131.07 -2.55712 5.13224 0
M  V30 11651 N 1130.56 -2.9587 6.26444 0
M  V30 11652 N 1132.36 -2.55691 5.00578 0
M  V30 11653 H 1124.51 0.0398357 2.12363 0
M  V30 11654 H 1126.77 -0.0447705 0.946942 0
M  V30 11655 H 1126.48 -0.754616 3.43509 0
M  V30 11656 H 1126.35 -2.41914 2.89409 0
M  V30 11657 H 1128.74 -2.24263 1.91808 0
M  V30 11658 H 1128.82 -0.571314 2.49338 0
M  V30 11659 H 1128.46 -1.39992 4.88226 0
M  V30 11660 H 1128.39 -3.07362 4.27594 0
M  V30 11661 H 1130.88 -1.86538 3.28652 0
M  V30 11662 H 1131.2 -3.25837 7.0075 0
M  V30 11663 H 1129.54 -2.93664 6.2991 0
M  V30 11664 H 1132.73 -2.23697 4.1119 0
M  V30 11665 H 1132.91 -2.87239 5.80859 0
M  V30 11666 N 1126.31 -1.30234 -0.887518 0
M  V30 11667 C 1127.73 -1.0851 -1.17037 0
M  V30 11668 C 1127.93 0.155788 -2.00897 0
M  V30 11669 O 1126.98 0.850123 -2.37759 0
M  V30 11670 C 1128.3 -2.34723 -1.87951 0
M  V30 11671 C 1129.85 -2.40163 -2.00726 0
M  V30 11672 C 1130.32 -3.66211 -2.75051 0
M  V30 11673 N 1131.81 -3.67004 -2.82599 0
M  V30 11674 C 1132.55 -4.61224 -3.40676 0
M  V30 11675 N 1132.04 -5.65786 -3.99823 0
M  V30 11676 N 1133.84 -4.48772 -3.38467 0
M  V30 11677 H 1125.99 -2.09847 -0.328297 0
M  V30 11678 H 1128.25 -0.924904 -0.20798 0
M  V30 11679 H 1127.96 -3.25265 -1.33773 0
M  V30 11680 H 1127.83 -2.43175 -2.8835 0
M  V30 11681 H 1130.22 -1.50101 -2.54074 0
M  V30 11682 H 1130.3 -2.35688 -0.994218 0
M  V30 11683 H 1129.94 -4.56631 -2.22376 0
M  V30 11684 H 1129.87 -3.67947 -3.76726 0
M  V30 11685 H 1132.36 -2.91409 -2.40602 0
M  V30 11686 H 1132.68 -6.33783 -4.42197 0
M  V30 11687 H 1131.02 -5.69581 -3.9825 0
M  V30 11688 H 1134.21 -3.6627 -2.91485 0
M  V30 11689 H 1134.38 -5.22382 -3.83433 0
M  V30 11690 N 1127.79 1.09952 -1.12909 0
M  V30 11691 C 1128.74 2.14591 -0.77037 0
M  V30 11692 C 1129.72 1.59204 0.233021 0
M  V30 11693 O 1130.92 1.7696 0.0377599 0
M  V30 11694 C 1128.05 3.42514 -0.232117 0
M  V30 11695 C 1127.13 4.04823 -1.26409 0
M  V30 11696 N 1127.52 4.41763 -2.46331 0
M  V30 11697 C 1125.82 4.31951 -1.11062 0
M  V30 11698 C 1126.52 4.90778 -3.12269 0
M  V30 11699 N 1125.5 4.87896 -2.39704 0
M  V30 11700 H 1129.3 2.40951 -1.68285 0
M  V30 11701 H 1126.81 1.27125 -1.0106 0
M  V30 11702 H 1128.81 4.16878 0.0430853 0
M  V30 11703 H 1127.47 3.17612 0.674757 0
M  V30 11704 H 1128.48 4.33299 -2.83677 0
M  V30 11705 H 1125.16 4.16681 -0.261456 0
M  V30 11706 H 1126.55 5.28868 -4.14425 0
M  V30 11707 N 1129.27 0.921757 1.27833 0
M  V30 11708 C 1130.68 0.621102 1.47019 0
M  V30 11709 C 1130.88 -0.831338 1.83551 0
M  V30 11710 O 1129.94 -1.60974 1.94534 0
M  V30 11711 C 1131.25 1.56588 2.56712 0
M  V30 11712 C 1132.8 1.57346 2.70576 0
M  V30 11713 C 1133.28 2.50505 3.8342 0
M  V30 11714 N 1134.77 2.48678 3.90786 0
M  V30 11715 C 1135.5 3.17454 4.77505 0
M  V30 11716 N 1135 3.95588 5.68755 0
M  V30 11717 N 1136.79 3.06501 4.71183 0
M  V30 11718 H 1128.94 1.86085 1.02403 0
M  V30 11719 H 1131.21 0.798595 0.510833 0
M  V30 11720 H 1130.91 2.60175 2.36647 0
M  V30 11721 H 1130.79 1.30305 3.53978 0
M  V30 11722 H 1133.17 0.544919 2.90025 0
M  V30 11723 H 1133.25 1.87675 1.73815 0
M  V30 11724 H 1132.9 3.53466 3.64725 0
M  V30 11725 H 1132.83 2.17474 4.79596 0
M  V30 11726 H 1135.32 1.91928 3.25534 0
M  V30 11727 H 1135.63 4.45066 6.31772 0
M  V30 11728 H 1133.98 3.99692 5.6857 0
M  V30 11729 H 1137.17 2.44958 3.9889 0
M  V30 11730 H 1137.34 3.60372 5.3855 0
M  V30 11731 N 1130.75 -1.41857 0.686609 0
M  V30 11732 C 1132.02 -1.95082 0.142228 0
M  V30 11733 C 1132.4 -1.62646 -1.34572 0
M  V30 11734 O 1131.75 -0.928757 -2.08773 0
M  V30 11735 C 1131.96 -3.46415 0.423955 0
M  V30 11736 C 1133.31 -4.23181 0.346842 0
M  V30 11737 O 1134.33 -3.54393 0.358363 0
M  V30 11738 O 1133.19 -5.4568 0.299211 0
M  V30 11739 H 1130.29 -0.826943 0.00974 0
M  V30 11740 H 1132.83 -1.51622 0.762153 0
M  V30 11741 H 1131.6 -3.63273 1.45424 0
M  V30 11742 H 1131.23 -3.96949 -0.227391 0
M  V30 11743 O 1132.26 -0.572812 -1.51 0
M  V30 11744 H 1132.95 -0.0746995 -1.93556 0
M  V30 END ATOM
M  V30 BEGIN BOND
M  V30 END BOND
M  V30 END CTAB
M  END
$$$$
