drugbank_target|P01308 Insulin (DB01593; DB01776; DB08231; DB14487; DB14533; DB14548)
 OpenBabel12092120333D

  0  0  0     0  0            999 V3000
M  V30 BEGIN CTAB
M  V30 COUNTS 1677 1695 0 0 0
M  V30 BEGIN ATOM
M  V30 1 H -0.908 1.98254 -0.117106 0
M  V30 2 N 0 1.576 0 0
M  V30 3 C 0.933 2.03868 1.02534 0
M  V30 4 C 1.911 0.928543 1.3348 0
M  V30 5 O 3.095 1.19667 1.45644 0
M  V30 6 C 0.222 2.43627 2.35294 0
M  V30 7 C -0.732 3.65373 2.2001 0
M  V30 8 S 0.101 5.13292 1.52614 0
M  V30 9 C 1.257 5.56322 2.86805 0
M  V30 10 H 1.49 2.90518 0.631377 0
M  V30 11 H -0.977 1.52953 0.210867 0
M  V30 12 H 0.981 2.67203 3.11629 0
M  V30 13 H -0.358 1.57376 2.7183 0
M  V30 14 H -1.165 3.90944 3.18086 0
M  V30 15 H -1.563 3.418 1.51819 0
M  V30 16 H 0.729 5.58782 3.83104 0
M  V30 17 H 1.672 6.56266 2.65933 0
M  V30 18 H 2.08 4.83886 2.90714 0
M  V30 19 N 1.4781 -0.272755 1.55222 0
M  V30 20 C 2.4411 -1.32041 1.87344 0
M  V30 21 C 3.4411 -1.42342 0.74803 0
M  V30 22 O 4.6311 -1.41488 1.0162 0
M  V30 23 C 1.7631 -2.70173 2.07893 0
M  V30 24 H 2.9561 -1.04789 2.80997 0
M  V30 25 H 0.5091 -0.51083 1.47717 0
M  V30 26 H 1.2441 -3.02605 1.16622 0
M  V30 27 H 1.0291 -2.64082 2.89833 0
M  V30 28 H 2.5191 -3.45869 2.34017 0
M  V30 29 N 2.9562 -1.48159 -0.537278 0
M  V30 30 C 3.8862 -1.65029 -1.6519 0
M  V30 31 C 4.8672 -0.499281 -1.62607 0
M  V30 32 O 6.0522 -0.730972 -1.79918 0
M  V30 33 C 3.1822 -1.68303 -3.03795 0
M  V30 34 C 2.1362 -2.8283 -3.21234 0
M  V30 35 C 1.4622 -2.71189 -4.60826 0
M  V30 36 C 2.7622 -4.24211 -3.04701 0
M  V30 37 H 4.4562 -2.58341 -1.51328 0
M  V30 38 H 2.0022 -1.24325 -0.726585 0
M  V30 39 H 3.9552 -1.78693 -3.81637 0
M  V30 40 H 2.6792 -0.715635 -3.18663 0
M  V30 41 H 1.3382 -2.71983 -2.45807 0
M  V30 42 H 0.9862 -1.72435 -4.7252 0
M  V30 43 H 0.6862 -3.48035 -4.7344 0
M  V30 44 H 2.2102 -2.83537 -5.40777 0
M  V30 45 H 3.6242 -4.3593 -3.72341 0
M  V30 46 H 2.0212 -5.01998 -3.28813 0
M  V30 47 H 3.0912 -4.41184 -2.01209 0
M  V30 48 N 4.4343 0.785586 -1.36625 0
M  V30 49 C 5.6803 1.5452 -1.32269 0
M  V30 50 C 6.0353 1.92159 0.0962266 0
M  V30 51 O 5.3283 1.60158 1.05167 0
M  V30 52 C 5.5223 2.83007 -2.1827 0
M  V30 53 C 5.3513 2.57925 -3.68382 0
M  V30 54 C 4.1213 2.52752 -4.37544 0
M  V30 55 C 6.3193 2.26861 -4.61561 0
M  V30 56 N 4.3013 2.19608 -5.73276 0
M  V30 57 C 5.6723 2.03738 -5.85569 0
M  V30 58 C 7.7273 2.129 -4.50087 0
M  V30 59 C 6.4303 1.68065 -6.9939 0
M  V30 60 C 8.4563 1.78626 -5.63779 0
M  V30 61 C 7.8183 1.56353 -6.86828 0
M  V30 62 H 3.9173 0.566301 -0.539283 0
M  V30 63 H 6.5013 0.917736 -1.71714 0
M  V30 64 H 4.6723 3.43614 -1.81063 0
M  V30 65 H 6.4043 3.48775 -2.05275 0
M  V30 66 H 3.1593 2.6813 -3.90389 0
M  V30 67 H 3.5833 2.05771 -6.44971 0
M  V30 68 H 8.2253 2.28808 -3.55537 0
M  V30 69 H 5.9433 1.50895 -7.93887 0
M  V30 70 H 9.5293 1.68502 -5.56865 0
M  V30 71 H 8.4093 1.30223 -7.73312 0
M  V30 72 N 5.9124 1.20967 1.01018 0
M  V30 73 C 6.8454 0.907578 2.09376 0
M  V30 74 C 7.8234 -0.142868 1.61971 0
M  V30 75 O 9.0074 -0.0150391 1.88494 0
M  V30 76 C 6.1344 0.361791 3.36762 0
M  V30 77 C 5.1804 1.39423 4.03068 0
M  V30 78 S 6.0134 2.96159 4.4615 0
M  V30 79 C 7.1694 2.43173 5.7673 0
M  V30 80 H 7.4024 1.82519 2.34678 0
M  V30 81 H 4.9354 1.03884 1.14225 0
M  V30 82 H 6.8934 0.0534523 4.10465 0
M  V30 83 H 5.5544 -0.53443 3.0952 0
M  V30 84 H 4.7474 0.961853 4.94737 0
M  V30 85 H 4.3494 1.65038 3.35617 0
M  V30 86 H 6.6414 1.83335 6.52223 0
M  V30 87 H 7.5844 3.33264 6.24773 0
M  V30 88 H 7.9924 1.85069 5.33301 0
M  V30 89 N 7.3905 -1.2043 1.01659 0
M  V30 90 C 8.8065 -1.41852 0.731442 0
M  V30 91 C 9.0065 -1.89358 -0.688898 0
M  V30 92 O 8.0625 -2.06247 -1.45666 0
M  V30 93 C 9.3755 -2.44019 1.75714 0
M  V30 94 C 10.9235 -2.57785 1.77527 0
M  V30 95 C 11.3985 -3.63194 2.79023 0
M  V30 96 N 12.8895 -3.70678 2.77763 0
M  V30 97 C 13.6245 -4.51897 3.52954 0
M  V30 98 N 13.1205 -5.36921 4.37821 0
M  V30 99 N 14.9135 -4.4643 3.41551 0
M  V30 100 H 7.0645 -0.879093 1.93354 0
M  V30 101 H 9.3275 -0.448425 0.835236 0
M  V30 102 H 9.0335 -2.1611 2.77469 0
M  V30 103 H 8.9075 -3.43007 1.56927 0
M  V30 104 H 11.2945 -2.85023 0.764569 0
M  V30 105 H 11.3755 -1.58992 2.00387 0
M  V30 106 H 11.0195 -3.36699 3.80258 0
M  V30 107 H 10.9495 -4.61609 2.53425 0
M  V30 108 H 13.4405 -3.09944 2.16201 0
M  V30 109 H 13.7535 -5.95981 4.91962 0
M  V30 110 H 12.0985 -5.36424 4.41899 0
M  V30 111 H 15.2895 -3.79042 2.74672 0
M  V30 112 H 15.4625 -5.09491 4.00404 0
M  V30 113 N 8.8686 -0.792821 -1.36206 0
M  V30 114 C 9.7986 -0.207853 -2.32573 0
M  V30 115 C 10.7796 0.659055 -1.56813 0
M  V30 116 O 11.9646 0.592176 -1.84951 0
M  V30 117 C 9.0946 0.655449 -3.41059 0
M  V30 118 C 8.0486 -0.111842 -4.27854 0
M  V30 119 C 7.3746 0.872274 -5.27537 0
M  V30 120 C 8.6746 -1.30299 -5.05786 0
M  V30 121 H 10.3686 -1.01294 -2.81744 0
M  V30 122 H 7.9146 -0.48854 -1.3546 0
M  V30 123 H 9.8676 1.07464 -4.07467 0
M  V30 124 H 8.5916 1.49328 -2.90463 0
M  V30 125 H 7.2506 -0.512053 -3.63006 0
M  V30 126 H 6.8986 1.70523 -4.73214 0
M  V30 127 H 6.5986 0.363291 -5.86476 0
M  V30 128 H 8.1226 1.28996 -5.96818 0
M  V30 129 H 9.5366 -0.959379 -5.65216 0
M  V30 130 H 7.9336 -1.7455 -5.74154 0
M  V30 131 H 9.0036 -2.09663 -4.37229 0
M  V30 132 N 10.3467 1.47872 -0.545128 0
M  V30 133 C 11.2767 2.32661 0.197793 0
M  V30 134 C 12.2577 1.43041 0.920504 0
M  V30 135 O 13.4427 1.71912 0.90333 0
M  V30 136 C 10.5727 3.24569 1.23582 0
M  V30 137 C 9.5267 4.23333 0.630323 0
M  V30 138 C 8.8527 5.0448 1.77211 0
M  V30 139 C 10.1527 5.20704 -0.407974 0
M  V30 140 H 11.8467 2.95024 -0.510045 0
M  V30 141 H 9.3927 1.4187 -0.246731 0
M  V30 142 H 11.3457 3.8272 1.76362 0
M  V30 143 H 10.0697 2.60236 1.97344 0
M  V30 144 H 8.7287 3.6639 0.123922 0
M  V30 145 H 8.3767 4.36561 2.49847 0
M  V30 146 H 8.0767 5.71339 1.37281 0
M  V30 147 H 9.6007 5.65487 2.3034 0
M  V30 148 H 11.0147 5.7329 0.033305 0
M  V30 149 H 9.4117 5.95699 -0.725486 0
M  V30 150 H 10.4817 4.66917 -1.30828 0
M  V30 151 N 11.8248 0.280983 1.55075 0
M  V30 152 C 13.2358 -0.215629 1.85451 0
M  V30 153 C 13.5868 -1.54991 1.203 0
M  V30 154 O 12.7118 -2.10699 0.493435 0
M  V30 155 C 13.3068 -0.398026 3.36454 0
M  V30 156 C 11.8658 -0.838866 3.66933 0
M  V30 157 C 11.0128 0.064458 2.77225 0
M  V30 158 H 13.9638 0.502601 1.50531 0
M  V30 159 H 13.9848 -1.23569 3.59876 0
M  V30 160 H 13.4968 0.573241 3.83843 0
M  V30 161 H 11.5978 -1.8214 3.25048 0
M  V30 162 H 11.7108 -0.672123 4.74362 0
M  V30 163 H 10.0748 -0.452863 2.50642 0
M  V30 164 H 10.8578 1.03172 3.2743 0
M  V30 165 N 13.3029 -1.57598 0.00835791 0
M  V30 166 C 14.2329 -2.1198 -0.979113 0
M  V30 167 C 15.2139 -1.03091 -1.35301 0
M  V30 168 O 16.3989 -1.30818 -1.43528 0
M  V30 169 C 13.5289 -2.62995 -2.26828 0
M  V30 170 C 12.4829 -3.76485 -2.03576 0
M  V30 171 C 11.8089 -4.13846 -3.38579 0
M  V30 172 C 13.1089 -5.0342 -1.39161 0
M  V30 173 H 14.8029 -2.94738 -0.526281 0
M  V30 174 H 12.3489 -1.41783 -0.251704 0
M  V30 175 H 14.3019 -2.99669 -2.96271 0
M  V30 176 H 13.0259 -1.7737 -2.7424 0
M  V30 177 H 11.6849 -3.40217 -1.36557 0
M  V30 178 H 11.3329 -3.25232 -3.83709 0
M  V30 179 H 11.0329 -4.90312 -3.23834 0
M  V30 180 H 12.5569 -4.53086 -4.09323 0
M  V30 181 H 13.9709 -5.37812 -1.98573 0
M  V30 182 H 12.3679 -5.84746 -1.34878 0
M  V30 183 H 13.4379 -4.83548 -0.361868 0
M  V30 184 N 14.781 0.264519 -1.55364 0
M  V30 185 C 15.711 1.33121 -1.91836 0
M  V30 186 C 16.692 1.51101 -0.781192 0
M  V30 187 O 17.877 1.64003 -1.04003 0
M  V30 188 C 15.007 2.68921 -2.19769 0
M  V30 189 C 13.961 2.65661 -3.35571 0
M  V30 190 C 13.287 4.05093 -3.49004 0
M  V30 191 C 14.587 2.24187 -4.71739 0
M  V30 192 H 16.281 1.02844 -2.81182 0
M  V30 193 H 13.827 0.493286 -1.35287 0
M  V30 194 H 15.78 3.43663 -2.43872 0
M  V30 195 H 14.504 3.00799 -1.27231 0
M  V30 196 H 13.163 1.93377 -3.1145 0
M  V30 197 H 12.811 4.34206 -2.53917 0
M  V30 198 H 12.511 4.03804 -4.26868 0
M  V30 199 H 14.035 4.81561 -3.75408 0
M  V30 200 H 15.449 2.88654 -4.9533 0
M  V30 201 H 13.846 2.34044 -5.52579 0
M  V30 202 H 14.916 1.19327 -4.69988 0
M  V30 203 N 16.2591 1.48442 0.529413 0
M  V30 204 C 17.2221 1.62524 1.61612 0
M  V30 205 C 18.2221 0.498509 1.52877 0
M  V30 206 O 19.4121 0.76431 1.56537 0
M  V30 207 C 16.5441 1.59597 3.01233 0
M  V30 208 H 17.7371 2.59423 1.50465 0
M  V30 209 H 15.2901 1.37047 0.751514 0
M  V30 210 H 16.0251 0.641781 3.17886 0
M  V30 211 H 15.8101 2.41397 3.08982 0
M  V30 212 H 17.3001 1.72646 3.80241 0
M  V30 213 N 17.7372 -0.778329 1.37039 0
M  V30 214 C 18.6672 -1.90546 1.34962 0
M  V30 215 C 19.6482 -1.68681 0.219274 0
M  V30 216 O 20.8332 -1.89634 0.418624 0
M  V30 217 C 17.9632 -3.27734 1.14925 0
M  V30 218 C 16.9172 -3.64147 2.24902 0
M  V30 219 C 16.2432 -4.99806 1.89996 0
M  V30 220 C 17.5432 -3.71579 3.67051 0
M  V30 221 H 19.2372 -1.92541 2.29277 0
M  V30 222 H 16.7832 -0.924948 1.10366 0
M  V30 223 H 18.7362 -4.06215 1.12104 0
M  V30 224 H 17.4602 -3.26154 0.170631 0
M  V30 225 H 16.1192 -2.8797 2.26868 0
M  V30 226 H 15.7672 -4.94759 0.906796 0
M  V30 227 H 15.4672 -5.25139 2.63634 0
M  V30 228 H 16.9912 -5.80694 1.88749 0
M  V30 229 H 18.4052 -4.40227 3.67251 0
M  V30 230 H 16.8022 -4.08405 4.39688 0
M  V30 231 H 17.8722 -2.72404 4.01154 0
M  V30 232 N 19.2153 -1.21501 -1.00376 0
M  V30 233 C 20.1453 -0.999478 -2.11028 0
M  V30 234 C 21.1263 0.0759671 -1.6993 0
M  V30 235 O 22.3113 -0.0841106 -1.94018 0
M  V30 236 C 19.4413 -0.564709 -3.42678 0
M  V30 237 C 18.3953 -1.58486 -3.97576 0
M  V30 238 C 17.7213 -1.00628 -5.25146 0
M  V30 239 C 19.0213 -2.97204 -4.29496 0
M  V30 240 H 20.7153 -1.92495 -2.29317 0
M  V30 241 H 18.2613 -0.92693 -1.102 0
M  V30 242 H 20.2143 -0.401091 -4.19487 0
M  V30 243 H 18.9383 0.396411 -3.24185 0
M  V30 244 H 17.5973 -1.73606 -3.22888 0
M  V30 245 H 17.2453 -0.0368439 -5.02987 0
M  V30 246 H 16.9453 -1.68771 -5.62841 0
M  V30 247 H 18.4693 -0.854015 -6.04598 0
M  V30 248 H 19.8833 -2.8552 -4.97143 0
M  V30 249 H 18.2803 -3.62372 -4.78338 0
M  V30 250 H 19.3503 -3.47956 -3.3772 0
M  V30 251 N 20.6934 1.19889 -1.02296 0
M  V30 252 C 21.6564 2.21116 -0.603351 0
M  V30 253 C 22.6564 1.5738 0.329884 0
M  V30 254 O 23.8464 1.73802 0.117702 0
M  V30 255 C 20.9784 3.40696 0.117992 0
M  V30 256 H 22.1714 2.59754 -1.49893 0
M  V30 257 H 19.7244 1.33463 -0.813468 0
M  V30 258 H 20.4594 3.07569 1.0282 0
M  V30 259 H 20.2444 3.88188 -0.552511 0
M  V30 260 H 21.7344 4.15692 0.398696 0
M  V30 261 N 22.1715 0.800033 1.35784 0
M  V30 262 C 23.1015 0.220184 2.3246 0
M  V30 263 C 24.0825 -0.65073 1.57161 0
M  V30 264 O 25.2675 -0.582359 1.85263 0
M  V30 265 C 22.3975 -0.637353 3.41402 0
M  V30 266 C 21.3515 0.134531 4.27789 0
M  V30 267 C 20.6775 -0.844285 5.27992 0
M  V30 268 C 21.9775 1.32979 5.05088 0
M  V30 269 H 23.6715 1.02787 2.81203 0
M  V30 270 H 21.2175 0.495717 1.35199 0
M  V30 271 H 23.1705 -1.05302 4.08031 0
M  V30 272 H 21.8945 -1.47785 2.91251 0
M  V30 273 H 20.5535 0.531296 3.6273 0
M  V30 274 H 20.2015 -1.68011 4.74111 0
M  V30 275 H 19.9015 -0.332184 5.8666 0
M  V30 276 H 21.4255 -1.2583 5.97494 0
M  V30 277 H 22.8395 0.98934 5.64699 0
M  V30 278 H 21.2365 1.77593 5.7322 0
M  V30 279 H 22.3065 2.11978 4.36111 0
M  V30 280 N 23.6496 -1.47581 0.552962 0
M  V30 281 C 24.8956 -2.03369 0.0355807 0
M  V30 282 C 25.2506 -1.42016 -1.29805 0
M  V30 283 O 24.5436 -0.564917 -1.83083 0
M  V30 284 C 24.7376 -3.57199 -0.119728 0
M  V30 285 C 24.5666 -4.33468 1.1973 0
M  V30 286 C 23.3366 -4.7353 1.76345 0
M  V30 287 C 25.5346 -4.68866 2.11351 0
M  V30 288 N 23.5166 -5.34426 3.02097 0
M  V30 289 C 24.8876 -5.3002 3.21681 0
M  V30 290 C 26.9426 -4.50795 2.11397 0
M  V30 291 C 25.6456 -5.75011 4.32151 0
M  V30 292 C 27.6716 -4.96782 3.20876 0
M  V30 293 C 27.0336 -5.57981 4.29926 0
M  V30 294 H 23.1326 -0.780058 0.0550806 0
M  V30 295 H 25.7166 -1.80117 0.739315 0
M  V30 296 H 23.8876 -3.80227 -0.792579 0
M  V30 297 H 25.6196 -3.99627 -0.638792 0
M  V30 298 H 22.3746 -4.55352 1.30196 0
M  V30 299 H 22.7986 -5.69421 3.66182 0
M  V30 300 H 27.4406 -4.0284 1.28372 0
M  V30 301 H 25.1586 -6.21959 5.15938 0
M  V30 302 H 28.7446 -4.84573 3.21994 0
M  V30 303 H 27.6246 -5.92918 5.13243 0
M  V30 304 N 25.1277 -0.289203 -1.54924 0
M  V30 305 C 26.3757 0.322879 -1.99504 0
M  V30 306 C 26.6967 1.55313 -1.1791 0
M  V30 307 O 25.9667 1.94001 -0.272097 0
M  V30 308 H 24.5467 0.122291 -0.736922 0
M  V30 309 H 27.2087 -0.397802 -1.90797 0
M  V30 310 H 26.3047 0.603061 -3.06218 0
M  V30 311 N 26.6058 1.57591 -0.0167156 0
M  V30 312 C 28.0168 1.79201 0.523834 0
M  V30 313 C 28.3678 0.925796 1.72984 0
M  V30 314 O 27.4928 0.132792 2.15992 0
M  V30 315 C 28.0878 3.25 0.957091 0
M  V30 316 C 26.6468 3.47648 1.44283 0
M  V30 317 C 25.7938 2.74374 0.401757 0
M  V30 318 H 28.7448 1.56831 -0.242816 0
M  V30 319 H 28.7658 3.34031 1.82219 0
M  V30 320 H 28.2778 3.88019 0.0791415 0
M  V30 321 H 26.3788 2.89866 2.34113 0
M  V30 322 H 26.4918 4.56352 1.45877 0
M  V30 323 H 24.8558 2.39485 0.867121 0
M  V30 324 H 25.6388 3.40102 -0.467513 0
M  V30 325 N 28.0839 -0.256276 1.55502 0
M  V30 326 C 29.3609 -1.00789 1.67633 0
M  V30 327 C 29.7409 -2.03706 0.553826 0
M  V30 328 O 29.0889 -2.24145 -0.443969 0
M  V30 329 C 29.2989 -1.64968 3.07549 0
M  V30 330 C 30.6469 -2.15505 3.65845 0
M  V30 331 O 31.6709 -1.74925 3.1029 0
M  V30 332 O 30.5299 -2.89986 4.63217 0
M  V30 333 H 27.6239 -0.468553 0.681459 0
M  V30 334 H 30.1699 -0.250806 1.67836 0
M  V30 335 H 28.9419 -0.904785 3.80696 0
M  V30 336 H 28.5649 -2.47321 3.11317 0
M  V30 337 N 29.562 -1.4872 -0.521534 0
M  V30 338 C 30.973 -1.50607 -1.10337 0
M  V30 339 C 31.324 -0.280612 -1.94183 0
M  V30 340 O 30.449 0.611507 -2.0758 0
M  V30 341 C 31.044 -2.72903 -2.00772 0
M  V30 342 C 29.603 -2.77634 -2.54158 0
M  V30 343 C 28.75 -2.44241 -1.31307 0
M  V30 344 H 31.701 -1.55714 -0.306388 0
M  V30 345 H 31.722 -2.519 -2.85178 0
M  V30 346 H 31.234 -3.62077 -1.39721 0
M  V30 347 H 29.335 -1.92689 -3.18907 0
M  V30 348 H 29.448 -3.79283 -2.92714 0
M  V30 349 H 27.812 -1.95577 -1.63161 0
M  V30 350 H 28.595 -3.35666 -0.719943 0
M  V30 351 N 31.0401 0.771051 -1.3745 0
M  V30 352 C 32.0031 1.86598 -1.33093 0
M  V30 353 C 33.0031 1.59076 -0.234845 0
M  V30 354 O 34.1931 1.67145 -0.490732 0
M  V30 355 C 31.3251 3.23747 -1.06773 0
M  V30 356 H 32.5181 1.91873 -2.30488 0
M  V30 357 H 30.0711 0.970876 -1.2249 0
M  V30 358 H 30.8061 3.24148 -0.099129 0
M  V30 359 H 30.5911 3.45115 -1.86112 0
M  V30 360 H 32.0811 4.03824 -1.06377 0
M  V30 361 N 32.5182 1.22032 0.997298 0
M  V30 362 C 33.4812 0.987909 2.06816 0
M  V30 363 C 34.4812 -0.0440084 1.6074 0
M  V30 364 O 35.6712 0.194053 1.73116 0
M  V30 365 C 32.8032 0.49132 3.37341 0
M  V30 366 H 33.9962 1.93803 2.28868 0
M  V30 367 H 31.5492 1.03838 1.16822 0
M  V30 368 H 32.2842 -0.463364 3.20973 0
M  V30 369 H 32.0692 1.23575 3.72118 0
M  V30 370 H 33.5592 0.348824 4.16141 0
M  V30 371 N 33.9963 -1.19345 1.0293 0
M  V30 372 C 34.9593 -2.20793 0.615069 0
M  V30 373 C 35.9593 -1.57553 -0.321533 0
M  V30 374 O 37.1493 -1.73862 -0.108483 0
M  V30 375 C 34.2813 -3.40754 -0.0999222 0
M  V30 376 H 35.4743 -2.58955 1.51269 0
M  V30 377 H 33.0273 -1.3303 0.820534 0
M  V30 378 H 33.7623 -3.0811 -1.01187 0
M  V30 379 H 33.5473 -3.87889 0.57309 0
M  V30 380 H 35.0373 -4.15898 -0.376645 0
M  V30 381 N 35.4744 -0.807222 -1.35358 0
M  V30 382 C 36.7214 -0.387888 -1.9875 0
M  V30 383 C 37.0494 1.04509 -1.64037 0
M  V30 384 O 36.3044 1.73986 -0.895946 0
M  V30 385 C 36.6034 -0.519036 -3.53611 0
M  V30 386 C 36.2694 -1.91542 -4.08194 0
M  V30 387 C 34.9314 -2.29745 -4.22813 0
M  V30 388 C 37.2834 -2.82896 -4.37744 0
M  V30 389 C 34.6114 -3.58668 -4.643 0
M  V30 390 C 36.9634 -4.11265 -4.8067 0
M  V30 391 C 35.6274 -4.49466 -4.93494 0
M  V30 392 H 34.8974 -0.141938 -0.727279 0
M  V30 393 H 37.5444 -1.02814 -1.6156 0
M  V30 394 H 35.8494 0.204658 -3.91265 0
M  V30 395 H 37.5464 -0.175345 -4.00616 0
M  V30 396 H 34.1364 -1.60862 -3.97268 0
M  V30 397 H 38.3204 -2.54629 -4.26002 0
M  V30 398 H 33.5764 -3.88113 -4.72418 0
M  V30 399 H 37.7504 -4.82153 -5.02496 0
M  V30 400 H 35.3774 -5.49418 -5.25399 0
M  V30 401 N 36.9525 1.47285 -0.560781 0
M  V30 402 C 38.1985 2.02764 -0.0381184 0
M  V30 403 C 38.5315 1.43384 1.30976 0
M  V30 404 O 37.8065 0.590733 1.85312 0
M  V30 405 C 38.0895 3.60064 0.0511427 0
M  V30 406 C 37.9425 4.2987 -1.32408 0
M  V30 407 C 39.2615 4.33439 0.762795 0
M  V30 408 H 36.3805 0.736841 -0.0153264 0
M  V30 409 H 39.0225 1.75675 -0.723759 0
M  V30 410 H 37.1725 3.83274 0.635065 0
M  V30 411 H 38.8445 4.17989 -1.95148 0
M  V30 412 H 37.0875 3.90085 -1.8978 0
M  V30 413 H 37.7585 5.38478 -1.21431 0
M  V30 414 H 40.2345 4.15243 0.266965 0
M  V30 415 H 39.1105 5.43124 0.794221 0
M  V30 416 H 39.3715 4.02915 1.81966 0
M  V30 417 N 38.4306 0.297415 1.54768 0
M  V30 418 C 39.3786 -0.596051 2.24833 0
M  V30 419 C 40.3726 -1.13992 1.25308 0
M  V30 420 O 41.5786 -1.09098 1.4317 0
M  V30 421 H 37.9536 -0.210814 0.721846 0
M  V30 422 H 39.9246 0.0174667 2.98395 0
M  V30 423 C 38.6736 -1.75818 2.99972 0
M  V30 424 H 37.9966 -1.3489 3.76357 0
M  V30 425 H 39.4366 -2.35949 3.52284 0
M  V30 426 C 37.8956 -2.66014 2.06732 0
M  V30 427 O 38.4256 -3.67009 1.63302 0
M  V30 428 N 36.6316 -2.33669 1.72763 0
M  V30 429 H 36.1786 -1.51586 2.08277 0
M  V30 430 H 36.1366 -2.94285 1.10652 0
M  V30 431 N 39.9087 -1.5758 0.0250728 0
M  V30 432 C 40.8407 -2.06869 -0.986796 0
M  V30 433 C 41.8537 -0.991332 -1.29137 0
M  V30 434 O 43.0427 -1.26761 -1.25674 0
M  V30 435 C 40.1427 -2.47486 -2.31525 0
M  V30 436 C 39.3157 -3.78253 -2.19643 0
M  V30 437 C 38.3747 -4.05464 -3.35388 0
M  V30 438 O 37.4007 -4.75774 -3.12454 0
M  V30 439 N 38.6027 -3.55321 -4.59051 0
M  V30 440 H 41.3677 -2.94302 -0.566276 0
M  V30 441 H 38.9287 -1.6109 -0.161776 0
M  V30 442 H 40.9207 -2.62785 -3.07776 0
M  V30 443 H 39.4907 -1.65441 -2.65232 0
M  V30 444 H 38.7107 -3.7279 -1.28144 0
M  V30 445 H 39.9987 -4.63936 -2.08903 0
M  V30 446 H 39.3967 -2.98431 -4.80578 0
M  V30 447 H 37.9537 -3.75905 -5.32483 0
M  V30 448 N 41.3868 0.248026 -1.55636 0
M  V30 449 C 42.3368 1.30994 -1.86614 0
M  V30 450 C 43.3208 1.43543 -0.726918 0
M  V30 451 O 44.5128 1.46804 -0.988818 0
M  V30 452 C 41.6418 2.6656 -2.16335 0
M  V30 453 C 40.7278 2.58019 -3.36581 0
M  V30 454 N 41.1188 2.1911 -4.55878 0
M  V30 455 C 39.4168 2.89035 -3.39669 0
M  V30 456 C 40.1178 2.21174 -5.38012 0
M  V30 457 N 39.0938 2.60632 -4.77045 0
M  V30 458 H 42.8958 0.999583 -2.76379 0
M  V30 459 H 40.4098 0.456652 -1.55848 0
M  V30 460 H 42.4068 3.43194 -2.36692 0
M  V30 461 H 41.0668 2.98463 -1.27867 0
M  V30 462 H 42.0778 1.90672 -4.81523 0
M  V30 463 H 38.7548 3.25485 -2.61469 0
M  V30 464 H 40.1448 1.9344 -6.43452 0
M  V30 465 N 42.8649 1.48995 0.513639 0
M  V30 466 C 43.7949 1.67636 1.62544 0
M  V30 467 C 44.7759 0.525087 1.61793 0
M  V30 468 O 45.9609 0.759502 1.78732 0
M  V30 469 C 43.0909 1.73114 3.01079 0
M  V30 470 C 42.0449 2.87905 3.16693 0
M  V30 471 C 41.3709 2.78486 4.56453 0
M  V30 472 C 42.6709 4.29005 2.97913 0
M  V30 473 H 44.3649 2.60716 1.47198 0
M  V30 474 H 41.9109 1.25465 0.706714 0
M  V30 475 H 43.8639 1.84742 3.78746 0
M  V30 476 H 42.5879 0.766241 3.17484 0
M  V30 477 H 41.2469 2.75859 2.41448 0
M  V30 478 H 40.8949 1.7993 4.69717 0
M  V30 479 H 40.5949 3.55523 4.67843 0
M  V30 480 H 42.1189 2.92104 5.36197 0
M  V30 481 H 43.5329 4.41798 3.65359 0
M  V30 482 H 41.9299 5.07166 3.20785 0
M  V30 483 H 42.9999 4.44329 1.94165 0
M  V30 484 N 44.343 -0.763751 1.37857 0
M  V30 485 C 45.583 -1.53551 1.34913 0
M  V30 486 C 45.947 -1.91895 -0.0635882 0
M  V30 487 O 47.148 -2.67916 -0.217825 0
M  V30 488 C 45.419 -2.76126 2.26912 0
M  V30 489 S 46.978 -3.66105 2.41893 0
M  V30 490 H 43.796 -0.52559 0.478828 0
M  V30 491 H 46.398 -0.897435 1.73685 0
M  V30 492 H 45.102 -2.4605 3.28463 0
M  V30 493 H 44.633 -3.44887 1.89253 0
M  V30 494 H 46.648 -4.68473 1.63545 0
M  V30 495 N 45.8211 -1.22559 -0.990812 0
M  V30 496 C 47.0691 -1.04933 -1.72724 0
M  V30 497 C 47.3901 0.416158 -1.90508 0
M  V30 498 O 46.6601 1.29918 -1.46622 0
M  V30 499 H 45.2401 -0.385296 -0.639965 0
M  V30 500 H 47.9021 -1.54105 -1.19322 0
M  V30 501 H 46.9981 -1.52886 -2.72089 0
M  V30 502 N 47.2992 1.18797 -1.03562 0
M  V30 503 C 48.5242 1.9314 -0.755764 0
M  V30 504 C 48.9492 1.7537 0.68022 0
M  V30 505 O 48.3072 1.06046 1.47051 0
M  V30 506 C 48.3552 3.42747 -1.12058 0
M  V30 507 O 47.4592 4.11683 -0.243124 0
M  V30 508 H 46.8002 0.602724 -0.278604 0
M  V30 509 H 49.3302 1.50678 -1.3841 0
M  V30 510 H 49.3402 3.93437 -1.08035 0
M  V30 511 H 48.0152 3.55002 -2.16672 0
M  V30 512 H 46.5922 3.71323 -0.342539 0
M  V30 513 N 48.7773 0.814389 1.34928 0
M  V30 514 C 49.7273 0.202752 2.27097 0
M  V30 515 C 50.7113 -0.62799 1.48139 0
M  V30 516 O 51.9033 -0.483969 1.70255 0
M  V30 517 C 49.0323 -0.64146 3.37254 0
M  V30 518 C 48.1183 0.19944 4.23631 0
M  V30 519 N 48.5093 1.26628 4.89693 0
M  V30 520 C 46.8073 -0.0176433 4.45997 0
M  V30 521 C 47.5083 1.78031 5.53787 0
M  V30 522 N 46.4843 1.08553 5.32651 0
M  V30 523 H 50.2863 1.01893 2.75672 0
M  V30 524 H 47.8003 0.656332 1.48546 0
M  V30 525 H 49.7973 -1.09575 4.02243 0
M  V30 526 H 48.4573 -1.4559 2.9023 0
M  V30 527 H 49.4683 1.64901 4.90946 0
M  V30 528 H 46.1453 -0.800601 4.09752 0
M  V30 529 H 47.5353 2.67236 6.16469 0
M  V30 530 N 50.2554 -1.46986 0.568584 0
M  V30 531 C 51.1854 -2.32946 -0.160753 0
M  V30 532 C 52.1664 -1.44487 -0.897631 0
M  V30 533 O 53.3514 -1.73327 -0.875867 0
M  V30 534 C 50.4814 -3.26494 -1.18403 0
M  V30 535 C 49.4354 -4.24282 -0.562895 0
M  V30 536 C 48.7614 -5.07236 -1.69163 0
M  V30 537 C 50.0614 -5.19989 0.490761 0
M  V30 538 H 51.7554 -2.94175 0.556916 0
M  V30 539 H 49.3014 -1.4146 0.26927 0
M  V30 540 H 51.2544 -3.85477 -1.70251 0
M  V30 541 H 49.9784 -2.63343 -1.93179 0
M  V30 542 H 48.6374 -3.66541 -0.0656164 0
M  V30 543 H 48.2854 -4.4048 -2.42871 0
M  V30 544 H 47.9854 -5.7345 -1.28174 0
M  V30 545 H 49.5094 -5.6908 -2.21314 0
M  V30 546 H 50.9234 -5.73271 0.0579047 0
M  V30 547 H 49.3204 -5.94469 0.820165 0
M  V30 548 H 50.3904 -4.64777 1.3824 0
M  V30 549 N 51.7335 -0.305618 -1.54608 0
M  V30 550 C 52.9795 0.302746 -2.00528 0
M  V30 551 C 53.3125 1.53184 -1.19367 0
M  V30 552 O 52.5875 1.92598 -0.271321 0
M  V30 553 C 52.8705 0.654756 -3.54097 0
M  V30 554 C 52.7235 -0.583793 -4.45995 0
M  V30 555 C 54.0425 1.47947 -4.14487 0
M  V30 556 H 51.1615 0.108564 -0.72896 0
M  V30 557 H 53.8035 -0.418634 -1.85331 0
M  V30 558 H 51.9535 1.26935 -3.67178 0
M  V30 559 H 53.6255 -1.22224 -4.44814 0
M  V30 560 H 51.8685 -1.21615 -4.16404 0
M  V30 561 H 52.5395 -0.293287 -5.5122 0
M  V30 562 H 55.0155 0.96013 -4.04871 0
M  V30 563 H 53.8915 1.69454 -5.22088 0
M  V30 564 H 54.1525 2.47011 -3.66658 0
M  V30 565 N 53.2116 1.57565 -0.0334293 0
M  V30 566 C 54.1216 2.13943 0.962572 0
M  V30 567 C 55.1376 1.09276 1.35406 0
M  V30 568 O 56.3136 1.41355 1.4346 0
M  V30 569 C 53.3786 2.65887 2.22497 0
M  V30 570 C 52.4396 3.85286 1.8935 0
M  V30 571 C 51.6726 4.34743 3.09571 0
M  V30 572 O 51.8956 3.83352 4.22371 0
M  V30 573 O 50.8296 5.26538 2.91618 0
M  V30 574 H 54.6556 2.99333 0.513169 0
M  V30 575 H 52.2406 1.4822 0.18743 0
M  V30 576 H 54.1226 2.99346 2.96598 0
M  V30 577 H 52.7976 1.83578 2.6661 0
M  V30 578 H 51.7046 3.56746 1.1262 0
M  V30 579 H 53.0376 4.68771 1.5005 0
M  V30 580 N 54.6897 -0.239769 1.55765 0
M  V30 581 C 55.6527 -1.28038 1.90103 0
M  V30 582 C 56.6527 -1.40723 0.778055 0
M  V30 583 O 57.8427 -1.39301 1.04599 0
M  V30 584 C 54.9747 -2.65702 2.13577 0
M  V30 585 H 56.1677 -0.988048 2.83157 0
M  V30 586 H 53.7207 -0.479382 1.48767 0
M  V30 587 H 54.4557 -3.00063 1.23015 0
M  V30 588 H 54.2407 -2.57875 2.95369 0
M  V30 589 H 55.7307 -3.40828 2.41301 0
M  V30 590 N 56.1678 -1.49265 -0.50573 0
M  V30 591 C 57.0978 -1.68495 -1.61653 0
M  V30 592 C 58.0788 -0.53366 -1.61512 0
M  V30 593 O 59.2638 -0.76897 -1.78327 0
M  V30 594 C 56.3938 -1.74709 -3.00157 0
M  V30 595 C 55.3478 -2.89581 -3.15162 0
M  V30 596 C 54.6738 -2.80903 -4.5497 0
M  V30 597 C 55.9738 -4.30578 -2.95634 0
M  V30 598 H 57.6678 -2.61493 -1.45814 0
M  V30 599 H 55.2138 -1.25838 -0.70005 0
M  V30 600 H 57.1668 -1.86748 -3.77761 0
M  V30 601 H 55.8908 -0.783067 -3.17074 0
M  V30 602 H 54.5498 -2.77136 -2.39982 0
M  V30 603 H 54.1978 -1.82419 -4.68756 0
M  V30 604 H 53.8978 -3.57999 -4.65951 0
M  V30 605 H 55.4218 -2.94944 -5.34641 0
M  V30 606 H 56.8358 -4.4373 -3.63011 0
M  V30 607 H 55.2328 -5.0886 -3.18091 0
M  V30 608 H 56.3028 -4.45352 -1.91806 0
M  V30 609 N 57.6459 0.756429 -1.3826 0
M  V30 610 C 58.8759 1.54341 -1.3734 0
M  V30 611 C 59.2839 1.89159 0.0393917 0
M  V30 612 O 58.6269 1.5307 1.01565 0
M  V30 613 C 58.6889 2.87238 -2.16182 0
M  V30 614 C 58.3529 2.74973 -3.65019 0
M  V30 615 C 59.3499 2.44962 -4.58574 0
M  V30 616 C 57.0349 2.92515 -4.08338 0
M  V30 617 C 59.0289 2.32642 -5.93428 0
M  V30 618 C 56.7159 2.79815 -5.43274 0
M  V30 619 C 57.7139 2.49921 -6.35632 0
M  V30 620 O 57.4019 2.37275 -7.68086 0
M  V30 621 H 57.1339 0.484281 -0.471643 0
M  V30 622 H 59.6879 0.944152 -1.82414 0
M  V30 623 H 57.9179 3.49342 -1.65822 0
M  V30 624 H 59.6069 3.48731 -2.07705 0
M  V30 625 H 60.3729 2.31081 -4.26412 0
M  V30 626 H 56.2519 3.14781 -3.368 0
M  V30 627 H 59.7959 2.0923 -6.65484 0
M  V30 628 H 55.6929 2.93269 -5.75034 0
M  V30 629 H 56.4609 2.52509 -7.78577 0
M  V30 630 N 59.124 1.23083 0.984299 0
M  V30 631 C 60.054 1.03292 2.09411 0
M  V30 632 C 61.035 -0.048923 1.7003 0
M  V30 633 O 62.22 0.114967 1.93859 0
M  V30 634 C 59.35 0.619155 3.41736 0
M  V30 635 C 58.304 1.64791 3.95004 0
M  V30 636 C 57.63 1.0897 5.23478 0
M  V30 637 C 58.93 3.03999 4.24714 0
M  V30 638 H 60.624 1.96119 2.26225 0
M  V30 639 H 58.17 0.944344 1.08711 0
M  V30 640 H 60.123 0.467777 4.18796 0
M  V30 641 H 58.847 -0.344786 3.24775 0
M  V30 642 H 57.506 1.78721 3.20085 0
M  V30 643 H 57.154 0.11686 5.02864 0
M  V30 644 H 56.854 1.77704 5.60085 0
M  V30 645 H 58.378 0.950093 6.03163 0
M  V30 646 H 59.792 2.93393 4.92538 0
M  V30 647 H 58.189 3.69936 4.72512 0
M  V30 648 H 59.259 3.53285 3.32142 0
M  V30 649 N 60.6021 -1.18246 1.0419 0
M  V30 650 C 61.8481 -1.88536 0.747122 0
M  V30 651 C 62.1811 -1.80223 -0.723409 0
M  V30 652 O 61.4561 -1.20337 -1.52804 0
M  V30 653 C 61.7391 -3.38968 1.21544 0
M  V30 654 C 61.5921 -3.56084 2.74816 0
M  V30 655 C 62.9111 -4.32648 0.806482 0
M  V30 656 H 60.0301 -0.684619 0.272883 0
M  V30 657 H 62.6721 -1.39113 1.29413 0
M  V30 658 H 60.8221 -3.8119 0.750081 0
M  V30 659 H 62.4941 -3.22946 3.29399 0
M  V30 660 H 60.7371 -2.98699 3.14582 0
M  V30 661 H 61.4081 -4.61639 3.02644 0
M  V30 662 H 63.8841 -3.98211 1.20695 0
M  V30 663 H 62.7601 -5.36462 1.1619 0
M  V30 664 H 63.0211 -4.41146 -0.29029 0
M  V30 665 N 62.0802 -0.821533 -1.34494 0
M  V30 666 C 63.3202 -0.414785 -2.00147 0
M  V30 667 C 63.6842 1.00299 -1.6372 0
M  V30 668 O 64.8852 1.51255 -2.22206 0
M  V30 669 C 63.1562 -0.609403 -3.52166 0
M  V30 670 S 64.7152 -0.295297 -4.37805 0
M  V30 671 H 61.5332 -0.15679 -0.693497 0
M  V30 672 H 64.1352 -1.06705 -1.63812 0
M  V30 673 H 62.8392 -1.64096 -3.76166 0
M  V30 674 H 62.3702 0.0576414 -3.93358 0
M  V30 675 H 64.3852 0.891531 -4.88125 0
M  V30 676 N 63.5583 1.46682 -0.576371 0
M  V30 677 C 64.8063 2.02013 -0.0594163 0
M  V30 678 C 65.1273 1.45101 1.30271 0
M  V30 679 O 64.3973 0.633317 1.8538 0
M  V30 680 H 62.9773 0.746759 -0.0189745 0
M  V30 681 H 65.6393 1.79862 -0.750717 0
M  V30 682 H 64.7353 3.12097 0.014345 0
M  V30 683 N 65.0364 0.313813 1.54444 0
M  V30 684 C 65.9464 -0.565714 2.27677 0
M  V30 685 C 66.9624 -1.13754 1.31666 0
M  V30 686 O 68.1384 -1.15959 1.64668 0
M  V30 687 C 65.2034 -1.71528 3.01296 0
M  V30 688 C 64.2644 -1.17624 4.12872 0
M  V30 689 C 63.4974 -2.27102 4.8297 0
M  V30 690 O 63.7204 -3.47256 4.52514 0
M  V30 691 O 62.6544 -1.9307 5.70094 0
M  V30 692 H 66.4804 0.0287296 3.03686 0
M  V30 693 H 64.0654 0.0798312 1.49187 0
M  V30 694 H 65.9474 -2.38476 3.4743 0
M  V30 695 H 64.6224 -2.29608 2.2817 0
M  V30 696 H 63.5294 -0.472124 3.71109 0
M  V30 697 H 64.8624 -0.640695 4.88012 0
M  V30 698 N 66.5145 -1.57545 0.0417849 0
M  V30 699 C 67.9305 -1.56467 -0.314704 0
M  V30 700 C 68.1305 -1.04859 -1.72066 0
M  V30 701 O 67.1865 -0.700983 -2.42575 0
M  V30 702 C 68.4995 -3.00317 -0.15174 0
M  V30 703 C 70.0475 -3.12201 -0.223553 0
M  V30 704 C 70.5225 -4.57913 -0.0892295 0
M  V30 705 N 72.0135 -4.6297 -0.145808 0
M  V30 706 C 72.7485 -5.73362 -0.0658459 0
M  V30 707 N 72.2445 -6.92769 0.0659282 0
M  V30 708 N 74.0375 -5.6197 -0.12075 0
M  V30 709 H 66.1885 -1.89416 0.961014 0
M  V30 710 H 68.4515 -0.871862 0.372237 0
M  V30 711 H 68.1575 -3.42073 0.817254 0
M  V30 712 H 68.0315 -3.65892 -0.916692 0
M  V30 713 H 70.4185 -2.70349 -1.18301 0
M  V30 714 H 70.4995 -2.49323 0.571994 0
M  V30 715 H 70.1435 -5.00448 0.866867 0
M  V30 716 H 70.0735 -5.18786 -0.903802 0
M  V30 717 H 72.5645 -3.7709 -0.247286 0
M  V30 718 H 72.8775 -7.72707 0.119905 0
M  V30 719 H 71.2225 -6.94927 0.100885 0
M  V30 720 H 74.4135 -4.67572 -0.222187 0
M  V30 721 H 74.5865 -6.47977 -0.0549735 0
M  V30 722 N 67.9926 0.231505 -1.5589 0
M  V30 723 C 69.2406 0.955461 -1.78088 0
M  V30 724 C 69.5616 1.85262 -0.608533 0
M  V30 725 O 68.8316 1.92277 0.375035 0
M  V30 726 H 67.4116 0.355787 -0.656829 0
M  V30 727 H 70.0736 0.245751 -1.93344 0
M  V30 728 H 69.1696 1.56814 -2.69844 0
M  V30 729 N 69.4707 1.49531 0.497807 0
M  V30 730 C 70.7177 1.59179 1.25173 0
M  V30 731 C 71.0457 0.279932 1.92475 0
M  V30 732 O 70.3007 -0.732383 1.81479 0
M  V30 733 C 70.5997 2.70252 2.33878 0
M  V30 734 C 70.2657 4.11644 1.84012 0
M  V30 735 C 68.9277 4.50121 1.70132 0
M  V30 736 C 71.2797 5.00121 1.46725 0
M  V30 737 C 68.6077 5.74845 1.17348 0
M  V30 738 C 70.9597 6.25366 0.95392 0
M  V30 739 C 69.6237 6.6267 0.801538 0
M  V30 740 H 68.8937 0.582478 0.45804 0
M  V30 741 H 71.5407 1.83373 0.551948 0
M  V30 742 H 69.8457 2.40041 3.09657 0
M  V30 743 H 71.5427 2.74925 2.9192 0
M  V30 744 H 68.1327 3.81274 1.95775 0
M  V30 745 H 72.3167 4.71048 1.56294 0
M  V30 746 H 67.5727 6.02444 1.04264 0
M  V30 747 H 71.7467 6.93301 0.656225 0
M  V30 748 H 69.3737 7.59197 0.390351 0
M  V30 749 N 70.9488 -0.749086 1.3866 0
M  V30 750 C 72.1958 -1.50833 1.35114 0
M  V30 751 C 72.5238 -1.94415 -0.0574049 0
M  V30 752 O 71.7788 -1.66065 -1.03541 0
M  V30 753 C 72.0778 -2.7712 2.25697 0
M  V30 754 C 71.7438 -2.52477 3.73585 0
M  V30 755 C 70.4058 -2.45466 4.13884 0
M  V30 756 C 72.7578 -2.31066 4.67181 0
M  V30 757 C 70.0858 -2.15064 5.45861 0
M  V30 758 C 72.4378 -2.02183 5.9942 0
M  V30 759 C 71.1018 -1.93631 6.38798 0
M  V30 760 H 70.3718 -0.551936 0.494416 0
M  V30 761 H 73.0188 -0.860979 1.71054 0
M  V30 762 H 71.3238 -3.46528 1.82827 0
M  V30 763 H 73.0208 -3.35096 2.20254 0
M  V30 764 H 69.6108 -2.58807 3.41638 0
M  V30 765 H 73.7948 -2.35459 4.3689 0
M  V30 766 H 69.0508 -2.06954 5.75308 0
M  V30 767 H 73.2248 -1.8462 6.71482 0
M  V30 768 H 70.8518 -1.69839 7.40985 0
M  V30 769 N 72.4269 -1.23603 -0.977757 0
M  V30 770 C 73.6569 -1.09487 -1.75203 0
M  V30 771 C 74.0649 0.356321 -1.85814 0
M  V30 772 O 73.4079 1.25816 -1.33851 0
M  V30 773 C 73.4699 -1.64905 -3.19447 0
M  V30 774 C 73.1339 -3.13688 -3.32338 0
M  V30 775 C 74.1309 -4.10953 -3.18455 0
M  V30 776 C 71.8159 -3.53449 -3.56902 0
M  V30 777 C 73.8099 -5.45962 -3.28944 0
M  V30 778 C 71.4969 -4.88602 -3.6703 0
M  V30 779 C 72.4949 -5.84668 -3.53062 0
M  V30 780 O 72.1829 -7.17365 -3.62826 0
M  V30 781 H 71.9149 -0.38367 -0.556573 0
M  V30 782 H 74.4689 -1.6398 -1.23693 0
M  V30 783 H 72.6989 -1.04835 -3.72218 0
M  V30 784 H 74.3879 -1.46226 -3.78646 0
M  V30 785 H 75.1539 -3.81577 -2.99372 0
M  V30 786 H 71.0329 -2.79188 -3.66844 0
M  V30 787 H 74.5769 -6.20925 -3.17958 0
M  V30 788 H 70.4739 -5.17653 -3.85623 0
M  V30 789 H 71.2419 -7.2515 -3.79605 0
M  V30 790 N 73.905 1.17692 -1.04816 0
M  V30 791 C 75.133 1.91786 -0.776254 0
M  V30 792 C 75.548 1.76604 0.667577 0
M  V30 793 O 74.905 1.10067 1.45573 0
M  V30 794 C 74.956 3.42967 -1.14263 0
M  V30 795 O 74.677 3.57678 -2.52978 0
M  V30 796 C 76.178 4.34144 -0.896311 0
M  V30 797 H 73.398 0.608624 -0.282519 0
M  V30 798 H 75.942 1.49268 -1.39783 0
M  V30 799 H 74.097 3.83245 -0.565874 0
M  V30 800 H 74.511 4.51319 -2.67229 0
M  V30 801 H 75.985 5.38744 -1.20244 0
M  V30 802 H 76.462 4.38876 0.168636 0
M  V30 803 H 77.068 3.99574 -1.45672 0
M  V30 804 N 75.3831 0.828654 1.34056 0
M  V30 805 C 76.7941 0.477534 1.8049 0
M  V30 806 C 77.1451 -1.00258 1.6865 0
M  V30 807 O 76.2701 -1.78057 1.22982 0
M  V30 808 C 76.8651 0.860018 3.27703 0
M  V30 809 C 75.4241 0.561185 3.72193 0
M  V30 810 C 74.5711 1.07385 2.55663 0
M  V30 811 H 77.5221 1.0183 1.21722 0
M  V30 812 H 77.5431 0.166038 3.80138 0
M  V30 813 H 77.0551 1.93731 3.36288 0
M  V30 814 H 75.1561 -0.506465 3.69142 0
M  V30 815 H 75.2691 1.10926 4.66082 0
M  V30 816 H 73.6331 0.495149 2.49841 0
M  V30 817 H 74.4161 2.15771 2.67016 0
M  V30 818 N 76.8612 -1.46375 0.584142 0
M  V30 819 C 77.8082 -2.30323 -0.148286 0
M  V30 820 C 78.7782 -1.40703 -0.882713 0
M  V30 821 O 79.9632 -1.69651 -0.873099 0
M  V30 822 C 77.1032 -3.25196 -1.15507 0
M  V30 823 C 76.2162 -4.29915 -0.423943 0
M  V30 824 C 75.3512 -5.11914 -1.41838 0
M  V30 825 C 74.3902 -6.08381 -0.673736 0
M  V30 826 N 73.5272 -6.83242 -1.6163 0
M  V30 827 H 78.3672 -2.92427 0.573644 0
M  V30 828 H 75.9042 -1.44118 0.294703 0
M  V30 829 H 77.8622 -3.78646 -1.75166 0
M  V30 830 H 76.4922 -2.64898 -1.8447 0
M  V30 831 H 75.5442 -3.7931 0.287714 0
M  V30 832 H 76.8562 -4.98549 0.158128 0
M  V30 833 H 76.0102 -5.69648 -2.08773 0
M  V30 834 H 74.7492 -4.43243 -2.03438 0
M  V30 835 H 73.7542 -5.49799 0.00938483 0
M  V30 836 H 74.9792 -6.79071 -0.0631082 0
M  V30 837 H 72.9252 -6.1728 -2.22038 0
M  V30 838 H 72.8422 -7.48144 -1.08707 0
M  V30 839 H 74.1102 -7.45534 -2.27596 0
M  V30 840 N 78.3393 -0.321999 -1.54275 0
M  V30 841 C 79.5673 0.283052 -2.04955 0
M  V30 842 C 79.9823 1.45904 -1.19823 0
M  V30 843 O 79.3393 1.81063 -0.228545 0
M  V30 844 C 79.3903 0.719028 -3.54277 0
M  V30 845 O 79.1113 -0.410175 -4.36176 0
M  V30 846 C 80.6123 1.38705 -4.21041 0
M  V30 847 H 77.8323 0.0584616 -0.668448 0
M  V30 848 H 80.3763 -0.467734 -1.99079 0
M  V30 849 H 78.5313 1.41979 -3.60445 0
M  V30 850 H 78.9453 -0.0669416 -5.24457 0
M  V30 851 H 80.4193 1.64306 -5.2698 0
M  V30 852 H 80.8963 2.33385 -3.72059 0
M  V30 853 H 81.5023 0.728906 -4.19007 0
M  V30 854 N 79.8174 1.5752 -0.0501392 0
M  V30 855 C 81.2334 1.56631 0.306402 0
M  V30 856 C 81.4334 1.0577 1.71508 0
M  V30 857 O 80.4894 0.713837 2.422 0
M  V30 858 C 81.8024 3.00393 0.135811 0
M  V30 859 C 83.3504 3.12315 0.206993 0
M  V30 860 C 83.8254 4.57954 0.064944 0
M  V30 861 N 85.3164 4.63041 0.121254 0
M  V30 862 C 86.0514 5.73389 0.0354381 0
M  V30 863 N 85.5474 6.92724 -0.102666 0
M  V30 864 N 87.3404 5.62026 0.090946 0
M  V30 865 H 79.4914 1.88903 -0.971046 0
M  V30 866 H 81.7544 0.869876 -0.376855 0
M  V30 867 H 81.4604 3.41635 -0.835384 0
M  V30 868 H 81.3344 3.66373 0.897275 0
M  V30 869 H 83.7214 2.70973 1.16866 0
M  V30 870 H 83.8024 2.49016 -0.585208 0
M  V30 871 H 83.4464 4.99981 -0.893394 0
M  V30 872 H 83.3764 5.19258 0.876277 0
M  V30 873 H 85.8674 3.77216 0.227284 0
M  V30 874 H 86.1804 7.72633 -0.160882 0
M  V30 875 H 84.5254 6.94864 -0.137737 0
M  V30 876 H 87.7164 4.67684 0.197388 0
M  V30 877 H 87.8894 6.47997 0.0206089 0
M  V30 878 N 81.2955 -0.223234 1.56011 0
M  V30 879 C 82.7115 -0.572856 1.48965 0
M  V30 880 C 82.9115 -1.87225 0.74492 0
M  V30 881 O 81.9675 -2.50899 0.283896 0
M  V30 882 C 83.2805 -0.653646 2.9351 0
M  V30 883 C 84.8285 -0.744386 3.0402 0
M  V30 884 C 85.3035 -0.856535 4.49919 0
M  V30 885 N 86.7945 -0.9208 4.53955 0
M  V30 886 C 87.5295 -1.02726 5.64123 0
M  V30 887 N 87.0255 -1.09777 6.84047 0
M  V30 888 N 88.8185 -1.06226 5.51971 0
M  V30 889 H 80.9695 0.629462 2.02858 0
M  V30 890 H 83.2325 0.220621 0.921971 0
M  V30 891 H 82.9385 0.231518 3.50937 0
M  V30 892 H 82.8125 -1.51781 3.45315 0
M  V30 893 H 85.1995 -1.61999 2.46658 0
M  V30 894 H 85.2805 0.14541 2.55386 0
M  V30 895 H 84.9245 0.0146069 5.07898 0
M  V30 896 H 84.8545 -1.76172 4.96257 0
M  V30 897 H 87.3455 -0.876694 3.6759 0
M  V30 898 H 87.6585 -1.17872 7.63758 0
M  V30 899 H 86.0035 -1.06693 6.86762 0
M  V30 900 H 89.1945 -1.00382 4.5721 0
M  V30 901 H 89.3675 -1.14177 6.37862 0
M  V30 902 N 82.7736 -1.49793 -0.48987 0
M  V30 903 C 83.6836 -1.70036 -1.61632 0
M  V30 904 C 84.6996 -0.583102 -1.63939 0
M  V30 905 O 85.8756 -0.859169 -1.82154 0
M  V30 906 C 82.9406 -1.77277 -2.97949 0
M  V30 907 C 82.0016 -3.00918 -3.06181 0
M  V30 908 C 81.2346 -3.07804 -4.35996 0
M  V30 909 O 81.4576 -2.21982 -5.25433 0
M  V30 910 O 80.3916 -4.00369 -4.49431 0
M  V30 911 H 84.2176 -2.65486 -1.47482 0
M  V30 912 H 81.8026 -1.33666 -0.667362 0
M  V30 913 H 83.6846 -1.84329 -3.78947 0
M  V30 914 H 82.3596 -0.850076 -3.12339 0
M  V30 915 H 81.2666 -2.99377 -2.2433 0
M  V30 916 H 82.5996 -3.92704 -2.96723 0
M  V30 917 N 84.2517 0.741722 -1.39055 0
M  V30 918 C 85.2147 1.83733 -1.37021 0
M  V30 919 C 86.2147 1.58542 -0.268534 0
M  V30 920 O 87.4047 1.66067 -0.526076 0
M  V30 921 C 84.5367 3.2141 -1.13617 0
M  V30 922 H 85.7297 1.86941 -2.34506 0
M  V30 923 H 83.2827 0.944676 -1.24521 0
M  V30 924 H 84.0177 3.23865 -0.167863 0
M  V30 925 H 83.8027 3.4109 -1.93391 0
M  V30 926 H 85.2927 4.01477 -1.14918 0
M  V30 927 N 85.7298 1.2412 0.971189 0
M  V30 928 C 86.6398 1.04747 2.09917 0
M  V30 929 C 87.6558 -0.0107162 1.73997 0
M  V30 930 O 88.8318 0.186714 2.00533 0
M  V30 931 C 85.8968 0.650828 3.40537 0
M  V30 932 C 84.9578 1.7851 3.90426 0
M  V30 933 C 84.1908 1.40729 5.14812 0
M  V30 934 O 84.4138 0.29557 5.69634 0
M  V30 935 O 83.3478 2.23168 5.58999 0
M  V30 936 H 87.1738 1.99304 2.29154 0
M  V30 937 H 84.7588 1.02908 1.08307 0
M  V30 938 H 86.6408 0.440992 4.19086 0
M  V30 939 H 85.3158 -0.265649 3.22608 0
M  V30 940 H 84.2228 2.04966 3.12953 0
M  V30 941 H 85.5558 2.68023 4.12825 0
M  V30 942 N 87.2079 -1.17134 1.05439 0
M  V30 943 C 88.4849 -1.83411 0.679699 0
M  V30 944 C 88.8649 -1.9368 -0.839726 0
M  V30 945 O 88.2129 -1.47325 -1.74664 0
M  V30 946 C 88.4229 -3.20918 1.37159 0
M  V30 947 C 89.7709 -3.96796 1.51123 0
M  V30 948 O 90.7949 -3.30406 1.3308 0
M  V30 949 O 89.6539 -5.15778 1.80651 0
M  V30 950 H 86.7479 -0.79154 0.239569 0
M  V30 951 H 89.2939 -1.24411 1.15413 0
M  V30 952 H 88.0659 -3.08428 2.40807 0
M  V30 953 H 87.6889 -3.87587 0.886674 0
M  V30 954 N 88.686 -0.835752 -1.33615 0
M  V30 955 C 89.616 -0.281739 -2.31794 0
M  V30 956 C 90.597 0.608833 -1.58831 0
M  V30 957 O 91.782 0.533035 -1.86741 0
M  V30 958 C 88.912 0.546612 -3.42971 0
M  V30 959 C 87.866 -0.247904 -4.27281 0
M  V30 960 C 87.192 0.704001 -5.30045 0
M  V30 961 C 88.492 -1.46324 -5.01385 0
M  V30 962 H 90.186 -1.10206 -2.78379 0
M  V30 963 H 87.732 -0.531388 -1.33837 0
M  V30 964 H 89.685 0.944467 -4.1068 0
M  V30 965 H 88.409 1.40011 -2.95067 0
M  V30 966 H 87.068 -0.627281 -3.61194 0
M  V30 967 H 86.716 1.55381 -4.78399 0
M  V30 968 H 86.416 0.176524 -5.87335 0
M  V30 969 H 87.94 1.09944 -6.0062 0
M  V30 970 H 89.354 -1.13871 -5.61877 0
M  V30 971 H 87.751 -1.92728 -5.6831 0
M  V30 972 H 88.821 -2.23467 -4.30338 0
M  V30 973 N 90.1641 1.46063 -0.591896 0
M  V30 974 C 91.0961 2.28539 0.174001 0
M  V30 975 C 92.1091 1.39047 0.846753 0
M  V30 976 O 93.2981 1.63564 0.714774 0
M  V30 977 C 90.3981 3.14347 1.26645 0
M  V30 978 C 89.5711 4.32021 0.683856 0
M  V30 979 C 88.6301 4.99157 1.66518 0
M  V30 980 O 87.6561 5.56458 1.19763 0
M  V30 981 N 88.8581 4.97005 2.99943 0
M  V30 982 H 91.6231 2.94911 -0.533633 0
M  V30 983 H 89.1841 1.56077 -0.430294 0
M  V30 984 H 91.1761 3.56125 1.92242 0
M  V30 985 H 89.7461 2.49988 1.87682 0
M  V30 986 H 88.9661 3.93915 -0.1498 0
M  V30 987 H 90.2541 5.08059 0.274567 0
M  V30 988 H 89.6521 4.51714 3.40545 0
M  V30 989 H 88.2091 5.42696 3.61004 0
M  V30 990 N 91.6422 0.330177 1.54103 0
M  V30 991 C 92.8882 -0.270806 2.00984 0
M  V30 992 C 93.2212 -1.51265 1.21789 0
M  V30 993 O 92.4962 -1.92142 0.301927 0
M  V30 994 C 92.7792 -0.598339 3.55094 0
M  V30 995 C 92.6322 0.654674 4.4501 0
M  V30 996 C 93.9512 -1.41334 4.16789 0
M  V30 997 H 91.0702 -0.0969531 0.730595 0
M  V30 998 H 93.7122 0.448066 1.84641 0
M  V30 999 H 91.8622 -1.21078 3.69151 0
M  V30 1000 H 93.5342 1.29285 4.42813 0
M  V30 1001 H 91.7772 1.28224 4.14416 0
M  V30 1002 H 92.4482 0.380944 5.50684 0
M  V30 1003 H 94.9242 -0.895597 4.06347 0
M  V30 1004 H 93.8002 -1.61127 5.24718 0
M  V30 1005 H 94.0612 -2.41146 3.70541 0
M  V30 1006 N 93.1203 -1.57491 0.0584922 0
M  V30 1007 C 94.3683 -1.92597 -0.612436 0
M  V30 1008 C 94.6893 -0.938162 -1.70949 0
M  V30 1009 O 93.9593 0.0158301 -1.95894 0
M  V30 1010 H 92.5393 -0.710964 -0.229214 0
M  V30 1011 H 95.2013 -1.94571 0.113218 0
M  V30 1012 H 94.2973 -2.94038 -1.04633 0
M  V30 1013 N 94.5984 0.214957 -1.56127 0
M  V30 1014 C 95.5304 1.29004 -1.89448 0
M  V30 1015 C 96.5434 1.42716 -0.783326 0
M  V30 1016 O 97.7324 1.43496 -1.06166 0
M  V30 1017 C 94.8324 2.66482 -2.09381 0
M  V30 1018 C 94.0054 2.74633 -3.40434 0
M  V30 1019 C 93.0644 3.9317 -3.49719 0
M  V30 1020 O 92.0904 3.812 -4.227 0
M  V30 1021 N 93.2924 5.07765 -2.81346 0
M  V30 1022 H 96.0574 1.00743 -2.82261 0
M  V30 1023 H 93.6184 0.40497 -1.56753 0
M  V30 1024 H 95.6104 3.44173 -2.12901 0
M  V30 1025 H 94.1804 2.87314 -1.23163 0
M  V30 1026 H 93.4004 1.83368 -3.48955 0
M  V30 1027 H 94.6884 2.77054 -4.26754 0
M  V30 1028 H 94.0864 5.20386 -2.21843 0
M  V30 1029 H 92.6434 5.83474 -2.90519 0
M  V30 1030 N 96.0765 1.50051 0.48192 0
M  V30 1031 C 97.3225 1.60736 1.2366 0
M  V30 1032 C 97.6555 0.301786 1.91841 0
M  V30 1033 O 96.9305 -0.696025 1.8162 0
M  V30 1034 C 97.2135 2.78009 2.28874 0
M  V30 1035 C 97.0665 4.18416 1.65069 0
M  V30 1036 C 98.3855 2.90867 3.30279 0
M  V30 1037 H 95.5045 0.585031 0.448228 0
M  V30 1038 H 98.1465 1.82402 0.531946 0
M  V30 1039 H 96.2965 2.59667 2.88973 0
M  V30 1040 H 97.9685 4.48322 1.0865 0
M  V30 1041 H 96.2115 4.23177 0.954148 0
M  V30 1042 H 96.8825 4.96381 2.41474 0
M  V30 1043 H 99.3585 3.07623 2.80191 0
M  V30 1044 H 98.2345 3.74566 4.01238 0
M  V30 1045 H 98.4955 2.01021 3.93755 0
M  V30 1046 N 97.5546 -0.734337 1.39446 0
M  V30 1047 C 98.4646 -1.87879 1.40495 0
M  V30 1048 C 99.4806 -1.714 0.299672 0
M  V30 1049 O 100.657 -1.93991 0.541249 0
M  V30 1050 C 97.7216 -3.23477 1.24754 0
M  V30 1051 C 96.7826 -3.52344 2.45259 0
M  V30 1052 C 96.0156 -4.81473 2.30259 0
M  V30 1053 O 96.2386 -5.55237 1.30643 0
M  V30 1054 O 95.1726 -5.10254 3.19256 0
M  V30 1055 H 98.9986 -1.89949 2.36966 0
M  V30 1056 H 96.5836 -0.882243 1.20569 0
M  V30 1057 H 98.4656 -4.04509 1.18111 0
M  V30 1058 H 97.1406 -3.22176 0.313781 0
M  V30 1059 H 96.0476 -2.71396 2.57478 0
M  V30 1060 H 97.3806 -3.58426 3.37331 0
M  V30 1061 N 99.0327 -1.24633 -0.964593 0
M  V30 1062 C 99.9627 -1.06611 -2.07741 0
M  V30 1063 C 100.944 0.0218666 -1.70086 0
M  V30 1064 O 102.129 -0.145793 -1.93652 0
M  V30 1065 C 99.2587 -0.673444 -3.40708 0
M  V30 1066 C 98.2127 -1.71054 -3.92332 0
M  V30 1067 C 97.5387 -1.17285 -5.21678 0
M  V30 1068 C 98.8387 -3.10718 -4.19824 0
M  V30 1069 H 100.533 -1.99693 -2.23076 0
M  V30 1070 H 98.0787 -0.96152 -1.07195 0
M  V30 1071 H 100.032 -0.534345 -4.17998 0
M  V30 1072 H 98.7557 0.293073 -3.25282 0
M  V30 1073 H 97.4147 -1.83791 -3.17201 0
M  V30 1074 H 97.0627 -0.196847 -5.02615 0
M  V30 1075 H 96.7627 -1.86592 -5.57187 0
M  V30 1076 H 98.2867 -1.04593 -6.01575 0
M  V30 1077 H 99.7007 -3.01192 -4.87808 0
M  V30 1078 H 98.0977 -3.77406 -4.66567 0
M  V30 1079 H 99.1677 -3.58524 -3.26479 0
M  V30 1080 N 100.511 1.16574 -1.06058 0
M  V30 1081 C 101.759 1.86677 -0.77434 0
M  V30 1082 C 102.08 1.81959 0.701147 0
M  V30 1083 O 101.35 1.2515 1.50713 0
M  V30 1084 H 99.9298 0.691134 -0.283449 0
M  V30 1085 H 102.592 1.41378 -1.34158 0
M  V30 1086 H 101.688 2.92181 -1.09711 0
M  V30 1087 N 101.989 0.842826 1.3317 0
M  V30 1088 C 103.237 0.439577 1.97262 0
M  V30 1089 C 103.558 -1.00548 1.67078 0
M  V30 1090 O 102.828 -1.70098 0.971779 0
M  V30 1091 H 101.408 0.159558 0.72976 0
M  V30 1092 H 104.07 1.07665 1.62463 0
M  V30 1093 H 103.166 0.574886 3.0676 0
M  V30 1094 N 103.467 -1.45747 0.599634 0
M  V30 1095 C 104.715 -2.01893 0.0915472 0
M  V30 1096 C 105.036 -1.47155 -1.27946 0
M  V30 1097 O 104.306 -0.66273 -1.84349 0
M  V30 1098 H 102.886 -0.746363 0.0308524 0
M  V30 1099 H 105.548 -1.78645 0.779237 0
M  V30 1100 H 104.644 -3.1208 0.0353086 0
M  V30 1101 N 104.945 -0.338344 -1.53925 0
M  V30 1102 C 106.356 0.146651 -1.86123 0
M  V30 1103 C 106.707 1.5042 -1.2597 0
M  V30 1104 O 105.832 2.08723 -0.571294 0
M  V30 1105 C 106.427 0.272879 -3.37699 0
M  V30 1106 C 104.986 0.702103 -3.69794 0
M  V30 1107 C 104.133 -0.167304 -2.76795 0
M  V30 1108 H 107.084 -0.558123 -1.48562 0
M  V30 1109 H 107.105 1.10128 -3.64214 0
M  V30 1110 H 106.617 -0.715307 -3.81451 0
M  V30 1111 H 104.718 1.6995 -3.31584 0
M  V30 1112 H 104.831 0.495604 -4.7653 0
M  V30 1113 H 103.195 0.359527 -2.5215 0
M  V30 1114 H 103.978 -1.15253 -3.23375 0
M  V30 1115 N 106.423 1.57458 -0.0668435 0
M  V30 1116 C 107.671 1.92919 0.602214 0
M  V30 1117 C 107.992 0.947215 1.70449 0
M  V30 1118 O 107.262 -0.00544117 1.95899 0
M  V30 1119 H 105.842 0.71217 0.22544 0
M  V30 1120 H 108.504 1.94508 -0.123535 0
M  V30 1121 H 107.6 2.94589 1.03073 0
M  V30 1122 N 107.901 -0.206675 1.56239 0
M  V30 1123 C 108.864 -1.23976 1.92776 0
M  V30 1124 C 109.864 -1.39041 0.807729 0
M  V30 1125 O 111.054 -1.37051 1.0753 0
M  V30 1126 C 108.186 -2.61112 2.19165 0
M  V30 1127 H 109.379 -0.927764 2.85189 0
M  V30 1128 H 106.932 -0.447718 1.4975 0
M  V30 1129 H 107.667 -2.97386 1.29352 0
M  V30 1130 H 107.452 -2.51552 3.00772 0
M  V30 1131 H 108.942 -3.35633 2.48476 0
M  V30 1132 N 109.379 -1.50304 -0.473955 0
M  V30 1133 C 110.627 -1.60832 -1.22382 0
M  V30 1134 C 110.948 -0.30939 -1.9253 0
M  V30 1135 O 110.218 0.67296 -1.83978 0
M  V30 1136 H 108.798 -0.592652 -0.454723 0
M  V30 1137 H 111.46 -1.87068 -0.546968 0
M  V30 1138 H 110.556 -2.41803 -1.97327 0
M  V30 1139 N 110.857 0.726932 -1.39834 0
M  V30 1140 C 112.082 1.52121 -1.40976 0
M  V30 1141 C 112.507 1.88098 -0.00826029 0
M  V30 1142 O 111.865 1.52479 0.980807 0
M  V30 1143 C 111.913 2.78021 -2.29644 0
M  V30 1144 O 111.017 3.74272 -1.73188 0
M  V30 1145 H 110.358 0.45908 -0.479731 0
M  V30 1146 H 112.888 0.896207 -1.83927 0
M  V30 1147 H 112.898 3.26671 -2.44438 0
M  V30 1148 H 111.573 2.51169 -3.31492 0
M  V30 1149 H 110.15 3.33073 -1.6768 0
M  V30 1150 N 112.336 1.25143 0.95797 0
M  V30 1151 C 113.266 1.07711 2.07173 0
M  V30 1152 C 114.247 -0.0128462 1.70095 0
M  V30 1153 O 115.432 0.156061 1.93572 0
M  V30 1154 C 112.562 0.691503 3.40346 0
M  V30 1155 C 111.516 1.73132 3.9142 0
M  V30 1156 C 110.842 1.20049 5.21049 0
M  V30 1157 C 112.142 3.1294 4.1817 0
M  V30 1158 H 113.836 2.00873 2.22014 0
M  V30 1159 H 111.382 0.967191 1.06684 0
M  V30 1160 H 113.335 0.556505 4.17709 0
M  V30 1161 H 112.059 -0.275819 3.25433 0
M  V30 1162 H 110.718 1.8547 3.16222 0
M  V30 1163 H 110.366 0.223499 5.02503 0
M  V30 1164 H 110.066 1.89545 5.56189 0
M  V30 1165 H 111.59 1.07782 6.01012 0
M  V30 1166 H 113.004 3.03775 4.86203 0
M  V30 1167 H 111.401 3.79875 4.64559 0
M  V30 1168 H 112.471 3.6025 3.24573 0
M  V30 1169 N 113.814 -1.1601 1.06675 0
M  V30 1170 C 114.746 -2.20115 0.638921 0
M  V30 1171 C 115.759 -1.59916 -0.305057 0
M  V30 1172 O 116.948 -1.78245 -0.0954446 0
M  V30 1173 C 114.048 -3.38798 -0.0830083 0
M  V30 1174 C 113.221 -4.2855 0.875426 0
M  V30 1175 C 112.28 -5.25849 0.192042 0
M  V30 1176 O 111.306 -5.63102 0.830921 0
M  V30 1177 N 112.508 -5.70648 -1.06493 0
M  V30 1178 H 115.273 -2.57439 1.53444 0
M  V30 1179 H 112.834 -1.31057 0.950557 0
M  V30 1180 H 114.826 -4.00936 -0.550685 0
M  V30 1181 H 113.396 -2.99947 -0.880386 0
M  V30 1182 H 112.616 -3.63617 1.52238 0
M  V30 1183 H 113.904 -4.85393 1.52548 0
M  V30 1184 H 113.302 -5.42482 -1.60405 0
M  V30 1185 H 111.859 -6.34859 -1.47641 0
M  V30 1186 N 115.292 -0.849877 -1.32721 0
M  V30 1187 C 116.703 -0.506188 -1.79707 0
M  V30 1188 C 117.054 0.975627 -1.70223 0
M  V30 1189 O 116.179 1.76078 -1.25799 0
M  V30 1190 C 116.774 -0.912044 -3.26293 0
M  V30 1191 C 115.333 -0.620326 -3.71253 0
M  V30 1192 C 114.48 -1.11439 -2.53922 0
M  V30 1193 H 117.431 -1.03754 -1.20087 0
M  V30 1194 H 117.452 -0.226493 -3.79825 0
M  V30 1195 H 116.964 -1.99057 -3.33164 0
M  V30 1196 H 115.065 0.447674 -3.69901 0
M  V30 1197 H 115.178 -1.18327 -4.64258 0
M  V30 1198 H 113.542 -0.534834 -2.49021 0
M  V30 1199 H 114.325 -2.19992 -2.6355 0
M  V30 1200 N 116.77 1.45427 -0.607355 0
M  V30 1201 C 117.7 2.3329 0.0989352 0
M  V30 1202 C 118.681 1.46816 0.859007 0
M  V30 1203 O 119.866 1.75588 0.829604 0
M  V30 1204 C 116.996 3.29518 1.09705 0
M  V30 1205 C 115.95 4.25626 0.450206 0
M  V30 1206 C 115.276 5.11542 1.55655 0
M  V30 1207 C 116.576 5.18505 -0.628455 0
M  V30 1208 H 118.27 2.92595 -0.634716 0
M  V30 1209 H 115.816 1.40696 -0.306681 0
M  V30 1210 H 117.769 3.89855 1.59971 0
M  V30 1211 H 116.493 2.68372 1.86129 0
M  V30 1212 H 115.152 3.66586 -0.0315886 0
M  V30 1213 H 114.8 4.46765 2.31107 0
M  V30 1214 H 114.5 5.76647 1.12925 0
M  V30 1215 H 116.024 5.74748 2.06148 0
M  V30 1216 H 117.438 5.72916 -0.209877 0
M  V30 1217 H 115.835 5.92085 -0.977489 0
M  V30 1218 H 116.905 4.60948 -1.50514 0
M  V30 1219 N 118.248 0.346503 1.53744 0
M  V30 1220 C 119.211 -0.496439 2.23759 0
M  V30 1221 C 120.211 -1.0252 1.2388 0
M  V30 1222 O 121.401 -0.913974 1.48297 0
M  V30 1223 C 118.533 -1.69187 2.95954 0
M  V30 1224 H 119.726 0.115952 2.99676 0
M  V30 1225 H 117.279 0.0978939 1.55993 0
M  V30 1226 H 118.014 -2.34288 2.24231 0
M  V30 1227 H 117.799 -1.31989 3.69217 0
M  V30 1228 H 119.289 -2.28969 3.49232 0
M  V30 1229 N 119.726 -1.57421 0.075193 0
M  V30 1230 C 120.656 -2.15942 -0.888324 0
M  V30 1231 C 121.637 -1.08737 -1.30806 0
M  V30 1232 O 122.822 -1.36787 -1.37851 0
M  V30 1233 C 119.952 -2.72379 -2.1547 0
M  V30 1234 C 118.906 -3.8478 -1.87425 0
M  V30 1235 C 118.232 -4.27834 -3.20721 0
M  V30 1236 C 119.532 -5.08869 -1.17684 0
M  V30 1237 H 121.226 -2.96705 -0.400799 0
M  V30 1238 H 118.772 -1.42723 -0.191342 0
M  V30 1239 H 120.725 -3.11965 -2.83295 0
M  V30 1240 H 119.449 -1.88841 -2.6647 0
M  V30 1241 H 118.108 -3.45703 -1.22004 0
M  V30 1242 H 117.756 -3.41214 -3.6957 0
M  V30 1243 H 117.456 -5.03605 -3.02746 0
M  V30 1244 H 118.98 -4.70039 -3.89738 0
M  V30 1245 H 120.394 -5.4575 -1.75584 0
M  V30 1246 H 118.791 -5.8994 -1.09956 0
M  V30 1247 H 119.861 -4.84648 -0.156453 0
M  V30 1248 N 121.204 0.198386 -1.56346 0
M  V30 1249 C 122.114 1.2664 -1.97483 0
M  V30 1250 C 123.13 1.49989 -0.882002 0
M  V30 1251 O 124.306 1.62668 -1.18748 0
M  V30 1252 C 121.371 2.59141 -2.30319 0
M  V30 1253 C 120.432 2.43892 -3.53292 0
M  V30 1254 C 119.665 3.70074 -3.84553 0
M  V30 1255 O 119.888 4.74101 -3.1715 0
M  V30 1256 O 118.822 3.658 -4.7799 0
M  V30 1257 H 122.648 0.947304 -2.88548 0
M  V30 1258 H 120.233 0.403123 -1.43859 0
M  V30 1259 H 122.115 3.37352 -2.5253 0
M  V30 1260 H 120.79 2.90684 -1.42423 0
M  V30 1261 H 119.697 1.63803 -3.36332 0
M  V30 1262 H 121.03 2.17282 -4.41644 0
M  V30 1263 N 122.682 1.50554 0.465978 0
M  V30 1264 C 123.93 1.61479 1.21528 0
M  V30 1265 C 124.251 0.319596 1.92363 0
M  V30 1266 O 123.521 -0.663194 1.84333 0
M  V30 1267 H 122.101 0.595055 0.451573 0
M  V30 1268 H 124.763 1.87355 0.53704 0
M  V30 1269 H 123.859 2.42846 1.96042 0
M  V30 1270 N 124.16 -0.719506 1.40217 0
M  V30 1271 C 125.385 -1.51371 1.4178 0
M  V30 1272 C 125.81 -1.88091 0.0182355 0
M  V30 1273 O 125.168 -1.52997 -0.972707 0
M  V30 1274 C 125.216 -2.768 2.31115 0
M  V30 1275 O 124.32 -3.73349 1.7517 0
M  V30 1276 H 123.661 -0.456529 0.482159 0
M  V30 1277 H 126.191 -0.88644 1.844 0
M  V30 1278 H 126.201 -3.25371 2.46167 0
M  V30 1279 H 124.876 -2.49407 3.3282 0
M  V30 1280 H 123.453 -3.32179 1.69444 0
M  V30 1281 N 125.638 -1.25649 -0.95132 0
M  V30 1282 C 126.568 -1.08808 -2.06599 0
M  V30 1283 C 127.549 0.00382547 -1.701 0
M  V30 1284 O 128.734 -0.166325 -1.93486 0
M  V30 1285 C 125.864 -0.709542 -3.39975 0
M  V30 1286 C 124.818 -1.75206 -3.90496 0
M  V30 1287 C 124.144 -1.22811 -5.20405 0
M  V30 1288 C 125.444 -3.15153 -4.16504 0
M  V30 1289 H 127.138 -2.02048 -2.20946 0
M  V30 1290 H 124.684 -0.972835 -1.06169 0
M  V30 1291 H 126.637 -0.578649 -4.17408 0
M  V30 1292 H 125.361 0.258556 -3.25575 0
M  V30 1293 H 124.02 -1.87145 -3.15234 0
M  V30 1294 H 123.668 -0.250145 -5.02378 0
M  V30 1295 H 123.368 -1.92492 -5.55176 0
M  V30 1296 H 124.892 -1.10968 -6.00432 0
M  V30 1297 H 126.306 -3.06349 -4.84586 0
M  V30 1298 H 124.703 -3.82333 -4.62538 0
M  V30 1299 H 125.773 -3.61966 -3.22658 0
M  V30 1300 N 127.117 1.15442 -1.07289 0
M  V30 1301 C 128.049 2.19773 -0.650585 0
M  V30 1302 C 129.062 1.60076 0.296572 0
M  V30 1303 O 130.251 1.78293 0.0859905 0
M  V30 1304 C 127.351 3.38838 0.0650398 0
M  V30 1305 C 126.524 4.2808 -0.898141 0
M  V30 1306 C 125.583 5.2574 -0.219926 0
M  V30 1307 O 124.609 5.62654 -0.860773 0
M  V30 1308 N 125.811 5.71205 1.03466 0
M  V30 1309 H 128.576 2.56622 -1.54808 0
M  V30 1310 H 126.137 1.30551 -0.957494 0
M  V30 1311 H 128.129 4.01222 0.529415 0
M  V30 1312 H 126.699 3.00409 0.864466 0
M  V30 1313 H 125.919 3.62804 -1.54165 0
M  V30 1314 H 127.207 4.84577 -1.5512 0
M  V30 1315 H 126.605 5.43325 1.57526 0
M  V30 1316 H 125.162 6.35633 1.44272 0
M  V30 1317 N 128.595 0.856903 1.32268 0
M  V30 1318 C 129.542 0.301172 2.28827 0
M  V30 1319 C 130.512 -0.593104 1.5515 0
M  V30 1320 O 131.697 -0.527537 1.83362 0
M  V30 1321 C 128.837 -0.502523 3.41422 0
M  V30 1322 C 127.95 0.417797 4.29975 0
M  V30 1323 C 127.085 -0.398749 5.29701 0
M  V30 1324 C 126.124 0.518827 6.09897 0
M  V30 1325 N 125.261 -0.260674 7.01616 0
M  V30 1326 H 130.101 1.12983 2.75751 0
M  V30 1327 H 127.638 0.568582 1.35667 0
M  V30 1328 H 129.596 -0.984141 4.05426 0
M  V30 1329 H 128.226 -1.29599 2.95642 0
M  V30 1330 H 127.278 1.01781 3.66531 0
M  V30 1331 H 128.59 1.12191 4.86019 0
M  V30 1332 H 127.744 -0.943435 5.9932 0
M  V30 1333 H 126.483 -1.13622 4.7428 0
M  V30 1334 H 125.488 1.07538 5.39181 0
M  V30 1335 H 126.713 1.25495 6.67404 0
M  V30 1336 H 124.659 -0.981198 6.4862 0
M  V30 1337 H 124.576 0.384364 7.55022 0
M  V30 1338 H 125.844 -0.787014 7.75517 0
M  V30 1339 N 130.073 -1.45103 0.615059 0
M  V30 1340 C 131.489 -1.57137 0.279322 0
M  V30 1341 C 131.689 -1.60523 -1.21797 0
M  V30 1342 O 130.745 -1.53956 -2.00134 0
M  V30 1343 C 132.058 -2.85062 0.957083 0
M  V30 1344 C 133.606 -2.98749 0.933706 0
M  V30 1345 C 134.081 -4.29455 1.59162 0
M  V30 1346 N 135.572 -4.36231 1.55746 0
M  V30 1347 C 136.307 -5.36051 2.0356 0
M  V30 1348 N 135.803 -6.42367 2.59494 0
M  V30 1349 N 137.596 -5.27456 1.94284 0
M  V30 1350 H 129.747 -1.41148 1.58717 0
M  V30 1351 H 132.01 -0.675331 0.665306 0
M  V30 1352 H 131.716 -2.88488 2.01166 0
M  V30 1353 H 131.59 -3.7407 0.48494 0
M  V30 1354 H 133.977 -2.94886 -0.112347 0
M  V30 1355 H 134.058 -2.11132 1.44419 0
M  V30 1356 H 133.702 -4.34077 2.63704 0
M  V30 1357 H 133.632 -5.15901 1.0561 0
M  V30 1358 H 136.123 -3.60011 1.14893 0
M  V30 1359 H 136.436 -7.14793 2.93752 0
M  V30 1360 H 134.781 -6.43097 2.63537 0
M  V30 1361 H 137.972 -4.43308 1.5032 0
M  V30 1362 H 138.145 -6.05099 2.3186 0
M  V30 1363 N 131.551 -0.354651 -1.53558 0
M  V30 1364 C 132.799 0.237972 -2.00694 0
M  V30 1365 C 133.12 1.50173 -1.24391 0
M  V30 1366 O 132.39 1.92673 -0.354135 0
M  V30 1367 H 130.97 0.0909256 -0.741446 0
M  V30 1368 H 133.632 -0.478368 -1.88938 0
M  V30 1369 H 132.728 0.47264 -3.085 0
M  V30 1370 N 133.029 1.57378 -0.0835403 0
M  V30 1371 C 134.278 1.93106 0.582498 0
M  V30 1372 C 134.591 0.96651 1.70053 0
M  V30 1373 O 135.797 1.21705 2.42693 0
M  V30 1374 C 134.253 3.43076 1.08751 0
M  V30 1375 C 133.861 4.48 -0.000146404 0
M  V30 1376 C 135.605 3.87785 1.72694 0
M  V30 1377 C 133.512 5.89113 0.519568 0
M  V30 1378 H 132.442 0.720775 0.221358 0
M  V30 1379 H 135.093 1.82821 -0.157675 0
M  V30 1380 H 133.475 3.48474 1.88101 0
M  V30 1381 H 134.649 4.54233 -0.775199 0
M  V30 1382 H 132.964 4.1283 -0.54406 0
M  V30 1383 H 135.561 4.90604 2.1263 0
M  V30 1384 H 135.904 3.25796 2.59158 0
M  V30 1385 H 136.437 3.8504 0.999457 0
M  V30 1386 H 133.176 6.54775 -0.308186 0
M  V30 1387 H 132.696 5.86376 1.26188 0
M  V30 1388 H 134.375 6.39346 0.992237 0
M  V30 1389 N 134.507 -0.190092 1.56449 0
M  V30 1390 C 135.753 -0.911052 1.81184 0
M  V30 1391 C 136.086 -1.82699 0.658396 0
M  V30 1392 O 135.361 -1.91491 -0.340775 0
M  V30 1393 C 135.644 -1.72297 3.16205 0
M  V30 1394 C 135.497 -0.831419 4.42049 0
M  V30 1395 C 136.816 -2.69454 3.47969 0
M  V30 1396 H 133.935 -0.32977 0.659106 0
M  V30 1397 H 136.577 -0.178169 1.89163 0
M  V30 1398 H 134.727 -2.34778 3.09534 0
M  V30 1399 H 136.399 -0.220929 4.60771 0
M  V30 1400 H 134.642 -0.138406 4.33579 0
M  V30 1401 H 135.313 -1.43461 5.33032 0
M  V30 1402 H 137.789 -2.17104 3.54972 0
M  V30 1403 H 136.665 -3.23342 4.43555 0
M  V30 1404 H 136.926 -3.48744 2.71717 0
M  V30 1405 N 135.985 -1.50799 -0.457987 0
M  V30 1406 C 136.895 -1.73426 -1.57989 0
M  V30 1407 C 137.911 -0.617745 -1.62665 0
M  V30 1408 O 139.087 -0.897614 -1.80291 0
M  V30 1409 C 136.152 -1.83557 -2.94122 0
M  V30 1410 C 135.213 -3.07345 -2.99729 0
M  V30 1411 C 134.446 -3.16983 -4.29368 0
M  V30 1412 O 134.669 -2.33077 -5.20607 0
M  V30 1413 O 133.603 -4.09812 -4.40837 0
M  V30 1414 H 137.429 -2.68555 -1.41817 0
M  V30 1415 H 135.014 -1.35052 -0.638859 0
M  V30 1416 H 136.896 -1.92326 -3.74952 0
M  V30 1417 H 135.571 -0.916137 -3.10465 0
M  V30 1418 H 134.478 -3.04068 -2.1793 0
M  V30 1419 H 135.811 -3.9891 -2.88326 0
M  V30 1420 N 137.463 0.71206 -1.40597 0
M  V30 1421 C 138.395 1.83704 -1.37061 0
M  V30 1422 C 139.408 1.60453 -0.275426 0
M  V30 1423 O 140.597 1.70262 -0.53602 0
M  V30 1424 C 137.697 3.20172 -1.11099 0
M  V30 1425 C 136.87 3.7059 -2.3234 0
M  V30 1426 C 135.929 4.85681 -2.02485 0
M  V30 1427 O 134.955 4.9815 -2.75382 0
M  V30 1428 N 136.157 5.71735 -1.00497 0
M  V30 1429 H 138.922 1.87235 -2.34016 0
M  V30 1430 H 136.483 0.893739 -1.34996 0
M  V30 1431 H 138.475 3.94768 -0.891064 0
M  V30 1432 H 137.045 3.11767 -0.227989 0
M  V30 1433 H 136.265 2.87085 -2.7014 0
M  V30 1434 H 137.553 4.01011 -3.13157 0
M  V30 1435 H 136.951 5.64275 -0.401298 0
M  V30 1436 H 135.508 6.463 -0.844942 0
M  V30 1437 N 138.941 1.26152 0.944643 0
M  V30 1438 C 140.181 1.12708 1.70517 0
M  V30 1439 C 140.545 -0.324727 1.89234 0
M  V30 1440 O 141.746 -0.581211 2.62441 0
M  V30 1441 C 140.017 1.8713 3.04495 0
M  V30 1442 S 141.576 1.89698 3.95677 0
M  V30 1443 H 138.394 0.402665 0.585988 0
M  V30 1444 H 140.996 1.59821 1.12594 0
M  V30 1445 H 139.7 2.91833 2.88551 0
M  V30 1446 H 139.231 1.40444 3.67477 0
M  V30 1447 H 141.246 0.981198 4.86402 0
M  V30 1448 N 140.419 -1.14872 1.07899 0
M  V30 1449 C 141.659 -1.8745 0.814965 0
M  V30 1450 C 142.023 -1.80758 -0.64733 0
M  V30 1451 O 143.224 -2.48422 -1.02664 0
M  V30 1452 C 141.495 -3.32286 1.31607 0
M  V30 1453 S 143.054 -4.22537 1.18357 0
M  V30 1454 H 139.872 -0.646833 0.295174 0
M  V30 1455 H 142.474 -1.38555 1.37923 0
M  V30 1456 H 141.178 -3.34703 2.37491 0
M  V30 1457 H 140.709 -3.86238 0.747261 0
M  V30 1458 H 142.724 -4.96044 0.124586 0
M  V30 1459 N 141.898 -0.863906 -1.31812 0
M  V30 1460 C 143.126 -0.486111 -2.01108 0
M  V30 1461 C 143.541 0.919755 -1.64882 0
M  V30 1462 O 142.898 1.60162 -0.874893 0
M  V30 1463 C 142.949 -0.626435 -3.56031 0
M  V30 1464 O 142.67 -1.97693 -3.90959 0
M  V30 1465 C 144.171 -0.248857 -4.42601 0
M  V30 1466 H 141.391 -0.190052 -0.643523 0
M  V30 1467 H 143.935 -1.1634 -1.68182 0
M  V30 1468 H 142.09 0.00322717 -3.874 0
M  V30 1469 H 142.504 -1.98034 -4.85678 0
M  V30 1470 H 143.978 -0.398016 -5.50563 0
M  V30 1471 H 144.455 0.811489 -4.31638 0
M  V30 1472 H 145.061 -0.853971 -4.16638 0
M  V30 1473 N 143.376 1.44774 -0.622745 0
M  V30 1474 C 144.601 2.06999 -0.128968 0
M  V30 1475 C 145.026 1.4617 1.1839 0
M  V30 1476 O 144.384 0.560007 1.72434 0
M  V30 1477 C 144.432 3.60595 -0.0188351 0
M  V30 1478 O 143.536 3.99398 1.02739 0
M  V30 1479 H 142.877 0.659047 -0.0809544 0
M  V30 1480 H 145.407 1.85784 -0.85705 0
M  V30 1481 H 145.417 4.07627 0.174476 0
M  V30 1482 H 144.092 4.04252 -0.977384 0
M  V30 1483 H 142.669 3.64011 0.809326 0
M  V30 1484 N 144.854 0.36279 1.53368 0
M  V30 1485 C 146.103 -0.22888 2.00397 0
M  V30 1486 C 146.416 -1.50096 1.25421 0
M  V30 1487 O 147.622 -2.17106 1.63025 0
M  V30 1488 C 146.078 -0.458417 3.56969 0
M  V30 1489 C 145.686 0.798877 4.4082 0
M  V30 1490 C 147.43 -1.00789 4.12361 0
M  V30 1491 C 145.337 0.539078 5.88938 0
M  V30 1492 H 144.267 -0.089305 0.748693 0
M  V30 1493 H 146.918 0.481099 1.77081 0
M  V30 1494 H 145.3 -1.22959 3.76427 0
M  V30 1495 H 146.474 1.57262 4.33134 0
M  V30 1496 H 144.789 1.27137 3.96516 0
M  V30 1497 H 147.386 -1.21754 5.20653 0
M  V30 1498 H 147.729 -1.9692 3.66781 0
M  V30 1499 H 148.262 -0.296961 3.9669 0
M  V30 1500 H 145.001 1.47064 6.3879 0
M  V30 1501 H 144.521 -0.196222 5.99479 0
M  V30 1502 H 146.2 0.163542 6.46793 0
M  V30 1503 N 146.332 -1.57332 0.0918853 0
M  V30 1504 C 147.572 -1.96117 -0.575988 0
M  V30 1505 C 147.936 -0.972499 -1.65549 0
M  V30 1506 O 149.137 -1.24872 -2.38034 0
M  V30 1507 C 147.408 -3.39407 -1.11973 0
M  V30 1508 S 148.967 -4.00185 -1.79992 0
M  V30 1509 H 145.785 -0.685682 -0.188045 0
M  V30 1510 H 148.387 -1.94755 0.170525 0
M  V30 1511 H 147.091 -4.09131 -0.322504 0
M  V30 1512 H 146.622 -3.44358 -1.90214 0
M  V30 1513 H 148.637 -3.88728 -3.08391 0
M  V30 1514 N 147.81 0.181792 -1.56548 0
M  V30 1515 C 149.035 0.920019 -1.85877 0
M  V30 1516 C 149.46 1.75494 -0.677021 0
M  V30 1517 O 148.818 1.77399 0.374056 0
M  V30 1518 C 148.866 1.78112 -3.13542 0
M  V30 1519 O 147.97 2.88152 -2.95029 0
M  V30 1520 H 147.311 0.258334 -0.611686 0
M  V30 1521 H 149.841 0.183092 -2.03779 0
M  V30 1522 H 149.851 2.18314 -3.44678 0
M  V30 1523 H 148.526 1.16777 -3.99169 0
M  V30 1524 H 147.103 2.51609 -2.75222 0
M  V30 1525 N 149.288 1.51039 0.449983 0
M  V30 1526 C 150.218 1.74379 1.55288 0
M  V30 1527 C 151.199 0.593236 1.5942 0
M  V30 1528 O 152.384 0.834625 1.7535 0
M  V30 1529 C 149.514 1.85728 2.93466 0
M  V30 1530 C 148.468 3.01078 3.04197 0
M  V30 1531 C 147.794 2.97595 4.44231 0
M  V30 1532 C 149.094 4.41254 2.7945 0
M  V30 1533 H 150.788 2.66725 1.36008 0
M  V30 1534 H 148.334 1.2835 0.652864 0
M  V30 1535 H 150.287 2.0064 3.70569 0
M  V30 1536 H 149.011 0.900207 3.13949 0
M  V30 1537 H 147.67 2.85851 2.29531 0
M  V30 1538 H 147.318 1.99691 4.61663 0
M  V30 1539 H 147.018 3.75046 4.52343 0
M  V30 1540 H 148.542 3.14583 5.23326 0
M  V30 1541 H 149.956 4.56897 3.46292 0
M  V30 1542 H 148.353 5.20315 2.98985 0
M  V30 1543 H 149.423 4.52164 1.75144 0
M  V30 1544 N 150.766 -0.704594 1.40972 0
M  V30 1545 C 151.996 -1.49138 1.42974 0
M  V30 1546 C 152.404 -1.89175 0.0308406 0
M  V30 1547 O 151.747 -1.56734 -0.958138 0
M  V30 1548 C 151.809 -2.79016 2.26694 0
M  V30 1549 C 151.473 -2.61236 3.74973 0
M  V30 1550 C 152.47 -2.27773 4.67349 0
M  V30 1551 C 150.155 -2.77158 4.18914 0
M  V30 1552 C 152.149 -2.10457 6.01653 0
M  V30 1553 C 149.836 -2.59459 5.53285 0
M  V30 1554 C 150.834 -2.26158 6.4447 0
M  V30 1555 O 150.522 -2.08605 7.76363 0
M  V30 1556 H 150.254 -0.466443 0.489292 0
M  V30 1557 H 152.808 -0.8758 1.85793 0
M  V30 1558 H 151.038 -3.42947 1.78673 0
M  V30 1559 H 152.727 -3.40782 2.20504 0
M  V30 1560 H 153.493 -2.15095 4.34694 0
M  V30 1561 H 149.372 -3.02064 3.48251 0
M  V30 1562 H 152.916 -1.84387 6.72791 0
M  V30 1563 H 148.813 -2.71725 5.85522 0
M  V30 1564 H 149.581 -2.23439 7.87412 0
M  V30 1565 N 152.244 -1.26651 -0.937939 0
M  V30 1566 C 153.176 -1.04283 -2.04102 0
M  V30 1567 C 154.189 -0.00221014 -1.628 0
M  V30 1568 O 155.378 -0.242645 -1.76843 0
M  V30 1569 C 152.478 -0.557846 -3.34277 0
M  V30 1570 C 151.651 -1.66843 -4.04329 0
M  V30 1571 C 150.71 -1.18095 -5.12777 0
M  V30 1572 O 149.736 -1.87865 -5.37304 0
M  V30 1573 N 150.938 -0.0311006 -5.80492 0
M  V30 1574 H 153.703 -1.9927 -2.23856 0
M  V30 1575 H 151.264 -1.1808 -1.10764 0
M  V30 1576 H 153.256 -0.215836 -4.04124 0
M  V30 1577 H 151.826 0.298523 -3.11171 0
M  V30 1578 H 151.046 -2.18123 -3.28353 0
M  V30 1579 H 152.334 -2.41408 -4.47883 0
M  V30 1580 H 151.732 0.551486 -5.63005 0
M  V30 1581 H 150.289 0.251809 -6.51313 0
M  V30 1582 N 153.722 1.14298 -1.08507 0
M  V30 1583 C 154.652 2.21542 -0.737646 0
M  V30 1584 C 155.633 1.67773 0.280377 0
M  V30 1585 O 156.818 1.93616 0.150521 0
M  V30 1586 C 153.948 3.46988 -0.147259 0
M  V30 1587 C 152.902 4.13789 -1.09374 0
M  V30 1588 C 152.228 5.33449 -0.365524 0
M  V30 1589 C 153.528 4.62208 -2.4323 0
M  V30 1590 H 155.222 2.5086 -1.6343 0
M  V30 1591 H 152.768 1.20576 -0.787243 0
M  V30 1592 H 154.721 4.21262 0.107808 0
M  V30 1593 H 153.445 3.17037 0.784538 0
M  V30 1594 H 152.104 3.4147 -1.33393 0
M  V30 1595 H 151.752 4.99759 0.57011 0
M  V30 1596 H 151.452 5.79088 -0.996512 0
M  V30 1597 H 152.976 6.10485 -0.118534 0
M  V30 1598 H 154.39 5.27952 -2.23472 0
M  V30 1599 H 152.787 5.18553 -3.02031 0
M  V30 1600 H 153.857 3.77224 -3.04681 0
M  V30 1601 N 155.201 0.870884 1.31352 0
M  V30 1602 C 156.111 0.330783 2.32256 0
M  V30 1603 C 157.127 -0.559767 1.6475 0
M  V30 1604 O 158.303 -0.456263 1.96164 0
M  V30 1605 C 155.368 -0.458137 3.4366 0
M  V30 1606 C 154.429 0.460482 4.26823 0
M  V30 1607 C 153.662 -0.290881 5.32907 0
M  V30 1608 O 153.885 -1.51885 5.49806 0
M  V30 1609 O 152.819 0.351732 6.00871 0
M  V30 1610 H 156.645 1.16718 2.80376 0
M  V30 1611 H 154.23 0.634285 1.35267 0
M  V30 1612 H 156.112 -0.905343 4.1156 0
M  V30 1613 H 154.787 -1.27106 2.97701 0
M  V30 1614 H 153.694 0.956207 3.61673 0
M  V30 1615 H 155.027 1.23903 4.7635 0
M  V30 1616 N 156.679 -1.44442 0.630414 0
M  V30 1617 C 157.627 -2.32437 -0.0871428 0
M  V30 1618 C 158.621 -1.47304 -0.836525 0
M  V30 1619 O 159.827 -1.63653 -0.749506 0
M  V30 1620 H 156.202 -0.750533 -0.0469495 0
M  V30 1621 H 158.173 -2.90709 0.673096 0
M  V30 1622 C 156.922 -3.31288 -1.05563 0
M  V30 1623 H 156.245 -3.96805 -0.488426 0
M  V30 1624 H 157.685 -3.9554 -1.52721 0
M  V30 1625 C 156.144 -2.6016 -2.14052 0
M  V30 1626 O 156.674 -2.39997 -3.22124 0
M  V30 1627 N 154.88 -2.19911 -1.89967 0
M  V30 1628 H 154.427 -2.36509 -1.02085 0
M  V30 1629 H 154.385 -1.72646 -2.62756 0
M  V30 1630 N 158.157 -0.370918 -1.53173 0
M  V30 1631 C 159.387 0.217389 -2.05453 0
M  V30 1632 C 159.795 1.42568 -1.24382 0
M  V30 1633 O 159.138 1.81571 -0.278839 0
M  V30 1634 C 159.2 0.669827 -3.53205 0
M  V30 1635 C 158.864 -0.4225 -4.55043 0
M  V30 1636 C 159.861 -1.27407 -5.04047 0
M  V30 1637 C 157.546 -0.58427 -4.9889 0
M  V30 1638 C 159.54 -2.27271 -5.95505 0
M  V30 1639 C 157.227 -1.58627 -5.90153 0
M  V30 1640 C 158.225 -2.42892 -6.38351 0
M  V30 1641 O 157.913 -3.41382 -7.27814 0
M  V30 1642 H 157.645 0.0408171 -0.674767 0
M  V30 1643 H 160.199 -0.5292 -1.98466 0
M  V30 1644 H 158.429 1.4681 -3.57748 0
M  V30 1645 H 160.118 1.18173 -3.88317 0
M  V30 1646 H 160.884 -1.16031 -4.70916 0
M  V30 1647 H 156.763 0.061851 -4.60959 0
M  V30 1648 H 160.307 -2.93079 -6.33049 0
M  V30 1649 H 156.204 -1.70048 -6.22699 0
M  V30 1650 H 156.972 -3.37173 -7.45826 0
M  V30 1651 N 159.635 1.57281 -0.100228 0
M  V30 1652 C 160.875 1.96419 0.56558 0
M  V30 1653 C 161.239 0.981265 1.65031 0
M  V30 1654 O 162.44 1.26133 2.37369 0
M  V30 1655 C 160.711 3.39996 1.10171 0
M  V30 1656 S 162.27 4.01134 1.77867 0
M  V30 1657 H 159.088 0.68667 0.184406 0
M  V30 1658 H 161.69 1.94662 -0.180851 0
M  V30 1659 H 160.394 4.09296 0.300803 0
M  V30 1660 H 159.925 3.45361 1.88385 0
M  V30 1661 H 161.94 3.90358 3.06326 0
M  V30 1662 N 161.113 -0.173488 1.56642 0
M  V30 1663 C 162.061 -1.23417 1.97157 0
M  V30 1664 C 163.055 -1.45946 0.860013 0
M  V30 1665 O 164.261 -1.46551 1.04512 0
M  V30 1666 H 160.636 -0.414818 0.62724 0
M  V30 1667 H 162.607 -0.865582 2.8557 0
M  V30 1668 C 161.356 -2.5665 2.34576 0
M  V30 1669 H 160.679 -2.40137 3.19647 0
M  V30 1670 H 162.119 -3.2956 2.6677 0
M  V30 1671 C 160.578 -3.15245 1.18836 0
M  V30 1672 O 161.108 -3.98883 0.474869 0
M  V30 1673 N 159.314 -2.74303 0.959497 0
M  V30 1674 H 158.861 -2.0639 1.54146 0
M  V30 1675 H 158.819 -3.13844 0.186932 0
M  V30 1676 O 162.63 -1.58328 -0.318489 0
M  V30 1677 H 163.321 -1.67855 -0.96667 0
M  V30 END ATOM
M  V30 BEGIN BOND
M  V30 END BOND
M  V30 END CTAB
M  END
$$$$
