drugbank_target|Q13002 Glutamate receptor ionotropic, kainate 2 (DB00142; DB00237; DB00241; DB00306; DB00312; DB00418; DB00463; DB00599; DB00794; DB00849; DB01174; DB01351; DB01352; DB01353; DB01354; DB01355; DB01483; DB01496; DB02852; DB02999; DB03425)
 OpenBabel12092119403D

  0  0  0     0  0            999 V3000
M  V30 BEGIN CTAB
M  V30 COUNTS 14464 14628 0 0 0
M  V30 BEGIN ATOM
M  V30 1 H -0.908 1.98254 -0.117106 0
M  V30 2 N 0 1.576 0 0
M  V30 3 C 0.933 2.03868 1.02534 0
M  V30 4 C 1.911 0.928543 1.3348 0
M  V30 5 O 3.095 1.19667 1.45644 0
M  V30 6 C 0.222 2.43627 2.35294 0
M  V30 7 C -0.732 3.65373 2.2001 0
M  V30 8 S 0.101 5.13292 1.52614 0
M  V30 9 C 1.257 5.56322 2.86805 0
M  V30 10 H 1.49 2.90518 0.631377 0
M  V30 11 H -0.977 1.52953 0.210867 0
M  V30 12 H 0.981 2.67203 3.11629 0
M  V30 13 H -0.358 1.57376 2.7183 0
M  V30 14 H -1.165 3.90944 3.18086 0
M  V30 15 H -1.563 3.418 1.51819 0
M  V30 16 H 0.729 5.58782 3.83104 0
M  V30 17 H 1.672 6.56266 2.65933 0
M  V30 18 H 2.08 4.83886 2.90714 0
M  V30 19 N 1.4781 -0.272755 1.55222 0
M  V30 20 C 2.4251 -1.33716 1.88119 0
M  V30 21 C 3.3951 -1.49066 0.73271 0
M  V30 22 O 4.5801 -1.63469 0.984002 0
M  V30 23 C 1.7201 -2.69238 2.15882 0
M  V30 24 C 0.8331 -2.62108 3.43399 0
M  V30 25 C -0.0319 -3.89811 3.60861 0
M  V30 26 C -0.9929 -3.77193 4.8207 0
M  V30 27 N -1.8559 -4.9673 4.96189 0
M  V30 28 H 2.9841 -1.04962 2.78903 0
M  V30 29 H 0.5211 -0.507088 1.38083 0
M  V30 30 H 2.4791 -3.48089 2.29978 0
M  V30 31 H 1.1091 -2.96194 1.28331 0
M  V30 32 H 0.1611 -1.74967 3.37773 0
M  V30 33 H 1.4731 -2.48685 4.32386 0
M  V30 34 H 0.6271 -4.77103 3.74777 0
M  V30 35 H -0.6339 -4.06102 2.7006 0
M  V30 36 H -1.6289 -2.88284 4.68159 0
M  V30 37 H -0.4039 -3.62421 5.74307 0
M  V30 38 H -2.4579 -5.13431 4.08319 0
M  V30 39 H -2.5409 -4.85839 5.79221 0
M  V30 40 H -1.2729 -5.85594 5.1449 0
M  V30 41 N 2.9562 -1.48159 -0.537278 0
M  V30 42 C 4.2052 -1.5506 -1.28993 0
M  V30 43 C 4.5182 -0.226211 -1.94288 0
M  V30 44 O 5.7242 -0.173395 -2.70946 0
M  V30 45 C 4.1802 -2.73429 -2.34018 0
M  V30 46 C 3.7882 -4.1248 -1.74825 0
M  V30 47 C 5.5322 -2.89638 -3.10339 0
M  V30 48 C 3.4392 -5.22121 -2.77747 0
M  V30 49 H 2.3692 -0.577231 -0.485098 0
M  V30 50 H 5.0202 -1.74478 -0.568317 0
M  V30 51 H 3.4022 -2.47431 -3.09182 0
M  V30 52 H 4.5762 -4.48466 -1.05899 0
M  V30 53 H 2.8912 -4.01327 -1.11022 0
M  V30 54 H 5.4882 -3.68718 -3.87235 0
M  V30 55 H 5.8312 -1.9882 -3.65754 0
M  V30 56 H 6.3642 -3.15502 -2.42288 0
M  V30 57 H 3.1032 -6.1488 -2.27161 0
M  V30 58 H 2.6232 -4.90631 -3.45024 0
M  V30 59 H 4.3022 -5.49924 -3.4087 0
M  V30 60 N 4.4343 0.785586 -1.36625 0
M  V30 61 C 5.6833 1.53883 -1.30396 0
M  V30 62 C 5.9963 1.95271 0.113452 0
M  V30 63 O 7.2023 2.69858 0.298142 0
M  V30 64 C 5.6583 2.77808 -2.28802 0
M  V30 65 C 5.2663 2.43574 -3.75999 0
M  V30 66 C 7.0103 3.55783 -2.31558 0
M  V30 67 C 4.9173 3.63919 -4.66173 0
M  V30 68 H 3.8473 0.577678 -0.484566 0
M  V30 69 H 6.4983 0.861705 -1.62009 0
M  V30 70 H 4.8803 3.47339 -1.90188 0
M  V30 71 H 6.0543 1.81916 -4.23371 0
M  V30 72 H 4.3693 1.78803 -3.76056 0
M  V30 73 H 6.9663 4.45205 -2.96137 0
M  V30 74 H 7.3093 3.94644 -1.3252 0
M  V30 75 H 7.8423 2.93235 -2.68809 0
M  V30 76 H 4.5813 3.3015 -5.66287 0
M  V30 77 H 4.1013 4.2473 -4.23515 0
M  V30 78 H 5.7803 4.30901 -4.82632 0
M  V30 79 N 5.9124 1.20967 1.01018 0
M  V30 80 C 7.1594 1.02374 1.74716 0
M  V30 81 C 7.4874 -0.443375 1.89379 0
M  V30 82 O 6.7424 -1.34535 1.42123 0
M  V30 83 C 7.0414 1.65997 3.16512 0
M  V30 84 C 6.7074 3.15831 3.2181 0
M  V30 85 C 5.3694 3.56719 3.22963 0
M  V30 86 C 7.7214 4.11816 3.19464 0
M  V30 87 C 5.0494 4.92107 3.19449 0
M  V30 88 C 7.4014 5.47158 3.17491 0
M  V30 89 C 6.0654 5.87451 3.16951 0
M  V30 90 H 5.3354 0.374614 0.639332 0
M  V30 91 H 7.9824 1.50485 1.18434 0
M  V30 92 H 6.2874 1.10166 3.75993 0
M  V30 93 H 7.9844 1.49119 3.72242 0
M  V30 94 H 4.5744 2.83263 3.21652 0
M  V30 95 H 8.7584 3.81257 3.17737 0
M  V30 96 H 4.0144 5.22579 3.17366 0
M  V30 97 H 8.1884 6.21274 3.14629 0
M  V30 98 H 5.8154 6.92329 3.13983 0
M  V30 99 N 7.3905 -1.2043 1.01659 0
M  V30 100 C 8.8015 -1.71517 0.737482 0
M  V30 101 C 9.1525 -1.81547 -0.743973 0
M  V30 102 O 8.2775 -1.47803 -1.58061 0
M  V30 103 C 8.8725 -3.11515 1.33206 0
M  V30 104 C 7.4315 -3.59912 1.10183 0
M  V30 105 C 6.5785 -2.37116 1.43776 0
M  V30 106 H 9.5295 -1.05444 1.18606 0
M  V30 107 H 9.5505 -3.73575 0.722636 0
M  V30 108 H 9.0625 -3.04182 2.41028 0
M  V30 109 H 7.1635 -3.72577 0.0412756 0
M  V30 110 H 7.2765 -4.44731 1.78188 0
M  V30 111 H 5.6405 -2.39857 0.856778 0
M  V30 112 H 6.4235 -2.32424 2.52654 0
M  V30 113 N 8.8686 -0.792821 -1.36206 0
M  V30 114 C 10.1176 -0.363353 -1.984 0
M  V30 115 C 10.4306 1.07172 -1.63626 0
M  V30 116 O 11.6366 1.60362 -2.19081 0
M  V30 117 C 10.0926 -0.59872 -3.54885 0
M  V30 118 C 9.7006 -2.04543 -3.9858 0
M  V30 119 C 11.4446 -0.233926 -4.23855 0
M  V30 120 C 9.3516 -2.22727 -5.47856 0
M  V30 121 H 8.2816 -0.13212 -0.742334 0
M  V30 122 H 10.9326 -0.974935 -1.55458 0
M  V30 123 H 9.3146 0.0826222 -3.95914 0
M  V30 124 H 10.4886 -2.76345 -3.68741 0
M  V30 125 H 8.8036 -2.36879 -3.42458 0
M  V30 126 H 11.4006 -0.348027 -5.33566 0
M  V30 127 H 11.7436 0.818351 -4.08177 0
M  V30 128 H 12.2766 -0.868639 -3.882 0
M  V30 129 H 9.0156 -3.2635 -5.68486 0
M  V30 130 H 8.5356 -1.55434 -5.7931 0
M  V30 131 H 10.2146 -2.03607 -6.14128 0
M  V30 132 N 10.3467 1.47872 -0.545128 0
M  V30 133 C 11.2767 2.32661 0.197793 0
M  V30 134 C 12.2577 1.43041 0.920504 0
M  V30 135 O 13.4427 1.71912 0.90333 0
M  V30 136 C 10.5727 3.24569 1.23582 0
M  V30 137 C 9.5267 4.23333 0.630323 0
M  V30 138 C 8.8527 5.0448 1.77211 0
M  V30 139 C 10.1527 5.20704 -0.407974 0
M  V30 140 H 11.8467 2.95024 -0.510045 0
M  V30 141 H 9.3927 1.4187 -0.246731 0
M  V30 142 H 11.3457 3.8272 1.76362 0
M  V30 143 H 10.0697 2.60236 1.97344 0
M  V30 144 H 8.7287 3.6639 0.123922 0
M  V30 145 H 8.3767 4.36561 2.49847 0
M  V30 146 H 8.0767 5.71339 1.37281 0
M  V30 147 H 9.6007 5.65487 2.3034 0
M  V30 148 H 11.0147 5.7329 0.033305 0
M  V30 149 H 9.4117 5.95699 -0.725486 0
M  V30 150 H 10.4817 4.66917 -1.30828 0
M  V30 151 N 11.8248 0.280983 1.55075 0
M  V30 152 C 13.0498 -0.340154 2.04592 0
M  V30 153 C 13.4748 -1.48246 1.15779 0
M  V30 154 O 12.8328 -1.80614 0.15761 0
M  V30 155 C 12.8808 -0.793104 3.5177 0
M  V30 156 O 11.9848 -1.89981 3.66034 0
M  V30 157 H 11.3258 -0.0694289 0.66036 0
M  V30 158 H 13.8558 0.416993 2.00306 0
M  V30 159 H 13.8658 -1.08729 3.93245 0
M  V30 160 H 12.5408 0.0426163 4.15878 0
M  V30 161 H 11.1178 -1.60771 3.36463 0
M  V30 162 N 13.3029 -1.57598 0.00835791 0
M  V30 163 C 14.2509 -2.10078 -0.998508 0
M  V30 164 C 15.2449 -1.02262 -1.35051 0
M  V30 165 O 16.4509 -1.20719 -1.33518 0
M  V30 166 H 12.8259 -0.670903 -0.339696 0
M  V30 167 H 14.7969 -2.93648 -0.530398 0
M  V30 168 C 13.5459 -2.62615 -2.27879 0
M  V30 169 H 12.8689 -3.45213 -2.01662 0
M  V30 170 H 14.3089 -3.03004 -2.96588 0
M  V30 171 C 12.7679 -1.54407 -2.99433 0
M  V30 172 O 13.2979 -0.931812 -3.90743 0
M  V30 173 N 11.5039 -1.2695 -2.61404 0
M  V30 174 H 11.0509 -1.76924 -1.87232 0
M  V30 175 H 11.0089 -0.547704 -3.09593 0
M  V30 176 N 14.781 0.264519 -1.55364 0
M  V30 177 C 16.192 0.834936 -1.6699 0
M  V30 178 C 16.543 1.86718 -0.602552 0
M  V30 179 O 15.668 2.14899 0.254425 0
M  V30 180 C 16.263 1.5212 -3.02729 0
M  V30 181 C 14.822 2.03954 -3.16354 0
M  V30 182 C 13.969 0.884498 -2.62815 0
M  V30 183 H 16.92 0.0406869 -1.58648 0
M  V30 184 H 16.941 2.38853 -2.96191 0
M  V30 185 H 16.453 0.769668 -3.80392 0
M  V30 186 H 14.554 2.82041 -2.43482 0
M  V30 187 H 14.667 2.24902 -4.23032 0
M  V30 188 H 13.031 1.2802 -2.20188 0
M  V30 189 H 13.814 0.14634 -3.42988 0
M  V30 190 N 16.2591 1.48442 0.529413 0
M  V30 191 C 17.5051 1.5672 1.28711 0
M  V30 192 C 17.8381 0.2406 1.92704 0
M  V30 193 O 17.1131 -0.753454 1.79313 0
M  V30 194 C 17.3961 2.70587 2.37603 0
M  V30 195 C 17.2491 4.12953 1.78297 0
M  V30 196 C 18.5681 2.80212 3.39366 0
M  V30 197 H 15.6871 0.570474 0.466613 0
M  V30 198 H 18.3291 1.80617 0.589706 0
M  V30 199 H 16.4791 2.50342 2.97088 0
M  V30 200 H 18.1511 4.44639 1.22858 0
M  V30 201 H 16.3941 4.19927 1.0883 0
M  V30 202 H 17.0651 4.88448 2.57144 0
M  V30 203 H 19.5411 2.98553 2.89836 0
M  V30 204 H 18.4171 3.61611 4.12951 0
M  V30 205 H 18.6781 1.88393 3.99951 0
M  V30 206 N 17.7372 -0.778329 1.37039 0
M  V30 207 C 18.9842 -1.53665 1.31884 0
M  V30 208 C 19.3122 -1.9425 -0.0986303 0
M  V30 209 O 18.5672 -1.63832 -1.07041 0
M  V30 210 C 18.8662 -2.81845 2.19768 0
M  V30 211 C 18.5322 -2.60345 3.68146 0
M  V30 212 C 17.1942 -2.5419 4.08584 0
M  V30 213 C 19.5462 -2.40923 4.62175 0
M  V30 214 C 16.8742 -2.26594 5.41177 0
M  V30 215 C 19.2262 -2.14852 5.94997 0
M  V30 216 C 17.8902 -2.07137 6.34547 0
M  V30 217 H 17.1602 -0.562299 0.482598 0
M  V30 218 H 19.8072 -0.897069 1.69189 0
M  V30 219 H 18.1122 -3.50328 1.75436 0
M  V30 220 H 19.8092 -3.39692 2.13097 0
M  V30 221 H 16.3992 -2.65996 3.36072 0
M  V30 222 H 20.5832 -2.44673 4.31797 0
M  V30 223 H 15.8392 -2.19111 5.70789 0
M  V30 224 H 20.0132 -1.98822 6.67415 0
M  V30 225 H 17.6402 -1.85518 7.37216 0
M  V30 226 N 19.2153 -1.21501 -1.00376 0
M  V30 227 C 20.6313 -0.972629 -1.26539 0
M  V30 228 C 20.8313 0.340257 -1.98606 0
M  V30 229 O 19.8873 1.06561 -2.28913 0
M  V30 230 C 21.2003 -2.16404 -2.08781 0
M  V30 231 C 22.7483 -2.20643 -2.22004 0
M  V30 232 C 23.2233 -3.39306 -3.07629 0
M  V30 233 N 24.7143 -3.39401 -3.15217 0
M  V30 234 C 25.4493 -4.27867 -3.81729 0
M  V30 235 N 24.9453 -5.26533 -4.5026 0
M  V30 236 N 26.7383 -4.15672 -3.78382 0
M  V30 237 H 18.8893 -2.05929 -0.520281 0
M  V30 238 H 21.1523 -0.901803 -0.292328 0
M  V30 239 H 20.8583 -3.11554 -1.63178 0
M  V30 240 H 20.7323 -2.15567 -3.09533 0
M  V30 241 H 23.1193 -1.26048 -2.66825 0
M  V30 242 H 23.2003 -2.25523 -1.20718 0
M  V30 243 H 22.8443 -4.34195 -2.63509 0
M  V30 244 H 22.7743 -3.31665 -4.09031 0
M  V30 245 H 25.2653 -2.67997 -2.66432 0
M  V30 246 H 25.5783 -5.90337 -4.98721 0
M  V30 247 H 23.9233 -5.30457 -4.49044 0
M  V30 248 H 27.1143 -3.3785 -3.23998 0
M  V30 249 H 27.2873 -4.84825 -4.2994 0
M  V30 250 N 20.6934 1.19889 -1.02296 0
M  V30 251 C 22.1094 1.41462 -0.738954 0
M  V30 252 C 22.3094 1.89721 0.678846 0
M  V30 253 O 21.3654 2.07016 1.4457 0
M  V30 254 C 22.6784 2.43083 -1.77005 0
M  V30 255 C 24.2264 2.5684 -1.78892 0
M  V30 256 C 24.7014 3.61709 -2.80945 0
M  V30 257 N 26.1924 3.69199 -2.79725 0
M  V30 258 C 26.9274 4.50019 -3.55345 0
M  V30 259 N 26.4234 5.34592 -4.40662 0
M  V30 260 N 28.2164 4.44612 -3.43914 0
M  V30 261 H 20.3674 0.868827 -1.93817 0
M  V30 262 H 22.6304 0.44399 -0.837602 0
M  V30 263 H 22.3364 2.14636 -2.78612 0
M  V30 264 H 22.2104 3.4217 -1.58744 0
M  V30 265 H 24.5974 2.84614 -0.779674 0
M  V30 266 H 24.6784 1.57927 -2.01228 0
M  V30 267 H 24.3224 3.34678 -3.82038 0
M  V30 268 H 24.2524 4.60259 -2.5587 0
M  V30 269 H 26.7434 3.08794 -2.17842 0
M  V30 270 H 27.0564 5.93363 -4.95116 0
M  V30 271 H 25.4014 5.34073 -4.44737 0
M  V30 272 H 28.5924 3.7758 -2.76679 0
M  V30 273 H 28.7654 5.0736 -4.031 0
M  V30 274 N 22.1715 0.800033 1.35784 0
M  V30 275 C 23.3995 0.389606 2.03199 0
M  V30 276 C 23.8145 -0.997375 1.60306 0
M  V30 277 O 23.1715 -1.64154 0.797481 0
M  V30 278 C 23.2225 0.455855 3.58614 0
M  V30 279 O 22.9435 1.78815 3.99946 0
M  V30 280 C 24.4445 0.0374032 4.43284 0
M  V30 281 H 21.6645 0.159132 0.651857 0
M  V30 282 H 24.2085 1.08183 1.73541 0
M  V30 283 H 22.3635 -0.188057 3.86943 0
M  V30 284 H 22.7775 1.74636 4.94573 0
M  V30 285 H 24.2515 0.134882 5.51835 0
M  V30 286 H 24.7285 -1.01651 4.27275 0
M  V30 287 H 25.3345 0.654215 4.20238 0
M  V30 288 N 23.6496 -1.47581 0.552962 0
M  V30 289 C 24.8956 -2.02782 0.0273648 0
M  V30 290 C 25.2286 -1.42687 -1.31734 0
M  V30 291 O 24.5036 -0.580897 -1.85623 0
M  V30 292 C 24.7866 -3.60031 -0.0702371 0
M  V30 293 C 24.6396 -4.30566 1.30126 0
M  V30 294 C 25.9586 -4.33028 -0.785771 0
M  V30 295 H 23.0776 -0.736912 0.0114185 0
M  V30 296 H 25.7196 -1.76056 0.714432 0
M  V30 297 H 23.8696 -3.82932 -0.655382 0
M  V30 298 H 25.5416 -4.19018 1.92929 0
M  V30 299 H 23.7846 -3.91086 1.87709 0
M  V30 300 H 24.4556 -5.39114 1.18573 0
M  V30 301 H 26.9316 -4.15095 -0.288982 0
M  V30 302 H 25.8076 -5.42695 -0.823013 0
M  V30 303 H 26.0686 -4.01945 -1.841 0
M  V30 304 N 25.1277 -0.289203 -1.54924 0
M  V30 305 C 26.0747 0.592115 -2.23075 0
M  V30 306 C 27.0447 1.13881 -1.20915 0
M  V30 307 O 28.2297 1.18551 -1.495 0
M  V30 308 C 25.3697 1.76376 -2.96623 0
M  V30 309 C 24.4827 1.24959 -4.13533 0
M  V30 310 C 23.6177 2.38416 -4.74691 0
M  V30 311 C 22.6567 1.84072 -5.83767 0
M  V30 312 N 21.7937 2.91057 -6.38929 0
M  V30 313 H 26.6337 0.00432038 -2.98 0
M  V30 314 H 24.1707 -0.00963529 -1.47097 0
M  V30 315 H 26.1287 2.45268 -3.3749 0
M  V30 316 H 24.7587 2.32337 -2.24097 0
M  V30 317 H 23.8107 0.453307 -3.77689 0
M  V30 318 H 25.1227 0.811662 -4.92152 0
M  V30 319 H 24.2767 3.15276 -5.18349 0
M  V30 320 H 23.0157 2.8553 -3.95378 0
M  V30 321 H 22.0207 1.05697 -5.39545 0
M  V30 322 H 23.2457 1.37877 -6.64956 0
M  V30 323 H 21.1917 3.37526 -5.62505 0
M  V30 324 H 21.1087 2.51724 -7.12861 0
M  V30 325 H 22.3767 3.6785 -6.87246 0
M  V30 326 N 26.6058 1.57591 -0.0167156 0
M  V30 327 C 27.5358 2.12496 0.967858 0
M  V30 328 C 28.5168 1.03807 1.34752 0
M  V30 329 O 29.7018 1.31577 1.42833 0
M  V30 330 C 26.8318 2.64194 2.25431 0
M  V30 331 C 25.7858 3.77559 2.01576 0
M  V30 332 C 25.1118 4.15636 3.36379 0
M  V30 333 C 26.4118 5.04151 1.36489 0
M  V30 334 H 28.1058 2.95013 0.510643 0
M  V30 335 H 25.6518 1.41915 0.244181 0
M  V30 336 H 27.6048 3.01236 2.94678 0
M  V30 337 H 26.3288 1.78821 2.73296 0
M  V30 338 H 24.9878 3.40937 1.34751 0
M  V30 339 H 24.6358 3.27263 3.81979 0
M  V30 340 H 24.3358 4.92022 3.21229 0
M  V30 341 H 25.8598 4.5525 4.06915 0
M  V30 342 H 27.2738 5.38857 1.95718 0
M  V30 343 H 25.6708 5.85453 1.31776 0
M  V30 344 H 26.7408 4.83733 0.336219 0
M  V30 345 N 28.0839 -0.256276 1.55502 0
M  V30 346 C 29.0139 -1.32102 1.92539 0
M  V30 347 C 29.9949 -1.50684 0.789194 0
M  V30 348 O 31.1799 -1.63449 1.04872 0
M  V30 349 C 28.3099 -2.67752 2.21192 0
M  V30 350 C 27.2639 -2.63878 3.36975 0
M  V30 351 C 26.5899 -4.03236 3.51147 0
M  V30 352 C 27.8899 -2.21682 4.72921 0
M  V30 353 H 29.5839 -1.01351 2.81724 0
M  V30 354 H 27.1299 -0.486105 1.35547 0
M  V30 355 H 29.0829 -3.42365 2.45691 0
M  V30 356 H 27.8069 -3.0012 1.28824 0
M  V30 357 H 26.4659 -1.91722 3.12471 0
M  V30 358 H 26.1139 -4.32854 2.56216 0
M  V30 359 H 25.8139 -4.01535 4.29003 0
M  V30 360 H 27.3379 -4.79563 3.77957 0
M  V30 361 H 28.7519 -2.86023 4.96854 0
M  V30 362 H 27.1489 -2.3111 5.53812 0
M  V30 363 H 28.2189 -1.16833 4.70615 0
M  V30 364 N 29.562 -1.4872 -0.521534 0
M  V30 365 C 30.492 -1.66771 -1.63431 0
M  V30 366 C 31.473 -0.516499 -1.62069 0
M  V30 367 O 32.658 -0.750013 -1.79132 0
M  V30 368 C 29.788 -1.71515 -3.01993 0
M  V30 369 C 28.742 -2.86222 -3.18216 0
M  V30 370 C 28.068 -2.76061 -4.57924 0
M  V30 371 C 29.368 -4.27419 -3.00184 0
M  V30 372 H 31.062 -2.59932 -1.48579 0
M  V30 373 H 28.608 -1.25089 -0.713358 0
M  V30 374 H 30.561 -1.82731 -3.7972 0
M  V30 375 H 29.285 -0.749393 -3.17886 0
M  V30 376 H 27.944 -2.74575 -2.42908 0
M  V30 377 H 27.592 -1.77437 -4.70665 0
M  V30 378 H 27.292 -3.53037 -4.69722 0
M  V30 379 H 28.816 -2.89256 -5.37739 0
M  V30 380 H 30.23 -4.39855 -3.67697 0
M  V30 381 H 28.627 -5.05458 -3.2347 0
M  V30 382 H 29.697 -4.43293 -1.96518 0
M  V30 383 N 31.0401 0.771051 -1.3745 0
M  V30 384 C 32.2801 1.54264 -1.34096 0
M  V30 385 C 32.6441 1.91858 0.0737639 0
M  V30 386 O 33.8451 2.67797 0.23203 0
M  V30 387 C 32.1161 2.77326 -2.25445 0
M  V30 388 S 33.6751 3.67383 -2.39948 0
M  V30 389 H 30.4931 0.528122 -0.476034 0
M  V30 390 H 33.0951 0.906633 -1.73206 0
M  V30 391 H 31.7991 2.47788 -3.27153 0
M  V30 392 H 31.3301 3.45886 -1.87421 0
M  V30 393 H 33.3451 4.69334 -1.61059 0
M  V30 394 N 32.5182 1.22032 0.997298 0
M  V30 395 C 33.4482 1.01065 2.10495 0
M  V30 396 C 34.4292 -0.0669542 1.69968 0
M  V30 397 O 35.6142 0.0943987 1.9397 0
M  V30 398 C 32.7442 0.582874 3.42374 0
M  V30 399 C 31.6982 1.60592 3.96729 0
M  V30 400 C 31.0242 1.03412 5.24605 0
M  V30 401 C 32.3242 2.99478 4.27914 0
M  V30 402 H 34.0182 1.93708 2.28292 0
M  V30 403 H 31.5642 0.932761 1.09707 0
M  V30 404 H 33.5172 0.423332 4.19268 0
M  V30 405 H 32.2412 -0.379213 3.24391 0
M  V30 406 H 30.9002 1.75316 3.21963 0
M  V30 407 H 30.5482 0.063518 5.0296 0
M  V30 408 H 30.2482 1.71754 5.61938 0
M  V30 409 H 31.7722 0.886066 6.04137 0
M  V30 410 H 33.1862 2.88153 4.95622 0
M  V30 411 H 31.5832 3.64903 4.76409 0
M  V30 412 H 32.6532 3.49742 3.3587 0
M  V30 413 N 33.9963 -1.19345 1.0293 0
M  V30 414 C 34.9263 -2.2481 0.631105 0
M  V30 415 C 35.9073 -1.66245 -0.360104 0
M  V30 416 O 37.0923 -1.92677 -0.242726 0
M  V30 417 C 34.2223 -3.47295 -0.0184607 0
M  V30 418 C 33.1763 -4.18536 0.895073 0
M  V30 419 C 32.5023 -5.34586 0.110592 0
M  V30 420 C 33.8023 -4.73287 2.209 0
M  V30 421 H 35.4963 -2.58372 1.51275 0
M  V30 422 H 33.0423 -1.24194 0.728818 0
M  V30 423 H 34.9953 -4.20268 -0.308675 0
M  V30 424 H 33.7193 -3.12933 -0.934907 0
M  V30 425 H 32.3783 -3.47446 1.16949 0
M  V30 426 H 32.0263 -4.96469 -0.807902 0
M  V30 427 H 31.7263 -5.83183 0.719087 0
M  V30 428 H 33.2503 -6.10355 -0.172871 0
M  V30 429 H 34.6643 -5.38013 1.98028 0
M  V30 430 H 33.0613 -5.32373 2.76946 0
M  V30 431 H 34.1313 -3.91331 2.86336 0
M  V30 432 N 35.4744 -0.807222 -1.35358 0
M  V30 433 C 36.7204 -0.397594 -1.99476 0
M  V30 434 C 37.0754 1.02405 -1.62883 0
M  V30 435 O 36.3684 1.70077 -0.882282 0
M  V30 436 C 36.5624 -0.519036 -3.53611 0
M  V30 437 C 36.3914 -1.95094 -4.05177 0
M  V30 438 C 35.1614 -2.57945 -4.34503 0
M  V30 439 C 37.3594 -2.91558 -4.23673 0
M  V30 440 N 35.3414 -3.92539 -4.72003 0
M  V30 441 C 36.7124 -4.11024 -4.64176 0
M  V30 442 C 38.7674 -2.88381 -4.05883 0
M  V30 443 C 37.4704 -5.27745 -4.88751 0
M  V30 444 C 39.4964 -4.04306 -4.31614 0
M  V30 445 C 38.8584 -5.22519 -4.72391 0
M  V30 446 H 34.9574 -0.193274 -0.75774 0
M  V30 447 H 37.5414 -1.0486 -1.6405 0
M  V30 448 H 35.7124 0.101979 -3.88266 0
M  V30 449 H 37.4444 -0.0839321 -4.04613 0
M  V30 450 H 34.1994 -2.09295 -4.24844 0
M  V30 451 H 34.6234 -4.61836 -4.95011 0
M  V30 452 H 39.2654 -1.98137 -3.73499 0
M  V30 453 H 36.9834 -6.1856 -5.20008 0
M  V30 454 H 40.5694 -4.03229 -4.19402 0
M  V30 455 H 39.4494 -6.1073 -4.91913 0
M  V30 456 N 36.9525 1.47285 -0.560781 0
M  V30 457 C 38.2015 2.01668 -0.035895 0
M  V30 458 C 38.5145 1.44021 1.32353 0
M  V30 459 O 39.7205 1.90088 1.93853 0
M  V30 460 C 38.1765 3.59897 -0.0136659 0
M  V30 461 C 37.7845 4.26536 -1.37006 0
M  V30 462 C 39.5285 4.22017 0.458425 0
M  V30 463 C 37.4355 5.76782 -1.30675 0
M  V30 464 H 36.3655 0.753938 -0.00964879 0
M  V30 465 H 39.0165 1.69243 -0.709166 0
M  V30 466 H 37.3985 3.89301 0.725325 0
M  V30 467 H 38.5725 4.0877 -2.12705 0
M  V30 468 H 36.8875 3.76419 -1.78038 0
M  V30 469 H 39.4845 5.32124 0.524247 0
M  V30 470 H 39.8275 3.89437 1.4712 0
M  V30 471 H 40.3605 3.97159 -0.225818 0
M  V30 472 H 37.0995 6.13988 -2.29564 0
M  V30 473 H 36.6195 5.96875 -0.591622 0
M  V30 474 H 38.2985 6.39063 -1.01033 0
M  V30 475 N 38.4306 0.297415 1.54768 0
M  V30 476 C 39.6786 -0.312295 1.99673 0
M  V30 477 C 39.9996 -1.54686 1.18732 0
M  V30 478 O 39.2696 -1.93854 0.282382 0
M  V30 479 H 37.8496 -0.118381 0.73756 0
M  V30 480 H 40.5116 0.407915 1.90583 0
M  V30 481 H 39.6076 -0.586813 3.06534 0
M  V30 482 N 39.9087 -1.5758 0.0250728 0
M  V30 483 C 41.1387 -1.95646 -0.663783 0
M  V30 484 C 41.5467 -0.899935 -1.66427 0
M  V30 485 O 40.8897 0.127191 -1.83259 0
M  V30 486 C 40.9517 -3.29835 -1.43 0
M  V30 487 C 40.6157 -4.53197 -0.588305 0
M  V30 488 C 41.6127 -5.19726 0.13469 0
M  V30 489 C 39.2977 -4.99529 -0.526897 0
M  V30 490 C 41.2917 -6.30902 0.90781 0
M  V30 491 C 38.9787 -6.10589 0.24993 0
M  V30 492 C 39.9767 -6.76134 0.965994 0
M  V30 493 O 39.6647 -7.85062 1.7301 0
M  V30 494 H 39.3967 -0.649282 -0.188174 0
M  V30 495 H 41.9507 -2.05245 0.0799006 0
M  V30 496 H 40.1807 -3.16716 -2.21873 0
M  V30 497 H 41.8697 -3.52833 -2.00658 0
M  V30 498 H 42.6357 -4.84904 0.0965562 0
M  V30 499 H 38.5147 -4.48319 -1.07381 0
M  V30 500 H 42.0587 -6.81995 1.46724 0
M  V30 501 H 37.9557 -6.44849 0.289795 0
M  V30 502 H 38.7237 -8.01708 1.64944 0
M  V30 503 N 41.3868 0.248026 -1.55636 0
M  V30 504 C 42.6118 0.998028 -1.81808 0
M  V30 505 C 43.0368 1.78207 -0.601979 0
M  V30 506 O 42.3948 1.75653 0.448961 0
M  V30 507 C 42.4428 1.9125 -3.05705 0
M  V30 508 O 41.5468 3.00406 -2.82542 0
M  V30 509 H 40.8878 0.284045 -0.600179 0
M  V30 510 H 43.4178 0.269357 -2.02819 0
M  V30 511 H 43.4278 2.32737 -3.35108 0
M  V30 512 H 42.1028 1.33602 -3.93857 0
M  V30 513 H 40.6798 2.63056 -2.64303 0
M  V30 514 N 42.8649 1.48995 0.513639 0
M  V30 515 C 43.7969 1.60836 1.63293 0
M  V30 516 C 44.8099 0.491701 1.55197 0
M  V30 517 O 45.9989 0.763238 1.6136 0
M  V30 518 C 43.0989 1.53731 3.02027 0
M  V30 519 C 42.2719 2.80715 3.35437 0
M  V30 520 C 41.3309 2.66837 4.53525 0
M  V30 521 O 40.3569 3.40753 4.55934 0
M  V30 522 N 41.5589 1.77539 5.52684 0
M  V30 523 H 44.3239 2.57366 1.53566 0
M  V30 524 H 41.8849 1.45925 0.701259 0
M  V30 525 H 43.8769 1.42118 3.78926 0
M  V30 526 H 42.4469 0.651092 3.05744 0
M  V30 527 H 41.6669 3.06772 2.47557 0
M  V30 528 H 42.9549 3.64927 3.54551 0
M  V30 529 H 42.3529 1.16719 5.53528 0
M  V30 530 H 40.9099 1.71856 6.28736 0
M  V30 531 N 44.343 -0.763751 1.37857 0
M  V30 532 C 45.591 -1.51957 1.33243 0
M  V30 533 C 45.912 -1.94835 -0.0801709 0
M  V30 534 O 45.182 -1.66894 -1.02582 0
M  V30 535 H 43.762 -0.563626 0.49024 0
M  V30 536 H 46.424 -0.908504 1.7243 0
M  V30 537 H 45.52 -2.41523 1.97669 0
M  V30 538 N 45.8211 -1.22559 -0.990812 0
M  V30 539 C 47.0491 -1.07779 -1.76611 0
M  V30 540 C 47.4641 0.371513 -1.85109 0
M  V30 541 O 46.8211 1.25737 -1.32274 0
M  V30 542 C 46.8721 -1.68512 -3.19822 0
M  V30 543 O 46.5931 -3.07774 -3.1178 0
M  V30 544 C 48.0941 -1.59035 -4.13791 0
M  V30 545 H 45.3141 -0.377729 -0.554583 0
M  V30 546 H 47.8581 -1.62195 -1.24551 0
M  V30 547 H 46.0131 -1.18154 -3.68942 0
M  V30 548 H 46.4271 -3.37062 -4.01858 0
M  V30 549 H 47.9011 -2.0625 -5.1202 0
M  V30 550 H 48.3781 -0.547273 -4.35777 0
M  V30 551 H 48.9841 -2.08709 -3.70568 0
M  V30 552 N 47.2992 1.18797 -1.03562 0
M  V30 553 C 48.5272 1.92599 -0.755869 0
M  V30 554 C 48.9422 1.75886 0.686271 0
M  V30 555 O 48.2992 1.08517 1.46732 0
M  V30 556 C 48.3502 3.44159 -1.10619 0
M  V30 557 O 48.0712 3.60341 -2.4917 0
M  V30 558 C 49.5722 4.3507 -0.850214 0
M  V30 559 H 46.7922 0.611587 -0.276048 0
M  V30 560 H 49.3362 1.50742 -1.38192 0
M  V30 561 H 47.4912 3.83823 -0.525194 0
M  V30 562 H 47.9052 4.54128 -2.62427 0
M  V30 563 H 49.3792 5.39989 -1.14523 0
M  V30 564 H 49.8562 4.38673 0.215176 0
M  V30 565 H 50.4622 4.01097 -1.41426 0
M  V30 566 N 48.7773 0.814389 1.34928 0
M  V30 567 C 49.7273 0.202752 2.27097 0
M  V30 568 C 50.7113 -0.62799 1.48139 0
M  V30 569 O 51.9033 -0.483969 1.70255 0
M  V30 570 C 49.0323 -0.64146 3.37254 0
M  V30 571 C 48.1183 0.19944 4.23631 0
M  V30 572 N 48.5093 1.26628 4.89693 0
M  V30 573 C 46.8073 -0.0176433 4.45997 0
M  V30 574 C 47.5083 1.78031 5.53787 0
M  V30 575 N 46.4843 1.08553 5.32651 0
M  V30 576 H 50.2863 1.01893 2.75672 0
M  V30 577 H 47.8003 0.656332 1.48546 0
M  V30 578 H 49.7973 -1.09575 4.02243 0
M  V30 579 H 48.4573 -1.4559 2.9023 0
M  V30 580 H 49.4683 1.64901 4.90946 0
M  V30 581 H 46.1453 -0.800601 4.09752 0
M  V30 582 H 47.5353 2.67236 6.16469 0
M  V30 583 N 50.2554 -1.46986 0.568584 0
M  V30 584 C 51.5014 -2.02741 0.0488709 0
M  V30 585 C 51.8344 -1.44077 -1.30214 0
M  V30 586 O 51.1094 -0.600552 -1.84996 0
M  V30 587 C 51.3924 -3.60086 -0.032047 0
M  V30 588 C 51.2454 -4.29162 1.34686 0
M  V30 589 C 52.5644 -4.33838 -0.739798 0
M  V30 590 H 49.6834 -0.736749 0.0192338 0
M  V30 591 H 52.3254 -1.75289 0.733065 0
M  V30 592 H 50.4754 -3.83606 -0.61473 0
M  V30 593 H 52.1474 -4.16948 1.97362 0
M  V30 594 H 50.3904 -3.89073 1.91846 0
M  V30 595 H 51.0614 -5.37826 1.24285 0
M  V30 596 H 53.5374 -4.15378 -0.244939 0
M  V30 597 H 52.4134 -5.43537 -0.765406 0
M  V30 598 H 52.6744 -4.03875 -1.79827 0
M  V30 599 N 51.7335 -0.305618 -1.54608 0
M  V30 600 C 52.6635 0.561482 -2.26649 0
M  V30 601 C 53.6445 1.13415 -1.26772 0
M  V30 602 O 54.8295 1.16262 -1.55553 0
M  V30 603 C 51.9595 1.73122 -3.01075 0
M  V30 604 C 50.9135 1.2887 -4.08138 0
M  V30 605 C 50.2395 2.54396 -4.70305 0
M  V30 606 C 51.5395 0.416578 -5.20636 0
M  V30 607 H 53.2335 -0.0393902 -2.99374 0
M  V30 608 H 50.7795 -0.020385 -1.43986 0
M  V30 609 H 52.7325 2.34396 -3.50195 0
M  V30 610 H 51.4565 2.3584 -2.25936 0
M  V30 611 H 50.1155 0.698991 -3.59875 0
M  V30 612 H 49.7635 3.15439 -3.918 0
M  V30 613 H 49.4635 2.25486 -5.42614 0
M  V30 614 H 50.9875 3.16464 -5.2219 0
M  V30 615 H 52.4015 0.935116 -5.65622 0
M  V30 616 H 50.7985 0.221046 -5.99693 0
M  V30 617 H 51.8685 -0.557162 -4.81688 0
M  V30 618 N 53.2116 1.57565 -0.0334293 0
M  V30 619 C 54.6276 1.56297 0.322997 0
M  V30 620 C 54.8276 1.03945 1.7262 0
M  V30 621 O 53.8836 0.688109 2.42943 0
M  V30 622 C 55.1966 3.00232 0.167664 0
M  V30 623 C 56.7446 3.12078 0.240107 0
M  V30 624 C 57.2196 4.57859 0.113513 0
M  V30 625 N 58.7106 4.62887 0.170359 0
M  V30 626 C 59.4456 5.73319 0.0962517 0
M  V30 627 N 58.9416 6.92794 -0.0291881 0
M  V30 628 N 60.7346 5.61898 0.150551 0
M  V30 629 H 52.8856 1.89923 -0.950956 0
M  V30 630 H 55.1486 0.873824 -0.367608 0
M  V30 631 H 54.8546 3.42501 -0.799102 0
M  V30 632 H 54.7286 3.654 0.936083 0
M  V30 633 H 57.1156 2.69718 1.19733 0
M  V30 634 H 57.1966 2.49623 -0.558763 0
M  V30 635 H 56.8406 5.009 -0.840314 0
M  V30 636 H 56.7706 5.18299 0.931302 0
M  V30 637 H 59.2616 3.76954 0.26728 0
M  V30 638 H 59.5746 7.7276 -0.0789252 0
M  V30 639 H 57.9196 6.94971 -0.0640299 0
M  V30 640 H 61.1106 4.67448 0.246981 0
M  V30 641 H 61.2836 6.47938 0.0893365 0
M  V30 642 N 54.6897 -0.239769 1.55765 0
M  V30 643 C 55.9367 -0.966801 1.7793 0
M  V30 644 C 56.2647 -1.85046 0.599015 0
M  V30 645 O 55.5197 -1.91197 -0.417395 0
M  V30 646 C 55.8187 -1.852 3.05672 0
M  V30 647 C 55.4847 -1.1231 4.36689 0
M  V30 648 C 54.1467 -0.921689 4.72291 0
M  V30 649 C 56.4987 -0.607019 5.17653 0
M  V30 650 C 53.8267 -0.191996 5.86386 0
M  V30 651 C 56.1787 0.109241 6.32506 0
M  V30 652 C 54.8427 0.322073 6.66723 0
M  V30 653 H 54.1127 -0.353778 0.651093 0
M  V30 654 H 56.7597 -0.23634 1.90036 0
M  V30 655 H 55.0647 -2.64975 2.8861 0
M  V30 656 H 56.7617 -2.41635 3.20021 0
M  V30 657 H 53.3517 -1.29004 4.08725 0
M  V30 658 H 57.5357 -0.750153 4.90598 0
M  V30 659 H 52.7917 -0.0166949 6.11398 0
M  V30 660 H 56.9657 0.516737 6.9448 0
M  V30 661 H 54.5927 0.88944 7.54979 0
M  V30 662 N 56.1678 -1.49265 -0.50573 0
M  V30 663 C 57.4158 -1.582 -1.25766 0
M  V30 664 C 57.7368 -0.268482 -1.93143 0
M  V30 665 O 57.0068 0.711833 -1.8251 0
M  V30 666 H 55.5868 -0.582873 -0.467191 0
M  V30 667 H 58.2488 -1.85865 -0.586525 0
M  V30 668 H 57.3448 -2.37563 -2.02412 0
M  V30 669 N 57.6459 0.756429 -1.3826 0
M  V30 670 C 58.8939 1.51248 -1.34047 0
M  V30 671 C 59.2149 1.94875 0.0698372 0
M  V30 672 O 58.4849 1.67436 1.01696 0
M  V30 673 H 57.0649 0.561018 -0.493222 0
M  V30 674 H 59.7269 0.899347 -1.7291 0
M  V30 675 H 58.8229 2.40472 -1.98947 0
M  V30 676 N 59.124 1.23083 0.984299 0
M  V30 677 C 60.373 1.05466 1.71929 0
M  V30 678 C 60.686 -0.409211 1.91272 0
M  V30 679 O 61.892 -0.705226 2.62181 0
M  V30 680 C 60.348 1.83874 3.09384 0
M  V30 681 C 59.956 3.34566 2.97943 0
M  V30 682 C 61.7 1.74734 3.8687 0
M  V30 683 C 59.607 4.05381 4.30605 0
M  V30 684 H 58.537 0.391039 0.644674 0
M  V30 685 H 61.188 1.47013 1.09815 0
M  V30 686 H 59.57 1.35131 3.72231 0
M  V30 687 H 60.744 3.90767 2.44209 0
M  V30 688 H 59.059 3.44476 2.33934 0
M  V30 689 H 61.656 2.24957 4.85076 0
M  V30 690 H 61.999 0.709372 4.10212 0
M  V30 691 H 62.532 2.21067 3.30717 0
M  V30 692 H 59.271 5.09467 4.1246 0
M  V30 693 H 58.791 3.53967 4.84218 0
M  V30 694 H 60.47 4.11458 4.99311 0
M  V30 695 N 60.6021 -1.18246 1.0419 0
M  V30 696 C 61.8491 -1.88257 0.746017 0
M  V30 697 C 62.1771 -1.80429 -0.726331 0
M  V30 698 O 61.4321 -1.2 -1.54591 0
M  V30 699 C 61.7311 -3.38082 1.15911 0
M  V30 700 C 61.3971 -3.66114 2.63195 0
M  V30 701 C 60.0591 -3.73474 3.03432 0
M  V30 702 C 62.4111 -3.78398 3.5842 0
M  V30 703 C 59.7391 -3.90599 4.37778 0
M  V30 704 C 62.0911 -3.97039 4.92487 0
M  V30 705 C 60.7551 -4.02635 5.32392 0
M  V30 706 H 60.0251 -0.688883 0.272987 0
M  V30 707 H 62.6721 -1.3995 1.30715 0
M  V30 708 H 60.9771 -3.88377 0.516806 0
M  V30 709 H 62.6741 -3.90596 0.907516 0
M  V30 710 H 59.2641 -3.61003 2.3103 0
M  V30 711 H 63.4481 -3.72042 3.28479 0
M  V30 712 H 58.7041 -3.93175 4.68213 0
M  V30 713 H 62.8781 -4.05486 5.66175 0
M  V30 714 H 60.5051 -4.15657 6.36501 0
M  V30 715 N 62.0802 -0.821533 -1.34494 0
M  V30 716 C 62.9902 -0.244355 -2.33324 0
M  V30 717 C 64.0062 0.620527 -1.62559 0
M  V30 718 O 65.1822 0.528754 -1.94335 0
M  V30 719 C 62.2472 0.585368 -3.41723 0
M  V30 720 C 61.3082 -0.301752 -4.28238 0
M  V30 721 C 60.5412 0.488466 -5.3146 0
M  V30 722 O 60.7642 1.72186 -5.4379 0
M  V30 723 O 59.6982 -0.12848 -6.01763 0
M  V30 724 H 63.5242 -1.06231 -2.84515 0
M  V30 725 H 61.1092 -0.583645 -1.37528 0
M  V30 726 H 62.9912 1.05747 -4.07916 0
M  V30 727 H 61.6662 1.38068 -2.92778 0
M  V30 728 H 60.5732 -0.821315 -3.64973 0
M  V30 729 H 61.9062 -1.06138 -4.8062 0
M  V30 730 N 63.5583 1.46682 -0.576371 0
M  V30 731 C 64.7883 2.06498 -0.0648694 0
M  V30 732 C 65.1963 1.42665 1.24271 0
M  V30 733 O 64.5393 0.523886 1.76071 0
M  V30 734 C 64.6013 3.5904 0.181816 0
M  V30 735 C 64.2653 4.45028 -1.0392 0
M  V30 736 C 65.2623 4.81959 -1.94966 0
M  V30 737 C 62.9473 4.86259 -1.25927 0
M  V30 738 C 64.9413 5.58942 -3.06371 0
M  V30 739 C 62.6283 5.63002 -2.37638 0
M  V30 740 C 63.6263 5.99257 -3.2769 0
M  V30 741 O 63.3143 6.7445 -4.37461 0
M  V30 742 H 63.0463 0.674028 -0.0515987 0
M  V30 743 H 65.6003 1.89393 -0.794951 0
M  V30 744 H 63.8303 3.74429 0.966436 0
M  V30 745 H 65.5193 4.00806 0.641047 0
M  V30 746 H 66.2853 4.50689 -1.79177 0
M  V30 747 H 62.1643 4.57494 -0.567448 0
M  V30 748 H 65.7083 5.87158 -3.76684 0
M  V30 749 H 61.6053 5.93686 -2.53392 0
M  V30 750 H 62.3733 6.92867 -4.35749 0
M  V30 751 N 65.0364 0.313813 1.54444 0
M  V30 752 C 66.2824 -0.292108 2.00685 0
M  V30 753 C 66.6154 -1.52548 1.20177 0
M  V30 754 O 65.8904 -1.92452 0.281531 0
M  V30 755 C 66.1734 -0.635968 3.5444 0
M  V30 756 C 66.0264 0.607437 4.4568 0
M  V30 757 C 67.3454 -1.45747 4.15266 0
M  V30 758 H 64.4644 -0.104697 0.729526 0
M  V30 759 H 67.1064 0.428457 1.85106 0
M  V30 760 H 65.2564 -1.24986 3.67846 0
M  V30 761 H 66.9284 1.24581 4.44159 0
M  V30 762 H 65.1714 1.23822 4.15753 0
M  V30 763 H 65.8424 0.322515 5.51057 0
M  V30 764 H 68.3184 -0.938645 4.05375 0
M  V30 765 H 67.1944 -1.66683 5.2298 0
M  V30 766 H 67.4554 -2.45063 3.67963 0
M  V30 767 N 66.5145 -1.57545 0.0417849 0
M  V30 768 C 67.4245 -2.14451 -0.951213 0
M  V30 769 C 68.4405 -1.09992 -1.34825 0
M  V30 770 O 69.6165 -1.42114 -1.42708 0
M  V30 771 C 66.6815 -2.67063 -2.21084 0
M  V30 772 C 65.7425 -3.86284 -1.87304 0
M  V30 773 C 64.9755 -4.36378 -3.07261 0
M  V30 774 O 65.1985 -3.85587 -4.20332 0
M  V30 775 O 64.1325 -5.28077 -2.88822 0
M  V30 776 H 67.9585 -2.99601 -0.497287 0
M  V30 777 H 65.5435 -1.48317 -0.179567 0
M  V30 778 H 67.4255 -3.00914 -2.95006 0
M  V30 779 H 66.1005 -1.84989 -2.65633 0
M  V30 780 H 65.0075 -3.57338 -1.10727 0
M  V30 781 H 66.3405 -4.6956 -1.47562 0
M  V30 782 N 67.9926 0.231505 -1.5589 0
M  V30 783 C 69.2176 0.978689 -1.82856 0
M  V30 784 C 69.6426 1.77559 -0.620846 0
M  V30 785 O 69.0006 1.76119 0.430305 0
M  V30 786 C 69.0486 1.87997 -3.07716 0
M  V30 787 O 68.1526 2.97393 -2.85712 0
M  V30 788 H 67.4936 0.277663 -0.603158 0
M  V30 789 H 70.0236 0.24783 -2.03093 0
M  V30 790 H 70.0336 2.2917 -3.37558 0
M  V30 791 H 68.7086 1.29417 -3.95252 0
M  V30 792 H 67.2856 2.60238 -2.67078 0
M  V30 793 N 69.4707 1.49531 0.497807 0
M  V30 794 C 70.7187 1.58865 1.24926 0
M  V30 795 C 71.0397 0.278721 1.92998 0
M  V30 796 O 70.3097 -0.702144 1.82885 0
M  V30 797 H 68.8897 0.585343 0.464094 0
M  V30 798 H 71.5517 1.86174 0.57666 0
M  V30 799 H 70.6477 2.38633 2.01149 0
M  V30 800 N 70.9488 -0.749086 1.3866 0
M  V30 801 C 72.3598 -1.32664 1.31366 0
M  V30 802 C 72.7108 -1.96179 -0.028484 0
M  V30 803 O 71.8358 -1.9537 -0.93057 0
M  V30 804 C 72.4308 -2.41219 2.37905 0
M  V30 805 C 70.9898 -2.94684 2.34176 0
M  V30 806 C 70.1368 -1.68108 2.20533 0
M  V30 807 H 73.0878 -0.547628 1.48952 0
M  V30 808 H 73.1088 -3.21268 2.0388 0
M  V30 809 H 72.6208 -1.94962 3.35576 0
M  V30 810 H 70.7218 -3.45258 1.401 0
M  V30 811 H 70.8348 -3.48757 3.2849 0
M  V30 812 H 69.1988 -1.91907 1.67463 0
M  V30 813 H 69.9818 -1.23923 3.20153 0
M  V30 814 N 72.4269 -1.23603 -0.977757 0
M  V30 815 C 73.3599 -0.962772 -2.06896 0
M  V30 816 C 74.3379 0.0998743 -1.62293 0
M  V30 817 O 75.5219 -0.0349421 -1.88468 0
M  V30 818 C 72.6489 -0.45095 -3.35685 0
M  V30 819 C 71.6949 -1.50061 -3.99229 0
M  V30 820 S 72.5279 -3.07884 -4.38142 0
M  V30 821 C 73.6839 -2.58378 -5.7008 0
M  V30 822 H 73.9169 -1.88677 -2.29757 0
M  V30 823 H 71.4499 -1.06876 -1.11431 0
M  V30 824 H 73.4079 -0.162261 -4.10179 0
M  V30 825 H 72.0689 0.452179 -3.10828 0
M  V30 826 H 71.2619 -1.09269 -4.92013 0
M  V30 827 H 70.8639 -1.73878 -3.31123 0
M  V30 828 H 73.1559 -2.00563 -6.47133 0
M  V30 829 H 74.0989 -3.49711 -6.15717 0
M  V30 830 H 74.5069 -1.99143 -5.28207 0
M  V30 831 N 73.905 1.17692 -1.04816 0
M  V30 832 C 75.153 1.87488 -0.754497 0
M  V30 833 C 75.474 1.81205 0.720407 0
M  V30 834 O 74.744 1.23544 1.52032 0
M  V30 835 H 73.324 0.694101 -0.276102 0
M  V30 836 H 75.986 1.42793 -1.32651 0
M  V30 837 H 75.082 2.93328 -1.06606 0
M  V30 838 N 75.3831 0.828654 1.34056 0
M  V30 839 C 76.3461 0.259927 2.27721 0
M  V30 840 C 77.3461 -0.565478 1.50529 0
M  V30 841 O 78.5361 -0.38075 1.69988 0
M  V30 842 C 75.6681 -0.634944 3.34935 0
M  V30 843 H 76.8611 1.0863 2.79534 0
M  V30 844 H 74.4141 0.600951 1.44285 0
M  V30 845 H 75.1491 -1.48416 2.88346 0
M  V30 846 H 74.9341 -0.0444999 3.92075 0
M  V30 847 H 76.4241 -1.02648 4.04788 0
M  V30 848 N 76.8612 -1.46375 0.584142 0
M  V30 849 C 77.7712 -2.34115 -0.150728 0
M  V30 850 C 78.7872 -1.49838 -0.884567 0
M  V30 851 O 79.9632 -1.82704 -0.847429 0
M  V30 852 C 77.0282 -3.2705 -1.15062 0
M  V30 853 C 76.0892 -4.27228 -0.421293 0
M  V30 854 C 75.3222 -5.15722 -1.37355 0
M  V30 855 O 75.5452 -5.07176 -2.61014 0
M  V30 856 O 74.4792 -5.95383 -0.883355 0
M  V30 857 H 78.3052 -2.98309 0.569708 0
M  V30 858 H 75.8902 -1.45373 0.344535 0
M  V30 859 H 77.7722 -3.84381 -1.72712 0
M  V30 860 H 76.4472 -2.65451 -1.8525 0
M  V30 861 H 75.3542 -3.7358 0.197085 0
M  V30 862 H 76.6872 -4.91616 0.239641 0
M  V30 863 N 78.3393 -0.321999 -1.54275 0
M  V30 864 C 79.2493 0.553631 -2.27974 0
M  V30 865 C 80.2653 1.13054 -1.32268 0
M  V30 866 O 81.4413 1.15084 -1.6528 0
M  V30 867 C 78.5063 1.69927 -3.02201 0
M  V30 868 C 77.5673 1.15433 -4.1349 0
M  V30 869 C 76.8003 2.24537 -4.84168 0
M  V30 870 O 77.0233 3.44852 -4.5435 0
M  V30 871 O 75.9573 1.90044 -5.7111 0
M  V30 872 H 79.7833 -0.0448345 -3.03667 0
M  V30 873 H 77.3683 -0.0877418 -1.49142 0
M  V30 874 H 79.2503 2.3663 -3.48689 0
M  V30 875 H 77.9253 2.28395 -2.29385 0
M  V30 876 H 76.8323 0.452436 -3.71354 0
M  V30 877 H 78.1653 0.614805 -4.88345 0
M  V30 878 N 79.8174 1.5752 -0.0501392 0
M  V30 879 C 80.7474 2.14502 0.922566 0
M  V30 880 C 81.7284 1.06642 1.3252 0
M  V30 881 O 82.9134 1.34577 1.4001 0
M  V30 882 C 80.0434 2.68916 2.19776 0
M  V30 883 C 78.9974 3.8175 1.93523 0
M  V30 884 C 78.3234 4.22677 3.27487 0
M  V30 885 C 79.6234 5.06932 1.25765 0
M  V30 886 H 81.3174 2.9603 0.447952 0
M  V30 887 H 78.8634 1.42401 0.214024 0
M  V30 888 H 80.8164 3.07419 2.88222 0
M  V30 889 H 79.5404 1.84578 2.69441 0
M  V30 890 H 78.1994 3.43718 1.27489 0
M  V30 891 H 77.8474 3.35291 3.74952 0
M  V30 892 H 77.5474 4.98725 3.1072 0
M  V30 893 H 79.0714 4.63779 3.97166 0
M  V30 894 H 80.4854 5.42888 1.84244 0
M  V30 895 H 78.8824 5.88116 1.19328 0
M  V30 896 H 79.9524 4.84337 0.233536 0
M  V30 897 N 81.2955 -0.223234 1.56011 0
M  V30 898 C 82.2585 -1.26014 1.9145 0
M  V30 899 C 83.2585 -1.3989 0.792937 0
M  V30 900 O 84.4485 -1.38184 1.0607 0
M  V30 901 C 81.5805 -2.63422 2.16383 0
M  V30 902 H 82.7735 -0.95796 2.84189 0
M  V30 903 H 80.3265 -0.463576 1.49267 0
M  V30 904 H 81.0615 -2.98741 1.2619 0
M  V30 905 H 80.8465 -2.54728 2.98088 0
M  V30 906 H 82.3365 -3.38249 2.44903 0
M  V30 907 N 82.7736 -1.49793 -0.48987 0
M  V30 908 C 84.0206 -1.59841 -1.24327 0
M  V30 909 C 84.3486 -0.290135 -1.92324 0
M  V30 910 O 83.6036 0.722749 -1.81865 0
M  V30 911 C 83.9026 -2.71488 -2.32441 0
M  V30 912 C 83.5686 -4.12614 -1.81826 0
M  V30 913 C 82.2306 -4.51017 -1.67742 0
M  V30 914 C 84.5826 -5.00892 -1.4407 0
M  V30 915 C 81.9106 -5.75459 -1.14297 0
M  V30 916 C 84.2626 -6.25863 -0.920742 0
M  V30 917 C 82.9266 -6.63086 -0.766383 0
M  V30 918 H 82.1966 -0.584899 -0.454944 0
M  V30 919 H 84.8436 -1.83663 -0.542215 0
M  V30 920 H 83.1486 -2.4168 -3.0838 0
M  V30 921 H 84.8456 -2.76469 -2.90458 0
M  V30 922 H 81.4356 -3.82307 -1.93751 0
M  V30 923 H 85.6196 -4.7187 -1.53794 0
M  V30 924 H 80.8756 -6.02989 -1.01068 0
M  V30 925 H 85.0496 -6.9364 -0.619448 0
M  V30 926 H 82.6766 -7.59393 -0.350083 0
M  V30 927 N 84.2517 0.741722 -1.39055 0
M  V30 928 C 85.6677 1.04638 -1.20512 0
M  V30 929 C 85.8677 2.01405 -0.0620218 0
M  V30 930 O 84.9237 2.45547 0.588457 0
M  V30 931 C 86.2367 1.6151 -2.53643 0
M  V30 932 C 87.7847 1.73623 -2.6043 0
M  V30 933 C 88.2597 2.33906 -3.93767 0
M  V30 934 N 89.7507 2.41323 -3.9537 0
M  V30 935 C 90.4857 2.88888 -4.95309 0
M  V30 936 N 89.9817 3.36401 -6.05645 0
M  V30 937 N 91.7747 2.88037 -4.82692 0
M  V30 938 H 83.9257 0.0998155 -2.12165 0
M  V30 939 H 86.1887 0.106907 -0.941953 0
M  V30 940 H 85.8947 0.978739 -3.37807 0
M  V30 941 H 85.7687 2.60411 -2.72885 0
M  V30 942 H 88.1557 2.36384 -1.76655 0
M  V30 943 H 88.2367 0.733945 -2.45045 0
M  V30 944 H 87.8807 1.71776 -4.7797 0
M  V30 945 H 87.8107 3.34799 -4.06469 0
M  V30 946 H 90.3017 2.07734 -3.15682 0
M  V30 947 H 90.6147 3.71186 -6.77821 0
M  V30 948 H 88.9597 3.34427 -6.09248 0
M  V30 949 H 92.1507 2.50237 -3.95599 0
M  V30 950 H 92.3237 3.24792 -5.60726 0
M  V30 951 N 85.7298 1.2412 0.971189 0
M  V30 952 C 86.9768 1.07881 1.71371 0
M  V30 953 C 87.3048 -0.382901 1.90694 0
M  V30 954 O 86.5598 -1.29945 1.46331 0
M  V30 955 C 86.8588 1.75983 3.11071 0
M  V30 956 C 86.5248 3.25909 3.11599 0
M  V30 957 C 85.1868 3.66813 3.11451 0
M  V30 958 C 87.5388 4.21771 3.062 0
M  V30 959 C 84.8668 5.02021 3.03631 0
M  V30 960 C 87.2188 5.56982 2.99923 0
M  V30 961 C 85.8828 5.97237 2.98102 0
M  V30 962 H 85.1528 0.394764 0.62709 0
M  V30 963 H 87.7998 1.54176 1.13587 0
M  V30 964 H 86.1048 1.22072 3.72298 0
M  V30 965 H 87.8018 1.60887 3.6731 0
M  V30 966 H 84.3918 2.93353 3.12477 0
M  V30 967 H 88.5758 3.91172 3.05447 0
M  V30 968 H 83.8318 5.32411 3.0058 0
M  V30 969 H 88.0058 6.30969 2.94704 0
M  V30 970 H 85.6328 7.01967 2.91798 0
M  V30 971 N 87.2079 -1.17134 1.05439 0
M  V30 972 C 88.1709 -2.19439 0.661764 0
M  V30 973 C 89.1709 -1.58199 -0.288042 0
M  V30 974 O 90.3609 -1.74053 -0.0715803 0
M  V30 975 C 87.4929 -3.40889 -0.0276209 0
M  V30 976 H 88.6859 -2.55688 1.56728 0
M  V30 977 H 86.2389 -1.31259 0.848567 0
M  V30 978 H 86.9739 -3.10187 -0.94629 0
M  V30 979 H 86.7589 -3.86586 0.655238 0
M  V30 980 H 88.2489 -4.16603 -0.288342 0
M  V30 981 N 88.686 -0.835752 -1.33615 0
M  V30 982 C 89.932 -0.430596 -1.98176 0
M  V30 983 C 90.265 1.00684 -1.66061 0
M  V30 984 O 89.54 1.70339 -0.938877 0
M  V30 985 C 89.823 -0.648065 -3.5422 0
M  V30 986 C 89.676 -2.13255 -3.96033 0
M  V30 987 C 90.995 -0.0922113 -4.40003 0
M  V30 988 H 88.114 -0.157924 -0.719881 0
M  V30 989 H 90.756 -1.05069 -1.58305 0
M  V30 990 H 88.906 -0.120237 -3.88314 0
M  V30 991 H 90.578 -2.725 -3.72211 0
M  V30 992 H 88.821 -2.61823 -3.45878 0
M  V30 993 H 89.492 -2.23547 -5.04708 0
M  V30 994 H 91.968 -0.543343 -4.12537 0
M  V30 995 H 90.844 -0.274083 -5.48215 0
M  V30 996 H 91.105 1.00378 -4.30554 0
M  V30 997 N 90.1641 1.46063 -0.591896 0
M  V30 998 C 91.1121 2.32124 0.148739 0
M  V30 999 C 92.1061 1.45035 0.875286 0
M  V30 1000 O 93.3121 1.61609 0.792632 0
M  V30 1001 H 89.6871 0.749024 0.066832 0
M  V30 1002 H 91.6581 2.92392 -0.595783 0
M  V30 1003 C 90.4071 3.28373 1.1431 0
M  V30 1004 H 89.7301 3.95371 0.59346 0
M  V30 1005 H 91.1701 3.91352 1.63155 0
M  V30 1006 C 89.6291 2.54393 2.20875 0
M  V30 1007 O 90.1591 2.31373 3.28374 0
M  V30 1008 N 88.3651 2.14797 1.95731 0
M  V30 1009 H 87.9121 2.33719 1.08319 0
M  V30 1010 H 87.8701 1.65619 2.67241 0
M  V30 1011 N 91.6422 0.330177 1.54103 0
M  V30 1012 C 92.8702 -0.272179 2.05102 0
M  V30 1013 C 93.2852 -1.45267 1.20595 0
M  V30 1014 O 92.6422 -1.8094 0.238144 0
M  V30 1015 C 92.6932 -0.70023 3.54653 0
M  V30 1016 O 92.4142 0.433301 4.35952 0
M  V30 1017 C 93.9152 -1.3647 4.21771 0
M  V30 1018 H 91.1352 -0.0549159 0.668749 0
M  V30 1019 H 93.6792 0.478285 1.98828 0
M  V30 1020 H 91.8342 -1.40066 3.61193 0
M  V30 1021 H 92.2482 0.0947539 5.24414 0
M  V30 1022 H 93.7222 -1.61509 5.27843 0
M  V30 1023 H 94.1992 -2.31409 3.73292 0
M  V30 1024 H 94.8052 -0.706675 4.19388 0
M  V30 1025 N 93.1203 -1.57491 0.0584922 0
M  V30 1026 C 94.3693 -1.92155 -0.613146 0
M  V30 1027 C 94.6823 -0.939334 -1.71569 0
M  V30 1028 O 95.8883 -1.17829 -2.44599 0
M  V30 1029 C 94.3443 -3.41303 -1.14195 0
M  V30 1030 C 93.9523 -4.47944 -0.0711265 0
M  V30 1031 C 95.6963 -3.84988 -1.78841 0
M  V30 1032 C 93.6033 -5.88212 -0.613225 0
M  V30 1033 H 92.5333 -0.717162 -0.232796 0
M  V30 1034 H 95.1843 -1.83049 0.12857 0
M  V30 1035 H 93.5663 -3.45437 -1.93621 0
M  V30 1036 H 94.7403 -4.55408 0.702836 0
M  V30 1037 H 93.0553 -4.13644 0.478313 0
M  V30 1038 H 95.6523 -4.87159 -2.20408 0
M  V30 1039 H 95.9953 -3.21632 -2.64308 0
M  V30 1040 H 96.5283 -3.83401 -1.06059 0
M  V30 1041 H 93.2673 -6.55183 0.203978 0
M  V30 1042 H 92.7873 -5.84294 -1.35501 0
M  V30 1043 H 94.4663 -6.37687 -1.09383 0
M  V30 1044 N 94.5984 0.214957 -1.56127 0
M  V30 1045 C 95.5464 1.28601 -1.93816 0
M  V30 1046 C 96.5404 1.48175 -0.821016 0
M  V30 1047 O 97.7464 1.49271 -1.0059 0
M  V30 1048 H 94.1214 0.431302 -0.616022 0
M  V30 1049 H 96.0924 0.940991 -2.83175 0
M  V30 1050 C 94.8414 2.62779 -2.27689 0
M  V30 1051 H 94.1644 2.48527 -3.13168 0
M  V30 1052 H 95.6044 3.36517 -2.57939 0
M  V30 1053 C 94.0634 3.18285 -1.10436 0
M  V30 1054 O 94.5934 4.00002 -0.368945 0
M  V30 1055 N 92.7994 2.7675 -0.886433 0
M  V30 1056 H 92.3464 2.10404 -1.48619 0
M  V30 1057 H 92.3044 3.14229 -0.103656 0
M  V30 1058 N 96.0765 1.50051 0.48192 0
M  V30 1059 C 97.4925 1.37237 0.814756 0
M  V30 1060 C 97.6925 0.420109 1.97072 0
M  V30 1061 O 96.7485 -0.141246 2.52105 0
M  V30 1062 C 98.0615 2.78375 1.13701 0
M  V30 1063 C 99.6095 2.87213 1.2441 0
M  V30 1064 C 100.084 4.29161 1.59954 0
M  V30 1065 N 101.575 4.32061 1.66967 0
M  V30 1066 C 102.31 5.38879 1.95952 0
M  V30 1067 N 101.806 6.55918 2.23031 0
M  V30 1068 N 103.599 5.26312 1.97363 0
M  V30 1069 H 95.7505 2.10546 -0.28005 0
M  V30 1070 H 98.0135 0.945921 -0.0627454 0
M  V30 1071 H 97.7195 3.49845 0.360787 0
M  V30 1072 H 97.5935 3.14941 2.07586 0
M  V30 1073 H 99.9805 2.15969 2.01101 0
M  V30 1074 H 100.061 2.54204 0.285299 0
M  V30 1075 H 99.7055 5.00938 0.838067 0
M  V30 1076 H 99.6355 4.59648 2.56966 0
M  V30 1077 H 102.126 3.47661 1.48123 0
M  V30 1078 H 102.439 7.33139 2.44391 0
M  V30 1079 H 100.784 6.59112 2.20447 0
M  V30 1080 H 103.975 4.33876 1.75697 0
M  V30 1081 H 104.148 6.09649 2.19618 0
M  V30 1082 N 97.5546 -0.734337 1.39446 0
M  V30 1083 C 98.5026 -1.86971 1.38364 0
M  V30 1084 C 99.4966 -1.67288 0.266687 0
M  V30 1085 O 100.703 -1.74621 0.436755 0
M  V30 1086 H 97.0776 -0.615474 0.432082 0
M  V30 1087 H 99.0486 -1.85 2.34132 0
M  V30 1088 C 97.7976 -3.2466 1.24465 0
M  V30 1089 H 97.1206 -3.40402 2.09682 0
M  V30 1090 H 98.5606 -4.04292 1.27764 0
M  V30 1091 C 97.0196 -3.36867 -0.0468674 0
M  V30 1092 O 97.5496 -3.88618 -1.01681 0
M  V30 1093 N 95.7556 -2.90391 -0.110145 0
M  V30 1094 H 95.3026 -2.48466 0.679868 0
M  V30 1095 H 95.2606 -2.98939 -0.973799 0
M  V30 1096 N 99.0327 -1.24633 -0.964593 0
M  V30 1097 C 100.449 -1.01239 -1.2338 0
M  V30 1098 C 100.649 0.2769 -1.99588 0
M  V30 1099 O 99.7047 0.992241 -2.32187 0
M  V30 1100 C 101.018 -2.22937 -2.01791 0
M  V30 1101 C 102.566 -2.27594 -2.14872 0
M  V30 1102 C 103.041 -3.48921 -2.96678 0
M  V30 1103 N 104.532 -3.49257 -3.04259 0
M  V30 1104 C 105.267 -4.39795 -3.67924 0
M  V30 1105 N 104.763 -5.40591 -4.33281 0
M  V30 1106 N 106.556 -4.275 -3.64966 0
M  V30 1107 H 98.7067 -2.0748 -0.454502 0
M  V30 1108 H 100.97 -0.910647 -0.26349 0
M  V30 1109 H 100.676 -3.16587 -1.53184 0
M  V30 1110 H 100.55 -2.25306 -3.02518 0
M  V30 1111 H 102.937 -1.34473 -2.6268 0
M  V30 1112 H 103.018 -2.2925 -1.13482 0
M  V30 1113 H 102.662 -4.42359 -2.49562 0
M  V30 1114 H 102.592 -3.4451 -3.98272 0
M  V30 1115 H 105.083 -2.76337 -2.57771 0
M  V30 1116 H 105.396 -6.05904 -4.79687 0
M  V30 1117 H 103.741 -5.44475 -4.3194 0
M  V30 1118 H 106.932 -3.47987 -3.13086 0
M  V30 1119 H 107.105 -4.98258 -4.14298 0
M  V30 1120 N 100.511 1.16574 -1.06058 0
M  V30 1121 C 101.739 1.90952 -0.796552 0
M  V30 1122 C 102.154 1.77302 0.648808 0
M  V30 1123 O 101.511 1.11605 1.44397 0
M  V30 1124 C 101.562 3.41736 -1.17894 0
M  V30 1125 O 101.283 3.54975 -2.56758 0
M  V30 1126 C 102.784 4.33169 -0.942308 0
M  V30 1127 H 100.004 0.605594 -0.288959 0
M  V30 1128 H 102.548 1.47777 -1.41358 0
M  V30 1129 H 100.703 3.82623 -0.606491 0
M  V30 1130 H 101.117 4.4846 -2.72 0
M  V30 1131 H 102.591 5.37439 -1.25952 0
M  V30 1132 H 103.068 4.3903 0.122078 0
M  V30 1133 H 103.674 3.98007 -1.49902 0
M  V30 1134 N 101.989 0.842826 1.3317 0
M  V30 1135 C 102.919 0.294028 2.31641 0
M  V30 1136 C 103.9 -0.600401 1.59151 0
M  V30 1137 O 105.085 -0.523124 1.87022 0
M  V30 1138 C 102.215 -0.528416 3.43257 0
M  V30 1139 C 101.169 0.27056 4.27144 0
M  V30 1140 C 100.495 -0.675881 5.30411 0
M  V30 1141 C 101.795 1.48981 5.00602 0
M  V30 1142 H 103.489 1.11681 2.77791 0
M  V30 1143 H 101.035 0.538478 1.33553 0
M  V30 1144 H 102.988 -0.922674 4.11175 0
M  V30 1145 H 101.712 -1.38445 2.95805 0
M  V30 1146 H 100.371 0.646427 3.60856 0
M  V30 1147 H 100.019 -1.52842 4.79216 0
M  V30 1148 H 99.7189 -0.145374 5.8742 0
M  V30 1149 H 101.243 -1.06757 6.01195 0
M  V30 1150 H 102.657 1.16849 5.61266 0
M  V30 1151 H 101.054 1.95739 5.6728 0
M  V30 1152 H 102.124 2.25746 4.29147 0
M  V30 1153 N 103.467 -1.45747 0.599634 0
M  V30 1154 C 104.397 -2.33235 -0.111306 0
M  V30 1155 C 105.378 -1.46359 -0.866781 0
M  V30 1156 O 106.563 -1.75146 -0.838904 0
M  V30 1157 C 103.693 -3.28932 -1.11451 0
M  V30 1158 C 102.647 -4.25381 -0.472772 0
M  V30 1159 C 101.973 -5.1071 -1.58365 0
M  V30 1160 C 103.273 -5.18831 0.600948 0
M  V30 1161 H 104.967 -2.92927 0.61919 0
M  V30 1162 H 102.513 -1.40857 0.299215 0
M  V30 1163 H 104.466 -3.89002 -1.62036 0
M  V30 1164 H 103.19 -2.67381 -1.8755 0
M  V30 1165 H 101.849 -3.66598 0.0121472 0
M  V30 1166 H 101.497 -4.45533 -2.33473 0
M  V30 1167 H 101.197 -5.7604 -1.15982 0
M  V30 1168 H 102.721 -5.73647 -2.09194 0
M  V30 1169 H 104.135 -5.73019 0.179491 0
M  V30 1170 H 102.532 -5.92595 0.946076 0
M  V30 1171 H 103.602 -4.6174 1.48068 0
M  V30 1172 N 104.945 -0.338344 -1.53925 0
M  V30 1173 C 106.356 0.146651 -1.86123 0
M  V30 1174 C 106.707 1.5042 -1.2597 0
M  V30 1175 O 105.832 2.08723 -0.571294 0
M  V30 1176 C 106.427 0.272879 -3.37699 0
M  V30 1177 C 104.986 0.702103 -3.69794 0
M  V30 1178 C 104.133 -0.167304 -2.76795 0
M  V30 1179 H 107.084 -0.558123 -1.48562 0
M  V30 1180 H 107.105 1.10128 -3.64214 0
M  V30 1181 H 106.617 -0.715307 -3.81451 0
M  V30 1182 H 104.718 1.6995 -3.31584 0
M  V30 1183 H 104.831 0.495604 -4.7653 0
M  V30 1184 H 103.195 0.359527 -2.5215 0
M  V30 1185 H 103.978 -1.15253 -3.23375 0
M  V30 1186 N 106.423 1.57458 -0.0668435 0
M  V30 1187 C 107.371 2.13639 0.919851 0
M  V30 1188 C 108.365 1.07204 1.31163 0
M  V30 1189 O 109.571 1.25591 1.28945 0
M  V30 1190 H 105.946 0.683048 0.314562 0
M  V30 1191 H 107.917 2.95415 0.421047 0
M  V30 1192 C 106.666 2.70892 2.17975 0
M  V30 1193 H 105.989 3.5246 1.88711 0
M  V30 1194 H 107.429 3.13803 2.85138 0
M  V30 1195 C 105.888 1.65414 2.93496 0
M  V30 1196 O 106.418 1.07619 3.87015 0
M  V30 1197 N 104.624 1.36564 2.56512 0
M  V30 1198 H 104.171 1.83751 1.80536 0
M  V30 1199 H 104.129 0.66223 3.07347 0
M  V30 1200 N 107.901 -0.206675 1.56239 0
M  V30 1201 C 109.129 -0.945345 1.8404 0
M  V30 1202 C 109.544 -1.77336 0.647885 0
M  V30 1203 O 108.901 -1.78425 -0.383511 0
M  V30 1204 C 108.952 -1.8509 3.10522 0
M  V30 1205 O 108.673 -1.05634 4.25174 0
M  V30 1206 C 110.174 -2.70222 3.51418 0
M  V30 1207 H 107.394 -0.276372 0.61144 0
M  V30 1208 H 109.938 -0.217417 2.03341 0
M  V30 1209 H 108.093 -2.53259 2.93153 0
M  V30 1210 H 108.507 -1.67238 4.97124 0
M  V30 1211 H 109.981 -3.29438 4.42916 0
M  V30 1212 H 110.458 -3.43358 2.73864 0
M  V30 1213 H 111.064 -2.07443 3.71278 0
M  V30 1214 N 109.379 -1.50304 -0.473955 0
M  V30 1215 C 110.607 -1.64902 -1.24959 0
M  V30 1216 C 111.022 -0.331198 -1.85872 0
M  V30 1217 O 110.379 0.68652 -1.69095 0
M  V30 1218 C 110.43 -2.73803 -2.36038 0
M  V30 1219 O 110.151 -4.00477 -1.77624 0
M  V30 1220 C 111.652 -2.99349 -3.26964 0
M  V30 1221 H 108.872 -0.554383 -0.378022 0
M  V30 1222 H 111.416 -1.9651 -0.566054 0
M  V30 1223 H 109.571 -2.44898 -3.00173 0
M  V30 1224 H 109.985 -4.60678 -2.5075 0
M  V30 1225 H 111.459 -3.79217 -4.01121 0
M  V30 1226 H 111.936 -2.10307 -3.85574 0
M  V30 1227 H 112.542 -3.29774 -2.68569 0
M  V30 1228 N 110.857 0.726932 -1.39834 0
M  V30 1229 C 111.787 1.85405 -1.41941 0
M  V30 1230 C 112.768 1.67751 -0.281728 0
M  V30 1231 O 113.953 1.8795 -0.488717 0
M  V30 1232 C 111.083 3.23243 -1.2701 0
M  V30 1233 C 110.037 3.55549 -2.38262 0
M  V30 1234 C 109.363 4.9241 -2.08415 0
M  V30 1235 C 110.663 3.577 -3.80589 0
M  V30 1236 H 112.357 1.83899 -2.36266 0
M  V30 1237 H 109.903 0.883349 -1.13723 0
M  V30 1238 H 111.856 4.01775 -1.27103 0
M  V30 1239 H 110.58 3.25296 -0.291564 0
M  V30 1240 H 109.239 2.79351 -2.37399 0
M  V30 1241 H 108.887 4.91052 -1.0898 0
M  V30 1242 H 108.587 5.14992 -2.82943 0
M  V30 1243 H 110.111 5.73289 -2.10171 0
M  V30 1244 H 111.525 4.26293 -3.83337 0
M  V30 1245 H 109.922 3.91804 -4.54543 0
M  V30 1246 H 110.992 2.57328 -4.10987 0
M  V30 1247 N 112.336 1.25143 0.95797 0
M  V30 1248 C 113.564 1.12424 1.73691 0
M  V30 1249 C 113.979 -0.322304 1.86029 0
M  V30 1250 O 113.336 -1.22186 1.35561 0
M  V30 1251 C 113.387 1.76933 3.15241 0
M  V30 1252 O 113.108 3.15932 3.03511 0
M  V30 1253 C 114.609 1.6995 4.09429 0
M  V30 1254 H 111.829 0.3923 0.544373 0
M  V30 1255 H 114.373 1.6544 1.20207 0
M  V30 1256 H 112.528 1.27895 3.6568 0
M  V30 1257 H 112.942 3.47598 3.9278 0
M  V30 1258 H 114.416 2.19753 5.06372 0
M  V30 1259 H 114.893 0.662619 4.34173 0
M  V30 1260 H 115.499 2.18461 3.64904 0
M  V30 1261 N 113.814 -1.1601 1.06675 0
M  V30 1262 C 115.044 -1.90251 0.805497 0
M  V30 1263 C 115.452 -1.77891 -0.64431 0
M  V30 1264 O 114.795 -1.12383 -1.45313 0
M  V30 1265 C 114.857 -3.41419 1.12576 0
M  V30 1266 C 114.521 -3.77564 2.57477 0
M  V30 1267 C 115.518 -3.79161 3.55715 0
M  V30 1268 C 113.203 -4.08079 2.92877 0
M  V30 1269 C 115.197 -4.10767 4.8739 0
M  V30 1270 C 112.884 -4.39351 4.24751 0
M  V30 1271 C 113.882 -4.40675 5.21818 0
M  V30 1272 O 113.57 -4.71202 6.51325 0
M  V30 1273 H 113.302 -0.610018 0.291297 0
M  V30 1274 H 115.856 -1.47958 1.4247 0
M  V30 1275 H 114.086 -3.84079 0.449503 0
M  V30 1276 H 115.775 -3.9694 0.84814 0
M  V30 1277 H 116.541 -3.55693 3.29708 0
M  V30 1278 H 112.42 -4.06211 2.17976 0
M  V30 1279 H 115.964 -4.11715 5.63148 0
M  V30 1280 H 111.861 -4.62285 4.50514 0
M  V30 1281 H 112.629 -4.88996 6.56373 0
M  V30 1282 N 115.292 -0.849877 -1.32721 0
M  V30 1283 C 116.569 -0.372405 -1.92022 0
M  V30 1284 C 116.949 1.1435 -1.77447 0
M  V30 1285 O 116.297 1.96296 -1.16962 0
M  V30 1286 C 116.507 -0.831482 -3.3895 0
M  V30 1287 C 117.855 -0.845882 -4.16089 0
M  V30 1288 O 118.879 -0.775806 -3.47649 0
M  V30 1289 O 117.738 -0.943753 -5.38289 0
M  V30 1290 H 114.832 -0.107667 -0.819961 0
M  V30 1291 H 117.378 -0.93646 -1.41522 0
M  V30 1292 H 116.15 -1.87448 -3.4348 0
M  V30 1293 H 115.773 -0.24461 -3.96847 0
M  V30 1294 N 116.77 1.45427 -0.607355 0
M  V30 1295 C 117.998 2.06614 -0.108814 0
M  V30 1296 C 118.413 1.45204 1.2067 0
M  V30 1297 O 117.77 0.566132 1.73497 0
M  V30 1298 C 117.821 3.61481 0.0375347 0
M  V30 1299 O 117.542 4.20598 -1.22593 0
M  V30 1300 C 119.043 4.39652 0.567561 0
M  V30 1301 H 116.263 0.66747 -0.0687351 0
M  V30 1302 H 118.807 1.86675 -0.835022 0
M  V30 1303 H 116.962 3.80762 0.714068 0
M  V30 1304 H 117.376 5.1377 -1.05547 0
M  V30 1305 H 118.85 5.48518 0.61905 0
M  V30 1306 H 119.327 4.09417 1.58978 0
M  V30 1307 H 119.933 4.25234 -0.0749202 0
M  V30 1308 N 118.248 0.346503 1.53744 0
M  V30 1309 C 119.18 -0.543316 2.22667 0
M  V30 1310 C 120.193 -1.06159 1.23427 0
M  V30 1311 O 121.382 -0.971235 1.49764 0
M  V30 1312 C 118.482 -1.76076 2.89569 0
M  V30 1313 C 117.655 -1.37727 4.15151 0
M  V30 1314 C 116.714 -2.45471 4.65436 0
M  V30 1315 O 115.74 -2.08655 5.29577 0
M  V30 1316 N 116.942 -3.7677 4.41616 0
M  V30 1317 H 119.707 0.0469703 2.99663 0
M  V30 1318 H 117.268 0.170766 1.60997 0
M  V30 1319 H 119.26 -2.47593 3.20125 0
M  V30 1320 H 117.83 -2.25835 2.16142 0
M  V30 1321 H 117.05 -0.492746 3.91108 0
M  V30 1322 H 118.338 -1.09708 4.96832 0
M  V30 1323 H 117.736 -4.09467 3.90325 0
M  V30 1324 H 116.293 -4.44448 4.7677 0
M  V30 1325 N 119.726 -1.57421 0.075193 0
M  V30 1326 C 120.673 -2.12915 -0.890843 0
M  V30 1327 C 121.643 -1.04252 -1.29309 0
M  V30 1328 O 122.828 -1.31933 -1.37834 0
M  V30 1329 C 119.968 -2.69795 -2.15186 0
M  V30 1330 C 119.081 -3.92624 -1.80194 0
M  V30 1331 C 118.216 -4.37736 -3.00933 0
M  V30 1332 C 117.255 -5.53205 -2.61974 0
M  V30 1333 N 116.392 -5.9326 -3.75483 0
M  V30 1334 H 121.232 -2.95156 -0.410735 0
M  V30 1335 H 118.769 -1.45854 -0.191086 0
M  V30 1336 H 120.727 -3.00883 -2.89008 0
M  V30 1337 H 119.357 -1.90313 -2.60731 0
M  V30 1338 H 118.409 -3.67977 -0.964218 0
M  V30 1339 H 119.721 -4.76482 -1.47534 0
M  V30 1340 H 118.875 -4.70503 -3.8303 0
M  V30 1341 H 117.614 -3.52739 -3.36789 0
M  V30 1342 H 116.619 -5.20086 -1.783 0
M  V30 1343 H 117.844 -6.39936 -2.27284 0
M  V30 1344 H 115.79 -5.11212 -4.11094 0
M  V30 1345 H 115.707 -6.71865 -3.46602 0
M  V30 1346 H 116.975 -6.30651 -4.58148 0
M  V30 1347 N 121.204 0.198386 -1.56346 0
M  V30 1348 C 122.453 0.917451 -1.79627 0
M  V30 1349 C 122.766 1.8456 -0.64784 0
M  V30 1350 O 123.972 2.60504 -0.764859 0
M  V30 1351 C 122.428 1.68175 -3.18191 0
M  V30 1352 C 122.036 0.798589 -4.40825 0
M  V30 1353 C 123.78 2.39065 -3.50782 0
M  V30 1354 C 121.687 1.56157 -5.70411 0
M  V30 1355 H 120.617 0.346317 -0.669762 0
M  V30 1356 H 123.268 0.170801 -1.82703 0
M  V30 1357 H 121.65 2.47216 -3.09354 0
M  V30 1358 H 122.824 0.0470665 -4.60776 0
M  V30 1359 H 121.139 0.200686 -4.15916 0
M  V30 1360 H 123.736 2.96692 -4.44835 0
M  V30 1361 H 124.079 3.13091 -2.74371 0
M  V30 1362 H 124.612 1.66993 -3.61052 0
M  V30 1363 H 121.351 0.864142 -6.49779 0
M  V30 1364 H 120.871 2.2871 -5.54483 0
M  V30 1365 H 122.55 2.11622 -6.11412 0
M  V30 1366 N 122.682 1.50554 0.465978 0
M  V30 1367 C 123.63 1.70324 1.58406 0
M  V30 1368 C 124.624 0.569139 1.59553 0
M  V30 1369 O 125.83 0.749776 1.63641 0
M  V30 1370 H 122.205 0.537688 0.525734 0
M  V30 1371 H 124.176 2.64104 1.38894 0
M  V30 1372 C 122.925 1.81928 2.96307 0
M  V30 1373 H 122.248 2.68586 2.96144 0
M  V30 1374 H 123.688 1.99784 3.73982 0
M  V30 1375 C 122.147 0.572095 3.32007 0
M  V30 1376 O 122.677 -0.286416 4.00678 0
M  V30 1377 N 120.883 0.424606 2.87481 0
M  V30 1378 H 120.43 1.12427 2.31771 0
M  V30 1379 H 120.388 -0.408697 3.11732 0
M  V30 1380 N 124.16 -0.719506 1.40217 0
M  V30 1381 C 125.09 -1.8465 1.42922 0
M  V30 1382 C 126.071 -1.67599 0.29062 0
M  V30 1383 O 127.256 -1.87688 0.498677 0
M  V30 1384 C 124.386 -3.22565 1.28722 0
M  V30 1385 C 123.34 -3.54281 2.40144 0
M  V30 1386 C 122.666 -4.91298 2.11023 0
M  V30 1387 C 123.966 -3.55676 3.82481 0
M  V30 1388 H 125.66 -1.82644 2.37237 0
M  V30 1389 H 123.206 -0.877305 1.1419 0
M  V30 1390 H 125.159 -4.01095 1.29232 0
M  V30 1391 H 123.883 -3.25137 0.308811 0
M  V30 1392 H 122.542 -2.78088 2.38877 0
M  V30 1393 H 122.19 -4.90468 1.11582 0
M  V30 1394 H 121.89 -5.13485 2.8567 0
M  V30 1395 H 123.414 -5.72166 2.13209 0
M  V30 1396 H 124.828 -4.24254 3.85592 0
M  V30 1397 H 123.225 -3.89388 4.56614 0
M  V30 1398 H 124.295 -2.55144 4.12346 0
M  V30 1399 N 125.638 -1.25649 -0.95132 0
M  V30 1400 C 126.868 -1.13179 -1.72841 0
M  V30 1401 C 127.276 0.316827 -1.86528 0
M  V30 1402 O 126.619 1.22948 -1.3649 0
M  V30 1403 C 126.681 -1.71644 -3.15878 0
M  V30 1404 C 126.345 -3.20667 -3.25609 0
M  V30 1405 C 127.342 -4.17616 -3.09666 0
M  V30 1406 C 125.027 -3.6094 -3.49324 0
M  V30 1407 C 127.021 -5.52817 -3.17289 0
M  V30 1408 C 124.708 -4.96278 -3.56584 0
M  V30 1409 C 125.706 -5.92025 -3.40581 0
M  V30 1410 O 125.394 -7.24899 -3.47528 0
M  V30 1411 H 125.126 -0.395389 -0.54831 0
M  V30 1412 H 127.68 -1.66566 -1.20187 0
M  V30 1413 H 125.91 -1.12707 -3.69911 0
M  V30 1414 H 127.599 -1.54225 -3.75459 0
M  V30 1415 H 128.365 -3.87842 -2.91211 0
M  V30 1416 H 124.244 -2.86907 -3.6084 0
M  V30 1417 H 127.788 -6.2753 -3.04716 0
M  V30 1418 H 123.685 -5.25716 -3.74556 0
M  V30 1419 H 124.453 -7.33039 -3.64138 0
M  V30 1420 N 127.117 1.15442 -1.07289 0
M  V30 1421 C 128.394 1.82306 -0.708792 0
M  V30 1422 C 128.774 1.94991 0.808807 0
M  V30 1423 O 128.122 1.50085 1.72298 0
M  V30 1424 C 128.332 3.18695 -1.42247 0
M  V30 1425 C 129.68 3.94341 -1.57417 0
M  V30 1426 O 130.704 3.28247 -1.38319 0
M  V30 1427 O 129.563 5.12839 -1.88834 0
M  V30 1428 H 126.657 0.787628 -0.252132 0
M  V30 1429 H 129.203 1.22559 -1.17377 0
M  V30 1430 H 127.975 3.04557 -2.45684 0
M  V30 1431 H 127.598 3.86128 -0.948223 0
M  V30 1432 N 128.595 0.856903 1.32268 0
M  V30 1433 C 129.82 0.474569 2.01897 0
M  V30 1434 C 130.245 -0.921766 1.63967 0
M  V30 1435 O 129.603 -1.60589 0.84148 0
M  V30 1436 C 129.651 0.623799 3.55164 0
M  V30 1437 O 128.755 -0.342459 4.10976 0
M  V30 1438 H 128.096 0.190422 0.63611 0
M  V30 1439 H 130.626 1.15672 1.68764 0
M  V30 1440 H 130.636 0.512169 4.04773 0
M  V30 1441 H 129.311 1.64202 3.82113 0
M  V30 1442 H 127.888 -0.18688 3.72431 0
M  V30 1443 N 130.073 -1.45103 0.615059 0
M  V30 1444 C 131.32 -2.02183 0.113179 0
M  V30 1445 C 131.648 -1.48249 -1.25906 0
M  V30 1446 O 130.903 -0.650265 -1.84581 0
M  V30 1447 C 131.202 -3.57386 0.0318797 0
M  V30 1448 C 130.868 -4.30505 1.34077 0
M  V30 1449 C 129.53 -4.50197 1.69929 0
M  V30 1450 C 131.882 -4.72238 2.20546 0
M  V30 1451 C 129.21 -5.08881 2.91988 0
M  V30 1452 C 131.562 -5.32272 3.41861 0
M  V30 1453 C 130.226 -5.50187 3.77956 0
M  V30 1454 H 129.496 -0.739842 0.0414151 0
M  V30 1455 H 132.143 -1.74073 0.798168 0
M  V30 1456 H 130.448 -3.84817 -0.736409 0
M  V30 1457 H 132.145 -3.99264 -0.372712 0
M  V30 1458 H 128.735 -4.15496 1.05173 0
M  V30 1459 H 132.919 -4.56751 1.94146 0
M  V30 1460 H 128.175 -5.20939 3.2005 0
M  V30 1461 H 132.349 -5.63563 4.09109 0
M  V30 1462 H 129.976 -5.95427 4.72622 0
M  V30 1463 N 131.551 -0.354651 -1.53558 0
M  V30 1464 C 132.461 0.50515 -2.29097 0
M  V30 1465 C 133.477 1.10223 -1.34636 0
M  V30 1466 O 134.653 1.11553 -1.67684 0
M  V30 1467 C 131.718 1.63479 -3.05738 0
M  V30 1468 C 130.779 1.06636 -4.15845 0
M  V30 1469 C 130.012 2.14217 -4.88822 0
M  V30 1470 O 130.235 3.35137 -4.61562 0
M  V30 1471 O 129.169 1.77887 -5.75013 0
M  V30 1472 H 132.995 -0.109237 -3.03503 0
M  V30 1473 H 130.58 -0.119357 -1.48922 0
M  V30 1474 H 132.462 2.2918 -3.5363 0
M  V30 1475 H 131.137 2.23478 -2.34178 0
M  V30 1476 H 130.044 0.373565 -3.7223 0
M  V30 1477 H 131.377 0.511081 -4.89539 0
M  V30 1478 N 133.029 1.57378 -0.0835403 0
M  V30 1479 C 133.992 2.12252 0.864959 0
M  V30 1480 C 134.992 1.04916 1.21858 0
M  V30 1481 O 136.182 1.30853 1.14991 0
M  V30 1482 C 133.314 2.63358 2.16461 0
M  V30 1483 H 134.507 2.97371 0.388676 0
M  V30 1484 H 132.06 1.55423 0.165317 0
M  V30 1485 H 132.795 1.81727 2.686 0
M  V30 1486 H 132.58 3.41826 1.92087 0
M  V30 1487 H 134.07 3.05847 2.84337 0
M  V30 1488 N 134.507 -0.190092 1.56449 0
M  V30 1489 C 135.732 -0.929864 1.85387 0
M  V30 1490 C 136.157 -1.7585 0.667704 0
M  V30 1491 O 135.515 -1.77198 -0.383459 0
M  V30 1492 C 135.563 -1.79773 3.12593 0
M  V30 1493 O 134.667 -2.89713 2.93496 0
M  V30 1494 H 134.008 -0.261574 0.610307 0
M  V30 1495 H 136.538 -0.193896 2.03679 0
M  V30 1496 H 136.548 -2.20139 3.43515 0
M  V30 1497 H 135.223 -1.18892 3.98544 0
M  V30 1498 H 133.8 -2.53065 2.73884 0
M  V30 1499 N 135.985 -1.50799 -0.457987 0
M  V30 1500 C 136.932 -1.70617 -1.5543 0
M  V30 1501 C 137.902 -0.547562 -1.56815 0
M  V30 1502 O 139.087 -0.779647 -1.74144 0
M  V30 1503 C 136.227 -1.81831 -2.93311 0
M  V30 1504 C 135.34 -3.09278 -3.01615 0
M  V30 1505 C 134.475 -3.11209 -4.30491 0
M  V30 1506 C 133.514 -4.33055 -4.32585 0
M  V30 1507 N 132.651 -4.32652 -5.52952 0
M  V30 1508 H 137.491 -2.64207 -1.37836 0
M  V30 1509 H 135.028 -1.30959 -0.669937 0
M  V30 1510 H 136.986 -1.86314 -3.73287 0
M  V30 1511 H 135.616 -0.916685 -3.0951 0
M  V30 1512 H 134.668 -3.14203 -2.1443 0
M  V30 1513 H 135.98 -3.99233 -2.99022 0
M  V30 1514 H 135.134 -3.14494 -5.18824 0
M  V30 1515 H 133.873 -2.19106 -4.35711 0
M  V30 1516 H 132.878 -4.29969 -3.42647 0
M  V30 1517 H 134.103 -5.264 -4.29046 0
M  V30 1518 H 132.049 -3.43409 -5.58933 0
M  V30 1519 H 131.966 -5.16392 -5.52155 0
M  V30 1520 H 133.234 -4.40101 -6.43375 0
M  V30 1521 N 137.463 0.71206 -1.40597 0
M  V30 1522 C 138.41 1.82613 -1.41142 0
M  V30 1523 C 139.38 1.63925 -0.267903 0
M  V30 1524 O 140.565 1.85009 -0.466495 0
M  V30 1525 C 137.705 3.20354 -1.28324 0
M  V30 1526 C 136.818 3.50589 -2.52411 0
M  V30 1527 C 135.953 4.77855 -2.32009 0
M  V30 1528 C 134.992 5.01005 -3.51654 0
M  V30 1529 N 134.129 6.19487 -3.30425 0
M  V30 1530 H 138.969 1.81482 -2.36365 0
M  V30 1531 H 136.506 0.886475 -1.17388 0
M  V30 1532 H 138.464 3.99899 -1.18899 0
M  V30 1533 H 137.094 3.20705 -0.367189 0
M  V30 1534 H 136.146 2.65573 -2.72351 0
M  V30 1535 H 137.458 3.63604 -3.41458 0
M  V30 1536 H 136.612 5.65424 -2.19956 0
M  V30 1537 H 135.351 4.67056 -1.40392 0
M  V30 1538 H 134.356 4.1189 -3.64179 0
M  V30 1539 H 135.581 5.13674 -4.44202 0
M  V30 1540 H 133.527 6.09932 -2.41494 0
M  V30 1541 H 133.444 6.33194 -4.13039 0
M  V30 1542 H 134.712 7.09834 -3.22113 0
M  V30 1543 N 138.941 1.26152 0.944643 0
M  V30 1544 C 139.904 1.07474 2.0244 0
M  V30 1545 C 140.904 0.0242064 1.60782 0
M  V30 1546 O 142.094 0.267302 1.72137 0
M  V30 1547 C 139.226 0.633956 3.34953 0
M  V30 1548 H 140.419 2.03336 2.20442 0
M  V30 1549 H 137.972 1.087 1.12312 0
M  V30 1550 H 138.707 -0.326811 3.22649 0
M  V30 1551 H 138.492 1.39247 3.66542 0
M  V30 1552 H 139.982 0.52501 4.14287 0
M  V30 1553 N 140.419 -1.14872 1.07899 0
M  V30 1554 C 141.659 -1.8745 0.814965 0
M  V30 1555 C 142.023 -1.80758 -0.64733 0
M  V30 1556 O 143.224 -2.48422 -1.02664 0
M  V30 1557 C 141.495 -3.32286 1.31607 0
M  V30 1558 S 143.054 -4.22537 1.18357 0
M  V30 1559 H 139.872 -0.646833 0.295174 0
M  V30 1560 H 142.474 -1.38555 1.37923 0
M  V30 1561 H 141.178 -3.34703 2.37491 0
M  V30 1562 H 140.709 -3.86238 0.747261 0
M  V30 1563 H 142.724 -4.96044 0.124586 0
M  V30 1564 N 141.898 -0.863906 -1.31812 0
M  V30 1565 C 143.175 -0.39275 -1.91616 0
M  V30 1566 C 143.555 1.12461 -1.7865 0
M  V30 1567 O 142.903 1.95045 -1.19037 0
M  V30 1568 C 143.113 -0.867385 -3.38049 0
M  V30 1569 C 144.461 -0.889966 -4.15168 0
M  V30 1570 O 145.485 -0.812635 -3.46806 0
M  V30 1571 O 144.344 -1.00079 -5.37258 0
M  V30 1572 H 141.438 -0.116358 -0.818773 0
M  V30 1573 H 143.984 -0.951418 -1.40521 0
M  V30 1574 H 142.756 -1.91081 -3.41473 0
M  V30 1575 H 142.379 -0.286687 -3.96565 0
M  V30 1576 N 143.376 1.44774 -0.622745 0
M  V30 1577 C 144.308 2.28856 0.125485 0
M  V30 1578 C 145.321 1.40811 0.817069 0
M  V30 1579 O 146.51 1.65044 0.679918 0
M  V30 1580 C 143.61 3.16963 1.19949 0
M  V30 1581 C 142.783 4.33374 0.592064 0
M  V30 1582 C 141.842 5.02577 1.55893 0
M  V30 1583 O 140.868 5.58873 1.07933 0
M  V30 1584 N 142.07 5.03256 2.89334 0
M  V30 1585 H 144.835 2.93713 -0.596068 0
M  V30 1586 H 142.396 1.55129 -0.463303 0
M  V30 1587 H 144.388 3.60123 1.84644 0
M  V30 1588 H 142.958 2.53913 1.82337 0
M  V30 1589 H 142.178 3.93509 -0.233322 0
M  V30 1590 H 143.466 5.08527 0.166738 0
M  V30 1591 H 142.864 4.58836 3.30887 0
M  V30 1592 H 141.421 5.50232 3.49412 0
M  V30 1593 N 144.854 0.36279 1.53368 0
M  V30 1594 C 145.784 -0.476976 2.28576 0
M  V30 1595 C 146.765 -1.08631 1.30894 0
M  V30 1596 O 147.95 -1.10409 1.59761 0
M  V30 1597 C 145.08 -1.61828 3.07293 0
M  V30 1598 C 144.034 -1.13633 4.1264 0
M  V30 1599 C 143.36 -2.36766 4.79423 0
M  V30 1600 C 144.66 -0.223061 5.21823 0
M  V30 1601 H 146.354 0.150474 2.99022 0
M  V30 1602 H 143.9 0.0738103 1.43811 0
M  V30 1603 H 145.853 -2.21237 3.58653 0
M  V30 1604 H 144.577 -2.27292 2.34533 0
M  V30 1605 H 143.236 -0.564945 3.62221 0
M  V30 1606 H 142.884 -3.0068 4.03238 0
M  V30 1607 H 142.584 -2.05192 5.50609 0
M  V30 1608 H 144.108 -2.96865 5.33576 0
M  V30 1609 H 145.522 -0.724545 5.68703 0
M  V30 1610 H 143.919 0.001678 6.001 0
M  V30 1611 H 144.989 0.735553 4.79289 0
M  V30 1612 N 146.332 -1.57332 0.0918853 0
M  V30 1613 C 147.557 -1.98995 -0.584442 0
M  V30 1614 C 147.982 -0.970528 -1.61128 0
M  V30 1615 O 147.34 0.0613904 -1.81196 0
M  V30 1616 C 147.388 -3.39636 -1.21161 0
M  V30 1617 O 146.492 -3.40447 -2.32744 0
M  V30 1618 H 145.833 -0.647165 -0.148572 0
M  V30 1619 H 148.363 -2.03873 0.172347 0
M  V30 1620 H 148.373 -3.7726 -1.55367 0
M  V30 1621 H 147.048 -4.13356 -0.459313 0
M  V30 1622 H 145.625 -3.14614 -2.0018 0
M  V30 1623 N 147.81 0.181792 -1.56548 0
M  V30 1624 C 148.74 1.22765 -1.98623 0
M  V30 1625 C 149.721 1.46747 -0.860189 0
M  V30 1626 O 150.906 1.58259 -1.12551 0
M  V30 1627 C 148.036 2.56894 -2.33715 0
M  V30 1628 C 146.99 2.475 -3.49182 0
M  V30 1629 C 146.316 3.86023 -3.69986 0
M  V30 1630 C 147.616 1.98866 -4.82959 0
M  V30 1631 H 149.31 0.877942 -2.86239 0
M  V30 1632 H 146.856 0.42088 -1.37712 0
M  V30 1633 H 148.809 3.30253 -2.61746 0
M  V30 1634 H 147.533 2.93632 -1.42997 0
M  V30 1635 H 146.192 1.76596 -3.21262 0
M  V30 1636 H 145.84 4.20136 -2.76576 0
M  V30 1637 H 145.54 3.80609 -4.47672 0
M  V30 1638 H 147.064 4.60984 -4.00407 0
M  V30 1639 H 148.478 2.61992 -5.09934 0
M  V30 1640 H 146.875 2.04424 -5.64208 0
M  V30 1641 H 147.945 0.942465 -4.75653 0
M  V30 1642 N 149.288 1.51039 0.449983 0
M  V30 1643 C 150.536 1.62759 1.19808 0
M  V30 1644 C 150.857 0.339981 1.92013 0
M  V30 1645 O 150.127 -0.643606 1.85026 0
M  V30 1646 H 148.707 0.599811 0.445237 0
M  V30 1647 H 151.369 1.87914 0.517138 0
M  V30 1648 H 150.465 2.44911 1.93455 0
M  V30 1649 N 150.766 -0.704594 1.40972 0
M  V30 1650 C 152.012 -1.46675 1.40051 0
M  V30 1651 C 152.345 -1.94199 0.00641102 0
M  V30 1652 O 151.62 -1.68916 -0.964235 0
M  V30 1653 C 151.903 -2.68505 2.39952 0
M  V30 1654 C 151.756 -2.26805 3.88432 0
M  V30 1655 C 153.075 -3.70686 2.37233 0
M  V30 1656 H 150.194 -0.532015 0.510028 0
M  V30 1657 H 152.836 -0.803255 1.72185 0
M  V30 1658 H 150.986 -3.25114 2.1268 0
M  V30 1659 H 152.658 -1.75592 4.26574 0
M  V30 1660 H 150.901 -1.58685 4.03734 0
M  V30 1661 H 151.572 -3.14181 4.53866 0
M  V30 1662 H 154.048 -3.23731 2.61415 0
M  V30 1663 H 152.924 -4.53553 3.09162 0
M  V30 1664 H 153.185 -4.19754 1.38777 0
M  V30 1665 N 152.244 -1.26651 -0.937939 0
M  V30 1666 C 153.207 -1.08546 -2.01867 0
M  V30 1667 C 154.207 -0.0327327 -1.60767 0
M  V30 1668 O 155.397 -0.276427 -1.71993 0
M  V30 1669 C 152.529 -0.651711 -3.34613 0
M  V30 1670 H 153.722 -2.04502 -2.1936 0
M  V30 1671 H 151.275 -1.09294 -1.11734 0
M  V30 1672 H 152.01 0.309696 -3.22818 0
M  V30 1673 H 151.795 -1.41189 -3.65798 0
M  V30 1674 H 153.285 -0.546973 -4.14002 0
M  V30 1675 N 153.722 1.14298 -1.08507 0
M  V30 1676 C 154.685 2.17607 -0.719711 0
M  V30 1677 C 155.685 1.58907 0.245997 0
M  V30 1678 O 156.875 1.74181 0.0254081 0
M  V30 1679 C 154.007 3.40842 -0.0627695 0
M  V30 1680 H 155.2 2.51443 -1.63452 0
M  V30 1681 H 152.753 1.28963 -0.88307 0
M  V30 1682 H 153.488 3.12587 0.863716 0
M  V30 1683 H 153.273 3.84713 -0.757504 0
M  V30 1684 H 154.763 4.17221 0.177786 0
M  V30 1685 N 155.201 0.870884 1.31352 0
M  V30 1686 C 156.45 0.478408 1.95944 0
M  V30 1687 C 156.763 -0.974493 1.69597 0
M  V30 1688 O 157.969 -1.47316 2.28058 0
M  V30 1689 C 156.425 0.804609 3.50791 0
M  V30 1690 C 156.033 2.27433 3.85977 0
M  V30 1691 C 157.777 0.480648 4.2177 0
M  V30 1692 C 155.684 2.5429 5.33939 0
M  V30 1693 H 154.614 0.175175 0.733369 0
M  V30 1694 H 157.265 1.06391 1.4951 0
M  V30 1695 H 155.647 0.148347 3.95722 0
M  V30 1696 H 156.821 2.97373 3.52002 0
M  V30 1697 H 155.136 2.56442 3.28065 0
M  V30 1698 H 157.733 0.658519 5.30629 0
M  V30 1699 H 158.076 -0.578979 4.12254 0
M  V30 1700 H 158.609 1.09349 3.82476 0
M  V30 1701 H 155.348 3.58939 5.48491 0
M  V30 1702 H 154.868 1.88945 5.69263 0
M  V30 1703 H 156.547 2.39066 6.01212 0
M  V30 1704 N 156.679 -1.44442 0.630414 0
M  V30 1705 C 157.926 -2.02052 0.134617 0
M  V30 1706 C 158.254 -1.49576 -1.24327 0
M  V30 1707 O 157.509 -0.669806 -1.83881 0
M  V30 1708 C 157.808 -3.57332 0.0697835 0
M  V30 1709 C 157.474 -4.29058 1.38635 0
M  V30 1710 C 156.136 -4.4837 1.74694 0
M  V30 1711 C 158.488 -4.69872 2.25543 0
M  V30 1712 C 155.816 -5.05756 2.97369 0
M  V30 1713 C 158.168 -5.28616 3.47487 0
M  V30 1714 C 156.832 -5.46147 3.8377 0
M  V30 1715 H 156.102 -0.739361 0.0492598 0
M  V30 1716 H 158.749 -1.73217 0.816586 0
M  V30 1717 H 157.054 -3.85577 -0.695553 0
M  V30 1718 H 158.751 -3.99637 -0.330344 0
M  V30 1719 H 155.341 -4.14357 1.09574 0
M  V30 1720 H 159.525 -4.54666 1.98979 0
M  V30 1721 H 154.781 -5.17515 3.25558 0
M  V30 1722 H 158.955 -5.59192 4.15063 0
M  V30 1723 H 156.582 -5.9038 4.7891 0
M  V30 1724 N 158.157 -0.370918 -1.53173 0
M  V30 1725 C 159.405 0.216673 -2.00935 0
M  V30 1726 C 159.726 1.48845 -1.25977 0
M  V30 1727 O 158.996 1.92286 -0.374551 0
M  V30 1728 H 157.576 0.0830565 -0.742368 0
M  V30 1729 H 160.238 -0.49838 -1.8842 0
M  V30 1730 H 159.334 0.439893 -3.08984 0
M  V30 1731 N 159.635 1.57281 -0.100228 0
M  V30 1732 C 161.046 1.81725 0.428107 0
M  V30 1733 C 161.397 1.01619 1.67833 0
M  V30 1734 O 160.522 0.247098 2.14985 0
M  V30 1735 C 161.117 3.29617 0.78347 0
M  V30 1736 C 159.676 3.54808 1.25653 0
M  V30 1737 C 158.823 2.76118 0.255752 0
M  V30 1738 H 161.774 1.55324 -0.325608 0
M  V30 1739 H 161.795 3.4322 1.64256 0
M  V30 1740 H 161.307 3.87893 -0.12665 0
M  V30 1741 H 159.408 3.01868 2.18418 0
M  V30 1742 H 159.521 4.63443 1.21482 0
M  V30 1743 H 157.885 2.43745 0.738956 0
M  V30 1744 H 158.668 3.37145 -0.647136 0
M  V30 1745 N 161.113 -0.173488 1.56642 0
M  V30 1746 C 162.338 -0.910149 1.86363 0
M  V30 1747 C 162.763 -1.75132 0.686318 0
M  V30 1748 O 162.121 -1.77595 -0.364643 0
M  V30 1749 C 162.169 -1.76447 3.14482 0
M  V30 1750 O 161.273 -2.86584 2.96553 0
M  V30 1751 H 160.614 -0.255086 0.613047 0
M  V30 1752 H 163.144 -0.172283 2.03873 0
M  V30 1753 H 163.154 -2.16483 3.45831 0
M  V30 1754 H 161.829 -1.14658 3.99783 0
M  V30 1755 H 160.406 -2.50146 2.76553 0
M  V30 1756 N 162.591 -1.51276 -0.441967 0
M  V30 1757 C 163.541 -1.6864 -1.53442 0
M  V30 1758 C 164.525 -0.540444 -1.51552 0
M  V30 1759 O 165.717 -0.796157 -1.58083 0
M  V30 1760 C 162.846 -1.8106 -2.91672 0
M  V30 1761 C 161.932 -3.01424 -2.98336 0
M  V30 1762 N 162.323 -4.2467 -2.74752 0
M  V30 1763 C 160.621 -3.00584 -3.29493 0
M  V30 1764 C 161.322 -5.05891 -2.87139 0
M  V30 1765 N 160.298 -4.40442 -3.18609 0
M  V30 1766 H 164.1 -2.61598 -1.33954 0
M  V30 1767 H 161.614 -1.4886 -0.6492 0
M  V30 1768 H 163.611 -1.91609 -3.70259 0
M  V30 1769 H 162.271 -0.892795 -3.12185 0
M  V30 1770 H 163.282 -4.53691 -2.49769 0
M  V30 1771 H 159.959 -2.18417 -3.55809 0
M  V30 1772 H 161.349 -6.13983 -2.72899 0
M  V30 1773 N 164.069 0.697108 -1.41344 0
M  V30 1774 C 165.294 1.49096 -1.44171 0
M  V30 1775 C 165.719 1.88038 -0.0481568 0
M  V30 1776 O 165.077 1.54525 0.948243 0
M  V30 1777 C 165.125 2.73088 -2.3549 0
M  V30 1778 O 164.229 3.70514 -1.81088 0
M  V30 1779 H 163.57 0.448801 -0.489361 0
M  V30 1780 H 166.1 0.856992 -1.85787 0
M  V30 1781 H 166.11 3.21413 -2.51312 0
M  V30 1782 H 164.785 2.44081 -3.36745 0
M  V30 1783 H 163.362 3.29441 -1.74708 0
M  V30 1784 N 165.547 1.27147 0.931209 0
M  V30 1785 C 166.772 1.16191 1.71797 0
M  V30 1786 C 167.197 -0.278004 1.86034 0
M  V30 1787 O 166.555 -1.20137 1.35782 0
M  V30 1788 C 166.603 1.84673 3.09723 0
M  V30 1789 O 165.707 1.14231 3.96264 0
M  V30 1790 H 165.048 0.404303 0.526721 0
M  V30 1791 H 167.578 1.68152 1.1656 0
M  V30 1792 H 167.588 1.91893 3.60057 0
M  V30 1793 H 166.263 2.89421 2.98677 0
M  V30 1794 H 164.84 1.15056 3.54706 0
M  V30 1795 N 167.025 -1.13721 1.09112 0
M  V30 1796 C 168.25 -1.89314 0.847053 0
M  V30 1797 C 168.675 -1.78416 -0.595774 0
M  V30 1798 O 168.033 -1.12942 -1.41823 0
M  V30 1799 C 168.081 -3.3701 1.28284 0
M  V30 1800 O 167.185 -4.10054 0.439267 0
M  V30 1801 H 166.526 -0.588745 0.307044 0
M  V30 1802 H 169.056 -1.43902 1.45442 0
M  V30 1803 H 169.066 -3.87834 1.26683 0
M  V30 1804 H 167.741 -3.4426 2.33363 0
M  V30 1805 H 166.318 -3.69266 0.519312 0
M  V30 1806 N 168.503 -0.877838 -1.30888 0
M  V30 1807 C 169.466 -0.344265 -2.266 0
M  V30 1808 C 170.466 0.50922 -1.52524 0
M  V30 1809 O 171.656 0.317398 -1.71284 0
M  V30 1810 C 168.788 0.510198 -3.37061 0
M  V30 1811 H 169.981 -1.1893 -2.7531 0
M  V30 1812 H 167.534 -0.654088 -1.41956 0
M  V30 1813 H 168.269 1.37612 -2.93655 0
M  V30 1814 H 168.054 -0.101047 -3.9197 0
M  V30 1815 H 169.544 0.875537 -4.08319 0
M  V30 1816 N 169.982 1.44106 -0.638065 0
M  V30 1817 C 170.93 2.3248 0.0748149 0
M  V30 1818 C 171.924 1.47746 0.828702 0
M  V30 1819 O 173.13 1.64049 0.740816 0
M  V30 1820 H 169.505 0.750771 0.0429686 0
M  V30 1821 H 171.476 2.90348 -0.688504 0
M  V30 1822 C 170.225 3.31843 1.03805 0
M  V30 1823 H 169.548 3.97059 0.467375 0
M  V30 1824 H 170.988 3.96345 1.50622 0
M  V30 1825 C 169.447 2.61291 2.1267 0
M  V30 1826 O 169.977 2.41702 3.20847 0
M  V30 1827 N 168.183 2.20915 1.88798 0
M  V30 1828 H 167.73 2.37047 1.00829 0
M  V30 1829 H 167.688 1.74038 2.61836 0
M  V30 1830 N 171.46 0.379036 1.52974 0
M  V30 1831 C 172.423 -0.448865 2.24762 0
M  V30 1832 C 173.423 -0.998689 1.26027 0
M  V30 1833 O 174.613 -0.882313 1.50203 0
M  V30 1834 C 171.745 -1.62872 2.99476 0
M  V30 1835 H 172.938 0.179491 2.99362 0
M  V30 1836 H 170.491 0.13096 1.5575 0
M  V30 1837 H 171.226 -2.29479 2.29151 0
M  V30 1838 H 171.011 -1.24128 3.71934 0
M  V30 1839 H 172.501 -2.2151 3.5401 0
M  V30 1840 N 172.938 -1.57226 0.108567 0
M  V30 1841 C 174.184 -1.95121 -0.552761 0
M  V30 1842 C 174.517 -0.991345 -1.66991 0
M  V30 1843 O 173.792 -0.0267211 -1.94482 0
M  V30 1844 C 174.075 -3.43039 -1.09528 0
M  V30 1845 C 173.928 -4.49797 0.0177332 0
M  V30 1846 C 175.247 -3.92567 -1.98945 0
M  V30 1847 H 172.366 -0.709496 -0.199461 0
M  V30 1848 H 175.008 -1.89126 0.182011 0
M  V30 1849 H 173.158 -3.48279 -1.72146 0
M  V30 1850 H 174.83 -4.56661 0.652584 0
M  V30 1851 H 173.073 -4.284 0.682309 0
M  V30 1852 H 173.744 -5.50528 -0.402919 0
M  V30 1853 H 176.22 -3.89565 -1.46214 0
M  V30 1854 H 175.096 -4.96605 -2.33827 0
M  V30 1855 H 175.357 -3.32648 -2.91201 0
M  V30 1856 N 174.416 0.165178 -1.56732 0
M  V30 1857 C 175.348 1.22911 -1.93457 0
M  V30 1858 C 176.361 1.40152 -0.828333 0
M  V30 1859 O 177.55 1.40046 -1.10677 0
M  V30 1860 C 174.65 2.59686 -2.17753 0
M  V30 1861 C 173.823 2.63663 -3.48999 0
M  V30 1862 C 172.882 3.81845 -3.62051 0
M  V30 1863 O 171.908 3.67559 -4.34613 0
M  V30 1864 N 173.11 4.98557 -2.97357 0
M  V30 1865 H 175.875 0.917118 -2.85323 0
M  V30 1866 H 173.436 0.354895 -1.57962 0
M  V30 1867 H 175.428 3.37225 -2.23743 0
M  V30 1868 H 173.998 2.83251 -1.32242 0
M  V30 1869 H 173.218 1.72173 -3.54612 0
M  V30 1870 H 174.506 2.63336 -4.35352 0
M  V30 1871 H 173.904 5.13065 -2.38287 0
M  V30 1872 H 172.461 5.73936 -3.08934 0
M  V30 1873 N 175.894 1.51508 0.433938 0
M  V30 1874 C 177.119 1.68443 1.21003 0
M  V30 1875 C 177.544 0.382636 1.84167 0
M  V30 1876 O 176.902 -0.65755 1.68956 0
M  V30 1877 C 176.95 2.80405 2.26727 0
M  V30 1878 O 176.054 2.44245 3.32292 0
M  V30 1879 H 175.395 0.561536 0.354363 0
M  V30 1880 H 177.925 1.9809 0.512024 0
M  V30 1881 H 177.935 3.0459 2.71457 0
M  V30 1882 H 176.61 3.74867 1.80132 0
M  V30 1883 H 175.187 2.30644 2.93015 0
M  V30 1884 N 177.372 -0.689602 1.41712 0
M  V30 1885 C 178.621 -1.44534 1.40686 0
M  V30 1886 C 178.934 -1.95588 0.0213352 0
M  V30 1887 O 180.14 -2.71271 -0.111534 0
M  V30 1888 C 178.596 -2.61387 2.47396 0
M  V30 1889 C 178.204 -2.17094 3.91885 0
M  V30 1890 C 179.948 -3.38986 2.55517 0
M  V30 1891 C 177.855 -3.3094 4.90135 0
M  V30 1892 H 176.785 -0.542925 0.52321 0
M  V30 1893 H 179.436 -0.748054 1.6756 0
M  V30 1894 H 177.818 -3.33412 2.13664 0
M  V30 1895 H 178.992 -1.52318 4.34897 0
M  V30 1896 H 177.307 -1.52473 3.8748 0
M  V30 1897 H 179.904 -4.23747 3.26102 0
M  V30 1898 H 180.247 -3.84578 1.59391 0
M  V30 1899 H 180.78 -2.74021 2.8837 0
M  V30 1900 H 177.519 -2.90355 5.87685 0
M  V30 1901 H 177.039 -3.94546 4.51767 0
M  V30 1902 H 178.718 -3.9663 5.11169 0
M  V30 1903 N 178.85 -1.27639 -0.924453 0
M  V30 1904 C 180.09 -1.15407 -1.68703 0
M  V30 1905 C 180.454 0.294581 -1.89727 0
M  V30 1906 O 181.655 0.539385 -2.63333 0
M  V30 1907 C 179.926 -1.9195 -3.0148 0
M  V30 1908 S 181.485 -1.95969 -3.92609 0
M  V30 1909 H 178.303 -0.411937 -0.579507 0
M  V30 1910 H 180.905 -1.61592 -1.10038 0
M  V30 1911 H 179.609 -2.96387 -2.83871 0
M  V30 1912 H 179.14 -1.46272 -3.65196 0
M  V30 1913 H 181.155 -1.05846 -4.84779 0
M  V30 1914 N 180.328 1.1314 -1.09713 0
M  V30 1915 C 181.276 2.20717 -0.733934 0
M  V30 1916 C 182.27 1.6729 0.266506 0
M  V30 1917 O 183.476 1.79547 0.127656 0
M  V30 1918 H 179.851 0.719292 -0.21937 0
M  V30 1919 H 181.822 2.48611 -1.6503 0
M  V30 1920 C 180.571 3.47265 -0.173849 0
M  V30 1921 H 179.894 3.88716 -0.934873 0
M  V30 1922 H 181.334 4.23979 0.0423126 0
M  V30 1923 C 179.793 3.18724 1.09164 0
M  V30 1924 O 180.323 3.37762 2.17439 0
M  V30 1925 N 178.529 2.72583 1.00732 0
M  V30 1926 H 178.076 2.57291 0.126121 0
M  V30 1927 H 178.034 2.53862 1.85476 0
M  V30 1928 N 181.806 0.884767 1.30421 0
M  V30 1929 C 182.769 0.356277 2.26414 0
M  V30 1930 C 183.769 -0.501124 1.52792 0
M  V30 1931 O 184.959 -0.30831 1.7145 0
M  V30 1932 C 182.091 -0.492316 3.37326 0
M  V30 1933 H 183.284 1.20389 2.74675 0
M  V30 1934 H 180.837 0.661607 1.41607 0
M  V30 1935 H 181.572 -1.36052 2.94381 0
M  V30 1936 H 181.357 0.121832 3.91911 0
M  V30 1937 H 182.847 -0.853871 4.08777 0
M  V30 1938 N 183.284 -1.43765 0.645699 0
M  V30 1939 C 184.214 -2.33471 -0.0370477 0
M  V30 1940 C 185.195 -1.49042 -0.819779 0
M  V30 1941 O 186.38 -1.77726 -0.782758 0
M  V30 1942 C 183.51 -3.32311 -1.0093 0
M  V30 1943 C 182.464 -4.2667 -0.337201 0
M  V30 1944 C 181.79 -5.1549 -1.42037 0
M  V30 1945 C 183.09 -5.16657 0.765706 0
M  V30 1946 H 184.784 -2.90809 0.712069 0
M  V30 1947 H 182.33 -1.39834 0.343876 0
M  V30 1948 H 184.283 -3.9396 -1.49578 0
M  V30 1949 H 183.007 -2.73213 -1.78948 0
M  V30 1950 H 181.666 -3.66374 0.128771 0
M  V30 1951 H 181.314 -4.52735 -2.1918 0
M  V30 1952 H 181.014 -5.79438 -0.975966 0
M  V30 1953 H 182.538 -5.80012 -1.90838 0
M  V30 1954 H 183.952 -5.72158 0.361702 0
M  V30 1955 H 182.349 -5.89286 1.13413 0
M  V30 1956 H 183.419 -4.56796 1.62683 0
M  V30 1957 N 184.763 -0.387143 -1.52771 0
M  V30 1958 C 186.011 0.195349 -2.01154 0
M  V30 1959 C 186.332 1.475 -1.27549 0
M  V30 1960 O 185.602 1.91878 -0.394924 0
M  V30 1961 H 184.182 0.075178 -0.743207 0
M  V30 1962 H 186.844 -0.518337 -1.87881 0
M  V30 1963 H 185.94 0.407096 -3.09434 0
M  V30 1964 N 186.241 1.57166 -0.116904 0
M  V30 1965 C 187.487 1.95412 0.542405 0
M  V30 1966 C 187.82 1.00019 1.66463 0
M  V30 1967 O 187.095 0.0370346 1.94465 0
M  V30 1968 C 187.378 3.43615 1.07708 0
M  V30 1969 C 187.231 4.49781 -0.0415868 0
M  V30 1970 C 188.55 3.93616 1.96861 0
M  V30 1971 H 185.669 0.710543 0.195696 0
M  V30 1972 H 188.311 1.89027 -0.192038 0
M  V30 1973 H 186.461 3.49187 1.70296 0
M  V30 1974 H 188.133 4.56308 -0.676793 0
M  V30 1975 H 186.376 4.28033 -0.705019 0
M  V30 1976 H 187.047 5.50733 0.373717 0
M  V30 1977 H 189.523 3.90335 1.44146 0
M  V30 1978 H 188.399 4.97838 2.3119 0
M  V30 1979 H 188.66 3.34188 2.89432 0
M  V30 1980 N 187.719 -0.156864 1.56817 0
M  V30 1981 C 189.13 -0.717916 1.72345 0
M  V30 1982 C 189.481 -1.82124 0.729747 0
M  V30 1983 O 188.606 -2.16141 -0.105781 0
M  V30 1984 C 189.201 -1.30904 3.12489 0
M  V30 1985 C 187.76 -1.81676 3.29653 0
M  V30 1986 C 186.907 -0.701349 2.68284 0
M  V30 1987 H 189.858 0.0686989 1.58551 0
M  V30 1988 H 189.879 -2.17882 3.11942 0
M  V30 1989 H 189.391 -0.505796 3.8479 0
M  V30 1990 H 187.492 -2.64598 2.62333 0
M  V30 1991 H 187.605 -1.95226 4.3752 0
M  V30 1992 H 185.969 -1.12548 2.28484 0
M  V30 1993 H 186.752 0.0902846 3.43181 0
M  V30 1994 N 189.197 -1.51736 -0.425897 0
M  V30 1995 C 190.147 -1.70258 -1.51645 0
M  V30 1996 C 191.131 -0.556488 -1.5097 0
M  V30 1997 O 192.323 -0.812879 -1.5723 0
M  V30 1998 C 189.452 -1.84143 -2.89735 0
M  V30 1999 C 188.538 -3.04572 -2.95122 0
M  V30 2000 N 188.929 -4.2756 -2.70233 0
M  V30 2001 C 187.227 -3.04061 -3.26286 0
M  V30 2002 C 187.928 -5.08908 -2.81757 0
M  V30 2003 N 186.904 -4.43797 -3.13919 0
M  V30 2004 H 190.706 -2.63004 -1.31172 0
M  V30 2005 H 188.22 -1.4954 -0.633375 0
M  V30 2006 H 190.217 -1.95525 -3.68206 0
M  V30 2007 H 188.877 -0.925857 -3.1122 0
M  V30 2008 H 189.888 -4.56315 -2.44943 0
M  V30 2009 H 186.565 -2.22179 -3.53473 0
M  V30 2010 H 187.955 -6.16843 -2.66372 0
M  V30 2011 N 190.675 0.682077 -1.42076 0
M  V30 2012 C 191.924 1.43786 -1.41451 0
M  V30 2013 C 192.237 1.95574 -0.0317074 0
M  V30 2014 O 193.443 2.71326 0.0971462 0
M  V30 2015 C 191.899 2.60071 -2.48779 0
M  V30 2016 C 191.507 2.15013 -3.93031 0
M  V30 2017 C 193.251 3.37626 -2.57311 0
M  V30 2018 C 191.158 3.28336 -4.91883 0
M  V30 2019 H 190.088 0.540143 -0.526082 0
M  V30 2020 H 192.739 0.739157 -1.67955 0
M  V30 2021 H 191.121 3.32275 -2.15429 0
M  V30 2022 H 192.295 1.5001 -4.35699 0
M  V30 2023 H 190.61 1.50416 -3.88284 0
M  V30 2024 H 193.207 4.22012 -3.28345 0
M  V30 2025 H 193.55 3.83727 -1.61429 0
M  V30 2026 H 194.083 2.72488 -2.89819 0
M  V30 2027 H 190.822 2.87234 -5.89217 0
M  V30 2028 H 190.342 3.92145 -4.53853 0
M  V30 2029 H 192.021 3.93913 -5.13265 0
M  V30 2030 N 192.153 1.28127 0.917671 0
M  V30 2031 C 193.085 1.07517 2.02417 0
M  V30 2032 C 194.098 0.0281099 1.62776 0
M  V30 2033 O 195.287 0.270748 1.76435 0
M  V30 2034 C 192.387 0.610957 3.33347 0
M  V30 2035 C 191.56 1.73255 4.01624 0
M  V30 2036 C 190.619 1.26238 5.10833 0
M  V30 2037 O 189.645 1.96389 5.34247 0
M  V30 2038 N 190.847 0.123448 5.80369 0
M  V30 2039 H 193.612 2.02806 2.20658 0
M  V30 2040 H 191.173 1.19827 1.08871 0
M  V30 2041 H 193.165 0.280101 4.0373 0
M  V30 2042 H 191.735 -0.24898 3.11607 0
M  V30 2043 H 190.955 2.23319 3.24842 0
M  V30 2044 H 192.243 2.48503 4.43986 0
M  V30 2045 H 191.641 -0.461847 5.63812 0
M  V30 2046 H 190.198 -0.148158 6.51632 0
M  V30 2047 N 193.631 -1.12557 1.10312 0
M  V30 2048 C 194.859 -1.87864 0.866873 0
M  V30 2049 C 195.274 -1.79588 -0.582557 0
M  V30 2050 O 194.631 -1.16887 -1.40156 0
M  V30 2051 C 194.682 -3.37125 1.30496 0
M  V30 2052 O 194.403 -3.45201 2.69755 0
M  V30 2053 C 195.904 -4.29373 1.10243 0
M  V30 2054 H 193.124 -0.594452 0.311236 0
M  V30 2055 H 195.668 -1.42429 1.46745 0
M  V30 2056 H 193.823 -3.80109 0.748081 0
M  V30 2057 H 194.237 -4.38056 2.88457 0
M  V30 2058 H 195.711 -5.32394 1.45811 0
M  V30 2059 H 196.188 -4.39181 0.0409492 0
M  V30 2060 H 196.794 -3.92169 1.64571 0
M  V30 2061 N 195.109 -0.891671 -1.2995 0
M  V30 2062 C 196.525 -0.58662 -1.48428 0
M  V30 2063 C 196.725 0.873951 -1.81561 0
M  V30 2064 O 195.781 1.65471 -1.90724 0
M  V30 2065 C 197.094 -1.50553 -2.60296 0
M  V30 2066 C 198.642 -1.50988 -2.74175 0
M  V30 2067 C 199.117 -2.41488 -3.89163 0
M  V30 2068 N 200.608 -2.39489 -3.96483 0
M  V30 2069 C 201.343 -3.06223 -4.84784 0
M  V30 2070 N 200.839 -3.82206 -5.77833 0
M  V30 2071 N 202.632 -2.95421 -4.78208 0
M  V30 2072 H 194.783 -1.83644 -1.06718 0
M  V30 2073 H 197.046 -0.786455 -0.529332 0
M  V30 2074 H 196.752 -2.54581 -2.42654 0
M  V30 2075 H 196.626 -1.22008 -3.56923 0
M  V30 2076 H 199.013 -0.47708 -2.91218 0
M  V30 2077 H 199.094 -1.83567 -1.78148 0
M  V30 2078 H 198.738 -3.44857 -3.72876 0
M  V30 2079 H 198.668 -2.06222 -4.84541 0
M  V30 2080 H 201.159 -1.84278 -3.29924 0
M  V30 2081 H 201.472 -4.302 -6.41988 0
M  V30 2082 H 199.817 -3.86313 -5.77743 0
M  V30 2083 H 203.008 -2.35581 -4.04499 0
M  V30 2084 H 203.181 -3.47704 -5.46814 0
M  V30 2085 N 196.587 1.43421 -0.653314 0
M  V30 2086 C 197.833 2.02641 -0.175593 0
M  V30 2087 C 198.188 1.5062 1.19713 0
M  V30 2088 O 197.481 0.689697 1.78756 0
M  V30 2089 C 197.675 3.57176 -0.126623 0
M  V30 2090 C 197.504 4.24191 -1.49306 0
M  V30 2091 C 196.274 4.60257 -2.08547 0
M  V30 2092 C 198.472 4.53193 -2.43148 0
M  V30 2093 N 196.454 5.12345 -3.38194 0
M  V30 2094 C 197.825 5.06601 -3.57429 0
M  V30 2095 C 199.88 4.35161 -2.41949 0
M  V30 2096 C 198.583 5.43875 -4.70736 0
M  V30 2097 C 200.609 4.73498 -3.54336 0
M  V30 2098 C 199.971 5.27039 -4.67343 0
M  V30 2099 H 196.07 0.77441 -0.108686 0
M  V30 2100 H 198.654 1.74596 -0.861638 0
M  V30 2101 H 196.825 3.84784 0.528766 0
M  V30 2102 H 198.557 4.03078 0.36198 0
M  V30 2103 H 195.312 4.45302 -1.61255 0
M  V30 2104 H 195.736 5.42842 -4.04538 0
M  V30 2105 H 200.378 3.9304 -1.55818 0
M  V30 2106 H 198.096 5.8494 -5.57558 0
M  V30 2107 H 201.682 4.61241 -3.5461 0
M  V30 2108 H 200.562 5.56153 -5.52868 0
M  V30 2109 N 198.065 0.39524 1.52563 0
M  V30 2110 C 199.012 -0.437036 2.26624 0
M  V30 2111 C 199.982 -1.05281 1.28472 0
M  V30 2112 O 201.167 -1.07971 1.57311 0
M  V30 2113 C 198.307 -1.55524 3.08069 0
M  V30 2114 C 197.42 -0.961745 4.21158 0
M  V30 2115 C 196.555 -2.05149 4.89987 0
M  V30 2116 C 195.594 -1.4342 5.95061 0
M  V30 2117 N 194.731 -2.46351 6.57462 0
M  V30 2118 H 199.571 0.200976 2.97322 0
M  V30 2119 H 197.108 0.110944 1.46681 0
M  V30 2120 H 199.066 -2.21437 3.53584 0
M  V30 2121 H 197.696 -2.16348 2.3957 0
M  V30 2122 H 196.748 -0.192048 3.79915 0
M  V30 2123 H 198.06 -0.470701 4.96574 0
M  V30 2124 H 197.214 -2.78819 5.38837 0
M  V30 2125 H 195.953 -2.57615 4.14109 0
M  V30 2126 H 194.958 -0.682774 5.45544 0
M  V30 2127 H 196.183 -0.917416 6.72875 0
M  V30 2128 H 194.129 -2.97975 5.8442 0
M  V30 2129 H 194.046 -2.02019 7.28508 0
M  V30 2130 H 195.314 -3.19633 7.10954 0
M  V30 2131 N 199.544 -1.57102 0.125237 0
M  V30 2132 C 200.494 -2.12202 -0.833936 0
M  V30 2133 C 201.478 -1.04433 -1.22403 0
M  V30 2134 O 202.67 -1.30655 -1.19408 0
M  V30 2135 C 199.799 -2.72994 -2.08157 0
M  V30 2136 C 198.885 -3.87852 -1.71556 0
M  V30 2137 N 199.276 -4.9464 -1.05662 0
M  V30 2138 C 197.574 -3.98153 -2.00973 0
M  V30 2139 C 198.275 -5.74953 -0.883376 0
M  V30 2140 N 197.251 -5.24985 -1.41036 0
M  V30 2141 H 201.053 -2.92141 -0.321035 0
M  V30 2142 H 198.567 -1.62217 -0.0770315 0
M  V30 2143 H 200.564 -3.10816 -2.77847 0
M  V30 2144 H 199.224 -1.9452 -2.59985 0
M  V30 2145 H 200.235 -5.12872 -0.719878 0
M  V30 2146 H 196.912 -3.30728 -2.54804 0
M  V30 2147 H 198.302 -6.70904 -0.365675 0
M  V30 2148 N 201.022 0.148545 -1.56898 0
M  V30 2149 C 201.954 1.20852 -1.9475 0
M  V30 2150 C 202.967 1.39265 -0.843152 0
M  V30 2151 O 204.156 1.38864 -1.12156 0
M  V30 2152 C 201.256 2.57362 -2.20495 0
M  V30 2153 C 200.429 2.59947 -3.51776 0
M  V30 2154 C 199.488 3.77984 -3.6608 0
M  V30 2155 O 198.514 3.62929 -4.38487 0
M  V30 2156 N 199.716 4.95375 -3.02629 0
M  V30 2157 H 202.481 0.886804 -2.86279 0
M  V30 2158 H 200.042 0.338121 -1.5833 0
M  V30 2159 H 202.034 3.34833 -2.27307 0
M  V30 2160 H 200.604 2.81832 -1.35238 0
M  V30 2161 H 199.824 1.68403 -3.56419 0
M  V30 2162 H 201.112 2.58704 -4.38121 0
M  V30 2163 H 200.51 5.10509 -2.43715 0
M  V30 2164 H 199.067 5.70627 -3.15004 0
M  V30 2165 N 202.5 1.5196 0.417844 0
M  V30 2166 C 203.746 1.65836 1.16732 0
M  V30 2167 C 204.079 0.382881 1.90388 0
M  V30 2168 O 203.354 -0.618368 1.84408 0
M  V30 2169 C 203.637 2.87466 2.16876 0
M  V30 2170 C 203.49 4.25041 1.47174 0
M  V30 2171 C 204.809 3.04613 3.17646 0
M  V30 2172 H 201.928 0.603515 0.423011 0
M  V30 2173 H 204.57 1.84494 0.454105 0
M  V30 2174 H 202.72 2.71689 2.777 0
M  V30 2175 H 204.392 4.52527 0.895376 0
M  V30 2176 H 202.635 4.26843 0.773806 0
M  V30 2177 H 203.306 5.06176 2.20204 0
M  V30 2178 H 205.782 3.1923 2.66892 0
M  V30 2179 H 204.658 3.91247 3.8499 0
M  V30 2180 H 204.919 2.17541 3.84874 0
M  V30 2181 N 203.978 -0.674533 1.42435 0
M  V30 2182 C 205.203 -1.46784 1.46524 0
M  V30 2183 C 205.628 -1.87938 0.078066 0
M  V30 2184 O 204.986 -1.56014 -0.92354 0
M  V30 2185 C 205.034 -2.69307 2.39805 0
M  V30 2186 O 204.138 -3.67587 1.86959 0
M  V30 2187 H 203.479 -0.440959 0.496439 0
M  V30 2188 H 206.009 -0.827326 1.87127 0
M  V30 2189 H 206.019 -3.17374 2.56393 0
M  V30 2190 H 204.694 -2.38692 3.40586 0
M  V30 2191 H 203.271 -3.2662 1.79927 0
M  V30 2192 N 205.456 -1.28612 -0.910864 0
M  V30 2193 C 206.733 -1.06632 -1.63979 0
M  V30 2194 C 207.113 0.393351 -2.07403 0
M  V30 2195 O 206.461 1.37999 -1.82122 0
M  V30 2196 C 206.671 -2.0436 -2.8291 0
M  V30 2197 C 208.019 -2.34666 -3.5386 0
M  V30 2198 O 209.043 -2.02467 -2.93062 0
M  V30 2199 O 207.902 -2.89631 -4.63439 0
M  V30 2200 H 204.996 -0.407737 -0.7195 0
M  V30 2201 H 207.542 -1.39942 -0.959914 0
M  V30 2202 H 206.314 -3.02727 -2.47936 0
M  V30 2203 H 205.937 -1.71714 -3.58609 0
M  V30 2204 N 206.934 1.1197 -1.10907 0
M  V30 2205 C 207.882 2.19927 -0.757303 0
M  V30 2206 C 208.876 1.67564 0.248747 0
M  V30 2207 O 210.082 1.79672 0.108605 0
M  V30 2208 H 206.457 0.716925 -0.226987 0
M  V30 2209 H 208.428 2.46847 -1.67658 0
M  V30 2210 C 207.177 3.47061 -0.210671 0
M  V30 2211 H 206.5 3.87703 -0.976049 0
M  V30 2212 H 207.94 4.24 -0.0026584 0
M  V30 2213 C 206.399 3.19864 1.05777 0
M  V30 2214 O 206.929 3.40049 2.13845 0
M  V30 2215 N 205.135 2.73636 0.978349 0
M  V30 2216 H 204.682 2.5741 0.0988246 0
M  V30 2217 H 204.64 2.55815 1.82773 0
M  V30 2218 N 208.412 0.89855 1.29475 0
M  V30 2219 C 209.359 0.373819 2.27753 0
M  V30 2220 C 210.329 -0.543444 1.56958 0
M  V30 2221 O 211.514 -0.468934 1.84948 0
M  V30 2222 C 208.654 -0.393648 3.42848 0
M  V30 2223 C 207.767 0.554379 4.28428 0
M  V30 2224 C 206.902 -0.230026 5.30702 0
M  V30 2225 C 205.941 0.712599 6.07938 0
M  V30 2226 N 205.078 -0.0373283 7.0209 0
M  V30 2227 H 209.918 1.21699 2.72017 0
M  V30 2228 H 207.455 0.611456 1.33789 0
M  V30 2229 H 209.413 -0.85466 4.08352 0
M  V30 2230 H 208.043 -1.20128 2.99615 0
M  V30 2231 H 207.095 1.13391 3.63107 0
M  V30 2232 H 208.407 1.27597 4.82204 0
M  V30 2233 H 207.561 -0.752288 6.02018 0
M  V30 2234 H 206.3 -0.984758 4.77654 0
M  V30 2235 H 205.305 1.24637 5.35486 0
M  V30 2236 H 206.53 1.46664 6.63074 0
M  V30 2237 H 204.476 -0.774348 6.51414 0
M  V30 2238 H 204.393 0.624374 7.53417 0
M  V30 2239 H 205.661 -0.539891 7.77628 0
M  V30 2240 N 209.89 -1.43072 0.660911 0
M  V30 2241 C 211.167 -1.95307 0.107017 0
M  V30 2242 C 211.547 -1.60192 -1.37484 0
M  V30 2243 O 210.895 -0.890949 -2.10415 0
M  V30 2244 C 211.105 -3.47124 0.361402 0
M  V30 2245 C 212.453 -4.23738 0.270455 0
M  V30 2246 O 213.477 -3.54981 0.294382 0
M  V30 2247 O 212.336 -5.46131 0.200737 0
M  V30 2248 H 209.43 -0.826984 -0.00517729 0
M  V30 2249 H 211.976 -1.52972 0.734681 0
M  V30 2250 H 210.748 -3.65837 1.38848 0
M  V30 2251 H 210.371 -3.96475 -0.298953 0
M  V30 2252 N 211.368 -0.403325 -1.52352 0
M  V30 2253 C 212.593 0.176499 -2.06648 0
M  V30 2254 C 213.018 1.38577 -1.27193 0
M  V30 2255 O 212.376 1.7879 -0.300637 0
M  V30 2256 C 212.424 0.511061 -3.5696 0
M  V30 2257 O 211.528 1.60294 -3.79973 0
M  V30 2258 H 210.869 0.0167337 -0.663789 0
M  V30 2259 H 213.399 -0.574848 -1.96359 0
M  V30 2260 H 213.409 0.771362 -4.00642 0
M  V30 2261 H 212.084 -0.37296 -4.14224 0
M  V30 2262 H 210.661 1.33526 -3.48174 0
M  V30 2263 N 212.846 1.57033 -0.133567 0
M  V30 2264 C 214.093 1.95686 0.520877 0
M  V30 2265 C 214.421 1.0177 1.6575 0
M  V30 2266 O 213.676 0.0443195 1.9565 0
M  V30 2267 C 213.975 3.40674 1.08057 0
M  V30 2268 C 213.641 4.50855 0.0637899 0
M  V30 2269 C 212.303 4.80716 -0.215757 0
M  V30 2270 C 214.655 5.17398 -0.62835 0
M  V30 2271 C 211.983 5.74433 -1.19348 0
M  V30 2272 C 214.335 6.12167 -1.5948 0
M  V30 2273 C 212.999 6.40414 -1.88218 0
M  V30 2274 H 212.269 0.716067 0.190602 0
M  V30 2275 H 214.916 1.9026 -0.217556 0
M  V30 2276 H 213.221 3.42865 1.89606 0
M  V30 2277 H 214.918 3.67902 1.59529 0
M  V30 2278 H 211.508 4.27605 0.291855 0
M  V30 2279 H 215.692 4.94472 -0.425562 0
M  V30 2280 H 210.948 5.94616 -1.42272 0
M  V30 2281 H 215.122 6.6281 -2.13671 0
M  V30 2282 H 212.749 7.12838 -2.64133 0
M  V30 2283 N 214.325 -0.140222 1.56975 0
M  V30 2284 C 215.555 -0.865181 1.87612 0
M  V30 2285 C 215.963 -1.74942 0.72055 0
M  V30 2286 O 215.306 -1.80917 -0.318561 0
M  V30 2287 C 215.368 -1.76782 3.13031 0
M  V30 2288 C 215.032 -1.06005 4.44536 0
M  V30 2289 C 216.029 -0.410768 5.18275 0
M  V30 2290 C 213.714 -1.04754 4.91255 0
M  V30 2291 C 215.708 0.241572 6.36942 0
M  V30 2292 C 213.395 -0.391394 6.09845 0
M  V30 2293 C 214.393 0.252029 6.82535 0
M  V30 2294 O 214.081 0.897757 7.98871 0
M  V30 2295 H 213.813 -0.255188 0.625983 0
M  V30 2296 H 216.367 -0.135653 2.04952 0
M  V30 2297 H 214.597 -2.53846 2.91718 0
M  V30 2298 H 216.286 -2.36533 3.29859 0
M  V30 2299 H 217.052 -0.412195 4.83245 0
M  V30 2300 H 212.931 -1.53777 4.34596 0
M  V30 2301 H 216.475 0.744375 6.93617 0
M  V30 2302 H 212.372 -0.387656 6.44335 0
M  V30 2303 H 213.14 0.800102 8.1458 0
M  V30 2304 N 215.803 -1.52179 -0.40978 0
M  V30 2305 C 217.049 -1.66453 -1.15851 0
M  V30 2306 C 217.382 -0.392972 -1.90182 0
M  V30 2307 O 216.657 0.608579 -1.84734 0
M  V30 2308 C 216.94 -2.88612 -2.15349 0
M  V30 2309 C 216.793 -4.25815 -1.44918 0
M  V30 2310 C 218.112 -3.06294 -3.16026 0
M  V30 2311 H 215.231 -0.60575 -0.419805 0
M  V30 2312 H 217.873 -1.84732 -0.444314 0
M  V30 2313 H 216.023 -2.73158 -2.76255 0
M  V30 2314 H 217.695 -4.52995 -0.871365 0
M  V30 2315 H 215.938 -4.27247 -0.751159 0
M  V30 2316 H 216.609 -5.07337 -2.17516 0
M  V30 2317 H 219.085 -3.20641 -2.65195 0
M  V30 2318 H 217.961 -3.93283 -3.8291 0
M  V30 2319 H 218.222 -2.19579 -3.83715 0
M  V30 2320 N 217.281 0.66697 -1.42791 0
M  V30 2321 C 218.506 1.46004 -1.47301 0
M  V30 2322 C 218.931 1.87894 -0.0880317 0
M  V30 2323 O 218.289 1.56502 0.915253 0
M  V30 2324 C 218.337 2.68031 -2.41229 0
M  V30 2325 O 217.441 3.6659 -1.88906 0
M  V30 2326 H 216.782 0.43832 -0.49877 0
M  V30 2327 H 219.312 0.817391 -1.87563 0
M  V30 2328 H 219.322 3.1601 -2.58073 0
M  V30 2329 H 217.997 2.36883 -3.41847 0
M  V30 2330 H 216.574 3.25661 -1.81656 0
M  V30 2331 N 218.759 1.29093 0.90403 0
M  V30 2332 C 219.689 1.16401 2.02418 0
M  V30 2333 C 220.67 0.0593085 1.69997 0
M  V30 2334 O 221.855 0.238021 1.92736 0
M  V30 2335 C 218.985 0.835233 3.37107 0
M  V30 2336 C 217.939 1.89578 3.83724 0
M  V30 2337 C 217.265 1.42041 5.15489 0
M  V30 2338 C 218.565 3.30394 4.04521 0
M  V30 2339 H 220.259 2.10109 2.13295 0
M  V30 2340 H 217.805 1.01157 1.02486 0
M  V30 2341 H 219.758 0.733169 4.14973 0
M  V30 2342 H 218.482 -0.137543 3.2631 0
M  V30 2343 H 217.141 1.98715 3.08071 0
M  V30 2344 H 216.789 0.436426 5.01103 0
M  V30 2345 H 216.489 2.12964 5.4765 0
M  V30 2346 H 218.013 1.33176 5.959 0
M  V30 2347 H 219.427 3.24123 4.72882 0
M  V30 2348 H 217.824 3.99237 4.48029 0
M  V30 2349 H 218.894 3.73692 3.09002 0
M  V30 2350 N 220.237 -1.11381 1.11499 0
M  V30 2351 C 221.467 -1.86663 0.885464 0
M  V30 2352 C 221.875 -1.80464 -0.568281 0
M  V30 2353 O 221.218 -1.18445 -1.40415 0
M  V30 2354 C 221.28 -3.36337 1.26956 0
M  V30 2355 C 220.944 -3.66304 2.73259 0
M  V30 2356 C 221.941 -3.63733 3.71476 0
M  V30 2357 C 219.626 -3.9529 3.09921 0
M  V30 2358 C 221.62 -3.89725 5.04374 0
M  V30 2359 C 219.307 -4.20941 4.43004 0
M  V30 2360 C 220.305 -4.18147 5.40039 0
M  V30 2361 O 219.993 -4.43153 6.70724 0
M  V30 2362 H 219.725 -0.597114 0.316908 0
M  V30 2363 H 222.279 -1.41782 1.48617 0
M  V30 2364 H 220.509 -3.81826 0.611999 0
M  V30 2365 H 222.198 -3.92986 1.01573 0
M  V30 2366 H 222.964 -3.41389 3.44498 0
M  V30 2367 H 218.843 -3.966 2.35009 0
M  V30 2368 H 222.387 -3.8746 5.80104 0
M  V30 2369 H 218.284 -4.42761 4.69716 0
M  V30 2370 H 219.052 -4.60717 6.76522 0
M  V30 2371 N 221.715 -0.905404 -1.28997 0
M  V30 2372 C 223.126 -0.581953 -1.77398 0
M  V30 2373 C 223.477 0.902552 -1.74208 0
M  V30 2374 O 222.602 1.70584 -1.33154 0
M  V30 2375 C 223.197 -1.04961 -3.22131 0
M  V30 2376 C 221.756 -0.777229 -3.68288 0
M  V30 2377 C 220.903 -1.22109 -2.48967 0
M  V30 2378 H 223.854 -1.08754 -1.15578 0
M  V30 2379 H 223.875 -0.387387 -3.78523 0
M  V30 2380 H 223.387 -2.13008 -3.24421 0
M  V30 2381 H 221.488 0.290383 -3.71467 0
M  V30 2382 H 221.601 -1.37911 -4.58822 0
M  V30 2383 H 219.965 -0.639971 -2.46529 0
M  V30 2384 H 220.748 -2.30972 -2.53982 0
M  V30 2385 N 223.193 1.4272 -0.668489 0
M  V30 2386 C 224.47 1.95248 -0.117373 0
M  V30 2387 C 224.85 1.60919 1.36632 0
M  V30 2388 O 224.198 0.902095 2.09939 0
M  V30 2389 C 224.408 3.46927 -0.379806 0
M  V30 2390 C 225.756 4.23588 -0.292923 0
M  V30 2391 O 226.78 3.5482 -0.313204 0
M  V30 2392 O 225.639 5.46017 -0.229697 0
M  V30 2393 H 222.733 0.827 0.00079152 0
M  V30 2394 H 225.279 1.52581 -0.742783 0
M  V30 2395 H 224.051 3.65096 -1.40786 0
M  V30 2396 H 223.674 3.96627 0.277923 0
M  V30 2397 N 224.671 0.411399 1.52136 0
M  V30 2398 C 225.918 -0.163645 2.01838 0
M  V30 2399 C 226.246 -1.4495 1.29691 0
M  V30 2400 O 225.501 -1.91725 0.392431 0
M  V30 2401 C 225.8 -0.455872 3.54481 0
M  V30 2402 C 225.466 0.741055 4.44769 0
M  V30 2403 C 224.128 1.06936 4.69167 0
M  V30 2404 C 226.48 1.54075 4.97906 0
M  V30 2405 C 223.808 2.19851 5.43951 0
M  V30 2406 C 226.16 2.66067 5.73926 0
M  V30 2407 C 224.824 2.99381 5.96596 0
M  V30 2408 H 224.094 -0.0598821 0.738576 0
M  V30 2409 H 226.741 0.553283 1.83333 0
M  V30 2410 H 225.046 -1.2544 3.71177 0
M  V30 2411 H 226.743 -0.913802 3.90449 0
M  V30 2412 H 223.333 0.475192 4.25958 0
M  V30 2413 H 227.517 1.30033 4.78963 0
M  V30 2414 H 222.773 2.46006 5.59724 0
M  V30 2415 H 226.947 3.28419 6.14096 0
M  V30 2416 H 224.574 3.86992 6.54325 0
M  V30 2417 N 226.149 -1.5696 0.141893 0
M  V30 2418 C 227.374 -2.00754 -0.520838 0
M  V30 2419 C 227.799 -1.0213 -1.57959 0
M  V30 2420 O 227.157 0.00371324 -1.813 0
M  V30 2421 C 227.205 -3.43318 -1.10294 0
M  V30 2422 O 226.309 -3.47679 -2.21795 0
M  V30 2423 H 225.65 -0.651564 -0.127908 0
M  V30 2424 H 228.18 -2.03221 0.23712 0
M  V30 2425 H 228.19 -3.82012 -1.43287 0
M  V30 2426 H 226.865 -4.14608 -0.327574 0
M  V30 2427 H 225.442 -3.20824 -1.9007 0
M  V30 2428 N 227.627 0.131896 -1.57047 0
M  V30 2429 C 228.852 0.860418 -1.8871 0
M  V30 2430 C 229.277 1.73251 -0.73251 0
M  V30 2431 O 228.635 1.785 0.317429 0
M  V30 2432 C 228.683 1.68047 -3.19049 0
M  V30 2433 O 227.787 2.7862 -3.04047 0
M  V30 2434 H 227.128 0.238743 -0.619595 0
M  V30 2435 H 229.658 0.118169 -2.04258 0
M  V30 2436 H 229.668 2.07238 -3.51449 0
M  V30 2437 H 228.343 1.04018 -4.02682 0
M  V30 2438 H 226.92 2.42726 -2.83088 0
M  V30 2439 N 229.106 1.52395 0.401703 0
M  V30 2440 C 230.036 1.79231 1.49661 0
M  V30 2441 C 231.017 0.643654 1.57452 0
M  V30 2442 O 232.202 0.889989 1.72606 0
M  V30 2443 C 229.332 1.94971 2.87409 0
M  V30 2444 C 228.286 3.10604 2.94465 0
M  V30 2445 C 227.612 3.11577 4.34538 0
M  V30 2446 C 228.912 4.49921 2.6527 0
M  V30 2447 H 230.606 2.70917 1.27454 0
M  V30 2448 H 228.152 1.30362 0.6117 0
M  V30 2449 H 230.105 2.12328 3.63999 0
M  V30 2450 H 228.829 0.999632 3.10926 0
M  V30 2451 H 227.488 2.93009 2.20321 0
M  V30 2452 H 227.136 2.14277 4.55076 0
M  V30 2453 H 226.836 3.89247 4.40183 0
M  V30 2454 H 228.36 3.31073 5.13053 0
M  V30 2455 H 229.774 4.67683 3.31581 0
M  V30 2456 H 228.171 5.29564 2.82281 0
M  V30 2457 H 229.241 4.57507 1.60671 0
M  V30 2458 N 230.584 -0.659388 1.43143 0
M  V30 2459 C 231.809 -1.45221 1.48073 0
M  V30 2460 C 232.234 -1.87845 0.097995 0
M  V30 2461 O 231.592 -1.56985 -0.90694 0
M  V30 2462 C 231.64 -2.66748 2.42647 0
M  V30 2463 O 230.744 -3.65583 1.90848 0
M  V30 2464 H 230.085 -0.435669 0.501088 0
M  V30 2465 H 232.615 -0.807432 1.87994 0
M  V30 2466 H 232.625 -3.14637 2.59745 0
M  V30 2467 H 231.3 -2.35067 3.43098 0
M  V30 2468 H 229.877 -3.24693 1.83381 0
M  V30 2469 N 232.062 -1.29571 -0.897171 0
M  V30 2470 C 233.478 -1.07637 -1.17841 0
M  V30 2471 C 233.678 0.170713 -2.00776 0
M  V30 2472 O 232.734 0.867768 -2.3712 0
M  V30 2473 C 234.047 -2.3332 -1.8969 0
M  V30 2474 C 235.595 -2.38664 -2.02505 0
M  V30 2475 C 236.07 -3.64157 -2.77765 0
M  V30 2476 N 237.561 -3.64894 -2.85318 0
M  V30 2477 C 238.296 -4.58679 -3.44094 0
M  V30 2478 N 237.792 -5.62799 -4.04017 0
M  V30 2479 N 239.585 -4.46245 -3.41793 0
M  V30 2480 H 231.736 -2.09598 -0.343883 0
M  V30 2481 H 233.999 -0.923333 -0.214848 0
M  V30 2482 H 233.705 -3.24262 -1.36187 0
M  V30 2483 H 233.579 -2.41025 -2.9015 0
M  V30 2484 H 235.966 -1.48208 -2.55183 0
M  V30 2485 H 236.047 -2.34943 -1.01171 0
M  V30 2486 H 235.691 -4.54965 -2.25763 0
M  V30 2487 H 235.621 -3.65137 -3.7945 0
M  V30 2488 H 238.112 -2.89613 -2.42761 0
M  V30 2489 H 238.425 -6.3048 -4.46895 0
M  V30 2490 H 236.77 -5.66605 -4.02472 0
M  V30 2491 H 239.961 -3.64094 -2.94199 0
M  V30 2492 H 240.134 -5.19518 -3.87304 0
M  V30 2493 N 233.54 1.10788 -1.12088 0
M  V30 2494 C 234.503 2.15207 -0.788577 0
M  V30 2495 C 235.503 1.59609 0.195317 0
M  V30 2496 O 236.693 1.74174 -0.0300193 0
M  V30 2497 C 233.825 3.4047 -0.171174 0
M  V30 2498 H 235.018 2.46116 -1.71368 0
M  V30 2499 H 232.571 1.26089 -0.923652 0
M  V30 2500 H 233.306 3.15176 0.763832 0
M  V30 2501 H 233.091 3.82109 -0.879514 0
M  V30 2502 H 234.581 4.17576 0.04496 0
M  V30 2503 N 235.018 0.912232 1.28515 0
M  V30 2504 C 236.267 0.540504 1.94323 0
M  V30 2505 C 236.58 -0.920044 1.72611 0
M  V30 2506 O 237.786 -1.39986 2.32629 0
M  V30 2507 C 236.242 0.915803 3.48053 0
M  V30 2508 C 235.85 2.39598 3.78546 0
M  V30 2509 C 237.594 0.614588 4.20027 0
M  V30 2510 C 235.501 2.71148 5.25578 0
M  V30 2511 H 234.431 0.198418 0.727424 0
M  V30 2512 H 237.082 1.11094 1.46049 0
M  V30 2513 H 235.464 0.274168 3.9505 0
M  V30 2514 H 236.638 3.08422 3.42364 0
M  V30 2515 H 234.953 2.66749 3.1974 0
M  V30 2516 H 237.55 0.827002 5.28266 0
M  V30 2517 H 237.893 -0.447531 4.13887 0
M  V30 2518 H 238.426 1.21462 3.78803 0
M  V30 2519 H 235.165 3.76207 5.36794 0
M  V30 2520 H 234.685 2.0696 5.62963 0
M  V30 2521 H 236.364 2.58072 5.93302 0
M  V30 2522 N 236.496 -1.42363 0.676048 0
M  V30 2523 C 237.426 -2.33497 0.0124832 0
M  V30 2524 C 238.407 -1.50748 -0.787981 0
M  V30 2525 O 239.592 -1.79346 -0.744884 0
M  V30 2526 C 236.722 -3.34377 -0.938582 0
M  V30 2527 C 235.676 -4.27289 -0.246622 0
M  V30 2528 C 235.002 -5.18386 -1.31071 0
M  V30 2529 C 236.302 -5.14916 0.875125 0
M  V30 2530 H 237.996 -2.89233 0.773593 0
M  V30 2531 H 235.542 -1.39073 0.37346 0
M  V30 2532 H 237.495 -3.97044 -1.41188 0
M  V30 2533 H 236.219 -2.76947 -1.73113 0
M  V30 2534 H 234.878 -3.66018 0.206456 0
M  V30 2535 H 234.526 -4.57282 -2.09528 0
M  V30 2536 H 234.226 -5.81378 -0.852839 0
M  V30 2537 H 235.75 -5.83929 -1.78492 0
M  V30 2538 H 237.164 -5.71262 0.482983 0
M  V30 2539 H 235.561 -5.86747 1.25887 0
M  V30 2540 H 236.631 -4.53242 1.72335 0
M  V30 2541 N 237.974 -0.419461 -1.51915 0
M  V30 2542 C 239.251 0.211999 -1.94448 0
M  V30 2543 C 239.631 1.61703 -1.35703 0
M  V30 2544 O 238.979 2.22102 -0.536931 0
M  V30 2545 C 239.189 0.207872 -3.4838 0
M  V30 2546 C 240.537 0.422192 -4.22496 0
M  V30 2547 O 241.561 0.286778 -3.55044 0
M  V30 2548 O 240.42 0.690009 -5.42126 0
M  V30 2549 H 237.514 0.139586 -0.815135 0
M  V30 2550 H 240.06 -0.476151 -1.62883 0
M  V30 2551 H 238.832 -0.775102 -3.83546 0
M  V30 2552 H 238.455 0.939688 -3.86336 0
M  V30 2553 N 239.452 1.56882 -0.150215 0
M  V30 2554 C 240.382 2.19935 0.784284 0
M  V30 2555 C 241.363 1.14854 1.25469 0
M  V30 2556 O 242.548 1.43209 1.31168 0
M  V30 2557 C 239.678 2.82349 2.02229 0
M  V30 2558 C 238.632 3.93285 1.68853 0
M  V30 2559 C 237.958 4.42649 2.99944 0
M  V30 2560 C 239.258 5.13904 0.932714 0
M  V30 2561 H 240.952 2.9828 0.258781 0
M  V30 2562 H 238.498 1.43473 0.123029 0
M  V30 2563 H 240.451 3.25126 2.68088 0
M  V30 2564 H 239.175 2.0134 2.57157 0
M  V30 2565 H 237.834 3.5113 1.05371 0
M  V30 2566 H 237.482 3.58458 3.52869 0
M  V30 2567 H 237.182 5.17476 2.78374 0
M  V30 2568 H 238.706 4.88099 3.66868 0
M  V30 2569 H 240.12 5.53506 1.49345 0
M  V30 2570 H 238.517 5.94515 0.81684 0
M  V30 2571 H 239.587 4.84842 -0.0749568 0
M  V30 2572 N 240.93 -0.123565 1.57115 0
M  V30 2573 C 242.176 -0.833386 1.84885 0
M  V30 2574 C 242.509 -1.79742 0.735292 0
M  V30 2575 O 241.784 -1.92764 -0.25925 0
M  V30 2576 C 242.067 -1.5873 3.23228 0
M  V30 2577 C 241.92 -0.643183 4.45178 0
M  V30 2578 C 243.239 -2.54453 3.59085 0
M  V30 2579 H 240.358 -0.301518 0.6725 0
M  V30 2580 H 243 -0.097778 1.89748 0
M  V30 2581 H 241.15 -2.21438 3.19214 0
M  V30 2582 H 242.822 -0.0253015 4.61293 0
M  V30 2583 H 241.065 0.0456139 4.33776 0
M  V30 2584 H 241.736 -1.20724 5.38637 0
M  V30 2585 H 244.212 -2.01853 3.63861 0
M  V30 2586 H 243.088 -3.04238 4.5687 0
M  V30 2587 H 243.349 -3.36906 2.86264 0
M  V30 2588 N 242.408 -1.52605 -0.393616 0
M  V30 2589 C 243.34 -1.73303 -1.49995 0
M  V30 2590 C 244.353 -0.613473 -1.50799 0
M  V30 2591 O 245.542 -0.889049 -1.54784 0
M  V30 2592 C 242.642 -1.77245 -2.88855 0
M  V30 2593 C 241.815 -3.06483 -3.12069 0
M  V30 2594 C 240.874 -3.02033 -4.30886 0
M  V30 2595 O 239.9 -3.75907 -4.27414 0
M  V30 2596 N 241.102 -2.20897 -5.36828 0
M  V30 2597 H 243.867 -2.68756 -1.32629 0
M  V30 2598 H 241.428 -1.51036 -0.583083 0
M  V30 2599 H 243.42 -1.7178 -3.66434 0
M  V30 2600 H 241.99 -0.891993 -2.99603 0
M  V30 2601 H 241.21 -3.25474 -2.22396 0
M  V30 2602 H 242.498 -3.91947 -3.2443 0
M  V30 2603 H 241.896 -1.60336 -5.42502 0
M  V30 2604 H 240.453 -2.21275 -6.13091 0
M  V30 2605 N 243.887 0.651787 -1.4349 0
M  V30 2606 C 245.134 1.41167 -1.45183 0
M  V30 2607 C 245.462 1.94349 -0.0766601 0
M  V30 2608 O 244.717 1.72804 0.918555 0
M  V30 2609 C 245.016 2.60914 -2.44251 0
M  V30 2610 C 244.682 2.26142 -3.9009 0
M  V30 2611 C 243.344 2.16371 -4.2981 0
M  V30 2612 C 245.696 1.98334 -4.81989 0
M  V30 2613 C 243.024 1.7695 -5.5938 0
M  V30 2614 C 245.376 1.6041 -6.11924 0
M  V30 2615 C 244.04 1.49166 -6.5062 0
M  V30 2616 H 243.31 0.516566 -0.531263 0
M  V30 2617 H 245.957 0.741099 -1.76579 0
M  V30 2618 H 244.262 3.3311 -2.06265 0
M  V30 2619 H 245.959 3.19127 -2.42815 0
M  V30 2620 H 242.549 2.34658 -3.58655 0
M  V30 2621 H 246.733 2.04803 -4.52072 0
M  V30 2622 H 241.989 1.66831 -5.88198 0
M  V30 2623 H 246.163 1.37925 -6.82605 0
M  V30 2624 H 243.79 1.1839 -7.50925 0
M  V30 2625 N 245.365 1.30045 0.890287 0
M  V30 2626 C 246.612 1.18561 1.64163 0
M  V30 2627 C 246.94 -0.260852 1.92743 0
M  V30 2628 O 246.195 -1.20376 1.54299 0
M  V30 2629 C 246.494 1.95409 2.99249 0
M  V30 2630 C 246.16 3.45066 2.90242 0
M  V30 2631 C 244.822 3.85878 2.87492 0
M  V30 2632 C 247.174 4.4039 2.78758 0
M  V30 2633 C 244.502 5.20314 2.7109 0
M  V30 2634 C 246.854 5.74928 2.63894 0
M  V30 2635 C 245.518 6.14986 2.59516 0
M  V30 2636 H 244.788 0.433846 0.600715 0
M  V30 2637 H 247.435 1.61088 1.03552 0
M  V30 2638 H 245.74 1.45501 3.63781 0
M  V30 2639 H 247.437 1.8392 3.56334 0
M  V30 2640 H 244.027 3.12631 2.93189 0
M  V30 2641 H 248.211 4.09806 2.79952 0
M  V30 2642 H 243.467 5.50449 2.66112 0
M  V30 2643 H 247.641 6.48434 2.53981 0
M  V30 2644 H 245.268 7.19104 2.46565 0
M  V30 2645 N 246.843 -1.10192 1.12674 0
M  V30 2646 C 247.79 -2.16606 0.796906 0
M  V30 2647 C 248.76 -1.64394 -0.237476 0
M  V30 2648 O 249.945 -1.90474 -0.111484 0
M  V30 2649 C 247.085 -3.44116 0.26043 0
M  V30 2650 C 246.198 -4.10268 1.35293 0
M  V30 2651 C 245.333 -5.25507 0.775621 0
M  V30 2652 C 244.372 -5.83567 1.84706 0
M  V30 2653 N 243.509 -6.90179 1.28829 0
M  V30 2654 H 248.349 -2.44163 1.70846 0
M  V30 2655 H 245.886 -1.19846 0.85295 0
M  V30 2656 H 247.844 -4.17143 -0.0686814 0
M  V30 2657 H 246.474 -3.16901 -0.614274 0
M  V30 2658 H 245.526 -3.35184 1.79877 0
M  V30 2659 H 246.838 -4.4946 2.16303 0
M  V30 2660 H 245.992 -6.05398 0.397327 0
M  V30 2661 H 244.731 -4.87656 -0.0656581 0
M  V30 2662 H 243.736 -5.02344 2.23452 0
M  V30 2663 H 244.961 -6.23482 2.69161 0
M  V30 2664 H 242.907 -6.54322 0.468881 0
M  V30 2665 H 242.824 -7.28097 2.03497 0
M  V30 2666 H 244.092 -7.73844 0.937311 0
M  V30 2667 N 248.321 -0.919034 -1.28029 0
M  V30 2668 C 249.567 -0.565221 -1.95389 0
M  V30 2669 C 249.922 0.882325 -1.70976 0
M  V30 2670 O 249.215 1.61988 -1.02325 0
M  V30 2671 C 249.409 -0.816855 -3.4794 0
M  V30 2672 C 249.238 -2.28731 -3.87185 0
M  V30 2673 C 248.008 -2.93841 -4.11079 0
M  V30 2674 C 250.206 -3.26415 -3.97439 0
M  V30 2675 N 248.188 -4.31129 -4.37037 0
M  V30 2676 C 249.559 -4.48884 -4.27672 0
M  V30 2677 C 251.614 -3.21742 -3.79982 0
M  V30 2678 C 250.317 -5.67268 -4.42266 0
M  V30 2679 C 252.343 -4.39431 -3.95796 0
M  V30 2680 C 251.705 -5.60675 -4.26407 0
M  V30 2681 H 247.804 -0.256797 -0.738633 0
M  V30 2682 H 250.388 -1.18386 -1.54573 0
M  V30 2683 H 248.559 -0.227445 -3.87733 0
M  V30 2684 H 250.291 -0.426542 -4.02446 0
M  V30 2685 H 247.046 -2.44547 -4.05578 0
M  V30 2686 H 247.47 -5.02127 -4.5409 0
M  V30 2687 H 252.112 -2.29079 -3.55363 0
M  V30 2688 H 249.83 -6.60406 -4.65714 0
M  V30 2689 H 253.416 -4.37323 -3.83719 0
M  V30 2690 H 252.296 -6.50223 -4.38383 0
M  V30 2691 N 249.799 1.42003 -0.683588 0
M  V30 2692 C 250.746 2.30798 -0.0107309 0
M  V30 2693 C 251.716 1.4645 0.783688 0
M  V30 2694 O 252.901 1.75263 0.754156 0
M  V30 2695 C 250.041 3.3238 0.928306 0
M  V30 2696 C 249.154 4.31814 0.126776 0
M  V30 2697 C 248.289 5.20468 1.06236 0
M  V30 2698 C 247.328 6.11577 0.253035 0
M  V30 2699 N 246.465 6.92754 1.14179 0
M  V30 2700 H 251.305 2.8778 -0.773727 0
M  V30 2701 H 248.842 1.41745 -0.393283 0
M  V30 2702 H 250.8 3.89813 1.48666 0
M  V30 2703 H 249.43 2.76976 1.65783 0
M  V30 2704 H 248.482 3.76427 -0.54833 0
M  V30 2705 H 249.794 4.96276 -0.501192 0
M  V30 2706 H 248.948 5.82677 1.69035 0
M  V30 2707 H 247.687 4.56204 1.7242 0
M  V30 2708 H 246.692 5.48428 -0.388108 0
M  V30 2709 H 247.917 6.77892 -0.404839 0
M  V30 2710 H 245.863 6.3111 1.78987 0
M  V30 2711 H 245.78 7.53855 0.569111 0
M  V30 2712 H 247.048 7.59441 1.75697 0
M  V30 2713 N 251.277 0.427512 1.51691 0
M  V30 2714 C 252.505 -0.141191 2.06418 0
M  V30 2715 C 252.92 -1.37303 1.29589 0
M  V30 2716 O 252.277 -1.79059 0.352732 0
M  V30 2717 C 252.328 -0.473266 3.58389 0
M  V30 2718 O 252.049 0.709673 4.32314 0
M  V30 2719 C 253.55 -1.09371 4.29596 0
M  V30 2720 H 250.77 -0.0122747 0.670888 0
M  V30 2721 H 253.314 0.603764 1.95384 0
M  V30 2722 H 251.469 -1.16812 3.69369 0
M  V30 2723 H 251.883 0.42807 5.2275 0
M  V30 2724 H 253.357 -1.27613 5.37046 0
M  V30 2725 H 253.834 -2.072 3.87253 0
M  V30 2726 H 254.44 -0.43853 4.23033 0
M  V30 2727 N 252.755 -1.56801 0.158532 0
M  V30 2728 C 254.001 -1.96781 -0.490405 0
M  V30 2729 C 254.334 -1.04397 -1.63753 0
M  V30 2730 O 253.609 -0.0885805 -1.94298 0
M  V30 2731 C 253.892 -3.4635 -0.985594 0
M  V30 2732 C 253.745 -4.49512 0.160824 0
M  V30 2733 C 255.064 -3.98697 -1.86355 0
M  V30 2734 H 252.183 -0.715482 -0.176788 0
M  V30 2735 H 254.825 -1.88451 0.242088 0
M  V30 2736 H 252.975 -3.53579 -1.60978 0
M  V30 2737 H 254.647 -4.54353 0.797537 0
M  V30 2738 H 252.89 -4.26013 0.818256 0
M  V30 2739 H 253.561 -5.51531 -0.227569 0
M  V30 2740 H 256.037 -3.94019 -1.33746 0
M  V30 2741 H 254.913 -5.03792 -2.17909 0
M  V30 2742 H 255.174 -3.41744 -2.8047 0
M  V30 2743 N 254.233 0.115231 -1.57178 0
M  V30 2744 C 255.461 0.836437 -1.89239 0
M  V30 2745 C 255.876 1.73256 -0.750175 0
M  V30 2746 O 255.233 1.80357 0.278832 0
M  V30 2747 C 255.284 1.66671 -3.20785 0
M  V30 2748 O 255.005 0.806652 -4.3061 0
M  V30 2749 C 256.506 2.49274 -3.66575 0
M  V30 2750 H 253.726 0.240253 -0.626514 0
M  V30 2751 H 256.27 0.0984932 -2.04263 0
M  V30 2752 H 254.425 2.35737 -3.0742 0
M  V30 2753 H 254.839 1.37969 -5.06028 0
M  V30 2754 H 256.313 3.03055 -4.6137 0
M  V30 2755 H 256.79 3.26807 -2.93417 0
M  V30 2756 H 257.396 1.85443 -3.82741 0
M  V30 2757 N 255.711 1.52812 0.385517 0
M  V30 2758 C 256.957 1.68275 1.13188 0
M  V30 2759 C 257.29 0.423179 1.89533 0
M  V30 2760 O 256.565 -0.579113 1.85679 0
M  V30 2761 C 256.848 2.92001 2.1073 0
M  V30 2762 C 256.701 4.28067 1.38125 0
M  V30 2763 C 258.02 3.11283 3.11113 0
M  V30 2764 H 255.139 0.612352 0.410115 0
M  V30 2765 H 257.781 1.85415 0.414869 0
M  V30 2766 H 255.931 2.77519 2.71874 0
M  V30 2767 H 257.603 4.54324 0.799187 0
M  V30 2768 H 255.846 4.28388 0.683092 0
M  V30 2769 H 256.517 5.10733 2.09417 0
M  V30 2770 H 258.993 3.2482 2.6006 0
M  V30 2771 H 257.869 3.99325 3.76605 0
M  V30 2772 H 258.13 2.25656 3.80173 0
M  V30 2773 N 257.189 -0.644168 1.43834 0
M  V30 2774 C 258.435 -1.40603 1.46146 0
M  V30 2775 C 258.768 -1.93997 0.0887717 0
M  V30 2776 O 258.043 -1.72854 -0.891724 0
M  V30 2777 C 258.326 -2.58086 2.51124 0
M  V30 2778 C 258.179 -2.10126 3.97702 0
M  V30 2779 C 259.498 -3.60291 2.52742 0
M  V30 2780 H 256.617 -0.509905 0.532134 0
M  V30 2781 H 259.259 -0.729502 1.75437 0
M  V30 2782 H 257.409 -3.15801 2.26278 0
M  V30 2783 H 259.081 -1.57342 4.33637 0
M  V30 2784 H 257.324 -1.41419 4.10101 0
M  V30 2785 H 257.995 -2.94649 4.66783 0
M  V30 2786 H 260.471 -3.12352 2.7491 0
M  V30 2787 H 259.347 -4.40032 3.28121 0
M  V30 2788 H 259.608 -4.1349 1.56455 0
M  V30 2789 N 258.668 -1.30515 -0.883378 0
M  V30 2790 C 259.898 -1.22182 -1.66599 0
M  V30 2791 C 260.306 0.217507 -1.87946 0
M  V30 2792 O 259.649 1.1554 -1.42815 0
M  V30 2793 C 259.711 -1.88146 -3.06335 0
M  V30 2794 C 259.375 -3.37476 -3.08154 0
M  V30 2795 C 260.372 -4.33443 -2.87094 0
M  V30 2796 C 258.057 -3.7895 -3.29701 0
M  V30 2797 C 260.051 -5.68858 -2.8754 0
M  V30 2798 C 257.738 -5.14482 -3.29776 0
M  V30 2799 C 258.736 -6.09246 -3.0872 0
M  V30 2800 O 258.424 -7.42302 -3.08615 0
M  V30 2801 H 258.156 -0.423898 -0.52658 0
M  V30 2802 H 260.71 -1.72703 -1.11188 0
M  V30 2803 H 258.94 -1.32157 -3.63416 0
M  V30 2804 H 260.629 -1.7391 -3.66756 0
M  V30 2805 H 261.395 -4.02733 -2.70243 0
M  V30 2806 H 257.274 -3.05631 -3.45124 0
M  V30 2807 H 260.818 -6.428 -2.71024 0
M  V30 2808 H 256.715 -5.44832 -3.46163 0
M  V30 2809 H 257.483 -7.5131 -3.24769 0
M  V30 2810 N 260.146 1.09593 -1.13257 0
M  V30 2811 C 261.423 1.78293 -0.804432 0
M  V30 2812 C 261.803 1.99004 0.70431 0
M  V30 2813 O 261.151 1.59007 1.641 0
M  V30 2814 C 261.361 3.10707 -1.5894 0
M  V30 2815 C 262.709 3.85443 -1.78099 0
M  V30 2816 O 263.733 3.20454 -1.55525 0
M  V30 2817 O 262.592 5.02108 -2.15753 0
M  V30 2818 H 259.686 0.773156 -0.293528 0
M  V30 2819 H 262.232 1.16164 -1.23709 0
M  V30 2820 H 261.004 2.91106 -2.61482 0
M  V30 2821 H 260.627 3.80558 -1.15157 0
M  V30 2822 N 261.624 0.925811 1.2754 0
M  V30 2823 C 262.901 0.483726 1.89524 0
M  V30 2824 C 263.281 -1.03809 1.83812 0
M  V30 2825 O 262.629 -1.89143 1.28207 0
M  V30 2826 C 262.839 1.02769 3.33526 0
M  V30 2827 C 264.187 1.08703 4.10449 0
M  V30 2828 O 265.211 0.977175 3.42534 0
M  V30 2829 O 264.07 1.25599 5.31871 0
M  V30 2830 H 261.164 0.15529 0.812289 0
M  V30 2831 H 263.71 1.01738 1.35822 0
M  V30 2832 H 262.482 2.07155 3.31967 0
M  V30 2833 H 262.105 0.475567 3.94746 0
M  V30 2834 N 263.102 -1.41638 0.69111 0
M  V30 2835 C 264.327 -2.06148 0.227583 0
M  V30 2836 C 264.752 -1.51652 -1.11281 0
M  V30 2837 O 264.11 -0.64164 -1.69566 0
M  V30 2838 C 264.158 -3.60095 0.190858 0
M  V30 2839 O 263.262 -4.03845 -0.835664 0
M  V30 2840 H 262.603 -0.654434 0.112306 0
M  V30 2841 H 265.133 -1.81484 0.944714 0
M  V30 2842 H 265.143 -4.07995 0.020207 0
M  V30 2843 H 263.818 -3.99129 1.16915 0
M  V30 2844 H 262.395 -3.67458 -0.63473 0
M  V30 2845 N 264.58 -0.43555 -1.51462 0
M  V30 2846 C 265.808 0.130242 -2.0649 0
M  V30 2847 C 266.223 1.36614 -1.30315 0
M  V30 2848 O 265.58 1.78869 -0.362223 0
M  V30 2849 C 265.631 0.454253 -3.58635 0
M  V30 2850 O 265.352 -0.73259 -4.31931 0
M  V30 2851 C 266.853 1.07091 -4.3017 0
M  V30 2852 H 264.073 0.00871669 -0.670943 0
M  V30 2853 H 266.617 -0.614117 -1.95061 0
M  V30 2854 H 264.772 1.14851 -3.69984 0
M  V30 2855 H 265.186 -0.455787 -5.22516 0
M  V30 2856 H 266.66 1.24764 -5.37716 0
M  V30 2857 H 267.137 2.05144 -3.88346 0
M  V30 2858 H 267.743 0.416089 -4.2326 0
M  V30 2859 N 266.058 1.56714 -0.166846 0
M  V30 2860 C 267.306 1.96358 0.478305 0
M  V30 2861 C 267.627 1.0537 1.6408 0
M  V30 2862 O 266.897 0.119154 1.95537 0
M  V30 2863 H 265.477 0.725065 0.179692 0
M  V30 2864 H 268.139 1.93329 -0.246985 0
M  V30 2865 H 267.235 3.00547 0.841292 0
M  V30 2866 N 267.536 -0.106894 1.57237 0
M  V30 2867 C 268.466 -1.13148 2.04254 0
M  V30 2868 C 269.447 -1.42476 0.929224 0
M  V30 2869 O 270.632 -1.52709 1.19973 0
M  V30 2870 C 267.762 -2.4545 2.45706 0
M  V30 2871 C 266.716 -2.30558 3.60592 0
M  V30 2872 C 266.042 -3.67931 3.87983 0
M  V30 2873 C 267.342 -1.75597 4.91897 0
M  V30 2874 H 269.036 -0.740374 2.90101 0
M  V30 2875 H 266.582 -0.354696 1.39563 0
M  V30 2876 H 268.535 -3.17389 2.77205 0
M  V30 2877 H 267.259 -2.86475 1.56843 0
M  V30 2878 H 265.918 -1.61067 3.29322 0
M  V30 2879 H 265.566 -4.06462 2.96306 0
M  V30 2880 H 265.266 -3.58817 4.65322 0
M  V30 2881 H 266.79 -4.41356 4.21945 0
M  V30 2882 H 268.204 -2.37364 5.21854 0
M  V30 2883 H 266.601 -1.77272 5.73319 0
M  V30 2884 H 267.671 -0.714451 4.79608 0
M  V30 2885 N 269.014 -1.53014 -0.377408 0
M  V30 2886 C 270.263 -1.67845 -1.11853 0
M  V30 2887 C 270.576 -0.430625 -1.90801 0
M  V30 2888 O 271.782 -0.459261 -2.67587 0
M  V30 2889 C 270.238 -2.96668 -2.03756 0
M  V30 2890 C 269.846 -4.28671 -1.30175 0
M  V30 2891 C 271.59 -3.20865 -2.77932 0
M  V30 2892 C 269.497 -5.48591 -2.20911 0
M  V30 2893 H 268.427 -0.625343 -0.421263 0
M  V30 2894 H 271.078 -1.79514 -0.380409 0
M  V30 2895 H 269.46 -2.78773 -2.8125 0
M  V30 2896 H 270.634 -4.57157 -0.578259 0
M  V30 2897 H 268.949 -4.10825 -0.679108 0
M  V30 2898 H 271.546 -4.07642 -3.46024 0
M  V30 2899 H 271.889 -2.36424 -3.4265 0
M  V30 2900 H 272.422 -3.39379 -2.07525 0
M  V30 2901 H 269.161 -6.35474 -1.6079 0
M  V30 2902 H 268.681 -5.244 -2.91144 0
M  V30 2903 H 270.36 -5.8292 -2.80736 0
M  V30 2904 N 270.492 0.636531 -1.44174 0
M  V30 2905 C 271.908 0.954104 -1.27941 0
M  V30 2906 C 272.108 2.0039 -0.211248 0
M  V30 2907 O 271.164 2.49236 0.404695 0
M  V30 2908 C 272.477 1.4225 -2.64925 0
M  V30 2909 C 274.025 1.53827 -2.72592 0
M  V30 2910 C 274.5 2.04053 -4.10032 0
M  V30 2911 N 275.991 2.11331 -4.12182 0
M  V30 2912 C 276.726 2.51352 -5.15374 0
M  V30 2913 N 276.222 2.90549 -6.2893 0
M  V30 2914 N 278.015 2.51438 -5.02728 0
M  V30 2915 H 270.166 -0.0578386 -2.12321 0
M  V30 2916 H 272.429 0.0367406 -0.947288 0
M  V30 2917 H 272.135 0.725466 -3.44136 0
M  V30 2918 H 272.009 2.39451 -2.9145 0
M  V30 2919 H 274.396 2.22628 -1.93702 0
M  V30 2920 H 274.477 0.550154 -2.49814 0
M  V30 2921 H 274.121 1.35848 -4.89395 0
M  V30 2922 H 274.051 3.03726 -4.30184 0
M  V30 2923 H 276.542 1.83745 -3.30222 0
M  V30 2924 H 276.855 3.19884 -7.03487 0
M  V30 2925 H 275.2 2.88313 -6.32377 0
M  V30 2926 H 278.391 2.20203 -4.13072 0
M  V30 2927 H 278.564 2.82304 -5.83274 0
M  V30 2928 N 271.97 1.30982 0.876444 0
M  V30 2929 C 272.9 1.20668 1.99903 0
M  V30 2930 C 273.881 0.095354 1.69833 0
M  V30 2931 O 275.066 0.27885 1.92188 0
M  V30 2932 C 272.196 0.90655 3.3526 0
M  V30 2933 C 271.15 1.97675 3.79617 0
M  V30 2934 C 270.476 1.52943 5.1236 0
M  V30 2935 C 271.776 3.389 3.97422 0
M  V30 2936 H 273.47 2.14586 2.0879 0
M  V30 2937 H 271.016 1.03308 1.00317 0
M  V30 2938 H 272.969 0.821025 4.13324 0
M  V30 2939 H 271.693 -0.0682969 3.26529 0
M  V30 2940 H 270.352 2.05205 3.03787 0
M  V30 2941 H 270 0.54262 5.00065 0
M  V30 2942 H 269.7 2.24532 5.43009 0
M  V30 2943 H 271.224 1.45786 5.92941 0
M  V30 2944 H 272.638 3.34081 4.659 0
M  V30 2945 H 271.035 4.0865 4.3946 0
M  V30 2946 H 272.105 3.80163 3.01006 0
M  V30 2947 N 273.449 -1.08991 1.13837 0
M  V30 2948 C 274.381 -2.15606 0.777612 0
M  V30 2949 C 275.394 -1.61533 -0.202739 0
M  V30 2950 O 276.583 -1.78491 0.0181055 0
M  V30 2951 C 273.683 -3.3864 0.132623 0
M  V30 2952 C 272.856 -4.22115 1.1462 0
M  V30 2953 C 271.915 -5.23564 0.526074 0
M  V30 2954 O 270.941 -5.56678 1.18735 0
M  V30 2955 N 272.143 -5.76266 -0.699866 0
M  V30 2956 H 274.908 -2.47159 1.69506 0
M  V30 2957 H 272.469 -1.24747 1.03198 0
M  V30 2958 H 274.461 -4.03626 -0.29459 0
M  V30 2959 H 273.031 -3.04938 -0.687849 0
M  V30 2960 H 272.251 -3.53199 1.75055 0
M  V30 2961 H 273.539 -4.74709 1.83109 0
M  V30 2962 H 272.937 -5.51585 -1.25581 0
M  V30 2963 H 271.494 -6.42963 -1.06968 0
M  V30 2964 N 274.927 -0.932562 -1.27047 0
M  V30 2965 C 275.837 -0.441219 -2.30414 0
M  V30 2966 C 276.853 0.480525 -1.67233 0
M  V30 2967 O 278.029 0.362151 -1.98117 0
M  V30 2968 C 275.094 0.293651 -3.45454 0
M  V30 2969 C 274.155 -0.663601 -4.2414 0
M  V30 2970 C 273.388 0.0362932 -5.33688 0
M  V30 2971 O 273.611 1.2548 -5.56427 0
M  V30 2972 O 272.545 -0.638015 -5.98509 0
M  V30 2973 H 276.371 -1.29962 -2.74488 0
M  V30 2974 H 273.956 -0.6981 -1.32087 0
M  V30 2975 H 275.838 0.707951 -4.15411 0
M  V30 2976 H 274.513 1.12758 -3.03426 0
M  V30 2977 H 273.42 -1.12768 -3.56699 0
M  V30 2978 H 274.753 -1.46489 -4.69896 0
M  V30 2979 N 276.405 1.4127 -0.698611 0
M  V30 2980 C 277.335 2.33447 -0.049629 0
M  V30 2981 C 278.316 1.51982 0.763898 0
M  V30 2982 O 279.501 1.80509 0.716257 0
M  V30 2983 C 276.631 3.35828 0.885267 0
M  V30 2984 C 275.585 4.27627 0.178613 0
M  V30 2985 C 274.911 5.20406 1.22807 0
M  V30 2986 C 276.211 5.13459 -0.956933 0
M  V30 2987 H 277.905 2.87966 -0.81951 0
M  V30 2988 H 275.451 1.38461 -0.395538 0
M  V30 2989 H 277.404 3.9924 1.34854 0
M  V30 2990 H 276.128 2.79666 1.68685 0
M  V30 2991 H 274.787 3.65643 -0.26466 0
M  V30 2992 H 274.435 4.60558 2.02226 0
M  V30 2993 H 274.135 5.82661 0.760239 0
M  V30 2994 H 275.659 5.86695 1.69179 0
M  V30 2995 H 277.073 5.70421 -0.573805 0
M  V30 2996 H 275.47 5.8467 -1.35205 0
M  V30 2997 H 276.54 4.50443 -1.79524 0
M  V30 2998 N 277.883 0.443576 1.51229 0
M  V30 2999 C 279.132 -0.122332 2.01329 0
M  V30 3000 C 279.445 -1.43237 1.33201 0
M  V30 3001 O 280.651 -2.0816 1.74304 0
M  V30 3002 C 279.107 -0.268551 3.58897 0
M  V30 3003 C 278.715 1.03142 4.35965 0
M  V30 3004 C 280.459 -0.787894 4.17124 0
M  V30 3005 C 278.366 0.850504 5.85252 0
M  V30 3006 H 277.296 -0.0494929 0.752374 0
M  V30 3007 H 279.947 0.574289 1.74282 0
M  V30 3008 H 278.329 -1.02832 3.82415 0
M  V30 3009 H 279.503 1.80001 4.24189 0
M  V30 3010 H 277.818 1.47977 3.89219 0
M  V30 3011 H 280.415 -0.939841 5.26375 0
M  V30 3012 H 280.758 -1.77201 3.76703 0
M  V30 3013 H 281.291 -0.0862669 3.97706 0
M  V30 3014 H 278.03 1.80718 6.30096 0
M  V30 3015 H 277.55 0.121825 5.99676 0
M  V30 3016 H 279.229 0.506163 6.45017 0
M  V30 3017 N 279.361 -1.56624 0.175154 0
M  V30 3018 C 280.308 -2.18149 -0.753634 0
M  V30 3019 C 281.278 -1.12265 -1.22417 0
M  V30 3020 O 282.463 -1.40432 -1.29165 0
M  V30 3021 C 279.603 -2.82933 -1.97592 0
M  V30 3022 C 278.716 -4.03289 -1.5486 0
M  V30 3023 C 277.851 -4.55988 -2.72485 0
M  V30 3024 C 276.89 -5.68746 -2.26262 0
M  V30 3025 N 276.027 -6.15938 -3.36994 0
M  V30 3026 H 280.867 -2.9717 -0.222195 0
M  V30 3027 H 278.404 -1.46774 -0.0979422 0
M  V30 3028 H 280.362 -3.18653 -2.69288 0
M  V30 3029 H 278.992 -2.06509 -2.481 0
M  V30 3030 H 278.044 -3.73364 -0.728246 0
M  V30 3031 H 279.356 -4.849 -1.16933 0
M  V30 3032 H 278.51 -4.9391 -3.52332 0
M  V30 3033 H 277.249 -3.73443 -3.13674 0
M  V30 3034 H 276.254 -5.30372 -1.44863 0
M  V30 3035 H 277.479 -6.53095 -1.86127 0
M  V30 3036 H 275.425 -5.36321 -3.77751 0
M  V30 3037 H 275.342 -6.92548 -3.03172 0
M  V30 3038 H 276.61 -6.58511 -4.17114 0
M  V30 3039 N 280.839 0.0985539 -1.57292 0
M  V30 3040 C 281.802 1.10402 -2.00858 0
M  V30 3041 C 282.802 1.33146 -0.901593 0
M  V30 3042 O 283.992 1.29318 -1.16716 0
M  V30 3043 C 281.124 2.45394 -2.36632 0
M  V30 3044 H 282.317 0.729099 -2.90902 0
M  V30 3045 H 279.87 0.343495 -1.52479 0
M  V30 3046 H 280.605 2.87769 -1.49531 0
M  V30 3047 H 280.39 2.30235 -3.17387 0
M  V30 3048 H 281.88 3.17718 -2.71007 0
M  V30 3049 N 282.317 1.53212 0.369288 0
M  V30 3050 C 283.728 1.60943 0.946276 0
M  V30 3051 C 284.079 0.47452 1.90375 0
M  V30 3052 O 283.204 -0.399597 2.12679 0
M  V30 3053 C 283.799 2.91715 1.72302 0
M  V30 3054 C 282.358 3.01792 2.24941 0
M  V30 3055 C 281.505 2.56211 1.06072 0
M  V30 3056 H 284.456 1.58007 0.148198 0
M  V30 3057 H 284.477 2.79309 2.58393 0
M  V30 3058 H 283.989 3.74295 1.0259 0
M  V30 3059 H 282.09 2.23791 2.97906 0
M  V30 3060 H 282.203 4.06803 2.53077 0
M  V30 3061 H 280.567 2.10998 1.4266 0
M  V30 3062 H 281.35 3.41206 0.378639 0
M  V30 3063 N 283.795 -0.628877 1.44509 0
M  V30 3064 C 285.02 -1.42048 1.5112 0
M  V30 3065 C 285.445 -1.87594 0.137818 0
M  V30 3066 O 284.803 -1.58873 -0.873437 0
M  V30 3067 C 284.851 -2.61541 2.48251 0
M  V30 3068 O 283.955 -3.61453 1.98559 0
M  V30 3069 H 283.296 -0.424942 0.510216 0
M  V30 3070 H 285.826 -0.767374 1.89664 0
M  V30 3071 H 285.836 -3.09057 2.66361 0
M  V30 3072 H 284.511 -2.27736 3.48007 0
M  V30 3073 H 283.088 -3.20731 1.90227 0
M  V30 3074 N 285.273 -1.31445 -0.869486 0
M  V30 3075 C 286.689 -1.10113 -1.15531 0
M  V30 3076 C 286.889 0.128087 -2.01092 0
M  V30 3077 O 285.945 0.817276 -2.38908 0
M  V30 3078 C 287.258 -2.37291 -1.84698 0
M  V30 3079 C 288.806 -2.42906 -1.97397 0
M  V30 3080 C 289.281 -3.69967 -2.69979 0
M  V30 3081 N 290.772 -3.70864 -2.77514 0
M  V30 3082 C 291.507 -4.65875 -3.34287 0
M  V30 3083 N 291.003 -5.71242 -3.91988 0
M  V30 3084 N 292.796 -4.53394 -3.3225 0
M  V30 3085 H 284.947 -2.1028 -0.299347 0
M  V30 3086 H 287.21 -0.927683 -0.195214 0
M  V30 3087 H 286.916 -3.27078 -1.29278 0
M  V30 3088 H 286.79 -2.47125 -2.84972 0
M  V30 3089 H 289.177 -1.53588 -2.51982 0
M  V30 3090 H 289.258 -2.37036 -0.961643 0
M  V30 3091 H 288.902 -4.59652 -2.16062 0
M  V30 3092 H 288.832 -3.73103 -3.7162 0
M  V30 3093 H 291.323 -2.94697 -2.36563 0
M  V30 3094 H 291.636 -6.39817 -4.33421 0
M  V30 3095 H 289.981 -5.75015 -3.90362 0
M  V30 3096 H 293.172 -3.70252 -2.8641 0
M  V30 3097 H 293.345 -5.27617 -3.76197 0
M  V30 3098 N 286.751 1.08385 -1.14413 0
M  V30 3099 C 287.981 1.8425 -0.934644 0
M  V30 3100 C 288.389 1.81907 0.520234 0
M  V30 3101 O 287.732 1.22126 1.37226 0
M  V30 3102 C 287.794 3.32853 -1.35828 0
M  V30 3103 C 287.458 3.5893 -2.82875 0
M  V30 3104 C 288.455 3.53756 -3.80989 0
M  V30 3105 C 286.14 3.86934 -3.20293 0
M  V30 3106 C 288.134 3.76216 -5.14529 0
M  V30 3107 C 285.821 4.09047 -4.54008 0
M  V30 3108 C 286.819 4.03682 -5.50936 0
M  V30 3109 O 286.507 4.25214 -6.82238 0
M  V30 3110 H 286.239 0.588502 -0.332628 0
M  V30 3111 H 288.793 1.37792 -1.52324 0
M  V30 3112 H 287.023 3.8007 -0.713019 0
M  V30 3113 H 288.712 3.90154 -1.11957 0
M  V30 3114 H 289.478 3.32135 -3.53428 0
M  V30 3115 H 285.357 3.9023 -2.45442 0
M  V30 3116 H 288.901 3.71943 -5.90173 0
M  V30 3117 H 284.798 4.30151 -4.8129 0
M  V30 3118 H 285.566 4.42619 -6.88499 0
M  V30 3119 N 288.23 0.939286 1.26551 0
M  V30 3120 C 289.178 0.43815 2.28436 0
M  V30 3121 C 290.172 -0.483587 1.62351 0
M  V30 3122 O 291.378 -0.362009 1.76322 0
M  V30 3123 H 287.753 0.123149 0.741848 0
M  V30 3124 H 289.724 1.31002 2.68106 0
M  V30 3125 C 288.473 -0.283052 3.46546 0
M  V30 3126 H 287.796 0.417043 3.97619 0
M  V30 3127 H 289.236 -0.597948 4.19763 0
M  V30 3128 C 287.695 -1.50018 3.01656 0
M  V30 3129 O 288.225 -2.59855 3.0633 0
M  V30 3130 N 286.431 -1.35608 2.57019 0
M  V30 3131 H 285.978 -0.46244 2.53415 0
M  V30 3132 H 285.936 -2.17165 2.27347 0
M  V30 3133 N 289.708 -1.40897 0.706093 0
M  V30 3134 C 290.638 -2.33418 0.0620085 0
M  V30 3135 C 291.619 -1.52385 -0.755827 0
M  V30 3136 O 292.804 -1.80886 -0.706674 0
M  V30 3137 C 289.934 -3.36293 -0.867445 0
M  V30 3138 C 288.888 -4.27716 -0.155932 0
M  V30 3139 C 288.214 -5.2105 -1.20046 0
M  V30 3140 C 289.514 -5.12944 0.984149 0
M  V30 3141 H 291.208 -2.87527 0.83477 0
M  V30 3142 H 288.754 -1.38249 0.402875 0
M  V30 3143 H 290.707 -3.99949 -1.32735 0
M  V30 3144 H 289.431 -2.80556 -1.67199 0
M  V30 3145 H 288.09 -3.65498 0.284047 0
M  V30 3146 H 287.738 -4.61624 -1.99781 0
M  V30 3147 H 287.438 -5.83056 -0.729328 0
M  V30 3148 H 288.962 -5.87584 -1.66066 0
M  V30 3149 H 290.376 -5.70109 0.604048 0
M  V30 3150 H 288.773 -5.83945 1.38304 0
M  V30 3151 H 289.843 -4.49485 1.81911 0
M  V30 3152 N 291.186 -0.45159 -1.50991 0
M  V30 3153 C 292.602 -0.104647 -1.59257 0
M  V30 3154 C 292.802 1.38728 -1.4614 0
M  V30 3155 O 291.858 2.15866 -1.30989 0
M  V30 3156 C 293.171 -0.637468 -2.93865 0
M  V30 3157 C 294.719 -0.599166 -3.07212 0
M  V30 3158 C 295.194 -1.1092 -4.44366 0
M  V30 3159 N 296.685 -1.06778 -4.50725 0
M  V30 3160 C 297.42 -1.43314 -5.55201 0
M  V30 3161 N 296.916 -1.87204 -6.67028 0
M  V30 3162 N 298.709 -1.3504 -5.45638 0
M  V30 3163 H 290.86 -1.42214 -1.57762 0
M  V30 3164 H 293.123 -0.586921 -0.744465 0
M  V30 3165 H 292.829 -1.68187 -3.08879 0
M  V30 3166 H 292.703 -0.0702139 -3.77135 0
M  V30 3167 H 295.09 0.436277 -2.91857 0
M  V30 3168 H 295.171 -1.20299 -2.25747 0
M  V30 3169 H 294.815 -2.14318 -4.60467 0
M  V30 3170 H 294.745 -0.481773 -5.24392 0
M  V30 3171 H 297.236 -0.745643 -3.70471 0
M  V30 3172 H 297.549 -2.13282 -7.42786 0
M  V30 3173 H 295.894 -1.91142 -6.68199 0
M  V30 3174 H 299.085 -1.00607 -4.57161 0
M  V30 3175 H 299.258 -1.63841 -6.26945 0
M  V30 3176 N 292.664 1.56529 -0.183458 0
M  V30 3177 C 293.594 2.21549 0.737456 0
M  V30 3178 C 294.575 1.17489 1.23005 0
M  V30 3179 O 295.76 1.45959 1.281 0
M  V30 3180 C 292.89 2.86575 1.96194 0
M  V30 3181 C 291.844 3.96778 1.60473 0
M  V30 3182 C 291.17 4.48911 2.90487 0
M  V30 3183 C 292.47 5.15767 0.823497 0
M  V30 3184 H 294.164 2.98761 0.195453 0
M  V30 3185 H 291.71 1.43702 0.0925686 0
M  V30 3186 H 293.663 3.30739 2.61131 0
M  V30 3187 H 292.387 2.06749 2.52828 0
M  V30 3188 H 291.046 3.53286 0.978997 0
M  V30 3189 H 290.694 3.65862 3.45186 0
M  V30 3190 H 290.394 5.23265 2.67335 0
M  V30 3191 H 291.918 4.95771 3.56432 0
M  V30 3192 H 293.332 5.56549 1.37571 0
M  V30 3193 H 291.729 5.96114 0.690551 0
M  V30 3194 H 292.799 4.84574 -0.177782 0
M  V30 3195 N 294.142 -0.090211 1.57342 0
M  V30 3196 C 295.089 -1.10909 2.02405 0
M  V30 3197 C 296.059 -1.39523 0.901252 0
M  V30 3198 O 297.244 -1.50903 1.1676 0
M  V30 3199 C 294.384 -2.42277 2.45755 0
M  V30 3200 C 293.497 -2.20352 3.71576 0
M  V30 3201 C 292.632 -3.45154 4.03785 0
M  V30 3202 C 291.671 -3.18512 5.22701 0
M  V30 3203 N 290.808 -4.35593 5.50639 0
M  V30 3204 H 295.648 -0.71782 2.89225 0
M  V30 3205 H 293.185 -0.342901 1.43048 0
M  V30 3206 H 295.143 -3.18951 2.68935 0
M  V30 3207 H 293.773 -2.79242 1.61938 0
M  V30 3208 H 292.825 -1.34458 3.55844 0
M  V30 3209 H 294.137 -1.96661 4.58395 0
M  V30 3210 H 293.291 -4.30233 4.27767 0
M  V30 3211 H 292.03 -3.71904 3.15498 0
M  V30 3212 H 291.035 -2.31827 4.98534 0
M  V30 3213 H 292.26 -2.93103 6.12591 0
M  V30 3214 H 290.206 -4.6241 4.6531 0
M  V30 3215 H 290.123 -4.1511 6.31838 0
M  V30 3216 H 291.391 -5.21723 5.7916 0
M  V30 3217 N 295.62 -1.53406 -0.361157 0
M  V30 3218 C 296.869 -1.69022 -1.10066 0
M  V30 3219 C 297.182 -0.450838 -1.90333 0
M  V30 3220 O 298.388 -0.487617 -2.67085 0
M  V30 3221 C 296.844 -2.98812 -2.00598 0
M  V30 3222 C 296.452 -4.30027 -1.25621 0
M  V30 3223 C 298.196 -3.23795 -2.74513 0
M  V30 3224 C 296.103 -5.50903 -2.1508 0
M  V30 3225 H 295.033 -0.629776 -0.414606 0
M  V30 3226 H 297.684 -1.79907 -0.361348 0
M  V30 3227 H 296.066 -2.8174 -2.78278 0
M  V30 3228 H 297.24 -4.57745 -0.529739 0
M  V30 3229 H 295.555 -4.11522 -0.635496 0
M  V30 3230 H 298.152 -4.11289 -3.41681 0
M  V30 3231 H 298.495 -2.40045 -3.40123 0
M  V30 3232 H 299.028 -3.41561 -2.03914 0
M  V30 3233 H 295.767 -6.37143 -1.54041 0
M  V30 3234 H 295.287 -5.27459 -2.85565 0
M  V30 3235 H 296.966 -5.85865 -2.74538 0
M  V30 3236 N 297.098 0.621204 -1.44841 0
M  V30 3237 C 298.514 0.94048 -1.28946 0
M  V30 3238 C 298.714 2.00154 -0.23249 0
M  V30 3239 O 297.77 2.49651 0.378237 0
M  V30 3240 C 299.083 1.39433 -2.66419 0
M  V30 3241 C 300.631 1.50927 -2.74208 0
M  V30 3242 C 301.106 1.99692 -4.12174 0
M  V30 3243 N 302.597 2.06947 -4.144 0
M  V30 3244 C 303.332 2.45871 -5.1801 0
M  V30 3245 N 302.828 2.83862 -6.31977 0
M  V30 3246 N 304.621 2.46092 -5.05366 0
M  V30 3247 H 296.772 -0.0803548 -2.12248 0
M  V30 3248 H 299.035 0.0266913 -0.947624 0
M  V30 3249 H 298.741 0.688925 -3.44887 0
M  V30 3250 H 298.615 2.36347 -2.93973 0
M  V30 3251 H 301.002 2.20561 -1.96053 0
M  V30 3252 H 301.083 0.523627 -2.50383 0
M  V30 3253 H 300.727 1.30649 -4.90809 0
M  V30 3254 H 300.657 2.99146 -4.33381 0
M  V30 3255 H 303.148 1.80232 -3.32152 0
M  V30 3256 H 303.461 3.12405 -7.0684 0
M  V30 3257 H 301.806 2.8159 -6.35399 0
M  V30 3258 H 304.997 2.1581 -4.15384 0
M  V30 3259 H 305.17 2.76102 -5.86235 0
M  V30 3260 N 298.576 1.31904 0.862503 0
M  V30 3261 C 299.508 1.16005 1.97675 0
M  V30 3262 C 300.521 0.0971234 1.6251 0
M  V30 3263 O 301.71 0.345337 1.75128 0
M  V30 3264 C 298.81 0.751791 3.30456 0
M  V30 3265 C 297.983 1.90133 3.93914 0
M  V30 3266 C 297.042 1.4779 5.05019 0
M  V30 3267 O 296.068 2.18872 5.25437 0
M  V30 3268 N 297.27 0.369491 5.79323 0
M  V30 3269 H 300.035 2.11982 2.11857 0
M  V30 3270 H 297.596 1.24337 1.03691 0
M  V30 3271 H 299.588 0.451084 4.02178 0
M  V30 3272 H 298.158 -0.116593 3.12382 0
M  V30 3273 H 297.378 2.36896 3.15078 0
M  V30 3274 H 298.666 2.67111 4.33047 0
M  V30 3275 H 298.064 -0.222299 5.65263 0
M  V30 3276 H 296.621 0.128354 6.51674 0
M  V30 3277 N 300.054 -1.07777 1.14986 0
M  V30 3278 C 300.984 -2.16865 0.865557 0
M  V30 3279 C 301.965 -1.69123 -0.182083 0
M  V30 3280 O 303.15 -1.94164 -0.0373815 0
M  V30 3281 C 300.28 -3.45539 0.349313 0
M  V30 3282 C 299.234 -4.06708 1.33313 0
M  V30 3283 C 298.56 -5.30411 0.675918 0
M  V30 3284 C 299.86 -4.47241 2.69764 0
M  V30 3285 H 301.554 -2.40905 1.77778 0
M  V30 3286 H 299.1 -1.15781 0.856203 0
M  V30 3287 H 301.053 -4.21174 0.137983 0
M  V30 3288 H 299.777 -3.21072 -0.598362 0
M  V30 3289 H 298.436 -3.33112 1.53075 0
M  V30 3290 H 298.084 -5.02232 -0.277767 0
M  V30 3291 H 297.784 -5.72293 1.33244 0
M  V30 3292 H 299.308 -6.08755 0.474262 0
M  V30 3293 H 300.722 -5.14025 2.53873 0
M  V30 3294 H 299.119 -5.00062 3.3175 0
M  V30 3295 H 300.189 -3.58818 3.26156 0
M  V30 3296 N 301.532 -0.945985 -1.26051 0
M  V30 3297 C 302.943 -0.638096 -1.75457 0
M  V30 3298 C 303.294 0.846672 -1.76991 0
M  V30 3299 O 302.419 1.66262 -1.38513 0
M  V30 3300 C 303.014 -1.15157 -3.18629 0
M  V30 3301 C 301.573 -0.894004 -3.65629 0
M  V30 3302 C 300.72 -1.29967 -2.44957 0
M  V30 3303 H 303.671 -1.12376 -1.1206 0
M  V30 3304 H 303.692 -0.507615 -3.77099 0
M  V30 3305 H 303.204 -2.23222 -3.1748 0
M  V30 3306 H 301.305 0.172057 -3.72203 0
M  V30 3307 H 301.418 -1.52439 -4.54202 0
M  V30 3308 H 299.782 -0.718078 -2.44368 0
M  V30 3309 H 300.565 -2.38935 -2.46505 0
M  V30 3310 N 303.011 1.40521 -0.713556 0
M  V30 3311 C 303.974 2.29098 -0.0684347 0
M  V30 3312 C 304.974 1.45268 0.689472 0
M  V30 3313 O 306.164 1.66205 0.521677 0
M  V30 3314 C 303.296 3.28446 0.913024 0
M  V30 3315 H 304.489 2.87645 -0.84855 0
M  V30 3316 H 302.042 1.48809 -0.47809 0
M  V30 3317 H 302.777 2.74913 1.72027 0
M  V30 3318 H 302.562 3.90327 0.372472 0
M  V30 3319 H 304.052 3.94777 1.36165 0
M  V30 3320 N 304.489 0.459591 1.5075 0
M  V30 3321 C 305.766 -0.160371 1.94941 0
M  V30 3322 C 306.146 -1.58048 1.39943 0
M  V30 3323 O 305.494 -2.206 0.595629 0
M  V30 3324 C 305.704 -0.115432 3.48809 0
M  V30 3325 C 307.052 -0.310026 4.23467 0
M  V30 3326 O 308.076 -0.192543 3.55679 0
M  V30 3327 O 306.935 -0.546031 5.43765 0
M  V30 3328 H 304.029 -0.117925 0.818549 0
M  V30 3329 H 306.575 0.519169 1.61563 0
M  V30 3330 H 305.347 0.87652 3.81357 0
M  V30 3331 H 304.97 -0.836928 3.88692 0
M  V30 3332 N 305.967 -1.56429 0.191757 0
M  V30 3333 C 307.195 -2.01867 -0.453586 0
M  V30 3334 C 307.61 -1.07191 -1.5542 0
M  V30 3335 O 306.967 -0.0762108 -1.82341 0
M  V30 3336 C 307.018 -3.47017 -1.013 0
M  V30 3337 O 306.739 -4.38078 0.0437005 0
M  V30 3338 C 308.24 -4.07956 -1.73456 0
M  V30 3339 H 305.46 -0.661211 -0.114199 0
M  V30 3340 H 308.004 -2.02295 0.299483 0
M  V30 3341 H 306.159 -3.47298 -1.71647 0
M  V30 3342 H 306.573 -5.23178 -0.372212 0
M  V30 3343 H 308.047 -5.1138 -2.07833 0
M  V30 3344 H 308.524 -3.51222 -2.63704 0
M  V30 3345 H 309.13 -4.11437 -1.07702 0
M  V30 3346 N 307.445 0.0818655 -1.57387 0
M  V30 3347 C 308.392 1.09834 -2.0299 0
M  V30 3348 C 309.362 1.39043 -0.908639 0
M  V30 3349 O 310.547 1.50282 -1.17559 0
M  V30 3350 C 307.687 2.40971 -2.47037 0
M  V30 3351 C 306.8 2.18379 -3.7274 0
M  V30 3352 C 305.935 3.43008 -4.0561 0
M  V30 3353 C 304.974 3.15736 -5.24383 0
M  V30 3354 N 304.111 4.32667 -5.52941 0
M  V30 3355 H 308.951 0.702472 -2.89602 0
M  V30 3356 H 306.488 0.33531 -1.43227 0
M  V30 3357 H 308.446 3.1752 -2.70623 0
M  V30 3358 H 307.076 2.78379 -1.63417 0
M  V30 3359 H 306.128 1.32569 -3.56552 0
M  V30 3360 H 307.44 1.94227 -4.59431 0
M  V30 3361 H 306.594 4.27958 -4.30043 0
M  V30 3362 H 305.333 3.70225 -3.17466 0
M  V30 3363 H 304.338 2.2918 -4.99757 0
M  V30 3364 H 305.563 2.8985 -6.14136 0
M  V30 3365 H 303.509 4.59935 -4.67756 0
M  V30 3366 H 303.426 4.11753 -6.34031 0
M  V30 3367 H 304.694 5.18644 -5.81918 0
M  V30 3368 N 308.923 1.53595 0.353017 0
M  V30 3369 C 310.2 1.61002 1.11075 0
M  V30 3370 C 310.58 0.425356 2.0677 0
M  V30 3371 O 309.928 -0.583267 2.2093 0
M  V30 3372 C 310.138 2.96631 1.83877 0
M  V30 3373 C 311.486 3.51653 2.37961 0
M  V30 3374 O 312.51 2.98743 1.93987 0
M  V30 3375 O 311.369 4.44177 3.18386 0
M  V30 3376 H 308.463 0.650825 0.510251 0
M  V30 3377 H 311.009 1.6594 0.35527 0
M  V30 3378 H 309.781 3.74293 1.14108 0
M  V30 3379 H 309.404 2.95242 2.66304 0
M  V30 3380 N 310.401 -0.613514 1.45168 0
M  V30 3381 C 311.364 -1.7065 1.53007 0
M  V30 3382 C 312.364 -1.5548 0.410184 0
M  V30 3383 O 313.554 -1.60656 0.673455 0
M  V30 3384 C 310.686 -3.09875 1.42093 0
M  V30 3385 H 311.879 -1.65068 2.50385 0
M  V30 3386 H 309.432 -0.828728 1.32521 0
M  V30 3387 H 310.167 -3.21039 0.458769 0
M  V30 3388 H 309.952 -3.22293 2.23315 0
M  V30 3389 H 311.442 -3.895 1.50598 0
M  V30 3390 N 311.879 -1.3236 -0.855495 0
M  V30 3391 C 312.826 -1.21225 -1.964 0
M  V30 3392 C 313.796 -0.0946204 -1.6583 0
M  V30 3393 O 314.981 -0.27002 -1.8888 0
M  V30 3394 C 312.121 -0.940419 -3.32039 0
M  V30 3395 C 311.234 -2.14276 -3.75113 0
M  V30 3396 C 310.369 -1.80648 -4.9954 0
M  V30 3397 C 309.408 -2.97208 -5.35102 0
M  V30 3398 N 308.545 -2.63678 -6.50706 0
M  V30 3399 H 313.385 -2.16042 -2.05255 0
M  V30 3400 H 310.922 -1.07451 -1.00463 0
M  V30 3401 H 312.88 -0.763311 -4.10158 0
M  V30 3402 H 311.51 -0.0290413 -3.22787 0
M  V30 3403 H 310.562 -2.43017 -2.92655 0
M  V30 3404 H 311.874 -3.01468 -3.97389 0
M  V30 3405 H 311.028 -1.59484 -5.85363 0
M  V30 3406 H 309.767 -0.906678 -4.79198 0
M  V30 3407 H 308.772 -3.19004 -4.47791 0
M  V30 3408 H 309.997 -3.87918 -5.57401 0
M  V30 3409 H 307.943 -1.76238 -6.31883 0
M  V30 3410 H 307.86 -3.444 -6.72997 0
M  V30 3411 H 309.128 -2.45942 -7.39684 0
M  V30 3412 N 313.357 1.07166 -1.15556 0
M  V30 3413 C 314.768 1.6127 -0.940693 0
M  V30 3414 C 315.119 1.89251 0.517551 0
M  V30 3415 O 314.244 1.65937 1.38903 0
M  V30 3416 C 314.839 2.92993 -1.7012 0
M  V30 3417 C 313.398 3.43832 -1.53156 0
M  V30 3418 C 312.545 2.1786 -1.71558 0
M  V30 3419 H 315.496 0.90229 -1.30554 0
M  V30 3420 H 315.517 3.62007 -1.17181 0
M  V30 3421 H 315.029 2.72596 -2.76248 0
M  V30 3422 H 313.13 3.69307 -0.494294 0
M  V30 3423 H 313.243 4.19747 -2.30975 0
M  V30 3424 H 311.607 2.2765 -1.14225 0
M  V30 3425 H 312.39 1.99956 -2.79056 0
M  V30 3426 N 314.835 0.952656 1.25548 0
M  V30 3427 C 315.765 0.489287 2.28316 0
M  V30 3428 C 316.746 -0.463359 1.63667 0
M  V30 3429 O 317.931 -0.36274 1.90782 0
M  V30 3430 C 315.061 -0.235603 3.465 0
M  V30 3431 C 314.015 0.631593 4.23314 0
M  V30 3432 C 313.341 -0.223923 5.34231 0
M  V30 3433 C 314.641 1.90871 4.86174 0
M  V30 3434 H 316.335 1.34822 2.67326 0
M  V30 3435 H 313.881 0.649728 1.28509 0
M  V30 3436 H 315.834 -0.570882 4.17515 0
M  V30 3437 H 314.558 -1.12877 3.06474 0
M  V30 3438 H 313.217 0.949929 3.54079 0
M  V30 3439 H 312.865 -1.11678 4.90446 0
M  V30 3440 H 312.565 0.35299 5.86539 0
M  V30 3441 H 314.089 -0.554214 6.0808 0
M  V30 3442 H 315.503 1.63997 5.49343 0
M  V30 3443 H 313.9 2.43112 5.4865 0
M  V30 3444 H 314.97 2.61304 4.08471 0
M  V30 3445 N 316.313 -1.40141 0.720998 0
M  V30 3446 C 317.243 -2.33339 0.0867621 0
M  V30 3447 C 318.224 -1.53178 -0.739622 0
M  V30 3448 O 319.409 -1.81625 -0.687449 0
M  V30 3449 C 316.539 -3.37194 -0.831728 0
M  V30 3450 C 315.493 -4.27857 -0.110558 0
M  V30 3451 C 314.819 -5.22294 -1.14513 0
M  V30 3452 C 316.119 -5.11872 1.0385 0
M  V30 3453 H 317.813 -2.86626 0.865219 0
M  V30 3454 H 315.359 -1.37814 0.417516 0
M  V30 3455 H 317.312 -4.01335 -1.28485 0
M  V30 3456 H 316.036 -2.82314 -1.64214 0
M  V30 3457 H 314.695 -3.65176 0.322797 0
M  V30 3458 H 314.343 -4.63717 -1.94874 0
M  V30 3459 H 314.043 -5.83797 -0.667446 0
M  V30 3460 H 315.567 -5.89312 -1.59824 0
M  V30 3461 H 316.981 -5.69436 0.664482 0
M  V30 3462 H 315.378 -5.82445 1.4449 0
M  V30 3463 H 316.448 -4.4753 1.86668 0
M  V30 3464 N 317.792 -0.46758 -1.50504 0
M  V30 3465 C 318.739 0.328413 -2.28452 0
M  V30 3466 C 319.709 0.990313 -1.33349 0
M  V30 3467 O 320.894 1.00343 -1.62284 0
M  V30 3468 C 318.034 1.40648 -3.15138 0
M  V30 3469 C 317.147 0.759709 -4.25267 0
M  V30 3470 C 316.282 1.81537 -4.99217 0
M  V30 3471 C 315.321 1.14866 -6.01226 0
M  V30 3472 N 314.458 2.14702 -6.68467 0
M  V30 3473 H 319.298 -0.342603 -2.96024 0
M  V30 3474 H 316.835 -0.180801 -1.45985 0
M  V30 3475 H 318.793 2.04315 -3.63746 0
M  V30 3476 H 317.423 2.04671 -2.49619 0
M  V30 3477 H 316.475 0.0105671 -3.80399 0
M  V30 3478 H 317.787 0.233243 -4.98254 0
M  V30 3479 H 316.941 2.52793 -5.51526 0
M  V30 3480 H 315.68 2.37564 -4.25928 0
M  V30 3481 H 314.685 0.42171 -5.4818 0
M  V30 3482 H 315.91 0.595334 -6.76485 0
M  V30 3483 H 313.856 2.69752 -5.97972 0
M  V30 3484 H 313.773 1.6703 -7.37317 0
M  V30 3485 H 315.041 2.85348 -7.25394 0
M  V30 3486 N 319.27 1.56325 -0.20005 0
M  V30 3487 C 320.18 2.22931 0.730668 0
M  V30 3488 C 321.196 1.22997 1.23076 0
M  V30 3489 O 322.372 1.55748 1.27689 0
M  V30 3490 C 319.437 2.87948 1.93098 0
M  V30 3491 C 318.498 4.03166 1.47497 0
M  V30 3492 C 317.731 4.65073 2.61807 0
M  V30 3493 O 317.954 4.25913 3.79413 0
M  V30 3494 O 316.888 5.54452 2.34237 0
M  V30 3495 H 320.714 3.03084 0.193391 0
M  V30 3496 H 318.299 1.49371 0.0294621 0
M  V30 3497 H 320.181 3.29063 2.6324 0
M  V30 3498 H 318.856 2.10771 2.45677 0
M  V30 3499 H 317.763 3.66664 0.742201 0
M  V30 3500 H 319.096 4.82022 0.995796 0
M  V30 3501 N 320.748 -0.0735177 1.57428 0
M  V30 3502 C 321.681 -1.11932 1.98863 0
M  V30 3503 C 322.659 -1.37666 0.865266 0
M  V30 3504 O 323.843 -1.51068 1.12742 0
M  V30 3505 C 320.97 -2.46403 2.32386 0
M  V30 3506 C 320.016 -2.36815 3.54713 0
M  V30 3507 S 320.849 -1.76392 5.05614 0
M  V30 3508 C 322.005 -3.12444 5.42337 0
M  V30 3509 H 322.238 -0.766212 2.87257 0
M  V30 3510 H 319.771 -0.281987 1.51803 0
M  V30 3511 H 321.729 -3.23755 2.52375 0
M  V30 3512 H 320.39 -2.78876 1.44524 0
M  V30 3513 H 319.583 -3.35977 3.7568 0
M  V30 3514 H 319.185 -1.67598 3.34345 0
M  V30 3515 H 321.477 -4.08753 5.40303 0
M  V30 3516 H 322.42 -2.96258 6.43146 0
M  V30 3517 H 322.828 -3.1297 4.69798 0
M  V30 3518 N 322.226 -1.5378 -0.344866 0
M  V30 3519 C 323.173 -1.81676 -1.42346 0
M  V30 3520 C 324.143 -0.662376 -1.52321 0
M  V30 3521 O 325.328 -0.906675 -1.67881 0
M  V30 3522 C 322.468 -2.03087 -2.79015 0
M  V30 3523 C 321.581 -3.30799 -2.77842 0
M  V30 3524 C 320.716 -3.42285 -4.0622 0
M  V30 3525 C 319.755 -4.6395 -3.9927 0
M  V30 3526 N 318.892 -4.72477 -5.19336 0
M  V30 3527 H 323.732 -2.73703 -1.17858 0
M  V30 3528 H 321.269 -1.35568 -0.570949 0
M  V30 3529 H 323.227 -2.1349 -3.58438 0
M  V30 3530 H 321.857 -1.14375 -3.01858 0
M  V30 3531 H 320.909 -3.29244 -1.90533 0
M  V30 3532 H 322.221 -4.20314 -2.68584 0
M  V30 3533 H 321.375 -3.52113 -4.94066 0
M  V30 3534 H 320.114 -2.50823 -4.18258 0
M  V30 3535 H 319.119 -4.54201 -3.09809 0
M  V30 3536 H 320.344 -5.56775 -3.88817 0
M  V30 3537 H 318.29 -3.83924 -5.3192 0
M  V30 3538 H 318.207 -5.55927 -5.12329 0
M  V30 3539 H 319.475 -4.86613 -6.08957 0
M  V30 3540 N 323.704 0.605807 -1.45491 0
M  V30 3541 C 325.12 0.926751 -1.29936 0
M  V30 3542 C 325.32 1.99896 -0.253706 0
M  V30 3543 O 324.376 2.50038 0.351737 0
M  V30 3544 C 325.689 1.36599 -2.67883 0
M  V30 3545 C 327.237 1.4801 -2.75793 0
M  V30 3546 C 327.712 1.95309 -4.14268 0
M  V30 3547 N 329.203 2.0254 -4.16571 0
M  V30 3548 C 329.938 2.40363 -5.20589 0
M  V30 3549 N 329.434 2.77143 -6.34952 0
M  V30 3550 N 331.227 2.40718 -5.07948 0
M  V30 3551 H 323.378 -0.102862 -2.12151 0
M  V30 3552 H 325.641 0.016639 -0.947854 0
M  V30 3553 H 325.347 0.652306 -3.45598 0
M  V30 3554 H 325.221 2.33215 -2.96463 0
M  V30 3555 H 327.608 2.1847 -1.98381 0
M  V30 3556 H 327.689 0.497041 -2.50925 0
M  V30 3557 H 327.333 1.25436 -4.92167 0
M  V30 3558 H 327.263 2.94532 -4.3653 0
M  V30 3559 H 329.754 1.76699 -3.34045 0
M  V30 3560 H 330.067 3.0489 -7.10114 0
M  V30 3561 H 328.412 2.74834 -6.3835 0
M  V30 3562 H 331.603 2.11392 -4.1765 0
M  V30 3563 H 331.776 2.69869 -5.89131 0
M  V30 3564 N 325.182 1.32811 0.848464 0
M  V30 3565 C 326.43 1.23479 1.59991 0
M  V30 3566 C 326.751 -0.201853 1.93952 0
M  V30 3567 O 326.021 -1.12818 1.60153 0
M  V30 3568 H 324.601 0.454034 0.593179 0
M  V30 3569 H 327.263 1.66412 1.01455 0
M  V30 3570 H 326.359 1.82178 2.53412 0
M  V30 3571 N 326.66 -1.06551 1.16123 0
M  V30 3572 C 327.607 -2.13961 0.865414 0
M  V30 3573 C 328.577 -1.65066 -0.185055 0
M  V30 3574 O 329.762 -1.90732 -0.05083 0
M  V30 3575 C 326.902 -3.43113 0.369776 0
M  V30 3576 C 326.015 -4.05756 1.48276 0
M  V30 3577 C 325.15 -5.22773 0.942414 0
M  V30 3578 C 324.189 -5.77395 2.03179 0
M  V30 3579 N 323.326 -6.85731 1.50721 0
M  V30 3580 H 328.166 -2.38605 1.78527 0
M  V30 3581 H 325.703 -1.17072 0.890646 0
M  V30 3582 H 327.661 -4.17151 0.0640643 0
M  V30 3583 H 326.291 -3.18695 -0.513143 0
M  V30 3584 H 325.343 -3.29292 1.9045 0
M  V30 3585 H 326.655 -4.42351 2.30493 0
M  V30 3586 H 325.809 -6.03827 0.589729 0
M  V30 3587 H 324.548 -4.87618 0.0895191 0
M  V30 3588 H 323.553 -4.94981 2.3932 0
M  V30 3589 H 324.778 -6.14603 2.8886 0
M  V30 3590 H 322.724 -6.52499 0.676811 0
M  V30 3591 H 322.641 -7.21254 2.26557 0
M  V30 3592 H 323.909 -7.7047 1.18303 0
M  V30 3593 N 328.138 -0.959301 -1.25041 0
M  V30 3594 C 329.048 -0.489994 -2.29426 0
M  V30 3595 C 330.064 0.444944 -1.68215 0
M  V30 3596 O 331.24 0.320046 -1.98841 0
M  V30 3597 C 328.305 0.220309 -3.45999 0
M  V30 3598 C 327.366 -0.753418 -4.22637 0
M  V30 3599 C 326.599 -0.076918 -5.33645 0
M  V30 3600 O 326.822 1.13649 -5.58963 0
M  V30 3601 O 325.756 -0.764824 -5.97021 0
M  V30 3602 H 329.582 -1.35755 -2.71669 0
M  V30 3603 H 327.167 -0.725961 -1.30576 0
M  V30 3604 H 329.049 0.619677 -4.16819 0
M  V30 3605 H 327.724 1.06296 -3.0575 0
M  V30 3606 H 326.631 -1.20308 -3.54227 0
M  V30 3607 H 327.964 -1.56423 -4.66683 0
M  V30 3608 N 329.616 1.39756 -0.72842 0
M  V30 3609 C 330.863 2.00645 -0.273487 0
M  V30 3610 C 331.191 1.57786 1.13727 0
M  V30 3611 O 330.446 0.794886 1.7883 0
M  V30 3612 C 330.745 3.56002 -0.315776 0
M  V30 3613 C 330.411 4.18489 -1.67863 0
M  V30 3614 C 329.073 4.3527 -2.05166 0
M  V30 3615 C 331.425 4.53219 -2.57375 0
M  V30 3616 C 328.753 4.84069 -3.31503 0
M  V30 3617 C 331.105 5.03423 -3.83077 0
M  V30 3618 C 329.769 5.18413 -4.20481 0
M  V30 3619 H 329.039 0.734211 -0.100076 0
M  V30 3620 H 331.686 1.6718 -0.933972 0
M  V30 3621 H 329.991 3.89452 0.428285 0
M  V30 3622 H 331.688 4.00963 0.0542575 0
M  V30 3623 H 328.278 4.05824 -1.37858 0
M  V30 3624 H 332.462 4.39878 -2.29827 0
M  V30 3625 H 327.718 4.93859 -3.60435 0
M  V30 3626 H 331.892 5.2927 -4.52599 0
M  V30 3627 H 329.519 5.55987 -5.18443 0
M  V30 3628 N 331.094 0.475555 1.50254 0
M  V30 3629 C 332.044 -0.335025 2.25525 0
M  V30 3630 C 333.028 -0.957625 1.29299 0
M  V30 3631 O 334.22 -0.869436 1.54175 0
M  V30 3632 C 331.349 -1.41385 3.12834 0
M  V30 3633 C 330.435 -0.798762 4.1651 0
M  V30 3634 N 330.826 0.0835815 5.05731 0
M  V30 3635 C 329.124 -1.06221 4.33166 0
M  V30 3636 C 329.825 0.433113 5.80085 0
M  V30 3637 N 328.801 -0.1928 5.43258 0
M  V30 3638 H 332.603 0.344612 2.91873 0
M  V30 3639 H 330.117 0.289986 1.5979 0
M  V30 3640 H 332.114 -2.00777 3.65368 0
M  V30 3641 H 330.774 -2.09543 2.48036 0
M  V30 3642 H 331.785 0.452715 5.15918 0
M  V30 3643 H 328.462 -1.73844 3.79585 0
M  V30 3644 H 329.852 1.15346 6.61925 0
M  V30 3645 N 332.573 -1.56217 0.208337 0
M  V30 3646 C 333.819 -1.98242 -0.427552 0
M  V30 3647 C 334.152 -1.09554 -1.60348 0
M  V30 3648 O 333.427 -0.15035 -1.93918 0
M  V30 3649 C 333.71 -3.4931 -0.874907 0
M  V30 3650 C 333.563 -4.48773 0.303751 0
M  V30 3651 C 334.882 -4.04424 -1.73577 0
M  V30 3652 H 332.001 -0.720744 -0.153936 0
M  V30 3653 H 334.643 -1.87586 0.30192 0
M  V30 3654 H 332.793 -3.58522 -1.49648 0
M  V30 3655 H 334.465 -4.51586 0.941682 0
M  V30 3656 H 332.708 -4.23194 0.953375 0
M  V30 3657 H 333.379 -5.51976 -0.0519883 0
M  V30 3658 H 335.855 -3.98075 -1.21143 0
M  V30 3659 H 334.731 -5.1047 -2.01771 0
M  V30 3660 H 334.992 -3.50494 -2.69456 0
M  V30 3661 N 334.051 0.0651679 -1.57465 0
M  V30 3662 C 335.3 0.761916 -1.86756 0
M  V30 3663 C 335.613 1.78406 -0.801925 0
M  V30 3664 O 336.819 2.53084 -0.982885 0
M  V30 3665 C 335.275 1.40603 -3.31299 0
M  V30 3666 C 334.883 0.422115 -4.46007 0
M  V30 3667 C 336.627 2.08476 -3.69781 0
M  V30 3668 C 334.534 1.07252 -5.81593 0
M  V30 3669 H 333.464 0.288308 -0.696702 0
M  V30 3670 H 336.115 0.015344 -1.83494 0
M  V30 3671 H 334.497 2.20109 -3.29193 0
M  V30 3672 H 335.671 -0.343613 -4.59517 0
M  V30 3673 H 333.986 -0.152527 -4.16121 0
M  V30 3674 H 336.583 2.57925 -4.68379 0
M  V30 3675 H 336.926 2.88712 -2.99919 0
M  V30 3676 H 337.459 1.35792 -3.73905 0
M  V30 3677 H 334.198 0.310342 -6.54765 0
M  V30 3678 H 333.718 1.80895 -5.71872 0
M  V30 3679 H 335.397 1.59043 -6.27148 0
M  V30 3680 N 335.529 1.53961 0.336706 0
M  V30 3681 C 336.776 1.71536 1.07618 0
M  V30 3682 C 337.104 0.482125 1.8843 0
M  V30 3683 O 336.359 -0.536142 1.88213 0
M  V30 3684 C 336.658 2.93493 2.03953 0
M  V30 3685 C 336.324 4.28811 1.39399 0
M  V30 3686 C 334.986 4.65602 1.21523 0
M  V30 3687 C 337.338 5.12844 0.929541 0
M  V30 3688 C 334.666 5.84037 0.558312 0
M  V30 3689 C 337.018 6.31951 0.286505 0
M  V30 3690 C 335.682 6.67432 0.0954869 0
M  V30 3691 H 334.952 0.627696 0.393801 0
M  V30 3692 H 337.599 1.88186 0.354715 0
M  V30 3693 H 335.904 2.71475 2.82504 0
M  V30 3694 H 337.601 3.04285 2.61174 0
M  V30 3695 H 334.191 3.99858 1.54311 0
M  V30 3696 H 338.375 4.84947 1.05548 0
M  V30 3697 H 333.631 6.10097 0.398995 0
M  V30 3698 H 337.805 6.96352 -0.0814376 0
M  V30 3699 H 335.432 7.59063 -0.415579 0
M  V30 3700 N 337.007 -0.598083 1.45811 0
M  V30 3701 C 338.284 -1.35777 1.40797 0
M  V30 3702 C 338.664 -2.10935 0.083462 0
M  V30 3703 O 338.012 -2.08505 -0.934763 0
M  V30 3704 C 338.222 -2.29666 2.62783 0
M  V30 3705 C 339.57 -2.91977 3.08277 0
M  V30 3706 O 340.594 -2.39984 2.63223 0
M  V30 3707 O 339.453 -3.86376 3.86491 0
M  V30 3708 H 336.547 -0.609291 0.55919 0
M  V30 3709 H 339.093 -0.620379 1.57954 0
M  V30 3710 H 337.865 -1.73454 3.50756 0
M  V30 3711 H 337.488 -3.1077 2.48008 0
M  V30 3712 N 338.485 -1.33259 -0.841409 0
M  V30 3713 C 339.725 -1.25902 -1.61022 0
M  V30 3714 C 340.089 0.173325 -1.91216 0
M  V30 3715 O 341.29 0.370824 -2.6623 0
M  V30 3716 C 339.561 -2.10735 -2.88662 0
M  V30 3717 S 341.12 -2.20541 -3.79351 0
M  V30 3718 H 337.938 -0.447958 -0.552137 0
M  V30 3719 H 340.54 -1.68263 -0.995382 0
M  V30 3720 H 339.244 -3.1384 -2.64448 0
M  V30 3721 H 338.775 -1.69201 -3.55154 0
M  V30 3722 H 340.79 -1.36462 -4.77067 0
M  V30 3723 N 339.963 1.05934 -1.16686 0
M  V30 3724 C 341.188 1.83029 -0.975455 0
M  V30 3725 C 341.613 1.82096 0.471452 0
M  V30 3726 O 340.971 1.22443 1.33706 0
M  V30 3727 C 341.019 3.27372 -1.51195 0
M  V30 3728 O 340.123 4.06054 -0.720701 0
M  V30 3729 H 339.464 0.566194 -0.346872 0
M  V30 3730 H 341.994 1.33541 -1.55009 0
M  V30 3731 H 342.004 3.78186 -1.53099 0
M  V30 3732 H 340.679 3.27366 -2.56523 0
M  V30 3733 H 339.256 3.64812 -0.772458 0
M  V30 3734 N 341.441 0.965919 1.2453 0
M  V30 3735 C 342.391 0.465731 2.23193 0
M  V30 3736 C 343.375 -0.451277 1.54442 0
M  V30 3737 O 344.567 -0.282489 1.74731 0
M  V30 3738 C 341.696 -0.244511 3.42428 0
M  V30 3739 C 340.782 0.691222 4.18429 0
M  V30 3740 N 341.173 1.82771 4.71623 0
M  V30 3741 C 339.471 0.501649 4.4317 0
M  V30 3742 C 340.172 2.41285 5.29298 0
M  V30 3743 N 339.148 1.69819 5.16394 0
M  V30 3744 H 342.95 1.33291 2.61937 0
M  V30 3745 H 340.464 0.824789 1.39896 0
M  V30 3746 H 342.461 -0.620056 4.12263 0
M  V30 3747 H 341.121 -1.10815 3.05205 0
M  V30 3748 H 342.132 2.20929 4.68413 0
M  V30 3749 H 338.809 -0.318177 4.16286 0
M  V30 3750 H 340.199 3.37181 5.8117 0
M  V30 3751 N 342.919 -1.39368 0.735821 0
M  V30 3752 C 343.829 -2.34395 0.0979693 0
M  V30 3753 C 344.845 -1.58361 -0.720968 0
M  V30 3754 O 346.021 -1.90648 -0.649245 0
M  V30 3755 C 343.086 -3.37393 -0.797916 0
M  V30 3756 C 342.147 -4.29287 0.0333662 0
M  V30 3757 C 341.38 -5.27365 -0.819854 0
M  V30 3758 O 341.603 -5.31959 -2.05855 0
M  V30 3759 O 340.537 -6.01389 -0.248079 0
M  V30 3760 H 344.363 -2.90601 0.882315 0
M  V30 3761 H 341.948 -1.40909 0.4965 0
M  V30 3762 H 343.83 -4.00505 -1.31048 0
M  V30 3763 H 342.505 -2.83571 -1.56106 0
M  V30 3764 H 341.412 -3.69395 0.591475 0
M  V30 3765 H 342.745 -4.86317 0.758752 0
M  V30 3766 N 344.397 -0.483516 -1.5 0
M  V30 3767 C 345.33 0.350427 -2.25493 0
M  V30 3768 C 346.308 0.985549 -1.29328 0
M  V30 3769 O 347.492 1.01906 -1.58579 0
M  V30 3770 C 344.619 1.49202 -3.04066 0
M  V30 3771 C 343.665 0.973036 -4.15252 0
M  V30 3772 S 344.498 -0.122237 -5.3536 0
M  V30 3773 C 345.654 1.02294 -6.17484 0
M  V30 3774 H 345.887 -0.290381 -2.95878 0
M  V30 3775 H 343.42 -0.268562 -1.52046 0
M  V30 3776 H 345.378 2.14623 -3.49925 0
M  V30 3777 H 344.039 2.10438 -2.33183 0
M  V30 3778 H 343.232 1.82804 -4.69679 0
M  V30 3779 H 342.834 0.396335 -3.71894 0
M  V30 3780 H 345.126 1.93195 -6.49371 0
M  V30 3781 H 346.069 0.517664 -7.06205 0
M  V30 3782 H 346.477 1.28238 -5.49741 0
M  V30 3783 N 345.875 1.56104 -0.216619 0
M  V30 3784 C 346.838 2.18819 0.681962 0
M  V30 3785 C 347.838 1.14866 1.12528 0
M  V30 3786 O 349.028 1.40128 1.03488 0
M  V30 3787 C 346.16 2.80756 1.93362 0
M  V30 3788 H 347.353 2.99595 0.135254 0
M  V30 3789 H 344.906 1.56265 0.0330003 0
M  V30 3790 H 345.641 2.03837 2.52232 0
M  V30 3791 H 345.426 3.56876 1.62426 0
M  V30 3792 H 346.916 3.28844 2.57393 0
M  V30 3793 N 347.353 -0.0568162 1.57498 0
M  V30 3794 C 348.316 -1.05038 2.03715 0
M  V30 3795 C 349.316 -1.30709 0.936577 0
M  V30 3796 O 350.506 -1.26178 1.20103 0
M  V30 3797 C 347.638 -2.39034 2.43055 0
M  V30 3798 H 348.831 -0.651715 2.92733 0
M  V30 3799 H 346.384 -0.302947 1.53336 0
M  V30 3800 H 347.119 -2.83703 1.57108 0
M  V30 3801 H 346.904 -2.21739 3.2338 0
M  V30 3802 H 348.394 -3.10421 2.79336 0
M  V30 3803 N 348.832 -1.54138 -0.328536 0
M  V30 3804 C 350.08 -1.71765 -1.06496 0
M  V30 3805 C 350.401 -0.49149 -1.88704 0
M  V30 3806 O 349.671 0.494539 -1.89555 0
M  V30 3807 H 348.251 -0.633295 -0.396164 0
M  V30 3808 H 350.913 -1.91429 -0.366176 0
M  V30 3809 H 350.009 -2.5951 -1.73381 0
M  V30 3810 N 350.31 0.590341 -1.46126 0
M  V30 3811 C 351.559 1.34499 -1.50309 0
M  V30 3812 C 351.872 1.94977 -0.156021 0
M  V30 3813 O 353.078 2.71395 -0.0756037 0
M  V30 3814 C 351.534 2.43723 -2.64815 0
M  V30 3815 C 351.142 1.89582 -4.0591 0
M  V30 3816 C 352.886 3.20579 -2.78262 0
M  V30 3817 C 350.793 2.9639 -5.11769 0
M  V30 3818 H 349.723 0.505593 -0.559368 0
M  V30 3819 H 352.374 0.630848 -1.72315 0
M  V30 3820 H 350.756 3.17902 -2.36124 0
M  V30 3821 H 351.93 1.21997 -4.44357 0
M  V30 3822 H 350.245 1.25418 -3.97063 0
M  V30 3823 H 352.842 4.00276 -3.54519 0
M  V30 3824 H 353.185 3.72684 -1.85505 0
M  V30 3825 H 353.718 2.53505 -3.06562 0
M  V30 3826 H 350.457 2.49181 -6.06291 0
M  V30 3827 H 349.977 3.62487 -4.77873 0
M  V30 3828 H 351.656 3.60474 -5.37278 0
M  V30 3829 N 351.788 1.33704 0.83433 0
M  V30 3830 C 352.718 1.26967 1.95963 0
M  V30 3831 C 353.699 0.149337 1.69443 0
M  V30 3832 O 354.884 0.339852 1.91203 0
M  V30 3833 C 352.014 1.01275 3.32206 0
M  V30 3834 C 350.968 2.09652 3.73136 0
M  V30 3835 C 350.294 1.69166 5.07235 0
M  V30 3836 C 351.594 3.51372 3.86439 0
M  V30 3837 H 353.288 2.2112 2.01857 0
M  V30 3838 H 350.834 1.06447 0.969793 0
M  V30 3839 H 352.787 0.952106 4.10503 0
M  V30 3840 H 351.511 0.0356203 3.26581 0
M  V30 3841 H 350.17 2.14766 2.97104 0
M  V30 3842 H 349.818 0.701437 4.98085 0
M  V30 3843 H 349.518 2.41694 5.35591 0
M  V30 3844 H 351.042 1.64576 5.88003 0
M  V30 3845 H 352.456 3.48734 4.55036 0
M  V30 3846 H 350.853 4.22425 4.26236 0
M  V30 3847 H 351.923 3.89546 2.88759 0
M  V30 3848 N 353.266 -1.05314 1.17247 0
M  V30 3849 C 354.213 -2.13031 0.888058 0
M  V30 3850 C 355.183 -1.65253 -0.167537 0
M  V30 3851 O 356.368 -1.90775 -0.0305974 0
M  V30 3852 C 353.508 -3.42702 0.406147 0
M  V30 3853 C 352.621 -4.04161 1.52572 0
M  V30 3854 C 351.756 -5.21744 0.997808 0
M  V30 3855 C 350.795 -5.75207 2.09291 0
M  V30 3856 N 349.932 -6.84094 1.57986 0
M  V30 3857 H 354.772 -2.36698 1.81048 0
M  V30 3858 H 352.309 -1.16121 0.903013 0
M  V30 3859 H 354.267 -4.17059 0.108305 0
M  V30 3860 H 352.897 -3.19222 -0.479313 0
M  V30 3861 H 351.949 -3.27253 1.93931 0
M  V30 3862 H 353.261 -4.39881 2.35172 0
M  V30 3863 H 352.415 -6.03168 0.653739 0
M  V30 3864 H 351.154 -4.87495 0.141232 0
M  V30 3865 H 350.159 -4.92414 2.44557 0
M  V30 3866 H 351.384 -6.11505 2.95362 0
M  V30 3867 H 349.33 -6.51745 0.74598 0
M  V30 3868 H 349.247 -7.18811 2.34195 0
M  V30 3869 H 350.515 -7.69172 1.26468 0
M  V30 3870 N 354.744 -0.972509 -1.24016 0
M  V30 3871 C 355.676 -0.464375 -2.24446 0
M  V30 3872 C 356.689 0.4295 -1.57032 0
M  V30 3873 O 357.878 0.234902 -1.76948 0
M  V30 3874 C 354.978 0.348385 -3.37105 0
M  V30 3875 C 354.151 -0.53673 -4.34094 0
M  V30 3876 C 353.21 0.220838 -5.25736 0
M  V30 3877 O 352.236 -0.386867 -5.67884 0
M  V30 3878 N 353.438 1.50907 -5.60542 0
M  V30 3879 H 356.203 -1.32788 -2.68677 0
M  V30 3880 H 353.764 -0.844877 -1.38107 0
M  V30 3881 H 355.756 0.863341 -3.95384 0
M  V30 3882 H 354.326 1.11285 -2.92121 0
M  V30 3883 H 353.546 -1.23261 -3.74433 0
M  V30 3884 H 354.834 -1.14022 -4.95859 0
M  V30 3885 H 354.232 2.02444 -5.28236 0
M  V30 3886 H 352.789 1.96962 -6.21329 0
M  V30 3887 N 356.222 1.38976 -0.743202 0
M  V30 3888 C 357.185 2.28901 -0.117014 0
M  V30 3889 C 358.185 1.46698 0.658503 0
M  V30 3890 O 359.375 1.67274 0.486305 0
M  V30 3891 C 356.507 3.30309 0.84315 0
M  V30 3892 H 357.7 2.8578 -0.909373 0
M  V30 3893 H 355.253 1.47761 -0.509547 0
M  V30 3894 H 355.988 2.785 1.66157 0
M  V30 3895 H 355.773 3.91029 0.289594 0
M  V30 3896 H 357.263 3.97577 1.2776 0
M  V30 3897 N 357.7 0.491464 1.49741 0
M  V30 3898 C 358.63 -0.28154 2.31796 0
M  V30 3899 C 359.611 -0.971473 1.3963 0
M  V30 3900 O 360.796 -0.964719 1.68543 0
M  V30 3901 C 357.926 -1.35203 3.19902 0
M  V30 3902 C 356.88 -0.782529 4.20786 0
M  V30 3903 C 356.206 -1.95283 4.97764 0
M  V30 3904 C 357.506 0.21999 5.21837 0
M  V30 3905 H 359.2 0.403355 2.96671 0
M  V30 3906 H 356.746 0.195425 1.42668 0
M  V30 3907 H 358.699 -1.90045 3.76113 0
M  V30 3908 H 357.423 -2.06598 2.52953 0
M  V30 3909 H 356.082 -0.255928 3.65706 0
M  V30 3910 H 355.73 -2.65423 4.2727 0
M  V30 3911 H 355.43 -1.57789 5.66018 0
M  V30 3912 H 356.954 -2.50577 5.56816 0
M  V30 3913 H 358.368 -0.23996 5.72798 0
M  V30 3914 H 356.765 0.51026 5.97927 0
M  V30 3915 H 357.835 1.13911 4.7133 0
M  V30 3916 N 359.178 -1.55987 0.224894 0
M  V30 3917 C 360.141 -2.19178 -0.670348 0
M  V30 3918 C 361.141 -1.15461 -1.11917 0
M  V30 3919 O 362.331 -1.40675 -1.02743 0
M  V30 3920 C 359.463 -2.81777 -1.9187 0
M  V30 3921 H 360.656 -2.99662 -0.119364 0
M  V30 3922 H 358.209 -1.5628 -0.0247128 0
M  V30 3923 H 358.944 -2.05172 -2.51147 0
M  V30 3924 H 358.729 -3.57732 -1.60531 0
M  V30 3925 H 360.219 -3.30205 -2.55645 0
M  V30 3926 N 360.656 0.0484629 -1.57525 0
M  V30 3927 C 361.589 1.08755 -2.00618 0
M  V30 3928 C 362.567 1.36272 -0.887058 0
M  V30 3929 O 363.751 1.49255 -1.15131 0
M  V30 3930 C 360.878 2.42675 -2.36277 0
M  V30 3931 C 359.924 2.31142 -3.58435 0
M  V30 3932 S 360.757 1.68326 -5.08357 0
M  V30 3933 C 361.913 3.03776 -5.47239 0
M  V30 3934 H 362.146 0.720415 -2.88439 0
M  V30 3935 H 359.679 0.257801 -1.52233 0
M  V30 3936 H 361.637 3.19699 -2.57494 0
M  V30 3937 H 360.298 2.76541 -1.48942 0
M  V30 3938 H 359.491 3.29957 -3.80978 0
M  V30 3939 H 359.093 1.62258 -3.36969 0
M  V30 3940 H 361.385 4.00106 -5.46737 0
M  V30 3941 H 362.328 2.85988 -6.47778 0
M  V30 3942 H 362.736 3.05456 -4.74718 0
M  V30 3943 N 362.134 1.5431 0.320358 0
M  V30 3944 C 363.382 1.72327 1.05583 0
M  V30 3945 C 363.703 0.50149 1.88441 0
M  V30 3946 O 362.973 -0.48448 1.89815 0
M  V30 3947 H 361.553 0.635387 0.3928 0
M  V30 3948 H 364.215 1.91621 0.356019 0
M  V30 3949 H 363.311 2.60426 1.72003 0
M  V30 3950 N 363.613 -0.582584 1.46437 0
M  V30 3951 C 364.546 -1.70633 1.51524 0
M  V30 3952 C 365.524 -1.58349 0.369351 0
M  V30 3953 O 366.708 -1.79563 0.573516 0
M  V30 3954 C 363.835 -3.08687 1.39392 0
M  V30 3955 C 362.881 -3.3949 2.58164 0
M  V30 3956 S 363.714 -3.31548 4.20519 0
M  V30 3957 C 364.87 -4.72139 4.10896 0
M  V30 3958 H 365.103 -1.66058 2.46601 0
M  V30 3959 H 362.636 -0.761337 1.34324 0
M  V30 3960 H 364.594 -3.8833 1.33079 0
M  V30 3961 H 363.255 -3.10751 0.457436 0
M  V30 3962 H 362.448 -4.40071 2.45669 0
M  V30 3963 H 362.05 -2.67415 2.61468 0
M  V30 3964 H 364.342 -5.62527 3.77584 0
M  V30 3965 H 365.285 -4.89692 5.11476 0
M  V30 3966 H 365.693 -4.48995 3.42146 0
M  V30 3967 N 365.091 -1.34144 -0.827227 0
M  V30 3968 C 366.024 -1.19707 -1.94282 0
M  V30 3969 C 367.002 -0.0897256 -1.62352 0
M  V30 3970 O 368.186 -0.254095 -1.8678 0
M  V30 3971 C 365.313 -0.838646 -3.28153 0
M  V30 3972 C 364.359 -1.95514 -3.79047 0
M  V30 3973 S 365.192 -3.56793 -3.99323 0
M  V30 3974 C 366.348 -3.22983 -5.36127 0
M  V30 3975 H 366.581 -2.1414 -2.06231 0
M  V30 3976 H 364.114 -1.19121 -0.982321 0
M  V30 3977 H 366.072 -0.638637 -4.05502 0
M  V30 3978 H 364.733 0.0872776 -3.13979 0
M  V30 3979 H 363.926 -1.658 -4.75948 0
M  V30 3980 H 363.528 -2.11241 -3.08631 0
M  V30 3981 H 365.82 -2.74531 -6.19386 0
M  V30 3982 H 366.763 -4.19008 -5.70822 0
M  V30 3983 H 367.171 -2.59276 -5.01434 0
M  V30 3984 N 366.569 1.04691 -1.17803 0
M  V30 3985 C 367.797 1.81446 -0.99423 0
M  V30 3986 C 368.212 1.83174 0.457459 0
M  V30 3987 O 367.569 1.26265 1.31771 0
M  V30 3988 C 367.62 3.27334 -1.5341 0
M  V30 3989 O 367.341 3.25798 -2.92895 0
M  V30 3990 C 368.842 4.20759 -1.39559 0
M  V30 3991 H 366.062 0.571599 -0.351447 0
M  V30 3992 H 368.606 1.31982 -1.56208 0
M  V30 3993 H 366.761 3.74052 -1.00815 0
M  V30 3994 H 367.175 4.17144 -3.17949 0
M  V30 3995 H 368.649 5.21084 -1.82141 0
M  V30 3996 H 369.126 4.37856 -0.343394 0
M  V30 3997 H 369.732 3.79901 -1.91195 0
M  V30 3998 N 368.047 0.979072 1.23499 0
M  V30 3999 C 368.957 0.526431 2.28617 0
M  V30 4000 C 369.973 -0.418126 1.68901 0
M  V30 4001 O 371.149 -0.288372 1.99325 0
M  V30 4002 C 368.214 -0.165235 3.46306 0
M  V30 4003 C 367.275 0.82056 4.21385 0
M  V30 4004 C 366.508 0.161807 5.33455 0
M  V30 4005 O 366.731 -1.04742 5.60701 0
M  V30 4006 O 365.665 0.859708 5.95729 0
M  V30 4007 H 369.491 1.4006 2.69475 0
M  V30 4008 H 367.076 0.746643 1.29405 0
M  V30 4009 H 368.958 -0.553287 4.17752 0
M  V30 4010 H 367.633 -1.01419 3.07402 0
M  V30 4011 H 366.54 1.25929 3.52268 0
M  V30 4012 H 367.873 1.63828 4.64135 0
M  V30 4013 N 369.525 -1.3858 0.750561 0
M  V30 4014 C 370.755 -2.04175 0.31564 0
M  V30 4015 C 371.163 -1.56726 -1.05989 0
M  V30 4016 O 370.506 -0.734225 -1.68389 0
M  V30 4017 C 370.568 -3.58585 0.256389 0
M  V30 4018 C 370.232 -4.29077 1.57296 0
M  V30 4019 C 371.229 -4.54656 2.52159 0
M  V30 4020 C 368.914 -4.67324 1.84156 0
M  V30 4021 C 370.908 -5.17512 3.72103 0
M  V30 4022 C 368.595 -5.29905 3.04374 0
M  V30 4023 C 369.593 -5.54933 3.98168 0
M  V30 4024 O 369.281 -6.16212 5.16273 0
M  V30 4025 H 369.013 -0.662742 0.133226 0
M  V30 4026 H 371.567 -1.78313 1.01948 0
M  V30 4027 H 369.797 -3.83406 -0.503677 0
M  V30 4028 H 371.486 -4.05628 -0.148612 0
M  V30 4029 H 372.252 -4.25539 2.32683 0
M  V30 4030 H 368.131 -4.47191 1.11988 0
M  V30 4031 H 371.675 -5.36963 4.45327 0
M  V30 4032 H 367.572 -5.58444 3.23745 0
M  V30 4033 H 368.34 -6.34701 5.16815 0
M  V30 4034 N 371.003 -0.499398 -1.49478 0
M  V30 4035 C 372.233 0.0424839 -2.06556 0
M  V30 4036 C 372.641 1.31514 -1.36018 0
M  V30 4037 O 371.984 1.78555 -0.431718 0
M  V30 4038 C 372.046 0.368074 -3.57611 0
M  V30 4039 C 371.71 -0.806631 -4.49825 0
M  V30 4040 C 372.707 -1.69667 -4.91436 0
M  V30 4041 C 370.392 -1.00498 -4.92144 0
M  V30 4042 C 372.386 -2.76923 -5.74101 0
M  V30 4043 C 370.073 -2.08072 -5.74586 0
M  V30 4044 C 371.071 -2.96119 -6.15469 0
M  V30 4045 O 370.759 -4.01836 -6.96264 0
M  V30 4046 H 370.491 -0.0165165 -0.675798 0
M  V30 4047 H 373.045 -0.695497 -1.93267 0
M  V30 4048 H 371.275 1.15963 -3.68903 0
M  V30 4049 H 372.964 0.848381 -3.96935 0
M  V30 4050 H 373.73 -1.55524 -4.59388 0
M  V30 4051 H 369.609 -0.329036 -4.59824 0
M  V30 4052 H 373.153 -3.45676 -6.05932 0
M  V30 4053 H 369.05 -2.22211 -6.06047 0
M  V30 4054 H 369.818 -3.9917 -7.14567 0
M  V30 4055 N 372.481 1.55866 -0.233164 0
M  V30 4056 C 373.431 2.17442 0.685774 0
M  V30 4057 C 374.415 1.12617 1.14918 0
M  V30 4058 O 375.607 1.3857 1.10124 0
M  V30 4059 C 372.736 2.86685 1.88856 0
M  V30 4060 C 371.822 3.98749 1.4443 0
M  V30 4061 N 372.213 5.00744 0.713364 0
M  V30 4062 C 370.511 4.11052 1.73068 0
M  V30 4063 C 371.212 5.79673 0.485205 0
M  V30 4064 N 370.188 5.33454 1.04536 0
M  V30 4065 H 373.99 2.93659 0.119022 0
M  V30 4066 H 371.504 1.62362 -0.0348995 0
M  V30 4067 H 373.501 3.29218 2.55776 0
M  V30 4068 H 372.161 2.11967 2.45967 0
M  V30 4069 H 373.172 5.16613 0.364861 0
M  V30 4070 H 369.849 3.47495 2.31416 0
M  V30 4071 H 371.239 6.71829 -0.097365 0
M  V30 4072 N 373.959 -0.0401083 1.57549 0
M  V30 4073 C 375.189 -0.744115 1.92734 0
M  V30 4074 C 375.597 -1.70005 0.830348 0
M  V30 4075 O 374.94 -1.82576 -0.20286 0
M  V30 4076 C 375.002 -1.56516 3.2364 0
M  V30 4077 C 374.666 -0.7752 4.50377 0
M  V30 4078 C 375.663 -0.0803326 5.19838 0
M  V30 4079 C 373.348 -0.733002 4.96923 0
M  V30 4080 C 375.342 0.646154 6.34116 0
M  V30 4081 C 373.029 -0.00276321 6.111 0
M  V30 4082 C 374.027 0.685585 6.7955 0
M  V30 4083 O 373.715 1.40399 7.91545 0
M  V30 4084 H 373.447 -0.214861 0.640945 0
M  V30 4085 H 376.001 -0.00503675 2.05399 0
M  V30 4086 H 374.231 -2.3478 3.07271 0
M  V30 4087 H 375.92 -2.15076 3.44234 0
M  V30 4088 H 376.686 -0.104035 4.84888 0
M  V30 4089 H 372.565 -1.25827 4.43496 0
M  V30 4090 H 376.109 1.18398 6.87479 0
M  V30 4091 H 372.006 0.0229012 6.45496 0
M  V30 4092 H 372.774 1.31653 8.07843 0
M  V30 4093 N 375.437 -1.54477 -0.31217 0
M  V30 4094 C 376.686 -1.72438 -1.04633 0
M  V30 4095 C 376.999 -0.511163 -1.88803 0
M  V30 4096 O 378.205 -0.572341 -2.65399 0
M  V30 4097 C 376.661 -3.05043 -1.9099 0
M  V30 4098 C 376.269 -4.33806 -1.11877 0
M  V30 4099 C 378.013 -3.32364 -2.64073 0
M  V30 4100 C 375.92 -5.57467 -1.97445 0
M  V30 4101 H 374.85 -0.642647 -0.394361 0
M  V30 4102 H 377.501 -1.80966 -0.303929 0
M  V30 4103 H 375.883 -2.90451 -2.69173 0
M  V30 4104 H 377.057 -4.59199 -0.383843 0
M  V30 4105 H 375.372 -4.13336 -0.504252 0
M  V30 4106 H 377.969 -4.21951 -3.28423 0
M  V30 4107 H 378.312 -2.50745 -3.32314 0
M  V30 4108 H 378.845 -3.47875 -1.92944 0
M  V30 4109 H 375.584 -6.41722 -1.33692 0
M  V30 4110 H 375.104 -5.36277 -2.6864 0
M  V30 4111 H 376.783 -5.94303 -2.5576 0
M  V30 4112 N 376.915 0.57481 -1.46744 0
M  V30 4113 C 378.162 1.33272 -1.52462 0
M  V30 4114 C 378.49 1.93669 -0.179572 0
M  V30 4115 O 377.745 1.7743 0.825664 0
M  V30 4116 C 378.044 2.476 -2.57738 0
M  V30 4117 C 377.71 2.05146 -4.01529 0
M  V30 4118 C 376.372 1.93284 -4.40676 0
M  V30 4119 C 378.724 1.72506 -4.91824 0
M  V30 4120 C 376.052 1.47049 -5.67973 0
M  V30 4121 C 378.404 1.27748 -6.19567 0
M  V30 4122 C 377.068 1.14468 -6.57612 0
M  V30 4123 H 376.338 0.487678 -0.557899 0
M  V30 4124 H 378.985 0.646456 -1.80259 0
M  V30 4125 H 377.29 3.21708 -2.23632 0
M  V30 4126 H 378.987 3.05807 -2.5939 0
M  V30 4127 H 375.577 2.15316 -3.7059 0
M  V30 4128 H 379.761 1.80552 -4.62293 0
M  V30 4129 H 375.017 1.35417 -5.96215 0
M  V30 4130 H 379.191 1.01547 -6.88957 0
M  V30 4131 H 376.818 0.78419 -7.56145 0
M  V30 4132 N 378.394 1.34581 0.820102 0
M  V30 4133 C 379.622 1.3018 1.60813 0
M  V30 4134 C 380.037 -0.123551 1.88395 0
M  V30 4135 O 379.394 -1.07148 1.47735 0
M  V30 4136 C 379.445 2.09312 2.94739 0
M  V30 4137 O 379.166 3.46288 2.68358 0
M  V30 4138 C 380.667 2.1234 3.89136 0
M  V30 4139 H 377.887 0.447726 0.499782 0
M  V30 4140 H 380.431 1.77237 1.02017 0
M  V30 4141 H 378.586 1.65889 3.50085 0
M  V30 4142 H 379 3.87227 3.53774 0
M  V30 4143 H 380.474 2.72126 4.80262 0
M  V30 4144 H 380.951 1.11854 4.24718 0
M  V30 4145 H 381.557 2.55864 3.39726 0
M  V30 4146 N 379.872 -1.04064 1.18357 0
M  V30 4147 C 381.1 -1.80916 1.00384 0
M  V30 4148 C 381.515 -1.83414 -0.447738 0
M  V30 4149 O 380.872 -1.26962 -1.31099 0
M  V30 4150 C 380.923 -3.26516 1.55144 0
M  V30 4151 O 380.644 -3.2424 2.94618 0
M  V30 4152 C 382.145 -4.20013 1.41789 0
M  V30 4153 H 379.365 -0.569728 0.354474 0
M  V30 4154 H 381.909 -1.31151 1.56906 0
M  V30 4155 H 380.064 -3.73512 1.02798 0
M  V30 4156 H 380.478 -4.15452 3.20156 0
M  V30 4157 H 381.952 -5.20111 1.84901 0
M  V30 4158 H 382.429 -4.37667 0.36661 0
M  V30 4159 H 383.035 -3.78881 1.93207 0
M  V30 4160 N 381.35 -0.985608 -1.22978 0
M  V30 4161 C 382.28 -0.549649 -2.26939 0
M  V30 4162 C 383.261 0.419803 -1.64838 0
M  V30 4163 O 384.446 0.31203 -1.91677 0
M  V30 4164 C 381.576 0.143652 -3.47003 0
M  V30 4165 C 380.53 -0.743606 -4.21491 0
M  V30 4166 C 379.856 0.0822027 -5.34637 0
M  V30 4167 C 381.156 -2.03694 -4.80943 0
M  V30 4168 H 382.85 -1.41862 -2.63658 0
M  V30 4169 H 380.396 -0.683571 -1.26741 0
M  V30 4170 H 382.349 0.459985 -4.18882 0
M  V30 4171 H 381.073 1.04711 -3.09359 0
M  V30 4172 H 379.732 -1.04347 -3.51436 0
M  V30 4173 H 379.38 0.986359 -4.93234 0
M  V30 4174 H 379.08 -0.508377 -5.85397 0
M  V30 4175 H 380.604 0.392797 -6.09335 0
M  V30 4176 H 382.018 -1.78504 -5.44802 0
M  V30 4177 H 380.415 -2.57573 -5.42011 0
M  V30 4178 H 381.485 -2.72042 -4.01399 0
M  V30 4179 N 382.828 1.3818 -0.7579 0
M  V30 4180 C 384.105 1.94106 -0.241306 0
M  V30 4181 C 384.485 1.69282 1.26122 0
M  V30 4182 O 383.833 1.03378 2.03777 0
M  V30 4183 C 384.043 3.43809 -0.59967 0
M  V30 4184 C 385.391 4.20868 -0.561717 0
M  V30 4185 O 386.415 3.5211 -0.538222 0
M  V30 4186 O 385.274 5.43451 -0.576478 0
M  V30 4187 H 382.368 0.825376 -0.0518042 0
M  V30 4188 H 384.914 1.47548 -0.838315 0
M  V30 4189 H 383.686 3.55403 -1.6372 0
M  V30 4190 H 383.309 3.97592 0.0251197 0
M  V30 4191 N 384.306 0.507319 1.49211 0
M  V30 4192 C 385.236 -0.256939 2.32082 0
M  V30 4193 C 386.217 -0.956609 1.40652 0
M  V30 4194 O 387.402 -0.946788 1.69557 0
M  V30 4195 C 384.532 -1.31802 3.21318 0
M  V30 4196 C 383.486 -0.737855 4.21592 0
M  V30 4197 C 382.812 -1.89992 4.99807 0
M  V30 4198 C 384.112 0.275325 5.21574 0
M  V30 4199 H 385.806 0.434798 2.96226 0
M  V30 4200 H 383.352 0.210546 1.42452 0
M  V30 4201 H 385.305 -1.86045 3.78107 0
M  V30 4202 H 384.029 -2.03903 2.5513 0
M  V30 4203 H 382.688 -0.217126 3.65956 0
M  V30 4204 H 382.336 -2.60877 4.30061 0
M  V30 4205 H 382.036 -1.51777 5.6766 0
M  V30 4206 H 383.56 -2.44657 5.59442 0
M  V30 4207 H 384.974 -0.179193 5.7302 0
M  V30 4208 H 383.371 0.573649 5.97352 0
M  V30 4209 H 384.441 1.18903 4.70096 0
M  V30 4210 N 385.784 -1.5574 0.241426 0
M  V30 4211 C 387.031 -1.9881 -0.384836 0
M  V30 4212 C 387.359 -1.12947 -1.58346 0
M  V30 4213 O 386.614 -0.178993 -1.9488 0
M  V30 4214 C 386.913 -3.47308 -0.843317 0
M  V30 4215 C 386.579 -4.50223 0.246946 0
M  V30 4216 C 385.241 -4.78088 0.546399 0
M  V30 4217 C 387.593 -5.11841 0.983282 0
M  V30 4218 C 384.921 -5.64846 1.58636 0
M  V30 4219 C 387.273 -5.99727 2.01272 0
M  V30 4220 C 385.937 -6.25927 2.31888 0
M  V30 4221 H 385.207 -0.727496 -0.140821 0
M  V30 4222 H 387.854 -1.8831 0.348106 0
M  V30 4223 H 386.159 -3.55112 -1.65537 0
M  V30 4224 H 387.856 -3.78017 -1.33806 0
M  V30 4225 H 384.446 -4.286 0.00340639 0
M  V30 4226 H 388.63 -4.90366 0.765182 0
M  V30 4227 H 383.886 -5.83403 1.82896 0
M  V30 4228 H 388.06 -6.46517 2.58823 0
M  V30 4229 H 385.687 -6.92949 3.12611 0
M  V30 4230 N 387.262 0.0317525 -1.57568 0
M  V30 4231 C 388.225 1.01783 -2.0536 0
M  V30 4232 C 389.225 1.29203 -0.957253 0
M  V30 4233 O 390.415 1.24251 -1.22095 0
M  V30 4234 C 387.547 2.35137 -2.46827 0
M  V30 4235 H 388.74 0.605062 -2.93733 0
M  V30 4236 H 386.293 0.278514 -1.53799 0
M  V30 4237 H 387.028 2.81168 -1.61602 0
M  V30 4238 H 386.813 2.16566 -3.26866 0
M  V30 4239 H 388.303 3.05938 -2.84239 0
M  V30 4240 N 388.74 1.54641 0.303973 0
M  V30 4241 C 389.67 1.88386 1.3796 0
M  V30 4242 C 390.651 0.742485 1.5304 0
M  V30 4243 O 391.836 0.997959 1.66597 0
M  V30 4244 C 388.966 2.12854 2.74427 0
M  V30 4245 C 387.92 3.28702 2.74115 0
M  V30 4246 C 387.246 3.38582 4.13844 0
M  V30 4247 C 388.546 4.65881 2.3612 0
M  V30 4248 H 390.24 2.78474 1.09966 0
M  V30 4249 H 387.786 1.33988 0.527556 0
M  V30 4250 H 389.739 2.35047 3.49758 0
M  V30 4251 H 388.463 1.19535 3.03939 0
M  V30 4252 H 387.122 3.06428 2.0124 0
M  V30 4253 H 386.77 2.42784 4.40528 0
M  V30 4254 H 386.47 4.16453 4.14537 0
M  V30 4255 H 387.994 3.63031 4.90959 0
M  V30 4256 H 389.408 4.87823 3.01167 0
M  V30 4257 H 387.805 5.46444 2.48031 0
M  V30 4258 H 388.875 4.66799 1.3125 0
M  V30 4259 N 390.218 -0.567019 1.47046 0
M  V30 4260 C 391.495 -1.3276 1.43646 0
M  V30 4261 C 391.875 -2.1071 0.128186 0
M  V30 4262 O 391.223 -2.10441 -0.890326 0
M  V30 4263 C 391.433 -2.2404 2.67595 0
M  V30 4264 C 392.781 -2.85372 3.14401 0
M  V30 4265 O 393.805 -2.34346 2.68254 0
M  V30 4266 O 392.664 -3.78091 3.946 0
M  V30 4267 H 389.758 -0.597293 0.571988 0
M  V30 4268 H 392.304 -0.586735 1.59234 0
M  V30 4269 H 391.076 -1.65975 3.54356 0
M  V30 4270 H 390.699 -3.05439 2.54544 0
M  V30 4271 N 391.696 -1.35014 -0.812953 0
M  V30 4272 C 392.942 -1.2812 -1.57204 0
M  V30 4273 C 393.275 0.145869 -1.93651 0
M  V30 4274 O 392.55 1.0937 -1.60836 0
M  V30 4275 C 392.833 -2.18162 -2.86492 0
M  V30 4276 C 392.686 -3.69454 -2.56561 0
M  V30 4277 C 394.005 -2.07439 -3.88145 0
M  V30 4278 H 391.124 -0.466746 -0.570366 0
M  V30 4279 H 393.766 -1.65357 -0.935783 0
M  V30 4280 H 391.916 -1.86535 -3.40789 0
M  V30 4281 H 393.588 -4.11493 -2.08497 0
M  V30 4282 H 391.831 -3.9005 -1.89851 0
M  V30 4283 H 392.502 -4.27835 -3.48799 0
M  V30 4284 H 394.978 -2.35228 -3.4323 0
M  V30 4285 H 393.854 -2.7265 -4.76396 0
M  V30 4286 H 394.115 -1.05439 -4.29343 0
M  V30 4287 N 393.175 1.03435 -1.18907 0
M  V30 4288 C 394.085 2.15075 -0.937015 0
M  V30 4289 C 395.101 1.73706 0.101085 0
M  V30 4290 O 396.277 2.01232 -0.0822948 0
M  V30 4291 C 393.342 3.43458 -0.473057 0
M  V30 4292 C 392.403 3.99172 -1.57989 0
M  V30 4293 C 391.636 5.21427 -1.13797 0
M  V30 4294 O 391.859 5.704 0.000725941 0
M  V30 4295 O 390.793 5.69837 -1.9383 0
M  V30 4296 H 394.619 2.39198 -1.87131 0
M  V30 4297 H 392.204 1.13506 -0.971427 0
M  V30 4298 H 394.086 4.20811 -0.222702 0
M  V30 4299 H 392.761 3.20793 0.432869 0
M  V30 4300 H 391.668 3.23178 -1.88433 0
M  V30 4301 H 393.001 4.2619 -2.46217 0
M  V30 4302 N 394.653 0.992116 1.22453 0
M  V30 4303 C 396.064 0.702776 1.72968 0
M  V30 4304 C 396.415 -0.780399 1.80012 0
M  V30 4305 O 395.54 -1.61007 1.44589 0
M  V30 4306 C 396.135 1.26903 3.14135 0
M  V30 4307 C 394.694 1.02909 3.62059 0
M  V30 4308 C 393.841 1.38969 2.39964 0
M  V30 4309 H 396.792 1.16457 1.07812 0
M  V30 4310 H 396.813 0.647223 3.74955 0
M  V30 4311 H 396.325 2.34851 3.08977 0
M  V30 4312 H 394.426 -0.0337979 3.72585 0
M  V30 4313 H 394.539 1.69191 4.48231 0
M  V30 4314 H 392.903 0.808279 2.41535 0
M  V30 4315 H 393.686 2.4792 2.37467 0
M  V30 4316 N 396.131 -1.37776 0.765217 0
M  V30 4317 C 397.361 -2.03828 0.337277 0
M  V30 4318 C 397.769 -1.57841 -1.04321 0
M  V30 4319 O 397.112 -0.752043 -1.67601 0
M  V30 4320 C 397.174 -3.58292 0.294407 0
M  V30 4321 C 396.838 -4.27384 1.61838 0
M  V30 4322 C 397.835 -4.51956 2.56967 0
M  V30 4323 C 395.52 -4.65345 1.89102 0
M  V30 4324 C 397.514 -5.13536 3.77571 0
M  V30 4325 C 395.201 -5.26647 3.09978 0
M  V30 4326 C 396.199 -5.50679 4.04032 0
M  V30 4327 O 395.887 -6.10702 5.2278 0
M  V30 4328 H 395.619 -0.661292 0.140248 0
M  V30 4329 H 398.173 -1.77222 1.03834 0
M  V30 4330 H 396.403 -3.83918 -0.462983 0
M  V30 4331 H 398.092 -4.05763 -0.105581 0
M  V30 4332 H 398.858 -4.23048 2.37183 0
M  V30 4333 H 394.737 -4.45978 1.16725 0
M  V30 4334 H 398.281 -5.3221 4.50997 0
M  V30 4335 H 394.178 -5.54979 3.29649 0
M  V30 4336 H 394.946 -6.29183 5.23517 0
M  V30 4337 N 397.609 -0.515225 -1.4894 0
M  V30 4338 C 399.025 -0.172099 -1.58669 0
M  V30 4339 C 399.225 1.32405 -1.51892 0
M  V30 4340 O 398.281 2.10116 -1.40027 0
M  V30 4341 C 399.594 -0.761533 -2.90897 0
M  V30 4342 C 401.142 -0.728926 -3.04394 0
M  V30 4343 C 401.617 -1.29667 -4.39261 0
M  V30 4344 N 403.108 -1.25799 -4.4579 0
M  V30 4345 C 403.843 -1.66733 -5.48623 0
M  V30 4346 N 403.339 -2.15327 -6.58488 0
M  V30 4347 N 405.132 -1.58061 -5.39419 0
M  V30 4348 H 397.283 -1.48778 -1.51588 0
M  V30 4349 H 399.546 -0.617968 -0.718901 0
M  V30 4350 H 399.252 -1.81136 -3.01468 0
M  V30 4351 H 399.126 -0.230106 -3.76497 0
M  V30 4352 H 401.513 0.312098 -2.93445 0
M  V30 4353 H 401.594 -1.29766 -2.20442 0
M  V30 4354 H 401.238 -2.33655 -4.50963 0
M  V30 4355 H 401.168 -0.703752 -5.21876 0
M  V30 4356 H 403.659 -0.902102 -3.66975 0
M  V30 4357 H 403.972 -2.44594 -7.33071 0
M  V30 4358 H 402.317 -2.19311 -6.59491 0
M  V30 4359 H 405.508 -1.19906 -4.52482 0
M  V30 4360 H 405.681 -1.90284 -6.19432 0
M  V30 4361 N 399.087 1.5561 -0.249682 0
M  V30 4362 C 400.317 2.03116 0.377803 0
M  V30 4363 C 400.725 1.12822 1.51881 0
M  V30 4364 O 400.068 0.13562 1.83199 0
M  V30 4365 C 400.13 3.46866 0.944693 0
M  V30 4366 C 399.794 4.56955 -0.0644259 0
M  V30 4367 C 400.791 5.12485 -0.874957 0
M  V30 4368 C 398.476 5.01936 -0.19132 0
M  V30 4369 C 400.47 6.11491 -1.79881 0
M  V30 4370 C 398.157 6.00773 -1.11868 0
M  V30 4371 C 399.155 6.5543 -1.92095 0
M  V30 4372 O 398.843 7.5234 -2.83267 0
M  V30 4373 H 398.575 0.669489 0.0935961 0
M  V30 4374 H 401.129 2.02004 -0.371966 0
M  V30 4375 H 399.359 3.45136 1.74407 0
M  V30 4376 H 401.048 3.77856 1.48255 0
M  V30 4377 H 401.814 4.78564 -0.787523 0
M  V30 4378 H 397.693 4.59055 0.423072 0
M  V30 4379 H 401.237 6.54078 -2.42543 0
M  V30 4380 H 397.134 6.34114 -1.20703 0
M  V30 4381 H 397.902 7.69966 -2.7766 0
M  V30 4382 N 400.565 -0.0233959 1.57583 0
M  V30 4383 C 401.79 -0.728376 1.94189 0
M  V30 4384 C 402.215 -1.67793 0.850119 0
M  V30 4385 O 401.573 -1.80262 -0.19371 0
M  V30 4386 C 401.621 -1.45669 3.29868 0
M  V30 4387 O 400.725 -2.57013 3.22518 0
M  V30 4388 H 400.066 -0.195493 0.63457 0
M  V30 4389 H 402.596 0.0228214 2.04587 0
M  V30 4390 H 402.606 -1.82535 3.6489 0
M  V30 4391 H 401.281 -0.760314 4.08891 0
M  V30 4392 H 399.858 -2.22648 2.99136 0
M  V30 4393 N 402.043 -1.548 -0.295768 0
M  V30 4394 C 403.291 -1.73985 -1.02828 0
M  V30 4395 C 403.612 -0.531406 -1.87619 0
M  V30 4396 O 402.882 0.454221 -1.90561 0
M  V30 4397 H 401.462 -0.641556 -0.382642 0
M  V30 4398 H 404.124 -1.92163 -0.325489 0
M  V30 4399 H 403.22 -2.63129 -1.67838 0
M  V30 4400 N 403.521 0.559213 -1.47345 0
M  V30 4401 C 404.767 1.31843 -1.54095 0
M  V30 4402 C 405.1 1.93149 -0.201726 0
M  V30 4403 O 404.375 1.77759 0.789428 0
M  V30 4404 C 404.658 2.43006 -2.65744 0
M  V30 4405 C 404.511 1.86581 -4.09277 0
M  V30 4406 C 405.83 3.44943 -2.73318 0
M  V30 4407 H 402.949 0.478012 -0.560957 0
M  V30 4408 H 405.591 0.625977 -1.79392 0
M  V30 4409 H 403.741 3.02072 -2.44305 0
M  V30 4410 H 405.413 1.31792 -4.42073 0
M  V30 4411 H 403.656 1.17268 -4.17649 0
M  V30 4412 H 404.327 2.66933 -4.83168 0
M  V30 4413 H 406.803 2.95793 -2.92653 0
M  V30 4414 H 405.679 4.20153 -3.53218 0
M  V30 4415 H 405.94 4.03665 -1.80296 0
M  V30 4416 N 404.999 1.35443 0.805782 0
M  V30 4417 C 405.947 1.28465 1.93906 0
M  V30 4418 C 406.941 0.17943 1.68447 0
M  V30 4419 O 408.147 0.345459 1.76654 0
M  V30 4420 H 404.522 0.399528 0.637088 0
M  V30 4421 H 406.493 2.24206 1.96912 0
M  V30 4422 C 405.242 1.07432 3.30687 0
M  V30 4423 H 404.565 1.91716 3.50835 0
M  V30 4424 H 406.005 1.06591 4.10383 0
M  V30 4425 C 404.464 -0.22179 3.36169 0
M  V30 4426 O 404.994 -1.21731 3.82811 0
M  V30 4427 N 403.2 -0.260841 2.89427 0
M  V30 4428 H 402.747 0.549884 2.51663 0
M  V30 4429 H 402.705 -1.12777 2.93477 0
M  V30 4430 N 406.477 -1.02803 1.19454 0
M  V30 4431 C 407.41 -2.107 0.876396 0
M  V30 4432 C 408.388 -1.61741 -0.166897 0
M  V30 4433 O 409.572 -1.88451 -0.0430195 0
M  V30 4434 C 406.699 -3.37262 0.311758 0
M  V30 4435 C 405.745 -4.05093 1.33424 0
M  V30 4436 S 406.578 -4.50498 2.89503 0
M  V30 4437 C 407.734 -5.80277 2.34584 0
M  V30 4438 H 407.967 -2.37362 1.79016 0
M  V30 4439 H 405.5 -1.15755 1.02177 0
M  V30 4440 H 407.458 -4.10499 -0.00748752 0
M  V30 4441 H 406.119 -3.08693 -0.58032 0
M  V30 4442 H 405.312 -4.9611 0.888302 0
M  V30 4443 H 404.914 -3.3803 1.60037 0
M  V30 4444 H 407.206 -6.54873 1.73633 0
M  V30 4445 H 408.149 -6.29651 3.23952 0
M  V30 4446 H 408.557 -5.3599 1.77131 0
M  V30 4447 N 407.956 -0.998596 -1.21925 0
M  V30 4448 C 409.184 -0.696286 -1.94832 0
M  V30 4449 C 409.599 0.740032 -1.73692 0
M  V30 4450 O 408.956 1.5 -1.03953 0
M  V30 4451 C 409.007 -0.999833 -3.47398 0
M  V30 4452 O 408.728 -2.37972 -3.67833 0
M  V30 4453 C 410.229 -0.716025 -4.37479 0
M  V30 4454 H 407.449 -0.257111 -0.619786 0
M  V30 4455 H 409.993 -1.33491 -1.54921 0
M  V30 4456 H 408.148 -0.406918 -3.85257 0
M  V30 4457 H 408.562 -2.48338 -4.61983 0
M  V30 4458 H 410.036 -0.978642 -5.43256 0
M  V30 4459 H 410.513 0.349968 -4.37803 0
M  V30 4460 H 411.119 -1.29025 -4.05256 0
M  V30 4461 N 409.434 1.37368 -0.772513 0
M  V30 4462 C 410.682 1.99279 -0.336516 0
M  V30 4463 C 411.003 1.6163 1.09091 0
M  V30 4464 O 410.273 0.882109 1.74916 0
M  V30 4465 H 408.853 0.737063 -0.121435 0
M  V30 4466 H 411.515 1.67836 -0.990809 0
M  V30 4467 H 410.611 3.09332 -0.414763 0
M  V30 4468 N 410.912 0.523116 1.48665 0
M  V30 4469 C 412.159 -0.0134763 2.02496 0
M  V30 4470 C 412.487 -1.3493 1.40086 0
M  V30 4471 O 411.742 -1.88286 0.533567 0
M  V30 4472 C 412.041 -0.191671 3.56886 0
M  V30 4473 C 411.707 1.06893 4.38046 0
M  V30 4474 C 410.369 1.41443 4.59943 0
M  V30 4475 C 412.721 1.90584 4.85106 0
M  V30 4476 C 410.049 2.59594 5.26144 0
M  V30 4477 C 412.401 3.07907 5.52609 0
M  V30 4478 C 411.065 3.42811 5.72745 0
M  V30 4479 H 410.335 -0.00493133 0.740984 0
M  V30 4480 H 412.982 0.687751 1.78724 0
M  V30 4481 H 411.287 -0.97561 3.79459 0
M  V30 4482 H 412.984 -0.621659 3.96152 0
M  V30 4483 H 409.574 0.789848 4.21259 0
M  V30 4484 H 413.758 1.65203 4.67997 0
M  V30 4485 H 409.014 2.86847 5.39934 0
M  V30 4486 H 413.188 3.73066 5.88043 0
M  V30 4487 H 410.815 4.34462 6.23816 0
M  V30 4488 N 412.39 -1.55475 0.257931 0
M  V30 4489 C 413.806 -1.59307 -0.0966563 0
M  V30 4490 C 414.006 -1.27514 -1.5602 0
M  V30 4491 O 413.062 -1.02774 -2.30637 0
M  V30 4492 C 414.375 -2.99552 0.262481 0
M  V30 4493 C 415.923 -3.1231 0.207683 0
M  V30 4494 C 416.398 -4.54793 0.541012 0
M  V30 4495 N 417.889 -4.6058 0.491921 0
M  V30 4496 C 418.624 -5.68825 0.722857 0
M  V30 4497 N 418.12 -6.85287 1.0175 0
M  V30 4498 N 419.913 -5.58296 0.652815 0
M  V30 4499 H 412.064 -1.74409 1.21224 0
M  V30 4500 H 414.327 -0.812424 0.48854 0
M  V30 4501 H 414.033 -3.27593 1.27967 0
M  V30 4502 H 413.907 -3.75019 -0.40508 0
M  V30 4503 H 416.294 -2.84044 -0.800195 0
M  V30 4504 H 416.375 -2.39095 0.909255 0
M  V30 4505 H 416.019 -4.83783 1.5465 0
M  V30 4506 H 415.949 -5.26285 -0.18216 0
M  V30 4507 H 418.44 -3.7691 0.273366 0
M  V30 4508 H 418.753 -7.63725 1.18084 0
M  V30 4509 H 417.098 -6.86945 1.05509 0
M  V30 4510 H 420.289 -4.66189 0.422592 0
M  V30 4511 H 420.462 -6.42582 0.836182 0
M  V30 4512 N 413.868 0.0150385 -1.57593 0
M  V30 4513 C 415.117 0.702115 -1.89085 0
M  V30 4514 C 415.43 1.75764 -0.858277 0
M  V30 4515 O 416.636 2.49829 -1.0629 0
M  V30 4516 C 415.092 1.29992 -3.35604 0
M  V30 4517 C 414.7 0.280007 -4.47124 0
M  V30 4518 C 416.444 1.96606 -3.76227 0
M  V30 4519 C 414.351 0.886949 -5.84711 0
M  V30 4520 H 413.281 0.265997 -0.705522 0
M  V30 4521 H 415.932 -0.0430408 -1.8345 0
M  V30 4522 H 414.314 2.09525 -3.36029 0
M  V30 4523 H 415.488 -0.489631 -4.58191 0
M  V30 4524 H 413.803 -0.284835 -4.15425 0
M  V30 4525 H 416.4 2.42893 -4.76347 0
M  V30 4526 H 416.743 2.79024 -3.08952 0
M  V30 4527 H 417.276 1.23828 -3.78036 0
M  V30 4528 H 414.015 0.101876 -6.55421 0
M  V30 4529 H 413.535 1.6261 -5.77337 0
M  V30 4530 H 415.214 1.39011 -6.3189 0
M  V30 4531 N 415.346 1.54954 0.287554 0
M  V30 4532 C 416.276 1.89839 1.35954 0
M  V30 4533 C 417.257 0.758675 1.52244 0
M  V30 4534 O 418.442 1.01557 1.65529 0
M  V30 4535 C 415.572 2.15753 2.72154 0
M  V30 4536 C 414.526 3.3159 2.70614 0
M  V30 4537 C 413.852 3.42952 4.10229 0
M  V30 4538 C 415.152 4.68359 2.31165 0
M  V30 4539 H 416.846 2.79625 1.07007 0
M  V30 4540 H 414.392 1.3454 0.513316 0
M  V30 4541 H 416.345 2.38743 3.47246 0
M  V30 4542 H 415.069 1.22752 3.02654 0
M  V30 4543 H 413.728 3.08545 1.97979 0
M  V30 4544 H 413.376 2.47443 4.37928 0
M  V30 4545 H 413.076 4.20826 4.10097 0
M  V30 4546 H 414.6 3.68218 4.87081 0
M  V30 4547 H 416.014 4.9099 2.95976 0
M  V30 4548 H 414.411 5.49044 2.42221 0
M  V30 4549 H 415.481 4.68165 1.26291 0
M  V30 4550 N 416.824 -0.551391 1.4764 0
M  V30 4551 C 417.772 -1.67896 1.60978 0
M  V30 4552 C 418.766 -1.62549 0.476877 0
M  V30 4553 O 419.972 -1.67664 0.654878 0
M  V30 4554 H 416.347 -0.555649 0.506713 0
M  V30 4555 H 418.318 -1.53784 2.55721 0
M  V30 4556 C 417.067 -3.06234 1.64669 0
M  V30 4557 H 416.39 -3.11033 2.51194 0
M  V30 4558 H 417.83 -3.84804 1.7805 0
M  V30 4559 C 416.289 -3.34737 0.381115 0
M  V30 4560 O 416.819 -3.98381 -0.515297 0
M  V30 4561 N 415.025 -2.8944 0.259354 0
M  V30 4562 H 414.572 -2.37827 0.98976 0
M  V30 4563 H 414.53 -3.08882 -0.586464 0
M  V30 4564 N 418.302 -1.35869 -0.798587 0
M  V30 4565 C 419.53 -1.32722 -1.58722 0
M  V30 4566 C 419.945 0.0935631 -1.88568 0
M  V30 4567 O 419.302 1.04784 -1.49421 0
M  V30 4568 C 419.353 -2.13974 -2.91371 0
M  V30 4569 O 419.074 -3.50514 -2.62815 0
M  V30 4570 C 420.575 -2.18504 -3.85708 0
M  V30 4571 H 417.795 -0.45562 -0.492596 0
M  V30 4572 H 420.339 -1.78837 -0.991843 0
M  V30 4573 H 418.494 -1.71438 -3.47402 0
M  V30 4574 H 418.908 -3.92806 -3.47568 0
M  V30 4575 H 420.382 -2.79732 -4.75872 0
M  V30 4576 H 420.859 -1.18597 -4.22885 0
M  V30 4577 H 421.465 -2.61236 -3.35612 0
M  V30 4578 N 419.78 1.02168 -1.19998 0
M  V30 4579 C 420.69 2.14069 -0.959774 0
M  V30 4580 C 421.706 1.73804 0.082655 0
M  V30 4581 O 422.882 2.01133 -0.103633 0
M  V30 4582 C 419.947 3.42936 -0.509459 0
M  V30 4583 C 419.008 3.97474 -1.62213 0
M  V30 4584 C 418.241 5.2019 -1.19321 0
M  V30 4585 O 418.464 5.70369 -0.0597726 0
M  V30 4586 O 417.398 5.67749 -1.99863 0
M  V30 4587 H 421.224 2.37199 -1.89658 0
M  V30 4588 H 418.809 1.12469 -0.983411 0
M  V30 4589 H 420.691 4.20551 -0.267322 0
M  V30 4590 H 419.366 3.21234 0.398821 0
M  V30 4591 H 418.273 3.21161 -1.9185 0
M  V30 4592 H 419.606 4.23555 -2.50723 0
M  V30 4593 N 421.258 1.00505 1.21394 0
M  V30 4594 C 422.206 0.558623 2.25792 0
M  V30 4595 C 423.2 -0.396848 1.64686 0
M  V30 4596 O 424.406 -0.268035 1.77993 0
M  V30 4597 H 420.781 0.1623 0.734277 0
M  V30 4598 H 422.752 1.4503 2.60785 0
M  V30 4599 C 421.501 -0.0989574 3.47559 0
M  V30 4600 H 420.824 0.627225 3.94849 0
M  V30 4601 H 422.264 -0.3746 4.22342 0
M  V30 4602 C 420.723 -1.33817 3.09184 0
M  V30 4603 O 421.253 -2.43252 3.19674 0
M  V30 4604 N 419.459 -1.21793 2.63846 0
M  V30 4605 H 419.006 -0.32746 2.5551 0
M  V30 4606 H 418.964 -2.04809 2.38539 0
M  V30 4607 N 422.737 -1.36956 0.779787 0
M  V30 4608 C 423.965 -2.03755 0.359398 0
M  V30 4609 C 424.38 -1.58807 -1.02106 0
M  V30 4610 O 423.737 -0.773024 -1.6532 0
M  V30 4611 C 423.788 -3.59251 0.402568 0
M  V30 4612 O 423.509 -4.02557 1.72858 0
M  V30 4613 C 425.01 -4.43291 -0.0284068 0
M  V30 4614 H 422.23 -0.654148 0.149437 0
M  V30 4615 H 424.774 -1.75128 1.05595 0
M  V30 4616 H 422.929 -3.86621 -0.245478 0
M  V30 4617 H 423.343 -4.97111 1.67275 0
M  V30 4618 H 424.817 -5.51975 0.0529466 0
M  V30 4619 H 425.294 -4.25719 -1.07982 0
M  V30 4620 H 425.9 -4.21163 0.591758 0
M  V30 4621 N 424.215 -0.530993 -1.48385 0
M  V30 4622 C 425.147 0.268353 -2.27624 0
M  V30 4623 C 426.16 0.903525 -1.35426 0
M  V30 4624 O 427.349 0.781796 -1.60469 0
M  V30 4625 C 424.449 1.39535 -3.08842 0
M  V30 4626 C 423.622 0.861913 -4.28824 0
M  V30 4627 C 422.681 1.87016 -4.91845 0
M  V30 4628 O 421.707 1.4267 -5.5103 0
M  V30 4629 N 422.909 3.20238 -4.84178 0
M  V30 4630 H 425.674 -0.41123 -2.96865 0
M  V30 4631 H 423.235 -0.365387 -1.57723 0
M  V30 4632 H 425.227 2.06803 -3.47871 0
M  V30 4633 H 423.797 1.97859 -2.42014 0
M  V30 4634 H 423.017 0.0132126 -3.94198 0
M  V30 4635 H 424.305 0.484415 -5.06489 0
M  V30 4636 H 423.703 3.58932 -4.37246 0
M  V30 4637 H 422.26 3.83136 -5.27305 0
M  V30 4638 N 425.693 1.55336 -0.266172 0
M  V30 4639 C 426.939 1.99692 0.353681 0
M  V30 4640 C 427.272 1.1543 1.56172 0
M  V30 4641 O 426.547 0.222218 1.93226 0
M  V30 4642 C 426.83 3.52316 0.74466 0
M  V30 4643 C 426.683 4.47337 -0.470101 0
M  V30 4644 C 428.002 4.10588 1.58447 0
M  V30 4645 H 425.121 0.725961 0.12708 0
M  V30 4646 H 427.763 1.86336 -0.371333 0
M  V30 4647 H 425.913 3.63829 1.36239 0
M  V30 4648 H 427.585 4.4778 -1.10864 0
M  V30 4649 H 425.828 4.19364 -1.10978 0
M  V30 4650 H 426.499 5.51788 -0.15291 0
M  V30 4651 H 428.975 4.02297 1.06286 0
M  V30 4652 H 427.851 5.17607 1.82686 0
M  V30 4653 H 428.112 3.60253 2.56262 0
M  V30 4654 N 427.171 -0.0066808 1.57599 0
M  V30 4655 C 428.396 -0.707738 1.94951 0
M  V30 4656 C 428.821 -1.66882 0.867868 0
M  V30 4657 O 428.179 -1.80457 -0.17458 0
M  V30 4658 C 428.227 -1.42162 3.31394 0
M  V30 4659 O 427.331 -2.53578 3.25226 0
M  V30 4660 H 426.672 -0.188752 0.636607 0
M  V30 4661 H 429.202 0.0445193 2.04552 0
M  V30 4662 H 429.212 -1.78655 3.66806 0
M  V30 4663 H 427.887 -0.716903 4.09675 0
M  V30 4664 H 426.464 -2.19463 3.01481 0
M  V30 4665 N 428.649 -1.55105 -0.279332 0
M  V30 4666 C 429.874 -1.7976 -1.03446 0
M  V30 4667 C 430.299 -0.565952 -1.79384 0
M  V30 4668 O 429.657 0.484259 -1.74713 0
M  V30 4669 C 429.705 -3.0179 -1.97371 0
M  V30 4670 O 428.809 -2.76432 -3.06038 0
M  V30 4671 H 428.15 -0.594334 -0.29608 0
M  V30 4672 H 430.68 -2.02235 -0.310165 0
M  V30 4673 H 430.69 -3.30351 -2.39441 0
M  V30 4674 H 429.365 -3.91085 -1.4151 0
M  V30 4675 H 427.942 -2.58949 -2.68328 0
M  V30 4676 N 430.127 0.543554 -1.4793 0
M  V30 4677 C 431.376 1.29649 -1.54512 0
M  V30 4678 C 431.689 1.94382 -0.217973 0
M  V30 4679 O 432.895 2.71017 -0.161908 0
M  V30 4680 C 431.351 2.35175 -2.72435 0
M  V30 4681 C 430.959 1.76572 -4.11736 0
M  V30 4682 C 432.703 3.11564 -2.8832 0
M  V30 4683 C 430.61 2.79958 -5.20939 0
M  V30 4684 H 429.54 0.487541 -0.57517 0
M  V30 4685 H 432.191 0.575708 -1.74235 0
M  V30 4686 H 430.573 3.10229 -2.46118 0
M  V30 4687 H 431.747 1.07799 -4.48013 0
M  V30 4688 H 430.062 1.12722 -4.00852 0
M  V30 4689 H 432.659 3.88794 -3.67074 0
M  V30 4690 H 433.002 3.66594 -1.97268 0
M  V30 4691 H 433.535 2.43623 -3.14472 0
M  V30 4692 H 430.274 2.29766 -6.13912 0
M  V30 4693 H 429.794 3.47101 -4.89164 0
M  V30 4694 H 431.473 3.43198 -5.48474 0
M  V30 4695 N 431.605 1.3629 0.791371 0
M  V30 4696 C 432.854 1.29742 1.54434 0
M  V30 4697 C 433.167 -0.121729 1.95221 0
M  V30 4698 O 434.373 -0.309579 2.69729 0
M  V30 4699 C 432.829 2.27623 2.78776 0
M  V30 4700 C 432.437 3.74963 2.45166 0
M  V30 4701 C 434.181 2.30047 3.56761 0
M  V30 4702 C 432.088 4.64626 3.65891 0
M  V30 4703 H 431.018 0.482113 0.579727 0
M  V30 4704 H 433.669 1.61642 0.868565 0
M  V30 4705 H 432.051 1.88714 3.48142 0
M  V30 4706 H 433.225 4.22596 1.83709 0
M  V30 4707 H 431.54 3.75295 1.80396 0
M  V30 4708 H 434.137 2.94247 4.46456 0
M  V30 4709 H 434.48 1.30846 3.95203 0
M  V30 4710 H 435.013 2.67563 2.94372 0
M  V30 4711 H 431.752 5.64883 3.32547 0
M  V30 4712 H 431.272 4.2171 4.26521 0
M  V30 4713 H 432.951 4.80801 4.32943 0
M  V30 4714 N 433.083 -1.0153 1.20538 0
M  V30 4715 C 433.993 -2.13557 0.971113 0
M  V30 4716 C 435.009 -1.73845 -0.0734366 0
M  V30 4717 O 436.185 -2.01075 0.114299 0
M  V30 4718 C 433.25 -3.42661 0.527639 0
M  V30 4719 C 432.311 -3.96608 1.64319 0
M  V30 4720 C 431.544 -5.1955 1.22078 0
M  V30 4721 O 431.767 -5.70329 0.0900198 0
M  V30 4722 O 430.701 -5.66681 2.02871 0
M  V30 4723 H 434.527 -2.3619 1.90913 0
M  V30 4724 H 432.112 -1.11946 0.989362 0
M  V30 4725 H 433.994 -4.20404 0.289621 0
M  V30 4726 H 432.669 -3.21441 -0.381779 0
M  V30 4727 H 431.576 -3.20139 1.93551 0
M  V30 4728 H 432.909 -4.22219 2.52966 0
M  V30 4729 N 434.561 -1.01147 -1.20859 0
M  V30 4730 C 435.508 -0.577354 -2.23462 0
M  V30 4731 C 436.478 0.399922 -1.61214 0
M  V30 4732 O 437.663 0.300515 -1.88419 0
M  V30 4733 C 434.803 0.083372 -3.44999 0
M  V30 4734 C 433.916 -0.937856 -4.21697 0
M  V30 4735 C 433.051 -0.248717 -5.30617 0
M  V30 4736 C 432.09 -1.25705 -5.99053 0
M  V30 4737 N 431.227 -0.594939 -6.99575 0
M  V30 4738 H 436.067 -1.45695 -2.59956 0
M  V30 4739 H 433.604 -0.729428 -1.27741 0
M  V30 4740 H 435.562 0.483535 -4.14388 0
M  V30 4741 H 434.192 0.926645 -3.09214 0
M  V30 4742 H 433.244 -1.45622 -3.51423 0
M  V30 4743 H 434.556 -1.70493 -4.68757 0
M  V30 4744 H 433.71 0.207215 -6.06346 0
M  V30 4745 H 432.449 0.55071 -4.84581 0
M  V30 4746 H 431.454 -1.72343 -5.2209 0
M  V30 4747 H 432.679 -2.05767 -6.47176 0
M  V30 4748 H 430.625 0.184713 -6.5574 0
M  V30 4749 H 430.542 -1.30017 -7.44736 0
M  V30 4750 H 431.81 -0.162427 -7.79331 0
M  V30 4751 N 436.039 1.36541 -0.78704 0
M  V30 4752 C 437.285 2.00044 -0.367938 0
M  V30 4753 C 437.64 1.61345 1.04812 0
M  V30 4754 O 436.933 0.856936 1.71368 0
M  V30 4755 C 437.127 3.54343 -0.466485 0
M  V30 4756 C 436.956 4.08029 -1.89058 0
M  V30 4757 C 435.726 4.38284 -2.51466 0
M  V30 4758 C 437.924 4.27954 -2.85236 0
M  V30 4759 N 435.906 4.77778 -3.85488 0
M  V30 4760 C 437.277 4.70227 -4.04088 0
M  V30 4761 C 439.332 4.10119 -2.82324 0
M  V30 4762 C 438.035 4.96532 -5.20432 0
M  V30 4763 C 440.061 4.37569 -3.97854 0
M  V30 4764 C 439.423 4.80095 -5.15449 0
M  V30 4765 H 435.522 0.760525 -0.182004 0
M  V30 4766 H 438.106 1.65589 -1.02413 0
M  V30 4767 H 436.277 3.88072 0.159606 0
M  V30 4768 H 438.009 4.04693 -0.0238577 0
M  V30 4769 H 434.764 4.27905 -2.02965 0
M  V30 4770 H 435.188 5.01813 -4.54437 0
M  V30 4771 H 439.83 3.76399 -1.92571 0
M  V30 4772 H 437.548 5.29134 -6.10773 0
M  V30 4773 H 441.134 4.25341 -3.96958 0
M  V30 4774 H 440.014 5.00925 -6.0336 0
M  V30 4775 N 437.518 0.538854 1.48102 0
M  V30 4776 C 438.743 0.0102694 2.07397 0
M  V30 4777 C 439.168 -1.26562 1.39153 0
M  V30 4778 O 438.526 -1.75357 0.460387 0
M  V30 4779 C 438.574 -0.187602 3.60112 0
M  V30 4780 O 437.678 -1.25432 3.92862 0
M  V30 4781 H 437.019 0.0430975 0.6626 0
M  V30 4782 H 439.549 0.749301 1.90385 0
M  V30 4783 H 439.559 -0.407517 4.0596 0
M  V30 4784 H 438.234 0.744386 4.09184 0
M  V30 4785 H 436.811 -1.01636 3.58782 0
M  V30 4786 N 438.996 -1.55193 0.274407 0
M  V30 4787 C 439.929 -2.18606 -0.654712 0
M  V30 4788 C 440.907 -1.14677 -1.15273 0
M  V30 4789 O 442.091 -1.43198 -1.22583 0
M  V30 4790 C 439.218 -2.80875 -1.89281 0
M  V30 4791 C 438.264 -3.981 -1.53032 0
M  V30 4792 S 439.097 -5.32025 -0.609107 0
M  V30 4793 C 440.253 -5.97761 -1.85559 0
M  V30 4794 H 440.486 -2.97074 -0.115894 0
M  V30 4795 H 438.019 -1.54288 0.05867 0
M  V30 4796 H 439.977 -3.17381 -2.60345 0
M  V30 4797 H 438.638 -2.02302 -2.40277 0
M  V30 4798 H 437.831 -4.40356 -2.45158 0
M  V30 4799 H 437.433 -3.63013 -0.899874 0
M  V30 4800 H 439.725 -6.16951 -2.7996 0
M  V30 4801 H 440.668 -6.92545 -1.47605 0
M  V30 4802 H 441.076 -5.27113 -2.02021 0
M  V30 4803 N 440.474 -0.00167713 -1.576 0
M  V30 4804 C 441.384 1.00548 -2.1196 0
M  V30 4805 C 442.4 1.3758 -1.06526 0
M  V30 4806 O 443.576 1.46278 -1.38436 0
M  V30 4807 C 440.641 2.27809 -2.6135 0
M  V30 4808 C 439.702 1.97074 -3.81393 0
M  V30 4809 C 438.935 3.18267 -4.28417 0
M  V30 4810 O 439.158 4.30009 -3.74765 0
M  V30 4811 O 438.092 3.02167 -5.20556 0
M  V30 4812 H 441.918 0.573373 -2.98238 0
M  V30 4813 H 439.503 0.217255 -1.47812 0
M  V30 4814 H 441.385 3.02568 -2.93309 0
M  V30 4815 H 440.06 2.70254 -1.78169 0
M  V30 4816 H 438.967 1.19785 -3.54404 0
M  V30 4817 H 440.3 1.59464 -4.65652 0
M  V30 4818 N 441.952 1.55251 0.271103 0
M  V30 4819 C 443.368 1.47133 0.618393 0
M  V30 4820 C 443.568 0.686994 1.89427 0
M  V30 4821 O 442.624 0.206609 2.51653 0
M  V30 4822 C 443.937 2.91361 0.743593 0
M  V30 4823 C 445.485 3.01587 0.837522 0
M  V30 4824 C 445.96 4.47073 0.994483 0
M  V30 4825 N 447.451 4.50909 1.05996 0
M  V30 4826 C 448.186 5.60698 1.20024 0
M  V30 4827 N 447.682 6.80348 1.30759 0
M  V30 4828 N 449.475 5.48444 1.23149 0
M  V30 4829 H 441.626 2.04698 -0.566784 0
M  V30 4830 H 443.889 0.928319 -0.192165 0
M  V30 4831 H 443.595 3.51483 -0.123493 0
M  V30 4832 H 443.469 3.40484 1.62328 0
M  V30 4833 H 445.856 2.4156 1.69507 0
M  V30 4834 H 445.937 2.55713 -0.0668086 0
M  V30 4835 H 445.581 5.07703 0.141582 0
M  V30 4836 H 445.511 4.90605 1.91349 0
M  V30 4837 H 448.002 3.6472 0.989316 0
M  V30 4838 H 448.315 7.59772 1.41303 0
M  V30 4839 H 446.66 6.83156 1.27761 0
M  V30 4840 H 449.851 4.53907 1.14394 0
M  V30 4841 H 450.024 6.34049 1.33738 0
M  V30 4842 N 443.43 -0.535701 1.48216 0
M  V30 4843 C 444.36 -1.65014 1.65204 0
M  V30 4844 C 445.341 -1.62554 0.501011 0
M  V30 4845 O 446.526 -1.7984 0.732886 0
M  V30 4846 C 443.656 -3.03616 1.68626 0
M  V30 4847 C 442.61 -3.20932 2.83172 0
M  V30 4848 C 441.936 -4.60537 2.71679 0
M  V30 4849 C 443.236 -3.04249 4.24535 0
M  V30 4850 H 444.93 -1.51053 2.58502 0
M  V30 4851 H 442.476 -0.725262 1.24402 0
M  V30 4852 H 444.429 -3.81446 1.79099 0
M  V30 4853 H 443.153 -3.18587 0.719026 0
M  V30 4854 H 441.812 -2.45517 2.72244 0
M  V30 4855 H 441.46 -4.72336 1.72937 0
M  V30 4856 H 441.16 -4.73069 3.48538 0
M  V30 4857 H 442.684 -5.40475 2.84112 0
M  V30 4858 H 444.098 -3.71877 4.36326 0
M  V30 4859 H 442.495 -3.28278 5.02348 0
M  V30 4860 H 443.565 -2.00739 4.41397 0
M  V30 4861 N 444.908 -1.36708 -0.784132 0
M  V30 4862 C 445.84 -1.27333 -1.90575 0
M  V30 4863 C 446.853 -0.191706 -1.61667 0
M  V30 4864 O 448.042 -0.446854 -1.72816 0
M  V30 4865 C 445.142 -0.943177 -3.25511 0
M  V30 4866 C 444.315 -2.12776 -3.82158 0
M  V30 4867 C 443.374 -1.76983 -4.95544 0
M  V30 4868 O 442.4 -2.49134 -5.11782 0
M  V30 4869 N 443.602 -0.706624 -5.76183 0
M  V30 4870 H 446.367 -2.23974 -1.99138 0
M  V30 4871 H 443.928 -1.30171 -0.962656 0
M  V30 4872 H 445.92 -0.684799 -3.98864 0
M  V30 4873 H 444.49 -0.0657333 -3.12531 0
M  V30 4874 H 443.71 -2.54863 -3.0073 0
M  V30 4875 H 444.998 -2.91904 -4.16737 0
M  V30 4876 H 444.396 -0.107643 -5.65598 0
M  V30 4877 H 442.953 -0.50808 -6.49817 0
M  V30 4878 N 446.386 1.0089 -1.21074 0
M  V30 4879 C 447.349 2.0775 -0.968129 0
M  V30 4880 C 448.349 1.6069 0.0593445 0
M  V30 4881 O 449.539 1.73293 -0.177525 0
M  V30 4882 C 446.671 3.37794 -0.459108 0
M  V30 4883 H 447.864 2.30707 -1.9161 0
M  V30 4884 H 445.417 1.17807 -1.02719 0
M  V30 4885 H 446.152 3.20516 0.49397 0
M  V30 4886 H 445.937 3.7328 -1.20019 0
M  V30 4887 H 447.427 4.16454 -0.309099 0
M  V30 4888 N 447.864 1.01787 1.20321 0
M  V30 4889 C 449.275 0.739307 1.71438 0
M  V30 4890 C 449.626 -0.742041 1.81627 0
M  V30 4891 O 448.751 -1.57903 1.47971 0
M  V30 4892 C 449.346 1.33538 3.11373 0
M  V30 4893 C 447.905 1.10566 3.59795 0
M  V30 4894 C 447.052 1.44028 2.36962 0
M  V30 4895 H 450.003 1.18718 1.05317 0
M  V30 4896 H 450.024 0.726611 3.73498 0
M  V30 4897 H 449.536 2.41352 3.03926 0
M  V30 4898 H 447.637 0.0452405 3.72573 0
M  V30 4899 H 447.75 1.78661 4.44542 0
M  V30 4900 H 446.114 0.85933 2.39766 0
M  V30 4901 H 446.897 2.52901 2.32155 0
M  V30 4902 N 449.342 -1.36122 0.79427 0
M  V30 4903 C 450.753 -1.81646 0.431446 0
M  V30 4904 C 451.104 -1.66043 -1.04518 0
M  V30 4905 O 450.229 -1.1841 -1.8113 0
M  V30 4906 C 450.824 -3.29785 0.776341 0
M  V30 4907 C 449.383 -3.73501 0.466282 0
M  V30 4908 C 448.53 -2.58313 1.00844 0
M  V30 4909 H 451.481 -1.24274 0.986995 0
M  V30 4910 H 451.502 -3.80437 0.0692413 0
M  V30 4911 H 451.014 -3.4111 1.8511 0
M  V30 4912 H 449.115 -3.67733 -0.600245 0
M  V30 4913 H 449.228 -4.68754 0.990288 0
M  V30 4914 H 447.592 -2.5102 0.431406 0
M  V30 4915 H 448.375 -2.72421 2.08906 0
M  V30 4916 N 450.82 -0.546701 -1.47814 0
M  V30 4917 C 451.767 0.206854 -2.29871 0
M  V30 4918 C 452.737 0.918235 -1.38411 0
M  V30 4919 O 453.922 0.915991 -1.67375 0
M  V30 4920 C 451.062 1.23746 -3.22151 0
M  V30 4921 C 450.175 0.533216 -4.28697 0
M  V30 4922 C 449.31 1.5482 -5.08138 0
M  V30 4923 C 448.349 0.828347 -6.06469 0
M  V30 4924 N 447.486 1.78966 -6.78908 0
M  V30 4925 H 452.326 -0.499037 -2.93792 0
M  V30 4926 H 449.863 -0.25793 -1.44821 0
M  V30 4927 H 451.821 1.84746 -3.74065 0
M  V30 4928 H 450.451 1.91151 -2.60117 0
M  V30 4929 H 449.503 -0.191089 -3.7992 0
M  V30 4930 H 450.815 -0.0311987 -4.9879 0
M  V30 4931 H 449.969 2.23202 -5.6415 0
M  V30 4932 H 448.708 2.14652 -4.37922 0
M  V30 4933 H 447.713 0.130539 -5.49645 0
M  V30 4934 H 448.938 0.235907 -6.7869 0
M  V30 4935 H 446.884 2.37675 -6.1143 0
M  V30 4936 H 446.801 1.27712 -7.45135 0
M  V30 4937 H 448.069 2.46496 -7.395 0
M  V30 4938 N 452.299 1.55045 -0.282633 0
M  V30 4939 C 453.71 1.85473 0.213655 0
M  V30 4940 C 454.061 1.20465 1.54863 0
M  V30 4941 O 453.186 0.495676 2.10647 0
M  V30 4942 C 453.781 3.36496 0.394445 0
M  V30 4943 C 452.34 3.67022 0.834961 0
M  V30 4944 C 451.487 2.77218 -0.0674081 0
M  V30 4945 H 454.438 1.50478 -0.504202 0
M  V30 4946 H 454.459 3.60007 1.23186 0
M  V30 4947 H 453.971 3.83782 -0.577326 0
M  V30 4948 H 452.072 3.25241 1.81794 0
M  V30 4949 H 452.185 4.74433 0.667075 0
M  V30 4950 H 450.549 2.5069 0.450196 0
M  V30 4951 H 451.332 3.2732 -1.0352 0
M  V30 4952 N 453.777 0.010035 1.57597 0
M  V30 4953 C 455.054 -0.710296 1.82248 0
M  V30 4954 C 455.434 -1.91426 0.889911 0
M  V30 4955 O 454.782 -2.28424 -0.0590292 0
M  V30 4956 C 454.992 -1.10655 3.30993 0
M  V30 4957 C 456.34 -1.50621 3.96987 0
M  V30 4958 O 457.364 -1.20007 3.35375 0
M  V30 4959 O 456.223 -2.07587 5.05539 0
M  V30 4960 H 453.317 -0.34673 0.750804 0
M  V30 4961 H 455.863 0.0362578 1.69661 0
M  V30 4962 H 454.635 -0.248826 3.90508 0
M  V30 4963 H 454.258 -1.91189 3.48615 0
M  V30 4964 N 455.255 -1.55392 -0.262866 0
M  V30 4965 C 456.48 -1.80847 -1.01533 0
M  V30 4966 C 456.905 -0.584946 -1.78774 0
M  V30 4967 O 456.263 0.465701 -1.75217 0
M  V30 4968 C 456.311 -3.03866 -1.94159 0
M  V30 4969 O 455.415 -2.79662 -3.03089 0
M  V30 4970 H 454.756 -0.597441 -0.289759 0
M  V30 4971 H 457.286 -2.02553 -0.288698 0
M  V30 4972 H 457.296 -3.32872 -2.35924 0
M  V30 4973 H 455.971 -3.92564 -1.37354 0
M  V30 4974 H 454.548 -2.61781 -2.65566 0
M  V30 4975 N 456.733 0.527833 -1.48498 0
M  V30 4976 C 457.981 1.28101 -1.56316 0
M  V30 4977 C 458.302 1.9352 -0.239781 0
M  V30 4978 O 457.572 1.81433 0.738849 0
M  V30 4979 H 456.152 0.475793 -0.575873 0
M  V30 4980 H 458.814 0.614052 -1.84974 0
M  V30 4981 H 457.91 2.05916 -2.34532 0
M  V30 4982 N 458.211 1.37122 0.776871 0
M  V30 4983 C 459.141 1.35164 1.90402 0
M  V30 4984 C 460.122 0.221069 1.68657 0
M  V30 4985 O 461.307 0.420642 1.8959 0
M  V30 4986 C 458.437 1.15274 3.27611 0
M  V30 4987 C 457.391 2.25289 3.63908 0
M  V30 4988 C 456.717 1.90527 4.99603 0
M  V30 4989 C 458.017 3.67446 3.71188 0
M  V30 4990 H 459.711 2.29482 1.92297 0
M  V30 4991 H 457.257 1.10465 0.923773 0
M  V30 4992 H 459.21 1.12536 4.06096 0
M  V30 4993 H 457.934 0.174102 3.26136 0
M  V30 4994 H 456.593 2.27174 2.87728 0
M  V30 4995 H 456.241 0.91206 4.94662 0
M  V30 4996 H 455.941 2.64193 5.24858 0
M  V30 4997 H 457.465 1.89367 5.80493 0
M  V30 4998 H 458.879 3.67719 4.39836 0
M  V30 4999 H 457.276 4.40123 4.07936 0
M  V30 5000 H 458.346 4.01443 2.71977 0
M  V30 5001 N 459.689 -1.00246 1.21608 0
M  V30 5002 C 460.619 -2.10921 1.00172 0
M  V30 5003 C 461.6 -1.69938 -0.0741587 0
M  V30 5004 O 462.785 -1.94009 0.0861753 0
M  V30 5005 C 459.915 -3.42618 0.568355 0
M  V30 5006 C 458.869 -3.97407 1.58909 0
M  V30 5007 C 458.195 -5.25038 1.01187 0
M  V30 5008 C 459.495 -4.2918 2.97661 0
M  V30 5009 H 461.189 -2.29112 1.92739 0
M  V30 5010 H 458.735 -1.10101 0.928102 0
M  V30 5011 H 460.688 -4.19444 0.405555 0
M  V30 5012 H 459.412 -3.24227 -0.392961 0
M  V30 5013 H 458.071 -3.22703 1.73949 0
M  V30 5014 H 457.719 -5.02982 0.0421965 0
M  V30 5015 H 457.419 -5.62661 1.6937 0
M  V30 5016 H 458.943 -6.04507 0.860448 0
M  V30 5017 H 460.357 -4.96839 2.86049 0
M  V30 5018 H 458.754 -4.77952 3.6288 0
M  V30 5019 H 459.824 -3.3735 3.48315 0
M  V30 5020 N 461.167 -1.02423 -1.1978 0
M  V30 5021 C 462.444 -0.632802 -1.85081 0
M  V30 5022 C 462.824 0.888745 -1.9148 0
M  V30 5023 O 462.172 1.78357 -1.42832 0
M  V30 5024 C 462.382 -1.28947 -3.24305 0
M  V30 5025 C 463.73 -1.40976 -4.00513 0
M  V30 5026 O 464.754 -1.24628 -3.33686 0
M  V30 5027 O 463.613 -1.67467 -5.20209 0
M  V30 5028 H 460.707 -0.219348 -0.79738 0
M  V30 5029 H 463.253 -1.12209 -1.27307 0
M  V30 5030 H 462.025 -2.3288 -3.14456 0
M  V30 5031 H 461.648 -0.787748 -3.89718 0
M  V30 5032 N 462.645 1.35699 -0.801477 0
M  V30 5033 C 463.893 1.9852 -0.37871 0
M  V30 5034 C 464.214 1.63907 1.05638 0
M  V30 5035 O 463.484 0.919013 1.73006 0
M  V30 5036 H 462.064 0.734322 -0.137042 0
M  V30 5037 H 464.726 1.65697 -1.02619 0
M  V30 5038 H 463.822 3.08382 -0.480284 0
M  V30 5039 N 464.123 0.554532 1.47522 0
M  V30 5040 C 465.37 0.029479 2.02479 0
M  V30 5041 C 465.698 -1.31929 1.42916 0
M  V30 5042 O 464.953 -1.87112 0.573385 0
M  V30 5043 C 465.252 -0.115927 3.57212 0
M  V30 5044 C 464.918 1.16161 4.3568 0
M  V30 5045 C 463.58 1.51168 4.56839 0
M  V30 5046 C 465.932 2.0083 4.80954 0
M  V30 5047 C 463.26 2.70696 5.2052 0
M  V30 5048 C 465.612 3.19559 5.45953 0
M  V30 5049 C 464.276 3.54882 5.65345 0
M  V30 5050 H 463.546 0.0107871 0.740921 0
M  V30 5051 H 466.193 0.725506 1.77225 0
M  V30 5052 H 464.498 -0.894902 3.81443 0
M  V30 5053 H 466.195 -0.53749 3.97381 0
M  V30 5054 H 462.785 0.879026 4.19489 0
M  V30 5055 H 466.969 1.75093 4.64388 0
M  V30 5056 H 462.225 2.98236 5.33728 0
M  V30 5057 H 466.399 3.85456 5.79997 0
M  V30 5058 H 464.026 4.47596 6.1446 0
M  V30 5059 N 465.601 -1.54893 0.290851 0
M  V30 5060 C 466.534 -2.19289 -0.631489 0
M  V30 5061 C 467.512 -1.15893 -1.14051 0
M  V30 5062 O 468.696 -1.4449 -1.21058 0
M  V30 5063 C 465.823 -2.82866 -1.86291 0
M  V30 5064 C 464.869 -3.997 -1.48801 0
M  V30 5065 S 465.702 -5.32641 -0.552644 0
M  V30 5066 C 466.858 -5.99696 -1.79209 0
M  V30 5067 H 467.091 -2.9718 -0.0843791 0
M  V30 5068 H 464.624 -1.54218 0.075031 0
M  V30 5069 H 466.582 -3.20124 -2.56964 0
M  V30 5070 H 465.243 -2.04839 -2.38117 0
M  V30 5071 H 464.436 -4.42932 -2.40473 0
M  V30 5072 H 464.038 -3.63947 -0.861321 0
M  V30 5073 H 466.33 -6.19886 -2.734 0
M  V30 5074 H 467.273 -6.94071 -1.40251 0
M  V30 5075 H 467.681 -5.29226 -1.96419 0
M  V30 5076 N 467.08 -0.0183926 -1.57589 0
M  V30 5077 C 468.308 0.673046 -1.95647 0
M  V30 5078 C 468.723 1.66275 -0.894312 0
M  V30 5079 O 468.08 1.82072 0.124975 0
M  V30 5080 C 468.131 1.38884 -3.33756 0
M  V30 5081 O 467.852 0.438806 -4.35897 0
M  V30 5082 C 469.353 2.1731 -3.86383 0
M  V30 5083 H 466.573 0.186292 -0.644621 0
M  V30 5084 H 469.117 -0.0749748 -2.04363 0
M  V30 5085 H 467.272 2.08835 -3.26293 0
M  V30 5086 H 467.686 0.945869 -5.15901 0
M  V30 5087 H 469.16 2.62863 -4.85394 0
M  V30 5088 H 469.637 3.00764 -3.20059 0
M  V30 5089 H 470.243 1.52339 -3.97081 0
M  V30 5090 N 468.558 1.5553 0.254621 0
M  V30 5091 C 469.786 1.81046 1.00149 0
M  V30 5092 C 470.201 0.593047 1.79244 0
M  V30 5093 O 469.558 -0.438196 1.77161 0
M  V30 5094 C 469.609 3.04684 1.94551 0
M  V30 5095 O 469.33 4.21725 1.18658 0
M  V30 5096 C 470.831 3.42943 2.80901 0
M  V30 5097 H 468.051 0.602653 0.295044 0
M  V30 5098 H 470.595 2.02576 0.279842 0
M  V30 5099 H 468.75 2.85226 2.62154 0
M  V30 5100 H 469.164 4.91746 1.82445 0
M  V30 5101 H 470.638 4.32576 3.42902 0
M  V30 5102 H 471.115 2.63176 3.51617 0
M  V30 5103 H 471.721 3.64724 2.18762 0
M  V30 5104 N 470.036 -0.519951 1.48776 0
M  V30 5105 C 471.313 -1.28123 1.47797 0
M  V30 5106 C 471.693 -2.10196 0.195157 0
M  V30 5107 O 471.041 -2.13167 -0.822925 0
M  V30 5108 C 471.251 -2.15413 2.74587 0
M  V30 5109 C 472.599 -2.75225 3.23321 0
M  V30 5110 O 473.623 -2.25694 2.75574 0
M  V30 5111 O 472.482 -3.65346 4.06429 0
M  V30 5112 H 469.576 -0.578793 0.590701 0
M  V30 5113 H 472.122 -0.535779 1.6102 0
M  V30 5114 H 470.894 -1.54617 3.59457 0
M  V30 5115 H 470.517 -2.97186 2.64132 0
M  V30 5116 N 471.514 -1.37532 -0.769588 0
M  V30 5117 C 472.477 -1.33292 -1.86456 0
M  V30 5118 C 473.477 -0.236537 -1.59051 0
M  V30 5119 O 474.667 -0.492511 -1.67093 0
M  V30 5120 C 471.799 -1.07118 -3.23633 0
M  V30 5121 H 472.992 -2.30692 -1.91628 0
M  V30 5122 H 470.545 -1.22593 -0.969572 0
M  V30 5123 H 471.28 -0.102578 -3.24138 0
M  V30 5124 H 471.065 -1.86479 -3.44917 0
M  V30 5125 H 472.555 -1.06806 -4.03711 0
M  V30 5126 N 472.992 0.995999 -1.22138 0
M  V30 5127 C 473.955 2.06711 -0.990109 0
M  V30 5128 C 474.955 1.60744 0.0422978 0
M  V30 5129 O 476.145 1.73095 -0.195895 0
M  V30 5130 C 473.277 3.37288 -0.49491 0
M  V30 5131 H 474.47 2.28661 -1.94047 0
M  V30 5132 H 472.023 1.16711 -1.03963 0
M  V30 5133 H 472.758 3.21022 0.459948 0
M  V30 5134 H 472.543 3.71986 -1.23971 0
M  V30 5135 H 474.033 4.16103 -0.353253 0
M  V30 5136 N 474.47 1.03057 1.19235 0
M  V30 5137 C 475.4 0.633497 2.24742 0
M  V30 5138 C 476.381 -0.358335 1.66283 0
M  V30 5139 O 477.566 -0.240676 1.92703 0
M  V30 5140 C 474.696 -0.0147648 3.47297 0
M  V30 5141 C 473.65 0.899527 4.18441 0
M  V30 5142 C 472.976 0.116281 5.34574 0
M  V30 5143 C 474.276 2.21404 4.73051 0
M  V30 5144 H 475.97 1.5155 2.58211 0
M  V30 5145 H 473.516 0.73014 1.24117 0
M  V30 5146 H 475.469 -0.304202 4.20301 0
M  V30 5147 H 474.193 -0.931577 3.13032 0
M  V30 5148 H 472.852 1.17319 3.47321 0
M  V30 5149 H 472.5 -0.802619 4.96555 0
M  V30 5150 H 472.2 0.725293 5.83107 0
M  V30 5151 H 473.724 -0.166376 6.10373 0
M  V30 5152 H 475.138 1.98601 5.37802 0
M  V30 5153 H 473.535 2.77512 5.32078 0
M  V30 5154 H 474.605 2.86752 3.91026 0
M  V30 5155 N 475.948 -1.35272 0.808662 0
M  V30 5156 C 476.881 -2.27595 0.165994 0
M  V30 5157 C 477.859 -1.48189 -0.669241 0
M  V30 5158 O 479.043 -1.77444 -0.636073 0
M  V30 5159 C 476.17 -3.29843 -0.769505 0
M  V30 5160 C 475.216 -4.26498 -0.0136267 0
M  V30 5161 S 476.049 -5.18878 1.32384 0
M  V30 5162 C 477.205 -6.24666 0.392838 0
M  V30 5163 H 477.438 -2.81755 0.948756 0
M  V30 5164 H 474.971 -1.42103 0.603828 0
M  V30 5165 H 476.929 -3.89247 -1.30374 0
M  V30 5166 H 475.59 -2.74558 -1.52567 0
M  V30 5167 H 474.783 -4.98769 -0.724227 0
M  V30 5168 H 474.385 -3.71274 0.450713 0
M  V30 5169 H 476.677 -6.7619 -0.4211 0
M  V30 5170 H 477.62 -6.99741 1.0848 0
M  V30 5171 H 478.028 -5.64499 -0.0123908 0
M  V30 5172 N 477.426 -0.562348 -1.47226 0
M  V30 5173 C 478.656 -0.0451619 -2.06551 0
M  V30 5174 C 479.064 1.25626 -1.41473 0
M  V30 5175 O 478.407 1.76563 -0.507061 0
M  V30 5176 C 478.469 0.216068 -3.5885 0
M  V30 5177 C 478.133 -0.996691 -4.45999 0
M  V30 5178 C 479.13 -1.90358 -4.83797 0
M  V30 5179 C 476.815 -1.21281 -4.87438 0
M  V30 5180 C 478.809 -3.01023 -5.6184 0
M  V30 5181 C 476.496 -2.32255 -5.65244 0
M  V30 5182 C 477.494 -3.21956 -6.02356 0
M  V30 5183 O 477.182 -4.31005 -6.78594 0
M  V30 5184 H 476.914 -0.0451646 -0.67449 0
M  V30 5185 H 479.468 -0.776842 -1.90143 0
M  V30 5186 H 477.698 1.00212 -3.7349 0
M  V30 5187 H 479.387 0.679264 -4.00176 0
M  V30 5188 H 480.153 -1.74868 -4.52378 0
M  V30 5189 H 476.032 -0.523767 -4.58015 0
M  V30 5190 H 479.576 -3.71064 -5.90726 0
M  V30 5191 H 475.473 -2.47715 -5.96077 0
M  V30 5192 H 476.241 -4.29118 -6.96994 0
M  V30 5193 N 478.904 1.54736 -0.299062 0
M  V30 5194 C 480.181 1.92187 0.363802 0
M  V30 5195 C 480.561 1.22607 1.71845 0
M  V30 5196 O 479.909 0.361141 2.25628 0
M  V30 5197 C 480.119 3.45678 0.480377 0
M  V30 5198 C 481.467 4.17885 0.752147 0
M  V30 5199 O 482.491 3.51702 0.564264 0
M  V30 5200 O 481.35 5.35048 1.11294 0
M  V30 5201 H 478.444 0.801681 0.203066 0
M  V30 5202 H 480.99 1.66115 -0.346978 0
M  V30 5203 H 479.762 3.88443 -0.471999 0
M  V30 5204 H 479.385 3.77779 1.2397 0
M  V30 5205 N 480.382 0.0267497 1.57577 0
M  V30 5206 C 481.345 -0.940916 2.08996 0
M  V30 5207 C 482.345 -1.25561 1.00455 0
M  V30 5208 O 483.535 -1.19634 1.26623 0
M  V30 5209 C 480.667 -2.25814 2.55384 0
M  V30 5210 H 481.86 -0.495628 2.95776 0
M  V30 5211 H 479.413 -0.221241 1.54726 0
M  V30 5212 H 480.148 -2.74976 1.71926 0
M  V30 5213 H 479.933 -2.04285 3.34679 0
M  V30 5214 H 481.423 -2.95178 2.95398 0
M  V30 5215 N 481.861 -1.55662 -0.24637 0
M  V30 5216 C 483.107 -1.77782 -0.975779 0
M  V30 5217 C 483.44 -0.592103 -1.84953 0
M  V30 5218 O 482.715 0.409588 -1.90138 0
M  V30 5219 C 482.998 -3.09788 -1.83584 0
M  V30 5220 C 482.851 -4.38764 -0.990241 0
M  V30 5221 C 484.17 -3.38029 -2.81823 0
M  V30 5222 H 481.289 -0.646789 -0.353317 0
M  V30 5223 H 483.931 -1.88398 -0.246248 0
M  V30 5224 H 482.081 -3.00869 -2.45784 0
M  V30 5225 H 483.753 -4.59675 -0.386897 0
M  V30 5226 H 481.996 -4.32798 -0.294626 0
M  V30 5227 H 482.667 -5.27514 -1.62584 0
M  V30 5228 H 485.143 -3.46915 -2.2976 0
M  V30 5229 H 484.019 -4.3161 -3.39122 0
M  V30 5230 H 484.28 -2.58968 -3.58313 0
M  V30 5231 N 483.339 0.512053 -1.4905 0
M  V30 5232 C 484.289 1.61142 -1.61298 0
M  V30 5233 C 485.273 1.53908 -0.46916 0
M  V30 5234 O 486.465 1.61625 -0.721547 0
M  V30 5235 C 483.594 2.998 -1.67256 0
M  V30 5236 C 482.68 3.12072 -2.87179 0
M  V30 5237 N 483.071 2.94263 -4.11391 0
M  V30 5238 C 481.369 3.43156 -2.84886 0
M  V30 5239 C 482.07 3.10426 -4.91946 0
M  V30 5240 N 481.046 3.38808 -4.251 0
M  V30 5241 H 484.848 1.46011 -2.55065 0
M  V30 5242 H 482.362 0.717934 -1.45669 0
M  V30 5243 H 484.359 3.78794 -1.74128 0
M  V30 5244 H 483.019 3.1601 -0.746195 0
M  V30 5245 H 484.03 2.70661 -4.41546 0
M  V30 5246 H 480.707 3.65611 -2.01581 0
M  V30 5247 H 482.097 3.01243 -6.00585 0
M  V30 5248 N 484.817 1.37938 0.762283 0
M  V30 5249 C 486.063 1.33866 1.52341 0
M  V30 5250 C 486.396 -0.0738961 1.94059 0
M  V30 5251 O 485.671 -1.03326 1.64785 0
M  V30 5252 C 485.954 2.28644 2.78197 0
M  V30 5253 C 485.807 3.78722 2.42672 0
M  V30 5254 C 487.126 2.21702 3.80179 0
M  V30 5255 H 484.245 0.487593 0.55265 0
M  V30 5256 H 486.887 1.68717 0.873767 0
M  V30 5257 H 485.037 1.99055 3.33631 0
M  V30 5258 H 486.709 4.18948 1.93081 0
M  V30 5259 H 484.952 3.96827 1.75244 0
M  V30 5260 H 485.623 4.40486 3.3268 0
M  V30 5261 H 488.099 2.47805 3.34263 0
M  V30 5262 H 486.975 2.90143 4.65949 0
M  V30 5263 H 487.236 1.21301 4.25133 0
M  V30 5264 N 486.295 -0.989507 1.22664 0
M  V30 5265 C 487.541 -1.7321 1.05481 0
M  V30 5266 C 487.874 -1.89852 -0.408635 0
M  V30 5267 O 487.149 -1.44416 -1.30285 0
M  V30 5268 C 487.432 -3.1357 1.77047 0
M  V30 5269 C 487.285 -3.04555 3.31008 0
M  V30 5270 C 488.604 -4.12812 1.5256 0
M  V30 5271 H 485.723 -0.628697 0.384589 0
M  V30 5272 H 488.365 -1.15258 1.51049 0
M  V30 5273 H 486.515 -3.63046 1.3831 0
M  V30 5274 H 488.187 -2.62674 3.7921 0
M  V30 5275 H 486.43 -2.41278 3.6051 0
M  V30 5276 H 487.101 -4.03894 3.76263 0
M  V30 5277 H 489.577 -3.72106 1.86215 0
M  V30 5278 H 488.453 -5.09132 2.05124 0
M  V30 5279 H 488.714 -4.39711 0.458936 0
M  V30 5280 N 487.773 -1.03688 -1.18687 0
M  V30 5281 C 488.998 -0.757819 -1.93059 0
M  V30 5282 C 489.423 0.678353 -1.75442 0
M  V30 5283 O 488.781 1.46938 -1.06203 0
M  V30 5284 C 488.829 -1.12423 -3.42627 0
M  V30 5285 O 487.933 -0.247505 -4.11657 0
M  V30 5286 H 487.274 -0.279245 -0.602427 0
M  V30 5287 H 489.804 -1.3857 -1.5053 0
M  V30 5288 H 489.814 -1.08454 -3.93322 0
M  V30 5289 H 488.489 -2.17049 -3.54771 0
M  V30 5290 H 487.066 -0.34649 -3.71287 0
M  V30 5291 N 489.251 1.34841 -0.815825 0
M  V30 5292 C 490.497 1.98793 -0.401129 0
M  V30 5293 C 490.83 1.64548 1.03139 0
M  V30 5294 O 490.105 0.913487 1.71714 0
M  V30 5295 C 490.388 3.55143 -0.595409 0
M  V30 5296 C 490.241 3.99155 -2.07352 0
M  V30 5297 C 491.56 4.40092 -0.0268823 0
M  V30 5298 H 488.679 0.722146 -0.14722 0
M  V30 5299 H 491.321 1.59847 -1.02707 0
M  V30 5300 H 489.471 3.8845 -0.0625779 0
M  V30 5301 H 491.143 3.76216 -2.66945 0
M  V30 5302 H 489.386 3.49726 -2.56659 0
M  V30 5303 H 490.057 5.07971 -2.1603 0
M  V30 5304 H 492.533 4.13298 -0.482042 0
M  V30 5305 H 491.409 5.48562 -0.19267 0
M  V30 5306 H 491.67 4.29016 1.06759 0
M  V30 5307 N 490.729 0.570148 1.46925 0
M  V30 5308 C 491.692 -0.159933 2.28641 0
M  V30 5309 C 492.692 -0.830638 1.37685 0
M  V30 5310 O 493.882 -0.684516 1.60187 0
M  V30 5311 C 491.014 -1.2354 3.17727 0
M  V30 5312 H 492.207 0.558035 2.94662 0
M  V30 5313 H 489.76 0.327603 1.52828 0
M  V30 5314 H 490.495 -1.98535 2.56426 0
M  V30 5315 H 490.28 -0.759125 3.84681 0
M  V30 5316 H 491.77 -1.74782 3.79264 0
M  V30 5317 N 492.207 -1.54576 0.307264 0
M  V30 5318 C 493.453 -2.0056 -0.300612 0
M  V30 5319 C 493.786 -1.1953 -1.53057 0
M  V30 5320 O 493.061 -0.27337 -1.92569 0
M  V30 5321 C 493.344 -3.54167 -0.650987 0
M  V30 5322 C 493.197 -4.45933 0.588539 0
M  V30 5323 C 494.516 -4.14645 -1.47506 0
M  V30 5324 H 491.635 -0.729075 -0.107788 0
M  V30 5325 H 494.277 -1.85286 0.420606 0
M  V30 5326 H 492.427 -3.67313 -1.26544 0
M  V30 5327 H 494.099 -4.44683 1.22697 0
M  V30 5328 H 492.342 -4.16274 1.22058 0
M  V30 5329 H 493.013 -5.51189 0.299153 0
M  V30 5330 H 495.489 -4.04973 -0.955821 0
M  V30 5331 H 494.365 -5.22269 -1.68899 0
M  V30 5332 H 494.626 -3.66921 -2.4662 0
M  V30 5333 N 493.685 -0.035106 -1.57561 0
M  V30 5334 C 494.617 0.973604 -2.07494 0
M  V30 5335 C 495.63 1.28504 -0.999534 0
M  V30 5336 O 496.819 1.24864 -1.27559 0
M  V30 5337 C 493.919 2.29945 -2.48955 0
M  V30 5338 C 493.092 2.1723 -3.79644 0
M  V30 5339 C 492.151 3.328 -4.07592 0
M  V30 5340 O 491.177 3.09418 -4.77754 0
M  V30 5341 N 492.379 4.56779 -3.58236 0
M  V30 5342 H 495.144 0.547525 -2.94656 0
M  V30 5343 H 492.705 0.151515 -1.61189 0
M  V30 5344 H 494.697 3.06097 -2.64739 0
M  V30 5345 H 493.267 2.64173 -1.67126 0
M  V30 5346 H 492.487 1.25768 -3.73599 0
M  V30 5347 H 493.775 2.05945 -4.65257 0
M  V30 5348 H 493.173 4.78668 -3.01485 0
M  V30 5349 H 491.73 5.30079 -3.79288 0
M  V30 5350 N 495.163 1.55791 0.238111 0
M  V30 5351 C 496.095 1.87513 1.31802 0
M  V30 5352 C 497.108 0.762053 1.43863 0
M  V30 5353 O 498.297 1.04024 1.45056 0
M  V30 5354 C 495.397 2.05402 2.69561 0
M  V30 5355 C 494.57 3.3632 2.79656 0
M  V30 5356 C 493.629 3.43844 3.98319 0
M  V30 5357 O 492.655 4.16994 3.87433 0
M  V30 5358 N 493.857 2.73777 5.11885 0
M  V30 5359 H 496.622 2.80734 1.04922 0
M  V30 5360 H 494.183 1.56135 0.428196 0
M  V30 5361 H 496.175 2.07769 3.47296 0
M  V30 5362 H 494.745 1.18884 2.89111 0
M  V30 5363 H 493.965 3.46195 1.88528 0
M  V30 5364 H 495.253 4.22594 2.83358 0
M  V30 5365 H 494.651 2.14094 5.23622 0
M  V30 5366 H 493.208 2.81825 5.87723 0
M  V30 5367 N 496.642 -0.504142 1.49319 0
M  V30 5368 C 497.889 -1.25846 1.58647 0
M  V30 5369 C 498.217 -1.92592 0.27177 0
M  V30 5370 O 497.472 -1.81167 -0.74007 0
M  V30 5371 C 497.771 -2.35021 2.69258 0
M  V30 5372 C 497.437 -1.85755 4.1086 0
M  V30 5373 C 496.099 -1.72038 4.49395 0
M  V30 5374 C 498.451 -1.48844 4.99495 0
M  V30 5375 C 495.779 -1.19783 5.74342 0
M  V30 5376 C 498.131 -0.980422 6.24956 0
M  V30 5377 C 496.795 -0.829622 6.62324 0
M  V30 5378 H 496.065 -0.460505 0.580531 0
M  V30 5379 H 498.712 -0.559716 1.83138 0
M  V30 5380 H 497.017 -3.10672 2.38726 0
M  V30 5381 H 498.714 -2.93083 2.73685 0
M  V30 5382 H 495.304 -1.9739 3.80441 0
M  V30 5383 H 499.488 -1.5829 4.70381 0
M  V30 5384 H 494.744 -1.06817 6.01997 0
M  V30 5385 H 498.918 -0.685608 6.93017 0
M  V30 5386 H 496.545 -0.42253 7.59025 0
M  V30 5387 N 498.12 -1.38341 -0.754957 0
M  V30 5388 C 499.531 -1.30803 -1.3322 0
M  V30 5389 C 499.882 0.0368 -1.96165 0
M  V30 5390 O 499.007 0.938844 -1.94974 0
M  V30 5391 C 499.602 -2.3688 -2.42225 0
M  V30 5392 C 498.161 -2.32925 -2.95674 0
M  V30 5393 C 497.308 -2.19819 -1.69042 0
M  V30 5394 H 500.259 -1.48719 -0.553937 0
M  V30 5395 H 500.28 -2.02517 -3.22129 0
M  V30 5396 H 499.792 -3.34747 -1.96383 0
M  V30 5397 H 497.893 -1.38635 -3.45848 0
M  V30 5398 H 498.006 -3.27008 -3.50146 0
M  V30 5399 H 496.37 -1.66648 -1.92615 0
M  V30 5400 H 497.153 -3.19625 -1.25279 0
M  V30 5401 N 499.598 0.982988 -1.23187 0
M  V30 5402 C 500.53 2.07729 -0.968572 0
M  V30 5403 C 501.543 1.62702 0.0564821 0
M  V30 5404 O 502.732 1.77603 -0.178733 0
M  V30 5405 C 499.832 3.36071 -0.436974 0
M  V30 5406 C 499.005 4.10081 -1.52159 0
M  V30 5407 C 498.064 5.16701 -0.99532 0
M  V30 5408 O 497.09 5.43727 -1.68373 0
M  V30 5409 N 498.292 5.80226 0.178192 0
M  V30 5410 H 501.057 2.30894 -1.9107 0
M  V30 5411 H 498.618 1.14949 -1.1401 0
M  V30 5412 H 500.61 4.04639 -0.0700051 0
M  V30 5413 H 499.18 3.09893 0.410509 0
M  V30 5414 H 498.4 3.36004 -2.06144 0
M  V30 5415 H 499.688 4.56295 -2.25105 0
M  V30 5416 H 499.086 5.60651 0.754096 0
M  V30 5417 H 497.643 6.49982 0.486449 0
M  V30 5418 N 501.076 1.04316 1.18135 0
M  V30 5419 C 502.009 0.580823 2.20685 0
M  V30 5420 C 502.987 -0.385943 1.57953 0
M  V30 5421 O 504.171 -0.299654 1.86103 0
M  V30 5422 C 501.298 -0.151162 3.38363 0
M  V30 5423 C 500.344 0.769247 4.19505 0
M  V30 5424 S 501.177 2.25352 4.85774 0
M  V30 5425 C 502.333 1.53246 6.0685 0
M  V30 5426 H 502.566 1.44968 2.5956 0
M  V30 5427 H 500.099 0.85434 1.28609 0
M  V30 5428 H 502.057 -0.567315 4.06561 0
M  V30 5429 H 500.718 -0.995936 2.97892 0
M  V30 5430 H 499.911 0.203335 5.0359 0
M  V30 5431 H 499.513 1.12436 3.56699 0
M  V30 5432 H 501.805 0.82689 6.72435 0
M  V30 5433 H 502.748 2.35044 6.67952 0
M  V30 5434 H 503.156 1.0237 5.5514 0
M  V30 5435 N 502.554 -1.34406 0.822964 0
M  V30 5436 C 503.782 -2.02508 0.424039 0
M  V30 5437 C 504.197 -1.61975 -0.970022 0
M  V30 5438 O 503.554 -0.825228 -1.62777 0
M  V30 5439 C 503.605 -3.57789 0.516657 0
M  V30 5440 O 503.326 -3.96853 1.85577 0
M  V30 5441 C 504.827 -4.43157 0.112637 0
M  V30 5442 H 502.047 -0.649063 0.170173 0
M  V30 5443 H 504.591 -1.7168 1.11113 0
M  V30 5444 H 502.746 -3.87207 -0.122353 0
M  V30 5445 H 503.16 -4.91538 1.83005 0
M  V30 5446 H 504.634 -5.51527 0.228526 0
M  V30 5447 H 505.111 -4.28939 -0.943837 0
M  V30 5448 H 505.717 -4.19067 0.725449 0
M  V30 5449 N 504.032 -0.577932 -1.46621 0
M  V30 5450 C 505.278 -0.0617793 -2.02706 0
M  V30 5451 C 505.611 1.29294 -1.44903 0
M  V30 5452 O 504.886 1.8461 -0.61232 0
M  V30 5453 C 505.169 0.00911824 -3.60099 0
M  V30 5454 C 505.022 -1.37416 -4.28295 0
M  V30 5455 C 506.341 0.712159 -4.343 0
M  V30 5456 H 503.46 -0.0239246 -0.736612 0
M  V30 5457 H 506.102 -0.744211 -1.74818 0
M  V30 5458 H 504.252 0.590292 -3.83989 0
M  V30 5459 H 505.924 -2.00013 -4.15683 0
M  V30 5460 H 504.167 -1.94319 -3.87843 0
M  V30 5461 H 504.838 -1.27707 -5.37024 0
M  V30 5462 H 507.314 0.218486 -4.15526 0
M  V30 5463 H 506.19 0.730782 -5.44014 0
M  V30 5464 H 506.451 1.77251 -4.05012 0
M  V30 5465 N 505.51 1.54411 -0.315457 0
M  V30 5466 C 506.735 2.05299 0.294496 0
M  V30 5467 C 507.16 1.19052 1.4563 0
M  V30 5468 O 506.518 0.197804 1.80218 0
M  V30 5469 C 506.566 3.5345 0.714549 0
M  V30 5470 O 505.67 3.70175 1.81781 0
M  V30 5471 H 505.011 0.661743 0.0547019 0
M  V30 5472 H 507.541 1.99327 -0.461508 0
M  V30 5473 H 507.551 3.9557 0.999426 0
M  V30 5474 H 506.226 4.1568 -0.135244 0
M  V30 5475 H 504.803 3.3996 1.53236 0
M  V30 5476 N 506.988 0.0434614 1.5754 0
M  V30 5477 C 508.213 -0.645358 1.97104 0
M  V30 5478 C 508.638 -1.64037 0.920521 0
M  V30 5479 O 507.996 -1.80922 -0.11708 0
M  V30 5480 C 508.044 -1.31547 3.35749 0
M  V30 5481 O 507.148 -2.43103 3.33129 0
M  V30 5482 H 506.489 -0.168403 0.64229 0
M  V30 5483 H 509.019 0.109573 2.04306 0
M  V30 5484 H 509.029 -1.66895 3.72304 0
M  V30 5485 H 507.704 -0.586205 4.11748 0
M  V30 5486 H 506.281 -2.0976 3.0831 0
M  V30 5487 N 508.466 -1.55915 -0.229846 0
M  V30 5488 C 509.396 -1.94754 -1.28815 0
M  V30 5489 C 510.377 -0.814657 -1.49323 0
M  V30 5490 O 511.562 -1.07631 -1.61645 0
M  V30 5491 C 508.692 -2.25705 -2.63959 0
M  V30 5492 C 507.646 -3.41406 -2.5812 0
M  V30 5493 C 506.972 -3.57941 -3.97218 0
M  V30 5494 C 508.272 -4.76616 -2.13623 0
M  V30 5495 H 509.966 -2.83404 -0.965547 0
M  V30 5496 H 507.512 -1.36353 -0.463028 0
M  V30 5497 H 509.465 -2.51467 -3.38146 0
M  V30 5498 H 508.189 -1.339 -2.9789 0
M  V30 5499 H 506.848 -3.1568 -1.86391 0
M  V30 5500 H 506.496 -2.63526 -4.28443 0
M  V30 5501 H 506.196 -4.35757 -3.94195 0
M  V30 5502 H 507.72 -3.86042 -4.73079 0
M  V30 5503 H 509.134 -5.01637 -2.77549 0
M  V30 5504 H 507.531 -5.57655 -2.21677 0
M  V30 5505 H 508.601 -4.7253 -1.08829 0
M  V30 5506 N 509.944 0.496216 -1.49584 0
M  V30 5507 C 510.876 1.61404 -1.62731 0
M  V30 5508 C 511.889 1.54613 -0.50978 0
M  V30 5509 O 513.078 1.60458 -0.782017 0
M  V30 5510 C 510.178 3.00212 -1.57245 0
M  V30 5511 C 509.351 3.32138 -2.84611 0
M  V30 5512 C 508.41 4.5038 -2.72112 0
M  V30 5513 O 507.436 4.51926 -3.46051 0
M  V30 5514 N 508.638 5.50575 -1.83977 0
M  V30 5515 H 511.403 1.50552 -2.59141 0
M  V30 5516 H 508.964 0.684182 -1.46733 0
M  V30 5517 H 510.956 3.77241 -1.4653 0
M  V30 5518 H 509.526 3.04964 -0.686729 0
M  V30 5519 H 508.746 2.4396 -3.09641 0
M  V30 5520 H 510.034 3.50268 -3.69039 0
M  V30 5521 H 509.432 5.52128 -1.23171 0
M  V30 5522 H 507.989 6.26687 -1.79182 0
M  V30 5523 N 511.423 1.38739 0.74761 0
M  V30 5524 C 512.663 1.36695 1.51966 0
M  V30 5525 C 513.027 -0.0411889 1.91956 0
M  V30 5526 O 514.228 -0.186543 2.68152 0
M  V30 5527 C 512.499 2.30119 2.73459 0
M  V30 5528 S 514.058 2.4615 3.63257 0
M  V30 5529 H 510.876 0.484929 0.519966 0
M  V30 5530 H 513.478 1.7472 0.877104 0
M  V30 5531 H 512.182 3.31312 2.422 0
M  V30 5532 H 511.713 1.93265 3.42655 0
M  V30 5533 H 513.728 1.69001 4.66533 0
M  V30 5534 N 512.901 -0.976442 1.23707 0
M  V30 5535 C 513.849 -2.09078 1.01927 0
M  V30 5536 C 514.843 -1.69345 -0.0430193 0
M  V30 5537 O 516.049 -1.79659 0.110814 0
M  V30 5538 H 512.424 -0.68398 0.312531 0
M  V30 5539 H 514.395 -2.24614 1.96447 0
M  V30 5540 C 513.144 -3.41919 0.631385 0
M  V30 5541 H 512.467 -3.72946 1.44053 0
M  V30 5542 H 513.907 -4.20817 0.518532 0
M  V30 5543 C 512.366 -3.30357 -0.660723 0
M  V30 5544 O 512.896 -3.63542 -1.70881 0
M  V30 5545 N 511.102 -2.83507 -0.638139 0
M  V30 5546 H 510.649 -2.567 0.215108 0
M  V30 5547 H 510.607 -2.76153 -1.50289 0
M  V30 5548 N 514.379 -1.04941 -1.1758 0
M  V30 5549 C 515.795 -0.770282 -1.39781 0
M  V30 5550 C 515.995 0.636417 -1.91186 0
M  V30 5551 O 515.051 1.39923 -2.10185 0
M  V30 5552 C 516.364 -1.82376 -2.3908 0
M  V30 5553 C 517.912 -1.84569 -2.52791 0
M  V30 5554 C 518.387 -2.88933 -3.55361 0
M  V30 5555 N 519.878 -2.8788 -3.62877 0
M  V30 5556 C 520.613 -3.65282 -4.41992 0
M  V30 5557 N 520.109 -4.52461 -5.24643 0
M  V30 5558 N 521.902 -3.53732 -4.36841 0
M  V30 5559 H 514.053 -1.95705 -0.825438 0
M  V30 5560 H 516.316 -0.847284 -0.425222 0
M  V30 5561 H 516.022 -2.83323 -2.08376 0
M  V30 5562 H 515.896 -1.66327 -3.38549 0
M  V30 5563 H 518.283 -0.842879 -2.82807 0
M  V30 5564 H 518.364 -2.04696 -1.53406 0
M  V30 5565 H 518.008 -3.89398 -3.26085 0
M  V30 5566 H 517.938 -2.66059 -4.54445 0
M  V30 5567 H 520.429 -2.24666 -3.03864 0
M  V30 5568 H 520.742 -5.08211 -5.82187 0
M  V30 5569 H 519.087 -4.56524 -5.24033 0
M  V30 5570 H 522.278 -2.85021 -3.71323 0
M  V30 5571 H 522.451 -4.14302 -4.98255 0
M  V30 5572 N 515.857 1.33968 -0.830081 0
M  V30 5573 C 516.807 2.26845 -0.229242 0
M  V30 5574 C 517.791 1.48862 0.610659 0
M  V30 5575 O 518.983 1.70808 0.464067 0
M  V30 5576 C 516.112 3.3798 0.602057 0
M  V30 5577 C 515.198 4.23369 -0.248866 0
M  V30 5578 N 515.589 4.88182 -1.32334 0
M  V30 5579 C 513.887 4.45987 -0.0344077 0
M  V30 5580 C 514.588 5.51671 -1.84482 0
M  V30 5581 N 513.564 5.31348 -1.14762 0
M  V30 5582 H 517.366 2.74464 -1.05104 0
M  V30 5583 H 514.88 1.4777 -0.673623 0
M  V30 5584 H 516.877 4.03494 1.04873 0
M  V30 5585 H 515.537 2.9191 1.42193 0
M  V30 5586 H 516.548 4.88988 -1.70619 0
M  V30 5587 H 513.225 4.10658 0.752727 0
M  V30 5588 H 514.615 6.13308 -2.74413 0
M  V30 5589 N 517.335 0.585699 1.46312 0
M  V30 5590 C 518.282 -0.145835 2.30339 0
M  V30 5591 C 519.252 -0.881215 1.40797 0
M  V30 5592 O 520.437 -0.871293 1.69744 0
M  V30 5593 C 517.577 -1.15161 3.25318 0
M  V30 5594 C 516.69 -0.419367 4.2996 0
M  V30 5595 C 515.825 -1.41293 5.12064 0
M  V30 5596 C 514.864 -0.667261 6.08452 0
M  V30 5597 N 514.001 -1.60903 6.83414 0
M  V30 5598 H 518.841 0.576755 2.92365 0
M  V30 5599 H 516.378 0.296237 1.44086 0
M  V30 5600 H 518.336 -1.74763 3.78832 0
M  V30 5601 H 516.966 -1.84188 2.65094 0
M  V30 5602 H 516.018 0.291751 3.7928 0
M  V30 5603 H 517.33 0.163433 4.98532 0
M  V30 5604 H 516.484 -2.08167 5.6987 0
M  V30 5605 H 515.223 -2.02966 4.43459 0
M  V30 5606 H 514.228 0.0152356 5.49798 0
M  V30 5607 H 515.453 -0.0558817 6.79077 0
M  V30 5608 H 513.399 -2.21381 6.17516 0
M  V30 5609 H 513.316 -1.07911 7.48259 0
M  V30 5610 H 514.584 -2.26802 7.45775 0
M  V30 5611 N 518.813 -1.54241 0.323641 0
M  V30 5612 C 520.224 -1.85975 -0.164405 0
M  V30 5613 C 520.575 -1.24529 -1.51615 0
M  V30 5614 O 519.7 -0.551351 -2.09258 0
M  V30 5615 C 520.295 -3.37424 -0.305091 0
M  V30 5616 C 518.854 -3.69107 -0.737358 0
M  V30 5617 C 518.001 -2.76942 0.140884 0
M  V30 5618 H 520.952 -1.49088 0.543922 0
M  V30 5619 H 520.973 -3.63147 -1.13598 0
M  V30 5620 H 520.485 -3.82116 0.678876 0
M  V30 5621 H 518.586 -3.29947 -1.73107 0
M  V30 5622 H 518.699 -4.76035 -0.541053 0
M  V30 5623 H 517.063 -2.51795 -0.383572 0
M  V30 5624 H 517.846 -3.24461 1.12162 0
M  V30 5625 N 520.291 -0.0518155 -1.57515 0
M  V30 5626 C 521.537 0.616839 -1.93821 0
M  V30 5627 C 521.892 1.68413 -0.930307 0
M  V30 5628 O 521.185 1.91534 0.0504231 0
M  V30 5629 C 521.379 1.25607 -3.34601 0
M  V30 5630 C 521.208 0.252222 -4.48992 0
M  V30 5631 C 519.978 -0.156031 -5.05059 0
M  V30 5632 C 522.176 -0.502613 -5.11838 0
M  V30 5633 N 520.158 -1.15267 -6.02981 0
M  V30 5634 C 521.529 -1.35232 -6.05072 0
M  V30 5635 C 523.584 -0.560855 -4.94731 0
M  V30 5636 C 522.287 -2.25505 -6.83037 0
M  V30 5637 C 524.313 -1.45102 -5.73323 0
M  V30 5638 C 523.675 -2.28845 -6.6619 0
M  V30 5639 H 519.774 0.197344 -0.75669 0
M  V30 5640 H 522.358 -0.124297 -1.94303 0
M  V30 5641 H 520.529 1.96723 -3.34895 0
M  V30 5642 H 522.261 1.88358 -3.58195 0
M  V30 5643 H 519.016 0.22306 -4.73074 0
M  V30 5644 H 519.44 -1.64791 -6.56638 0
M  V30 5645 H 524.082 0.0723639 -4.22738 0
M  V30 5646 H 521.8 -2.89872 -7.54321 0
M  V30 5647 H 525.386 -1.50066 -5.62113 0
M  V30 5648 H 524.266 -2.96608 -7.25943 0
M  V30 5649 N 521.769 1.56035 0.221574 0
M  V30 5650 C 523.185 1.49026 0.571271 0
M  V30 5651 C 523.385 0.746912 1.87146 0
M  V30 5652 O 522.441 0.286566 2.50869 0
M  V30 5653 C 523.754 2.93579 0.650522 0
M  V30 5654 C 525.302 3.04099 0.741151 0
M  V30 5655 C 525.777 4.5001 0.851747 0
M  V30 5656 N 527.268 4.54053 0.915968 0
M  V30 5657 C 528.003 5.64232 1.02125 0
M  V30 5658 N 527.499 6.84164 1.09049 0
M  V30 5659 N 529.292 5.52084 1.05639 0
M  V30 5660 H 521.443 2.02791 -0.63162 0
M  V30 5661 H 523.706 0.921736 -0.221602 0
M  V30 5662 H 523.412 3.50912 -0.235253 0
M  V30 5663 H 523.286 3.45476 1.51413 0
M  V30 5664 H 525.673 2.4683 1.61737 0
M  V30 5665 H 525.754 2.55371 -0.148128 0
M  V30 5666 H 525.398 5.07896 -0.0200117 0
M  V30 5667 H 525.328 4.96444 1.75644 0
M  V30 5668 H 527.819 3.67683 0.872782 0
M  V30 5669 H 528.132 7.63883 1.1706 0
M  V30 5670 H 526.477 6.86875 1.05962 0
M  V30 5671 H 529.668 4.57317 0.998953 0
M  V30 5672 H 529.841 6.37983 1.13498 0
M  V30 5673 N 523.247 -0.488276 1.49845 0
M  V30 5674 C 524.494 -1.24157 1.59973 0
M  V30 5675 C 524.822 -1.92293 0.292182 0
M  V30 5676 O 524.077 -1.81942 -0.720813 0
M  V30 5677 C 524.376 -2.32152 2.71735 0
M  V30 5678 C 524.042 -1.81387 4.12807 0
M  V30 5679 C 522.704 -1.67262 4.51195 0
M  V30 5680 C 525.056 -1.43537 5.01045 0
M  V30 5681 C 522.384 -1.13685 5.7558 0
M  V30 5682 C 524.736 -0.914081 6.25961 0
M  V30 5683 C 523.4 -0.759327 6.63167 0
M  V30 5684 H 522.67 -0.454322 0.585383 0
M  V30 5685 H 525.317 -0.540261 1.83721 0
M  V30 5686 H 523.622 -3.08122 2.42008 0
M  V30 5687 H 525.319 -2.90164 2.76778 0
M  V30 5688 H 521.909 -1.93344 3.82513 0
M  V30 5689 H 526.093 -1.53292 4.72033 0
M  V30 5690 H 521.349 -1.00426 6.03096 0
M  V30 5691 H 525.523 -0.612066 6.93705 0
M  V30 5692 H 523.15 -0.342002 7.5943 0
M  V30 5693 N 524.725 -1.39134 -0.740242 0
M  V30 5694 C 525.973 -1.35803 -1.49673 0
M  V30 5695 C 526.294 0.0470897 -1.94943 0
M  V30 5696 O 525.564 0.997347 -1.68611 0
M  V30 5697 H 524.144 -0.499736 -0.555224 0
M  V30 5698 H 526.806 -1.73947 -0.879107 0
M  V30 5699 H 525.902 -2.0174 -2.38133 0
M  V30 5700 N 526.204 0.969867 -1.24223 0
M  V30 5701 C 527.432 1.74756 -1.10761 0
M  V30 5702 C 527.847 1.85713 0.340041 0
M  V30 5703 O 527.204 1.34389 1.23474 0
M  V30 5704 C 527.255 3.16915 -1.73917 0
M  V30 5705 O 526.976 3.06511 -3.13021 0
M  V30 5706 C 528.477 4.11032 -1.66036 0
M  V30 5707 H 525.697 0.548092 -0.387087 0
M  V30 5708 H 528.241 1.2178 -1.64286 0
M  V30 5709 H 526.396 3.66884 -1.244 0
M  V30 5710 H 526.81 3.96079 -3.43834 0
M  V30 5711 H 528.284 5.08446 -2.14911 0
M  V30 5712 H 528.761 4.34785 -0.621159 0
M  V30 5713 H 529.367 3.66972 -2.14969 0
M  V30 5714 N 527.682 1.05563 1.17022 0
M  V30 5715 C 529.098 0.777684 1.39371 0
M  V30 5716 C 529.298 -0.626269 1.91521 0
M  V30 5717 O 528.354 -1.38806 2.10924 0
M  V30 5718 C 529.667 1.83642 2.3811 0
M  V30 5719 C 531.215 1.85907 2.51809 0
M  V30 5720 C 531.69 2.90813 3.53824 0
M  V30 5721 N 533.181 2.898 3.61345 0
M  V30 5722 C 533.916 3.6762 4.40049 0
M  V30 5723 N 533.412 4.55237 5.22237 0
M  V30 5724 N 535.205 3.56044 4.34959 0
M  V30 5725 H 527.356 1.9614 0.815047 0
M  V30 5726 H 529.619 0.849527 0.420722 0
M  V30 5727 H 529.325 2.84425 2.06871 0
M  V30 5728 H 529.199 1.6812 3.37662 0
M  V30 5729 H 531.586 0.857865 2.82356 0
M  V30 5730 H 531.667 2.05506 1.52318 0
M  V30 5731 H 531.311 3.91122 3.24015 0
M  V30 5732 H 531.241 2.68465 4.53028 0
M  V30 5733 H 533.732 2.26274 3.02669 0
M  V30 5734 H 534.045 5.11291 5.79484 0
M  V30 5735 H 532.39 4.59296 5.21605 0
M  V30 5736 H 535.581 2.86986 3.69806 0
M  V30 5737 H 535.754 4.16938 4.96051 0
M  V30 5738 N 529.16 -1.33526 0.837174 0
M  V30 5739 C 530.407 -1.97837 0.432064 0
M  V30 5740 C 530.735 -1.66324 -1.00829 0
M  V30 5741 O 529.99 -0.93448 -1.71948 0
M  V30 5742 C 530.289 -3.52367 0.597675 0
M  V30 5743 C 529.955 -4.03826 2.00587 0
M  V30 5744 C 528.617 -4.1759 2.39106 0
M  V30 5745 C 530.969 -4.31333 2.92576 0
M  V30 5746 C 528.297 -4.56195 3.68921 0
M  V30 5747 C 530.649 -4.7139 4.2187 0
M  V30 5748 C 529.313 -4.8336 4.60347 0
M  V30 5749 H 528.583 -0.723937 0.158104 0
M  V30 5750 H 531.23 -1.5923 1.06387 0
M  V30 5751 H 529.535 -3.91624 -0.117452 0
M  V30 5752 H 531.232 -4.00126 0.26454 0
M  V30 5753 H 527.822 -3.93586 1.69671 0
M  V30 5754 H 532.006 -4.20224 2.64056 0
M  V30 5755 H 527.262 -4.63655 3.9854 0
M  V30 5756 H 531.436 -4.91631 4.93226 0
M  V30 5757 H 529.063 -5.1303 5.60985 0
M  V30 5758 N 530.638 -0.59345 -1.46 0
M  V30 5759 C 531.571 0.182196 -2.27472 0
M  V30 5760 C 532.549 0.886901 -1.36282 0
M  V30 5761 O 533.733 0.898627 -1.65701 0
M  V30 5762 C 530.86 1.26236 -3.14296 0
M  V30 5763 C 529.906 0.662331 -4.21326 0
M  V30 5764 S 530.739 -0.519017 -5.32979 0
M  V30 5765 C 531.895 0.562086 -6.23371 0
M  V30 5766 H 532.128 -0.509056 -2.92909 0
M  V30 5767 H 529.661 -0.380607 -1.49635 0
M  V30 5768 H 531.619 1.88075 -3.64881 0
M  V30 5769 H 530.28 1.92562 -2.48151 0
M  V30 5770 H 529.473 1.47461 -4.81945 0
M  V30 5771 H 529.075 0.119381 -3.73809 0
M  V30 5772 H 531.367 1.44494 -6.61912 0
M  V30 5773 H 532.31 -0.00760776 -7.081 0
M  V30 5774 H 532.718 0.871061 -5.57739 0
M  V30 5775 N 532.116 1.54067 -0.331816 0
M  V30 5776 C 533.341 2.05599 0.272705 0
M  V30 5777 C 533.766 1.2059 1.44359 0
M  V30 5778 O 533.124 0.216907 1.79998 0
M  V30 5779 C 533.172 3.54188 0.677021 0
M  V30 5780 O 532.276 3.72082 1.77844 0
M  V30 5781 H 531.617 0.662286 0.0476801 0
M  V30 5782 H 534.147 1.98826 -0.482624 0
M  V30 5783 H 534.157 3.96608 0.957415 0
M  V30 5784 H 532.832 4.15513 -0.179325 0
M  V30 5785 H 531.409 3.41566 1.49622 0
M  V30 5786 N 533.594 0.0601682 1.57485 0
M  V30 5787 C 534.524 -0.90889 2.15085 0
M  V30 5788 C 535.505 -1.31838 1.07484 0
M  V30 5789 O 536.69 -1.3915 1.35466 0
M  V30 5790 C 533.82 -2.18059 2.7031 0
M  V30 5791 C 532.774 -1.91088 3.82974 0
M  V30 5792 C 532.1 -3.24789 4.24754 0
M  V30 5793 C 533.4 -1.22535 5.07723 0
M  V30 5794 H 535.094 -0.429093 2.96309 0
M  V30 5795 H 532.64 -0.204952 1.42534 0
M  V30 5796 H 534.593 -2.86258 3.09248 0
M  V30 5797 H 533.317 -2.6826 1.8629 0
M  V30 5798 H 531.976 -1.25297 3.44523 0
M  V30 5799 H 531.624 -3.72809 3.37672 0
M  V30 5800 H 531.324 -3.07538 5.00694 0
M  V30 5801 H 532.848 -3.94205 4.66299 0
M  V30 5802 H 534.262 -1.80783 5.4405 0
M  V30 5803 H 532.659 -1.1558 5.88864 0
M  V30 5804 H 533.729 -0.202692 4.84476 0
M  V30 5805 N 535.072 -1.5615 -0.213296 0
M  V30 5806 C 536.321 -1.78743 -0.93455 0
M  V30 5807 C 536.634 -0.630199 -1.8517 0
M  V30 5808 O 537.84 -0.739966 -2.61222 0
M  V30 5809 C 536.296 -3.16571 -1.71203 0
M  V30 5810 C 535.904 -4.40043 -0.840617 0
M  V30 5811 C 537.648 -3.48485 -2.42401 0
M  V30 5812 C 535.555 -5.68895 -1.61592 0
M  V30 5813 H 534.485 -0.666426 -0.352692 0
M  V30 5814 H 537.136 -1.82532 -0.188227 0
M  V30 5815 H 535.518 -3.06981 -2.50157 0
M  V30 5816 H 536.692 -4.6071 -0.0910326 0
M  V30 5817 H 535.007 -4.15706 -0.240365 0
M  V30 5818 H 537.604 -4.41983 -3.00924 0
M  V30 5819 H 537.947 -2.71371 -3.15695 0
M  V30 5820 H 538.48 -3.59442 -1.7043 0
M  V30 5821 H 535.219 -6.48925 -0.926106 0
M  V30 5822 H 534.739 -5.52275 -2.33991 0
M  V30 5823 H 536.418 -6.09365 -2.17447 0
M  V30 5824 N 536.55 0.480323 -1.50102 0
M  V30 5825 C 537.497 1.57946 -1.6829 0
M  V30 5826 C 538.467 1.57611 -0.524223 0
M  V30 5827 O 539.652 1.75282 -0.753709 0
M  V30 5828 C 536.792 2.95978 -1.77457 0
M  V30 5829 C 535.905 3.06173 -3.04766 0
M  V30 5830 C 535.04 4.35063 -3.04784 0
M  V30 5831 C 534.079 4.38966 -4.26586 0
M  V30 5832 N 533.216 5.59314 -4.24396 0
M  V30 5833 H 538.056 1.41743 -2.62131 0
M  V30 5834 H 535.593 0.689304 -1.2995 0
M  V30 5835 H 537.551 3.76011 -1.80752 0
M  V30 5836 H 536.181 3.10837 -0.870637 0
M  V30 5837 H 535.233 2.19071 -3.10986 0
M  V30 5838 H 536.545 3.04916 -3.9475 0
M  V30 5839 H 535.699 5.23436 -3.06757 0
M  V30 5840 H 534.438 4.38915 -2.12614 0
M  V30 5841 H 533.443 3.48992 -4.24835 0
M  V30 5842 H 534.668 4.36813 -5.19972 0
M  V30 5843 H 532.614 5.63969 -3.35074 0
M  V30 5844 H 532.531 5.5976 -5.08138 0
M  V30 5845 H 533.799 6.49837 -4.30502 0
M  V30 5846 N 538.028 1.39524 0.732853 0
M  V30 5847 C 538.938 1.40695 1.87729 0
M  V30 5848 C 539.954 0.301496 1.71368 0
M  V30 5849 O 541.13 0.543313 1.93933 0
M  V30 5850 C 538.195 1.25098 3.23344 0
M  V30 5851 C 537.256 2.45634 3.52083 0
M  V30 5852 C 536.489 2.30772 4.81228 0
M  V30 5853 O 536.712 1.31233 5.55098 0
M  V30 5854 O 535.646 3.19799 5.09914 0
M  V30 5855 H 539.472 2.37168 1.89697 0
M  V30 5856 H 537.057 1.20663 0.880959 0
M  V30 5857 H 538.939 1.18541 4.04383 0
M  V30 5858 H 537.614 0.317209 3.22142 0
M  V30 5859 H 536.521 2.57767 2.71122 0
M  V30 5860 H 537.854 3.37712 3.58066 0
M  V30 5861 N 539.506 -0.963266 1.24736 0
M  V30 5862 C 540.469 -2.04013 1.04457 0
M  V30 5863 C 541.469 -1.608 0.000335555 0
M  V30 5864 O 542.659 -1.72515 0.241719 0
M  V30 5865 C 539.791 -3.35858 0.584162 0
M  V30 5866 H 540.984 -2.23436 2.00041 0
M  V30 5867 H 538.537 -1.13914 1.07021 0
M  V30 5868 H 539.272 -3.22128 -0.374673 0
M  V30 5869 H 539.057 -3.68568 1.3379 0
M  V30 5870 H 540.547 -4.1502 0.463451 0
M  V30 5871 N 540.985 -1.06182 -1.16461 0
M  V30 5872 C 541.935 -0.641619 -2.18786 0
M  V30 5873 C 542.919 0.327122 -1.5754 0
M  V30 5874 O 544.111 0.142746 -1.76423 0
M  V30 5875 C 541.24 -0.0283734 -3.43288 0
M  V30 5876 C 540.326 -1.02154 -4.11613 0
M  V30 5877 N 540.717 -2.19671 -4.55608 0
M  V30 5878 C 539.015 -0.852229 -4.37782 0
M  V30 5879 C 539.716 -2.82583 -5.0845 0
M  V30 5880 N 538.692 -2.10318 -5.01266 0
M  V30 5881 H 542.494 -1.53684 -2.50516 0
M  V30 5882 H 540.008 -0.933349 -1.329 0
M  V30 5883 H 542.005 0.29049 -4.15887 0
M  V30 5884 H 540.665 0.862118 -3.13046 0
M  V30 5885 H 541.676 -2.57453 -4.49375 0
M  V30 5886 H 538.353 -0.0136314 -4.17498 0
M  V30 5887 H 539.743 -3.82298 -5.52538 0
M  V30 5888 N 542.463 1.3308 -0.844243 0
M  V30 5889 C 543.709 1.98304 -0.452453 0
M  V30 5890 C 544.064 1.65645 0.978746 0
M  V30 5891 O 543.357 0.928849 1.6758 0
M  V30 5892 C 543.551 3.52045 -0.616354 0
M  V30 5893 C 543.38 3.99643 -2.06193 0
M  V30 5894 C 542.15 4.27224 -2.69829 0
M  V30 5895 C 544.348 4.15471 -3.03131 0
M  V30 5896 N 542.33 4.60998 -4.05406 0
M  V30 5897 C 543.701 4.52665 -4.23668 0
M  V30 5898 C 545.756 3.97776 -2.99465 0
M  V30 5899 C 544.459 4.74011 -5.41023 0
M  V30 5900 C 546.485 4.20301 -4.16055 0
M  V30 5901 C 545.847 4.57801 -5.35348 0
M  V30 5902 H 541.946 0.752122 -0.214096 0
M  V30 5903 H 544.53 1.61096 -1.09344 0
M  V30 5904 H 542.701 3.884 -0.00513205 0
M  V30 5905 H 544.433 4.04228 -0.19548 0
M  V30 5906 H 541.188 4.18911 -2.20931 0
M  V30 5907 H 541.612 4.82087 -4.75312 0
M  V30 5908 H 546.254 3.67893 -2.08362 0
M  V30 5909 H 543.972 5.02753 -6.32665 0
M  V30 5910 H 547.558 4.08122 -4.14641 0
M  V30 5911 H 546.438 4.74884 -6.24063 0
M  V30 5912 N 543.941 0.601185 1.45683 0
M  V30 5913 C 544.851 -0.123395 2.34275 0
M  V30 5914 C 545.867 -0.86702 1.5086 0
M  V30 5915 O 547.043 -0.826049 1.8368 0
M  V30 5916 C 544.108 -1.11237 3.2837 0
M  V30 5917 C 543.169 -0.371405 4.2769 0
M  V30 5918 C 542.402 -1.31327 5.1729 0
M  V30 5919 O 542.625 -2.55078 5.10188 0
M  V30 5920 O 541.559 -0.813811 5.96373 0
M  V30 5921 H 545.385 0.604483 2.97623 0
M  V30 5922 H 542.97 0.361477 1.44961 0
M  V30 5923 H 544.852 -1.68214 3.8637 0
M  V30 5924 H 543.527 -1.82139 2.67595 0
M  V30 5925 H 542.434 0.24067 3.73325 0
M  V30 5926 H 543.767 0.296998 4.91303 0
M  V30 5927 N 545.419 -1.53889 0.339982 0
M  V30 5928 C 546.667 -2.00458 -0.257112 0
M  V30 5929 C 546.988 -1.22953 -1.51353 0
M  V30 5930 O 546.258 -0.335734 -1.93002 0
M  V30 5931 H 544.838 -0.740544 -0.0979965 0
M  V30 5932 H 547.5 -1.89386 0.460317 0
M  V30 5933 H 546.596 -3.08035 -0.502057 0
M  V30 5934 N 546.897 -0.0685191 -1.57451 0
M  V30 5935 C 547.827 0.89747 -2.15564 0
M  V30 5936 C 548.808 1.31266 -1.08181 0
M  V30 5937 O 549.993 1.38429 -1.36202 0
M  V30 5938 C 547.123 2.16623 -2.71463 0
M  V30 5939 C 546.077 1.89054 -3.83982 0
M  V30 5940 C 545.403 3.22532 -4.26471 0
M  V30 5941 C 546.703 1.1984 -5.08366 0
M  V30 5942 H 548.397 0.413373 -2.96533 0
M  V30 5943 H 545.943 0.197391 -1.42641 0
M  V30 5944 H 547.896 2.84614 -3.10761 0
M  V30 5945 H 546.62 2.67269 -1.8771 0
M  V30 5946 H 545.279 1.23469 -3.45183 0
M  V30 5947 H 544.927 3.71013 -3.39644 0
M  V30 5948 H 544.627 3.04879 -5.02317 0
M  V30 5949 H 546.151 3.91727 -4.68383 0
M  V30 5950 H 547.565 1.77896 -5.45001 0
M  V30 5951 H 545.962 1.12456 -5.89469 0
M  V30 5952 H 547.032 0.176996 -4.84577 0
M  V30 5953 N 548.375 1.56261 0.205012 0
M  V30 5954 C 549.603 1.84141 0.943386 0
M  V30 5955 C 550.018 0.649772 1.77266 0
M  V30 5956 O 549.375 -0.381612 1.78466 0
M  V30 5957 C 549.426 3.10719 1.84759 0
M  V30 5958 O 549.147 4.25286 1.05181 0
M  V30 5959 C 550.648 3.51706 2.69848 0
M  V30 5960 H 547.868 0.611734 0.275721 0
M  V30 5961 H 550.412 2.03364 0.215253 0
M  V30 5962 H 548.567 2.93422 2.52947 0
M  V30 5963 H 548.981 4.97301 1.66709 0
M  V30 5964 H 550.455 4.43266 3.28967 0
M  V30 5965 H 550.932 2.7423 3.43067 0
M  V30 5966 H 551.538 3.71499 2.07047 0
M  V30 5967 N 549.853 -0.472356 1.50355 0
M  V30 5968 C 551.101 -1.22211 1.60962 0
M  V30 5969 C 551.422 -1.92497 0.311439 0
M  V30 5970 O 550.692 -1.8405 -0.671002 0
M  V30 5971 H 549.272 -0.454092 0.593135 0
M  V30 5972 H 551.934 -0.544977 1.87126 0
M  V30 5973 H 551.03 -1.9707 2.42012 0
M  V30 5974 N 551.331 -1.39911 -0.725443 0
M  V30 5975 C 552.747 -1.21725 -1.03224 0
M  V30 5976 C 552.947 -0.0855224 -2.01318 0
M  V30 5977 O 552.003 0.55976 -2.46217 0
M  V30 5978 C 553.316 -2.55511 -1.58539 0
M  V30 5979 C 554.864 -2.62439 -1.70572 0
M  V30 5980 C 555.339 -3.9647 -2.29294 0
M  V30 5981 N 556.83 -3.98159 -2.36692 0
M  V30 5982 C 557.565 -4.98647 -2.83088 0
M  V30 5983 N 557.061 -6.0953 -3.2931 0
M  V30 5984 N 558.854 -4.8602 -2.82384 0
M  V30 5985 H 551.005 -2.12267 -0.075048 0
M  V30 5986 H 553.268 -0.943136 -0.0959066 0
M  V30 5987 H 552.974 -3.38926 -0.939249 0
M  V30 5988 H 552.848 -2.75905 -2.57208 0
M  V30 5989 H 555.235 -1.79401 -2.34306 0
M  V30 5990 H 555.316 -2.45885 -0.705297 0
M  V30 5991 H 554.96 -4.79942 -1.66186 0
M  V30 5992 H 554.89 -4.10349 -3.30032 0
M  V30 5993 H 557.381 -3.18085 -2.04035 0
M  V30 5994 H 557.694 -6.82106 -3.6325 0
M  V30 5995 H 556.039 -6.1311 -3.27294 0
M  V30 5996 H 559.23 -3.98493 -2.45603 0
M  V30 5997 H 559.403 -5.64478 -3.18226 0
M  V30 5998 N 552.809 0.956637 -1.25245 0
M  V30 5999 C 554.058 1.69537 -1.0927 0
M  V30 6000 C 554.371 1.92136 0.366503 0
M  V30 6001 O 555.577 2.63687 0.64665 0
M  V30 6002 C 554.033 3.05211 -1.9072 0
M  V30 6003 C 553.641 2.90416 -3.41119 0
M  V30 6004 C 555.385 3.82882 -1.83308 0
M  V30 6005 C 553.292 4.21468 -4.14872 0
M  V30 6006 H 552.222 0.635804 -0.405302 0
M  V30 6007 H 554.873 1.06513 -1.49423 0
M  V30 6008 H 553.255 3.69128 -1.43389 0
M  V30 6009 H 554.429 2.35444 -3.9611 0
M  V30 6010 H 552.744 2.26203 -3.49602 0
M  V30 6011 H 555.341 4.79944 -2.35706 0
M  V30 6012 H 555.684 4.0853 -0.800572 0
M  V30 6013 H 556.217 3.25711 -2.28379 0
M  V30 6014 H 552.956 4.01009 -5.18529 0
M  V30 6015 H 552.476 4.76213 -3.64665 0
M  V30 6016 H 554.155 4.90022 -4.22478 0
M  V30 6017 N 554.287 1.06798 1.15896 0
M  V30 6018 C 555.515 0.808694 1.90441 0
M  V30 6019 C 555.93 -0.637506 1.77711 0
M  V30 6020 O 555.287 -1.43684 1.12522 0
M  V30 6021 C 555.338 1.20068 3.40978 0
M  V30 6022 O 555.059 2.59013 3.53333 0
M  V30 6023 C 556.56 0.96987 4.3256 0
M  V30 6024 H 553.78 0.292809 0.603742 0
M  V30 6025 H 556.324 1.42296 1.46874 0
M  V30 6026 H 554.479 0.630842 3.82229 0
M  V30 6027 H 554.893 2.7485 4.46719 0
M  V30 6028 H 556.367 1.29371 5.36626 0
M  V30 6029 H 556.844 -0.0941209 4.39099 0
M  V30 6030 H 557.45 1.52433 3.97044 0
M  V30 6031 N 555.766 -1.3263 0.851289 0
M  V30 6032 C 557.013 -1.97368 0.453023 0
M  V30 6033 C 557.341 -1.67384 -0.990596 0
M  V30 6034 O 556.596 -0.952665 -1.70947 0
M  V30 6035 C 556.895 -3.51713 0.635015 0
M  V30 6036 C 556.561 -4.01676 2.04859 0
M  V30 6037 C 555.223 -4.15031 2.43522 0
M  V30 6038 C 557.575 -4.28206 2.97135 0
M  V30 6039 C 554.903 -4.52257 3.73739 0
M  V30 6040 C 557.255 -4.66889 4.26846 0
M  V30 6041 C 555.919 -4.7845 4.65448 0
M  V30 6042 H 555.189 -0.722219 0.165773 0
M  V30 6043 H 557.836 -1.58092 1.0807 0
M  V30 6044 H 556.141 -3.91726 -0.0759081 0
M  V30 6045 H 557.838 -3.99823 0.306964 0
M  V30 6046 H 554.428 -3.91764 1.73836 0
M  V30 6047 H 558.612 -4.174 2.68498 0
M  V30 6048 H 553.868 -4.59402 4.03435 0
M  V30 6049 H 558.042 -4.86372 4.98413 0
M  V30 6050 H 555.669 -5.07052 5.66395 0
M  V30 6051 N 557.244 -0.608902 -1.45362 0
M  V30 6052 C 558.192 0.121639 -2.32282 0
M  V30 6053 C 559.186 0.858301 -1.46046 0
M  V30 6054 O 560.392 0.773718 -1.62523 0
M  V30 6055 H 556.767 0.058086 -0.749753 0
M  V30 6056 H 558.738 -0.629866 -2.91677 0
M  V30 6057 C 557.487 1.1047 -3.29684 0
M  V30 6058 H 556.81 0.547278 -3.96036 0
M  V30 6059 H 558.25 1.58576 -3.9323 0
M  V30 6060 C 556.709 2.17891 -2.56954 0
M  V30 6061 O 557.239 3.25652 -2.35189 0
M  V30 6062 N 555.445 1.93211 -2.17066 0
M  V30 6063 H 554.992 1.05584 -2.34967 0
M  V30 6064 H 554.95 2.6529 -1.68727 0
M  V30 6065 N 558.722 1.53707 -0.348139 0
M  V30 6066 C 559.669 2.25173 0.506518 0
M  V30 6067 C 560.639 1.25174 1.09182 0
M  V30 6068 O 561.824 1.53917 1.12757 0
M  V30 6069 C 558.964 3.03141 1.64923 0
M  V30 6070 C 558.077 4.18002 1.0908 0
M  V30 6071 C 557.212 4.83447 2.20119 0
M  V30 6072 C 556.251 5.90369 1.61651 0
M  V30 6073 N 555.388 6.49575 2.66451 0
M  V30 6074 H 560.228 2.97799 -0.109452 0
M  V30 6075 H 557.765 1.46953 -0.0657866 0
M  V30 6076 H 559.723 3.46607 2.32205 0
M  V30 6077 H 558.353 2.32803 2.23612 0
M  V30 6078 H 557.405 3.79145 0.308783 0
M  V30 6079 H 558.717 4.94892 0.623178 0
M  V30 6080 H 557.871 5.30008 2.95257 0
M  V30 6081 H 556.61 4.05991 2.70227 0
M  V30 6082 H 555.615 5.43186 0.850209 0
M  V30 6083 H 556.84 6.69735 1.1239 0
M  V30 6084 H 554.786 5.74981 3.15805 0
M  V30 6085 H 554.703 7.21952 2.24325 0
M  V30 6086 H 555.971 7.00789 3.41344 0
M  V30 6087 N 560.2 0.0768682 1.57412 0
M  V30 6088 C 561.428 -0.59997 1.9801 0
M  V30 6089 C 561.843 -1.62842 0.955408 0
M  V30 6090 O 561.2 -1.8241 -0.057314 0
M  V30 6091 C 561.251 -1.26401 3.38681 0
M  V30 6092 O 560.972 -0.276723 4.37225 0
M  V30 6093 C 562.473 -2.0282 3.94182 0
M  V30 6094 H 559.693 -0.162239 0.651091 0
M  V30 6095 H 562.237 0.150771 2.03943 0
M  V30 6096 H 560.392 -1.96581 3.33819 0
M  V30 6097 H 560.806 -0.753744 5.19056 0
M  V30 6098 H 562.28 -2.44667 4.94815 0
M  V30 6099 H 562.757 -2.88678 3.31001 0
M  V30 6100 H 563.363 -1.37496 4.02461 0
M  V30 6101 N 561.678 -1.56367 -0.196722 0
M  V30 6102 C 562.626 -1.95304 -1.2633 0
M  V30 6103 C 563.62 -0.838252 -1.47206 0
M  V30 6104 O 564.826 -1.02325 -1.48087 0
M  V30 6105 H 561.201 -0.621013 -0.424083 0
M  V30 6106 H 563.172 -2.84254 -0.907879 0
M  V30 6107 C 561.921 -2.3074 -2.60104 0
M  V30 6108 H 561.244 -3.16047 -2.44856 0
M  V30 6109 H 562.684 -2.61849 -3.33484 0
M  V30 6110 C 561.143 -1.14143 -3.16975 0
M  V30 6111 O 561.673 -0.415602 -3.99544 0
M  V30 6112 N 559.879 -0.91867 -2.75697 0
M  V30 6113 H 559.426 -1.51065 -2.08656 0
M  V30 6114 H 559.384 -0.140321 -3.14087 0
M  V30 6115 N 563.156 0.464375 -1.50603 0
M  V30 6116 C 564.404 1.21356 -1.61608 0
M  V30 6117 C 564.725 1.92329 -0.321643 0
M  V30 6118 O 563.995 1.84403 0.661232 0
M  V30 6119 H 562.575 0.45094 -0.595535 0
M  V30 6120 H 565.237 0.535046 -1.87412 0
M  V30 6121 H 564.333 1.95783 -2.43054 0
M  V30 6122 N 564.634 1.40294 0.718013 0
M  V30 6123 C 565.564 1.43118 1.84498 0
M  V30 6124 C 566.545 0.292403 1.67568 0
M  V30 6125 O 567.73 0.500675 1.87635 0
M  V30 6126 C 564.86 1.29065 3.22427 0
M  V30 6127 C 563.814 2.40521 3.54025 0
M  V30 6128 C 563.14 2.11546 4.91073 0
M  V30 6129 C 564.44 3.82859 3.55269 0
M  V30 6130 H 566.134 2.37432 1.82391 0
M  V30 6131 H 563.68 1.14283 0.87609 0
M  V30 6132 H 565.633 1.29658 4.00957 0
M  V30 6133 H 564.357 0.312271 3.25104 0
M  V30 6134 H 563.016 2.39173 2.77834 0
M  V30 6135 H 562.664 1.12104 4.90348 0
M  V30 6136 H 562.364 2.86216 5.1318 0
M  V30 6137 H 563.888 2.13817 5.71939 0
M  V30 6138 H 565.302 3.86044 4.23843 0
M  V30 6139 H 563.699 4.57029 3.88902 0
M  V30 6140 H 564.769 4.12617 2.54706 0
M  V30 6141 N 566.112 -0.949982 1.2575 0
M  V30 6142 C 567.528 -1.22191 1.02672 0
M  V30 6143 C 567.728 -1.99898 -0.253588 0
M  V30 6144 O 566.784 -2.33329 -0.965076 0
M  V30 6145 C 568.097 -1.99175 2.25277 0
M  V30 6146 C 569.645 -2.12201 2.30087 0
M  V30 6147 C 570.12 -2.92586 3.5236 0
M  V30 6148 N 571.611 -3.00163 3.52784 0
M  V30 6149 C 572.346 -3.62766 4.44059 0
M  V30 6150 N 571.842 -4.26943 5.45611 0
M  V30 6151 N 573.635 -3.59953 4.3173 0
M  V30 6152 H 565.786 -0.430258 2.07996 0
M  V30 6153 H 568.049 -0.252844 0.91366 0
M  V30 6154 H 567.755 -1.49479 3.18354 0
M  V30 6155 H 567.629 -2.99868 2.28821 0
M  V30 6156 H 570.016 -2.61093 1.3753 0
M  V30 6157 H 570.097 -1.10799 2.30559 0
M  V30 6158 H 569.741 -2.44383 4.45241 0
M  V30 6159 H 569.671 -3.94224 3.49134 0
M  V30 6160 H 572.162 -2.54529 2.79327 0
M  V30 6161 H 572.475 -4.72583 6.11461 0
M  V30 6162 H 570.82 -4.25557 5.49478 0
M  V30 6163 H 574.011 -3.09003 3.51617 0
M  V30 6164 H 574.184 -4.08455 5.03059 0
M  V30 6165 N 567.59 -1.07411 -1.15328 0
M  V30 6166 C 568.818 -0.818782 -1.90009 0
M  V30 6167 C 569.233 0.628072 -1.78047 0
M  V30 6168 O 568.59 1.43085 -1.13282 0
M  V30 6169 C 568.641 -1.21874 -3.40337 0
M  V30 6170 O 568.362 -2.60883 -3.51954 0
M  V30 6171 C 569.863 -0.992796 -4.3204 0
M  V30 6172 H 567.083 -0.296007 -0.60218 0
M  V30 6173 H 569.627 -1.43073 -1.46117 0
M  V30 6174 H 567.782 -0.651103 -3.81889 0
M  V30 6175 H 568.196 -2.77216 -4.45255 0
M  V30 6176 H 569.67 -1.32215 -5.35932 0
M  V30 6177 H 570.147 0.0708331 -4.39143 0
M  V30 6178 H 570.753 -1.54537 -3.9623 0
M  V30 6179 N 569.068 1.32177 -0.85831 0
M  V30 6180 C 570.345 1.91781 -0.384624 0
M  V30 6181 C 570.725 1.78171 1.13217 0
M  V30 6182 O 570.073 1.18209 1.95548 0
M  V30 6183 C 570.283 3.38414 -0.853047 0
M  V30 6184 C 571.631 4.15542 -0.872359 0
M  V30 6185 O 572.655 3.47148 -0.797926 0
M  V30 6186 O 571.514 5.37678 -0.978009 0
M  V30 6187 H 568.608 0.819259 -0.112886 0
M  V30 6188 H 571.154 1.40923 -0.945453 0
M  V30 6189 H 569.926 3.4228 -1.89632 0
M  V30 6190 H 569.549 3.96683 -0.269874 0
M  V30 6191 N 570.547 0.616602 1.45037 0
M  V30 6192 C 571.794 0.115331 2.02171 0
M  V30 6193 C 572.122 -1.25748 1.48383 0
M  V30 6194 O 571.377 -1.84511 0.652229 0
M  V30 6195 C 571.676 0.0356829 3.57382 0
M  V30 6196 C 571.342 1.34535 4.30362 0
M  V30 6197 C 570.004 1.70408 4.50016 0
M  V30 6198 C 572.356 2.21049 4.72003 0
M  V30 6199 C 569.684 2.92529 5.0857 0
M  V30 6200 C 572.036 3.42427 5.31908 0
M  V30 6201 C 570.7 3.78541 5.49784 0
M  V30 6202 H 569.97 0.0422024 0.739797 0
M  V30 6203 H 572.617 0.80002 1.73988 0
M  V30 6204 H 570.922 -0.732314 3.84895 0
M  V30 6205 H 572.619 -0.368463 3.99304 0
M  V30 6206 H 569.209 1.05615 4.15383 0
M  V30 6207 H 573.393 1.94632 4.56544 0
M  V30 6208 H 568.649 3.20605 5.20598 0
M  V30 6209 H 572.823 4.09709 5.63127 0
M  V30 6210 H 570.45 4.73255 5.94923 0
M  V30 6211 N 572.025 -1.5352 0.356285 0
M  V30 6212 C 573.302 -1.93405 -0.292223 0
M  V30 6213 C 573.682 -1.28901 -1.67176 0
M  V30 6214 O 573.03 -0.444632 -2.24132 0
M  V30 6215 C 573.24 -3.47223 -0.35175 0
M  V30 6216 C 574.588 -4.20389 -0.596534 0
M  V30 6217 O 575.612 -3.53554 -0.433344 0
M  V30 6218 O 574.471 -5.3881 -0.913589 0
M  V30 6219 H 571.565 -0.808666 -0.173172 0
M  V30 6220 H 574.111 -1.64713 0.408391 0
M  V30 6221 H 572.883 -3.86423 0.615841 0
M  V30 6222 H 572.506 -3.8212 -1.09864 0
M  V30 6223 N 573.503 -0.0852151 -1.57369 0
M  V30 6224 C 574.433 0.874556 -2.16503 0
M  V30 6225 C 575.414 1.30111 -1.09568 0
M  V30 6226 O 576.599 1.36977 -1.37662 0
M  V30 6227 C 573.729 2.13731 -2.73745 0
M  V30 6228 C 572.683 1.84971 -3.85966 0
M  V30 6229 C 572.009 3.17991 -4.29867 0
M  V30 6230 C 573.309 1.14442 -5.09608 0
M  V30 6231 H 575.003 0.381899 -2.96954 0
M  V30 6232 H 572.549 0.18225 -1.42842 0
M  V30 6233 H 574.502 2.81302 -3.13763 0
M  V30 6234 H 573.226 2.65263 -1.90534 0
M  V30 6235 H 571.885 1.19801 -3.46473 0
M  V30 6236 H 571.533 3.6739 -3.4356 0
M  V30 6237 H 571.233 2.99534 -5.05523 0
M  V30 6238 H 572.757 3.86737 -4.72511 0
M  V30 6239 H 574.171 1.72105 -5.46857 0
M  V30 6240 H 572.568 1.06197 -5.90629 0
M  V30 6241 H 573.638 0.12559 -4.84737 0
M  V30 6242 N 574.981 1.5647 0.188427 0
M  V30 6243 C 576.258 1.71857 0.934058 0
M  V30 6244 C 576.638 0.641867 2.01105 0
M  V30 6245 O 575.986 -0.346098 2.25864 0
M  V30 6246 C 576.196 3.14431 1.5144 0
M  V30 6247 C 577.544 3.74869 1.99396 0
M  V30 6248 O 578.568 3.17601 1.61269 0
M  V30 6249 O 577.427 4.75387 2.69573 0
M  V30 6250 H 574.521 0.701186 0.438483 0
M  V30 6251 H 577.067 1.68768 0.177599 0
M  V30 6252 H 575.839 3.8427 0.738416 0
M  V30 6253 H 575.462 3.21775 2.33552 0
M  V30 6254 N 576.459 -0.456382 1.50847 0
M  V30 6255 C 577.705 -1.20914 1.62811 0
M  V30 6256 C 578.038 -1.91301 0.334304 0
M  V30 6257 O 577.313 -1.82775 -0.665098 0
M  V30 6258 C 577.596 -2.24122 2.81853 0
M  V30 6259 C 577.449 -1.57944 4.21158 0
M  V30 6260 C 578.768 -3.25295 2.96431 0
M  V30 6261 H 575.887 -0.438233 0.592554 0
M  V30 6262 H 578.529 -0.50091 1.83278 0
M  V30 6263 H 576.679 -2.84524 2.64534 0
M  V30 6264 H 578.351 -1.01025 4.50102 0
M  V30 6265 H 576.594 -0.882185 4.24735 0
M  V30 6266 H 577.265 -2.33014 5.00408 0
M  V30 6267 H 579.741 -2.7493 3.12335 0
M  V30 6268 H 578.617 -3.94822 3.81322 0
M  V30 6269 H 578.878 -3.90286 2.07676 0
M  V30 6270 N 577.937 -1.40673 -0.710563 0
M  V30 6271 C 579.186 -1.38525 -1.46607 0
M  V30 6272 C 579.499 0.0077024 -1.95598 0
M  V30 6273 O 580.705 0.151792 -2.71075 0
M  V30 6274 C 579.161 -2.43489 -2.6503 0
M  V30 6275 C 578.769 -3.88619 -2.22888 0
M  V30 6276 C 580.513 -2.50456 -3.42742 0
M  V30 6277 C 578.42 -4.85168 -3.3818 0
M  V30 6278 H 577.35 -0.515092 -0.550632 0
M  V30 6279 H 580.001 -1.66431 -0.772846 0
M  V30 6280 H 578.383 -2.0869 -3.36548 0
M  V30 6281 H 579.557 -4.32588 -1.58758 0
M  V30 6282 H 577.872 -3.85174 -1.58208 0
M  V30 6283 H 580.469 -3.19776 -4.28541 0
M  V30 6284 H 580.812 -1.53665 -3.86902 0
M  V30 6285 H 581.345 -2.84271 -2.78271 0
M  V30 6286 H 578.084 -5.8331 -2.99047 0
M  V30 6287 H 577.604 -4.4586 -4.01209 0
M  V30 6288 H 579.283 -5.05225 -4.04174 0
M  V30 6289 N 579.415 0.9433 -1.26252 0
M  V30 6290 C 580.64 1.72898 -1.14547 0
M  V30 6291 C 581.065 1.85761 0.295743 0
M  V30 6292 O 580.423 1.3463 1.21427 0
M  V30 6293 C 580.471 3.11471 -1.8171 0
M  V30 6294 O 579.575 3.97336 -1.10445 0
M  V30 6295 H 578.916 0.530555 -0.399259 0
M  V30 6296 H 581.446 1.18159 -1.67032 0
M  V30 6297 H 581.456 3.61872 -1.88449 0
M  V30 6298 H 580.131 3.01425 -2.86558 0
M  V30 6299 H 578.708 3.55788 -1.11666 0
M  V30 6300 N 580.893 1.08022 1.14757 0
M  V30 6301 C 581.823 0.728248 2.21853 0
M  V30 6302 C 582.804 -0.287486 1.67653 0
M  V30 6303 O 583.989 -0.158727 1.9355 0
M  V30 6304 C 581.119 0.132549 3.47047 0
M  V30 6305 C 580.073 1.07619 4.14249 0
M  V30 6306 C 579.399 0.342907 5.33599 0
M  V30 6307 C 580.699 2.41268 4.63235 0
M  V30 6308 H 582.393 1.62365 2.51551 0
M  V30 6309 H 579.939 0.782125 1.20908 0
M  V30 6310 H 581.892 -0.125665 4.21213 0
M  V30 6311 H 580.616 -0.797971 3.16702 0
M  V30 6312 H 579.275 1.31944 3.42033 0
M  V30 6313 H 578.923 -0.59129 4.99513 0
M  V30 6314 H 578.623 0.971955 5.79506 0
M  V30 6315 H 580.147 0.0926538 6.1053 0
M  V30 6316 H 581.561 2.21232 5.28894 0
M  V30 6317 H 579.958 2.9983 5.19829 0
M  V30 6318 H 581.028 3.03079 3.78512 0
M  V30 6319 N 582.371 -1.3172 0.865308 0
M  V30 6320 C 583.318 -2.2863 0.315736 0
M  V30 6321 C 584.288 -1.55524 -0.583213 0
M  V30 6322 O 585.473 -1.83694 -0.51585 0
M  V30 6323 C 582.613 -3.41735 -0.480773 0
M  V30 6324 C 581.726 -4.297 0.445167 0
M  V30 6325 C 580.861 -5.29944 -0.365012 0
M  V30 6326 C 579.9 -6.09554 0.557651 0
M  V30 6327 N 579.037 -7.01768 -0.215994 0
M  V30 6328 H 583.877 -2.75026 1.14736 0
M  V30 6329 H 581.414 -1.35302 0.577209 0
M  V30 6330 H 583.372 -4.06045 -0.958306 0
M  V30 6331 H 582.002 -2.96461 -1.27714 0
M  V30 6332 H 581.054 -3.65875 1.04113 0
M  V30 6333 H 582.366 -4.85295 1.15284 0
M  V30 6334 H 581.52 -5.99908 -0.905255 0
M  V30 6335 H 580.259 -4.74994 -1.106 0
M  V30 6336 H 579.264 -5.38485 1.10969 0
M  V30 6337 H 580.489 -6.66591 1.29742 0
M  V30 6338 H 578.435 -6.49232 -0.939878 0
M  V30 6339 H 578.352 -7.54762 0.432431 0
M  V30 6340 H 579.62 -7.76002 -0.737618 0
M  V30 6341 N 583.85 -0.624285 -1.44708 0
M  V30 6342 C 584.76 0.0861083 -2.34442 0
M  V30 6343 C 585.776 0.84291 -1.5222 0
M  V30 6344 O 586.952 0.796723 -1.84971 0
M  V30 6345 C 584.017 1.05999 -3.30099 0
M  V30 6346 C 583.077 0.303316 -4.28227 0
M  V30 6347 C 582.311 1.23081 -5.19314 0
M  V30 6348 O 582.534 2.46929 -5.14181 0
M  V30 6349 O 581.468 0.71883 -5.97592 0
M  V30 6350 H 585.293 -0.651756 -2.96624 0
M  V30 6351 H 582.879 -0.384493 -1.44368 0
M  V30 6352 H 584.76 1.62046 -3.88997 0
M  V30 6353 H 583.436 1.77859 -2.70459 0
M  V30 6354 H 582.343 -0.300033 -3.72895 0
M  V30 6355 H 583.676 -0.375123 -4.90768 0
M  V30 6356 N 585.328 1.53329 -0.364422 0
M  V30 6357 C 586.238 2.29414 0.490552 0
M  V30 6358 C 587.254 1.35335 1.09363 0
M  V30 6359 O 588.43 1.68391 1.10483 0
M  V30 6360 C 585.495 3.06772 1.61529 0
M  V30 6361 C 584.556 4.16516 1.03986 0
M  V30 6362 C 583.789 4.90176 2.111 0
M  V30 6363 O 584.012 4.63687 3.32191 0
M  V30 6364 O 582.946 5.76134 1.74222 0
M  V30 6365 H 586.772 3.03428 -0.12856 0
M  V30 6366 H 584.357 1.48843 -0.128837 0
M  V30 6367 H 586.239 3.55082 2.26924 0
M  V30 6368 H 584.914 2.35596 2.21983 0
M  V30 6369 H 583.821 3.7246 0.349856 0
M  V30 6370 H 585.154 4.89855 0.4799 0
M  V30 6371 N 586.806 0.0935595 1.57322 0
M  V30 6372 C 588.054 -0.569383 1.93913 0
M  V30 6373 C 588.375 -1.68817 0.976009 0
M  V30 6374 O 587.645 -1.9588 0.0278099 0
M  V30 6375 H 586.225 -0.21332 0.715894 0
M  V30 6376 H 588.887 0.156531 1.9427 0
M  V30 6377 H 587.983 -0.980577 2.96296 0
M  V30 6378 N 588.284 -1.56567 -0.180126 0
M  V30 6379 C 589.214 -1.98753 -1.22553 0
M  V30 6380 C 590.195 -0.86175 -1.46656 0
M  V30 6381 O 591.38 -1.12719 -1.58139 0
M  V30 6382 C 588.51 -2.33988 -2.56645 0
M  V30 6383 C 587.464 -3.49445 -2.47128 0
M  V30 6384 C 586.79 -3.70397 -3.8563 0
M  V30 6385 C 588.09 -4.83171 -1.98352 0
M  V30 6386 H 589.784 -2.86332 -0.874896 0
M  V30 6387 H 587.33 -1.37757 -0.419414 0
M  V30 6388 H 589.283 -2.62097 -3.29974 0
M  V30 6389 H 588.007 -1.43309 -2.93479 0
M  V30 6390 H 586.666 -3.2145 -1.76254 0
M  V30 6391 H 586.314 -2.77023 -4.19842 0
M  V30 6392 H 586.014 -4.48077 -3.80132 0
M  V30 6393 H 587.538 -4.00897 -4.60558 0
M  V30 6394 H 588.952 -5.10213 -2.61449 0
M  V30 6395 H 587.349 -5.64425 -2.03823 0
M  V30 6396 H 588.419 -4.75753 -0.937402 0
M  V30 6397 N 589.762 0.448376 -1.51087 0
M  V30 6398 C 590.672 1.56882 -1.74428 0
M  V30 6399 C 591.688 1.62268 -0.62809 0
M  V30 6400 O 592.864 1.79716 -0.909075 0
M  V30 6401 C 589.929 2.92947 -1.85426 0
M  V30 6402 C 588.99 2.97766 -3.09247 0
M  V30 6403 C 588.223 4.27341 -3.19711 0
M  V30 6404 O 588.446 5.19112 -2.36387 0
M  V30 6405 O 587.38 4.38219 -4.12611 0
M  V30 6406 H 591.206 1.40104 -2.69452 0
M  V30 6407 H 588.791 0.630247 -1.35456 0
M  V30 6408 H 590.673 3.73719 -1.94709 0
M  V30 6409 H 589.348 3.09876 -0.935887 0
M  V30 6410 H 588.255 2.15989 -3.0545 0
M  V30 6411 H 589.588 2.8578 -4.00738 0
M  V30 6412 N 591.24 1.41047 0.703093 0
M  V30 6413 C 592.187 1.42302 1.81711 0
M  V30 6414 C 593.157 0.278336 1.63751 0
M  V30 6415 O 594.342 0.478266 1.84709 0
M  V30 6416 C 591.482 1.30362 3.19531 0
M  V30 6417 C 590.595 2.54638 3.48975 0
M  V30 6418 C 589.73 2.35047 4.76368 0
M  V30 6419 C 588.769 3.54837 4.98756 0
M  V30 6420 N 587.906 3.34363 6.1737 0
M  V30 6421 H 592.746 2.37516 1.79973 0
M  V30 6422 H 590.283 1.1795 0.878983 0
M  V30 6423 H 592.241 1.21443 3.99134 0
M  V30 6424 H 590.871 0.387602 3.20464 0
M  V30 6425 H 589.923 2.74037 2.63833 0
M  V30 6426 H 591.235 3.43766 3.61423 0
M  V30 6427 H 590.389 2.23552 5.64012 0
M  V30 6428 H 589.128 1.43363 4.66153 0
M  V30 6429 H 588.133 3.66795 4.09563 0
M  V30 6430 H 589.358 4.47464 5.10835 0
M  V30 6431 H 587.304 2.45373 6.08382 0
M  V30 6432 H 587.221 4.17063 6.30551 0
M  V30 6433 H 588.489 3.26626 7.07768 0
M  V30 6434 N 592.718 -0.936591 1.26751 0
M  V30 6435 C 593.967 -1.67778 1.11953 0
M  V30 6436 C 594.28 -1.92694 -0.33589 0
M  V30 6437 O 595.486 -2.64682 -0.604618 0
M  V30 6438 C 593.942 -3.02138 1.95551 0
M  V30 6439 C 593.55 -2.84953 3.45696 0
M  V30 6440 C 595.294 -3.79917 1.89377 0
M  V30 6441 C 593.201 -4.14814 4.21525 0
M  V30 6442 H 592.131 -0.629275 0.415366 0
M  V30 6443 H 594.782 -1.04122 1.51099 0
M  V30 6444 H 593.164 -3.668 1.49243 0
M  V30 6445 H 594.338 -2.29112 3.99805 0
M  V30 6446 H 592.653 -2.20612 3.53156 0
M  V30 6447 H 595.25 -4.76134 2.43312 0
M  V30 6448 H 595.593 -4.07204 0.865464 0
M  V30 6449 H 596.126 -3.22037 2.33532 0
M  V30 6450 H 592.865 -3.92709 5.24843 0
M  V30 6451 H 592.385 -4.70352 3.72195 0
M  V30 6452 H 594.064 -4.83239 4.3022 0
M  V30 6453 N 594.196 -1.08629 -1.14182 0
M  V30 6454 C 595.444 -0.815731 -1.84906 0
M  V30 6455 C 595.765 0.660441 -1.83475 0
M  V30 6456 O 595.035 1.47888 -1.28476 0
M  V30 6457 H 593.615 -0.298773 -0.684648 0
M  V30 6458 H 596.277 -1.37274 -1.38354 0
M  V30 6459 H 595.373 -1.16193 -2.89665 0
M  V30 6460 N 595.674 1.31259 -0.872281 0
M  V30 6461 C 596.902 2.00795 -0.498907 0
M  V30 6462 C 597.317 1.65464 0.909238 0
M  V30 6463 O 596.674 0.885073 1.59602 0
M  V30 6464 C 596.725 3.55625 -0.649092 0
M  V30 6465 O 596.446 3.89692 -2.00179 0
M  V30 6466 C 597.947 4.42434 -0.277034 0
M  V30 6467 H 595.167 0.642299 -0.194145 0
M  V30 6468 H 597.711 1.67438 -1.17408 0
M  V30 6469 H 595.866 3.87394 -0.0214402 0
M  V30 6470 H 596.28 4.84407 -2.01122 0
M  V30 6471 H 597.754 5.50299 -0.433064 0
M  V30 6472 H 598.231 4.32146 0.783989 0
M  V30 6473 H 598.837 4.16086 -0.880483 0
M  V30 6474 N 597.152 0.631951 1.44375 0
M  V30 6475 C 598.398 0.145491 2.02879 0
M  V30 6476 C 598.753 -1.21936 1.48827 0
M  V30 6477 O 598.046 -1.7976 0.663085 0
M  V30 6478 C 598.24 0.0735861 3.57324 0
M  V30 6479 C 598.069 1.42992 4.2636 0
M  V30 6480 C 596.839 2.01691 4.63302 0
M  V30 6481 C 599.037 2.36393 4.56752 0
M  V30 6482 N 597.019 3.30551 5.17309 0
M  V30 6483 C 598.39 3.49869 5.11851 0
M  V30 6484 C 600.445 2.35462 4.38705 0
M  V30 6485 C 599.148 4.6261 5.50803 0
M  V30 6486 C 601.174 3.47268 4.78706 0
M  V30 6487 C 600.536 4.59467 5.33919 0
M  V30 6488 H 596.635 0.0971781 0.775938 0
M  V30 6489 H 599.219 0.835624 1.75856 0
M  V30 6490 H 597.39 -0.585829 3.83957 0
M  V30 6491 H 599.122 -0.421777 4.02496 0
M  V30 6492 H 595.877 1.54627 4.47647 0
M  V30 6493 H 596.301 3.96435 5.48788 0
M  V30 6494 H 600.943 1.49966 3.9531 0
M  V30 6495 H 598.661 5.48813 5.93152 0
M  V30 6496 H 602.247 3.47724 4.66454 0
M  V30 6497 H 601.127 5.44551 5.64299 0
M  V30 6498 N 598.631 -1.53133 0.372548 0
M  V30 6499 C 599.908 -1.93704 -0.271693 0
M  V30 6500 C 600.288 -1.30667 -1.65799 0
M  V30 6501 O 599.636 -0.46838 -2.23648 0
M  V30 6502 C 599.846 -3.47576 -0.314903 0
M  V30 6503 C 601.194 -4.20998 -0.551912 0
M  V30 6504 O 602.218 -3.53994 -0.39582 0
M  V30 6505 O 601.077 -5.39748 -0.85639 0
M  V30 6506 H 598.171 -0.810457 -0.164586 0
M  V30 6507 H 600.717 -1.6427 0.425838 0
M  V30 6508 H 599.489 -3.85749 0.656792 0
M  V30 6509 H 599.112 -3.83264 -1.05804 0
M  V30 6510 N 600.109 -0.101901 -1.5727 0
M  V30 6511 C 601.52 0.426173 -1.81771 0
M  V30 6512 C 601.871 1.67725 -1.01797 0
M  V30 6513 O 600.996 2.14958 -0.249386 0
M  V30 6514 C 601.591 0.779962 -3.297 0
M  V30 6515 C 600.15 1.25275 -3.54941 0
M  V30 6516 C 599.297 0.252814 -2.76145 0
M  V30 6517 H 602.248 -0.32726 -1.55289 0
M  V30 6518 H 602.269 1.63891 -3.43395 0
M  V30 6519 H 601.781 -0.130778 -3.8788 0
M  V30 6520 H 599.882 2.18097 -3.021 0
M  V30 6521 H 599.995 1.20988 -4.63572 0
M  V30 6522 H 598.359 0.736362 -2.43823 0
M  V30 6523 H 599.142 -0.650724 -3.37076 0
M  V30 6524 N 601.587 1.56661 0.17182 0
M  V30 6525 C 602.55 1.9549 1.19651 0
M  V30 6526 C 603.55 0.838501 1.37207 0
M  V30 6527 O 604.74 1.10556 1.34622 0
M  V30 6528 C 601.872 2.24927 2.56166 0
M  V30 6529 H 603.065 2.87184 0.864007 0
M  V30 6530 H 600.618 1.50711 0.41425 0
M  V30 6531 H 601.353 1.35944 2.94431 0
M  V30 6532 H 601.138 3.06301 2.4479 0
M  V30 6533 H 602.628 2.55891 3.30014 0
M  V30 6534 N 603.065 -0.440357 1.51323 0
M  V30 6535 C 604.29 -1.21716 1.67928 0
M  V30 6536 C 604.715 -1.84328 0.374826 0
M  V30 6537 O 604.073 -1.68675 -0.664706 0
M  V30 6538 C 604.121 -2.27914 2.79442 0
M  V30 6539 O 603.225 -3.33325 2.42834 0
M  V30 6540 H 602.566 -0.35674 0.560029 0
M  V30 6541 H 605.096 -0.520417 1.97871 0
M  V30 6542 H 605.106 -2.72746 3.03436 0
M  V30 6543 H 603.781 -1.8172 3.741 0
M  V30 6544 H 602.358 -2.9399 2.294 0
M  V30 6545 N 604.543 -1.41418 -0.695603 0
M  V30 6546 C 605.791 -1.40496 -1.45277 0
M  V30 6547 C 606.112 -0.0149538 -1.94994 0
M  V30 6548 O 605.382 0.9432 -1.71699 0
M  V30 6549 H 603.962 -0.517147 -0.539044 0
M  V30 6550 H 606.624 -1.76656 -0.823321 0
M  V30 6551 H 605.72 -2.09214 -2.31595 0
M  V30 6552 N 606.021 0.929856 -1.27246 0
M  V30 6553 C 606.951 2.04722 -1.12299 0
M  V30 6554 C 607.932 1.70082 -0.0250464 0
M  V30 6555 O 609.117 1.93176 -0.199141 0
M  V30 6556 C 606.247 3.38721 -0.767145 0
M  V30 6557 C 605.201 3.87466 -1.81808 0
M  V30 6558 C 604.527 5.18246 -1.31626 0
M  V30 6559 C 605.827 4.11095 -3.22177 0
M  V30 6560 H 607.521 2.17485 -2.05769 0
M  V30 6561 H 605.067 1.04503 -0.990715 0
M  V30 6562 H 607.02 4.16366 -0.649413 0
M  V30 6563 H 605.744 3.25967 0.203259 0
M  V30 6564 H 604.403 3.12012 -1.92468 0
M  V30 6565 H 604.051 5.01881 -0.335378 0
M  V30 6566 H 603.751 5.51829 -2.01887 0
M  V30 6567 H 605.275 5.98462 -1.21143 0
M  V30 6568 H 606.689 4.79316 -3.1453 0
M  V30 6569 H 605.086 4.55982 -3.90129 0
M  V30 6570 H 606.156 3.16468 -3.67391 0
M  V30 6571 N 607.499 1.09233 1.13605 0
M  V30 6572 C 608.447 0.724572 2.21027 0
M  V30 6573 C 609.441 -0.273595 1.67176 0
M  V30 6574 O 610.647 -0.135266 1.79491 0
M  V30 6575 H 607.022 0.216319 0.720215 0
M  V30 6576 H 608.993 1.63975 2.49309 0
M  V30 6577 C 607.742 0.159126 3.47336 0
M  V30 6578 H 607.065 0.918387 3.89109 0
M  V30 6579 H 608.505 -0.0602851 4.23957 0
M  V30 6580 C 606.964 -1.10514 3.18258 0
M  V30 6581 O 607.494 -2.18869 3.36837 0
M  V30 6582 N 605.7 -1.01886 2.72154 0
M  V30 6583 H 605.247 -0.137027 2.57235 0
M  V30 6584 H 605.205 -1.8655 2.53074 0
M  V30 6585 N 608.977 -1.30795 0.87923 0
M  V30 6586 C 609.91 -2.26396 0.286404 0
M  V30 6587 C 610.888 -1.51528 -0.589748 0
M  V30 6588 O 612.072 -1.80566 -0.541119 0
M  V30 6589 C 609.199 -3.33458 -0.593581 0
M  V30 6590 C 608.245 -4.2597 0.21247 0
M  V30 6591 S 609.078 -5.11132 1.59702 0
M  V30 6592 C 610.234 -6.21705 0.723408 0
M  V30 6593 H 610.467 -2.7633 1.09677 0
M  V30 6594 H 608 -1.38703 0.678305 0
M  V30 6595 H 609.958 -3.9561 -1.09557 0
M  V30 6596 H 608.619 -2.82259 -1.37799 0
M  V30 6597 H 607.812 -5.01907 -0.458822 0
M  V30 6598 H 607.414 -3.68363 0.646883 0
M  V30 6599 H 609.706 -6.77472 -0.0620739 0
M  V30 6600 H 610.649 -6.93007 1.4542 0
M  V30 6601 H 611.057 -5.63771 0.286855 0
M  V30 6602 N 610.455 -0.639598 -1.44038 0
M  V30 6603 C 611.683 -0.154811 -2.0632 0
M  V30 6604 C 612.098 1.17406 -1.47856 0
M  V30 6605 O 611.455 1.72193 -0.604638 0
M  V30 6606 C 611.506 -0.0429958 -3.61474 0
M  V30 6607 O 611.227 -1.31932 -4.17763 0
M  V30 6608 C 612.728 0.469486 -4.40807 0
M  V30 6609 H 609.948 -0.0835862 -0.665773 0
M  V30 6610 H 612.492 -0.876397 -1.84769 0
M  V30 6611 H 610.647 0.629075 -3.82258 0
M  V30 6612 H 611.061 -1.16965 -5.11292 0
M  V30 6613 H 612.535 0.496712 -5.49761 0
M  V30 6614 H 613.012 1.49819 -4.12857 0
M  V30 6615 H 613.618 -0.169624 -4.24962 0
M  V30 6616 N 611.933 1.52934 -0.380664 0
M  V30 6617 C 612.843 2.29921 0.466192 0
M  V30 6618 C 613.859 1.36488 1.07922 0
M  V30 6619 O 615.035 1.69553 1.0869 0
M  V30 6620 C 612.1 3.08468 1.58266 0
M  V30 6621 C 611.161 4.17595 0.995627 0
M  V30 6622 C 610.394 4.92387 2.05889 0
M  V30 6623 O 610.617 4.67184 3.27254 0
M  V30 6624 O 609.551 5.77949 1.68102 0
M  V30 6625 H 613.377 3.03274 -0.160735 0
M  V30 6626 H 610.962 1.48698 -0.144617 0
M  V30 6627 H 612.844 3.57469 2.23145 0
M  V30 6628 H 611.519 2.37937 2.19471 0
M  V30 6629 H 610.426 3.72811 0.310332 0
M  V30 6630 H 611.759 4.90336 0.427918 0
M  V30 6631 N 613.412 0.11024 1.57214 0
M  V30 6632 C 614.637 -0.561179 1.99664 0
M  V30 6633 C 615.062 -1.59985 0.989266 0
M  V30 6634 O 614.42 -1.81255 -0.0402399 0
M  V30 6635 C 614.468 -1.17189 3.41027 0
M  V30 6636 O 613.572 -2.28755 3.4314 0
M  V30 6637 H 612.913 -0.14101 0.648855 0
M  V30 6638 H 615.443 0.196128 2.03658 0
M  V30 6639 H 615.453 -1.50954 3.79047 0
M  V30 6640 H 614.128 -0.411041 4.13864 0
M  V30 6641 H 612.705 -1.96495 3.16929 0
M  V30 6642 N 614.89 -1.56749 -0.16351 0
M  V30 6643 C 615.822 -1.93587 -1.22705 0
M  V30 6644 C 616.835 -0.829824 -1.40063 0
M  V30 6645 O 618.024 -1.10826 -1.39928 0
M  V30 6646 C 615.124 -2.1803 -2.59454 0
M  V30 6647 C 614.297 -3.4928 -2.63292 0
M  V30 6648 C 613.356 -3.62457 -3.8146 0
M  V30 6649 O 612.382 -4.35004 -3.67096 0
M  V30 6650 N 613.584 -2.97888 -4.9824 0
M  V30 6651 H 616.349 -2.8542 -0.914081 0
M  V30 6652 H 613.91 -1.58 -0.353214 0
M  V30 6653 H 615.902 -2.24102 -3.36987 0
M  V30 6654 H 614.472 -1.32543 -2.8311 0
M  V30 6655 H 613.692 -3.54795 -1.71796 0
M  V30 6656 H 614.98 -4.35632 -2.62873 0
M  V30 6657 H 614.378 -2.38833 -5.12811 0
M  V30 6658 H 612.935 -3.09545 -5.73607 0
M  V30 6659 N 616.368 0.432326 -1.51554 0
M  V30 6660 C 617.315 1.52512 -1.7323 0
M  V30 6661 C 618.285 1.55863 -0.5741 0
M  V30 6662 O 619.47 1.72796 -0.809093 0
M  V30 6663 C 616.61 2.90183 -1.86783 0
M  V30 6664 C 615.723 2.96322 -3.14352 0
M  V30 6665 C 614.858 4.25147 -3.18471 0
M  V30 6666 C 613.897 4.25172 -4.40335 0
M  V30 6667 N 613.034 5.45529 -4.41975 0
M  V30 6668 H 617.874 1.33332 -2.66508 0
M  V30 6669 H 615.411 0.647613 -1.32077 0
M  V30 6670 H 617.369 3.70071 -1.92623 0
M  V30 6671 H 615.999 3.0791 -0.969087 0
M  V30 6672 H 615.051 2.09066 -3.17798 0
M  V30 6673 H 616.363 2.92203 -4.04251 0
M  V30 6674 H 615.517 5.13411 -3.23255 0
M  V30 6675 H 614.256 4.31929 -2.2647 0
M  V30 6676 H 613.261 3.353 -4.35723 0
M  V30 6677 H 614.486 4.20049 -5.33606 0
M  V30 6678 H 612.432 5.53024 -3.52847 0
M  V30 6679 H 612.349 5.43311 -5.25689 0
M  V30 6680 H 613.617 6.35812 -4.50958 0
M  V30 6681 N 617.846 1.41785 0.688094 0
M  V30 6682 C 619.094 1.41264 1.4453 0
M  V30 6683 C 619.415 0.0252946 1.94984 0
M  V30 6684 O 618.685 -0.934081 1.72197 0
M  V30 6685 H 617.265 0.519998 0.536294 0
M  V30 6686 H 619.927 1.7709 0.813941 0
M  V30 6687 H 619.023 2.10439 2.30482 0
M  V30 6688 N 619.324 -0.923095 1.27737 0
M  V30 6689 C 620.271 -2.02432 1.1086 0
M  V30 6690 C 621.241 -1.66098 0.00835195 0
M  V30 6691 O 622.426 -1.90027 0.171542 0
M  V30 6692 C 619.566 -3.36476 0.766671 0
M  V30 6693 C 618.679 -3.85737 1.94501 0
M  V30 6694 C 617.814 -5.08249 1.54455 0
M  V30 6695 C 616.853 -5.49818 2.6901 0
M  V30 6696 N 615.99 -6.63524 2.29521 0
M  V30 6697 H 620.83 -2.16201 2.05089 0
M  V30 6698 H 618.367 -1.05909 1.02087 0
M  V30 6699 H 620.325 -4.13569 0.549223 0
M  V30 6700 H 618.955 -3.22502 -0.13867 0
M  V30 6701 H 618.007 -3.04883 2.27487 0
M  V30 6702 H 619.319 -4.12513 2.80419 0
M  V30 6703 H 618.473 -5.92857 1.28862 0
M  V30 6704 H 617.212 -4.83261 0.656534 0
M  V30 6705 H 616.217 -4.63757 2.95313 0
M  V30 6706 H 617.442 -5.76799 3.5844 0
M  V30 6707 H 615.388 -6.40185 1.43177 0
M  V30 6708 H 615.305 -6.89978 3.08977 0
M  V30 6709 H 616.573 -7.51461 2.07187 0
M  V30 6710 N 620.802 -1.09834 -1.13024 0
M  V30 6711 C 622.213 -0.855651 -1.65938 0
M  V30 6712 C 622.564 0.615159 -1.86307 0
M  V30 6713 O 621.689 1.47335 -1.58497 0
M  V30 6714 C 622.284 -1.5467 -3.01434 0
M  V30 6715 C 620.843 -1.35088 -3.51323 0
M  V30 6716 C 619.99 -1.6001 -2.26478 0
M  V30 6717 H 622.941 -1.25691 -0.968889 0
M  V30 6718 H 622.962 -0.982179 -3.67605 0
M  V30 6719 H 622.474 -2.61715 -2.86578 0
M  V30 6720 H 620.575 -0.30179 -3.71376 0
M  V30 6721 H 620.688 -2.0886 -4.31178 0
M  V30 6722 H 619.052 -1.02246 -2.33276 0
M  V30 6723 H 619.835 -2.68293 -2.14182 0
M  V30 6724 N 622.28 1.30327 -0.886154 0
M  V30 6725 C 623.243 2.26376 -0.358687 0
M  V30 6726 C 624.243 1.52845 0.499498 0
M  V30 6727 O 625.433 1.71483 0.306485 0
M  V30 6728 C 622.565 3.37379 0.488726 0
M  V30 6729 H 623.758 2.74547 -1.20681 0
M  V30 6730 H 621.311 1.41536 -0.663113 0
M  V30 6731 H 622.046 2.94526 1.35739 0
M  V30 6732 H 621.831 3.91897 -0.126003 0
M  V30 6733 H 623.321 4.08868 0.84952 0
M  V30 6734 N 623.758 0.647228 1.43697 0
M  V30 6735 C 624.706 -0.0600105 2.32523 0
M  V30 6736 C 625.7 -0.819277 1.48271 0
M  V30 6737 O 626.906 -0.730356 1.64517 0
M  V30 6738 H 623.281 -0.0381872 0.75103 0
M  V30 6739 H 625.252 0.706978 2.89904 0
M  V30 6740 C 624.001 -1.0169 3.32497 0
M  V30 6741 H 623.324 -0.442083 3.97348 0
M  V30 6742 H 624.764 -1.48095 3.97296 0
M  V30 6743 C 623.223 -2.11002 2.6264 0
M  V30 6744 O 623.753 -3.19302 2.4374 0
M  V30 6745 N 621.959 -1.87388 2.22113 0
M  V30 6746 H 621.506 -0.993174 2.37684 0
M  V30 6747 H 621.464 -2.60723 1.75701 0
M  V30 6748 N 625.236 -1.5273 0.388769 0
M  V30 6749 C 626.485 -2.00757 -0.194833 0
M  V30 6750 C 626.798 -1.27951 -1.47946 0
M  V30 6751 O 628.004 -1.66686 -2.14308 0
M  V30 6752 C 626.46 -3.57695 -0.397762 0
M  V30 6753 C 626.068 -4.394 0.873583 0
M  V30 6754 C 627.812 -4.14012 -0.937759 0
M  V30 6755 C 625.719 -5.87938 0.638962 0
M  V30 6756 H 624.649 -0.750101 -0.0765845 0
M  V30 6757 H 627.3 -1.76239 0.511086 0
M  V30 6758 H 625.682 -3.7846 -1.16552 0
M  V30 6759 H 626.856 -4.30403 1.64591 0
M  V30 6760 H 625.171 -3.94301 1.33849 0
M  V30 6761 H 627.768 -5.22645 -1.12899 0
M  V30 6762 H 628.111 -3.7007 -1.90666 0
M  V30 6763 H 628.644 -3.97137 -0.229588 0
M  V30 6764 H 625.383 -6.36202 1.57885 0
M  V30 6765 H 624.903 -5.99726 -0.094443 0
M  V30 6766 H 626.582 -6.46423 0.273299 0
M  V30 6767 N 626.714 -0.118576 -1.57153 0
M  V30 6768 C 627.942 0.54726 -1.99531 0
M  V30 6769 C 628.357 1.60251 -0.998246 0
M  V30 6770 O 627.714 1.82498 0.00893106 0
M  V30 6771 C 627.765 1.17378 -3.41913 0
M  V30 6772 O 627.486 0.160703 -4.37805 0
M  V30 6773 C 628.987 1.92297 -3.9942 0
M  V30 6774 H 626.207 0.144919 -0.655164 0
M  V30 6775 H 628.751 -0.20479 -2.03472 0
M  V30 6776 H 626.906 1.87661 -3.38913 0
M  V30 6777 H 627.32 0.61586 -5.20872 0
M  V30 6778 H 628.794 2.31462 -5.01128 0
M  V30 6779 H 629.271 2.79801 -3.38538 0
M  V30 6780 H 629.877 1.26777 -4.05965 0
M  V30 6781 N 628.193 1.56834 0.155195 0
M  V30 6782 C 629.47 1.73799 0.897395 0
M  V30 6783 C 629.85 0.684379 1.99698 0
M  V30 6784 O 629.198 -0.298111 2.26547 0
M  V30 6785 C 629.408 3.17572 1.44737 0
M  V30 6786 C 630.756 3.79014 1.91399 0
M  V30 6787 O 631.78 3.20951 1.54496 0
M  V30 6788 O 630.639 4.80998 2.59429 0
M  V30 6789 H 627.733 0.710329 0.423511 0
M  V30 6790 H 630.279 1.69107 0.141761 0
M  V30 6791 H 629.051 3.85749 0.656741 0
M  V30 6792 H 628.674 3.26657 2.26674 0
M  V30 6793 N 629.671 -0.424282 1.51781 0
M  V30 6794 C 630.896 -1.19928 1.6921 0
M  V30 6795 C 631.321 -1.8392 0.394355 0
M  V30 6796 O 630.679 -1.69371 -0.646778 0
M  V30 6797 C 630.727 -2.24937 2.81843 0
M  V30 6798 O 629.831 -3.3073 2.46356 0
M  V30 6799 H 629.172 -0.35078 0.563781 0
M  V30 6800 H 631.702 -0.499401 1.98412 0
M  V30 6801 H 631.712 -2.69512 3.06312 0
M  V30 6802 H 630.387 -1.77742 3.76006 0
M  V30 6803 H 628.964 -2.9154 2.32505 0
M  V30 6804 N 631.149 -1.42148 -0.680565 0
M  V30 6805 C 632.079 -1.4796 -1.80638 0
M  V30 6806 C 633.06 -0.336728 -1.66734 0
M  V30 6807 O 634.245 -0.550247 -1.86242 0
M  V30 6808 C 631.375 -1.37569 -3.18892 0
M  V30 6809 C 630.329 -2.49823 -3.47524 0
M  V30 6810 C 629.655 -2.24491 -4.85291 0
M  V30 6811 C 630.955 -3.92144 -3.44994 0
M  V30 6812 H 632.649 -2.42184 -1.76032 0
M  V30 6813 H 630.195 -1.16566 -0.845481 0
M  V30 6814 H 632.148 -1.40243 -3.97379 0
M  V30 6815 H 630.872 -0.398357 -3.24162 0
M  V30 6816 H 629.531 -2.46455 -2.71395 0
M  V30 6817 H 629.179 -1.25066 -4.87204 0
M  V30 6818 H 628.879 -2.99722 -5.05411 0
M  V30 6819 H 630.403 -2.28906 -5.66069 0
M  V30 6820 H 631.817 -3.97145 -4.13459 0
M  V30 6821 H 630.214 -4.67179 -3.76648 0
M  V30 6822 H 631.284 -4.19225 -2.43676 0
M  V30 6823 N 632.627 0.916307 -1.28225 0
M  V30 6824 C 633.852 1.7043 -1.18188 0
M  V30 6825 C 634.277 1.86346 0.256274 0
M  V30 6826 O 633.635 1.37175 1.18544 0
M  V30 6827 C 633.683 3.07546 -1.88275 0
M  V30 6828 O 632.787 3.94904 -1.18848 0
M  V30 6829 H 632.128 0.521967 -0.410423 0
M  V30 6830 H 634.658 1.14589 -1.69501 0
M  V30 6831 H 634.668 3.57793 -1.96082 0
M  V30 6832 H 633.343 2.95279 -2.92887 0
M  V30 6833 H 631.92 3.53339 -1.19187 0
M  V30 6834 N 634.105 1.10431 1.1244 0
M  V30 6835 C 635.053 0.747974 2.20246 0
M  V30 6836 C 636.047 -0.255848 1.67457 0
M  V30 6837 O 637.253 -0.116221 1.79624 0
M  V30 6838 H 633.628 0.223946 0.71788 0
M  V30 6839 H 635.599 1.6661 2.47556 0
M  V30 6840 C 634.348 0.195957 3.47147 0
M  V30 6841 H 633.671 0.959606 3.88113 0
M  V30 6842 H 635.111 -0.0153154 4.23997 0
M  V30 6843 C 633.57 -1.07132 3.19413 0
M  V30 6844 O 634.1 -2.15284 3.3914 0
M  V30 6845 N 632.306 -0.98994 2.73219 0
M  V30 6846 H 631.853 -0.109736 2.57366 0
M  V30 6847 H 631.811 -1.83856 2.55038 0
M  V30 6848 N 635.583 -1.29855 0.893053 0
M  V30 6849 C 636.999 -1.48366 0.588199 0
M  V30 6850 C 637.199 -1.81654 -0.872018 0
M  V30 6851 O 636.255 -1.909 -1.65268 0
M  V30 6852 C 637.568 -2.60136 1.5083 0
M  V30 6853 C 639.116 -2.74014 1.51279 0
M  V30 6854 C 639.591 -3.88905 2.41902 0
M  V30 6855 N 641.082 -3.96228 2.39911 0
M  V30 6856 C 641.817 -4.84458 3.06738 0
M  V30 6857 N 641.313 -5.77426 3.8282 0
M  V30 6858 N 643.106 -4.77894 2.95929 0
M  V30 6859 H 635.257 -1.06522 1.83757 0
M  V30 6860 H 637.52 -0.528495 0.787018 0
M  V30 6861 H 637.226 -2.42383 2.54839 0
M  V30 6862 H 637.1 -3.56793 1.22388 0
M  V30 6863 H 639.487 -2.91167 0.480179 0
M  V30 6864 H 639.568 -1.77952 1.83757 0
M  V30 6865 H 639.212 -3.72508 3.45253 0
M  V30 6866 H 639.142 -4.84322 2.06737 0
M  V30 6867 H 641.633 -3.29728 1.84629 0
M  V30 6868 H 641.946 -6.41529 4.30883 0
M  V30 6869 H 640.291 -5.77332 3.86927 0
M  V30 6870 H 643.482 -4.04248 2.36012 0
M  V30 6871 H 643.655 -5.46444 3.48286 0
M  V30 6872 N 637.061 -0.65484 -1.43351 0
M  V30 6873 C 638.286 -0.175046 -2.0666 0
M  V30 6874 C 638.711 1.15104 -1.4877 0
M  V30 6875 O 638.069 1.71144 -0.598279 0
M  V30 6876 C 638.117 -0.0991544 -3.60464 0
M  V30 6877 O 637.221 0.938169 -4.01587 0
M  V30 6878 H 636.562 -0.0956148 -0.65708 0
M  V30 6879 H 639.092 -0.898222 -1.83829 0
M  V30 6880 H 639.102 0.083632 -4.07914 0
M  V30 6881 H 637.777 -1.06719 -4.01975 0
M  V30 6882 H 636.354 0.72804 -3.65724 0
M  V30 6883 N 638.539 1.52521 -0.396863 0
M  V30 6884 C 639.469 2.29582 0.425941 0
M  V30 6885 C 640.45 1.33281 1.05689 0
M  V30 6886 O 641.635 1.62181 1.06823 0
M  V30 6887 C 638.765 3.10821 1.54943 0
M  V30 6888 C 637.719 4.15069 1.04413 0
M  V30 6889 C 637.045 4.84578 2.26028 0
M  V30 6890 C 638.345 5.22191 0.106767 0
M  V30 6891 H 640.039 2.98612 -0.217045 0
M  V30 6892 H 637.585 1.43611 -0.105826 0
M  V30 6893 H 639.538 3.63492 2.13193 0
M  V30 6894 H 638.262 2.39538 2.22011 0
M  V30 6895 H 636.921 3.63389 0.484118 0
M  V30 6896 H 636.569 4.09835 2.91623 0
M  V30 6897 H 636.269 5.55043 1.92876 0
M  V30 6898 H 637.793 5.40056 2.84906 0
M  V30 6899 H 639.207 5.70176 0.597685 0
M  V30 6900 H 637.604 5.99947 -0.135352 0
M  V30 6901 H 638.674 4.77531 -0.842134 0
M  V30 6902 N 640.017 0.126909 1.57088 0
M  V30 6903 C 641.266 -0.529024 1.94639 0
M  V30 6904 C 641.579 -1.67323 1.01304 0
M  V30 6905 O 642.785 -2.39245 1.28352 0
M  V30 6906 C 641.241 -0.992483 3.45945 0
M  V30 6907 C 640.849 0.123691 4.47829 0
M  V30 6908 C 642.593 -1.61934 3.924 0
M  V30 6909 C 640.5 -0.356911 5.90322 0
M  V30 6910 H 639.43 -0.201397 0.726605 0
M  V30 6911 H 642.081 0.208032 1.82317 0
M  V30 6912 H 640.463 -1.7842 3.53528 0
M  V30 6913 H 641.637 0.900168 4.51922 0
M  V30 6914 H 639.952 0.657699 4.11173 0
M  V30 6915 H 642.549 -1.9902 4.96281 0
M  V30 6916 H 642.892 -2.50075 3.32819 0
M  V30 6917 H 643.425 -0.892894 3.8765 0
M  V30 6918 H 640.164 0.488636 6.53676 0
M  V30 6919 H 639.684 -1.0997 5.89633 0
M  V30 6920 H 641.363 -0.815547 6.41839 0
M  V30 6921 N 641.495 -1.56914 -0.146875 0
M  V30 6922 C 642.741 -1.83628 -0.860741 0
M  V30 6923 C 643.074 -0.708528 -1.80813 0
M  V30 6924 O 642.349 0.287838 -1.92358 0
M  V30 6925 C 642.632 -3.20836 -1.63511 0
M  V30 6926 C 642.485 -4.44174 -0.709199 0
M  V30 6927 C 643.804 -3.55268 -2.59756 0
M  V30 6928 H 640.923 -0.667949 -0.311468 0
M  V30 6929 H 643.565 -1.89582 -0.125936 0
M  V30 6930 H 641.715 -3.15891 -2.26153 0
M  V30 6931 H 643.387 -4.61205 -0.0937781 0
M  V30 6932 H 641.63 -4.33796 -0.0187856 0
M  V30 6933 H 642.301 -5.36785 -1.28707 0
M  V30 6934 H 644.777 -3.60824 -2.07232 0
M  V30 6935 H 643.653 -4.52303 -3.10987 0
M  V30 6936 H 643.914 -2.81231 -3.41118 0
M  V30 6937 N 642.974 0.416227 -1.52004 0
M  V30 6938 C 644.202 1.18573 -1.69553 0
M  V30 6939 C 644.617 1.84472 -0.401919 0
M  V30 6940 O 643.974 1.71593 0.621463 0
M  V30 6941 C 644.025 2.25413 -2.82615 0
M  V30 6942 O 643.746 1.62205 -4.06966 0
M  V30 6943 C 645.247 3.15297 -3.11613 0
M  V30 6944 H 642.467 0.356582 -0.56841 0
M  V30 6945 H 645.011 0.490618 -1.98528 0
M  V30 6946 H 643.166 2.90604 -2.56179 0
M  V30 6947 H 643.58 2.3298 -4.69916 0
M  V30 6948 H 645.054 3.86351 -3.94255 0
M  V30 6949 H 645.531 3.77264 -2.24874 0
M  V30 6950 H 646.137 2.55783 -3.39787 0
M  V30 6951 N 644.452 1.42507 0.673017 0
M  V30 6952 C 645.68 1.46473 1.46128 0
M  V30 6953 C 646.095 0.0765912 1.88645 0
M  V30 6954 O 645.452 -0.909057 1.58248 0
M  V30 6955 C 645.503 2.39339 2.70923 0
M  V30 6956 O 645.224 3.72752 2.3019 0
M  V30 6957 C 646.725 2.52343 3.64469 0
M  V30 6958 H 643.945 0.49812 0.449575 0
M  V30 6959 H 646.489 1.87041 0.826802 0
M  V30 6960 H 644.644 2.02019 3.30556 0
M  V30 6961 H 645.058 4.22503 3.10791 0
M  V30 6962 H 646.532 3.2144 4.48754 0
M  V30 6963 H 647.009 1.56189 4.1049 0
M  V30 6964 H 647.615 2.90392 3.10729 0
M  V30 6965 N 645.93 -0.909495 1.28709 0
M  V30 6966 C 647.179 -1.65365 1.15487 0
M  V30 6967 C 647.492 -1.93364 -0.294941 0
M  V30 6968 O 648.698 -2.65905 -0.548338 0
M  V30 6969 C 647.154 -2.97923 2.01916 0
M  V30 6970 C 646.762 -2.77556 3.51663 0
M  V30 6971 C 648.506 -3.75814 1.97393 0
M  V30 6972 C 646.413 -4.0578 4.30229 0
M  V30 6973 H 645.343 -0.620323 0.42862 0
M  V30 6974 H 647.994 -1.00894 1.53273 0
M  V30 6975 H 646.376 -3.63552 1.5699 0
M  V30 6976 H 647.55 -2.2058 4.04575 0
M  V30 6977 H 645.865 -2.13072 3.57756 0
M  V30 6978 H 648.462 -4.70866 2.53357 0
M  V30 6979 H 648.805 -4.05277 0.951643 0
M  V30 6980 H 649.338 -3.1701 2.40311 0
M  V30 6981 H 646.077 -3.81488 5.33055 0
M  V30 6982 H 645.597 -4.62351 3.82089 0
M  V30 6983 H 647.276 -4.74004 4.40374 0
M  V30 6984 N 647.408 -1.11026 -1.11852 0
M  V30 6985 C 648.338 -0.786812 -2.19844 0
M  V30 6986 C 649.319 0.242935 -1.68356 0
M  V30 6987 O 650.504 0.107355 -1.93903 0
M  V30 6988 C 647.634 -0.224516 -3.46574 0
M  V30 6989 C 646.588 -1.18564 -4.1125 0
M  V30 6990 C 645.914 -0.484261 -5.32503 0
M  V30 6991 C 647.214 -2.53465 -4.56676 0
M  V30 6992 H 648.908 -1.68978 -2.47158 0
M  V30 6993 H 646.454 -0.813906 -1.18792 0
M  V30 6994 H 648.407 0.0139435 -4.21398 0
M  V30 6995 H 647.131 0.713722 -3.18706 0
M  V30 6996 H 645.79 -1.40966 -3.38414 0
M  V30 6997 H 645.438 0.458646 -5.00905 0
M  V30 6998 H 645.138 -1.12526 -5.76725 0
M  V30 6999 H 646.662 -0.254492 -6.10069 0
M  V30 7000 H 648.076 -2.35177 -5.22843 0
M  V30 7001 H 646.473 -3.13507 -5.11697 0
M  V30 7002 H 647.543 -3.13008 -3.70343 0
M  V30 7003 N 648.886 1.2938 -0.899927 0
M  V30 7004 C 649.796 2.31462 -0.382437 0
M  V30 7005 C 650.812 1.65956 0.522929 0
M  V30 7006 O 651.988 1.97131 0.412454 0
M  V30 7007 C 649.053 3.44595 0.381472 0
M  V30 7008 C 648.114 4.25692 -0.555444 0
M  V30 7009 C 647.347 5.33422 0.172102 0
M  V30 7010 O 647.57 5.53053 1.396 0
M  V30 7011 O 646.504 5.99939 -0.485491 0
M  V30 7012 H 650.33 2.77706 -1.22934 0
M  V30 7013 H 647.915 1.33821 -0.664259 0
M  V30 7014 H 649.797 4.13474 0.813442 0
M  V30 7015 H 648.472 3.00458 1.20443 0
M  V30 7016 H 647.379 3.59453 -1.03653 0
M  V30 7017 H 648.712 4.73471 -1.34483 0
M  V30 7018 N 650.364 0.662433 1.43002 0
M  V30 7019 C 651.274 -0.0239199 2.34588 0
M  V30 7020 C 652.29 -0.802255 1.54402 0
M  V30 7021 O 653.466 -0.747401 1.87018 0
M  V30 7022 C 650.531 -0.972098 3.32793 0
M  V30 7023 C 649.592 -0.189673 4.28881 0
M  V30 7024 C 648.825 -1.09269 5.22395 0
M  V30 7025 O 649.048 -2.33209 5.20547 0
M  V30 7026 O 647.982 -0.560136 5.99288 0
M  V30 7027 H 651.808 0.730171 2.94792 0
M  V30 7028 H 649.393 0.422635 1.43297 0
M  V30 7029 H 651.275 -1.51676 3.93157 0
M  V30 7030 H 649.95 -1.70626 2.75079 0
M  V30 7031 H 648.857 0.398794 3.71968 0
M  V30 7032 H 650.19 0.50511 4.89601 0
M  V30 7033 N 651.842 -1.52309 0.404946 0
M  V30 7034 C 653.253 -1.86585 -0.0655926 0
M  V30 7035 C 653.604 -1.3239 -1.44801 0
M  V30 7036 O 652.729 -0.6615 -2.06042 0
M  V30 7037 C 653.324 -3.38566 -0.125801 0
M  V30 7038 C 651.883 -3.72497 -0.540666 0
M  V30 7039 C 651.03 -2.75806 0.287487 0
M  V30 7040 H 653.981 -1.45995 0.622185 0
M  V30 7041 H 654.002 -3.68658 -0.941888 0
M  V30 7042 H 653.514 -3.77981 0.880473 0
M  V30 7043 H 651.615 -3.38659 -1.55373 0
M  V30 7044 H 651.728 -4.78234 -0.287956 0
M  V30 7045 H 650.092 -2.53474 -0.249561 0
M  V30 7046 H 650.875 -3.18059 1.29203 0
M  V30 7047 N 653.32 -0.135238 -1.57019 0
M  V30 7048 C 654.55 0.525303 -1.9981 0
M  V30 7049 C 654.958 1.59724 -1.01415 0
M  V30 7050 O 654.301 1.837 -0.00130938 0
M  V30 7051 C 654.363 1.19578 -3.3903 0
M  V30 7052 C 654.027 0.269855 -4.56203 0
M  V30 7053 C 655.024 -0.497905 -5.1751 0
M  V30 7054 C 652.709 0.176188 -5.01991 0
M  V30 7055 C 654.703 -1.3469 -6.23007 0
M  V30 7056 C 652.39 -0.676422 -6.07345 0
M  V30 7057 C 653.388 -1.43658 -6.67721 0
M  V30 7058 O 653.076 -2.27501 -7.71037 0
M  V30 7059 H 652.808 0.142296 -0.660854 0
M  V30 7060 H 655.362 -0.223272 -2.04183 0
M  V30 7061 H 653.592 1.99176 -3.3146 0
M  V30 7062 H 655.281 1.75486 -3.66005 0
M  V30 7063 H 656.047 -0.435507 -4.83041 0
M  V30 7064 H 651.926 0.757583 -4.54733 0
M  V30 7065 H 655.47 -1.9407 -6.70062 0
M  V30 7066 H 651.367 -0.740154 -6.41243 0
M  V30 7067 H 652.135 -2.20619 -7.88206 0
M  V30 7068 N 654.798 1.5699 0.138552 0
M  V30 7069 C 656.044 1.84081 0.85099 0
M  V30 7070 C 656.377 0.718107 1.80435 0
M  V30 7071 O 655.652 -0.277633 1.92508 0
M  V30 7072 C 655.935 3.21699 1.61808 0
M  V30 7073 C 655.788 4.44544 0.685633 0
M  V30 7074 C 657.107 3.5664 2.57868 0
M  V30 7075 H 654.226 0.669592 0.307922 0
M  V30 7076 H 656.868 1.89646 0.11588 0
M  V30 7077 H 655.018 3.17086 2.24474 0
M  V30 7078 H 656.69 4.61248 0.0693179 0
M  V30 7079 H 654.933 4.338 -0.00421993 0
M  V30 7080 H 655.604 5.3746 1.25858 0
M  V30 7081 H 658.08 3.61918 2.05316 0
M  V30 7082 H 656.956 4.53946 3.08584 0
M  V30 7083 H 657.217 2.83036 3.39622 0
M  V30 7084 N 656.276 -0.40816 1.52223 0
M  V30 7085 C 657.206 -1.5042 1.78595 0
M  V30 7086 C 658.187 -1.57723 0.636974 0
M  V30 7087 O 659.372 -1.72982 0.882664 0
M  V30 7088 C 656.502 -2.88232 1.93751 0
M  V30 7089 C 655.456 -2.95779 3.09352 0
M  V30 7090 C 654.782 -4.35855 3.09732 0
M  V30 7091 C 656.082 -2.67175 4.48793 0
M  V30 7092 H 657.776 -1.28601 2.70374 0
M  V30 7093 H 655.322 -0.617221 1.30101 0
M  V30 7094 H 657.275 -3.64895 2.10783 0
M  V30 7095 H 655.999 -3.11347 0.986443 0
M  V30 7096 H 654.658 -2.21561 2.92072 0
M  V30 7097 H 654.306 -4.55981 2.12346 0
M  V30 7098 H 654.006 -4.41829 3.87377 0
M  V30 7099 H 655.53 -5.14451 3.28895 0
M  V30 7100 H 656.944 -3.3356 4.66273 0
M  V30 7101 H 655.341 -2.84523 5.28362 0
M  V30 7102 H 656.411 -1.62609 4.56822 0
M  V30 7103 N 657.755 -1.42862 -0.66545 0
M  V30 7104 C 659.002 -1.4383 -1.42546 0
M  V30 7105 C 659.33 -0.0581114 -1.94413 0
M  V30 7106 O 658.585 0.935002 -1.71919 0
M  V30 7107 C 658.884 -2.4175 -2.63233 0
M  V30 7108 C 658.55 -3.87915 -2.29854 0
M  V30 7109 C 657.212 -4.27726 -2.20463 0
M  V30 7110 C 659.564 -4.80074 -2.02924 0
M  V30 7111 C 656.892 -5.57666 -1.82279 0
M  V30 7112 C 659.244 -6.10366 -1.66242 0
M  V30 7113 C 657.908 -6.49167 -1.55367 0
M  V30 7114 H 657.178 -0.52631 -0.521612 0
M  V30 7115 H 659.825 -1.75863 -0.757914 0
M  V30 7116 H 658.13 -2.03077 -3.35063 0
M  V30 7117 H 659.827 -2.39759 -3.21429 0
M  V30 7118 H 656.417 -3.564 -2.3807 0
M  V30 7119 H 660.601 -4.50097 -2.09108 0
M  V30 7120 H 655.857 -5.8658 -1.72436 0
M  V30 7121 H 660.031 -6.81258 -1.44432 0
M  V30 7122 H 657.658 -7.49761 -1.2555 0
M  V30 7123 N 659.233 0.902656 -1.29189 0
M  V30 7124 C 660.18 2.00643 -1.14066 0
M  V30 7125 C 661.15 1.66064 -0.0347756 0
M  V30 7126 O 662.335 1.8973 -0.201752 0
M  V30 7127 C 659.475 3.35214 -0.820104 0
M  V30 7128 C 658.588 3.82594 -2.00614 0
M  V30 7129 C 657.723 5.05727 -1.62522 0
M  V30 7130 C 656.762 5.45469 -2.77724 0
M  V30 7131 N 655.899 6.59789 -2.40048 0
M  V30 7132 H 660.739 2.1291 -2.08502 0
M  V30 7133 H 658.276 1.04271 -1.03759 0
M  V30 7134 H 660.234 4.12643 -0.614949 0
M  V30 7135 H 658.864 3.22682 0.0873452 0
M  V30 7136 H 657.916 3.01226 -2.32308 0
M  V30 7137 H 659.228 4.07999 -2.86946 0
M  V30 7138 H 658.382 5.90732 -1.38277 0
M  V30 7139 H 657.121 4.82155 -0.733333 0
M  V30 7140 H 656.126 4.59 -3.02653 0
M  V30 7141 H 657.351 5.71024 -3.67572 0
M  V30 7142 H 655.297 6.37826 -1.53343 0
M  V30 7143 H 655.214 6.84975 -3.19914 0
M  V30 7144 H 656.482 7.4807 -2.19116 0
M  V30 7145 N 660.711 1.11618 1.11262 0
M  V30 7146 C 661.658 0.7762 2.17356 0
M  V30 7147 C 662.628 -0.253152 1.6416 0
M  V30 7148 O 663.813 -0.129655 1.90359 0
M  V30 7149 C 660.953 0.227581 3.44349 0
M  V30 7150 C 660.066 1.31372 4.1154 0
M  V30 7151 C 659.201 0.72544 5.26223 0
M  V30 7152 C 658.24 1.7913 5.85302 0
M  V30 7153 N 657.377 1.22237 6.91377 0
M  V30 7154 H 662.217 1.68508 2.45783 0
M  V30 7155 H 659.754 0.841475 1.20655 0
M  V30 7156 H 661.712 -0.108483 4.17059 0
M  V30 7157 H 660.342 -0.644486 3.16301 0
M  V30 7158 H 659.394 1.7667 3.36885 0
M  V30 7159 H 660.706 2.12005 4.51504 0
M  V30 7160 H 659.86 0.339541 6.05749 0
M  V30 7161 H 658.599 -0.112188 4.87571 0
M  V30 7162 H 657.604 2.18648 5.04453 0
M  V30 7163 H 658.829 2.63199 6.26022 0
M  V30 7164 H 656.775 0.406423 6.5474 0
M  V30 7165 H 656.692 1.9654 7.30006 0
M  V30 7166 H 657.96 0.863426 7.74703 0
M  V30 7167 N 662.189 -1.289 0.906776 0
M  V30 7168 C 663.414 -1.99939 0.551303 0
M  V30 7169 C 663.839 -1.67366 -0.858496 0
M  V30 7170 O 663.197 -0.902176 -1.57259 0
M  V30 7171 C 663.245 -3.52523 0.758937 0
M  V30 7172 O 662.349 -4.11983 -0.185308 0
M  V30 7173 H 661.69 -0.628376 0.214568 0
M  V30 7174 H 664.22 -1.64225 1.2203 0
M  V30 7175 H 664.23 -4.02522 0.666329 0
M  V30 7176 H 662.905 -3.75566 1.78671 0
M  V30 7177 H 661.482 -3.72873 -0.0445577 0
M  V30 7178 N 663.667 -0.670007 -1.42649 0
M  V30 7179 C 664.944 -0.119451 -1.95235 0
M  V30 7180 C 665.324 1.36461 -1.61064 0
M  V30 7181 O 664.672 2.09843 -0.904329 0
M  V30 7182 C 664.882 -0.383498 -3.46887 0
M  V30 7183 C 666.23 -0.297431 -4.23557 0
M  V30 7184 O 667.254 -0.31698 -3.54787 0
M  V30 7185 O 666.113 -0.235507 -5.45992 0
M  V30 7186 H 663.207 -8.85474e-05 -0.827 0
M  V30 7187 H 665.753 -0.744406 -1.52501 0
M  V30 7188 H 664.525 -1.41174 -3.64946 0
M  V30 7189 H 664.148 0.273702 -3.96657 0
M  V30 7190 N 665.145 1.52092 -0.413018 0
M  V30 7191 C 666.092 2.27119 0.410558 0
M  V30 7192 C 667.062 1.29692 1.03774 0
M  V30 7193 O 668.247 1.58561 1.06128 0
M  V30 7194 C 665.387 3.09863 1.51918 0
M  V30 7195 C 664.5 4.22252 0.912528 0
M  V30 7196 C 663.635 4.92348 1.99417 0
M  V30 7197 C 662.674 5.96694 1.36466 0
M  V30 7198 N 661.811 6.60292 2.38661 0
M  V30 7199 H 666.651 2.97067 -0.235661 0
M  V30 7200 H 664.188 1.46542 -0.128055 0
M  V30 7201 H 666.146 3.56144 2.17295 0
M  V30 7202 H 664.776 2.42078 2.13537 0
M  V30 7203 H 663.828 3.80113 0.147697 0
M  V30 7204 H 665.14 4.9709 0.412717 0
M  V30 7205 H 664.294 5.42054 2.72512 0
M  V30 7206 H 663.033 4.17087 2.52764 0
M  V30 7207 H 662.038 5.46304 0.61906 0
M  V30 7208 H 663.263 6.73899 0.838827 0
M  V30 7209 H 661.209 5.87858 2.91134 0
M  V30 7210 H 661.126 7.30816 1.93503 0
M  V30 7211 H 662.394 7.14635 3.11314 0
M  V30 7212 N 666.623 0.143563 1.56945 0
M  V30 7213 C 668.034 -0.37783 1.82837 0
M  V30 7214 C 668.385 -1.64967 1.06209 0
M  V30 7215 O 667.51 -2.14221 0.306291 0
M  V30 7216 C 668.105 -0.692274 3.31652 0
M  V30 7217 C 666.664 -1.1582 3.58138 0
M  V30 7218 C 665.811 -0.17951 2.76718 0
M  V30 7219 H 668.762 0.368317 1.54367 0
M  V30 7220 H 668.783 -1.54729 3.47619 0
M  V30 7221 H 668.295 0.233572 3.87397 0
M  V30 7222 H 666.396 -2.10011 3.07776 0
M  V30 7223 H 666.509 -1.08655 4.66616 0
M  V30 7224 H 664.873 -0.671458 2.4569 0
M  V30 7225 H 665.656 0.739865 3.35233 0
M  V30 7226 N 668.101 -1.57061 -0.130224 0
M  V30 7227 C 669.031 -2.02552 -1.16168 0
M  V30 7228 C 670.012 -0.907971 -1.4384 0
M  V30 7229 O 671.197 -1.17693 -1.54473 0
M  V30 7230 C 668.327 -2.42035 -2.49071 0
M  V30 7231 C 667.281 -3.5713 -2.35886 0
M  V30 7232 C 666.607 -3.82478 -3.7365 0
M  V30 7233 C 667.907 -4.89236 -1.8288 0
M  V30 7234 H 669.601 -2.8897 -0.783359 0
M  V30 7235 H 667.147 -1.39021 -0.375376 0
M  V30 7236 H 669.1 -2.72462 -3.21469 0
M  V30 7237 H 667.824 -1.52573 -2.88771 0
M  V30 7238 H 666.483 -3.26895 -1.65938 0
M  V30 7239 H 666.131 -2.9024 -4.10816 0
M  V30 7240 H 665.831 -4.59944 -3.65685 0
M  V30 7241 H 667.355 -4.15347 -4.47571 0
M  V30 7242 H 668.769 -5.18272 -2.45085 0
M  V30 7243 H 667.166 -5.70624 -1.85763 0
M  V30 7244 H 668.236 -4.78494 -0.785571 0
M  V30 7245 N 669.579 0.400081 -1.52437 0
M  V30 7246 C 670.809 1.16598 -1.70553 0
M  V30 7247 C 671.217 1.8451 -0.418665 0
M  V30 7248 O 670.56 1.73069 0.615855 0
M  V30 7249 C 670.622 2.26517 -2.7916 0
M  V30 7250 C 670.286 1.78666 -4.20628 0
M  V30 7251 C 671.283 1.26946 -5.04163 0
M  V30 7252 C 668.968 1.85225 -4.66902 0
M  V30 7253 C 670.962 0.824187 -6.32049 0
M  V30 7254 C 668.649 1.40309 -5.94774 0
M  V30 7255 C 669.647 0.889922 -6.77178 0
M  V30 7256 O 669.335 0.447281 -8.02655 0
M  V30 7257 H 669.067 0.356023 -0.574651 0
M  V30 7258 H 671.621 0.475598 -1.99818 0
M  V30 7259 H 669.851 2.98946 -2.45292 0
M  V30 7260 H 671.54 2.88237 -2.85787 0
M  V30 7261 H 672.306 1.21244 -4.69601 0
M  V30 7262 H 668.185 2.24111 -4.02859 0
M  V30 7263 H 671.729 0.422958 -6.96317 0
M  V30 7264 H 667.626 1.45693 -6.28843 0
M  V30 7265 H 668.394 0.569768 -8.16514 0
M  V30 7266 N 671.057 1.43213 0.657864 0
M  V30 7267 C 672.305 1.44298 1.41501 0
M  V30 7268 C 672.626 0.0666478 1.94886 0
M  V30 7269 O 671.896 -0.897345 1.74139 0
M  V30 7270 H 670.476 0.531257 0.525143 0
M  V30 7271 H 673.138 1.78777 0.776195 0
M  V30 7272 H 672.234 2.1528 2.25966 0
M  V30 7273 N 672.536 -0.895792 1.29666 0
M  V30 7274 C 673.484 -2.02173 1.15017 0
M  V30 7275 C 674.478 -1.69276 0.0647651 0
M  V30 7276 O 675.684 -1.7859 0.224846 0
M  V30 7277 H 672.059 -0.662719 0.355397 0
M  V30 7278 H 674.03 -2.11666 2.10334 0
M  V30 7279 C 672.779 -3.37212 0.847555 0
M  V30 7280 H 672.102 -3.6303 1.67479 0
M  V30 7281 H 673.542 -4.16668 0.785106 0
M  V30 7282 C 672.001 -3.33891 -0.44929 0
M  V30 7283 O 672.531 -3.73673 -1.47415 0
M  V30 7284 N 670.737 -2.86991 -0.456547 0
M  V30 7285 H 670.284 -2.54813 0.377925 0
M  V30 7286 H 670.242 -2.85152 -1.32423 0
M  V30 7287 N 674.014 -1.12206 -1.10668 0
M  V30 7288 C 675.291 -0.787382 -1.79052 0
M  V30 7289 C 675.671 0.723267 -1.98323 0
M  V30 7290 O 675.019 1.6561 -1.57434 0
M  V30 7291 C 675.229 -1.55968 -3.1221 0
M  V30 7292 C 676.577 -1.74413 -3.87125 0
M  V30 7293 O 677.601 -1.5246 -3.21923 0
M  V30 7294 O 676.46 -2.10952 -5.04144 0
M  V30 7295 H 673.554 -0.286137 -0.775922 0
M  V30 7296 H 676.1 -1.22595 -1.1734 0
M  V30 7297 H 674.872 -2.58692 -2.93588 0
M  V30 7298 H 674.495 -1.1152 -3.8164 0
M  V30 7299 N 675.492 1.28418 -0.913599 0
M  V30 7300 C 676.908 1.47411 -0.611728 0
M  V30 7301 C 677.108 1.83018 0.843008 0
M  V30 7302 O 676.164 1.93505 1.6221 0
M  V30 7303 C 677.477 2.57703 -1.5495 0
M  V30 7304 C 679.025 2.71572 -1.5562 0
M  V30 7305 C 679.5 3.85008 -2.48058 0
M  V30 7306 N 680.991 3.92361 -2.46184 0
M  V30 7307 C 681.726 4.79516 -3.14407 0
M  V30 7308 N 681.222 5.71262 -3.91958 0
M  V30 7309 N 683.015 4.73125 -3.03495 0
M  V30 7310 H 675.166 1.03585 -1.85429 0
M  V30 7311 H 677.429 0.515907 -0.795326 0
M  V30 7312 H 677.135 2.38298 -2.58663 0
M  V30 7313 H 677.009 3.54801 -1.28048 0
M  V30 7314 H 679.396 2.90366 -0.526441 0
M  V30 7315 H 679.477 1.75006 -1.86565 0
M  V30 7316 H 679.121 3.66969 -3.51136 0
M  V30 7317 H 679.051 4.80971 -2.14416 0
M  V30 7318 H 681.542 3.26749 -1.89851 0
M  V30 7319 H 681.855 6.34593 -4.41034 0
M  V30 7320 H 680.2 5.71103 -3.96063 0
M  V30 7321 H 683.391 4.00442 -2.42413 0
M  V30 7322 H 683.564 5.40834 -3.56935 0
M  V30 7323 N 676.97 0.677563 1.42291 0
M  V30 7324 C 678.217 0.200975 2.015 0
M  V30 7325 C 678.545 -1.19342 1.53583 0
M  V30 7326 O 677.8 -1.81579 0.7299 0
M  V30 7327 C 678.099 0.187229 3.56909 0
M  V30 7328 C 677.765 1.52667 4.24268 0
M  V30 7329 C 676.427 1.89341 4.42384 0
M  V30 7330 C 678.779 2.40869 4.62203 0
M  V30 7331 C 676.107 3.13836 4.95705 0
M  V30 7332 C 678.459 3.64679 5.16906 0
M  V30 7333 C 677.123 4.01519 5.33234 0
M  V30 7334 H 676.393 0.0735418 0.737342 0
M  V30 7335 H 679.04 0.873095 1.70439 0
M  V30 7336 H 677.345 -0.568407 3.87655 0
M  V30 7337 H 679.042 -0.198773 4.00507 0
M  V30 7338 H 675.632 1.23138 4.1053 0
M  V30 7339 H 679.816 2.1382 4.47878 0
M  V30 7340 H 675.072 3.42396 5.06532 0
M  V30 7341 H 679.246 4.33224 5.45243 0
M  V30 7342 H 676.873 4.98062 5.74316 0
M  V30 7343 N 678.448 -1.51871 0.421078 0
M  V30 7344 C 679.358 -2.31077 -0.405069 0
M  V30 7345 C 680.374 -1.39301 -1.04265 0
M  V30 7346 O 681.55 -1.72376 -1.04157 0
M  V30 7347 C 678.615 -3.12556 -1.50032 0
M  V30 7348 C 677.676 -4.20088 -0.884559 0
M  V30 7349 C 676.909 -4.97673 -1.92762 0
M  V30 7350 O 677.132 -4.75696 -3.14753 0
M  V30 7351 O 676.066 -5.82203 -1.52719 0
M  V30 7352 H 679.892 -3.02742 0.241086 0
M  V30 7353 H 677.477 -1.48263 0.183991 0
M  V30 7354 H 679.359 -3.6326 -2.13589 0
M  V30 7355 H 678.034 -2.43672 -2.13086 0
M  V30 7356 H 676.941 -3.73502 -0.211379 0
M  V30 7357 H 678.274 -4.91298 -0.297763 0
M  V30 7358 N 679.926 -0.151884 -1.56866 0
M  V30 7359 C 681.174 0.497021 -1.95893 0
M  V30 7360 C 681.495 1.65078 -1.03799 0
M  V30 7361 O 680.765 1.95642 -0.10049 0
M  V30 7362 H 679.345 0.186603 -0.723318 0
M  V30 7363 H 682.007 -0.228525 -1.93556 0
M  V30 7364 H 681.103 0.869933 -2.99731 0
M  V30 7365 N 681.404 1.57128 0.121893 0
M  V30 7366 C 682.634 1.88609 0.843227 0
M  V30 7367 C 683.042 0.740917 1.74089 0
M  V30 7368 O 682.385 -0.297426 1.81276 0
M  V30 7369 C 682.447 3.15073 1.73117 0
M  V30 7370 C 682.111 4.45742 1.0081 0
M  V30 7371 C 683.108 5.18719 0.350255 0
M  V30 7372 C 680.793 4.92444 0.99014 0
M  V30 7373 C 682.787 6.36617 -0.315889 0
M  V30 7374 C 680.474 6.10261 0.320196 0
M  V30 7375 C 681.472 6.82194 -0.331666 0
M  V30 7376 O 681.16 7.97769 -0.990927 0
M  V30 7377 H 680.892 0.628919 0.247865 0
M  V30 7378 H 683.446 2.05096 0.111725 0
M  V30 7379 H 681.676 2.9466 2.50424 0
M  V30 7380 H 683.365 3.32597 2.32667 0
M  V30 7381 H 684.131 4.83693 0.35577 0
M  V30 7382 H 680.01 4.36361 1.48695 0
M  V30 7383 H 683.554 6.92701 -0.825272 0
M  V30 7384 H 679.451 6.44743 0.312433 0
M  V30 7385 H 680.219 8.13591 -0.895113 0
M  V30 7386 N 682.882 -0.391992 1.52647 0
M  V30 7387 C 684.122 -1.1463 1.69232 0
M  V30 7388 C 684.486 -1.87312 0.421684 0
M  V30 7389 O 685.687 -2.64768 0.463852 0
M  V30 7390 C 683.958 -2.10088 2.89133 0
M  V30 7391 S 685.517 -2.93395 3.2629 0
M  V30 7392 H 682.335 -0.388076 0.59575 0
M  V30 7393 H 684.937 -0.431149 1.90687 0
M  V30 7394 H 683.641 -1.55408 3.79837 0
M  V30 7395 H 683.172 -2.86116 2.70003 0
M  V30 7396 H 685.187 -4.12193 2.76244 0
M  V30 7397 N 684.36 -1.4356 -0.65026 0
M  V30 7398 C 685.609 -1.44619 -1.406 0
M  V30 7399 C 685.922 -0.0752645 -1.95455 0
M  V30 7400 O 687.128 0.0366832 -2.71475 0
M  V30 7401 C 685.584 -2.54511 -2.54465 0
M  V30 7402 C 685.192 -3.97723 -2.06204 0
M  V30 7403 C 686.936 -2.64768 -3.31811 0
M  V30 7404 C 684.843 -4.99075 -3.17298 0
M  V30 7405 H 683.773 -0.537983 -0.52829 0
M  V30 7406 H 686.424 -1.69559 -0.701561 0
M  V30 7407 H 684.806 -2.22777 -3.27393 0
M  V30 7408 H 685.98 -4.38932 -1.40267 0
M  V30 7409 H 684.295 -3.91538 -1.41729 0
M  V30 7410 H 686.892 -3.37664 -4.14593 0
M  V30 7411 H 687.235 -1.69936 -3.80036 0
M  V30 7412 H 687.768 -2.95817 -2.65964 0
M  V30 7413 H 684.507 -5.95469 -2.74038 0
M  V30 7414 H 684.027 -4.62476 -3.81937 0
M  V30 7415 H 685.706 -5.21913 -3.82382 0
M  V30 7416 N 685.838 0.888903 -1.30139 0
M  V30 7417 C 687.115 1.62145 -1.094 0
M  V30 7418 C 687.495 2.08041 0.358091 0
M  V30 7419 O 686.843 1.84438 1.34888 0
M  V30 7420 C 687.053 2.794 -2.09133 0
M  V30 7421 C 688.401 3.49826 -2.40638 0
M  V30 7422 O 689.425 2.89583 -2.07412 0
M  V30 7423 O 688.284 4.58457 -2.97455 0
M  V30 7424 H 685.378 0.712475 -0.41989 0
M  V30 7425 H 687.924 0.936023 -1.41551 0
M  V30 7426 H 686.696 2.42762 -3.06891 0
M  V30 7427 H 686.319 3.55643 -1.77776 0
M  V30 7428 N 687.317 1.12792 1.10072 0
M  V30 7429 C 688.247 0.821688 2.18565 0
M  V30 7430 C 689.228 -0.21612 1.68721 0
M  V30 7431 O 690.413 -0.0764932 1.94049 0
M  V30 7432 C 687.543 0.279624 3.46172 0
M  V30 7433 C 686.497 1.25092 4.09312 0
M  V30 7434 C 685.823 0.568916 5.31665 0
M  V30 7435 C 687.123 2.60699 4.52585 0
M  V30 7436 H 688.817 1.72888 2.44438 0
M  V30 7437 H 686.363 0.832702 1.17482 0
M  V30 7438 H 688.316 0.053099 4.21367 0
M  V30 7439 H 687.04 -0.662929 3.19801 0
M  V30 7440 H 685.699 1.46332 3.36129 0
M  V30 7441 H 685.347 -0.378898 5.01571 0
M  V30 7442 H 685.047 1.21687 5.74862 0
M  V30 7443 H 686.571 0.351517 6.09587 0
M  V30 7444 H 687.985 2.43465 5.19035 0
M  V30 7445 H 686.382 3.21608 5.06644 0
M  V30 7446 H 687.452 3.1886 3.65317 0
M  V30 7447 N 688.795 -1.27931 0.920396 0
M  V30 7448 C 689.725 -2.29487 0.431024 0
M  V30 7449 C 690.706 -1.62435 -0.504861 0
M  V30 7450 O 691.891 -1.89797 -0.411176 0
M  V30 7451 C 689.021 -3.45788 -0.323709 0
M  V30 7452 C 687.975 -4.24784 0.523658 0
M  V30 7453 C 687.301 -5.33488 -0.359809 0
M  V30 7454 C 688.601 -4.90874 1.78437 0
M  V30 7455 H 690.295 -2.70671 1.27975 0
M  V30 7456 H 687.841 -1.30121 0.616813 0
M  V30 7457 H 689.794 -4.15927 -0.676952 0
M  V30 7458 H 688.518 -3.03502 -1.2064 0
M  V30 7459 H 687.177 -3.56382 0.85951 0
M  V30 7460 H 686.825 -4.87445 -1.24124 0
M  V30 7461 H 686.525 -5.87247 0.203605 0
M  V30 7462 H 688.049 -6.06472 -0.708787 0
M  V30 7463 H 689.463 -5.53339 1.49963 0
M  V30 7464 H 687.86 -5.54659 2.29071 0
M  V30 7465 H 688.93 -4.14988 2.50824 0
M  V30 7466 N 690.273 -0.685099 -1.4193 0
M  V30 7467 C 691.689 -0.355632 -1.55587 0
M  V30 7468 C 691.889 1.13823 -1.66273 0
M  V30 7469 O 690.945 1.92387 -1.63534 0
M  V30 7470 C 692.258 -1.09498 -2.80055 0
M  V30 7471 C 693.806 -1.07831 -2.93839 0
M  V30 7472 C 694.281 -1.79919 -4.21181 0
M  V30 7473 N 695.772 -1.76837 -4.28115 0
M  V30 7474 C 696.507 -2.29463 -5.25485 0
M  V30 7475 N 696.003 -2.90516 -6.28945 0
M  V30 7476 N 697.796 -2.19779 -5.17353 0
M  V30 7477 H 689.947 -1.65412 -1.33239 0
M  V30 7478 H 692.21 -0.697453 -0.642078 0
M  V30 7479 H 691.916 -2.14997 -2.78333 0
M  V30 7480 H 691.79 -0.666813 -3.71259 0
M  V30 7481 H 694.177 -0.0316152 -2.95083 0
M  V30 7482 H 694.258 -1.54545 -2.03837 0
M  V30 7483 H 693.902 -2.84562 -4.20698 0
M  V30 7484 H 693.832 -1.30647 -5.10136 0
M  V30 7485 H 696.323 -1.32315 -3.53979 0
M  V30 7486 H 696.636 -3.28266 -6.99615 0
M  V30 7487 H 694.981 -2.94589 -6.29478 0
M  V30 7488 H 698.172 -1.71763 -4.35448 0
M  V30 7489 H 698.345 -2.61097 -5.9307 0
M  V30 7490 N 691.751 1.51645 -0.429126 0
M  V30 7491 C 692.661 2.31288 0.392809 0
M  V30 7492 C 693.677 1.39852 1.03525 0
M  V30 7493 O 694.853 1.72926 1.03241 0
M  V30 7494 C 691.918 3.13347 1.48372 0
M  V30 7495 C 690.979 4.20551 0.862268 0
M  V30 7496 C 690.212 4.98688 1.9012 0
M  V30 7497 O 690.435 4.77359 3.12225 0
M  V30 7498 O 689.369 5.83005 1.4963 0
M  V30 7499 H 693.195 3.02609 -0.257138 0
M  V30 7500 H 690.78 1.48163 -0.191851 0
M  V30 7501 H 692.662 3.64387 2.1166 0
M  V30 7502 H 691.337 2.44799 2.1179 0
M  V30 7503 H 690.244 3.73609 0.191568 0
M  V30 7504 H 691.577 4.91449 0.271704 0
M  V30 7505 N 693.229 0.160201 1.56784 0
M  V30 7506 C 694.159 -0.770264 2.2043 0
M  V30 7507 C 695.14 -1.24736 1.15651 0
M  V30 7508 O 696.325 -1.30253 1.44041 0
M  V30 7509 C 693.455 -2.00427 2.83631 0
M  V30 7510 C 692.409 -1.66345 3.94352 0
M  V30 7511 C 691.735 -2.97119 4.4455 0
M  V30 7512 C 693.035 -0.899972 5.14488 0
M  V30 7513 H 694.729 -0.239783 2.98438 0
M  V30 7514 H 692.275 -0.113891 1.43549 0
M  V30 7515 H 694.228 -2.66012 3.26827 0
M  V30 7516 H 692.952 -2.5587 2.02973 0
M  V30 7517 H 691.611 -1.03133 3.51794 0
M  V30 7518 H 691.259 -3.5058 3.60698 0
M  V30 7519 H 690.959 -2.75073 5.19238 0
M  V30 7520 H 692.483 -3.63753 4.90425 0
M  V30 7521 H 693.897 -1.45818 5.54446 0
M  V30 7522 H 692.294 -0.778968 5.95023 0
M  V30 7523 H 693.364 0.105827 4.84785 0
M  V30 7524 N 694.707 -1.5719 -0.113559 0
M  V30 7525 C 695.932 -1.89702 -0.838336 0
M  V30 7526 C 696.357 -0.752679 -1.72384 0
M  V30 7527 O 695.715 0.296575 -1.78858 0
M  V30 7528 C 695.763 -3.20989 -1.64312 0
M  V30 7529 O 694.867 -3.07278 -2.75053 0
M  V30 7530 H 694.208 -0.622339 -0.231496 0
M  V30 7531 H 696.738 -2.04382 -0.0943228 0
M  V30 7532 H 696.748 -3.53843 -2.03123 0
M  V30 7533 H 695.423 -4.03869 -0.993119 0
M  V30 7534 H 694 -2.85901 -2.39406 0
M  V30 7535 N 696.185 0.383891 -1.52853 0
M  V30 7536 C 697.413 1.1495 -1.7203 0
M  V30 7537 C 697.828 1.83578 -0.440957 0
M  V30 7538 O 697.185 1.72872 0.584925 0
M  V30 7539 C 697.236 2.19368 -2.87333 0
M  V30 7540 O 696.957 1.53536 -4.10315 0
M  V30 7541 C 698.458 3.08616 -3.18231 0
M  V30 7542 H 695.678 0.344445 -0.575846 0
M  V30 7543 H 698.222 0.448397 -1.99524 0
M  V30 7544 H 696.377 2.85105 -2.62286 0
M  V30 7545 H 696.791 2.2296 -4.74752 0
M  V30 7546 H 698.265 3.77902 -4.02361 0
M  V30 7547 H 698.742 3.72409 -2.32826 0
M  V30 7548 H 699.348 2.48518 -3.45136 0
M  V30 7549 N 697.663 1.43903 0.642637 0
M  V30 7550 C 698.912 1.45362 1.39831 0
M  V30 7551 C 699.225 0.0856289 1.95412 0
M  V30 7552 O 700.431 -0.0222856 2.71491 0
M  V30 7553 C 698.887 2.55857 2.53111 0
M  V30 7554 C 698.495 3.98811 2.04092 0
M  V30 7555 C 700.239 2.66524 3.30402 0
M  V30 7556 C 698.146 5.00751 3.14647 0
M  V30 7557 H 697.076 0.540777 0.52543 0
M  V30 7558 H 699.727 1.69929 0.692559 0
M  V30 7559 H 698.109 2.2451 3.26207 0
M  V30 7560 H 699.283 4.3967 1.37938 0
M  V30 7561 H 697.598 3.92284 1.39651 0
M  V30 7562 H 700.195 3.39858 4.12796 0
M  V30 7563 H 700.538 1.71949 3.79129 0
M  V30 7564 H 701.071 2.97224 2.64392 0
M  V30 7565 H 697.81 5.96914 2.70876 0
M  V30 7566 H 697.33 4.64495 3.79479 0
M  V30 7567 H 699.009 5.23933 3.79609 0
M  V30 7568 N 699.141 -0.881989 1.30609 0
M  V30 7569 C 700.071 -2.00413 1.1982 0
M  V30 7570 C 701.052 -1.69871 0.0881538 0
M  V30 7571 O 702.237 -1.92304 0.2707 0
M  V30 7572 C 699.367 -3.35641 0.89233 0
M  V30 7573 C 698.321 -3.80451 1.96064 0
M  V30 7574 C 697.647 -5.13003 1.5077 0
M  V30 7575 C 698.947 -3.98855 3.37213 0
M  V30 7576 H 700.641 -2.09698 2.13699 0
M  V30 7577 H 698.187 -1.00754 1.02882 0
M  V30 7578 H 700.14 -4.13669 0.803497 0
M  V30 7579 H 698.864 -3.26497 -0.0821381 0
M  V30 7580 H 697.523 -3.04654 2.03916 0
M  V30 7581 H 697.171 -5.0029 0.521417 0
M  V30 7582 H 696.871 -5.43956 2.22229 0
M  V30 7583 H 698.395 -5.93554 1.43271 0
M  V30 7584 H 699.809 -4.67312 3.32103 0
M  V30 7585 H 698.206 -4.41188 4.06784 0
M  V30 7586 H 699.276 -3.02614 3.78883 0
M  V30 7587 N 700.619 -1.13374 -1.09472 0
M  V30 7588 C 701.867 -0.893422 -1.8128 0
M  V30 7589 C 702.188 0.582029 -1.86111 0
M  V30 7590 O 701.458 1.42305 -1.34633 0
M  V30 7591 H 700.038 -0.327543 -0.67136 0
M  V30 7592 H 702.7 -1.43018 -1.32408 0
M  V30 7593 H 701.796 -1.28374 -2.84476 0
M  V30 7594 N 702.098 1.27442 -0.927168 0
M  V30 7595 C 703.345 1.94391 -0.567324 0
M  V30 7596 C 703.673 1.72875 0.891321 0
M  V30 7597 O 702.928 1.05071 1.65102 0
M  V30 7598 C 703.227 3.47413 -0.838994 0
M  V30 7599 C 702.893 3.89049 -2.2793 0
M  V30 7600 C 701.555 4.00127 -2.67305 0
M  V30 7601 C 703.907 4.10154 -3.21595 0
M  V30 7602 C 701.235 4.29697 -3.99471 0
M  V30 7603 C 703.587 4.41208 -4.53341 0
M  V30 7604 C 702.251 4.50499 -4.92551 0
M  V30 7605 H 701.521 0.711325 -0.207598 0
M  V30 7606 H 704.168 1.51523 -1.17103 0
M  V30 7607 H 702.473 3.91503 -0.152609 0
M  V30 7608 H 704.17 3.97354 -0.53955 0
M  V30 7609 H 700.76 3.80962 -1.96381 0
M  V30 7610 H 704.944 4.01036 -2.92377 0
M  V30 7611 H 700.2 4.35099 -4.29533 0
M  V30 7612 H 704.374 4.56486 -5.25922 0
M  V30 7613 H 702.001 4.73167 -5.94994 0
M  V30 7614 N 703.576 0.692616 1.41565 0
M  V30 7615 C 704.804 0.231279 2.05603 0
M  V30 7616 C 705.219 -1.11837 1.52111 0
M  V30 7617 O 704.576 -1.6983 0.66813 0
M  V30 7618 C 704.627 0.177125 3.61066 0
M  V30 7619 O 704.348 1.47346 4.12578 0
M  V30 7620 C 705.849 -0.30556 4.42246 0
M  V30 7621 H 703.069 0.108238 0.662213 0
M  V30 7622 H 705.613 0.944369 1.81389 0
M  V30 7623 H 703.768 -0.486769 3.8433 0
M  V30 7624 H 704.182 1.35861 5.06599 0
M  V30 7625 H 705.656 -0.29233 5.51225 0
M  V30 7626 H 706.133 -1.34393 4.18133 0
M  V30 7627 H 706.739 0.327229 4.24039 0
M  V30 7628 N 705.054 -1.51416 0.437162 0
M  V30 7629 C 706.284 -2.06204 -0.127859 0
M  V30 7630 C 706.692 -1.30463 -1.37026 0
M  V30 7631 O 706.035 -0.357516 -1.80187 0
M  V30 7632 C 706.097 -3.55783 -0.515632 0
M  V30 7633 C 705.761 -4.52776 0.619937 0
M  V30 7634 C 706.758 -4.98031 1.49201 0
M  V30 7635 C 704.443 -4.95878 0.800618 0
M  V30 7636 C 706.437 -5.85061 2.52947 0
M  V30 7637 C 704.124 -5.82699 1.84135 0
M  V30 7638 C 705.122 -6.27188 2.70416 0
M  V30 7639 O 704.81 -7.12284 3.72702 0
M  V30 7640 H 704.542 -0.675903 -0.011442 0
M  V30 7641 H 707.096 -1.95977 0.614986 0
M  V30 7642 H 705.326 -3.63793 -1.31118 0
M  V30 7643 H 707.015 -3.93087 -1.01179 0
M  V30 7644 H 707.781 -4.65426 1.36395 0
M  V30 7645 H 703.66 -4.60792 0.138617 0
M  V30 7646 H 707.204 -6.19708 3.20325 0
M  V30 7647 H 703.101 -6.14717 1.9696 0
M  V30 7648 H 703.869 -7.30462 3.69281 0
M  V30 7649 N 706.532 -0.168513 -1.56696 0
M  V30 7650 C 707.442 0.775435 -2.21414 0
M  V30 7651 C 708.458 1.25529 -1.20492 0
M  V30 7652 O 709.634 1.30801 -1.53144 0
M  V30 7653 C 706.699 1.9886 -2.83999 0
M  V30 7654 C 705.76 1.5559 -4.00113 0
M  V30 7655 C 704.993 2.71124 -4.59704 0
M  V30 7656 O 705.216 3.87917 -4.18182 0
M  V30 7657 O 704.15 2.4536 -5.4962 0
M  V30 7658 H 707.976 0.254416 -3.02632 0
M  V30 7659 H 705.561 0.0595507 -1.49281 0
M  V30 7660 H 707.443 2.69816 -3.23693 0
M  V30 7661 H 706.118 2.49874 -2.05779 0
M  V30 7662 H 705.025 0.815924 -3.65094 0
M  V30 7663 H 706.358 1.09271 -4.79917 0
M  V30 7664 N 708.01 1.57248 0.105221 0
M  V30 7665 C 709.259 1.84756 0.809198 0
M  V30 7666 C 709.572 0.756262 1.80389 0
M  V30 7667 O 710.778 0.918158 2.55504 0
M  V30 7668 C 709.234 3.27613 1.48989 0
M  V30 7669 C 708.842 4.44788 0.535484 0
M  V30 7670 C 710.586 3.64356 2.17819 0
M  V30 7671 C 708.493 5.78676 1.22019 0
M  V30 7672 H 707.423 0.689139 0.305946 0
M  V30 7673 H 710.074 1.83395 0.0620371 0
M  V30 7674 H 708.456 3.23485 2.28415 0
M  V30 7675 H 709.63 4.60243 -0.226557 0
M  V30 7676 H 707.945 4.16374 -0.0465769 0
M  V30 7677 H 710.542 4.61663 2.69761 0
M  V30 7678 H 710.885 2.92474 2.96251 0
M  V30 7679 H 711.418 3.70328 1.45264 0
M  V30 7680 H 708.157 6.53763 0.476875 0
M  V30 7681 H 707.677 5.67083 1.9539 0
M  V30 7682 H 709.356 6.22897 1.74952 0
M  V30 7683 N 709.488 -0.375779 1.53054 0
M  V30 7684 C 710.904 -0.716764 1.426 0
M  V30 7685 C 711.104 -1.93651 0.556931 0
M  V30 7686 O 710.16 -2.52475 0.0354461 0
M  V30 7687 C 711.473 -0.939499 2.85646 0
M  V30 7688 C 713.021 -1.04015 2.95212 0
M  V30 7689 C 713.496 -1.29543 4.39298 0
M  V30 7690 N 714.987 -1.36335 4.42682 0
M  V30 7691 C 715.722 -1.57778 5.51266 0
M  V30 7692 N 715.218 -1.76604 6.69913 0
M  V30 7693 N 717.011 -1.60065 5.38828 0
M  V30 7694 H 709.162 0.42664 2.08071 0
M  V30 7695 H 711.425 0.128758 0.939215 0
M  V30 7696 H 711.131 -0.115189 3.51511 0
M  V30 7697 H 711.005 -1.85048 3.2869 0
M  V30 7698 H 713.392 -1.85501 2.29507 0
M  V30 7699 H 713.473 -0.106785 2.55577 0
M  V30 7700 H 713.117 -0.485611 5.05573 0
M  V30 7701 H 713.047 -2.24184 4.76497 0
M  V30 7702 H 715.538 -1.23441 3.5717 0
M  V30 7703 H 715.851 -1.9251 7.48438 0
M  V30 7704 H 714.196 -1.73802 6.72917 0
M  V30 7705 H 717.387 -1.44917 4.45103 0
M  V30 7706 H 717.56 -1.76435 6.23518 0
M  V30 7707 N 710.966 -1.44241 -0.634997 0
M  V30 7708 C 711.896 -1.53632 -1.7584 0
M  V30 7709 C 712.877 -0.389603 -1.65578 0
M  V30 7710 O 714.062 -0.609219 -1.84397 0
M  V30 7711 C 711.192 -1.47644 -3.14354 0
M  V30 7712 C 710.146 -2.60752 -3.394 0
M  V30 7713 C 709.472 -2.39817 -4.77904 0
M  V30 7714 C 710.772 -4.02921 -3.32343 0
M  V30 7715 H 712.466 -2.47662 -1.68238 0
M  V30 7716 H 710.012 -1.19197 -0.807969 0
M  V30 7717 H 711.965 -1.52815 -3.92716 0
M  V30 7718 H 710.689 -0.501284 -3.2273 0
M  V30 7719 H 709.348 -2.54965 -2.63417 0
M  V30 7720 H 708.996 -1.40502 -4.82978 0
M  V30 7721 H 708.696 -3.15649 -4.9562 0
M  V30 7722 H 710.22 -2.46799 -5.585 0
M  V30 7723 H 711.634 -4.10098 -4.00615 0
M  V30 7724 H 710.031 -4.78925 -3.61595 0
M  V30 7725 H 711.101 -4.26766 -2.30215 0
M  V30 7726 N 712.444 0.87505 -1.31075 0
M  V30 7727 C 713.69 1.63009 -1.20647 0
M  V30 7728 C 714.023 1.9276 0.236045 0
M  V30 7729 O 713.298 1.55559 1.16754 0
M  V30 7730 C 713.581 2.96357 -2.0456 0
M  V30 7731 C 713.434 2.73516 -3.57084 0
M  V30 7732 C 714.753 3.974 -1.89107 0
M  V30 7733 H 711.872 0.591518 -0.439631 0
M  V30 7734 H 714.514 1.0119 -1.60812 0
M  V30 7735 H 712.664 3.49119 -1.70435 0
M  V30 7736 H 714.336 2.27465 -4.01319 0
M  V30 7737 H 712.579 2.0784 -3.80769 0
M  V30 7738 H 713.25 3.68377 -4.11099 0
M  V30 7739 H 715.726 3.5383 -2.18961 0
M  V30 7740 H 714.602 4.88596 -2.5013 0
M  V30 7741 H 714.863 4.33794 -0.85296 0
M  V30 7742 N 713.922 1.13953 1.08869 0
M  V30 7743 C 714.832 0.835666 2.19212 0
M  V30 7744 C 715.848 -0.182005 1.73045 0
M  V30 7745 O 717.024 -0.0116661 2.01397 0
M  V30 7746 C 714.089 0.312325 3.4529 0
M  V30 7747 C 713.15 1.39196 4.06107 0
M  V30 7748 C 712.383 0.893496 5.26168 0
M  V30 7749 O 712.606 -0.266807 5.69776 0
M  V30 7750 O 711.54 1.67037 5.78258 0
M  V30 7751 H 715.366 1.75769 2.47667 0
M  V30 7752 H 712.951 0.917421 1.17914 0
M  V30 7753 H 714.833 0.0261582 4.21392 0
M  V30 7754 H 713.508 -0.582042 3.18424 0
M  V30 7755 H 712.415 1.73152 3.31616 0
M  V30 7756 H 713.748 2.26068 4.37212 0
M  V30 7757 N 715.4 -1.26948 0.933913 0
M  V30 7758 C 716.677 -1.89212 0.495784 0
M  V30 7759 C 717.057 -1.84469 -1.02637 0
M  V30 7760 O 716.405 -1.29409 -1.88323 0
M  V30 7761 C 716.615 -3.32865 1.0489 0
M  V30 7762 C 717.963 -4.09749 1.11315 0
M  V30 7763 O 718.987 -3.41905 0.998966 0
M  V30 7764 O 717.846 -5.31061 1.28983 0
M  V30 7765 H 714.94 -0.811284 0.160459 0
M  V30 7766 H 717.486 -1.35171 1.02601 0
M  V30 7767 H 716.258 -3.30642 2.09265 0
M  V30 7768 H 715.881 -3.94435 0.500692 0
M  V30 7769 N 716.879 -0.700114 -1.41195 0
M  V30 7770 C 718.127 -0.232546 -2.00758 0
M  V30 7771 C 718.448 1.1734 -1.55745 0
M  V30 7772 O 717.718 1.79262 -0.790058 0
M  V30 7773 H 716.298 -0.0829845 -0.742376 0
M  V30 7774 H 718.96 -0.902289 -1.72756 0
M  V30 7775 H 718.056 -0.253521 -3.11069 0
M  V30 7776 N 718.357 1.51182 -0.445186 0
M  V30 7777 C 719.304 2.27939 0.362291 0
M  V30 7778 C 720.274 1.31864 1.01 0
M  V30 7779 O 721.459 1.60776 1.02741 0
M  V30 7780 C 718.599 3.13016 1.45311 0
M  V30 7781 C 717.712 4.24093 0.822757 0
M  V30 7782 C 716.847 4.96467 1.88928 0
M  V30 7783 C 715.886 5.99454 1.23778 0
M  V30 7784 N 715.023 6.65206 2.24602 0
M  V30 7785 H 719.863 2.965 -0.29862 0
M  V30 7786 H 717.4 1.46237 -0.15911 0
M  V30 7787 H 719.358 3.60673 2.09692 0
M  V30 7788 H 717.988 2.46553 2.08354 0
M  V30 7789 H 717.04 3.80341 0.0670364 0
M  V30 7790 H 718.352 4.97853 0.307184 0
M  V30 7791 H 717.506 5.47712 2.60953 0
M  V30 7792 H 716.245 4.22355 2.4386 0
M  V30 7793 H 715.25 5.47494 0.503042 0
M  V30 7794 H 716.475 6.75527 0.695694 0
M  V30 7795 H 714.421 5.93901 2.78599 0
M  V30 7796 H 714.338 7.34756 1.77958 0
M  V30 7797 H 715.606 7.21078 2.96085 0
M  V30 7798 N 719.835 0.176821 1.56605 0
M  V30 7799 C 721.065 -0.472142 2.01133 0
M  V30 7800 C 721.473 -1.56979 1.05614 0
M  V30 7801 O 720.816 -1.83632 0.0500137 0
M  V30 7802 C 720.878 -1.10547 3.42081 0
M  V30 7803 C 720.542 -0.148806 4.56758 0
M  V30 7804 C 721.539 0.634939 5.16008 0
M  V30 7805 C 719.224 -0.0430325 5.02282 0
M  V30 7806 C 721.218 1.5116 6.19217 0
M  V30 7807 C 718.905 0.83721 6.05338 0
M  V30 7808 C 719.903 1.61311 6.63677 0
M  V30 7809 O 719.591 2.47863 7.64735 0
M  V30 7810 H 719.323 -0.124725 0.664394 0
M  V30 7811 H 721.877 0.277329 2.03519 0
M  V30 7812 H 720.107 -1.90318 3.36625 0
M  V30 7813 H 721.796 -1.6572 3.70529 0
M  V30 7814 H 722.562 0.563424 4.81716 0
M  V30 7815 H 718.441 -0.636753 4.56581 0
M  V30 7816 H 721.985 2.11767 6.64681 0
M  V30 7817 H 717.882 0.909908 6.39055 0
M  V30 7818 H 718.65 2.4144 7.8208 0
M  V30 7819 N 721.313 -1.57302 -0.09688 0
M  V30 7820 C 722.561 -1.8563 -0.799117 0
M  V30 7821 C 722.882 -0.765263 -1.79356 0
M  V30 7822 O 722.152 0.208657 -1.94786 0
M  V30 7823 H 720.732 -0.684937 -0.298111 0
M  V30 7824 H 723.394 -1.9474 -0.0789341 0
M  V30 7825 H 722.49 -2.82305 -1.3308 0
M  V30 7826 N 722.791 0.367657 -1.53252 0
M  V30 7827 C 723.754 1.43308 -1.78873 0
M  V30 7828 C 724.754 1.46671 -0.659115 0
M  V30 7829 O 725.944 1.47468 -0.927306 0
M  V30 7830 C 723.076 2.82442 -1.90892 0
M  V30 7831 H 724.269 1.21864 -2.74024 0
M  V30 7832 H 721.822 0.600668 -1.44297 0
M  V30 7833 H 722.557 3.09202 -0.978 0
M  V30 7834 H 722.342 2.81399 -2.73051 0
M  V30 7835 H 723.832 3.59601 -2.12314 0
M  V30 7836 N 724.269 1.44576 0.627338 0
M  V30 7837 C 725.201 1.47724 1.75243 0
M  V30 7838 C 726.214 0.370193 1.58535 0
M  V30 7839 O 727.403 0.636151 1.66779 0
M  V30 7840 C 724.503 1.2991 3.13012 0
M  V30 7841 C 723.676 2.5393 3.56143 0
M  V30 7842 C 722.735 2.30961 4.72804 0
M  V30 7843 O 721.761 3.04469 4.80923 0
M  V30 7844 N 722.963 1.34261 5.6476 0
M  V30 7845 H 725.728 2.44718 1.73012 0
M  V30 7846 H 723.289 1.40064 0.812022 0
M  V30 7847 H 725.281 1.12385 3.88782 0
M  V30 7848 H 723.851 0.412668 3.09864 0
M  V30 7849 H 723.071 2.86707 2.70542 0
M  V30 7850 H 724.359 3.36411 3.81713 0
M  V30 7851 H 723.757 0.735573 5.60897 0
M  V30 7852 H 722.314 1.22713 6.40144 0
M  V30 7853 N 725.747 -0.868086 1.31537 0
M  V30 7854 C 727.024 -1.60384 1.11965 0
M  V30 7855 C 727.404 -2.08584 -0.324949 0
M  V30 7856 O 726.752 -1.86561 -1.31937 0
M  V30 7857 C 726.962 -2.76038 2.13551 0
M  V30 7858 C 728.31 -3.45954 2.46173 0
M  V30 7859 O 729.334 -2.86247 2.11993 0
M  V30 7860 O 728.193 -4.53666 3.04711 0
M  V30 7861 H 725.287 -0.705705 0.431172 0
M  V30 7862 H 727.833 -0.913385 1.43022 0
M  V30 7863 H 726.605 -2.37849 3.10714 0
M  V30 7864 H 726.228 -3.52769 1.83411 0
M  V30 7865 N 727.225 -1.14528 -1.08264 0
M  V30 7866 C 728.502 -0.825185 -1.77342 0
M  V30 7867 C 728.882 0.681037 -1.99813 0
M  V30 7868 O 728.23 1.62234 -1.60912 0
M  V30 7869 C 728.44 -1.62556 -3.08831 0
M  V30 7870 C 729.788 -1.82585 -3.83338 0
M  V30 7871 O 730.812 -1.59254 -3.18617 0
M  V30 7872 O 729.671 -2.21598 -4.99556 0
M  V30 7873 H 726.765 -0.302531 -0.769678 0
M  V30 7874 H 729.311 -1.25056 -1.14713 0
M  V30 7875 H 728.083 -2.64862 -2.88035 0
M  V30 7876 H 727.706 -1.1959 -3.79189 0
M  V30 7877 N 728.703 1.26451 -0.940633 0
M  V30 7878 C 729.666 2.24651 -0.454378 0
M  V30 7879 C 730.666 1.54826 0.434222 0
M  V30 7880 O 731.856 1.72628 0.233477 0
M  V30 7881 C 728.988 3.39148 0.345192 0
M  V30 7882 H 730.181 2.69182 -1.32217 0
M  V30 7883 H 727.734 1.38596 -0.722547 0
M  V30 7884 H 728.469 3.00018 1.23125 0
M  V30 7885 H 728.254 3.9101 -0.292107 0
M  V30 7886 H 729.744 4.12103 0.675341 0
M  V30 7887 N 730.181 0.707592 1.40822 0
M  V30 7888 C 731.129 0.0386643 2.32568 0
M  V30 7889 C 732.123 -0.755653 1.51612 0
M  V30 7890 O 733.329 -0.659921 1.67467 0
M  V30 7891 H 729.704 -0.00629912 0.751974 0
M  V30 7892 H 731.675 0.8293 2.86645 0
M  V30 7893 C 730.424 -0.87496 3.36511 0
M  V30 7894 H 729.747 -0.273157 3.98866 0
M  V30 7895 H 731.187 -1.31111 4.03219 0
M  V30 7896 C 729.646 -1.99672 2.71353 0
M  V30 7897 O 730.176 -3.08676 2.57064 0
M  V30 7898 N 728.382 -1.77799 2.29861 0
M  V30 7899 H 727.929 -0.89147 2.41683 0
M  V30 7900 H 727.887 -2.53036 1.86601 0
M  V30 7901 N 731.66 -1.50943 0.453197 0
M  V30 7902 C 732.908 -2.01813 -0.107709 0
M  V30 7903 C 733.229 -1.33841 -1.41816 0
M  V30 7904 O 732.499 -0.477973 -1.8998 0
M  V30 7905 H 731.079 -0.745773 -0.0427948 0
M  V30 7906 H 733.741 -1.8545 0.599531 0
M  V30 7907 H 732.837 -3.10911 -0.27218 0
M  V30 7908 N 733.138 -0.185124 -1.56509 0
M  V30 7909 C 734.07 0.771401 -2.15829 0
M  V30 7910 C 735.083 1.18392 -1.11747 0
M  V30 7911 O 736.272 1.12137 -1.38879 0
M  V30 7912 C 733.372 2.05169 -2.69739 0
M  V30 7913 C 732.545 1.80056 -3.98621 0
M  V30 7914 C 731.604 2.92435 -4.37456 0
M  V30 7915 O 730.63 2.62473 -5.05071 0
M  V30 7916 N 731.832 4.20554 -4.00143 0
M  V30 7917 H 734.597 0.264184 -2.98533 0
M  V30 7918 H 732.158 -0.00281069 -1.619 0
M  V30 7919 H 734.15 2.7947 -2.92709 0
M  V30 7920 H 732.72 2.47041 -1.91545 0
M  V30 7921 H 731.94 0.895862 -3.83885 0
M  V30 7922 H 733.228 1.60662 -4.82768 0
M  V30 7923 H 732.626 4.47753 -3.45736 0
M  V30 7924 H 731.183 4.91514 -4.28085 0
M  V30 7925 N 734.616 1.57351 0.0885366 0
M  V30 7926 C 735.862 1.87564 0.786842 0
M  V30 7927 C 736.217 0.776774 1.76023 0
M  V30 7928 O 735.51 -0.220637 1.90325 0
M  V30 7929 C 735.704 3.22098 1.5488 0
M  V30 7930 C 735.533 4.44967 0.650706 0
M  V30 7931 C 734.303 5.04444 0.293957 0
M  V30 7932 C 736.501 5.1428 -0.0452187 0
M  V30 7933 N 734.483 6.10846 -0.611609 0
M  V30 7934 C 735.854 6.14704 -0.808603 0
M  V30 7935 C 737.909 4.97759 -0.118451 0
M  V30 7936 C 736.612 7.00392 -1.63839 0
M  V30 7937 C 738.638 5.8396 -0.935157 0
M  V30 7938 C 738 6.83909 -1.68664 0
M  V30 7939 H 734.099 0.73613 0.263887 0
M  V30 7940 H 736.683 1.94638 0.049074 0
M  V30 7941 H 734.854 3.16064 2.2574 0
M  V30 7942 H 736.586 3.40015 2.19481 0
M  V30 7943 H 733.341 4.69214 0.643086 0
M  V30 7944 H 733.765 6.68695 -1.05714 0
M  V30 7945 H 738.407 4.20418 0.448202 0
M  V30 7946 H 736.125 7.7712 -2.21608 0
M  V30 7947 H 739.711 5.73236 -0.994579 0
M  V30 7948 H 738.591 7.49454 -2.30842 0
M  V30 7949 N 736.094 -0.359525 1.53444 0
M  V30 7950 C 737.042 -1.46104 1.80987 0
M  V30 7951 C 738.036 -1.55181 0.679351 0
M  V30 7952 O 739.242 -1.57995 0.862405 0
M  V30 7953 H 735.617 -0.486835 0.573145 0
M  V30 7954 H 737.588 -1.2008 2.73173 0
M  V30 7955 C 736.337 -2.82855 2.02208 0
M  V30 7956 H 735.66 -2.76631 2.88644 0
M  V30 7957 H 737.1 -3.59091 2.25455 0
M  V30 7958 C 735.559 -3.27192 0.802931 0
M  V30 7959 O 736.089 -4.017 -0.00544286 0
M  V30 7960 N 734.295 -2.83807 0.624657 0
M  V30 7961 H 733.842 -2.23339 1.28364 0
M  V30 7962 H 733.8 -3.13828 -0.189641 0
M  V30 7963 N 737.572 -1.44907 -0.619662 0
M  V30 7964 C 738.82 -1.47999 -1.37625 0
M  V30 7965 C 739.141 -0.118295 -1.94641 0
M  V30 7966 O 738.411 0.85086 -1.76457 0
M  V30 7967 H 736.991 -0.544993 -0.510873 0
M  V30 7968 H 739.653 -1.80772 -0.728522 0
M  V30 7969 H 738.749 -2.21196 -2.20179 0
M  V30 7970 N 739.05 0.861098 -1.31996 0
M  V30 7971 C 739.983 1.97266 -1.14724 0
M  V30 7972 C 740.961 1.62528 -0.0483789 0
M  V30 7973 O 742.145 1.87366 -0.206478 0
M  V30 7974 C 739.272 3.30181 -0.754861 0
M  V30 7975 C 738.318 3.839 -1.85804 0
M  V30 7976 S 739.151 4.08274 -3.46515 0
M  V30 7977 C 740.307 5.44174 -3.09235 0
M  V30 7978 H 740.54 2.11614 -2.08822 0
M  V30 7979 H 738.073 1.01232 -1.16582 0
M  V30 7980 H 740.031 4.06996 -0.535232 0
M  V30 7981 H 738.692 3.13655 0.167155 0
M  V30 7982 H 737.885 4.80013 -1.53633 0
M  V30 7983 H 737.487 3.13907 -2.03318 0
M  V30 7984 H 739.779 6.26172 -2.58679 0
M  V30 7985 H 740.722 5.81301 -4.04345 0
M  V30 7986 H 741.13 5.0787 -2.46431 0
M  V30 7987 N 740.528 1.15101 1.07655 0
M  V30 7988 C 741.774 0.925343 1.80458 0
M  V30 7989 C 742.107 -0.546354 1.86356 0
M  V30 7990 O 741.382 -1.40496 1.34503 0
M  V30 7991 C 741.665 1.53646 3.25676 0
M  V30 7992 C 741.518 3.07854 3.27942 0
M  V30 7993 C 742.837 1.21968 4.22861 0
M  V30 7994 H 739.956 0.337592 0.655134 0
M  V30 7995 H 742.598 1.42217 1.25993 0
M  V30 7996 H 740.748 1.11395 3.72187 0
M  V30 7997 H 742.42 3.58989 2.89697 0
M  V30 7998 H 740.663 3.41904 2.66991 0
M  V30 7999 H 741.334 3.45725 4.30324 0
M  V30 8000 H 743.81 1.5851 3.84726 0
M  V30 8001 H 742.686 1.67349 5.22767 0
M  V30 8002 H 742.947 0.136207 4.4189 0
M  V30 8003 N 742.006 -1.2595 0.947325 0
M  V30 8004 C 743.422 -1.45737 0.650597 0
M  V30 8005 C 743.622 -1.85189 -0.794188 0
M  V30 8006 O 742.678 -1.97738 -1.57022 0
M  V30 8007 C 743.991 -2.53505 1.61728 0
M  V30 8008 C 745.539 -2.67351 1.62765 0
M  V30 8009 C 746.014 -3.78296 2.58179 0
M  V30 8010 N 747.505 -3.85696 2.56501 0
M  V30 8011 C 748.24 -4.71012 3.2701 0
M  V30 8012 N 747.736 -5.60669 4.06966 0
M  V30 8013 N 749.529 -4.64912 3.15932 0
M  V30 8014 H 741.68 -0.986327 1.8811 0
M  V30 8015 H 743.943 -0.494639 0.808725 0
M  V30 8016 H 743.649 -2.31357 2.6489 0
M  V30 8017 H 743.523 -3.51281 1.3741 0
M  V30 8018 H 745.91 -2.88869 0.603241 0
M  V30 8019 H 745.991 -1.69998 1.91139 0
M  V30 8020 H 745.635 -3.5753 3.60742 0
M  V30 8021 H 745.565 -4.75117 2.27093 0
M  V30 8022 H 748.056 -3.21601 1.98447 0
M  V30 8023 H 748.369 -6.22677 4.57704 0
M  V30 8024 H 746.714 -5.60402 4.11066 0
M  V30 8025 H 749.905 -3.93874 2.52945 0
M  V30 8026 H 750.078 -5.3118 3.71149 0
M  V30 8027 N 743.484 -0.715051 -1.40445 0
M  V30 8028 C 744.394 -0.0631624 -2.34515 0
M  V30 8029 C 745.41 0.744397 -1.57273 0
M  V30 8030 O 746.586 0.677475 -1.89663 0
M  V30 8031 C 743.651 0.847915 -3.36172 0
M  V30 8032 C 742.712 0.0303655 -4.29289 0
M  V30 8033 C 741.945 0.898051 -5.2609 0
M  V30 8034 O 742.168 2.13729 -5.28844 0
M  V30 8035 O 741.102 0.337328 -6.00954 0
M  V30 8036 H 744.928 -0.839078 -2.91879 0
M  V30 8037 H 742.513 -0.475527 -1.4163 0
M  V30 8038 H 744.395 1.3698 -3.98515 0
M  V30 8039 H 743.07 1.60299 -2.81222 0
M  V30 8040 H 741.977 -0.536573 -3.70232 0
M  V30 8041 H 743.31 -0.686474 -4.87389 0
M  V30 8042 N 744.962 1.50701 -0.461195 0
M  V30 8043 C 745.892 2.31182 0.328184 0
M  V30 8044 C 746.873 1.37644 0.999408 0
M  V30 8045 O 748.058 1.66565 0.99848 0
M  V30 8046 C 745.188 3.17113 1.41621 0
M  V30 8047 C 744.142 4.19124 0.867148 0
M  V30 8048 C 743.468 4.93728 2.05272 0
M  V30 8049 C 744.768 5.22174 -0.114808 0
M  V30 8050 H 746.462 2.97423 -0.343501 0
M  V30 8051 H 744.008 1.43033 -0.166641 0
M  V30 8052 H 745.961 3.72208 1.97584 0
M  V30 8053 H 744.685 2.48739 2.11652 0
M  V30 8054 H 743.344 3.65116 0.329557 0
M  V30 8055 H 742.992 4.21835 2.73978 0
M  V30 8056 H 742.692 5.62724 1.69161 0
M  V30 8057 H 744.216 5.51654 2.61744 0
M  V30 8058 H 745.63 5.72198 0.355316 0
M  V30 8059 H 744.027 5.98833 -0.389689 0
M  V30 8060 H 745.097 4.7353 -1.04391 0
M  V30 8061 N 746.441 0.193421 1.56409 0
M  V30 8062 C 747.69 -0.445995 1.96707 0
M  V30 8063 C 748.003 -1.62876 1.08309 0
M  V30 8064 O 749.209 -2.33586 1.38383 0
M  V30 8065 C 747.665 -0.844863 3.49843 0
M  V30 8066 C 747.273 0.31352 4.46902 0
M  V30 8067 C 749.017 -1.45146 3.98915 0
M  V30 8068 C 746.924 -0.106214 5.91305 0
M  V30 8069 H 745.854 -0.170398 0.734493 0
M  V30 8070 H 748.505 0.285172 1.81271 0
M  V30 8071 H 746.887 -1.63265 3.60778 0
M  V30 8072 H 748.061 1.09103 4.47698 0
M  V30 8073 H 746.376 0.8315 4.08014 0
M  V30 8074 H 748.973 -1.77792 5.04276 0
M  V30 8075 H 749.316 -2.35734 3.43126 0
M  V30 8076 H 749.849 -0.727675 3.91088 0
M  V30 8077 H 746.588 0.765442 6.51016 0
M  V30 8078 H 746.108 -0.848623 5.93766 0
M  V30 8079 H 747.787 -0.542588 6.44721 0
M  V30 8080 N 747.919 -1.57396 -0.0801906 0
M  V30 8081 C 749.196 -1.77883 -0.813451 0
M  V30 8082 C 749.576 -0.778879 -1.96206 0
M  V30 8083 O 748.924 0.189683 -2.27711 0
M  V30 8084 C 749.134 -3.24116 -1.2942 0
M  V30 8085 C 750.482 -3.87714 -1.73098 0
M  V30 8086 O 751.506 -3.27956 -1.39007 0
M  V30 8087 O 750.365 -4.92828 -2.36184 0
M  V30 8088 H 747.459 -0.729727 -0.389138 0
M  V30 8089 H 750.005 -1.69591 -0.0609166 0
M  V30 8090 H 748.777 -3.88443 -0.471947 0
M  V30 8091 H 748.4 -3.371 -2.1083 0
M  V30 8092 N 749.397 0.351382 -1.53633 0
M  V30 8093 C 750.347 1.4316 -1.77452 0
M  V30 8094 C 751.331 1.48076 -0.62946 0
M  V30 8095 O 752.523 1.53078 -0.888599 0
M  V30 8096 C 749.652 2.80409 -1.98055 0
M  V30 8097 C 748.738 2.79915 -3.18604 0
M  V30 8098 N 749.129 2.49057 -4.40232 0
M  V30 8099 C 747.427 3.11067 -3.19614 0
M  V30 8100 C 748.128 2.566 -5.22045 0
M  V30 8101 N 747.104 2.919 -4.5858 0
M  V30 8102 H 750.906 1.18188 -2.69089 0
M  V30 8103 H 748.42 0.559684 -1.52451 0
M  V30 8104 H 750.417 3.58231 -2.13251 0
M  V30 8105 H 749.077 3.06334 -1.07655 0
M  V30 8106 H 750.088 2.22395 -4.67719 0
M  V30 8107 H 746.765 3.42215 -2.39154 0
M  V30 8108 H 748.155 2.35968 -6.29101 0
M  V30 8109 N 750.875 1.45233 0.611969 0
M  V30 8110 C 751.822 1.5357 1.72293 0
M  V30 8111 C 752.792 0.381912 1.6165 0
M  V30 8112 O 753.977 0.594765 1.81293 0
M  V30 8113 C 751.117 1.50419 3.10593 0
M  V30 8114 C 750.23 2.76316 3.32074 0
M  V30 8115 C 749.365 2.64866 4.60456 0
M  V30 8116 C 748.404 3.85838 4.7518 0
M  V30 8117 N 747.541 3.72949 5.94856 0
M  V30 8118 H 752.381 2.4848 1.64504 0
M  V30 8119 H 749.918 1.23302 0.802191 0
M  V30 8120 H 751.876 1.4658 3.90602 0
M  V30 8121 H 750.506 0.590621 3.17351 0
M  V30 8122 H 749.558 2.90261 2.45872 0
M  V30 8123 H 750.87 3.66055 3.38829 0
M  V30 8124 H 750.024 2.58969 5.48653 0
M  V30 8125 H 748.763 1.72719 4.56092 0
M  V30 8126 H 747.768 3.92099 3.85407 0
M  V30 8127 H 748.993 4.79045 4.81344 0
M  V30 8128 H 746.939 2.83567 5.91545 0
M  V30 8129 H 746.856 4.56319 6.02751 0
M  V30 8130 H 748.124 3.70976 6.85563 0
M  V30 8131 N 752.353 -0.854086 1.3245 0
M  V30 8132 C 753.316 -1.94427 1.21371 0
M  V30 8133 C 754.316 -1.60219 0.136613 0
M  V30 8134 O 755.506 -1.69846 0.387057 0
M  V30 8135 C 752.638 -3.29698 0.866701 0
M  V30 8136 H 753.831 -2.05679 2.18257 0
M  V30 8137 H 751.384 -1.04434 1.1629 0
M  V30 8138 H 752.119 -3.24145 -0.100319 0
M  V30 8139 H 751.904 -3.55903 1.64545 0
M  V30 8140 H 753.394 -4.09599 0.813515 0
M  V30 8141 N 753.831 -1.1567 -1.07043 0
M  V30 8142 C 755.108 -0.843948 -1.76456 0
M  V30 8143 C 755.488 0.659806 -2.00524 0
M  V30 8144 O 754.836 1.60518 -1.62623 0
M  V30 8145 C 755.046 -1.65822 -3.0709 0
M  V30 8146 C 756.394 -1.8664 -3.8138 0
M  V30 8147 O 757.418 -1.62624 -3.1691 0
M  V30 8148 O 756.277 -2.26884 -4.97178 0
M  V30 8149 H 753.371 -0.310677 -0.766426 0
M  V30 8150 H 755.917 -1.26266 -1.1338 0
M  V30 8151 H 754.689 -2.67902 -2.85209 0
M  V30 8152 H 754.312 -1.23605 -3.77899 0
M  V30 8153 N 755.309 1.25446 -0.953992 0
M  V30 8154 C 756.239 2.28264 -0.491717 0
M  V30 8155 C 757.22 1.63717 0.461617 0
M  V30 8156 O 758.405 1.90821 0.36071 0
M  V30 8157 C 755.535 3.46525 0.231915 0
M  V30 8158 C 754.489 4.23247 -0.636098 0
M  V30 8159 C 753.815 5.34254 0.218238 0
M  V30 8160 C 755.115 4.85971 -1.91389 0
M  V30 8161 H 756.809 2.67183 -1.35106 0
M  V30 8162 H 754.355 1.2844 -0.651095 0
M  V30 8163 H 756.308 4.17576 0.566439 0
M  V30 8164 H 755.032 3.06594 1.12551 0
M  V30 8165 H 753.691 3.53978 -0.953696 0
M  V30 8166 H 753.339 4.90564 1.11156 0
M  V30 8167 H 753.039 5.86501 -0.359232 0
M  V30 8168 H 754.563 6.08138 0.547743 0
M  V30 8169 H 755.977 5.49168 -1.64581 0
M  V30 8170 H 754.374 5.48391 -2.43696 0
M  V30 8171 H 755.444 4.08192 -2.61738 0
M  V30 8172 N 756.787 0.722489 1.40064 0
M  V30 8173 C 757.75 0.0830209 2.2905 0
M  V30 8174 C 758.75 -0.680208 1.45705 0
M  V30 8175 O 759.94 -0.511084 1.66534 0
M  V30 8176 C 757.072 -0.892092 3.29021 0
M  V30 8177 H 758.265 0.866848 2.87099 0
M  V30 8178 H 755.818 0.487556 1.48501 0
M  V30 8179 H 756.553 -1.70273 2.76003 0
M  V30 8180 H 756.338 -0.34761 3.90556 0
M  V30 8181 H 757.828 -1.33648 3.95636 0
M  V30 8182 N 758.265 -1.50454 0.469181 0
M  V30 8183 C 759.511 -2.02615 -0.0865971 0
M  V30 8184 C 759.844 -1.35062 -1.39542 0
M  V30 8185 O 759.119 -0.475701 -1.88593 0
M  V30 8186 C 759.402 -3.59068 -0.272385 0
M  V30 8187 C 759.255 -4.37196 1.05733 0
M  V30 8188 C 760.574 -4.2793 -1.0278 0
M  V30 8189 H 757.693 -0.736389 -0.0299977 0
M  V30 8190 H 760.335 -1.79792 0.614399 0
M  V30 8191 H 758.485 -3.78646 -0.869471 0
M  V30 8192 H 760.157 -4.29195 1.69084 0
M  V30 8193 H 758.4 -4.01013 1.65442 0
M  V30 8194 H 759.071 -5.44924 0.880997 0
M  V30 8195 H 761.547 -4.12816 -0.521718 0
M  V30 8196 H 760.423 -5.37214 -1.12659 0
M  V30 8197 H 760.684 -3.90968 -2.0639 0
M  V30 8198 N 759.743 -0.201713 -1.56304 0
M  V30 8199 C 760.706 0.702811 -2.18159 0
M  V30 8200 C 761.706 1.13619 -1.13787 0
M  V30 8201 O 762.896 1.0482 -1.39134 0
M  V30 8202 C 760.028 1.96032 -2.78898 0
M  V30 8203 H 761.221 0.163836 -2.99452 0
M  V30 8204 H 758.774 0.04791 -1.56227 0
M  V30 8205 H 759.509 2.54165 -2.01421 0
M  V30 8206 H 759.294 1.65824 -3.55309 0
M  V30 8207 H 760.784 2.60519 -3.26373 0
M  V30 8208 N 761.222 1.57436 0.0718424 0
M  V30 8209 C 762.633 1.75975 0.623678 0
M  V30 8210 C 762.984 0.827155 1.77912 0
M  V30 8211 O 762.109 0.0112425 2.16397 0
M  V30 8212 C 762.704 3.1911 1.13816 0
M  V30 8213 C 761.263 3.38994 1.63586 0
M  V30 8214 C 760.41 2.71684 0.555261 0
M  V30 8215 H 763.361 1.57948 -0.154328 0
M  V30 8216 H 763.382 3.23267 2.00696 0
M  V30 8217 H 762.894 3.86962 0.296998 0
M  V30 8218 H 760.995 2.76256 2.50027 0
M  V30 8219 H 761.108 4.47436 1.71283 0
M  V30 8220 H 759.472 2.34236 1.00029 0
M  V30 8221 H 760.255 3.42191 -0.275712 0
M  V30 8222 N 762.7 -0.34323 1.53817 0
M  V30 8223 C 763.63 -1.42709 1.84814 0
M  V30 8224 C 764.611 -1.5488 0.703297 0
M  V30 8225 O 765.796 -1.69082 0.955237 0
M  V30 8226 C 762.926 -2.79756 2.05801 0
M  V30 8227 C 761.88 -2.82392 3.21619 0
M  V30 8228 C 761.206 -4.22326 3.2794 0
M  V30 8229 C 762.506 -2.479 4.59721 0
M  V30 8230 H 764.2 -1.17018 2.75585 0
M  V30 8231 H 761.746 -0.561485 1.32602 0
M  V30 8232 H 763.699 -3.55627 2.26069 0
M  V30 8233 H 762.423 -3.06883 1.11761 0
M  V30 8234 H 761.082 -2.08974 3.01207 0
M  V30 8235 H 760.73 -4.46564 2.31494 0
M  V30 8236 H 760.43 -4.25001 4.05768 0
M  V30 8237 H 761.954 -5.00039 3.50419 0
M  V30 8238 H 763.368 -3.13484 4.80001 0
M  V30 8239 H 761.765 -2.61857 5.39954 0
M  V30 8240 H 762.835 -1.43087 4.63308 0
M  V30 8241 N 764.178 -1.45556 -0.604258 0
M  V30 8242 C 765.141 -1.54091 -1.69672 0
M  V30 8243 C 766.141 -0.420076 -1.55216 0
M  V30 8244 O 767.331 -0.683671 -1.60224 0
M  V30 8245 C 764.463 -1.44063 -3.08964 0
M  V30 8246 H 765.656 -2.51431 -1.6347 0
M  V30 8247 H 763.209 -1.33046 -0.820273 0
M  V30 8248 H 763.944 -0.479201 -3.2074 0
M  V30 8249 H 763.729 -2.25362 -3.20865 0
M  V30 8250 H 765.219 -1.53075 -3.88533 0
M  V30 8251 N 765.656 0.84705 -1.32902 0
M  V30 8252 C 766.905 1.59667 -1.23245 0
M  V30 8253 C 767.218 1.94551 0.202349 0
M  V30 8254 O 768.424 2.68218 0.420847 0
M  V30 8255 C 766.88 2.8795 -2.15901 0
M  V30 8256 C 766.488 2.60461 -3.64505 0
M  V30 8257 C 768.232 3.65968 -2.15098 0
M  V30 8258 C 766.139 3.84791 -4.49099 0
M  V30 8259 H 765.069 0.599167 -0.457728 0
M  V30 8260 H 767.72 0.934662 -1.57912 0
M  V30 8261 H 766.102 3.55648 -1.74157 0
M  V30 8262 H 767.276 2.01026 -4.14639 0
M  V30 8263 H 765.591 1.9576 -3.67515 0
M  V30 8264 H 768.188 4.58241 -2.75534 0
M  V30 8265 H 768.531 4.00275 -1.14392 0
M  V30 8266 H 769.064 3.05184 -2.55162 0
M  V30 8267 H 765.803 3.55621 -5.50649 0
M  V30 8268 H 765.323 4.43594 -4.03713 0
M  V30 8269 H 767.002 4.52454 -4.62487 0
M  V30 8270 N 767.134 1.16236 1.06428 0
M  V30 8271 C 768.362 0.967184 1.82902 0
M  V30 8272 C 768.777 -0.484601 1.82475 0
M  V30 8273 O 768.134 -1.33631 1.24294 0
M  V30 8274 C 768.185 1.48534 3.29576 0
M  V30 8275 O 767.906 2.88026 3.3011 0
M  V30 8276 C 769.407 1.33298 4.22784 0
M  V30 8277 H 766.627 0.342923 0.576754 0
M  V30 8278 H 769.171 1.54232 1.34286 0
M  V30 8279 H 767.326 0.952513 3.75508 0
M  V30 8280 H 767.74 3.11721 4.21818 0
M  V30 8281 H 769.214 1.74385 5.23731 0
M  V30 8282 H 769.691 0.278356 4.38317 0
M  V30 8283 H 770.297 1.85535 3.82697 0
M  V30 8284 N 768.612 -1.24939 0.960631 0
M  V30 8285 C 769.842 -1.96595 0.635123 0
M  V30 8286 C 770.25 -1.71538 -0.798206 0
M  V30 8287 O 769.593 -0.991727 -1.5463 0
M  V30 8288 C 769.655 -3.49994 0.821248 0
M  V30 8289 C 769.319 -3.98738 2.23287 0
M  V30 8290 C 770.316 -4.08965 3.21004 0
M  V30 8291 C 768.001 -4.32247 2.55867 0
M  V30 8292 C 769.995 -4.52025 4.49391 0
M  V30 8293 C 767.682 -4.74991 3.84482 0
M  V30 8294 C 768.68 -4.84844 4.81056 0
M  V30 8295 O 768.368 -5.26638 6.07378 0
M  V30 8296 H 768.1 -0.633265 0.23654 0
M  V30 8297 H 770.654 -1.5991 1.28911 0
M  V30 8298 H 768.884 -3.86543 0.110105 0
M  V30 8299 H 770.573 -4.02859 0.495892 0
M  V30 8300 H 771.339 -3.83302 2.97161 0
M  V30 8301 H 767.218 -4.23801 1.81421 0
M  V30 8302 H 770.762 -4.5963 5.24773 0
M  V30 8303 H 766.659 -5.00101 4.08129 0
M  V30 8304 H 767.427 -5.44807 6.10842 0
M  V30 8305 N 770.09 -0.729906 -1.39679 0
M  V30 8306 C 771.336 -0.27603 -2.00913 0
M  V30 8307 C 771.669 1.13227 -1.57776 0
M  V30 8308 O 770.944 1.7709 -0.804319 0
M  V30 8309 C 771.227 -0.372157 -3.58172 0
M  V30 8310 C 771.08 -1.81986 -4.11341 0
M  V30 8311 C 772.399 0.248378 -4.39399 0
M  V30 8312 H 769.518 -0.101773 -0.729939 0
M  V30 8313 H 772.16 -0.925104 -1.65957 0
M  V30 8314 H 770.31 0.180459 -3.88081 0
M  V30 8315 H 771.982 -2.42896 -3.92172 0
M  V30 8316 H 770.225 -2.34287 -3.65092 0
M  V30 8317 H 770.896 -1.83842 -5.20486 0
M  V30 8318 H 773.372 -0.222645 -4.15504 0
M  V30 8319 H 772.248 0.150746 -5.48693 0
M  V30 8320 H 772.509 1.33378 -4.21501 0
M  V30 8321 N 771.568 1.50203 -0.477153 0
M  V30 8322 C 772.984 1.59056 -0.131663 0
M  V30 8323 C 773.184 1.48473 1.36227 0
M  V30 8324 O 772.24 1.34635 2.13611 0
M  V30 8325 C 773.553 2.92741 -0.687254 0
M  V30 8326 C 775.101 3.0615 -0.651223 0
M  V30 8327 C 775.576 4.42419 -1.18446 0
M  V30 8328 N 777.067 4.48847 -1.14413 0
M  V30 8329 C 777.802 5.52689 -1.52717 0
M  V30 8330 N 777.298 6.63754 -1.98499 0
M  V30 8331 N 779.091 5.43267 -1.44282 0
M  V30 8332 H 771.242 1.55325 -1.44872 0
M  V30 8333 H 773.505 0.734395 -0.599473 0
M  V30 8334 H 773.211 3.0598 -1.73405 0
M  V30 8335 H 773.085 3.76961 -0.134215 0
M  V30 8336 H 775.472 2.92556 0.386677 0
M  V30 8337 H 775.553 2.23673 -1.24114 0
M  V30 8338 H 775.197 4.56763 -2.22103 0
M  V30 8339 H 775.127 5.23498 -0.570709 0
M  V30 8340 H 777.618 3.69152 -0.808416 0
M  V30 8341 H 777.931 7.39059 -2.25859 0
M  V30 8342 H 776.276 6.64858 -2.02456 0
M  V30 8343 H 779.467 4.55387 -1.08352 0
M  V30 8344 H 779.64 6.24074 -1.74459 0
M  V30 8345 N 773.046 0.209999 1.56195 0
M  V30 8346 C 773.956 -0.716459 2.23392 0
M  V30 8347 C 774.972 -1.22291 1.23778 0
M  V30 8348 O 776.148 -1.26694 1.56558 0
M  V30 8349 C 773.213 -1.91261 2.89172 0
M  V30 8350 C 772.274 -1.44927 4.04097 0
M  V30 8351 C 771.507 -2.5884 4.66731 0
M  V30 8352 O 771.73 -3.76693 4.2832 0
M  V30 8353 O 770.664 -2.30701 5.55932 0
M  V30 8354 H 774.49 -0.174089 3.03201 0
M  V30 8355 H 772.075 -0.0199505 1.49387 0
M  V30 8356 H 773.957 -2.6114 3.30733 0
M  V30 8357 H 772.632 -2.4433 2.12331 0
M  V30 8358 H 771.539 -0.718839 3.67129 0
M  V30 8359 H 772.872 -0.965084 4.82646 0
M  V30 8360 N 774.524 -1.57472 -0.0634922 0
M  V30 8361 C 775.471 -2.04258 -1.07457 0
M  V30 8362 C 776.441 -0.924804 -1.37973 0
M  V30 8363 O 777.626 -1.19305 -1.48899 0
M  V30 8364 C 774.766 -2.49832 -2.38071 0
M  V30 8365 C 773.879 -3.75263 -2.14014 0
M  V30 8366 C 773.014 -4.09585 -3.38251 0
M  V30 8367 C 772.053 -5.28032 -3.09594 0
M  V30 8368 N 771.19 -5.57953 -4.26185 0
M  V30 8369 H 776.03 -2.90402 -0.668626 0
M  V30 8370 H 773.567 -1.43609 -0.318572 0
M  V30 8371 H 775.525 -2.7431 -3.14341 0
M  V30 8372 H 774.155 -1.66654 -2.76453 0
M  V30 8373 H 773.207 -3.58075 -1.28399 0
M  V30 8374 H 774.519 -4.61667 -1.88852 0
M  V30 8375 H 773.673 -4.35008 -4.2291 0
M  V30 8376 H 772.412 -3.21765 -3.66495 0
M  V30 8377 H 771.417 -5.02397 -2.23332 0
M  V30 8378 H 772.642 -6.17477 -2.82663 0
M  V30 8379 H 770.588 -4.73092 -4.54445 0
M  V30 8380 H 770.505 -6.38793 -4.04326 0
M  V30 8381 H 771.773 -5.87931 -5.11817 0
M  V30 8382 N 776.003 0.335068 -1.53997 0
M  V30 8383 C 777.249 1.07594 -1.71905 0
M  V30 8384 C 777.582 1.88039 -0.485264 0
M  V30 8385 O 776.857 1.87482 0.517752 0
M  V30 8386 C 777.14 2.01016 -2.98772 0
M  V30 8387 C 776.993 1.23977 -4.32377 0
M  V30 8388 C 778.312 3.0071 -3.21343 0
M  V30 8389 H 775.431 0.38976 -0.625505 0
M  V30 8390 H 778.073 0.353684 -1.86679 0
M  V30 8391 H 776.223 2.62603 -2.86307 0
M  V30 8392 H 777.895 0.649383 -4.56706 0
M  V30 8393 H 776.138 0.541878 -4.30402 0
M  V30 8394 H 776.809 1.92512 -5.17342 0
M  V30 8395 H 779.285 2.4924 -3.33194 0
M  V30 8396 H 778.161 3.63272 -4.11491 0
M  V30 8397 H 778.422 3.72549 -2.38033 0
M  V30 8398 N 777.481 1.45874 0.596531 0
M  V30 8399 C 778.73 1.49737 1.35135 0
M  V30 8400 C 779.043 0.147755 1.95041 0
M  V30 8401 O 780.249 0.0640984 2.71424 0
M  V30 8402 C 778.705 2.6378 2.44843 0
M  V30 8403 C 778.313 4.05102 1.91301 0
M  V30 8404 C 780.057 2.769 3.21755 0
M  V30 8405 C 777.964 5.10508 2.98557 0
M  V30 8406 H 776.894 0.557219 0.507959 0
M  V30 8407 H 779.545 1.72046 0.638147 0
M  V30 8408 H 777.927 2.34774 3.189 0
M  V30 8409 H 779.101 4.43836 1.2388 0
M  V30 8410 H 777.416 3.96528 1.271 0
M  V30 8411 H 780.013 3.52819 4.01775 0
M  V30 8412 H 780.356 1.83924 3.73467 0
M  V30 8413 H 780.889 3.05485 2.54802 0
M  V30 8414 H 777.628 6.0523 2.51749 0
M  V30 8415 H 777.148 4.76332 3.6451 0
M  V30 8416 H 778.827 5.35745 3.62748 0
M  V30 8417 N 778.959 -0.83999 1.33349 0
M  V30 8418 C 780.236 -1.57973 1.15342 0
M  V30 8419 C 780.616 -2.09226 -0.280632 0
M  V30 8420 O 779.964 -1.89317 -1.2795 0
M  V30 8421 C 780.174 -2.71446 2.19359 0
M  V30 8422 C 781.522 -3.40654 2.53456 0
M  V30 8423 O 782.546 -2.81686 2.18017 0
M  V30 8424 O 781.405 -4.47101 3.14266 0
M  V30 8425 H 778.499 -0.6964 0.446044 0
M  V30 8426 H 781.045 -0.882843 1.44927 0
M  V30 8427 H 779.817 -2.31205 3.1569 0
M  V30 8428 H 779.44 -3.488 1.90852 0
M  V30 8429 N 780.437 -1.16799 -1.0581 0
M  V30 8430 C 781.684 -0.952524 -1.78699 0
M  V30 8431 C 782.012 0.51931 -1.87439 0
M  V30 8432 O 781.267 1.40151 -1.36587 0
M  V30 8433 C 781.566 -1.53111 -3.22942 0
M  V30 8434 C 781.232 -3.0261 -3.34273 0
M  V30 8435 C 779.894 -3.43418 -3.37072 0
M  V30 8436 C 782.246 -3.98611 -3.35795 0
M  V30 8437 C 779.574 -4.78838 -3.39015 0
M  V30 8438 C 781.926 -5.33923 -3.39277 0
M  V30 8439 C 780.59 -5.74205 -3.40361 0
M  V30 8440 H 779.86 -0.348553 -0.653905 0
M  V30 8441 H 782.507 -1.45591 -1.244 0
M  V30 8442 H 780.812 -0.949286 -3.80126 0
M  V30 8443 H 782.509 -1.34002 -3.77948 0
M  V30 8444 H 779.099 -2.70075 -3.32803 0
M  V30 8445 H 783.283 -3.68146 -3.32839 0
M  V30 8446 H 778.539 -5.09369 -3.38161 0
M  V30 8447 H 782.713 -6.08094 -3.39403 0
M  V30 8448 H 780.34 -6.79117 -3.4162 0
M  V30 8449 N 781.915 1.24427 -0.967243 0
M  V30 8450 C 783.14 1.9708 -0.646069 0
M  V30 8451 C 783.565 1.71272 0.777665 0
M  V30 8452 O 782.923 0.976179 1.52776 0
M  V30 8453 C 782.971 3.48501 -0.926266 0
M  V30 8454 O 782.075 4.12398 -0.0114653 0
M  V30 8455 H 781.416 0.617423 -0.244304 0
M  V30 8456 H 783.946 1.58215 -1.29727 0
M  V30 8457 H 783.956 3.98885 -0.857619 0
M  V30 8458 H 782.631 3.66613 -1.96386 0
M  V30 8459 H 781.208 3.72661 -0.133396 0
M  V30 8460 N 783.393 0.737304 1.3929 0
M  V30 8461 C 784.34 0.0988364 2.30588 0
M  V30 8462 C 785.31 -0.727206 1.49335 0
M  V30 8463 O 786.495 -0.686694 1.78014 0
M  V30 8464 C 783.635 -0.800734 3.35682 0
M  V30 8465 C 782.748 0.0381731 4.31983 0
M  V30 8466 C 781.883 -0.862884 5.24145 0
M  V30 8467 C 780.922 -0.0193639 6.12097 0
M  V30 8468 N 780.059 -0.87648 6.96608 0
M  V30 8469 H 784.899 0.883031 2.84617 0
M  V30 8470 H 782.436 0.447111 1.4014 0
M  V30 8471 H 784.394 -1.33676 3.95205 0
M  V30 8472 H 783.024 -1.55088 2.83103 0
M  V30 8473 H 782.076 0.691641 3.74059 0
M  V30 8474 H 783.388 0.690294 4.94 0
M  V30 8475 H 782.542 -1.46667 5.88705 0
M  V30 8476 H 781.281 -1.54878 4.62454 0
M  V30 8477 H 780.286 0.597202 5.46547 0
M  V30 8478 H 781.511 0.663348 6.75852 0
M  V30 8479 H 779.457 -1.54762 6.37483 0
M  V30 8480 H 779.374 -0.280892 7.55478 0
M  V30 8481 H 780.642 -1.46575 7.65595 0
M  V30 8482 N 784.871 -1.49948 0.485112 0
M  V30 8483 C 786.282 -1.8667 0.0334041 0
M  V30 8484 C 786.633 -1.3988 -1.37579 0
M  V30 8485 O 785.758 -0.769788 -2.02245 0
M  V30 8486 C 786.353 -3.38757 0.0538426 0
M  V30 8487 C 784.912 -3.74839 -0.342453 0
M  V30 8488 C 784.059 -2.73894 0.433281 0
M  V30 8489 H 787.01 -1.42492 0.698699 0
M  V30 8490 H 787.031 -3.73132 -0.745146 0
M  V30 8491 H 786.543 -3.72782 1.07959 0
M  V30 8492 H 784.644 -3.46419 -1.37203 0
M  V30 8493 H 784.757 -4.79088 -0.0340503 0
M  V30 8494 H 783.121 -2.54441 -0.114849 0
M  V30 8495 H 783.904 -3.10763 1.45881 0
M  V30 8496 N 786.349 -0.21828 -1.56081 0
M  V30 8497 C 787.596 0.414307 -1.98216 0
M  V30 8498 C 787.924 1.60005 -1.10584 0
M  V30 8499 O 787.179 1.95124 -0.150043 0
M  V30 8500 C 787.478 0.894782 -3.46018 0
M  V30 8501 C 787.144 -0.180083 -4.5054 0
M  V30 8502 C 785.806 -0.475367 -4.78846 0
M  V30 8503 C 788.158 -0.907191 -5.13244 0
M  V30 8504 C 785.486 -1.50233 -5.67139 0
M  V30 8505 C 787.838 -1.92347 -6.02649 0
M  V30 8506 C 786.502 -2.22571 -6.293 0
M  V30 8507 H 785.772 0.151606 -0.725325 0
M  V30 8508 H 788.419 -0.320113 -1.88806 0
M  V30 8509 H 786.724 1.7079 -3.52616 0
M  V30 8510 H 788.421 1.39403 -3.75989 0
M  V30 8511 H 785.011 0.06022 -4.28558 0
M  V30 8512 H 789.195 -0.692303 -4.91448 0
M  V30 8513 H 784.451 -1.74215 -5.86054 0
M  V30 8514 H 788.625 -2.49197 -6.50288 0
M  V30 8515 H 786.252 -3.0229 -6.97513 0
M  V30 8516 N 787.827 1.57504 0.0551401 0
M  V30 8517 C 788.76 2.00155 1.09604 0
M  V30 8518 C 789.738 0.881274 1.36647 0
M  V30 8519 O 790.922 1.14498 1.49742 0
M  V30 8520 C 788.049 2.35246 2.43674 0
M  V30 8521 C 787.095 3.57452 2.32659 0
M  V30 8522 S 787.928 5.07639 1.7048 0
M  V30 8523 C 789.084 5.45947 3.06093 0
M  V30 8524 H 789.317 2.88131 0.732635 0
M  V30 8525 H 786.85 1.52122 0.264252 0
M  V30 8526 H 788.808 2.56136 3.20787 0
M  V30 8527 H 787.469 1.47769 2.7717 0
M  V30 8528 H 786.662 3.79576 3.31569 0
M  V30 8529 H 786.264 3.36279 1.63685 0
M  V30 8530 H 788.556 5.45036 4.0242 0
M  V30 8531 H 789.499 6.4656 2.88732 0
M  V30 8532 H 789.907 4.73419 3.07466 0
M  V30 8533 N 789.305 -0.326896 1.54172 0
M  V30 8534 C 790.533 -1.08486 1.76177 0
M  V30 8535 C 790.948 -1.81815 0.508788 0
M  V30 8536 O 790.305 -1.74924 -0.520362 0
M  V30 8537 C 790.356 -2.08552 2.95276 0
M  V30 8538 O 790.077 -1.38202 4.15731 0
M  V30 8539 C 791.578 -2.96593 3.29466 0
M  V30 8540 H 788.798 -0.322835 0.588233 0
M  V30 8541 H 791.342 -0.374036 2.0105 0
M  V30 8542 H 789.497 -2.75174 2.72687 0
M  V30 8543 H 789.911 -2.05186 4.827 0
M  V30 8544 H 791.385 -3.62708 4.16109 0
M  V30 8545 H 791.862 -3.63511 2.46487 0
M  V30 8546 H 792.468 -2.35537 3.54122 0
M  V30 8547 N 790.784 -1.46188 -0.588786 0
M  V30 8548 C 791.714 -1.59148 -1.70863 0
M  V30 8549 C 792.695 -0.442083 -1.64255 0
M  V30 8550 O 793.88 -0.667575 -1.82365 0
M  V30 8551 C 791.01 -1.5757 -3.09498 0
M  V30 8552 C 789.964 -2.71418 -3.30932 0
M  V30 8553 C 789.29 -2.549 -4.70032 0
M  V30 8554 C 790.59 -4.1329 -3.19356 0
M  V30 8555 H 792.284 -2.52889 -1.60274 0
M  V30 8556 H 789.83 -1.21707 -0.769638 0
M  V30 8557 H 791.783 -1.65231 -3.87655 0
M  V30 8558 H 790.507 -0.603705 -3.20972 0
M  V30 8559 H 789.166 -2.63216 -2.55172 0
M  V30 8560 H 788.814 -1.55797 -4.78264 0
M  V30 8561 H 788.514 -3.31257 -4.85327 0
M  V30 8562 H 790.038 -2.64443 -5.50366 0
M  V30 8563 H 791.452 -4.22636 -3.87365 0
M  V30 8564 H 789.849 -4.90187 -3.46175 0
M  V30 8565 H 790.919 -4.33874 -2.16522 0
M  V30 8566 N 792.262 0.832906 -1.33792 0
M  V30 8567 C 793.51 1.58539 -1.25338 0
M  V30 8568 C 793.831 1.94175 0.179204 0
M  V30 8569 O 793.101 1.61458 1.10941 0
M  V30 8570 H 791.681 0.58784 -0.460926 0
M  V30 8571 H 794.343 0.995064 -1.67584 0
M  V30 8572 H 793.439 2.51268 -1.85123 0
M  V30 8573 N 793.74 1.17359 1.05189 0
M  V30 8574 C 794.989 0.956412 1.77583 0
M  V30 8575 C 795.302 -0.516018 1.88671 0
M  V30 8576 O 796.508 -0.851401 2.57805 0
M  V30 8577 C 794.964 1.66203 3.19225 0
M  V30 8578 C 794.572 3.17299 3.16267 0
M  V30 8579 C 796.316 1.52725 3.96075 0
M  V30 8580 C 794.223 3.8055 4.52698 0
M  V30 8581 H 793.153 0.354204 0.665624 0
M  V30 8582 H 795.804 1.40612 1.17901 0
M  V30 8583 H 794.186 1.14006 3.79234 0
M  V30 8584 H 795.36 3.76431 2.65776 0
M  V30 8585 H 793.675 3.3079 2.52917 0
M  V30 8586 H 796.272 1.97351 4.96947 0
M  V30 8587 H 796.615 0.477803 4.13549 0
M  V30 8588 H 797.148 2.02139 3.42614 0
M  V30 8589 H 793.887 4.85492 4.4043 0
M  V30 8590 H 793.407 3.26206 5.03339 0
M  V30 8591 H 795.086 3.82757 5.21638 0
M  V30 8592 N 795.218 -1.23913 0.973828 0
M  V30 8593 C 796.443 -1.96735 0.656511 0
M  V30 8594 C 796.868 -1.71682 -0.768571 0
M  V30 8595 O 796.226 -0.984267 -1.52256 0
M  V30 8596 C 796.274 -3.48004 0.944735 0
M  V30 8597 O 795.378 -4.12387 0.0333357 0
M  V30 8598 H 794.719 -0.616119 0.247575 0
M  V30 8599 H 797.249 -1.57525 1.30564 0
M  V30 8600 H 797.259 -3.98424 0.87876 0
M  V30 8601 H 795.934 -3.65567 1.98328 0
M  V30 8602 H 794.511 -3.72585 0.153157 0
M  V30 8603 N 796.696 -0.74468 -1.38897 0
M  V30 8604 C 797.945 -0.293716 -1.9955 0
M  V30 8605 C 798.258 1.12831 -1.59777 0
M  V30 8606 O 799.464 1.67929 -2.13336 0
M  V30 8607 C 797.92 -0.474188 -3.56762 0
M  V30 8608 C 797.528 -1.90472 -4.05493 0
M  V30 8609 C 799.272 -0.0854875 -4.24414 0
M  V30 8610 C 797.179 -2.03423 -5.55314 0
M  V30 8611 H 796.109 -0.106066 -0.746502 0
M  V30 8612 H 798.76 -0.919948 -1.58774 0
M  V30 8613 H 797.142 0.221092 -3.95382 0
M  V30 8614 H 798.316 -2.63274 -3.78184 0
M  V30 8615 H 796.631 -2.24752 -3.50536 0
M  V30 8616 H 799.228 -0.161133 -5.34457 0
M  V30 8617 H 799.571 0.96066 -4.05064 0
M  V30 8618 H 800.104 -0.732286 -3.91002 0
M  V30 8619 H 796.843 -3.0626 -5.79556 0
M  V30 8620 H 796.363 -1.3507 -5.84394 0
M  V30 8621 H 798.042 -1.81996 -6.20876 0
M  V30 8622 N 798.174 1.49689 -0.493057 0
M  V30 8623 C 799.104 2.31826 0.279073 0
M  V30 8624 C 800.085 1.39733 0.969987 0
M  V30 8625 O 801.27 1.68646 0.962925 0
M  V30 8626 C 798.4 3.20046 1.34862 0
M  V30 8627 C 797.354 4.20869 0.77805 0
M  V30 8628 C 796.68 4.97971 1.94753 0
M  V30 8629 C 797.98 5.21813 -0.225543 0
M  V30 8630 H 799.674 2.96627 -0.406512 0
M  V30 8631 H 797.22 1.42647 -0.196943 0
M  V30 8632 H 799.173 3.76315 1.89645 0
M  V30 8633 H 797.897 2.53172 2.06328 0
M  V30 8634 H 796.556 3.65733 0.252036 0
M  V30 8635 H 796.204 4.27552 2.64969 0
M  V30 8636 H 795.904 5.66186 1.57187 0
M  V30 8637 H 797.428 5.57082 2.49984 0
M  V30 8638 H 798.842 5.72823 0.233864 0
M  V30 8639 H 797.239 5.97872 -0.516622 0
M  V30 8640 H 798.309 4.71209 -1.14412 0
M  V30 8641 N 799.652 0.226554 1.55963 0
M  V30 8642 C 800.882 -0.407915 2.02533 0
M  V30 8643 C 801.29 -1.53539 1.10554 0
M  V30 8644 O 800.633 -1.8338 0.108409 0
M  V30 8645 C 800.695 -0.996081 3.45425 0
M  V30 8646 C 800.359 -0.00341651 4.57 0
M  V30 8647 C 801.356 0.798782 5.13727 0
M  V30 8648 C 799.041 0.116786 5.02164 0
M  V30 8649 C 801.035 1.70784 6.14094 0
M  V30 8650 C 798.722 1.02937 6.02368 0
M  V30 8651 C 799.72 1.82344 6.5821 0
M  V30 8652 O 799.408 2.72067 7.56462 0
M  V30 8653 H 799.14 -0.103524 0.668026 0
M  V30 8654 H 801.694 0.341937 2.02534 0
M  V30 8655 H 799.924 -1.79512 3.42509 0
M  V30 8656 H 801.613 -1.53848 3.75614 0
M  V30 8657 H 802.379 0.716393 4.7968 0
M  V30 8658 H 798.258 -0.491172 4.58376 0
M  V30 8659 H 801.802 2.32807 6.57607 0
M  V30 8660 H 797.699 1.11276 6.35836 0
M  V30 8661 H 798.467 2.66199 7.74003 0
M  V30 8662 N 801.13 -1.57531 -0.0467866 0
M  V30 8663 C 802.546 -1.54451 -0.402107 0
M  V30 8664 C 802.746 -0.950275 -1.77685 0
M  V30 8665 O 801.802 -0.563602 -2.4613 0
M  V30 8666 C 803.115 -2.9899 -0.320212 0
M  V30 8667 C 804.663 -3.10452 -0.398588 0
M  V30 8668 C 805.138 -4.56689 -0.346335 0
M  V30 8669 N 806.629 -4.6142 -0.405666 0
M  V30 8670 C 807.364 -5.72087 -0.387845 0
M  V30 8671 N 806.86 -6.92045 -0.32336 0
M  V30 8672 N 808.653 -5.60404 -0.436263 0
M  V30 8673 H 800.804 -1.94515 0.853087 0
M  V30 8674 H 803.067 -0.891397 0.322669 0
M  V30 8675 H 802.773 -3.46124 0.623794 0
M  V30 8676 H 802.647 -3.60164 -1.1208 0
M  V30 8677 H 805.034 -2.63276 -1.33302 0
M  V30 8678 H 805.115 -2.52142 0.431026 0
M  V30 8679 H 804.759 -5.04527 0.584356 0
M  V30 8680 H 804.689 -5.12889 -1.19382 0
M  V30 8681 H 807.18 -3.75105 -0.458737 0
M  V30 8682 H 807.493 -7.7216 -0.314375 0
M  V30 8683 H 805.838 -6.94396 -0.28967 0
M  V30 8684 H 809.029 -4.65586 -0.48451 0
M  V30 8685 H 809.202 -6.46645 -0.418907 0
M  V30 8686 N 802.608 0.318715 -1.54344 0
M  V30 8687 C 803.555 1.39242 -1.84066 0
M  V30 8688 C 804.525 1.51175 -0.688134 0
M  V30 8689 O 805.71 1.66318 -0.935039 0
M  V30 8690 C 802.85 2.75528 -2.07794 0
M  V30 8691 C 801.963 2.72187 -3.35467 0
M  V30 8692 C 801.098 4.00352 -3.4913 0
M  V30 8693 C 800.137 3.91338 -4.7066 0
M  V30 8694 N 799.274 5.11242 -4.81224 0
M  V30 8695 H 804.114 1.13196 -2.75664 0
M  V30 8696 H 801.651 0.547857 -1.36517 0
M  V30 8697 H 803.609 3.54763 -2.19543 0
M  V30 8698 H 802.239 2.99873 -1.19482 0
M  V30 8699 H 801.291 1.84917 -3.3243 0
M  V30 8700 H 802.603 2.61411 -4.24812 0
M  V30 8701 H 801.757 4.88019 -3.60448 0
M  V30 8702 H 800.496 4.1394 -2.57886 0
M  V30 8703 H 799.501 3.02055 -4.59394 0
M  V30 8704 H 800.726 3.7931 -5.63294 0
M  V30 8705 H 798.672 5.25327 -3.92897 0
M  V30 8706 H 798.589 5.0282 -5.64543 0
M  V30 8707 H 799.857 6.0061 -4.96879 0
M  V30 8708 N 804.086 1.46499 0.581025 0
M  V30 8709 C 805.497 1.4604 1.16315 0
M  V30 8710 C 805.848 0.202154 1.95156 0
M  V30 8711 O 804.973 -0.694638 2.04948 0
M  V30 8712 C 805.568 2.64593 2.11604 0
M  V30 8713 C 804.127 2.6717 2.65136 0
M  V30 8714 C 803.274 2.38753 1.4104 0
M  V30 8715 H 806.225 1.54354 0.368871 0
M  V30 8716 H 806.246 2.40207 2.95095 0
M  V30 8717 H 805.758 3.56154 1.54194 0
M  V30 8718 H 803.859 1.79685 3.26411 0
M  V30 8719 H 803.972 3.67182 3.07757 0
M  V30 8720 H 802.336 1.88845 1.70908 0
M  V30 8721 H 803.119 3.32493 0.854588 0
M  V30 8722 N 805.565 -0.825799 1.34232 0
M  V30 8723 C 806.513 -1.95792 1.25572 0
M  V30 8724 C 807.507 -1.68695 0.154404 0
M  V30 8725 O 808.713 -1.77147 0.319196 0
M  V30 8726 H 805.088 -0.642949 0.390027 0
M  V30 8727 H 807.059 -2.00219 2.21258 0
M  V30 8728 C 805.808 -3.32245 1.02511 0
M  V30 8729 H 805.131 -3.53642 1.86487 0
M  V30 8730 H 806.571 -4.1192 1.00487 0
M  V30 8731 C 805.03 -3.35803 -0.27167 0
M  V30 8732 O 805.56 -3.80962 -1.274 0
M  V30 8733 N 803.766 -2.89008 -0.303778 0
M  V30 8734 H 803.313 -2.52451 0.512464 0
M  V30 8735 H 803.271 -2.9177 -1.17121 0
M  V30 8736 N 807.043 -1.17915 -1.04565 0
M  V30 8737 C 808.291 -0.969505 -1.77327 0
M  V30 8738 C 808.612 0.502569 -1.88412 0
M  V30 8739 O 807.882 1.36467 -1.40547 0
M  V30 8740 H 806.462 -0.355723 -0.656864 0
M  V30 8741 H 809.124 -1.48506 -1.26223 0
M  V30 8742 H 808.22 -1.40324 -2.78775 0
M  V30 8743 N 808.521 1.23394 -0.980386 0
M  V30 8744 C 809.749 1.95844 -0.667286 0
M  V30 8745 C 810.164 1.72574 0.765735 0
M  V30 8746 O 809.521 1.01715 1.51526 0
M  V30 8747 C 809.572 3.48844 -0.948151 0
M  V30 8748 O 809.293 3.71325 -2.32485 0
M  V30 8749 C 810.794 4.38494 -0.651002 0
M  V30 8750 H 808.014 0.623535 -0.247882 0
M  V30 8751 H 810.558 1.56885 -1.31176 0
M  V30 8752 H 808.713 3.85819 -0.349681 0
M  V30 8753 H 809.127 4.65619 -2.41452 0
M  V30 8754 H 810.601 5.44648 -0.897887 0
M  V30 8755 H 811.078 4.37236 0.414922 0
M  V30 8756 H 811.684 4.07127 -1.22995 0
M  V30 8757 N 809.999 0.752036 1.385 0
M  V30 8758 C 810.947 0.112634 2.32327 0
M  V30 8759 C 811.941 -0.707037 1.53939 0
M  V30 8760 O 813.147 -0.606309 1.69481 0
M  V30 8761 H 809.522 0.0176275 0.751793 0
M  V30 8762 H 811.493 0.920074 2.83861 0
M  V30 8763 C 810.242 -0.767458 3.39124 0
M  V30 8764 H 809.565 -0.146122 3.99533 0
M  V30 8765 H 811.005 -1.18216 4.07187 0
M  V30 8766 C 809.464 -1.90938 2.77568 0
M  V30 8767 O 809.994 -3.00342 2.66754 0
M  V30 8768 N 808.2 -1.70396 2.35401 0
M  V30 8769 H 807.747 -0.81413 2.44397 0
M  V30 8770 H 807.705 -2.46972 1.94557 0
M  V30 8771 N 811.477 -1.49425 0.500989 0
M  V30 8772 C 812.888 -1.86624 0.0532011 0
M  V30 8773 C 813.239 -1.41331 -1.36088 0
M  V30 8774 O 812.364 -0.791195 -2.01418 0
M  V30 8775 C 812.959 -3.38681 0.0897693 0
M  V30 8776 C 811.518 -3.75181 -0.302677 0
M  V30 8777 C 810.665 -2.73419 0.462307 0
M  V30 8778 H 813.616 -1.41743 0.713773 0
M  V30 8779 H 813.637 -3.73902 -0.705528 0
M  V30 8780 H 813.149 -3.71616 1.11907 0
M  V30 8781 H 811.25 -3.47855 -1.33521 0
M  V30 8782 H 811.363 -4.79097 0.0167653 0
M  V30 8783 H 809.727 -2.54548 -0.0878557 0
M  V30 8784 H 810.51 -3.09198 1.49169 0
M  V30 8785 N 812.955 -0.234822 -1.55841 0
M  V30 8786 C 814.203 0.392483 -1.98252 0
M  V30 8787 C 814.524 1.59344 -1.12404 0
M  V30 8788 O 813.794 1.94834 -0.204055 0
M  V30 8789 H 812.374 0.147999 -0.732192 0
M  V30 8790 H 815.036 -0.330804 -1.92072 0
M  V30 8791 H 814.132 0.709829 -3.03921 0
M  V30 8792 N 814.433 1.57553 0.0384317 0
M  V30 8793 C 815.679 1.89121 0.732199 0
M  V30 8794 C 816.012 0.831404 1.75503 0
M  V30 8795 O 815.287 -0.154642 1.93884 0
M  V30 8796 C 815.57 3.31338 1.41021 0
M  V30 8797 C 815.423 4.48004 0.401532 0
M  V30 8798 C 816.742 3.72318 2.34665 0
M  V30 8799 H 813.861 0.687819 0.264715 0
M  V30 8800 H 816.503 1.89999 -0.00496279 0
M  V30 8801 H 814.653 3.3072 2.03854 0
M  V30 8802 H 816.325 4.60755 -0.224159 0
M  V30 8803 H 814.568 4.32895 -0.280092 0
M  V30 8804 H 815.239 5.44377 0.91423 0
M  V30 8805 H 817.715 3.74243 1.81883 0
M  V30 8806 H 816.591 4.72652 2.7909 0
M  V30 8807 H 816.852 3.04062 3.20934 0
M  V30 8808 N 815.911 -0.310526 1.54511 0
M  V30 8809 C 817.158 -1.04691 1.73338 0
M  V30 8810 C 817.486 -1.87584 0.514038 0
M  V30 8811 O 816.741 -1.89096 -0.504119 0
M  V30 8812 C 817.04 -1.98942 2.96912 0
M  V30 8813 C 816.706 -1.321 4.31115 0
M  V30 8814 C 815.368 -1.13603 4.67598 0
M  V30 8815 C 817.72 -0.842362 5.14348 0
M  V30 8816 C 815.048 -0.459102 5.84901 0
M  V30 8817 C 817.4 -0.179202 6.32346 0
M  V30 8818 C 816.064 0.0178111 6.67498 0
M  V30 8819 H 815.334 -0.38309 0.634289 0
M  V30 8820 H 817.981 -0.322723 1.88761 0
M  V30 8821 H 816.286 -2.77856 2.76231 0
M  V30 8822 H 817.983 -2.55972 3.08674 0
M  V30 8823 H 814.573 -1.47502 4.02419 0
M  V30 8824 H 818.757 -0.973013 4.86668 0
M  V30 8825 H 814.013 -0.295385 6.10686 0
M  V30 8826 H 818.187 0.199619 6.96114 0
M  V30 8827 H 815.814 0.544356 7.58249 0
M  V30 8828 N 817.389 -1.46805 -0.573248 0
M  V30 8829 C 818.614 -1.56433 -1.36175 0
M  V30 8830 C 819.039 -0.209336 -1.86932 0
M  V30 8831 O 818.397 0.812146 -1.62092 0
M  V30 8832 C 818.445 -2.58055 -2.51873 0
M  V30 8833 O 817.549 -2.12214 -3.53609 0
M  V30 8834 H 816.89 -0.526068 -0.405153 0
M  V30 8835 H 819.42 -1.92456 -0.694405 0
M  V30 8836 H 819.43 -2.77966 -2.98662 0
M  V30 8837 H 818.105 -3.56448 -2.14284 0
M  V30 8838 H 816.682 -2.02333 -3.13234 0
M  V30 8839 N 818.867 0.818669 -1.34668 0
M  V30 8840 C 820.114 1.57512 -1.27264 0
M  V30 8841 C 820.442 1.93871 0.156254 0
M  V30 8842 O 819.697 1.60582 1.11857 0
M  V30 8843 C 819.996 2.88245 -2.11304 0
M  V30 8844 C 819.662 2.71159 -3.60255 0
M  V30 8845 C 818.324 2.66207 -4.00858 0
M  V30 8846 C 820.676 2.54538 -4.54819 0
M  V30 8847 C 818.004 2.4256 -5.34211 0
M  V30 8848 C 820.356 2.32421 -5.88356 0
M  V30 8849 C 819.02 2.25884 -6.28118 0
M  V30 8850 H 818.29 0.576378 -0.465692 0
M  V30 8851 H 820.937 0.9469 -1.66451 0
M  V30 8852 H 819.242 3.55381 -1.64958 0
M  V30 8853 H 820.939 3.45869 -2.02919 0
M  V30 8854 H 817.529 2.75856 -3.28027 0
M  V30 8855 H 821.713 2.57384 -4.24343 0
M  V30 8856 H 816.969 2.35959 -5.64033 0
M  V30 8857 H 821.143 2.18548 -6.61218 0
M  V30 8858 H 818.77 2.07322 -7.31383 0
M  V30 8859 N 820.346 1.18468 1.03938 0
M  V30 8860 C 821.276 0.936389 2.13902 0
M  V30 8861 C 822.257 -0.126381 1.6963 0
M  V30 8862 O 823.442 0.0264757 1.94182 0
M  V30 8863 C 820.572 0.462729 3.44204 0
M  V30 8864 C 819.526 1.46613 4.02105 0
M  V30 8865 C 818.852 0.84994 5.27902 0
M  V30 8866 C 820.152 2.84323 4.3813 0
M  V30 8867 H 821.846 1.85602 2.3493 0
M  V30 8868 H 819.392 0.893806 1.12903 0
M  V30 8869 H 821.345 0.276382 4.20493 0
M  V30 8870 H 820.069 -0.492477 3.22866 0
M  V30 8871 H 818.728 1.63944 3.27899 0
M  V30 8872 H 818.376 -0.112493 5.02874 0
M  V30 8873 H 818.076 1.51988 5.67603 0
M  V30 8874 H 819.6 0.674152 6.06867 0
M  V30 8875 H 821.014 2.70636 5.054 0
M  V30 8876 H 819.411 3.48012 4.88884 0
M  V30 8877 H 820.481 3.37776 3.47901 0
M  V30 8878 N 821.824 -1.22873 0.986916 0
M  V30 8879 C 822.772 -2.26597 0.525043 0
M  V30 8880 C 823.766 -1.64079 -0.421252 0
M  V30 8881 O 824.972 -1.77576 -0.294429 0
M  V30 8882 H 821.347 -0.736606 0.151381 0
M  V30 8883 H 823.318 -2.62909 1.41142 0
M  V30 8884 C 822.067 -3.47374 -0.150542 0
M  V30 8885 H 821.39 -3.95737 0.568541 0
M  V30 8886 H 822.83 -4.21739 -0.437256 0
M  V30 8887 C 821.289 -3.07163 -1.38392 0
M  V30 8888 O 821.819 -3.16028 -2.47971 0
M  V30 8889 N 820.025 -2.62009 -1.25697 0
M  V30 8890 H 819.572 -2.54996 -0.365355 0
M  V30 8891 H 819.53 -2.35472 -2.08327 0
M  V30 8892 N 823.302 -0.75937 -1.38099 0
M  V30 8893 C 824.713 -0.385078 -1.82686 0
M  V30 8894 C 825.064 1.0871 -1.6333 0
M  V30 8895 O 824.189 1.84084 -1.13762 0
M  V30 8896 C 824.784 -0.692161 -3.31654 0
M  V30 8897 C 823.343 -0.371077 -3.74566 0
M  V30 8898 C 822.49 -0.942375 -2.60796 0
M  V30 8899 H 825.441 -0.955048 -1.26746 0
M  V30 8900 H 825.462 0.0276001 -3.8049 0
M  V30 8901 H 824.974 -1.76369 -3.4571 0
M  V30 8902 H 823.075 0.693637 -3.66087 0
M  V30 8903 H 823.188 -0.870672 -4.71122 0
M  V30 8904 H 821.552 -0.367383 -2.52036 0
M  V30 8905 H 822.335 -2.01905 -2.77649 0
M  V30 8906 N 824.78 1.49157 -0.508906 0
M  V30 8907 C 825.71 2.32109 0.254469 0
M  V30 8908 C 826.691 1.40754 0.955111 0
M  V30 8909 O 827.876 1.69658 0.944983 0
M  V30 8910 C 825.006 3.21458 1.3146 0
M  V30 8911 C 823.96 4.2167 0.733368 0
M  V30 8912 C 823.286 5.00009 1.8946 0
M  V30 8913 C 824.586 5.21544 -0.280875 0
M  V30 8914 H 826.28 2.9618 -0.43795 0
M  V30 8915 H 823.826 1.4243 -0.212062 0
M  V30 8916 H 825.779 3.78305 1.85643 0
M  V30 8917 H 824.503 2.55346 2.03632 0
M  V30 8918 H 823.162 3.65979 0.213231 0
M  V30 8919 H 822.81 4.30338 2.60419 0
M  V30 8920 H 822.51 5.67821 1.51173 0
M  V30 8921 H 824.034 5.59702 2.44061 0
M  V30 8922 H 825.448 5.73039 0.173095 0
M  V30 8923 H 823.845 5.97291 -0.580006 0
M  V30 8924 H 824.915 4.69969 -1.19404 0
M  V30 8925 N 826.258 0.243083 1.55714 0
M  V30 8926 C 827.483 -0.389944 2.03701 0
M  V30 8927 C 827.908 -1.51025 1.12129 0
M  V30 8928 O 827.266 -1.80944 0.11352 0
M  V30 8929 C 827.314 -0.878649 3.49731 0
M  V30 8930 O 826.418 -1.98851 3.61292 0
M  V30 8931 H 825.759 -0.0855115 0.658471 0
M  V30 8932 H 828.289 0.368023 2.01263 0
M  V30 8933 H 828.299 -1.18287 3.90477 0
M  V30 8934 H 826.974 -0.0588107 4.15858 0
M  V30 8935 H 825.551 -1.68928 3.32442 0
M  V30 8936 N 827.736 -1.57571 -0.0300757 0
M  V30 8937 C 829.147 -1.77567 -0.576802 0
M  V30 8938 C 829.498 -0.874034 -1.75656 0
M  V30 8939 O 828.623 -0.0686124 -2.16291 0
M  V30 8940 C 829.218 -3.22016 -1.05315 0
M  V30 8941 C 827.777 -3.43212 -1.5454 0
M  V30 8942 C 826.924 -2.73061 -0.483033 0
M  V30 8943 H 829.875 -1.57483 0.196151 0
M  V30 8944 H 829.896 -3.28474 -1.92055 0
M  V30 8945 H 829.408 -3.87613 -0.194298 0
M  V30 8946 H 827.509 -2.82788 -2.42615 0
M  V30 8947 H 827.622 -4.5182 -1.5936 0
M  V30 8948 H 825.986 -2.36805 -0.937835 0
M  V30 8949 H 826.769 -3.4134 0.366341 0
M  V30 8950 N 829.214 0.302327 -1.54673 0
M  V30 8951 C 830.491 1.05721 -1.64567 0
M  V30 8952 C 830.871 2.0526 -0.493108 0
M  V30 8953 O 830.219 2.22729 0.510315 0
M  V30 8954 C 830.429 1.74025 -3.02517 0
M  V30 8955 C 831.777 2.26271 -3.59286 0
M  V30 8956 O 832.801 1.8406 -3.0496 0
M  V30 8957 O 831.66 3.0361 -4.54404 0
M  V30 8958 H 828.754 0.488577 -0.667249 0
M  V30 8959 H 831.3 0.300521 -1.67018 0
M  V30 8960 H 830.072 1.0174 -3.77842 0
M  V30 8961 H 829.695 2.56454 -3.03838 0
M  V30 8962 N 830.692 1.47107 0.565454 0
M  V30 8963 C 831.941 1.5257 1.31929 0
M  V30 8964 C 832.254 0.189092 1.94684 0
M  V30 8965 O 833.46 0.121657 2.71227 0
M  V30 8966 C 831.916 2.68914 2.39193 0
M  V30 8967 C 831.524 4.09069 1.82665 0
M  V30 8968 C 833.268 2.83663 3.1581 0
M  V30 8969 C 831.175 5.16726 2.87661 0
M  V30 8970 H 830.105 0.567869 0.496025 0
M  V30 8971 H 832.756 1.73361 0.60151 0
M  V30 8972 H 831.138 2.41486 3.13848 0
M  V30 8973 H 832.312 4.46364 1.14438 0
M  V30 8974 H 830.627 3.99135 1.1866 0
M  V30 8975 H 833.224 3.61261 3.94201 0
M  V30 8976 H 833.567 1.91804 3.69482 0
M  V30 8977 H 834.1 3.10821 2.48265 0
M  V30 8978 H 830.839 6.10433 2.38854 0
M  V30 8979 H 830.359 4.83957 3.54324 0
M  V30 8980 H 832.038 5.43319 3.51303 0
M  V30 8981 N 832.17 -0.811516 1.35101 0
M  V30 8982 C 833.416 -1.57016 1.29296 0
M  V30 8983 C 833.771 -1.91941 -0.13288 0
M  V30 8984 O 833.064 -1.58121 -1.08204 0
M  V30 8985 C 833.258 -2.87121 2.1283 0
M  V30 8986 C 833.087 -2.64908 3.63392 0
M  V30 8987 C 831.857 -2.61055 4.32641 0
M  V30 8988 C 834.055 -2.35628 4.57148 0
M  V30 8989 N 832.037 -2.30508 5.68981 0
M  V30 8990 C 833.408 -2.14876 5.81574 0
M  V30 8991 C 835.463 -2.2145 4.45942 0
M  V30 8992 C 834.166 -1.81381 6.96055 0
M  V30 8993 C 836.192 -1.89352 5.60267 0
M  V30 8994 C 835.554 -1.69432 6.83719 0
M  V30 8995 H 831.653 -0.57649 0.528378 0
M  V30 8996 H 834.237 -0.950338 1.69931 0
M  V30 8997 H 832.408 -3.47007 1.74473 0
M  V30 8998 H 834.14 -3.52629 1.98582 0
M  V30 8999 H 830.895 -2.75531 3.85201 0
M  V30 9000 H 831.319 -2.18042 6.40927 0
M  V30 9001 H 835.961 -2.35551 3.51106 0
M  V30 9002 H 833.679 -1.66018 7.90863 0
M  V30 9003 H 837.265 -1.79098 5.53548 0
M  V30 9004 H 836.145 -1.44957 7.70686 0
M  V30 9005 N 833.648 -1.19017 -1.03309 0
M  V30 9006 C 834.581 -0.867457 -2.1107 0
M  V30 9007 C 835.559 0.173752 -1.61669 0
M  V30 9008 O 836.743 0.0510077 -1.88431 0
M  V30 9009 C 833.87 -0.297459 -3.37391 0
M  V30 9010 C 832.916 -1.31706 -4.05655 0
M  V30 9011 S 833.749 -2.87591 -4.51721 0
M  V30 9012 C 834.905 -2.32122 -5.81266 0
M  V30 9013 H 835.138 -1.78008 -2.38119 0
M  V30 9014 H 832.671 -1.01686 -1.16187 0
M  V30 9015 H 834.629 0.0248889 -4.10492 0
M  V30 9016 H 833.29 0.5934 -3.08444 0
M  V30 9017 H 832.483 -0.867264 -4.96482 0
M  V30 9018 H 832.085 -1.58603 -3.38705 0
M  V30 9019 H 834.377 -1.70855 -6.55603 0
M  V30 9020 H 835.32 -3.2128 -6.31019 0
M  V30 9021 H 835.728 -1.74858 -5.36736 0
M  V30 9022 N 835.127 1.22348 -0.993418 0
M  V30 9023 C 836.357 1.94842 -0.687023 0
M  V30 9024 C 836.765 1.73594 0.752445 0
M  V30 9025 O 836.108 1.03238 1.51946 0
M  V30 9026 C 836.17 3.47694 -0.913754 0
M  V30 9027 C 835.834 3.92678 -2.33781 0
M  V30 9028 C 836.831 4.0031 -3.31734 0
M  V30 9029 C 834.516 4.25311 -2.67237 0
M  V30 9030 C 836.51 4.39951 -4.61218 0
M  V30 9031 C 834.197 4.64631 -3.9694 0
M  V30 9032 C 835.195 4.71919 -4.93742 0
M  V30 9033 O 834.883 5.10349 -6.21127 0
M  V30 9034 H 834.615 0.626771 -0.253247 0
M  V30 9035 H 837.169 1.56436 -1.33105 0
M  V30 9036 H 835.399 3.86115 -0.212552 0
M  V30 9037 H 837.088 4.01403 -0.602528 0
M  V30 9038 H 837.854 3.75288 -3.07219 0
M  V30 9039 H 833.733 4.18842 -1.92594 0
M  V30 9040 H 837.277 4.45555 -5.36774 0
M  V30 9041 H 833.174 4.89104 -4.21245 0
M  V30 9042 H 833.942 5.2842 -6.25072 0
M  V30 9043 N 836.605 0.766683 1.37694 0
M  V30 9044 C 837.854 0.325425 1.99057 0
M  V30 9045 C 838.167 -1.10275 1.61551 0
M  V30 9046 O 839.373 -1.64513 2.1598 0
M  V30 9047 C 837.829 0.530886 3.55963 0
M  V30 9048 C 837.437 1.96899 4.02411 0
M  V30 9049 C 839.181 0.152997 4.24224 0
M  V30 9050 C 837.088 2.12232 5.52007 0
M  V30 9051 H 836.018 0.117929 0.744721 0
M  V30 9052 H 838.669 0.945091 1.5729 0
M  V30 9053 H 837.051 -0.158162 3.95684 0
M  V30 9054 H 838.225 2.69258 3.73948 0
M  V30 9055 H 836.54 2.303 3.46916 0
M  V30 9056 H 839.137 0.24614 5.34133 0
M  V30 9057 H 839.48 -0.896096 4.06541 0
M  V30 9058 H 840.013 0.794398 3.89787 0
M  V30 9059 H 836.752 3.15442 5.7461 0
M  V30 9060 H 836.272 1.4435 5.82171 0
M  V30 9061 H 837.951 1.9185 6.17902 0
M  V30 9062 N 838.083 -1.48885 0.516809 0
M  V30 9063 C 839.013 -2.32241 -0.242157 0
M  V30 9064 C 839.994 -1.41258 -0.947633 0
M  V30 9065 O 841.179 -1.70156 -0.935973 0
M  V30 9066 C 838.309 -3.22151 -1.29754 0
M  V30 9067 C 837.263 -4.22053 -0.710995 0
M  V30 9068 C 836.589 -5.01007 -1.86806 0
M  V30 9069 C 837.889 -5.21388 0.30853 0
M  V30 9070 H 839.583 -2.95943 0.453651 0
M  V30 9071 H 837.129 -1.42316 0.219612 0
M  V30 9072 H 839.082 -3.79284 -1.83634 0
M  V30 9073 H 837.806 -2.56423 -2.02274 0
M  V30 9074 H 836.465 -3.66087 -0.193819 0
M  V30 9075 H 836.113 -4.31713 -2.58133 0
M  V30 9076 H 835.813 -5.68615 -1.48159 0
M  V30 9077 H 837.337 -5.60989 -2.4109 0
M  V30 9078 H 838.751 -5.73122 -0.142703 0
M  V30 9079 H 837.148 -5.96975 0.611673 0
M  V30 9080 H 838.218 -4.69329 1.21894 0
M  V30 9081 N 839.561 -0.251338 -1.55583 0
M  V30 9082 C 840.491 0.640437 -2.24545 0
M  V30 9083 C 841.472 1.17781 -1.22726 0
M  V30 9084 O 842.657 1.21633 -1.5139 0
M  V30 9085 C 839.787 1.8355 -2.94834 0
M  V30 9086 C 838.741 1.4307 -4.03379 0
M  V30 9087 C 838.067 2.70695 -4.61116 0
M  V30 9088 C 839.367 0.59848 -5.1886 0
M  V30 9089 H 841.061 0.0653772 -2.99329 0
M  V30 9090 H 838.607 0.0300042 -1.43969 0
M  V30 9091 H 840.56 2.46505 -3.4178 0
M  V30 9092 H 839.284 2.43601 -2.17546 0
M  V30 9093 H 837.943 0.824474 -3.57209 0
M  V30 9094 H 837.591 3.28954 -3.80524 0
M  V30 9095 H 837.291 2.44332 -5.34393 0
M  V30 9096 H 838.815 3.34541 -5.10798 0
M  V30 9097 H 840.229 1.13244 -5.62004 0
M  V30 9098 H 838.626 0.430728 -5.98552 0
M  V30 9099 H 839.696 -0.38829 -4.83343 0
M  V30 9100 N 841.039 1.57585 0.0217189 0
M  V30 9101 C 842.002 2.06004 1.00474 0
M  V30 9102 C 843.002 0.965461 1.2859 0
M  V30 9103 O 844.192 1.22884 1.23471 0
M  V30 9104 C 841.324 2.48319 2.33561 0
M  V30 9105 H 842.517 2.94112 0.586346 0
M  V30 9106 H 840.07 1.53973 0.268716 0
M  V30 9107 H 840.805 1.63389 2.80133 0
M  V30 9108 H 840.59 3.28239 2.1448 0
M  V30 9109 H 842.08 2.86181 3.04122 0
M  V30 9110 N 842.517 -0.29412 1.54831 0
M  V30 9111 C 843.747 -1.04572 1.7818 0
M  V30 9112 C 844.155 -1.81187 0.544776 0
M  V30 9113 O 843.498 -1.769 -0.495169 0
M  V30 9114 C 843.56 -2.06748 2.94101 0
M  V30 9115 C 843.224 -1.49265 4.31936 0
M  V30 9116 C 844.221 -0.919136 5.11711 0
M  V30 9117 C 841.906 -1.52621 4.78552 0
M  V30 9118 C 843.9 -0.386824 6.36225 0
M  V30 9119 C 841.587 -0.990031 6.03027 0
M  V30 9120 C 842.585 -0.421315 6.81699 0
M  V30 9121 O 842.273 0.106713 8.03829 0
M  V30 9122 H 842.005 -0.31559 0.597812 0
M  V30 9123 H 844.559 -0.336817 2.0262 0
M  V30 9124 H 842.789 -2.81339 2.65303 0
M  V30 9125 H 844.478 -2.67865 3.04964 0
M  V30 9126 H 845.244 -0.886062 4.76837 0
M  V30 9127 H 841.123 -1.95826 4.17341 0
M  V30 9128 H 844.667 0.0577248 6.97576 0
M  V30 9129 H 840.564 -1.02027 6.37386 0
M  V30 9130 H 841.332 -0.00593526 8.185 0
M  V30 9131 N 843.995 -1.47404 -0.557645 0
M  V30 9132 C 844.925 -1.62736 -1.67449 0
M  V30 9133 C 845.906 -0.476824 -1.6328 0
M  V30 9134 O 847.091 -0.706108 -1.80908 0
M  V30 9135 C 844.221 -1.641 -3.06086 0
M  V30 9136 C 843.175 -2.78377 -3.25101 0
M  V30 9137 C 842.501 -2.64812 -4.6452 0
M  V30 9138 C 843.801 -4.19971 -3.10518 0
M  V30 9139 H 845.495 -2.56232 -1.54873 0
M  V30 9140 H 843.041 -1.23312 -0.743649 0
M  V30 9141 H 844.994 -1.73417 -3.84063 0
M  V30 9142 H 843.718 -0.671652 -3.19619 0
M  V30 9143 H 842.377 -2.6857 -2.49531 0
M  V30 9144 H 842.025 -1.65906 -4.74852 0
M  V30 9145 H 841.725 -3.41477 -4.78191 0
M  V30 9146 H 843.249 -2.76057 -5.44633 0
M  V30 9147 H 844.663 -4.30757 -3.78313 0
M  V30 9148 H 843.06 -4.97419 -3.35699 0
M  V30 9149 H 844.13 -4.38369 -2.0727 0
M  V30 9150 N 845.473 0.80434 -1.35529 0
M  V30 9151 C 846.721 1.55845 -1.28673 0
M  V30 9152 C 847.042 1.94511 0.137976 0
M  V30 9153 O 846.312 1.63775 1.07492 0
M  V30 9154 H 844.892 0.577931 -0.473291 0
M  V30 9155 H 847.554 0.959293 -1.69657 0
M  V30 9156 H 846.65 2.47285 -1.90411 0
M  V30 9157 N 846.951 1.19563 1.02676 0
M  V30 9158 C 848.197 1.00105 1.76371 0
M  V30 9159 C 848.53 -0.466823 1.88506 0
M  V30 9160 O 847.805 -1.34665 1.40341 0
M  V30 9161 C 848.088 1.67321 3.18866 0
M  V30 9162 C 847.941 3.21486 3.1459 0
M  V30 9163 C 849.26 1.39794 4.17308 0
M  V30 9164 H 846.379 0.365075 0.640226 0
M  V30 9165 H 849.021 1.47433 1.19848 0
M  V30 9166 H 847.171 1.27081 3.67128 0
M  V30 9167 H 848.843 3.70953 2.7421 0
M  V30 9168 H 847.086 3.5292 2.52249 0
M  V30 9169 H 847.757 3.63665 4.15273 0
M  V30 9170 H 850.233 1.74685 3.77657 0
M  V30 9171 H 849.109 1.89371 5.15199 0
M  V30 9172 H 849.37 0.323505 4.40915 0
M  V30 9173 N 848.429 -1.21819 0.999893 0
M  V30 9174 C 849.654 -1.95298 0.698094 0
M  V30 9175 C 850.079 -1.73273 -0.731982 0
M  V30 9176 O 849.437 -1.01634 -1.50134 0
M  V30 9177 C 849.485 -3.45922 1.01834 0
M  V30 9178 O 848.589 -4.12223 0.120801 0
M  V30 9179 H 847.93 -0.610729 0.260588 0
M  V30 9180 H 850.46 -1.5472 1.33876 0
M  V30 9181 H 850.47 -3.96471 0.963074 0
M  V30 9182 H 849.145 -3.61278 2.06037 0
M  V30 9183 H 847.722 -3.72177 0.232153 0
M  V30 9184 N 849.908 -0.773975 -1.37286 0
M  V30 9185 C 851.148 -0.344505 -2.01476 0
M  V30 9186 C 851.512 1.05966 -1.6011 0
M  V30 9187 O 852.713 1.58937 -2.16778 0
M  V30 9188 C 850.984 -0.485816 -3.54083 0
M  V30 9189 S 852.543 -0.141939 -4.3857 0
M  V30 9190 H 849.361 -0.13243 -0.698558 0
M  V30 9191 H 851.963 -1.00908 -1.67445 0
M  V30 9192 H 850.667 -1.50835 -3.81677 0
M  V30 9193 H 850.198 0.195232 -3.92915 0
M  V30 9194 H 852.213 1.06177 -4.84707 0
M  V30 9195 N 851.386 1.48609 -0.524698 0
M  V30 9196 C 852.632 2.02797 0.0113382 0
M  V30 9197 C 852.965 1.40147 1.34433 0
M  V30 9198 O 852.24 0.545368 1.86698 0
M  V30 9199 C 852.523 3.59832 0.138931 0
M  V30 9200 C 852.376 4.32971 -1.21886 0
M  V30 9201 C 853.695 4.3145 0.868265 0
M  V30 9202 H 850.814 0.736995 0.00264645 0
M  V30 9203 H 853.456 1.77388 -0.680704 0
M  V30 9204 H 851.606 3.81612 0.72834 0
M  V30 9205 H 853.278 4.22624 -1.84897 0
M  V30 9206 H 851.521 3.94597 -1.80211 0
M  V30 9207 H 852.192 5.41279 -1.08263 0
M  V30 9208 H 854.668 4.14468 0.368145 0
M  V30 9209 H 853.544 5.41025 0.926428 0
M  V30 9210 H 853.805 3.98358 1.91737 0
M  V30 9211 N 852.864 0.259585 1.55447 0
M  V30 9212 C 853.794 -0.62852 2.24882 0
M  V30 9213 C 854.775 -1.17128 1.23349 0
M  V30 9214 O 855.96 -1.20829 1.52033 0
M  V30 9215 C 853.09 -1.81983 2.95803 0
M  V30 9216 C 852.044 -1.40929 4.04132 0
M  V30 9217 C 851.37 -2.68246 4.62545 0
M  V30 9218 C 852.67 -0.570956 5.1917 0
M  V30 9219 H 854.364 -0.0495021 2.99359 0
M  V30 9220 H 851.91 -0.0223688 1.43983 0
M  V30 9221 H 853.863 -2.44689 3.43082 0
M  V30 9222 H 852.587 -2.42444 2.18835 0
M  V30 9223 H 851.246 -0.805519 3.57641 0
M  V30 9224 H 850.894 -3.26931 3.82263 0
M  V30 9225 H 850.594 -2.41495 5.35681 0
M  V30 9226 H 852.118 -3.31827 5.12565 0
M  V30 9227 H 853.532 -1.10262 5.62597 0
M  V30 9228 H 851.929 -0.398979 5.98772 0
M  V30 9229 H 852.999 0.413918 4.8313 0
M  V30 9230 N 854.342 -1.57594 -0.0133615 0
M  V30 9231 C 855.589 -1.8998 -0.70098 0
M  V30 9232 C 855.917 -0.858802 -1.74513 0
M  V30 9233 O 855.172 0.138209 -1.95211 0
M  V30 9234 C 855.471 -3.29121 -1.39336 0
M  V30 9235 C 855.137 -4.48298 -0.483687 0
M  V30 9236 C 853.799 -4.80635 -0.233186 0
M  V30 9237 C 856.151 -5.21003 0.143426 0
M  V30 9238 C 853.479 -5.83055 0.652943 0
M  V30 9239 C 855.831 -6.24366 1.01735 0
M  V30 9240 C 854.495 -6.55168 1.27716 0
M  V30 9241 H 853.765 -0.695187 -0.256507 0
M  V30 9242 H 856.412 -1.9146 0.0392965 0
M  V30 9243 H 854.717 -3.23703 -2.20735 0
M  V30 9244 H 856.414 -3.51433 -1.93121 0
M  V30 9245 H 853.004 -4.23024 -0.689092 0
M  V30 9246 H 857.188 -4.96286 -0.0371139 0
M  V30 9247 H 852.444 -6.05288 0.862379 0
M  V30 9248 H 856.618 -6.79839 1.5097 0
M  V30 9249 H 854.245 -7.34351 1.9655 0
M  V30 9250 N 855.82 0.285905 -1.54985 0
M  V30 9251 C 857.066 1.02071 -1.75241 0
M  V30 9252 C 857.399 1.864 -0.544842 0
M  V30 9253 O 856.674 1.89034 0.457844 0
M  V30 9254 C 856.957 1.91409 -3.05016 0
M  V30 9255 C 856.81 1.10158 -4.36102 0
M  V30 9256 C 858.129 2.90335 -3.30747 0
M  V30 9257 H 855.248 0.369663 -0.637588 0
M  V30 9258 H 857.89 0.294114 -1.8771 0
M  V30 9259 H 856.04 2.53362 -2.94517 0
M  V30 9260 H 857.712 0.503756 -4.58541 0
M  V30 9261 H 855.955 0.404675 -4.31908 0
M  V30 9262 H 856.626 1.75956 -5.23205 0
M  V30 9263 H 859.102 2.38514 -3.40955 0
M  V30 9264 H 857.978 3.49997 -4.2284 0
M  V30 9265 H 858.239 3.64787 -2.49765 0
M  V30 9266 N 857.298 1.47698 0.54982 0
M  V30 9267 C 858.547 1.53961 1.30303 0
M  V30 9268 C 858.86 0.209731 1.94472 0
M  V30 9269 O 860.066 0.150418 2.71083 0
M  V30 9270 C 858.522 2.71436 2.36328 0
M  V30 9271 C 858.13 4.10983 1.78316 0
M  V30 9272 C 859.874 2.86996 3.12783 0
M  V30 9273 C 857.781 5.19747 2.82164 0
M  V30 9274 H 856.711 0.573098 0.489975 0
M  V30 9275 H 859.362 1.73989 0.583089 0
M  V30 9276 H 857.744 2.44801 3.11269 0
M  V30 9277 H 858.918 4.47552 1.09697 0
M  V30 9278 H 857.233 4.00371 1.1442 0
M  V30 9279 H 859.83 3.65422 3.90347 0
M  V30 9280 H 860.173 1.95712 3.67427 0
M  V30 9281 H 860.706 3.13436 2.44954 0
M  V30 9282 H 857.445 6.12932 2.32366 0
M  V30 9283 H 856.965 4.87688 3.49171 0
M  V30 9284 H 858.644 5.47014 3.4552 0
M  V30 9285 N 858.776 -0.797141 1.35954 0
M  V30 9286 C 859.739 -1.89104 1.29508 0
M  V30 9287 C 860.739 -1.59495 0.204444 0
M  V30 9288 O 861.929 -1.68051 0.458746 0
M  V30 9289 C 859.061 -3.25726 1.00576 0
M  V30 9290 H 860.254 -1.96237 2.26785 0
M  V30 9291 H 857.807 -0.994075 1.20614 0
M  V30 9292 H 858.542 -3.24279 0.0372519 0
M  V30 9293 H 858.327 -3.48604 1.79492 0
M  V30 9294 H 859.817 -4.0578 0.986508 0
M  V30 9295 N 860.254 -1.20106 -1.0204 0
M  V30 9296 C 861.67 -0.955099 -1.27867 0
M  V30 9297 C 861.87 0.367595 -1.98119 0
M  V30 9298 O 860.926 1.09705 -2.27423 0
M  V30 9299 C 862.239 -2.13507 -2.11744 0
M  V30 9300 C 863.787 -2.17563 -2.25023 0
M  V30 9301 C 864.262 -3.35035 -3.12275 0
M  V30 9302 N 865.753 -3.35024 -3.19864 0
M  V30 9303 C 866.488 -4.22566 -3.8759 0
M  V30 9304 N 865.984 -5.20278 -4.57474 0
M  V30 9305 N 867.777 -4.10418 -3.84075 0
M  V30 9306 H 859.928 -2.05193 -0.54861 0
M  V30 9307 H 862.191 -0.897689 -0.304728 0
M  V30 9308 H 861.897 -3.09275 -1.67456 0
M  V30 9309 H 861.771 -2.11281 -3.12474 0
M  V30 9310 H 864.158 -1.22359 -2.68537 0
M  V30 9311 H 864.239 -2.23838 -1.23815 0
M  V30 9312 H 863.883 -4.30522 -2.69468 0
M  V30 9313 H 863.813 -3.25996 -4.13563 0
M  V30 9314 H 866.304 -2.64299 -2.701 0
M  V30 9315 H 866.617 -5.83408 -5.06809 0
M  V30 9316 H 864.962 -5.24219 -4.56311 0
M  V30 9317 H 868.153 -3.33353 -3.28623 0
M  V30 9318 H 868.326 -4.78854 -4.36581 0
M  V30 9319 N 861.732 1.21287 -1.00634 0
M  V30 9320 C 862.979 1.90389 -0.6898 0
M  V30 9321 C 863.307 1.78193 0.779574 0
M  V30 9322 O 862.562 1.15358 1.58085 0
M  V30 9323 C 862.861 3.41374 -1.05824 0
M  V30 9324 C 862.527 3.73766 -2.5221 0
M  V30 9325 C 861.189 3.82317 -2.92211 0
M  V30 9326 C 863.541 3.88871 -3.47028 0
M  V30 9327 C 860.869 4.03423 -4.2599 0
M  V30 9328 C 863.221 4.11484 -4.80483 0
M  V30 9329 C 861.885 4.18263 -5.20204 0
M  V30 9330 H 861.155 0.696683 -0.252416 0
M  V30 9331 H 863.802 1.43769 -1.26502 0
M  V30 9332 H 862.107 3.8974 -0.401281 0
M  V30 9333 H 863.804 3.93118 -0.79116 0
M  V30 9334 H 860.394 3.67702 -2.20212 0
M  V30 9335 H 864.578 3.8163 -3.17289 0
M  V30 9336 H 859.834 4.06902 -4.56334 0
M  V30 9337 H 864.008 4.22115 -5.53888 0
M  V30 9338 H 861.635 4.34369 -6.23881 0
M  V30 9339 N 863.21 0.781244 1.36873 0
M  V30 9340 C 864.435 0.360398 2.04245 0
M  V30 9341 C 864.86 -1.01242 1.58529 0
M  V30 9342 O 864.218 -1.65063 0.749936 0
M  V30 9343 C 864.266 0.42329 3.58107 0
M  V30 9344 O 863.37 -0.572796 4.08403 0
M  V30 9345 H 862.711 0.154386 0.645803 0
M  V30 9346 H 865.241 1.06008 1.74996 0
M  V30 9347 H 865.251 0.283967 4.07011 0
M  V30 9348 H 863.926 1.42477 3.90734 0
M  V30 9349 H 862.503 -0.395809 3.70793 0
M  V30 9350 N 864.689 -1.48329 0.532571 0
M  V30 9351 C 866.1 -1.86469 0.0927749 0
M  V30 9352 C 866.451 -1.44186 -1.3306 0
M  V30 9353 O 865.576 -0.833741 -1.99694 0
M  V30 9354 C 866.171 -3.38414 0.161588 0
M  V30 9355 C 864.73 -3.75739 -0.223028 0
M  V30 9356 C 863.877 -2.72377 0.520199 0
M  V30 9357 H 866.828 -1.40197 0.743678 0
M  V30 9358 H 866.849 -3.75314 -0.626059 0
M  V30 9359 H 866.361 -3.69159 1.19765 0
M  V30 9360 H 864.462 -3.50608 -1.26113 0
M  V30 9361 H 864.575 -4.78954 0.118385 0
M  V30 9362 H 862.939 -2.54678 -0.0338425 0
M  V30 9363 H 863.722 -3.05965 1.55694 0
M  V30 9364 N 866.167 -0.267825 -1.55308 0
M  V30 9365 C 867.397 0.354073 -2.03543 0
M  V30 9366 C 867.805 1.50554 -1.14586 0
M  V30 9367 O 867.148 1.83028 -0.156991 0
M  V30 9368 C 867.21 0.904148 -3.47945 0
M  V30 9369 C 866.874 -0.11775 -4.56848 0
M  V30 9370 C 867.871 -0.934707 -5.11429 0
M  V30 9371 C 865.556 -0.249885 -5.01678 0
M  V30 9372 C 867.55 -1.87005 -6.0935 0
M  V30 9373 C 865.237 -1.18872 -5.99427 0
M  V30 9374 C 866.235 -1.99731 -6.53144 0
M  V30 9375 O 865.923 -2.92028 -7.48983 0
M  V30 9376 H 865.655 0.0857765 -0.670536 0
M  V30 9377 H 868.209 -0.395515 -2.01556 0
M  V30 9378 H 866.439 1.70368 -3.47148 0
M  V30 9379 H 868.128 1.43835 -3.79561 0
M  V30 9380 H 868.894 -0.84332 -4.77612 0
M  V30 9381 H 864.773 0.369469 -4.59517 0
M  V30 9382 H 868.317 -2.5016 -6.51203 0
M  V30 9383 H 864.214 -1.28095 -6.32663 0
M  V30 9384 H 864.982 -2.86627 -7.66673 0
M  V30 9385 N 867.645 1.57599 0.00500368 0
M  V30 9386 C 868.555 2.11532 1.01446 0
M  V30 9387 C 869.571 1.05941 1.3803 0
M  V30 9388 O 870.747 1.37815 1.46864 0
M  V30 9389 C 867.812 2.60382 2.28915 0
M  V30 9390 C 866.873 3.80554 1.98689 0
M  V30 9391 C 866.106 4.27064 3.20081 0
M  V30 9392 O 866.329 3.72939 4.31593 0
M  V30 9393 O 865.263 5.1927 3.04371 0
M  V30 9394 H 869.089 2.97993 0.586011 0
M  V30 9395 H 866.674 1.47718 0.223519 0
M  V30 9396 H 868.556 2.92024 3.03809 0
M  V30 9397 H 867.231 1.77022 2.71007 0
M  V30 9398 H 866.138 3.53893 1.21286 0
M  V30 9399 H 867.471 4.64972 1.61437 0
M  V30 9400 N 869.123 -0.277682 1.55134 0
M  V30 9401 C 870.369 -1.00733 1.76704 0
M  V30 9402 C 870.724 -1.84107 0.55879 0
M  V30 9403 O 870.017 -1.86275 -0.448591 0
M  V30 9404 C 870.211 -1.92599 3.01065 0
M  V30 9405 C 870.04 -1.18266 4.3387 0
M  V30 9406 C 868.81 -0.900254 4.97216 0
M  V30 9407 C 871.008 -0.575419 5.11071 0
M  V30 9408 N 868.99 -0.129637 6.13763 0
M  V30 9409 C 870.361 0.0612637 6.1997 0
M  V30 9410 C 872.416 -0.482794 4.95554 0
M  V30 9411 C 871.119 0.781637 7.15041 0
M  V30 9412 C 873.145 0.223977 5.90976 0
M  V30 9413 C 872.507 0.849416 6.9926 0
M  V30 9414 H 868.606 -0.35075 0.698927 0
M  V30 9415 H 871.19 -0.283482 1.92625 0
M  V30 9416 H 869.361 -2.62214 2.86528 0
M  V30 9417 H 871.093 -2.5889 3.1106 0
M  V30 9418 H 867.848 -1.20434 4.58031 0
M  V30 9419 H 868.272 0.242865 6.76564 0
M  V30 9420 H 872.914 -0.952023 4.11942 0
M  V30 9421 H 870.632 1.26256 7.98176 0
M  V30 9422 H 874.218 0.2959 5.81047 0
M  V30 9423 H 873.098 1.3876 7.71826 0
M  V30 9424 N 870.601 -1.47988 -0.541979 0
M  V30 9425 C 871.831 -1.58804 -1.32155 0
M  V30 9426 C 872.239 -0.242893 -1.87634 0
M  V30 9427 O 871.582 0.776239 -1.66494 0
M  V30 9428 C 871.644 -2.56567 -2.51821 0
M  V30 9429 C 871.308 -4.01915 -2.17517 0
M  V30 9430 C 872.305 -4.89954 -1.73901 0
M  V30 9431 C 869.99 -4.47365 -2.28408 0
M  V30 9432 C 871.984 -6.21467 -1.41625 0
M  V30 9433 C 869.671 -5.78902 -1.95745 0
M  V30 9434 C 870.669 -6.65775 -1.52423 0
M  V30 9435 O 870.357 -7.94866 -1.20183 0
M  V30 9436 H 870.089 -0.538536 -0.408601 0
M  V30 9437 H 872.643 -1.94446 -0.661818 0
M  V30 9438 H 870.873 -2.16023 -3.20735 0
M  V30 9439 H 872.562 -2.57347 -3.13891 0
M  V30 9440 H 873.328 -4.56082 -1.64966 0
M  V30 9441 H 869.207 -3.79942 -2.61084 0
M  V30 9442 H 872.751 -6.8923 -1.07738 0
M  V30 9443 H 868.648 -6.12311 -2.04316 0
M  V30 9444 H 869.416 -8.07509 -1.33683 0
M  V30 9445 N 872.079 0.78992 -1.36375 0
M  V30 9446 C 873.027 1.92394 -1.30719 0
M  V30 9447 C 874.021 1.68226 -0.199076 0
M  V30 9448 O 875.227 1.76239 -0.366051 0
M  V30 9449 H 871.602 0.632382 -0.406936 0
M  V30 9450 H 873.573 1.94282 -2.26488 0
M  V30 9451 C 872.322 3.2941 -1.11284 0
M  V30 9452 H 871.645 3.48573 -1.95798 0
M  V30 9453 H 873.085 4.09111 -1.11373 0
M  V30 9454 C 871.544 3.36405 0.182543 0
M  V30 9455 O 872.074 3.84206 1.17255 0
M  V30 9456 N 870.28 2.89712 0.227046 0
M  V30 9457 H 869.827 2.51004 -0.579217 0
M  V30 9458 H 869.785 2.94773 1.09344 0
M  V30 9459 N 873.557 1.20646 1.01402 0
M  V30 9460 C 874.968 1.01823 1.56489 0
M  V30 9461 C 875.319 -0.42463 1.9155 0
M  V30 9462 O 874.444 -1.30644 1.72514 0
M  V30 9463 C 875.039 1.84208 2.84347 0
M  V30 9464 C 873.598 1.69743 3.35953 0
M  V30 9465 C 872.745 1.8198 2.09233 0
M  V30 9466 H 875.696 1.348 0.837539 0
M  V30 9467 H 875.717 1.34698 3.55861 0
M  V30 9468 H 875.229 2.89215 2.58798 0
M  V30 9469 H 873.33 0.673833 3.66456 0
M  V30 9470 H 873.443 2.51173 4.07981 0
M  V30 9471 H 871.807 1.25193 2.21808 0
M  V30 9472 H 872.59 2.88477 1.86107 0
M  V30 9473 N 875.035 -1.20752 1.01276 0
M  V30 9474 C 875.985 -2.21252 0.550602 0
M  V30 9475 C 876.969 -1.56052 -0.391985 0
M  V30 9476 O 878.161 -1.75682 -0.215575 0
M  V30 9477 C 875.29 -3.43112 -0.113601 0
M  V30 9478 C 874.376 -4.15485 0.850465 0
M  V30 9479 N 874.767 -4.64301 2.00643 0
M  V30 9480 C 873.065 -4.40932 0.670476 0
M  V30 9481 C 873.766 -5.197 2.61317 0
M  V30 9482 N 872.742 -5.09534 1.8941 0
M  V30 9483 H 876.544 -2.56657 1.43194 0
M  V30 9484 H 874.058 -1.36646 0.877597 0
M  V30 9485 H 876.055 -4.1433 -0.462211 0
M  V30 9486 H 874.715 -3.09213 -0.990825 0
M  V30 9487 H 875.726 -4.59637 2.38651 0
M  V30 9488 H 872.403 -4.17197 -0.159016 0
M  V30 9489 H 873.793 -5.67873 3.59123 0
M  V30 9490 N 876.513 -0.788492 -1.36457 0
M  V30 9491 C 877.924 -0.423742 -1.81828 0
M  V30 9492 C 878.275 1.05221 -1.65599 0
M  V30 9493 O 877.4 1.8163 -1.17641 0
M  V30 9494 C 877.995 -0.762354 -3.30112 0
M  V30 9495 C 876.554 -0.450445 -3.73695 0
M  V30 9496 C 875.701 -0.997482 -2.58738 0
M  V30 9497 H 878.652 -0.981718 -1.24692 0
M  V30 9498 H 878.673 -0.0531136 -3.80463 0
M  V30 9499 H 878.185 -1.83662 -3.41891 0
M  V30 9500 H 876.286 0.615829 -3.67476 0
M  V30 9501 H 876.399 -0.970408 -4.69169 0
M  V30 9502 H 874.763 -0.420761 -2.51201 0
M  V30 9503 H 875.546 -2.07749 -2.73304 0
M  V30 9504 N 877.991 1.48044 -0.54043 0
M  V30 9505 C 879.231 2.04396 -0.012296 0
M  V30 9506 C 879.595 1.40748 1.30591 0
M  V30 9507 O 880.796 1.88048 1.92072 0
M  V30 9508 C 879.067 3.5727 0.0964302 0
M  V30 9509 S 880.626 4.35041 0.573117 0
M  V30 9510 H 877.444 0.710795 -0.0170735 0
M  V30 9511 H 880.046 1.81625 -0.723362 0
M  V30 9512 H 878.75 4.01124 -0.86762 0
M  V30 9513 H 878.281 3.84511 0.83156 0
M  V30 9514 H 880.296 4.6099 1.83583 0
M  V30 9515 N 879.47 0.276058 1.55163 0
M  V30 9516 C 880.418 -0.626978 2.2399 0
M  V30 9517 C 881.412 -1.15708 1.23725 0
M  V30 9518 O 882.618 -1.1106 1.41653 0
M  V30 9519 H 878.993 -0.220742 0.718872 0
M  V30 9520 H 880.964 -0.0236569 2.98391 0
M  V30 9521 C 879.713 -1.79935 2.97521 0
M  V30 9522 H 879.036 -1.40064 3.74463 0
M  V30 9523 H 880.476 -2.40781 3.48999 0
M  V30 9524 C 878.935 -2.68838 2.03046 0
M  V30 9525 O 879.465 -3.69224 1.58229 0
M  V30 9526 N 877.671 -2.36028 1.69527 0
M  V30 9527 H 877.218 -1.54442 2.06169 0
M  V30 9528 H 877.176 -2.95782 1.06586 0
M  V30 9529 N 880.948 -1.576 0.00335426 0
M  V30 9530 C 882.359 -1.7875 -0.539008 0
M  V30 9531 C 882.71 -0.911097 -1.73763 0
M  V30 9532 O 881.835 -0.114476 -2.16097 0
M  V30 9533 C 882.43 -3.24177 -0.984611 0
M  V30 9534 C 880.989 -3.46412 -1.47226 0
M  V30 9535 C 880.136 -2.74024 -0.425004 0
M  V30 9536 H 883.087 -1.57032 0.229511 0
M  V30 9537 H 883.108 -3.32474 -1.85044 0
M  V30 9538 H 882.62 -3.87938 -0.112035 0
M  V30 9539 H 880.721 -2.8787 -2.36562 0
M  V30 9540 H 880.834 -4.55098 -1.49741 0
M  V30 9541 H 879.198 -2.38741 -0.887394 0
M  V30 9542 H 879.981 -3.40486 0.438662 0
M  V30 9543 N 882.426 0.269451 -1.5528 0
M  V30 9544 C 883.703 1.02207 -1.66773 0
M  V30 9545 C 884.083 2.04168 -0.536536 0
M  V30 9546 O 883.431 2.23761 0.462956 0
M  V30 9547 C 883.641 1.67569 -3.0614 0
M  V30 9548 C 884.989 2.18599 -3.64005 0
M  V30 9549 O 886.013 1.7755 -3.08795 0
M  V30 9550 O 884.872 2.93903 -4.60742 0
M  V30 9551 H 881.966 0.474314 -0.677462 0
M  V30 9552 H 884.512 0.265026 -1.67618 0
M  V30 9553 H 883.284 0.937029 -3.79915 0
M  V30 9554 H 882.907 2.49951 -3.09209 0
M  V30 9555 N 883.904 1.48273 0.534124 0
M  V30 9556 C 885.129 1.59988 1.31979 0
M  V30 9557 C 885.554 0.258824 1.86311 0
M  V30 9558 O 884.912 -0.768885 1.64188 0
M  V30 9559 C 884.96 2.64642 2.44943 0
M  V30 9560 O 884.064 2.21515 3.47858 0
M  V30 9561 H 883.405 0.536625 0.391063 0
M  V30 9562 H 885.935 1.94229 0.643135 0
M  V30 9563 H 885.945 2.85786 2.91187 0
M  V30 9564 H 884.62 3.62004 2.04758 0
M  V30 9565 H 883.197 2.10567 3.0776 0
M  V30 9566 N 885.382 -0.782676 1.36792 0
M  V30 9567 C 886.659 -1.52939 1.21939 0
M  V30 9568 C 887.039 -2.10228 -0.191639 0
M  V30 9569 O 886.387 -1.94574 -1.19805 0
M  V30 9570 C 886.597 -2.61898 2.30674 0
M  V30 9571 C 887.945 -3.29598 2.67676 0
M  V30 9572 O 888.969 -2.72186 2.29768 0
M  V30 9573 O 887.828 -4.3337 3.32946 0
M  V30 9574 H 884.922 -0.676856 0.47518 0
M  V30 9575 H 887.468 -0.82058 1.48542 0
M  V30 9576 H 886.24 -2.17607 3.25212 0
M  V30 9577 H 885.863 -3.40391 2.05475 0
M  V30 9578 N 886.86 -1.21182 -1.00761 0
M  V30 9579 C 888.106 -1.02898 -1.74756 0
M  V30 9580 C 888.439 0.436774 -1.89225 0
M  V30 9581 O 887.714 1.32415 -1.42466 0
M  V30 9582 C 887.997 -1.72372 -3.16164 0
M  V30 9583 C 887.85 -3.2645 -3.09435 0
M  V30 9584 C 889.169 -1.46415 -4.15031 0
M  V30 9585 H 886.288 -0.375214 -0.634337 0
M  V30 9586 H 888.93 -1.49321 -1.17487 0
M  V30 9587 H 887.08 -1.32906 -3.65059 0
M  V30 9588 H 888.752 -3.75269 -2.68274 0
M  V30 9589 H 886.995 -3.56889 -2.46603 0
M  V30 9590 H 887.666 -3.70226 -4.09435 0
M  V30 9591 H 890.142 -1.80671 -3.7483 0
M  V30 9592 H 889.018 -1.97544 -5.12121 0
M  V30 9593 H 889.279 -0.39361 -4.40344 0
M  V30 9594 N 888.338 1.20213 -1.01915 0
M  V30 9595 C 889.584 1.89928 -0.711007 0
M  V30 9596 C 889.917 1.7881 0.75767 0
M  V30 9597 O 889.192 1.17399 1.55073 0
M  V30 9598 C 889.475 3.41225 -1.15053 0
M  V30 9599 C 889.328 3.61264 -2.67971 0
M  V30 9600 C 890.647 4.34108 -0.72377 0
M  V30 9601 H 887.766 0.689702 -0.259768 0
M  V30 9602 H 890.408 1.41557 -1.26734 0
M  V30 9603 H 888.558 3.82552 -0.677199 0
M  V30 9604 H 890.23 3.29173 -3.23176 0
M  V30 9605 H 888.473 3.04647 -3.08824 0
M  V30 9606 H 889.144 4.67331 -2.93779 0
M  V30 9607 H 891.62 4.00442 -1.13073 0
M  V30 9608 H 890.496 5.38581 -1.05931 0
M  V30 9609 H 890.757 4.40512 0.374424 0
M  V30 9610 N 889.816 0.795718 1.36037 0
M  V30 9611 C 890.726 0.199784 2.33748 0
M  V30 9612 C 891.742 -0.651436 1.61345 0
M  V30 9613 O 892.918 -0.565743 1.93291 0
M  V30 9614 C 889.983 -0.650475 3.40543 0
M  V30 9615 C 889.044 0.219974 4.28736 0
M  V30 9616 C 888.277 -0.589798 5.30431 0
M  V30 9617 O 888.5 -1.82532 5.40406 0
M  V30 9618 O 887.434 0.0136187 6.01898 0
M  V30 9619 H 891.26 1.00782 2.8649 0
M  V30 9620 H 888.845 0.557293 1.38617 0
M  V30 9621 H 890.727 -1.13512 4.05824 0
M  V30 9622 H 889.402 -1.4363 2.9009 0
M  V30 9623 H 888.309 0.751516 3.66474 0
M  V30 9624 H 889.642 0.969468 4.82558 0
M  V30 9625 N 891.294 -1.47756 0.548274 0
M  V30 9626 C 892.242 -2.3158 -0.217584 0
M  V30 9627 C 893.236 -1.42372 -0.917957 0
M  V30 9628 O 894.442 -1.59184 -0.840259 0
M  V30 9629 H 890.817 -0.74671 -0.0890388 0
M  V30 9630 H 892.788 -2.94032 0.508719 0
M  V30 9631 C 891.537 -3.24834 -1.24008 0
M  V30 9632 H 890.86 -3.93435 -0.710572 0
M  V30 9633 H 892.3 -3.86336 -1.74701 0
M  V30 9634 C 890.759 -2.47724 -2.2833 0
M  V30 9635 O 891.289 -2.21522 -3.35098 0
M  V30 9636 N 889.495 -2.08891 -2.02022 0
M  V30 9637 H 889.042 -2.30401 -1.1521 0
M  V30 9638 H 889 -1.57613 -2.7204 0
M  V30 9639 N 892.772 -0.284283 -1.55015 0
M  V30 9640 C 893.72 0.615091 -2.2432 0
M  V30 9641 C 894.714 1.15051 -1.24337 0
M  V30 9642 O 895.92 1.10308 -1.4224 0
M  V30 9643 H 892.295 0.216927 -0.720033 0
M  V30 9644 H 894.266 0.00783216 -2.98399 0
M  V30 9645 C 893.015 1.78355 -2.98471 0
M  V30 9646 H 892.338 1.38076 -3.752 0
M  V30 9647 H 893.778 2.38927 -3.50271 0
M  V30 9648 C 892.237 2.67757 -2.04469 0
M  V30 9649 O 892.767 3.6838 -1.60185 0
M  V30 9650 N 890.973 2.35125 -1.70776 0
M  V30 9651 H 890.52 1.53346 -2.06985 0
M  V30 9652 H 890.478 2.95212 -1.08153 0
M  V30 9653 N 894.251 1.57596 -0.0117121 0
M  V30 9654 C 895.498 1.91071 0.670667 0
M  V30 9655 C 895.826 0.886457 1.73125 0
M  V30 9656 O 895.081 -0.107135 1.95407 0
M  V30 9657 C 895.38 3.31296 1.34082 0
M  V30 9658 C 895.046 4.49011 0.412305 0
M  V30 9659 C 893.708 4.80945 0.156691 0
M  V30 9660 C 896.06 5.20709 -0.226294 0
M  V30 9661 C 893.388 5.81943 -0.745619 0
M  V30 9662 C 895.74 6.22668 -1.11655 0
M  V30 9663 C 894.404 6.53053 -1.38123 0
M  V30 9664 H 893.674 0.69918 0.245415 0
M  V30 9665 H 896.321 1.91373 -0.0697511 0
M  V30 9666 H 894.626 3.27174 2.15557 0
M  V30 9667 H 896.323 3.54461 1.87506 0
M  V30 9668 H 892.913 4.24067 0.621705 0
M  V30 9669 H 897.097 4.96282 -0.0418456 0
M  V30 9670 H 892.353 6.03839 -0.958566 0
M  V30 9671 H 896.527 6.77351 -1.61767 0
M  V30 9672 H 894.154 7.31132 -2.08208 0
M  V30 9673 N 895.729 -0.261212 1.5542 0
M  V30 9674 C 896.957 -1.00916 1.8062 0
M  V30 9675 C 897.372 -1.79494 0.585444 0
M  V30 9676 O 896.729 -1.76974 -0.445702 0
M  V30 9677 C 896.78 -1.95841 3.03856 0
M  V30 9678 O 896.501 -1.20445 4.21218 0
M  V30 9679 C 898.002 -2.82352 3.41749 0
M  V30 9680 H 895.222 -0.297596 0.601397 0
M  V30 9681 H 897.766 -0.288427 2.02456 0
M  V30 9682 H 895.921 -2.63361 2.84112 0
M  V30 9683 H 896.335 -1.84528 4.90968 0
M  V30 9684 H 897.809 -3.44733 4.31118 0
M  V30 9685 H 898.286 -3.5273 2.61683 0
M  V30 9686 H 898.892 -2.20306 3.63793 0
M  V30 9687 N 897.207 -1.48554 -0.526253 0
M  V30 9688 C 898.137 -1.66252 -1.63959 0
M  V30 9689 C 899.118 -0.511351 -1.62232 0
M  V30 9690 O 900.303 -0.744322 -1.7937 0
M  V30 9691 C 897.433 -1.70556 -3.02536 0
M  V30 9692 C 896.387 -2.8521 -3.19123 0
M  V30 9693 C 895.713 -2.74606 -4.58798 0
M  V30 9694 C 897.013 -4.26463 -3.0154 0
M  V30 9695 H 898.707 -2.59459 -1.49404 0
M  V30 9696 H 896.253 -1.24862 -0.717326 0
M  V30 9697 H 898.206 -1.81524 -3.80298 0
M  V30 9698 H 896.93 -0.739297 -3.18123 0
M  V30 9699 H 895.589 -2.73802 -2.43779 0
M  V30 9700 H 895.237 -1.75941 -4.71226 0
M  V30 9701 H 894.937 -3.51544 -4.70841 0
M  V30 9702 H 896.461 -2.87548 -5.38655 0
M  V30 9703 H 897.875 -4.38685 -3.69091 0
M  V30 9704 H 896.272 -5.04428 -3.25073 0
M  V30 9705 H 897.342 -4.42667 -1.97925 0
M  V30 9706 N 898.685 0.775411 -1.37205 0
M  V30 9707 C 899.615 1.90258 -1.35367 0
M  V30 9708 C 900.596 1.68634 -0.222864 0
M  V30 9709 O 901.781 1.89545 -0.422659 0
M  V30 9710 C 898.911 3.27488 -1.15623 0
M  V30 9711 C 897.865 3.63668 -2.25676 0
M  V30 9712 C 897.191 4.994 -1.91059 0
M  V30 9713 C 898.491 3.70797 -3.67841 0
M  V30 9714 H 900.185 1.92053 -2.29687 0
M  V30 9715 H 897.731 0.922597 -1.10563 0
M  V30 9716 H 899.684 4.05976 -1.12968 0
M  V30 9717 H 898.408 3.26117 -0.177573 0
M  V30 9718 H 897.067 2.87486 -2.2748 0
M  V30 9719 H 896.715 4.94565 -0.917324 0
M  V30 9720 H 896.415 5.24576 -2.64751 0
M  V30 9721 H 897.939 5.80291 -1.89985 0
M  V30 9722 H 899.353 4.39444 -3.68187 0
M  V30 9723 H 897.75 4.07468 -4.40556 0
M  V30 9724 H 898.82 2.71549 -4.01732 0
M  V30 9725 N 900.163 1.21714 1.00117 0
M  V30 9726 C 901.111 0.976937 2.11089 0
M  V30 9727 C 902.105 -0.0771295 1.69224 0
M  V30 9728 O 903.311 0.0745945 1.79845 0
M  V30 9729 H 899.686 0.298687 0.690138 0
M  V30 9730 H 901.657 1.91881 2.28526 0
M  V30 9731 C 900.406 0.562369 3.43122 0
M  V30 9732 H 899.729 1.36509 3.75773 0
M  V30 9733 H 901.169 0.433642 4.21777 0
M  V30 9734 C 899.628 -0.727148 3.28959 0
M  V30 9735 O 900.158 -1.78171 3.60025 0
M  V30 9736 N 898.364 -0.695129 2.82164 0
M  V30 9737 H 897.911 0.163346 2.57082 0
M  V30 9738 H 897.869 -1.55822 2.73069 0
M  V30 9739 N 901.641 -1.19671 1.02551 0
M  V30 9740 C 902.866 -1.93774 0.739363 0
M  V30 9741 C 903.291 -1.74787 -0.695064 0
M  V30 9742 O 902.649 -1.04796 -1.47944 0
M  V30 9743 C 902.697 -3.43684 1.09149 0
M  V30 9744 O 901.801 -4.11874 0.208213 0
M  V30 9745 H 901.142 -0.605064 0.273484 0
M  V30 9746 H 903.672 -1.51846 1.37128 0
M  V30 9747 H 903.682 -3.94339 1.04695 0
M  V30 9748 H 902.357 -3.56826 2.13654 0
M  V30 9749 H 900.934 -3.716 0.311045 0
M  V30 9750 N 903.119 -0.802921 -1.35613 0
M  V30 9751 C 904.366 -0.381576 -1.98872 0
M  V30 9752 C 904.694 1.0503 -1.63704 0
M  V30 9753 O 903.949 1.7427 -0.890418 0
M  V30 9754 C 904.248 -0.507806 -3.53774 0
M  V30 9755 C 903.914 -1.90245 -4.088 0
M  V30 9756 C 902.576 -2.28401 -4.2354 0
M  V30 9757 C 904.928 -2.81504 -4.3864 0
M  V30 9758 C 902.256 -3.57192 -4.65436 0
M  V30 9759 C 904.608 -4.09737 -4.81973 0
M  V30 9760 C 903.272 -4.47897 -4.94919 0
M  V30 9761 H 902.542 -0.139629 -0.727726 0
M  V30 9762 H 905.189 -1.023 -1.61886 0
M  V30 9763 H 903.494 0.21708 -3.91198 0
M  V30 9764 H 905.191 -0.162625 -4.0067 0
M  V30 9765 H 901.781 -1.596 -3.97776 0
M  V30 9766 H 905.965 -2.53276 -4.26808 0
M  V30 9767 H 901.221 -3.86611 -4.73648 0
M  V30 9768 H 905.395 -4.80555 -5.04024 0
M  V30 9769 H 903.022 -5.47747 -5.27141 0
M  V30 9770 N 904.597 1.47463 -0.556102 0
M  V30 9771 C 905.843 2.03361 -0.039909 0
M  V30 9772 C 906.198 1.42292 1.29502 0
M  V30 9773 O 905.491 0.568813 1.82962 0
M  V30 9774 C 905.685 3.57224 0.112126 0
M  V30 9775 C 905.514 4.33213 -1.20652 0
M  V30 9776 C 904.284 4.73153 -1.77352 0
M  V30 9777 C 906.482 4.68415 -2.12348 0
M  V30 9778 N 904.464 5.33781 -3.03233 0
M  V30 9779 C 905.835 5.29334 -3.22808 0
M  V30 9780 C 907.89 4.50344 -2.12356 0
M  V30 9781 C 906.593 5.7409 -4.33374 0
M  V30 9782 C 908.619 4.96098 -3.21933 0
M  V30 9783 C 907.981 5.57065 -4.31112 0
M  V30 9784 H 904.08 0.779939 -0.0567407 0
M  V30 9785 H 906.664 1.79959 -0.743147 0
M  V30 9786 H 904.835 3.80395 0.784485 0
M  V30 9787 H 906.567 3.99762 0.630285 0
M  V30 9788 H 903.322 4.55074 -1.31165 0
M  V30 9789 H 903.746 5.6864 -3.67393 0
M  V30 9790 H 908.388 4.02566 -1.29229 0
M  V30 9791 H 906.106 6.2086 -5.17261 0
M  V30 9792 H 909.692 4.83887 -3.23024 0
M  V30 9793 H 908.572 5.91824 -5.14504 0
M  V30 9794 N 906.075 0.2925 1.54862 0
M  V30 9795 C 907.322 -0.319263 1.99967 0
M  V30 9796 C 907.65 -1.54547 1.18092 0
M  V30 9797 O 906.905 -1.94186 0.242969 0
M  V30 9798 C 907.204 -0.728674 3.49893 0
M  V30 9799 C 906.87 0.394836 4.49168 0
M  V30 9800 C 905.532 0.703289 4.76033 0
M  V30 9801 C 907.884 1.15103 5.08331 0
M  V30 9802 C 905.212 1.77121 5.59325 0
M  V30 9803 C 907.564 2.20881 5.92785 0
M  V30 9804 C 906.228 2.52342 6.17964 0
M  V30 9805 H 905.498 -0.116827 0.731733 0
M  V30 9806 H 908.145 0.40983 1.87063 0
M  V30 9807 H 906.45 -1.53772 3.60363 0
M  V30 9808 H 908.147 -1.21305 3.82212 0
M  V30 9809 H 904.737 0.144319 4.28357 0
M  V30 9810 H 908.921 0.92599 4.87585 0
M  V30 9811 H 904.177 2.01978 5.77074 0
M  V30 9812 H 908.351 2.79939 6.37657 0
M  V30 9813 H 905.978 3.35225 6.82296 0
M  V30 9814 N 907.553 -1.57587 0.0200696 0
M  V30 9815 C 908.801 -1.91046 -0.65922 0
M  V30 9816 C 909.122 -0.896197 -1.73186 0
M  V30 9817 O 908.392 0.0635952 -1.95797 0
M  V30 9818 H 906.972 -0.705163 -0.246483 0
M  V30 9819 H 909.634 -1.94789 0.0657368 0
M  V30 9820 H 908.73 -2.91399 -1.11773 0
M  V30 9821 N 909.032 0.252966 -1.55557 0
M  V30 9822 C 910.278 0.983306 -1.77367 0
M  V30 9823 C 910.611 1.85203 -0.584258 0
M  V30 9824 O 909.886 1.89963 0.417644 0
M  V30 9825 C 910.169 1.84896 -3.09007 0
M  V30 9826 C 910.022 1.00883 -4.38341 0
M  V30 9827 C 911.341 2.83254 -3.36831 0
M  V30 9828 H 908.46 0.356056 -0.645286 0
M  V30 9829 H 911.102 0.254232 -1.88291 0
M  V30 9830 H 909.252 2.47058 -2.99825 0
M  V30 9831 H 910.924 0.40638 -4.59507 0
M  V30 9832 H 909.167 0.31297 -4.3267 0
M  V30 9833 H 909.838 1.64818 -5.2682 0
M  V30 9834 H 912.314 2.31228 -3.45937 0
M  V30 9835 H 911.19 3.40949 -4.30169 0
M  V30 9836 H 911.451 3.59407 -2.57447 0
M  V30 9837 N 910.51 1.48831 0.518367 0
M  V30 9838 C 911.758 1.57128 1.27103 0
M  V30 9839 C 912.079 0.252098 1.93364 0
M  V30 9840 O 911.349 -0.727281 1.819 0
M  V30 9841 H 909.929 0.578891 0.472116 0
M  V30 9842 H 912.591 1.85361 0.602262 0
M  V30 9843 H 911.687 2.35838 2.04418 0
M  V30 9844 N 911.988 -0.768124 1.37614 0
M  V30 9845 C 912.951 -1.86314 1.3349 0
M  V30 9846 C 913.951 -1.59025 0.23823 0
M  V30 9847 O 915.141 -1.6704 0.494288 0
M  V30 9848 C 912.273 -3.23519 1.07462 0
M  V30 9849 H 913.466 -1.91382 2.30896 0
M  V30 9850 H 911.019 -0.968267 1.22696 0
M  V30 9851 H 911.754 -3.24127 0.106028 0
M  V30 9852 H 911.539 -3.44719 1.86846 0
M  V30 9853 H 913.029 -4.03597 1.07236 0
M  V30 9854 N 913.466 -1.22244 -0.994698 0
M  V30 9855 C 914.396 -1.01513 -2.10279 0
M  V30 9856 C 915.377 0.0633365 -1.69982 0
M  V30 9857 O 916.562 -0.0985268 -1.9395 0
M  V30 9858 C 913.692 -0.59016 -3.42249 0
M  V30 9859 C 912.646 -1.61436 -3.96387 0
M  V30 9860 C 911.972 -1.04528 -5.24383 0
M  V30 9861 C 913.272 -3.00388 -4.27276 0
M  V30 9862 H 914.966 -1.94194 -2.2788 0
M  V30 9863 H 912.512 -0.935094 -1.09508 0
M  V30 9864 H 914.465 -0.432254 -4.19177 0
M  V30 9865 H 913.189 0.372308 -3.24471 0
M  V30 9866 H 911.848 -1.76001 -3.21589 0
M  V30 9867 H 911.496 -0.0742225 -5.02945 0
M  V30 9868 H 911.196 -1.72949 -5.61571 0
M  V30 9869 H 912.72 -0.898922 -6.03947 0
M  V30 9870 H 914.134 -2.89207 -4.95007 0
M  V30 9871 H 912.531 -3.65916 -4.75631 0
M  V30 9872 H 913.601 -3.50456 -3.35125 0
M  V30 9873 N 914.944 1.19125 -1.03184 0
M  V30 9874 C 915.877 2.21229 -0.559739 0
M  V30 9875 C 916.855 1.57578 0.400998 0
M  V30 9876 O 918.039 1.85809 0.317399 0
M  V30 9877 C 915.166 3.38203 0.183442 0
M  V30 9878 C 914.212 4.2022 -0.729182 0
M  V30 9879 S 915.045 4.87903 -2.20706 0
M  V30 9880 C 916.201 6.08284 -1.47448 0
M  V30 9881 H 916.434 2.60932 -1.42484 0
M  V30 9882 H 913.967 1.29419 -0.842028 0
M  V30 9883 H 915.925 4.06001 0.606084 0
M  V30 9884 H 914.586 2.96929 1.02432 0
M  V30 9885 H 913.779 5.03761 -0.155272 0
M  V30 9886 H 913.381 3.57755 -1.09028 0
M  V30 9887 H 915.673 6.73193 -0.762687 0
M  V30 9888 H 916.616 6.70165 -2.28659 0
M  V30 9889 H 917.024 5.56092 -0.97068 0
M  V30 9890 N 916.422 0.810101 1.35185 0
M  V30 9891 C 917.354 0.180581 2.28488 0
M  V30 9892 C 918.367 -0.622154 1.50443 0
M  V30 9893 O 919.556 -0.453938 1.72632 0
M  V30 9894 C 916.656 -0.766447 3.30119 0
M  V30 9895 C 915.829 -0.00932028 4.37399 0
M  V30 9896 C 914.888 -0.875354 5.18868 0
M  V30 9897 O 913.914 -0.325012 5.68271 0
M  V30 9898 N 915.116 -2.19695 5.37321 0
M  V30 9899 H 917.881 0.98212 2.83151 0
M  V30 9900 H 915.442 0.665879 1.47573 0
M  V30 9901 H 917.434 -1.35012 3.81515 0
M  V30 9902 H 916.004 -1.46878 2.75945 0
M  V30 9903 H 915.224 0.755585 3.86891 0
M  V30 9904 H 916.512 0.512352 5.06214 0
M  V30 9905 H 915.91 -2.66797 4.98834 0
M  V30 9906 H 914.467 -2.72978 5.91884 0
M  V30 9907 N 917.9 -1.47166 0.563914 0
M  V30 9908 C 918.832 -2.28165 -0.217583 0
M  V30 9909 C 919.845 -1.37405 -0.873134 0
M  V30 9910 O 921.034 -1.6217 -0.745857 0
M  V30 9911 C 918.134 -3.11873 -1.32621 0
M  V30 9912 C 917.307 -4.30637 -0.766177 0
M  V30 9913 C 916.366 -4.95889 -1.76014 0
M  V30 9914 O 915.392 -5.54071 -1.3036 0
M  V30 9915 N 916.594 -4.91191 -3.09373 0
M  V30 9916 H 919.359 -2.95876 0.477256 0
M  V30 9917 H 916.92 -1.5687 0.40043 0
M  V30 9918 H 918.912 -3.52392 -1.99003 0
M  V30 9919 H 917.482 -2.46361 -1.92419 0
M  V30 9920 H 916.702 -3.94129 0.0745998 0
M  V30 9921 H 917.99 -5.07442 -0.371472 0
M  V30 9922 H 917.388 -4.45133 -3.49104 0
M  V30 9923 H 915.945 -5.35708 -3.71295 0
M  V30 9924 N 919.378 -0.300708 -1.54705 0
M  V30 9925 C 920.626 0.308044 -1.99739 0
M  V30 9926 C 920.947 1.54433 -1.19061 0
M  V30 9927 O 920.217 1.93794 -0.286507 0
M  V30 9928 H 918.797 0.116811 -0.73781 0
M  V30 9929 H 921.459 -0.41197 -1.90496 0
M  V30 9930 H 920.555 0.580287 -3.06658 0
M  V30 9931 N 920.856 1.57574 -0.0284266 0
M  V30 9932 C 922.081 1.96479 0.664137 0
M  V30 9933 C 922.506 0.904826 1.64908 0
M  V30 9934 O 921.864 -0.134339 1.80802 0
M  V30 9935 C 921.912 3.34479 1.34745 0
M  V30 9936 O 921.016 3.30794 2.46271 0
M  V30 9937 H 920.357 0.640654 0.174524 0
M  V30 9938 H 922.887 2.04402 -0.0900729 0
M  V30 9939 H 922.897 3.70694 1.7044 0
M  V30 9940 H 921.572 4.1117 0.625468 0
M  V30 9941 H 920.149 3.06294 2.12693 0
M  V30 9942 N 922.334 -0.244713 1.55689 0
M  V30 9943 C 923.244 -1.32447 1.93636 0
M  V30 9944 C 924.26 -1.52541 0.837086 0
M  V30 9945 O 925.436 -1.66121 1.13867 0
M  V30 9946 C 922.501 -2.65864 2.22525 0
M  V30 9947 C 921.562 -2.54273 3.45896 0
M  V30 9948 C 920.795 -3.81327 3.73397 0
M  V30 9949 O 921.018 -4.83307 3.02936 0
M  V30 9950 O 919.952 -3.79829 4.66919 0
M  V30 9951 H 923.778 -1.03255 2.85608 0
M  V30 9952 H 921.363 -0.445652 1.42598 0
M  V30 9953 H 923.245 -3.447 2.42404 0
M  V30 9954 H 921.92 -2.94784 1.33731 0
M  V30 9955 H 920.827 -1.73715 3.31321 0
M  V30 9956 H 922.16 -2.30297 4.34999 0
M  V30 9957 N 923.813 -1.49104 -0.510467 0
M  V30 9958 C 924.743 -1.67981 -1.62187 0
M  V30 9959 C 925.724 -0.528529 -1.6168 0
M  V30 9960 O 926.909 -0.763305 -1.7857 0
M  V30 9961 C 924.039 -1.73755 -3.0071 0
M  V30 9962 C 922.993 -2.88579 -3.1608 0
M  V30 9963 C 922.319 -2.79457 -4.5586 0
M  V30 9964 C 923.619 -4.29638 -2.97 0
M  V30 9965 H 925.313 -2.61029 -1.46643 0
M  V30 9966 H 922.859 -1.25615 -0.704042 0
M  V30 9967 H 924.812 -1.85548 -3.78352 0
M  V30 9968 H 923.536 -0.772996 -3.17321 0
M  V30 9969 H 922.195 -2.76372 -2.40861 0
M  V30 9970 H 921.843 -1.80929 -4.69333 0
M  V30 9971 H 921.543 -3.56518 -4.67086 0
M  V30 9972 H 923.067 -2.93245 -5.35574 0
M  V30 9973 H 924.481 -4.42575 -3.64418 0
M  V30 9974 H 922.878 -5.07847 -3.19704 0
M  V30 9975 H 923.948 -4.44741 -1.93219 0
M  V30 9976 N 925.291 0.760815 -1.38019 0
M  V30 9977 C 926.224 1.88212 -1.2904 0
M  V30 9978 C 927.202 1.61721 -0.168805 0
M  V30 9979 O 928.386 1.85318 -0.344893 0
M  V30 9980 C 925.513 3.23672 -0.997702 0
M  V30 9981 C 924.559 3.6906 -2.13769 0
M  V30 9982 S 925.392 3.81445 -3.75845 0
M  V30 9983 C 926.548 5.19736 -3.48748 0
M  V30 9984 H 926.781 1.95541 -2.23944 0
M  V30 9985 H 924.314 0.923051 -1.2377 0
M  V30 9986 H 926.272 4.01904 -0.835657 0
M  V30 9987 H 924.933 3.14031 -0.065967 0
M  V30 9988 H 924.126 4.67295 -1.88816 0
M  V30 9989 H 923.728 2.97961 -2.26043 0
M  V30 9990 H 926.02 6.05259 -3.04414 0
M  V30 9991 H 926.963 5.49706 -4.46351 0
M  V30 9992 H 927.371 4.88191 -2.83425 0
M  V30 9993 N 926.769 1.22769 0.988202 0
M  V30 9994 C 928.18 1.0512 1.54294 0
M  V30 9995 C 928.531 -0.383904 1.92407 0
M  V30 9996 O 927.656 -1.26955 1.75246 0
M  V30 9997 C 928.251 1.90198 2.80375 0
M  V30 9998 C 926.81 1.76831 3.32276 0
M  V30 9999 C 925.957 1.86377 2.05326 0
M  V30 10000 H 928.908 1.36546 0.808758 0
M  V30 10001 H 928.929 1.42216 3.52923 0
M  V30 10002 H 928.441 2.9464 2.52605 0
M  V30 10003 H 926.542 0.751412 3.64945 0
M  V30 10004 H 926.655 2.59771 4.02562 0
M  V30 10005 H 925.019 1.2987 2.19103 0
M  V30 10006 H 925.802 2.9236 1.79946 0
M  V30 10007 N 928.247 -1.18576 1.03814 0
M  V30 10008 C 929.194 -2.2212 0.626988 0
M  V30 10009 C 930.164 -1.62064 -0.363912 0
M  V30 10010 O 931.349 -1.89041 -0.258469 0
M  V30 10011 C 928.489 -3.45099 -0.00650133 0
M  V30 10012 C 927.602 -4.19503 1.03156 0
M  V30 10013 C 926.737 -5.29932 0.366852 0
M  V30 10014 C 925.776 -5.96104 1.39018 0
M  V30 10015 N 924.913 -6.98076 0.750625 0
M  V30 10016 H 929.753 -2.56646 1.51449 0
M  V30 10017 H 927.29 -1.26084 0.757702 0
M  V30 10018 H 929.248 -4.15363 -0.391108 0
M  V30 10019 H 927.878 -3.11201 -0.857536 0
M  V30 10020 H 926.93 -3.48092 1.53414 0
M  V30 10021 H 928.242 -4.64843 1.80893 0
M  V30 10022 H 927.396 -6.06657 -0.0720979 0
M  V30 10023 H 926.135 -4.85687 -0.442631 0
M  V30 10024 H 925.14 -5.18122 1.8393 0
M  V30 10025 H 926.365 -6.42432 2.20132 0
M  V30 10026 H 924.311 -6.55989 -0.0385981 0
M  V30 10027 H 924.228 -7.41655 1.46574 0
M  V30 10028 H 925.496 -7.78776 0.335986 0
M  V30 10029 N 929.725 -0.817259 -1.34754 0
M  V30 10030 C 930.688 -0.240611 -2.27934 0
M  V30 10031 C 931.688 0.578219 -1.50044 0
M  V30 10032 O 932.878 0.395148 -1.69659 0
M  V30 10033 C 930.01 0.663318 -3.34384 0
M  V30 10034 H 931.203 -1.06257 -2.80445 0
M  V30 10035 H 928.756 -0.588697 -1.4479 0
M  V30 10036 H 929.491 1.50855 -2.87077 0
M  V30 10037 H 929.276 0.0777388 -3.92023 0
M  V30 10038 H 930.766 1.06076 -4.03903 0
M  V30 10039 N 931.203 1.46865 -0.571711 0
M  V30 10040 C 932.133 2.3298 0.155795 0
M  V30 10041 C 933.114 1.44678 0.894553 0
M  V30 10042 O 934.299 1.73513 0.872176 0
M  V30 10043 C 931.429 3.26745 1.17708 0
M  V30 10044 C 930.383 4.24401 0.553863 0
M  V30 10045 C 929.709 5.07595 1.68083 0
M  V30 10046 C 931.009 5.19884 -0.501827 0
M  V30 10047 H 932.703 2.94056 -0.563176 0
M  V30 10048 H 930.249 1.41402 -0.27228 0
M  V30 10049 H 932.202 3.85838 1.6943 0
M  V30 10050 H 930.926 2.63753 1.92618 0
M  V30 10051 H 929.585 3.66554 0.057815 0
M  V30 10052 H 929.233 4.40996 2.41933 0
M  V30 10053 H 928.933 5.73722 1.26953 0
M  V30 10054 H 930.457 5.6955 2.20103 0
M  V30 10055 H 931.871 5.73257 -0.0701057 0
M  V30 10056 H 930.268 5.94293 -0.832815 0
M  V30 10057 H 931.338 4.64482 -1.39229 0
M  V30 10058 N 932.681 0.308908 1.54543 0
M  V30 10059 C 933.906 -0.303196 2.05172 0
M  V30 10060 C 934.331 -1.46133 1.18434 0
M  V30 10061 O 933.689 -1.803 0.190162 0
M  V30 10062 C 933.737 -0.729526 3.53143 0
M  V30 10063 O 932.841 -1.83348 3.69401 0
M  V30 10064 H 932.182 -0.0575066 0.661505 0
M  V30 10065 H 934.712 0.453055 1.99521 0
M  V30 10066 H 934.722 -1.01619 3.95143 0
M  V30 10067 H 933.397 0.117622 4.15734 0
M  V30 10068 H 931.974 -1.54676 3.39308 0
M  V30 10069 N 934.159 -1.57557 0.0367827 0
M  V30 10070 C 935.387 -1.96419 -0.650168 0
M  V30 10071 C 935.802 -0.913656 -1.6522 0
M  V30 10072 O 935.159 0.103718 -1.82205 0
M  V30 10073 C 935.21 -3.35355 -1.3498 0
M  V30 10074 O 934.931 -4.36379 -0.387905 0
M  V30 10075 C 936.432 -3.88892 -2.12786 0
M  V30 10076 H 933.652 -0.646751 -0.178756 0
M  V30 10077 H 936.196 -2.04261 0.0988197 0
M  V30 10078 H 934.351 -3.28708 -2.05012 0
M  V30 10079 H 934.765 -5.16969 -0.885596 0
M  V30 10080 H 936.239 -4.88428 -2.5718 0
M  V30 10081 H 936.716 -3.23547 -2.97008 0
M  V30 10082 H 937.322 -3.98831 -1.47694 0
M  V30 10083 N 935.637 0.236453 -1.55816 0
M  V30 10084 C 937.053 0.585465 -1.48474 0
M  V30 10085 C 937.253 1.8785 -0.72902 0
M  V30 10086 O 936.309 2.51131 -0.262614 0
M  V30 10087 C 937.622 0.678506 -2.92945 0
M  V30 10088 C 939.17 0.770135 -3.03378 0
M  V30 10089 C 939.645 0.894649 -4.49177 0
M  V30 10090 N 941.136 0.959253 -4.53158 0
M  V30 10091 C 941.871 1.07505 -5.63232 0
M  V30 10092 N 941.367 1.15572 -6.83092 0
M  V30 10093 N 943.16 1.10902 -5.51051 0
M  V30 10094 H 935.311 -0.612241 -2.03385 0
M  V30 10095 H 937.574 -0.212796 -0.923808 0
M  V30 10096 H 937.28 -0.201757 -3.51121 0
M  V30 10097 H 937.154 1.54703 -3.44016 0
M  V30 10098 H 939.541 1.64085 -2.45276 0
M  V30 10099 H 939.622 -0.123753 -2.555 0
M  V30 10100 H 939.266 0.0284537 -5.07892 0
M  V30 10101 H 939.196 1.80373 -4.94745 0
M  V30 10102 H 941.687 0.907827 -3.66834 0
M  V30 10103 H 942 1.24343 -7.62731 0
M  V30 10104 H 940.345 1.12511 -6.85833 0
M  V30 10105 H 943.536 1.04255 -4.56343 0
M  V30 10106 H 943.709 1.19581 -6.36871 0
M  V30 10107 N 937.115 1.49373 0.502552 0
M  V30 10108 C 938.364 1.58028 1.25339 0
M  V30 10109 C 938.677 0.271494 1.93707 0
M  V30 10110 O 939.883 0.236584 2.70467 0
M  V30 10111 C 938.339 2.78817 2.27572 0
M  V30 10112 C 937.947 4.16448 1.65151 0
M  V30 10113 C 939.691 2.96802 3.03494 0
M  V30 10114 C 937.598 5.28461 2.65486 0
M  V30 10115 H 936.528 0.588396 0.471494 0
M  V30 10116 H 939.179 1.75756 0.52744 0
M  V30 10117 H 937.561 2.5458 3.03323 0
M  V30 10118 H 938.735 4.50816 0.954029 0
M  V30 10119 H 937.05 4.03809 1.01625 0
M  V30 10120 H 939.647 3.77656 3.78524 0
M  V30 10121 H 939.99 2.07303 3.61014 0
M  V30 10122 H 940.523 3.21071 2.34858 0
M  V30 10123 H 937.262 6.20015 2.12749 0
M  V30 10124 H 936.782 4.9855 3.33479 0
M  V30 10125 H 938.461 5.5773 3.27943 0
M  V30 10126 N 938.594 -0.753485 1.38421 0
M  V30 10127 C 939.84 -1.51485 1.34834 0
M  V30 10128 C 940.173 -1.94102 -0.0615381 0
M  V30 10129 O 939.448 -1.65439 -1.02274 0
M  V30 10130 C 939.731 -2.76736 2.30411 0
M  V30 10131 C 939.584 -2.40256 3.80259 0
M  V30 10132 C 940.903 -3.7876 2.24119 0
M  V30 10133 H 938.022 -0.549534 0.491102 0
M  V30 10134 H 940.664 -0.863006 1.6927 0
M  V30 10135 H 938.814 -3.32357 2.01175 0
M  V30 10136 H 940.486 -1.90409 4.20169 0
M  V30 10137 H 938.729 -1.72714 3.97935 0
M  V30 10138 H 939.4 -3.29869 4.42595 0
M  V30 10139 H 941.876 -3.32679 2.49928 0
M  V30 10140 H 940.752 -4.64092 2.93104 0
M  V30 10141 H 941.013 -4.24352 1.24006 0
M  V30 10142 N 940.072 -1.23292 -0.981677 0
M  V30 10143 C 941.32 -1.06214 -1.71939 0
M  V30 10144 C 941.641 0.401989 -1.90812 0
M  V30 10145 O 940.911 1.28825 -1.47584 0
M  V30 10146 H 939.491 -0.390042 -0.637084 0
M  V30 10147 H 942.153 -1.54988 -1.18173 0
M  V30 10148 H 941.249 -1.54904 -2.70945 0
M  V30 10149 N 941.55 1.18024 -1.04442 0
M  V30 10150 C 942.798 1.87727 -0.74854 0
M  V30 10151 C 943.119 1.80975 0.726156 0
M  V30 10152 O 942.389 1.23061 1.52423 0
M  V30 10153 H 940.969 0.694974 -0.273897 0
M  V30 10154 H 943.631 1.43213 -1.32197 0
M  V30 10155 H 942.727 2.93665 -1.05674 0
M  V30 10156 N 943.028 0.824394 1.34319 0
M  V30 10157 C 944.277 0.40956 1.97498 0
M  V30 10158 C 944.59 -1.03323 1.66083 0
M  V30 10159 O 945.796 -1.55205 2.22764 0
M  V30 10160 C 944.252 0.681384 3.53391 0
M  V30 10161 C 943.86 2.1379 3.93698 0
M  V30 10162 C 945.604 0.332788 4.23194 0
M  V30 10163 C 943.511 2.35453 5.42509 0
M  V30 10164 H 942.441 0.149409 0.739049 0
M  V30 10165 H 945.092 1.01095 1.5314 0
M  V30 10166 H 943.474 0.00980375 3.95999 0
M  V30 10167 H 944.648 2.84876 3.62191 0
M  V30 10168 H 942.963 2.44807 3.36836 0
M  V30 10169 H 945.56 0.472463 5.32609 0
M  V30 10170 H 945.903 -0.722862 4.09976 0
M  V30 10171 H 946.436 0.959005 3.86067 0
M  V30 10172 H 943.175 3.39529 5.60714 0
M  V30 10173 H 942.695 1.68912 5.75525 0
M  V30 10174 H 944.374 2.17885 6.09209 0
M  V30 10175 N 944.506 -1.46559 0.579492 0
M  V30 10176 C 945.752 -2.03272 0.0722569 0
M  V30 10177 C 946.107 -1.44334 -1.27222 0
M  V30 10178 O 945.4 -0.597848 -1.82034 0
M  V30 10179 C 945.594 -3.57357 -0.0552803 0
M  V30 10180 C 945.423 -4.31238 1.27529 0
M  V30 10181 C 944.193 -4.70272 1.84857 0
M  V30 10182 C 946.391 -4.64978 2.19773 0
M  V30 10183 N 944.373 -5.2889 3.11687 0
M  V30 10184 C 945.744 -5.24132 3.31189 0
M  V30 10185 C 947.799 -4.46908 2.19493 0
M  V30 10186 C 946.502 -5.67123 4.42452 0
M  V30 10187 C 948.528 -4.90914 3.29784 0
M  V30 10188 C 947.89 -5.50136 4.3992 0
M  V30 10189 H 943.989 -0.778937 0.0691416 0
M  V30 10190 H 946.573 -1.78754 0.771683 0
M  V30 10191 H 944.744 -3.81595 -0.723868 0
M  V30 10192 H 946.476 -4.00714 -0.566606 0
M  V30 10193 H 943.231 -4.5293 1.38388 0
M  V30 10194 H 943.655 -5.62723 3.76393 0
M  V30 10195 H 948.297 -4.00459 1.35617 0
M  V30 10196 H 946.015 -6.12552 5.27073 0
M  V30 10197 H 949.601 -4.78687 3.30682 0
M  V30 10198 H 948.481 -5.83564 5.23854 0
M  V30 10199 N 945.984 -0.3171 -1.54377 0
M  V30 10200 C 947.23 0.280631 -2.01455 0
M  V30 10201 C 947.585 1.50282 -1.20138 0
M  V30 10202 O 946.878 1.89634 -0.273785 0
M  V30 10203 C 947.072 0.672917 -3.51008 0
M  V30 10204 C 946.901 -0.509709 -4.46802 0
M  V30 10205 C 945.671 -1.00679 -4.95168 0
M  V30 10206 C 947.869 -1.35984 -4.95997 0
M  V30 10207 N 945.851 -2.1545 -5.74852 0
M  V30 10208 C 947.222 -2.35481 -5.73541 0
M  V30 10209 C 949.277 -1.38836 -4.78152 0
M  V30 10210 C 947.98 -3.37625 -6.35139 0
M  V30 10211 C 950.006 -2.39847 -5.40581 0
M  V30 10212 C 949.368 -3.38071 -6.1797 0
M  V30 10213 H 945.467 0.0667107 -0.779149 0
M  V30 10214 H 948.051 -0.450672 -1.89412 0
M  V30 10215 H 946.222 1.37336 -3.63309 0
M  V30 10216 H 947.954 1.25156 -3.84861 0
M  V30 10217 H 944.709 -0.579125 -4.70046 0
M  V30 10218 H 945.133 -2.73324 -6.19373 0
M  V30 10219 H 949.775 -0.642643 -4.17887 0
M  V30 10220 H 947.493 -4.13106 -6.94528 0
M  V30 10221 H 951.079 -2.42847 -5.28693 0
M  V30 10222 H 949.959 -4.14953 -6.6542 0
M  V30 10223 N 947.462 1.57535 -0.0451378 0
M  V30 10224 C 948.709 1.92451 0.629987 0
M  V30 10225 C 949.037 0.92298 1.71206 0
M  V30 10226 O 948.292 -0.0656626 1.9559 0
M  V30 10227 C 948.591 3.34065 1.27024 0
M  V30 10228 C 948.257 4.49785 0.316971 0
M  V30 10229 C 946.919 4.81169 0.0546406 0
M  V30 10230 C 949.271 5.20111 -0.336693 0
M  V30 10231 C 946.599 5.8023 -0.86889 0
M  V30 10232 C 948.951 6.2016 -1.24838 0
M  V30 10233 C 947.615 6.49976 -1.51944 0
M  V30 10234 H 946.885 0.704228 0.230529 0
M  V30 10235 H 949.532 1.91182 -0.110328 0
M  V30 10236 H 947.837 3.31672 2.08568 0
M  V30 10237 H 949.534 3.58359 1.79945 0
M  V30 10238 H 946.124 4.2529 0.531614 0
M  V30 10239 H 950.308 4.96082 -0.147105 0
M  V30 10240 H 945.564 6.0167 -1.08643 0
M  V30 10241 H 949.738 6.73767 -1.76098 0
M  V30 10242 H 947.365 7.26551 -2.2367 0
M  V30 10243 N 948.94 -0.228186 1.55939 0
M  V30 10244 C 950.187 -0.953552 1.78644 0
M  V30 10245 C 950.515 -1.84596 0.61275 0
M  V30 10246 O 949.77 -1.91502 -0.403175 0
M  V30 10247 C 950.069 -1.82924 3.0704 0
M  V30 10248 C 949.735 -1.09062 4.37511 0
M  V30 10249 C 948.397 -0.886565 4.72962 0
M  V30 10250 C 950.749 -0.568533 5.1809 0
M  V30 10251 C 948.077 -0.148413 5.86512 0
M  V30 10252 C 950.429 0.156243 6.32407 0
M  V30 10253 C 949.093 0.371612 6.66465 0
M  V30 10254 H 948.363 -0.348929 0.653704 0
M  V30 10255 H 951.01 -0.222211 1.90206 0
M  V30 10256 H 949.315 -2.62823 2.90571 0
M  V30 10257 H 951.012 -2.3925 3.21808 0
M  V30 10258 H 947.602 -1.25963 4.09672 0
M  V30 10259 H 951.786 -0.713673 4.91142 0
M  V30 10260 H 947.042 0.0287418 6.11393 0
M  V30 10261 H 951.216 0.568333 6.94077 0
M  V30 10262 H 948.843 0.945522 7.54297 0
M  V30 10263 N 950.418 -1.49637 -0.494624 0
M  V30 10264 C 951.646 -1.63164 -1.2722 0
M  V30 10265 C 952.061 -0.305552 -1.86311 0
M  V30 10266 O 951.418 0.709758 -1.68133 0
M  V30 10267 C 951.469 -2.70524 -2.39789 0
M  V30 10268 O 951.19 -3.97991 -1.83126 0
M  V30 10269 C 952.691 -2.94814 -3.31058 0
M  V30 10270 H 949.911 -0.54912 -0.385627 0
M  V30 10271 H 952.455 -1.95711 -0.593081 0
M  V30 10272 H 950.61 -2.40738 -3.03519 0
M  V30 10273 H 951.024 -4.57179 -2.57075 0
M  V30 10274 H 952.498 -3.73653 -4.06309 0
M  V30 10275 H 952.975 -2.04974 -3.88436 0
M  V30 10276 H 953.581 -3.26042 -2.73088 0
M  V30 10277 N 951.896 0.746133 -1.38819 0
M  V30 10278 C 952.826 1.87344 -1.39372 0
M  V30 10279 C 953.807 1.68123 -0.258583 0
M  V30 10280 O 954.992 1.88606 -0.462769 0
M  V30 10281 C 952.122 3.24962 -1.22543 0
M  V30 10282 C 951.076 3.58799 -2.33339 0
M  V30 10283 C 950.402 4.95235 -2.01609 0
M  V30 10284 C 951.702 3.62911 -3.75624 0
M  V30 10285 H 953.396 1.87138 -2.33709 0
M  V30 10286 H 950.942 0.898937 -1.12495 0
M  V30 10287 H 952.895 4.03488 -1.21554 0
M  V30 10288 H 951.619 3.25667 -0.246707 0
M  V30 10289 H 950.278 2.82596 -2.33527 0
M  V30 10290 H 949.926 4.92508 -1.02202 0
M  V30 10291 H 949.626 5.18843 -2.75819 0
M  V30 10292 H 951.15 5.76131 -2.02251 0
M  V30 10293 H 952.564 4.31535 -3.77426 0
M  V30 10294 H 950.961 3.98031 -4.491 0
M  V30 10295 H 952.031 2.62967 -4.07402 0
M  V30 10296 N 953.375 1.23811 0.975125 0
M  V30 10297 C 954.624 1.06741 1.71141 0
M  V30 10298 C 954.937 -0.394986 1.9157 0
M  V30 10299 O 956.143 -0.685723 2.62698 0
M  V30 10300 C 954.599 1.86168 3.08009 0
M  V30 10301 C 954.207 3.36771 2.95448 0
M  V30 10302 C 955.951 1.77604 3.85561 0
M  V30 10303 C 953.858 4.0857 4.2758 0
M  V30 10304 H 952.788 0.395819 0.64175 0
M  V30 10305 H 955.439 1.47825 1.0872 0
M  V30 10306 H 953.821 1.37893 3.71216 0
M  V30 10307 H 954.995 3.92571 2.41298 0
M  V30 10308 H 953.31 3.46205 2.31368 0
M  V30 10309 H 955.907 2.28556 4.83391 0
M  V30 10310 H 956.25 0.739837 4.09673 0
M  V30 10311 H 956.783 2.23519 3.29065 0
M  V30 10312 H 953.522 5.12518 4.08663 0
M  V30 10313 H 953.042 3.57556 4.81574 0
M  V30 10314 H 954.721 4.15157 4.9624 0
M  V30 10315 N 954.853 -1.17469 1.05066 0
M  V30 10316 C 956.102 -1.87032 0.755114 0
M  V30 10317 C 956.415 -1.81844 -0.720572 0
M  V30 10318 O 957.621 -2.46866 -1.13002 0
M  V30 10319 C 956.077 -3.35581 1.30052 0
M  V30 10320 C 955.685 -3.49274 2.80556 0
M  V30 10321 C 957.429 -4.1048 1.08196 0
M  V30 10322 C 955.336 -4.91838 3.28404 0
M  V30 10323 H 954.266 -0.70057 0.278779 0
M  V30 10324 H 956.917 -1.32663 1.26779 0
M  V30 10325 H 955.299 -3.89479 0.715667 0
M  V30 10326 H 956.473 -3.05598 3.44886 0
M  V30 10327 H 954.788 -2.87793 3.00939 0
M  V30 10328 H 957.385 -5.15652 1.41447 0
M  V30 10329 H 957.728 -4.16295 0.0196603 0
M  V30 10330 H 958.261 -3.62784 1.63195 0
M  V30 10331 H 955 -4.91196 4.34058 0
M  V30 10332 H 954.52 -5.36189 2.68815 0
M  V30 10333 H 956.199 -5.60602 3.23009 0
M  V30 10334 N 956.331 -0.831506 -1.3388 0
M  V30 10335 C 957.58 -0.420028 -1.97278 0
M  V30 10336 C 957.893 1.02441 -1.66629 0
M  V30 10337 O 959.099 1.54021 -2.23584 0
M  V30 10338 C 957.555 -0.700116 -3.53025 0
M  V30 10339 C 957.163 -2.15874 -3.92559 0
M  V30 10340 C 958.907 -0.355226 -4.23011 0
M  V30 10341 C 956.814 -2.38327 -5.41252 0
M  V30 10342 H 955.744 -0.153326 -0.738246 0
M  V30 10343 H 958.395 -1.01906 -1.52602 0
M  V30 10344 H 956.777 -0.0308044 -3.95988 0
M  V30 10345 H 957.951 -2.86792 -3.60675 0
M  V30 10346 H 956.266 -2.4659 -3.35533 0
M  V30 10347 H 958.863 -0.500701 -5.32351 0
M  V30 10348 H 959.206 0.70111 -4.10354 0
M  V30 10349 H 959.739 -0.979466 -3.85553 0
M  V30 10350 H 956.478 -3.42498 -5.58906 0
M  V30 10351 H 955.998 -1.71962 -5.74621 0
M  V30 10352 H 957.677 -2.21113 -6.08045 0
M  V30 10353 N 957.809 1.4625 -0.587256 0
M  V30 10354 C 959.034 2.07252 -0.0784517 0
M  V30 10355 C 959.459 1.43239 1.21919 0
M  V30 10356 O 958.817 0.517791 1.73749 0
M  V30 10357 C 958.865 3.60534 0.0691037 0
M  V30 10358 O 957.969 3.96773 1.12448 0
M  V30 10359 H 957.31 0.660825 -0.064859 0
M  V30 10360 H 959.84 1.87819 -0.811491 0
M  V30 10361 H 959.85 4.0708 0.273826 0
M  V30 10362 H 958.525 4.06516 -0.878514 0
M  V30 10363 H 957.102 3.6193 0.897852 0
M  V30 10364 N 959.287 0.325282 1.54207 0
M  V30 10365 C 960.512 -0.281418 2.05482 0
M  V30 10366 C 960.937 -1.44869 1.19977 0
M  V30 10367 O 960.295 -1.80088 0.209275 0
M  V30 10368 C 960.343 -0.692029 3.53897 0
M  V30 10369 O 959.447 -1.7942 3.71325 0
M  V30 10370 H 958.788 -0.0504872 0.662078 0
M  V30 10371 H 961.318 0.474191 1.99029 0
M  V30 10372 H 961.328 -0.974219 3.96198 0
M  V30 10373 H 960.003 0.161709 4.15586 0
M  V30 10374 H 958.58 -1.51069 3.40929 0
M  V30 10375 N 960.765 -1.57509 0.0534917 0
M  V30 10376 C 961.995 -1.96812 -0.628386 0
M  V30 10377 C 962.403 -0.929808 -1.64776 0
M  V30 10378 O 961.746 0.0941155 -1.83459 0
M  V30 10379 C 961.808 -3.32361 -1.37027 0
M  V30 10380 C 961.472 -4.54185 -0.506465 0
M  V30 10381 C 962.469 -5.19398 0.228412 0
M  V30 10382 C 960.154 -5.00398 -0.43671 0
M  V30 10383 C 962.148 -6.29162 1.02146 0
M  V30 10384 C 959.835 -6.10039 0.360022 0
M  V30 10385 C 960.833 -6.74282 1.08779 0
M  V30 10386 O 960.521 -7.81814 1.87142 0
M  V30 10387 H 960.253 -0.65257 -0.176432 0
M  V30 10388 H 962.807 -2.05067 0.116908 0
M  V30 10389 H 961.037 -3.20667 -2.16125 0
M  V30 10390 H 962.726 -3.56395 -1.94261 0
M  V30 10391 H 963.492 -4.84651 0.184003 0
M  V30 10392 H 959.371 -4.50183 -0.992772 0
M  V30 10393 H 962.915 -6.79238 1.59002 0
M  V30 10394 H 958.812 -6.44222 0.406061 0
M  V30 10395 H 959.58 -7.98602 1.79378 0
M  V30 10396 N 962.243 0.219913 -1.56058 0
M  V30 10397 C 963.471 0.960915 -1.83232 0
M  V30 10398 C 963.886 1.77878 -0.632828 0
M  V30 10399 O 963.243 1.78093 0.398624 0
M  V30 10400 C 963.294 1.87716 -3.08942 0
M  V30 10401 O 963.015 1.09235 -4.24263 0
M  V30 10402 C 964.516 2.73192 -3.49115 0
M  V30 10403 H 961.736 0.281546 -0.609075 0
M  V30 10404 H 964.28 0.234648 -2.03149 0
M  V30 10405 H 962.435 2.55736 -2.90995 0
M  V30 10406 H 962.849 1.71446 -4.95688 0
M  V30 10407 H 964.323 3.33181 -4.40107 0
M  V30 10408 H 964.8 3.45668 -2.70943 0
M  V30 10409 H 965.406 2.10583 -3.69506 0
M  V30 10410 N 963.721 1.49897 0.486681 0
M  V30 10411 C 964.684 1.67086 1.56891 0
M  V30 10412 C 965.684 0.54209 1.51387 0
M  V30 10413 O 966.874 0.80883 1.54284 0
M  V30 10414 C 964.006 1.68159 2.96539 0
M  V30 10415 H 965.199 2.63626 1.42974 0
M  V30 10416 H 962.752 1.39143 0.711954 0
M  V30 10417 H 963.487 0.732562 3.15918 0
M  V30 10418 H 963.272 2.50147 3.01942 0
M  V30 10419 H 964.762 1.83466 3.7514 0
M  V30 10420 N 965.199 -0.738761 1.39212 0
M  V30 10421 C 966.147 -1.8741 1.3777 0
M  V30 10422 C 967.141 -1.67371 0.261375 0
M  V30 10423 O 968.347 -1.74759 0.431209 0
M  V30 10424 H 964.722 -0.616843 0.430126 0
M  V30 10425 H 966.693 -1.85742 2.33543 0
M  V30 10426 C 965.442 -3.25053 1.23433 0
M  V30 10427 H 964.765 -3.41066 2.086 0
M  V30 10428 H 966.205 -4.04696 1.2648 0
M  V30 10429 C 964.664 -3.36851 -0.0575624 0
M  V30 10430 O 965.194 -3.88293 -1.02915 0
M  V30 10431 N 963.4 -2.90355 -0.119364 0
M  V30 10432 H 962.947 -2.48681 0.671976 0
M  V30 10433 H 962.905 -2.98628 -0.983286 0
M  V30 10434 N 966.677 -1.24326 -0.968545 0
M  V30 10435 C 967.607 -1.05951 -2.08079 0
M  V30 10436 C 968.588 0.0272666 -1.70078 0
M  V30 10437 O 969.773 -0.139644 -1.93697 0
M  V30 10438 C 966.903 -0.662623 -3.4092 0
M  V30 10439 C 965.857 -1.69807 -3.92873 0
M  V30 10440 C 965.183 -1.15628 -5.22048 0
M  V30 10441 C 966.483 -3.09383 -4.20808 0
M  V30 10442 H 968.177 -1.98984 -2.23709 0
M  V30 10443 H 965.723 -0.958112 -1.075 0
M  V30 10444 H 967.676 -0.521071 -4.18166 0
M  V30 10445 H 966.4 0.303399 -3.25188 0
M  V30 10446 H 965.059 -1.82783 -3.17783 0
M  V30 10447 H 964.707 -0.180888 -5.02675 0
M  V30 10448 H 964.407 -1.84822 -5.57776 0
M  V30 10449 H 965.931 -1.02683 -6.01904 0
M  V30 10450 H 967.345 -2.99642 -4.88761 0
M  V30 10451 H 965.742 -3.75923 -4.67763 0
M  V30 10452 H 966.812 -3.57486 -3.27616 0
M  V30 10453 N 968.156 1.1691 -1.05688 0
M  V30 10454 C 969.119 2.19297 -0.666433 0
M  V30 10455 C 970.119 1.5826 0.284674 0
M  V30 10456 O 971.309 1.74068 0.0678757 0
M  V30 10457 C 968.441 3.40894 0.0203656 0
M  V30 10458 H 969.634 2.55354 -1.57272 0
M  V30 10459 H 967.187 1.31078 -0.851359 0
M  V30 10460 H 967.922 3.10388 0.939686 0
M  V30 10461 H 967.707 3.86446 -0.663464 0
M  V30 10462 H 969.197 4.16664 0.279475 0
M  V30 10463 N 969.634 0.838594 1.33437 0
M  V30 10464 C 970.597 0.276843 2.27522 0
M  V30 10465 C 971.597 -0.554275 1.50945 0
M  V30 10466 O 972.787 -0.368107 1.70266 0
M  V30 10467 C 969.919 -0.610036 3.35397 0
M  V30 10468 H 971.112 1.10705 2.78719 0
M  V30 10469 H 968.665 0.611657 1.43835 0
M  V30 10470 H 969.4 -1.46269 2.89441 0
M  V30 10471 H 969.185 -0.0153615 3.92097 0
M  V30 10472 H 970.675 -0.996368 4.05539 0
M  V30 10473 N 971.112 -1.45937 0.595003 0
M  V30 10474 C 972.359 -2.0232 0.0853053 0
M  V30 10475 C 972.687 -1.465 -1.27937 0
M  V30 10476 O 971.942 -0.624767 -1.85459 0
M  V30 10477 C 972.241 -3.57396 -0.0173747 0
M  V30 10478 C 971.907 -4.32311 1.28131 0
M  V30 10479 C 970.569 -4.52496 1.63708 0
M  V30 10480 C 972.921 -4.75233 2.14017 0
M  V30 10481 C 970.249 -5.12857 2.84947 0
M  V30 10482 C 972.601 -5.36933 3.34493 0
M  V30 10483 C 971.265 -5.55343 3.70338 0
M  V30 10484 H 970.535 -0.740342 0.0312154 0
M  V30 10485 H 973.182 -1.75157 0.774103 0
M  V30 10486 H 971.487 -3.83766 -0.789371 0
M  V30 10487 H 973.184 -3.98713 -0.427699 0
M  V30 10488 H 969.774 -4.16905 0.994374 0
M  V30 10489 H 973.958 -4.59383 1.87833 0
M  V30 10490 H 969.214 -5.253 3.12841 0
M  V30 10491 H 973.388 -5.69147 4.01304 0
M  V30 10492 H 971.015 -6.01883 4.64371 0
M  V30 10493 N 972.59 -0.333456 -1.54032 0
M  V30 10494 C 973.52 0.52051 -2.27625 0
M  V30 10495 C 974.501 1.1111 -1.28797 0
M  V30 10496 O 975.686 1.13438 -1.57625 0
M  V30 10497 C 972.816 1.67663 -3.04149 0
M  V30 10498 C 971.77 1.21487 -4.10396 0
M  V30 10499 C 971.096 2.45872 -4.74817 0
M  V30 10500 C 972.396 0.322603 -5.21303 0
M  V30 10501 H 974.09 -0.0933823 -2.99254 0
M  V30 10502 H 971.636 -0.0463526 -1.43925 0
M  V30 10503 H 973.589 2.28041 -3.54366 0
M  V30 10504 H 972.313 2.31727 -2.30153 0
M  V30 10505 H 970.972 0.633966 -3.61077 0
M  V30 10506 H 970.62 3.0832 -3.97426 0
M  V30 10507 H 970.32 2.15662 -5.46593 0
M  V30 10508 H 971.844 3.06994 -5.27814 0
M  V30 10509 H 973.258 0.832942 -5.67217 0
M  V30 10510 H 971.655 0.112843 -5.99994 0
M  V30 10511 H 972.725 -0.643954 -4.80605 0
M  V30 10512 N 974.068 1.57479 -0.061844 0
M  V30 10513 C 975.296 1.97429 0.618837 0
M  V30 10514 C 975.711 0.939826 1.63746 0
M  V30 10515 O 975.068 -0.0747173 1.82347 0
M  V30 10516 C 975.119 3.3746 1.29628 0
M  V30 10517 O 974.84 4.36941 0.318431 0
M  V30 10518 C 976.341 3.92228 2.06572 0
M  V30 10519 H 973.561 0.649513 0.168444 0
M  V30 10520 H 976.105 2.04078 -0.131303 0
M  V30 10521 H 974.26 3.31928 1.99757 0
M  V30 10522 H 974.674 5.18313 0.803239 0
M  V30 10523 H 976.148 4.92458 2.49377 0
M  V30 10524 H 976.625 3.28231 2.91824 0
M  V30 10525 H 977.231 4.01131 1.4133 0
M  V30 10526 N 975.546 -0.211634 1.56173 0
M  V30 10527 C 976.792 -0.935935 1.79911 0
M  V30 10528 C 977.125 -1.83589 0.633155 0
M  V30 10529 O 976.4 -1.91004 -0.367132 0
M  V30 10530 C 976.683 -1.76638 3.13801 0
M  V30 10531 C 976.536 -0.892259 4.40861 0
M  V30 10532 C 977.855 -2.74224 3.44223 0
M  V30 10533 H 974.974 -0.338822 0.654499 0
M  V30 10534 H 977.616 -0.20422 1.88899 0
M  V30 10535 H 975.766 -2.39021 3.0627 0
M  V30 10536 H 977.438 -0.284407 4.60422 0
M  V30 10537 H 975.681 -0.198145 4.33347 0
M  V30 10538 H 976.352 -1.50793 5.31004 0
M  V30 10539 H 978.828 -2.21975 3.51946 0
M  V30 10540 H 977.704 -3.29424 4.39057 0
M  V30 10541 H 977.965 -3.52455 2.66885 0
M  V30 10542 N 977.024 -1.50153 -0.478725 0
M  V30 10543 C 977.934 -1.71232 -1.60364 0
M  V30 10544 C 978.95 -0.595269 -1.63501 0
M  V30 10545 O 980.126 -0.872683 -1.81511 0
M  V30 10546 C 977.191 -1.79487 -2.96623 0
M  V30 10547 C 976.252 -3.03185 -3.03937 0
M  V30 10548 C 975.485 -3.11036 -4.33696 0
M  V30 10549 O 975.708 -2.2588 -5.23769 0
M  V30 10550 O 974.642 -4.03698 -4.46443 0
M  V30 10551 H 978.468 -2.66575 -1.45505 0
M  V30 10552 H 976.053 -1.34158 -0.65741 0
M  V30 10553 H 977.935 -1.8714 -3.77567 0
M  V30 10554 H 976.61 -0.873264 -3.11698 0
M  V30 10555 H 975.517 -3.01036 -2.22099 0
M  V30 10556 H 976.85 -3.94898 -2.93796 0
M  V30 10557 N 978.502 0.731368 -1.39602 0
M  V30 10558 C 979.918 1.03739 -1.21286 0
M  V30 10559 C 980.118 2.01353 -0.0769875 0
M  V30 10560 O 979.174 2.45978 0.570193 0
M  V30 10561 C 980.487 1.59621 -2.54837 0
M  V30 10562 C 982.035 1.71683 -2.61713 0
M  V30 10563 C 982.51 2.30973 -3.95494 0
M  V30 10564 N 984.001 2.38378 -3.97153 0
M  V30 10565 C 984.736 2.852 -4.97442 0
M  V30 10566 N 984.232 3.31891 -6.08129 0
M  V30 10567 N 986.025 2.84441 -4.84819 0
M  V30 10568 H 978.176 0.0840456 -2.12234 0
M  V30 10569 H 980.439 0.0999038 -0.942721 0
M  V30 10570 H 980.145 0.953608 -3.38525 0
M  V30 10571 H 980.019 2.58375 -2.74813 0
M  V30 10572 H 982.406 2.35064 -1.78406 0
M  V30 10573 H 982.487 0.715714 -2.45583 0
M  V30 10574 H 982.131 1.68219 -4.79234 0
M  V30 10575 H 982.061 3.31769 -4.08946 0
M  V30 10576 H 984.552 2.05382 -3.17217 0
M  V30 10577 H 984.865 3.66138 -6.8056 0
M  V30 10578 H 983.21 3.2989 -6.11717 0
M  V30 10579 H 986.401 2.4729 -3.97448 0
M  V30 10580 H 986.574 3.20616 -5.63124 0
M  V30 10581 N 979.98 1.24838 0.961938 0
M  V30 10582 C 980.913 0.989041 2.05653 0
M  V30 10583 C 981.891 -0.079199 1.62407 0
M  V30 10584 O 983.075 0.0589397 1.88408 0
M  V30 10585 C 980.202 0.493661 3.35083 0
M  V30 10586 C 979.248 1.55132 3.97286 0
M  V30 10587 S 980.081 3.13438 4.34185 0
M  V30 10588 C 981.237 2.65617 5.66744 0
M  V30 10589 H 981.47 1.91588 2.27335 0
M  V30 10590 H 979.003 1.08287 1.10061 0
M  V30 10591 H 980.961 0.214482 4.09939 0
M  V30 10592 H 979.622 -0.412559 3.11379 0
M  V30 10593 H 978.815 1.15525 4.90581 0
M  V30 10594 H 978.417 1.78081 3.28882 0
M  V30 10595 H 980.709 2.08788 6.44526 0
M  V30 10596 H 981.652 3.57524 6.11214 0
M  V30 10597 H 982.06 2.05853 5.25628 0
M  V30 10598 N 981.458 -1.16348 1.06306 0
M  V30 10599 C 982.368 -2.24375 0.685059 0
M  V30 10600 C 983.384 -1.71413 -0.298956 0
M  V30 10601 O 984.56 -2.00854 -0.148239 0
M  V30 10602 C 981.625 -3.46614 0.0774088 0
M  V30 10603 C 980.686 -4.14613 1.11331 0
M  V30 10604 C 979.919 -5.31016 0.534559 0
M  V30 10605 O 980.142 -5.66654 -0.65265 0
M  V30 10606 O 979.076 -5.88256 1.27431 0
M  V30 10607 H 982.902 -2.59018 1.58566 0
M  V30 10608 H 980.487 -1.23865 0.835332 0
M  V30 10609 H 982.369 -4.20599 -0.259716 0
M  V30 10610 H 981.044 -3.13743 -0.796677 0
M  V30 10611 H 979.951 -3.42597 1.50261 0
M  V30 10612 H 981.284 -4.51538 1.95893 0
M  V30 10613 N 982.937 -0.845659 -1.3299 0
M  V30 10614 C 984.162 -0.457435 -2.02293 0
M  V30 10615 C 984.587 0.935634 -1.63179 0
M  V30 10616 O 983.945 1.61297 -0.827835 0
M  V30 10617 C 983.993 -0.593665 -3.5568 0
M  V30 10618 O 983.097 0.37729 -4.10671 0
M  V30 10619 H 982.438 -0.185022 -0.637701 0
M  V30 10620 H 984.968 -1.14237 -1.69738 0
M  V30 10621 H 984.978 -0.477834 -4.05192 0
M  V30 10622 H 983.653 -1.60957 -3.83491 0
M  V30 10623 H 982.23 0.218448 -3.7226 0
M  V30 10624 N 984.415 1.45619 -0.602734 0
M  V30 10625 C 985.826 1.85814 -0.181636 0
M  V30 10626 C 986.177 1.5037 1.26029 0
M  V30 10627 O 985.302 0.928068 1.95489 0
M  V30 10628 C 985.897 3.37258 -0.322866 0
M  V30 10629 C 984.456 3.76375 0.043504 0
M  V30 10630 C 983.603 2.69585 -0.649561 0
M  V30 10631 H 986.554 1.36489 -0.809721 0
M  V30 10632 H 986.575 3.77874 0.446279 0
M  V30 10633 H 986.087 3.63024 -1.37241 0
M  V30 10634 H 984.188 3.56226 1.09241 0
M  V30 10635 H 984.301 4.77843 -0.346765 0
M  V30 10636 H 982.665 2.54549 -0.087706 0
M  V30 10637 H 983.448 2.98188 -1.70115 0
M  V30 10638 N 985.893 0.34162 1.53853 0
M  V30 10639 C 987.142 -0.256475 2.00063 0
M  V30 10640 C 987.455 -1.51811 1.23341 0
M  V30 10641 O 988.661 -2.19332 1.60017 0
M  V30 10642 C 987.117 -0.507567 3.56303 0
M  V30 10643 C 986.725 0.738052 4.41879 0
M  V30 10644 C 988.469 -1.06463 4.10933 0
M  V30 10645 C 986.376 0.457865 5.89625 0
M  V30 10646 H 985.306 -0.0996143 0.747391 0
M  V30 10647 H 987.957 0.456649 1.77727 0
M  V30 10648 H 986.339 -1.28134 3.74697 0
M  V30 10649 H 987.513 1.51278 4.3526 0
M  V30 10650 H 985.828 1.21661 3.98231 0
M  V30 10651 H 988.425 -1.28918 5.18926 0
M  V30 10652 H 988.768 -2.01956 3.64032 0
M  V30 10653 H 989.301 -0.351601 3.96243 0
M  V30 10654 H 986.04 1.38247 6.40756 0
M  V30 10655 H 985.56 -0.278818 5.99152 0
M  V30 10656 H 987.239 0.0743914 6.46957 0
M  V30 10657 N 987.371 -1.57444 0.0701946 0
M  V30 10658 C 988.648 -1.84826 -0.6402 0
M  V30 10659 C 989.028 -0.962344 -1.87889 0
M  V30 10660 O 988.376 -0.0282209 -2.28483 0
M  V30 10661 C 988.586 -3.34976 -0.979382 0
M  V30 10662 C 989.934 -4.02448 -1.35355 0
M  V30 10663 O 990.958 -3.39713 -1.07116 0
M  V30 10664 O 989.817 -5.13096 -1.88136 0
M  V30 10665 H 986.911 -0.763494 -0.317813 0
M  V30 10666 H 989.457 -1.69399 0.101004 0
M  V30 10667 H 988.229 -3.91173 -0.0995576 0
M  V30 10668 H 987.852 -3.5566 -1.7774 0
M  V30 10669 N 988.849 0.203349 -1.56283 0
M  V30 10670 C 990.074 0.945548 -1.84592 0
M  V30 10671 C 990.499 1.7641 -0.652772 0
M  V30 10672 O 989.857 1.76867 0.398468 0
M  V30 10673 C 989.905 1.82416 -3.11057 0
M  V30 10674 O 989.009 2.92191 -2.9103 0
M  V30 10675 H 988.35 0.266739 -0.608068 0
M  V30 10676 H 990.88 0.211158 -2.03507 0
M  V30 10677 H 990.89 2.23044 -3.41636 0
M  V30 10678 H 989.565 1.22267 -3.97522 0
M  V30 10679 H 988.142 2.55378 -2.71728 0
M  V30 10680 N 990.327 1.50405 0.470755 0
M  V30 10681 C 991.29 1.68741 1.5511 0
M  V30 10682 C 992.29 0.558116 1.50804 0
M  V30 10683 O 993.48 0.825149 1.53418 0
M  V30 10684 C 990.612 1.71295 2.94739 0
M  V30 10685 H 991.805 2.65127 1.40169 0
M  V30 10686 H 989.358 1.39891 0.697156 0
M  V30 10687 H 990.093 0.766029 3.15123 0
M  V30 10688 H 989.878 2.53336 2.99271 0
M  V30 10689 H 991.368 1.87434 3.73173 0
M  V30 10690 N 991.805 -0.723954 1.39988 0
M  V30 10691 C 993.082 -1.4763 1.28316 0
M  V30 10692 C 993.462 -2.10852 -0.102302 0
M  V30 10693 O 992.81 -1.9948 -1.11445 0
M  V30 10694 C 993.02 -2.51878 2.41574 0
M  V30 10695 C 994.368 -3.17948 2.81415 0
M  V30 10696 O 995.392 -2.62195 2.41106 0
M  V30 10697 O 994.251 -4.18858 3.51027 0
M  V30 10698 H 991.345 -0.656092 0.50346 0
M  V30 10699 H 993.891 -0.75684 1.51888 0
M  V30 10700 H 992.663 -2.03618 3.34149 0
M  V30 10701 H 992.286 -3.3137 2.19727 0
M  V30 10702 N 993.283 -1.25346 -0.955304 0
M  V30 10703 C 994.56 -1.00829 -1.67609 0
M  V30 10704 C 994.94 0.465675 -2.059 0
M  V30 10705 O 994.288 1.44287 -1.77182 0
M  V30 10706 C 994.498 -1.94337 -2.89886 0
M  V30 10707 C 995.846 -2.22142 -3.61854 0
M  V30 10708 O 996.87 -1.9209 -2.99967 0
M  V30 10709 O 995.729 -2.73239 -4.73289 0
M  V30 10710 H 992.823 -0.382314 -0.733325 0
M  V30 10711 H 995.369 -1.36498 -1.00829 0
M  V30 10712 H 994.141 -2.93867 -2.58376 0
M  V30 10713 H 993.764 -1.59062 -3.64397 0
M  V30 10714 N 994.761 1.15782 -1.06922 0
M  V30 10715 C 995.691 2.22538 -0.707045 0
M  V30 10716 C 996.672 1.67371 0.303471 0
M  V30 10717 O 997.857 1.9339 0.177189 0
M  V30 10718 C 994.987 3.47158 -0.0994269 0
M  V30 10719 C 993.941 4.15257 -1.03661 0
M  V30 10720 C 993.267 5.33902 -0.291974 0
M  V30 10721 C 994.567 4.65516 -2.36837 0
M  V30 10722 H 996.261 2.53089 -1.59958 0
M  V30 10723 H 993.807 1.21649 -0.770552 0
M  V30 10724 H 995.76 4.21073 0.165852 0
M  V30 10725 H 994.484 3.15926 0.828155 0
M  V30 10726 H 993.143 3.43276 -1.28674 0
M  V30 10727 H 992.791 4.98926 0.638928 0
M  V30 10728 H 992.491 5.80407 -0.916613 0
M  V30 10729 H 994.015 6.1059 -0.0343915 0
M  V30 10730 H 995.429 5.30981 -2.16175 0
M  V30 10731 H 993.826 5.22666 -2.94856 0
M  V30 10732 H 994.896 3.81387 -2.99453 0
M  V30 10733 N 996.239 0.8527 1.3254 0
M  V30 10734 C 997.202 0.300959 2.27215 0
M  V30 10735 C 998.202 -0.538235 1.51525 0
M  V30 10736 O 999.392 -0.350027 1.70647 0
M  V30 10737 C 996.524 -0.574428 3.36025 0
M  V30 10738 H 997.717 1.13655 2.77529 0
M  V30 10739 H 995.27 0.626878 1.43178 0
M  V30 10740 H 996.005 -1.43191 2.90976 0
M  V30 10741 H 995.79 0.0262265 3.92091 0
M  V30 10742 H 997.28 -0.9533 4.06573 0
M  V30 10743 N 997.718 -1.45297 0.610449 0
M  V30 10744 C 998.665 -2.30553 -0.106718 0
M  V30 10745 C 999.635 -1.42272 -0.85719 0
M  V30 10746 O 1000.82 -1.71199 -0.842357 0
M  V30 10747 C 997.96 -3.27226 -1.09623 0
M  V30 10748 C 997.073 -4.3061 -0.346329 0
M  V30 10749 C 996.208 -5.14389 -1.32581 0
M  V30 10750 C 995.247 -6.09497 -0.563892 0
M  V30 10751 N 994.384 -6.86047 -1.4928 0
M  V30 10752 H 999.224 -2.91344 0.626296 0
M  V30 10753 H 996.761 -1.43563 0.32065 0
M  V30 10754 H 998.719 -3.81744 -1.68308 0
M  V30 10755 H 997.349 -2.68182 -1.79662 0
M  V30 10756 H 996.401 -3.7873 0.356084 0
M  V30 10757 H 997.713 -4.98183 0.248026 0
M  V30 10758 H 996.867 -5.73321 -1.98464 0
M  V30 10759 H 995.606 -4.4684 -1.9541 0
M  V30 10760 H 994.611 -5.49693 0.108551 0
M  V30 10761 H 995.836 -6.79074 0.0593872 0
M  V30 10762 H 993.782 -6.21185 -2.10868 0
M  V30 10763 H 993.699 -7.49983 -0.951953 0
M  V30 10764 H 994.967 -7.49518 -2.14112 0
M  V30 10765 N 999.196 -0.349774 -1.5367 0
M  V30 10766 C 1000.13 0.538575 -2.22782 0
M  V30 10767 C 1001.14 1.05896 -1.23652 0
M  V30 10768 O 1002.33 0.968045 -1.4997 0
M  V30 10769 C 999.43 1.7546 -2.89943 0
M  V30 10770 C 998.603 1.36843 -4.15443 0
M  V30 10771 C 997.662 2.4448 -4.65957 0
M  V30 10772 O 996.688 2.07528 -5.3002 0
M  V30 10773 N 997.89 3.75829 -4.42417 0
M  V30 10774 H 1000.65 -0.053348 -2.99653 0
M  V30 10775 H 998.216 -0.174193 -1.6096 0
M  V30 10776 H 1000.21 2.46911 -3.20651 0
M  V30 10777 H 998.778 2.25375 -2.16622 0
M  V30 10778 H 997.998 0.484421 -3.91212 0
M  V30 10779 H 999.286 1.0865 -4.97064 0
M  V30 10780 H 998.684 4.08635 -3.91196 0
M  V30 10781 H 997.241 4.43432 -4.77714 0
M  V30 10782 N 1000.67 1.57404 -0.0785433 0
M  V30 10783 C 1001.9 1.98074 0.597862 0
M  V30 10784 C 1002.32 0.95714 1.6274 0
M  V30 10785 O 1001.67 -0.0553728 1.82416 0
M  V30 10786 C 1001.72 3.38815 1.26041 0
M  V30 10787 O 1001.45 4.37254 0.27207 0
M  V30 10788 C 1002.95 3.94397 2.024 0
M  V30 10789 H 1000.17 0.651263 0.161546 0
M  V30 10790 H 1002.71 2.03927 -0.152941 0
M  V30 10791 H 1000.87 3.34028 1.96225 0
M  V30 10792 H 1001.28 5.19136 0.74822 0
M  V30 10793 H 1002.75 4.95075 2.4414 0
M  V30 10794 H 1003.23 3.31308 2.88326 0
M  V30 10795 H 1003.84 4.02607 1.37068 0
M  V30 10796 N 1002.15 -0.195058 1.56388 0
M  V30 10797 C 1003.1 -1.24175 1.94549 0
M  V30 10798 C 1004.07 -1.45229 0.806089 0
M  V30 10799 O 1005.25 -1.58362 1.06425 0
M  V30 10800 C 1002.39 -2.58145 2.29031 0
M  V30 10801 C 1001.51 -2.44669 3.56035 0
M  V30 10802 C 1000.64 -3.71342 3.7984 0
M  V30 10803 C 999.681 -3.52699 5.0027 0
M  V30 10804 N 998.818 -4.71385 5.20328 0
M  V30 10805 H 1003.66 -0.909319 2.83788 0
M  V30 10806 H 1001.19 -0.437641 1.40439 0
M  V30 10807 H 1003.15 -3.36195 2.4704 0
M  V30 10808 H 1001.78 -2.8943 1.42933 0
M  V30 10809 H 1000.83 -1.57916 3.46073 0
M  V30 10810 H 1002.15 -2.26827 4.44242 0
M  V30 10811 H 1001.3 -4.57832 3.98088 0
M  V30 10812 H 1000.04 -3.92138 2.89964 0
M  V30 10813 H 999.045 -2.64594 4.81944 0
M  V30 10814 H 1000.27 -3.33349 5.91655 0
M  V30 10815 H 998.216 -4.92444 4.33399 0
M  V30 10816 H 998.133 -4.56368 6.02714 0
M  V30 10817 H 999.401 -5.59226 5.43035 0
M  V30 10818 N 1003.63 -1.50653 -0.462772 0
M  V30 10819 C 1004.88 -1.61296 -1.21105 0
M  V30 10820 C 1005.19 -0.322757 -1.92919 0
M  V30 10821 O 1006.4 -0.308211 -2.69745 0
M  V30 10822 C 1004.85 -2.84752 -2.201 0
M  V30 10823 C 1004.46 -4.20681 -1.54051 0
M  V30 10824 C 1006.21 -3.04744 -2.95518 0
M  V30 10825 C 1004.11 -5.35314 -2.51381 0
M  V30 10826 H 1003.04 -0.60069 -0.455728 0
M  V30 10827 H 1005.69 -1.77093 -0.480656 0
M  V30 10828 H 1004.08 -2.62532 -2.96467 0
M  V30 10829 H 1005.25 -4.53187 -0.834168 0
M  V30 10830 H 1003.56 -4.06361 -0.908828 0
M  V30 10831 H 1006.16 -3.87559 -3.68378 0
M  V30 10832 H 1006.5 -2.16802 -3.55391 0
M  V30 10833 H 1007.04 -3.27185 -2.26263 0
M  V30 10834 H 1003.78 -6.25437 -1.96235 0
M  V30 10835 H 1003.3 -5.07216 -3.20144 0
M  V30 10836 H 1004.98 -5.66229 -3.1304 0
M  V30 10837 N 1005.11 0.71652 -1.4037 0
M  V30 10838 C 1006.02 1.86074 -1.42876 0
M  V30 10839 C 1007.03 1.71005 -0.321475 0
M  V30 10840 O 1008.21 1.93286 -0.565909 0
M  V30 10841 C 1005.28 3.21862 -1.28863 0
M  V30 10842 C 1004.34 3.49193 -2.49726 0
M  V30 10843 C 1003.57 4.78502 -2.36372 0
M  V30 10844 O 1003.79 5.53529 -1.37703 0
M  V30 10845 O 1002.73 5.06147 -3.25728 0
M  V30 10846 H 1006.55 1.86916 -2.39366 0
M  V30 10847 H 1004.14 0.866818 -1.21683 0
M  V30 10848 H 1006.02 4.02972 -1.23253 0
M  V30 10849 H 1004.69 3.2175 -0.354783 0
M  V30 10850 H 1003.6 2.68095 -2.60913 0
M  V30 10851 H 1004.93 3.54101 -3.41868 0
M  V30 10852 N 1006.59 1.25851 0.948643 0
M  V30 10853 C 1007.82 1.13546 1.726 0
M  V30 10854 C 1008.22 -0.312857 1.86595 0
M  V30 10855 O 1007.57 -1.22657 1.36751 0
M  V30 10856 C 1007.63 1.72315 3.15512 0
M  V30 10857 C 1007.29 3.2136 3.24926 0
M  V30 10858 C 1008.29 4.18274 3.08777 0
M  V30 10859 C 1005.98 3.61683 3.48555 0
M  V30 10860 C 1007.97 5.53491 3.16112 0
M  V30 10861 C 1005.66 4.97035 3.55526 0
M  V30 10862 C 1006.65 5.92749 3.3932 0
M  V30 10863 O 1006.34 7.25637 3.45985 0
M  V30 10864 H 1006.07 0.396555 0.547467 0
M  V30 10865 H 1008.63 1.66822 1.19832 0
M  V30 10866 H 1006.86 1.13494 3.6967 0
M  V30 10867 H 1008.55 1.55024 3.7513 0
M  V30 10868 H 1009.31 3.88461 2.90385 0
M  V30 10869 H 1005.19 2.87674 3.60229 0
M  V30 10870 H 1008.74 6.28177 3.0338 0
M  V30 10871 H 1004.63 5.26512 3.73437 0
M  V30 10872 H 1005.4 7.33812 3.62577 0
M  V30 10873 N 1008.06 -1.15214 1.07534 0
M  V30 10874 C 1009.31 -1.85676 0.79805 0
M  V30 10875 C 1009.63 -1.82837 -0.677919 0
M  V30 10876 O 1008.9 -1.27059 -1.49107 0
M  V30 10877 H 1007.48 -0.687468 0.292227 0
M  V30 10878 H 1010.15 -1.39658 1.35947 0
M  V30 10879 H 1009.24 -2.9076 1.13423 0
M  V30 10880 N 1009.54 -0.859717 -1.32086 0
M  V30 10881 C 1010.51 -0.313005 -2.27053 0
M  V30 10882 C 1011.51 0.530191 -1.51808 0
M  V30 10883 O 1012.7 0.340972 -1.7083 0
M  V30 10884 C 1009.83 0.5566 -3.36325 0
M  V30 10885 H 1011.02 -1.15125 -2.76923 0
M  V30 10886 H 1008.57 -0.634463 -1.42843 0
M  V30 10887 H 1009.31 1.41645 -2.91731 0
M  V30 10888 H 1009.09 -0.0470197 -3.92072 0
M  V30 10889 H 1010.58 0.931725 -4.07073 0
M  V30 10890 N 1011.02 1.44971 -0.618145 0
M  V30 10891 C 1012.27 2.02458 -0.117656 0
M  V30 10892 C 1012.6 1.48413 1.25248 0
M  V30 10893 O 1011.87 0.662997 1.82851 0
M  V30 10894 C 1012.16 3.59987 -0.0901897 0
M  V30 10895 C 1012.01 4.24343 -1.49175 0
M  V30 10896 C 1013.33 4.36099 0.592121 0
M  V30 10897 H 1010.45 0.735672 -0.0442291 0
M  V30 10898 H 1013.09 1.727 -0.792138 0
M  V30 10899 H 1011.24 3.85471 0.484175 0
M  V30 10900 H 1012.91 4.10009 -2.114 0
M  V30 10901 H 1011.16 3.82337 -2.04941 0
M  V30 10902 H 1011.83 5.33298 -1.42468 0
M  V30 10903 H 1014.3 4.1597 0.103813 0
M  V30 10904 H 1013.18 5.45822 0.580481 0
M  V30 10905 H 1013.44 4.09746 1.66015 0
M  V30 10906 N 1012.5 0.357919 1.53482 0
M  V30 10907 C 1013.41 -0.500273 2.29204 0
M  V30 10908 C 1014.42 -1.09936 1.3487 0
M  V30 10909 O 1015.6 -1.11195 1.67921 0
M  V30 10910 C 1012.67 -1.62828 3.06085 0
M  V30 10911 C 1011.73 -1.05751 4.16071 0
M  V30 10912 C 1010.96 -2.13176 4.89277 0
M  V30 10913 O 1011.18 -3.34153 4.62274 0
M  V30 10914 O 1010.12 -1.76663 5.7539 0
M  V30 10915 H 1013.94 0.115696 3.0348 0
M  V30 10916 H 1011.53 0.122527 1.48897 0
M  V30 10917 H 1013.41 -2.28427 3.54117 0
M  V30 10918 H 1012.08 -2.22979 2.34653 0
M  V30 10919 H 1010.99 -0.365642 3.72309 0
M  V30 10920 H 1012.32 -0.500661 4.89647 0
M  V30 10921 N 1013.98 -1.5736 0.0868897 0
M  V30 10922 C 1015.25 -1.85495 -0.620561 0
M  V30 10923 C 1015.63 -0.982218 -1.86857 0
M  V30 10924 O 1014.98 -0.0524529 -2.2844 0
M  V30 10925 C 1015.19 -3.35996 -0.943798 0
M  V30 10926 C 1016.54 -4.03861 -1.31079 0
M  V30 10927 O 1017.56 -3.4083 -1.03507 0
M  V30 10928 O 1016.42 -5.15062 -1.82683 0
M  V30 10929 H 1013.52 -0.766822 -0.309697 0
M  V30 10930 H 1016.06 -1.69282 0.118966 0
M  V30 10931 H 1014.83 -3.91257 -0.0580628 0
M  V30 10932 H 1014.46 -3.57525 -1.73958 0
M  V30 10933 N 1015.45 0.186762 -1.56489 0
M  V30 10934 C 1016.7 0.904063 -1.80752 0
M  V30 10935 C 1017.02 1.83443 -0.661343 0
M  V30 10936 O 1016.29 1.93272 0.319811 0
M  V30 10937 H 1014.87 0.336828 -0.66675 0
M  V30 10938 H 1017.54 0.190275 -1.93969 0
M  V30 10939 H 1016.63 1.49021 -2.74225 0
M  V30 10940 N 1016.93 1.50896 0.454776 0
M  V30 10941 C 1017.9 1.70377 1.53312 0
M  V30 10942 C 1018.9 0.57408 1.50203 0
M  V30 10943 O 1020.09 0.841374 1.52534 0
M  V30 10944 C 1017.22 1.74411 2.92905 0
M  V30 10945 H 1018.41 2.66599 1.37349 0
M  V30 10946 H 1015.96 1.40622 0.68228 0
M  V30 10947 H 1016.7 0.799408 3.14293 0
M  V30 10948 H 1016.48 2.56496 2.96568 0
M  V30 10949 H 1017.97 1.91382 3.71164 0
M  V30 10950 N 1018.41 -0.709066 1.40748 0
M  V30 10951 C 1019.64 -1.49808 1.42707 0
M  V30 10952 C 1020.05 -1.88778 0.0285574 0
M  V30 10953 O 1019.41 -1.55883 -0.949035 0
M  V30 10954 C 1019.46 -2.76926 2.32366 0
M  V30 10955 O 1019.18 -2.39602 3.66773 0
M  V30 10956 C 1020.68 -3.70773 2.42986 0
M  V30 10957 H 1017.9 -0.462106 0.486517 0
M  V30 10958 H 1020.45 -0.874135 1.84876 0
M  V30 10959 H 1018.6 -3.3559 1.93541 0
M  V30 10960 H 1019.02 -3.21443 4.14457 0
M  V30 10961 H 1020.49 -4.56789 3.09916 0
M  V30 10962 H 1020.97 -4.14332 1.45691 0
M  V30 10963 H 1021.57 -3.18019 2.8239 0
M  V30 10964 N 1019.89 -1.26353 -0.941956 0
M  V30 10965 C 1020.82 -1.02163 -2.04054 0
M  V30 10966 C 1021.8 0.0533514 -1.62512 0
M  V30 10967 O 1022.98 -0.0889063 -1.8829 0
M  V30 10968 C 1020.11 -0.546908 -3.34255 0
M  V30 10969 C 1019.16 -1.61433 -3.94768 0
M  V30 10970 S 1019.99 -3.20306 -4.29144 0
M  V30 10971 C 1021.15 -2.746 -5.62446 0
M  V30 10972 H 1021.38 -1.9518 -2.24259 0
M  V30 10973 H 1018.91 -1.10024 -1.08324 0
M  V30 10974 H 1020.87 -0.279673 -4.09546 0
M  V30 10975 H 1019.53 0.36297 -3.11996 0
M  V30 10976 H 1018.72 -1.23315 -4.88681 0
M  V30 10977 H 1018.33 -1.8329 -3.26007 0
M  V30 10978 H 1020.62 -2.19015 -6.41123 0
M  V30 10979 H 1021.56 -3.67202 -6.05449 0
M  V30 10980 H 1021.97 -2.1419 -5.22286 0
M  V30 10981 N 1021.37 1.14642 -1.08144 0
M  V30 10982 C 1022.6 1.89484 -0.830864 0
M  V30 10983 C 1023.01 1.78443 0.616722 0
M  V30 10984 O 1022.37 1.14191 1.42361 0
M  V30 10985 C 1022.42 3.39554 -1.24039 0
M  V30 10986 O 1022.14 3.50286 -2.63119 0
M  V30 10987 C 1023.64 4.31399 -1.02029 0
M  V30 10988 H 1020.86 0.600283 -0.299835 0
M  V30 10989 H 1023.4 1.45204 -1.44001 0
M  V30 10990 H 1021.56 3.81467 -0.675407 0
M  V30 10991 H 1021.97 4.43481 -2.80045 0
M  V30 10992 H 1023.45 5.35079 -1.35625 0
M  V30 10993 H 1023.92 4.39179 0.0428697 0
M  V30 10994 H 1024.53 3.95238 -1.57057 0
M  V30 10995 N 1022.85 0.866709 1.31628 0
M  V30 10996 C 1024.09 0.476026 1.96825 0
M  V30 10997 C 1024.42 -0.970994 1.68529 0
M  V30 10998 O 1023.68 -1.69823 0.97255 0
M  V30 10999 C 1023.97 0.676018 3.50948 0
M  V30 11000 C 1023.64 2.09533 3.99258 0
M  V30 11001 C 1022.3 2.48349 4.1216 0
M  V30 11002 C 1024.65 3.02112 4.24709 0
M  V30 11003 C 1021.98 3.78991 4.47864 0
M  V30 11004 C 1024.33 4.32266 4.61875 0
M  V30 11005 C 1023 4.71 4.72985 0
M  V30 11006 H 1022.27 0.17419 0.720235 0
M  V30 11007 H 1024.92 1.09907 1.5682 0
M  V30 11008 H 1023.22 -0.0301867 3.91788 0
M  V30 11009 H 1024.92 0.353604 3.99438 0
M  V30 11010 H 1021.51 1.78396 3.89709 0
M  V30 11011 H 1025.69 2.73351 4.14238 0
M  V30 11012 H 1020.95 4.08769 4.54663 0
M  V30 11013 H 1025.12 5.04055 4.80522 0
M  V30 11014 H 1022.75 5.72273 5.00407 0
M  V30 11015 N 1024.32 -1.44642 0.625825 0
M  V30 11016 C 1025.57 -2.02094 0.128201 0
M  V30 11017 C 1025.9 -1.49181 -1.24801 0
M  V30 11018 O 1025.15 -0.663965 -1.84092 0
M  V30 11019 C 1025.45 -3.57352 0.0584381 0
M  V30 11020 C 1025.12 -4.29496 1.37272 0
M  V30 11021 C 1023.78 -4.48922 1.7327 0
M  V30 11022 C 1026.13 -4.70586 2.2405 0
M  V30 11023 C 1023.46 -5.06697 2.95762 0
M  V30 11024 C 1025.81 -5.29717 3.45807 0
M  V30 11025 C 1024.48 -5.47363 3.82034 0
M  V30 11026 H 1023.75 -0.739514 0.0469122 0
M  V30 11027 H 1026.39 -1.73475 0.811083 0
M  V30 11028 H 1024.7 -3.85354 -0.707791 0
M  V30 11029 H 1026.4 -3.9953 -0.34303 0
M  V30 11030 H 1022.99 -4.14702 1.08258 0
M  V30 11031 H 1027.17 -4.55295 1.97535 0
M  V30 11032 H 1022.43 -5.18546 3.23913 0
M  V30 11033 H 1026.6 -5.60507 4.13286 0
M  V30 11034 H 1024.23 -5.91898 4.77033 0
M  V30 11035 N 1025.8 -0.366053 -1.5329 0
M  V30 11036 C 1026.75 0.480205 -2.25749 0
M  V30 11037 C 1027.72 1.07713 -1.2644 0
M  V30 11038 O 1028.9 1.10953 -1.55222 0
M  V30 11039 C 1026.04 1.61374 -3.05045 0
M  V30 11040 C 1025.16 1.04194 -4.19246 0
M  V30 11041 C 1024.29 2.14462 -4.85983 0
M  V30 11042 C 1023.33 1.5475 -5.92215 0
M  V30 11043 N 1022.47 2.58852 -6.52641 0
M  V30 11044 H 1027.31 -0.144199 -2.97651 0
M  V30 11045 H 1024.84 -0.0829321 -1.46866 0
M  V30 11046 H 1026.8 2.28144 -3.49294 0
M  V30 11047 H 1025.43 2.2088 -2.35397 0
M  V30 11048 H 1024.48 0.264514 -3.79479 0
M  V30 11049 H 1025.8 0.565379 -4.95585 0
M  V30 11050 H 1024.95 2.89051 -5.33418 0
M  V30 11051 H 1023.69 2.6547 -4.09117 0
M  V30 11052 H 1022.69 0.786759 -5.44142 0
M  V30 11053 H 1023.92 1.04566 -6.71001 0
M  V30 11054 H 1021.87 3.09073 -5.78627 0
M  V30 11055 H 1021.78 2.15884 -7.24521 0
M  V30 11056 H 1023.05 3.33142 -7.04724 0
M  V30 11057 N 1027.28 1.57312 -0.0952337 0
M  V30 11058 C 1028.23 2.14032 0.863657 0
M  V30 11059 C 1029.2 1.0589 1.27971 0
M  V30 11060 O 1030.38 1.33678 1.36143 0
M  V30 11061 C 1027.52 2.72513 2.11733 0
M  V30 11062 C 1026.63 3.94887 1.7518 0
M  V30 11063 C 1025.77 4.41533 2.95334 0
M  V30 11064 C 1024.81 5.56496 2.54908 0
M  V30 11065 N 1023.95 5.97993 3.67897 0
M  V30 11066 H 1028.79 2.95655 0.373115 0
M  V30 11067 H 1026.32 1.46085 0.172497 0
M  V30 11068 H 1028.28 3.04539 2.85153 0
M  V30 11069 H 1026.91 1.93618 2.58287 0
M  V30 11070 H 1025.96 3.69175 0.917279 0
M  V30 11071 H 1027.27 4.78322 1.41455 0
M  V30 11072 H 1026.43 4.75343 3.77007 0
M  V30 11073 H 1025.17 3.56999 3.3227 0
M  V30 11074 H 1024.17 5.22314 1.71662 0
M  V30 11075 H 1025.4 6.42779 2.19117 0
M  V30 11076 H 1023.34 5.16405 4.04551 0
M  V30 11077 H 1023.26 6.76225 3.38018 0
M  V30 11078 H 1024.53 6.36434 4.5008 0
M  V30 11079 N 1028.76 -0.17846 1.56586 0
M  V30 11080 C 1029.98 -0.916061 1.86073 0
M  V30 11081 C 1030.41 -1.75349 0.680754 0
M  V30 11082 O 1029.77 -1.77479 -0.37028 0
M  V30 11083 C 1029.81 -1.77445 3.1392 0
M  V30 11084 O 1028.92 -2.87524 2.95641 0
M  V30 11085 H 1028.26 -0.257031 0.612234 0
M  V30 11086 H 1030.79 -0.178755 2.03818 0
M  V30 11087 H 1030.8 -2.1758 3.45142 0
M  V30 11088 H 1029.47 -1.15927 3.99417 0
M  V30 11089 H 1028.05 -2.51023 2.75757 0
M  V30 11090 N 1030.24 -1.51135 -0.446768 0
M  V30 11091 C 1031.18 -1.71767 -1.54158 0
M  V30 11092 C 1032.15 -0.559201 -1.56404 0
M  V30 11093 O 1033.34 -0.792567 -1.7356 0
M  V30 11094 C 1030.48 -1.84006 -2.91952 0
M  V30 11095 C 1029.59 -3.11511 -2.99308 0
M  V30 11096 C 1028.73 -3.144 -4.28166 0
M  V30 11097 C 1027.76 -4.36258 -4.29355 0
M  V30 11098 N 1026.9 -4.3675 -5.49722 0
M  V30 11099 H 1031.74 -2.65224 -1.35869 0
M  V30 11100 H 1029.28 -1.31453 -0.660186 0
M  V30 11101 H 1031.24 -1.89083 -3.71892 0
M  V30 11102 H 1029.87 -0.939661 -3.08821 0
M  V30 11103 H 1028.92 -3.15788 -2.12089 0
M  V30 11104 H 1030.23 -4.01445 -2.96047 0
M  V30 11105 H 1029.38 -3.18341 -5.16473 0
M  V30 11106 H 1028.12 -2.22338 -4.3407 0
M  V30 11107 H 1027.13 -4.32503 -3.39442 0
M  V30 11108 H 1028.35 -5.29574 -4.25122 0
M  V30 11109 H 1026.3 -3.47554 -5.56365 0
M  V30 11110 H 1026.22 -5.20481 -5.48302 0
M  V30 11111 H 1027.48 -4.4487 -6.40086 0
M  V30 11112 N 1031.71 0.701592 -1.41122 0
M  V30 11113 C 1032.96 1.45722 -1.39456 0
M  V30 11114 C 1033.28 1.95599 -0.00475228 0
M  V30 11115 O 1034.48 2.71166 0.134529 0
M  V30 11116 C 1032.94 2.63475 -2.45172 0
M  V30 11117 C 1032.55 2.20409 -3.90031 0
M  V30 11118 C 1034.29 3.4114 -2.52633 0
M  V30 11119 C 1032.2 3.35084 -4.87312 0
M  V30 11120 H 1031.13 0.547341 -0.518588 0
M  V30 11121 H 1033.78 0.762233 -1.6692 0
M  V30 11122 H 1032.16 3.35212 -2.10829 0
M  V30 11123 H 1033.33 1.56 -4.3359 0
M  V30 11124 H 1031.65 1.55752 -3.86174 0
M  V30 11125 H 1034.25 4.26496 -3.22498 0
M  V30 11126 H 1034.59 3.85915 -1.56125 0
M  V30 11127 H 1035.12 2.76456 -2.86037 0
M  V30 11128 H 1031.86 2.95327 -5.85203 0
M  V30 11129 H 1031.38 3.98362 -4.48406 0
M  V30 11130 H 1033.06 4.00949 -5.07788 0
M  V30 11131 N 1033.19 1.2685 0.935242 0
M  V30 11132 C 1034.42 1.15645 1.72165 0
M  V30 11133 C 1034.84 -0.283909 1.85945 0
M  V30 11134 O 1034.2 -1.20567 1.354 0
M  V30 11135 C 1034.25 1.83689 3.10307 0
M  V30 11136 O 1033.35 1.12972 3.96625 0
M  V30 11137 H 1032.69 0.402629 0.528002 0
M  V30 11138 H 1035.22 1.67781 1.17093 0
M  V30 11139 H 1035.23 1.90749 3.60664 0
M  V30 11140 H 1033.91 2.88472 2.99595 0
M  V30 11141 H 1032.48 1.13929 3.5507 0
M  V30 11142 N 1034.67 -1.14067 1.0875 0
M  V30 11143 C 1035.9 -1.89041 0.840902 0
M  V30 11144 C 1036.31 -1.78768 -0.60725 0
M  V30 11145 O 1035.67 -1.14945 -1.41753 0
M  V30 11146 C 1035.72 -3.38891 1.25838 0
M  V30 11147 O 1035.44 -3.48886 2.64972 0
M  V30 11148 C 1036.94 -4.30852 1.04315 0
M  V30 11149 H 1034.16 -0.598685 0.303014 0
M  V30 11150 H 1036.71 -1.44438 1.44769 0
M  V30 11151 H 1034.86 -3.81103 0.695627 0
M  V30 11152 H 1035.28 -4.41989 2.82393 0
M  V30 11153 H 1036.75 -5.34353 1.38461 0
M  V30 11154 H 1037.23 -4.39196 -0.0195784 0
M  V30 11155 H 1037.83 -3.944 1.59151 0
M  V30 11156 N 1036.15 -0.873678 -1.31166 0
M  V30 11157 C 1037.38 -0.500317 -2.0045 0
M  V30 11158 C 1037.79 0.912716 -1.65729 0
M  V30 11159 O 1037.13 1.61001 -0.884563 0
M  V30 11160 C 1037.19 -0.58197 -3.54758 0
M  V30 11161 C 1036.86 -1.95728 -4.12964 0
M  V30 11162 C 1037.85 -2.92526 -4.29796 0
M  V30 11163 C 1035.54 -2.2596 -4.48606 0
M  V30 11164 C 1037.53 -4.17697 -4.81464 0
M  V30 11165 C 1035.22 -3.5138 -4.99976 0
M  V30 11166 C 1036.22 -4.47064 -5.16356 0
M  V30 11167 O 1035.9 -5.70259 -5.66621 0
M  V30 11168 H 1035.64 -0.193044 -0.64785 0
M  V30 11169 H 1038.19 -1.17768 -1.68285 0
M  V30 11170 H 1036.42 0.152326 -3.864 0
M  V30 11171 H 1038.11 -0.221506 -4.05295 0
M  V30 11172 H 1038.88 -2.70479 -4.02574 0
M  V30 11173 H 1034.75 -1.52258 -4.3513 0
M  V30 11174 H 1038.3 -4.92389 -4.94165 0
M  V30 11175 H 1034.2 -3.73269 -5.26631 0
M  V30 11176 H 1034.96 -5.72483 -5.84983 0
M  V30 11177 N 1037.63 1.44308 -0.633487 0
M  V30 11178 C 1038.9 1.95476 -0.0697262 0
M  V30 11179 C 1039.28 1.57539 1.40516 0
M  V30 11180 O 1038.63 0.850632 2.12077 0
M  V30 11181 C 1038.84 3.4775 -0.295093 0
M  V30 11182 C 1040.19 4.24177 -0.189542 0
M  V30 11183 O 1041.21 3.55479 -0.226586 0
M  V30 11184 O 1040.07 5.46415 -0.096479 0
M  V30 11185 H 1037.17 0.826734 0.0209582 0
M  V30 11186 H 1039.71 1.54347 -0.705354 0
M  V30 11187 H 1038.48 3.6842 -1.31841 0
M  V30 11188 H 1038.11 3.95832 0.37456 0
M  V30 11189 N 1039.1 0.374177 1.53094 0
M  V30 11190 C 1040.05 -0.468226 2.26001 0
M  V30 11191 C 1041.02 -1.07041 1.27009 0
M  V30 11192 O 1042.21 -1.10129 1.55809 0
M  V30 11193 C 1039.35 -1.59754 3.05896 0
M  V30 11194 C 1038.46 -1.01969 4.19793 0
M  V30 11195 C 1037.59 -2.11882 4.87113 0
M  V30 11196 C 1036.63 -1.51607 5.93028 0
M  V30 11197 N 1035.77 -2.55388 6.54004 0
M  V30 11198 H 1040.61 0.159983 2.9757 0
M  V30 11199 H 1038.15 0.0907196 1.4682 0
M  V30 11200 H 1040.11 -2.26288 3.50499 0
M  V30 11201 H 1038.74 -2.19628 2.36565 0
M  V30 11202 H 1037.79 -0.244386 3.79614 0
M  V30 11203 H 1039.1 -0.539089 4.95878 0
M  V30 11204 H 1038.25 -2.86218 5.34943 0
M  V30 11205 H 1036.99 -2.63297 4.10519 0
M  V30 11206 H 1036 -0.757891 5.44551 0
M  V30 11207 H 1037.22 -1.01006 6.71546 0
M  V30 11208 H 1035.17 -3.06 5.80258 0
M  V30 11209 H 1035.09 -2.12039 7.25655 0
M  V30 11210 H 1036.35 -3.294 7.06481 0
M  V30 11211 N 1040.58 -1.57259 0.103575 0
M  V30 11212 C 1041.52 -2.10165 -0.889141 0
M  V30 11213 C 1042.49 -1.01426 -1.27089 0
M  V30 11214 O 1043.68 -1.2898 -1.37465 0
M  V30 11215 C 1040.8 -2.58564 -2.18774 0
M  V30 11216 C 1039.85 -3.79043 -1.95522 0
M  V30 11217 S 1040.68 -5.22213 -1.18551 0
M  V30 11218 C 1041.84 -5.73968 -2.49623 0
M  V30 11219 H 1042.07 -2.9404 -0.439083 0
M  V30 11220 H 1039.61 -1.54008 -0.10989 0
M  V30 11221 H 1041.56 -2.87106 -2.93395 0
M  V30 11222 H 1040.22 -1.749 -2.609 0
M  V30 11223 H 1039.42 -4.11004 -2.91705 0
M  V30 11224 H 1039.02 -3.51038 -1.29028 0
M  V30 11225 H 1041.31 -5.82752 -3.45553 0
M  V30 11226 H 1042.25 -6.72324 -2.22229 0
M  V30 11227 H 1042.66 -5.01946 -2.58284 0
M  V30 11228 N 1042.06 0.170153 -1.56679 0
M  V30 11229 C 1043.31 0.883211 -1.83224 0
M  V30 11230 C 1043.66 1.7982 -0.68429 0
M  V30 11231 O 1042.95 1.88922 0.319204 0
M  V30 11232 C 1043.15 1.71402 -3.13618 0
M  V30 11233 C 1042.98 0.880967 -4.40986 0
M  V30 11234 C 1041.75 0.555594 -5.02236 0
M  V30 11235 C 1043.95 0.221986 -5.13821 0
M  V30 11236 N 1041.93 -0.293479 -6.13198 0
M  V30 11237 C 1043.3 -0.488202 -6.18075 0
M  V30 11238 C 1045.35 0.14027 -4.97702 0
M  V30 11239 C 1044.06 -1.27236 -7.07957 0
M  V30 11240 C 1046.08 -0.630556 -5.88029 0
M  V30 11241 C 1045.44 -1.3291 -6.91747 0
M  V30 11242 H 1041.54 0.301769 -0.721429 0
M  V30 11243 H 1044.13 0.150113 -1.9412 0
M  V30 11244 H 1042.3 2.41853 -3.03911 0
M  V30 11245 H 1044.03 2.36847 -3.28155 0
M  V30 11246 H 1040.79 0.885952 -4.6524 0
M  V30 11247 H 1041.21 -0.708359 -6.73284 0
M  V30 11248 H 1045.85 0.665983 -4.17522 0
M  V30 11249 H 1043.57 -1.80941 -7.87582 0
M  V30 11250 H 1047.16 -0.695468 -5.77628 0
M  V30 11251 H 1046.04 -1.916 -7.60433 0
M  V30 11252 N 1043.54 1.5137 0.438746 0
M  V30 11253 C 1044.5 1.71993 1.51496 0
M  V30 11254 C 1045.5 0.589978 1.49586 0
M  V30 11255 O 1046.69 0.857505 1.51633 0
M  V30 11256 C 1043.82 1.77508 2.91039 0
M  V30 11257 H 1045.02 2.68041 1.34514 0
M  V30 11258 H 1042.57 1.41338 0.667326 0
M  V30 11259 H 1043.3 0.832698 3.13427 0
M  V30 11260 H 1043.09 2.59627 2.9383 0
M  V30 11261 H 1044.58 1.95308 3.69113 0
M  V30 11262 N 1045.02 -0.694098 1.41492 0
M  V30 11263 C 1046.26 -1.45415 1.40929 0
M  V30 11264 C 1046.59 -1.94491 0.0189301 0
M  V30 11265 O 1045.85 -1.7 -0.96945 0
M  V30 11266 C 1046.15 -2.6805 2.36398 0
M  V30 11267 C 1045.81 -2.37623 3.83205 0
M  V30 11268 C 1044.47 -2.29035 4.23198 0
M  V30 11269 C 1046.83 -2.12555 4.75888 0
M  V30 11270 C 1044.15 -1.93478 5.5388 0
M  V30 11271 C 1046.51 -1.78506 6.06892 0
M  V30 11272 C 1045.17 -1.68415 6.45905 0
M  V30 11273 H 1044.44 -0.53211 0.515694 0
M  V30 11274 H 1047.09 -0.793193 1.74301 0
M  V30 11275 H 1045.39 -3.39086 1.96285 0
M  V30 11276 H 1047.09 -3.26194 2.33234 0
M  V30 11277 H 1043.68 -2.45202 3.51531 0
M  V30 11278 H 1047.86 -2.18133 4.45793 0
M  V30 11279 H 1043.12 -1.84219 5.82986 0
M  V30 11280 H 1047.29 -1.58128 6.7821 0
M  V30 11281 H 1044.92 -1.40631 7.47079 0
M  V30 11282 N 1046.49 -1.27344 -0.928501 0
M  V30 11283 C 1047.43 -1.04322 -2.02959 0
M  V30 11284 C 1048.41 0.0361118 -1.6256 0
M  V30 11285 O 1049.59 -0.108872 -1.88185 0
M  V30 11286 C 1046.72 -0.582329 -3.33656 0
M  V30 11287 C 1045.76 -1.65611 -3.93033 0
M  V30 11288 S 1046.6 -3.2484 -4.25722 0
M  V30 11289 C 1047.75 -2.8055 -5.59502 0
M  V30 11290 H 1047.98 -1.97548 -2.22176 0
M  V30 11291 H 1045.52 -1.11167 -1.07151 0
M  V30 11292 H 1047.48 -0.323095 -4.09227 0
M  V30 11293 H 1046.14 0.329858 -3.12363 0
M  V30 11294 H 1045.33 -1.28491 -4.87346 0
M  V30 11295 H 1044.93 -1.86738 -3.24045 0
M  V30 11296 H 1047.22 -2.25803 -6.38764 0
M  V30 11297 H 1048.17 -3.73603 -6.0152 0
M  V30 11298 H 1048.57 -2.19717 -5.19985 0
M  V30 11299 N 1047.97 1.13488 -1.09353 0
M  V30 11300 C 1049.2 1.89133 -0.85108 0
M  V30 11301 C 1049.62 1.78542 0.591976 0
M  V30 11302 O 1048.98 1.13243 1.41583 0
M  V30 11303 C 1049.03 3.36736 -1.29001 0
M  V30 11304 O 1048.13 4.09959 -0.447993 0
M  V30 11305 H 1047.47 0.58809 -0.308296 0
M  V30 11306 H 1050 1.43593 -1.45747 0
M  V30 11307 H 1050.01 3.87564 -1.27508 0
M  V30 11308 H 1048.69 3.43762 -2.34095 0
M  V30 11309 H 1047.27 3.69155 -0.52717 0
M  V30 11310 N 1049.45 0.880621 1.30701 0
M  V30 11311 C 1050.68 0.510909 2.01009 0
M  V30 11312 C 1051.1 -0.892041 1.65603 0
M  V30 11313 O 1050.46 -1.59045 0.870309 0
M  V30 11314 C 1050.51 0.687759 3.53981 0
M  V30 11315 O 1049.61 -0.268275 4.11526 0
M  V30 11316 H 1048.95 0.201864 0.632572 0
M  V30 11317 H 1051.48 1.18697 1.6665 0
M  V30 11318 H 1051.49 0.585095 4.03783 0
M  V30 11319 H 1050.17 1.71068 3.79089 0
M  V30 11320 H 1048.74 -0.119673 3.72708 0
M  V30 11321 N 1050.93 -1.4397 0.641131 0
M  V30 11322 C 1052.35 -1.56607 0.30762 0
M  V30 11323 C 1052.55 -1.62694 -1.18882 0
M  V30 11324 O 1051.6 -1.57541 -1.97325 0
M  V30 11325 C 1052.91 -2.83289 1.00834 0
M  V30 11326 C 1054.46 -2.97016 0.98744 0
M  V30 11327 C 1054.94 -4.26514 1.66882 0
M  V30 11328 N 1056.43 -4.33351 1.63589 0
M  V30 11329 C 1057.16 -5.32292 2.13196 0
M  V30 11330 N 1056.66 -6.37582 2.71038 0
M  V30 11331 N 1058.45 -5.23866 2.03766 0
M  V30 11332 H 1050.6 -1.38262 1.61237 0
M  V30 11333 H 1052.87 -0.663221 0.677378 0
M  V30 11334 H 1052.57 -2.84812 2.06337 0
M  V30 11335 H 1052.45 -3.73134 0.552333 0
M  V30 11336 H 1054.83 -2.95041 -0.0591395 0
M  V30 11337 H 1054.91 -2.08493 1.48203 0
M  V30 11338 H 1054.56 -4.2925 2.71491 0
M  V30 11339 H 1054.49 -5.13912 1.14898 0
M  V30 11340 H 1056.98 -3.5788 1.21368 0
M  V30 11341 H 1057.29 -7.09378 3.06597 0
M  V30 11342 H 1055.64 -6.38239 2.75093 0
M  V30 11343 H 1058.83 -4.40524 1.58291 0
M  V30 11344 H 1059 -6.00819 2.42737 0
M  V30 11345 N 1052.41 -0.382291 -1.52893 0
M  V30 11346 C 1053.82 -0.031941 -1.59568 0
M  V30 11347 C 1054.02 1.45245 -1.39664 0
M  V30 11348 O 1053.08 2.21612 -1.21013 0
M  V30 11349 C 1054.39 -0.502846 -2.96466 0
M  V30 11350 C 1055.94 -0.4585 -3.09624 0
M  V30 11351 C 1056.42 -0.905481 -4.4896 0
M  V30 11352 N 1057.91 -0.861211 -4.55124 0
M  V30 11353 C 1058.64 -1.17856 -5.61157 0
M  V30 11354 N 1058.14 -1.56603 -6.74868 0
M  V30 11355 N 1059.93 -1.10027 -5.51226 0
M  V30 11356 H 1052.08 -1.34875 -1.64081 0
M  V30 11357 H 1054.34 -0.552375 -0.770446 0
M  V30 11358 H 1054.05 -1.53931 -3.16225 0
M  V30 11359 H 1053.92 0.101777 -3.77063 0
M  V30 11360 H 1056.31 0.568868 -2.89565 0
M  V30 11361 H 1056.39 -1.09884 -2.30996 0
M  V30 11362 H 1056.04 -1.93105 -4.69759 0
M  V30 11363 H 1055.97 -0.242227 -5.26043 0
M  V30 11364 H 1058.46 -0.575988 -3.73485 0
M  V30 11365 H 1058.77 -1.792 -7.51736 0
M  V30 11366 H 1057.12 -1.60484 -6.76217 0
M  V30 11367 H 1060.31 -0.796623 -4.61272 0
M  V30 11368 H 1060.48 -1.35091 -6.33762 0
M  V30 11369 N 1053.89 1.57202 -0.111913 0
M  V30 11370 C 1054.82 2.11995 0.871242 0
M  V30 11371 C 1055.83 1.06102 1.23475 0
M  V30 11372 O 1057.02 1.33497 1.18494 0
M  V30 11373 C 1054.12 2.59874 2.17528 0
M  V30 11374 C 1053.29 3.89788 1.98455 0
M  V30 11375 C 1052.35 4.23339 3.12523 0
M  V30 11376 O 1051.38 4.92277 2.85748 0
M  V30 11377 N 1052.58 3.80089 4.38762 0
M  V30 11378 H 1055.34 2.96976 0.403157 0
M  V30 11379 H 1052.91 1.61737 0.0727159 0
M  V30 11380 H 1054.9 2.79354 2.9282 0
M  V30 11381 H 1053.47 1.79812 2.55707 0
M  V30 11382 H 1052.69 3.79288 1.07396 0
M  V30 11383 H 1053.98 4.74748 1.83007 0
M  V30 11384 H 1053.37 3.24473 4.63394 0
M  V30 11385 H 1051.93 4.04691 5.10949 0
M  V30 11386 N 1055.36 -0.161842 1.56767 0
M  V30 11387 C 1056.59 -0.896274 1.87034 0
M  V30 11388 C 1057.01 -1.74617 0.699314 0
M  V30 11389 O 1056.37 -1.77861 -0.351435 0
M  V30 11390 C 1056.42 -1.74105 3.15784 0
M  V30 11391 O 1055.52 -2.84372 2.98674 0
M  V30 11392 H 1054.86 -0.250523 0.614926 0
M  V30 11393 H 1057.39 -0.157127 2.03996 0
M  V30 11394 H 1057.4 -2.13907 3.4743 0
M  V30 11395 H 1056.08 -1.11684 4.00624 0
M  V30 11396 H 1054.66 -2.48084 2.78404 0
M  V30 11397 N 1056.84 -1.516 -0.430713 0
M  V30 11398 C 1058.09 -1.6484 -1.18134 0
M  V30 11399 C 1058.42 -0.366725 -1.90706 0
M  V30 11400 O 1057.7 0.63398 -1.83878 0
M  V30 11401 C 1057.98 -2.85617 -2.19306 0
M  V30 11402 C 1057.83 -4.23778 -1.50773 0
M  V30 11403 C 1059.15 -3.01909 -3.20217 0
M  V30 11404 H 1056.27 -0.599907 -0.428113 0
M  V30 11405 H 1058.91 -1.84102 -0.46973 0
M  V30 11406 H 1057.06 -2.69325 -2.79993 0
M  V30 11407 H 1058.73 -4.51752 -0.93371 0
M  V30 11408 H 1056.98 -4.26171 -0.809966 0
M  V30 11409 H 1057.65 -5.04291 -2.24487 0
M  V30 11410 H 1060.12 -3.16956 -2.69589 0
M  V30 11411 H 1059 -3.87968 -3.88293 0
M  V30 11412 H 1059.26 -2.1427 -3.86705 0
M  V30 11413 N 1058.32 0.686584 -1.41858 0
M  V30 11414 C 1059.25 1.81264 -1.47193 0
M  V30 11415 C 1060.23 1.66875 -0.329657 0
M  V30 11416 O 1061.42 1.86473 -0.542347 0
M  V30 11417 C 1058.55 3.19472 -1.36216 0
M  V30 11418 C 1057.5 3.4858 -2.48347 0
M  V30 11419 C 1056.83 4.86239 -2.22432 0
M  V30 11420 C 1058.13 3.46653 -3.90678 0
M  V30 11421 H 1059.82 1.77057 -2.41436 0
M  V30 11422 H 1057.37 0.850415 -1.16206 0
M  V30 11423 H 1059.32 3.97969 -1.38558 0
M  V30 11424 H 1058.04 3.24327 -0.384611 0
M  V30 11425 H 1056.7 2.72437 -2.45303 0
M  V30 11426 H 1056.35 4.8773 -1.22999 0
M  V30 11427 H 1056.05 5.06677 -2.97577 0
M  V30 11428 H 1057.57 5.67034 -2.26505 0
M  V30 11429 H 1058.99 4.15139 -3.95389 0
M  V30 11430 H 1057.38 3.78625 -4.65578 0
M  V30 11431 H 1058.45 2.45451 -4.18189 0
M  V30 11432 N 1059.8 1.27835 0.921735 0
M  V30 11433 C 1061.04 1.14692 1.67253 0
M  V30 11434 C 1061.38 -0.305384 1.91784 0
M  V30 11435 O 1060.65 -1.22286 1.51249 0
M  V30 11436 C 1060.93 1.93743 3.03539 0
M  V30 11437 C 1060.79 3.46991 2.86212 0
M  V30 11438 C 1062.11 1.74658 4.03959 0
M  V30 11439 H 1059.23 0.418021 0.606983 0
M  V30 11440 H 1061.87 1.5706 1.06922 0
M  V30 11441 H 1060.02 1.57738 3.55037 0
M  V30 11442 H 1061.69 3.92858 2.41785 0
M  V30 11443 H 1059.93 3.73029 2.21432 0
M  V30 11444 H 1060.6 3.97551 3.82958 0
M  V30 11445 H 1063.08 2.06063 3.61493 0
M  V30 11446 H 1061.96 2.32353 4.97296 0
M  V30 11447 H 1062.22 0.696019 4.36587 0
M  V30 11448 N 1061.28 -1.12907 1.09954 0
M  V30 11449 C 1062.22 -2.18485 0.743848 0
M  V30 11450 C 1063.19 -1.63766 -0.277494 0
M  V30 11451 O 1064.38 -1.90146 -0.157899 0
M  V30 11452 C 1061.52 -3.44649 0.176437 0
M  V30 11453 C 1060.63 -4.13445 1.25248 0
M  V30 11454 C 1059.77 -5.27242 0.647242 0
M  V30 11455 C 1058.8 -5.87897 1.70421 0
M  V30 11456 N 1057.94 -6.93116 1.1196 0
M  V30 11457 H 1062.78 -2.48257 1.64841 0
M  V30 11458 H 1060.32 -1.21891 0.823471 0
M  V30 11459 H 1062.28 -4.16852 -0.170384 0
M  V30 11460 H 1060.91 -3.15309 -0.69137 0
M  V30 11461 H 1059.96 -3.39471 1.7165 0
M  V30 11462 H 1061.27 -4.54601 2.05279 0
M  V30 11463 H 1060.42 -6.06186 0.249579 0
M  V30 11464 H 1059.16 -4.87351 -0.184556 0
M  V30 11465 H 1058.17 -5.07643 2.11136 0
M  V30 11466 H 1059.39 -6.2986 2.53877 0
M  V30 11467 H 1057.34 -6.55271 0.309181 0
M  V30 11468 H 1057.26 -7.32843 1.85681 0
M  V30 11469 H 1058.52 -7.759 0.748326 0
M  V30 11470 N 1062.75 -0.88754 -1.30232 0
M  V30 11471 C 1063.98 -0.521562 -2.00735 0
M  V30 11472 C 1064.4 0.883247 -1.66073 0
M  V30 11473 O 1063.76 1.58581 -0.878731 0
M  V30 11474 C 1063.81 -0.706521 -3.53611 0
M  V30 11475 O 1062.91 0.246447 -4.11663 0
M  V30 11476 H 1062.25 -0.205216 -0.631492 0
M  V30 11477 H 1064.78 -1.19579 -1.66018 0
M  V30 11478 H 1064.79 -0.606501 -4.03467 0
M  V30 11479 H 1063.47 -1.73076 -3.78177 0
M  V30 11480 H 1062.05 0.0999062 -3.72766 0
M  V30 11481 N 1064.23 1.43628 -0.648757 0
M  V30 11482 C 1065.18 2.32529 0.057536 0
M  V30 11483 C 1066.17 1.48358 0.817699 0
M  V30 11484 O 1067.38 1.64595 0.728605 0
M  V30 11485 H 1063.76 0.75107 0.037388 0
M  V30 11486 H 1065.73 2.89829 -0.710062 0
M  V30 11487 C 1064.48 3.32605 1.01336 0
M  V30 11488 H 1063.8 3.97395 0.437855 0
M  V30 11489 H 1065.24 3.97453 1.47672 0
M  V30 11490 C 1063.7 2.62865 2.10722 0
M  V30 11491 O 1064.23 2.4408 3.19042 0
M  V30 11492 N 1062.43 2.22312 1.87152 0
M  V30 11493 H 1061.98 2.3779 0.990644 0
M  V30 11494 H 1061.94 1.75979 2.60536 0
M  V30 11495 N 1065.71 0.390394 1.52688 0
M  V30 11496 C 1066.62 -0.451543 2.30213 0
M  V30 11497 C 1067.64 -1.07051 1.37172 0
M  V30 11498 O 1068.81 -1.07609 1.70242 0
M  V30 11499 C 1065.88 -1.56299 3.0947 0
M  V30 11500 C 1064.94 -0.969017 4.18221 0
M  V30 11501 C 1064.17 -2.0275 4.93688 0
M  V30 11502 O 1064.39 -3.24273 4.69258 0
M  V30 11503 O 1063.33 -1.64418 5.79008 0
M  V30 11504 H 1067.15 0.180042 3.03166 0
M  V30 11505 H 1064.74 0.154082 1.48603 0
M  V30 11506 H 1066.62 -2.20864 3.58883 0
M  V30 11507 H 1065.3 -2.17952 2.3933 0
M  V30 11508 H 1064.2 -0.286587 3.73001 0
M  V30 11509 H 1065.54 -0.396687 4.90599 0
M  V30 11510 N 1067.19 -1.57141 0.120249 0
M  V30 11511 C 1068.1 -2.18925 -0.843155 0
M  V30 11512 C 1069.11 -1.16575 -1.29175 0
M  V30 11513 O 1070.29 -1.4905 -1.35448 0
M  V30 11514 C 1067.36 -2.7775 -2.075 0
M  V30 11515 C 1066.42 -3.95139 -1.6782 0
M  V30 11516 C 1065.65 -4.51149 -2.85132 0
M  V30 11517 O 1065.87 -4.06056 -4.00593 0
M  V30 11518 O 1064.81 -5.41815 -2.62145 0
M  V30 11519 H 1068.63 -3.01707 -0.347357 0
M  V30 11520 H 1066.22 -1.49028 -0.105427 0
M  V30 11521 H 1068.1 -3.15243 -2.79643 0
M  V30 11522 H 1066.77 -1.97998 -2.56083 0
M  V30 11523 H 1065.68 -3.62412 -0.927807 0
M  V30 11524 H 1067.01 -4.7633 -1.23977 0
M  V30 11525 N 1068.67 0.153526 -1.5685 0
M  V30 11526 C 1069.91 0.865519 -1.82629 0
M  V30 11527 C 1070.24 1.81999 -0.700105 0
M  V30 11528 O 1069.51 1.93907 0.278744 0
M  V30 11529 H 1068.09 0.32261 -0.673745 0
M  V30 11530 H 1070.75 0.149088 -1.94329 0
M  V30 11531 H 1069.84 1.43171 -2.77324 0
M  V30 11532 N 1070.14 1.51827 0.422667 0
M  V30 11533 C 1071.39 1.6445 1.16786 0
M  V30 11534 C 1071.71 0.373792 1.91995 0
M  V30 11535 O 1072.91 0.379621 2.68833 0
M  V30 11536 C 1071.37 2.90488 2.12473 0
M  V30 11537 C 1070.98 4.24617 1.42844 0
M  V30 11538 C 1072.72 3.12472 2.87335 0
M  V30 11539 C 1070.63 5.41791 2.371 0
M  V30 11540 H 1069.56 0.612561 0.439641 0
M  V30 11541 H 1072.21 1.78305 0.433534 0
M  V30 11542 H 1070.59 2.703 2.89402 0
M  V30 11543 H 1071.76 4.55239 0.71372 0
M  V30 11544 H 1070.08 4.08628 0.800769 0
M  V30 11545 H 1072.68 3.9719 3.57973 0
M  V30 11546 H 1073.02 2.26148 3.49518 0
M  V30 11547 H 1073.55 3.33069 2.17509 0
M  V30 11548 H 1070.29 6.3042 1.79584 0
M  V30 11549 H 1069.81 5.15526 3.06583 0
M  V30 11550 H 1071.49 5.74329 2.97918 0
M  V30 11551 N 1071.62 -0.679052 1.4222 0
M  V30 11552 C 1072.55 -1.80455 1.41311 0
M  V30 11553 C 1073.57 -1.59767 0.312799 0
M  V30 11554 O 1074.76 -1.68964 0.575612 0
M  V30 11555 C 1071.86 -3.17492 1.18541 0
M  V30 11556 C 1071.03 -3.65066 2.40926 0
M  V30 11557 C 1070.09 -4.80823 2.13765 0
M  V30 11558 O 1069.11 -4.91587 2.86934 0
M  V30 11559 N 1070.32 -5.69233 1.13813 0
M  V30 11560 H 1073.08 -1.81722 2.38322 0
M  V30 11561 H 1070.64 -0.861988 1.37045 0
M  V30 11562 H 1072.63 -3.92581 0.982958 0
M  V30 11563 H 1071.2 -3.1115 0.300691 0
M  V30 11564 H 1070.42 -2.80702 2.76767 0
M  V30 11565 H 1071.71 -3.93593 3.22431 0
M  V30 11566 H 1071.11 -5.63185 0.532887 0
M  V30 11567 H 1069.67 -6.44152 0.995554 0
M  V30 11568 N 1073.1 -1.28322 -0.914942 0
M  V30 11569 C 1074.52 -1.06003 -1.19313 0
M  V30 11570 C 1074.72 0.198366 -2.00521 0
M  V30 11571 O 1073.77 0.900364 -2.35902 0
M  V30 11572 C 1075.09 -2.30684 -1.92887 0
M  V30 11573 C 1076.63 -2.35851 -2.05775 0
M  V30 11574 C 1077.11 -3.60295 -2.82757 0
M  V30 11575 N 1078.6 -3.60928 -2.9032 0
M  V30 11576 C 1079.33 -4.53894 -3.50383 0
M  V30 11577 N 1078.83 -5.57178 -4.11734 0
M  V30 11578 N 1080.62 -4.41492 -3.4791 0
M  V30 11579 H 1072.77 -2.09104 -0.372735 0
M  V30 11580 H 1075.04 -0.920285 -0.227552 0
M  V30 11581 H 1074.74 -3.22355 -1.40643 0
M  V30 11582 H 1074.62 -2.37003 -2.93444 0
M  V30 11583 H 1077 -1.44678 -2.57201 0
M  V30 11584 H 1077.09 -2.33526 -1.04399 0
M  V30 11585 H 1076.73 -4.51811 -2.32011 0
M  V30 11586 H 1076.66 -3.59873 -3.84446 0
M  V30 11587 H 1079.15 -2.8624 -2.46729 0
M  V30 11588 H 1079.46 -6.24261 -4.55541 0
M  V30 11589 H 1077.81 -5.61005 -4.10242 0
M  V30 11590 H 1081 -3.60005 -2.99189 0
M  V30 11591 H 1081.17 -5.14132 -3.94427 0
M  V30 11592 N 1074.58 1.12322 -1.10551 0
M  V30 11593 C 1075.82 1.8413 -0.849932 0
M  V30 11594 C 1076.16 1.83938 0.622946 0
M  V30 11595 O 1075.43 1.28579 1.45937 0
M  V30 11596 C 1075.72 3.31751 -1.40048 0
M  V30 11597 C 1075.57 3.40391 -2.9403 0
M  V30 11598 C 1076.89 4.27543 -1.04379 0
M  V30 11599 H 1074.01 0.668533 -0.310213 0
M  V30 11600 H 1076.65 1.31766 -1.36886 0
M  V30 11601 H 1074.8 3.76475 -0.959102 0
M  V30 11602 H 1076.47 3.04294 -3.46703 0
M  V30 11603 H 1074.71 2.809 -3.30571 0
M  V30 11604 H 1075.38 4.44252 -3.27635 0
M  V30 11605 H 1077.86 3.90951 -1.42466 0
M  V30 11606 H 1076.74 5.2924 -1.4559 0
M  V30 11607 H 1077 4.42075 0.0466316 0
M  V30 11608 N 1076.06 0.894434 1.2976 0
M  V30 11609 C 1076.99 0.3847 2.30309 0
M  V30 11610 C 1077.97 -0.537486 1.61385 0
M  V30 11611 O 1079.15 -0.449332 1.8893 0
M  V30 11612 C 1076.28 -0.393311 3.45066 0
M  V30 11613 C 1075.24 0.437968 4.25753 0
M  V30 11614 C 1074.56 -0.467221 5.32655 0
M  V30 11615 C 1075.86 1.6851 4.9437 0
M  V30 11616 H 1077.56 1.22496 2.73194 0
M  V30 11617 H 1075.1 0.590471 1.31337 0
M  V30 11618 H 1077.06 -0.760614 4.14479 0
M  V30 11619 H 1075.78 -1.2673 3.0101 0
M  V30 11620 H 1074.44 0.787533 3.58041 0
M  V30 11621 H 1074.09 -1.33919 4.84845 0
M  V30 11622 H 1073.79 0.0852482 5.87538 0
M  V30 11623 H 1075.31 -0.830833 6.04921 0
M  V30 11624 H 1076.72 1.38784 5.56248 0
M  V30 11625 H 1075.12 2.17849 5.59162 0
M  V30 11626 H 1076.19 2.42412 4.19958 0
M  V30 11627 N 1077.53 -1.43282 0.656365 0
M  V30 11628 C 1078.76 -2.06125 0.178879 0
M  V30 11629 C 1079.18 -1.49216 -1.15672 0
M  V30 11630 O 1078.53 -0.624693 -1.71475 0
M  V30 11631 C 1078.59 -3.614 0.0851785 0
M  V30 11632 O 1078.31 -4.16194 1.36798 0
M  V30 11633 C 1079.81 -4.41325 -0.41801 0
M  V30 11634 H 1077.03 -0.664753 0.0913504 0
M  V30 11635 H 1079.57 -1.83733 0.897901 0
M  V30 11636 H 1077.73 -3.82966 -0.584421 0
M  V30 11637 H 1078.14 -5.09892 1.22924 0
M  V30 11638 H 1079.61 -5.50303 -0.432519 0
M  V30 11639 H 1080.09 -4.14577 -1.44991 0
M  V30 11640 H 1080.7 -4.24735 0.219208 0
M  V30 11641 N 1079.01 -0.398486 -1.52479 0
M  V30 11642 C 1080.24 0.183059 -2.06591 0
M  V30 11643 C 1080.66 1.3898 -1.26753 0
M  V30 11644 O 1080.02 1.78885 -0.294959 0
M  V30 11645 C 1080.07 0.522392 -3.56796 0
M  V30 11646 O 1079.17 1.61499 -3.79462 0
M  V30 11647 H 1078.51 0.0188411 -0.663733 0
M  V30 11648 H 1081.04 -0.56861 -1.9654 0
M  V30 11649 H 1081.05 0.784078 -4.00395 0
M  V30 11650 H 1079.73 -0.359807 -4.14341 0
M  V30 11651 H 1078.31 1.3463 -3.47749 0
M  V30 11652 N 1080.49 1.57075 -0.12858 0
M  V30 11653 C 1081.77 1.87075 0.571162 0
M  V30 11654 C 1082.15 1.03141 1.84188 0
M  V30 11655 O 1081.5 0.113001 2.2822 0
M  V30 11656 C 1081.71 3.3838 0.854383 0
M  V30 11657 C 1083.05 4.07194 1.20326 0
M  V30 11658 O 1084.08 3.43454 0.944338 0
M  V30 11659 O 1082.94 5.19725 1.68963 0
M  V30 11660 H 1080.03 0.774764 0.289258 0
M  V30 11661 H 1082.58 1.68908 -0.163806 0
M  V30 11662 H 1081.35 3.91273 -0.0456925 0
M  V30 11663 H 1080.97 3.62012 1.64418 0
M  V30 11664 N 1081.97 -0.145205 1.5693 0
M  V30 11665 C 1083.2 -0.871133 1.87336 0
M  V30 11666 C 1083.61 -1.7517 0.714992 0
M  V30 11667 O 1082.95 -1.80815 -0.324304 0
M  V30 11668 C 1083.01 -1.77775 3.12468 0
M  V30 11669 C 1082.68 -1.07416 4.44197 0
M  V30 11670 C 1083.67 -0.42722 5.18142 0
M  V30 11671 C 1081.36 -1.06313 4.9092 0
M  V30 11672 C 1083.35 0.221348 6.37016 0
M  V30 11673 C 1081.04 -0.410755 6.09718 0
M  V30 11674 C 1082.04 0.230357 6.82611 0
M  V30 11675 O 1081.73 0.872389 7.99152 0
M  V30 11676 H 1081.46 -0.257174 0.62517 0
M  V30 11677 H 1084.01 -0.142159 2.04907 0
M  V30 11678 H 1082.24 -2.54771 2.9091 0
M  V30 11679 H 1083.93 -2.37579 3.29107 0
M  V30 11680 H 1084.7 -0.427536 4.83112 0
M  V30 11681 H 1080.58 -1.55156 4.34105 0
M  V30 11682 H 1084.12 0.722349 6.9385 0
M  V30 11683 H 1080.02 -0.408112 6.44209 0
M  V30 11684 H 1080.78 0.774236 8.1483 0
M  V30 11685 N 1083.45 -1.52049 -0.414609 0
M  V30 11686 C 1084.41 -1.74382 -1.4874 0
M  V30 11687 C 1085.41 -0.613701 -1.48628 0
M  V30 11688 O 1086.6 -0.88152 -1.50249 0
M  V30 11689 C 1083.73 -1.82116 -2.88178 0
M  V30 11690 H 1084.93 -2.70147 -1.30233 0
M  V30 11691 H 1082.48 -1.42382 -0.644756 0
M  V30 11692 H 1083.21 -0.882457 -3.12063 0
M  V30 11693 H 1083 -2.64268 -2.89663 0
M  V30 11694 H 1084.49 -2.01155 -3.65959 0
M  V30 11695 N 1084.93 0.6715 -1.42579 0
M  V30 11696 C 1086.17 1.43154 -1.43224 0
M  V30 11697 C 1086.5 1.94436 -0.0498695 0
M  V30 11698 O 1085.76 1.71521 0.942282 0
M  V30 11699 C 1086.05 2.64256 -2.40632 0
M  V30 11700 C 1085.72 2.31497 -3.86937 0
M  V30 11701 C 1084.38 2.22274 -4.26788 0
M  V30 11702 C 1086.73 2.04957 -4.7921 0
M  V30 11703 C 1084.06 1.84642 -5.56888 0
M  V30 11704 C 1086.41 1.68828 -6.09656 0
M  V30 11705 C 1085.08 1.58118 -6.48502 0
M  V30 11706 H 1084.35 0.523838 -0.524094 0
M  V30 11707 H 1087 0.765363 -1.7554 0
M  V30 11708 H 1085.3 3.35921 -2.01654 0
M  V30 11709 H 1087 3.22443 -2.38394 0
M  V30 11710 H 1083.59 2.39578 -3.55387 0
M  V30 11711 H 1087.77 2.11014 -4.49207 0
M  V30 11712 H 1083.03 1.74921 -5.85843 0
M  V30 11713 H 1087.2 1.47319 -6.8064 0
M  V30 11714 H 1084.83 1.28728 -7.49222 0
M  V30 11715 N 1086.4 1.28806 0.908124 0
M  V30 11716 C 1087.33 1.15758 2.02787 0
M  V30 11717 C 1088.31 0.053911 1.70015 0
M  V30 11718 O 1089.5 0.231901 1.9281 0
M  V30 11719 C 1086.63 0.824526 3.37371 0
M  V30 11720 C 1085.58 1.88359 3.84324 0
M  V30 11721 C 1084.91 1.40404 5.15937 0
M  V30 11722 C 1086.21 3.29108 4.05568 0
M  V30 11723 H 1087.9 2.09431 2.13961 0
M  V30 11724 H 1085.45 1.00831 1.02806 0
M  V30 11725 H 1087.4 0.71999 4.15204 0
M  V30 11726 H 1086.13 -0.147902 3.26265 0
M  V30 11727 H 1084.79 1.97736 3.087 0
M  V30 11728 H 1084.43 0.420515 5.01239 0
M  V30 11729 H 1084.13 2.11224 5.48323 0
M  V30 11730 H 1085.66 1.31283 5.9632 0
M  V30 11731 H 1087.07 3.2262 4.73909 0
M  V30 11732 H 1085.47 3.97812 4.49294 0
M  V30 11733 H 1086.54 3.72709 3.10187 0
M  V30 11734 N 1087.88 -1.11734 1.11145 0
M  V30 11735 C 1088.81 -2.16847 0.710809 0
M  V30 11736 C 1089.79 -1.59966 -0.291494 0
M  V30 11737 O 1090.98 -1.87554 -0.188645 0
M  V30 11738 C 1088.1 -3.38663 0.0499744 0
M  V30 11739 C 1087.15 -4.14199 1.01693 0
M  V30 11740 S 1087.98 -4.7154 2.53793 0
M  V30 11741 C 1089.14 -5.96682 1.89001 0
M  V30 11742 H 1089.37 -2.50497 1.60121 0
M  V30 11743 H 1086.9 -1.23311 0.929182 0
M  V30 11744 H 1088.86 -4.09212 -0.324959 0
M  V30 11745 H 1087.52 -3.03279 -0.817335 0
M  V30 11746 H 1086.72 -5.01494 0.501933 0
M  V30 11747 H 1086.32 -3.49395 1.33414 0
M  V30 11748 H 1088.61 -6.6634 1.22462 0
M  V30 11749 H 1089.55 -6.52821 2.74282 0
M  V30 11750 H 1089.96 -5.48084 1.35145 0
M  V30 11751 N 1089.36 -0.901303 -1.29284 0
M  V30 11752 C 1090.27 -0.3849 -2.31421 0
M  V30 11753 C 1091.29 0.521163 -1.66012 0
M  V30 11754 O 1092.46 0.410356 -1.97175 0
M  V30 11755 C 1089.53 0.377804 -3.44635 0
M  V30 11756 C 1088.59 -0.559974 -4.25632 0
M  V30 11757 C 1087.82 0.166425 -5.3344 0
M  V30 11758 O 1088.04 1.39012 -5.53202 0
M  V30 11759 O 1086.98 -0.491875 -5.99887 0
M  V30 11760 H 1090.8 -1.2323 -2.77575 0
M  V30 11761 H 1088.39 -0.665683 -1.3375 0
M  V30 11762 H 1090.27 0.809041 -4.13561 0
M  V30 11763 H 1088.95 1.20124 -3.00586 0
M  V30 11764 H 1087.85 -1.04036 -3.59343 0
M  V30 11765 H 1089.19 -1.34987 -4.73328 0
M  V30 11766 N 1090.84 1.42931 -0.663954 0
M  V30 11767 C 1092.06 2.06544 -0.188201 0
M  V30 11768 C 1092.49 1.495 1.14155 0
M  V30 11769 O 1091.85 0.609164 1.7076 0
M  V30 11770 C 1091.89 3.60393 -0.122105 0
M  V30 11771 O 1091 4.02176 0.91258 0
M  V30 11772 H 1090.34 0.656458 -0.0997967 0
M  V30 11773 H 1092.87 1.83253 -0.909909 0
M  V30 11774 H 1092.88 4.07959 0.0576568 0
M  V30 11775 H 1091.55 4.01287 -1.09276 0
M  V30 11776 H 1090.13 3.6618 0.704738 0
M  V30 11777 N 1092.32 0.406567 1.52266 0
M  V30 11778 C 1093.54 -0.169624 2.06204 0
M  V30 11779 C 1093.96 -1.39076 1.27684 0
M  V30 11780 O 1093.32 -1.79528 0.328023 0
M  V30 11781 C 1093.37 -0.522611 3.57702 0
M  V30 11782 O 1093.09 0.650028 4.33251 0
M  V30 11783 C 1094.59 -1.15281 4.28048 0
M  V30 11784 H 1091.81 -0.0215191 0.670655 0
M  V30 11785 H 1094.35 0.576781 1.96198 0
M  V30 11786 H 1092.51 -1.21891 3.67725 0
M  V30 11787 H 1092.92 0.355989 5.23291 0
M  V30 11788 H 1094.4 -1.35002 5.35237 0
M  V30 11789 H 1094.87 -2.12517 3.84361 0
M  V30 11790 H 1095.48 -0.496786 4.22389 0
M  V30 11791 N 1093.79 -1.57004 0.136909 0
M  V30 11792 C 1095.02 -2.00156 -0.523936 0
M  V30 11793 C 1095.44 -1.01688 -1.59075 0
M  V30 11794 O 1094.79 -0.0123678 -1.82496 0
M  V30 11795 C 1094.85 -3.4326 -1.13379 0
M  V30 11796 O 1094.57 -4.37963 -0.109598 0
M  V30 11797 C 1096.07 -4.01637 -1.87623 0
M  V30 11798 H 1093.29 -0.65681 -0.137263 0
M  V30 11799 H 1095.83 -2.03219 0.228522 0
M  V30 11800 H 1093.99 -3.4108 -1.83693 0
M  V30 11801 H 1094.4 -5.21555 -0.55503 0
M  V30 11802 H 1095.87 -5.03795 -2.25597 0
M  V30 11803 H 1096.35 -3.41781 -2.75831 0
M  V30 11804 H 1096.96 -4.07417 -1.22031 0
M  V30 11805 N 1095.27 0.136881 -1.57004 0
M  V30 11806 C 1096.52 0.846257 -1.83088 0
M  V30 11807 C 1096.83 1.81876 -0.719765 0
M  V30 11808 O 1098.04 2.57302 -0.866494 0
M  V30 11809 C 1096.5 1.55559 -3.24545 0
M  V30 11810 C 1096.1 0.624989 -4.43619 0
M  V30 11811 C 1097.85 2.25115 -3.59893 0
M  V30 11812 C 1095.76 1.33653 -5.761 0
M  V30 11813 H 1094.69 0.319768 -0.682836 0
M  V30 11814 H 1097.34 0.0989741 -1.83233 0
M  V30 11815 H 1095.72 2.34887 -3.18817 0
M  V30 11816 H 1096.89 -0.133783 -4.60606 0
M  V30 11817 H 1095.21 0.0373216 -4.16383 0
M  V30 11818 H 1097.8 2.79008 -4.56134 0
M  V30 11819 H 1098.15 3.02084 -2.86446 0
M  V30 11820 H 1098.68 1.52696 -3.67327 0
M  V30 11821 H 1095.42 0.608495 -6.5267 0
M  V30 11822 H 1094.94 2.06776 -5.63031 0
M  V30 11823 H 1096.62 1.87467 -6.19246 0
M  V30 11824 N 1096.75 1.52266 0.40654 0
M  V30 11825 C 1097.66 1.78688 1.52012 0
M  V30 11826 C 1098.68 0.6726 1.60475 0
M  V30 11827 O 1099.85 0.95829 1.77141 0
M  V30 11828 C 1096.92 1.93434 2.87722 0
M  V30 11829 C 1095.98 3.17341 2.89125 0
M  V30 11830 C 1095.21 3.31374 4.18362 0
M  V30 11831 O 1095.43 2.50613 5.12396 0
M  V30 11832 O 1094.37 4.24539 4.26674 0
M  V30 11833 H 1098.19 2.73213 1.3262 0
M  V30 11834 H 1095.78 1.37142 0.592653 0
M  V30 11835 H 1097.66 2.04941 3.68208 0
M  V30 11836 H 1096.34 1.02099 3.07177 0
M  V30 11837 H 1095.24 3.1129 2.07483 0
M  V30 11838 H 1096.58 4.08466 2.7462 0
M  V30 11839 N 1098.23 -0.663929 1.42933 0
M  V30 11840 C 1099.48 -1.42393 1.43981 0
M  V30 11841 C 1099.8 -1.94407 0.0601802 0
M  V30 11842 O 1099.06 -1.72019 -0.933172 0
M  V30 11843 C 1099.36 -2.62976 2.4203 0
M  V30 11844 C 1099.02 -2.29441 3.88159 0
M  V30 11845 C 1097.69 -2.20007 4.27961 0
M  V30 11846 C 1100.04 -2.02413 4.8029 0
M  V30 11847 C 1097.37 -1.81686 5.57859 0
M  V30 11848 C 1099.72 -1.65592 6.10542 0
M  V30 11849 C 1098.38 -1.54676 6.49332 0
M  V30 11850 H 1097.65 -0.521051 0.526865 0
M  V30 11851 H 1100.3 -0.756042 1.75944 0
M  V30 11852 H 1098.6 -3.34847 2.03433 0
M  V30 11853 H 1100.3 -3.21174 2.40101 0
M  V30 11854 H 1096.89 -2.3769 3.56653 0
M  V30 11855 H 1101.07 -2.08628 4.5032 0
M  V30 11856 H 1096.33 -1.71812 5.86763 0
M  V30 11857 H 1100.5 -1.43707 6.81411 0
M  V30 11858 H 1098.13 -1.24752 7.49894 0
M  V30 11859 N 1099.71 -1.29285 -0.901281 0
M  V30 11860 C 1100.95 -1.17339 -1.65407 0
M  V30 11861 C 1101.29 0.274834 -1.92245 0
M  V30 11862 O 1100.56 1.19865 -1.53176 0
M  V30 11863 C 1100.84 -1.98547 -3.00418 0
M  V30 11864 C 1100.7 -3.51501 -2.80655 0
M  V30 11865 C 1102.02 -1.81062 -4.01129 0
M  V30 11866 H 1099.13 -0.427624 -0.600255 0
M  V30 11867 H 1101.78 -1.58741 -1.0441 0
M  V30 11868 H 1099.93 -1.63366 -3.52482 0
M  V30 11869 H 1101.6 -3.96655 -2.35505 0
M  V30 11870 H 1099.84 -3.76504 -2.15469 0
M  V30 11871 H 1100.51 -4.03593 -3.76585 0
M  V30 11872 H 1102.99 -2.11788 -3.58169 0
M  V30 11873 H 1101.86 -2.40235 -4.93536 0
M  V30 11874 H 1102.13 -0.765388 -4.35424 0
M  V30 11875 N 1101.18 1.11143 -1.11736 0
M  V30 11876 C 1102.41 1.86745 -0.890727 0
M  V30 11877 C 1102.83 1.80315 0.55964 0
M  V30 11878 O 1102.18 1.18663 1.38656 0
M  V30 11879 C 1102.24 3.35436 -1.34779 0
M  V30 11880 O 1101.96 3.41738 -2.74129 0
M  V30 11881 C 1103.46 4.27935 -1.15702 0
M  V30 11882 H 1100.68 0.59044 -0.318781 0
M  V30 11883 H 1103.22 1.40549 -1.48547 0
M  V30 11884 H 1101.38 3.79125 -0.796425 0
M  V30 11885 H 1101.79 4.34347 -2.94012 0
M  V30 11886 H 1103.26 5.30494 -1.52579 0
M  V30 11887 H 1103.74 4.39093 -0.0968735 0
M  V30 11888 H 1104.35 3.90042 -1.69551 0
M  V30 11889 N 1102.66 0.908147 1.28804 0
M  V30 11890 C 1103.59 0.34957 2.26519 0
M  V30 11891 C 1104.61 -0.508845 1.54643 0
M  V30 11892 O 1105.8 -0.324633 1.75523 0
M  V30 11893 C 1102.9 -0.519461 3.34895 0
M  V30 11894 C 1102.07 0.315157 4.36263 0
M  V30 11895 C 1101.13 -0.488059 5.23932 0
M  V30 11896 O 1100.15 0.0974133 5.69117 0
M  V30 11897 N 1101.36 -1.79233 5.52137 0
M  V30 11898 H 1104.12 1.18945 2.75086 0
M  V30 11899 H 1101.68 0.77351 1.42227 0
M  V30 11900 H 1103.67 -1.0634 3.90479 0
M  V30 11901 H 1102.24 -1.26004 2.8608 0
M  V30 11902 H 1101.46 1.04049 3.8022 0
M  V30 11903 H 1102.75 0.886438 5.01019 0
M  V30 11904 H 1102.15 -2.2906 5.1725 0
M  V30 11905 H 1100.71 -2.28322 6.10502 0
M  V30 11906 N 1104.14 -1.42577 0.671525 0
M  V30 11907 C 1105.56 -1.5592 0.340769 0
M  V30 11908 C 1105.76 -1.65179 -1.15405 0
M  V30 11909 O 1104.81 -1.61691 -1.93939 0
M  V30 11910 C 1106.13 -2.81087 1.06821 0
M  V30 11911 C 1107.67 -2.94855 1.05022 0
M  V30 11912 C 1108.15 -4.22878 1.75892 0
M  V30 11913 N 1109.64 -4.29783 1.72744 0
M  V30 11914 C 1110.37 -5.2765 2.24439 0
M  V30 11915 N 1109.87 -6.31689 2.84501 0
M  V30 11916 N 1111.66 -5.19426 2.14832 0
M  V30 11917 H 1103.81 -1.34811 1.64133 0
M  V30 11918 H 1106.08 -0.648704 0.691294 0
M  V30 11919 H 1105.78 -2.80371 2.12332 0
M  V30 11920 H 1105.66 -3.71879 0.631356 0
M  V30 11921 H 1108.04 -2.951 0.00345633 0
M  V30 11922 H 1108.13 -2.05303 1.52592 0
M  V30 11923 H 1107.77 -4.23394 2.80535 0
M  V30 11924 H 1107.7 -5.1136 1.25773 0
M  V30 11925 H 1110.19 -3.55225 1.28932 0
M  V30 11926 H 1110.5 -7.02715 3.21575 0
M  V30 11927 H 1108.85 -6.3226 2.88569 0
M  V30 11928 H 1112.04 -4.37067 1.676 0
M  V30 11929 H 1112.21 -5.95535 2.55426 0
M  V30 11930 N 1105.62 -0.414636 -1.52048 0
M  V30 11931 C 1106.57 0.422766 -2.28726 0
M  V30 11932 C 1107.56 1.04099 -1.3364 0
M  V30 11933 O 1108.77 0.978559 -1.51077 0
M  V30 11934 H 1105.14 0.155123 -0.735827 0
M  V30 11935 H 1107.11 -0.245091 -2.97392 0
M  V30 11936 C 1105.86 1.52418 -3.12513 0
M  V30 11937 H 1105.18 1.05781 -3.85552 0
M  V30 11938 H 1106.62 2.08382 -3.6926 0
M  V30 11939 C 1105.08 2.49465 -2.26426 0
M  V30 11940 O 1105.61 3.53479 -1.90829 0
M  V30 11941 N 1103.82 2.19806 -1.90088 0
M  V30 11942 H 1103.37 1.35253 -2.19236 0
M  V30 11943 H 1103.32 2.84984 -1.32783 0
M  V30 11944 N 1107.1 1.56929 -0.145233 0
M  V30 11945 C 1108.34 1.97959 0.509092 0
M  V30 11946 C 1108.7 1.02813 1.62153 0
M  V30 11947 O 1109.9 1.3288 2.33659 0
M  V30 11948 C 1108.17 3.43012 1.00388 0
M  V30 11949 S 1109.73 4.06064 1.66305 0
M  V30 11950 H 1106.55 0.69167 0.164663 0
M  V30 11951 H 1109.15 1.94064 -0.236529 0
M  V30 11952 H 1107.86 4.0999 0.183454 0
M  V30 11953 H 1107.39 3.50615 1.78417 0
M  V30 11954 H 1109.4 3.98971 2.9502 0
M  V30 11955 N 1108.58 -0.128553 1.57075 0
M  V30 11956 C 1109.52 -1.17719 2.00611 0
M  V30 11957 C 1110.52 -1.43423 0.90146 0
M  V30 11958 O 1111.72 -1.43498 1.08666 0
M  V30 11959 H 1108.1 -0.396683 0.638864 0
M  V30 11960 H 1110.07 -0.783437 2.87932 0
M  V30 11961 C 1108.82 -2.49826 2.41831 0
M  V30 11962 H 1108.14 -2.30883 3.26394 0
M  V30 11963 H 1109.58 -3.21784 2.761 0
M  V30 11964 C 1108.04 -3.11712 1.27816 0
M  V30 11965 O 1108.57 -3.9736 0.588917 0
M  V30 11966 N 1106.78 -2.71442 1.03767 0
M  V30 11967 H 1106.32 -2.01891 1.59994 0
M  V30 11968 H 1106.28 -3.1318 0.276743 0
M  V30 11969 N 1110.05 -1.5248 -0.398459 0
M  V30 11970 C 1110.98 -1.79549 -1.49279 0
M  V30 11971 C 1111.96 -0.647004 -1.57315 0
M  V30 11972 O 1113.15 -0.893661 -1.72416 0
M  V30 11973 C 1110.28 -1.95582 -2.86993 0
M  V30 11974 C 1109.23 -3.1123 -2.93803 0
M  V30 11975 C 1108.56 -3.12501 -4.33874 0
M  V30 11976 C 1109.86 -4.50485 -2.64312 0
M  V30 11977 H 1111.55 -2.71187 -1.26877 0
M  V30 11978 H 1109.1 -1.30492 -0.608924 0
M  V30 11979 H 1111.05 -2.13102 -3.63546 0
M  V30 11980 H 1109.78 -1.00625 -3.10712 0
M  V30 11981 H 1108.44 -2.93477 -2.19697 0
M  V30 11982 H 1108.08 -2.15245 -4.54619 0
M  V30 11983 H 1107.78 -3.90183 -4.39353 0
M  V30 11984 H 1109.31 -3.32164 -5.12347 0
M  V30 11985 H 1110.72 -4.68387 -3.30585 0
M  V30 11986 H 1109.12 -5.30163 -2.81153 0
M  V30 11987 H 1110.19 -4.57848 -1.59696 0
M  V30 11988 N 1111.53 0.65634 -1.43283 0
M  V30 11989 C 1112.76 1.44408 -1.48168 0
M  V30 11990 C 1113.17 1.88542 -0.0986016 0
M  V30 11991 O 1112.53 1.59298 0.890527 0
M  V30 11992 C 1112.58 2.68111 -2.42484 0
M  V30 11993 O 1112.3 2.25824 -3.75413 0
M  V30 11994 C 1113.8 3.61499 -2.56579 0
M  V30 11995 H 1111.02 0.443731 -0.503333 0
M  V30 11996 H 1113.57 0.804917 -1.87993 0
M  V30 11997 H 1111.72 3.28175 -2.05863 0
M  V30 11998 H 1112.14 3.05839 -4.26102 0
M  V30 11999 H 1113.61 4.44972 -3.26655 0
M  V30 12000 H 1114.09 4.08639 -1.60969 0
M  V30 12001 H 1114.69 3.07319 -2.93998 0
M  V30 12002 N 1113.01 1.29761 0.894412 0
M  V30 12003 C 1113.94 1.1115 2.00445 0
M  V30 12004 C 1114.95 0.0574655 1.62699 0
M  V30 12005 O 1116.14 0.302528 1.75918 0
M  V30 12006 C 1113.24 0.670984 3.32191 0
M  V30 12007 C 1112.42 1.80471 3.98433 0
M  V30 12008 C 1111.48 1.35431 5.08473 0
M  V30 12009 O 1110.5 2.05994 5.30618 0
M  V30 12010 N 1111.7 0.22811 5.80052 0
M  V30 12011 H 1114.47 2.06753 2.16964 0
M  V30 12012 H 1112.03 1.21772 1.06692 0
M  V30 12013 H 1114.02 0.352877 4.03159 0
M  V30 12014 H 1112.59 -0.192735 3.12005 0
M  V30 12015 H 1111.81 2.29142 3.20761 0
M  V30 12016 H 1113.1 2.56471 4.39431 0
M  V30 12017 H 1112.5 -0.360076 5.64553 0
M  V30 12018 H 1111.05 -0.0305985 6.51793 0
M  V30 12019 N 1114.49 -1.10549 1.12324 0
M  V30 12020 C 1115.74 -1.81851 0.872531 0
M  V30 12021 C 1116.05 -1.86058 -0.603468 0
M  V30 12022 O 1117.26 -2.53553 -0.970736 0
M  V30 12023 C 1115.71 -3.26631 1.51131 0
M  V30 12024 C 1115.32 -3.30725 3.02201 0
M  V30 12025 C 1117.06 -4.02768 1.34082 0
M  V30 12026 C 1114.97 -4.69957 3.59018 0
M  V30 12027 H 1113.9 -0.681422 0.322769 0
M  V30 12028 H 1116.55 -1.24332 1.34959 0
M  V30 12029 H 1114.93 -3.8414 0.961913 0
M  V30 12030 H 1116.11 -2.83046 3.63623 0
M  V30 12031 H 1114.42 -2.68072 3.18632 0
M  V30 12032 H 1117.02 -5.05612 1.73955 0
M  V30 12033 H 1117.36 -4.15328 0.284369 0
M  V30 12034 H 1117.9 -3.51671 1.85937 0
M  V30 12035 H 1114.63 -4.62597 4.64418 0
M  V30 12036 H 1114.15 -5.18008 3.02371 0
M  V30 12037 H 1115.83 -5.38925 3.58007 0
M  V30 12038 N 1115.97 -0.914965 -1.28321 0
M  V30 12039 C 1117.21 -0.547665 -1.94538 0
M  V30 12040 C 1117.53 0.911834 -1.72368 0
M  V30 12041 O 1116.8 1.64481 -1.06408 0
M  V30 12042 H 1115.38 -0.199549 -0.719853 0
M  V30 12043 H 1118.05 -1.16459 -1.5628 0
M  V30 12044 H 1117.14 -0.743138 -3.03124 0
M  V30 12045 N 1117.44 1.42219 -0.679077 0
M  V30 12046 C 1118.69 2.01081 -0.202718 0
M  V30 12047 C 1119.01 1.53986 1.19639 0
M  V30 12048 O 1118.28 0.763359 1.80415 0
M  V30 12049 H 1116.86 0.743526 -0.0719547 0
M  V30 12050 H 1119.52 1.74077 -0.876544 0
M  V30 12051 H 1118.62 3.11411 -0.207314 0
M  V30 12052 N 1118.92 0.422693 1.51826 0
M  V30 12053 C 1119.85 -0.386913 2.30272 0
M  V30 12054 C 1120.83 -1.03411 1.35056 0
M  V30 12055 O 1122.02 -1.04055 1.6397 0
M  V30 12056 C 1119.15 -1.49645 3.13407 0
M  V30 12057 C 1118.1 -0.973532 4.16781 0
M  V30 12058 C 1117.43 -2.1777 4.88344 0
M  V30 12059 C 1118.73 -0.0181194 5.22297 0
M  V30 12060 H 1120.42 0.267697 2.98201 0
M  V30 12061 H 1117.97 0.130186 1.4341 0
M  V30 12062 H 1119.92 -2.06993 3.67059 0
M  V30 12063 H 1118.64 -2.17914 2.43272 0
M  V30 12064 H 1117.3 -0.42237 3.64159 0
M  V30 12065 H 1116.95 -2.84625 4.14726 0
M  V30 12066 H 1116.65 -1.83427 5.58237 0
M  V30 12067 H 1118.18 -2.75699 5.44814 0
M  V30 12068 H 1119.59 -0.500822 5.71108 0
M  V30 12069 H 1117.99 0.237163 5.99631 0
M  V30 12070 H 1119.06 0.923065 4.76033 0
M  V30 12071 N 1120.4 -1.5685 0.153553 0
M  V30 12072 C 1121.65 -1.95509 -0.495911 0
M  V30 12073 C 1121.96 -1.04129 -1.65579 0
M  V30 12074 O 1123.17 -1.32394 -2.37032 0
M  V30 12075 C 1121.62 -3.47579 -0.933622 0
M  V30 12076 C 1121.23 -4.47555 0.199684 0
M  V30 12077 C 1122.98 -3.95092 -1.55251 0
M  V30 12078 C 1120.88 -5.90843 -0.256663 0
M  V30 12079 H 1119.81 -0.729919 -0.189035 0
M  V30 12080 H 1122.46 -1.81938 0.238947 0
M  V30 12081 H 1120.85 -3.56506 -1.72394 0
M  V30 12082 H 1122.02 -4.50329 0.976744 0
M  V30 12083 H 1120.33 -4.09997 0.727394 0
M  V30 12084 H 1122.93 -4.99588 -1.90567 0
M  V30 12085 H 1123.27 -3.37015 -2.4439 0
M  V30 12086 H 1123.81 -3.89109 -0.826969 0
M  V30 12087 H 1120.55 -6.52753 0.599515 0
M  V30 12088 H 1120.07 -5.91414 -0.999458 0
M  V30 12089 H 1121.75 -6.43131 -0.70649 0
M  V30 12090 N 1121.88 0.120221 -1.57141 0
M  V30 12091 C 1123.15 0.858458 -1.75755 0
M  V30 12092 C 1123.53 1.98124 -0.728693 0
M  V30 12093 O 1122.88 2.27155 0.247573 0
M  V30 12094 C 1123.09 1.37627 -3.20718 0
M  V30 12095 C 1124.44 1.82909 -3.83183 0
M  V30 12096 O 1125.46 1.47309 -3.24312 0
M  V30 12097 O 1124.32 2.4865 -4.86657 0
M  V30 12098 H 1121.42 0.407583 -0.719587 0
M  V30 12099 H 1123.96 0.104057 -1.69381 0
M  V30 12100 H 1122.74 0.570651 -3.87117 0
M  V30 12101 H 1122.36 2.19341 -3.31625 0
M  V30 12102 N 1123.36 1.52689 0.390367 0
M  V30 12103 C 1124.58 1.71839 1.16129 0
M  V30 12104 C 1125.01 0.435226 1.82996 0
M  V30 12105 O 1124.36 -0.60889 1.70769 0
M  V30 12106 C 1124.41 2.86784 2.18603 0
M  V30 12107 O 1123.52 2.53662 3.25161 0
M  V30 12108 H 1122.86 0.571455 0.338135 0
M  V30 12109 H 1125.39 1.99475 0.45508 0
M  V30 12110 H 1125.4 3.12239 2.62622 0
M  V30 12111 H 1124.07 3.79872 1.69322 0
M  V30 12112 H 1122.65 2.38942 2.86289 0
M  V30 12113 N 1124.83 -0.648732 1.43629 0
M  V30 12114 C 1125.78 -1.76145 1.49136 0
M  V30 12115 C 1126.75 -1.62569 0.340649 0
M  V30 12116 O 1127.94 -1.82748 0.548435 0
M  V30 12117 C 1125.08 -3.14321 1.42466 0
M  V30 12118 C 1124.19 -3.38999 2.67776 0
M  V30 12119 C 1123.32 -4.67047 2.53062 0
M  V30 12120 C 1122.36 -4.84845 3.7362 0
M  V30 12121 N 1121.5 -6.04155 3.57689 0
M  V30 12122 H 1126.34 -1.70774 2.44213 0
M  V30 12123 H 1123.88 -0.833311 1.2122 0
M  V30 12124 H 1125.84 -3.94206 1.36592 0
M  V30 12125 H 1124.47 -3.18751 0.509666 0
M  V30 12126 H 1123.52 -2.53179 2.83909 0
M  V30 12127 H 1124.83 -3.48035 3.57314 0
M  V30 12128 H 1123.98 -5.55066 2.44922 0
M  V30 12129 H 1122.72 -4.60339 1.61056 0
M  V30 12130 H 1121.73 -3.95261 3.82163 0
M  V30 12131 H 1122.95 -4.9338 4.6664 0
M  V30 12132 H 1120.9 -5.9857 2.6842 0
M  V30 12133 H 1120.82 -6.14169 4.40832 0
M  V30 12134 H 1122.08 -6.94782 3.53409 0
M  V30 12135 N 1126.31 -1.30234 -0.887518 0
M  V30 12136 C 1127.56 -1.18675 -1.63587 0
M  V30 12137 C 1127.88 0.259342 -1.93268 0
M  V30 12138 O 1127.15 1.17523 -1.56733 0
M  V30 12139 H 1125.73 -0.436224 -0.606397 0
M  V30 12140 H 1128.39 -1.63326 -1.06351 0
M  V30 12141 H 1127.49 -1.74575 -2.58708 0
M  V30 12142 N 1127.79 1.09952 -1.12909 0
M  V30 12143 C 1129.02 1.8552 -0.909163 0
M  V30 12144 C 1129.43 1.81173 0.545253 0
M  V30 12145 O 1128.77 1.20223 1.38896 0
M  V30 12146 C 1128.83 3.34693 -1.31228 0
M  V30 12147 C 1128.5 3.62794 -2.77902 0
M  V30 12148 C 1129.49 3.58973 -3.76078 0
M  V30 12149 C 1127.18 3.91311 -3.1493 0
M  V30 12150 C 1129.17 3.83271 -5.09296 0
M  V30 12151 C 1126.86 4.15265 -4.48328 0
M  V30 12152 C 1127.86 4.11236 -5.4532 0
M  V30 12153 O 1127.55 4.34576 -6.76313 0
M  V30 12154 H 1127.28 0.59303 -0.324486 0
M  V30 12155 H 1129.83 1.39878 -1.5041 0
M  V30 12156 H 1128.06 3.81016 -0.660573 0
M  V30 12157 H 1129.75 3.9166 -1.06569 0
M  V30 12158 H 1130.52 3.36974 -3.48817 0
M  V30 12159 H 1126.4 3.93575 -2.40041 0
M  V30 12160 H 1129.94 3.80041 -5.84991 0
M  V30 12161 H 1125.84 4.36743 -4.75316 0
M  V30 12162 H 1126.61 4.52065 -6.82334 0
M  V30 12163 N 1129.27 0.921757 1.27833 0
M  V30 12164 C 1130.52 0.557974 1.94245 0
M  V30 12165 C 1130.84 -0.90268 1.72849 0
M  V30 12166 O 1130.11 -1.63915 1.07279 0
M  V30 12167 H 1128.69 0.203364 0.718785 0
M  V30 12168 H 1131.35 1.17286 1.5566 0
M  V30 12169 H 1130.45 0.759202 3.02725 0
M  V30 12170 N 1130.75 -1.41857 0.686609 0
M  V30 12171 C 1131.99 -2.01666 0.214118 0
M  V30 12172 C 1132.33 -1.5422 -1.18025 0
M  V30 12173 O 1131.6 -0.749482 -1.7948 0
M  V30 12174 C 1131.88 -3.59147 0.261841 0
M  V30 12175 C 1131.74 -4.16742 1.69251 0
M  V30 12176 C 1133.06 -4.38427 -0.383378 0
M  V30 12177 H 1130.17 -0.732724 0.0792785 0
M  V30 12178 H 1132.82 -1.68724 0.873633 0
M  V30 12179 H 1130.97 -3.87342 -0.29971 0
M  V30 12180 H 1132.64 -3.99456 2.30722 0
M  V30 12181 H 1130.88 -3.72124 2.2295 0
M  V30 12182 H 1131.55 -5.25894 1.6775 0
M  V30 12183 H 1134.03 -4.15992 0.0947701 0
M  V30 12184 H 1132.9 -5.4797 -0.319401 0
M  V30 12185 H 1133.17 -4.172 -1.46276 0
M  V30 12186 N 1132.22 -0.430739 -1.51599 0
M  V30 12187 C 1133.47 0.137657 -2.01631 0
M  V30 12188 C 1133.79 1.43787 -1.31721 0
M  V30 12189 O 1133.06 1.90668 -0.449717 0
M  V30 12190 H 1131.64 0.0538611 -0.745056 0
M  V30 12191 H 1134.31 -0.571935 -1.86319 0
M  V30 12192 H 1133.4 0.318305 -3.10473 0
M  V30 12193 N 1133.7 1.56767 -0.161869 0
M  V30 12194 C 1134.93 2.00964 0.492027 0
M  V30 12195 C 1135.35 1.04206 1.57437 0
M  V30 12196 O 1134.7 0.0413998 1.82453 0
M  V30 12197 C 1134.75 3.4502 1.07904 0
M  V30 12198 O 1134.47 4.38082 0.0399085 0
M  V30 12199 C 1135.98 4.04572 1.81209 0
M  V30 12200 H 1133.2 0.658911 0.126797 0
M  V30 12201 H 1135.74 2.0283 -0.260824 0
M  V30 12202 H 1133.89 3.43959 1.78243 0
M  V30 12203 H 1134.31 5.22372 0.471985 0
M  V30 12204 H 1135.78 5.07321 2.17554 0
M  V30 12205 H 1136.26 3.46126 2.70359 0
M  V30 12206 H 1136.87 4.09307 1.15534 0
M  V30 12207 N 1135.18 -0.111886 1.57202 0
M  V30 12208 C 1136.59 -0.668261 1.74331 0
M  V30 12209 C 1136.94 -1.79959 0.781609 0
M  V30 12210 O 1136.07 -2.16356 -0.043833 0
M  V30 12211 C 1136.66 -1.219 3.1611 0
M  V30 12212 C 1135.22 -1.7216 3.34721 0
M  V30 12213 C 1134.37 -0.624223 2.70183 0
M  V30 12214 H 1137.32 0.114081 1.58289 0
M  V30 12215 H 1137.34 -2.08858 3.18054 0
M  V30 12216 H 1136.85 -0.395381 3.86081 0
M  V30 12217 H 1134.95 -2.56976 2.69803 0
M  V30 12218 H 1135.07 -1.82615 4.42932 0
M  V30 12219 H 1133.43 -1.05958 2.31614 0
M  V30 12220 H 1134.21 0.188537 3.42782 0
M  V30 12221 N 1136.66 -1.52894 -0.382264 0
M  V30 12222 C 1137.59 -1.7291 -1.48921 0
M  V30 12223 C 1138.57 -0.577056 -1.52016 0
M  V30 12224 O 1139.75 -0.807667 -1.7032 0
M  V30 12225 C 1136.88 -1.79281 -2.87361 0
M  V30 12226 C 1135.93 -3.01099 -3.02063 0
M  V30 12227 S 1136.76 -4.60947 -2.72558 0
M  V30 12228 C 1137.92 -4.70144 -4.13178 0
M  V30 12229 H 1138.15 -2.66529 -1.31718 0
M  V30 12230 H 1135.68 -1.43271 -0.575563 0
M  V30 12231 H 1137.64 -1.83637 -3.67134 0
M  V30 12232 H 1136.3 -0.867428 -3.01885 0
M  V30 12233 H 1135.49 -3.02117 -4.03412 0
M  V30 12234 H 1135.1 -2.94769 -2.3019 0
M  V30 12235 H 1137.39 -4.49173 -5.07198 0
M  V30 12236 H 1138.33 -5.72166 -4.17172 0
M  V30 12237 H 1138.74 -3.98923 -3.99401 0
M  V30 12238 N 1138.14 0.641106 -1.43971 0
M  V30 12239 C 1139.39 1.39807 -1.4594 0
M  V30 12240 C 1139.71 1.94795 -0.0893874 0
M  V30 12241 O 1138.98 1.75175 0.876962 0
M  V30 12242 H 1137.56 0.518908 -0.537349 0
M  V30 12243 H 1140.22 0.755278 -1.79671 0
M  V30 12244 H 1139.31 2.23439 -2.17903 0
M  V30 12245 N 1139.62 1.30703 0.880598 0
M  V30 12246 C 1140.84 1.22843 1.67106 0
M  V30 12247 C 1141.27 -0.204788 1.86982 0
M  V30 12248 O 1140.62 -1.14716 1.40392 0
M  V30 12249 C 1140.67 1.96685 3.02237 0
M  V30 12250 O 1139.78 1.29693 3.91476 0
M  V30 12251 H 1139.12 0.424661 0.51045 0
M  V30 12252 H 1141.65 1.72596 1.09871 0
M  V30 12253 H 1141.66 2.05874 3.52249 0
M  V30 12254 H 1140.33 3.00919 2.8709 0
M  V30 12255 H 1138.91 1.28886 3.49918 0
M  V30 12256 N 1141.09 -1.09351 1.1349 0
M  V30 12257 C 1142.5 -1.63035 0.909746 0
M  V30 12258 C 1142.86 -1.88229 -0.553573 0
M  V30 12259 O 1141.98 -1.63256 -1.42044 0
M  V30 12260 C 1142.58 -2.96186 1.64497 0
M  V30 12261 C 1141.13 -3.46692 1.46566 0
M  V30 12262 C 1140.28 -2.21095 1.67369 0
M  V30 12263 H 1143.23 -0.92704 1.28809 0
M  V30 12264 H 1143.25 -3.64177 1.10251 0
M  V30 12265 H 1142.77 -2.77818 2.70996 0
M  V30 12266 H 1140.87 -3.70183 0.423728 0
M  V30 12267 H 1140.98 -4.24078 2.22923 0
M  V30 12268 H 1139.34 -2.29789 1.0986 0
M  V30 12269 H 1140.13 -2.05245 2.7519 0
M  V30 12270 N 1142.57 -0.928524 -1.27343 0
M  V30 12271 C 1143.8 -0.584884 -1.98148 0
M  V30 12272 C 1144.21 0.841603 -1.69451 0
M  V30 12273 O 1143.55 1.57104 -0.952053 0
M  V30 12274 C 1143.61 -0.731911 -3.51971 0
M  V30 12275 C 1143.28 -2.13067 -4.04291 0
M  V30 12276 C 1144.28 -3.10492 -4.17002 0
M  V30 12277 C 1141.96 -2.44784 -4.38619 0
M  V30 12278 C 1143.95 -4.37742 -4.63315 0
M  V30 12279 C 1141.64 -3.72269 -4.84622 0
M  V30 12280 C 1142.64 -4.68562 -4.9693 0
M  V30 12281 O 1142.33 -5.93779 -5.41924 0
M  V30 12282 H 1142.06 -0.220347 -0.63908 0
M  V30 12283 H 1144.61 -1.24799 -1.63139 0
M  V30 12284 H 1142.84 -0.0116966 -3.86698 0
M  V30 12285 H 1144.53 -0.393206 -4.03991 0
M  V30 12286 H 1145.3 -2.8731 -3.9074 0
M  V30 12287 H 1141.18 -1.70577 -4.28281 0
M  V30 12288 H 1144.72 -5.12905 -4.72836 0
M  V30 12289 H 1140.62 -3.95269 -5.10326 0
M  V30 12290 H 1141.39 -5.96779 -5.60176 0
M  V30 12291 N 1144.05 1.41491 -0.694123 0
M  V30 12292 C 1145.47 1.55358 -0.365532 0
M  V30 12293 C 1145.67 1.66994 1.12762 0
M  V30 12294 O 1144.72 1.64756 1.91342 0
M  V30 12295 C 1146.03 2.79352 -1.11279 0
M  V30 12296 C 1147.58 2.93147 -1.097 0
M  V30 12297 C 1148.06 4.20027 -1.82597 0
M  V30 12298 N 1149.55 4.26981 -1.7956 0
M  V30 12299 C 1150.28 5.24013 -2.32805 0
M  V30 12300 N 1149.78 6.27083 -2.94515 0
M  V30 12301 N 1151.57 5.15943 -2.23069 0
M  V30 12302 H 1143.72 1.32183 -1.66257 0
M  V30 12303 H 1145.99 0.637624 -0.701527 0
M  V30 12304 H 1145.69 2.76958 -2.16765 0
M  V30 12305 H 1145.57 3.70827 -0.690439 0
M  V30 12306 H 1147.95 2.95057 -0.0504037 0
M  V30 12307 H 1148.03 2.02849 -1.55839 0
M  V30 12308 H 1147.68 4.18878 -2.87235 0
M  V30 12309 H 1147.61 5.09294 -1.33893 0
M  V30 12310 H 1150.1 3.53129 -1.34567 0
M  V30 12311 H 1150.41 6.97511 -3.32714 0
M  V30 12312 H 1148.76 6.27589 -2.98592 0
M  V30 12313 H 1151.95 4.34346 -1.74532 0
M  V30 12314 H 1152.12 5.91396 -2.64868 0
M  V30 12315 N 1145.53 0.438773 1.51369 0
M  V30 12316 C 1146.8 -0.18722 1.94702 0
M  V30 12317 C 1147.18 -1.59962 1.37752 0
M  V30 12318 O 1146.53 -2.214 0.565171 0
M  V30 12319 C 1146.74 -0.163491 3.48617 0
M  V30 12320 C 1148.09 -0.368355 4.22999 0
M  V30 12321 O 1149.11 -0.241541 3.5538 0
M  V30 12322 O 1147.97 -0.620916 5.42961 0
M  V30 12323 H 1145.07 -0.129194 0.816846 0
M  V30 12324 H 1147.61 0.496855 1.62263 0
M  V30 12325 H 1146.39 0.823882 3.82528 0
M  V30 12326 H 1146.01 -0.890414 3.87501 0
M  V30 12327 N 1147.01 -1.56678 0.170181 0
M  V30 12328 C 1147.95 -2.17909 -0.760556 0
M  V30 12329 C 1148.92 -1.11875 -1.22773 0
M  V30 12330 O 1150.11 -1.40021 -1.2961 0
M  V30 12331 C 1147.25 -2.82305 -1.9849 0
M  V30 12332 C 1146.36 -4.02796 -1.5614 0
M  V30 12333 C 1145.5 -4.55121 -2.73932 0
M  V30 12334 C 1144.53 -5.68025 -2.28067 0
M  V30 12335 N 1143.67 -6.14865 -3.38947 0
M  V30 12336 H 1148.51 -2.97098 -0.231629 0
M  V30 12337 H 1146.05 -1.46742 -0.102602 0
M  V30 12338 H 1148.01 -3.17797 -2.70298 0
M  V30 12339 H 1146.64 -2.05721 -2.48755 0
M  V30 12340 H 1145.69 -3.73131 -0.740097 0
M  V30 12341 H 1147 -4.84526 -1.18472 0
M  V30 12342 H 1146.15 -4.92789 -3.53898 0
M  V30 12343 H 1144.89 -3.72445 -3.14858 0
M  V30 12344 H 1143.9 -5.2991 -1.46546 0
M  V30 12345 H 1145.12 -6.52501 -1.88199 0
M  V30 12346 H 1143.07 -5.35119 -3.79452 0
M  V30 12347 H 1142.99 -6.91582 -3.05369 0
M  V30 12348 H 1144.25 -6.57183 -4.19203 0
M  V30 12349 N 1148.48 0.103547 -1.57259 0
M  V30 12350 C 1149.73 0.807231 -1.84842 0
M  V30 12351 C 1150.05 1.80308 -0.758181 0
M  V30 12352 O 1151.25 2.55406 -0.920877 0
M  V30 12353 C 1149.71 1.4864 -3.27771 0
M  V30 12354 C 1149.32 0.53075 -4.44845 0
M  V30 12355 C 1151.06 2.17431 -3.64587 0
M  V30 12356 C 1148.97 1.21403 -5.78805 0
M  V30 12357 H 1147.9 0.305212 -0.689465 0
M  V30 12358 H 1150.55 0.0600855 -1.83402 0
M  V30 12359 H 1148.93 2.28071 -3.23728 0
M  V30 12360 H 1150.1 -0.231455 -4.60218 0
M  V30 12361 H 1148.42 -0.0510078 -4.16369 0
M  V30 12362 H 1151.02 2.6927 -4.6195 0
M  V30 12363 H 1151.36 2.9594 -2.92789 0
M  V30 12364 H 1151.89 1.4487 -3.70483 0
M  V30 12365 H 1148.63 0.469918 -6.53813 0
M  V30 12366 H 1148.15 1.94787 -5.6729 0
M  V30 12367 H 1149.83 1.74289 -6.23083 0
M  V30 12368 N 1149.96 1.53094 0.37415 0
M  V30 12369 C 1151.19 1.72758 1.13852 0
M  V30 12370 C 1151.6 0.452638 1.83294 0
M  V30 12371 O 1150.96 -0.573906 1.73241 0
M  V30 12372 C 1151.01 2.88724 2.17534 0
M  V30 12373 O 1150.73 4.11284 1.5092 0
M  V30 12374 C 1152.23 3.2019 3.06584 0
M  V30 12375 H 1149.45 0.578028 0.340771 0
M  V30 12376 H 1152 1.99805 0.435683 0
M  V30 12377 H 1150.15 2.64096 2.83429 0
M  V30 12378 H 1150.57 4.76162 2.19932 0
M  V30 12379 H 1152.04 4.04759 3.75332 0
M  V30 12380 H 1152.52 2.35193 3.70919 0
M  V30 12381 H 1153.12 3.46712 2.46315 0
M  V30 12382 N 1151.44 -0.633461 1.44309 0
M  V30 12383 C 1152.69 -1.38902 1.4625 0
M  V30 12384 C 1153 -1.95354 0.0980699 0
M  V30 12385 O 1154.21 -2.715 -0.0049983 0
M  V30 12386 C 1152.66 -2.51477 2.57463 0
M  V30 12387 C 1152.27 -2.01549 4.00103 0
M  V30 12388 C 1154.02 -3.28698 2.68622 0
M  V30 12389 C 1151.92 -3.11452 5.02744 0
M  V30 12390 H 1150.85 -0.521976 0.544112 0
M  V30 12391 H 1153.5 -0.681725 1.70367 0
M  V30 12392 H 1151.89 -3.24771 2.26582 0
M  V30 12393 H 1153.06 -1.35135 4.4054 0
M  V30 12394 H 1151.37 -1.3715 3.93165 0
M  V30 12395 H 1153.97 -4.10624 3.42479 0
M  V30 12396 H 1154.31 -3.78027 1.7436 0
M  V30 12397 H 1154.85 -2.62494 2.98901 0
M  V30 12398 H 1151.59 -2.6707 5.98627 0
M  V30 12399 H 1151.11 -3.76514 4.66902 0
M  V30 12400 H 1152.79 -3.76265 5.2634 0
M  V30 12401 N 1152.92 -1.31168 -0.873655 0
M  V30 12402 C 1153.88 -1.18471 -1.96207 0
M  V30 12403 C 1154.88 -0.112814 -1.60404 0
M  V30 12404 O 1156.07 -0.3618 -1.70401 0
M  V30 12405 C 1153.2 -0.817662 -3.30949 0
M  V30 12406 H 1154.4 -2.1518 -2.08896 0
M  V30 12407 H 1151.95 -1.14727 -1.06149 0
M  V30 12408 H 1152.68 0.148428 -3.2396 0
M  V30 12409 H 1152.47 -1.59244 -3.58307 0
M  V30 12410 H 1153.96 -0.75262 -4.10762 0
M  V30 12411 N 1154.4 1.08748 -1.14068 0
M  V30 12412 C 1155.65 1.8044 -0.901352 0
M  V30 12413 C 1155.96 1.86995 0.573791 0
M  V30 12414 O 1157.16 2.55065 0.930275 0
M  V30 12415 C 1155.62 3.24185 -1.56308 0
M  V30 12416 C 1155.23 3.25875 -3.07424 0
M  V30 12417 C 1156.97 4.00584 -1.40473 0
M  V30 12418 C 1154.88 4.64186 -3.66449 0
M  V30 12419 H 1153.81 0.676201 -0.333569 0
M  V30 12420 H 1156.46 1.22169 -1.3692 0
M  V30 12421 H 1154.84 3.82561 -1.0229 0
M  V30 12422 H 1156.02 2.77225 -3.6808 0
M  V30 12423 H 1154.33 2.62969 -3.22856 0
M  V30 12424 H 1156.93 5.02781 -1.81976 0
M  V30 12425 H 1157.27 4.14823 -0.350408 0
M  V30 12426 H 1157.8 3.48668 -1.91508 0
M  V30 12427 H 1154.54 4.5515 -4.71719 0
M  V30 12428 H 1154.06 5.13132 -3.10574 0
M  V30 12429 H 1155.74 5.33161 -3.66536 0
M  V30 12430 N 1155.87 0.935264 1.26849 0
M  V30 12431 C 1156.8 0.457776 2.28969 0
M  V30 12432 C 1157.79 -0.48587 1.63013 0
M  V30 12433 O 1158.97 -0.388998 1.90264 0
M  V30 12434 C 1156.1 -0.283332 3.46142 0
M  V30 12435 C 1155.05 0.573196 4.24144 0
M  V30 12436 C 1154.38 -0.297525 5.33872 0
M  V30 12437 C 1155.68 1.84153 4.88759 0
M  V30 12438 H 1157.37 1.31125 2.69159 0
M  V30 12439 H 1154.92 0.631956 1.29392 0
M  V30 12440 H 1156.87 -0.628366 4.16689 0
M  V30 12441 H 1155.6 -1.1709 3.04889 0
M  V30 12442 H 1154.26 0.901043 3.55354 0
M  V30 12443 H 1153.9 -1.18427 4.8886 0
M  V30 12444 H 1153.6 0.272126 5.8697 0
M  V30 12445 H 1155.13 -0.637961 6.07258 0
M  V30 12446 H 1156.54 1.5641 5.51551 0
M  V30 12447 H 1154.94 2.35528 5.51948 0
M  V30 12448 H 1156.01 2.5565 4.12033 0
M  V30 12449 N 1157.35 -1.41121 0.701616 0
M  V30 12450 C 1158.28 -2.292 0.000880842 0
M  V30 12451 C 1159.3 -1.45102 -0.738192 0
M  V30 12452 O 1160.49 -1.68541 -0.587891 0
M  V30 12453 C 1157.59 -3.23094 -1.02292 0
M  V30 12454 C 1156.76 -4.35979 -0.352231 0
M  V30 12455 C 1155.82 -5.10408 -1.27947 0
M  V30 12456 O 1154.84 -5.63974 -0.769561 0
M  V30 12457 N 1156.05 -5.18442 -2.61147 0
M  V30 12458 H 1158.81 -2.8998 0.757094 0
M  V30 12459 H 1156.37 -1.52339 0.548126 0
M  V30 12460 H 1158.36 -3.69755 -1.64509 0
M  V30 12461 H 1156.93 -2.6358 -1.68061 0
M  V30 12462 H 1156.15 -3.91624 0.44992 0
M  V30 12463 H 1157.44 -5.08673 0.113882 0
M  V30 12464 H 1156.84 -4.76381 -3.05087 0
M  V30 12465 H 1155.4 -5.68659 -3.18544 0
M  V30 12466 N 1158.83 -0.446794 -1.51134 0
M  V30 12467 C 1159.76 0.350229 -2.30858 0
M  V30 12468 C 1160.74 1.0125 -1.36684 0
M  V30 12469 O 1161.93 1.01433 -1.65605 0
M  V30 12470 C 1159.06 1.4464 -3.15748 0
M  V30 12471 C 1158.01 0.907102 -4.18277 0
M  V30 12472 C 1157.34 2.09974 -4.91747 0
M  V30 12473 C 1158.64 -0.0649758 -5.2226 0
M  V30 12474 H 1160.33 -0.315105 -2.97737 0
M  V30 12475 H 1157.88 -0.152985 -1.43185 0
M  V30 12476 H 1159.83 2.01127 -3.70305 0
M  V30 12477 H 1158.55 2.14016 -2.46708 0
M  V30 12478 H 1157.21 0.364382 -3.64785 0
M  V30 12479 H 1156.86 2.77991 -4.19202 0
M  V30 12480 H 1156.56 1.74523 -5.61084 0
M  V30 12481 H 1158.08 2.66996 -5.49131 0
M  V30 12482 H 1159.5 0.4099 -5.71833 0
M  V30 12483 H 1157.9 -0.332529 -5.99178 0
M  V30 12484 H 1158.97 -0.998681 -4.74504 0
M  V30 12485 N 1160.31 1.56586 -0.178487 0
M  V30 12486 C 1161.24 2.155 0.780543 0
M  V30 12487 C 1162.25 1.11244 1.18864 0
M  V30 12488 O 1163.44 1.38403 1.12725 0
M  V30 12489 C 1160.54 2.68867 2.0631 0
M  V30 12490 C 1159.72 3.97854 1.81744 0
M  V30 12491 C 1158.77 4.36213 2.94287 0
M  V30 12492 O 1157.8 5.03954 2.64612 0
M  V30 12493 N 1159 3.98356 4.22247 0
M  V30 12494 H 1161.77 2.98419 0.276836 0
M  V30 12495 H 1159.33 1.61899 0.00405241 0
M  V30 12496 H 1161.32 2.91522 2.80708 0
M  V30 12497 H 1159.89 1.90496 2.47851 0
M  V30 12498 H 1159.11 3.83502 0.912127 0
M  V30 12499 H 1160.4 4.82083 1.62707 0
M  V30 12500 H 1159.8 3.43835 4.49215 0
M  V30 12501 H 1158.35 4.25998 4.93325 0
M  V30 12502 N 1161.79 -0.095206 1.57312 0
M  V30 12503 C 1162.7 -1.13388 2.05379 0
M  V30 12504 C 1163.71 -1.43868 0.978668 0
M  V30 12505 O 1164.89 -1.54512 1.29182 0
M  V30 12506 C 1161.95 -2.43444 2.46852 0
M  V30 12507 C 1161.01 -2.20146 3.68557 0
M  V30 12508 C 1160.25 -3.44001 4.08043 0
M  V30 12509 O 1160.47 -4.52233 3.47623 0
M  V30 12510 O 1159.4 -3.33596 5.00997 0
M  V30 12511 H 1163.23 -0.755622 2.9415 0
M  V30 12512 H 1160.82 -0.307707 1.46197 0
M  V30 12513 H 1162.7 -3.20027 2.74155 0
M  V30 12514 H 1161.37 -2.80696 1.61219 0
M  V30 12515 H 1160.28 -1.41345 3.46371 0
M  V30 12516 H 1161.61 -1.87787 4.54969 0
M  V30 12517 N 1163.26 -1.53291 -0.366026 0
M  V30 12518 C 1164.17 -1.82656 -1.47221 0
M  V30 12519 C 1165.19 -0.71491 -1.58635 0
M  V30 12520 O 1166.37 -1.00492 -1.74538 0
M  V30 12521 C 1163.43 -2.00995 -2.82492 0
M  V30 12522 C 1162.49 -3.24895 -2.8061 0
M  V30 12523 C 1161.73 -3.4235 -4.09429 0
M  V30 12524 O 1161.95 -2.6411 -5.05571 0
M  V30 12525 O 1160.88 -4.35702 -4.15268 0
M  V30 12526 H 1164.71 -2.76634 -1.2533 0
M  V30 12527 H 1162.29 -1.38665 -0.556084 0
M  V30 12528 H 1164.18 -2.14632 -3.62645 0
M  V30 12529 H 1162.85 -1.10207 -3.04362 0
M  V30 12530 H 1161.76 -3.16682 -1.99157 0
M  V30 12531 H 1163.09 -4.15604 -2.63694 0
M  V30 12532 N 1164.74 0.6258 -1.44643 0
M  V30 12533 C 1165.99 1.38251 -1.47414 0
M  V30 12534 C 1166.31 1.94689 -0.110043 0
M  V30 12535 O 1165.58 1.76095 0.858333 0
M  V30 12536 H 1164.16 0.513179 -0.542823 0
M  V30 12537 H 1166.82 0.736179 -1.80462 0
M  V30 12538 H 1165.92 2.21115 -2.2026 0
M  V30 12539 N 1166.22 1.31629 0.866686 0
M  V30 12540 C 1167.17 1.19556 1.97421 0
M  V30 12541 C 1168.14 0.0805578 1.65905 0
M  V30 12542 O 1169.32 0.253997 1.89102 0
M  V30 12543 C 1166.46 0.912234 3.32825 0
M  V30 12544 C 1165.58 2.11088 3.76916 0
M  V30 12545 C 1164.71 1.76406 5.01053 0
M  V30 12546 C 1163.75 2.9266 5.37602 0
M  V30 12547 N 1162.89 2.58152 6.52918 0
M  V30 12548 H 1167.73 2.14294 2.0708 0
M  V30 12549 H 1165.26 1.06595 1.0137 0
M  V30 12550 H 1167.22 0.72851 4.1079 0
M  V30 12551 H 1165.85 0.00167404 3.228 0
M  V30 12552 H 1164.9 2.40527 2.94705 0
M  V30 12553 H 1166.22 2.98089 3.99931 0
M  V30 12554 H 1165.37 1.54515 5.86694 0
M  V30 12555 H 1164.11 0.866018 4.79949 0
M  V30 12556 H 1163.11 3.15196 4.50479 0
M  V30 12557 H 1164.34 3.83179 5.6067 0
M  V30 12558 H 1162.28 1.70874 6.33355 0
M  V30 12559 H 1162.2 3.38682 6.75892 0
M  V30 12560 H 1163.47 2.39662 7.41743 0
M  V30 12561 N 1167.7 -1.08142 1.14644 0
M  V30 12562 C 1168.63 -2.17139 0.858667 0
M  V30 12563 C 1169.61 -1.69064 -0.187452 0
M  V30 12564 O 1170.8 -1.94151 -0.0435458 0
M  V30 12565 C 1167.93 -3.45648 0.33834 0
M  V30 12566 C 1166.88 -4.07129 1.32021 0
M  V30 12567 C 1166.21 -5.30623 0.659075 0
M  V30 12568 C 1167.51 -4.48095 2.68343 0
M  V30 12569 H 1169.2 -2.41468 1.77012 0
M  V30 12570 H 1166.75 -1.16052 0.852523 0
M  V30 12571 H 1168.7 -4.21216 0.124611 0
M  V30 12572 H 1167.42 -3.2088 -0.608553 0
M  V30 12573 H 1166.08 -3.33596 1.52016 0
M  V30 12574 H 1165.73 -5.02142 -0.293711 0
M  V30 12575 H 1165.43 -5.72714 1.31427 0
M  V30 12576 H 1166.95 -6.08903 0.454933 0
M  V30 12577 H 1168.37 -5.14828 2.5224 0
M  V30 12578 H 1166.76 -5.01113 3.30161 0
M  V30 12579 H 1167.83 -3.59852 3.25015 0
M  V30 12580 N 1169.18 -0.941978 -1.26351 0
M  V30 12581 C 1170.13 -0.423053 -2.24041 0
M  V30 12582 C 1171.11 0.480668 -1.53553 0
M  V30 12583 O 1172.3 0.315783 -1.7416 0
M  V30 12584 C 1169.43 0.309814 -3.41899 0
M  V30 12585 C 1168.52 -0.611245 -4.19672 0
M  V30 12586 N 1168.91 -1.73738 -4.75025 0
M  V30 12587 C 1167.21 -0.416985 -4.44046 0
M  V30 12588 C 1167.91 -2.31141 -5.33806 0
M  V30 12589 N 1166.88 -1.59934 -5.1954 0
M  V30 12590 H 1170.69 -1.28268 -2.64433 0
M  V30 12591 H 1168.2 -0.797941 -1.41445 0
M  V30 12592 H 1170.2 0.698618 -4.11005 0
M  V30 12593 H 1168.86 1.1662 -3.03035 0
M  V30 12594 H 1169.87 -2.1195 -4.72544 0
M  V30 12595 H 1166.55 0.397561 -4.15603 0
M  V30 12596 H 1167.94 -3.26029 -5.87499 0
M  V30 12597 N 1170.66 1.40747 -0.709091 0
M  V30 12598 C 1171.59 2.282 -0.00156906 0
M  V30 12599 C 1172.57 1.42981 0.774279 0
M  V30 12600 O 1173.75 1.724 0.762276 0
M  V30 12601 C 1170.88 3.23441 1.00517 0
M  V30 12602 C 1169.92 4.25291 0.320904 0
M  V30 12603 S 1170.76 5.27069 -0.946518 0
M  V30 12604 C 1171.91 6.25873 0.0582856 0
M  V30 12605 H 1172.15 2.87859 -0.743271 0
M  V30 12606 H 1169.68 1.46085 -0.499866 0
M  V30 12607 H 1171.64 3.78841 1.58082 0
M  V30 12608 H 1170.3 2.62851 1.71954 0
M  V30 12609 H 1169.49 4.92255 1.08173 0
M  V30 12610 H 1169.09 3.73557 -0.18202 0
M  V30 12611 H 1171.38 6.71398 0.907233 0
M  V30 12612 H 1172.33 7.05739 -0.577787 0
M  V30 12613 H 1172.74 5.62942 0.419108 0
M  V30 12614 N 1172.13 0.454803 1.50895 0
M  V30 12615 C 1173.07 -0.393395 2.24784 0
M  V30 12616 C 1174.04 -1.01005 1.27424 0
M  V30 12617 O 1175.23 -1.04914 1.56605 0
M  V30 12618 C 1172.36 -1.54978 3.01164 0
M  V30 12619 C 1171.4 -1.0521 4.1332 0
M  V30 12620 S 1172.23 0.0200486 5.35496 0
M  V30 12621 C 1173.39 -1.14059 6.1542 0
M  V30 12622 H 1173.62 0.233864 2.96379 0
M  V30 12623 H 1171.16 0.239498 1.52531 0
M  V30 12624 H 1173.11 -2.21262 3.45765 0
M  V30 12625 H 1171.78 -2.1485 2.29125 0
M  V30 12626 H 1170.97 -1.91734 4.66105 0
M  V30 12627 H 1170.57 -0.467234 3.7107 0
M  V30 12628 H 1172.86 -2.05552 6.45565 0
M  V30 12629 H 1173.81 -0.652339 7.05089 0
M  V30 12630 H 1174.21 -1.38705 5.47194 0
M  V30 12631 N 1173.61 -1.56489 0.186789 0
M  V30 12632 C 1174.56 -2.18703 -0.737402 0
M  V30 12633 C 1175.53 -1.13171 -1.21579 0
M  V30 12634 O 1176.71 -1.41388 -1.28118 0
M  V30 12635 C 1173.85 -2.84394 -1.95484 0
M  V30 12636 C 1172.97 -4.04429 -1.51859 0
M  V30 12637 C 1172.1 -4.58001 -2.69089 0
M  V30 12638 C 1171.14 -5.70412 -2.22029 0
M  V30 12639 N 1170.28 -6.18425 -3.32407 0
M  V30 12640 H 1175.12 -2.97327 -0.200105 0
M  V30 12641 H 1172.65 -1.46842 -0.087032 0
M  V30 12642 H 1174.61 -3.20646 -2.66912 0
M  V30 12643 H 1173.24 -2.08347 -2.46559 0
M  V30 12644 H 1172.29 -3.73895 -0.70048 0
M  V30 12645 H 1173.61 -4.85756 -1.13327 0
M  V30 12646 H 1172.76 -4.96515 -3.48652 0
M  V30 12647 H 1171.5 -3.75764 -3.1089 0
M  V30 12648 H 1170.5 -5.31434 -1.40918 0
M  V30 12649 H 1171.73 -6.54461 -1.81268 0
M  V30 12650 H 1169.68 -5.39113 -3.73755 0
M  V30 12651 H 1169.59 -6.94782 -2.98017 0
M  V30 12652 H 1170.86 -6.61592 -4.12209 0
M  V30 12653 N 1175.09 0.086862 -1.5736 0
M  V30 12654 C 1176 1.12297 -2.05977 0
M  V30 12655 C 1177.02 1.43347 -0.986284 0
M  V30 12656 O 1178.19 1.53825 -1.3 0
M  V30 12657 C 1175.26 2.42131 -2.4814 0
M  V30 12658 C 1174.32 2.18189 -3.69719 0
M  V30 12659 C 1173.55 3.41833 -4.09861 0
M  V30 12660 O 1173.77 4.50383 -3.50016 0
M  V30 12661 O 1172.71 3.30934 -5.02759 0
M  V30 12662 H 1176.53 0.740012 -2.94546 0
M  V30 12663 H 1174.12 0.29995 -1.46358 0
M  V30 12664 H 1176 3.18568 -2.75848 0
M  V30 12665 H 1174.68 2.79837 -1.62705 0
M  V30 12666 H 1173.58 1.39506 -3.47115 0
M  V30 12667 H 1174.92 1.85372 -4.55959 0
M  V30 12668 N 1176.57 1.53483 0.357892 0
M  V30 12669 C 1177.51 1.80463 1.43881 0
M  V30 12670 C 1178.48 0.649438 1.52877 0
M  V30 12671 O 1179.67 0.892409 1.68644 0
M  V30 12672 C 1176.81 2.00714 2.80727 0
M  V30 12673 C 1175.92 3.28431 2.80637 0
M  V30 12674 C 1175.06 3.38828 4.09107 0
M  V30 12675 C 1174.1 4.60549 4.03189 0
M  V30 12676 N 1173.23 4.68057 5.23323 0
M  V30 12677 H 1178.07 2.72694 1.20174 0
M  V30 12678 H 1175.61 1.35079 0.582422 0
M  V30 12679 H 1177.57 2.10444 3.60235 0
M  V30 12680 H 1176.2 1.11811 3.02817 0
M  V30 12681 H 1175.25 3.27617 1.93317 0
M  V30 12682 H 1176.56 4.18022 2.72138 0
M  V30 12683 H 1175.72 3.47911 4.97034 0
M  V30 12684 H 1174.46 2.47267 4.20369 0
M  V30 12685 H 1173.46 4.51558 3.13649 0
M  V30 12686 H 1174.69 5.53459 3.93523 0
M  V30 12687 H 1172.63 3.794 5.35156 0
M  V30 12688 H 1172.55 5.51563 5.17024 0
M  V30 12689 H 1173.82 4.81433 6.1306 0
M  V30 12690 N 1178.05 -0.61812 1.44973 0
M  V30 12691 C 1179.29 -1.37754 1.4965 0
M  V30 12692 C 1179.65 -1.91945 0.132201 0
M  V30 12693 O 1178.94 -1.71493 -0.854439 0
M  V30 12694 C 1179.13 -2.55143 2.50274 0
M  V30 12695 C 1178.96 -2.12446 3.96354 0
M  V30 12696 C 1177.73 -1.99112 4.64416 0
M  V30 12697 C 1179.93 -1.70557 4.85196 0
M  V30 12698 N 1177.91 -1.50114 5.95264 0
M  V30 12699 C 1179.28 -1.329 6.05589 0
M  V30 12700 C 1181.34 -1.58054 4.72147 0
M  V30 12701 C 1180.04 -0.839882 7.1438 0
M  V30 12702 C 1182.07 -1.10547 5.80976 0
M  V30 12703 C 1181.43 -0.738477 7.00518 0
M  V30 12704 H 1177.53 -0.498393 0.602601 0
M  V30 12705 H 1180.11 -0.70775 1.81381 0
M  V30 12706 H 1178.28 -3.19732 2.20513 0
M  V30 12707 H 1180.02 -3.21988 2.45166 0
M  V30 12708 H 1176.77 -2.19971 4.19416 0
M  V30 12709 H 1177.19 -1.27878 6.64813 0
M  V30 12710 H 1181.84 -1.85056 3.8015 0
M  V30 12711 H 1179.55 -0.557395 8.06175 0
M  V30 12712 H 1183.14 -1.01314 5.72911 0
M  V30 12713 H 1182.02 -0.376513 7.83296 0
M  V30 12714 N 1179.52 -1.32087 -0.859693 0
M  V30 12715 C 1180.77 -1.23551 -1.61575 0
M  V30 12716 C 1181.12 0.20199 -1.91337 0
M  V30 12717 O 1180.42 1.13834 -1.54118 0
M  V30 12718 C 1180.61 -2.0234 -2.94607 0
M  V30 12719 C 1180.44 -3.53606 -2.77836 0
M  V30 12720 C 1179.21 -4.22948 -2.76483 0
M  V30 12721 C 1181.41 -4.48356 -2.51955 0
M  V30 12722 N 1179.39 -5.60301 -2.5087 0
M  V30 12723 C 1180.76 -5.7345 -2.35702 0
M  V30 12724 C 1182.82 -4.37669 -2.37383 0
M  V30 12725 C 1181.52 -6.89064 -2.06357 0
M  V30 12726 C 1183.55 -5.53077 -2.09427 0
M  V30 12727 C 1182.91 -6.77167 -1.93971 0
M  V30 12728 H 1179.01 -0.507252 -0.595164 0
M  V30 12729 H 1181.59 -1.66395 -1.01098 0
M  V30 12730 H 1179.76 -1.6185 -3.53071 0
M  V30 12731 H 1181.49 -1.8574 -3.59559 0
M  V30 12732 H 1178.25 -3.75017 -2.89239 0
M  V30 12733 H 1178.67 -6.32649 -2.41006 0
M  V30 12734 H 1183.31 -3.42386 -2.48056 0
M  V30 12735 H 1181.03 -7.84363 -1.94421 0
M  V30 12736 H 1184.62 -5.46731 -1.98937 0
M  V30 12737 H 1183.5 -7.64959 -1.72646 0
M  V30 12738 N 1181 1.07532 -1.15215 0
M  V30 12739 C 1182.42 1.32183 -0.894411 0
M  V30 12740 C 1182.62 1.96188 0.459614 0
M  V30 12741 O 1181.67 2.22057 1.20195 0
M  V30 12742 C 1182.99 2.21473 -2.03397 0
M  V30 12743 C 1184.53 2.34927 -2.06829 0
M  V30 12744 C 1185.01 3.27564 -3.20103 0
M  V30 12745 N 1186.5 3.35144 -3.19738 0
M  V30 12746 C 1187.24 4.0688 -4.04025 0
M  V30 12747 N 1186.73 4.81246 -4.98371 0
M  V30 12748 N 1188.52 4.02802 -3.92055 0
M  V30 12749 H 1180.68 0.643732 -2.0241 0
M  V30 12750 H 1182.94 0.346272 -0.882496 0
M  V30 12751 H 1182.64 1.81701 -3.01127 0
M  V30 12752 H 1182.52 3.2199 -1.96475 0
M  V30 12753 H 1184.91 2.73953 -1.09699 0
M  V30 12754 H 1184.99 1.34121 -2.17819 0
M  V30 12755 H 1184.63 2.89258 -4.17483 0
M  V30 12756 H 1184.56 4.2832 -3.06349 0
M  V30 12757 H 1187.05 2.82135 -2.51412 0
M  V30 12758 H 1187.36 5.33472 -5.59131 0
M  V30 12759 H 1185.71 4.80268 -5.02362 0
M  V30 12760 H 1188.9 3.43816 -3.17661 0
M  V30 12761 H 1189.07 4.58443 -4.57967 0
M  V30 12762 N 1182.48 0.948665 1.2585 0
M  V30 12763 C 1183.73 0.59905 1.93018 0
M  V30 12764 C 1184.05 -0.865813 1.74725 0
M  V30 12765 O 1183.32 -1.61602 1.10732 0
M  V30 12766 H 1181.9 0.218565 0.71431 0
M  V30 12767 H 1184.56 1.20561 1.53137 0
M  V30 12768 H 1183.66 0.823244 3.01047 0
M  V30 12769 N 1183.96 -1.40369 0.716545 0
M  V30 12770 C 1184.91 -2.32539 0.053472 0
M  V30 12771 C 1185.9 -1.5209 -0.745984 0
M  V30 12772 O 1187.11 -1.67883 -0.649245 0
M  V30 12773 H 1183.48 -0.751998 -0.00151088 0
M  V30 12774 H 1185.45 -2.86111 0.847535 0
M  V30 12775 C 1184.2 -3.37061 -0.853515 0
M  V30 12776 H 1183.52 -3.99032 -0.247754 0
M  V30 12777 H 1184.96 -4.04046 -1.28541 0
M  V30 12778 C 1183.42 -2.72619 -1.97941 0
M  V30 12779 O 1183.95 -2.59024 -3.07033 0
M  V30 12780 N 1182.16 -2.30988 -1.76332 0
M  V30 12781 H 1181.71 -2.42246 -0.876063 0
M  V30 12782 H 1181.66 -1.88209 -2.51843 0
M  V30 12783 N 1185.44 -0.462799 -1.50652 0
M  V30 12784 C 1186.68 0.0948568 -2.01877 0
M  V30 12785 C 1187.01 1.4096 -1.34741 0
M  V30 12786 O 1186.28 1.89671 -0.49006 0
M  V30 12787 H 1184.86 0.0380453 -0.746031 0
M  V30 12788 H 1187.52 -0.611327 -1.85064 0
M  V30 12789 H 1186.61 0.252378 -3.11078 0
M  V30 12790 N 1186.91 1.56388 -0.195085 0
M  V30 12791 C 1188.15 1.99478 0.445855 0
M  V30 12792 C 1188.52 1.0792 1.588 0
M  V30 12793 O 1189.72 1.40246 2.29313 0
M  V30 12794 C 1187.99 3.46032 0.894248 0
M  V30 12795 S 1189.55 4.11149 1.53303 0
M  V30 12796 H 1186.37 0.696558 0.142575 0
M  V30 12797 H 1188.97 1.93213 -0.298149 0
M  V30 12798 H 1187.67 4.10366 0.0529258 0
M  V30 12799 H 1187.2 3.56114 1.67172 0
M  V30 12800 H 1189.22 4.08155 2.82177 0
M  V30 12801 N 1188.39 -0.0785156 1.57404 0
M  V30 12802 C 1189.8 -0.631132 1.75709 0
M  V30 12803 C 1190.15 -1.78261 0.819605 0
M  V30 12804 O 1189.28 -2.164 0.00206912 0
M  V30 12805 C 1189.87 -1.15168 3.18625 0
M  V30 12806 C 1188.43 -1.65021 3.38297 0
M  V30 12807 C 1187.58 -0.566773 2.71446 0
M  V30 12808 H 1190.53 0.147631 1.58012 0
M  V30 12809 H 1190.55 -2.02065 3.22413 0
M  V30 12810 H 1190.06 -0.313399 3.86833 0
M  V30 12811 H 1188.17 -2.51196 2.75194 0
M  V30 12812 H 1188.28 -1.73179 4.46706 0
M  V30 12813 H 1186.64 -1.01021 2.33809 0
M  V30 12814 H 1187.43 0.261204 3.42305 0
M  V30 12815 N 1189.87 -1.5367 -0.349747 0
M  V30 12816 C 1190.78 -1.84207 -1.45275 0
M  V30 12817 C 1191.8 -0.731695 -1.57868 0
M  V30 12818 O 1192.97 -1.02337 -1.73462 0
M  V30 12819 C 1190.04 -2.0398 -2.80345 0
M  V30 12820 C 1189.1 -3.27853 -2.77148 0
M  V30 12821 C 1188.33 -3.46673 -4.05775 0
M  V30 12822 O 1188.55 -2.69457 -5.02741 0
M  V30 12823 O 1187.49 -4.40082 -4.10623 0
M  V30 12824 H 1191.31 -2.77947 -1.22389 0
M  V30 12825 H 1188.9 -1.39247 -0.541345 0
M  V30 12826 H 1190.78 -2.18466 -3.60348 0
M  V30 12827 H 1189.46 -1.13429 -3.03176 0
M  V30 12828 H 1188.36 -3.18776 -1.95787 0
M  V30 12829 H 1189.7 -4.18377 -2.59271 0
M  V30 12830 N 1191.35 0.610423 -1.45298 0
M  V30 12831 C 1192.26 1.74964 -1.56285 0
M  V30 12832 C 1193.27 1.68149 -0.447436 0
M  V30 12833 O 1194.45 1.88556 -0.707725 0
M  V30 12834 C 1191.52 3.11417 -1.52383 0
M  V30 12835 C 1190.58 3.29707 -2.7494 0
M  V30 12836 C 1189.81 4.5965 -2.71215 0
M  V30 12837 O 1190.03 5.41789 -1.78383 0
M  V30 12838 O 1188.97 4.80591 -3.62375 0
M  V30 12839 H 1192.79 1.68646 -2.52571 0
M  V30 12840 H 1190.38 0.774168 -1.27777 0
M  V30 12841 H 1192.26 3.9272 -1.52805 0
M  V30 12842 H 1190.93 3.18232 -0.592472 0
M  V30 12843 H 1189.84 2.48003 -2.80081 0
M  V30 12844 H 1191.17 3.27766 -3.67192 0
M  V30 12845 N 1192.83 1.32541 0.852676 0
M  V30 12846 C 1193.74 1.23646 1.99371 0
M  V30 12847 C 1194.75 0.149673 1.73355 0
M  V30 12848 O 1195.93 0.370716 1.97959 0
M  V30 12849 C 1192.99 0.961873 3.3309 0
M  V30 12850 C 1192.05 2.1373 3.72315 0
M  V30 12851 C 1191.29 1.87572 4.99652 0
M  V30 12852 O 1191.51 0.819247 5.64486 0
M  V30 12853 O 1190.44 2.73732 5.36054 0
M  V30 12854 H 1194.27 2.19573 2.09813 0
M  V30 12855 H 1191.86 1.12451 0.983627 0
M  V30 12856 H 1193.74 0.825316 4.13239 0
M  V30 12857 H 1192.41 0.0327745 3.23683 0
M  V30 12858 H 1191.32 2.32933 2.92733 0
M  V30 12859 H 1192.65 3.04925 3.86369 0
M  V30 12860 N 1194.3 -1.0692 1.15784 0
M  V30 12861 C 1195.53 -1.83849 0.959903 0
M  V30 12862 C 1195.95 -1.8169 -0.486873 0
M  V30 12863 O 1195.31 -1.21305 -1.34739 0
M  V30 12864 C 1195.36 -3.28642 1.48414 0
M  V30 12865 O 1194.46 -4.0665 0.686249 0
M  V30 12866 H 1193.81 -0.569115 0.342059 0
M  V30 12867 H 1196.34 -1.34851 1.53871 0
M  V30 12868 H 1196.35 -3.7947 1.49888 0
M  V30 12869 H 1195.02 -3.29529 2.53739 0
M  V30 12870 H 1193.6 -3.65453 0.741501 0
M  V30 12871 N 1195.78 -0.955326 -1.25345 0
M  V30 12872 C 1196.73 -0.474888 -2.25862 0
M  V30 12873 C 1197.7 0.472996 -1.59223 0
M  V30 12874 O 1198.88 0.386094 -1.86853 0
M  V30 12875 C 1196.02 0.240554 -3.44261 0
M  V30 12876 C 1195.14 -0.74465 -4.25534 0
M  V30 12877 C 1194.27 -0.00657513 -5.312 0
M  V30 12878 C 1193.31 -0.982666 -6.04161 0
M  V30 12879 N 1192.45 -0.275418 -7.0156 0
M  V30 12880 H 1197.29 -1.33693 -2.66327 0
M  V30 12881 H 1194.83 -0.670439 -1.30933 0
M  V30 12882 H 1196.78 0.671933 -4.11753 0
M  V30 12883 H 1195.41 1.06664 -3.04668 0
M  V30 12884 H 1194.47 -1.29451 -3.57696 0
M  V30 12885 H 1195.78 -1.48948 -4.76042 0
M  V30 12886 H 1194.93 0.483404 -6.04771 0
M  V30 12887 H 1193.67 0.771035 -4.81567 0
M  V30 12888 H 1192.68 -1.48364 -5.29404 0
M  V30 12889 H 1193.9 -1.76052 -6.55883 0
M  V30 12890 H 1191.85 0.483441 -6.54216 0
M  V30 12891 H 1191.76 -0.959324 -7.49889 0
M  V30 12892 H 1193.03 0.193002 -7.79261 0
M  V30 12893 N 1197.26 1.39987 -0.723979 0
M  V30 12894 C 1198.17 2.3447 -0.0780936 0
M  V30 12895 C 1199.19 1.57744 0.734368 0
M  V30 12896 O 1200.36 1.90091 0.665385 0
M  V30 12897 C 1197.43 3.36705 0.826492 0
M  V30 12898 C 1196.49 4.293 0.00303036 0
M  V30 12899 C 1195.72 5.26651 0.864535 0
M  V30 12900 O 1195.95 5.30194 2.10357 0
M  V30 12901 O 1194.88 6.01157 0.299057 0
M  V30 12902 H 1198.71 2.91338 -0.857646 0
M  V30 12903 H 1196.29 1.41324 -0.484536 0
M  V30 12904 H 1198.17 3.9938 1.34439 0
M  V30 12905 H 1196.85 2.82237 1.58505 0
M  V30 12906 H 1195.75 3.69883 -0.560136 0
M  V30 12907 H 1197.09 4.86942 -0.717494 0
M  V30 12908 N 1198.74 0.470782 1.50404 0
M  V30 12909 C 1199.7 -0.312227 2.27063 0
M  V30 12910 C 1200.7 -0.920709 1.31832 0
M  V30 12911 O 1201.89 -0.789937 1.5526 0
M  V30 12912 C 1199.02 -1.44477 3.0877 0
M  V30 12913 H 1200.22 0.36006 2.97731 0
M  V30 12914 H 1197.77 0.224837 1.54674 0
M  V30 12915 H 1198.51 -2.15212 2.42599 0
M  V30 12916 H 1198.29 -1.01426 3.78755 0
M  V30 12917 H 1199.78 -1.99713 3.66749 0
M  V30 12918 N 1200.22 -1.56282 0.203376 0
M  V30 12919 C 1201.44 -2.02643 -0.441658 0
M  V30 12920 C 1201.87 -1.0825 -1.5383 0
M  V30 12921 O 1201.23 -0.0674337 -1.81175 0
M  V30 12922 C 1201.27 -3.47382 -0.967369 0
M  V30 12923 O 1200.38 -3.56115 -2.07981 0
M  V30 12924 H 1199.72 -0.656081 -0.102242 0
M  V30 12925 H 1202.25 -2.02134 0.316684 0
M  V30 12926 H 1202.26 -3.8734 -1.28186 0
M  V30 12927 H 1200.93 -4.15574 -0.164625 0
M  V30 12928 H 1199.51 -3.28035 -1.77334 0
M  V30 12929 N 1201.7 0.070167 -1.57444 0
M  V30 12930 C 1202.66 1.06761 -2.02817 0
M  V30 12931 C 1203.66 1.31498 -0.925462 0
M  V30 12932 O 1204.85 1.27192 -1.19029 0
M  V30 12933 C 1201.98 2.41086 -2.41019 0
M  V30 12934 H 1203.17 0.67651 -2.9217 0
M  V30 12935 H 1200.73 0.315936 -1.53074 0
M  V30 12936 H 1201.46 2.85025 -1.54697 0
M  V30 12937 H 1201.25 2.24472 -3.21488 0
M  V30 12938 H 1202.74 3.12778 -2.76694 0
M  V30 12939 N 1203.17 1.53854 0.341593 0
M  V30 12940 C 1204.1 1.84966 1.42513 0
M  V30 12941 C 1205.08 0.704944 1.54805 0
M  V30 12942 O 1206.27 0.957036 1.68981 0
M  V30 12943 C 1203.4 2.06099 2.79536 0
M  V30 12944 C 1202.35 3.21919 2.82049 0
M  V30 12945 C 1201.68 3.28389 4.21977 0
M  V30 12946 C 1202.98 4.59984 2.4741 0
M  V30 12947 H 1204.67 2.7571 1.16724 0
M  V30 12948 H 1202.22 1.32662 0.560073 0
M  V30 12949 H 1204.17 2.26448 3.55386 0
M  V30 12950 H 1202.9 1.12087 3.06764 0
M  V30 12951 H 1201.56 3.01429 2.08653 0
M  V30 12952 H 1201.2 2.3197 4.46317 0
M  V30 12953 H 1200.9 4.0622 4.24569 0
M  V30 12954 H 1202.43 3.50951 4.99666 0
M  V30 12955 H 1203.84 4.80334 3.12973 0
M  V30 12956 H 1202.24 5.40233 2.61282 0
M  V30 12957 H 1203.31 4.6346 1.42594 0
M  V30 12958 N 1204.65 -0.602709 1.4562 0
M  V30 12959 C 1205.9 -1.35889 1.49595 0
M  V30 12960 C 1206.22 -1.9449 0.141002 0
M  V30 12961 O 1205.49 -1.77438 -0.830209 0
M  V30 12962 H 1204.07 -0.504478 0.550918 0
M  V30 12963 H 1206.73 -0.707376 1.8161 0
M  V30 12964 H 1205.83 -2.17583 2.2375 0
M  V30 12965 N 1206.13 -1.32992 -0.845635 0
M  V30 12966 C 1207.38 -1.24249 -1.60281 0
M  V30 12967 C 1207.71 0.193049 -1.93238 0
M  V30 12968 O 1206.98 1.1326 -1.58122 0
M  V30 12969 C 1207.27 -2.1111 -2.91727 0
M  V30 12970 C 1207.12 -3.63088 -2.65494 0
M  V30 12971 C 1208.44 -1.97913 -3.93089 0
M  V30 12972 H 1205.56 -0.452698 -0.581578 0
M  V30 12973 H 1208.2 -1.63026 -0.975828 0
M  V30 12974 H 1206.35 -1.78169 -3.45236 0
M  V30 12975 H 1208.02 -4.06287 -2.18469 0
M  V30 12976 H 1206.26 -3.85304 -1.99306 0
M  V30 12977 H 1206.94 -4.19202 -3.59129 0
M  V30 12978 H 1209.41 -2.26788 -3.48864 0
M  V30 12979 H 1208.29 -2.60952 -4.82903 0
M  V30 12980 H 1208.55 -0.949378 -4.31786 0
M  V30 12981 N 1207.61 1.06304 -1.1635 0
M  V30 12982 C 1208.54 2.13732 -0.827721 0
M  V30 12983 C 1209.55 1.61962 0.164983 0
M  V30 12984 O 1210.74 1.784 -0.0597591 0
M  V30 12985 C 1207.84 3.38239 -0.211623 0
M  V30 12986 C 1207.01 4.19325 -1.2444 0
M  V30 12987 C 1206.07 5.22193 -0.648127 0
M  V30 12988 O 1205.1 5.53755 -1.31695 0
M  V30 12989 N 1206.3 5.77742 0.565179 0
M  V30 12990 H 1209.07 2.43136 -1.75228 0
M  V30 12991 H 1206.63 1.22304 -1.06081 0
M  V30 12992 H 1208.62 4.04204 0.200306 0
M  V30 12993 H 1207.19 3.06461 0.616491 0
M  V30 12994 H 1206.41 3.49017 -1.83251 0
M  V30 12995 H 1207.7 4.70306 -1.94138 0
M  V30 12996 H 1207.1 5.54366 1.12673 0
M  V30 12997 H 1205.65 6.45284 0.919321 0
M  V30 12998 N 1209.09 0.96196 1.24836 0
M  V30 12999 C 1210.03 0.479282 2.27609 0
M  V30 13000 C 1211.03 -0.454224 1.63197 0
M  V30 13001 O 1212.23 -0.330146 1.76946 0
M  V30 13002 H 1208.61 0.13651 0.739506 0
M  V30 13003 H 1210.58 1.35817 2.657 0
M  V30 13004 C 1209.33 -0.220499 3.47 0
M  V30 13005 H 1208.65 0.488694 3.96802 0
M  V30 13006 H 1210.09 -0.522137 4.20773 0
M  V30 13007 C 1208.55 -1.44552 3.04313 0
M  V30 13008 O 1209.08 -2.54287 3.10967 0
M  V30 13009 N 1207.29 -1.3095 2.59423 0
M  V30 13010 H 1206.83 -0.416656 2.54208 0
M  V30 13011 H 1206.79 -2.13029 2.31227 0
M  V30 13012 N 1210.56 -1.39601 0.731392 0
M  V30 13013 C 1211.81 -1.99821 0.274661 0
M  V30 13014 C 1212.13 -1.58693 -1.1435 0
M  V30 13015 O 1213.33 -2.11724 -1.69957 0
M  V30 13016 C 1211.79 -3.57199 0.440124 0
M  V30 13017 C 1211.4 -4.07292 1.86594 0
M  V30 13018 C 1213.14 -4.24476 0.0449851 0
M  V30 13019 C 1211.05 -5.57229 1.98115 0
M  V30 13020 H 1209.98 -0.747481 0.0989383 0
M  V30 13021 H 1212.63 -1.59645 0.904755 0
M  V30 13022 H 1211.01 -3.95153 -0.25881 0
M  V30 13023 H 1212.18 -3.80679 2.59654 0
M  V30 13024 H 1210.5 -3.52665 2.21397 0
M  V30 13025 H 1213.1 -5.34587 0.110126 0
M  V30 13026 H 1213.44 -4.04129 -0.999269 0
M  V30 13027 H 1213.97 -3.91683 0.694942 0
M  V30 13028 H 1210.71 -5.82452 3.00716 0
M  V30 13029 H 1210.23 -5.85656 1.29487 0
M  V30 13030 H 1211.91 -6.22584 1.76063 0
M  V30 13031 N 1212.04 -0.478751 -1.50152 0
M  V30 13032 C 1213.29 0.0734397 -2.01967 0
M  V30 13033 C 1213.61 1.39523 -1.36229 0
M  V30 13034 O 1212.88 1.89141 -0.510149 0
M  V30 13035 H 1211.46 0.0301305 -0.746392 0
M  V30 13036 H 1214.12 -0.630921 -1.84406 0
M  V30 13037 H 1213.22 0.21937 -3.11328 0
M  V30 13038 N 1213.52 1.56172 -0.211661 0
M  V30 13039 C 1214.77 1.97648 0.421871 0
M  V30 13040 C 1215.09 1.10026 1.60995 0
M  V30 13041 O 1214.36 0.175109 1.95116 0
M  V30 13042 H 1212.94 0.729914 0.158852 0
M  V30 13043 H 1215.6 1.92542 -0.302254 0
M  V30 13044 H 1214.7 3.02834 0.754868 0
M  V30 13045 N 1215 -0.0618163 1.57479 0
M  V30 13046 C 1216.25 -0.75794 1.86918 0
M  V30 13047 C 1216.56 -1.78234 0.80572 0
M  V30 13048 O 1217.77 -2.52874 0.98827 0
M  V30 13049 C 1216.22 -1.39898 3.31597 0
M  V30 13050 C 1215.83 -0.412621 4.46096 0
M  V30 13051 C 1217.57 -2.07688 3.70224 0
M  V30 13052 C 1215.48 -1.06014 5.8182 0
M  V30 13053 H 1214.41 -0.286825 0.697314 0
M  V30 13054 H 1217.06 -0.0114386 1.83496 0
M  V30 13055 H 1215.44 -2.19408 3.29661 0
M  V30 13056 H 1216.62 0.353392 4.59443 0
M  V30 13057 H 1214.93 0.161383 4.16087 0
M  V30 13058 H 1217.53 -2.56928 4.68927 0
M  V30 13059 H 1217.87 -2.88073 3.00532 0
M  V30 13060 H 1218.41 -1.34996 3.74194 0
M  V30 13061 H 1215.15 -0.296405 6.5483 0
M  V30 13062 H 1214.67 -1.79677 5.72255 0
M  V30 13063 H 1216.34 -1.57708 6.27485 0
M  V30 13064 N 1216.48 -1.54033 -0.333429 0
M  V30 13065 C 1217.72 -1.71765 -1.07252 0
M  V30 13066 C 1218.05 -0.486135 -1.88327 0
M  V30 13067 O 1217.31 0.532135 -1.88326 0
M  V30 13068 C 1217.61 -2.93926 -2.03328 0
M  V30 13069 C 1217.27 -4.29107 -1.38486 0
M  V30 13070 C 1215.93 -4.6586 -1.20532 0
M  V30 13071 C 1218.29 -5.13041 -0.918624 0
M  V30 13072 C 1215.61 -5.84155 -0.545881 0
M  V30 13073 C 1217.97 -6.3201 -0.273055 0
M  V30 13074 C 1216.63 -6.67451 -0.0812815 0
M  V30 13075 H 1215.9 -0.628532 -0.392464 0
M  V30 13076 H 1218.55 -1.88261 -0.350709 0
M  V30 13077 H 1216.85 -2.72075 -2.81926 0
M  V30 13078 H 1218.55 -3.0484 -2.60526 0
M  V30 13079 H 1215.14 -4.00185 -1.5346 0
M  V30 13080 H 1219.32 -4.8517 -1.04515 0
M  V30 13081 H 1214.58 -6.1018 -0.386009 0
M  V30 13082 H 1218.75 -6.96333 0.0962582 0
M  V30 13083 H 1216.38 -7.58973 0.431734 0
M  V30 13084 N 1217.95 0.594978 -1.45938 0
M  V30 13085 C 1219.2 1.34976 -1.49881 0
M  V30 13086 C 1219.52 1.95025 -0.14983 0
M  V30 13087 O 1220.72 2.71417 -0.0669868 0
M  V30 13088 C 1219.18 2.44563 -2.6404 0
M  V30 13089 C 1218.79 1.9087 -4.05306 0
M  V30 13090 C 1220.53 3.21461 -2.77242 0
M  V30 13091 C 1218.44 2.98013 -5.10825 0
M  V30 13092 H 1217.37 0.507366 -0.55776 0
M  V30 13093 H 1220.02 0.636316 -1.72114 0
M  V30 13094 H 1218.4 3.1865 -2.35114 0
M  V30 13095 H 1219.57 1.23408 -4.43968 0
M  V30 13096 H 1217.89 1.26678 -3.96663 0
M  V30 13097 H 1220.49 4.01399 -3.53246 0
M  V30 13098 H 1220.83 3.73271 -1.84321 0
M  V30 13099 H 1221.36 2.54477 -3.05756 0
M  V30 13100 H 1218.1 2.51104 -6.05497 0
M  V30 13101 H 1217.62 3.64003 -4.7672 0
M  V30 13102 H 1219.3 3.62178 -5.36131 0
M  V30 13103 N 1219.43 1.33438 0.838571 0
M  V30 13104 C 1220.68 1.25097 1.5962 0
M  V30 13105 C 1221.01 -0.182798 1.93338 0
M  V30 13106 O 1220.29 -1.1242 1.5872 0
M  V30 13107 C 1220.57 2.12655 2.90603 0
M  V30 13108 C 1220.42 3.64491 2.63565 0
M  V30 13109 C 1221.74 1.99994 3.92033 0
M  V30 13110 H 1218.86 0.455776 0.579169 0
M  V30 13111 H 1221.5 1.63542 0.967169 0
M  V30 13112 H 1219.65 1.79998 3.44286 0
M  V30 13113 H 1221.32 4.0744 2.16312 0
M  V30 13114 H 1219.57 3.86356 1.9726 0
M  V30 13115 H 1220.24 4.21101 3.569 0
M  V30 13116 H 1222.71 2.28635 3.47657 0
M  V30 13117 H 1221.59 2.63509 4.81512 0
M  V30 13118 H 1221.85 0.972263 4.31277 0
M  V30 13119 N 1220.91 -1.05686 1.16912 0
M  V30 13120 C 1221.84 -2.15268 0.904532 0
M  V30 13121 C 1222.82 -1.69424 -0.151548 0
M  V30 13122 O 1224.01 -1.942 -0.00235371 0
M  V30 13123 C 1221.14 -3.44853 0.411581 0
M  V30 13124 C 1220.09 -4.04237 1.40628 0
M  V30 13125 C 1219.42 -5.29105 0.771479 0
M  V30 13126 C 1220.72 -4.42303 2.77787 0
M  V30 13127 H 1222.41 -2.37659 1.82094 0
M  V30 13128 H 1219.96 -1.14217 0.876947 0
M  V30 13129 H 1221.91 -4.20857 0.213929 0
M  V30 13130 H 1220.63 -3.22099 -0.540352 0
M  V30 13131 H 1219.29 -3.30297 1.59058 0
M  V30 13132 H 1218.94 -5.02652 -0.187133 0
M  V30 13133 H 1218.64 -5.69797 1.43545 0
M  V30 13134 H 1220.16 -6.07801 0.583988 0
M  V30 13135 H 1221.58 -5.09362 2.63103 0
M  V30 13136 H 1219.98 -4.93997 3.40716 0
M  V30 13137 H 1221.05 -3.52877 3.32575 0
M  V30 13138 N 1222.39 -0.968567 -1.24324 0
M  V30 13139 C 1223.35 -0.504307 -2.23583 0
M  V30 13140 C 1224.35 0.399626 -1.55755 0
M  V30 13141 O 1225.54 0.194966 -1.73106 0
M  V30 13142 C 1222.67 0.26956 -3.39833 0
M  V30 13143 H 1223.87 -1.3818 -2.6617 0
M  V30 13144 H 1221.42 -0.753241 -1.36952 0
M  V30 13145 H 1222.15 1.16411 -3.02686 0
M  V30 13146 H 1221.94 -0.379133 -3.90263 0
M  V30 13147 H 1223.43 0.583376 -4.13505 0
M  V30 13148 N 1223.87 1.39211 -0.738786 0
M  V30 13149 C 1224.83 2.28937 -0.109746 0
M  V30 13150 C 1225.83 1.46488 0.663157 0
M  V30 13151 O 1227.02 1.67119 0.491614 0
M  V30 13152 C 1224.15 3.30039 0.853633 0
M  V30 13153 H 1225.34 2.86068 -0.900295 0
M  V30 13154 H 1222.9 1.47922 -0.504853 0
M  V30 13155 H 1223.63 2.77971 1.6704 0
M  V30 13156 H 1223.42 3.90935 0.302007 0
M  V30 13157 H 1224.91 3.97169 1.29022 0
M  V30 13158 N 1225.34 0.486708 1.49896 0
M  V30 13159 C 1226.59 -0.0627279 2.02003 0
M  V30 13160 C 1226.91 -1.38799 1.36967 0
M  V30 13161 O 1226.18 -1.88868 0.520173 0
M  V30 13162 H 1224.76 -0.0261718 0.746541 0
M  V30 13163 H 1227.43 0.640692 1.84068 0
M  V30 13164 H 1226.52 -0.202856 3.1144 0
M  V30 13165 N 1226.82 -1.56058 0.219941 0
M  V30 13166 C 1227.75 -2.2321 -0.685547 0
M  V30 13167 C 1228.73 -1.20328 -1.20229 0
M  V30 13168 O 1229.92 -1.48909 -1.24659 0
M  V30 13169 C 1227.05 -2.91076 -1.89452 0
M  V30 13170 C 1226 -4.00415 -1.51169 0
M  V30 13171 C 1225.33 -4.55569 -2.79931 0
M  V30 13172 C 1226.63 -5.17549 -0.702896 0
M  V30 13173 H 1228.32 -2.99136 -0.125671 0
M  V30 13174 H 1225.87 -1.43879 -0.0590043 0
M  V30 13175 H 1227.82 -3.36744 -2.53341 0
M  V30 13176 H 1226.55 -2.12594 -2.47934 0
M  V30 13177 H 1225.21 -3.55475 -0.896275 0
M  V30 13178 H 1224.85 -3.73819 -3.36553 0
M  V30 13179 H 1224.55 -5.29361 -2.55049 0
M  V30 13180 H 1226.08 -5.03955 -3.44764 0
M  V30 13181 H 1227.49 -5.59608 -1.24544 0
M  V30 13182 H 1225.89 -5.97563 -0.551234 0
M  V30 13183 H 1226.96 -4.84027 0.29083 0
M  V30 13184 N 1228.3 0.053464 -1.57509 0
M  V30 13185 C 1229.55 0.750212 -1.88414 0
M  V30 13186 C 1229.88 1.76288 -0.814619 0
M  V30 13187 O 1229.16 1.93728 0.173136 0
M  V30 13188 C 1229.44 1.44176 -3.29978 0
M  V30 13189 C 1229.29 0.444263 -4.47601 0
M  V30 13190 C 1230.61 2.38207 -3.70061 0
M  V30 13191 H 1227.73 0.271266 -0.685262 0
M  V30 13192 H 1230.37 0.0131676 -1.89995 0
M  V30 13193 H 1228.52 2.07001 -3.2876 0
M  V30 13194 H 1230.19 -0.180182 -4.60948 0
M  V30 13195 H 1228.44 -0.238771 -4.33142 0
M  V30 13196 H 1229.11 0.966134 -5.43479 0
M  V30 13197 H 1231.58 1.85446 -3.7249 0
M  V30 13198 H 1230.46 2.83588 -4.69967 0
M  V30 13199 H 1230.72 3.23821 -3.00985 0
M  V30 13200 N 1229.78 1.54207 0.325255 0
M  V30 13201 C 1230.71 1.86467 1.40543 0
M  V30 13202 C 1231.69 0.721324 1.54048 0
M  V30 13203 O 1232.88 0.974905 1.67956 0
M  V30 13204 C 1230.01 2.09052 2.77335 0
M  V30 13205 C 1228.96 3.24893 2.78619 0
M  V30 13206 C 1228.29 3.32846 4.1847 0
M  V30 13207 C 1229.59 4.62582 2.42518 0
M  V30 13208 H 1231.28 2.76932 1.13794 0
M  V30 13209 H 1228.83 1.33248 0.545971 0
M  V30 13210 H 1230.78 2.30204 3.52964 0
M  V30 13211 H 1229.5 1.15335 3.05558 0
M  V30 13212 H 1228.16 3.03625 2.05444 0
M  V30 13213 H 1227.81 2.3669 4.43832 0
M  V30 13214 H 1227.51 4.10701 4.20237 0
M  V30 13215 H 1229.03 3.56231 4.95915 0
M  V30 13216 H 1230.45 4.83627 3.07861 0
M  V30 13217 H 1228.84 5.42974 2.55538 0
M  V30 13218 H 1229.91 4.64946 1.3767 0
M  V30 13219 N 1231.26 -0.58723 1.46251 0
M  V30 13220 C 1232.48 -1.37661 1.55126 0
M  V30 13221 C 1232.91 -1.87123 0.191489 0
M  V30 13222 O 1232.27 -1.6131 -0.827576 0
M  V30 13223 C 1232.31 -2.54324 2.5564 0
M  V30 13224 O 1231.42 -3.55617 2.0883 0
M  V30 13225 H 1230.76 -0.410154 0.522178 0
M  V30 13226 H 1233.29 -0.712738 1.91784 0
M  V30 13227 H 1233.3 -3.01301 2.75103 0
M  V30 13228 H 1231.97 -2.17675 3.54387 0
M  V30 13229 H 1230.55 -3.15151 1.99335 0
M  V30 13230 N 1232.74 -1.33881 -0.831482 0
M  V30 13231 C 1233.98 -1.25942 -1.58955 0
M  V30 13232 C 1234.31 0.172542 -1.93432 0
M  V30 13233 O 1233.59 1.11577 -1.59314 0
M  V30 13234 C 1233.87 -2.14193 -2.89471 0
M  V30 13235 C 1233.73 -3.65883 -2.61628 0
M  V30 13236 C 1235.04 -2.02071 -3.90967 0
M  V30 13237 H 1232.16 -0.458841 -0.576744 0
M  V30 13238 H 1234.81 -1.64052 -0.958482 0
M  V30 13239 H 1232.96 -1.81821 -3.43327 0
M  V30 13240 H 1234.63 -4.08581 -2.14148 0
M  V30 13241 H 1232.87 -3.87397 -1.95208 0
M  V30 13242 H 1233.54 -4.22988 -3.54662 0
M  V30 13243 H 1236.02 -2.30476 -3.46439 0
M  V30 13244 H 1234.89 -2.66059 -4.80108 0
M  V30 13245 H 1235.15 -0.995121 -4.30755 0
M  V30 13246 N 1234.21 1.05064 -1.1747 0
M  V30 13247 C 1235.46 1.78089 -0.963883 0
M  V30 13248 C 1235.79 1.87766 0.507365 0
M  V30 13249 O 1235.04 1.37477 1.39279 0
M  V30 13250 C 1235.34 3.21961 -1.55164 0
M  V30 13251 C 1235.01 3.32339 -3.04732 0
M  V30 13252 C 1233.67 3.34878 -3.45557 0
M  V30 13253 C 1236.02 3.3325 -4.00741 0
M  V30 13254 C 1233.35 3.35959 -4.80987 0
M  V30 13255 C 1235.7 3.3587 -5.36073 0
M  V30 13256 C 1234.37 3.36697 -5.7636 0
M  V30 13257 H 1233.64 0.651672 -0.35271 0
M  V30 13258 H 1236.28 1.23471 -1.4638 0
M  V30 13259 H 1234.59 3.79514 -0.973471 0
M  V30 13260 H 1236.29 3.77087 -1.36406 0
M  V30 13261 H 1232.88 3.31076 -2.72188 0
M  V30 13262 H 1237.06 3.30488 -3.70258 0
M  V30 13263 H 1232.32 3.34911 -5.11512 0
M  V30 13264 H 1236.49 3.35524 -6.10243 0
M  V30 13265 H 1234.12 3.37288 -6.81279 0
M  V30 13266 N 1235.69 0.975146 1.23809 0
M  V30 13267 C 1236.94 0.642074 1.92367 0
M  V30 13268 C 1237.27 -0.82164 1.75962 0
M  V30 13269 O 1236.55 -1.59205 1.11732 0
M  V30 13270 C 1236.83 1.02677 3.45151 0
M  V30 13271 C 1236.68 2.54773 3.7069 0
M  V30 13272 C 1238 0.5668 4.36435 0
M  V30 13273 H 1235.12 0.234735 0.698619 0
M  V30 13274 H 1237.76 1.21549 1.46034 0
M  V30 13275 H 1235.91 0.538846 3.84745 0
M  V30 13276 H 1237.58 3.11099 3.4061 0
M  V30 13277 H 1235.83 2.97641 3.15583 0
M  V30 13278 H 1236.5 2.7674 4.77618 0
M  V30 13279 H 1238.97 0.985635 4.04258 0
M  V30 13280 H 1237.85 0.864458 5.4205 0
M  V30 13281 H 1238.11 -0.532989 4.38875 0
M  V30 13282 N 1237.17 -1.38817 0.746158 0
M  V30 13283 C 1238.13 -2.28876 0.121886 0
M  V30 13284 C 1239.13 -1.46838 -0.655379 0
M  V30 13285 O 1240.32 -1.67377 -0.482744 0
M  V30 13286 C 1237.45 -3.30487 -0.836118 0
M  V30 13287 H 1238.65 -2.85586 0.915453 0
M  V30 13288 H 1236.2 -1.47652 0.512691 0
M  V30 13289 H 1236.94 -2.78853 -1.65563 0
M  V30 13290 H 1236.72 -3.9109 -0.281271 0
M  V30 13291 H 1238.21 -3.97848 -1.26914 0
M  V30 13292 N 1238.65 -0.49465 -1.49636 0
M  V30 13293 C 1239.89 0.0521945 -2.02733 0
M  V30 13294 C 1240.23 1.3723 -1.37411 0
M  V30 13295 O 1239.5 1.87758 -0.507642 0
M  V30 13296 C 1239.78 0.2114 -3.59479 0
M  V30 13297 C 1239.64 -1.13138 -4.35339 0
M  V30 13298 C 1240.96 0.955015 -4.29613 0
M  V30 13299 H 1238.08 0.0174946 -0.736792 0
M  V30 13300 H 1240.72 -0.644827 -1.78723 0
M  V30 13301 H 1238.87 0.805078 -3.80067 0
M  V30 13302 H 1240.54 -1.76345 -4.26263 0
M  V30 13303 H 1238.78 -1.72224 -3.98147 0
M  V30 13304 H 1239.45 -0.97336 -5.4335 0
M  V30 13305 H 1241.93 0.451575 -4.13642 0
M  V30 13306 H 1240.81 1.03524 -5.39049 0
M  V30 13307 H 1241.07 1.99724 -3.94414 0
M  V30 13308 N 1240.13 1.55939 -0.228214 0
M  V30 13309 C 1241.37 1.98084 0.400884 0
M  V30 13310 C 1241.69 1.11727 1.59819 0
M  V30 13311 O 1240.96 0.195794 1.94919 0
M  V30 13312 H 1239.54 0.731558 0.151102 0
M  V30 13313 H 1242.21 1.92211 -0.322659 0
M  V30 13314 H 1241.3 3.03617 0.722706 0
M  V30 13315 N 1241.6 -0.0451101 1.57535 0
M  V30 13316 C 1242.51 -1.06796 2.08882 0
M  V30 13317 C 1243.53 -1.40682 1.02394 0
M  V30 13318 O 1244.71 -1.50324 1.34033 0
M  V30 13319 C 1241.77 -2.35467 2.54472 0
M  V30 13320 C 1240.83 -2.0831 3.75374 0
M  V30 13321 C 1240.07 -3.30846 4.1878 0
M  V30 13322 O 1240.29 -4.40945 3.61834 0
M  V30 13323 O 1239.22 -3.17488 5.11356 0
M  V30 13324 H 1243.05 -0.661658 2.96405 0
M  V30 13325 H 1240.63 -0.26104 1.47102 0
M  V30 13326 H 1242.52 -3.11143 2.84198 0
M  V30 13327 H 1241.19 -2.75425 1.70068 0
M  V30 13328 H 1240.1 -1.30254 3.50692 0
M  V30 13329 H 1241.43 -1.73218 4.60713 0
M  V30 13330 N 1243.08 -1.54377 -0.317073 0
M  V30 13331 C 1244.33 -1.72893 -1.05424 0
M  V30 13332 C 1244.66 -0.506082 -1.87801 0
M  V30 13333 O 1243.91 0.51213 -1.8888 0
M  V30 13334 C 1244.21 -2.96066 -2.00199 0
M  V30 13335 C 1243.88 -4.30551 -1.33927 0
M  V30 13336 C 1242.54 -4.67112 -1.15584 0
M  V30 13337 C 1244.89 -5.13986 -0.864158 0
M  V30 13338 C 1242.22 -5.84701 -0.483892 0
M  V30 13339 C 1244.57 -6.32264 -0.206006 0
M  V30 13340 C 1243.24 -6.67499 -0.0104849 0
M  V30 13341 H 1242.51 -0.63266 -0.385776 0
M  V30 13342 H 1245.15 -1.88623 -0.330722 0
M  V30 13343 H 1243.46 -2.7505 -2.79024 0
M  V30 13344 H 1245.15 -3.07586 -2.57278 0
M  V30 13345 H 1241.74 -4.0179 -1.49207 0
M  V30 13346 H 1245.93 -4.86252 -0.993635 0
M  V30 13347 H 1241.18 -6.10555 -0.32127 0
M  V30 13348 H 1245.36 -6.96192 0.170108 0
M  V30 13349 H 1242.99 -7.58472 0.512209 0
M  V30 13350 N 1244.56 0.579466 -1.4656 0
M  V30 13351 C 1245.49 1.69846 -1.60233 0
M  V30 13352 C 1246.47 1.6397 -0.452533 0
M  V30 13353 O 1247.66 1.81936 -0.679174 0
M  V30 13354 C 1244.79 3.08488 -1.59538 0
M  V30 13355 C 1243.74 3.29197 -2.7352 0
M  V30 13356 C 1243.07 4.684 -2.57887 0
M  V30 13357 C 1244.37 3.16718 -4.15315 0
M  V30 13358 H 1246.06 1.5866 -2.53904 0
M  V30 13359 H 1243.61 0.761873 -1.22194 0
M  V30 13360 H 1245.56 3.86595 -1.67696 0
M  V30 13361 H 1244.28 3.20581 -0.62413 0
M  V30 13362 H 1242.94 2.53491 -2.64836 0
M  V30 13363 H 1242.59 4.77262 -1.58839 0
M  V30 13364 H 1242.29 4.83208 -3.34341 0
M  V30 13365 H 1243.81 5.48671 -2.67942 0
M  V30 13366 H 1245.23 3.84666 -4.25094 0
M  V30 13367 H 1243.63 3.43047 -4.92381 0
M  V30 13368 H 1244.7 2.13755 -4.35244 0
M  V30 13369 N 1246.04 1.3432 0.824371 0
M  V30 13370 C 1247.27 1.29481 1.60992 0
M  V30 13371 C 1247.68 -0.133581 1.88728 0
M  V30 13372 O 1247.02 -1.09065 1.4782 0
M  V30 13373 C 1247.08 2.01604 2.97651 0
M  V30 13374 C 1246.75 3.50866 2.92817 0
M  V30 13375 C 1247.74 4.458 2.67504 0
M  V30 13376 C 1245.43 3.93258 3.12495 0
M  V30 13377 C 1247.42 5.81101 2.61918 0
M  V30 13378 C 1245.11 5.28659 3.06533 0
M  V30 13379 C 1246.11 6.22392 2.81278 0
M  V30 13380 O 1245.79 7.55311 2.75246 0
M  V30 13381 H 1245.53 0.446931 0.507177 0
M  V30 13382 H 1248.08 1.77484 1.03386 0
M  V30 13383 H 1246.31 1.48212 3.5717 0
M  V30 13384 H 1248 1.90073 3.58646 0
M  V30 13385 H 1248.77 4.1437 2.52037 0
M  V30 13386 H 1244.64 3.20699 3.31169 0
M  V30 13387 H 1248.19 6.54233 2.42125 0
M  V30 13388 H 1244.09 5.59709 3.21553 0
M  V30 13389 H 1244.85 7.6503 2.90984 0
M  V30 13390 N 1247.52 -1.0444 1.18026 0
M  V30 13391 C 1248.46 -2.12365 0.903865 0
M  V30 13392 C 1249.43 -1.65373 -0.155252 0
M  V30 13393 O 1250.62 -1.90793 -0.016419 0
M  V30 13394 C 1247.76 -3.4239 0.431603 0
M  V30 13395 C 1246.87 -4.03016 1.55571 0
M  V30 13396 C 1246.01 -5.20988 1.03655 0
M  V30 13397 C 1245.05 -5.73636 2.1356 0
M  V30 13398 N 1244.18 -6.82901 1.63066 0
M  V30 13399 H 1249.02 -2.35346 1.82802 0
M  V30 13400 H 1246.56 -1.15447 0.911618 0
M  V30 13401 H 1248.52 -4.16967 0.139296 0
M  V30 13402 H 1247.15 -3.19569 -0.455576 0
M  V30 13403 H 1246.2 -3.25803 1.96358 0
M  V30 13404 H 1247.51 -4.38122 2.38434 0
M  V30 13405 H 1246.67 -6.02665 0.698546 0
M  V30 13406 H 1245.4 -4.87377 0.177457 0
M  V30 13407 H 1244.41 -4.90583 2.4821 0
M  V30 13408 H 1245.63 -6.09293 2.99899 0
M  V30 13409 H 1243.58 -6.51172 0.794394 0
M  V30 13410 H 1243.5 -7.1705 2.3953 0
M  V30 13411 H 1244.77 -7.68211 1.32181 0
M  V30 13412 N 1248.99 -0.981699 -1.2329 0
M  V30 13413 C 1250.22 -0.669025 -1.96313 0
M  V30 13414 C 1250.64 0.757624 -1.72168 0
M  V30 13415 O 1250 1.51626 -0.993942 0
M  V30 13416 C 1250.05 -0.966875 -3.47396 0
M  V30 13417 O 1249.15 -0.0595933 -4.12357 0
M  V30 13418 H 1248.5 -0.251493 -0.61453 0
M  V30 13419 H 1251.03 -1.31564 -1.56691 0
M  V30 13420 H 1251.04 -0.904112 -3.97857 0
M  V30 13421 H 1249.71 -2.00651 -3.64296 0
M  V30 13422 H 1248.29 -0.176878 -3.7248 0
M  V30 13423 N 1250.47 1.3842 -0.753509 0
M  V30 13424 C 1251.42 2.30457 -0.12574 0
M  V30 13425 C 1252.39 1.50173 0.709728 0
M  V30 13426 O 1253.57 1.78804 0.665872 0
M  V30 13427 C 1250.71 3.36593 0.761503 0
M  V30 13428 C 1249.83 4.31909 -0.0885848 0
M  V30 13429 C 1248.96 5.25116 0.801655 0
M  V30 13430 C 1248 6.12078 -0.0520719 0
M  V30 13431 N 1247.14 6.97583 0.795124 0
M  V30 13432 H 1251.98 2.83567 -0.916187 0
M  V30 13433 H 1249.52 1.39609 -0.463436 0
M  V30 13434 H 1251.47 3.96738 1.29054 0
M  V30 13435 H 1250.1 2.84894 1.51774 0
M  V30 13436 H 1249.16 3.73227 -0.735249 0
M  V30 13437 H 1250.47 4.93161 -0.747899 0
M  V30 13438 H 1249.62 5.90377 1.39786 0
M  V30 13439 H 1248.36 4.6423 1.4947 0
M  V30 13440 H 1247.37 5.45813 -0.660946 0
M  V30 13441 H 1248.59 6.75032 -0.742178 0
M  V30 13442 H 1246.54 6.39246 1.47312 0
M  V30 13443 H 1246.45 7.55754 0.192705 0
M  V30 13444 H 1247.72 7.67254 1.3763 0
M  V30 13445 N 1251.95 0.502579 1.49372 0
M  V30 13446 C 1252.9 -0.275004 2.29156 0
M  V30 13447 C 1253.87 -0.95892 1.35624 0
M  V30 13448 O 1255.05 -0.965276 1.64581 0
M  V30 13449 C 1252.19 -1.33255 3.18335 0
M  V30 13450 C 1251.31 -0.660248 4.26925 0
M  V30 13451 C 1250.44 -1.69837 5.03318 0
M  V30 13452 C 1249.48 -1.00802 6.03743 0
M  V30 13453 N 1248.62 -1.99042 6.73295 0
M  V30 13454 H 1253.46 0.411599 2.95144 0
M  V30 13455 H 1250.99 0.214824 1.45523 0
M  V30 13456 H 1252.95 -1.95769 3.68416 0
M  V30 13457 H 1251.58 -1.98789 2.54328 0
M  V30 13458 H 1250.63 0.0782181 3.8032 0
M  V30 13459 H 1251.95 -0.11689 4.98663 0
M  V30 13460 H 1251.1 -2.39852 5.57275 0
M  V30 13461 H 1249.84 -2.27558 4.31357 0
M  V30 13462 H 1248.84 -0.293654 5.49015 0
M  V30 13463 H 1250.07 -0.437285 6.77691 0
M  V30 13464 H 1248.01 -2.55722 6.04104 0
M  V30 13465 H 1247.93 -1.49776 7.41015 0
M  V30 13466 H 1249.2 -2.6834 7.31856 0
M  V30 13467 N 1253.43 -1.55816 0.23648 0
M  V30 13468 C 1254.38 -2.22322 -0.68378 0
M  V30 13469 C 1255.37 -1.2074 -1.1882 0
M  V30 13470 O 1256.58 -1.38781 -1.14629 0
M  V30 13471 H 1252.95 -0.713021 -0.238966 0
M  V30 13472 H 1254.92 -2.98234 -0.0995879 0
M  V30 13473 C 1253.67 -2.92845 -1.87449 0
M  V30 13474 H 1252.99 -3.70777 -1.49548 0
M  V30 13475 H 1254.43 -3.42758 -2.49585 0
M  V30 13476 C 1252.89 -1.96139 -2.73918 0
M  V30 13477 O 1253.42 -1.48781 -3.73132 0
M  V30 13478 N 1251.63 -1.63465 -2.40266 0
M  V30 13479 H 1251.18 -2.02171 -1.59639 0
M  V30 13480 H 1251.13 -0.990239 -2.98398 0
M  V30 13481 N 1254.91 0.036755 -1.57557 0
M  V30 13482 C 1255.87 1.02435 -2.05036 0
M  V30 13483 C 1256.87 1.29506 -0.953146 0
M  V30 13484 O 1258.06 1.24638 -1.217 0
M  V30 13485 C 1255.19 2.3592 -2.46079 0
M  V30 13486 H 1256.38 0.614384 -2.93539 0
M  V30 13487 H 1253.94 0.283396 -1.53709 0
M  V30 13488 H 1254.67 2.8168 -1.60708 0
M  V30 13489 H 1254.46 2.17603 -3.26177 0
M  V30 13490 H 1255.95 3.06839 -2.83266 0
M  V30 13491 N 1256.39 1.54543 0.308881 0
M  V30 13492 C 1257.32 1.81309 1.40212 0
M  V30 13493 C 1258.33 0.69568 1.47187 0
M  V30 13494 O 1259.52 0.973034 1.49647 0
M  V30 13495 C 1256.62 1.92901 2.78644 0
M  V30 13496 C 1255.79 3.23222 2.94697 0
M  V30 13497 C 1254.85 3.25329 4.13579 0
M  V30 13498 O 1253.88 3.989 4.06039 0
M  V30 13499 N 1255.08 2.50158 5.23833 0
M  V30 13500 H 1257.84 2.75659 1.1761 0
M  V30 13501 H 1255.41 1.54021 0.498925 0
M  V30 13502 H 1257.4 1.91721 3.56406 0
M  V30 13503 H 1255.97 1.05582 2.9423 0
M  V30 13504 H 1255.19 3.37241 2.04113 0
M  V30 13505 H 1256.48 4.09238 3.02328 0
M  V30 13506 H 1255.87 1.90002 5.32838 0
M  V30 13507 H 1254.43 2.5474 5.99959 0
M  V30 13508 N 1257.86 -0.571685 1.46866 0
M  V30 13509 C 1258.79 -1.68994 1.61131 0
M  V30 13510 C 1259.77 -1.63728 0.461222 0
M  V30 13511 O 1260.96 -1.81574 0.688813 0
M  V30 13512 C 1258.09 -3.07638 1.61172 0
M  V30 13513 C 1257.04 -3.27742 2.75262 0
M  V30 13514 C 1256.37 -4.67025 2.60368 0
M  V30 13515 C 1257.67 -3.14511 4.16989 0
M  V30 13516 H 1259.36 -1.57311 2.54742 0
M  V30 13517 H 1256.91 -0.755382 1.22597 0
M  V30 13518 H 1258.86 -3.857 1.69744 0
M  V30 13519 H 1257.59 -3.20245 0.641122 0
M  V30 13520 H 1256.25 -2.52083 2.66176 0
M  V30 13521 H 1255.89 -4.76413 1.61368 0
M  V30 13522 H 1255.59 -4.81428 3.36899 0
M  V30 13523 H 1257.12 -5.47242 2.70848 0
M  V30 13524 H 1258.53 -3.82407 4.27128 0
M  V30 13525 H 1256.93 -3.40431 4.94193 0
M  V30 13526 H 1258 -2.11443 4.36371 0
M  V30 13527 N 1259.34 -1.34755 -0.817236 0
M  V30 13528 C 1260.25 -1.28888 -1.96023 0
M  V30 13529 C 1261.27 -0.195582 -1.72897 0
M  V30 13530 O 1262.44 -0.423071 -1.96906 0
M  V30 13531 C 1259.51 -1.04985 -3.30423 0
M  V30 13532 C 1258.57 -2.23526 -3.66517 0
M  V30 13533 C 1257.8 -2.00753 -4.94504 0
M  V30 13534 O 1258.03 -0.968622 -5.62116 0
M  V30 13535 O 1256.96 -2.87848 -5.28608 0
M  V30 13536 H 1260.79 -2.25059 -2.03917 0
M  V30 13537 H 1258.37 -1.15019 -0.953467 0
M  V30 13538 H 1260.25 -0.934589 -4.10906 0
M  V30 13539 H 1258.93 -0.118582 -3.23483 0
M  V30 13540 H 1257.83 -2.40613 -2.86455 0
M  V30 13541 H 1259.17 -3.15062 -3.78149 0
M  V30 13542 N 1260.82 1.03812 -1.18578 0
M  V30 13543 C 1261.77 2.11883 -0.915115 0
M  V30 13544 C 1262.74 1.65453 0.146479 0
M  V30 13545 O 1263.92 1.90799 0.00630058 0
M  V30 13546 C 1261.06 3.42157 -0.449755 0
M  V30 13547 C 1260.17 4.02185 -1.57706 0
M  V30 13548 C 1259.31 5.20431 -1.06417 0
M  V30 13549 C 1258.35 5.72496 -2.16599 0
M  V30 13550 N 1257.49 6.82027 -1.66685 0
M  V30 13551 H 1262.33 2.34373 -1.84047 0
M  V30 13552 H 1259.86 1.14962 -0.917728 0
M  V30 13553 H 1261.82 4.16888 -0.161407 0
M  V30 13554 H 1260.45 3.19806 0.438622 0
M  V30 13555 H 1259.5 3.24757 -1.98083 0
M  V30 13556 H 1260.81 4.36851 -2.40754 0
M  V30 13557 H 1259.97 6.02286 -0.730497 0
M  V30 13558 H 1258.71 4.87276 -0.203301 0
M  V30 13559 H 1257.71 4.8926 -2.50808 0
M  V30 13560 H 1258.94 6.07694 -3.03126 0
M  V30 13561 H 1256.88 6.50742 -0.828916 0
M  V30 13562 H 1256.8 7.1577 -2.43329 0
M  V30 13563 H 1258.07 7.67499 -1.36253 0
M  V30 13564 N 1262.3 0.988223 1.22768 0
M  V30 13565 C 1263.71 0.69816 1.4352 0
M  V30 13566 C 1263.91 -0.732872 1.877 0
M  V30 13567 O 1262.97 -1.50436 2.02793 0
M  V30 13568 C 1264.28 1.69975 2.4805 0
M  V30 13569 C 1265.83 1.71467 2.61855 0
M  V30 13570 C 1266.31 2.70477 3.69603 0
M  V30 13571 N 1267.8 2.69043 3.77055 0
M  V30 13572 C 1268.53 3.42319 4.60006 0
M  V30 13573 N 1268.03 4.2518 5.46986 0
M  V30 13574 N 1269.82 3.31047 4.54274 0
M  V30 13575 H 1261.97 1.91251 0.923948 0
M  V30 13576 H 1264.23 0.82455 0.467783 0
M  V30 13577 H 1263.94 2.72354 2.22523 0
M  V30 13578 H 1263.81 1.48885 3.46573 0
M  V30 13579 H 1266.2 0.697889 2.86729 0
M  V30 13580 H 1266.28 1.96625 1.63622 0
M  V30 13581 H 1265.93 3.72302 3.45476 0
M  V30 13582 H 1265.86 2.42591 4.67394 0
M  V30 13583 H 1268.35 2.08914 3.14902 0
M  V30 13584 H 1268.66 4.77929 6.07292 0
M  V30 13585 H 1267.01 4.29268 5.46584 0
M  V30 13586 H 1270.2 2.65758 3.85345 0
M  V30 13587 H 1270.37 3.88413 5.1869 0
M  V30 13588 N 1263.78 -1.38018 0.760839 0
M  V30 13589 C 1265 -2.04757 0.330038 0
M  V30 13590 C 1265.43 -1.57009 -1.03585 0
M  V30 13591 O 1264.78 -0.725349 -1.66158 0
M  V30 13592 C 1264.83 -3.58696 0.370082 0
M  V30 13593 O 1263.94 -4.07507 -0.633361 0
M  V30 13594 H 1263.28 -0.648023 0.144782 0
M  V30 13595 H 1265.81 -1.7655 1.03399 0
M  V30 13596 H 1265.82 -4.07387 0.223515 0
M  V30 13597 H 1264.49 -3.92806 1.36661 0
M  V30 13598 H 1263.07 -3.70165 -0.45081 0
M  V30 13599 N 1265.25 -0.510493 -1.49103 0
M  V30 13600 C 1266.5 0.0306436 -2.02477 0
M  V30 13601 C 1266.83 1.36113 -1.38937 0
M  V30 13602 O 1266.08 1.88731 -0.517584 0
M  V30 13603 C 1266.38 0.221921 -3.5671 0
M  V30 13604 C 1266.05 -1.03176 -4.38937 0
M  V30 13605 C 1264.71 -1.37539 -4.61125 0
M  V30 13606 C 1267.06 -1.86464 -4.86704 0
M  V30 13607 C 1264.39 -2.55124 -5.28326 0
M  V30 13608 C 1266.74 -3.03211 -5.55199 0
M  V30 13609 C 1265.41 -3.37943 -5.75631 0
M  V30 13610 H 1264.68 0.0112133 -0.740915 0
M  V30 13611 H 1267.32 -0.672574 -1.79301 0
M  V30 13612 H 1265.63 1.00775 -3.78618 0
M  V30 13613 H 1267.33 0.655223 -3.95611 0
M  V30 13614 H 1263.92 -0.754105 -4.21914 0
M  V30 13615 H 1268.1 -1.61229 -4.69381 0
M  V30 13616 H 1263.36 -2.8226 -5.42346 0
M  V30 13617 H 1267.53 -3.68068 -5.91185 0
M  V30 13618 H 1265.16 -4.29158 -6.27477 0
M  V30 13619 N 1266.73 1.55688 -0.24474 0
M  V30 13620 C 1267.97 2.00796 0.382167 0
M  V30 13621 C 1268.34 1.12917 1.55286 0
M  V30 13622 O 1269.54 1.47471 2.24735 0
M  V30 13623 C 1267.81 3.48702 0.783708 0
M  V30 13624 S 1269.37 4.15818 1.40145 0
M  V30 13625 H 1266.18 0.700742 0.120343 0
M  V30 13626 H 1268.79 1.92167 -0.359468 0
M  V30 13627 H 1267.49 4.10327 -0.0776558 0
M  V30 13628 H 1267.02 3.61252 1.55758 0
M  V30 13629 H 1269.04 4.16925 2.6905 0
M  V30 13630 N 1268.21 -0.0283989 1.57574 0
M  V30 13631 C 1269.43 -0.734537 1.93957 0
M  V30 13632 C 1269.86 -1.68062 0.844787 0
M  V30 13633 O 1269.22 -1.802 -0.199432 0
M  V30 13634 C 1269.27 -1.46716 3.29404 0
M  V30 13635 O 1268.37 -2.58036 3.217 0
M  V30 13636 H 1267.71 -0.197507 0.633946 0
M  V30 13637 H 1270.24 0.0163258 2.04593 0
M  V30 13638 H 1270.25 -1.83693 3.64309 0
M  V30 13639 H 1268.93 -0.773292 4.08648 0
M  V30 13640 H 1267.5 -2.23597 2.98427 0
M  V30 13641 N 1269.69 -1.54705 -0.300681 0
M  V30 13642 C 1270.65 -1.84934 -1.35395 0
M  V30 13643 C 1271.65 -0.72226 -1.43666 0
M  V30 13644 O 1272.84 -0.990543 -1.43296 0
M  V30 13645 C 1269.97 -2.02991 -2.73875 0
M  V30 13646 H 1271.17 -2.79063 -1.09835 0
M  V30 13647 H 1268.72 -1.46772 -0.537365 0
M  V30 13648 H 1269.45 -1.11151 -3.04657 0
M  V30 13649 H 1269.24 -2.85027 -2.69262 0
M  V30 13650 H 1270.73 -2.27747 -3.5003 0
M  V30 13651 N 1271.17 0.563888 -1.47167 0
M  V30 13652 C 1272.1 1.68689 -1.53685 0
M  V30 13653 C 1273.08 1.57866 -0.389486 0
M  V30 13654 O 1274.26 1.78819 -0.596336 0
M  V30 13655 C 1271.39 3.06887 -1.43311 0
M  V30 13656 C 1270.43 3.36175 -2.62466 0
M  V30 13657 S 1271.27 3.26166 -4.24707 0
M  V30 13658 C 1272.42 4.66868 -4.16875 0
M  V30 13659 H 1272.66 1.62905 -2.48695 0
M  V30 13660 H 1270.19 0.74417 -1.35283 0
M  V30 13661 H 1272.15 3.86604 -1.38014 0
M  V30 13662 H 1270.81 3.10144 -0.496971 0
M  V30 13663 H 1270 4.36907 -2.51253 0
M  V30 13664 H 1269.6 2.64064 -2.64852 0
M  V30 13665 H 1271.9 5.57673 -3.84717 0
M  V30 13666 H 1272.84 4.83139 -5.1767 0
M  V30 13667 H 1273.25 4.44601 -3.47836 0
M  V30 13668 N 1272.64 1.35187 0.810078 0
M  V30 13669 C 1273.89 1.28454 1.56931 0
M  V30 13670 C 1274.22 -0.141747 1.93682 0
M  V30 13671 O 1273.5 -1.09028 1.61069 0
M  V30 13672 C 1273.78 2.18771 2.86027 0
M  V30 13673 C 1273.63 3.69999 2.55774 0
M  V30 13674 C 1274.95 2.08265 3.87703 0
M  V30 13675 H 1272.07 0.467959 0.569371 0
M  V30 13676 H 1274.71 1.65556 0.932262 0
M  V30 13677 H 1272.86 1.8726 3.40391 0
M  V30 13678 H 1274.54 4.11936 2.07621 0
M  V30 13679 H 1272.78 3.90453 1.89021 0
M  V30 13680 H 1273.45 4.28577 3.47888 0
M  V30 13681 H 1275.93 2.35958 3.42729 0
M  V30 13682 H 1274.8 2.73663 4.75815 0
M  V30 13683 H 1275.06 1.06352 4.29117 0
M  V30 13684 N 1274.12 -1.03182 1.19127 0
M  V30 13685 C 1275.03 -2.14875 0.94159 0
M  V30 13686 C 1276.05 -1.73727 -0.0973872 0
M  V30 13687 O 1277.22 -2.01214 0.0865775 0
M  V30 13688 C 1274.29 -3.43356 0.480366 0
M  V30 13689 C 1273.35 -3.98835 1.58838 0
M  V30 13690 C 1272.58 -5.21183 1.14907 0
M  V30 13691 O 1272.81 -5.70399 0.0114141 0
M  V30 13692 O 1271.74 -5.69423 1.95042 0
M  V30 13693 H 1275.57 -2.38799 1.8764 0
M  V30 13694 H 1273.15 -1.13299 0.973841 0
M  V30 13695 H 1275.03 -4.20763 0.231658 0
M  V30 13696 H 1273.71 -3.20884 -0.426041 0
M  V30 13697 H 1272.62 -3.22776 1.8912 0
M  V30 13698 H 1273.95 -4.25665 2.47123 0
M  V30 13699 N 1275.6 -0.99472 -1.22242 0
M  V30 13700 C 1276.51 -0.555502 -2.27928 0
M  V30 13701 C 1277.53 0.396584 -1.6942 0
M  V30 13702 O 1278.7 0.262965 -1.99676 0
M  V30 13703 C 1275.77 0.121121 -3.46488 0
M  V30 13704 C 1274.83 -0.874155 -4.20306 0
M  V30 13705 C 1274.06 -0.229726 -5.33205 0
M  V30 13706 O 1274.28 0.975935 -5.61989 0
M  V30 13707 O 1273.22 -0.935501 -5.94586 0
M  V30 13708 H 1277.04 -1.4348 -2.6767 0
M  V30 13709 H 1274.63 -0.763061 -1.28444 0
M  V30 13710 H 1276.51 0.500043 -4.18423 0
M  V30 13711 H 1275.19 0.974959 -3.08668 0
M  V30 13712 H 1274.09 -1.30404 -3.50636 0
M  V30 13713 H 1275.43 -1.69725 -4.62011 0
M  V30 13714 N 1277.08 1.37613 -0.768148 0
M  V30 13715 C 1278.01 2.3291 -0.165911 0
M  V30 13716 C 1278.99 1.556 0.687205 0
M  V30 13717 O 1280.17 1.83854 0.625407 0
M  V30 13718 C 1277.3 3.39822 0.7168 0
M  V30 13719 C 1276.26 4.27986 -0.0347264 0
M  V30 13720 C 1275.58 5.2588 0.967192 0
M  V30 13721 C 1276.88 5.08052 -1.21164 0
M  V30 13722 H 1278.58 2.83524 -0.962006 0
M  V30 13723 H 1276.12 1.36318 -0.464051 0
M  V30 13724 H 1278.08 4.05464 1.14789 0
M  V30 13725 H 1276.8 2.87725 1.54538 0
M  V30 13726 H 1275.46 3.6387 -0.446557 0
M  V30 13727 H 1275.11 4.70064 1.79022 0
M  V30 13728 H 1274.81 5.85726 0.468913 0
M  V30 13729 H 1276.33 5.94397 1.3973 0
M  V30 13730 H 1277.75 5.66853 -0.857373 0
M  V30 13731 H 1276.14 5.77206 -1.64176 0
M  V30 13732 H 1277.21 4.40936 -2.0175 0
M  V30 13733 N 1278.56 0.518393 1.4883 0
M  V30 13734 C 1279.97 0.175476 1.58632 0
M  V30 13735 C 1280.17 -1.32081 1.52174 0
M  V30 13736 O 1279.23 -2.09817 1.40474 0
M  V30 13737 C 1280.54 0.767722 2.90734 0
M  V30 13738 C 1282.09 0.735402 3.04238 0
M  V30 13739 C 1282.56 1.30602 4.38984 0
M  V30 13740 N 1284.06 1.26748 4.45521 0
M  V30 13741 C 1284.79 1.679 5.48267 0
M  V30 13742 N 1284.29 2.16728 6.58028 0
M  V30 13743 N 1286.08 1.59209 5.39082 0
M  V30 13744 H 1278.23 1.491 1.51271 0
M  V30 13745 H 1280.49 0.619497 0.717584 0
M  V30 13746 H 1280.2 1.81777 3.01081 0
M  V30 13747 H 1280.07 0.238119 3.76448 0
M  V30 13748 H 1282.46 -0.305852 2.93511 0
M  V30 13749 H 1282.54 1.30235 2.20165 0
M  V30 13750 H 1282.19 2.34614 4.50465 0
M  V30 13751 H 1282.12 0.714858 5.21725 0
M  V30 13752 H 1284.61 0.90991 3.66782 0
M  V30 13753 H 1284.92 2.46154 7.32549 0
M  V30 13754 H 1283.26 2.20714 6.59022 0
M  V30 13755 H 1286.46 1.20869 4.52226 0
M  V30 13756 H 1286.63 1.91602 6.19025 0
M  V30 13757 N 1280.03 -1.55556 0.252993 0
M  V30 13758 C 1280.97 -2.17683 -0.684776 0
M  V30 13759 C 1281.95 -1.13077 -1.16843 0
M  V30 13760 O 1283.13 -1.41495 -1.24545 0
M  V30 13761 C 1280.26 -2.78239 -1.93134 0
M  V30 13762 C 1279.3 -3.95953 -1.58504 0
M  V30 13763 S 1280.14 -5.31135 -0.682367 0
M  V30 13764 C 1281.29 -5.95147 -1.93779 0
M  V30 13765 H 1281.52 -2.96886 -0.156823 0
M  V30 13766 H 1279.06 -1.54355 0.0374019 0
M  V30 13767 H 1281.02 -3.13763 -2.64694 0
M  V30 13768 H 1279.68 -1.98971 -2.43042 0
M  V30 13769 H 1278.87 -4.36936 -2.51203 0
M  V30 13770 H 1278.47 -3.61738 -0.949815 0
M  V30 13771 H 1280.76 -6.13035 -2.88435 0
M  V30 13772 H 1281.71 -6.90445 -1.57135 0
M  V30 13773 H 1282.11 -5.24279 -2.09266 0
M  V30 13774 N 1281.51 0.0200419 -1.57587 0
M  V30 13775 C 1282.74 0.724241 -1.94344 0
M  V30 13776 C 1283.16 1.67612 -0.853688 0
M  V30 13777 O 1282.52 1.80303 0.189873 0
M  V30 13778 C 1282.57 1.44967 -3.30177 0
M  V30 13779 O 1281.67 2.56326 -3.23064 0
M  V30 13780 H 1281.01 0.194142 -0.634984 0
M  V30 13781 H 1283.54 -0.0271756 -2.04582 0
M  V30 13782 H 1283.55 1.81758 -3.65278 0
M  V30 13783 H 1282.23 0.75161 -4.09052 0
M  V30 13784 H 1280.81 2.22011 -2.99609 0
M  V30 13785 N 1282.99 1.54862 0.292472 0
M  V30 13786 C 1283.92 1.89406 1.36556 0
M  V30 13787 C 1284.9 0.753838 1.52484 0
M  V30 13788 O 1286.09 1.01031 1.6585 0
M  V30 13789 C 1283.22 2.14888 2.72838 0
M  V30 13790 C 1282.17 3.3073 2.71665 0
M  V30 13791 C 1281.5 3.41648 4.11316 0
M  V30 13792 C 1282.8 4.67622 2.32651 0
M  V30 13793 H 1284.49 2.79284 1.07894 0
M  V30 13794 H 1282.04 1.34377 0.517585 0
M  V30 13795 H 1283.99 2.3764 3.48002 0
M  V30 13796 H 1282.71 1.2179 3.03042 0
M  V30 13797 H 1281.37 3.07915 1.98958 0
M  V30 13798 H 1281.02 2.46051 4.38711 0
M  V30 13799 H 1280.72 4.19522 4.11431 0
M  V30 13800 H 1282.24 3.6667 4.88248 0
M  V30 13801 H 1283.66 4.90048 2.97533 0
M  V30 13802 H 1282.06 5.48272 2.43963 0
M  V30 13803 H 1283.13 4.67762 1.27777 0
M  V30 13804 N 1284.47 -0.556076 1.47464 0
M  V30 13805 C 1285.42 -1.66304 1.60036 0
M  V30 13806 C 1286.39 -1.60074 0.443348 0
M  V30 13807 O 1287.57 -1.7889 0.663545 0
M  V30 13808 C 1284.71 -3.04624 1.62167 0
M  V30 13809 C 1283.82 -3.21283 2.88793 0
M  V30 13810 C 1282.96 -4.50008 2.82252 0
M  V30 13811 C 1282 -4.60103 4.03698 0
M  V30 13812 N 1281.13 -5.80184 3.95387 0
M  V30 13813 H 1285.97 -1.54897 2.5458 0
M  V30 13814 H 1283.51 -0.754533 1.26274 0
M  V30 13815 H 1285.47 -3.84721 1.61386 0
M  V30 13816 H 1284.1 -3.14865 0.711348 0
M  V30 13817 H 1283.15 -2.34611 2.99436 0
M  V30 13818 H 1284.46 -3.24607 3.78724 0
M  V30 13819 H 1283.62 -5.38366 2.79726 0
M  V30 13820 H 1282.36 -4.49165 1.90005 0
M  V30 13821 H 1281.36 -3.70157 4.06527 0
M  V30 13822 H 1282.59 -4.62704 4.97073 0
M  V30 13823 H 1280.53 -5.80288 3.05944 0
M  V30 13824 H 1280.45 -5.8489 4.78998 0
M  V30 13825 H 1281.72 -6.709 3.96879 0
M  V30 13826 N 1285.95 -1.35615 -0.802897 0
M  V30 13827 C 1287.19 -1.30462 -1.5735 0
M  V30 13828 C 1287.55 0.118488 -1.91634 0
M  V30 13829 O 1288.75 0.294421 -2.67183 0
M  V30 13830 C 1287.02 -2.18916 -2.82508 0
M  V30 13831 S 1288.58 -2.31315 -3.72879 0
M  V30 13832 H 1285.4 -0.463588 -0.53908 0
M  V30 13833 H 1288 -1.71045 -0.946782 0
M  V30 13834 H 1286.71 -3.21285 -2.5535 0
M  V30 13835 H 1286.24 -1.79304 -3.50162 0
M  V30 13836 H 1288.25 -1.50069 -4.72963 0
M  V30 13837 N 1287.43 1.02549 -1.19673 0
M  V30 13838 C 1288.36 2.10991 -0.8953 0
M  V30 13839 C 1289.37 1.62405 0.113373 0
M  V30 13840 O 1290.56 1.7812 -0.116485 0
M  V30 13841 C 1287.66 3.37394 -0.319124 0
M  V30 13842 C 1286.83 4.15154 -1.37718 0
M  V30 13843 C 1285.89 5.19867 -0.81393 0
M  V30 13844 O 1284.92 5.49285 -1.49246 0
M  V30 13845 N 1286.12 5.79248 0.381089 0
M  V30 13846 H 1288.88 2.37438 -1.82875 0
M  V30 13847 H 1286.45 1.18867 -1.09919 0
M  V30 13848 H 1288.44 4.04637 0.0716106 0
M  V30 13849 H 1287.01 3.08267 0.518681 0
M  V30 13850 H 1286.23 3.4301 -1.94262 0
M  V30 13851 H 1287.52 4.63892 -2.09003 0
M  V30 13852 H 1286.91 5.5767 0.949791 0
M  V30 13853 H 1285.47 6.47882 0.713563 0
M  V30 13854 N 1288.9 1.00119 1.21713 0
M  V30 13855 C 1290.32 0.713343 1.42771 0
M  V30 13856 C 1290.52 -0.712923 1.88467 0
M  V30 13857 O 1289.58 -1.48277 2.04378 0
M  V30 13858 C 1290.89 1.72596 2.46234 0
M  V30 13859 C 1292.44 1.74235 2.60022 0
M  V30 13860 C 1292.91 2.74382 3.66713 0
M  V30 13861 N 1294.4 2.73027 3.7418 0
M  V30 13862 C 1295.14 3.47178 4.56349 0
M  V30 13863 N 1294.63 4.30958 5.42446 0
M  V30 13864 N 1296.43 3.35846 4.50737 0
M  V30 13865 H 1288.58 1.9222 0.903611 0
M  V30 13866 H 1290.84 0.829466 0.459011 0
M  V30 13867 H 1290.55 2.74699 2.19621 0
M  V30 13868 H 1290.42 1.52553 3.44975 0
M  V30 13869 H 1292.81 0.728261 2.85973 0
M  V30 13870 H 1292.89 1.98349 1.61528 0
M  V30 13871 H 1292.53 3.75945 3.41508 0
M  V30 13872 H 1292.46 2.47534 4.64795 0
M  V30 13873 H 1294.95 2.12242 3.12669 0
M  V30 13874 H 1295.27 4.84344 6.02189 0
M  V30 13875 H 1293.61 4.35042 5.42 0
M  V30 13876 H 1296.8 2.6983 3.82504 0
M  V30 13877 H 1296.98 3.93892 5.14541 0
M  V30 13878 N 1290.38 -1.37203 0.775435 0
M  V30 13879 C 1291.8 -1.52962 0.455488 0
M  V30 13880 C 1292 -1.73284 -1.02834 0
M  V30 13881 O 1291.05 -1.75631 -1.81411 0
M  V30 13882 C 1292.37 -2.72389 1.27377 0
M  V30 13883 C 1293.91 -2.86252 1.26604 0
M  V30 13884 C 1294.39 -4.08666 2.06775 0
M  V30 13885 N 1295.88 -4.15786 2.04148 0
M  V30 13886 C 1296.62 -5.09548 2.6296 0
M  V30 13887 N 1296.11 -6.08845 3.30574 0
M  V30 13888 N 1297.9 -5.02059 2.5277 0
M  V30 13889 H 1290.06 -1.22265 1.73681 0
M  V30 13890 H 1292.32 -0.595638 0.737509 0
M  V30 13891 H 1292.02 -2.63849 2.32544 0
M  V30 13892 H 1291.9 -3.66171 0.905467 0
M  V30 13893 H 1294.29 -2.94261 0.222345 0
M  V30 13894 H 1294.37 -1.93418 1.67401 0
M  V30 13895 H 1294.01 -4.01419 3.11168 0
M  V30 13896 H 1293.94 -5.00621 1.63358 0
M  V30 13897 H 1296.43 -3.44683 1.54926 0
M  V30 13898 H 1296.74 -6.76926 3.72815 0
M  V30 13899 H 1295.09 -6.09113 3.34674 0
M  V30 13900 H 1298.28 -4.23431 1.99559 0
M  V30 13901 H 1298.45 -5.74947 2.98898 0
M  V30 13902 N 1291.86 -0.526279 -1.48553 0
M  V30 13903 C 1292.79 0.227364 -2.3239 0
M  V30 13904 C 1293.77 0.93862 -1.41859 0
M  V30 13905 O 1294.96 0.925119 -1.70749 0
M  V30 13906 C 1292.09 1.277 -3.22971 0
M  V30 13907 C 1291.04 0.684107 -4.22497 0
M  V30 13908 C 1290.37 1.83612 -5.02186 0
M  V30 13909 C 1291.67 -0.341723 -5.21181 0
M  V30 13910 H 1293.36 -0.472486 -2.95648 0
M  V30 13911 H 1290.91 -0.228669 -1.42173 0
M  V30 13912 H 1292.86 1.81215 -3.80446 0
M  V30 13913 H 1291.58 2.00638 -2.57705 0
M  V30 13914 H 1290.24 0.170505 -3.66203 0
M  V30 13915 H 1289.89 2.55379 -4.33348 0
M  V30 13916 H 1289.59 1.44536 -5.69547 0
M  V30 13917 H 1291.11 2.37513 -5.62512 0
M  V30 13918 H 1292.53 0.106207 -5.73202 0
M  V30 13919 H 1290.92 -0.649673 -5.96573 0
M  V30 13920 H 1291.99 -1.2488 -4.68543 0
M  V30 13921 N 1293.34 1.5542 -0.261239 0
M  V30 13922 C 1294.28 2.21972 0.632216 0
M  V30 13923 C 1295.25 1.18843 1.16041 0
M  V30 13924 O 1296.44 1.47339 1.21226 0
M  V30 13925 C 1293.58 2.93397 1.81693 0
M  V30 13926 C 1292.69 4.11214 1.3239 0
M  V30 13927 C 1291.83 4.70318 2.46931 0
M  V30 13928 C 1290.87 5.80355 1.94561 0
M  V30 13929 N 1290 6.33581 3.02523 0
M  V30 13930 H 1294.84 2.97944 0.058018 0
M  V30 13931 H 1292.38 1.4709 0.0168725 0
M  V30 13932 H 1294.34 3.33015 2.5131 0
M  V30 13933 H 1292.97 2.19874 2.36337 0
M  V30 13934 H 1292.02 3.76811 0.521292 0
M  V30 13935 H 1293.33 4.90609 0.900214 0
M  V30 13936 H 1292.49 5.12584 3.24565 0
M  V30 13937 H 1291.23 3.90169 2.92608 0
M  V30 13938 H 1290.23 5.37552 1.15402 0
M  V30 13939 H 1291.46 6.62364 1.49836 0
M  V30 13940 H 1289.4 5.56332 3.47608 0
M  V30 13941 H 1289.32 7.08209 2.64529 0
M  V30 13942 H 1290.59 6.80506 3.80174 0
M  V30 13943 N 1294.82 -0.0116844 1.57596 0
M  V30 13944 C 1295.77 -1.01509 2.04157 0
M  V30 13945 C 1296.75 -1.31011 0.934076 0
M  V30 13946 O 1297.94 -1.30305 1.1979 0
M  V30 13947 C 1295.07 -2.31081 2.53883 0
M  V30 13948 C 1294.16 -2.04594 3.71486 0
M  V30 13949 N 1294.55 -1.48224 4.83594 0
M  V30 13950 C 1292.85 -2.34795 3.79193 0
M  V30 13951 C 1293.55 -1.37941 5.65108 0
M  V30 13952 N 1292.52 -1.861 5.10752 0
M  V30 13953 H 1296.32 -0.573556 2.88249 0
M  V30 13954 H 1293.84 -0.217632 1.60935 0
M  V30 13955 H 1295.84 -3.03793 2.85509 0
M  V30 13956 H 1294.5 -2.75897 1.71204 0
M  V30 13957 H 1295.51 -1.16261 5.04682 0
M  V30 13958 H 1292.18 -2.82566 3.07348 0
M  V30 13959 H 1293.57 -0.946997 6.65193 0
M  V30 13960 N 1296.29 -1.55015 -0.284256 0
M  V30 13961 C 1297.24 -1.87122 -1.35107 0
M  V30 13962 C 1298.21 -0.721638 -1.49605 0
M  V30 13963 O 1299.4 -0.971855 -1.64194 0
M  V30 13964 C 1296.54 -2.1388 -2.70831 0
M  V30 13965 C 1295.65 -3.41447 -2.64647 0
M  V30 13966 C 1294.78 -3.57961 -3.92476 0
M  V30 13967 C 1293.82 -4.79261 -3.80757 0
M  V30 13968 N 1292.96 -4.92492 -5.00395 0
M  V30 13969 H 1297.8 -2.78117 -1.07027 0
M  V30 13970 H 1295.34 -1.37704 -0.517311 0
M  V30 13971 H 1297.29 -2.27391 -3.49784 0
M  V30 13972 H 1295.92 -1.26132 -2.97137 0
M  V30 13973 H 1294.98 -3.36467 -1.77466 0
M  V30 13974 H 1296.29 -4.3053 -2.51884 0
M  V30 13975 H 1295.44 -3.71229 -4.79868 0
M  V30 13976 H 1294.18 -2.67042 -4.08093 0
M  V30 13977 H 1293.19 -4.66008 -2.91747 0
M  V30 13978 H 1294.41 -5.71604 -3.66669 0
M  V30 13979 H 1292.36 -4.04501 -5.16445 0
M  V30 13980 H 1292.27 -5.75603 -4.9012 0
M  V30 13981 H 1293.54 -5.10134 -5.89392 0
M  V30 13982 N 1297.77 0.548248 -1.47757 0
M  V30 13983 C 1299.18 1.13033 -1.48595 0
M  V30 13984 C 1299.53 1.94657 -0.245575 0
M  V30 13985 O 1298.66 2.06445 0.648813 0
M  V30 13986 C 1299.25 2.05657 -2.69241 0
M  V30 13987 C 1297.81 2.59119 -2.73009 0
M  V30 13988 C 1296.96 1.35686 -2.41836 0
M  V30 13989 H 1299.91 0.334397 -1.55137 0
M  V30 13990 H 1299.93 2.89671 -2.4672 0
M  V30 13991 H 1299.44 1.46222 -3.595 0
M  V30 13992 H 1297.54 3.22327 -1.86912 0
M  V30 13993 H 1297.66 2.99501 -3.73946 0
M  V30 13994 H 1296.02 1.66659 -1.92606 0
M  V30 13995 H 1296.8 0.780311 -3.34314 0
M  V30 13996 N 1299.25 1.36039 0.795694 0
M  V30 13997 C 1300.18 1.25713 1.91648 0
M  V30 13998 C 1301.19 0.177993 1.61824 0
M  V30 13999 O 1302.38 0.432186 1.73189 0
M  V30 14000 C 1299.48 0.915546 3.26299 0
M  V30 14001 C 1298.66 2.09528 3.83949 0
M  V30 14002 C 1297.72 1.72775 4.97026 0
M  V30 14003 O 1296.74 2.44786 5.13876 0
M  V30 14004 N 1297.94 0.65775 5.76762 0
M  V30 14005 H 1300.71 2.22277 2.01029 0
M  V30 14006 H 1298.27 1.2935 0.973657 0
M  V30 14007 H 1300.26 0.650958 3.9943 0
M  V30 14008 H 1298.83 0.0392343 3.12575 0
M  V30 14009 H 1298.05 2.52304 3.0288 0
M  V30 14010 H 1299.34 2.88361 4.19196 0
M  V30 14011 H 1298.74 0.0596875 5.65669 0
M  V30 14012 H 1297.29 0.45297 6.50224 0
M  V30 14013 N 1300.73 -1.01913 1.20215 0
M  V30 14014 C 1301.69 -2.08563 0.950481 0
M  V30 14015 C 1302.69 -1.60634 -0.0729659 0
M  V30 14016 O 1303.88 -1.73437 0.162826 0
M  V30 14017 C 1301.01 -3.38171 0.430453 0
M  V30 14018 H 1302.21 -2.32323 1.89647 0
M  V30 14019 H 1299.76 -1.18674 1.01716 0
M  V30 14020 H 1300.49 -3.20086 -0.521126 0
M  V30 14021 H 1300.28 -3.74284 1.1685 0
M  V30 14022 H 1301.77 -4.16702 0.273781 0
M  V30 14023 N 1302.21 -1.00763 -1.2118 0
M  V30 14024 C 1303.62 -0.724746 -1.72059 0
M  V30 14025 C 1303.97 0.757413 -1.80991 0
M  V30 14026 O 1303.09 1.59152 -1.46627 0
M  V30 14027 C 1303.69 -1.30893 -3.12494 0
M  V30 14028 C 1302.25 -1.07511 -3.60719 0
M  V30 14029 C 1301.39 -1.42014 -2.38175 0
M  V30 14030 H 1304.35 -1.17821 -1.0632 0
M  V30 14031 H 1304.37 -0.694919 -3.741 0
M  V30 14032 H 1303.88 -2.38767 -3.05961 0
M  V30 14033 H 1301.98 -0.0136518 -3.72597 0
M  V30 14034 H 1302.09 -1.74885 -4.4604 0
M  V30 14035 H 1300.46 -0.838972 -2.40486 0
M  V30 14036 H 1301.24 -2.50924 -2.34291 0
M  V30 14037 N 1303.68 1.3679 -0.7827 0
M  V30 14038 C 1304.93 1.99712 -0.352533 0
M  V30 14039 C 1305.26 1.61984 1.0712 0
M  V30 14040 O 1304.54 0.871342 1.7389 0
M  V30 14041 C 1304.82 3.5649 -0.508628 0
M  V30 14042 C 1304.67 4.04093 -1.97557 0
M  V30 14043 C 1305.99 4.40026 0.0804447 0
M  V30 14044 H 1303.11 0.725522 -0.129566 0
M  V30 14045 H 1305.75 1.62305 -0.987788 0
M  V30 14046 H 1303.9 3.88487 0.0321664 0
M  V30 14047 H 1305.58 3.82613 -2.57691 0
M  V30 14048 H 1303.82 3.55881 -2.48055 0
M  V30 14049 H 1304.49 5.13088 -2.03579 0
M  V30 14050 H 1306.97 4.14351 -0.381113 0
M  V30 14051 H 1305.84 5.48868 -0.0588424 0
M  V30 14052 H 1306.1 4.26285 1.17189 0
M  V30 14053 N 1305.16 0.53415 1.48272 0
M  V30 14054 C 1306.41 -0.000450626 2.017 0
M  V30 14055 C 1306.72 -1.34926 1.41613 0
M  V30 14056 O 1307.93 -1.97246 1.86564 0
M  V30 14057 C 1306.39 -0.0511883 3.59864 0
M  V30 14058 C 1305.99 1.29298 4.28936 0
M  V30 14059 C 1307.74 -0.534397 4.21123 0
M  V30 14060 C 1305.65 1.2026 5.79044 0
M  V30 14061 H 1304.58 -0.00393844 0.75399 0
M  V30 14062 H 1307.23 0.678554 1.70493 0
M  V30 14063 H 1305.61 -0.795358 3.8793 0
M  V30 14064 H 1306.78 2.05305 4.12537 0
M  V30 14065 H 1305.1 1.71226 3.79566 0
M  V30 14066 H 1307.69 -0.620048 5.31093 0
M  V30 14067 H 1308.04 -1.54114 3.86723 0
M  V30 14068 H 1308.57 0.154215 3.97501 0
M  V30 14069 H 1305.31 2.18463 6.18025 0
M  V30 14070 H 1304.83 0.483971 5.97844 0
M  V30 14071 H 1306.51 0.895005 6.4078 0
M  V30 14072 N 1306.64 -1.55279 0.269478 0
M  V30 14073 C 1307.89 -1.99767 -0.34943 0
M  V30 14074 C 1308.22 -1.15762 -1.55926 0
M  V30 14075 O 1307.49 -0.22633 -1.93179 0
M  V30 14076 C 1307.78 -3.52474 -0.73716 0
M  V30 14077 C 1307.63 -4.47236 0.479621 0
M  V30 14078 C 1308.95 -4.10924 -1.57573 0
M  V30 14079 H 1306.07 -0.72623 -0.125535 0
M  V30 14080 H 1308.71 -1.86257 0.375298 0
M  V30 14081 H 1306.86 -3.64118 -1.35464 0
M  V30 14082 H 1308.53 -4.47543 1.11816 0
M  V30 14083 H 1306.78 -4.19127 1.11871 0
M  V30 14084 H 1307.45 -5.51754 0.164653 0
M  V30 14085 H 1309.92 -4.02522 -1.05429 0
M  V30 14086 H 1308.8 -5.17995 -1.81584 0
M  V30 14087 H 1309.06 -3.60798 -2.55495 0
M  V30 14088 N 1308.12 0.00332656 -1.576 0
M  V30 14089 C 1309.07 0.99581 -2.08212 0
M  V30 14090 C 1310.04 1.34342 -0.976804 0
M  V30 14091 O 1311.22 1.44236 -1.24902 0
M  V30 14092 C 1308.36 2.2836 -2.58739 0
M  V30 14093 C 1307.47 1.99531 -3.8316 0
M  V30 14094 C 1306.61 3.22367 -4.222 0
M  V30 14095 C 1305.65 2.89209 -5.39467 0
M  V30 14096 N 1304.78 4.04572 -5.73817 0
M  V30 14097 H 1309.62 0.55727 -2.92743 0
M  V30 14098 H 1307.16 0.263513 -1.4472 0
M  V30 14099 H 1309.12 3.03639 -2.86111 0
M  V30 14100 H 1307.75 2.69889 -1.77087 0
M  V30 14101 H 1306.8 1.14634 -3.62716 0
M  V30 14102 H 1308.11 1.71089 -4.6854 0
M  V30 14103 H 1307.27 4.05994 -4.50837 0
M  V30 14104 H 1306.01 3.53944 -3.35522 0
M  V30 14105 H 1305.01 2.03989 -5.10557 0
M  V30 14106 H 1306.24 2.58883 -6.27819 0
M  V30 14107 H 1304.18 4.36052 -4.90096 0
M  V30 14108 H 1304.1 3.79643 -6.53764 0
M  V30 14109 H 1305.37 4.88998 -6.07043 0
M  V30 14110 N 1309.6 1.55164 0.276031 0
M  V30 14111 C 1310.82 1.79649 1.02635 0
M  V30 14112 C 1311.24 0.568289 1.80044 0
M  V30 14113 O 1310.6 -0.462569 1.7654 0
M  V30 14114 C 1310.65 3.01974 1.98731 0
M  V30 14115 O 1310.37 4.2005 1.24459 0
M  V30 14116 C 1311.87 3.39039 2.856 0
M  V30 14117 H 1309.09 0.598529 0.303321 0
M  V30 14118 H 1311.63 2.02171 0.307733 0
M  V30 14119 H 1309.79 2.81586 2.6606 0
M  V30 14120 H 1310.2 4.89185 1.89205 0
M  V30 14121 H 1311.68 4.27809 3.48831 0
M  V30 14122 H 1312.15 2.58306 3.55211 0
M  V30 14123 H 1312.76 3.61674 2.23767 0
M  V30 14124 N 1311.07 -0.540404 1.48045 0
M  V30 14125 C 1311.98 -1.67308 1.64455 0
M  V30 14126 C 1313 -1.65823 0.527152 0
M  V30 14127 O 1314.18 -1.84964 0.796881 0
M  V30 14128 C 1311.24 -3.03792 1.67068 0
M  V30 14129 C 1310.3 -3.16213 2.90358 0
M  V30 14130 C 1309.54 -4.46187 2.92837 0
M  V30 14131 O 1309.76 -5.32662 2.04029 0
M  V30 14132 O 1308.69 -4.62754 3.84892 0
M  V30 14133 H 1312.52 -1.56403 2.6033 0
M  V30 14134 H 1310.1 -0.712323 1.31325 0
M  V30 14135 H 1311.99 -3.84982 1.71368 0
M  V30 14136 H 1310.66 -3.15043 0.74363 0
M  V30 14137 H 1309.57 -2.34357 2.91595 0
M  V30 14138 H 1310.9 -3.09874 3.82412 0
M  V30 14139 N 1312.55 -1.36459 -0.788468 0
M  V30 14140 C 1313.46 -1.33017 -1.93245 0
M  V30 14141 C 1314.48 -0.232212 -1.72444 0
M  V30 14142 O 1315.65 -0.464743 -1.95965 0
M  V30 14143 C 1312.72 -1.1197 -3.28121 0
M  V30 14144 C 1311.78 -2.3125 -3.61693 0
M  V30 14145 C 1311.01 -2.11197 -4.90134 0
M  V30 14146 O 1311.24 -1.08764 -5.59934 0
M  V30 14147 O 1310.17 -2.98996 -5.22384 0
M  V30 14148 H 1314 -2.29333 -1.99098 0
M  V30 14149 H 1311.58 -1.17016 -0.928856 0
M  V30 14150 H 1313.46 -1.02154 -4.08831 0
M  V30 14151 H 1312.14 -0.187171 -3.23158 0
M  V30 14152 H 1311.05 -2.46635 -2.81286 0
M  V30 14153 H 1312.38 -3.23012 -3.71381 0
M  V30 14154 N 1314.03 1.01274 -1.20754 0
M  V30 14155 C 1315.28 1.75191 -1.02156 0
M  V30 14156 C 1315.61 1.89038 0.444791 0
M  V30 14157 O 1314.88 1.41903 1.33018 0
M  V30 14158 C 1315.17 3.16892 -1.71031 0
M  V30 14159 C 1315.02 3.10816 -3.25136 0
M  V30 14160 C 1316.34 4.15648 -1.44654 0
M  V30 14161 H 1313.46 0.635922 -0.372521 0
M  V30 14162 H 1316.1 1.18119 -1.48822 0
M  V30 14163 H 1314.25 3.6562 -1.31357 0
M  V30 14164 H 1315.92 2.69863 -3.74128 0
M  V30 14165 H 1314.17 2.48113 -3.5584 0
M  V30 14166 H 1314.84 4.11001 -3.68487 0
M  V30 14167 H 1317.31 3.75592 -1.7908 0
M  V30 14168 H 1316.19 5.12954 -1.95371 0
M  V30 14169 H 1316.45 4.40507 -0.37494 0
M  V30 14170 N 1315.51 1.01404 1.20644 0
M  V30 14171 C 1316.76 0.697244 1.89265 0
M  V30 14172 C 1317.07 -0.776149 1.79542 0
M  V30 14173 O 1318.28 -1.2054 2.43274 0
M  V30 14174 C 1316.73 1.19672 3.39421 0
M  V30 14175 C 1316.34 2.69683 3.57736 0
M  V30 14176 C 1318.09 0.955225 4.13613 0
M  V30 14177 C 1315.99 3.13124 5.01704 0
M  V30 14178 H 1314.92 0.257105 0.708811 0
M  V30 14179 H 1317.57 1.22639 1.36499 0
M  V30 14180 H 1315.96 0.595562 3.91496 0
M  V30 14181 H 1317.13 3.35326 3.16059 0
M  V30 14182 H 1315.44 2.91946 2.96911 0
M  V30 14183 H 1318.04 1.25524 5.19757 0
M  V30 14184 H 1318.38 -0.108362 4.16159 0
M  V30 14185 H 1318.92 1.51962 3.67631 0
M  V30 14186 H 1315.66 4.18748 5.04311 0
M  V30 14187 H 1315.18 2.522 5.44201 0
M  V30 14188 H 1316.86 3.05617 5.70269 0
M  V30 14189 N 1316.99 -1.36373 0.789944 0
M  V30 14190 C 1317.94 -2.31928 0.17666 0
M  V30 14191 C 1318.93 -1.55831 -0.664316 0
M  V30 14192 O 1320.14 -1.71089 -0.559341 0
M  V30 14193 H 1316.51 -0.751021 0.038353 0
M  V30 14194 H 1318.48 -2.81216 0.998004 0
M  V30 14195 C 1317.23 -3.41112 -0.673646 0
M  V30 14196 H 1316.55 -3.99784 -0.0358875 0
M  V30 14197 H 1317.99 -4.10292 -1.06942 0
M  V30 14198 C 1316.45 -2.82728 -1.83211 0
M  V30 14199 O 1316.98 -2.74935 -2.92871 0
M  V30 14200 N 1315.19 -2.4001 -1.6384 0
M  V30 14201 H 1314.74 -2.46549 -0.746423 0
M  V30 14202 H 1314.69 -2.01294 -2.41512 0
M  V30 14203 N 1318.47 -0.542005 -1.47987 0
M  V30 14204 C 1319.4 0.261671 -2.26695 0
M  V30 14205 C 1320.38 0.93404 -1.33096 0
M  V30 14206 O 1321.56 0.956051 -1.62456 0
M  V30 14207 C 1318.69 1.37155 -3.09687 0
M  V30 14208 C 1317.73 0.809337 -4.18751 0
M  V30 14209 S 1318.57 -0.332224 -5.34468 0
M  V30 14210 C 1319.72 0.779843 -6.21023 0
M  V30 14211 H 1319.96 -0.406263 -2.94511 0
M  V30 14212 H 1317.49 -0.32802 -1.50875 0
M  V30 14213 H 1319.45 2.00726 -3.58077 0
M  V30 14214 H 1318.11 2.01126 -2.41262 0
M  V30 14215 H 1317.3 1.64233 -4.76491 0
M  V30 14216 H 1316.9 0.250095 -3.73163 0
M  V30 14217 H 1319.19 1.67564 -6.56452 0
M  V30 14218 H 1320.14 0.240142 -7.07693 0
M  V30 14219 H 1320.55 1.06567 -5.5435 0
M  V30 14220 N 1319.94 1.55134 -0.277709 0
M  V30 14221 C 1320.89 2.19317 0.623216 0
M  V30 14222 C 1321.88 1.15863 1.11645 0
M  V30 14223 O 1323.07 1.41668 1.0611 0
M  V30 14224 C 1320.2 2.91976 1.80568 0
M  V30 14225 C 1319.28 4.02722 1.3295 0
M  V30 14226 N 1319.68 5.02582 0.569654 0
M  V30 14227 C 1317.97 4.1584 1.61224 0
M  V30 14228 C 1318.67 5.80825 0.318983 0
M  V30 14229 N 1317.65 5.36229 0.892145 0
M  V30 14230 H 1321.45 2.93879 0.0348669 0
M  V30 14231 H 1318.97 1.62196 -0.0813871 0
M  V30 14232 H 1320.96 3.36408 2.46242 0
M  V30 14233 H 1319.62 2.18925 2.39796 0
M  V30 14234 H 1320.63 5.17446 0.216749 0
M  V30 14235 H 1317.31 3.53981 2.21368 0
M  V30 14236 H 1318.7 6.71275 -0.289742 0
M  V30 14237 N 1321.42 0.00503138 1.57599 0
M  V30 14238 C 1322.65 -0.689609 1.95069 0
M  V30 14239 C 1323.06 -1.67028 0.880183 0
M  V30 14240 O 1322.42 -1.81959 -0.140406 0
M  V30 14241 C 1322.47 -1.41709 3.32567 0
M  V30 14242 O 1322.19 -0.475746 4.35509 0
M  V30 14243 C 1323.69 -2.20578 3.84526 0
M  V30 14244 H 1320.91 -0.19175 0.643019 0
M  V30 14245 H 1323.46 0.057646 2.04419 0
M  V30 14246 H 1321.61 -2.11593 3.2451 0
M  V30 14247 H 1322.03 -0.989573 5.1508 0
M  V30 14248 H 1323.5 -2.66969 4.83148 0
M  V30 14249 H 1323.98 -3.03467 3.17497 0
M  V30 14250 H 1324.58 -1.557 3.95775 0
M  V30 14251 N 1322.9 -1.55308 -0.267798 0
M  V30 14252 C 1324.15 -1.76159 -0.998707 0
M  V30 14253 C 1324.47 -0.565573 -1.86095 0
M  V30 14254 O 1323.73 0.45178 -1.90414 0
M  V30 14255 C 1324.03 -3.02286 -1.90678 0
M  V30 14256 C 1323.69 -4.34594 -1.20161 0
M  V30 14257 C 1322.36 -4.70553 -1.00664 0
M  V30 14258 C 1324.71 -5.16475 -0.7002 0
M  V30 14259 C 1322.04 -5.85945 -0.297629 0
M  V30 14260 C 1324.39 -6.326 -0.00475187 0
M  V30 14261 C 1323.05 -6.67195 0.20188 0
M  V30 14262 H 1322.32 -0.644613 -0.365453 0
M  V30 14263 H 1324.97 -1.89579 -0.270545 0
M  V30 14264 H 1323.27 -2.83788 -2.70133 0
M  V30 14265 H 1324.97 -3.15615 -2.47362 0
M  V30 14266 H 1321.56 -4.06334 -1.36348 0
M  V30 14267 H 1325.75 -4.89167 -0.838435 0
M  V30 14268 H 1321 -6.11268 -0.126864 0
M  V30 14269 H 1325.18 -6.95299 0.39151 0
M  V30 14270 H 1322.8 -7.56459 0.753252 0
M  V30 14271 N 1324.38 0.532545 -1.4833 0
M  V30 14272 C 1325.33 1.65832 -1.63103 0
M  V30 14273 C 1326.32 1.61929 -0.497538 0
M  V30 14274 O 1327.53 1.66817 -0.676176 0
M  V30 14275 H 1323.9 0.549152 -0.513748 0
M  V30 14276 H 1325.87 1.50515 -2.57658 0
M  V30 14277 C 1324.62 3.04113 -1.68555 0
M  V30 14278 H 1323.94 3.07809 -2.55135 0
M  V30 14279 H 1325.38 3.82506 -1.82936 0
M  V30 14280 C 1323.84 3.34225 -0.423711 0
M  V30 14281 O 1324.37 3.99005 0.464523 0
M  V30 14282 N 1322.58 2.89087 -0.296192 0
M  V30 14283 H 1322.13 2.36547 -1.01997 0
M  V30 14284 H 1322.08 3.09604 0.547082 0
M  V30 14285 N 1325.86 1.36875 0.78122 0
M  V30 14286 C 1327.13 1.22101 1.52809 0
M  V30 14287 C 1327.51 -0.189402 2.10249 0
M  V30 14288 O 1326.86 -1.19598 1.94701 0
M  V30 14289 C 1327.07 2.30953 2.61652 0
M  V30 14290 C 1328.42 2.68027 3.29313 0
M  V30 14291 O 1329.44 2.30058 2.71941 0
M  V30 14292 O 1328.3 3.33407 4.33015 0
M  V30 14293 H 1325.4 0.4759 0.676349 0
M  V30 14294 H 1327.94 1.48629 0.818998 0
M  V30 14295 H 1326.71 3.25443 2.17261 0
M  V30 14296 H 1326.34 2.05837 3.40172 0
M  V30 14297 N 1327.33 -1.00632 1.21289 0
M  V30 14298 C 1328.75 -1.26744 0.969956 0
M  V30 14299 C 1328.95 -1.98534 -0.344449 0
M  V30 14300 O 1328.01 -2.28687 -1.07044 0
M  V30 14301 C 1329.32 -2.09238 2.15963 0
M  V30 14302 C 1330.87 -2.22469 2.20174 0
M  V30 14303 C 1331.34 -3.08344 3.38656 0
M  V30 14304 N 1332.83 -3.15932 3.38734 0
M  V30 14305 C 1333.57 -3.82632 4.2706 0
M  V30 14306 N 1333.06 -4.51371 5.25582 0
M  V30 14307 N 1334.86 -3.79259 4.14872 0
M  V30 14308 H 1327.01 -0.524626 2.05819 0
M  V30 14309 H 1329.27 -0.294231 0.901184 0
M  V30 14310 H 1328.98 -1.63835 3.11209 0
M  V30 14311 H 1328.85 -3.09987 2.14914 0
M  V30 14312 H 1331.24 -2.67091 1.25485 0
M  V30 14313 H 1331.32 -1.21194 2.25268 0
M  V30 14314 H 1330.96 -2.64425 4.33638 0
M  V30 14315 H 1330.89 -4.0973 3.30801 0
M  V30 14316 H 1333.38 -2.66998 2.67434 0
M  V30 14317 H 1333.7 -4.99966 5.89283 0
M  V30 14318 H 1332.04 -4.50162 5.29508 0
M  V30 14319 H 1335.23 -3.2471 3.37166 0
M  V30 14320 H 1335.41 -4.30963 4.83916 0
M  V30 14321 N 1328.81 -1.02043 -1.20104 0
M  V30 14322 C 1330.23 -0.735967 -1.41618 0
M  V30 14323 C 1330.43 0.68285 -1.89577 0
M  V30 14324 O 1329.48 1.45007 -2.06711 0
M  V30 14325 C 1330.8 -1.76492 -2.43457 0
M  V30 14326 C 1332.34 -1.78349 -2.57217 0
M  V30 14327 C 1332.82 -2.80181 -3.62302 0
M  V30 14328 N 1334.31 -2.78945 -3.69789 0
M  V30 14329 C 1335.05 -3.54395 -4.50768 0
M  V30 14330 N 1334.54 -4.39533 -5.35521 0
M  V30 14331 N 1336.33 -3.42974 -4.45337 0
M  V30 14332 H 1328.49 -1.93634 -0.872916 0
M  V30 14333 H 1330.75 -0.836663 -0.445757 0
M  V30 14334 H 1330.45 -2.78158 -2.15223 0
M  V30 14335 H 1330.33 -1.58022 -3.42504 0
M  V30 14336 H 1332.72 -0.773665 -2.84778 0
M  V30 14337 H 1332.8 -2.00894 -1.58352 0
M  V30 14338 H 1332.44 -3.81331 -3.35484 0
M  V30 14339 H 1332.37 -2.54898 -4.60798 0
M  V30 14340 H 1334.86 -2.17189 -3.09253 0
M  V30 14341 H 1335.17 -4.93863 -5.94407 0
M  V30 14342 H 1333.52 -4.43609 -5.3501 0
M  V30 14343 H 1336.71 -2.75881 -3.78163 0
M  V30 14344 H 1336.88 -4.02028 -5.0821 0
M  V30 14345 N 1330.29 1.35952 -0.797165 0
M  V30 14346 C 1331.22 2.32506 -0.215277 0
M  V30 14347 C 1332.2 1.57023 0.654046 0
M  V30 14348 O 1333.39 1.85139 0.586268 0
M  V30 14349 C 1330.52 3.41266 0.644557 0
M  V30 14350 C 1329.47 4.27816 -0.125501 0
M  V30 14351 C 1328.8 5.27813 0.855428 0
M  V30 14352 C 1330.1 5.05367 -1.31913 0
M  V30 14353 H 1331.79 2.8142 -1.02193 0
M  V30 14354 H 1329.34 1.35303 -0.492862 0
M  V30 14355 H 1331.29 4.07808 1.06163 0
M  V30 14356 H 1330.01 2.90938 1.484 0
M  V30 14357 H 1328.67 3.62841 -0.523639 0
M  V30 14358 H 1328.32 4.73755 1.69011 0
M  V30 14359 H 1328.02 5.86589 0.344566 0
M  V30 14360 H 1329.54 5.97227 1.2709 0
M  V30 14361 H 1330.96 5.64907 -0.977418 0
M  V30 14362 H 1329.36 5.73593 -1.76382 0
M  V30 14363 H 1330.43 4.36558 -2.11057 0
M  V30 14364 N 1331.77 0.549846 1.47697 0
M  V30 14365 C 1333.18 0.11453 1.86348 0
M  V30 14366 C 1333.53 -1.31368 1.45729 0
M  V30 14367 O 1332.66 -1.98707 0.856989 0
M  V30 14368 C 1333.25 0.201072 3.38203 0
M  V30 14369 C 1331.81 -0.179162 3.75973 0
M  V30 14370 C 1330.96 0.551951 2.71751 0
M  V30 14371 H 1333.91 0.759989 1.39319 0
M  V30 14372 H 1333.93 -0.582216 3.76019 0
M  V30 14373 H 1333.44 1.24065 3.67736 0
M  V30 14374 H 1331.54 -1.22013 3.52056 0
M  V30 14375 H 1331.65 0.174273 4.78783 0
M  V30 14376 H 1330.02 -0.00411819 2.547 0
M  V30 14377 H 1330.8 1.59254 3.04127 0
M  V30 14378 N 1333.25 -1.54984 0.285932 0
M  V30 14379 C 1334.49 -1.99436 -0.32709 0
M  V30 14380 C 1334.82 -1.17582 -1.55562 0
M  V30 14381 O 1334.09 -0.268002 -1.94058 0
M  V30 14382 H 1332.67 -0.736662 -0.123846 0
M  V30 14383 H 1335.33 -1.90881 0.393774 0
M  V30 14384 H 1334.42 -3.0609 -0.609523 0
M  V30 14385 N 1334.72 -0.0133892 -1.57594 0
M  V30 14386 C 1335.67 0.97367 -2.09257 0
M  V30 14387 C 1336.64 1.33298 -0.990998 0
M  V30 14388 O 1337.83 1.42903 -1.26425 0
M  V30 14389 C 1334.97 2.25603 -2.61147 0
M  V30 14390 C 1334.08 1.95456 -3.85254 0
M  V30 14391 C 1333.21 3.17871 -4.25596 0
M  V30 14392 C 1332.25 2.83471 -5.42504 0
M  V30 14393 N 1331.39 3.98464 -5.78075 0
M  V30 14394 H 1336.23 0.526189 -2.93318 0
M  V30 14395 H 1333.77 0.248148 -1.44992 0
M  V30 14396 H 1335.73 3.00587 -2.89315 0
M  V30 14397 H 1334.36 2.67995 -1.7994 0
M  V30 14398 H 1333.41 1.10781 -3.63912 0
M  V30 14399 H 1334.72 1.6611 -4.70328 0
M  V30 14400 H 1333.87 4.0119 -4.55117 0
M  V30 14401 H 1332.61 3.50365 -3.39257 0
M  V30 14402 H 1331.62 1.98562 -5.12692 0
M  V30 14403 H 1332.84 2.5221 -6.30529 0
M  V30 14404 H 1330.79 4.3083 -4.94694 0
M  V30 14405 H 1330.71 3.72688 -6.57753 0
M  V30 14406 H 1331.97 4.82532 -6.12195 0
M  V30 14407 N 1336.2 1.55448 0.259558 0
M  V30 14408 C 1337.11 1.92364 1.34289 0
M  V30 14409 C 1338.13 0.822492 1.53333 0
M  V30 14410 O 1339.3 1.12277 1.672 0
M  V30 14411 C 1336.37 2.19978 2.67975 0
M  V30 14412 C 1335.43 3.43454 2.57562 0
M  V30 14413 C 1334.66 3.69741 3.84873 0
M  V30 14414 O 1334.89 2.9831 4.86176 0
M  V30 14415 O 1333.82 4.63274 3.84267 0
M  V30 14416 H 1337.65 2.8461 1.05975 0
M  V30 14417 H 1335.23 1.42167 0.459239 0
M  V30 14418 H 1337.11 2.39104 3.46998 0
M  V30 14419 H 1335.79 1.30912 2.96047 0
M  V30 14420 H 1334.7 3.29649 1.76869 0
M  V30 14421 H 1336.03 4.32782 2.34437 0
M  V30 14422 N 1337.68 -0.524672 1.4861 0
M  V30 14423 C 1338.91 -1.30482 1.60568 0
M  V30 14424 C 1339.32 -1.86889 0.267952 0
M  V30 14425 O 1338.68 -1.66669 -0.743488 0
M  V30 14426 C 1338.73 -2.45191 2.65638 0
M  V30 14427 O 1338.45 -1.91107 3.9422 0
M  V30 14428 C 1339.95 -3.36931 2.88084 0
M  V30 14429 H 1337.17 -0.396612 0.541239 0
M  V30 14430 H 1339.72 -0.632392 1.94476 0
M  V30 14431 H 1337.87 -3.08308 2.34574 0
M  V30 14432 H 1338.29 -2.66234 4.51907 0
M  V30 14433 H 1339.76 -4.13755 3.65391 0
M  V30 14434 H 1340.24 -3.92487 1.97106 0
M  V30 14435 H 1340.84 -2.79601 3.20473 0
M  V30 14436 N 1339.16 -1.37287 -0.77395 0
M  V30 14437 C 1340.09 -1.27239 -1.89435 0
M  V30 14438 C 1341.07 -0.153365 -1.61875 0
M  V30 14439 O 1342.25 -0.327193 -1.85639 0
M  V30 14440 C 1339.38 -0.966771 -3.24609 0
M  V30 14441 C 1338.43 -2.10237 -3.71083 0
M  V30 14442 S 1339.26 -3.72188 -3.85014 0
M  V30 14443 C 1340.42 -3.43773 -5.2304 0
M  V30 14444 H 1340.65 -2.22068 -1.97669 0
M  V30 14445 H 1338.18 -1.22884 -0.93482 0
M  V30 14446 H 1340.14 -0.797268 -4.02683 0
M  V30 14447 H 1338.8 -0.0359985 -3.14079 0
M  V30 14448 H 1337.99 -1.84349 -4.69075 0
M  V30 14449 H 1337.6 -2.23189 -3.00104 0
M  V30 14450 H 1339.89 -2.98625 -6.08136 0
M  V30 14451 H 1340.83 -4.41085 -5.5394 0
M  V30 14452 H 1341.24 -2.78753 -4.90873 0
M  V30 14453 N 1340.64 0.999871 -1.21821 0
M  V30 14454 C 1341.6 2.07024 -0.983541 0
M  V30 14455 C 1342.6 1.6073 0.0474011 0
M  V30 14456 O 1343.79 1.73156 -0.190398 0
M  V30 14457 C 1340.92 3.37444 -0.484199 0
M  V30 14458 H 1342.11 2.29276 -1.9332 0
M  V30 14459 H 1339.67 1.1704 -1.03592 0
M  V30 14460 H 1340.4 3.20874 0.470138 0
M  V30 14461 H 1340.19 3.72378 -1.2279 0
M  V30 14462 H 1341.68 4.16213 -0.34004 0
M  V30 14463 O 1342.15 1.15324 1.1306 0
M  V30 14464 H 1342.84 0.879509 1.72581 0
M  V30 END ATOM
M  V30 BEGIN BOND
M  V30 END BOND
M  V30 END CTAB
M  END
$$$$
