drugbank_target|Q8TD08 Mitogen-activated protein kinase 15 (DB12010)
 OpenBabel12092121163D

  0  0  0     0  0            999 V3000
M  V30 BEGIN CTAB
M  V30 COUNTS 8445 8544 0 0 0
M  V30 BEGIN ATOM
M  V30 1 H -0.908 1.98254 -0.117106 0
M  V30 2 N 0 1.576 0 0
M  V30 3 C 0.933 2.03868 1.02534 0
M  V30 4 C 1.911 0.928543 1.3348 0
M  V30 5 O 3.095 1.19667 1.45644 0
M  V30 6 C 0.222 2.43627 2.35294 0
M  V30 7 C -0.732 3.65373 2.2001 0
M  V30 8 S 0.101 5.13292 1.52614 0
M  V30 9 C 1.257 5.56322 2.86805 0
M  V30 10 H 1.49 2.90518 0.631377 0
M  V30 11 H -0.977 1.52953 0.210867 0
M  V30 12 H 0.981 2.67203 3.11629 0
M  V30 13 H -0.358 1.57376 2.7183 0
M  V30 14 H -1.165 3.90944 3.18086 0
M  V30 15 H -1.563 3.418 1.51819 0
M  V30 16 H 0.729 5.58782 3.83104 0
M  V30 17 H 1.672 6.56266 2.65933 0
M  V30 18 H 2.08 4.83886 2.90714 0
M  V30 19 N 1.4781 -0.272755 1.55222 0
M  V30 20 C 2.7181 -1.01197 1.77591 0
M  V30 21 C 3.0821 -1.8349 0.565294 0
M  V30 22 O 4.2831 -2.60387 0.667242 0
M  V30 23 C 2.5541 -1.87096 3.04516 0
M  V30 24 S 4.1131 -2.67279 3.48004 0
M  V30 25 H 0.9311 -0.340836 0.62398 0
M  V30 26 H 3.5331 -0.282374 1.9345 0
M  V30 27 H 2.2371 -1.25565 3.90719 0
M  V30 28 H 1.7681 -2.64376 2.91323 0
M  V30 29 H 3.7831 -3.89593 3.07297 0
M  V30 30 N 2.9562 -1.48159 -0.537278 0
M  V30 31 C 4.1842 -1.59454 -1.31841 0
M  V30 32 C 4.5992 -0.252065 -1.8711 0
M  V30 33 O 3.9562 0.757621 -1.66031 0
M  V30 34 C 4.0072 -2.63546 -2.47439 0
M  V30 35 O 3.7282 -3.92583 -1.94449 0
M  V30 36 C 5.2292 -2.85212 -3.39366 0
M  V30 37 H 2.4492 -0.53785 -0.401196 0
M  V30 38 H 4.9932 -1.93932 -0.648891 0
M  V30 39 H 3.1482 -2.31946 -3.1029 0
M  V30 40 H 3.5622 -4.49629 -2.70063 0
M  V30 41 H 5.0362 -3.61863 -4.16844 0
M  V30 42 H 5.5132 -1.93765 -3.94147 0
M  V30 43 H 6.1192 -3.18086 -2.82314 0
M  V30 44 N 4.4343 0.785586 -1.36625 0
M  V30 45 C 5.6803 1.54591 -1.31261 0
M  V30 46 C 6.0133 1.93906 0.106823 0
M  V30 47 O 5.2883 1.63007 1.06108 0
M  V30 48 C 5.5713 2.82038 -2.23889 0
M  V30 49 C 5.4243 2.49066 -3.74548 0
M  V30 50 C 6.7433 3.83887 -2.15217 0
M  V30 51 H 3.8623 0.560846 -0.478143 0
M  V30 52 H 6.5043 0.902278 -1.67209 0
M  V30 53 H 4.6543 3.36961 -1.93363 0
M  V30 54 H 6.3263 2.00164 -4.15611 0
M  V30 55 H 4.5693 1.81954 -3.93796 0
M  V30 56 H 5.2403 3.40109 -4.34776 0
M  V30 57 H 7.7163 3.38421 -2.42096 0
M  V30 58 H 6.5923 4.70806 -2.82193 0
M  V30 59 H 6.8533 4.27131 -1.14068 0
M  V30 60 N 5.9124 1.20967 1.01018 0
M  V30 61 C 7.1584 1.02526 1.74975 0
M  V30 62 C 7.4914 -0.4408 1.89131 0
M  V30 63 O 6.7664 -1.32718 1.42184 0
M  V30 64 C 7.0494 1.71699 3.1653 0
M  V30 65 C 6.9024 3.25791 3.10129 0
M  V30 66 C 8.2214 1.45531 4.15342 0
M  V30 67 H 5.3404 0.373863 0.635134 0
M  V30 68 H 7.9824 1.49071 1.17805 0
M  V30 69 H 6.1324 1.32128 3.65341 0
M  V30 70 H 7.8044 3.74697 2.69072 0
M  V30 71 H 6.0474 3.56363 2.47362 0
M  V30 72 H 6.7184 3.69353 4.10222 0
M  V30 73 H 9.1944 1.79872 3.75213 0
M  V30 74 H 8.0704 1.96453 5.1254 0
M  V30 75 H 8.3314 0.384237 4.40427 0
M  V30 76 N 7.3905 -1.2043 1.01659 0
M  V30 77 C 8.6675 -1.8548 0.621004 0
M  V30 78 C 9.0475 -1.9091 -0.900919 0
M  V30 79 O 8.3955 -1.41694 -1.79263 0
M  V30 80 C 8.6055 -3.25119 1.2688 0
M  V30 81 C 9.9535 -4.01403 1.38423 0
M  V30 82 O 10.9775 -3.34473 1.22501 0
M  V30 83 O 9.8365 -5.21265 1.64151 0
M  V30 84 H 6.9305 -0.798761 0.214266 0
M  V30 85 H 9.4765 -1.28019 1.11396 0
M  V30 86 H 8.2485 -3.15932 2.30873 0
M  V30 87 H 7.8715 -3.90212 0.762917 0
M  V30 88 N 8.8686 -0.792821 -1.36206 0
M  V30 89 C 10.2796 -0.429513 -1.81692 0
M  V30 90 C 10.6306 1.04695 -1.65932 0
M  V30 91 O 9.7556 1.81256 -1.18218 0
M  V30 92 C 10.3506 -0.772831 -3.29868 0
M  V30 93 C 8.9096 -0.462307 -3.7355 0
M  V30 94 C 8.0566 -1.00569 -2.5842 0
M  V30 95 H 11.0076 -0.985672 -1.24379 0
M  V30 96 H 11.0286 -0.0651928 -3.80444 0
M  V30 97 H 10.5406 -1.84747 -3.41307 0
M  V30 98 H 8.6416 0.604158 -3.67669 0
M  V30 99 H 8.7546 -0.985299 -4.68859 0
M  V30 100 H 7.1186 -0.428734 -2.51066 0
M  V30 101 H 7.9016 -2.08616 -2.72643 0
M  V30 102 N 10.3467 1.47872 -0.545128 0
M  V30 103 C 11.7627 1.5829 -0.204032 0
M  V30 104 C 11.9627 1.54529 1.29317 0
M  V30 105 O 11.0187 1.44232 2.07252 0
M  V30 106 C 12.3317 2.89304 -0.819987 0
M  V30 107 C 13.8797 3.02864 -0.790105 0
M  V30 108 C 14.3547 4.3656 -1.38491 0
M  V30 109 N 15.8457 4.43165 -1.34755 0
M  V30 110 C 16.5807 5.45153 -1.77753 0
M  V30 111 N 16.0767 6.54016 -2.2855 0
M  V30 112 N 17.8697 5.36125 -1.68897 0
M  V30 113 H 10.0207 1.4856 -1.51802 0
M  V30 114 H 12.2837 0.706305 -0.632327 0
M  V30 115 H 11.9897 2.97757 -1.87173 0
M  V30 116 H 11.8637 3.75957 -0.305915 0
M  V30 117 H 14.2507 2.94014 0.252913 0
M  V30 118 H 14.3317 2.17782 -1.34181 0
M  V30 119 H 13.9757 4.46164 -2.42693 0
M  V30 120 H 13.9057 5.20353 -0.808754 0
M  V30 121 H 16.3967 3.65083 -0.975855 0
M  V30 122 H 16.7097 7.27994 -2.59314 0
M  V30 123 H 15.0547 6.54938 -2.32553 0
M  V30 124 H 18.2457 4.49975 -1.28998 0
M  V30 125 H 18.4187 6.15472 -2.02726 0
M  V30 126 N 11.8248 0.280983 1.55075 0
M  V30 127 C 13.0738 -0.334784 1.98902 0
M  V30 128 C 13.3868 -1.56534 1.17288 0
M  V30 129 O 14.5928 -2.25443 1.51287 0
M  V30 130 C 13.0488 -0.646994 3.54037 0
M  V30 131 C 12.6568 0.564085 4.44435 0
M  V30 132 C 14.4008 -1.22506 4.06439 0
M  V30 133 C 12.3078 0.226137 5.90967 0
M  V30 134 H 11.2378 -0.128866 0.742906 0
M  V30 135 H 13.8888 0.386556 1.79382 0
M  V30 136 H 12.2708 -1.42739 3.6938 0
M  V30 137 H 13.4448 1.34082 4.40861 0
M  V30 138 H 11.7598 1.0594 4.02698 0
M  V30 139 H 14.3568 -1.49182 5.13468 0
M  V30 140 H 14.6998 -2.16085 3.55827 0
M  V30 141 H 15.2328 -0.50682 3.94558 0
M  V30 142 H 11.9718 1.12996 6.45687 0
M  V30 143 H 11.4918 -0.513717 5.97596 0
M  V30 144 H 13.1708 -0.179539 6.46751 0
M  V30 145 N 13.3029 -1.57598 0.00835791 0
M  V30 146 C 14.5489 -1.91211 -0.675732 0
M  V30 147 C 14.8819 -0.883139 -1.72958 0
M  V30 148 O 14.1569 0.097016 -1.94258 0
M  V30 149 C 14.4399 -3.35379 -1.31123 0
M  V30 150 C 14.2929 -4.48999 -0.268356 0
M  V30 151 C 15.6119 -3.7912 -2.23508 0
M  V30 152 H 12.7309 -0.695374 -0.244179 0
M  V30 153 H 15.3729 -1.89901 0.0613655 0
M  V30 154 H 13.5229 -3.36626 -1.93946 0
M  V30 155 H 15.1949 -4.59887 0.360844 0
M  V30 156 H 13.4379 -4.31873 0.408482 0
M  V30 157 H 14.1089 -5.46851 -0.752218 0
M  V30 158 H 16.5849 -3.79477 -1.70693 0
M  V30 159 H 15.4609 -4.80729 -2.64936 0
M  V30 160 H 15.7219 -3.13455 -3.11766 0
M  V30 161 N 14.781 0.264519 -1.55364 0
M  V30 162 C 16.197 0.61215 -1.47394 0
M  V30 163 C 16.397 1.89134 -0.695018 0
M  V30 164 O 15.453 2.51563 -0.217275 0
M  V30 165 C 16.766 0.731235 -2.91674 0
M  V30 166 C 18.314 0.82473 -3.01939 0
M  V30 167 C 18.789 0.975522 -4.4749 0
M  V30 168 N 20.28 1.04083 -4.51354 0
M  V30 169 C 21.015 1.17646 -5.61201 0
M  V30 170 N 20.511 1.27874 -6.80896 0
M  V30 171 N 22.304 1.20823 -5.48961 0
M  V30 172 H 14.455 -0.575456 -2.04456 0
M  V30 173 H 16.718 -0.196099 -0.927496 0
M  V30 174 H 16.424 -0.138392 -3.51428 0
M  V30 175 H 16.298 1.60883 -3.41169 0
M  V30 176 H 18.685 1.68482 -2.42276 0
M  V30 177 H 18.766 -0.0776479 -2.55682 0
M  V30 178 H 18.41 0.120058 -5.07758 0
M  V30 179 H 18.34 1.89268 -4.91412 0
M  V30 180 H 20.831 0.973846 -3.65136 0
M  V30 181 H 21.144 1.38081 -7.60364 0
M  V30 182 H 19.489 1.24863 -6.83692 0
M  V30 183 H 22.68 1.12469 -4.54388 0
M  V30 184 H 22.853 1.31049 -6.3461 0
M  V30 185 N 16.2591 1.48442 0.529413 0
M  V30 186 C 17.6751 1.34575 0.858004 0
M  V30 187 C 17.8751 0.3572 1.98309 0
M  V30 188 O 16.9311 -0.221379 2.51528 0
M  V30 189 C 18.2441 2.74617 1.22499 0
M  V30 190 C 19.7921 2.83109 1.33484 0
M  V30 191 C 20.2671 4.23854 1.73526 0
M  V30 192 N 21.7581 4.2653 1.80628 0
M  V30 193 C 22.4931 5.32372 2.12997 0
M  V30 194 N 21.9891 6.48491 2.43786 0
M  V30 195 N 23.7821 5.19766 2.14008 0
M  V30 196 H 15.9331 2.1133 -0.212925 0
M  V30 197 H 18.1961 0.947439 -0.0326199 0
M  V30 198 H 17.9021 3.4852 0.471905 0
M  V30 199 H 17.7761 3.08177 2.17501 0
M  V30 200 H 20.1631 2.09462 2.0787 0
M  V30 201 H 20.2441 2.53168 0.366027 0
M  V30 202 H 19.8881 4.98018 0.997013 0
M  V30 203 H 19.8181 4.5124 2.71459 0
M  V30 204 H 22.3091 3.42772 1.59108 0
M  V30 205 H 22.6221 7.24993 2.67592 0
M  V30 206 H 20.9671 6.51765 2.41304 0
M  V30 207 H 24.1581 4.28066 1.89412 0
M  V30 208 H 24.3311 6.02354 2.38902 0
M  V30 209 N 17.7372 -0.778329 1.37039 0
M  V30 210 C 18.9672 -1.56507 1.34868 0
M  V30 211 C 19.3752 -1.89072 -0.0694802 0
M  V30 212 O 18.7182 -1.51434 -1.03987 0
M  V30 213 C 18.7802 -2.90641 2.11585 0
M  V30 214 C 18.4442 -2.80746 3.60598 0
M  V30 215 C 19.4412 -2.52226 4.54618 0
M  V30 216 C 17.1262 -2.98974 4.03633 0
M  V30 217 C 19.1202 -2.42054 5.89651 0
M  V30 218 C 16.8072 -2.88423 5.38754 0
M  V30 219 C 17.8052 -2.60002 6.31576 0
M  V30 220 O 17.4932 -2.49465 7.64214 0
M  V30 221 H 17.2252 -0.491723 0.463879 0
M  V30 222 H 19.7792 -0.973053 1.80889 0
M  V30 223 H 18.0092 -3.51936 1.60243 0
M  V30 224 H 19.6982 -3.51992 2.0213 0
M  V30 225 H 20.4642 -2.37835 4.22681 0
M  V30 226 H 16.3432 -3.20099 3.31749 0
M  V30 227 H 19.8872 -2.19791 6.62071 0
M  V30 228 H 15.7842 -3.0238 5.70295 0
M  V30 229 H 16.5522 -2.64864 7.74461 0
M  V30 230 N 19.2153 -1.21501 -1.00376 0
M  V30 231 C 20.1453 -0.999478 -2.11028 0
M  V30 232 C 21.1263 0.0759671 -1.6993 0
M  V30 233 O 22.3113 -0.0841106 -1.94018 0
M  V30 234 C 19.4413 -0.564709 -3.42678 0
M  V30 235 C 18.3953 -1.58486 -3.97576 0
M  V30 236 C 17.7213 -1.00628 -5.25146 0
M  V30 237 C 19.0213 -2.97204 -4.29496 0
M  V30 238 H 20.7153 -1.92495 -2.29317 0
M  V30 239 H 18.2613 -0.92693 -1.102 0
M  V30 240 H 20.2143 -0.401091 -4.19487 0
M  V30 241 H 18.9383 0.396411 -3.24185 0
M  V30 242 H 17.5973 -1.73606 -3.22888 0
M  V30 243 H 17.2453 -0.0368439 -5.02987 0
M  V30 244 H 16.9453 -1.68771 -5.62841 0
M  V30 245 H 18.4693 -0.854015 -6.04598 0
M  V30 246 H 19.8833 -2.8552 -4.97143 0
M  V30 247 H 18.2803 -3.62372 -4.78338 0
M  V30 248 H 19.3503 -3.47956 -3.3772 0
M  V30 249 N 20.6934 1.19889 -1.02296 0
M  V30 250 C 21.6234 2.25141 -0.619174 0
M  V30 251 C 22.6044 1.66051 0.368915 0
M  V30 252 O 23.7894 1.92546 0.252941 0
M  V30 253 C 20.9194 3.4728 0.0368783 0
M  V30 254 C 19.8734 4.19005 -0.872865 0
M  V30 255 C 19.1994 5.34637 -0.0822402 0
M  V30 256 C 20.4994 4.74452 -2.18387 0
M  V30 257 H 22.1934 2.59171 -1.49903 0
M  V30 258 H 19.7394 1.24579 -0.722222 0
M  V30 259 H 21.6924 4.20098 0.330958 0
M  V30 260 H 20.4164 3.12433 0.95149 0
M  V30 261 H 19.0754 3.48061 -1.15105 0
M  V30 262 H 18.7234 4.96034 0.83422 0
M  V30 263 H 18.4234 5.83557 -0.688149 0
M  V30 264 H 19.9474 6.10255 0.205238 0
M  V30 265 H 21.3614 5.39055 -1.95172 0
M  V30 266 H 19.7584 5.33834 -2.74119 0
M  V30 267 H 20.8284 3.92844 -2.84257 0
M  V30 268 N 22.1715 0.800033 1.35784 0
M  V30 269 C 23.5875 0.482977 1.52117 0
M  V30 270 C 23.7875 -0.996948 1.75109 0
M  V30 271 O 22.8435 -1.78216 1.78872 0
M  V30 272 C 24.1565 1.32264 2.70049 0
M  V30 273 C 25.7045 1.31742 2.83924 0
M  V30 274 C 26.1795 2.14106 4.04874 0
M  V30 275 N 27.6705 2.11607 4.12039 0
M  V30 276 C 28.4055 2.72099 5.04727 0
M  V30 277 N 27.9015 3.41492 6.02789 0
M  V30 278 N 29.6945 2.61776 4.97423 0
M  V30 279 H 21.8455 1.75856 1.19115 0
M  V30 280 H 24.1085 0.748122 0.582252 0
M  V30 281 H 23.8145 2.37261 2.59616 0
M  V30 282 H 23.6885 0.971303 3.6448 0
M  V30 283 H 26.0755 0.275333 2.93813 0
M  V30 284 H 26.1565 1.70859 1.9037 0
M  V30 285 H 25.8005 3.18351 3.95746 0
M  V30 286 H 25.7305 1.72353 4.97596 0
M  V30 287 H 28.2215 1.61112 3.41835 0
M  V30 288 H 28.5345 3.84953 6.70098 0
M  V30 289 H 26.8795 3.45596 6.02983 0
M  V30 290 H 30.0705 2.07157 4.19766 0
M  V30 291 H 30.2435 3.0921 5.69468 0
M  V30 292 N 23.6496 -1.47581 0.552962 0
M  V30 293 C 25.0656 -1.5818 0.212424 0
M  V30 294 C 25.2656 -1.55213 -1.28496 0
M  V30 295 O 24.3216 -1.45329 -2.06484 0
M  V30 296 C 25.6346 -2.88865 0.835318 0
M  V30 297 C 27.1826 -3.0244 0.806156 0
M  V30 298 C 27.6576 -4.35819 1.40804 0
M  V30 299 N 29.1486 -4.42444 1.37103 0
M  V30 300 C 29.8836 -5.44202 1.80641 0
M  V30 301 N 29.3796 -6.52795 2.32015 0
M  V30 302 N 31.1726 -5.35222 1.71738 0
M  V30 303 H 23.3236 -1.47753 1.52587 0
M  V30 304 H 25.5866 -0.702941 0.636064 0
M  V30 305 H 25.2926 -2.9676 1.88749 0
M  V30 306 H 25.1666 -3.7579 0.325848 0
M  V30 307 H 27.5536 -2.94144 -0.237317 0
M  V30 308 H 27.6346 -2.17068 1.35334 0
M  V30 309 H 27.2786 -4.44871 2.45056 0
M  V30 310 H 27.2086 -5.19916 0.836338 0
M  V30 311 H 29.6996 -3.6456 0.995202 0
M  V30 312 H 30.0126 -7.26609 2.63171 0
M  V30 313 H 28.3576 -6.53696 2.36023 0
M  V30 314 H 31.5486 -4.49284 1.31382 0
M  V30 315 H 31.7216 -6.14389 2.05987 0
M  V30 316 N 25.1277 -0.289203 -1.54924 0
M  V30 317 C 26.0597 0.625583 -2.20497 0
M  V30 318 C 27.0727 1.10667 -1.19402 0
M  V30 319 O 28.2617 1.02615 -1.46056 0
M  V30 320 C 25.3617 1.86702 -2.82835 0
M  V30 321 C 24.5347 1.5304 -4.09753 0
M  V30 322 C 23.5937 2.62576 -4.56005 0
M  V30 323 O 22.6197 2.28167 -5.21468 0
M  V30 324 N 23.8217 3.92901 -4.27328 0
M  V30 325 H 26.5867 0.0642801 -2.99631 0
M  V30 326 H 24.1477 -0.110896 -1.6152 0
M  V30 327 H 26.1397 2.59304 -3.10715 0
M  V30 328 H 24.7097 2.33702 -2.07611 0
M  V30 329 H 23.9297 0.637564 -3.8901 0
M  V30 330 H 25.2177 1.28072 -4.92418 0
M  V30 331 H 24.6157 4.23671 -3.74859 0
M  V30 332 H 23.1727 4.61837 -4.59946 0
M  V30 333 N 26.6058 1.57591 -0.0167156 0
M  V30 334 C 27.5358 2.12496 0.967858 0
M  V30 335 C 28.5168 1.03807 1.34752 0
M  V30 336 O 29.7018 1.31577 1.42833 0
M  V30 337 C 26.8318 2.64194 2.25431 0
M  V30 338 C 25.7858 3.77559 2.01576 0
M  V30 339 C 25.1118 4.15636 3.36379 0
M  V30 340 C 26.4118 5.04151 1.36489 0
M  V30 341 H 28.1058 2.95013 0.510643 0
M  V30 342 H 25.6518 1.41915 0.244181 0
M  V30 343 H 27.6048 3.01236 2.94678 0
M  V30 344 H 26.3288 1.78821 2.73296 0
M  V30 345 H 24.9878 3.40937 1.34751 0
M  V30 346 H 24.6358 3.27263 3.81979 0
M  V30 347 H 24.3358 4.92022 3.21229 0
M  V30 348 H 25.8598 4.5525 4.06915 0
M  V30 349 H 27.2738 5.38857 1.95718 0
M  V30 350 H 25.6708 5.85453 1.31776 0
M  V30 351 H 26.7408 4.83733 0.336219 0
M  V30 352 N 28.0839 -0.256276 1.55502 0
M  V30 353 C 29.3319 -0.983672 1.76545 0
M  V30 354 C 29.6529 -1.86206 0.578982 0
M  V30 355 O 28.9229 -1.91656 -0.405577 0
M  V30 356 H 27.5029 -0.366191 0.651086 0
M  V30 357 H 30.1649 -0.276479 1.92929 0
M  V30 358 H 29.2609 -1.61087 2.67315 0
M  V30 359 N 29.562 -1.4872 -0.521534 0
M  V30 360 C 30.494 -1.59968 -1.64143 0
M  V30 361 C 31.507 -0.483463 -1.55456 0
M  V30 362 O 32.696 -0.75467 -1.61762 0
M  V30 363 C 29.796 -1.52127 -3.02838 0
M  V30 364 C 28.969 -2.78932 -3.36921 0
M  V30 365 C 28.028 -2.64428 -4.54933 0
M  V30 366 O 27.054 -3.38331 -4.57735 0
M  V30 367 N 28.256 -1.74606 -5.53618 0
M  V30 368 H 31.021 -2.56548 -1.54929 0
M  V30 369 H 28.582 -1.45551 -0.708988 0
M  V30 370 H 30.574 -1.40106 -3.79674 0
M  V30 371 H 29.144 -0.634868 -3.06085 0
M  V30 372 H 28.364 -3.05455 -2.4918 0
M  V30 373 H 29.652 -3.63041 -3.56481 0
M  V30 374 H 29.05 -1.13782 -5.54139 0
M  V30 375 H 27.607 -1.6852 -6.29638 0
M  V30 376 N 31.0401 0.771051 -1.3745 0
M  V30 377 C 32.2881 1.52661 -1.32435 0
M  V30 378 C 32.6091 1.9479 0.0905024 0
M  V30 379 O 31.8791 1.66348 1.03466 0
M  V30 380 H 30.4591 0.566218 -0.487244 0
M  V30 381 H 33.1211 0.917636 -1.71946 0
M  V30 382 H 32.2171 2.42568 -1.96385 0
M  V30 383 N 32.5182 1.22032 0.997298 0
M  V30 384 C 33.4812 0.987909 2.06816 0
M  V30 385 C 34.4812 -0.0440084 1.6074 0
M  V30 386 O 35.6712 0.194053 1.73116 0
M  V30 387 C 32.8032 0.49132 3.37341 0
M  V30 388 H 33.9962 1.93803 2.28868 0
M  V30 389 H 31.5492 1.03838 1.16822 0
M  V30 390 H 32.2842 -0.463364 3.20973 0
M  V30 391 H 32.0692 1.23575 3.72118 0
M  V30 392 H 33.5592 0.348824 4.16141 0
M  V30 393 N 33.9963 -1.19345 1.0293 0
M  V30 394 C 35.2263 -1.92717 0.744563 0
M  V30 395 C 35.6343 -1.75751 -0.700579 0
M  V30 396 O 34.9773 -1.07703 -1.48815 0
M  V30 397 C 35.0393 -3.44828 1.01657 0
M  V30 398 C 34.7033 -3.85564 2.45335 0
M  V30 399 C 35.7003 -3.90286 3.43472 0
M  V30 400 C 33.3853 -4.1719 2.79746 0
M  V30 401 C 35.3793 -4.26065 4.74075 0
M  V30 402 C 33.0663 -4.52642 4.10559 0
M  V30 403 C 34.0643 -4.57054 5.07534 0
M  V30 404 O 33.7523 -4.91685 6.36004 0
M  V30 405 H 33.4843 -0.618977 0.271742 0
M  V30 406 H 36.0383 -1.52415 1.37691 0
M  V30 407 H 34.2683 -3.85314 0.327084 0
M  V30 408 H 35.9573 -3.99437 0.721427 0
M  V30 409 H 36.7233 -3.66002 3.18225 0
M  V30 410 H 32.6023 -4.1294 2.04943 0
M  V30 411 H 36.1463 -4.29423 5.49765 0
M  V30 412 H 32.0433 -4.76383 4.35579 0
M  V30 413 H 32.8113 -5.09631 6.40483 0
M  V30 414 N 35.4744 -0.807222 -1.35358 0
M  V30 415 C 36.7224 -0.387122 -1.98358 0
M  V30 416 C 37.0434 1.04942 -1.64354 0
M  V30 417 O 36.3134 1.72615 -0.926339 0
M  V30 418 H 34.8934 -0.140154 -0.733734 0
M  V30 419 H 37.5554 -1.0332 -1.6526 0
M  V30 420 H 36.6514 -0.493352 -3.08176 0
M  V30 421 N 36.9525 1.47285 -0.560781 0
M  V30 422 C 38.2015 2.01668 -0.035895 0
M  V30 423 C 38.5145 1.44021 1.32353 0
M  V30 424 O 39.7205 1.90088 1.93853 0
M  V30 425 C 38.1765 3.59897 -0.0136659 0
M  V30 426 C 37.7845 4.26536 -1.37006 0
M  V30 427 C 39.5285 4.22017 0.458425 0
M  V30 428 C 37.4355 5.76782 -1.30675 0
M  V30 429 H 36.3655 0.753938 -0.00964879 0
M  V30 430 H 39.0165 1.69243 -0.709166 0
M  V30 431 H 37.3985 3.89301 0.725325 0
M  V30 432 H 38.5725 4.0877 -2.12705 0
M  V30 433 H 36.8875 3.76419 -1.78038 0
M  V30 434 H 39.4845 5.32124 0.524247 0
M  V30 435 H 39.8275 3.89437 1.4712 0
M  V30 436 H 40.3605 3.97159 -0.225818 0
M  V30 437 H 37.0995 6.13988 -2.29564 0
M  V30 438 H 36.6195 5.96875 -0.591622 0
M  V30 439 H 38.2985 6.39063 -1.01033 0
M  V30 440 N 38.4306 0.297415 1.54768 0
M  V30 441 C 39.6766 -0.313376 2.00364 0
M  V30 442 C 40.0096 -1.53815 1.18553 0
M  V30 443 O 39.2846 -1.92739 0.261103 0
M  V30 444 C 39.5676 -0.673525 3.53745 0
M  V30 445 C 39.4206 0.560133 4.46299 0
M  V30 446 C 40.7396 -1.50143 4.13697 0
M  V30 447 H 37.8586 -0.112428 0.728374 0
M  V30 448 H 40.5006 0.4088 1.8555 0
M  V30 449 H 38.6506 -1.28881 3.665 0
M  V30 450 H 40.3226 1.19863 4.45455 0
M  V30 451 H 38.5656 1.19405 4.17043 0
M  V30 452 H 39.2366 0.26405 5.51368 0
M  V30 453 H 41.7126 -0.981588 4.04356 0
M  V30 454 H 40.5886 -1.72221 5.21182 0
M  V30 455 H 40.8496 -2.48952 3.65343 0
M  V30 456 N 39.9087 -1.5758 0.0250728 0
M  V30 457 C 41.1547 -1.92746 -0.649648 0
M  V30 458 C 41.5097 -0.901588 -1.69968 0
M  V30 459 O 40.8027 0.0829251 -1.9142 0
M  V30 460 C 40.9967 -3.32421 -1.31268 0
M  V30 461 C 40.8257 -4.48499 -0.328394 0
M  V30 462 C 39.5957 -5.05251 0.070284 0
M  V30 463 C 41.7937 -5.12618 0.415665 0
M  V30 464 N 39.7757 -6.04851 1.05016 0
M  V30 465 C 41.1467 -6.0728 1.24943 0
M  V30 466 C 43.2017 -4.95612 0.476803 0
M  V30 467 C 41.9047 -6.86766 2.1388 0
M  V30 468 C 43.9307 -5.75703 1.3535 0
M  V30 469 C 43.2927 -6.69978 2.17504 0
M  V30 470 H 39.3917 -0.753231 -0.210159 0
M  V30 471 H 41.9757 -1.94486 0.0912999 0
M  V30 472 H 40.1467 -3.31508 -2.02379 0
M  V30 473 H 41.8787 -3.54946 -1.94411 0
M  V30 474 H 38.6337 -4.72628 -0.303323 0
M  V30 475 H 39.0577 -6.5934 1.53622 0
M  V30 476 H 43.6997 -4.22554 -0.144105 0
M  V30 477 H 41.4177 -7.59132 2.77027 0
M  V30 478 H 45.0037 -5.64579 1.40504 0
M  V30 479 H 43.8837 -7.30873 2.84244 0
M  V30 480 N 41.3868 0.248026 -1.55636 0
M  V30 481 C 42.3338 1.30707 -1.90222 0
M  V30 482 C 43.3038 1.47881 -0.756332 0
M  V30 483 O 44.4888 1.61883 -1.00988 0
M  V30 484 C 41.6288 2.65769 -2.20138 0
M  V30 485 C 40.7418 2.56612 -3.47526 0
M  V30 486 C 39.8768 3.8402 -3.67017 0
M  V30 487 C 38.9158 3.69476 -4.8801 0
M  V30 488 N 38.0528 4.88774 -5.04029 0
M  V30 489 H 42.8928 1.00512 -2.80538 0
M  V30 490 H 40.4298 0.485055 -1.38873 0
M  V30 491 H 42.3878 3.44386 -2.35487 0
M  V30 492 H 41.0178 2.94115 -1.33027 0
M  V30 493 H 40.0698 1.69571 -3.40514 0
M  V30 494 H 41.3818 2.41774 -4.36287 0
M  V30 495 H 40.5358 4.7108 -3.8232 0
M  V30 496 H 39.2748 4.01754 -2.76487 0
M  V30 497 H 38.2798 2.80799 -4.72686 0
M  V30 498 H 39.5048 3.53238 -5.8 0
M  V30 499 H 37.4508 5.0687 -4.16435 0
M  V30 500 H 37.3678 4.76562 -5.86877 0
M  V30 501 H 38.6358 5.77335 -5.23741 0
M  V30 502 N 42.8649 1.48995 0.513639 0
M  V30 503 C 43.8279 1.64229 1.59879 0
M  V30 504 C 44.8279 0.514696 1.5234 0
M  V30 505 O 46.0179 0.78087 1.55718 0
M  V30 506 C 43.1499 1.62783 2.99524 0
M  V30 507 H 44.3429 2.61004 1.47705 0
M  V30 508 H 41.8959 1.37837 0.736936 0
M  V30 509 H 42.6309 0.675461 3.17188 0
M  V30 510 H 42.4159 2.4466 3.06404 0
M  V30 511 H 43.9059 1.76669 3.78388 0
M  V30 512 N 44.343 -0.763751 1.37857 0
M  V30 513 C 45.589 -1.52483 1.33704 0
M  V30 514 C 45.922 -1.94051 -0.0759612 0
M  V30 515 O 45.197 -1.64675 -1.03501 0
M  V30 516 C 45.48 -2.78441 2.28348 0
M  V30 517 C 45.333 -2.43075 3.78463 0
M  V30 518 C 46.652 -3.80415 2.21298 0
M  V30 519 H 43.771 -0.553169 0.487005 0
M  V30 520 H 46.413 -0.875562 1.68624 0
M  V30 521 H 44.563 -3.33842 1.987 0
M  V30 522 H 46.235 -1.93527 4.18742 0
M  V30 523 H 44.478 -1.75666 3.96641 0
M  V30 524 H 45.149 -3.33149 4.40132 0
M  V30 525 H 47.625 -3.34527 2.47449 0
M  V30 526 H 46.501 -4.66257 2.89647 0
M  V30 527 H 46.762 -4.25262 1.20849 0
M  V30 528 N 45.8211 -1.22559 -0.990812 0
M  V30 529 C 47.0981 -0.959875 -1.70428 0
M  V30 530 C 47.4781 0.524455 -2.04481 0
M  V30 531 O 46.8261 1.49302 -1.72977 0
M  V30 532 C 47.0361 -1.85955 -2.95333 0
M  V30 533 C 48.3841 -2.11687 -3.68068 0
M  V30 534 O 49.4081 -1.8342 -3.05345 0
M  V30 535 O 48.2671 -2.59572 -4.80921 0
M  V30 536 H 45.3611 -0.361154 -0.743974 0
M  V30 537 H 47.9071 -1.33554 -1.04697 0
M  V30 538 H 46.6791 -2.86346 -2.66687 0
M  V30 539 H 46.3021 -1.4856 -3.68803 0
M  V30 540 N 47.2992 1.18797 -1.03562 0
M  V30 541 C 48.7152 1.40671 -0.753917 0
M  V30 542 C 48.9152 1.9043 0.658686 0
M  V30 543 O 47.9712 2.08538 1.42366 0
M  V30 544 C 49.2842 2.41192 -1.79574 0
M  V30 545 C 50.8322 2.54928 -1.81606 0
M  V30 546 C 51.3072 3.58709 -2.84766 0
M  V30 547 N 52.7982 3.66212 -2.83625 0
M  V30 548 C 53.5332 4.46225 -3.60098 0
M  V30 549 N 53.0292 5.29888 -4.46308 0
M  V30 550 N 54.8222 4.40939 -3.4861 0
M  V30 551 H 46.9732 0.848221 -1.94728 0
M  V30 552 H 49.2362 0.435081 -0.842264 0
M  V30 553 H 48.9422 2.11669 -2.80872 0
M  V30 554 H 48.8162 3.40467 -1.62365 0
M  V30 555 H 51.2032 2.83771 -0.809817 0
M  V30 556 H 51.2842 1.55784 -2.02891 0
M  V30 557 H 50.9282 3.30607 -3.85566 0
M  V30 558 H 50.8582 4.57519 -2.60737 0
M  V30 559 H 53.3492 3.06466 -2.21105 0
M  V30 560 H 53.6622 5.88078 -5.01382 0
M  V30 561 H 52.0072 5.29326 -4.50377 0
M  V30 562 H 55.1982 3.74624 -2.80668 0
M  V30 563 H 55.3712 5.03056 -4.08459 0
M  V30 564 N 48.7773 0.814389 1.34928 0
M  V30 565 C 50.1933 0.499084 1.51596 0
M  V30 566 C 50.3933 -0.978319 1.76157 0
M  V30 567 O 49.4493 -1.76309 1.80752 0
M  V30 568 C 50.7623 1.35121 2.68631 0
M  V30 569 C 52.3103 1.34746 2.82511 0
M  V30 570 C 52.7853 2.18388 4.0258 0
M  V30 571 N 54.2763 2.15966 4.09772 0
M  V30 572 C 55.0113 2.77437 5.01813 0
M  V30 573 N 54.5073 3.47866 5.99134 0
M  V30 574 N 56.3003 2.67037 4.94619 0
M  V30 575 H 48.4513 1.7711 1.17243 0
M  V30 576 H 50.7143 0.754256 0.574284 0
M  V30 577 H 50.4203 2.40001 2.57085 0
M  V30 578 H 50.2943 1.00991 3.63429 0
M  V30 579 H 52.6813 0.30648 2.93504 0
M  V30 580 H 52.7623 1.72869 1.88547 0
M  V30 581 H 52.4063 3.2253 3.92347 0
M  V30 582 H 52.3363 1.77621 4.9574 0
M  V30 583 H 54.8273 1.64729 3.40107 0
M  V30 584 H 55.1403 3.92038 6.65977 0
M  V30 585 H 53.4853 3.51972 5.99284 0
M  V30 586 H 56.6763 2.11597 4.17546 0
M  V30 587 H 56.8493 3.15232 5.66156 0
M  V30 588 N 50.2554 -1.46986 0.568584 0
M  V30 589 C 51.4834 -2.0683 0.0539956 0
M  V30 590 C 51.8984 -1.41953 -1.24478 0
M  V30 591 O 51.2554 -0.519933 -1.74937 0
M  V30 592 C 51.3064 -3.61254 -0.133362 0
M  V30 593 O 51.0274 -4.237 1.11399 0
M  V30 594 C 52.5284 -4.37992 -0.683927 0
M  V30 595 H 49.7484 -0.669058 0.0510141 0
M  V30 596 H 52.2924 -1.88824 0.785234 0
M  V30 597 H 50.4474 -3.78735 -0.81477 0
M  V30 598 H 50.8614 -5.16388 0.91888 0
M  V30 599 H 52.3354 -5.46684 -0.764263 0
M  V30 600 H 52.8124 -4.05058 -1.69778 0
M  V30 601 H 53.4184 -4.25283 -0.0378494 0
M  V30 602 N 51.7335 -0.305618 -1.54608 0
M  V30 603 C 52.9815 0.301701 -1.99835 0
M  V30 604 C 53.3025 1.54054 -1.19551 0
M  V30 605 O 52.5725 1.93702 -0.292658 0
M  V30 606 H 51.1525 0.114468 -0.738178 0
M  V30 607 H 53.8145 -0.418016 -1.90364 0
M  V30 608 H 52.9105 0.570548 -3.06841 0
M  V30 609 N 53.2116 1.57565 -0.0334293 0
M  V30 610 C 54.1216 2.13943 0.962572 0
M  V30 611 C 55.1376 1.09276 1.35406 0
M  V30 612 O 56.3136 1.41355 1.4346 0
M  V30 613 C 53.3786 2.65887 2.22497 0
M  V30 614 C 52.4396 3.85286 1.8935 0
M  V30 615 C 51.6726 4.34743 3.09571 0
M  V30 616 O 51.8956 3.83352 4.22371 0
M  V30 617 O 50.8296 5.26538 2.91618 0
M  V30 618 H 54.6556 2.99333 0.513169 0
M  V30 619 H 52.2406 1.4822 0.18743 0
M  V30 620 H 54.1226 2.99346 2.96598 0
M  V30 621 H 52.7976 1.83578 2.6661 0
M  V30 622 H 51.7046 3.56746 1.1262 0
M  V30 623 H 53.0376 4.68771 1.5005 0
M  V30 624 N 54.6897 -0.239769 1.55765 0
M  V30 625 C 55.9357 -0.968234 1.78194 0
M  V30 626 C 56.2687 -1.84701 0.599938 0
M  V30 627 O 55.5437 -1.9031 -0.401524 0
M  V30 628 C 55.8267 -1.8227 3.10564 0
M  V30 629 C 55.6797 -0.971633 4.3918 0
M  V30 630 C 56.9987 -2.80388 3.39221 0
M  V30 631 H 54.1177 -0.350572 0.648281 0
M  V30 632 H 56.7597 -0.238259 1.885 0
M  V30 633 H 54.9097 -2.44507 3.01908 0
M  V30 634 H 56.5817 -0.367408 4.59835 0
M  V30 635 H 54.8247 -0.276276 4.32919 0
M  V30 636 H 55.4957 -1.60346 5.28198 0
M  V30 637 H 57.9717 -2.28287 3.47885 0
M  V30 638 H 56.8477 -3.3729 4.33044 0
M  V30 639 H 57.1087 -3.57212 2.60484 0
M  V30 640 N 56.1678 -1.49265 -0.50573 0
M  V30 641 C 57.4138 -1.58748 -1.26202 0
M  V30 642 C 57.7468 -0.271227 -1.92297 0
M  V30 643 O 57.0218 0.724831 -1.80489 0
M  V30 644 C 57.3048 -2.74332 -2.33268 0
M  V30 645 C 57.1578 -4.15737 -1.71705 0
M  V30 646 C 58.4768 -2.85576 -3.34865 0
M  V30 647 H 55.5958 -0.577826 -0.457478 0
M  V30 648 H 58.2378 -1.81532 -0.560897 0
M  V30 649 H 56.3878 -2.55036 -2.93068 0
M  V30 650 H 58.0598 -4.46537 -1.15769 0
M  V30 651 H 56.3028 -4.21605 -1.02135 0
M  V30 652 H 56.9738 -4.92477 -2.49341 0
M  V30 653 H 59.4498 -3.03127 -2.8505 0
M  V30 654 H 58.3258 -3.68135 -4.07146 0
M  V30 655 H 58.5868 -1.94732 -3.96903 0
M  V30 656 N 57.6459 0.756429 -1.3826 0
M  V30 657 C 58.6089 1.85176 -1.35065 0
M  V30 658 C 59.6089 1.58818 -0.251703 0
M  V30 659 O 60.7989 1.66615 -0.508433 0
M  V30 660 C 57.9309 3.22596 -1.10201 0
M  V30 661 H 59.1239 1.89417 -2.3251 0
M  V30 662 H 56.6769 0.95783 -1.23512 0
M  V30 663 H 57.4119 3.24025 -0.133504 0
M  V30 664 H 57.1969 3.43122 -1.89762 0
M  V30 665 H 58.6869 4.02673 -1.10654 0
M  V30 666 N 59.124 1.23083 0.984299 0
M  V30 667 C 60.373 1.05466 1.71929 0
M  V30 668 C 60.686 -0.409211 1.91272 0
M  V30 669 O 61.892 -0.705226 2.62181 0
M  V30 670 C 60.348 1.83874 3.09384 0
M  V30 671 C 59.956 3.34566 2.97943 0
M  V30 672 C 61.7 1.74734 3.8687 0
M  V30 673 C 59.607 4.05381 4.30605 0
M  V30 674 H 58.537 0.391039 0.644674 0
M  V30 675 H 61.188 1.47013 1.09815 0
M  V30 676 H 59.57 1.35131 3.72231 0
M  V30 677 H 60.744 3.90767 2.44209 0
M  V30 678 H 59.059 3.44476 2.33934 0
M  V30 679 H 61.656 2.24957 4.85076 0
M  V30 680 H 61.999 0.709372 4.10212 0
M  V30 681 H 62.532 2.21067 3.30717 0
M  V30 682 H 59.271 5.09467 4.1246 0
M  V30 683 H 58.791 3.53967 4.84218 0
M  V30 684 H 60.47 4.11458 4.99311 0
M  V30 685 N 60.6021 -1.18246 1.0419 0
M  V30 686 C 61.5491 -2.2192 0.634037 0
M  V30 687 C 62.5191 -1.62179 -0.358765 0
M  V30 688 O 63.7041 -1.89122 -0.252466 0
M  V30 689 C 60.8441 -3.451 0.00445535 0
M  V30 690 C 59.9571 -4.19174 1.04487 0
M  V30 691 C 59.0921 -5.29813 0.383676 0
M  V30 692 C 58.1311 -5.9566 1.4091 0
M  V30 693 N 57.2681 -6.97834 0.772784 0
M  V30 694 H 62.1081 -2.56164 1.52263 0
M  V30 695 H 59.6451 -1.25843 0.761701 0
M  V30 696 H 61.6031 -4.15485 -0.377919 0
M  V30 697 H 60.2331 -3.11472 -0.847652 0
M  V30 698 H 59.2851 -3.47604 1.54518 0
M  V30 699 H 60.5971 -4.64267 1.82368 0
M  V30 700 H 59.7511 -6.06677 -0.0528366 0
M  V30 701 H 58.4901 -4.85825 -0.427208 0
M  V30 702 H 57.4951 -5.17535 1.85574 0
M  V30 703 H 58.7201 -6.4173 2.22171 0
M  V30 704 H 56.6661 -6.55998 -0.0177708 0
M  V30 705 H 56.5831 -7.41186 1.48928 0
M  V30 706 H 57.8511 -7.78665 0.36071 0
M  V30 707 N 62.0802 -0.821533 -1.34494 0
M  V30 708 C 63.0272 -0.240397 -2.29545 0
M  V30 709 C 63.9972 0.634031 -1.53523 0
M  V30 710 O 65.1822 0.575966 -1.81899 0
M  V30 711 C 62.3222 0.592869 -3.39969 0
M  V30 712 C 61.4352 -0.30365 -4.30932 0
M  V30 713 C 60.5702 0.539049 -5.28458 0
M  V30 714 C 59.6092 -0.356942 -6.11058 0
M  V30 715 N 58.7462 0.446603 -7.00678 0
M  V30 716 H 63.5862 -1.05632 -2.7865 0
M  V30 717 H 61.1232 -0.532413 -1.37127 0
M  V30 718 H 63.0812 1.09129 -4.02675 0
M  V30 719 H 61.7112 1.37392 -2.92102 0
M  V30 720 H 60.7632 -0.920276 -3.691 0
M  V30 721 H 62.0752 -0.992661 -4.88823 0
M  V30 722 H 61.2292 1.102 -5.96608 0
M  V30 723 H 59.9682 1.26157 -4.71101 0
M  V30 724 H 58.9732 -0.932047 -5.41842 0
M  V30 725 H 60.1982 -1.07755 -6.70497 0
M  V30 726 H 58.1442 1.15282 -6.45791 0
M  V30 727 H 58.0612 -0.184048 -7.55776 0
M  V30 728 H 59.3292 0.992352 -7.73158 0
M  V30 729 N 63.5583 1.46682 -0.576371 0
M  V30 730 C 64.8073 2.01619 -0.0572825 0
M  V30 731 C 65.1203 1.45417 1.30818 0
M  V30 732 O 66.3263 1.92133 1.91825 0
M  V30 733 C 64.7823 3.59863 -0.0518371 0
M  V30 734 C 64.3903 4.25059 -1.41523 0
M  V30 735 C 66.1343 4.2248 0.413639 0
M  V30 736 C 64.0413 5.75364 -1.36785 0
M  V30 737 H 62.9713 0.753794 -0.0176448 0
M  V30 738 H 65.6223 1.68481 -0.727076 0
M  V30 739 H 64.0043 3.90048 0.683994 0
M  V30 740 H 65.1783 4.06491 -2.17029 0
M  V30 741 H 63.4933 3.7451 -1.8202 0
M  V30 742 H 66.0903 5.3265 0.467779 0
M  V30 743 H 66.4333 3.90976 1.42982 0
M  V30 744 H 66.9663 3.96897 -0.267929 0
M  V30 745 H 63.7053 6.11518 -2.36063 0
M  V30 746 H 63.2253 5.96214 -0.654895 0
M  V30 747 H 64.9043 6.37955 -1.07805 0
M  V30 748 N 65.0364 0.313813 1.54444 0
M  V30 749 C 66.2834 -0.291675 2.00388 0
M  V30 750 C 66.6114 -1.52904 1.2021 0
M  V30 751 O 65.8664 -1.93833 0.269707 0
M  V30 752 C 66.1654 -0.680386 3.50864 0
M  V30 753 C 65.8314 0.456699 4.48581 0
M  V30 754 C 64.4934 0.768824 4.75018 0
M  V30 755 C 66.8454 1.22098 5.06697 0
M  V30 756 C 64.1734 1.84812 5.56831 0
M  V30 757 C 66.5254 2.29029 5.89685 0
M  V30 758 C 65.1894 2.60834 6.14428 0
M  V30 759 H 64.4594 -0.106732 0.733273 0
M  V30 760 H 67.1064 0.43557 1.86481 0
M  V30 761 H 65.4114 -1.48791 3.62448 0
M  V30 762 H 67.1084 -1.16026 3.83847 0
M  V30 763 H 63.6984 0.203337 4.28117 0
M  V30 764 H 67.8824 0.993096 4.86263 0
M  V30 765 H 63.1384 2.09912 5.74236 0
M  V30 766 H 67.3124 2.887 6.33739 0
M  V30 767 H 64.9394 3.44596 6.77612 0
M  V30 768 N 66.5145 -1.57545 0.0417849 0
M  V30 769 C 67.7915 -1.83642 -0.673433 0
M  V30 770 C 68.1715 -0.928298 -1.89594 0
M  V30 771 O 67.5195 0.0129955 -2.28496 0
M  V30 772 C 67.7295 -3.33155 -1.03964 0
M  V30 773 C 69.0775 -3.99941 -1.42592 0
M  V30 774 O 70.1015 -3.37725 -1.13226 0
M  V30 775 O 68.9605 -5.09619 -1.9736 0
M  V30 776 H 66.0545 -0.757638 -0.331533 0
M  V30 777 H 68.6005 -1.69554 0.070433 0
M  V30 778 H 67.3725 -3.9093 -0.170098 0
M  V30 779 H 66.9955 -3.52396 -1.84126 0
M  V30 780 N 67.9926 0.231505 -1.5589 0
M  V30 781 C 68.9556 1.27028 -1.90779 0
M  V30 782 C 69.9556 1.40308 -0.785507 0
M  V30 783 O 71.1456 1.38744 -1.05336 0
M  V30 784 C 68.2776 2.64566 -2.14983 0
M  V30 785 H 69.4706 0.973017 -2.83677 0
M  V30 786 H 67.0236 0.471486 -1.49019 0
M  V30 787 H 67.7586 2.99406 -1.24604 0
M  V30 788 H 67.5436 2.56305 -2.96732 0
M  V30 789 H 69.0336 3.39543 -2.43105 0
M  V30 790 N 69.4707 1.49531 0.497807 0
M  V30 791 C 70.7177 1.59179 1.25173 0
M  V30 792 C 71.0457 0.279932 1.92475 0
M  V30 793 O 70.3007 -0.732383 1.81479 0
M  V30 794 C 70.5997 2.70252 2.33878 0
M  V30 795 C 70.2657 4.11644 1.84012 0
M  V30 796 C 68.9277 4.50121 1.70132 0
M  V30 797 C 71.2797 5.00121 1.46725 0
M  V30 798 C 68.6077 5.74845 1.17348 0
M  V30 799 C 70.9597 6.25366 0.95392 0
M  V30 800 C 69.6237 6.6267 0.801538 0
M  V30 801 H 68.8937 0.582478 0.45804 0
M  V30 802 H 71.5407 1.83373 0.551948 0
M  V30 803 H 69.8457 2.40041 3.09657 0
M  V30 804 H 71.5427 2.74925 2.9192 0
M  V30 805 H 68.1327 3.81274 1.95775 0
M  V30 806 H 72.3167 4.71048 1.56294 0
M  V30 807 H 67.5727 6.02444 1.04264 0
M  V30 808 H 71.7467 6.93301 0.656225 0
M  V30 809 H 69.3737 7.59197 0.390351 0
M  V30 810 N 70.9488 -0.749086 1.3866 0
M  V30 811 C 72.3648 -1.05276 1.19955 0
M  V30 812 C 72.5648 -2.01435 0.05134 0
M  V30 813 O 71.6208 -2.45232 -0.60147 0
M  V30 814 C 72.9338 -1.62853 2.52783 0
M  V30 815 C 74.4818 -1.75002 2.59506 0
M  V30 816 C 74.9568 -2.35991 3.92521 0
M  V30 817 N 76.4478 -2.43416 3.94085 0
M  V30 818 C 77.1828 -2.91511 4.9377 0
M  V30 819 N 76.6788 -3.39608 6.03853 0
M  V30 820 N 78.4718 -2.90592 4.81157 0
M  V30 821 H 70.6228 -0.111066 2.12109 0
M  V30 822 H 72.8858 -0.111901 0.941373 0
M  V30 823 H 72.5918 -0.99664 3.37283 0
M  V30 824 H 72.4658 -2.61854 2.715 0
M  V30 825 H 74.8528 -2.37317 1.75398 0
M  V30 826 H 74.9338 -0.74693 2.44652 0
M  V30 827 H 74.5778 -1.74308 4.77053 0
M  V30 828 H 74.5078 -3.3695 4.04688 0
M  V30 829 H 76.9988 -2.09405 3.14576 0
M  V30 830 H 77.3118 -3.74775 6.75843 0
M  V30 831 H 75.6568 -3.37653 6.07466 0
M  V30 832 H 78.8478 -2.52332 3.94267 0
M  V30 833 H 79.0208 -3.27762 5.58996 0
M  V30 834 N 72.4269 -1.23603 -0.977757 0
M  V30 835 C 73.7039 -0.977897 -1.69401 0
M  V30 836 C 74.0839 0.502738 -2.05026 0
M  V30 837 O 73.4319 1.47459 -1.74551 0
M  V30 838 C 73.6419 -1.89077 -2.93345 0
M  V30 839 C 74.9899 -2.15579 -3.65802 0
M  V30 840 O 76.0139 -1.86648 -3.03383 0
M  V30 841 O 74.8729 -2.64658 -4.78141 0
M  V30 842 H 71.9669 -0.369025 -0.740101 0
M  V30 843 H 74.5129 -1.34657 -1.03274 0
M  V30 844 H 73.2849 -2.89158 -2.63634 0
M  V30 845 H 72.9079 -1.52463 -3.67207 0
M  V30 846 N 73.905 1.17692 -1.04816 0
M  V30 847 C 74.852 2.21581 -0.645797 0
M  V30 848 C 75.822 1.62367 0.350159 0
M  V30 849 O 77.007 1.89254 0.242433 0
M  V30 850 C 74.147 3.45092 -0.0227568 0
M  V30 851 C 73.26 4.18613 -1.06709 0
M  V30 852 C 72.395 5.29602 -0.411767 0
M  V30 853 C 71.434 5.94904 -1.44067 0
M  V30 854 N 70.571 6.97414 -0.809781 0
M  V30 855 H 75.411 2.55353 -1.5362 0
M  V30 856 H 72.948 1.25438 -0.768364 0
M  V30 857 H 74.906 4.15679 0.35588 0
M  V30 858 H 73.536 3.11917 0.831122 0
M  V30 859 H 72.588 3.46779 -1.5636 0
M  V30 860 H 73.9 4.63293 -1.84827 0
M  V30 861 H 73.054 6.06696 0.0206623 0
M  V30 862 H 71.793 4.86045 0.401438 0
M  V30 863 H 70.798 5.16544 -1.88316 0
M  V30 864 H 72.023 6.40542 -2.25571 0
M  V30 865 H 69.969 6.55998 -0.0170186 0
M  V30 866 H 69.886 7.40386 -1.52856 0
M  V30 867 H 71.154 7.78463 -0.401999 0
M  V30 868 N 75.3831 0.828654 1.34056 0
M  V30 869 C 76.6111 0.43262 2.02326 0
M  V30 870 C 77.0261 -0.963147 1.62385 0
M  V30 871 O 76.3831 -1.62425 0.832121 0
M  V30 872 C 76.4341 0.53182 3.57567 0
M  V30 873 O 76.1551 1.87258 3.96063 0
M  V30 874 C 77.6561 0.131422 4.43105 0
M  V30 875 H 74.8761 0.172923 0.648335 0
M  V30 876 H 77.4201 1.1184 1.71208 0
M  V30 877 H 75.5751 -0.105938 3.87255 0
M  V30 878 H 75.9891 1.85087 4.90758 0
M  V30 879 H 77.4631 0.251904 5.51425 0
M  V30 880 H 77.9401 -0.925645 4.29335 0
M  V30 881 H 78.5461 0.743207 4.18756 0
M  V30 882 N 76.8612 -1.46375 0.584142 0
M  V30 883 C 78.1382 -1.956 0.0033388 0
M  V30 884 C 78.5182 -1.52679 -1.45782 0
M  V30 885 O 77.8662 -0.77816 -2.14842 0
M  V30 886 C 78.0762 -3.48551 0.176891 0
M  V30 887 C 79.4242 -4.24576 0.0454609 0
M  V30 888 O 80.4482 -3.56043 0.105801 0
M  V30 889 O 79.3072 -5.46427 -0.0890376 0
M  V30 890 H 76.4012 -0.825547 -0.0490066 0
M  V30 891 H 78.9472 -1.56652 0.65256 0
M  V30 892 H 77.7192 -3.72683 1.1926 0
M  V30 893 H 77.3422 -3.94332 -0.508695 0
M  V30 894 N 78.3393 -0.321999 -1.54275 0
M  V30 895 C 79.3023 0.531975 -2.22941 0
M  V30 896 C 80.3023 1.04478 -1.22234 0
M  V30 897 O 81.4923 0.937452 -1.46825 0
M  V30 898 C 78.6243 1.73874 -2.93224 0
M  V30 899 H 79.8173 -0.0682612 -2.99822 0
M  V30 900 H 77.3703 -0.0730644 -1.56129 0
M  V30 901 H 78.1053 2.37825 -2.20476 0
M  V30 902 H 77.8903 1.37847 -3.6707 0
M  V30 903 H 79.3803 2.34496 -3.45545 0
M  V30 904 N 79.8174 1.5752 -0.0501392 0
M  V30 905 C 80.7494 2.08413 0.95376 0
M  V30 906 C 81.7624 1.01175 1.27544 0
M  V30 907 O 82.9514 1.28744 1.23641 0
M  V30 908 C 80.0514 2.51138 2.27559 0
M  V30 909 C 79.2244 3.817 2.13598 0
M  V30 910 C 78.2834 4.10749 3.28895 0
M  V30 911 O 77.3094 4.80685 3.04845 0
M  V30 912 N 78.5114 3.62579 4.5334 0
M  V30 913 H 81.2764 2.95165 0.519383 0
M  V30 914 H 78.8374 1.61327 0.136127 0
M  V30 915 H 80.8294 2.67648 3.03557 0
M  V30 916 H 79.3994 1.6964 2.62567 0
M  V30 917 H 78.6194 3.74782 1.22197 0
M  V30 918 H 79.9074 4.67201 2.01496 0
M  V30 919 H 79.3054 3.06039 4.75769 0
M  V30 920 H 77.8624 3.84329 5.26436 0
M  V30 921 N 81.2955 -0.223234 1.56011 0
M  V30 922 C 82.7115 -0.572856 1.48965 0
M  V30 923 C 82.9115 -1.87225 0.74492 0
M  V30 924 O 81.9675 -2.50899 0.283896 0
M  V30 925 C 83.2805 -0.653646 2.9351 0
M  V30 926 C 84.8285 -0.744386 3.0402 0
M  V30 927 C 85.3035 -0.856535 4.49919 0
M  V30 928 N 86.7945 -0.9208 4.53955 0
M  V30 929 C 87.5295 -1.02726 5.64123 0
M  V30 930 N 87.0255 -1.09777 6.84047 0
M  V30 931 N 88.8185 -1.06226 5.51971 0
M  V30 932 H 80.9695 0.629462 2.02858 0
M  V30 933 H 83.2325 0.220621 0.921971 0
M  V30 934 H 82.9385 0.231518 3.50937 0
M  V30 935 H 82.8125 -1.51781 3.45315 0
M  V30 936 H 85.1995 -1.61999 2.46658 0
M  V30 937 H 85.2805 0.14541 2.55386 0
M  V30 938 H 84.9245 0.0146069 5.07898 0
M  V30 939 H 84.8545 -1.76172 4.96257 0
M  V30 940 H 87.3455 -0.876694 3.6759 0
M  V30 941 H 87.6585 -1.17872 7.63758 0
M  V30 942 H 86.0035 -1.06693 6.86762 0
M  V30 943 H 89.1945 -1.00382 4.5721 0
M  V30 944 H 89.3675 -1.14177 6.37862 0
M  V30 945 N 82.7736 -1.49793 -0.48987 0
M  V30 946 C 84.0016 -1.63568 -1.26701 0
M  V30 947 C 84.4166 -0.311465 -1.86213 0
M  V30 948 O 83.7736 0.704416 -1.68357 0
M  V30 949 C 83.8246 -2.71284 -2.38929 0
M  V30 950 O 83.5456 -3.9857 -1.81861 0
M  V30 951 C 85.0466 -2.95864 -3.3012 0
M  V30 952 H 82.2666 -0.550342 -0.383881 0
M  V30 953 H 84.8106 -1.95898 -0.586864 0
M  V30 954 H 82.9656 -2.417 -3.02753 0
M  V30 955 H 83.3796 -4.57993 -2.55622 0
M  V30 956 H 84.8536 -3.74941 -4.05121 0
M  V30 957 H 85.3306 -2.06206 -3.87783 0
M  V30 958 H 85.9366 -3.26907 -2.72051 0
M  V30 959 N 84.2517 0.741722 -1.39055 0
M  V30 960 C 85.4987 1.50114 -1.35912 0
M  V30 961 C 85.8267 1.94443 0.0470937 0
M  V30 962 O 85.0817 1.66612 1.02659 0
M  V30 963 C 85.3807 2.7592 -2.27163 0
M  V30 964 C 85.0467 2.50493 -3.74919 0
M  V30 965 C 83.7087 2.43267 -4.1518 0
M  V30 966 C 86.0607 2.28585 -4.684 0
M  V30 967 C 83.3887 2.12166 -5.46994 0
M  V30 968 C 85.7407 1.99002 -6.00484 0
M  V30 969 C 84.4047 1.90241 -6.39816 0
M  V30 970 H 83.6747 0.549306 -0.497336 0
M  V30 971 H 86.3217 0.851896 -1.71508 0
M  V30 972 H 84.6267 3.45553 -1.84663 0
M  V30 973 H 86.3237 3.33923 -2.22028 0
M  V30 974 H 82.9137 2.56992 -3.43006 0
M  V30 975 H 87.0977 2.33139 -4.38132 0
M  V30 976 H 82.3537 2.03901 -5.76398 0
M  V30 977 H 86.5277 1.81057 -6.72452 0
M  V30 978 H 84.1547 1.65907 -7.41875 0
M  V30 979 N 85.7298 1.2412 0.971189 0
M  V30 980 C 87.1458 1.00584 1.23916 0
M  V30 981 C 87.3458 -0.287481 1.99439 0
M  V30 982 O 86.4018 -1.00454 2.31658 0
M  V30 983 C 87.7148 2.21864 2.0297 0
M  V30 984 C 89.2628 2.26452 2.16076 0
M  V30 985 C 89.7378 3.47343 2.98524 0
M  V30 986 N 91.2288 3.47639 3.06107 0
M  V30 987 C 91.9638 4.37837 3.70251 0
M  V30 988 N 91.4598 5.38286 4.36142 0
M  V30 989 N 93.2528 4.25558 3.67228 0
M  V30 990 H 85.4038 2.07236 0.465499 0
M  V30 991 H 87.6668 0.909236 0.268315 0
M  V30 992 H 87.3728 3.15771 1.54861 0
M  V30 993 H 87.2468 2.23698 3.03709 0
M  V30 994 H 89.6338 1.33078 2.6339 0
M  V30 995 H 89.7148 2.28645 1.14696 0
M  V30 996 H 89.3588 4.41029 2.51905 0
M  V30 997 H 89.2888 3.42393 4.00093 0
M  V30 998 H 91.7798 2.74966 2.59233 0
M  V30 999 H 92.0928 6.03352 4.82894 0
M  V30 1000 H 90.4378 5.42176 4.34822 0
M  V30 1001 H 93.6288 3.46322 3.14927 0
M  V30 1002 H 93.8018 4.96054 4.16935 0
M  V30 1003 N 87.2079 -1.17134 1.05439 0
M  V30 1004 C 88.1179 -2.24878 0.668365 0
M  V30 1005 C 89.1339 -1.71186 -0.311687 0
M  V30 1006 O 90.3099 -2.00738 -0.163161 0
M  V30 1007 C 87.3749 -3.46662 0.051648 0
M  V30 1008 C 86.4359 -4.15429 1.08246 0
M  V30 1009 C 85.6689 -5.31399 0.495082 0
M  V30 1010 O 85.8919 -5.66153 -0.694743 0
M  V30 1011 O 84.8259 -5.89187 1.23056 0
M  V30 1012 H 88.6519 -2.60189 1.56637 0
M  V30 1013 H 86.2369 -1.24482 0.826104 0
M  V30 1014 H 88.1189 -4.20394 -0.290966 0
M  V30 1015 H 86.7939 -3.13142 -0.819971 0
M  V30 1016 H 85.7009 -3.43704 1.47711 0
M  V30 1017 H 87.0339 -4.52982 1.92532 0
M  V30 1018 N 88.686 -0.835752 -1.33615 0
M  V30 1019 C 89.935 -0.426289 -1.97144 0
M  V30 1020 C 90.248 1.01912 -1.66953 0
M  V30 1021 O 91.454 1.53311 -2.24072 0
M  V30 1022 C 89.91 -0.711321 -3.52801 0
M  V30 1023 C 89.518 -2.1712 -3.91871 0
M  V30 1024 C 91.262 -0.368654 -4.22896 0
M  V30 1025 C 89.169 -2.40044 -5.40493 0
M  V30 1026 H 88.099 -0.15567 -0.737755 0
M  V30 1027 H 90.75 -1.0239 -1.52278 0
M  V30 1028 H 89.132 -0.0433766 -3.95976 0
M  V30 1029 H 90.306 -2.87936 -3.59763 0
M  V30 1030 H 88.621 -2.47654 -3.34749 0
M  V30 1031 H 91.218 -0.517601 -5.32189 0
M  V30 1032 H 91.561 0.688078 -4.10574 0
M  V30 1033 H 92.094 -0.991702 -3.8524 0
M  V30 1034 H 88.833 -3.44271 -5.57815 0
M  V30 1035 H 88.353 -1.73785 -5.74072 0
M  V30 1036 H 90.032 -2.23042 -6.0734 0
M  V30 1037 N 90.1641 1.46063 -0.591896 0
M  V30 1038 C 91.3921 2.06717 -0.0868936 0
M  V30 1039 C 91.8071 1.43916 1.22203 0
M  V30 1040 O 91.1641 0.547698 1.74088 0
M  V30 1041 C 91.2151 3.6142 0.0758725 0
M  V30 1042 O 90.9361 4.21874 -1.18126 0
M  V30 1043 C 92.4371 4.39025 0.61416 0
M  V30 1044 H 89.6571 0.668162 -0.0616518 0
M  V30 1045 H 92.2011 1.8755 -0.815175 0
M  V30 1046 H 90.3561 3.79983 0.754413 0
M  V30 1047 H 90.7701 5.14861 -1.00092 0
M  V30 1048 H 92.2441 5.4783 0.677193 0
M  V30 1049 H 92.7211 4.07708 1.63312 0
M  V30 1050 H 93.3271 4.2529 -0.0298142 0
M  V30 1051 N 91.6422 0.330177 1.54103 0
M  V30 1052 C 92.5722 -0.525353 2.27513 0
M  V30 1053 C 93.5532 -1.11383 1.2856 0
M  V30 1054 O 94.7382 -1.13773 1.57383 0
M  V30 1055 C 91.8682 -1.6831 3.03791 0
M  V30 1056 C 90.8222 -1.2236 4.10137 0
M  V30 1057 C 90.1482 -2.46882 4.74293 0
M  V30 1058 C 91.4482 -0.333697 5.21233 0
M  V30 1059 H 93.1422 0.087013 2.99274 0
M  V30 1060 H 90.6882 0.0432893 1.43935 0
M  V30 1061 H 92.6412 -2.28795 3.5388 0
M  V30 1062 H 91.3652 -2.32216 2.29659 0
M  V30 1063 H 90.0242 -0.64165 3.60941 0
M  V30 1064 H 89.6722 -3.09165 3.96769 0
M  V30 1065 H 89.3722 -2.16825 5.46133 0
M  V30 1066 H 90.8962 -3.08117 5.27159 0
M  V30 1067 H 92.3102 -0.845013 5.67038 0
M  V30 1068 H 90.7072 -0.125612 5.99969 0
M  V30 1069 H 91.7772 0.633724 4.80741 0
M  V30 1070 N 93.1203 -1.57491 0.0584922 0
M  V30 1071 C 94.0503 -2.14988 -0.911178 0
M  V30 1072 C 95.0313 -1.07343 -1.31952 0
M  V30 1073 O 96.2163 -1.35318 -1.39294 0
M  V30 1074 C 93.3463 -2.70078 -2.18347 0
M  V30 1075 C 92.3003 -3.82771 -1.91495 0
M  V30 1076 C 91.6263 -4.24408 -3.25241 0
M  V30 1077 C 92.9263 -5.07592 -1.23075 0
M  V30 1078 H 94.6203 -2.96263 -0.432246 0
M  V30 1079 H 92.1663 -1.42512 -0.206469 0
M  V30 1080 H 94.1193 -3.08943 -2.86587 0
M  V30 1081 H 92.8433 -1.86005 -2.68458 0
M  V30 1082 H 91.5023 -3.44389 -1.25664 0
M  V30 1083 H 91.1503 -3.37275 -3.73168 0
M  V30 1084 H 90.8503 -5.00366 -3.08071 0
M  V30 1085 H 92.3743 -4.65879 -3.94701 0
M  V30 1086 H 93.7883 -5.43857 -1.81362 0
M  V30 1087 H 92.1853 -5.88741 -1.16207 0
M  V30 1088 H 93.2553 -4.84454 -0.207847 0
M  V30 1089 N 94.5984 0.214957 -1.56127 0
M  V30 1090 C 95.5304 1.29004 -1.89448 0
M  V30 1091 C 96.5434 1.42716 -0.783326 0
M  V30 1092 O 97.7324 1.43496 -1.06166 0
M  V30 1093 C 94.8324 2.66482 -2.09381 0
M  V30 1094 C 94.0054 2.74633 -3.40434 0
M  V30 1095 C 93.0644 3.9317 -3.49719 0
M  V30 1096 O 92.0904 3.812 -4.227 0
M  V30 1097 N 93.2924 5.07765 -2.81346 0
M  V30 1098 H 96.0574 1.00743 -2.82261 0
M  V30 1099 H 93.6184 0.40497 -1.56753 0
M  V30 1100 H 95.6104 3.44173 -2.12901 0
M  V30 1101 H 94.1804 2.87314 -1.23163 0
M  V30 1102 H 93.4004 1.83368 -3.48955 0
M  V30 1103 H 94.6884 2.77054 -4.26754 0
M  V30 1104 H 94.0864 5.20386 -2.21843 0
M  V30 1105 H 92.6434 5.83474 -2.90519 0
M  V30 1106 N 96.0765 1.50051 0.48192 0
M  V30 1107 C 96.9865 1.7089 1.60728 0
M  V30 1108 C 98.0025 0.591788 1.63627 0
M  V30 1109 O 99.1785 0.868817 1.81696 0
M  V30 1110 C 96.2435 1.78855 2.97005 0
M  V30 1111 C 95.3045 3.02537 3.04581 0
M  V30 1112 C 94.5375 3.10112 4.34357 0
M  V30 1113 O 94.7605 2.24765 5.24249 0
M  V30 1114 O 93.6945 4.02747 4.47301 0
M  V30 1115 H 97.5205 2.66264 1.46072 0
M  V30 1116 H 95.1055 1.34018 0.660264 0
M  V30 1117 H 96.9875 1.86336 3.77964 0
M  V30 1118 H 95.6625 0.866628 3.11883 0
M  V30 1119 H 94.5695 3.00563 2.22739 0
M  V30 1120 H 95.9025 3.94272 2.94636 0
M  V30 1121 N 97.5546 -0.734337 1.39446 0
M  V30 1122 C 98.8016 -1.49391 1.36706 0
M  V30 1123 C 99.1296 -1.94465 -0.0367813 0
M  V30 1124 O 98.3846 -1.67154 -1.01774 0
M  V30 1125 C 98.6836 -2.74711 2.28623 0
M  V30 1126 C 98.3496 -2.48501 3.76242 0
M  V30 1127 C 97.0116 -2.41062 4.16464 0
M  V30 1128 C 99.3636 -2.26098 4.69606 0
M  V30 1129 C 96.6916 -2.09262 5.48112 0
M  V30 1130 C 99.0436 -1.95814 6.01531 0
M  V30 1131 C 97.7076 -1.86845 6.40816 0
M  V30 1132 H 96.9776 -0.546661 0.500243 0
M  V30 1133 H 99.6246 -0.842788 1.71957 0
M  V30 1134 H 97.9296 -3.44569 1.86492 0
M  V30 1135 H 99.6266 -3.32741 2.23796 0
M  V30 1136 H 96.2166 -2.55169 3.44364 0
M  V30 1137 H 100.401 -2.30812 4.39363 0
M  V30 1138 H 95.6566 -2.00841 5.77471 0
M  V30 1139 H 99.8306 -1.77488 6.73403 0
M  V30 1140 H 97.4576 -1.6197 7.42745 0
M  V30 1141 N 99.0327 -1.24633 -0.964593 0
M  V30 1142 C 100.281 -1.08573 -1.70459 0
M  V30 1143 C 100.602 0.375655 -1.91347 0
M  V30 1144 O 99.8717 1.26779 -1.49345 0
M  V30 1145 H 98.4517 -0.398784 -0.631649 0
M  V30 1146 H 101.114 -1.56601 -1.16026 0
M  V30 1147 H 100.21 -1.58623 -2.68785 0
M  V30 1148 N 100.511 1.16574 -1.06058 0
M  V30 1149 C 101.788 1.83048 -0.689416 0
M  V30 1150 C 102.168 1.94122 0.829443 0
M  V30 1151 O 101.516 1.48249 1.7388 0
M  V30 1152 C 101.726 3.20186 -1.38859 0
M  V30 1153 C 103.074 3.95989 -1.53226 0
M  V30 1154 O 104.098 3.29696 -1.3483 0
M  V30 1155 O 102.957 5.14813 -1.83384 0
M  V30 1156 H 100.051 0.790258 -0.243764 0
M  V30 1157 H 102.597 1.23797 -1.16071 0
M  V30 1158 H 101.369 3.07146 -2.4244 0
M  V30 1159 H 100.992 3.87112 -0.907216 0
M  V30 1160 N 101.989 0.842826 1.3317 0
M  V30 1161 C 102.939 0.250877 2.26616 0
M  V30 1162 C 103.923 -0.596427 1.49437 0
M  V30 1163 O 105.115 -0.447747 1.71243 0
M  V30 1164 C 102.244 -0.569779 3.38539 0
M  V30 1165 C 101.33 0.289254 4.23112 0
M  V30 1166 N 101.721 1.36987 4.86897 0
M  V30 1167 C 100.019 0.0769631 4.45934 0
M  V30 1168 C 100.72 1.89737 5.49886 0
M  V30 1169 N 99.6959 1.19827 5.30229 0
M  V30 1170 H 103.498 1.07718 2.73448 0
M  V30 1171 H 101.012 0.687693 1.47121 0
M  V30 1172 H 103.009 -1.01018 4.04476 0
M  V30 1173 H 101.669 -1.39401 2.93253 0
M  V30 1174 H 102.68 1.75277 4.87338 0
M  V30 1175 H 99.3569 -0.713507 4.11358 0
M  V30 1176 H 100.747 2.80253 6.10662 0
M  V30 1177 N 103.467 -1.45747 0.599634 0
M  V30 1178 C 104.878 -1.85853 0.177681 0
M  V30 1179 C 105.229 -1.50102 -1.26348 0
M  V30 1180 O 104.354 -0.923905 -1.95686 0
M  V30 1181 C 104.949 -3.37326 0.315688 0
M  V30 1182 C 103.508 -3.76365 -0.0515144 0
M  V30 1183 C 102.655 -2.69722 0.643822 0
M  V30 1184 H 105.606 -1.36661 0.806814 0
M  V30 1185 H 105.627 -3.77778 -0.454321 0
M  V30 1186 H 105.139 -3.63315 1.36468 0
M  V30 1187 H 103.24 -3.55993 -1.09999 0
M  V30 1188 H 103.353 -4.77916 0.336594 0
M  V30 1189 H 101.717 -2.54567 0.0822881 0
M  V30 1190 H 102.5 -2.98549 1.6948 0
M  V30 1191 N 104.945 -0.338344 -1.53925 0
M  V30 1192 C 105.893 0.536231 -2.26335 0
M  V30 1193 C 106.887 1.1063 -1.28286 0
M  V30 1194 O 108.093 1.05264 -1.46012 0
M  V30 1195 H 104.468 0.191602 -0.727181 0
M  V30 1196 H 106.439 -0.0965747 -2.98244 0
M  V30 1197 C 105.188 1.67803 -3.04528 0
M  V30 1198 H 104.511 1.24864 -3.79801 0
M  V30 1199 H 105.951 2.26526 -3.58416 0
M  V30 1200 C 104.41 2.60439 -2.13712 0
M  V30 1201 O 104.94 3.6255 -1.72975 0
M  V30 1202 N 103.146 2.29006 -1.78898 0
M  V30 1203 H 102.693 1.46011 -2.12223 0
M  V30 1204 H 102.651 2.91248 -1.18416 0
M  V30 1205 N 106.423 1.57458 -0.0668435 0
M  V30 1206 C 107.672 1.92477 0.602947 0
M  V30 1207 C 107.985 0.948419 1.71068 0
M  V30 1208 O 109.191 1.19124 2.43971 0
M  V30 1209 C 107.647 3.41903 1.12383 0
M  V30 1210 C 107.255 4.47975 0.04737 0
M  V30 1211 C 108.999 3.85931 1.76797 0
M  V30 1212 C 106.906 5.88529 0.582022 0
M  V30 1213 H 105.836 0.718387 0.22899 0
M  V30 1214 H 108.487 1.82978 -0.138276 0
M  V30 1215 H 106.869 3.46459 1.91787 0
M  V30 1216 H 108.043 4.55029 -0.726978 0
M  V30 1217 H 106.358 4.13384 -0.500243 0
M  V30 1218 H 108.955 4.88322 2.17821 0
M  V30 1219 H 109.298 3.23029 2.62599 0
M  V30 1220 H 109.831 3.83958 1.04024 0
M  V30 1221 H 106.57 6.55065 -0.238721 0
M  V30 1222 H 106.09 5.85004 1.324 0
M  V30 1223 H 107.769 6.38258 1.05999 0
M  V30 1224 N 107.901 -0.206675 1.56239 0
M  V30 1225 C 109.15 -0.926964 1.79138 0
M  V30 1226 C 109.463 -1.84901 0.638043 0
M  V30 1227 O 110.669 -2.60906 0.751033 0
M  V30 1228 C 109.125 -1.6986 3.17294 0
M  V30 1229 C 108.733 -0.821956 4.40395 0
M  V30 1230 C 110.477 -2.40922 3.4951 0
M  V30 1231 C 108.384 -1.59179 5.69575 0
M  V30 1232 H 107.314 -0.349864 0.667915 0
M  V30 1233 H 109.965 -0.180487 1.8261 0
M  V30 1234 H 108.347 -2.48853 3.08039 0
M  V30 1235 H 109.521 -0.0715019 4.60745 0
M  V30 1236 H 107.836 -0.222741 4.15804 0
M  V30 1237 H 110.433 -2.99047 4.43255 0
M  V30 1238 H 110.776 -3.14542 2.72707 0
M  V30 1239 H 111.309 -1.68905 3.60161 0
M  V30 1240 H 108.048 -0.898589 6.49312 0
M  V30 1241 H 107.568 -2.31648 5.53262 0
M  V30 1242 H 109.247 -2.14862 6.10281 0
M  V30 1243 N 109.379 -1.50304 -0.473955 0
M  V30 1244 C 110.604 -1.65175 -1.25427 0
M  V30 1245 C 111.029 -0.333673 -1.85117 0
M  V30 1246 O 110.387 0.702114 -1.67153 0
M  V30 1247 C 110.435 -2.74295 -2.34082 0
M  V30 1248 O 109.539 -2.35349 -3.38651 0
M  V30 1249 H 108.88 -0.551944 -0.369126 0
M  V30 1250 H 111.41 -1.96662 -0.564364 0
M  V30 1251 H 111.42 -2.97285 -2.79438 0
M  V30 1252 H 110.095 -3.69959 -1.90008 0
M  V30 1253 H 108.672 -2.22794 -2.99027 0
M  V30 1254 N 110.857 0.726932 -1.39834 0
M  V30 1255 C 111.787 1.85405 -1.41941 0
M  V30 1256 C 112.768 1.67751 -0.281728 0
M  V30 1257 O 113.953 1.8795 -0.488717 0
M  V30 1258 C 111.083 3.23243 -1.2701 0
M  V30 1259 C 110.037 3.55549 -2.38262 0
M  V30 1260 C 109.363 4.9241 -2.08415 0
M  V30 1261 C 110.663 3.577 -3.80589 0
M  V30 1262 H 112.357 1.83899 -2.36266 0
M  V30 1263 H 109.903 0.883349 -1.13723 0
M  V30 1264 H 111.856 4.01775 -1.27103 0
M  V30 1265 H 110.58 3.25296 -0.291564 0
M  V30 1266 H 109.239 2.79351 -2.37399 0
M  V30 1267 H 108.887 4.91052 -1.0898 0
M  V30 1268 H 108.587 5.14992 -2.82943 0
M  V30 1269 H 110.111 5.73289 -2.10171 0
M  V30 1270 H 111.525 4.26293 -3.83337 0
M  V30 1271 H 109.922 3.91804 -4.54543 0
M  V30 1272 H 110.992 2.57328 -4.10987 0
M  V30 1273 N 112.336 1.25143 0.95797 0
M  V30 1274 C 113.266 1.07711 2.07173 0
M  V30 1275 C 114.247 -0.0128462 1.70095 0
M  V30 1276 O 115.432 0.156061 1.93572 0
M  V30 1277 C 112.562 0.691503 3.40346 0
M  V30 1278 C 111.516 1.73132 3.9142 0
M  V30 1279 C 110.842 1.20049 5.21049 0
M  V30 1280 C 112.142 3.1294 4.1817 0
M  V30 1281 H 113.836 2.00873 2.22014 0
M  V30 1282 H 111.382 0.967191 1.06684 0
M  V30 1283 H 113.335 0.556505 4.17709 0
M  V30 1284 H 112.059 -0.275819 3.25433 0
M  V30 1285 H 110.718 1.8547 3.16222 0
M  V30 1286 H 110.366 0.223499 5.02503 0
M  V30 1287 H 110.066 1.89545 5.56189 0
M  V30 1288 H 111.59 1.07782 6.01012 0
M  V30 1289 H 113.004 3.03775 4.86203 0
M  V30 1290 H 111.401 3.79875 4.64559 0
M  V30 1291 H 112.471 3.6025 3.24573 0
M  V30 1292 N 113.814 -1.1601 1.06675 0
M  V30 1293 C 115.091 -1.82679 0.699114 0
M  V30 1294 C 115.471 -1.94559 -0.819137 0
M  V30 1295 O 114.819 -1.49169 -1.73092 0
M  V30 1296 C 115.029 -3.19445 1.40555 0
M  V30 1297 C 116.377 -3.95171 1.55323 0
M  V30 1298 O 117.401 -3.28976 1.36577 0
M  V30 1299 O 116.26 -5.13833 1.86112 0
M  V30 1300 H 113.354 -0.788954 0.247951 0
M  V30 1301 H 115.9 -1.23179 1.16726 0
M  V30 1302 H 114.672 -3.05856 2.44065 0
M  V30 1303 H 114.295 -3.86625 0.927733 0
M  V30 1304 N 115.292 -0.849877 -1.32721 0
M  V30 1305 C 116.538 -0.451591 -1.97708 0
M  V30 1306 C 116.871 0.989175 -1.6712 0
M  V30 1307 O 116.146 1.69334 -0.956891 0
M  V30 1308 C 116.429 -0.685598 -3.53513 0
M  V30 1309 C 116.282 -2.17444 -3.93749 0
M  V30 1310 C 117.601 -0.138874 -4.39881 0
M  V30 1311 H 114.72 -0.16555 -0.718166 0
M  V30 1312 H 117.362 -1.06742 -1.57182 0
M  V30 1313 H 115.512 -0.161416 -3.88165 0
M  V30 1314 H 117.184 -2.76433 -3.693 0
M  V30 1315 H 115.427 -2.65476 -3.43081 0
M  V30 1316 H 116.098 -2.28888 -5.02309 0
M  V30 1317 H 118.574 -0.587068 -4.11938 0
M  V30 1318 H 117.45 -0.332213 -5.47894 0
M  V30 1319 H 117.711 0.95806 -4.31594 0
M  V30 1320 N 116.77 1.45427 -0.607355 0
M  V30 1321 C 118.019 2.01452 -0.100036 0
M  V30 1322 C 118.332 1.48159 1.27704 0
M  V30 1323 O 119.538 1.96159 1.87707 0
M  V30 1324 C 117.994 3.59672 -0.128158 0
M  V30 1325 C 117.602 4.21962 -1.50507 0
M  V30 1326 C 119.346 4.23262 0.323932 0
M  V30 1327 C 117.253 5.72333 -1.48959 0
M  V30 1328 H 116.183 0.75325 -0.0336299 0
M  V30 1329 H 118.834 1.66901 -0.76265 0
M  V30 1330 H 117.216 3.91411 0.601105 0
M  V30 1331 H 118.39 4.01796 -2.25602 0
M  V30 1332 H 116.705 3.70565 -1.89923 0
M  V30 1333 H 119.302 5.33522 0.354691 0
M  V30 1334 H 119.645 3.93921 1.34656 0
M  V30 1335 H 120.178 3.96239 -0.352056 0
M  V30 1336 H 116.917 6.06373 -2.48981 0
M  V30 1337 H 116.437 5.94691 -0.781214 0
M  V30 1338 H 118.116 6.35525 -1.21313 0
M  V30 1339 N 118.248 0.346503 1.53744 0
M  V30 1340 C 119.664 -0.00530975 1.59599 0
M  V30 1341 C 119.864 -1.48465 1.36236 0
M  V30 1342 O 118.92 -2.24376 1.15808 0
M  V30 1343 C 120.233 0.433516 2.97559 0
M  V30 1344 C 121.781 0.386111 3.10609 0
M  V30 1345 C 122.256 0.800451 4.50951 0
M  V30 1346 N 123.747 0.754753 4.5701 0
M  V30 1347 C 124.482 1.04727 5.63755 0
M  V30 1348 N 123.978 1.4081 6.7834 0
M  V30 1349 N 125.771 0.971316 5.53644 0
M  V30 1350 H 117.922 1.31009 1.67184 0
M  V30 1351 H 120.185 0.534242 0.783128 0
M  V30 1352 H 119.891 1.46509 3.19731 0
M  V30 1353 H 119.765 -0.189753 3.76722 0
M  V30 1354 H 122.152 -0.636295 2.88158 0
M  V30 1355 H 122.233 1.04462 2.33498 0
M  V30 1356 H 121.877 1.82088 4.74137 0
M  V30 1357 H 121.807 0.119386 5.26465 0
M  V30 1358 H 124.298 0.488662 3.74727 0
M  V30 1359 H 124.611 1.61607 7.55714 0
M  V30 1360 H 122.956 1.44657 6.79779 0
M  V30 1361 H 126.147 0.688748 4.63005 0
M  V30 1362 H 126.32 1.20263 6.36742 0
M  V30 1363 N 119.726 -1.57421 0.075193 0
M  V30 1364 C 120.689 -2.11791 -0.876203 0
M  V30 1365 C 121.689 -1.04268 -1.22412 0
M  V30 1366 O 122.879 -1.30242 -1.15684 0
M  V30 1367 C 120.011 -2.62207 -2.17854 0
M  V30 1368 H 121.204 -2.9716 -0.40444 0
M  V30 1369 H 118.757 -1.55333 -0.173557 0
M  V30 1370 H 119.492 -1.803 -2.6956 0
M  V30 1371 H 119.277 -3.40802 -1.93897 0
M  V30 1372 H 120.767 -3.04335 -2.85955 0
M  V30 1373 N 121.204 0.198386 -1.56346 0
M  V30 1374 C 122.114 1.2664 -1.97483 0
M  V30 1375 C 123.13 1.49989 -0.882002 0
M  V30 1376 O 124.306 1.62668 -1.18748 0
M  V30 1377 C 121.371 2.59141 -2.30319 0
M  V30 1378 C 120.432 2.43892 -3.53292 0
M  V30 1379 C 119.665 3.70074 -3.84553 0
M  V30 1380 O 119.888 4.74101 -3.1715 0
M  V30 1381 O 118.822 3.658 -4.7799 0
M  V30 1382 H 122.648 0.947304 -2.88548 0
M  V30 1383 H 120.233 0.403123 -1.43859 0
M  V30 1384 H 122.115 3.37352 -2.5253 0
M  V30 1385 H 120.79 2.90684 -1.42423 0
M  V30 1386 H 119.697 1.63803 -3.36332 0
M  V30 1387 H 121.03 2.17282 -4.41644 0
M  V30 1388 N 122.682 1.50554 0.465978 0
M  V30 1389 C 123.63 1.70324 1.58406 0
M  V30 1390 C 124.624 0.569139 1.59553 0
M  V30 1391 O 125.83 0.749776 1.63641 0
M  V30 1392 H 122.205 0.537688 0.525734 0
M  V30 1393 H 124.176 2.64104 1.38894 0
M  V30 1394 C 122.925 1.81928 2.96307 0
M  V30 1395 H 122.248 2.68586 2.96144 0
M  V30 1396 H 123.688 1.99784 3.73982 0
M  V30 1397 C 122.147 0.572095 3.32007 0
M  V30 1398 O 122.677 -0.286416 4.00678 0
M  V30 1399 N 120.883 0.424606 2.87481 0
M  V30 1400 H 120.43 1.12427 2.31771 0
M  V30 1401 H 120.388 -0.408697 3.11732 0
M  V30 1402 N 124.16 -0.719506 1.40217 0
M  V30 1403 C 125.437 -1.47221 1.28784 0
M  V30 1404 C 125.817 -2.10883 -0.0956067 0
M  V30 1405 O 125.165 -1.99833 -1.10811 0
M  V30 1406 C 125.375 -2.5111 2.42373 0
M  V30 1407 C 126.723 -3.17053 2.82423 0
M  V30 1408 O 127.747 -2.61429 2.41937 0
M  V30 1409 O 126.606 -4.17742 3.52355 0
M  V30 1410 H 123.7 -0.654491 0.50554 0
M  V30 1411 H 126.246 -0.752014 1.52128 0
M  V30 1412 H 125.018 -2.02556 3.34793 0
M  V30 1413 H 124.641 -3.3067 2.20778 0
M  V30 1414 N 125.638 -1.25649 -0.95132 0
M  V30 1415 C 127.054 -1.02542 -1.223 0
M  V30 1416 C 127.254 0.255715 -1.99871 0
M  V30 1417 O 126.31 0.967558 -2.33226 0
M  V30 1418 C 127.623 -2.25065 -1.99415 0
M  V30 1419 C 129.171 -2.29861 -2.12446 0
M  V30 1420 C 129.646 -3.52048 -2.92961 0
M  V30 1421 N 131.137 -3.52465 -3.00538 0
M  V30 1422 C 131.872 -4.43672 -3.63239 0
M  V30 1423 N 131.368 -5.45157 -4.27523 0
M  V30 1424 N 133.161 -4.31346 -3.60412 0
M  V30 1425 H 125.312 -2.07951 -0.432471 0
M  V30 1426 H 127.575 -0.91339 -0.253816 0
M  V30 1427 H 127.281 -3.18194 -1.49817 0
M  V30 1428 H 127.155 -2.28502 -3.00111 0
M  V30 1429 H 129.542 -1.37252 -2.61239 0
M  V30 1430 H 129.623 -2.3044 -1.11044 0
M  V30 1431 H 129.267 -4.44981 -2.44856 0
M  V30 1432 H 129.197 -3.48715 -3.94596 0
M  V30 1433 H 131.688 -2.79056 -2.54826 0
M  V30 1434 H 132.001 -6.10958 -4.73234 0
M  V30 1435 H 130.346 -5.49025 -4.26141 0
M  V30 1436 H 133.537 -3.51288 -3.09377 0
M  V30 1437 H 133.71 -5.02624 -4.0899 0
M  V30 1438 N 127.117 1.15442 -1.07289 0
M  V30 1439 C 128.394 1.82306 -0.708792 0
M  V30 1440 C 128.774 1.94991 0.808807 0
M  V30 1441 O 128.122 1.50085 1.72298 0
M  V30 1442 C 128.332 3.18695 -1.42247 0
M  V30 1443 C 129.68 3.94341 -1.57417 0
M  V30 1444 O 130.704 3.28247 -1.38319 0
M  V30 1445 O 129.563 5.12839 -1.88834 0
M  V30 1446 H 126.657 0.787628 -0.252132 0
M  V30 1447 H 129.203 1.22559 -1.17377 0
M  V30 1448 H 127.975 3.04557 -2.45684 0
M  V30 1449 H 127.598 3.86128 -0.948223 0
M  V30 1450 N 128.595 0.856903 1.32268 0
M  V30 1451 C 129.844 0.457599 1.96441 0
M  V30 1452 C 130.157 -0.992426 1.68553 0
M  V30 1453 O 131.363 -1.49727 2.26482 0
M  V30 1454 C 129.819 0.767358 3.51624 0
M  V30 1455 C 129.427 2.23326 3.88367 0
M  V30 1456 C 131.171 0.435887 4.22256 0
M  V30 1457 C 129.078 2.48613 5.36606 0
M  V30 1458 H 128.008 0.167387 0.735185 0
M  V30 1459 H 130.659 1.048 1.5063 0
M  V30 1460 H 129.041 0.106367 3.95857 0
M  V30 1461 H 130.215 2.93623 3.55137 0
M  V30 1462 H 128.53 2.52948 3.30766 0
M  V30 1463 H 131.127 0.602202 5.31298 0
M  V30 1464 H 131.47 -0.622672 4.11617 0
M  V30 1465 H 132.003 1.05286 3.83614 0
M  V30 1466 H 128.742 3.53101 5.52268 0
M  V30 1467 H 128.262 1.82896 5.71235 0
M  V30 1468 H 129.941 2.32676 6.03714 0
M  V30 1469 N 130.073 -1.45103 0.615059 0
M  V30 1470 C 131.303 -2.06254 0.119596 0
M  V30 1471 C 131.711 -1.4591 -1.20445 0
M  V30 1472 O 131.054 -0.570384 -1.7462 0
M  V30 1473 C 131.116 -3.59396 -0.0865591 0
M  V30 1474 C 130.78 -4.42116 1.15683 0
M  V30 1475 C 131.777 -4.7662 2.07676 0
M  V30 1476 C 129.462 -4.82749 1.38775 0
M  V30 1477 C 131.456 -5.50622 3.21082 0
M  V30 1478 C 129.143 -5.56504 2.52481 0
M  V30 1479 C 130.141 -5.90358 3.43463 0
M  V30 1480 O 129.829 -6.62615 4.55189 0
M  V30 1481 H 129.561 -0.672423 0.0694512 0
M  V30 1482 H 132.115 -1.87219 0.844885 0
M  V30 1483 H 130.345 -3.76859 -0.866823 0
M  V30 1484 H 132.034 -4.02365 -0.534555 0
M  V30 1485 H 132.8 -4.4578 1.91063 0
M  V30 1486 H 128.679 -4.55829 0.688545 0
M  V30 1487 H 132.223 -5.76965 3.92119 0
M  V30 1488 H 128.12 -5.86759 2.69043 0
M  V30 1489 H 128.888 -6.81071 4.53966 0
M  V30 1490 N 131.551 -0.354651 -1.53558 0
M  V30 1491 C 132.481 0.489091 -2.2832 0
M  V30 1492 C 133.462 1.09324 -1.30316 0
M  V30 1493 O 134.647 1.11255 -1.59173 0
M  V30 1494 C 131.777 1.63456 -3.0643 0
M  V30 1495 C 130.731 1.1582 -4.12031 0
M  V30 1496 C 130.057 2.39305 -4.7816 0
M  V30 1497 C 131.357 0.250731 -5.21698 0
M  V30 1498 H 133.051 -0.134614 -2.99097 0
M  V30 1499 H 130.597 -0.0661826 -1.43848 0
M  V30 1500 H 132.55 2.23136 -3.57475 0
M  V30 1501 H 131.274 2.28533 -2.33325 0
M  V30 1502 H 129.933 0.584146 -3.61916 0
M  V30 1503 H 129.581 3.02814 -4.01637 0
M  V30 1504 H 129.281 2.08109 -5.49513 0
M  V30 1505 H 130.805 2.99691 -5.31994 0
M  V30 1506 H 132.219 0.754695 -5.68311 0
M  V30 1507 H 130.616 0.0301468 -6.00092 0
M  V30 1508 H 131.686 -0.710125 -4.79672 0
M  V30 1509 N 133.029 1.57378 -0.0835403 0
M  V30 1510 C 134.275 1.94217 0.583733 0
M  V30 1511 C 134.608 0.964653 1.68547 0
M  V30 1512 O 133.883 -0.00422258 1.945 0
M  V30 1513 C 134.166 3.41253 1.14972 0
M  V30 1514 C 134.019 4.49768 0.0538277 0
M  V30 1515 C 135.338 3.89352 2.05166 0
M  V30 1516 H 132.457 0.706233 0.210724 0
M  V30 1517 H 135.099 1.89392 -0.1519 0
M  V30 1518 H 133.249 3.45496 1.77665 0
M  V30 1519 H 134.921 4.57641 -0.579851 0
M  V30 1520 H 133.164 4.29432 -0.614068 0
M  V30 1521 H 133.835 5.49817 0.490452 0
M  V30 1522 H 136.311 3.87189 1.52393 0
M  V30 1523 H 135.187 4.92822 2.41698 0
M  V30 1524 H 135.448 3.27973 2.96456 0
M  V30 1525 N 134.507 -0.190092 1.56449 0
M  V30 1526 C 135.754 -0.909705 1.80916 0
M  V30 1527 C 136.082 -1.83047 0.657583 0
M  V30 1528 O 135.337 -1.92428 -0.356356 0
M  V30 1529 C 135.636 -1.75382 3.1141 0
M  V30 1530 C 135.302 -0.983606 4.40041 0
M  V30 1531 C 133.964 -0.770967 4.74984 0
M  V30 1532 C 136.316 -0.442024 5.19322 0
M  V30 1533 C 133.644 -0.0053448 5.867 0
M  V30 1534 C 135.996 0.310412 6.31838 0
M  V30 1535 C 134.66 0.534023 6.6536 0
M  V30 1536 H 133.93 -0.332885 0.662019 0
M  V30 1537 H 136.577 -0.175762 1.90692 0
M  V30 1538 H 134.882 -2.55659 2.96893 0
M  V30 1539 H 136.579 -2.31331 3.27547 0
M  V30 1540 H 133.169 -1.15936 4.12622 0
M  V30 1541 H 137.353 -0.593693 4.92736 0
M  V30 1542 H 132.609 0.177825 6.11141 0
M  V30 1543 H 136.783 0.737419 6.92485 0
M  V30 1544 H 134.41 1.12918 7.51767 0
M  V30 1545 N 135.985 -1.50799 -0.457987 0
M  V30 1546 C 136.895 -1.73426 -1.57989 0
M  V30 1547 C 137.911 -0.617745 -1.62665 0
M  V30 1548 O 139.087 -0.897614 -1.80291 0
M  V30 1549 C 136.152 -1.83557 -2.94122 0
M  V30 1550 C 135.213 -3.07345 -2.99729 0
M  V30 1551 C 134.446 -3.16983 -4.29368 0
M  V30 1552 O 134.669 -2.33077 -5.20607 0
M  V30 1553 O 133.603 -4.09812 -4.40837 0
M  V30 1554 H 137.429 -2.68555 -1.41817 0
M  V30 1555 H 135.014 -1.35052 -0.638859 0
M  V30 1556 H 136.896 -1.92326 -3.74952 0
M  V30 1557 H 135.571 -0.916137 -3.10465 0
M  V30 1558 H 134.478 -3.04068 -2.1793 0
M  V30 1559 H 135.811 -3.9891 -2.88326 0
M  V30 1560 N 137.463 0.71206 -1.40597 0
M  V30 1561 C 138.71 1.47197 -1.39065 0
M  V30 1562 C 139.038 1.94499 0.00583891 0
M  V30 1563 O 138.293 1.68752 0.99102 0
M  V30 1564 C 138.592 2.71039 -2.32965 0
M  V30 1565 C 138.258 2.42484 -3.80148 0
M  V30 1566 C 136.92 2.34406 -4.20247 0
M  V30 1567 C 139.272 2.18598 -4.73143 0
M  V30 1568 C 136.6 2.00516 -5.51371 0
M  V30 1569 C 138.952 1.8622 -6.0457 0
M  V30 1570 C 137.616 1.76626 -6.43708 0
M  V30 1571 H 136.886 0.538634 -0.508876 0
M  V30 1572 H 139.533 0.815325 -1.73276 0
M  V30 1573 H 137.838 3.41558 -1.91951 0
M  V30 1574 H 139.535 3.29138 -2.29061 0
M  V30 1575 H 136.125 2.49659 -3.4838 0
M  V30 1576 H 140.309 2.23793 -4.42979 0
M  V30 1577 H 135.565 1.91628 -5.80593 0
M  V30 1578 H 139.739 1.66752 -6.76141 0
M  V30 1579 H 137.366 1.50133 -7.45228 0
M  V30 1580 N 138.941 1.26152 0.944643 0
M  V30 1581 C 139.874 1.01729 2.04271 0
M  V30 1582 C 140.852 -0.0568101 1.62501 0
M  V30 1583 O 142.036 0.0848987 1.88309 0
M  V30 1584 C 139.163 0.539792 3.34371 0
M  V30 1585 C 138.209 1.60593 3.9511 0
M  V30 1586 S 139.042 3.19392 4.29825 0
M  V30 1587 C 140.198 2.73402 5.63029 0
M  V30 1588 H 140.431 1.94703 2.24673 0
M  V30 1589 H 137.964 1.09793 1.08558 0
M  V30 1590 H 139.922 0.270956 4.09605 0
M  V30 1591 H 138.583 -0.369609 3.11918 0
M  V30 1592 H 137.776 1.22275 4.88943 0
M  V30 1593 H 137.378 1.82596 3.26397 0
M  V30 1594 H 139.67 2.1765 6.41588 0
M  V30 1595 H 140.613 3.65913 6.06229 0
M  V30 1596 H 141.021 2.13077 5.22741 0
M  V30 1597 N 140.419 -1.14872 1.07899 0
M  V30 1598 C 141.696 -1.81928 0.71845 0
M  V30 1599 C 142.076 -1.95417 -0.798455 0
M  V30 1600 O 141.424 -1.50997 -1.715 0
M  V30 1601 C 141.634 -3.17937 1.43935 0
M  V30 1602 C 142.982 -3.93501 1.59506 0
M  V30 1603 O 144.006 -3.27509 1.40058 0
M  V30 1604 O 142.865 -5.1183 1.91551 0
M  V30 1605 H 139.959 -0.78628 0.256305 0
M  V30 1606 H 142.505 -1.21934 1.18026 0
M  V30 1607 H 141.277 -3.0325 2.47295 0
M  V30 1608 H 140.9 -3.85619 0.968687 0
M  V30 1609 N 141.898 -0.863906 -1.31812 0
M  V30 1610 C 143.126 -0.486111 -2.01108 0
M  V30 1611 C 143.541 0.919755 -1.64882 0
M  V30 1612 O 142.898 1.60162 -0.874893 0
M  V30 1613 C 142.949 -0.626435 -3.56031 0
M  V30 1614 O 142.67 -1.97693 -3.90959 0
M  V30 1615 C 144.171 -0.248857 -4.42601 0
M  V30 1616 H 141.391 -0.190052 -0.643523 0
M  V30 1617 H 143.935 -1.1634 -1.68182 0
M  V30 1618 H 142.09 0.00322717 -3.874 0
M  V30 1619 H 142.504 -1.98034 -4.85678 0
M  V30 1620 H 143.978 -0.398016 -5.50563 0
M  V30 1621 H 144.455 0.811489 -4.31638 0
M  V30 1622 H 145.061 -0.853971 -4.16638 0
M  V30 1623 N 143.376 1.44774 -0.622745 0
M  V30 1624 C 144.653 1.95522 -0.0551974 0
M  V30 1625 C 145.033 1.5649 1.41683 0
M  V30 1626 O 144.381 0.834848 2.12703 0
M  V30 1627 C 144.591 3.4796 -0.269242 0
M  V30 1628 C 145.939 4.24306 -0.158014 0
M  V30 1629 O 146.963 3.55637 -0.200162 0
M  V30 1630 O 145.822 5.46471 -0.0558693 0
M  V30 1631 H 142.916 0.826556 0.0271015 0
M  V30 1632 H 145.462 1.54866 -0.693864 0
M  V30 1633 H 144.234 3.6939 -1.29099 0
M  V30 1634 H 143.857 3.95543 0.403966 0
M  V30 1635 N 144.854 0.36279 1.53368 0
M  V30 1636 C 145.784 -0.476976 2.28576 0
M  V30 1637 C 146.765 -1.08631 1.30894 0
M  V30 1638 O 147.95 -1.10409 1.59761 0
M  V30 1639 C 145.08 -1.61828 3.07293 0
M  V30 1640 C 144.034 -1.13633 4.1264 0
M  V30 1641 C 143.36 -2.36766 4.79423 0
M  V30 1642 C 144.66 -0.223061 5.21823 0
M  V30 1643 H 146.354 0.150474 2.99022 0
M  V30 1644 H 143.9 0.0738103 1.43811 0
M  V30 1645 H 145.853 -2.21237 3.58653 0
M  V30 1646 H 144.577 -2.27292 2.34533 0
M  V30 1647 H 143.236 -0.564945 3.62221 0
M  V30 1648 H 142.884 -3.0068 4.03238 0
M  V30 1649 H 142.584 -2.05192 5.50609 0
M  V30 1650 H 144.108 -2.96865 5.33576 0
M  V30 1651 H 145.522 -0.724545 5.68703 0
M  V30 1652 H 143.919 0.001678 6.001 0
M  V30 1653 H 144.989 0.735553 4.79289 0
M  V30 1654 N 146.332 -1.57332 0.0918853 0
M  V30 1655 C 147.28 -2.15075 -0.885747 0
M  V30 1656 C 148.274 -1.09277 -1.29441 0
M  V30 1657 O 149.48 -1.27627 -1.26931 0
M  V30 1658 H 145.855 -0.687966 -0.303656 0
M  V30 1659 H 147.826 -2.96047 -0.373995 0
M  V30 1660 C 146.575 -2.74325 -2.13638 0
M  V30 1661 H 145.898 -3.55418 -1.8308 0
M  V30 1662 H 147.338 -3.183 -2.80109 0
M  V30 1663 C 145.797 -1.70062 -2.90827 0
M  V30 1664 O 146.327 -1.13763 -3.85254 0
M  V30 1665 N 144.533 -1.40628 -2.54307 0
M  V30 1666 H 144.08 -1.866 -1.7759 0
M  V30 1667 H 144.038 -0.711043 -3.06254 0
M  V30 1668 N 147.81 0.181792 -1.56548 0
M  V30 1669 C 148.773 1.20894 -1.94724 0
M  V30 1670 C 149.773 1.37738 -0.829747 0
M  V30 1671 O 150.963 1.35323 -1.09697 0
M  V30 1672 C 148.095 2.57593 -2.23291 0
M  V30 1673 H 149.288 0.882275 -2.86629 0
M  V30 1674 H 146.841 0.423838 -1.50444 0
M  V30 1675 H 147.576 2.95291 -1.34067 0
M  V30 1676 H 147.361 2.46735 -3.04736 0
M  V30 1677 H 148.851 3.31637 -2.53785 0
M  V30 1678 N 149.288 1.51039 0.449983 0
M  V30 1679 C 150.534 1.63322 1.20223 0
M  V30 1680 C 150.867 0.34241 1.91158 0
M  V30 1681 O 150.142 -0.657344 1.83055 0
M  V30 1682 C 150.425 2.82801 2.22925 0
M  V30 1683 C 150.278 4.21823 1.56157 0
M  V30 1684 C 151.597 2.97807 3.24035 0
M  V30 1685 H 148.716 0.594407 0.435718 0
M  V30 1686 H 151.358 1.83489 0.493136 0
M  V30 1687 H 149.508 2.65738 2.834 0
M  V30 1688 H 151.18 4.50526 0.991162 0
M  V30 1689 H 149.423 4.25105 0.864172 0
M  V30 1690 H 150.094 5.01391 2.30891 0
M  V30 1691 H 152.57 3.13497 2.73603 0
M  V30 1692 H 151.446 3.82992 3.93202 0
M  V30 1693 H 151.707 2.09328 3.89402 0
M  V30 1694 N 150.766 -0.704594 1.40972 0
M  V30 1695 C 152.015 -1.46018 1.39146 0
M  V30 1696 C 152.328 -1.956 0.000589254 0
M  V30 1697 O 153.534 -2.71137 -0.1403 0
M  V30 1698 C 151.99 -2.63996 2.4461 0
M  V30 1699 C 151.598 -2.21238 3.89561 0
M  V30 1700 C 153.342 -3.41677 2.51907 0
M  V30 1701 C 151.249 -3.3612 4.86598 0
M  V30 1702 H 150.179 -0.548444 0.517422 0
M  V30 1703 H 152.83 -0.765784 1.66757 0
M  V30 1704 H 151.212 -3.3566 2.10115 0
M  V30 1705 H 152.386 -1.56923 4.33257 0
M  V30 1706 H 150.701 -1.56574 3.85841 0
M  V30 1707 H 153.298 -4.27182 3.2159 0
M  V30 1708 H 153.641 -3.86247 1.55303 0
M  V30 1709 H 154.174 -2.77064 2.85448 0
M  V30 1710 H 150.913 -2.96572 5.84573 0
M  V30 1711 H 150.433 -3.99315 4.47557 0
M  V30 1712 H 152.112 -4.02029 5.06934 0
M  V30 1713 N 152.244 -1.26651 -0.937939 0
M  V30 1714 C 153.66 -1.03834 -1.21205 0
M  V30 1715 C 153.86 0.234502 -2.00131 0
M  V30 1716 O 152.916 0.942767 -2.3424 0
M  V30 1717 C 154.229 -2.27167 -1.97017 0
M  V30 1718 C 155.777 -2.32101 -2.09996 0
M  V30 1719 C 156.252 -3.55136 -2.8921 0
M  V30 1720 N 157.743 -3.55632 -2.96783 0
M  V30 1721 C 158.478 -4.475 -3.58512 0
M  V30 1722 N 157.974 -5.4966 -4.21717 0
M  V30 1723 N 159.767 -4.35145 -3.55816 0
M  V30 1724 H 151.918 -2.08398 -0.410391 0
M  V30 1725 H 154.181 -0.916031 -0.244114 0
M  V30 1726 H 153.887 -3.19765 -1.46434 0
M  V30 1727 H 153.761 -2.31672 -2.97671 0
M  V30 1728 H 156.148 -1.40015 -2.59769 0
M  V30 1729 H 156.229 -2.31605 -1.08594 0
M  V30 1730 H 155.873 -4.47553 -2.40123 0
M  V30 1731 H 155.803 -3.5288 -3.90875 0
M  V30 1732 H 158.294 -2.81743 -2.51852 0
M  V30 1733 H 158.607 -6.15943 -4.66727 0
M  V30 1734 H 156.952 -5.53514 -4.20294 0
M  V30 1735 H 160.143 -3.5455 -3.05634 0
M  V30 1736 H 160.316 -5.06934 -4.03636 0
M  V30 1737 N 153.722 1.14298 -1.08507 0
M  V30 1738 C 154.669 2.19414 -0.715965 0
M  V30 1739 C 155.639 1.63399 0.298326 0
M  V30 1740 O 156.824 1.89929 0.182101 0
M  V30 1741 C 153.964 3.44845 -0.132534 0
M  V30 1742 C 153.077 4.15007 -1.19973 0
M  V30 1743 C 152.212 5.28024 -0.580048 0
M  V30 1744 C 151.251 5.9002 -1.62921 0
M  V30 1745 N 150.388 6.94485 -1.03125 0
M  V30 1746 H 155.228 2.50336 -1.61666 0
M  V30 1747 H 152.765 1.2293 -0.807882 0
M  V30 1748 H 154.723 4.16601 0.223454 0
M  V30 1749 H 153.353 3.14403 0.731467 0
M  V30 1750 H 152.405 3.41629 -1.67313 0
M  V30 1751 H 153.717 4.57178 -1.99473 0
M  V30 1752 H 152.871 6.06455 -0.172364 0
M  V30 1753 H 151.61 4.87076 0.246603 0
M  V30 1754 H 150.615 5.10291 -2.04654 0
M  V30 1755 H 151.84 6.33042 -2.45835 0
M  V30 1756 H 149.786 6.55612 -0.225711 0
M  V30 1757 H 149.703 7.35148 -1.76334 0
M  V30 1758 H 150.971 7.7679 -0.649458 0
M  V30 1759 N 155.201 0.870884 1.31352 0
M  V30 1760 C 156.449 0.48132 1.96285 0
M  V30 1761 C 156.77 -0.969813 1.69173 0
M  V30 1762 O 156.04 -1.67998 1.00764 0
M  V30 1763 H 154.62 0.175002 0.726212 0
M  V30 1764 H 157.282 1.11087 1.60143 0
M  V30 1765 H 156.378 0.639825 3.05471 0
M  V30 1766 N 156.679 -1.44442 0.630414 0
M  V30 1767 C 157.927 -2.01653 0.134351 0
M  V30 1768 C 158.248 -1.49836 -1.24796 0
M  V30 1769 O 157.518 -0.701684 -1.82902 0
M  V30 1770 H 156.098 -0.74554 0.0466769 0
M  V30 1771 H 158.76 -1.76952 0.816955 0
M  V30 1772 H 157.856 -3.11935 0.101498 0
M  V30 1773 N 158.157 -0.370918 -1.53173 0
M  V30 1774 C 159.087 0.464847 -2.28826 0
M  V30 1775 C 160.068 1.07936 -1.31468 0
M  V30 1776 O 161.253 1.0956 -1.60344 0
M  V30 1777 C 158.383 1.60196 -3.08147 0
M  V30 1778 C 157.337 1.11443 -4.13237 0
M  V30 1779 C 156.663 2.3422 -4.80672 0
M  V30 1780 C 157.963 0.195384 -5.21934 0
M  V30 1781 H 159.657 -0.166329 -2.98938 0
M  V30 1782 H 157.203 -0.0814359 -1.4377 0
M  V30 1783 H 159.156 2.19332 -3.59822 0
M  V30 1784 H 157.88 2.26045 -2.35735 0
M  V30 1785 H 156.539 0.545727 -3.62515 0
M  V30 1786 H 156.187 2.98537 -4.04827 0
M  V30 1787 H 155.887 2.02269 -5.51689 0
M  V30 1788 H 157.411 2.94032 -5.35143 0
M  V30 1789 H 158.825 0.694375 -5.69079 0
M  V30 1790 H 157.222 -0.0335027 -6.00091 0
M  V30 1791 H 158.292 -0.760961 -4.78892 0
M  V30 1792 N 159.635 1.57281 -0.100228 0
M  V30 1793 C 160.565 2.17328 0.853857 0
M  V30 1794 C 161.546 1.10804 1.2906 0
M  V30 1795 O 162.731 1.38963 1.35657 0
M  V30 1796 C 159.861 2.75772 2.11109 0
M  V30 1797 C 158.815 3.87713 1.81279 0
M  V30 1798 C 158.141 4.32882 3.13874 0
M  V30 1799 C 159.441 5.10677 1.09574 0
M  V30 1800 H 161.135 2.97305 0.353545 0
M  V30 1801 H 158.681 1.43009 0.168612 0
M  V30 1802 H 160.634 3.16433 2.78296 0
M  V30 1803 H 159.358 1.93057 2.63432 0
M  V30 1804 H 158.017 3.476 1.16489 0
M  V30 1805 H 157.665 3.47051 3.64095 0
M  V30 1806 H 157.365 5.08358 2.94696 0
M  V30 1807 H 158.889 4.7618 3.82211 0
M  V30 1808 H 160.303 5.48474 1.66879 0
M  V30 1809 H 158.7 5.91615 1.00557 0
M  V30 1810 H 159.77 4.84835 0.0793299 0
M  V30 1811 N 161.113 -0.173488 1.56642 0
M  V30 1812 C 162.045 -1.23935 1.92802 0
M  V30 1813 C 163.058 -1.40589 0.820889 0
M  V30 1814 O 164.247 -1.40631 1.09933 0
M  V30 1815 C 161.347 -2.60837 2.16373 0
M  V30 1816 C 160.52 -2.6551 3.47596 0
M  V30 1817 C 159.579 -3.8376 3.60021 0
M  V30 1818 O 158.605 -3.69859 4.32658 0
M  V30 1819 N 159.807 -5.00127 2.94709 0
M  V30 1820 H 162.572 -0.932236 2.84832 0
M  V30 1821 H 160.133 -0.363268 1.57772 0
M  V30 1822 H 162.125 -3.38407 2.21952 0
M  V30 1823 H 160.695 -2.83948 1.30738 0
M  V30 1824 H 159.915 -1.74052 3.53694 0
M  V30 1825 H 161.203 -2.65641 4.33949 0
M  V30 1826 H 160.601 -5.14322 2.35563 0
M  V30 1827 H 159.158 -5.75567 3.05886 0
M  V30 1828 N 162.591 -1.51276 -0.441967 0
M  V30 1829 C 163.868 -1.54252 -1.20273 0
M  V30 1830 C 164.248 -0.30408 -2.08898 0
M  V30 1831 O 163.596 0.711084 -2.17154 0
M  V30 1832 C 163.806 -2.85406 -2.00859 0
M  V30 1833 C 165.154 -3.37181 -2.58059 0
M  V30 1834 O 166.178 -2.86925 -2.11074 0
M  V30 1835 O 165.037 -4.24858 -3.43741 0
M  V30 1836 H 162.131 -0.619969 -0.547328 0
M  V30 1837 H 164.677 -1.63586 -0.451413 0
M  V30 1838 H 163.449 -3.67003 -1.35736 0
M  V30 1839 H 163.072 -2.79213 -2.83065 0
M  V30 1840 N 164.069 0.697108 -1.41344 0
M  V30 1841 C 165.315 1.4593 -1.40827 0
M  V30 1842 C 165.648 1.94193 -0.0167098 0
M  V30 1843 O 164.923 1.69425 0.955263 0
M  V30 1844 C 165.206 2.67229 -2.41373 0
M  V30 1845 C 165.059 2.24741 -3.8963 0
M  V30 1846 C 166.378 3.69423 -2.39196 0
M  V30 1847 H 163.497 0.529303 -0.512842 0
M  V30 1848 H 166.139 0.794112 -1.72609 0
M  V30 1849 H 164.289 3.23982 -2.14401 0
M  V30 1850 H 165.961 1.73327 -4.27499 0
M  V30 1851 H 164.204 1.56542 -4.0457 0
M  V30 1852 H 164.875 3.1177 -4.55525 0
M  V30 1853 H 167.351 3.2234 -2.63128 0
M  V30 1854 H 166.227 4.51907 -3.11563 0
M  V30 1855 H 166.488 4.19012 -1.41001 0
M  V30 1856 N 165.547 1.27147 0.931209 0
M  V30 1857 C 166.497 1.06227 2.01742 0
M  V30 1858 C 167.481 -0.00859065 1.60898 0
M  V30 1859 O 168.673 0.209537 1.75755 0
M  V30 1860 C 165.802 0.707787 3.35924 0
M  V30 1861 C 164.888 1.81661 3.83223 0
M  V30 1862 N 165.279 3.05564 4.03069 0
M  V30 1863 C 163.577 1.70249 4.12227 0
M  V30 1864 C 164.278 3.77697 4.42403 0
M  V30 1865 N 163.254 3.0544 4.49675 0
M  V30 1866 H 167.056 2.00261 2.15111 0
M  V30 1867 H 164.57 1.1781 1.11779 0
M  V30 1868 H 166.567 0.539043 4.134 0
M  V30 1869 H 165.227 -0.224964 3.2392 0
M  V30 1870 H 166.238 3.41363 3.89476 0
M  V30 1871 H 162.915 0.840329 4.08956 0
M  V30 1872 H 164.305 4.84168 4.65866 0
M  V30 1873 N 167.025 -1.13721 1.09112 0
M  V30 1874 C 168.271 -1.85198 0.826414 0
M  V30 1875 C 168.604 -1.83129 -0.646319 0
M  V30 1876 O 167.879 -1.2671 -1.47563 0
M  V30 1877 C 168.162 -3.33507 1.35812 0
M  V30 1878 C 168.015 -3.44108 2.89672 0
M  V30 1879 C 169.334 -4.28838 0.989256 0
M  V30 1880 H 166.453 -0.67243 0.301675 0
M  V30 1881 H 169.095 -1.33499 1.35197 0
M  V30 1882 H 167.245 -3.77666 0.911082 0
M  V30 1883 H 168.917 -3.08684 3.428 0
M  V30 1884 H 167.16 -2.85087 3.26967 0
M  V30 1885 H 167.831 -4.48388 3.21951 0
M  V30 1886 H 170.307 -3.92734 1.37475 0
M  V30 1887 H 169.183 -5.31051 1.38838 0
M  V30 1888 H 169.444 -4.4198 -0.102924 0
M  V30 1889 N 168.503 -0.877838 -1.30888 0
M  V30 1890 C 169.919 -0.570844 -1.49042 0
M  V30 1891 C 170.119 0.893159 -1.80624 0
M  V30 1892 O 169.175 1.67485 -1.88958 0
M  V30 1893 C 170.488 -1.47784 -2.61878 0
M  V30 1894 C 172.036 -1.48071 -2.75761 0
M  V30 1895 C 172.511 -2.37347 -3.91702 0
M  V30 1896 N 174.002 -2.35271 -3.99001 0
M  V30 1897 C 174.737 -3.01063 -4.88004 0
M  V30 1898 N 174.233 -3.76055 -5.81854 0
M  V30 1899 N 176.026 -2.90332 -4.81315 0
M  V30 1900 H 168.177 -1.82502 -1.0866 0
M  V30 1901 H 170.44 -0.780797 -0.537644 0
M  V30 1902 H 170.146 -2.51993 -2.45341 0
M  V30 1903 H 170.02 -1.18215 -3.58197 0
M  V30 1904 H 172.407 -0.446166 -2.91708 0
M  V30 1905 H 172.488 -1.81668 -1.80085 0
M  V30 1906 H 172.132 -3.40883 -3.76512 0
M  V30 1907 H 172.062 -2.01071 -4.86701 0
M  V30 1908 H 174.553 -1.80768 -3.3186 0
M  V30 1909 H 174.866 -4.23366 -6.46514 0
M  V30 1910 H 173.211 -3.80163 -5.81808 0
M  V30 1911 H 176.402 -2.31278 -4.06974 0
M  V30 1912 H 176.575 -3.41885 -5.50471 0
M  V30 1913 N 169.982 1.44106 -0.638065 0
M  V30 1914 C 171.207 2.0685 -0.150916 0
M  V30 1915 C 171.632 1.47417 1.16833 0
M  V30 1916 O 170.99 0.578264 1.71831 0
M  V30 1917 C 171.038 3.60555 -0.05708 0
M  V30 1918 O 170.142 4.00465 0.984972 0
M  V30 1919 H 169.483 0.658151 -0.0879399 0
M  V30 1920 H 172.013 1.84865 -0.876707 0
M  V30 1921 H 172.023 4.07789 0.131232 0
M  V30 1922 H 170.698 4.03193 -1.02021 0
M  V30 1923 H 169.275 3.64849 0.770672 0
M  V30 1924 N 171.46 0.379036 1.52974 0
M  V30 1925 C 172.709 -0.207612 2.00629 0
M  V30 1926 C 173.022 -1.48758 1.27006 0
M  V30 1927 O 174.228 -2.15365 1.65318 0
M  V30 1928 C 172.684 -0.42053 3.57435 0
M  V30 1929 C 172.292 0.845587 4.39948 0
M  V30 1930 C 174.036 -0.964102 4.13407 0
M  V30 1931 C 171.943 0.601513 5.88333 0
M  V30 1932 H 170.873 -0.0813591 0.749598 0
M  V30 1933 H 173.524 0.499853 1.76561 0
M  V30 1934 H 171.906 -1.18959 3.7771 0
M  V30 1935 H 173.08 1.61848 4.31442 0
M  V30 1936 H 171.395 1.31336 3.95145 0
M  V30 1937 H 173.992 -1.16225 5.21916 0
M  V30 1938 H 174.335 -1.93019 3.68849 0
M  V30 1939 H 174.868 -0.25487 3.96983 0
M  V30 1940 H 171.607 1.53831 6.37194 0
M  V30 1941 H 171.127 -0.132628 5.99653 0
M  V30 1942 H 172.806 0.232134 6.46583 0
M  V30 1943 N 172.938 -1.57226 0.108567 0
M  V30 1944 C 174.185 -1.94833 -0.551943 0
M  V30 1945 C 174.513 -0.991204 -1.67348 0
M  V30 1946 O 173.768 -0.0131878 -1.95696 0
M  V30 1947 C 174.067 -3.38911 -1.13463 0
M  V30 1948 C 173.733 -4.50696 -0.135509 0
M  V30 1949 C 172.395 -4.80998 0.139252 0
M  V30 1950 C 174.747 -5.18333 0.545957 0
M  V30 1951 C 172.075 -5.76259 1.10194 0
M  V30 1952 C 174.427 -6.14627 1.49721 0
M  V30 1953 C 173.091 -6.43327 1.78006 0
M  V30 1954 H 172.361 -0.712944 -0.20197 0
M  V30 1955 H 175.008 -1.90582 0.18726 0
M  V30 1956 H 173.313 -3.39805 -1.95037 0
M  V30 1957 H 175.01 -3.65317 -1.65362 0
M  V30 1958 H 171.6 -4.27087 -0.359846 0
M  V30 1959 H 175.784 -4.95087 0.346842 0
M  V30 1960 H 171.04 -5.96804 1.32795 0
M  V30 1961 H 175.214 -6.66126 2.03099 0
M  V30 1962 H 172.841 -7.1695 2.52759 0
M  V30 1963 N 174.416 0.165178 -1.56732 0
M  V30 1964 C 175.646 0.894919 -1.86212 0
M  V30 1965 C 176.054 1.76066 -0.692627 0
M  V30 1966 O 175.397 1.80387 0.347303 0
M  V30 1967 C 175.459 1.8174 -3.10179 0
M  V30 1968 C 175.123 1.13064 -4.42793 0
M  V30 1969 C 176.12 0.493169 -5.17556 0
M  V30 1970 C 173.805 1.12556 -4.89527 0
M  V30 1971 C 175.799 -0.140209 -6.37246 0
M  V30 1972 C 173.486 0.488366 -6.09145 0
M  V30 1973 C 174.484 -0.143411 -6.82849 0
M  V30 1974 O 174.172 -0.77055 -8.00199 0
M  V30 1975 H 173.904 0.265114 -0.621844 0
M  V30 1976 H 176.458 0.168242 -2.0471 0
M  V30 1977 H 174.688 2.58455 -2.87642 0
M  V30 1978 H 176.377 2.4175 -3.26055 0
M  V30 1979 H 177.143 0.489023 -4.82528 0
M  V30 1980 H 173.022 1.60672 -4.32094 0
M  V30 1981 H 176.566 -0.633932 -6.94714 0
M  V30 1982 H 172.463 0.490116 -6.43637 0
M  V30 1983 H 173.231 -0.670408 -8.1575 0
M  V30 1984 N 175.894 1.51508 0.433938 0
M  V30 1985 C 176.826 1.69266 1.54537 0
M  V30 1986 C 177.839 0.573276 1.52373 0
M  V30 1987 O 179.028 0.847698 1.57087 0
M  V30 1988 C 176.128 1.69524 2.93453 0
M  V30 1989 C 175.301 2.98101 3.20085 0
M  V30 1990 C 174.36 2.90502 4.38742 0
M  V30 1991 O 173.386 3.64442 4.3723 0
M  V30 1992 N 174.588 2.06586 5.42496 0
M  V30 1993 H 177.353 2.65145 1.39708 0
M  V30 1994 H 174.914 1.49437 0.622922 0
M  V30 1995 H 176.906 1.62004 3.70859 0
M  V30 1996 H 175.476 0.812245 3.01863 0
M  V30 1997 H 174.696 3.19464 2.30947 0
M  V30 1998 H 175.984 3.83207 3.34708 0
M  V30 1999 H 175.382 1.45896 5.46563 0
M  V30 2000 H 173.939 2.04943 6.18742 0
M  V30 2001 N 177.372 -0.689602 1.41712 0
M  V30 2002 C 178.302 -1.81577 1.46806 0
M  V30 2003 C 179.283 -1.66945 0.326105 0
M  V30 2004 O 180.468 -1.86588 0.538377 0
M  V30 2005 C 177.598 -3.19762 1.35535 0
M  V30 2006 C 176.552 -3.49107 2.47605 0
M  V30 2007 C 175.878 -4.86711 2.21397 0
M  V30 2008 C 177.178 -3.47483 3.89939 0
M  V30 2009 H 178.872 -1.7757 2.41058 0
M  V30 2010 H 176.418 -0.852887 1.16025 0
M  V30 2011 H 178.371 -3.98263 1.3771 0
M  V30 2012 H 177.095 -3.24409 0.377708 0
M  V30 2013 H 175.754 -2.72959 2.44722 0
M  V30 2014 H 175.402 -4.8799 1.21961 0
M  V30 2015 H 175.102 -5.0731 2.96497 0
M  V30 2016 H 176.626 -5.67515 2.25297 0
M  V30 2017 H 178.04 -4.1598 3.94505 0
M  V30 2018 H 176.437 -3.79615 4.64771 0
M  V30 2019 H 177.507 -2.46341 4.17665 0
M  V30 2020 N 178.85 -1.27639 -0.924453 0
M  V30 2021 C 179.78 -1.13166 -2.04244 0
M  V30 2022 C 180.761 -0.032256 -1.70069 0
M  V30 2023 O 181.946 -0.207328 -1.9309 0
M  V30 2024 C 179.076 -0.781496 -3.38393 0
M  V30 2025 C 178.03 -1.83449 -3.86692 0
M  V30 2026 C 177.356 -1.33822 -5.17683 0
M  V30 2027 C 178.656 -3.23917 -4.09726 0
M  V30 2028 H 180.35 -2.06689 -2.1661 0
M  V30 2029 H 177.896 -0.995136 -1.04082 0
M  V30 2030 H 179.849 -0.667057 -4.16087 0
M  V30 2031 H 178.573 0.189439 -3.2605 0
M  V30 2032 H 177.232 -1.93789 -3.11193 0
M  V30 2033 H 176.88 -0.35665 -5.01734 0
M  V30 2034 H 176.58 -2.04224 -5.50968 0
M  V30 2035 H 178.104 -1.23679 -5.97943 0
M  V30 2036 H 179.518 -3.16559 -4.77978 0
M  V30 2037 H 177.915 -3.92059 -4.54324 0
M  V30 2038 H 178.985 -3.68729 -3.14908 0
M  V30 2039 N 180.328 1.1314 -1.09713 0
M  V30 2040 C 181.744 1.36477 -0.827423 0
M  V30 2041 C 181.944 1.93654 0.556817 0
M  V30 2042 O 181 2.15791 1.31112 0
M  V30 2043 C 182.313 2.31334 -1.92106 0
M  V30 2044 C 183.861 2.44943 -1.94864 0
M  V30 2045 C 184.336 3.4311 -3.0338 0
M  V30 2046 N 185.827 3.50662 -3.02639 0
M  V30 2047 C 186.562 4.2651 -3.83246 0
M  V30 2048 N 186.058 5.05485 -4.73768 0
M  V30 2049 N 187.851 4.2184 -3.71493 0
M  V30 2050 H 180.002 0.743807 -1.9895 0
M  V30 2051 H 182.265 0.389823 -0.864143 0
M  V30 2052 H 181.971 1.96483 -2.91698 0
M  V30 2053 H 181.845 3.31381 -1.80184 0
M  V30 2054 H 184.232 2.79079 -0.959099 0
M  V30 2055 H 184.313 1.4481 -2.10864 0
M  V30 2056 H 183.957 3.09704 -4.02549 0
M  V30 2057 H 183.887 4.43055 -2.84622 0
M  V30 2058 H 186.378 2.94315 -2.37039 0
M  V30 2059 H 186.691 5.60675 -5.3185 0
M  V30 2060 H 185.036 5.04708 -4.77802 0
M  V30 2061 H 188.227 3.5922 -3.00131 0
M  V30 2062 H 188.4 4.80697 -4.3455 0
M  V30 2063 N 181.806 0.884767 1.30421 0
M  V30 2064 C 182.769 0.356277 2.26414 0
M  V30 2065 C 183.769 -0.501124 1.52792 0
M  V30 2066 O 184.959 -0.30831 1.7145 0
M  V30 2067 C 182.091 -0.492316 3.37326 0
M  V30 2068 H 183.284 1.20389 2.74675 0
M  V30 2069 H 180.837 0.661607 1.41607 0
M  V30 2070 H 181.572 -1.36052 2.94381 0
M  V30 2071 H 181.357 0.121832 3.91911 0
M  V30 2072 H 182.847 -0.853871 4.08777 0
M  V30 2073 N 183.284 -1.43765 0.645699 0
M  V30 2074 C 184.512 -2.06253 0.163556 0
M  V30 2075 C 184.927 -1.48352 -1.16778 0
M  V30 2076 O 184.284 -0.611932 -1.71935 0
M  V30 2077 C 184.335 -3.61453 0.0583186 0
M  V30 2078 O 184.056 -4.172 1.33702 0
M  V30 2079 C 185.557 -4.41002 -0.450795 0
M  V30 2080 H 182.777 -0.665413 0.0864077 0
M  V30 2081 H 185.321 -1.84396 0.884222 0
M  V30 2082 H 183.476 -3.82522 -0.612865 0
M  V30 2083 H 183.89 -5.10791 1.19131 0
M  V30 2084 H 185.364 -5.49966 -0.473403 0
M  V30 2085 H 185.841 -4.13488 -1.48068 0
M  V30 2086 H 186.447 -4.24886 0.187637 0
M  V30 2087 N 184.763 -0.387143 -1.52771 0
M  V30 2088 C 186.179 -0.037007 -1.59557 0
M  V30 2089 C 186.379 1.44801 -1.40124 0
M  V30 2090 O 185.435 2.21227 -1.21716 0
M  V30 2091 C 186.748 -0.512256 -2.96305 0
M  V30 2092 C 188.296 -0.468328 -3.09476 0
M  V30 2093 C 188.771 -0.919731 -4.4867 0
M  V30 2094 N 190.262 -0.875656 -4.54848 0
M  V30 2095 C 190.997 -1.19637 -5.6078 0
M  V30 2096 N 190.493 -1.58745 -6.74368 0
M  V30 2097 N 192.286 -1.11776 -5.50874 0
M  V30 2098 H 184.437 -1.35395 -1.63652 0
M  V30 2099 H 186.7 -0.554818 -0.768688 0
M  V30 2100 H 186.406 -1.54935 -3.15734 0
M  V30 2101 H 186.28 0.089805 -3.77093 0
M  V30 2102 H 188.667 0.559671 -2.89744 0
M  V30 2103 H 188.748 -1.10616 -2.30646 0
M  V30 2104 H 188.392 -1.94595 -4.69143 0
M  V30 2105 H 188.322 -0.258927 -5.25963 0
M  V30 2106 H 190.813 -0.587843 -3.733 0
M  V30 2107 H 191.126 -1.81586 -7.51163 0
M  V30 2108 H 189.471 -1.6263 -6.75705 0
M  V30 2109 H 192.662 -0.811264 -4.61016 0
M  V30 2110 H 192.835 -1.37103 -6.3333 0
M  V30 2111 N 186.241 1.57166 -0.116904 0
M  V30 2112 C 187.488 1.95123 0.541603 0
M  V30 2113 C 187.816 1.00006 1.6682 0
M  V30 2114 O 187.071 0.0235658 1.95686 0
M  V30 2115 C 187.37 3.39508 1.11664 0
M  V30 2116 C 187.036 4.50762 0.111606 0
M  V30 2117 C 185.698 4.80918 -0.164758 0
M  V30 2118 C 188.05 5.18036 -0.573438 0
M  V30 2119 C 185.378 5.75666 -1.13249 0
M  V30 2120 C 187.73 6.13824 -1.52978 0
M  V30 2121 C 186.394 6.42374 -1.81415 0
M  V30 2122 H 185.664 0.714005 0.198187 0
M  V30 2123 H 188.311 1.9048 -0.197365 0
M  V30 2124 H 186.616 3.40835 1.93232 0
M  V30 2125 H 188.313 3.66189 1.63422 0
M  V30 2126 H 184.903 4.27272 0.337192 0
M  V30 2127 H 189.087 4.94896 -0.373092 0
M  V30 2128 H 184.343 5.96092 -1.35958 0
M  V30 2129 H 188.517 6.65039 -2.06629 0
M  V30 2130 H 186.144 7.15599 -2.56557 0
M  V30 2131 N 187.719 -0.156864 1.56817 0
M  V30 2132 C 188.649 -1.19589 2.00551 0
M  V30 2133 C 189.63 -1.4536 0.883426 0
M  V30 2134 O 190.815 -1.56449 1.15054 0
M  V30 2135 C 187.945 -2.53143 2.37773 0
M  V30 2136 C 186.899 -2.41913 3.53075 0
M  V30 2137 C 186.225 -3.80088 3.76081 0
M  V30 2138 C 187.525 -1.91157 4.86062 0
M  V30 2139 H 189.219 -0.832293 2.87599 0
M  V30 2140 H 186.765 -0.398918 1.38364 0
M  V30 2141 H 188.718 -3.26047 2.66967 0
M  V30 2142 H 187.442 -2.91319 1.4765 0
M  V30 2143 H 186.101 -1.71462 3.24031 0
M  V30 2144 H 185.749 -4.15683 2.83225 0
M  V30 2145 H 185.449 -3.73439 4.53671 0
M  V30 2146 H 186.973 -4.54556 4.0769 0
M  V30 2147 H 188.387 -2.53846 5.14038 0
M  V30 2148 H 186.784 -1.95422 5.67389 0
M  V30 2149 H 187.854 -0.866673 4.77092 0
M  V30 2150 N 189.197 -1.51736 -0.425897 0
M  V30 2151 C 190.147 -1.70258 -1.51645 0
M  V30 2152 C 191.131 -0.556488 -1.5097 0
M  V30 2153 O 192.323 -0.812879 -1.5723 0
M  V30 2154 C 189.452 -1.84143 -2.89735 0
M  V30 2155 C 188.538 -3.04572 -2.95122 0
M  V30 2156 N 188.929 -4.2756 -2.70233 0
M  V30 2157 C 187.227 -3.04061 -3.26286 0
M  V30 2158 C 187.928 -5.08908 -2.81757 0
M  V30 2159 N 186.904 -4.43797 -3.13919 0
M  V30 2160 H 190.706 -2.63004 -1.31172 0
M  V30 2161 H 188.22 -1.4954 -0.633375 0
M  V30 2162 H 190.217 -1.95525 -3.68206 0
M  V30 2163 H 188.877 -0.925857 -3.1122 0
M  V30 2164 H 189.888 -4.56315 -2.44943 0
M  V30 2165 H 186.565 -2.22179 -3.53473 0
M  V30 2166 H 187.955 -6.16843 -2.66372 0
M  V30 2167 N 190.675 0.682077 -1.42076 0
M  V30 2168 C 191.9 1.47558 -1.45744 0
M  V30 2169 C 192.325 1.87977 -0.0680981 0
M  V30 2170 O 191.683 1.55522 0.9318 0
M  V30 2171 C 191.731 2.70575 -2.38373 0
M  V30 2172 O 190.835 3.68573 -1.85007 0
M  V30 2173 H 190.176 0.443585 -0.494093 0
M  V30 2174 H 192.706 0.837238 -1.86686 0
M  V30 2175 H 192.716 3.18729 -2.54707 0
M  V30 2176 H 191.391 2.40495 -3.39315 0
M  V30 2177 H 189.968 3.2757 -1.78192 0
M  V30 2178 N 192.153 1.28127 0.917671 0
M  V30 2179 C 193.401 1.14825 1.66312 0
M  V30 2180 C 193.722 -0.304379 1.9261 0
M  V30 2181 O 192.992 -1.21149 1.53947 0
M  V30 2182 H 191.572 0.421953 0.616413 0
M  V30 2183 H 194.234 1.608 1.10134 0
M  V30 2184 H 193.33 1.68489 2.62712 0
M  V30 2185 N 193.631 -1.12557 1.10312 0
M  V30 2186 C 194.581 -2.16331 0.720076 0
M  V30 2187 C 195.565 -1.58616 -0.270115 0
M  V30 2188 O 196.757 -1.76823 -0.0790507 0
M  V30 2189 C 193.886 -3.42963 0.152113 0
M  V30 2190 C 192.972 -4.07663 1.16927 0
M  V30 2191 N 193.363 -4.47392 2.35953 0
M  V30 2192 C 191.661 -4.34425 1.0095 0
M  V30 2193 C 192.362 -4.97932 3.0073 0
M  V30 2194 N 191.338 -4.93358 2.28252 0
M  V30 2195 H 195.14 -2.44813 1.62616 0
M  V30 2196 H 192.654 -1.29449 0.980654 0
M  V30 2197 H 194.651 -4.16664 -0.14037 0
M  V30 2198 H 193.311 -3.1595 -0.748701 0
M  V30 2199 H 194.322 -4.39802 2.73486 0
M  V30 2200 H 190.999 -4.17177 0.164134 0
M  V30 2201 H 192.389 -5.38397 4.01969 0
M  V30 2202 N 195.109 -0.891671 -1.2995 0
M  V30 2203 C 196.355 -0.514261 -1.96171 0
M  V30 2204 C 196.688 0.935506 -1.70182 0
M  V30 2205 O 195.963 1.66204 -1.01028 0
M  V30 2206 C 196.246 -0.797719 -3.51153 0
M  V30 2207 C 196.099 -2.2986 -3.86632 0
M  V30 2208 C 197.418 -0.278749 -4.39216 0
M  V30 2209 H 194.537 -0.188314 -0.712535 0
M  V30 2210 H 197.179 -1.11689 -1.53706 0
M  V30 2211 H 195.329 -0.284826 -3.87455 0
M  V30 2212 H 197.001 -2.88042 -3.60319 0
M  V30 2213 H 195.244 -2.76257 -3.34462 0
M  V30 2214 H 195.915 -2.44753 -4.94773 0
M  V30 2215 H 198.391 -0.717825 -4.09862 0
M  V30 2216 H 197.267 -0.506353 -5.46559 0
M  V30 2217 H 197.528 0.820266 -4.34424 0
M  V30 2218 N 196.587 1.43421 -0.653314 0
M  V30 2219 C 197.833 2.02111 -0.166992 0
M  V30 2220 C 198.166 1.51423 1.21592 0
M  V30 2221 O 197.441 0.707389 1.8118 0
M  V30 2222 C 197.724 3.5966 -0.177948 0
M  V30 2223 C 197.577 4.20579 -1.59478 0
M  V30 2224 C 198.896 4.37413 0.4856 0
M  V30 2225 H 196.015 0.734374 -0.0621557 0
M  V30 2226 H 198.657 1.70717 -0.834016 0
M  V30 2227 H 196.807 3.86537 0.390032 0
M  V30 2228 H 198.479 4.04732 -2.21336 0
M  V30 2229 H 196.722 3.77226 -2.14204 0
M  V30 2230 H 197.393 5.29665 -1.5543 0
M  V30 2231 H 199.869 4.161 0.00234528 0
M  V30 2232 H 198.745 5.47075 0.447207 0
M  V30 2233 H 199.006 4.13672 1.55974 0
M  V30 2234 N 198.065 0.39524 1.52563 0
M  V30 2235 C 199.015 -0.4541 2.23432 0
M  V30 2236 C 199.999 -1.02482 1.24042 0
M  V30 2237 O 201.191 -0.949938 1.49349 0
M  V30 2238 C 198.32 -1.57769 3.049 0
M  V30 2239 C 197.406 -1.01842 4.1169 0
M  V30 2240 N 197.797 -0.184613 5.05463 0
M  V30 2241 C 196.095 -1.29033 4.26927 0
M  V30 2242 C 196.796 0.125013 5.81566 0
M  V30 2243 N 195.772 -0.480498 5.41472 0
M  V30 2244 H 199.574 0.189413 2.93289 0
M  V30 2245 H 197.088 0.204877 1.61102 0
M  V30 2246 H 199.085 -2.19862 3.54212 0
M  V30 2247 H 197.745 -2.22397 2.36579 0
M  V30 2248 H 198.756 0.178602 5.17592 0
M  V30 2249 H 195.433 -1.93721 3.69836 0
M  V30 2250 H 196.823 0.800962 6.67109 0
M  V30 2251 N 199.544 -1.57102 0.125237 0
M  V30 2252 C 200.96 -1.57915 -0.231322 0
M  V30 2253 C 201.16 -1.13833 -1.66266 0
M  V30 2254 O 200.216 -0.828581 -2.38518 0
M  V30 2255 C 201.529 -3.00699 0.00766489 0
M  V30 2256 C 203.077 -3.12947 -0.0577483 0
M  V30 2257 C 203.552 -4.57742 0.153626 0
M  V30 2258 N 205.043 -4.63092 0.0998073 0
M  V30 2259 C 205.778 -5.72905 0.238174 0
M  V30 2260 N 205.274 -6.91445 0.433057 0
M  V30 2261 N 207.067 -5.6182 0.177308 0
M  V30 2262 H 199.218 -1.84055 1.06007 0
M  V30 2263 H 201.481 -0.850905 0.417929 0
M  V30 2264 H 201.187 -3.3726 0.997431 0
M  V30 2265 H 201.061 -3.70236 -0.721452 0
M  V30 2266 H 203.448 -2.7624 -1.03804 0
M  V30 2267 H 203.529 -2.4594 0.70335 0
M  V30 2268 H 203.173 -4.95149 1.13092 0
M  V30 2269 H 203.103 -5.22848 -0.627534 0
M  V30 2270 H 205.594 -3.77871 -0.047051 0
M  V30 2271 H 205.907 -7.70985 0.529332 0
M  V30 2272 H 204.252 -6.93415 0.469109 0
M  V30 2273 H 207.443 -4.68093 0.0259748 0
M  V30 2274 H 207.616 -6.47357 0.288582 0
M  V30 2275 N 201.022 0.148545 -1.56898 0
M  V30 2276 C 202.299 0.890019 -1.74178 0
M  V30 2277 C 202.679 1.99407 -0.692839 0
M  V30 2278 O 202.027 2.26671 0.288505 0
M  V30 2279 C 202.237 1.43389 -3.18183 0
M  V30 2280 C 203.585 1.89791 -3.79822 0
M  V30 2281 O 204.609 1.53134 -3.21603 0
M  V30 2282 O 203.468 2.57387 -4.82093 0
M  V30 2283 H 200.562 0.420496 -0.712118 0
M  V30 2284 H 203.108 0.134591 -1.69165 0
M  V30 2285 H 201.88 0.640383 -3.86024 0
M  V30 2286 H 201.503 2.25287 -3.27615 0
M  V30 2287 N 202.5 1.5196 0.417844 0
M  V30 2288 C 203.432 1.70895 1.52733 0
M  V30 2289 C 204.445 0.589405 1.51756 0
M  V30 2290 O 205.634 0.864312 1.56179 0
M  V30 2291 C 202.734 1.72627 2.91639 0
M  V30 2292 C 201.907 3.01479 3.16905 0
M  V30 2293 C 200.966 2.95139 4.35637 0
M  V30 2294 O 199.992 3.69059 4.3334 0
M  V30 2295 N 201.194 2.12328 5.40275 0
M  V30 2296 H 203.959 2.66612 1.36888 0
M  V30 2297 H 201.52 1.50089 0.607037 0
M  V30 2298 H 203.512 1.65928 3.6912 0
M  V30 2299 H 202.082 0.844216 3.00985 0
M  V30 2300 H 201.302 3.21895 2.27546 0
M  V30 2301 H 202.59 3.86736 3.30625 0
M  V30 2302 H 201.988 1.51685 5.44985 0
M  V30 2303 H 200.545 2.11494 6.16534 0
M  V30 2304 N 203.978 -0.674533 1.42435 0
M  V30 2305 C 204.925 -1.78807 1.45934 0
M  V30 2306 C 205.895 -1.63157 0.311271 0
M  V30 2307 O 207.08 -1.83707 0.515383 0
M  V30 2308 C 204.22 -3.16839 1.36773 0
M  V30 2309 C 203.333 -3.43774 2.61617 0
M  V30 2310 C 202.468 -4.71536 2.44597 0
M  V30 2311 C 201.507 -4.91505 3.64814 0
M  V30 2312 N 200.644 -6.10508 3.46734 0
M  V30 2313 H 205.484 -1.75151 2.41093 0
M  V30 2314 H 203.021 -0.85504 1.19697 0
M  V30 2315 H 204.979 -3.96606 1.29459 0
M  V30 2316 H 203.609 -3.19619 0.452089 0
M  V30 2317 H 202.661 -2.58259 2.79297 0
M  V30 2318 H 203.973 -3.54423 3.50978 0
M  V30 2319 H 203.127 -5.59393 2.3487 0
M  V30 2320 H 201.866 -4.6317 1.52726 0
M  V30 2321 H 200.871 -4.0209 3.74972 0
M  V30 2322 H 202.096 -5.01716 4.57665 0
M  V30 2323 H 200.042 -6.03315 2.5758 0
M  V30 2324 H 199.959 -6.2202 4.29682 0
M  V30 2325 H 201.227 -7.01044 3.40819 0
M  V30 2326 N 205.456 -1.28612 -0.910864 0
M  V30 2327 C 206.867 -1.14406 -1.47541 0
M  V30 2328 C 207.218 0.264901 -1.94403 0
M  V30 2329 O 206.343 1.15942 -1.82719 0
M  V30 2330 C 206.938 -2.07073 -2.68153 0
M  V30 2331 C 205.497 -1.96923 -3.20778 0
M  V30 2332 C 204.644 -1.98646 -1.93481 0
M  V30 2333 H 207.595 -1.41259 -0.723291 0
M  V30 2334 H 207.616 -1.63642 -3.43514 0
M  V30 2335 H 207.128 -3.09611 -2.34015 0
M  V30 2336 H 205.229 -0.97433 -3.59635 0
M  V30 2337 H 205.342 -2.84026 -3.85832 0
M  V30 2338 H 203.706 -1.43093 -2.10705 0
M  V30 2339 H 204.489 -3.02868 -1.61634 0
M  V30 2340 N 206.934 1.1197 -1.10907 0
M  V30 2341 C 208.159 1.87942 -0.877064 0
M  V30 2342 C 208.584 1.79341 0.567314 0
M  V30 2343 O 207.942 1.15184 1.40009 0
M  V30 2344 C 207.99 3.34926 -1.33629 0
M  V30 2345 O 207.094 4.09303 -0.504447 0
M  V30 2346 H 206.435 0.583785 -0.316371 0
M  V30 2347 H 208.965 1.4157 -1.47712 0
M  V30 2348 H 208.975 3.8577 -1.32837 0
M  V30 2349 H 207.65 3.40504 -2.3881 0
M  V30 2350 H 206.227 3.68393 -0.577993 0
M  V30 2351 N 208.412 0.89855 1.29475 0
M  V30 2352 C 209.36 0.365253 2.29714 0
M  V30 2353 C 210.354 -0.534993 1.6073 0
M  V30 2354 O 211.56 -0.417921 1.75081 0
M  V30 2355 H 207.935 0.0994853 0.74539 0
M  V30 2356 H 209.906 1.22406 2.72138 0
M  V30 2357 C 208.655 -0.393159 3.4547 0
M  V30 2358 H 207.978 0.290332 3.98744 0
M  V30 2359 H 209.418 -0.731189 4.17648 0
M  V30 2360 C 207.877 -1.59539 2.9673 0
M  V30 2361 O 208.407 -2.69469 2.97908 0
M  V30 2362 N 206.613 -1.43716 2.52575 0
M  V30 2363 H 206.16 -0.542828 2.51816 0
M  V30 2364 H 206.118 -2.24288 2.20323 0
M  V30 2365 N 209.89 -1.43072 0.660911 0
M  V30 2366 C 211.136 -2.0202 0.177708 0
M  V30 2367 C 211.469 -1.52066 -1.20787 0
M  V30 2368 O 210.744 -0.716987 -1.80802 0
M  V30 2369 C 211.027 -3.59561 0.197019 0
M  V30 2370 C 210.88 -4.19727 1.61706 0
M  V30 2371 C 212.199 -4.37664 -0.462396 0
M  V30 2372 H 209.318 -0.734034 0.0660494 0
M  V30 2373 H 211.96 -1.70272 0.843058 0
M  V30 2374 H 210.11 -3.86739 -0.369527 0
M  V30 2375 H 211.782 -4.03553 2.23479 0
M  V30 2376 H 210.025 -3.76084 2.16201 0
M  V30 2377 H 210.696 -5.28834 1.58237 0
M  V30 2378 H 213.172 -4.16095 0.0197215 0
M  V30 2379 H 212.048 -5.47305 -0.418188 0
M  V30 2380 H 212.309 -4.14493 -1.53778 0
M  V30 2381 N 211.368 -0.403325 -1.52352 0
M  V30 2382 C 212.298 0.416205 -2.29761 0
M  V30 2383 C 213.279 1.05123 -1.33728 0
M  V30 2384 O 214.464 1.06134 -1.62632 0
M  V30 2385 C 211.594 1.53624 -3.11475 0
M  V30 2386 C 210.548 1.02653 -4.15507 0
M  V30 2387 C 209.874 2.23971 -4.85532 0
M  V30 2388 C 211.174 0.08463 -5.22231 0
M  V30 2389 H 212.868 -0.229701 -2.98518 0
M  V30 2390 H 210.414 -0.111913 -1.43564 0
M  V30 2391 H 212.367 2.1165 -3.64393 0
M  V30 2392 H 211.091 2.20994 -2.40477 0
M  V30 2393 H 209.75 0.46871 -3.63591 0
M  V30 2394 H 209.398 2.89883 -4.11068 0
M  V30 2395 H 209.098 1.90521 -5.55856 0
M  V30 2396 H 210.622 2.82614 -5.41259 0
M  V30 2397 H 212.036 0.573509 -5.70424 0
M  V30 2398 H 210.433 -0.160783 -5.99885 0
M  V30 2399 H 211.503 -0.86237 -4.7717 0
M  V30 2400 N 212.846 1.57033 -0.133567 0
M  V30 2401 C 213.776 2.1909 0.807567 0
M  V30 2402 C 214.757 1.13517 1.26681 0
M  V30 2403 O 215.942 1.41809 1.32679 0
M  V30 2404 C 213.072 2.80188 2.05212 0
M  V30 2405 C 212.026 3.91471 1.73015 0
M  V30 2406 C 211.352 4.39443 3.04622 0
M  V30 2407 C 212.652 5.12886 0.987168 0
M  V30 2408 H 214.346 2.97988 0.290403 0
M  V30 2409 H 211.892 1.43335 0.138239 0
M  V30 2410 H 213.845 3.22264 2.71521 0
M  V30 2411 H 212.569 1.98601 2.59278 0
M  V30 2412 H 211.228 3.49993 1.0909 0
M  V30 2413 H 210.876 3.54695 3.56651 0
M  V30 2414 H 210.576 5.14495 2.83847 0
M  V30 2415 H 212.1 4.8418 3.72024 0
M  V30 2416 H 213.514 5.51891 1.55208 0
M  V30 2417 H 211.911 5.93615 0.87985 0
M  V30 2418 H 212.981 4.84894 -0.0235286 0
M  V30 2419 N 214.325 -0.140222 1.56975 0
M  V30 2420 C 215.602 -0.880769 1.74648 0
M  V30 2421 C 215.982 -1.99036 0.703404 0
M  V30 2422 O 215.33 -2.26821 -0.27648 0
M  V30 2423 C 215.54 -1.417 3.18939 0
M  V30 2424 C 216.888 -1.87774 3.80823 0
M  V30 2425 O 217.912 -1.51427 3.2241 0
M  V30 2426 O 216.771 -2.54827 4.83452 0
M  V30 2427 H 213.865 -0.416713 0.714338 0
M  V30 2428 H 216.411 -0.125618 1.69234 0
M  V30 2429 H 215.183 -0.619902 3.86359 0
M  V30 2430 H 214.806 -2.23546 3.28805 0
M  V30 2431 N 215.803 -1.52179 -0.40978 0
M  V30 2432 C 216.766 -1.74853 -1.48186 0
M  V30 2433 C 217.766 -0.618417 -1.48433 0
M  V30 2434 O 218.956 -0.886286 -1.49969 0
M  V30 2435 C 216.088 -1.8303 -2.87598 0
M  V30 2436 H 217.281 -2.70559 -1.29374 0
M  V30 2437 H 214.834 -1.42586 -0.640233 0
M  V30 2438 H 215.569 -0.89236 -3.11781 0
M  V30 2439 H 215.354 -2.65187 -2.88822 0
M  V30 2440 H 216.844 -2.02316 -3.65319 0
M  V30 2441 N 217.281 0.66697 -1.42791 0
M  V30 2442 C 218.229 1.80157 -1.47127 0
M  V30 2443 C 219.223 1.65825 -0.346199 0
M  V30 2444 O 220.429 1.72338 -0.519572 0
M  V30 2445 H 216.804 0.594158 -0.460956 0
M  V30 2446 H 218.775 1.73619 -2.42692 0
M  V30 2447 C 217.524 3.18351 -1.39813 0
M  V30 2448 H 216.847 3.3001 -2.25684 0
M  V30 2449 H 218.287 3.97736 -1.46908 0
M  V30 2450 C 216.746 3.36707 -0.11391 0
M  V30 2451 O 217.276 3.93027 0.830241 0
M  V30 2452 N 215.482 2.90586 -0.0285295 0
M  V30 2453 H 215.029 2.4494 -0.79764 0
M  V30 2454 H 214.987 3.03245 0.830063 0
M  V30 2455 N 218.759 1.29093 0.90403 0
M  V30 2456 C 219.999 1.18076 1.66845 0
M  V30 2457 C 220.363 -0.26436 1.90171 0
M  V30 2458 O 221.564 -0.497423 2.64157 0
M  V30 2459 C 219.835 1.96722 2.98388 0
M  V30 2460 S 221.394 2.0219 3.89441 0
M  V30 2461 H 218.212 0.421104 0.572881 0
M  V30 2462 H 220.814 1.63322 1.07453 0
M  V30 2463 H 219.518 3.00866 2.7912 0
M  V30 2464 H 219.049 1.52064 3.62823 0
M  V30 2465 H 221.064 1.13545 4.83034 0
M  V30 2466 N 220.237 -1.11381 1.11499 0
M  V30 2467 C 221.465 -1.86934 0.88675 0
M  V30 2468 C 221.88 -1.80195 -0.563476 0
M  V30 2469 O 221.237 -1.18367 -1.38908 0
M  V30 2470 C 221.288 -3.35722 1.34064 0
M  V30 2471 O 221.009 -3.4232 2.73401 0
M  V30 2472 C 222.51 -4.2818 1.14791 0
M  V30 2473 H 219.73 -0.591117 0.317523 0
M  V30 2474 H 222.274 -1.40865 1.48248 0
M  V30 2475 H 220.429 -3.79294 0.788355 0
M  V30 2476 H 220.843 -4.34971 2.93087 0
M  V30 2477 H 222.317 -5.30817 1.5145 0
M  V30 2478 H 222.794 -4.39113 0.0875279 0
M  V30 2479 H 223.4 -3.90402 1.68721 0
M  V30 2480 N 221.715 -0.905404 -1.28997 0
M  V30 2481 C 222.961 -0.535039 -1.95615 0
M  V30 2482 C 223.294 0.917404 -1.71165 0
M  V30 2483 O 222.569 1.65123 -1.02785 0
M  V30 2484 C 222.852 -0.834918 -3.50287 0
M  V30 2485 C 222.705 -2.33948 -3.84172 0
M  V30 2486 C 224.024 -0.325318 -4.38896 0
M  V30 2487 H 221.143 -0.195861 -0.710498 0
M  V30 2488 H 223.785 -1.13313 -1.52513 0
M  V30 2489 H 221.935 -0.325904 -3.87131 0
M  V30 2490 H 223.607 -2.91847 -3.57243 0
M  V30 2491 H 221.85 -2.79789 -3.31513 0
M  V30 2492 H 222.521 -2.49987 -4.92149 0
M  V30 2493 H 224.997 -0.761256 -4.09077 0
M  V30 2494 H 223.873 -0.564295 -5.45992 0
M  V30 2495 H 224.134 0.774144 -4.35269 0
M  V30 2496 N 223.193 1.4272 -0.668489 0
M  V30 2497 C 224.14 2.30796 0.0137489 0
M  V30 2498 C 225.11 1.4561 0.799177 0
M  V30 2499 O 226.295 1.74453 0.772702 0
M  V30 2500 C 223.435 3.31377 0.963507 0
M  V30 2501 C 222.548 4.31655 0.172569 0
M  V30 2502 C 221.683 5.19312 1.1175 0
M  V30 2503 C 220.722 6.11274 0.317886 0
M  V30 2504 N 219.859 6.91504 1.2152 0
M  V30 2505 H 224.699 2.88585 -0.743161 0
M  V30 2506 H 222.236 1.42154 -0.378226 0
M  V30 2507 H 224.194 3.88214 1.52792 0
M  V30 2508 H 222.824 2.75202 1.68712 0
M  V30 2509 H 221.876 3.76988 -0.508374 0
M  V30 2510 H 223.188 4.96779 -0.448527 0
M  V30 2511 H 222.342 5.80851 1.75206 0
M  V30 2512 H 221.081 4.5435 1.77249 0
M  V30 2513 H 220.086 5.48809 -0.329918 0
M  V30 2514 H 221.311 6.78283 -0.332917 0
M  V30 2515 H 219.257 6.29176 1.85671 0
M  V30 2516 H 219.174 7.53209 0.649036 0
M  V30 2517 H 220.442 7.57535 1.83742 0
M  V30 2518 N 224.671 0.411399 1.52136 0
M  V30 2519 C 225.601 -0.404015 2.29978 0
M  V30 2520 C 226.582 -1.04412 1.34284 0
M  V30 2521 O 227.767 -1.0527 1.63192 0
M  V30 2522 C 224.897 -1.5197 3.12286 0
M  V30 2523 C 223.851 -1.00448 4.16046 0
M  V30 2524 C 223.177 -2.21393 4.86712 0
M  V30 2525 C 224.477 -0.0569336 5.22269 0
M  V30 2526 H 226.171 0.245529 2.98392 0
M  V30 2527 H 223.717 0.119525 1.43503 0
M  V30 2528 H 225.67 -2.09715 3.6551 0
M  V30 2529 H 224.394 -2.19716 2.41646 0
M  V30 2530 H 223.053 -0.449421 3.63835 0
M  V30 2531 H 222.701 -2.87699 4.12599 0
M  V30 2532 H 222.401 -1.87571 5.56858 0
M  V30 2533 H 223.925 -2.7974 5.4275 0
M  V30 2534 H 225.339 -0.54325 5.7072 0
M  V30 2535 H 223.736 0.192594 5.99791 0
M  V30 2536 H 224.806 0.887663 4.76706 0
M  V30 2537 N 226.149 -1.5696 0.141893 0
M  V30 2538 C 227.389 -1.9785 -0.513304 0
M  V30 2539 C 227.753 -1.02467 -1.62371 0
M  V30 2540 O 228.954 -1.32382 -2.33941 0
M  V30 2541 C 227.225 -3.42797 -1.01118 0
M  V30 2542 S 228.784 -4.05709 -1.67169 0
M  V30 2543 H 225.602 -0.691318 -0.166135 0
M  V30 2544 H 228.204 -1.94114 0.232398 0
M  V30 2545 H 226.908 -4.0995 -0.192179 0
M  V30 2546 H 226.439 -3.50235 -1.79162 0
M  V30 2547 H 228.454 -3.98342 -2.95868 0
M  V30 2548 N 227.627 0.131896 -1.57047 0
M  V30 2549 C 228.904 0.871495 -1.75112 0
M  V30 2550 C 229.284 1.9866 -0.713949 0
M  V30 2551 O 228.632 2.26965 0.264447 0
M  V30 2552 C 228.842 1.40007 -3.19686 0
M  V30 2553 C 230.19 1.85752 -3.81813 0
M  V30 2554 O 231.214 1.49715 -3.23209 0
M  V30 2555 O 230.073 2.5226 -4.84796 0
M  V30 2556 H 227.167 0.412919 -0.716538 0
M  V30 2557 H 229.713 0.116641 -1.69299 0
M  V30 2558 H 228.485 0.599404 -3.86682 0
M  V30 2559 H 228.108 2.218 -3.29986 0
M  V30 2560 N 229.106 1.52395 0.401703 0
M  V30 2561 C 230.353 1.66817 1.14796 0
M  V30 2562 C 230.681 0.401772 1.90305 0
M  V30 2563 O 229.936 -0.615487 1.85769 0
M  V30 2564 C 230.235 2.84578 2.16217 0
M  V30 2565 C 229.901 4.22513 1.5746 0
M  V30 2566 C 228.563 4.60029 1.41161 0
M  V30 2567 C 230.915 5.0844 1.14622 0
M  V30 2568 C 228.243 5.81144 0.80552 0
M  V30 2569 C 230.595 6.30167 0.55428 0
M  V30 2570 C 229.259 6.66426 0.378482 0
M  V30 2571 H 228.529 0.610428 0.420069 0
M  V30 2572 H 231.176 1.86512 0.434212 0
M  V30 2573 H 229.481 2.59248 2.93764 0
M  V30 2574 H 231.178 2.92933 2.73845 0
M  V30 2575 H 227.768 3.92953 1.71132 0
M  V30 2576 H 231.952 4.80034 1.26021 0
M  V30 2577 H 227.208 6.07855 0.657399 0
M  V30 2578 H 231.382 6.96071 0.213983 0
M  V30 2579 H 229.009 7.60143 -0.0932606 0
M  V30 2580 N 230.584 -0.659388 1.43143 0
M  V30 2581 C 231.832 -1.41654 1.44147 0
M  V30 2582 C 232.153 -1.94893 0.0645739 0
M  V30 2583 O 231.423 -1.74044 -0.899198 0
M  V30 2584 H 230.003 -0.525708 0.530697 0
M  V30 2585 H 232.665 -0.778097 1.78694 0
M  V30 2586 H 231.761 -2.26195 2.1504 0
M  V30 2587 N 232.062 -1.29571 -0.897171 0
M  V30 2588 C 232.992 -1.17473 -2.01798 0
M  V30 2589 C 233.973 -0.068323 -1.69963 0
M  V30 2590 O 235.158 -0.248239 -1.92607 0
M  V30 2591 C 232.288 -0.853099 -3.36659 0
M  V30 2592 C 231.242 -1.9161 -3.82713 0
M  V30 2593 C 230.568 -1.44773 -5.14728 0
M  V30 2594 C 231.868 -3.32535 -4.02763 0
M  V30 2595 H 233.562 -2.11237 -2.12177 0
M  V30 2596 H 231.108 -1.01699 -1.01948 0
M  V30 2597 H 233.061 -0.755165 -4.14578 0
M  V30 2598 H 231.785 0.120236 -3.26379 0
M  V30 2599 H 230.444 -2.00346 -3.07013 0
M  V30 2600 H 230.092 -0.462995 -5.00865 0
M  V30 2601 H 229.792 -2.15865 -5.46513 0
M  V30 2602 H 231.316 -1.36334 -5.95185 0
M  V30 2603 H 232.73 -3.26626 -4.71156 0
M  V30 2604 H 231.127 -4.01607 -4.45905 0
M  V30 2605 H 232.197 -3.75326 -3.07016 0
M  V30 2606 N 233.54 1.10788 -1.12088 0
M  V30 2607 C 234.503 2.15207 -0.788577 0
M  V30 2608 C 235.503 1.59609 0.195317 0
M  V30 2609 O 236.693 1.74174 -0.0300193 0
M  V30 2610 C 233.825 3.4047 -0.171174 0
M  V30 2611 H 235.018 2.46116 -1.71368 0
M  V30 2612 H 232.571 1.26089 -0.923652 0
M  V30 2613 H 233.306 3.15176 0.763832 0
M  V30 2614 H 233.091 3.82109 -0.879514 0
M  V30 2615 H 234.581 4.17576 0.04496 0
M  V30 2616 N 235.018 0.912232 1.28515 0
M  V30 2617 C 236.434 0.610159 1.47476 0
M  V30 2618 C 236.634 -0.844955 1.82928 0
M  V30 2619 O 235.69 -1.62416 1.93332 0
M  V30 2620 C 237.003 1.54675 2.57868 0
M  V30 2621 C 238.551 1.55331 2.71738 0
M  V30 2622 C 239.026 2.47649 3.85272 0
M  V30 2623 N 240.517 2.45767 3.92623 0
M  V30 2624 C 241.252 3.13896 4.79851 0
M  V30 2625 N 240.748 3.9135 5.71679 0
M  V30 2626 N 242.541 3.02991 4.73448 0
M  V30 2627 H 234.692 1.85318 1.03783 0
M  V30 2628 H 236.955 0.794777 0.516753 0
M  V30 2629 H 236.661 2.5841 2.38574 0
M  V30 2630 H 236.535 1.27671 3.54937 0
M  V30 2631 H 238.922 0.52335 2.90422 0
M  V30 2632 H 239.003 1.86378 1.75205 0
M  V30 2633 H 238.647 3.50745 3.67342 0
M  V30 2634 H 238.577 2.13904 4.81199 0
M  V30 2635 H 241.068 1.89503 3.26951 0
M  V30 2636 H 241.381 4.40359 6.35062 0
M  V30 2637 H 239.726 3.95455 5.71524 0
M  V30 2638 H 242.917 2.41987 4.007 0
M  V30 2639 H 243.09 3.5636 5.41213 0
M  V30 2640 N 236.496 -1.42363 0.676048 0
M  V30 2641 C 237.721 -2.06377 0.205705 0
M  V30 2642 C 238.146 -1.50463 -1.12883 0
M  V30 2643 O 237.504 -0.623619 -1.70237 0
M  V30 2644 C 237.552 -3.60277 0.152655 0
M  V30 2645 O 236.656 -4.02935 -0.87845 0
M  V30 2646 H 235.997 -0.655588 0.105359 0
M  V30 2647 H 238.527 -1.82475 0.925412 0
M  V30 2648 H 238.537 -4.07993 -0.0230675 0
M  V30 2649 H 237.212 -4.00346 1.12675 0
M  V30 2650 H 235.789 -3.66764 -0.673668 0
M  V30 2651 N 237.974 -0.419461 -1.51915 0
M  V30 2652 C 238.904 0.391813 -2.30189 0
M  V30 2653 C 239.885 1.03699 -1.34836 0
M  V30 2654 O 241.07 1.04403 -1.63748 0
M  V30 2655 C 238.2 1.50312 -3.13087 0
M  V30 2656 C 237.154 0.9824 -4.16573 0
M  V30 2657 C 236.48 2.18809 -4.8788 0
M  V30 2658 C 237.78 0.0292356 -5.22292 0
M  V30 2659 H 239.474 -0.26135 -2.98257 0
M  V30 2660 H 237.02 -0.127134 -1.43438 0
M  V30 2661 H 238.973 2.07773 -3.66617 0
M  V30 2662 H 237.697 2.18431 -2.42807 0
M  V30 2663 H 236.356 0.430119 -3.64068 0
M  V30 2664 H 236.004 2.85507 -4.14119 0
M  V30 2665 H 235.704 1.84615 -5.57845 0
M  V30 2666 H 237.228 2.76858 -5.44226 0
M  V30 2667 H 238.642 0.512976 -5.71 0
M  V30 2668 H 237.039 -0.2244 -5.9968 0
M  V30 2669 H 238.109 -0.912931 -4.76228 0
M  V30 2670 N 239.452 1.56882 -0.150215 0
M  V30 2671 C 240.7 1.9584 0.499105 0
M  V30 2672 C 241.021 1.03623 1.65188 0
M  V30 2673 O 240.291 0.0984084 1.95653 0
M  V30 2674 H 238.871 0.723119 0.187373 0
M  V30 2675 H 241.533 1.9358 -0.226466 0
M  V30 2676 H 240.629 2.99638 0.873122 0
M  V30 2677 N 240.93 -0.123565 1.57115 0
M  V30 2678 C 242.207 -0.862196 1.75572 0
M  V30 2679 C 242.587 -1.98279 0.724475 0
M  V30 2680 O 241.935 -2.27102 -0.252407 0
M  V30 2681 C 242.145 -1.38309 3.20424 0
M  V30 2682 C 243.493 -1.83724 3.82793 0
M  V30 2683 O 244.517 -1.47999 3.23998 0
M  V30 2684 O 243.376 -2.49685 4.86127 0
M  V30 2685 H 240.47 -0.409113 0.718718 0
M  V30 2686 H 243.016 -0.107661 1.69358 0
M  V30 2687 H 241.788 -0.578889 3.86994 0
M  V30 2688 H 241.411 -2.20046 3.31158 0
M  V30 2689 N 242.408 -1.52605 -0.393616 0
M  V30 2690 C 243.338 -1.80022 -1.48709 0
M  V30 2691 C 244.319 -0.651995 -1.57108 0
M  V30 2692 O 245.504 -0.89913 -1.72132 0
M  V30 2693 C 242.634 -1.96492 -2.86371 0
M  V30 2694 C 241.588 -3.12161 -2.92813 0
M  V30 2695 C 240.914 -3.13877 -4.3288 0
M  V30 2696 C 242.214 -4.51322 -2.6288 0
M  V30 2697 H 243.908 -2.71589 -1.26015 0
M  V30 2698 H 241.454 -1.30684 -0.604778 0
M  V30 2699 H 243.407 -2.14255 -3.62867 0
M  V30 2700 H 242.131 -1.01611 -3.10391 0
M  V30 2701 H 240.79 -2.94173 -2.18764 0
M  V30 2702 H 240.438 -2.16687 -4.53933 0
M  V30 2703 H 240.138 -3.91576 -4.38112 0
M  V30 2704 H 241.662 -3.33789 -5.1129 0
M  V30 2705 H 243.076 -4.69435 -3.29096 0
M  V30 2706 H 241.473 -5.31053 -2.79468 0
M  V30 2707 H 242.543 -4.58353 -1.58242 0
M  V30 2708 N 243.887 0.651787 -1.4349 0
M  V30 2709 C 245.298 1.233 -1.40193 0
M  V30 2710 C 245.649 1.9591 -0.106727 0
M  V30 2711 O 244.774 2.01316 0.793773 0
M  V30 2712 C 245.369 2.24257 -2.53957 0
M  V30 2713 C 243.928 2.77852 -2.5392 0
M  V30 2714 C 243.075 1.52517 -2.3159 0
M  V30 2715 H 246.026 0.443717 -1.52371 0
M  V30 2716 H 246.047 3.0646 -2.25528 0
M  V30 2717 H 245.559 1.71382 -3.4821 0
M  V30 2718 H 243.66 3.34786 -1.63551 0
M  V30 2719 H 243.773 3.25299 -3.51735 0
M  V30 2720 H 242.137 1.79915 -1.80285 0
M  V30 2721 H 242.92 1.01574 -3.27929 0
M  V30 2722 N 245.365 1.30045 0.890287 0
M  V30 2723 C 246.275 1.17885 2.02831 0
M  V30 2724 C 247.291 0.0999609 1.73713 0
M  V30 2725 O 248.467 0.313867 1.98939 0
M  V30 2726 C 245.532 0.866079 3.35708 0
M  V30 2727 C 244.593 2.02979 3.78283 0
M  V30 2728 C 243.826 1.73184 5.0482 0
M  V30 2729 O 244.049 0.657237 5.66601 0
M  V30 2730 O 242.983 2.58267 5.43674 0
M  V30 2731 H 246.809 2.13474 2.16015 0
M  V30 2732 H 244.394 1.09587 1.01543 0
M  V30 2733 H 246.276 0.706623 4.15433 0
M  V30 2734 H 244.951 -0.0599443 3.23644 0
M  V30 2735 H 243.858 2.24454 2.99285 0
M  V30 2736 H 245.191 2.93734 3.94944 0
M  V30 2737 N 246.843 -1.10192 1.12674 0
M  V30 2738 C 248.091 -1.81845 0.881861 0
M  V30 2739 C 248.412 -1.85737 -0.593867 0
M  V30 2740 O 247.682 -1.33724 -1.4316 0
M  V30 2741 H 246.262 -0.673432 0.323261 0
M  V30 2742 H 248.924 -1.33316 1.42172 0
M  V30 2743 H 248.02 -2.85288 1.2656 0
M  V30 2744 N 248.321 -0.919034 -1.28029 0
M  V30 2745 C 249.732 -0.600735 -1.76771 0
M  V30 2746 C 250.083 0.884024 -1.75156 0
M  V30 2747 O 249.208 1.69163 -1.34956 0
M  V30 2748 C 249.803 -1.08372 -3.21 0
M  V30 2749 C 248.362 -0.816248 -3.67443 0
M  V30 2750 C 247.509 -1.24742 -2.47658 0
M  V30 2751 H 250.46 -1.09974 -1.14418 0
M  V30 2752 H 250.481 -0.427512 -3.78091 0
M  V30 2753 H 249.993 -2.16437 -3.22144 0
M  V30 2754 H 248.094 0.250968 -3.71754 0
M  V30 2755 H 248.207 -1.4277 -4.57333 0
M  V30 2756 H 246.571 -0.666083 -2.45836 0
M  V30 2757 H 247.354 -2.33653 -2.51518 0
M  V30 2758 N 249.799 1.42003 -0.683588 0
M  V30 2759 C 250.709 2.34597 -0.0109075 0
M  V30 2760 C 251.725 1.55576 0.779245 0
M  V30 2761 O 252.901 1.88107 0.719555 0
M  V30 2762 C 249.966 3.34199 0.922588 0
M  V30 2763 C 249.027 4.29115 0.125984 0
M  V30 2764 C 248.26 5.23959 1.01502 0
M  V30 2765 O 248.483 5.23952 2.25456 0
M  V30 2766 O 247.417 6.00053 0.47111 0
M  V30 2767 H 251.243 2.93675 -0.773853 0
M  V30 2768 H 248.828 1.42654 -0.443861 0
M  V30 2769 H 250.71 3.95365 1.45823 0
M  V30 2770 H 249.385 2.77582 1.66523 0
M  V30 2771 H 248.292 3.71335 -0.453969 0
M  V30 2772 H 249.625 4.88798 -0.577736 0
M  V30 2773 N 251.277 0.427512 1.51691 0
M  V30 2774 C 252.554 -0.201684 1.94557 0
M  V30 2775 C 252.934 -1.60981 1.36559 0
M  V30 2776 O 252.282 -2.21814 0.548702 0
M  V30 2777 C 252.492 -0.189394 3.48486 0
M  V30 2778 C 253.84 -0.39978 4.22714 0
M  V30 2779 O 254.864 -0.267945 3.55191 0
M  V30 2780 O 253.723 -0.661249 5.42485 0
M  V30 2781 H 250.817 -0.135261 0.815864 0
M  V30 2782 H 253.363 0.484782 1.62628 0
M  V30 2783 H 252.135 0.795431 3.8313 0
M  V30 2784 H 251.758 -0.919187 3.86829 0
M  V30 2785 N 252.755 -1.56801 0.158532 0
M  V30 2786 C 253.687 -2.14488 -0.807923 0
M  V30 2787 C 254.7 -1.09721 -1.20271 0
M  V30 2788 O 255.889 -1.36956 -1.14478 0
M  V30 2789 C 252.989 -2.66217 -2.09718 0
M  V30 2790 C 252.162 -3.95507 -1.86796 0
M  V30 2791 C 251.221 -4.3243 -2.99818 0
M  V30 2792 O 250.247 -5.00543 -2.71008 0
M  V30 2793 N 251.449 -3.92947 -4.27285 0
M  V30 2794 H 254.214 -2.98042 -0.314816 0
M  V30 2795 H 251.775 -1.61881 -0.0246692 0
M  V30 2796 H 253.767 -2.87924 -2.84398 0
M  V30 2797 H 252.337 -1.87324 -2.50257 0
M  V30 2798 H 251.557 -3.82309 -0.96089 0
M  V30 2799 H 252.845 -4.79972 -1.68833 0
M  V30 2800 H 252.243 -3.38087 -4.53557 0
M  V30 2801 H 250.8 -4.19681 -4.9871 0
M  V30 2802 N 254.233 0.115231 -1.57178 0
M  V30 2803 C 255.196 1.12526 -1.99676 0
M  V30 2804 C 256.196 1.34095 -0.88742 0
M  V30 2805 O 257.386 1.30548 -1.15337 0
M  V30 2806 C 254.518 2.4789 -2.34015 0
M  V30 2807 H 255.711 0.759912 -2.90113 0
M  V30 2808 H 253.264 0.359648 -1.52106 0
M  V30 2809 H 253.999 2.89339 -1.4647 0
M  V30 2810 H 253.784 2.33588 -3.14927 0
M  V30 2811 H 255.274 3.20575 -2.67622 0
M  V30 2812 N 255.711 1.52812 0.385517 0
M  V30 2813 C 256.957 1.68275 1.13188 0
M  V30 2814 C 257.29 0.423179 1.89533 0
M  V30 2815 O 256.565 -0.579113 1.85679 0
M  V30 2816 C 256.848 2.92001 2.1073 0
M  V30 2817 C 256.701 4.28067 1.38125 0
M  V30 2818 C 258.02 3.11283 3.11113 0
M  V30 2819 H 255.139 0.612352 0.410115 0
M  V30 2820 H 257.781 1.85415 0.414869 0
M  V30 2821 H 255.931 2.77519 2.71874 0
M  V30 2822 H 257.603 4.54324 0.799187 0
M  V30 2823 H 255.846 4.28388 0.683092 0
M  V30 2824 H 256.517 5.10733 2.09417 0
M  V30 2825 H 258.993 3.2482 2.6006 0
M  V30 2826 H 257.869 3.99325 3.76605 0
M  V30 2827 H 258.13 2.25656 3.80173 0
M  V30 2828 N 257.189 -0.644168 1.43834 0
M  V30 2829 C 258.417 -1.43147 1.49387 0
M  V30 2830 C 258.832 -1.88452 0.114583 0
M  V30 2831 O 258.189 -1.60047 -0.876989 0
M  V30 2832 C 258.24 -2.66046 2.44748 0
M  V30 2833 O 257.961 -2.22633 3.77314 0
M  V30 2834 C 259.462 -3.59311 2.59635 0
M  V30 2835 H 256.682 -0.439447 0.507077 0
M  V30 2836 H 259.226 -0.78895 1.88669 0
M  V30 2837 H 257.381 -3.26418 2.08638 0
M  V30 2838 H 257.795 -3.02216 4.28679 0
M  V30 2839 H 259.269 -4.42187 3.30416 0
M  V30 2840 H 259.746 -4.07259 1.64427 0
M  V30 2841 H 260.352 -3.04816 2.96593 0
M  V30 2842 N 258.668 -1.30515 -0.883378 0
M  V30 2843 C 259.578 -1.18959 -2.02203 0
M  V30 2844 C 260.594 -0.109172 -1.73657 0
M  V30 2845 O 261.77 -0.324413 -1.9877 0
M  V30 2846 C 258.835 -0.883871 -3.35244 0
M  V30 2847 C 257.896 -2.04982 -3.77201 0
M  V30 2848 C 257.129 -1.75859 -5.03894 0
M  V30 2849 O 257.352 -0.687276 -5.66244 0
M  V30 2850 O 256.286 -2.61146 -5.42297 0
M  V30 2851 H 260.112 -2.14616 -2.1488 0
M  V30 2852 H 257.697 -1.10124 -1.0096 0
M  V30 2853 H 259.579 -0.728644 -4.15053 0
M  V30 2854 H 258.254 0.0427798 -3.23672 0
M  V30 2855 H 257.161 -2.26038 -2.9809 0
M  V30 2856 H 258.494 -2.95825 -3.93381 0
M  V30 2857 N 260.146 1.09593 -1.13257 0
M  V30 2858 C 261.376 1.85231 -0.915049 0
M  V30 2859 C 261.784 1.81345 0.539498 0
M  V30 2860 O 261.127 1.20664 1.38513 0
M  V30 2861 C 261.189 3.34275 -1.3229 0
M  V30 2862 C 260.853 3.6191 -2.79052 0
M  V30 2863 C 261.85 3.57777 -3.77216 0
M  V30 2864 C 259.535 3.90309 -3.16171 0
M  V30 2865 C 261.529 3.81652 -5.1051 0
M  V30 2866 C 259.216 4.13839 -4.49644 0
M  V30 2867 C 260.214 4.09502 -5.46623 0
M  V30 2868 O 259.902 4.32426 -6.77689 0
M  V30 2869 H 259.634 0.591997 -0.326367 0
M  V30 2870 H 262.188 1.394 -1.50854 0
M  V30 2871 H 260.418 3.80805 -0.672667 0
M  V30 2872 H 262.107 3.9132 -1.07812 0
M  V30 2873 H 262.873 3.35865 -3.49885 0
M  V30 2874 H 258.752 3.92811 -2.41289 0
M  V30 2875 H 262.296 3.78182 -5.86195 0
M  V30 2876 H 258.193 4.35232 -4.767 0
M  V30 2877 H 258.961 4.49896 -6.83766 0
M  V30 2878 N 261.624 0.925811 1.2754 0
M  V30 2879 C 262.87 0.566092 1.94739 0
M  V30 2880 C 263.203 -0.890057 1.72603 0
M  V30 2881 O 262.478 -1.63467 1.05399 0
M  V30 2882 C 262.761 0.89054 3.48915 0
M  V30 2883 C 262.614 2.4003 3.80402 0
M  V30 2884 C 263.933 0.395101 4.38323 0
M  V30 2885 H 261.052 0.20714 0.707292 0
M  V30 2886 H 263.694 1.15725 1.50691 0
M  V30 2887 H 261.844 0.387452 3.86563 0
M  V30 2888 H 263.516 2.97494 3.52555 0
M  V30 2889 H 261.759 2.85028 3.2702 0
M  V30 2890 H 262.43 2.57785 4.8811 0
M  V30 2891 H 264.906 0.826241 4.07814 0
M  V30 2892 H 263.782 0.651086 5.45025 0
M  V30 2893 H 264.043 -0.704798 4.36446 0
M  V30 2894 N 263.102 -1.41638 0.69111 0
M  V30 2895 C 264.065 -2.29178 0.0319786 0
M  V30 2896 C 265.065 -1.44153 -0.712496 0
M  V30 2897 O 266.255 -1.65354 -0.548053 0
M  V30 2898 C 263.387 -3.26952 -0.965161 0
M  V30 2899 H 264.58 -2.88959 0.802681 0
M  V30 2900 H 262.133 -1.4955 0.454356 0
M  V30 2901 H 262.868 -2.72142 -1.76378 0
M  V30 2902 H 262.653 -3.89685 -0.434522 0
M  V30 2903 H 264.143 -3.92561 -1.42428 0
M  V30 2904 N 264.58 -0.43555 -1.51462 0
M  V30 2905 C 265.808 0.130242 -2.0649 0
M  V30 2906 C 266.223 1.36614 -1.30315 0
M  V30 2907 O 265.58 1.78869 -0.362223 0
M  V30 2908 C 265.631 0.454253 -3.58635 0
M  V30 2909 O 265.352 -0.73259 -4.31931 0
M  V30 2910 C 266.853 1.07091 -4.3017 0
M  V30 2911 H 264.073 0.00871669 -0.670943 0
M  V30 2912 H 266.617 -0.614117 -1.95061 0
M  V30 2913 H 264.772 1.14851 -3.69984 0
M  V30 2914 H 265.186 -0.455787 -5.22516 0
M  V30 2915 H 266.66 1.24764 -5.37716 0
M  V30 2916 H 267.137 2.05144 -3.88346 0
M  V30 2917 H 267.743 0.416089 -4.2326 0
M  V30 2918 N 266.058 1.56714 -0.166846 0
M  V30 2919 C 267.474 1.58473 0.189372 0
M  V30 2920 C 267.674 1.18201 1.63189 0
M  V30 2921 O 266.73 0.891528 2.36237 0
M  V30 2922 C 268.043 3.00573 -0.0873872 0
M  V30 2923 C 269.591 3.1299 -0.0252443 0
M  V30 2924 C 270.066 4.57174 -0.274934 0
M  V30 2925 N 271.557 4.62665 -0.222553 0
M  V30 2926 C 272.292 5.72072 -0.389985 0
M  V30 2927 N 271.788 6.90054 -0.616229 0
M  V30 2928 N 273.581 5.61153 -0.326202 0
M  V30 2929 H 265.732 1.8118 -1.10849 0
M  V30 2930 H 267.995 0.839525 -0.440342 0
M  V30 2931 H 267.701 3.34497 -1.0865 0
M  V30 2932 H 267.575 3.72019 0.623037 0
M  V30 2933 H 269.962 2.78895 0.96444 0
M  V30 2934 H 270.043 2.43989 -0.768309 0
M  V30 2935 H 269.687 4.91976 -1.26181 0
M  V30 2936 H 269.617 5.24328 0.48869 0
M  V30 2937 H 272.108 3.77863 -0.0531512 0
M  V30 2938 H 272.421 7.69311 -0.733559 0
M  V30 2939 H 270.766 6.91927 -0.652791 0
M  V30 2940 H 273.957 4.67859 -0.150072 0
M  V30 2941 H 274.13 6.46364 -0.460116 0
M  V30 2942 N 267.536 -0.106894 1.57237 0
M  V30 2943 C 268.782 -0.808678 1.86633 0
M  V30 2944 C 269.137 -1.76917 0.756178 0
M  V30 2945 O 268.43 -1.90055 -0.242834 0
M  V30 2946 C 268.624 -1.58628 3.20268 0
M  V30 2947 C 268.453 -0.702592 4.44178 0
M  V30 2948 C 267.223 -0.352808 5.04067 0
M  V30 2949 C 269.421 -0.0148031 5.14298 0
M  V30 2950 N 267.403 0.540279 6.11518 0
M  V30 2951 C 268.774 0.736809 6.15606 0
M  V30 2952 C 270.829 0.0603524 4.97863 0
M  V30 2953 C 269.532 1.55654 7.02257 0
M  V30 2954 C 271.558 0.866942 5.85011 0
M  V30 2955 C 270.92 1.60671 6.85831 0
M  V30 2956 H 267.019 -0.27246 0.733001 0
M  V30 2957 H 269.603 -0.0717858 1.94568 0
M  V30 2958 H 267.774 -2.29413 3.13408 0
M  V30 2959 H 269.506 -2.23434 3.3743 0
M  V30 2960 H 266.261 -0.697802 4.68431 0
M  V30 2961 H 266.685 0.979029 6.69884 0
M  V30 2962 H 271.327 -0.497236 4.19866 0
M  V30 2963 H 269.045 2.12524 7.79653 0
M  V30 2964 H 272.631 0.927612 5.74358 0
M  V30 2965 H 271.511 2.2208 7.52097 0
M  V30 2966 N 269.014 -1.53014 -0.377408 0
M  V30 2967 C 270.244 -1.72265 -1.14054 0
M  V30 2968 C 270.652 -0.44601 -1.83868 0
M  V30 2969 O 269.995 0.590095 -1.73964 0
M  V30 2970 C 270.057 -2.82492 -2.22348 0
M  V30 2971 C 269.721 -4.23233 -1.72402 0
M  V30 2972 C 270.718 -5.05992 -1.19448 0
M  V30 2973 C 268.403 -4.696 -1.78273 0
M  V30 2974 C 270.397 -6.33203 -0.730268 0
M  V30 2975 C 268.084 -5.96792 -1.31464 0
M  V30 2976 C 269.082 -6.78424 -0.789297 0
M  V30 2977 O 268.77 -8.0323 -0.328077 0
M  V30 2978 H 268.502 -0.579873 -0.347453 0
M  V30 2979 H 271.056 -2.00502 -0.445882 0
M  V30 2980 H 269.286 -2.49702 -2.95272 0
M  V30 2981 H 270.975 -2.90034 -2.83963 0
M  V30 2982 H 271.741 -4.71349 -1.14259 0
M  V30 2983 H 267.62 -4.06142 -2.18106 0
M  V30 2984 H 271.164 -6.96868 -0.319542 0
M  V30 2985 H 267.061 -6.30937 -1.36342 0
M  V30 2986 H 267.829 -8.1727 -0.448493 0
M  V30 2987 N 270.492 0.636531 -1.44174 0
M  V30 2988 C 271.908 0.954104 -1.27941 0
M  V30 2989 C 272.108 2.0039 -0.211248 0
M  V30 2990 O 271.164 2.49236 0.404695 0
M  V30 2991 C 272.477 1.4225 -2.64925 0
M  V30 2992 C 274.025 1.53827 -2.72592 0
M  V30 2993 C 274.5 2.04053 -4.10032 0
M  V30 2994 N 275.991 2.11331 -4.12182 0
M  V30 2995 C 276.726 2.51352 -5.15374 0
M  V30 2996 N 276.222 2.90549 -6.2893 0
M  V30 2997 N 278.015 2.51438 -5.02728 0
M  V30 2998 H 270.166 -0.0578386 -2.12321 0
M  V30 2999 H 272.429 0.0367406 -0.947288 0
M  V30 3000 H 272.135 0.725466 -3.44136 0
M  V30 3001 H 272.009 2.39451 -2.9145 0
M  V30 3002 H 274.396 2.22628 -1.93702 0
M  V30 3003 H 274.477 0.550154 -2.49814 0
M  V30 3004 H 274.121 1.35848 -4.89395 0
M  V30 3005 H 274.051 3.03726 -4.30184 0
M  V30 3006 H 276.542 1.83745 -3.30222 0
M  V30 3007 H 276.855 3.19884 -7.03487 0
M  V30 3008 H 275.2 2.88313 -6.32377 0
M  V30 3009 H 278.391 2.20203 -4.13072 0
M  V30 3010 H 278.564 2.82304 -5.83274 0
M  V30 3011 N 271.97 1.30982 0.876444 0
M  V30 3012 C 272.933 1.18054 1.96459 0
M  V30 3013 C 273.933 0.109399 1.60427 0
M  V30 3014 O 275.123 0.358173 1.70478 0
M  V30 3015 C 272.255 0.810616 3.31122 0
M  V30 3016 H 273.448 2.14735 2.09354 0
M  V30 3017 H 271.001 1.145 1.06392 0
M  V30 3018 H 271.736 -0.155322 3.23928 0
M  V30 3019 H 271.521 1.58481 3.58645 0
M  V30 3020 H 273.011 0.743876 4.10921 0
M  V30 3021 N 273.449 -1.08991 1.13837 0
M  V30 3022 C 274.86 -1.62746 0.914917 0
M  V30 3023 C 275.211 -1.88403 -0.547594 0
M  V30 3024 O 274.336 -1.63706 -1.41525 0
M  V30 3025 C 274.931 -2.95662 1.65437 0
M  V30 3026 C 273.49 -3.46225 1.47666 0
M  V30 3027 C 272.637 -2.20562 1.6807 0
M  V30 3028 H 275.588 -0.922946 1.29102 0
M  V30 3029 H 275.609 -3.63825 1.11407 0
M  V30 3030 H 275.121 -2.76956 2.71877 0
M  V30 3031 H 273.222 -3.70046 0.435478 0
M  V30 3032 H 273.335 -4.23368 2.24268 0
M  V30 3033 H 271.699 -2.29439 1.10589 0
M  V30 3034 H 272.482 -2.0437 2.7584 0
M  V30 3035 N 274.927 -0.932562 -1.27047 0
M  V30 3036 C 275.837 -0.441219 -2.30414 0
M  V30 3037 C 276.853 0.480525 -1.67233 0
M  V30 3038 O 278.029 0.362151 -1.98117 0
M  V30 3039 C 275.094 0.293651 -3.45454 0
M  V30 3040 C 274.155 -0.663601 -4.2414 0
M  V30 3041 C 273.388 0.0362932 -5.33688 0
M  V30 3042 O 273.611 1.2548 -5.56427 0
M  V30 3043 O 272.545 -0.638015 -5.98509 0
M  V30 3044 H 276.371 -1.29962 -2.74488 0
M  V30 3045 H 273.956 -0.6981 -1.32087 0
M  V30 3046 H 275.838 0.707951 -4.15411 0
M  V30 3047 H 274.513 1.12758 -3.03426 0
M  V30 3048 H 273.42 -1.12768 -3.56699 0
M  V30 3049 H 274.753 -1.46489 -4.69896 0
M  V30 3050 N 276.405 1.4127 -0.698611 0
M  V30 3051 C 277.651 2.01478 -0.231207 0
M  V30 3052 C 277.984 1.55215 1.16713 0
M  V30 3053 O 277.259 0.764672 1.78838 0
M  V30 3054 C 277.542 3.58912 -0.292281 0
M  V30 3055 C 277.395 4.15293 -1.72778 0
M  V30 3056 C 278.714 4.38736 0.346194 0
M  V30 3057 H 275.833 0.732025 -0.0854878 0
M  V30 3058 H 278.475 1.67977 -0.887906 0
M  V30 3059 H 276.625 3.87582 0.26686 0
M  V30 3060 H 278.297 3.97486 -2.341 0
M  V30 3061 H 276.54 3.7022 -2.26096 0
M  V30 3062 H 277.211 5.24452 -1.72202 0
M  V30 3063 H 279.687 4.15897 -0.130035 0
M  V30 3064 H 278.563 5.48221 0.272932 0
M  V30 3065 H 278.824 4.18425 1.42734 0
M  V30 3066 N 277.883 0.443576 1.51229 0
M  V30 3067 C 278.813 -0.355142 2.30783 0
M  V30 3068 C 279.794 -1.0154 1.36468 0
M  V30 3069 O 280.979 -1.01785 1.65389 0
M  V30 3070 C 278.109 -1.45312 3.15439 0
M  V30 3071 C 277.063 -0.916002 4.18083 0
M  V30 3072 C 276.389 -2.1102 4.91299 0
M  V30 3073 C 277.689 0.0538602 5.22272 0
M  V30 3074 H 279.383 0.308767 2.97804 0
M  V30 3075 H 276.929 0.149937 1.43217 0
M  V30 3076 H 278.882 -2.01914 3.69876 0
M  V30 3077 H 277.606 -2.14541 2.46252 0
M  V30 3078 H 276.265 -0.372145 3.64706 0
M  V30 3079 H 275.913 -2.78882 4.18609 0
M  V30 3080 H 275.613 -1.75717 5.60712 0
M  V30 3081 H 277.137 -2.68164 5.48562 0
M  V30 3082 H 278.551 -0.422069 5.71744 0
M  V30 3083 H 276.948 0.319776 5.99247 0
M  V30 3084 H 278.018 0.98858 4.74716 0
M  V30 3085 N 279.361 -1.56624 0.175154 0
M  V30 3086 C 280.291 -2.21155 -0.749195 0
M  V30 3087 C 281.272 -1.16836 -1.23626 0
M  V30 3088 O 282.457 -1.45277 -1.28873 0
M  V30 3089 C 279.587 -2.8553 -1.97711 0
M  V30 3090 C 278.541 -3.95921 -1.62575 0
M  V30 3091 C 277.867 -4.47365 -2.92864 0
M  V30 3092 C 279.167 -5.15323 -0.850838 0
M  V30 3093 H 280.861 -2.98653 -0.211295 0
M  V30 3094 H 278.407 -1.43651 -0.100188 0
M  V30 3095 H 280.36 -3.2935 -2.62881 0
M  V30 3096 H 279.084 -2.05406 -2.53921 0
M  V30 3097 H 277.743 -3.52762 -0.997719 0
M  V30 3098 H 277.391 -3.64027 -3.47122 0
M  V30 3099 H 277.091 -5.21839 -2.70106 0
M  V30 3100 H 278.615 -4.93873 -3.59056 0
M  V30 3101 H 280.029 -5.55812 -1.40521 0
M  V30 3102 H 278.426 -5.95739 -0.722154 0
M  V30 3103 H 279.496 -4.84661 0.152082 0
M  V30 3104 N 280.839 0.0985539 -1.57292 0
M  V30 3105 C 282.064 0.820196 -1.90493 0
M  V30 3106 C 282.489 1.71658 -0.769094 0
M  V30 3107 O 281.847 1.79133 0.279495 0
M  V30 3108 C 281.895 1.61242 -3.22542 0
M  V30 3109 O 280.999 2.72108 -3.09888 0
M  V30 3110 H 280.34 0.225547 -0.62452 0
M  V30 3111 H 282.87 0.0748159 -2.04463 0
M  V30 3112 H 282.88 1.99737 -3.55766 0
M  V30 3113 H 281.555 0.954535 -4.04798 0
M  V30 3114 H 280.132 2.36667 -2.88172 0
M  V30 3115 N 282.317 1.53212 0.369288 0
M  V30 3116 C 283.542 1.73423 1.1375 0
M  V30 3117 C 283.967 0.460404 1.82378 0
M  V30 3118 O 283.325 -0.585298 1.71592 0
M  V30 3119 C 283.373 2.89769 2.1463 0
M  V30 3120 O 282.477 2.58119 3.21634 0
M  V30 3121 H 281.818 0.576061 0.330227 0
M  V30 3122 H 284.348 2.00083 0.427547 0
M  V30 3123 H 284.358 3.15829 2.58294 0
M  V30 3124 H 283.033 3.8217 1.64071 0
M  V30 3125 H 281.61 2.42864 2.82969 0
M  V30 3126 N 283.795 -0.628877 1.44509 0
M  V30 3127 C 284.745 -1.7345 1.47983 0
M  V30 3128 C 285.729 -1.5715 0.345373 0
M  V30 3129 O 286.921 -1.66848 0.590829 0
M  V30 3130 C 284.05 -3.12143 1.42904 0
M  V30 3131 C 283.136 -3.33906 2.61472 0
M  V30 3132 N 283.527 -3.26024 3.86706 0
M  V30 3133 C 281.825 -3.64709 2.56716 0
M  V30 3134 C 282.526 -3.48536 4.65722 0
M  V30 3135 N 281.502 -3.71517 3.96832 0
M  V30 3136 H 285.304 -1.65818 2.42655 0
M  V30 3137 H 282.818 -0.831419 1.39503 0
M  V30 3138 H 284.815 -3.91433 1.43476 0
M  V30 3139 H 283.475 -3.2094 0.492717 0
M  V30 3140 H 284.486 -3.04893 4.18641 0
M  V30 3141 H 281.163 -3.80473 1.71891 0
M  V30 3142 H 282.553 -3.48016 5.74747 0
M  V30 3143 N 285.273 -1.31445 -0.869486 0
M  V30 3144 C 286.689 -1.10113 -1.15531 0
M  V30 3145 C 286.889 0.128087 -2.01092 0
M  V30 3146 O 285.945 0.817276 -2.38908 0
M  V30 3147 C 287.258 -2.37291 -1.84698 0
M  V30 3148 C 288.806 -2.42906 -1.97397 0
M  V30 3149 C 289.281 -3.69967 -2.69979 0
M  V30 3150 N 290.772 -3.70864 -2.77514 0
M  V30 3151 C 291.507 -4.65875 -3.34287 0
M  V30 3152 N 291.003 -5.71242 -3.91988 0
M  V30 3153 N 292.796 -4.53394 -3.3225 0
M  V30 3154 H 284.947 -2.1028 -0.299347 0
M  V30 3155 H 287.21 -0.927683 -0.195214 0
M  V30 3156 H 286.916 -3.27078 -1.29278 0
M  V30 3157 H 286.79 -2.47125 -2.84972 0
M  V30 3158 H 289.177 -1.53588 -2.51982 0
M  V30 3159 H 289.258 -2.37036 -0.961643 0
M  V30 3160 H 288.902 -4.59652 -2.16062 0
M  V30 3161 H 288.832 -3.73103 -3.7162 0
M  V30 3162 H 291.323 -2.94697 -2.36563 0
M  V30 3163 H 291.636 -6.39817 -4.33421 0
M  V30 3164 H 289.981 -5.75015 -3.90362 0
M  V30 3165 H 293.172 -3.70252 -2.8641 0
M  V30 3166 H 293.345 -5.27617 -3.76197 0
M  V30 3167 N 286.751 1.08385 -1.14413 0
M  V30 3168 C 287.981 1.8425 -0.934644 0
M  V30 3169 C 288.389 1.81907 0.520234 0
M  V30 3170 O 287.732 1.22126 1.37226 0
M  V30 3171 C 287.794 3.32853 -1.35828 0
M  V30 3172 C 287.458 3.5893 -2.82875 0
M  V30 3173 C 288.455 3.53756 -3.80989 0
M  V30 3174 C 286.14 3.86934 -3.20293 0
M  V30 3175 C 288.134 3.76216 -5.14529 0
M  V30 3176 C 285.821 4.09047 -4.54008 0
M  V30 3177 C 286.819 4.03682 -5.50936 0
M  V30 3178 O 286.507 4.25214 -6.82238 0
M  V30 3179 H 286.239 0.588502 -0.332628 0
M  V30 3180 H 288.793 1.37792 -1.52324 0
M  V30 3181 H 287.023 3.8007 -0.713019 0
M  V30 3182 H 288.712 3.90154 -1.11957 0
M  V30 3183 H 289.478 3.32135 -3.53428 0
M  V30 3184 H 285.357 3.9023 -2.45442 0
M  V30 3185 H 288.901 3.71943 -5.90173 0
M  V30 3186 H 284.798 4.30151 -4.8129 0
M  V30 3187 H 285.566 4.42619 -6.88499 0
M  V30 3188 N 288.23 0.939286 1.26551 0
M  V30 3189 C 289.458 0.602536 1.97932 0
M  V30 3190 C 289.873 -0.82206 1.69964 0
M  V30 3191 O 289.23 -1.54789 0.966784 0
M  V30 3192 C 289.281 0.832946 3.51773 0
M  V30 3193 O 289.002 2.20151 3.78768 0
M  V30 3194 C 290.503 0.506483 4.40397 0
M  V30 3195 H 287.723 0.227248 0.631347 0
M  V30 3196 H 290.267 1.25948 1.61113 0
M  V30 3197 H 288.422 0.222644 3.8676 0
M  V30 3198 H 288.836 2.26013 4.73306 0
M  V30 3199 H 290.31 0.718333 5.47306 0
M  V30 3200 H 290.787 -0.558451 4.35635 0
M  V30 3201 H 291.393 1.09543 4.10951 0
M  V30 3202 N 289.708 -1.40897 0.706093 0
M  V30 3203 C 290.638 -2.33418 0.0620085 0
M  V30 3204 C 291.619 -1.52385 -0.755827 0
M  V30 3205 O 292.804 -1.80886 -0.706674 0
M  V30 3206 C 289.934 -3.36293 -0.867445 0
M  V30 3207 C 288.888 -4.27716 -0.155932 0
M  V30 3208 C 288.214 -5.2105 -1.20046 0
M  V30 3209 C 289.514 -5.12944 0.984149 0
M  V30 3210 H 291.208 -2.87527 0.83477 0
M  V30 3211 H 288.754 -1.38249 0.402875 0
M  V30 3212 H 290.707 -3.99949 -1.32735 0
M  V30 3213 H 289.431 -2.80556 -1.67199 0
M  V30 3214 H 288.09 -3.65498 0.284047 0
M  V30 3215 H 287.738 -4.61624 -1.99781 0
M  V30 3216 H 287.438 -5.83056 -0.729328 0
M  V30 3217 H 288.962 -5.87584 -1.66066 0
M  V30 3218 H 290.376 -5.70109 0.604048 0
M  V30 3219 H 288.773 -5.83945 1.38304 0
M  V30 3220 H 289.843 -4.49485 1.81911 0
M  V30 3221 N 291.186 -0.45159 -1.50991 0
M  V30 3222 C 292.434 0.109857 -2.01801 0
M  V30 3223 C 292.755 1.41958 -1.3369 0
M  V30 3224 O 292.025 1.9003 -0.475951 0
M  V30 3225 H 290.605 0.0435884 -0.745727 0
M  V30 3226 H 293.267 -0.597557 -1.85514 0
M  V30 3227 H 292.363 0.275489 -3.10882 0
M  V30 3228 N 292.664 1.56529 -0.183458 0
M  V30 3229 C 293.91 1.97537 0.459036 0
M  V30 3230 C 294.243 1.06989 1.62071 0
M  V30 3231 O 293.518 0.11948 1.94133 0
M  V30 3232 C 293.801 3.47874 0.930368 0
M  V30 3233 C 293.654 4.492 -0.232317 0
M  V30 3234 C 294.973 4.01612 1.79989 0
M  V30 3235 H 292.092 0.718204 0.165383 0
M  V30 3236 H 294.734 1.88042 -0.272038 0
M  V30 3237 H 292.884 3.56095 1.55333 0
M  V30 3238 H 294.556 4.53027 -0.86972 0
M  V30 3239 H 292.799 4.24657 -0.885928 0
M  V30 3240 H 293.47 5.51823 0.139796 0
M  V30 3241 H 295.946 3.96097 1.27461 0
M  V30 3242 H 294.822 5.07195 2.09867 0
M  V30 3243 H 295.083 3.46163 2.74998 0
M  V30 3244 N 294.142 -0.090211 1.57342 0
M  V30 3245 C 295.419 -0.824761 1.77361 0
M  V30 3246 C 295.799 -1.96698 0.76637 0
M  V30 3247 O 295.147 -2.27586 -0.204179 0
M  V30 3248 C 295.357 -1.31481 3.23286 0
M  V30 3249 C 296.705 -1.75563 3.86604 0
M  V30 3250 O 297.729 -1.41093 3.27065 0
M  V30 3251 O 296.588 -2.39317 4.91314 0
M  V30 3252 H 293.682 -0.393776 0.727234 0
M  V30 3253 H 296.228 -0.0717138 1.69548 0
M  V30 3254 H 295 -0.496671 3.88135 0
M  V30 3255 H 294.623 -2.12973 3.35751 0
M  V30 3256 N 295.62 -1.53406 -0.361157 0
M  V30 3257 C 296.553 -1.74946 -1.46524 0
M  V30 3258 C 297.531 -0.59795 -1.51206 0
M  V30 3259 O 298.715 -0.831062 -1.69191 0
M  V30 3260 C 295.842 -1.83224 -2.84863 0
M  V30 3261 C 294.888 -3.05233 -2.97885 0
M  V30 3262 S 295.721 -4.6466 -2.66179 0
M  V30 3263 C 296.877 -4.75793 -4.06659 0
M  V30 3264 H 297.11 -2.68319 -1.28033 0
M  V30 3265 H 294.643 -1.44051 -0.555764 0
M  V30 3266 H 296.601 -1.88679 -3.64569 0
M  V30 3267 H 295.262 -0.908948 -3.00661 0
M  V30 3268 H 294.455 -3.07648 -3.9921 0
M  V30 3269 H 294.057 -2.97913 -2.26106 0
M  V30 3270 H 296.349 -4.5612 -5.0096 0
M  V30 3271 H 297.292 -5.7786 -4.09247 0
M  V30 3272 H 297.7 -4.04389 -3.93865 0
M  V30 3273 N 297.098 0.621204 -1.44841 0
M  V30 3274 C 298.344 1.38073 -1.49357 0
M  V30 3275 C 298.699 1.91973 -0.128115 0
M  V30 3276 O 297.992 1.71311 0.858087 0
M  V30 3277 C 298.186 2.55675 -2.4973 0
M  V30 3278 C 298.015 2.13289 -3.95901 0
M  V30 3279 C 296.785 2.001 -4.63991 0
M  V30 3280 C 298.983 1.7159 -4.84831 0
M  V30 3281 N 296.965 1.51381 -5.94943 0
M  V30 3282 C 298.336 1.34188 -6.05304 0
M  V30 3283 C 300.391 1.59059 -4.7181 0
M  V30 3284 C 299.094 0.855085 -7.14199 0
M  V30 3285 C 301.12 1.11784 -5.8074 0
M  V30 3286 C 300.482 0.753385 -7.0036 0
M  V30 3287 H 296.581 0.499675 -0.601539 0
M  V30 3288 H 299.165 0.711609 -1.8123 0
M  V30 3289 H 297.336 3.20201 -2.19832 0
M  V30 3290 H 299.068 3.22509 -2.4448 0
M  V30 3291 H 295.823 2.20863 -4.18947 0
M  V30 3292 H 296.247 1.29293 -6.64539 0
M  V30 3293 H 300.889 1.85865 -3.79755 0
M  V30 3294 H 298.607 0.574552 -8.06055 0
M  V30 3295 H 302.193 1.02533 -5.72694 0
M  V30 3296 H 301.073 0.393183 -7.83214 0
M  V30 3297 N 298.576 1.31904 0.862503 0
M  V30 3298 C 299.801 1.25135 1.65397 0
M  V30 3299 C 300.226 -0.179 1.87246 0
M  V30 3300 O 299.584 -1.1277 1.4196 0
M  V30 3301 C 299.632 2.00832 2.99498 0
M  V30 3302 O 298.736 1.35075 3.89652 0
M  V30 3303 H 298.077 0.431655 0.504549 0
M  V30 3304 H 300.607 1.74094 1.07483 0
M  V30 3305 H 300.617 2.10709 3.49379 0
M  V30 3306 H 299.292 3.04847 2.82916 0
M  V30 3307 H 297.869 1.33696 3.48109 0
M  V30 3308 N 300.054 -1.07777 1.14986 0
M  V30 3309 C 300.984 -2.16865 0.865557 0
M  V30 3310 C 301.965 -1.69123 -0.182083 0
M  V30 3311 O 303.15 -1.94164 -0.0373815 0
M  V30 3312 C 300.28 -3.45539 0.349313 0
M  V30 3313 C 299.234 -4.06708 1.33313 0
M  V30 3314 C 298.56 -5.30411 0.675918 0
M  V30 3315 C 299.86 -4.47241 2.69764 0
M  V30 3316 H 301.554 -2.40905 1.77778 0
M  V30 3317 H 299.1 -1.15781 0.856203 0
M  V30 3318 H 301.053 -4.21174 0.137983 0
M  V30 3319 H 299.777 -3.21072 -0.598362 0
M  V30 3320 H 298.436 -3.33112 1.53075 0
M  V30 3321 H 298.084 -5.02232 -0.277767 0
M  V30 3322 H 297.784 -5.72293 1.33244 0
M  V30 3323 H 299.308 -6.08755 0.474262 0
M  V30 3324 H 300.722 -5.14025 2.53873 0
M  V30 3325 H 299.119 -5.00062 3.3175 0
M  V30 3326 H 300.189 -3.58818 3.26156 0
M  V30 3327 N 301.532 -0.945985 -1.26051 0
M  V30 3328 C 302.78 -0.594941 -1.93145 0
M  V30 3329 C 303.101 0.86953 -1.7454 0
M  V30 3330 O 302.371 1.61838 -1.10387 0
M  V30 3331 H 300.951 -0.217044 -0.714773 0
M  V30 3332 H 303.613 -1.20235 -1.53393 0
M  V30 3333 H 302.709 -0.816835 -3.01221 0
M  V30 3334 N 303.011 1.40521 -0.713556 0
M  V30 3335 C 304.251 2.02783 -0.256584 0
M  V30 3336 C 304.615 1.55352 1.12827 0
M  V30 3337 O 305.816 2.09663 1.68211 0
M  V30 3338 C 304.087 3.5586 -0.331414 0
M  V30 3339 S 305.646 4.38773 0.0488703 0
M  V30 3340 H 302.464 0.703655 -0.101934 0
M  V30 3341 H 305.066 1.71674 -0.935325 0
M  V30 3342 H 303.77 3.87874 -1.34098 0
M  V30 3343 H 303.301 3.91695 0.365873 0
M  V30 3344 H 305.316 4.79633 1.2715 0
M  V30 3345 N 304.489 0.459591 1.5075 0
M  V30 3346 C 305.738 -0.100971 2.01447 0
M  V30 3347 C 306.051 -1.41816 1.34713 0
M  V30 3348 O 307.257 -2.06299 1.76502 0
M  V30 3349 C 305.713 -0.23047 3.59161 0
M  V30 3350 C 305.321 1.0776 4.34847 0
M  V30 3351 C 307.065 -0.743608 4.17936 0
M  V30 3352 C 304.972 0.91253 5.84317 0
M  V30 3353 H 303.902 -0.0415102 0.752856 0
M  V30 3354 H 306.553 0.592742 1.73663 0
M  V30 3355 H 304.935 -0.987703 3.83485 0
M  V30 3356 H 306.109 1.8449 4.22256 0
M  V30 3357 H 304.424 1.52097 3.87628 0
M  V30 3358 H 307.021 -0.883959 5.27343 0
M  V30 3359 H 307.364 -1.73196 3.78562 0
M  V30 3360 H 307.897 -0.04408 3.97776 0
M  V30 3361 H 304.636 1.87391 6.28144 0
M  V30 3362 H 304.156 0.185422 5.99513 0
M  V30 3363 H 305.835 0.574547 6.44444 0
M  V30 3364 N 305.967 -1.56429 0.191757 0
M  V30 3365 C 306.897 -2.21937 -0.725696 0
M  V30 3366 C 307.878 -1.1814 -1.2238 0
M  V30 3367 O 309.063 -1.46636 -1.27325 0
M  V30 3368 C 306.193 -2.87611 -1.94672 0
M  V30 3369 C 305.147 -3.97623 -1.58366 0
M  V30 3370 C 304.473 -4.50446 -2.88102 0
M  V30 3371 C 305.773 -5.16197 -0.796133 0
M  V30 3372 H 307.467 -2.98861 -0.179606 0
M  V30 3373 H 305.013 -1.43749 -0.0849464 0
M  V30 3374 H 306.966 -3.3212 -2.59373 0
M  V30 3375 H 305.69 -2.08087 -2.51728 0
M  V30 3376 H 304.349 -3.53801 -0.960247 0
M  V30 3377 H 303.997 -3.67688 -3.43241 0
M  V30 3378 H 303.697 -5.24675 -2.64556 0
M  V30 3379 H 305.221 -4.97654 -3.53798 0
M  V30 3380 H 306.635 -5.57271 -1.34618 0
M  V30 3381 H 305.032 -5.96471 -0.658928 0
M  V30 3382 H 306.102 -4.84473 0.203478 0
M  V30 3383 N 307.445 0.0818655 -1.57387 0
M  V30 3384 C 308.693 0.781368 -1.86384 0
M  V30 3385 C 309.014 1.78618 -0.782342 0
M  V30 3386 O 308.284 1.94976 0.190061 0
M  V30 3387 H 306.864 0.291562 -0.687751 0
M  V30 3388 H 309.526 0.060348 -1.94807 0
M  V30 3389 H 308.622 1.3038 -2.83562 0
M  V30 3390 N 308.923 1.53595 0.353017 0
M  V30 3391 C 309.833 1.83897 1.45667 0
M  V30 3392 C 310.849 0.728334 1.58023 0
M  V30 3393 O 312.025 1.01968 1.73679 0
M  V30 3394 C 309.09 2.03383 2.80778 0
M  V30 3395 C 308.151 3.27262 2.77845 0
M  V30 3396 C 307.384 3.45809 4.06512 0
M  V30 3397 O 307.607 2.68387 5.03314 0
M  V30 3398 O 306.541 4.39207 4.11559 0
M  V30 3399 H 310.367 2.77686 1.2298 0
M  V30 3400 H 307.952 1.39132 0.544308 0
M  V30 3401 H 309.834 2.17698 3.60812 0
M  V30 3402 H 308.509 1.12783 3.03417 0
M  V30 3403 H 307.416 3.18359 1.96465 0
M  V30 3404 H 308.749 4.17824 2.60161 0
M  V30 3405 N 310.401 -0.613514 1.45168 0
M  V30 3406 C 311.334 -1.73809 1.47871 0
M  V30 3407 C 312.312 -1.59097 0.33568 0
M  V30 3408 O 313.496 -1.8074 0.535299 0
M  V30 3409 C 310.623 -3.11574 1.32813 0
M  V30 3410 C 309.669 -3.4489 2.50905 0
M  V30 3411 S 310.502 -3.40393 4.13392 0
M  V30 3412 C 311.658 -4.80749 4.00789 0
M  V30 3413 H 311.891 -1.71252 2.43023 0
M  V30 3414 H 309.424 -0.789658 1.32679 0
M  V30 3415 H 311.382 -3.91065 1.24812 0
M  V30 3416 H 310.043 -3.11652 0.391418 0
M  V30 3417 H 309.236 -4.45183 2.36279 0
M  V30 3418 H 308.838 -2.72901 2.55736 0
M  V30 3419 H 311.13 -5.7041 3.65567 0
M  V30 3420 H 312.073 -5.00431 5.00974 0
M  V30 3421 H 312.481 -4.56151 3.32545 0
M  V30 3422 N 311.879 -1.3236 -0.855495 0
M  V30 3423 C 312.809 -1.23833 -1.97958 0
M  V30 3424 C 313.79 -0.122361 -1.69659 0
M  V30 3425 O 314.975 -0.30939 -1.9172 0
M  V30 3426 C 312.105 -0.959772 -3.33775 0
M  V30 3427 C 311.059 -2.03689 -3.76424 0
M  V30 3428 C 310.385 -1.61075 -5.09862 0
M  V30 3429 C 311.685 -3.4518 -3.9198 0
M  V30 3430 H 313.379 -2.1788 -2.0535 0
M  V30 3431 H 310.925 -1.04891 -0.986605 0
M  V30 3432 H 312.878 -0.886678 -4.11966 0
M  V30 3433 H 311.602 0.0163404 -3.26596 0
M  V30 3434 H 310.261 -2.10012 -3.00484 0
M  V30 3435 H 309.909 -0.622107 -4.99138 0
M  V30 3436 H 309.609 -2.33143 -5.39368 0
M  V30 3437 H 311.133 -1.55201 -5.90546 0
M  V30 3438 H 312.547 -3.4145 -4.60526 0
M  V30 3439 H 310.944 -4.1559 -4.32903 0
M  V30 3440 H 312.014 -3.84903 -2.94919 0
M  V30 3441 N 313.357 1.07166 -1.15556 0
M  V30 3442 C 314.773 1.31899 -0.898603 0
M  V30 3443 C 314.973 1.96333 0.453383 0
M  V30 3444 O 314.029 2.22438 1.19489 0
M  V30 3445 C 315.342 2.20826 -2.04099 0
M  V30 3446 C 316.89 2.34269 -2.07574 0
M  V30 3447 C 317.365 3.26546 -3.21141 0
M  V30 3448 N 318.856 3.34127 -3.20801 0
M  V30 3449 C 319.591 4.05595 -4.05315 0
M  V30 3450 N 319.087 4.79661 -4.99897 0
M  V30 3451 N 320.88 4.01555 -3.93332 0
M  V30 3452 H 313.031 0.637302 -2.02613 0
M  V30 3453 H 315.294 0.343468 -0.883591 0
M  V30 3454 H 315 1.80744 -3.01703 0
M  V30 3455 H 314.874 3.21364 -1.97496 0
M  V30 3456 H 317.261 2.73603 -1.10568 0
M  V30 3457 H 317.342 1.33429 -2.18244 0
M  V30 3458 H 316.986 2.87931 -4.184 0
M  V30 3459 H 316.916 4.27345 -3.07708 0
M  V30 3460 H 319.407 2.81336 -2.52306 0
M  V30 3461 H 319.72 5.31694 -5.60822 0
M  V30 3462 H 318.065 4.78671 -5.03884 0
M  V30 3463 H 321.256 3.42806 -3.18751 0
M  V30 3464 H 321.429 4.56987 -4.5942 0
M  V30 3465 N 314.835 0.952656 1.25548 0
M  V30 3466 C 316.083 0.605176 1.92826 0
M  V30 3467 C 316.404 -0.860261 1.74999 0
M  V30 3468 O 315.674 -1.6125 1.11244 0
M  V30 3469 H 314.254 0.220832 0.713612 0
M  V30 3470 H 316.916 1.21047 1.52754 0
M  V30 3471 H 316.012 0.832798 3.00784 0
M  V30 3472 N 316.313 -1.40141 0.720998 0
M  V30 3473 C 317.729 -1.54632 0.395113 0
M  V30 3474 C 317.929 -1.69115 -1.09555 0
M  V30 3475 O 316.985 -1.68377 -1.88163 0
M  V30 3476 C 318.298 -2.77177 1.1659 0
M  V30 3477 C 319.846 -2.91 1.15274 0
M  V30 3478 C 320.321 -4.16465 1.90579 0
M  V30 3479 N 321.812 -4.23476 1.87675 0
M  V30 3480 C 322.547 -5.19475 2.42762 0
M  V30 3481 N 322.043 -6.21348 3.06428 0
M  V30 3482 N 323.836 -5.11592 2.32874 0
M  V30 3483 H 315.987 -1.28986 1.68749 0
M  V30 3484 H 318.25 -0.62412 0.713567 0
M  V30 3485 H 317.956 -2.72771 2.22011 0
M  V30 3486 H 317.83 -3.69442 0.76108 0
M  V30 3487 H 320.217 -2.94907 0.106702 0
M  V30 3488 H 320.298 -1.99838 1.59682 0
M  V30 3489 H 319.942 -4.1332 2.95176 0
M  V30 3490 H 319.872 -5.06646 1.43587 0
M  V30 3491 H 322.363 -3.50497 1.41281 0
M  V30 3492 H 322.676 -6.91034 3.45965 0
M  V30 3493 H 321.021 -6.21777 3.10514 0
M  V30 3494 H 324.212 -4.30936 1.82789 0
M  V30 3495 H 324.385 -5.86233 2.76106 0
M  V30 3496 N 317.792 -0.46758 -1.50504 0
M  V30 3497 C 319.203 -0.0116166 -1.86696 0
M  V30 3498 C 319.554 1.39202 -1.38265 0
M  V30 3499 O 318.679 2.0313 -0.746132 0
M  V30 3500 C 319.274 -0.0143044 -3.38797 0
M  V30 3501 C 317.833 0.386175 -3.74414 0
M  V30 3502 C 316.98 -0.401287 -2.74381 0
M  V30 3503 H 319.931 -0.682022 -1.43297 0
M  V30 3504 H 319.952 0.788641 -3.72237 0
M  V30 3505 H 319.464 -1.03602 -3.74016 0
M  V30 3506 H 317.565 1.41237 -3.44794 0
M  V30 3507 H 317.678 0.0899596 -4.79016 0
M  V30 3508 H 316.042 0.144536 -2.5429 0
M  V30 3509 H 316.825 -1.42244 -3.12444 0
M  V30 3510 N 319.27 1.56325 -0.20005 0
M  V30 3511 C 320.2 2.22318 0.713916 0
M  V30 3512 C 321.181 1.18788 1.21752 0
M  V30 3513 O 322.366 1.47309 1.26545 0
M  V30 3514 C 319.496 2.88639 1.93144 0
M  V30 3515 C 318.45 3.98457 1.56255 0
M  V30 3516 C 317.776 4.51967 2.85709 0
M  V30 3517 C 319.076 5.16612 0.768747 0
M  V30 3518 H 320.77 2.98952 0.163755 0
M  V30 3519 H 318.316 1.43792 0.0773219 0
M  V30 3520 H 320.269 3.33491 2.57608 0
M  V30 3521 H 318.993 2.09419 2.50621 0
M  V30 3522 H 317.652 3.54305 0.941471 0
M  V30 3523 H 317.3 3.69503 3.41287 0
M  V30 3524 H 317 5.26071 2.6177 0
M  V30 3525 H 318.524 4.99523 3.51154 0
M  V30 3526 H 319.938 5.57977 1.3166 0
M  V30 3527 H 318.335 5.96812 0.627286 0
M  V30 3528 H 319.405 4.84358 -0.229168 0
M  V30 3529 N 320.748 -0.0735177 1.57428 0
M  V30 3530 C 321.995 -0.772999 1.87166 0
M  V30 3531 C 322.323 -1.77665 0.791551 0
M  V30 3532 O 321.578 -1.94541 -0.212636 0
M  V30 3533 C 321.877 -1.51799 3.23561 0
M  V30 3534 C 321.543 -0.654484 4.46125 0
M  V30 3535 C 320.205 -0.416511 4.79394 0
M  V30 3536 C 322.557 -0.0555862 5.2117 0
M  V30 3537 C 319.885 0.429869 5.85123 0
M  V30 3538 C 322.237 0.778239 6.27795 0
M  V30 3539 C 320.901 1.0261 6.59566 0
M  V30 3540 H 320.171 -0.282861 0.684888 0
M  V30 3541 H 322.818 -0.0338272 1.9147 0
M  V30 3542 H 321.123 -2.32932 3.1504 0
M  V30 3543 H 322.82 -2.06397 3.43804 0
M  V30 3544 H 319.41 -0.850091 4.20085 0
M  V30 3545 H 323.594 -0.226558 4.95783 0
M  V30 3546 H 318.85 0.630665 6.08139 0
M  V30 3547 H 323.024 1.24906 6.85107 0
M  V30 3548 H 320.651 1.68371 7.4132 0
M  V30 3549 N 322.226 -1.5378 -0.344866 0
M  V30 3550 C 323.637 -1.62428 -0.920552 0
M  V30 3551 C 323.988 -0.504747 -1.89596 0
M  V30 3552 O 323.113 0.365711 -2.13287 0
M  V30 3553 C 323.708 -2.94419 -1.67639 0
M  V30 3554 C 322.267 -3.05333 -2.20111 0
M  V30 3555 C 321.414 -2.57866 -1.01982 0
M  V30 3556 H 324.365 -1.58222 -0.123042 0
M  V30 3557 H 324.386 -2.83384 -2.53917 0
M  V30 3558 H 323.898 -3.7588 -0.966224 0
M  V30 3559 H 321.999 -2.28502 -2.94308 0
M  V30 3560 H 322.112 -4.10778 -2.46573 0
M  V30 3561 H 320.476 -2.13241 -1.39285 0
M  V30 3562 H 321.259 -3.41765 -0.324308 0
M  V30 3563 N 323.704 0.605807 -1.45491 0
M  V30 3564 C 324.952 1.36207 -1.49305 0
M  V30 3565 C 325.273 1.94519 -0.136863 0
M  V30 3566 O 324.543 1.77261 0.833983 0
M  V30 3567 H 323.123 0.50565 -0.549843 0
M  V30 3568 H 325.785 0.711239 -1.81459 0
M  V30 3569 H 324.881 2.18058 -2.23287 0
M  V30 3570 N 325.182 1.32811 0.848464 0
M  V30 3571 C 326.41 1.26739 1.63538 0
M  V30 3572 C 326.825 -0.163484 1.88091 0
M  V30 3573 O 326.182 -1.10258 1.45429 0
M  V30 3574 C 326.233 2.03013 2.99112 0
M  V30 3575 O 325.954 3.40518 2.75643 0
M  V30 3576 C 327.455 2.04038 3.93552 0
M  V30 3577 H 324.675 0.437024 0.509167 0
M  V30 3578 H 327.219 1.75033 1.05753 0
M  V30 3579 H 325.374 1.58426 3.53525 0
M  V30 3580 H 325.788 3.79635 3.61908 0
M  V30 3581 H 327.262 2.61877 4.85926 0
M  V30 3582 H 327.739 1.0282 4.26995 0
M  V30 3583 H 328.345 2.486 3.45077 0
M  V30 3584 N 326.66 -1.06551 1.16123 0
M  V30 3585 C 327.885 -1.83544 0.965735 0
M  V30 3586 C 328.31 -1.81843 -0.481102 0
M  V30 3587 O 327.668 -1.21732 -1.34354 0
M  V30 3588 C 327.716 -3.28169 1.49457 0
M  V30 3589 O 326.82 -4.0643 0.699157 0
M  V30 3590 H 326.161 -0.568026 0.343864 0
M  V30 3591 H 328.691 -1.34362 1.54299 0
M  V30 3592 H 328.701 -3.78992 1.51092 0
M  V30 3593 H 327.376 -3.28722 2.54784 0
M  V30 3594 H 325.953 -3.65216 0.7531 0
M  V30 3595 N 328.138 -0.959301 -1.25041 0
M  V30 3596 C 329.366 -0.633949 -1.96948 0
M  V30 3597 C 329.781 0.794916 -1.7125 0
M  V30 3598 O 329.138 1.53231 -0.991287 0
M  V30 3599 C 329.189 -0.888805 -3.50403 0
M  V30 3600 O 328.91 -2.26149 -3.75218 0
M  V30 3601 C 330.411 -0.576482 -4.39536 0
M  V30 3602 H 327.631 -0.237263 -0.627652 0
M  V30 3603 H 330.175 -1.28495 -1.59089 0
M  V30 3604 H 328.33 -0.284145 -3.86357 0
M  V30 3605 H 328.744 -2.33514 -4.6965 0
M  V30 3606 H 330.218 -0.805314 -5.46094 0
M  V30 3607 H 330.695 0.489075 -4.36468 0
M  V30 3608 H 331.301 -1.16067 -4.09156 0
M  V30 3609 N 329.616 1.39756 -0.72842 0
M  V30 3610 C 330.546 2.33289 -0.0991354 0
M  V30 3611 C 331.527 1.53568 0.731489 0
M  V30 3612 O 332.712 1.81987 0.677807 0
M  V30 3613 C 329.842 3.3763 0.813834 0
M  V30 3614 C 328.796 4.2791 0.0878663 0
M  V30 3615 C 328.122 5.22894 1.11741 0
M  V30 3616 C 329.422 5.11314 -1.06563 0
M  V30 3617 H 331.116 2.86163 -0.880408 0
M  V30 3618 H 328.662 1.37591 -0.424819 0
M  V30 3619 H 330.615 4.0201 1.26355 0
M  V30 3620 H 329.339 2.83181 1.62715 0
M  V30 3621 H 327.998 3.65 -0.342159 0
M  V30 3622 H 327.646 4.64744 1.92412 0
M  V30 3623 H 327.346 5.84143 0.636477 0
M  V30 3624 H 328.87 5.90151 1.56697 0
M  V30 3625 H 330.284 5.69076 -0.694671 0
M  V30 3626 H 328.681 5.81671 -1.47577 0
M  V30 3627 H 329.751 4.46534 -1.89038 0
M  V30 3628 N 331.094 0.475555 1.50254 0
M  V30 3629 C 332.044 -0.335025 2.25525 0
M  V30 3630 C 333.028 -0.957625 1.29299 0
M  V30 3631 O 334.22 -0.869436 1.54175 0
M  V30 3632 C 331.349 -1.41385 3.12834 0
M  V30 3633 C 330.435 -0.798762 4.1651 0
M  V30 3634 N 330.826 0.0835815 5.05731 0
M  V30 3635 C 329.124 -1.06221 4.33166 0
M  V30 3636 C 329.825 0.433113 5.80085 0
M  V30 3637 N 328.801 -0.1928 5.43258 0
M  V30 3638 H 332.603 0.344612 2.91873 0
M  V30 3639 H 330.117 0.289986 1.5979 0
M  V30 3640 H 332.114 -2.00777 3.65368 0
M  V30 3641 H 330.774 -2.09543 2.48036 0
M  V30 3642 H 331.785 0.452715 5.15918 0
M  V30 3643 H 328.462 -1.73844 3.79585 0
M  V30 3644 H 329.852 1.15346 6.61925 0
M  V30 3645 N 332.573 -1.56217 0.208337 0
M  V30 3646 C 333.505 -2.1695 -0.739276 0
M  V30 3647 C 334.518 -1.13492 -1.1672 0
M  V30 3648 O 335.707 -1.40529 -1.10063 0
M  V30 3649 C 332.807 -2.72755 -2.01142 0
M  V30 3650 C 331.98 -4.0125 -1.74118 0
M  V30 3651 C 331.039 -4.41749 -2.85909 0
M  V30 3652 O 330.065 -5.08912 -2.54946 0
M  V30 3653 N 331.267 -4.06342 -4.14568 0
M  V30 3654 H 334.032 -2.98893 -0.219837 0
M  V30 3655 H 331.593 -1.61878 0.0268445 0
M  V30 3656 H 333.585 -2.96826 -2.75094 0
M  V30 3657 H 332.155 -1.95191 -2.4417 0
M  V30 3658 H 331.375 -3.85173 -0.838775 0
M  V30 3659 H 332.663 -4.851 -1.53477 0
M  V30 3660 H 332.061 -3.52345 -4.42571 0
M  V30 3661 H 330.618 -4.35335 -4.85105 0
M  V30 3662 N 334.051 0.0651679 -1.57465 0
M  V30 3663 C 334.981 1.07693 -2.07182 0
M  V30 3664 C 335.962 1.39962 -0.966673 0
M  V30 3665 O 337.147 1.49475 -1.2398 0
M  V30 3666 C 334.277 2.3885 -2.52127 0
M  V30 3667 C 333.231 2.20917 -3.66579 0
M  V30 3668 C 332.557 3.57515 -3.97601 0
M  V30 3669 C 333.857 1.62493 -4.9638 0
M  V30 3670 H 335.551 0.663199 -2.91962 0
M  V30 3671 H 333.097 0.317569 -1.40455 0
M  V30 3672 H 335.05 3.09928 -2.85522 0
M  V30 3673 H 333.774 2.82215 -1.64384 0
M  V30 3674 H 332.433 1.52279 -3.33477 0
M  V30 3675 H 332.081 3.98463 -3.06979 0
M  V30 3676 H 331.781 3.46353 -4.74672 0
M  V30 3677 H 333.305 4.30013 -4.33499 0
M  V30 3678 H 334.719 2.23445 -5.27963 0
M  V30 3679 H 333.116 1.62009 -5.77818 0
M  V30 3680 H 334.186 0.587041 -4.81333 0
M  V30 3681 N 335.529 1.53961 0.336706 0
M  V30 3682 C 336.439 1.85432 1.43708 0
M  V30 3683 C 337.455 0.745053 1.57242 0
M  V30 3684 O 338.631 1.03804 1.72588 0
M  V30 3685 C 335.696 2.06349 2.78605 0
M  V30 3686 C 334.757 3.30191 2.74358 0
M  V30 3687 C 333.99 3.50101 4.02822 0
M  V30 3688 O 334.213 2.7371 5.00439 0
M  V30 3689 O 333.147 4.43547 4.06878 0
M  V30 3690 H 336.973 2.78975 1.20028 0
M  V30 3691 H 334.558 1.39701 0.52952 0
M  V30 3692 H 336.44 2.21513 3.58483 0
M  V30 3693 H 335.115 1.15995 3.02203 0
M  V30 3694 H 334.022 3.20425 1.93078 0
M  V30 3695 H 335.355 4.2056 2.55715 0
M  V30 3696 N 337.007 -0.598083 1.45811 0
M  V30 3697 C 337.937 -1.71873 1.58057 0
M  V30 3698 C 338.918 -1.64533 0.431615 0
M  V30 3699 O 340.103 -1.82787 0.65595 0
M  V30 3700 C 337.233 -3.10495 1.55597 0
M  V30 3701 C 336.187 -3.32654 2.69305 0
M  V30 3702 C 335.513 -4.71646 2.51902 0
M  V30 3703 C 336.813 -3.21981 4.11248 0
M  V30 3704 H 338.507 -1.61881 2.51863 0
M  V30 3705 H 336.053 -0.777372 1.21214 0
M  V30 3706 H 338.006 -3.88699 1.6276 0
M  V30 3707 H 336.73 -3.2135 0.583255 0
M  V30 3708 H 335.389 -2.56843 2.61586 0
M  V30 3709 H 335.037 -4.79246 1.52748 0
M  V30 3710 H 334.737 -4.87426 3.2816 0
M  V30 3711 H 336.261 -5.52038 2.60933 0
M  V30 3712 H 337.675 -3.90049 4.20161 0
M  V30 3713 H 336.072 -3.49289 4.87972 0
M  V30 3714 H 337.142 -2.1928 4.32486 0
M  V30 3715 N 338.485 -1.33259 -0.841409 0
M  V30 3716 C 339.734 -1.23921 -1.59143 0
M  V30 3717 C 340.047 0.1941 -1.94635 0
M  V30 3718 O 341.253 0.409474 -2.68394 0
M  V30 3719 C 339.709 -2.17119 -2.87032 0
M  V30 3720 C 339.317 -3.65606 -2.58914 0
M  V30 3721 C 341.061 -2.16648 -3.65053 0
M  V30 3722 C 338.968 -4.50726 -3.82884 0
M  V30 3723 H 337.898 -0.460264 -0.597221 0
M  V30 3724 H 340.549 -1.58307 -0.927959 0
M  V30 3725 H 338.931 -1.75663 -3.54906 0
M  V30 3726 H 340.105 -4.15487 -1.99267 0
M  V30 3727 H 338.42 -3.68341 -1.942 0
M  V30 3728 H 341.017 -2.77474 -4.57069 0
M  V30 3729 H 341.36 -1.16088 -3.99787 0
M  V30 3730 H 341.893 -2.56453 -3.041 0
M  V30 3731 H 338.632 -5.52151 -3.53283 0
M  V30 3732 H 338.152 -4.0559 -4.41879 0
M  V30 3733 H 339.831 -4.64401 -4.50489 0
M  V30 3734 N 339.963 1.05934 -1.16686 0
M  V30 3735 C 340.893 2.1546 -0.899949 0
M  V30 3736 C 341.874 1.69391 0.155154 0
M  V30 3737 O 343.059 1.94199 0.00648693 0
M  V30 3738 C 340.189 3.44939 -0.404241 0
M  V30 3739 C 339.143 4.04536 -1.39767 0
M  V30 3740 C 338.469 5.29268 -0.760216 0
M  V30 3741 C 339.769 4.42893 -2.76845 0
M  V30 3742 H 341.463 2.38046 -1.81588 0
M  V30 3743 H 339.009 1.14404 -0.874514 0
M  V30 3744 H 340.962 4.20901 -0.204971 0
M  V30 3745 H 339.686 3.21983 0.547206 0
M  V30 3746 H 338.345 3.30635 -1.58355 0
M  V30 3747 H 337.993 5.02611 0.197831 0
M  V30 3748 H 337.693 5.70101 -1.42332 0
M  V30 3749 H 339.217 6.07924 -0.57105 0
M  V30 3750 H 340.631 5.09921 -2.62019 0
M  V30 3751 H 339.028 4.94721 -3.39663 0
M  V30 3752 H 340.098 3.53584 -3.31823 0
M  V30 3753 N 341.441 0.965919 1.2453 0
M  V30 3754 C 342.351 0.502154 2.29163 0
M  V30 3755 C 343.367 -0.436017 1.68448 0
M  V30 3756 O 344.543 -0.309497 1.99008 0
M  V30 3757 C 341.608 -0.201956 3.46111 0
M  V30 3758 C 340.669 0.775821 4.22232 0
M  V30 3759 C 339.902 0.105217 5.33596 0
M  V30 3760 O 340.125 -1.10683 5.59558 0
M  V30 3761 O 339.059 0.796475 5.96607 0
M  V30 3762 H 342.885 1.37194 2.70946 0
M  V30 3763 H 340.47 0.732875 1.30189 0
M  V30 3764 H 342.352 -0.597564 4.17142 0
M  V30 3765 H 341.027 -1.04673 3.06309 0
M  V30 3766 H 339.934 1.22185 3.53584 0
M  V30 3767 H 341.267 1.58896 4.65846 0
M  V30 3768 N 342.919 -1.39368 0.735821 0
M  V30 3769 C 344.147 -2.04795 0.294393 0
M  V30 3770 C 344.562 -1.55478 -1.07107 0
M  V30 3771 O 343.919 -0.720038 -1.67695 0
M  V30 3772 C 343.97 -3.6035 0.288071 0
M  V30 3773 O 343.691 -4.07852 1.59963 0
M  V30 3774 C 345.192 -4.42976 -0.169422 0
M  V30 3775 H 342.412 -0.658571 0.128551 0
M  V30 3776 H 344.956 -1.78399 0.999701 0
M  V30 3777 H 343.111 -3.85645 -0.368355 0
M  V30 3778 H 343.525 -5.02181 1.51375 0
M  V30 3779 H 344.999 -5.51864 -0.122687 0
M  V30 3780 H 345.476 -4.22068 -1.21472 0
M  V30 3781 H 346.082 -4.22832 0.457469 0
M  V30 3782 N 344.397 -0.483516 -1.5 0
M  V30 3783 C 345.646 0.0689102 -2.01582 0
M  V30 3784 C 345.959 1.39655 -1.36952 0
M  V30 3785 O 347.165 2.03465 -1.79762 0
M  V30 3786 C 345.621 0.173302 -3.59483 0
M  V30 3787 C 345.229 -1.14665 -4.33077 0
M  V30 3788 C 346.973 0.677024 -4.19066 0
M  V30 3789 C 344.88 -1.00537 -5.82792 0
M  V30 3790 H 343.81 0.0295277 -0.753422 0
M  V30 3791 H 346.461 -0.620295 -1.72698 0
M  V30 3792 H 344.843 0.926569 -3.85007 0
M  V30 3793 H 346.017 -1.91184 -4.19268 0
M  V30 3794 H 344.332 -1.58244 -3.85159 0
M  V30 3795 H 346.929 0.799952 -5.28682 0
M  V30 3796 H 347.272 1.67151 -3.81269 0
M  V30 3797 H 347.805 -0.0192083 -3.97795 0
M  V30 3798 H 344.544 -1.9736 -6.25083 0
M  V30 3799 H 344.064 -0.280776 -5.99142 0
M  V30 3800 H 345.743 -0.677 -6.43448 0
M  V30 3801 N 345.875 1.56104 -0.216619 0
M  V30 3802 C 347.286 1.844 0.292128 0
M  V30 3803 C 347.637 1.13788 1.59833 0
M  V30 3804 O 346.762 0.405888 2.12559 0
M  V30 3805 C 347.357 3.3452 0.53681 0
M  V30 3806 C 345.916 3.63151 0.989876 0
M  V30 3807 C 345.063 2.77255 0.0502302 0
M  V30 3808 H 348.014 1.52481 -0.439926 0
M  V30 3809 H 348.035 3.54459 1.38345 0
M  V30 3810 H 347.547 3.85885 -0.414031 0
M  V30 3811 H 345.648 3.17238 1.95425 0
M  V30 3812 H 345.761 4.71177 0.867698 0
M  V30 3813 H 344.125 2.48555 0.556117 0
M  V30 3814 H 344.908 3.31416 -0.89544 0
M  V30 3815 N 347.353 -0.0568162 1.57498 0
M  V30 3816 C 348.764 -0.606858 1.76562 0
M  V30 3817 C 349.115 -1.77114 0.844094 0
M  V30 3818 O 348.24 -2.16376 0.0318911 0
M  V30 3819 C 348.835 -1.10766 3.20182 0
M  V30 3820 C 347.394 -1.60344 3.40539 0
M  V30 3821 C 346.541 -0.529311 2.72201 0
M  V30 3822 H 349.492 0.169393 1.57793 0
M  V30 3823 H 349.513 -1.97602 3.25167 0
M  V30 3824 H 349.025 -0.26006 3.87228 0
M  V30 3825 H 347.126 -2.47379 2.78629 0
M  V30 3826 H 347.239 -1.67006 4.4905 0
M  V30 3827 H 345.603 -0.977893 2.35179 0
M  V30 3828 H 346.386 0.308352 3.41912 0
M  V30 3829 N 348.832 -1.54138 -0.328536 0
M  V30 3830 C 350.243 -1.63395 -0.903272 0
M  V30 3831 C 350.594 -0.524828 -1.8905 0
M  V30 3832 O 349.719 0.343068 -2.13663 0
M  V30 3833 C 350.314 -2.9618 -1.64507 0
M  V30 3834 C 348.873 -3.0765 -2.1686 0
M  V30 3835 C 348.02 -2.58933 -0.992416 0
M  V30 3836 H 350.971 -1.58344 -0.106253 0
M  V30 3837 H 350.992 -2.86061 -2.50897 0
M  V30 3838 H 350.504 -3.76884 -0.926302 0
M  V30 3839 H 348.605 -2.31611 -2.91868 0
M  V30 3840 H 348.718 -4.1337 -2.42202 0
M  V30 3841 H 347.082 -2.14706 -1.37016 0
M  V30 3842 H 347.865 -3.42089 -0.288041 0
M  V30 3843 N 350.31 0.590341 -1.46126 0
M  V30 3844 C 351.535 1.37991 -1.54833 0
M  V30 3845 C 351.96 1.87163 -0.187506 0
M  V30 3846 O 351.318 1.61133 0.831008 0
M  V30 3847 C 351.366 2.54867 -2.55098 0
M  V30 3848 O 350.47 3.56061 -2.08073 0
M  V30 3849 H 349.811 0.411265 -0.521303 0
M  V30 3850 H 352.341 0.716819 -1.91632 0
M  V30 3851 H 352.351 3.01886 -2.74461 0
M  V30 3852 H 351.026 2.18429 -3.53923 0
M  V30 3853 H 349.603 3.15574 -1.98664 0
M  V30 3854 N 351.788 1.33704 0.83433 0
M  V30 3855 C 352.698 1.26382 1.97648 0
M  V30 3856 C 353.714 0.173548 1.73132 0
M  V30 3857 O 354.89 0.397962 1.97429 0
M  V30 3858 C 351.955 1.00769 3.31733 0
M  V30 3859 C 351.016 2.1884 3.69334 0
M  V30 3860 C 350.249 1.9444 4.9702 0
M  V30 3861 O 350.472 0.896961 5.63303 0
M  V30 3862 O 349.406 2.81093 5.32231 0
M  V30 3863 H 353.232 2.22444 2.06767 0
M  V30 3864 H 350.817 1.13795 0.968037 0
M  V30 3865 H 352.699 0.882186 4.12062 0
M  V30 3866 H 351.374 0.0773783 3.23608 0
M  V30 3867 H 350.281 2.36946 2.89495 0
M  V30 3868 H 351.614 3.10221 3.82131 0
M  V30 3869 N 353.266 -1.05314 1.17247 0
M  V30 3870 C 354.176 -2.16538 0.90268 0
M  V30 3871 C 355.192 -1.73523 -0.128707 0
M  V30 3872 O 356.368 -2.01337 0.0502701 0
M  V30 3873 C 353.433 -3.44167 0.418356 0
M  V30 3874 C 352.494 -4.01635 1.51618 0
M  V30 3875 C 351.727 -5.23171 1.05487 0
M  V30 3876 O 351.95 -5.70327 -0.0914715 0
M  V30 3877 O 350.884 -5.72848 1.8474 0
M  V30 3878 H 354.71 -2.42145 1.83302 0
M  V30 3879 H 352.295 -1.15037 0.953246 0
M  V30 3880 H 354.177 -4.21112 0.155726 0
M  V30 3881 H 352.852 -3.20063 -0.48385 0
M  V30 3882 H 351.759 -3.26135 1.83268 0
M  V30 3883 H 353.092 -4.30053 2.39405 0
M  V30 3884 N 354.744 -0.972509 -1.24016 0
M  V30 3885 C 356.021 -0.553733 -1.87598 0
M  V30 3886 C 356.401 0.969158 -1.87538 0
M  V30 3887 O 355.749 1.84255 -1.35139 0
M  V30 3888 C 355.959 -1.15076 -3.29482 0
M  V30 3889 C 357.307 -1.23862 -4.06132 0
M  V30 3890 O 358.331 -1.10363 -3.38672 0
M  V30 3891 O 357.19 -1.45252 -5.26844 0
M  V30 3892 H 354.284 -0.185331 -0.805966 0
M  V30 3893 H 356.83 -1.06709 -1.31952 0
M  V30 3894 H 355.602 -2.19333 -3.2405 0
M  V30 3895 H 355.225 -0.621746 -3.92709 0
M  V30 3896 N 356.222 1.38976 -0.743202 0
M  V30 3897 C 357.152 2.33171 -0.123873 0
M  V30 3898 C 358.133 1.54336 0.71516 0
M  V30 3899 O 359.318 1.82696 0.658467 0
M  V30 3900 C 356.448 3.38474 0.777978 0
M  V30 3901 C 355.402 4.27979 0.0424758 0
M  V30 3902 C 354.728 5.2405 1.06189 0
M  V30 3903 C 356.028 5.10155 -1.1198 0
M  V30 3904 H 357.722 2.85213 -0.910709 0
M  V30 3905 H 355.268 1.37133 -0.439388 0
M  V30 3906 H 357.221 4.03328 1.22084 0
M  V30 3907 H 355.945 2.84891 1.59702 0
M  V30 3908 H 354.604 3.64616 -0.380853 0
M  V30 3909 H 354.252 4.66758 1.87472 0
M  V30 3910 H 353.952 5.84785 0.574485 0
M  V30 3911 H 355.476 5.9178 1.50428 0
M  V30 3912 H 356.89 5.68307 -0.75499 0
M  V30 3913 H 355.287 5.80073 -1.53738 0
M  V30 3914 H 356.357 4.44504 -1.93764 0
M  V30 3915 N 357.7 0.491464 1.49741 0
M  V30 3916 C 358.63 -0.28154 2.31796 0
M  V30 3917 C 359.611 -0.971473 1.3963 0
M  V30 3918 O 360.796 -0.964719 1.68543 0
M  V30 3919 C 357.926 -1.35203 3.19902 0
M  V30 3920 C 356.88 -0.782529 4.20786 0
M  V30 3921 C 356.206 -1.95283 4.97764 0
M  V30 3922 C 357.506 0.21999 5.21837 0
M  V30 3923 H 359.2 0.403355 2.96671 0
M  V30 3924 H 356.746 0.195425 1.42668 0
M  V30 3925 H 358.699 -1.90045 3.76113 0
M  V30 3926 H 357.423 -2.06598 2.52953 0
M  V30 3927 H 356.082 -0.255928 3.65706 0
M  V30 3928 H 355.73 -2.65423 4.2727 0
M  V30 3929 H 355.43 -1.57789 5.66018 0
M  V30 3930 H 356.954 -2.50577 5.56816 0
M  V30 3931 H 358.368 -0.23996 5.72798 0
M  V30 3932 H 356.765 0.51026 5.97927 0
M  V30 3933 H 357.835 1.13911 4.7133 0
M  V30 3934 N 359.178 -1.55987 0.224894 0
M  V30 3935 C 360.141 -2.19178 -0.670348 0
M  V30 3936 C 361.141 -1.15461 -1.11917 0
M  V30 3937 O 362.331 -1.40675 -1.02743 0
M  V30 3938 C 359.463 -2.81777 -1.9187 0
M  V30 3939 H 360.656 -2.99662 -0.119364 0
M  V30 3940 H 358.209 -1.5628 -0.0247128 0
M  V30 3941 H 358.944 -2.05172 -2.51147 0
M  V30 3942 H 358.729 -3.57732 -1.60531 0
M  V30 3943 H 360.219 -3.30205 -2.55645 0
M  V30 3944 N 360.656 0.0484629 -1.57525 0
M  V30 3945 C 361.586 1.0549 -2.08313 0
M  V30 3946 C 362.567 1.38929 -0.981463 0
M  V30 3947 O 363.752 1.48151 -1.25558 0
M  V30 3948 C 360.882 2.36162 -2.54646 0
M  V30 3949 C 359.836 2.17016 -3.68901 0
M  V30 3950 C 359.162 3.53278 -4.01371 0
M  V30 3951 C 360.462 1.57219 -4.98076 0
M  V30 3952 H 362.156 0.632195 -2.92649 0
M  V30 3953 H 359.702 0.302654 -1.40784 0
M  V30 3954 H 361.655 3.06882 -2.88793 0
M  V30 3955 H 360.379 2.80456 -1.67368 0
M  V30 3956 H 359.038 1.48733 -3.35073 0
M  V30 3957 H 358.686 3.95185 -3.11188 0
M  V30 3958 H 358.386 3.41299 -4.78318 0
M  V30 3959 H 359.91 4.25391 -4.38035 0
M  V30 3960 H 361.324 2.17832 -5.30304 0
M  V30 3961 H 359.721 1.55871 -5.79503 0
M  V30 3962 H 360.791 0.535956 -4.81929 0
M  V30 3963 N 362.134 1.5431 0.320358 0
M  V30 3964 C 363.382 1.72327 1.05583 0
M  V30 3965 C 363.703 0.50149 1.88441 0
M  V30 3966 O 362.973 -0.48448 1.89815 0
M  V30 3967 H 361.553 0.635387 0.3928 0
M  V30 3968 H 364.215 1.91621 0.356019 0
M  V30 3969 H 363.311 2.60426 1.72003 0
M  V30 3970 N 363.613 -0.582584 1.46437 0
M  V30 3971 C 364.838 -1.37168 1.55563 0
M  V30 3972 C 365.263 -1.87061 0.19743 0
M  V30 3973 O 364.621 -1.61572 -0.822451 0
M  V30 3974 C 364.669 -2.53511 2.56446 0
M  V30 3975 O 363.773 -3.54953 2.09958 0
M  V30 3976 H 363.114 -0.408494 0.523477 0
M  V30 3977 H 365.644 -0.706646 1.9201 0
M  V30 3978 H 365.654 -3.00426 2.76058 0
M  V30 3979 H 364.329 -2.16549 3.55076 0
M  V30 3980 H 362.906 -3.14516 2.00334 0
M  V30 3981 N 365.091 -1.34144 -0.827227 0
M  V30 3982 C 366.339 -1.26009 -1.58007 0
M  V30 3983 C 366.66 0.170971 -1.94249 0
M  V30 3984 O 365.93 1.10256 -1.61927 0
M  V30 3985 H 364.51 -0.463414 -0.585881 0
M  V30 3986 H 367.172 -1.68005 -0.987951 0
M  V30 3987 H 366.268 -1.86187 -2.50481 0
M  V30 3988 N 366.569 1.04691 -1.17803 0
M  V30 3989 C 367.809 1.79352 -0.980423 0
M  V30 3990 C 368.173 1.85853 0.481958 0
M  V30 3991 O 369.374 2.56656 0.798809 0
M  V30 3992 C 367.645 3.19088 -1.6099 0
M  V30 3993 S 369.204 4.10164 -1.55918 0
M  V30 3994 H 366.022 0.617631 -0.352211 0
M  V30 3995 H 368.624 1.25575 -1.49837 0
M  V30 3996 H 367.328 3.11962 -2.66661 0
M  V30 3997 H 366.859 3.77941 -1.09197 0
M  V30 3998 H 368.874 4.92907 -0.570685 0
M  V30 3999 N 368.047 0.979072 1.23499 0
M  V30 4000 C 369.463 0.687475 1.44034 0
M  V30 4001 C 369.663 -0.746801 1.8715 0
M  V30 4002 O 368.719 -1.51939 2.0167 0
M  V30 4003 C 370.032 1.68127 2.49307 0
M  V30 4004 C 371.58 1.69516 2.63122 0
M  V30 4005 C 372.055 2.67723 3.71603 0
M  V30 4006 N 373.546 2.66233 3.79044 0
M  V30 4007 C 374.281 3.38891 4.62537 0
M  V30 4008 N 373.777 4.21103 5.50131 0
M  V30 4009 N 375.57 3.27661 4.56721 0
M  V30 4010 H 367.721 1.90559 0.938135 0
M  V30 4011 H 369.984 0.821051 0.473897 0
M  V30 4012 H 369.69 2.70693 2.2454 0
M  V30 4013 H 369.564 1.46306 3.4767 0
M  V30 4014 H 371.951 0.676561 2.8724 0
M  V30 4015 H 372.032 1.95404 1.65079 0
M  V30 4016 H 371.676 3.69724 3.48233 0
M  V30 4017 H 371.606 2.39111 4.69184 0
M  V30 4018 H 374.097 2.06568 3.16446 0
M  V30 4019 H 374.41 4.73403 6.10827 0
M  V30 4020 H 372.755 4.25195 5.49759 0
M  V30 4021 H 375.946 2.62887 3.87309 0
M  V30 4022 H 376.119 3.84547 5.21562 0
M  V30 4023 N 369.525 -1.3858 0.750561 0
M  V30 4024 C 370.488 -2.28836 0.129152 0
M  V30 4025 C 371.488 -1.47045 -0.650714 0
M  V30 4026 O 372.678 -1.6753 -0.477428 0
M  V30 4027 C 369.81 -3.30751 -0.825622 0
M  V30 4028 H 371.003 -2.85294 0.924516 0
M  V30 4029 H 368.556 -1.47489 0.517376 0
M  V30 4030 H 369.291 -2.79378 -1.64677 0
M  V30 4031 H 369.076 -3.91177 -0.268852 0
M  V30 4032 H 370.566 -3.98249 -1.2565 0
M  V30 4033 N 371.003 -0.499398 -1.49478 0
M  V30 4034 C 372.228 0.044722 -2.07352 0
M  V30 4035 C 372.653 1.30207 -1.35749 0
M  V30 4036 O 372.011 1.76516 -0.413732 0
M  V30 4037 C 372.059 0.283013 -3.59488 0
M  V30 4038 O 371.163 1.35804 -3.89398 0
M  V30 4039 H 370.504 -0.0255147 -0.66351 0
M  V30 4040 H 373.034 -0.698561 -1.92305 0
M  V30 4041 H 373.044 0.515007 -4.04737 0
M  V30 4042 H 371.719 -0.635636 -4.11014 0
M  V30 4043 H 370.296 1.11113 -3.55961 0
M  V30 4044 N 372.481 1.55866 -0.233164 0
M  V30 4045 C 373.727 1.98897 0.395959 0
M  V30 4046 C 374.06 1.12091 1.58585 0
M  V30 4047 O 373.335 0.181182 1.93654 0
M  V30 4048 C 373.618 3.50658 0.819224 0
M  V30 4049 C 373.471 4.48233 -0.375109 0
M  V30 4050 C 374.79 4.07135 1.67121 0
M  V30 4051 H 371.909 0.723102 0.142451 0
M  V30 4052 H 374.551 1.87082 -0.331725 0
M  V30 4053 H 372.701 3.60857 1.43925 0
M  V30 4054 H 374.373 4.50031 -1.01341 0
M  V30 4055 H 372.616 4.21624 -1.02058 0
M  V30 4056 H 373.287 5.51988 -0.0358328 0
M  V30 4057 H 375.763 3.99952 1.14795 0
M  V30 4058 H 374.639 5.13615 1.93625 0
M  V30 4059 H 374.9 3.54736 2.63846 0
M  V30 4060 N 373.959 -0.0401083 1.57549 0
M  V30 4061 C 374.889 -1.04384 2.08869 0
M  V30 4062 C 375.87 -1.38407 0.988817 0
M  V30 4063 O 377.055 -1.47483 1.26342 0
M  V30 4064 C 374.185 -2.34808 2.55895 0
M  V30 4065 C 373.139 -2.15057 3.70047 0
M  V30 4066 C 372.465 -3.51145 4.03239 0
M  V30 4067 C 373.765 -1.54576 4.98902 0
M  V30 4068 H 375.459 -0.616666 2.92981 0
M  V30 4069 H 373.005 -0.295184 1.40942 0
M  V30 4070 H 374.958 -3.05346 2.90417 0
M  V30 4071 H 373.682 -2.79565 1.68853 0
M  V30 4072 H 372.341 -1.46954 3.35857 0
M  V30 4073 H 371.989 -3.93529 3.13279 0
M  V30 4074 H 371.689 -3.38758 4.80122 0
M  V30 4075 H 373.213 -4.23062 4.40285 0
M  V30 4076 H 374.627 -2.15017 5.31451 0
M  V30 4077 H 373.024 -1.52796 5.80322 0
M  V30 4078 H 374.094 -0.51039 4.82206 0
M  V30 4079 N 375.437 -1.54477 -0.31217 0
M  V30 4080 C 376.387 -1.81037 -1.38598 0
M  V30 4081 C 377.371 -0.666941 -1.46426 0
M  V30 4082 O 378.563 -0.927269 -1.50767 0
M  V30 4083 C 375.692 -2.05127 -2.75277 0
M  V30 4084 C 374.778 -3.25624 -2.71716 0
M  V30 4085 N 375.169 -4.46428 -2.37773 0
M  V30 4086 C 373.467 -3.27427 -3.02833 0
M  V30 4087 C 374.168 -5.28406 -2.43232 0
M  V30 4088 N 373.144 -4.6586 -2.80135 0
M  V30 4089 H 376.946 -2.7201 -1.11301 0
M  V30 4090 H 374.46 -1.53826 -0.520705 0
M  V30 4091 H 376.457 -2.22299 -3.52688 0
M  V30 4092 H 375.117 -1.15416 -3.03495 0
M  V30 4093 H 376.128 -4.73227 -2.1042 0
M  V30 4094 H 372.805 -2.47786 -3.36018 0
M  V30 4095 H 374.195 -6.34903 -2.19882 0
M  V30 4096 N 376.915 0.57481 -1.46744 0
M  V30 4097 C 377.847 1.69804 -1.53946 0
M  V30 4098 C 378.86 1.57098 -0.427106 0
M  V30 4099 O 380.049 1.64378 -0.695863 0
M  V30 4100 C 377.149 3.08125 -1.4111 0
M  V30 4101 C 376.322 3.46757 -2.66605 0
M  V30 4102 C 375.381 4.6417 -2.47855 0
M  V30 4103 O 374.407 4.69634 -3.21609 0
M  V30 4104 N 375.609 5.59553 -1.54534 0
M  V30 4105 H 378.374 1.64077 -2.50796 0
M  V30 4106 H 375.935 0.761 -1.429 0
M  V30 4107 H 377.927 3.84478 -1.26328 0
M  V30 4108 H 376.497 3.08175 -0.524109 0
M  V30 4109 H 375.717 2.6003 -2.96274 0
M  V30 4110 H 377.005 3.69337 -3.49954 0
M  V30 4111 H 376.403 5.57881 -0.937304 0
M  V30 4112 H 374.96 6.35304 -1.45711 0
M  V30 4113 N 378.394 1.34581 0.820102 0
M  V30 4114 C 379.324 1.29038 1.94606 0
M  V30 4115 C 380.305 0.1673 1.69275 0
M  V30 4116 O 381.49 0.360112 1.90832 0
M  V30 4117 C 378.62 1.04793 3.31113 0
M  V30 4118 C 377.574 2.13597 3.70891 0
M  V30 4119 C 376.9 1.74537 5.05412 0
M  V30 4120 C 378.2 3.55451 3.8269 0
M  V30 4121 H 379.894 2.23248 1.99501 0
M  V30 4122 H 377.44 1.0747 0.958449 0
M  V30 4123 H 379.393 0.995592 4.0947 0
M  V30 4124 H 378.117 0.0702565 3.26524 0
M  V30 4125 H 376.776 2.17905 2.9481 0
M  V30 4126 H 376.424 0.754226 4.97313 0
M  V30 4127 H 376.124 2.47361 5.32997 0
M  V30 4128 H 377.648 1.70803 5.86224 0
M  V30 4129 H 379.062 3.5354 4.51312 0
M  V30 4130 H 377.459 4.26922 4.21732 0
M  V30 4131 H 378.529 3.92587 2.84611 0
M  V30 4132 N 379.872 -1.04064 1.18357 0
M  V30 4133 C 381.12 -1.76915 0.977013 0
M  V30 4134 C 381.441 -1.88624 -0.494577 0
M  V30 4135 O 380.711 -1.41125 -1.3587 0
M  V30 4136 H 379.291 -0.65535 0.358504 0
M  V30 4137 H 381.953 -1.25592 1.49039 0
M  V30 4138 H 381.049 -2.78178 1.41504 0
M  V30 4139 N 381.35 -0.985608 -1.22978 0
M  V30 4140 C 382.575 -0.675254 -1.961 0
M  V30 4141 C 383 0.752154 -1.72407 0
M  V30 4142 O 382.358 1.5131 -0.998751 0
M  V30 4143 C 382.406 -0.977899 -3.47087 0
M  V30 4144 O 381.51 -0.072685 -4.12336 0
M  V30 4145 H 380.851 -0.253443 -0.613728 0
M  V30 4146 H 383.381 -1.32061 -1.56272 0
M  V30 4147 H 383.391 -0.916739 -3.97567 0
M  V30 4148 H 382.066 -2.01807 -3.63657 0
M  V30 4149 H 380.643 -0.188703 -3.72422 0
M  V30 4150 N 382.828 1.3818 -0.7579 0
M  V30 4151 C 384.244 1.5353 -0.435972 0
M  V30 4152 C 384.444 1.71961 1.05032 0
M  V30 4153 O 383.5 1.73307 1.83633 0
M  V30 4154 C 384.813 2.73989 -1.23898 0
M  V30 4155 C 386.361 2.87841 -1.22949 0
M  V30 4156 C 386.836 4.11266 -2.01554 0
M  V30 4157 N 388.327 4.18352 -1.98837 0
M  V30 4158 C 389.062 5.12856 -2.5645 0
M  V30 4159 N 388.558 6.13005 -3.22794 0
M  V30 4160 N 390.351 5.05238 -2.46356 0
M  V30 4161 H 382.502 1.24467 -1.7211 0
M  V30 4162 H 384.765 0.604982 -0.729864 0
M  V30 4163 H 384.471 2.66789 -2.29165 0
M  V30 4164 H 384.345 3.67294 -0.858764 0
M  V30 4165 H 386.732 2.9452 -0.184854 0
M  V30 4166 H 386.813 1.95534 -1.64924 0
M  V30 4167 H 386.457 4.05349 -3.06031 0
M  V30 4168 H 386.387 5.02661 -1.5697 0
M  V30 4169 H 388.878 3.46628 -1.50524 0
M  V30 4170 H 389.191 6.81619 -3.64165 0
M  V30 4171 H 387.536 6.13325 -3.2689 0
M  V30 4172 H 390.727 4.25938 -1.9415 0
M  V30 4173 H 390.9 5.78707 -2.91552 0
M  V30 4174 N 384.306 0.507319 1.49211 0
M  V30 4175 C 385.717 0.0611118 1.866 0
M  V30 4176 C 386.068 -1.35488 1.41907 0
M  V30 4177 O 385.193 -2.0108 0.799726 0
M  V30 4178 C 385.788 0.104125 3.3864 0
M  V30 4179 C 384.347 -0.28677 3.75306 0
M  V30 4180 C 383.494 0.473893 2.73221 0
M  V30 4181 H 386.445 0.719775 1.41439 0
M  V30 4182 H 386.466 -0.689672 3.74198 0
M  V30 4183 H 385.978 1.13482 3.71138 0
M  V30 4184 H 384.079 -1.32046 3.48417 0
M  V30 4185 H 384.192 0.0370745 4.79086 0
M  V30 4186 H 382.556 -0.0770644 2.54583 0
M  V30 4187 H 383.339 1.50478 3.08563 0
M  V30 4188 N 385.784 -1.5574 0.241426 0
M  V30 4189 C 387.2 -1.59196 -0.113548 0
M  V30 4190 C 387.4 -1.25852 -1.57364 0
M  V30 4191 O 386.456 -1.00322 -2.31715 0
M  V30 4192 C 387.769 -2.99814 0.230695 0
M  V30 4193 C 389.317 -3.12513 0.174547 0
M  V30 4194 C 389.792 -4.55342 0.492744 0
M  V30 4195 N 391.283 -4.61076 0.443043 0
M  V30 4196 C 392.018 -5.6956 0.662484 0
M  V30 4197 N 391.514 -6.86328 0.944761 0
M  V30 4198 N 393.307 -5.58957 0.593564 0
M  V30 4199 H 385.458 -1.75685 1.19368 0
M  V30 4200 H 387.721 -0.81756 0.479896 0
M  V30 4201 H 387.427 -3.28932 1.24485 0
M  V30 4202 H 387.301 -3.74568 -0.444833 0
M  V30 4203 H 389.688 -2.83179 -0.830277 0
M  V30 4204 H 389.769 -2.40045 0.883845 0
M  V30 4205 H 389.413 -4.85396 1.4951 0
M  V30 4206 H 389.343 -5.26062 -0.23797 0
M  V30 4207 H 391.834 -3.77179 0.233374 0
M  V30 4208 H 392.147 -7.64935 1.09977 0
M  V30 4209 H 390.492 -6.88025 0.982175 0
M  V30 4210 H 393.683 -4.66611 0.373123 0
M  V30 4211 H 393.856 -6.43433 0.767981 0
M  V30 4212 N 387.262 0.0317525 -1.57568 0
M  V30 4213 C 388.194 1.06073 -2.03178 0
M  V30 4214 C 389.207 1.32627 -0.944132 0
M  V30 4215 O 390.396 1.30162 -1.22148 0
M  V30 4216 C 387.496 2.40297 -2.38978 0
M  V30 4217 C 386.669 2.33137 -3.70089 0
M  V30 4218 C 385.728 3.49787 -3.9311 0
M  V30 4219 O 384.754 3.29403 -4.64201 0
M  V30 4220 N 385.956 4.71562 -3.38541 0
M  V30 4221 H 388.721 0.672006 -2.92069 0
M  V30 4222 H 386.282 0.219745 -1.60402 0
M  V30 4223 H 388.274 3.1705 -2.51518 0
M  V30 4224 H 386.844 2.71024 -1.55771 0
M  V30 4225 H 386.064 1.415 -3.67928 0
M  V30 4226 H 387.352 2.25493 -4.56104 0
M  V30 4227 H 386.75 4.91024 -2.80912 0
M  V30 4228 H 385.307 5.45689 -3.56464 0
M  V30 4229 N 388.74 1.54641 0.303973 0
M  V30 4230 C 389.968 1.77768 1.05858 0
M  V30 4231 C 390.383 0.535722 1.8104 0
M  V30 4232 O 389.74 -0.494337 1.75677 0
M  V30 4233 C 389.791 2.9834 2.04146 0
M  V30 4234 O 389.512 4.17736 1.32015 0
M  V30 4235 C 391.013 3.33832 2.91669 0
M  V30 4236 H 388.233 0.592961 0.314067 0
M  V30 4237 H 390.777 2.01583 0.344149 0
M  V30 4238 H 388.932 2.76742 2.71096 0
M  V30 4239 H 389.346 4.85693 1.97998 0
M  V30 4240 H 390.82 4.21448 3.56491 0
M  V30 4241 H 391.297 2.51857 3.59812 0
M  V30 4242 H 391.903 3.57579 2.30254 0
M  V30 4243 N 390.218 -0.567019 1.47046 0
M  V30 4244 C 391.148 -1.68482 1.61667 0
M  V30 4245 C 392.129 -1.6358 0.466418 0
M  V30 4246 O 393.314 -1.81354 0.694574 0
M  V30 4247 C 390.444 -3.07124 1.62148 0
M  V30 4248 C 389.398 -3.26867 2.76301 0
M  V30 4249 C 388.724 -4.66196 2.61849 0
M  V30 4250 C 390.024 -3.13186 4.17986 0
M  V30 4251 H 391.718 -1.56502 2.5524 0
M  V30 4252 H 389.264 -0.751486 1.22836 0
M  V30 4253 H 391.217 -3.8516 1.70968 0
M  V30 4254 H 389.941 -3.2004 0.651287 0
M  V30 4255 H 388.6 -2.51237 2.66975 0
M  V30 4256 H 388.248 -4.75898 1.62879 0
M  V30 4257 H 387.948 -4.80356 3.38425 0
M  V30 4258 H 389.472 -5.46379 2.72584 0
M  V30 4259 H 390.886 -3.81049 4.2834 0
M  V30 4260 H 389.283 -3.3886 4.95272 0
M  V30 4261 H 390.353 -2.10057 4.3704 0
M  V30 4262 N 391.696 -1.35014 -0.812953 0
M  V30 4263 C 392.973 -1.18502 -1.55617 0
M  V30 4264 C 393.353 0.238421 -2.09749 0
M  V30 4265 O 392.701 1.2411 -1.91857 0
M  V30 4266 C 392.911 -2.24783 -2.66971 0
M  V30 4267 C 394.259 -2.60268 -3.35478 0
M  V30 4268 O 395.283 -2.23648 -2.77236 0
M  V30 4269 O 394.142 -3.2321 -4.40678 0
M  V30 4270 H 391.236 -0.459984 -0.687272 0
M  V30 4271 H 393.782 -1.46677 -0.853464 0
M  V30 4272 H 392.554 -3.20284 -2.24798 0
M  V30 4273 H 392.177 -1.97841 -3.44884 0
M  V30 4274 N 393.175 1.03435 -1.18907 0
M  V30 4275 C 394.138 2.09756 -0.923844 0
M  V30 4276 C 395.138 1.60528 0.093416 0
M  V30 4277 O 396.328 1.73631 -0.140727 0
M  V30 4278 C 393.46 3.38692 -0.387354 0
M  V30 4279 H 394.653 2.34719 -1.86674 0
M  V30 4280 H 392.206 1.19959 -1.00197 0
M  V30 4281 H 392.941 3.19396 0.561845 0
M  V30 4282 H 392.726 3.75742 -1.12074 0
M  V30 4283 H 394.216 4.17016 -0.220694 0
M  V30 4284 N 394.653 0.992116 1.22453 0
M  V30 4285 C 395.583 0.561677 2.26644 0
M  V30 4286 C 396.564 -0.411055 1.65059 0
M  V30 4287 O 397.749 -0.301861 1.9184 0
M  V30 4288 C 394.879 -0.125247 3.47074 0
M  V30 4289 C 393.833 0.765948 4.21091 0
M  V30 4290 C 393.159 -0.0538484 5.34673 0
M  V30 4291 C 394.459 2.06242 4.79856 0
M  V30 4292 H 396.153 1.43259 2.62902 0
M  V30 4293 H 393.699 0.690283 1.26377 0
M  V30 4294 H 395.652 -0.437764 4.1912 0
M  V30 4295 H 394.376 -1.03069 3.0991 0
M  V30 4296 H 393.035 1.0621 3.50878 0
M  V30 4297 H 392.683 -0.960188 4.9375 0
M  V30 4298 H 392.383 0.539415 5.85119 0
M  V30 4299 H 393.907 -0.360477 6.09535 0
M  V30 4300 H 395.321 1.8139 5.43848 0
M  V30 4301 H 393.718 2.60444 5.40638 0
M  V30 4302 H 394.788 2.74167 3.99951 0
M  V30 4303 N 396.131 -1.37776 0.765217 0
M  V30 4304 C 397.061 -2.32945 0.160953 0
M  V30 4305 C 398.042 -1.55454 -0.690516 0
M  V30 4306 O 399.227 -1.83721 -0.629318 0
M  V30 4307 C 396.357 -3.39669 -0.724031 0
M  V30 4308 C 395.311 -4.27992 0.0256173 0
M  V30 4309 C 394.637 -5.25673 -0.978383 0
M  V30 4310 C 395.937 -5.08309 1.20082 0
M  V30 4311 H 397.631 -2.83728 0.955969 0
M  V30 4312 H 395.177 -1.36416 0.461149 0
M  V30 4313 H 397.13 -4.05219 -1.15652 0
M  V30 4314 H 395.854 -2.87396 -1.5515 0
M  V30 4315 H 394.513 -3.63964 0.438812 0
M  V30 4316 H 394.161 -4.69682 -1.80022 0
M  V30 4317 H 393.861 -5.85625 -0.481378 0
M  V30 4318 H 395.385 -5.94098 -1.40995 0
M  V30 4319 H 396.799 -5.67034 0.845307 0
M  V30 4320 H 395.196 -5.77554 1.62947 0
M  V30 4321 H 396.266 -4.41365 2.00811 0
M  V30 4322 N 397.609 -0.515225 -1.4894 0
M  V30 4323 C 399.02 -0.0710067 -1.86565 0
M  V30 4324 C 399.371 1.34733 -1.42623 0
M  V30 4325 O 398.496 2.00653 -0.810379 0
M  V30 4326 C 399.091 -0.122083 -3.3858 0
M  V30 4327 C 397.65 0.266863 -3.75453 0
M  V30 4328 C 396.797 -0.488376 -2.72966 0
M  V30 4329 H 399.748 -0.727266 -1.41055 0
M  V30 4330 H 399.769 0.669818 -3.74558 0
M  V30 4331 H 399.281 -1.15448 -3.70531 0
M  V30 4332 H 397.382 1.30196 -3.49113 0
M  V30 4333 H 397.495 -0.0624811 -4.79059 0
M  V30 4334 H 395.859 0.0635622 -2.54621 0
M  V30 4335 H 396.642 -1.52113 -3.07761 0
M  V30 4336 N 399.087 1.5561 -0.249682 0
M  V30 4337 C 400.498 1.84979 0.252949 0
M  V30 4338 C 400.849 1.17153 1.57384 0
M  V30 4339 O 399.974 0.450884 2.11651 0
M  V30 4340 C 400.569 3.35584 0.465732 0
M  V30 4341 C 399.128 3.65169 0.912624 0
M  V30 4342 C 398.275 2.77299 -0.00859085 0
M  V30 4343 H 401.226 1.51513 -0.47217 0
M  V30 4344 H 401.247 3.57313 1.30795 0
M  V30 4345 H 400.759 3.8492 -0.49579 0
M  V30 4346 H 398.86 3.21312 1.88652 0
M  V30 4347 H 398.973 4.72912 0.767559 0
M  V30 4348 H 397.337 2.49678 0.50327 0
M  V30 4349 H 398.12 3.29442 -0.965537 0
M  V30 4350 N 400.565 -0.0233959 1.57583 0
M  V30 4351 C 401.842 -0.748794 1.807 0
M  V30 4352 C 402.222 -1.9327 0.849106 0
M  V30 4353 O 401.57 -2.28247 -0.107468 0
M  V30 4354 C 401.78 -1.17651 3.28571 0
M  V30 4355 C 403.128 -1.59008 3.93702 0
M  V30 4356 O 404.152 -1.27094 3.32755 0
M  V30 4357 O 403.011 -2.18264 5.01022 0
M  V30 4358 H 400.105 -0.362578 0.743281 0
M  V30 4359 H 402.651 0.000261958 1.697 0
M  V30 4360 H 401.423 -0.331603 3.89892 0
M  V30 4361 H 401.046 -1.98541 3.44481 0
M  V30 4362 N 402.043 -1.548 -0.295768 0
M  V30 4363 C 403.271 -1.78327 -1.04914 0
M  V30 4364 C 403.686 -0.545316 -1.80753 0
M  V30 4365 O 403.043 0.485013 -1.75937 0
M  V30 4366 C 403.094 -2.99418 -2.02561 0
M  V30 4367 O 402.815 -4.18431 -1.29798 0
M  V30 4368 C 404.316 -3.35375 -2.89895 0
M  V30 4369 H 401.536 -0.594618 -0.310918 0
M  V30 4370 H 404.08 -2.01763 -0.333454 0
M  V30 4371 H 402.235 -2.78175 -2.69624 0
M  V30 4372 H 402.649 -4.86736 -1.95419 0
M  V30 4373 H 404.123 -4.23332 -3.54251 0
M  V30 4374 H 404.6 -2.53761 -3.58472 0
M  V30 4375 H 405.206 -3.58796 -2.28355 0
M  V30 4376 N 403.521 0.559213 -1.47345 0
M  V30 4377 C 404.746 1.34676 -1.57725 0
M  V30 4378 C 405.171 1.86723 -0.227164 0
M  V30 4379 O 404.529 1.6286 0.796642 0
M  V30 4380 C 404.577 2.49399 -2.60447 0
M  V30 4381 O 403.681 3.51567 -2.15578 0
M  V30 4382 H 403.022 0.400115 -0.52991 0
M  V30 4383 H 405.552 0.676009 -1.93109 0
M  V30 4384 H 405.562 2.95996 -2.80803 0
M  V30 4385 H 404.237 2.10873 -3.58477 0
M  V30 4386 H 402.814 3.11289 -2.05313 0
M  V30 4387 N 404.999 1.35443 0.805782 0
M  V30 4388 C 406.41 1.25768 1.37983 0
M  V30 4389 C 406.761 -0.10958 1.95894 0
M  V30 4390 O 405.886 -1.01056 1.91355 0
M  V30 4391 C 406.481 2.27727 2.5085 0
M  V30 4392 C 405.04 2.2179 3.04115 0
M  V30 4393 C 404.187 2.13393 1.77084 0
M  V30 4394 H 407.138 1.4656 0.608752 0
M  V30 4395 H 407.159 1.90422 3.29424 0
M  V30 4396 H 406.671 3.27227 2.08671 0
M  V30 4397 H 404.772 1.25703 3.50756 0
M  V30 4398 H 404.885 3.13788 3.62042 0
M  V30 4399 H 403.249 1.59384 1.98668 0
M  V30 4400 H 404.032 3.14755 1.37056 0
M  V30 4401 N 406.477 -1.02803 1.19454 0
M  V30 4402 C 407.387 -2.14575 0.948408 0
M  V30 4403 C 408.403 -1.73757 -0.091871 0
M  V30 4404 O 409.579 -2.01185 0.0929654 0
M  V30 4405 C 406.644 -3.43202 0.491265 0
M  V30 4406 C 405.705 -3.98328 1.60103 0
M  V30 4407 C 404.938 -5.20816 1.16561 0
M  V30 4408 O 405.161 -5.70392 0.0295238 0
M  V30 4409 O 404.095 -5.68801 1.96849 0
M  V30 4410 H 407.921 -2.38202 1.88397 0
M  V30 4411 H 405.506 -1.12989 0.977433 0
M  V30 4412 H 407.388 -4.20687 0.245015 0
M  V30 4413 H 406.063 -3.21018 -0.415851 0
M  V30 4414 H 404.97 -3.22174 1.90144 0
M  V30 4415 H 406.303 -4.24879 2.48473 0
M  V30 4416 N 407.956 -0.998596 -1.21925 0
M  V30 4417 C 408.919 -0.558679 -2.22287 0
M  V30 4418 C 409.919 0.361525 -1.56683 0
M  V30 4419 O 411.109 0.152695 -1.73529 0
M  V30 4420 C 408.241 0.18661 -3.40389 0
M  V30 4421 H 409.434 -1.4463 -2.62721 0
M  V30 4422 H 406.987 -0.786413 -1.35075 0
M  V30 4423 H 407.722 1.08996 -3.05435 0
M  V30 4424 H 407.507 -0.474188 -3.89222 0
M  V30 4425 H 408.997 0.482367 -4.14805 0
M  V30 4426 N 409.434 1.37368 -0.772513 0
M  V30 4427 C 410.364 2.32856 -0.173304 0
M  V30 4428 C 411.345 1.55818 0.682262 0
M  V30 4429 O 412.53 1.84052 0.619566 0
M  V30 4430 C 409.66 3.40048 0.706007 0
M  V30 4431 C 408.614 4.27973 -0.0483144 0
M  V30 4432 C 407.94 5.26184 0.950491 0
M  V30 4433 C 409.24 5.07665 -1.22776 0
M  V30 4434 H 410.934 2.83217 -0.971002 0
M  V30 4435 H 408.48 1.3617 -0.468377 0
M  V30 4436 H 410.433 4.05827 1.13501 0
M  V30 4437 H 409.157 2.88214 1.53623 0
M  V30 4438 H 407.816 3.63726 -0.458107 0
M  V30 4439 H 407.464 4.7063 1.77529 0
M  V30 4440 H 407.164 5.85872 0.450314 0
M  V30 4441 H 408.688 5.94838 1.37842 0
M  V30 4442 H 410.102 5.66578 -0.875366 0
M  V30 4443 H 408.499 5.76681 -1.66007 0
M  V30 4444 H 409.569 4.40294 -2.03149 0
M  V30 4445 N 410.912 0.523116 1.48665 0
M  V30 4446 C 412.189 -0.0775449 1.95446 0
M  V30 4447 C 412.569 -1.5197 1.4652 0
M  V30 4448 O 411.917 -2.17876 0.688657 0
M  V30 4449 C 412.127 0.0326135 3.48985 0
M  V30 4450 C 413.475 -0.130141 4.24401 0
M  V30 4451 O 414.499 -0.0415142 3.56176 0
M  V30 4452 O 413.358 -0.31491 5.45592 0
M  V30 4453 H 410.452 -0.0831012 0.822814 0
M  V30 4454 H 412.998 0.587227 1.59216 0
M  V30 4455 H 411.77 1.03748 3.77296 0
M  V30 4456 H 411.393 -0.671317 3.91892 0
M  V30 4457 N 412.39 -1.55475 0.257931 0
M  V30 4458 C 413.32 -2.24815 -0.630912 0
M  V30 4459 C 414.301 -1.23224 -1.17259 0
M  V30 4460 O 415.486 -1.51904 -1.20991 0
M  V30 4461 C 412.616 -2.95609 -1.82298 0
M  V30 4462 C 411.57 -4.03982 -1.41359 0
M  V30 4463 C 410.896 -4.6226 -2.68738 0
M  V30 4464 C 412.196 -5.19109 -0.57648 0
M  V30 4465 H 413.89 -2.99354 -0.0526878 0
M  V30 4466 H 411.436 -1.4398 -0.023901 0
M  V30 4467 H 413.389 -3.42822 -2.45054 0
M  V30 4468 H 412.113 -2.18577 -2.42676 0
M  V30 4469 H 410.772 -3.57555 -0.809324 0
M  V30 4470 H 410.42 -3.81915 -3.27338 0
M  V30 4471 H 410.12 -5.35424 -2.42065 0
M  V30 4472 H 411.644 -5.12212 -3.32372 0
M  V30 4473 H 413.058 -5.62479 -1.10861 0
M  V30 4474 H 411.455 -5.98729 -0.405351 0
M  V30 4475 H 412.525 -4.83174 0.408776 0
M  V30 4476 N 413.868 0.0150385 -1.57593 0
M  V30 4477 C 414.798 1.01047 -2.10503 0
M  V30 4478 C 415.779 1.36816 -1.01071 0
M  V30 4479 O 416.964 1.45455 -1.28672 0
M  V30 4480 C 414.094 2.30708 -2.59598 0
M  V30 4481 C 413.048 2.09142 -3.73421 0
M  V30 4482 C 412.374 3.44685 -4.08774 0
M  V30 4483 C 413.674 1.46619 -5.01298 0
M  V30 4484 H 415.368 0.569978 -2.93925 0
M  V30 4485 H 412.914 0.272724 -1.41394 0
M  V30 4486 H 414.867 3.00687 -2.95238 0
M  V30 4487 H 413.591 2.76843 -1.73279 0
M  V30 4488 H 412.25 1.41592 -3.38153 0
M  V30 4489 H 411.898 3.88495 -3.195 0
M  V30 4490 H 411.598 3.31077 -4.8545 0
M  V30 4491 H 413.122 4.16004 -4.4696 0
M  V30 4492 H 414.536 2.06535 -5.34805 0
M  V30 4493 H 412.933 1.43544 -5.82679 0
M  V30 4494 H 414.003 0.433611 -4.82957 0
M  V30 4495 N 415.346 1.54954 0.287554 0
M  V30 4496 C 416.762 1.46469 0.633964 0
M  V30 4497 C 416.962 0.666865 1.90145 0
M  V30 4498 O 416.018 0.179906 2.51858 0
M  V30 4499 C 417.331 2.90556 0.774454 0
M  V30 4500 C 418.879 3.00681 0.869462 0
M  V30 4501 C 419.354 4.45993 1.04184 0
M  V30 4502 N 420.845 4.4976 1.10772 0
M  V30 4503 C 421.58 5.59393 1.25964 0
M  V30 4504 N 421.076 6.78923 1.37968 0
M  V30 4505 N 422.869 5.47107 1.28959 0
M  V30 4506 H 415.02 2.05288 -0.545041 0
M  V30 4507 H 417.283 0.930305 -0.182308 0
M  V30 4508 H 416.989 3.51594 -0.086207 0
M  V30 4509 H 416.863 3.38743 1.6593 0
M  V30 4510 H 419.25 2.39749 1.7206 0
M  V30 4511 H 419.331 2.55769 -0.0396831 0
M  V30 4512 H 418.975 5.07524 0.195422 0
M  V30 4513 H 418.905 4.88548 1.96542 0
M  V30 4514 H 421.396 3.63651 1.02794 0
M  V30 4515 H 421.709 7.58231 1.49353 0
M  V30 4516 H 420.054 6.81763 1.34999 0
M  V30 4517 H 423.245 4.52668 1.19202 0
M  V30 4518 H 423.418 6.32595 1.40455 0
M  V30 4519 N 416.824 -0.551391 1.4764 0
M  V30 4520 C 418.24 -0.877887 1.33287 0
M  V30 4521 C 418.44 -1.98817 0.327721 0
M  V30 4522 O 417.496 -2.51171 -0.258695 0
M  V30 4523 C 418.809 -1.26563 2.72768 0
M  V30 4524 C 420.357 -1.37673 2.81097 0
M  V30 4525 C 420.832 -1.79799 4.21232 0
M  V30 4526 N 422.323 -1.8694 4.23802 0
M  V30 4527 C 423.058 -2.20876 5.29151 0
M  V30 4528 N 422.554 -2.53386 6.448 0
M  V30 4529 N 424.347 -2.217 5.16532 0
M  V30 4530 H 416.498 0.18153 2.11623 0
M  V30 4531 H 418.761 0.0185514 0.947818 0
M  V30 4532 H 418.467 -0.523591 3.47781 0
M  V30 4533 H 418.341 -2.22052 3.04915 0
M  V30 4534 H 420.728 -2.10956 2.06353 0
M  V30 4535 H 420.809 -0.40357 2.52596 0
M  V30 4536 H 420.453 -1.07083 4.96483 0
M  V30 4537 H 420.383 -2.78128 4.4716 0
M  V30 4538 H 422.874 -1.64179 3.40373 0
M  V30 4539 H 423.187 -2.78325 7.20941 0
M  V30 4540 H 421.532 -2.50953 6.48111 0
M  V30 4541 H 424.723 -1.95745 4.25207 0
M  V30 4542 H 424.896 -2.47818 5.98741 0
M  V30 4543 N 418.302 -1.35869 -0.798587 0
M  V30 4544 C 419.232 -1.32118 -1.92528 0
M  V30 4545 C 420.213 -0.194209 -1.68988 0
M  V30 4546 O 421.398 -0.390426 -1.90235 0
M  V30 4547 C 418.528 -1.10047 -3.29404 0
M  V30 4548 C 417.482 -2.19471 -3.67446 0
M  V30 4549 C 416.808 -1.82555 -5.02571 0
M  V30 4550 C 418.108 -3.61495 -3.76987 0
M  V30 4551 H 419.802 -2.26394 -1.95924 0
M  V30 4552 H 417.348 -1.08981 -0.94123 0
M  V30 4553 H 419.301 -1.06061 -4.07835 0
M  V30 4554 H 418.025 -0.122195 -3.26371 0
M  V30 4555 H 416.684 -2.22568 -2.91306 0
M  V30 4556 H 416.332 -0.833249 -4.9605 0
M  V30 4557 H 416.032 -2.5581 -5.28995 0
M  V30 4558 H 417.556 -1.80108 -5.83432 0
M  V30 4559 H 418.97 -3.60676 -4.4563 0
M  V30 4560 H 417.367 -4.33577 -4.14887 0
M  V30 4561 H 418.437 -3.97065 -2.78329 0
M  V30 4562 N 419.78 1.02168 -1.19998 0
M  V30 4563 C 420.71 2.12488 -0.96804 0
M  V30 4564 C 421.691 1.69799 0.101185 0
M  V30 4565 O 422.876 1.94121 -0.0552993 0
M  V30 4566 C 420.006 3.43479 -0.513776 0
M  V30 4567 C 418.96 3.99884 -1.52566 0
M  V30 4568 C 418.286 5.26582 -0.928214 0
M  V30 4569 C 419.586 4.33861 -2.90795 0
M  V30 4570 H 421.28 2.32149 -1.89069 0
M  V30 4571 H 418.826 1.11564 -0.910468 0
M  V30 4572 H 420.779 4.20036 -0.338774 0
M  V30 4573 H 419.503 3.23561 0.444493 0
M  V30 4574 H 418.162 3.25429 -1.68794 0
M  V30 4575 H 417.81 5.02986 0.0378289 0
M  V30 4576 H 417.51 5.65284 -1.60397 0
M  V30 4577 H 419.034 6.05799 -0.764167 0
M  V30 4578 H 420.448 5.01327 -2.78109 0
M  V30 4579 H 418.845 4.83664 -3.55231 0
M  V30 4580 H 419.915 3.42848 -3.42904 0
M  V30 4581 N 421.258 1.00505 1.21394 0
M  V30 4582 C 422.504 0.688793 1.90745 0
M  V30 4583 C 422.837 -0.778486 1.77914 0
M  V30 4584 O 422.112 -1.56433 1.15581 0
M  V30 4585 C 422.395 1.11063 3.42545 0
M  V30 4586 C 422.248 2.63737 3.64367 0
M  V30 4587 C 423.567 0.673059 4.34923 0
M  V30 4588 H 420.686 0.251702 0.692687 0
M  V30 4589 H 423.328 1.25074 1.43026 0
M  V30 4590 H 421.478 0.632508 3.83317 0
M  V30 4591 H 423.15 3.19313 3.32922 0
M  V30 4592 H 421.393 3.05248 3.08231 0
M  V30 4593 H 422.064 2.88305 4.70727 0
M  V30 4594 H 424.54 1.08392 4.01734 0
M  V30 4595 H 423.416 0.996383 5.39781 0
M  V30 4596 H 423.677 -0.425808 4.40045 0
M  V30 4597 N 422.737 -1.36956 0.779787 0
M  V30 4598 C 423.984 -1.99491 0.347766 0
M  V30 4599 C 424.312 -1.61898 -1.07793 0
M  V30 4600 O 423.567 -0.86071 -1.75756 0
M  V30 4601 C 423.866 -3.54585 0.447686 0
M  V30 4602 C 423.532 -4.1197 1.83279 0
M  V30 4603 C 422.194 -4.27356 2.2118 0
M  V30 4604 C 424.546 -4.43354 2.74019 0
M  V30 4605 C 421.874 -4.71432 3.4924 0
M  V30 4606 C 424.226 -4.88858 4.01497 0
M  V30 4607 C 422.89 -5.0245 4.39432 0
M  V30 4608 H 422.16 -0.729991 0.127257 0
M  V30 4609 H 424.807 -1.63599 0.995376 0
M  V30 4610 H 423.112 -3.90773 -0.283447 0
M  V30 4611 H 424.809 -4.00888 0.0945948 0
M  V30 4612 H 421.399 -4.00428 1.52825 0
M  V30 4613 H 425.583 -4.31045 2.45995 0
M  V30 4614 H 420.839 -4.80141 3.78516 0
M  V30 4615 H 425.013 -5.12108 4.71931 0
M  V30 4616 H 422.64 -5.36362 5.38721 0
M  V30 4617 N 424.215 -0.530993 -1.48385 0
M  V30 4618 C 425.178 0.220497 -2.28137 0
M  V30 4619 C 426.178 0.866851 -1.35434 0
M  V30 4620 O 427.368 0.726746 -1.58316 0
M  V30 4621 C 424.5 1.31921 -3.1434 0
M  V30 4622 H 425.693 -0.479714 -2.96038 0
M  V30 4623 H 423.246 -0.286968 -1.53643 0
M  V30 4624 H 423.981 2.05264 -2.51072 0
M  V30 4625 H 423.766 0.86085 -3.82533 0
M  V30 4626 H 425.256 1.84776 -3.74497 0
M  V30 4627 N 425.693 1.55336 -0.266172 0
M  V30 4628 C 427.104 1.85236 0.233315 0
M  V30 4629 C 427.455 1.18816 1.56132 0
M  V30 4630 O 426.58 0.473307 2.11161 0
M  V30 4631 C 427.175 3.36059 0.430113 0
M  V30 4632 C 425.734 3.66116 0.873842 0
M  V30 4633 C 424.881 2.77274 -0.0380016 0
M  V30 4634 H 427.832 1.51004 -0.488214 0
M  V30 4635 H 427.853 3.58681 1.26998 0
M  V30 4636 H 427.365 3.84373 -0.536588 0
M  V30 4637 H 425.466 3.23295 1.85233 0
M  V30 4638 H 425.579 4.73699 0.717358 0
M  V30 4639 H 423.943 2.50198 0.476759 0
M  V30 4640 H 424.726 3.284 -1.00042 0
M  V30 4641 N 427.171 -0.0066808 1.57599 0
M  V30 4642 C 428.448 -0.729586 1.81484 0
M  V30 4643 C 428.828 -1.92359 0.869558 0
M  V30 4644 O 428.176 -2.28348 -0.0832533 0
M  V30 4645 C 428.386 -1.1416 3.29801 0
M  V30 4646 C 429.734 -1.54823 3.95367 0
M  V30 4647 O 430.758 -1.23558 3.34084 0
M  V30 4648 O 429.617 -2.12937 5.03309 0
M  V30 4649 H 426.711 -0.354674 0.747085 0
M  V30 4650 H 429.257 0.0182609 1.6969 0
M  V30 4651 H 428.029 -0.290231 3.90222 0
M  V30 4652 H 427.652 -1.94876 3.46568 0
M  V30 4653 N 428.649 -1.55105 -0.279332 0
M  V30 4654 C 429.596 -1.8755 -1.34513 0
M  V30 4655 C 430.566 -0.726384 -1.49375 0
M  V30 4656 O 431.751 -0.977063 -1.63884 0
M  V30 4657 C 428.891 -2.14738 -2.70151 0
M  V30 4658 C 428.004 -3.42285 -2.63562 0
M  V30 4659 C 427.139 -3.59206 -3.91337 0
M  V30 4660 C 426.178 -4.80467 -3.79233 0
M  V30 4661 N 425.315 -4.94079 -4.98829 0
M  V30 4662 H 430.155 -2.78456 -1.06143 0
M  V30 4663 H 427.692 -1.37867 -0.512936 0
M  V30 4664 H 429.65 -2.28501 -3.49061 0
M  V30 4665 H 428.28 -1.27075 -2.96735 0
M  V30 4666 H 427.332 -3.37029 -1.76397 0
M  V30 4667 H 428.644 -4.31328 -2.50515 0
M  V30 4668 H 427.798 -3.72751 -4.78687 0
M  V30 4669 H 426.537 -2.68337 -4.07243 0
M  V30 4670 H 425.542 -4.66932 -2.90266 0
M  V30 4671 H 426.767 -5.72765 -3.64852 0
M  V30 4672 H 424.713 -4.06139 -5.15158 0
M  V30 4673 H 424.63 -5.77156 -4.8829 0
M  V30 4674 H 425.898 -5.12003 -5.8777 0
M  V30 4675 N 430.127 0.543554 -1.4793 0
M  V30 4676 C 431.543 0.870806 -1.3375 0
M  V30 4677 C 431.743 1.9864 -0.338261 0
M  V30 4678 O 430.799 2.51305 0.245371 0
M  V30 4679 C 432.112 1.25114 -2.73435 0
M  V30 4680 C 433.66 1.3618 -2.81823 0
M  V30 4681 C 434.135 1.77563 -4.22179 0
M  V30 4682 N 435.626 1.8469 -4.24787 0
M  V30 4683 C 436.361 2.18067 -5.30315 0
M  V30 4684 N 435.857 2.49963 -6.46135 0
M  V30 4685 N 437.65 2.18958 -5.17701 0
M  V30 4686 H 429.801 -0.19275 -2.11524 0
M  V30 4687 H 432.064 -0.0235777 -0.947707 0
M  V30 4688 H 431.77 0.50514 -3.48053 0
M  V30 4689 H 431.644 2.20431 -3.06088 0
M  V30 4690 H 434.031 2.09859 -2.07468 0
M  V30 4691 H 434.112 0.390169 -2.52807 0
M  V30 4692 H 433.756 1.04449 -4.97044 0
M  V30 4693 H 433.686 2.75753 -4.48629 0
M  V30 4694 H 436.177 1.62372 -3.41239 0
M  V30 4695 H 436.49 2.74497 -7.22406 0
M  V30 4696 H 434.835 2.47513 -6.49432 0
M  V30 4697 H 438.026 1.93488 -4.2624 0
M  V30 4698 H 438.199 2.44639 -6.00047 0
M  V30 4699 N 431.605 1.3629 0.791371 0
M  V30 4700 C 432.535 1.33137 1.91825 0
M  V30 4701 C 433.516 0.203168 1.68882 0
M  V30 4702 O 434.701 0.400509 1.90025 0
M  V30 4703 C 431.831 1.11793 3.28816 0
M  V30 4704 C 430.785 2.21417 3.66277 0
M  V30 4705 C 430.111 1.85218 5.01596 0
M  V30 4706 C 431.411 3.63489 3.75064 0
M  V30 4707 H 433.105 2.2743 1.9472 0
M  V30 4708 H 430.651 1.09479 0.935437 0
M  V30 4709 H 432.604 1.08222 4.07266 0
M  V30 4710 H 431.328 0.139501 3.26302 0
M  V30 4711 H 429.987 2.2411 2.90121 0
M  V30 4712 H 429.635 0.859544 4.95602 0
M  V30 4713 H 429.335 2.58611 5.27631 0
M  V30 4714 H 430.859 1.832 5.82469 0
M  V30 4715 H 432.273 3.63034 4.43711 0
M  V30 4716 H 430.67 4.35771 4.12582 0
M  V30 4717 H 431.74 3.98536 2.76219 0
M  V30 4718 N 433.083 -1.0153 1.20538 0
M  V30 4719 C 434.308 -1.79283 1.04271 0
M  V30 4720 C 434.733 -1.8372 -0.403544 0
M  V30 4721 O 434.091 -1.27321 -1.2907 0
M  V30 4722 C 434.139 -3.21535 1.63241 0
M  V30 4723 O 433.243 -4.03099 0.870908 0
M  V30 4724 H 432.584 -0.55293 0.367647 0
M  V30 4725 H 435.114 -1.27696 1.59859 0
M  V30 4726 H 435.124 -3.72243 1.6703 0
M  V30 4727 H 433.799 -3.1762 2.68497 0
M  V30 4728 H 432.376 -3.61693 0.907323 0
M  V30 4729 N 434.561 -1.01147 -1.20859 0
M  V30 4730 C 435.524 -0.582224 -2.21682 0
M  V30 4731 C 436.524 0.344887 -1.57058 0
M  V30 4732 O 437.714 0.134281 -1.73682 0
M  V30 4733 C 434.846 0.150496 -3.40568 0
M  V30 4734 H 436.039 -1.47408 -2.61172 0
M  V30 4735 H 433.592 -0.800695 -1.34233 0
M  V30 4736 H 434.327 1.0575 -3.06574 0
M  V30 4737 H 434.112 -0.515444 -3.88697 0
M  V30 4738 H 435.602 0.438344 -4.15293 0
M  V30 4739 N 436.039 1.36541 -0.78704 0
M  V30 4740 C 437.267 2.03561 -0.370199 0
M  V30 4741 C 437.682 1.59347 1.01263 0
M  V30 4742 O 437.039 0.781781 1.64907 0
M  V30 4743 C 437.09 3.59033 -0.421614 0
M  V30 4744 O 436.811 4.01634 -1.7499 0
M  V30 4745 C 438.312 4.433 0.00489763 0
M  V30 4746 H 435.532 0.653346 -0.152904 0
M  V30 4747 H 438.076 1.74566 -1.06522 0
M  V30 4748 H 436.231 3.86746 0.224971 0
M  V30 4749 H 436.645 4.96217 -1.69909 0
M  V30 4750 H 438.119 5.51939 -0.0822184 0
M  V30 4751 H 438.596 4.26285 1.05723 0
M  V30 4752 H 439.202 4.20843 -0.614085 0
M  V30 4753 N 437.518 0.538854 1.48102 0
M  V30 4754 C 438.45 -0.256278 2.27763 0
M  V30 4755 C 439.463 -0.89633 1.35904 0
M  V30 4756 O 440.652 -0.773275 1.60881 0
M  V30 4757 C 437.752 -1.37896 3.09577 0
M  V30 4758 C 436.925 -0.839159 4.29275 0
M  V30 4759 C 435.984 -1.84405 4.9283 0
M  V30 4760 O 435.01 -1.39746 5.51779 0
M  V30 4761 N 436.212 -3.17666 4.85869 0
M  V30 4762 H 438.977 0.426968 2.96643 0
M  V30 4763 H 436.538 0.373747 1.57527 0
M  V30 4764 H 438.53 -2.04955 3.48963 0
M  V30 4765 H 437.1 -1.96572 2.4306 0
M  V30 4766 H 436.32 0.00769287 3.94199 0
M  V30 4767 H 437.608 -0.457548 5.06739 0
M  V30 4768 H 437.006 -3.56609 4.39143 0
M  V30 4769 H 435.563 -3.80334 5.29329 0
M  V30 4770 N 438.996 -1.55193 0.274407 0
M  V30 4771 C 439.959 -2.212 -0.600279 0
M  V30 4772 C 440.959 -1.18963 -1.08187 0
M  V30 4773 O 442.149 -1.43873 -0.982158 0
M  V30 4774 C 439.281 -2.87739 -1.82809 0
M  V30 4775 H 440.474 -2.9989 -0.0239682 0
M  V30 4776 H 438.027 -1.5628 0.0250192 0
M  V30 4777 H 438.762 -2.13058 -2.44493 0
M  V30 4778 H 438.547 -3.62658 -1.49069 0
M  V30 4779 H 440.037 -3.38171 -2.45011 0
M  V30 4780 N 440.474 -0.00167713 -1.576 0
M  V30 4781 C 441.404 0.988091 -2.11563 0
M  V30 4782 C 442.385 1.35736 -1.02517 0
M  V30 4783 O 443.57 1.44082 -1.30208 0
M  V30 4784 C 440.7 2.27941 -2.62031 0
M  V30 4785 C 439.654 2.0517 -3.75619 0
M  V30 4786 C 438.98 3.4033 -4.12407 0
M  V30 4787 C 440.28 1.41294 -5.02825 0
M  V30 4788 H 441.974 0.538771 -2.94513 0
M  V30 4789 H 439.52 0.257712 -1.41675 0
M  V30 4790 H 441.473 2.97539 -2.9841 0
M  V30 4791 H 440.197 2.74989 -1.76205 0
M  V30 4792 H 438.856 1.37998 -3.39635 0
M  V30 4793 H 438.504 3.85085 -3.23603 0
M  V30 4794 H 438.204 3.25909 -4.88935 0
M  V30 4795 H 439.728 4.1124 -4.51347 0
M  V30 4796 H 441.142 2.00851 -5.36965 0
M  V30 4797 H 439.539 1.37356 -5.84169 0
M  V30 4798 H 440.609 0.382362 -4.8339 0
M  V30 4799 N 441.952 1.55251 0.271103 0
M  V30 4800 C 442.884 1.84675 1.35749 0
M  V30 4801 C 443.897 0.731366 1.45447 0
M  V30 4802 O 445.086 1.00924 1.4723 0
M  V30 4803 C 442.186 1.99638 2.73857 0
M  V30 4804 C 441.359 3.30312 2.86727 0
M  V30 4805 C 440.418 3.35318 4.05522 0
M  V30 4806 O 439.444 4.08682 3.96191 0
M  V30 4807 N 440.646 2.62857 5.17577 0
M  V30 4808 H 443.411 2.78445 1.10853 0
M  V30 4809 H 440.972 1.55191 0.461218 0
M  V30 4810 H 442.964 2.00355 3.51625 0
M  V30 4811 H 441.534 1.12725 2.91568 0
M  V30 4812 H 440.754 3.42118 1.95829 0
M  V30 4813 H 442.042 4.16488 2.92258 0
M  V30 4814 H 441.44 2.02939 5.28046 0
M  V30 4815 H 439.997 2.69295 5.93568 0
M  V30 4816 N 443.43 -0.535701 1.48216 0
M  V30 4817 C 444.38 -1.63688 1.58714 0
M  V30 4818 C 445.364 -1.54635 0.444615 0
M  V30 4819 O 446.556 -1.62753 0.695742 0
M  V30 4820 C 443.685 -3.02423 1.62466 0
M  V30 4821 C 442.771 -3.16601 2.82178 0
M  V30 4822 N 443.162 -3.00771 4.06658 0
M  V30 4823 C 441.46 -3.47645 2.79391 0
M  V30 4824 C 442.161 -3.18213 4.86945 0
M  V30 4825 N 441.137 -3.45528 4.19656 0
M  V30 4826 H 444.939 -1.5005 2.5271 0
M  V30 4827 H 442.453 -0.741018 1.44508 0
M  V30 4828 H 444.45 -3.81517 1.6808 0
M  V30 4829 H 443.11 -3.17157 0.695826 0
M  V30 4830 H 444.121 -2.77652 4.37184 0
M  V30 4831 H 440.798 -3.68771 1.95739 0
M  V30 4832 H 442.188 -3.1076 5.95716 0
M  V30 4833 N 444.908 -1.36708 -0.784132 0
M  V30 4834 C 446.319 -1.27947 -1.35965 0
M  V30 4835 C 446.67 0.0784013 -1.96043 0
M  V30 4836 O 445.795 0.979989 -1.92938 0
M  V30 4837 C 446.39 -2.31689 -2.47195 0
M  V30 4838 C 444.949 -2.26601 -3.00548 0
M  V30 4839 C 444.096 -2.16184 -1.73666 0
M  V30 4840 H 447.047 -1.4751 -0.585358 0
M  V30 4841 H 447.068 -1.95638 -3.26352 0
M  V30 4842 H 446.58 -3.30506 -2.03439 0
M  V30 4843 H 444.681 -1.31268 -3.48711 0
M  V30 4844 H 444.794 -3.19508 -3.57004 0
M  V30 4845 H 443.158 -1.62524 -1.96107 0
M  V30 4846 H 443.941 -3.16896 -1.32031 0
M  V30 4847 N 446.386 1.0089 -1.21074 0
M  V30 4848 C 447.616 1.77933 -1.04993 0
M  V30 4849 C 448.024 1.84847 0.403495 0
M  V30 4850 O 447.367 1.30606 1.29181 0
M  V30 4851 C 447.429 3.23541 -1.56722 0
M  V30 4852 C 447.093 3.40214 -3.05129 0
M  V30 4853 C 448.09 3.2881 -4.02716 0
M  V30 4854 C 445.775 3.65781 -3.44252 0
M  V30 4855 C 447.769 3.42732 -5.37414 0
M  V30 4856 C 445.456 3.79346 -4.79103 0
M  V30 4857 C 446.454 3.67827 -5.75493 0
M  V30 4858 O 446.142 3.80965 -7.07899 0
M  V30 4859 H 445.874 0.566157 -0.369381 0
M  V30 4860 H 448.428 1.27826 -1.60779 0
M  V30 4861 H 446.658 3.74766 -0.953285 0
M  V30 4862 H 448.347 3.82245 -1.36543 0
M  V30 4863 H 449.113 3.08986 -3.73835 0
M  V30 4864 H 444.992 3.73831 -2.69762 0
M  V30 4865 H 448.536 3.33658 -6.12632 0
M  V30 4866 H 444.433 3.98672 -5.07672 0
M  V30 4867 H 445.201 3.97937 -7.15254 0
M  V30 4868 N 447.864 1.01787 1.20321 0
M  V30 4869 C 449.11 0.708985 1.90003 0
M  V30 4870 C 449.443 -0.759572 1.78729 0
M  V30 4871 O 448.718 -1.55198 1.17234 0
M  V30 4872 C 449.001 1.1469 3.41348 0
M  V30 4873 C 448.854 2.67586 3.61549 0
M  V30 4874 C 450.173 0.71915 4.34185 0
M  V30 4875 H 447.292 0.259034 0.689978 0
M  V30 4876 H 449.934 1.26584 1.41692 0
M  V30 4877 H 448.084 0.673128 3.82624 0
M  V30 4878 H 449.756 3.22826 3.29517 0
M  V30 4879 H 447.999 3.085 3.04976 0
M  V30 4880 H 448.67 2.93281 4.67643 0
M  V30 4881 H 451.146 1.12647 4.00562 0
M  V30 4882 H 450.022 1.05358 5.38694 0
M  V30 4883 H 450.283 -0.379111 4.40472 0
M  V30 4884 N 449.342 -1.36122 0.79427 0
M  V30 4885 C 450.274 -2.28683 0.153903 0
M  V30 4886 C 451.287 -1.49707 -0.639669 0
M  V30 4887 O 452.476 -1.7209 -0.474054 0
M  V30 4888 C 449.576 -3.29202 -0.804921 0
M  V30 4889 C 448.749 -4.37358 -0.060366 0
M  V30 4890 C 447.808 -5.17811 -0.935849 0
M  V30 4891 O 446.834 -5.67853 -0.391309 0
M  V30 4892 N 448.036 -5.34721 -2.25951 0
M  V30 4893 H 450.801 -2.84278 0.949008 0
M  V30 4894 H 448.362 -1.4834 0.648611 0
M  V30 4895 H 450.354 -3.79914 -1.39455 0
M  V30 4896 H 448.924 -2.74212 -1.50088 0
M  V30 4897 H 448.144 -3.87746 0.710382 0
M  V30 4898 H 449.432 -5.06777 0.45324 0
M  V30 4899 H 448.83 -4.95687 -2.72601 0
M  V30 4900 H 447.387 -5.88657 -2.79867 0
M  V30 4901 N 450.82 -0.546701 -1.47814 0
M  V30 4902 C 452.236 -0.205717 -1.58269 0
M  V30 4903 C 452.436 1.29153 -1.54667 0
M  V30 4904 O 451.492 2.07098 -1.44453 0
M  V30 4905 C 452.805 -0.823065 -2.89216 0
M  V30 4906 C 454.353 -0.793328 -3.02779 0
M  V30 4907 C 454.828 -1.38955 -4.36412 0
M  V30 4908 N 456.319 -1.35227 -4.43021 0
M  V30 4909 C 457.054 -1.78333 -5.44963 0
M  V30 4910 N 456.55 -2.29246 -6.53772 0
M  V30 4911 N 458.343 -1.69467 -5.35945 0
M  V30 4912 H 450.494 -1.5196 -1.48398 0
M  V30 4913 H 452.757 -0.633078 -0.705632 0
M  V30 4914 H 452.463 -1.8749 -2.97558 0
M  V30 4915 H 452.337 -0.309915 -3.75925 0
M  V30 4916 H 454.724 0.249784 -2.94041 0
M  V30 4917 H 454.805 -1.34412 -2.17639 0
M  V30 4918 H 454.449 -2.43168 -4.45906 0
M  V30 4919 H 454.379 -0.814291 -5.20266 0
M  V30 4920 H 456.87 -0.979739 -3.64979 0
M  V30 4921 H 457.183 -2.60089 -7.27718 0
M  V30 4922 H 455.528 -2.3325 -6.5469 0
M  V30 4923 H 458.719 -1.29477 -4.49837 0
M  V30 4924 H 458.892 -2.03381 -6.15256 0
M  V30 4925 N 452.299 1.55045 -0.282633 0
M  V30 4926 C 453.546 1.9976 0.33199 0
M  V30 4927 C 453.874 1.17105 1.55295 0
M  V30 4928 O 453.129 0.230599 1.94337 0
M  V30 4929 C 453.428 3.49422 0.750938 0
M  V30 4930 C 453.094 4.4941 -0.366228 0
M  V30 4931 C 451.756 4.76471 -0.672964 0
M  V30 4932 C 454.108 5.09054 -1.11864 0
M  V30 4933 C 451.436 5.60442 -1.73556 0
M  V30 4934 C 453.788 5.9418 -2.17102 0
M  V30 4935 C 452.452 6.19558 -2.48402 0
M  V30 4936 H 451.722 0.730974 0.121484 0
M  V30 4937 H 454.369 1.8732 -0.39791 0
M  V30 4938 H 452.674 3.59377 1.56063 0
M  V30 4939 H 454.371 3.81432 1.23736 0
M  V30 4940 H 450.961 4.2844 -0.117041 0
M  V30 4941 H 455.145 4.88165 -0.894925 0
M  V30 4942 H 450.401 5.78349 -1.983 0
M  V30 4943 H 454.575 6.39427 -2.75873 0
M  V30 4944 H 452.202 6.84417 -3.30874 0
M  V30 4945 N 453.777 0.010035 1.57597 0
M  V30 4946 C 454.727 -0.986858 2.05536 0
M  V30 4947 C 455.711 -1.29711 0.952042 0
M  V30 4948 O 456.903 -1.28641 1.21575 0
M  V30 4949 C 454.032 -2.2756 2.57043 0
M  V30 4950 C 453.118 -1.99455 3.74271 0
M  V30 4951 N 453.509 -1.41546 4.85591 0
M  V30 4952 C 451.807 -2.29547 3.82393 0
M  V30 4953 C 452.508 -1.3014 5.66956 0
M  V30 4954 N 451.484 -1.79044 5.13268 0
M  V30 4955 H 455.286 -0.533778 2.89012 0
M  V30 4956 H 452.8 -0.195432 1.6122 0
M  V30 4957 H 454.797 -2.99829 2.89669 0
M  V30 4958 H 453.457 -2.73512 1.7499 0
M  V30 4959 H 454.468 -1.09294 5.06236 0
M  V30 4960 H 451.145 -2.78304 3.11213 0
M  V30 4961 H 452.535 -0.855237 6.66435 0
M  V30 4962 N 455.255 -1.55392 -0.262866 0
M  V30 4963 C 456.495 -1.78231 -1.00064 0
M  V30 4964 C 456.859 -0.576966 -1.83126 0
M  V30 4965 O 458.06 -0.683809 -2.59957 0
M  V30 4966 C 456.331 -3.05701 -1.85153 0
M  V30 4967 S 457.89 -3.49699 -2.65058 0
M  V30 4968 H 454.708 -0.626138 -0.336856 0
M  V30 4969 H 457.31 -1.93626 -0.27005 0
M  V30 4970 H 456.014 -3.91511 -1.23074 0
M  V30 4971 H 455.545 -2.93 -2.62515 0
M  V30 4972 H 457.56 -3.09772 -3.87629 0
M  V30 4973 N 456.733 0.527833 -1.48498 0
M  V30 4974 C 458.144 1.10975 -1.50138 0
M  V30 4975 C 458.495 1.943 -0.272378 0
M  V30 4976 O 457.62 2.07319 0.620301 0
M  V30 4977 C 458.215 2.01927 -2.72049 0
M  V30 4978 C 456.774 2.55332 -2.76554 0
M  V30 4979 C 455.921 1.32341 -2.43683 0
M  V30 4980 H 458.872 0.312986 -1.55583 0
M  V30 4981 H 458.893 2.86244 -2.50689 0
M  V30 4982 H 458.405 1.41254 -3.61481 0
M  V30 4983 H 456.506 3.19721 -1.91336 0
M  V30 4984 H 456.619 2.94319 -3.78038 0
M  V30 4985 H 454.983 1.63989 -1.94884 0
M  V30 4986 H 455.766 0.734165 -3.35358 0
M  V30 4987 N 458.211 1.37122 0.776871 0
M  V30 4988 C 459.436 1.354 1.57104 0
M  V30 4989 C 459.861 -0.0595562 1.88006 0
M  V30 4990 O 459.219 -1.03514 1.48844 0
M  V30 4991 C 459.267 2.19472 2.8612 0
M  V30 4992 O 458.371 1.59582 3.80273 0
M  V30 4993 H 457.712 0.462869 0.476076 0
M  V30 4994 H 460.242 1.80577 0.961932 0
M  V30 4995 H 460.252 2.32502 3.35271 0
M  V30 4996 H 458.927 3.22222 2.62956 0
M  V30 4997 H 457.504 1.55564 3.38902 0
M  V30 4998 N 459.689 -1.00246 1.21608 0
M  V30 4999 C 460.966 -1.71336 0.943568 0
M  V30 5000 C 461.346 -2.03972 -0.543943 0
M  V30 5001 O 460.694 -1.71545 -1.50946 0
M  V30 5002 C 460.904 -2.97094 1.83128 0
M  V30 5003 C 462.252 -3.70071 2.08165 0
M  V30 5004 O 463.276 -3.07081 1.80498 0
M  V30 5005 O 462.135 -4.83376 2.54971 0
M  V30 5006 H 459.229 -0.747386 0.354039 0
M  V30 5007 H 461.775 -1.05967 1.32549 0
M  V30 5008 H 460.547 -2.69407 2.83788 0
M  V30 5009 H 460.17 -3.70204 1.45034 0
M  V30 5010 N 461.167 -1.02423 -1.1978 0
M  V30 5011 C 462.077 -0.610919 -2.26506 0
M  V30 5012 C 463.093 0.355152 -1.70337 0
M  V30 5013 O 464.269 0.214195 -2.00258 0
M  V30 5014 C 461.334 0.0365921 -3.46681 0
M  V30 5015 C 460.395 -0.976389 -4.18049 0
M  V30 5016 C 459.628 -0.359683 -5.32487 0
M  V30 5017 O 459.851 0.838601 -5.64202 0
M  V30 5018 O 458.785 -1.08022 -5.92127 0
M  V30 5019 H 462.611 -1.49965 -2.64091 0
M  V30 5020 H 460.196 -0.794156 -1.26545 0
M  V30 5021 H 462.078 0.39786 -4.19518 0
M  V30 5022 H 460.753 0.899398 -3.10954 0
M  V30 5023 H 459.66 -1.38916 -3.47352 0
M  V30 5024 H 460.993 -1.80941 -4.57735 0
M  V30 5025 N 462.645 1.35699 -0.801477 0
M  V30 5026 C 463.891 1.99643 -0.389135 0
M  V30 5027 C 464.246 1.62447 1.03095 0
M  V30 5028 O 463.539 0.875064 1.7045 0
M  V30 5029 C 463.733 3.53828 -0.504041 0
M  V30 5030 C 463.562 4.06 -1.93375 0
M  V30 5031 C 462.332 4.35592 -2.561 0
M  V30 5032 C 464.53 4.24905 -2.89759 0
M  V30 5033 N 462.512 4.73663 -3.90534 0
M  V30 5034 C 463.883 4.65914 -4.09052 0
M  V30 5035 C 465.938 4.07101 -2.86658 0
M  V30 5036 C 464.641 4.90984 -5.25669 0
M  V30 5037 C 466.667 4.33324 -4.02472 0
M  V30 5038 C 466.029 4.74601 -5.20512 0
M  V30 5039 H 462.128 0.758552 -0.19006 0
M  V30 5040 H 464.712 1.64493 -1.04164 0
M  V30 5041 H 462.883 3.88219 0.118437 0
M  V30 5042 H 464.615 4.04645 -0.0667794 0
M  V30 5043 H 461.37 4.25728 -2.07492 0
M  V30 5044 H 461.794 4.96965 -4.59734 0
M  V30 5045 H 466.436 3.74335 -1.96552 0
M  V30 5046 H 464.154 5.22626 -6.1635 0
M  V30 5047 H 467.74 4.21107 -4.01447 0
M  V30 5048 H 466.62 4.94497 -6.08639 0
M  V30 5049 N 464.123 0.554532 1.47522 0
M  V30 5050 C 465.086 -0.184174 2.28459 0
M  V30 5051 C 466.086 -0.845195 1.36796 0
M  V30 5052 O 467.276 -0.701467 1.59452 0
M  V30 5053 C 464.408 -1.26903 3.16399 0
M  V30 5054 H 465.601 0.526751 2.95238 0
M  V30 5055 H 463.154 0.311375 1.53167 0
M  V30 5056 H 463.889 -2.01244 2.54306 0
M  V30 5057 H 463.674 -0.799883 3.83854 0
M  V30 5058 H 465.164 -1.78794 3.77389 0
M  V30 5059 N 465.601 -1.54893 0.290851 0
M  V30 5060 C 467.017 -1.59476 -0.0628432 0
M  V30 5061 C 467.217 -1.30795 -1.5328 0
M  V30 5062 O 466.273 -1.07644 -2.28406 0
M  V30 5063 C 467.586 -2.98928 0.325962 0
M  V30 5064 C 469.134 -3.11799 0.273882 0
M  V30 5065 C 469.609 -4.53544 0.637359 0
M  V30 5066 N 471.1 -4.59433 0.589507 0
M  V30 5067 C 471.835 -5.67164 0.84335 0
M  V30 5068 N 471.331 -6.82975 1.16263 0
M  V30 5069 N 473.124 -5.56786 0.771091 0
M  V30 5070 H 465.275 -1.71798 1.24896 0
M  V30 5071 H 467.538 -0.801879 0.505663 0
M  V30 5072 H 467.244 -3.24805 1.34887 0
M  V30 5073 H 467.118 -3.75793 -0.325441 0
M  V30 5074 H 469.505 -2.85677 -0.739765 0
M  V30 5075 H 469.586 -2.37112 0.959766 0
M  V30 5076 H 469.23 -4.80394 1.64877 0
M  V30 5077 H 469.16 -5.26553 -0.0704866 0
M  V30 5078 H 471.651 -3.76245 0.353252 0
M  V30 5079 H 471.964 -7.61048 1.34257 0
M  V30 5080 H 470.309 -6.84552 1.20057 0
M  V30 5081 H 473.5 -4.65187 0.521383 0
M  V30 5082 H 473.673 -6.40664 0.972295 0
M  V30 5083 N 467.08 -0.0183926 -1.57589 0
M  V30 5084 C 467.99 0.982943 -2.13015 0
M  V30 5085 C 469.006 1.36443 -1.07979 0
M  V30 5086 O 470.182 1.44802 -1.3998 0
M  V30 5087 C 467.247 2.25024 -2.63752 0
M  V30 5088 C 466.308 1.93018 -3.83461 0
M  V30 5089 C 465.541 3.13706 -4.31769 0
M  V30 5090 O 465.764 4.2601 -3.79305 0
M  V30 5091 O 464.698 2.96629 -5.23732 0
M  V30 5092 H 468.524 0.541709 -2.9883 0
M  V30 5093 H 466.109 0.201565 -1.48034 0
M  V30 5094 H 467.991 2.99441 -2.96502 0
M  V30 5095 H 466.666 2.68349 -1.81026 0
M  V30 5096 H 465.573 1.16019 -3.55655 0
M  V30 5097 H 466.906 1.54516 -4.67317 0
M  V30 5098 N 468.558 1.5553 0.254621 0
M  V30 5099 C 469.521 1.88872 1.29846 0
M  V30 5100 C 470.521 0.764591 1.41459 0
M  V30 5101 O 471.711 1.03265 1.40293 0
M  V30 5102 C 468.843 2.11032 2.67728 0
M  V30 5103 H 470.036 2.82201 1.01502 0
M  V30 5104 H 467.589 1.48303 0.493556 0
M  V30 5105 H 468.324 1.20146 3.01223 0
M  V30 5106 H 468.109 2.92895 2.60682 0
M  V30 5107 H 469.599 2.38038 3.43115 0
M  V30 5108 N 470.036 -0.519951 1.48776 0
M  V30 5109 C 471.313 -1.28123 1.47797 0
M  V30 5110 C 471.693 -2.10196 0.195157 0
M  V30 5111 O 471.041 -2.13167 -0.822925 0
M  V30 5112 C 471.251 -2.15413 2.74587 0
M  V30 5113 C 472.599 -2.75225 3.23321 0
M  V30 5114 O 473.623 -2.25694 2.75574 0
M  V30 5115 O 472.482 -3.65346 4.06429 0
M  V30 5116 H 469.576 -0.578793 0.590701 0
M  V30 5117 H 472.122 -0.535779 1.6102 0
M  V30 5118 H 470.894 -1.54617 3.59457 0
M  V30 5119 H 470.517 -2.97186 2.64132 0
M  V30 5120 N 471.514 -1.37532 -0.769588 0
M  V30 5121 C 472.76 -1.33057 -1.53048 0
M  V30 5122 C 473.093 0.0841865 -1.94017 0
M  V30 5123 O 472.368 1.04198 -1.64235 0
M  V30 5124 C 472.651 -2.27166 -2.79406 0
M  V30 5125 C 472.504 -3.77429 -2.44677 0
M  V30 5126 C 473.823 -2.19683 -3.81349 0
M  V30 5127 H 470.942 -0.484655 -0.555228 0
M  V30 5128 H 473.584 -1.68251 -0.882702 0
M  V30 5129 H 471.734 -1.97283 -3.34682 0
M  V30 5130 H 473.406 -4.17918 -1.953 0
M  V30 5131 H 471.649 -3.95892 -1.77346 0
M  V30 5132 H 472.32 -4.38716 -3.35011 0
M  V30 5133 H 474.796 -2.46029 -3.35573 0
M  V30 5134 H 473.672 -2.87668 -4.67481 0
M  V30 5135 H 473.933 -1.19045 -4.25771 0
M  V30 5136 N 472.992 0.995999 -1.22138 0
M  V30 5137 C 474.408 1.25917 -0.980667 0
M  V30 5138 C 474.608 1.98819 0.327604 0
M  V30 5139 O 473.664 2.29587 1.05101 0
M  V30 5140 C 474.977 2.07399 -2.17729 0
M  V30 5141 C 476.525 2.20594 -2.22052 0
M  V30 5142 C 477 3.05462 -3.41258 0
M  V30 5143 N 478.491 3.13049 -3.41401 0
M  V30 5144 C 479.226 3.78997 -4.30289 0
M  V30 5145 N 478.722 4.46899 -5.2939 0
M  V30 5146 N 480.515 3.75728 -4.18073 0
M  V30 5147 H 472.666 0.507158 -2.06256 0
M  V30 5148 H 474.929 0.28658 -0.903646 0
M  V30 5149 H 474.635 1.61191 -3.12586 0
M  V30 5150 H 474.509 3.08154 -2.17534 0
M  V30 5151 H 476.896 2.66017 -1.27745 0
M  V30 5152 H 476.977 1.1928 -2.26287 0
M  V30 5153 H 476.621 2.60739 -4.35864 0
M  V30 5154 H 476.551 4.06911 -3.34262 0
M  V30 5155 H 479.042 2.64721 -2.69688 0
M  V30 5156 H 479.355 4.94952 -5.935 0
M  V30 5157 H 477.7 4.45657 -5.33306 0
M  V30 5158 H 480.891 3.2184 -3.39907 0
M  V30 5159 H 481.064 4.26845 -4.87553 0
M  V30 5160 N 474.47 1.03057 1.19235 0
M  V30 5161 C 475.881 0.757449 1.70645 0
M  V30 5162 C 476.232 -0.722735 1.82403 0
M  V30 5163 O 475.357 -1.56325 1.49638 0
M  V30 5164 C 475.952 1.36833 3.09939 0
M  V30 5165 C 474.511 1.14375 3.58602 0
M  V30 5166 C 473.658 1.46533 2.35422 0
M  V30 5167 H 476.609 1.19828 1.04052 0
M  V30 5168 H 476.63 0.766184 3.72706 0
M  V30 5169 H 476.142 2.44562 3.01349 0
M  V30 5170 H 474.243 0.0847542 3.72504 0
M  V30 5171 H 474.356 1.83366 4.42622 0
M  V30 5172 H 472.72 0.884712 2.38841 0
M  V30 5173 H 473.503 2.55349 2.2946 0
M  V30 5174 N 475.948 -1.35272 0.808662 0
M  V30 5175 C 477.364 -1.51806 0.492653 0
M  V30 5176 C 477.564 -1.7574 -0.985778 0
M  V30 5177 O 476.62 -1.80003 -1.77074 0
M  V30 5178 C 477.933 -2.69202 1.33981 0
M  V30 5179 C 479.481 -2.8308 1.33547 0
M  V30 5180 C 479.956 -4.03502 2.16679 0
M  V30 5181 N 481.447 -4.10684 2.14227 0
M  V30 5182 C 482.182 -5.02984 2.75308 0
M  V30 5183 N 481.678 -6.00603 3.45323 0
M  V30 5184 N 483.471 -4.95746 2.64938 0
M  V30 5185 H 475.622 -1.17993 1.76611 0
M  V30 5186 H 477.885 -0.577476 0.751814 0
M  V30 5187 H 477.591 -2.581 2.38909 0
M  V30 5188 H 477.465 -3.63854 0.994491 0
M  V30 5189 H 479.852 -2.93631 0.294036 0
M  V30 5190 H 479.933 -1.89278 1.72068 0
M  V30 5191 H 479.577 -3.93711 3.20864 0
M  V30 5192 H 479.507 -4.96489 1.75517 0
M  V30 5193 H 481.998 -3.40802 1.63285 0
M  V30 5194 H 482.311 -6.67633 3.89212 0
M  V30 5195 H 480.656 -6.0077 3.49428 0
M  V30 5196 H 483.847 -4.18439 2.09825 0
M  V30 5197 H 484.02 -5.67487 3.12829 0
M  V30 5198 N 477.426 -0.562348 -1.47226 0
M  V30 5199 C 478.389 0.172056 -2.28553 0
M  V30 5200 C 479.389 0.837928 -1.37242 0
M  V30 5201 O 480.579 0.693001 -1.59822 0
M  V30 5202 C 477.711 1.25223 -3.17068 0
M  V30 5203 H 478.904 -0.542401 -2.94954 0
M  V30 5204 H 476.457 -0.319493 -1.53 0
M  V30 5205 H 477.192 1.99892 -2.55369 0
M  V30 5206 H 476.977 0.779515 -3.84273 0
M  V30 5207 H 478.467 1.76791 -3.78332 0
M  V30 5208 N 478.904 1.54736 -0.299062 0
M  V30 5209 C 479.854 2.20155 0.592932 0
M  V30 5210 C 480.838 1.1739 1.10038 0
M  V30 5211 O 482.03 1.43116 1.04147 0
M  V30 5212 C 479.159 2.94437 1.76527 0
M  V30 5213 C 478.245 4.04516 1.27388 0
M  V30 5214 N 478.636 5.03319 0.500339 0
M  V30 5215 C 476.934 4.18022 1.55478 0
M  V30 5216 C 477.635 5.81209 0.238909 0
M  V30 5217 N 476.611 5.37408 0.818163 0
M  V30 5218 H 480.413 2.93899 -0.00563596 0
M  V30 5219 H 477.927 1.62068 -0.103732 0
M  V30 5220 H 479.924 3.3977 2.41582 0
M  V30 5221 H 478.584 2.22209 2.36756 0
M  V30 5222 H 479.595 5.17696 0.145419 0
M  V30 5223 H 476.272 3.56998 2.16469 0
M  V30 5224 H 477.662 6.70812 -0.382223 0
M  V30 5225 N 480.382 0.0267497 1.57577 0
M  V30 5226 C 481.292 -0.971633 2.13533 0
M  V30 5227 C 482.308 -1.35868 1.08701 0
M  V30 5228 O 483.484 -1.44058 1.40746 0
M  V30 5229 C 480.549 -2.23622 2.64941 0
M  V30 5230 C 479.61 -1.90982 3.8448 0
M  V30 5231 C 478.843 -3.11411 4.33427 0
M  V30 5232 O 479.066 -4.23992 3.81558 0
M  V30 5233 O 478 -2.93848 5.25297 0
M  V30 5234 H 481.826 -0.525853 2.99113 0
M  V30 5235 H 479.411 -0.193712 1.48139 0
M  V30 5236 H 481.293 -2.97864 2.98086 0
M  V30 5237 H 479.968 -2.67386 1.82446 0
M  V30 5238 H 478.875 -1.14132 3.56265 0
M  V30 5239 H 480.208 -1.52036 4.6813 0
M  V30 5240 N 481.861 -1.55662 -0.24637 0
M  V30 5241 C 483.109 -1.77168 -0.972411 0
M  V30 5242 C 483.43 -0.590827 -1.85834 0
M  V30 5243 O 482.7 0.393365 -1.9191 0
M  V30 5244 H 481.28 -0.653405 -0.362038 0
M  V30 5245 H 483.942 -1.93101 -0.264189 0
M  V30 5246 H 483.038 -2.68335 -1.59382 0
M  V30 5247 N 483.339 0.512053 -1.4905 0
M  V30 5248 C 484.585 1.26874 -1.58212 0
M  V30 5249 C 484.918 1.9241 -0.263073 0
M  V30 5250 O 484.193 1.80181 0.732476 0
M  V30 5251 C 484.476 2.34428 -2.73341 0
M  V30 5252 C 484.329 1.73466 -4.15006 0
M  V30 5253 C 485.648 3.36073 -2.84154 0
M  V30 5254 H 482.767 0.459924 -0.575881 0
M  V30 5255 H 485.409 0.568587 -1.81293 0
M  V30 5256 H 483.559 2.94146 -2.53792 0
M  V30 5257 H 485.231 1.17661 -4.46042 0
M  V30 5258 H 483.474 1.03921 -4.21168 0
M  V30 5259 H 484.145 2.51426 -4.91415 0
M  V30 5260 H 486.621 2.86332 -3.01916 0
M  V30 5261 H 485.497 4.08703 -3.66406 0
M  V30 5262 H 485.758 3.97725 -1.93048 0
M  V30 5263 N 484.817 1.37938 0.762283 0
M  V30 5264 C 485.749 1.30349 1.88525 0
M  V30 5265 C 486.762 0.217402 1.61342 0
M  V30 5266 O 487.951 0.474291 1.72084 0
M  V30 5267 C 485.051 0.994844 3.23969 0
M  V30 5268 C 484.224 2.18829 3.78725 0
M  V30 5269 C 483.283 1.84844 4.92665 0
M  V30 5270 O 482.309 2.57244 5.07754 0
M  V30 5271 N 483.511 0.798201 5.74986 0
M  V30 5272 H 486.276 2.27114 1.95549 0
M  V30 5273 H 483.837 1.31686 0.941825 0
M  V30 5274 H 485.829 0.748168 3.97724 0
M  V30 5275 H 484.399 0.115446 3.12387 0
M  V30 5276 H 483.619 2.59615 2.96637 0
M  V30 5277 H 484.907 2.98497 4.1204 0
M  V30 5278 H 484.305 0.197611 5.65355 0
M  V30 5279 H 482.862 0.611396 6.48926 0
M  V30 5280 N 486.295 -0.989507 1.22664 0
M  V30 5281 C 487.225 -2.09847 1.02404 0
M  V30 5282 C 488.206 -1.70007 -0.0561303 0
M  V30 5283 O 489.391 -1.93906 0.106748 0
M  V30 5284 C 486.521 -3.41996 0.604663 0
M  V30 5285 C 485.475 -3.95699 1.63115 0
M  V30 5286 C 484.801 -5.23936 1.0675 0
M  V30 5287 C 486.101 -4.25999 3.02196 0
M  V30 5288 H 487.795 -2.27054 1.95158 0
M  V30 5289 H 485.341 -1.09111 0.939727 0
M  V30 5290 H 487.294 -4.1899 0.45002 0
M  V30 5291 H 486.018 -3.24626 -0.35855 0
M  V30 5292 H 484.677 -3.2084 1.77362 0
M  V30 5293 H 484.325 -5.02909 0.0955422 0
M  V30 5294 H 484.025 -5.60833 1.75328 0
M  V30 5295 H 485.549 -6.0356 0.924516 0
M  V30 5296 H 486.963 -4.93777 2.91303 0
M  V30 5297 H 485.36 -4.74076 3.67929 0
M  V30 5298 H 486.43 -3.33636 3.51873 0
M  V30 5299 N 487.773 -1.03688 -1.18687 0
M  V30 5300 C 488.998 -0.757819 -1.93059 0
M  V30 5301 C 489.423 0.678353 -1.75442 0
M  V30 5302 O 488.781 1.46938 -1.06203 0
M  V30 5303 C 488.829 -1.12423 -3.42627 0
M  V30 5304 O 487.933 -0.247505 -4.11657 0
M  V30 5305 H 487.274 -0.279245 -0.602427 0
M  V30 5306 H 489.804 -1.3857 -1.5053 0
M  V30 5307 H 489.814 -1.08454 -3.93322 0
M  V30 5308 H 488.489 -2.17049 -3.54771 0
M  V30 5309 H 487.066 -0.34649 -3.71287 0
M  V30 5310 N 489.251 1.34841 -0.815825 0
M  V30 5311 C 490.497 1.98793 -0.401129 0
M  V30 5312 C 490.83 1.64548 1.03139 0
M  V30 5313 O 490.105 0.913487 1.71714 0
M  V30 5314 C 490.388 3.55143 -0.595409 0
M  V30 5315 C 490.241 3.99155 -2.07352 0
M  V30 5316 C 491.56 4.40092 -0.0268823 0
M  V30 5317 H 488.679 0.722146 -0.14722 0
M  V30 5318 H 491.321 1.59847 -1.02707 0
M  V30 5319 H 489.471 3.8845 -0.0625779 0
M  V30 5320 H 491.143 3.76216 -2.66945 0
M  V30 5321 H 489.386 3.49726 -2.56659 0
M  V30 5322 H 490.057 5.07971 -2.1603 0
M  V30 5323 H 492.533 4.13298 -0.482042 0
M  V30 5324 H 491.409 5.48562 -0.19267 0
M  V30 5325 H 491.67 4.29016 1.06759 0
M  V30 5326 N 490.729 0.570148 1.46925 0
M  V30 5327 C 492.14 0.1402 1.86173 0
M  V30 5328 C 492.491 -1.29347 1.47526 0
M  V30 5329 O 491.616 -1.97508 0.884292 0
M  V30 5330 C 492.211 0.247661 3.37894 0
M  V30 5331 C 490.77 -0.127332 3.76185 0
M  V30 5332 C 489.917 0.589349 2.70965 0
M  V30 5333 H 492.868 0.779117 1.38259 0
M  V30 5334 H 492.889 -0.530341 3.76786 0
M  V30 5335 H 492.401 1.29121 3.65991 0
M  V30 5336 H 490.502 -1.17149 3.53704 0
M  V30 5337 H 490.615 0.240238 4.78497 0
M  V30 5338 H 488.979 0.0309824 2.54681 0
M  V30 5339 H 489.762 1.6343 3.01903 0
M  V30 5340 N 492.207 -1.54576 0.307264 0
M  V30 5341 C 493.117 -2.27435 -0.57536 0
M  V30 5342 C 494.133 -1.31183 -1.14311 0
M  V30 5343 O 495.309 -1.64175 -1.16656 0
M  V30 5344 C 492.374 -3.00566 -1.72803 0
M  V30 5345 C 491.435 -4.12369 -1.19373 0
M  V30 5346 C 490.668 -4.82003 -2.29147 0
M  V30 5347 O 490.891 -4.51038 -3.49171 0
M  V30 5348 O 489.825 -5.69271 -1.95485 0
M  V30 5349 H 493.651 -3.03696 0.0158558 0
M  V30 5350 H 491.236 -1.49219 0.0735064 0
M  V30 5351 H 493.118 -3.46416 -2.39946 0
M  V30 5352 H 491.793 -2.27195 -2.30574 0
M  V30 5353 H 490.7 -3.70905 -0.487851 0
M  V30 5354 H 492.033 -4.87736 -0.661376 0
M  V30 5355 N 493.685 -0.035106 -1.57561 0
M  V30 5356 C 494.915 0.651312 -1.96065 0
M  V30 5357 C 495.323 1.6585 -0.910514 0
M  V30 5358 O 494.666 1.83336 0.11552 0
M  V30 5359 C 494.728 1.40897 -3.30739 0
M  V30 5360 C 494.392 0.559436 -4.53563 0
M  V30 5361 C 495.389 -0.16778 -5.19629 0
M  V30 5362 C 493.074 0.495079 -4.99854 0
M  V30 5363 C 495.068 -0.947963 -6.30311 0
M  V30 5364 C 492.755 -0.288804 -6.10417 0
M  V30 5365 C 493.753 -1.00903 -6.75505 0
M  V30 5366 O 493.441 -1.78005 -7.83945 0
M  V30 5367 H 493.173 0.184036 -0.650467 0
M  V30 5368 H 495.727 -0.0929677 -2.05189 0
M  V30 5369 H 493.957 2.19852 -3.18123 0
M  V30 5370 H 495.646 1.98407 -3.54104 0
M  V30 5371 H 496.412 -0.12743 -4.84833 0
M  V30 5372 H 492.291 1.04524 -4.48994 0
M  V30 5373 H 495.835 -1.51064 -6.81047 0
M  V30 5374 H 491.732 -0.33085 -6.44652 0
M  V30 5375 H 492.5 -1.70046 -8.00641 0
M  V30 5376 N 495.163 1.55791 0.238111 0
M  V30 5377 C 496.579 1.48411 0.587045 0
M  V30 5378 C 496.779 0.72702 1.87927 0
M  V30 5379 O 495.835 0.259942 2.51158 0
M  V30 5380 C 497.148 2.92873 0.681623 0
M  V30 5381 C 498.696 3.03295 0.773363 0
M  V30 5382 C 499.171 4.49082 0.899428 0
M  V30 5383 N 500.662 4.53056 0.964075 0
M  V30 5384 C 501.397 5.63117 1.08104 0
M  V30 5385 N 500.893 6.82969 1.16299 0
M  V30 5386 N 502.686 5.50933 1.11488 0
M  V30 5387 H 494.837 2.0345 -0.610076 0
M  V30 5388 H 497.1 0.924034 -0.211813 0
M  V30 5389 H 496.806 3.51142 -0.19802 0
M  V30 5390 H 496.68 3.43851 1.55069 0
M  V30 5391 H 499.067 2.45101 1.64346 0
M  V30 5392 H 499.148 2.55513 -0.121034 0
M  V30 5393 H 498.792 5.07889 0.0338586 0
M  V30 5394 H 498.722 4.94553 1.809 0
M  V30 5395 H 501.213 3.66737 0.91173 0
M  V30 5396 H 501.526 7.62598 1.25155 0
M  V30 5397 H 499.871 6.85712 1.13241 0
M  V30 5398 H 503.062 4.56231 1.0474 0
M  V30 5399 H 503.235 6.36743 1.20259 0
M  V30 5400 N 496.642 -0.504142 1.49319 0
M  V30 5401 C 497.867 -1.28729 1.62615 0
M  V30 5402 C 498.292 -1.85752 0.296309 0
M  V30 5403 O 497.65 -1.65704 -0.735649 0
M  V30 5404 C 497.698 -2.39561 2.69524 0
M  V30 5405 O 496.802 -3.43324 2.28478 0
M  V30 5406 H 496.143 -0.380172 0.544395 0
M  V30 5407 H 498.673 -0.603872 1.95485 0
M  V30 5408 H 498.683 -2.8537 2.91595 0
M  V30 5409 H 497.358 -1.97423 3.66056 0
M  V30 5410 H 495.935 -3.03455 2.16725 0
M  V30 5411 N 498.12 -1.38341 -0.754957 0
M  V30 5412 C 499.536 -1.19508 -1.05783 0
M  V30 5413 C 499.736 -0.0428005 -2.01455 0
M  V30 5414 O 498.792 0.611861 -2.44975 0
M  V30 5415 C 500.105 -2.52091 -1.63923 0
M  V30 5416 C 501.653 -2.58762 -1.76101 0
M  V30 5417 C 502.128 -3.91517 -2.37652 0
M  V30 5418 N 503.619 -3.93049 -2.45085 0
M  V30 5419 C 504.354 -4.9253 -2.93602 0
M  V30 5420 N 503.85 -6.02408 -3.42165 0
M  V30 5421 N 505.643 -4.79921 -2.92629 0
M  V30 5422 H 497.794 -2.1206 -0.120056 0
M  V30 5423 H 500.057 -0.94089 -0.11589 0
M  V30 5424 H 499.763 -3.36858 -1.01093 0
M  V30 5425 H 499.637 -2.70388 -2.63003 0
M  V30 5426 H 502.024 -1.74391 -2.38058 0
M  V30 5427 H 502.105 -2.44333 -0.757294 0
M  V30 5428 H 501.749 -4.76309 -1.76329 0
M  V30 5429 H 501.679 -4.03256 -3.38662 0
M  V30 5430 H 504.17 -3.13685 -2.10736 0
M  V30 5431 H 504.483 -6.74248 -3.77637 0
M  V30 5432 H 502.828 -6.0603 -3.40225 0
M  V30 5433 H 506.019 -3.93194 -2.54001 0
M  V30 5434 H 506.192 -5.57601 -3.30128 0
M  V30 5435 N 499.598 0.982988 -1.23187 0
M  V30 5436 C 500.844 1.72648 -1.06398 0
M  V30 5437 C 501.177 1.90066 0.398561 0
M  V30 5438 O 500.452 1.45105 1.29518 0
M  V30 5439 C 500.735 3.12627 -1.78707 0
M  V30 5440 C 500.588 3.02795 -3.32618 0
M  V30 5441 C 501.907 4.11997 -1.54747 0
M  V30 5442 H 499.026 0.626649 -0.387918 0
M  V30 5443 H 501.668 1.14455 -1.51658 0
M  V30 5444 H 499.818 3.62308 -1.40234 0
M  V30 5445 H 501.49 2.60659 -3.80598 0
M  V30 5446 H 499.733 2.39362 -3.61785 0
M  V30 5447 H 500.404 4.01893 -3.78399 0
M  V30 5448 H 502.88 3.71114 -1.88186 0
M  V30 5449 H 501.756 5.08037 -2.07821 0
M  V30 5450 H 502.017 4.39462 -0.482249 0
M  V30 5451 N 501.076 1.04316 1.18135 0
M  V30 5452 C 502.306 0.767003 1.91835 0
M  V30 5453 C 502.714 -0.68002 1.76557 0
M  V30 5454 O 502.057 -1.47548 1.09432 0
M  V30 5455 C 502.119 1.05674 3.43618 0
M  V30 5456 C 501.783 2.49818 3.82675 0
M  V30 5457 C 502.78 3.48003 3.86251 0
M  V30 5458 C 500.465 2.84596 4.13897 0
M  V30 5459 C 502.459 4.79016 4.20503 0
M  V30 5460 C 500.146 4.15813 4.4782 0
M  V30 5461 C 501.144 5.12834 4.51099 0
M  V30 5462 O 500.832 6.41699 4.84229 0
M  V30 5463 H 500.564 0.278948 0.615763 0
M  V30 5464 H 503.118 1.3946 1.50798 0
M  V30 5465 H 501.348 0.372029 3.84906 0
M  V30 5466 H 503.037 0.767994 3.98568 0
M  V30 5467 H 503.803 3.22475 3.62264 0
M  V30 5468 H 499.682 2.09748 4.1052 0
M  V30 5469 H 503.226 5.54739 4.22978 0
M  V30 5470 H 499.123 4.41109 4.71268 0
M  V30 5471 H 499.891 6.46387 5.02121 0
M  V30 5472 N 502.554 -1.34406 0.822964 0
M  V30 5473 C 503.486 -2.28305 0.202375 0
M  V30 5474 C 504.499 -1.5103 -0.60777 0
M  V30 5475 O 505.688 -1.73057 -0.437444 0
M  V30 5476 C 502.788 -3.30836 -0.734911 0
M  V30 5477 C 501.961 -4.37388 0.0324177 0
M  V30 5478 C 501.02 -5.1968 -0.825803 0
M  V30 5479 O 500.046 -5.68556 -0.270771 0
M  V30 5480 N 501.248 -5.39393 -2.14558 0
M  V30 5481 H 504.013 -2.82201 1.00909 0
M  V30 5482 H 501.574 -1.4693 0.67993 0
M  V30 5483 H 503.566 -3.82786 -1.31365 0
M  V30 5484 H 502.136 -2.77334 -1.44238 0
M  V30 5485 H 501.356 -3.86152 0.792469 0
M  V30 5486 H 502.644 -5.05702 0.560633 0
M  V30 5487 H 502.042 -5.01357 -2.62025 0
M  V30 5488 H 500.599 -5.94461 -2.67318 0
M  V30 5489 N 504.032 -0.577932 -1.46621 0
M  V30 5490 C 504.965 0.206312 -2.27265 0
M  V30 5491 C 505.943 0.901306 -1.35334 0
M  V30 5492 O 507.127 0.916151 -1.64739 0
M  V30 5493 C 504.254 1.29563 -3.1294 0
M  V30 5494 C 503.3 0.706981 -4.206 0
M  V30 5495 S 504.133 -0.462459 -5.33499 0
M  V30 5496 C 505.289 0.628171 -6.2274 0
M  V30 5497 H 505.522 -0.477961 -2.93433 0
M  V30 5498 H 503.055 -0.364715 -1.50031 0
M  V30 5499 H 505.013 1.91935 -3.62865 0
M  V30 5500 H 503.674 1.95183 -2.46095 0
M  V30 5501 H 502.867 1.52565 -4.80354 0
M  V30 5502 H 502.469 0.159022 -3.73662 0
M  V30 5503 H 504.761 1.51506 -6.60342 0
M  V30 5504 H 505.704 0.0674961 -7.08068 0
M  V30 5505 H 506.112 0.930167 -5.56784 0
M  V30 5506 N 505.51 1.54411 -0.315457 0
M  V30 5507 C 506.759 1.99599 0.290395 0
M  V30 5508 C 507.072 1.20746 1.53882 0
M  V30 5509 O 508.278 1.56272 2.22017 0
M  V30 5510 C 506.734 3.5539 0.56797 0
M  V30 5511 C 506.342 4.43068 -0.662945 0
M  V30 5512 C 508.086 4.09067 1.13422 0
M  V30 5513 C 505.993 5.90317 -0.357722 0
M  V30 5514 H 504.923 0.745592 0.112286 0
M  V30 5515 H 507.574 1.78477 -0.426418 0
M  V30 5516 H 505.956 3.72468 1.34476 0
M  V30 5517 H 507.13 4.37765 -1.43869 0
M  V30 5518 H 505.445 4.00238 -1.14884 0
M  V30 5519 H 508.042 5.16663 1.37707 0
M  V30 5520 H 508.385 3.60552 2.08106 0
M  V30 5521 H 508.918 3.95589 0.418805 0
M  V30 5522 H 505.657 6.4301 -1.27351 0
M  V30 5523 H 505.177 5.98592 0.380472 0
M  V30 5524 H 506.856 6.4699 0.0354284 0
M  V30 5525 N 506.988 0.0434614 1.5754 0
M  V30 5526 C 507.918 -0.931651 2.14109 0
M  V30 5527 C 508.899 -1.32971 1.06079 0
M  V30 5528 O 510.084 -1.40579 1.33982 0
M  V30 5529 C 507.214 -2.20914 2.67982 0
M  V30 5530 C 506.168 -1.95139 3.80926 0
M  V30 5531 C 505.494 -3.29276 4.21285 0
M  V30 5532 C 506.794 -1.27913 5.06395 0
M  V30 5533 H 508.488 -0.460497 2.95837 0
M  V30 5534 H 506.034 -0.220058 1.42309 0
M  V30 5535 H 507.987 -2.89522 3.06194 0
M  V30 5536 H 506.711 -2.70221 1.83434 0
M  V30 5537 H 505.37 -1.28945 3.43175 0
M  V30 5538 H 505.018 -3.76369 3.33699 0
M  V30 5539 H 504.718 -3.12831 4.97404 0
M  V30 5540 H 506.242 -3.99129 4.62091 0
M  V30 5541 H 507.656 -1.86544 5.42102 0
M  V30 5542 H 506.053 -1.2182 5.87605 0
M  V30 5543 H 507.123 -0.254066 4.84234 0
M  V30 5544 N 508.466 -1.55915 -0.229846 0
M  V30 5545 C 509.376 -1.94891 -1.30593 0
M  V30 5546 C 510.392 -0.851604 -1.51736 0
M  V30 5547 O 511.568 -1.15447 -1.65027 0
M  V30 5548 C 508.633 -2.25052 -2.63728 0
M  V30 5549 C 507.694 -3.48306 -2.5096 0
M  V30 5550 C 506.927 -3.77019 -3.77747 0
M  V30 5551 O 507.15 -3.07534 -4.80395 0
M  V30 5552 O 506.084 -4.70523 -3.75356 0
M  V30 5553 H 509.91 -2.86581 -1.00525 0
M  V30 5554 H 507.495 -1.43017 -0.432025 0
M  V30 5555 H 509.377 -2.45682 -3.42372 0
M  V30 5556 H 508.052 -1.36538 -2.93495 0
M  V30 5557 H 506.959 -3.32964 -1.70546 0
M  V30 5558 H 508.292 -4.37177 -2.26136 0
M  V30 5559 N 509.944 0.496216 -1.49584 0
M  V30 5560 C 511.184 1.26015 -1.60933 0
M  V30 5561 C 511.548 1.89772 -0.291646 0
M  V30 5562 O 512.749 2.67334 -0.280357 0
M  V30 5563 C 511.02 2.29506 -2.73974 0
M  V30 5564 S 512.579 3.15175 -3.05303 0
M  V30 5565 H 509.397 0.428194 -0.567601 0
M  V30 5566 H 511.999 0.561484 -1.87263 0
M  V30 5567 H 510.703 1.81205 -3.68229 0
M  V30 5568 H 510.234 3.04036 -2.49651 0
M  V30 5569 H 512.249 4.30244 -2.47193 0
M  V30 5570 N 511.423 1.38739 0.74761 0
M  V30 5571 C 512.671 1.35007 1.50391 0
M  V30 5572 C 512.992 -0.0574274 1.94915 0
M  V30 5573 O 512.262 -1.00628 1.6808 0
M  V30 5574 H 510.842 0.496784 0.557866 0
M  V30 5575 H 513.504 1.73479 0.888319 0
M  V30 5576 H 512.6 2.00474 2.392 0
M  V30 5577 N 512.901 -0.976442 1.23707 0
M  V30 5578 C 514.149 -1.71487 1.06942 0
M  V30 5579 C 514.47 -1.9098 -0.393897 0
M  V30 5580 O 513.74 -1.48128 -1.28198 0
M  V30 5581 H 512.32 -0.635425 0.392739 0
M  V30 5582 H 514.982 -1.17515 1.55487 0
M  V30 5583 H 514.078 -2.70286 1.56051 0
M  V30 5584 N 514.379 -1.04941 -1.1758 0
M  V30 5585 C 515.604 -0.778253 -1.92245 0
M  V30 5586 C 516.029 0.659707 -1.76152 0
M  V30 5587 O 515.387 1.45803 -1.07755 0
M  V30 5588 C 515.435 -1.16051 -3.41416 0
M  V30 5589 O 514.539 -0.291153 -4.11371 0
M  V30 5590 H 513.88 -0.285619 -0.599431 0
M  V30 5591 H 516.41 -1.40159 -1.49052 0
M  V30 5592 H 516.42 -1.12619 -3.92149 0
M  V30 5593 H 515.095 -2.208 -3.52449 0
M  V30 5594 H 513.672 -0.385851 -3.70898 0
M  V30 5595 N 515.857 1.33968 -0.830081 0
M  V30 5596 C 517.082 2.02813 -0.433796 0
M  V30 5597 C 517.507 1.62076 0.954614 0
M  V30 5598 O 516.865 0.808955 1.62252 0
M  V30 5599 C 516.913 3.56348 -0.552115 0
M  V30 5600 O 516.017 4.10202 0.425191 0
M  V30 5601 H 515.358 0.639817 -0.177567 0
M  V30 5602 H 517.888 1.7106 -1.12248 0
M  V30 5603 H 517.898 4.05722 -0.430513 0
M  V30 5604 H 516.573 3.85344 -1.56471 0
M  V30 5605 H 515.15 3.71979 0.261878 0
M  V30 5606 N 517.335 0.585699 1.46312 0
M  V30 5607 C 518.583 0.072278 2.01971 0
M  V30 5608 C 518.904 -1.29345 1.45928 0
M  V30 5609 O 518.174 -1.84973 0.645109 0
M  V30 5610 H 516.754 0.023729 0.746623 0
M  V30 5611 H 519.416 0.762155 1.7938 0
M  V30 5612 H 518.512 0.00552767 3.121 0
M  V30 5613 N 518.813 -1.54241 0.323641 0
M  V30 5614 C 520.041 -2.04985 -0.280871 0
M  V30 5615 C 520.456 -1.19978 -1.45777 0
M  V30 5616 O 519.813 -0.230471 -1.81039 0
M  V30 5617 C 519.864 -3.54353 -0.715258 0
M  V30 5618 O 519.585 -4.36132 0.414817 0
M  V30 5619 C 521.086 -4.21189 -1.38257 0
M  V30 5620 H 518.306 -0.66851 -0.0577502 0
M  V30 5621 H 520.85 -1.99029 0.469852 0
M  V30 5622 H 519.005 -3.60596 -1.41596 0
M  V30 5623 H 519.419 -5.2445 0.0725227 0
M  V30 5624 H 520.893 -5.27154 -1.63745 0
M  V30 5625 H 521.37 -3.72307 -2.32989 0
M  V30 5626 H 521.976 -4.19085 -0.724447 0
M  V30 5627 N 520.291 -0.0518155 -1.57515 0
M  V30 5628 C 521.516 0.634896 -1.97443 0
M  V30 5629 C 521.941 1.63546 -0.929207 0
M  V30 5630 O 521.299 1.80981 0.107484 0
M  V30 5631 C 521.347 1.29765 -3.36442 0
M  V30 5632 O 520.451 2.41333 -3.34413 0
M  V30 5633 H 519.792 0.164994 -0.643174 0
M  V30 5634 H 522.322 -0.120407 -2.04245 0
M  V30 5635 H 522.332 1.64918 -3.73184 0
M  V30 5636 H 521.007 0.564361 -4.12053 0
M  V30 5637 H 519.584 2.08122 -3.09418 0
M  V30 5638 N 521.769 1.56035 0.221574 0
M  V30 5639 C 523.185 1.49026 0.571271 0
M  V30 5640 C 523.385 0.746912 1.87146 0
M  V30 5641 O 522.441 0.286566 2.50869 0
M  V30 5642 C 523.754 2.93579 0.650522 0
M  V30 5643 C 525.302 3.04099 0.741151 0
M  V30 5644 C 525.777 4.5001 0.851747 0
M  V30 5645 N 527.268 4.54053 0.915968 0
M  V30 5646 C 528.003 5.64232 1.02125 0
M  V30 5647 N 527.499 6.84164 1.09049 0
M  V30 5648 N 529.292 5.52084 1.05639 0
M  V30 5649 H 521.443 2.02791 -0.63162 0
M  V30 5650 H 523.706 0.921736 -0.221602 0
M  V30 5651 H 523.412 3.50912 -0.235253 0
M  V30 5652 H 523.286 3.45476 1.51413 0
M  V30 5653 H 525.673 2.4683 1.61737 0
M  V30 5654 H 525.754 2.55371 -0.148128 0
M  V30 5655 H 525.398 5.07896 -0.0200117 0
M  V30 5656 H 525.328 4.96444 1.75644 0
M  V30 5657 H 527.819 3.67683 0.872782 0
M  V30 5658 H 528.132 7.63883 1.1706 0
M  V30 5659 H 526.477 6.86875 1.05962 0
M  V30 5660 H 529.668 4.57317 0.998953 0
M  V30 5661 H 529.841 6.37983 1.13498 0
M  V30 5662 N 523.247 -0.488276 1.49845 0
M  V30 5663 C 524.157 -1.61451 1.70207 0
M  V30 5664 C 525.173 -1.63877 0.584846 0
M  V30 5665 O 526.349 -1.82063 0.861107 0
M  V30 5666 C 523.414 -2.9776 1.77594 0
M  V30 5667 C 522.475 -3.05861 3.01243 0
M  V30 5668 C 521.708 -4.35668 3.08268 0
M  V30 5669 O 521.931 -5.25197 2.22541 0
M  V30 5670 O 520.865 -4.49005 4.00847 0
M  V30 5671 H 524.691 -1.47199 2.65643 0
M  V30 5672 H 522.276 -0.665939 1.33737 0
M  V30 5673 H 524.158 -3.7875 1.84732 0
M  V30 5674 H 522.833 -3.12248 0.8534 0
M  V30 5675 H 521.74 -2.24012 2.99616 0
M  V30 5676 H 523.073 -2.96304 3.9302 0
M  V30 5677 N 524.725 -1.39134 -0.740242 0
M  V30 5678 C 525.672 -1.37434 -1.8542 0
M  V30 5679 C 526.642 -0.234822 -1.64432 0
M  V30 5680 O 527.827 -0.429125 -1.85912 0
M  V30 5681 C 524.967 -1.21844 -3.22875 0
M  V30 5682 C 524.08 -2.45296 -3.55603 0
M  V30 5683 C 523.215 -2.22334 -4.82432 0
M  V30 5684 C 522.254 -3.41488 -5.07988 0
M  V30 5685 N 521.391 -3.17877 -6.26018 0
M  V30 5686 H 526.231 -2.3266 -1.86207 0
M  V30 5687 H 523.768 -1.15578 -0.909946 0
M  V30 5688 H 525.726 -1.10818 -4.02213 0
M  V30 5689 H 524.356 -0.3025 -3.21379 0
M  V30 5690 H 523.408 -2.66945 -2.71006 0
M  V30 5691 H 524.72 -3.34063 -3.7041 0
M  V30 5692 H 523.874 -2.0852 -5.69741 0
M  V30 5693 H 522.613 -1.30954 -4.6979 0
M  V30 5694 H 521.618 -3.55807 -4.19144 0
M  V30 5695 H 522.843 -4.33763 -5.22519 0
M  V30 5696 H 520.789 -2.29156 -6.14673 0
M  V30 5697 H 520.706 -4.00198 -6.41387 0
M  V30 5698 H 521.974 -3.07746 -7.16179 0
M  V30 5699 N 526.204 0.969867 -1.24223 0
M  V30 5700 C 527.452 1.70918 -1.0785 0
M  V30 5701 C 527.773 1.91186 0.383763 0
M  V30 5702 O 527.043 1.48806 1.27411 0
M  V30 5703 H 525.623 0.633334 -0.396103 0
M  V30 5704 H 528.285 1.16689 -1.56108 0
M  V30 5705 H 527.381 2.69455 -1.57482 0
M  V30 5706 N 527.682 1.05563 1.17022 0
M  V30 5707 C 529.093 0.793475 1.69 0
M  V30 5708 C 529.444 -0.683882 1.83895 0
M  V30 5709 O 528.569 -1.53116 1.5292 0
M  V30 5710 C 529.164 1.43376 3.06967 0
M  V30 5711 C 527.723 1.21956 3.56095 0
M  V30 5712 C 526.87 1.51494 2.3226 0
M  V30 5713 H 529.821 1.22008 1.01487 0
M  V30 5714 H 529.842 0.845068 3.70997 0
M  V30 5715 H 529.354 2.50899 2.96093 0
M  V30 5716 H 527.455 0.163749 3.7224 0
M  V30 5717 H 527.568 1.92713 4.38633 0
M  V30 5718 H 525.932 0.935175 2.3691 0
M  V30 5719 H 526.715 2.60159 2.23992 0
M  V30 5720 N 529.16 -1.33526 0.837174 0
M  V30 5721 C 530.07 -2.33023 0.271568 0
M  V30 5722 C 531.086 -1.63272 -0.601514 0
M  V30 5723 O 532.262 -1.94939 -0.506038 0
M  V30 5724 C 529.327 -3.42382 -0.545448 0
M  V30 5725 C 528.388 -4.27857 0.351709 0
M  V30 5726 C 527.621 -5.31994 -0.426409 0
M  V30 5727 O 527.844 -5.45763 -1.65828 0
M  V30 5728 O 526.778 -6.01572 0.1987 0
M  V30 5729 H 530.604 -2.83256 1.09545 0
M  V30 5730 H 528.189 -1.36837 0.599655 0
M  V30 5731 H 530.071 -4.09122 -1.00979 0
M  V30 5732 H 528.746 -2.94369 -1.34641 0
M  V30 5733 H 527.653 -3.6399 0.863853 0
M  V30 5734 H 528.986 -4.79349 1.1174 0
M  V30 5735 N 530.638 -0.59345 -1.46 0
M  V30 5736 C 531.886 -0.082988 -2.0193 0
M  V30 5737 C 532.207 1.28569 -1.46612 0
M  V30 5738 O 531.477 1.84629 -0.654909 0
M  V30 5739 H 530.057 -0.0276882 -0.746487 0
M  V30 5740 H 532.719 -0.771657 -1.78973 0
M  V30 5741 H 531.815 -0.022079 -3.12092 0
M  V30 5742 N 532.116 1.54067 -0.331816 0
M  V30 5743 C 533.362 2.01012 0.268667 0
M  V30 5744 C 533.695 1.2195 1.51136 0
M  V30 5745 O 532.97 0.303972 1.9211 0
M  V30 5746 C 533.253 3.55158 0.59456 0
M  V30 5747 C 533.106 4.4494 -0.659409 0
M  V30 5748 C 534.425 4.16939 1.4089 0
M  V30 5749 H 531.544 0.730698 0.0961756 0
M  V30 5750 H 534.186 1.84593 -0.450031 0
M  V30 5751 H 532.336 3.6928 1.20685 0
M  V30 5752 H 534.008 4.42675 -1.29756 0
M  V30 5753 H 532.251 4.1428 -1.28665 0
M  V30 5754 H 532.922 5.50643 -0.386804 0
M  V30 5755 H 535.398 4.06443 0.891272 0
M  V30 5756 H 534.274 5.24889 1.60569 0
M  V30 5757 H 534.535 3.70798 2.40752 0
M  V30 5758 N 533.594 0.0601682 1.57485 0
M  V30 5759 C 534.819 -0.624416 1.97777 0
M  V30 5760 C 535.244 -1.63051 0.937867 0
M  V30 5761 O 534.602 -1.81036 -0.0978845 0
M  V30 5762 C 534.65 -1.27979 3.37126 0
M  V30 5763 O 533.754 -2.39556 3.35688 0
M  V30 5764 H 533.095 -0.161581 0.64404 0
M  V30 5765 H 535.625 0.131237 2.04179 0
M  V30 5766 H 535.635 -1.62937 3.74053 0
M  V30 5767 H 534.31 -0.542501 4.12347 0
M  V30 5768 H 532.887 -2.06478 3.10517 0
M  V30 5769 N 535.072 -1.5615 -0.213296 0
M  V30 5770 C 536.483 -1.69645 -0.779582 0
M  V30 5771 C 536.834 -0.663615 -1.84636 0
M  V30 5772 O 535.959 0.183633 -2.15619 0
M  V30 5773 C 536.554 -3.07567 -1.42084 0
M  V30 5774 C 535.113 -3.22889 -1.93442 0
M  V30 5775 C 534.26 -2.65581 -0.797612 0
M  V30 5776 H 537.211 -1.58696 0.0114951 0
M  V30 5777 H 537.232 -3.03884 -2.28986 0
M  V30 5778 H 536.744 -3.82716 -0.644187 0
M  V30 5779 H 534.845 -2.52623 -2.73884 0
M  V30 5780 H 534.958 -4.30197 -2.10872 0
M  V30 5781 H 533.322 -2.24278 -1.20712 0
M  V30 5782 H 534.105 -3.43284 -0.033494 0
M  V30 5783 N 536.55 0.480323 -1.50102 0
M  V30 5784 C 537.775 1.26126 -1.64642 0
M  V30 5785 C 538.2 1.85257 -0.325823 0
M  V30 5786 O 537.558 1.66854 0.709194 0
M  V30 5787 C 537.606 2.35243 -2.73301 0
M  V30 5788 O 536.71 3.39646 -2.33911 0
M  V30 5789 H 536.051 0.371463 -0.550374 0
M  V30 5790 H 538.581 0.572696 -1.96421 0
M  V30 5791 H 538.591 2.80695 -2.96098 0
M  V30 5792 H 537.266 1.91574 -3.6915 0
M  V30 5793 H 535.843 2.99969 -2.21525 0
M  V30 5794 N 538.028 1.39524 0.732853 0
M  V30 5795 C 538.96 1.34318 1.85718 0
M  V30 5796 C 539.973 0.251576 1.60844 0
M  V30 5797 O 541.162 0.510685 1.71039 0
M  V30 5798 C 538.262 1.06334 3.21786 0
M  V30 5799 C 537.435 2.26813 3.73998 0
M  V30 5800 C 536.494 1.95253 4.88634 0
M  V30 5801 O 535.52 2.67957 5.02183 0
M  V30 5802 N 536.722 0.919984 5.73164 0
M  V30 5803 H 539.487 2.3121 1.90688 0
M  V30 5804 H 537.048 1.33654 0.91368 0
M  V30 5805 H 539.04 0.832363 3.96048 0
M  V30 5806 H 537.61 0.181682 3.12072 0
M  V30 5807 H 536.83 2.65849 2.91064 0
M  V30 5808 H 538.118 3.0717 4.05616 0
M  V30 5809 H 537.516 0.317487 5.64808 0
M  V30 5810 H 536.073 0.748905 6.47483 0
M  V30 5811 N 539.506 -0.963266 1.24736 0
M  V30 5812 C 540.469 -2.04013 1.04457 0
M  V30 5813 C 541.469 -1.608 0.000335555 0
M  V30 5814 O 542.659 -1.72515 0.241719 0
M  V30 5815 C 539.791 -3.35858 0.584162 0
M  V30 5816 H 540.984 -2.23436 2.00041 0
M  V30 5817 H 538.537 -1.13914 1.07021 0
M  V30 5818 H 539.272 -3.22128 -0.374673 0
M  V30 5819 H 539.057 -3.68568 1.3379 0
M  V30 5820 H 540.547 -4.1502 0.463451 0
M  V30 5821 N 540.985 -1.06182 -1.16461 0
M  V30 5822 C 541.935 -0.641619 -2.18786 0
M  V30 5823 C 542.919 0.327122 -1.5754 0
M  V30 5824 O 544.111 0.142746 -1.76423 0
M  V30 5825 C 541.24 -0.0283734 -3.43288 0
M  V30 5826 C 540.326 -1.02154 -4.11613 0
M  V30 5827 N 540.717 -2.19671 -4.55608 0
M  V30 5828 C 539.015 -0.852229 -4.37782 0
M  V30 5829 C 539.716 -2.82583 -5.0845 0
M  V30 5830 N 538.692 -2.10318 -5.01266 0
M  V30 5831 H 542.494 -1.53684 -2.50516 0
M  V30 5832 H 540.008 -0.933349 -1.329 0
M  V30 5833 H 542.005 0.29049 -4.15887 0
M  V30 5834 H 540.665 0.862118 -3.13046 0
M  V30 5835 H 541.676 -2.57453 -4.49375 0
M  V30 5836 H 538.353 -0.0136314 -4.17498 0
M  V30 5837 H 539.743 -3.82298 -5.52538 0
M  V30 5838 N 542.463 1.3308 -0.844243 0
M  V30 5839 C 543.393 2.3161 -0.296493 0
M  V30 5840 C 544.374 1.59215 0.598707 0
M  V30 5841 O 545.559 1.87077 0.521134 0
M  V30 5842 C 542.689 3.43313 0.524762 0
M  V30 5843 C 541.643 4.27115 -0.275106 0
M  V30 5844 C 540.969 5.30483 0.670236 0
M  V30 5845 C 542.269 5.00443 -1.49514 0
M  V30 5846 H 543.963 2.77672 -1.11976 0
M  V30 5847 H 541.509 1.33496 -0.539899 0
M  V30 5848 H 543.462 4.11273 0.918298 0
M  V30 5849 H 542.186 2.95952 1.3813 0
M  V30 5850 H 540.845 3.60787 -0.650267 0
M  V30 5851 H 540.493 4.79379 1.52332 0
M  V30 5852 H 540.193 5.87435 0.139123 0
M  V30 5853 H 541.717 6.01308 1.06117 0
M  V30 5854 H 543.131 5.61141 -1.17447 0
M  V30 5855 H 541.528 5.67071 -1.96343 0
M  V30 5856 H 542.598 4.28906 -2.26202 0
M  V30 5857 N 543.941 0.601185 1.45683 0
M  V30 5858 C 544.891 -0.142686 2.27553 0
M  V30 5859 C 545.875 -0.844598 1.3695 0
M  V30 5860 O 547.067 -0.735644 1.60988 0
M  V30 5861 C 544.196 -1.14364 3.23691 0
M  V30 5862 C 543.282 -0.442894 4.21781 0
M  V30 5863 N 543.673 0.51189 5.03203 0
M  V30 5864 C 541.971 -0.691277 4.4061 0
M  V30 5865 C 542.672 0.92318 5.74328 0
M  V30 5866 N 541.648 0.268308 5.42937 0
M  V30 5867 H 545.45 0.590736 2.87902 0
M  V30 5868 H 542.964 0.424365 1.56757 0
M  V30 5869 H 544.961 -1.6909 3.8107 0
M  V30 5870 H 543.621 -1.87768 2.64902 0
M  V30 5871 H 544.632 0.888329 5.10225 0
M  V30 5872 H 541.309 -1.41049 3.92952 0
M  V30 5873 H 542.699 1.71029 6.49768 0
M  V30 5874 N 545.419 -1.53889 0.339982 0
M  V30 5875 C 546.366 -2.24902 -0.518452 0
M  V30 5876 C 547.336 -1.24593 -1.09844 0
M  V30 5877 O 548.521 -1.53317 -1.13572 0
M  V30 5878 C 545.661 -3.02262 -1.66529 0
M  V30 5879 C 544.774 -4.17418 -1.11295 0
M  V30 5880 C 543.909 -4.82273 -2.2268 0
M  V30 5881 C 542.948 -5.89503 -1.6478 0
M  V30 5882 N 542.085 -6.48153 -2.69893 0
M  V30 5883 H 546.925 -2.97853 0.0936579 0
M  V30 5884 H 544.462 -1.46986 0.0579924 0
M  V30 5885 H 546.42 -3.45371 -2.3404 0
M  V30 5886 H 545.05 -2.31614 -2.24844 0
M  V30 5887 H 544.102 -3.78976 -0.328886 0
M  V30 5888 H 545.414 -4.94554 -0.649414 0
M  V30 5889 H 544.568 -5.28435 -2.98063 0
M  V30 5890 H 543.307 -4.04552 -2.72376 0
M  V30 5891 H 542.312 -5.42728 -0.879004 0
M  V30 5892 H 543.537 -6.6913 -1.1594 0
M  V30 5893 H 541.483 -5.73298 -3.1885 0
M  V30 5894 H 541.4 -7.20752 -2.28151 0
M  V30 5895 H 542.668 -6.98968 -3.45056 0
M  V30 5896 N 546.897 -0.0685191 -1.57451 0
M  V30 5897 C 548.308 0.464634 -1.80826 0
M  V30 5898 C 548.659 1.69847 -0.982169 0
M  V30 5899 O 547.784 2.15439 -0.203734 0
M  V30 5900 C 548.379 0.849721 -3.27971 0
M  V30 5901 C 546.938 1.32776 -3.52204 0
M  V30 5902 C 546.085 0.311332 -2.75547 0
M  V30 5903 H 549.036 -0.294248 -1.55948 0
M  V30 5904 H 549.057 1.71138 -3.39841 0
M  V30 5905 H 548.569 -0.0484736 -3.8807 0
M  V30 5906 H 546.67 2.24456 -2.97406 0
M  V30 5907 H 546.783 1.30794 -4.60901 0
M  V30 5908 H 545.147 0.787915 -2.42206 0
M  V30 5909 H 545.93 -0.579078 -3.38381 0
M  V30 5910 N 548.375 1.56261 0.205012 0
M  V30 5911 C 549.791 1.49623 0.555433 0
M  V30 5912 C 549.991 0.766719 1.86343 0
M  V30 5913 O 549.047 0.313158 2.50551 0
M  V30 5914 C 550.36 2.94253 0.619347 0
M  V30 5915 C 551.908 3.04868 0.708855 0
M  V30 5916 C 552.383 4.50888 0.803969 0
M  V30 5917 N 553.874 4.54999 0.867758 0
M  V30 5918 C 554.609 5.65284 0.96135 0
M  V30 5919 N 554.105 6.85282 1.01786 0
M  V30 5920 N 555.898 5.53174 0.997771 0
M  V30 5921 H 548.049 2.0211 -0.653094 0
M  V30 5922 H 550.312 0.919333 -0.231366 0
M  V30 5923 H 550.018 3.50643 -0.272458 0
M  V30 5924 H 549.892 3.47063 1.47741 0
M  V30 5925 H 552.279 2.48532 1.5911 0
M  V30 5926 H 552.36 2.55199 -0.175205 0
M  V30 5927 H 552.004 5.07846 -0.0738798 0
M  V30 5928 H 551.934 4.98279 1.70369 0
M  V30 5929 H 554.425 3.68588 0.833735 0
M  V30 5930 H 554.738 7.65081 1.08951 0
M  V30 5931 H 553.083 6.8796 0.986706 0
M  V30 5932 H 556.274 4.5835 0.950392 0
M  V30 5933 H 556.447 6.39151 1.06725 0
M  V30 5934 N 549.853 -0.472356 1.50355 0
M  V30 5935 C 550.816 -1.5529 1.68576 0
M  V30 5936 C 551.816 -1.50863 0.556511 0
M  V30 5937 O 553.006 -1.53505 0.823516 0
M  V30 5938 C 550.138 -2.94921 1.70981 0
M  V30 5939 H 551.331 -1.40451 2.64978 0
M  V30 5940 H 548.884 -0.698645 1.39816 0
M  V30 5941 H 549.619 -3.15204 0.762675 0
M  V30 5942 H 549.404 -2.99541 2.53017 0
M  V30 5943 H 550.894 -3.73372 1.87037 0
M  V30 5944 N 551.331 -1.39911 -0.725443 0
M  V30 5945 C 552.608 -1.28158 -1.47766 0
M  V30 5946 C 552.988 0.104545 -2.10841 0
M  V30 5947 O 552.336 1.11657 -1.99361 0
M  V30 5948 C 552.546 -2.41306 -2.52135 0
M  V30 5949 C 553.894 -2.81076 -3.18247 0
M  V30 5950 O 554.918 -2.40827 -2.62452 0
M  V30 5951 O 553.777 -3.50581 -4.19231 0
M  V30 5952 H 550.871 -0.502761 -0.656628 0
M  V30 5953 H 553.417 -1.51808 -0.758456 0
M  V30 5954 H 552.189 -3.33932 -2.03974 0
M  V30 5955 H 551.812 -2.19374 -3.31603 0
M  V30 5956 N 552.809 0.956637 -1.25245 0
M  V30 5957 C 554.22 1.51569 -1.09012 0
M  V30 5958 C 554.571 1.93322 0.334813 0
M  V30 5959 O 553.696 1.78421 1.22454 0
M  V30 5960 C 554.291 2.75444 -1.97271 0
M  V30 5961 C 552.85 3.27669 -1.8523 0
M  V30 5962 C 551.997 2.00517 -1.91542 0
M  V30 5963 H 554.948 0.773746 -1.3856 0
M  V30 5964 H 554.969 3.4919 -1.51151 0
M  V30 5965 H 554.481 2.45024 -3.00973 0
M  V30 5966 H 552.582 3.62914 -0.844045 0
M  V30 5967 H 552.695 3.9582 -2.69932 0
M  V30 5968 H 551.059 2.15727 -1.35404 0
M  V30 5969 H 551.842 1.72448 -2.96844 0
M  V30 5970 N 554.287 1.06798 1.15896 0
M  V30 5971 C 555.219 0.641263 2.20046 0
M  V30 5972 C 556.232 -0.303355 1.59949 0
M  V30 5973 O 557.421 -0.0935478 1.78255 0
M  V30 5974 C 554.521 -0.0794029 3.38807 0
M  V30 5975 C 553.694 0.879986 4.28457 0
M  V30 5976 C 552.753 0.197638 5.25829 0
M  V30 5977 O 551.779 0.836913 5.63014 0
M  V30 5978 N 552.981 -1.05886 5.70761 0
M  V30 5979 H 555.746 1.53718 2.57276 0
M  V30 5980 H 553.307 0.951951 1.30956 0
M  V30 5981 H 555.299 -0.546418 4.00994 0
M  V30 5982 H 553.869 -0.877193 3.0004 0
M  V30 5983 H 553.089 1.52625 3.63454 0
M  V30 5984 H 554.377 1.53065 4.8523 0
M  V30 5985 H 553.775 -1.59828 5.42652 0
M  V30 5986 H 552.332 -1.46965 6.35015 0
M  V30 5987 N 555.766 -1.3263 0.851289 0
M  V30 5988 C 556.696 -2.31449 0.308771 0
M  V30 5989 C 557.677 -1.59531 -0.590255 0
M  V30 5990 O 558.862 -1.87351 -0.511205 0
M  V30 5991 C 555.992 -3.43586 -0.506548 0
M  V30 5992 C 554.946 -4.26963 0.297753 0
M  V30 5993 C 554.272 -5.30831 -0.642094 0
M  V30 5994 C 555.572 -4.99643 1.52166 0
M  V30 5995 H 557.266 -2.77074 1.13447 0
M  V30 5996 H 554.812 -1.33207 0.546971 0
M  V30 5997 H 556.765 -4.11754 -0.896474 0
M  V30 5998 H 555.489 -2.96681 -1.36558 0
M  V30 5999 H 554.148 -3.60437 0.669391 0
M  V30 6000 H 553.796 -4.8018 -1.49788 0
M  V30 6001 H 553.496 -5.87501 -0.107968 0
M  V30 6002 H 555.02 -6.01862 -1.02927 0
M  V30 6003 H 556.434 -5.6051 1.20421 0
M  V30 6004 H 554.831 -5.66022 1.99347 0
M  V30 6005 H 555.901 -4.27701 2.28474 0
M  V30 6006 N 557.244 -0.608902 -1.45362 0
M  V30 6007 C 558.655 -0.189511 -1.85736 0
M  V30 6008 C 559.006 1.2539 -1.50903 0
M  V30 6009 O 558.131 1.95094 -0.936347 0
M  V30 6010 C 558.726 -0.33716 -3.37118 0
M  V30 6011 C 557.285 0.0275487 -3.7639 0
M  V30 6012 C 556.432 -0.660983 -2.69307 0
M  V30 6013 H 559.383 -0.815499 -1.36144 0
M  V30 6014 H 559.404 0.430257 -3.7806 0
M  V30 6015 H 558.916 -1.38779 -3.62439 0
M  V30 6016 H 557.017 1.0773 -3.56686 0
M  V30 6017 H 557.13 -0.367018 -4.77692 0
M  V30 6018 H 555.494 -0.0984958 -2.54509 0
M  V30 6019 H 556.277 -1.71377 -2.97464 0
M  V30 6020 N 558.722 1.53707 -0.348139 0
M  V30 6021 C 559.947 2.05877 0.250883 0
M  V30 6022 C 560.372 1.22115 1.43072 0
M  V30 6023 O 559.73 0.235986 1.79758 0
M  V30 6024 C 559.778 3.54886 0.639416 0
M  V30 6025 O 558.882 3.73948 1.73888 0
M  V30 6026 H 558.223 0.662754 0.040653 0
M  V30 6027 H 560.753 1.98303 -0.503685 0
M  V30 6028 H 560.763 3.97601 0.915295 0
M  V30 6029 H 559.438 4.153 -0.223386 0
M  V30 6030 H 558.015 3.43134 1.45991 0
M  V30 6031 N 560.2 0.0768682 1.57412 0
M  V30 6032 C 561.616 -0.279772 1.57129 0
M  V30 6033 C 561.816 -1.69688 1.08666 0
M  V30 6034 O 560.872 -2.40953 0.754843 0
M  V30 6035 C 562.185 -0.0848055 3.0058 0
M  V30 6036 C 563.733 -0.153954 3.12621 0
M  V30 6037 C 564.208 0.0127946 4.57998 0
M  V30 6038 N 565.699 -0.0426435 4.6318 0
M  V30 6039 C 566.434 0.0618892 5.73367 0
M  V30 6040 N 565.93 0.220229 6.9245 0
M  V30 6041 N 567.723 0.00446072 5.621 0
M  V30 6042 H 559.874 1.00297 1.87228 0
M  V30 6043 H 562.137 0.391565 0.863354 0
M  V30 6044 H 561.843 0.89325 3.40168 0
M  V30 6045 H 561.717 -0.834961 3.67843 0
M  V30 6046 H 564.104 -1.1225 2.72917 0
M  V30 6047 H 564.185 0.627389 2.47987 0
M  V30 6048 H 563.829 0.978128 4.98392 0
M  V30 6049 H 563.759 -0.788016 5.20671 0
M  V30 6050 H 566.25 -0.163226 3.77547 0
M  V30 6051 H 566.563 0.291999 7.72248 0
M  V30 6052 H 564.908 0.255658 6.9453 0
M  V30 6053 H 568.099 -0.117979 4.67951 0
M  V30 6054 H 568.272 0.0893796 6.47938 0
M  V30 6055 N 561.678 -1.56367 -0.196722 0
M  V30 6056 C 562.906 -1.84639 -0.933608 0
M  V30 6057 C 563.321 -0.659164 -1.76919 0
M  V30 6058 O 562.678 0.372142 -1.78665 0
M  V30 6059 C 562.729 -3.11694 -1.83109 0
M  V30 6060 O 562.45 -4.25838 -1.02924 0
M  V30 6061 C 563.951 -3.53132 -2.67979 0
M  V30 6062 H 561.171 -0.613188 -0.272473 0
M  V30 6063 H 563.715 -2.03475 -0.204465 0
M  V30 6064 H 561.87 -2.94759 -2.51387 0
M  V30 6065 H 562.284 -4.98178 -1.64069 0
M  V30 6066 H 563.758 -4.45005 -3.26611 0
M  V30 6067 H 564.235 -2.76045 -3.41608 0
M  V30 6068 H 564.841 -3.72592 -2.05074 0
M  V30 6069 N 563.156 0.464375 -1.50603 0
M  V30 6070 C 564.567 1.04507 -1.5471 0
M  V30 6071 C 564.918 1.9297 -0.354542 0
M  V30 6072 O 564.043 2.09763 0.531812 0
M  V30 6073 C 564.638 1.90207 -2.80369 0
M  V30 6074 C 563.197 2.43373 -2.87135 0
M  V30 6075 C 562.344 1.21886 -2.49076 0
M  V30 6076 H 565.295 0.246716 -1.56771 0
M  V30 6077 H 565.316 2.75353 -2.62604 0
M  V30 6078 H 564.828 1.25796 -3.67147 0
M  V30 6079 H 562.929 3.11318 -2.04724 0
M  V30 6080 H 563.042 2.7802 -3.90181 0
M  V30 6081 H 561.406 1.55575 -2.01664 0
M  V30 6082 H 562.189 0.591268 -3.3817 0
M  V30 6083 N 564.634 1.40294 0.718013 0
M  V30 6084 C 565.88 1.38645 1.48005 0
M  V30 6085 C 566.213 -0.0121202 1.94196 0
M  V30 6086 O 565.488 -0.980309 1.67989 0
M  V30 6087 C 565.771 2.37379 2.70782 0
M  V30 6088 C 565.624 3.8625 2.30501 0
M  V30 6089 C 566.943 2.33685 3.72933 0
M  V30 6090 H 564.062 0.504928 0.536858 0
M  V30 6091 H 566.704 1.71411 0.819649 0
M  V30 6092 H 564.854 2.09568 3.27129 0
M  V30 6093 H 566.526 4.24879 1.79655 0
M  V30 6094 H 564.769 4.02202 1.6253 0
M  V30 6095 H 565.44 4.50847 3.18498 0
M  V30 6096 H 567.916 2.58314 3.2621 0
M  V30 6097 H 566.792 3.0482 4.56482 0
M  V30 6098 H 567.053 1.34765 4.21059 0
M  V30 6099 N 566.112 -0.949982 1.2575 0
M  V30 6100 C 567.044 -2.05088 1.02331 0
M  V30 6101 C 568.057 -1.62795 -0.0133247 0
M  V30 6102 O 569.246 -1.77067 0.225759 0
M  V30 6103 C 566.346 -3.34794 0.525924 0
M  V30 6104 C 565.519 -4.05903 1.62978 0
M  V30 6105 C 564.578 -5.1388 1.13196 0
M  V30 6106 O 563.604 -5.39072 1.82729 0
M  V30 6107 N 564.806 -5.80495 -0.0242926 0
M  V30 6108 H 567.571 -2.25747 1.97125 0
M  V30 6109 H 565.132 -1.11886 1.17018 0
M  V30 6110 H 567.124 -4.04312 0.177263 0
M  V30 6111 H 565.694 -3.10872 -0.328202 0
M  V30 6112 H 564.914 -3.3042 2.1498 0
M  V30 6113 H 566.202 -4.50166 2.37124 0
M  V30 6114 H 565.6 -5.62454 -0.605184 0
M  V30 6115 H 564.157 -6.51043 -0.313947 0
M  V30 6116 N 567.59 -1.07411 -1.15328 0
M  V30 6117 C 568.838 -0.796073 -1.85761 0
M  V30 6118 C 569.159 0.679864 -1.82764 0
M  V30 6119 O 568.429 1.49242 -1.269 0
M  V30 6120 H 567.009 -0.291495 -0.687779 0
M  V30 6121 H 569.671 -1.35799 -1.39802 0
M  V30 6122 H 568.767 -1.13114 -2.90881 0
M  V30 6123 N 569.068 1.32177 -0.85831 0
M  V30 6124 C 570.479 1.79381 -0.517621 0
M  V30 6125 C 570.83 1.70841 0.964769 0
M  V30 6126 O 569.955 1.26917 1.75274 0
M  V30 6127 C 570.55 3.25706 -0.932801 0
M  V30 6128 C 569.109 3.70851 -0.643953 0
M  V30 6129 C 568.256 2.53208 -1.13054 0
M  V30 6130 H 571.207 1.19424 -1.04516 0
M  V30 6131 H 571.228 3.79673 -0.250674 0
M  V30 6132 H 570.74 3.31889 -2.01174 0
M  V30 6133 H 568.841 3.70178 0.424112 0
M  V30 6134 H 568.954 4.63495 -1.21281 0
M  V30 6135 H 567.318 2.48676 -0.550679 0
M  V30 6136 H 568.101 2.62143 -2.21666 0
M  V30 6137 N 570.547 0.616602 1.45037 0
M  V30 6138 C 571.963 0.280994 1.57107 0
M  V30 6139 C 572.163 -1.21627 1.60653 0
M  V30 6140 O 571.219 -1.9997 1.54169 0
M  V30 6141 C 572.532 0.960116 2.8496 0
M  V30 6142 C 574.08 0.936884 2.98649 0
M  V30 6143 C 574.555 1.59619 4.29285 0
M  V30 6144 N 576.046 1.5621 4.36065 0
M  V30 6145 C 576.781 2.04131 5.35834 0
M  V30 6146 N 576.277 2.60177 6.4209 0
M  V30 6147 N 578.07 1.94845 5.27249 0
M  V30 6148 H 570.221 1.58867 1.40979 0
M  V30 6149 H 572.484 0.666024 0.674623 0
M  V30 6150 H 572.19 2.01473 2.88273 0
M  V30 6151 H 572.064 0.488921 3.74018 0
M  V30 6152 H 574.451 -0.109209 2.94898 0
M  V30 6153 H 574.532 1.44643 2.10979 0
M  V30 6154 H 574.176 2.64166 4.33796 0
M  V30 6155 H 574.106 1.06159 5.15789 0
M  V30 6156 H 576.597 1.15276 3.59889 0
M  V30 6157 H 576.91 2.94513 7.1448 0
M  V30 6158 H 575.255 2.64221 6.42816 0
M  V30 6159 H 578.446 1.50792 4.43147 0
M  V30 6160 H 578.619 2.32504 6.04852 0
M  V30 6161 N 572.025 -1.5352 0.356285 0
M  V30 6162 C 573.436 -1.86282 -0.12492 0
M  V30 6163 C 573.787 -1.27717 -1.48939 0
M  V30 6164 O 572.912 -0.595614 -2.08042 0
M  V30 6165 C 573.507 -3.37995 -0.23345 0
M  V30 6166 C 572.066 -3.70588 -0.658899 0
M  V30 6167 C 571.213 -2.76581 0.199596 0
M  V30 6168 H 574.164 -1.47901 0.575423 0
M  V30 6169 H 574.185 -3.65475 -1.0587 0
M  V30 6170 H 573.697 -3.8059 0.759776 0
M  V30 6171 H 571.798 -3.33544 -1.66069 0
M  V30 6172 H 571.911 -4.77076 -0.439957 0
M  V30 6173 H 570.275 -2.52552 -0.330076 0
M  V30 6174 H 571.058 -3.22008 1.19019 0
M  V30 6175 N 573.503 -0.0852151 -1.57369 0
M  V30 6176 C 574.919 0.271436 -1.57275 0
M  V30 6177 C 575.119 1.69109 -1.09565 0
M  V30 6178 O 574.175 2.40549 -0.767611 0
M  V30 6179 C 575.488 0.0688638 -3.00621 0
M  V30 6180 C 577.036 0.137373 -3.12698 0
M  V30 6181 C 577.511 -0.0370832 -4.57985 0
M  V30 6182 N 579.002 0.0180794 -4.63196 0
M  V30 6183 C 579.737 -0.0922953 -5.73326 0
M  V30 6184 N 579.233 -0.256948 -6.92323 0
M  V30 6185 N 581.026 -0.0342702 -5.6209 0
M  V30 6186 H 573.177 -1.01288 -1.86693 0
M  V30 6187 H 575.44 -0.396138 -0.861266 0
M  V30 6188 H 575.146 -0.911277 -3.39689 0
M  V30 6189 H 575.02 0.815442 -3.6828 0
M  V30 6190 H 577.407 1.10801 -2.73509 0
M  V30 6191 H 577.488 -0.640532 -2.47651 0
M  V30 6192 H 577.132 -1.00455 -4.97867 0
M  V30 6193 H 577.062 0.760392 -5.21081 0
M  V30 6194 H 579.553 0.143202 -3.77629 0
M  V30 6195 H 579.866 -0.332949 -7.72082 0
M  V30 6196 H 578.211 -0.292487 -6.94384 0
M  V30 6197 H 581.402 0.0931605 -4.68007 0
M  V30 6198 H 581.575 -0.12374 -6.47882 0
M  V30 6199 N 574.981 1.5647 0.188427 0
M  V30 6200 C 576.392 1.70864 0.752494 0
M  V30 6201 C 576.743 0.692905 1.83557 0
M  V30 6202 O 575.868 -0.149307 2.15884 0
M  V30 6203 C 576.463 3.09789 1.37173 0
M  V30 6204 C 575.022 3.25925 1.88281 0
M  V30 6205 C 574.169 2.66817 0.755259 0
M  V30 6206 H 577.12 1.58657 -0.0367408 0
M  V30 6207 H 577.141 3.07489 2.24122 0
M  V30 6208 H 576.653 3.83693 0.583219 0
M  V30 6209 H 574.754 2.56948 2.6983 0
M  V30 6210 H 574.867 4.33498 2.04001 0
M  V30 6211 H 573.231 2.2617 1.17128 0
M  V30 6212 H 574.014 3.43294 -0.0211237 0
M  V30 6213 N 576.459 -0.456382 1.50847 0
M  V30 6214 C 577.391 -1.57033 1.66953 0
M  V30 6215 C 578.404 -1.53207 0.550593 0
M  V30 6216 O 579.593 -1.58328 0.824285 0
M  V30 6217 C 576.693 -2.95937 1.65149 0
M  V30 6218 C 575.866 -3.24475 2.93317 0
M  V30 6219 C 574.925 -4.43007 2.83957 0
M  V30 6220 O 573.951 -4.42592 3.57912 0
M  V30 6221 N 575.153 -5.45503 1.9851 0
M  V30 6222 H 577.918 -1.43629 2.63042 0
M  V30 6223 H 575.479 -0.645037 1.48495 0
M  V30 6224 H 577.471 -3.73224 1.56481 0
M  V30 6225 H 576.041 -3.03036 0.767343 0
M  V30 6226 H 575.261 -2.35664 3.16 0
M  V30 6227 H 576.549 -3.4036 3.78196 0
M  V30 6228 H 575.947 -5.48668 1.37766 0
M  V30 6229 H 574.504 -6.21716 1.95735 0
M  V30 6230 N 577.937 -1.40673 -0.710563 0
M  V30 6231 C 579.162 -1.42741 -1.50465 0
M  V30 6232 C 579.587 -0.0302116 -1.88076 0
M  V30 6233 O 578.945 0.962945 -1.53613 0
M  V30 6234 C 578.993 -2.32873 -2.75322 0
M  V30 6235 O 578.097 -1.77544 -3.72226 0
M  V30 6236 H 577.438 -0.485056 -0.45345 0
M  V30 6237 H 579.968 -1.84961 -0.874681 0
M  V30 6238 H 579.978 -2.48233 -3.23797 0
M  V30 6239 H 578.653 -3.34401 -2.47283 0
M  V30 6240 H 577.23 -1.71556 -3.31093 0
M  V30 6241 N 579.415 0.9433 -1.26252 0
M  V30 6242 C 580.64 1.72898 -1.14547 0
M  V30 6243 C 581.065 1.85761 0.295743 0
M  V30 6244 O 580.423 1.3463 1.21427 0
M  V30 6245 C 580.471 3.11471 -1.8171 0
M  V30 6246 O 579.575 3.97336 -1.10445 0
M  V30 6247 H 578.916 0.530555 -0.399259 0
M  V30 6248 H 581.446 1.18159 -1.67032 0
M  V30 6249 H 581.456 3.61872 -1.88449 0
M  V30 6250 H 580.131 3.01425 -2.86558 0
M  V30 6251 H 578.708 3.55788 -1.11666 0
M  V30 6252 N 580.893 1.08022 1.14757 0
M  V30 6253 C 582.304 0.829144 1.67279 0
M  V30 6254 C 582.655 -0.644721 1.85305 0
M  V30 6255 O 581.78 -1.49838 1.56133 0
M  V30 6256 C 582.375 1.49855 3.03857 0
M  V30 6257 C 580.934 1.29482 3.53428 0
M  V30 6258 C 580.081 1.56386 2.28995 0
M  V30 6259 H 583.032 1.24134 0.988762 0
M  V30 6260 H 583.053 0.923572 3.69121 0
M  V30 6261 H 582.565 2.57123 2.90705 0
M  V30 6262 H 580.666 0.242669 3.71809 0
M  V30 6263 H 580.779 2.01974 4.34446 0
M  V30 6264 H 579.143 0.985217 2.34874 0
M  V30 6265 H 579.926 2.64851 2.18423 0
M  V30 6266 N 582.371 -1.3172 0.865308 0
M  V30 6267 C 583.619 -1.96487 0.472995 0
M  V30 6268 C 583.94 -1.68761 -0.976975 0
M  V30 6269 O 583.21 -1.00051 -1.68424 0
M  V30 6270 H 581.79 -0.726947 0.171922 0
M  V30 6271 H 584.452 -1.60612 1.10407 0
M  V30 6272 H 583.548 -3.0574 0.62687 0
M  V30 6273 N 583.85 -0.624285 -1.44708 0
M  V30 6274 C 584.8 0.106466 -2.27751 0
M  V30 6275 C 585.784 0.822703 -1.38277 0
M  V30 6276 O 586.976 0.709939 -1.62138 0
M  V30 6277 C 584.105 1.092 -3.25469 0
M  V30 6278 C 583.191 0.375737 -4.22432 0
M  V30 6279 N 583.582 -0.591881 -5.02325 0
M  V30 6280 C 581.88 0.621093 -4.41654 0
M  V30 6281 C 582.581 -1.01443 -5.72786 0
M  V30 6282 N 581.557 -0.354651 -5.42442 0
M  V30 6283 H 585.359 -0.636464 -2.86926 0
M  V30 6284 H 582.873 -0.44925 -1.56062 0
M  V30 6285 H 584.87 1.63006 -3.83712 0
M  V30 6286 H 583.529 1.8353 -2.67856 0
M  V30 6287 H 584.541 -0.969389 -5.08747 0
M  V30 6288 H 581.218 1.34779 -3.95147 0
M  V30 6289 H 582.608 -1.81345 -6.46965 0
M  V30 6290 N 585.328 1.53329 -0.364422 0
M  V30 6291 C 586.605 1.93557 0.281962 0
M  V30 6292 C 586.985 1.29786 1.6649 0
M  V30 6293 O 586.333 0.456512 2.23893 0
M  V30 6294 C 586.543 3.47405 0.333331 0
M  V30 6295 C 587.891 4.20699 0.574231 0
M  V30 6296 O 588.915 3.53779 0.414588 0
M  V30 6297 O 587.774 5.39287 0.885002 0
M  V30 6298 H 584.868 0.809573 0.168881 0
M  V30 6299 H 587.414 1.64494 -0.417121 0
M  V30 6300 H 586.186 3.86091 -0.636326 0
M  V30 6301 H 585.809 3.82697 1.07836 0
M  V30 6302 N 586.806 0.0935595 1.57322 0
M  V30 6303 C 588.217 -0.435807 1.81542 0
M  V30 6304 C 588.568 -1.68263 1.00907 0
M  V30 6305 O 587.693 -2.15087 0.237983 0
M  V30 6306 C 588.288 -0.797436 3.29282 0
M  V30 6307 C 586.847 -1.27155 3.54272 0
M  V30 6308 C 585.994 -0.267455 2.76007 0
M  V30 6309 H 588.945 0.31902 1.5546 0
M  V30 6310 H 588.966 -1.6571 3.42521 0
M  V30 6311 H 588.478 0.110206 3.87943 0
M  V30 6312 H 586.579 -2.19696 3.00939 0
M  V30 6313 H 586.692 -1.23445 4.62923 0
M  V30 6314 H 585.056 -0.749282 2.43429 0
M  V30 6315 H 585.839 0.632839 3.37417 0
M  V30 6316 N 588.284 -1.56567 -0.180126 0
M  V30 6317 C 589.247 -1.94852 -1.20686 0
M  V30 6318 C 590.247 -0.831212 -1.3765 0
M  V30 6319 O 591.437 -1.09841 -1.35206 0
M  V30 6320 C 588.569 -2.23565 -2.57355 0
M  V30 6321 H 589.762 -2.86722 -0.879225 0
M  V30 6322 H 587.315 -1.50489 -0.422237 0
M  V30 6323 H 588.05 -1.34381 -2.95148 0
M  V30 6324 H 587.835 -3.04999 -2.46411 0
M  V30 6325 H 589.325 -2.54137 -3.31367 0
M  V30 6326 N 589.762 0.448376 -1.51087 0
M  V30 6327 C 590.672 1.56882 -1.74428 0
M  V30 6328 C 591.688 1.62268 -0.62809 0
M  V30 6329 O 592.864 1.79716 -0.909075 0
M  V30 6330 C 589.929 2.92947 -1.85426 0
M  V30 6331 C 588.99 2.97766 -3.09247 0
M  V30 6332 C 588.223 4.27341 -3.19711 0
M  V30 6333 O 588.446 5.19112 -2.36387 0
M  V30 6334 O 587.38 4.38219 -4.12611 0
M  V30 6335 H 591.206 1.40104 -2.69452 0
M  V30 6336 H 588.791 0.630247 -1.35456 0
M  V30 6337 H 590.673 3.73719 -1.94709 0
M  V30 6338 H 589.348 3.09876 -0.935887 0
M  V30 6339 H 588.255 2.15989 -3.0545 0
M  V30 6340 H 589.588 2.8578 -4.00738 0
M  V30 6341 N 591.24 1.41047 0.703093 0
M  V30 6342 C 592.19 1.38774 1.80903 0
M  V30 6343 C 593.174 0.263275 1.58731 0
M  V30 6344 O 594.366 0.503362 1.69692 0
M  V30 6345 C 591.495 1.26497 3.19145 0
M  V30 6346 C 590.581 2.43775 3.47037 0
M  V30 6347 N 590.972 3.69249 3.45672 0
M  V30 6348 C 589.27 2.37425 3.77552 0
M  V30 6349 C 589.971 4.46989 3.72258 0
M  V30 6350 N 588.947 3.76998 3.91629 0
M  V30 6351 H 592.749 2.33714 1.78199 0
M  V30 6352 H 590.263 1.34996 0.902762 0
M  V30 6353 H 592.26 1.2295 3.98358 0
M  V30 6354 H 590.92 0.32534 3.23066 0
M  V30 6355 H 591.931 4.02239 3.26228 0
M  V30 6356 H 588.608 1.51895 3.88888 0
M  V30 6357 H 589.998 5.55894 3.77402 0
M  V30 6358 N 592.718 -0.936591 1.26751 0
M  V30 6359 C 593.628 -2.06949 1.10496 0
M  V30 6360 C 594.644 -1.7396 0.037271 0
M  V30 6361 O 595.82 -1.99941 0.241944 0
M  V30 6362 C 592.885 -3.38612 0.744491 0
M  V30 6363 C 591.946 -3.85355 1.89209 0
M  V30 6364 C 591.179 -5.10735 1.54873 0
M  V30 6365 O 591.402 -5.68602 0.452546 0
M  V30 6366 O 590.336 -5.52632 2.38499 0
M  V30 6367 H 594.162 -2.23571 2.05547 0
M  V30 6368 H 591.747 -1.05428 1.05855 0
M  V30 6369 H 593.629 -4.17711 0.556396 0
M  V30 6370 H 592.304 -3.23218 -0.176582 0
M  V30 6371 H 591.211 -3.07182 2.13518 0
M  V30 6372 H 592.544 -4.05277 2.79305 0
M  V30 6373 N 594.196 -1.08629 -1.14182 0
M  V30 6374 C 595.421 -0.83902 -1.89671 0
M  V30 6375 C 595.846 0.603332 -1.78161 0
M  V30 6376 O 595.204 1.42301 -1.12339 0
M  V30 6377 C 595.252 -1.26854 -3.37551 0
M  V30 6378 O 594.356 -0.42188 -4.10236 0
M  V30 6379 H 593.697 -0.304545 -0.590041 0
M  V30 6380 H 596.227 -1.4483 -1.44518 0
M  V30 6381 H 596.237 -1.25038 -3.88368 0
M  V30 6382 H 594.912 -2.31901 -3.45246 0
M  V30 6383 H 593.489 -0.503654 -3.69483 0
M  V30 6384 N 595.674 1.31259 -0.872281 0
M  V30 6385 C 597.085 1.78822 -0.536617 0
M  V30 6386 C 597.436 1.71855 0.946594 0
M  V30 6387 O 596.561 1.28769 1.73918 0
M  V30 6388 C 597.156 3.24698 -0.967294 0
M  V30 6389 C 595.715 3.70147 -0.683251 0
M  V30 6390 C 594.862 2.51994 -1.15733 0
M  V30 6391 H 597.813 1.18308 -1.05777 0
M  V30 6392 H 597.834 3.79386 -0.290929 0
M  V30 6393 H 597.346 3.29737 -2.04683 0
M  V30 6394 H 595.447 3.70607 0.384825 0
M  V30 6395 H 595.56 4.62183 -1.2619 0
M  V30 6396 H 593.924 2.48078 -0.577024 0
M  V30 6397 H 594.707 2.59778 -2.24434 0
M  V30 6398 N 597.152 0.631951 1.44375 0
M  V30 6399 C 598.568 0.297642 1.568 0
M  V30 6400 C 598.768 -1.19916 1.61934 0
M  V30 6401 O 597.824 -1.98324 1.56281 0
M  V30 6402 C 599.137 0.990286 2.83926 0
M  V30 6403 C 600.685 0.968507 2.97639 0
M  V30 6404 C 601.16 1.64163 4.27568 0
M  V30 6405 N 602.651 1.60826 4.34384 0
M  V30 6406 C 603.386 2.09802 5.33639 0
M  V30 6407 N 602.882 2.66973 6.39294 0
M  V30 6408 N 604.675 2.00426 5.25153 0
M  V30 6409 H 596.826 1.60353 1.39286 0
M  V30 6410 H 599.089 0.673142 0.667521 0
M  V30 6411 H 598.795 2.04519 2.8612 0
M  V30 6412 H 598.669 0.528563 3.73478 0
M  V30 6413 H 601.056 -0.0779247 2.94997 0
M  V30 6414 H 601.137 1.46873 2.09433 0
M  V30 6415 H 600.781 2.68752 4.3097 0
M  V30 6416 H 600.711 1.11624 5.14634 0
M  V30 6417 H 603.202 1.19087 3.58646 0
M  V30 6418 H 603.515 3.02074 7.11316 0
M  V30 6419 H 601.86 2.71024 6.39977 0
M  V30 6420 H 605.051 1.55483 4.41523 0
M  V30 6421 H 605.224 2.38906 6.02352 0
M  V30 6422 N 598.631 -1.53133 0.372548 0
M  V30 6423 C 599.594 -2.24569 -0.458389 0
M  V30 6424 C 600.594 -1.25603 -1.00402 0
M  V30 6425 O 601.784 -1.49827 -0.888672 0
M  V30 6426 C 598.916 -2.98783 -1.6414 0
M  V30 6427 H 600.109 -2.99436 0.166799 0
M  V30 6428 H 597.662 -1.55805 0.124357 0
M  V30 6429 H 598.397 -2.28176 -2.30448 0
M  V30 6430 H 598.182 -3.71404 -1.25704 0
M  V30 6431 H 599.672 -3.53068 -2.23008 0
M  V30 6432 N 600.109 -0.101901 -1.5727 0
M  V30 6433 C 601.072 0.840129 -2.13247 0
M  V30 6434 C 602.072 1.20625 -1.06331 0
M  V30 6435 O 603.262 1.13456 -1.32186 0
M  V30 6436 C 600.394 2.13372 -2.65867 0
M  V30 6437 H 601.587 0.353945 -2.97804 0
M  V30 6438 H 599.14 0.147167 -1.55606 0
M  V30 6439 H 599.875 2.66461 -1.84849 0
M  V30 6440 H 599.66 1.88085 -3.44044 0
M  V30 6441 H 601.15 2.80748 -3.09145 0
M  V30 6442 N 601.587 1.56661 0.17182 0
M  V30 6443 C 602.534 1.96371 1.21273 0
M  V30 6444 C 603.504 0.82756 1.44016 0
M  V30 6445 O 604.689 1.08764 1.56764 0
M  V30 6446 C 601.829 2.32838 2.54716 0
M  V30 6447 C 600.942 3.59628 2.39356 0
M  V30 6448 C 600.077 3.85311 3.65662 0
M  V30 6449 C 599.116 5.0545 3.45234 0
M  V30 6450 N 598.253 5.27268 4.63608 0
M  V30 6451 H 603.093 2.85106 0.86709 0
M  V30 6452 H 600.63 1.41073 0.416744 0
M  V30 6453 H 602.588 2.52004 3.3249 0
M  V30 6454 H 601.218 1.47214 2.87277 0
M  V30 6455 H 600.27 3.4838 1.52761 0
M  V30 6456 H 601.582 4.4756 2.20207 0
M  V30 6457 H 600.736 4.04841 4.51872 0
M  V30 6458 H 599.475 2.95753 3.8779 0
M  V30 6459 H 598.48 4.85819 2.5741 0
M  V30 6460 H 599.705 5.96538 3.24529 0
M  V30 6461 H 597.651 4.40662 4.85956 0
M  V30 6462 H 597.568 6.09422 4.4737 0
M  V30 6463 H 598.836 5.51277 5.51103 0
M  V30 6464 N 603.065 -0.440357 1.51323 0
M  V30 6465 C 604.013 -1.55492 1.72988 0
M  V30 6466 C 605.007 -1.58564 0.596138 0
M  V30 6467 O 606.213 -1.62345 0.777443 0
M  V30 6468 H 602.588 -0.516532 0.546533 0
M  V30 6469 H 604.559 -1.34392 2.66423 0
M  V30 6470 C 603.308 -2.93176 1.86931 0
M  V30 6471 H 602.631 -2.91543 2.73574 0
M  V30 6472 H 604.071 -3.70537 2.06103 0
M  V30 6473 C 602.53 -3.30988 0.628365 0
M  V30 6474 O 603.06 -4.01106 -0.218367 0
M  V30 6475 N 601.266 -2.86719 0.473339 0
M  V30 6476 H 600.813 -2.2983 1.16345 0
M  V30 6477 H 600.771 -3.12381 -0.355727 0
M  V30 6478 N 604.543 -1.41418 -0.695603 0
M  V30 6479 C 605.789 -1.40982 -1.4578 0
M  V30 6480 C 606.122 -0.0187763 -1.94191 0
M  V30 6481 O 605.397 0.95346 -1.69527 0
M  V30 6482 C 605.68 -2.41657 -2.66972 0
M  V30 6483 C 605.533 -3.89869 -2.24327 0
M  V30 6484 C 606.852 -2.39589 -3.69168 0
M  V30 6485 H 603.971 -0.513405 -0.528757 0
M  V30 6486 H 606.613 -1.72693 -0.792275 0
M  V30 6487 H 604.763 -2.14746 -3.23754 0
M  V30 6488 H 606.435 -4.27683 -1.72872 0
M  V30 6489 H 604.678 -4.04737 -1.56111 0
M  V30 6490 H 605.349 -4.55857 -3.11285 0
M  V30 6491 H 607.825 -2.63471 -3.2206 0
M  V30 6492 H 606.701 -3.12044 -4.51575 0
M  V30 6493 H 606.962 -1.41447 -4.18862 0
M  V30 6494 N 606.021 0.929856 -1.27246 0
M  V30 6495 C 607.432 1.49223 -1.12203 0
M  V30 6496 C 607.783 1.93989 0.293731 0
M  V30 6497 O 606.908 1.80978 1.18642 0
M  V30 6498 C 607.503 2.71198 -2.0307 0
M  V30 6499 C 606.062 3.23666 -1.92139 0
M  V30 6500 C 605.209 1.96409 -1.95752 0
M  V30 6501 H 608.16 0.744181 -1.4017 0
M  V30 6502 H 608.181 3.45905 -1.58524 0
M  V30 6503 H 607.693 2.38585 -3.06102 0
M  V30 6504 H 605.794 3.61042 -0.920834 0
M  V30 6505 H 605.907 3.90006 -2.78267 0
M  V30 6506 H 604.271 2.12806 -1.39949 0
M  V30 6507 H 605.054 1.66113 -3.00436 0
M  V30 6508 N 607.499 1.09233 1.13605 0
M  V30 6509 C 608.915 0.82163 1.36826 0
M  V30 6510 C 609.115 -0.565021 1.93416 0
M  V30 6511 O 608.171 -1.32026 2.15234 0
M  V30 6512 C 609.484 1.91124 2.32147 0
M  V30 6513 C 611.032 1.93824 2.45767 0
M  V30 6514 C 611.507 3.01923 3.44393 0
M  V30 6515 N 612.998 3.01149 3.51942 0
M  V30 6516 C 613.733 3.81434 4.2813 0
M  V30 6517 N 613.229 4.71621 5.07489 0
M  V30 6518 N 615.022 3.69702 4.23411 0
M  V30 6519 H 607.173 1.98633 0.752234 0
M  V30 6520 H 609.436 0.862482 0.393482 0
M  V30 6521 H 609.142 2.90862 1.97717 0
M  V30 6522 H 609.016 1.78777 3.32142 0
M  V30 6523 H 611.403 0.94726 2.79483 0
M  V30 6524 H 611.484 2.10248 1.45703 0
M  V30 6525 H 611.128 4.01232 3.11408 0
M  V30 6526 H 611.058 2.82742 4.44257 0
M  V30 6527 H 613.549 2.35789 2.95317 0
M  V30 6528 H 613.862 5.29468 5.62924 0
M  V30 6529 H 612.207 4.75658 5.06729 0
M  V30 6530 H 615.398 2.98606 3.60489 0
M  V30 6531 H 615.571 4.32509 4.82535 0
M  V30 6532 N 608.977 -1.30795 0.87923 0
M  V30 6533 C 609.909 -2.27241 0.299025 0
M  V30 6534 C 610.922 -1.53472 -0.543166 0
M  V30 6535 O 612.111 -1.74756 -0.363651 0
M  V30 6536 C 609.211 -3.33655 -0.593931 0
M  V30 6537 C 608.384 -4.36857 0.2179 0
M  V30 6538 C 607.443 -5.22715 -0.604646 0
M  V30 6539 O 606.469 -5.69192 -0.0293838 0
M  V30 6540 N 607.671 -5.48008 -1.91488 0
M  V30 6541 H 610.436 -2.77667 1.12788 0
M  V30 6542 H 607.997 -1.43914 0.741637 0
M  V30 6543 H 609.989 -3.88013 -1.15012 0
M  V30 6544 H 608.559 -2.83202 -1.32346 0
M  V30 6545 H 607.779 -3.82444 0.955536 0
M  V30 6546 H 609.067 -5.02869 0.774614 0
M  V30 6547 H 608.465 -5.1202 -2.40525 0
M  V30 6548 H 607.022 -6.05264 -2.41864 0
M  V30 6549 N 610.455 -0.639598 -1.44038 0
M  V30 6550 C 611.403 0.0723409 -2.32487 0
M  V30 6551 C 612.397 0.827129 -1.47834 0
M  V30 6552 O 613.603 0.73907 -1.64127 0
M  V30 6553 H 609.978 0.0421696 -0.750817 0
M  V30 6554 H 611.949 -0.691593 -2.90275 0
M  V30 6555 C 610.698 1.03452 -3.31953 0
M  V30 6556 H 610.021 0.46315 -3.97108 0
M  V30 6557 H 611.461 1.502 -3.96505 0
M  V30 6558 C 609.92 2.12392 -2.61518 0
M  V30 6559 O 610.45 3.2059 -2.42044 0
M  V30 6560 N 608.656 1.88563 -2.21116 0
M  V30 6561 H 608.203 1.00577 -2.37154 0
M  V30 6562 H 608.161 2.61651 -1.74316 0
M  V30 6563 N 611.933 1.52934 -0.380664 0
M  V30 6564 C 613.158 2.06363 0.207157 0
M  V30 6565 C 613.583 1.25122 1.4045 0
M  V30 6566 O 612.941 0.274062 1.79217 0
M  V30 6567 C 612.989 3.56162 0.563996 0
M  V30 6568 O 612.093 3.77552 1.65917 0
M  V30 6569 H 611.434 0.663468 0.0265859 0
M  V30 6570 H 613.964 1.9719 -0.545635 0
M  V30 6571 H 613.974 3.99453 0.830752 0
M  V30 6572 H 612.649 4.14732 -0.311427 0
M  V30 6573 H 611.226 3.46154 1.3868 0
M  V30 6574 N 613.412 0.11024 1.57214 0
M  V30 6575 C 614.375 -0.828808 2.1369 0
M  V30 6576 C 615.375 -1.20059 1.06969 0
M  V30 6577 O 616.565 -1.12754 1.32786 0
M  V30 6578 C 613.697 -2.11959 2.66994 0
M  V30 6579 H 614.89 -0.338146 2.97988 0
M  V30 6580 H 612.443 -0.138913 1.55681 0
M  V30 6581 H 613.178 -2.65476 1.8626 0
M  V30 6582 H 612.963 -1.86258 3.45037 0
M  V30 6583 H 614.453 -2.79105 3.10629 0
M  V30 6584 N 614.89 -1.56749 -0.16351 0
M  V30 6585 C 616.301 -1.72039 -0.725216 0
M  V30 6586 C 616.652 -0.72202 -1.82432 0
M  V30 6587 O 615.777 0.114942 -2.16095 0
M  V30 6588 C 616.372 -3.11932 -1.32227 0
M  V30 6589 C 614.931 -3.28879 -1.83072 0
M  V30 6590 C 614.078 -2.67984 -0.712716 0
M  V30 6591 H 617.029 -1.58579 0.0619772 0
M  V30 6592 H 617.05 -3.11015 -2.19202 0
M  V30 6593 H 616.562 -3.84572 -0.522103 0
M  V30 6594 H 614.663 -2.61209 -2.65708 0
M  V30 6595 H 614.776 -4.36688 -1.97079 0
M  V30 6596 H 613.14 -2.28005 -1.13515 0
M  V30 6597 H 613.923 -3.43216 0.0757361 0
M  V30 6598 N 616.368 0.432326 -1.51554 0
M  V30 6599 C 617.298 1.53242 -1.76179 0
M  V30 6600 C 618.279 1.58717 -0.611801 0
M  V30 6601 O 619.464 1.74364 -0.855033 0
M  V30 6602 C 616.594 2.91278 -1.89141 0
M  V30 6603 C 615.548 3.00663 -3.04608 0
M  V30 6604 C 614.874 4.40728 -3.02759 0
M  V30 6605 C 616.174 2.74281 -4.44485 0
M  V30 6606 H 617.868 1.32886 -2.68294 0
M  V30 6607 H 615.414 0.637841 -1.29103 0
M  V30 6608 H 617.367 3.68203 -2.04951 0
M  V30 6609 H 616.091 3.12877 -0.936785 0
M  V30 6610 H 614.75 2.26179 -2.88511 0
M  V30 6611 H 614.398 4.59301 -2.05065 0
M  V30 6612 H 614.098 4.47936 -3.80299 0
M  V30 6613 H 615.622 5.19619 -3.20669 0
M  V30 6614 H 617.036 3.40936 -4.60907 0
M  V30 6615 H 615.433 2.92893 -5.23769 0
M  V30 6616 H 616.503 1.69856 -4.54177 0
M  V30 6617 N 617.846 1.41785 0.688094 0
M  V30 6618 C 618.776 1.47 1.8142 0
M  V30 6619 C 619.757 0.327881 1.6691 0
M  V30 6620 O 620.942 0.540362 1.86531 0
M  V30 6621 C 618.072 1.35876 3.19617 0
M  V30 6622 C 617.026 2.47976 3.48844 0
M  V30 6623 C 616.352 2.21915 4.86475 0
M  V30 6624 C 617.652 3.90309 3.47068 0
M  V30 6625 H 619.346 2.41247 1.77314 0
M  V30 6626 H 616.892 1.16116 0.851651 0
M  V30 6627 H 618.845 1.38134 3.98117 0
M  V30 6628 H 617.569 0.38116 3.24368 0
M  V30 6629 H 616.228 2.45013 2.72698 0
M  V30 6630 H 615.876 1.2248 4.8786 0
M  V30 6631 H 615.576 2.97037 5.06994 0
M  V30 6632 H 617.1 2.25901 5.67275 0
M  V30 6633 H 618.514 3.94947 4.1556 0
M  V30 6634 H 616.911 4.65175 3.7912 0
M  V30 6635 H 617.981 4.17927 2.45896 0
M  V30 6636 N 619.324 -0.923095 1.27737 0
M  V30 6637 C 620.256 -2.02871 1.06658 0
M  V30 6638 C 621.269 -1.62786 0.0212095 0
M  V30 6639 O 622.458 -1.76548 0.263267 0
M  V30 6640 C 619.558 -3.33603 0.59682 0
M  V30 6641 C 618.731 -4.02354 1.71551 0
M  V30 6642 C 617.79 -5.11364 1.24071 0
M  V30 6643 O 616.816 -5.35075 1.94123 0
M  V30 6644 N 618.018 -5.80416 0.0988444 0
M  V30 6645 H 620.783 -2.21515 2.01869 0
M  V30 6646 H 618.344 -1.09378 1.19365 0
M  V30 6647 H 620.336 -4.03845 0.262984 0
M  V30 6648 H 618.906 -3.11499 -0.262187 0
M  V30 6649 H 618.126 -3.25786 2.2194 0
M  V30 6650 H 619.414 -4.45035 2.46619 0
M  V30 6651 H 618.812 -5.63611 -0.485743 0
M  V30 6652 H 617.369 -6.51563 -0.17578 0
M  V30 6653 N 620.802 -1.09834 -1.13024 0
M  V30 6654 C 622.03 -0.858902 -1.8823 0
M  V30 6655 C 622.445 0.590164 -1.79339 0
M  V30 6656 O 621.802 1.4065 -1.16292 0
M  V30 6657 C 621.853 -1.29066 -3.37675 0
M  V30 6658 O 621.574 -2.6829 -3.46341 0
M  V30 6659 C 623.075 -1.08421 -4.29837 0
M  V30 6660 H 620.295 -0.308713 -0.595766 0
M  V30 6661 H 622.839 -1.4614 -1.4305 0
M  V30 6662 H 620.994 -0.731961 -3.80422 0
M  V30 6663 H 621.408 -2.86598 -4.39274 0
M  V30 6664 H 622.882 -1.43553 -5.33007 0
M  V30 6665 H 623.359 -0.0223315 -4.39194 0
M  V30 6666 H 623.965 -1.62907 -3.92863 0
M  V30 6667 N 622.28 1.30327 -0.886154 0
M  V30 6668 C 623.243 2.26376 -0.358687 0
M  V30 6669 C 624.243 1.52845 0.499498 0
M  V30 6670 O 625.433 1.71483 0.306485 0
M  V30 6671 C 622.565 3.37379 0.488726 0
M  V30 6672 H 623.758 2.74547 -1.20681 0
M  V30 6673 H 621.311 1.41536 -0.663113 0
M  V30 6674 H 622.046 2.94526 1.35739 0
M  V30 6675 H 621.831 3.91897 -0.126003 0
M  V30 6676 H 623.321 4.08868 0.84952 0
M  V30 6677 N 623.758 0.647228 1.43697 0
M  V30 6678 C 624.688 -0.0345631 2.33474 0
M  V30 6679 C 625.669 -0.818193 1.4913 0
M  V30 6680 O 626.854 -0.780867 1.77809 0
M  V30 6681 C 623.984 -1.00576 3.32418 0
M  V30 6682 C 622.938 -0.33266 4.26705 0
M  V30 6683 C 622.264 -1.41489 5.1564 0
M  V30 6684 C 623.564 0.771204 5.16575 0
M  V30 6685 H 625.258 0.715163 2.90733 0
M  V30 6686 H 622.804 0.345364 1.39797 0
M  V30 6687 H 624.757 -1.49159 3.94119 0
M  V30 6688 H 623.481 -1.78657 2.73403 0
M  V30 6689 H 622.14 0.13267 3.6636 0
M  V30 6690 H 621.788 -2.18698 4.52968 0
M  V30 6691 H 621.488 -0.969799 5.79542 0
M  V30 6692 H 623.012 -1.9022 5.80214 0
M  V30 6693 H 624.426 0.36779 5.72119 0
M  V30 6694 H 622.823 1.1404 5.89165 0
M  V30 6695 H 623.893 1.63169 4.56622 0
M  V30 6696 N 625.236 -1.5273 0.388769 0
M  V30 6697 C 626.166 -2.29353 -0.438111 0
M  V30 6698 C 627.147 -1.32719 -1.06394 0
M  V30 6699 O 628.332 -1.61612 -1.07681 0
M  V30 6700 C 625.462 -3.09995 -1.56589 0
M  V30 6701 C 624.416 -4.14509 -1.06613 0
M  V30 6702 C 623.742 -4.83372 -2.28594 0
M  V30 6703 C 625.042 -5.22127 -0.134459 0
M  V30 6704 H 626.736 -2.98723 0.201206 0
M  V30 6705 H 624.282 -1.43665 0.0982089 0
M  V30 6706 H 626.235 -3.62357 -2.15118 0
M  V30 6707 H 624.959 -2.38357 -2.23279 0
M  V30 6708 H 623.618 -3.63128 -0.503383 0
M  V30 6709 H 623.266 -4.08283 -2.93792 0
M  V30 6710 H 622.966 -5.54012 -1.95817 0
M  V30 6711 H 624.49 -5.38538 -2.87766 0
M  V30 6712 H 625.904 -5.69851 -0.627914 0
M  V30 6713 H 624.301 -6.00011 0.103534 0
M  V30 6714 H 625.371 -4.77971 0.816798 0
M  V30 6715 N 626.714 -0.118576 -1.57153 0
M  V30 6716 C 627.962 0.538461 -1.94795 0
M  V30 6717 C 628.283 1.67243 -1.00274 0
M  V30 6718 O 627.553 1.95811 -0.0589692 0
M  V30 6719 H 626.133 0.201904 -0.719197 0
M  V30 6720 H 628.795 -0.187418 -1.93997 0
M  V30 6721 H 627.891 0.933315 -2.97818 0
M  V30 6722 N 628.193 1.56834 0.155195 0
M  V30 6723 C 629.141 1.98584 1.21107 0
M  V30 6724 C 630.135 0.876987 1.44932 0
M  V30 6725 O 631.341 1.06215 1.45322 0
M  V30 6726 H 627.716 0.632039 0.407469 0
M  V30 6727 H 629.687 2.86561 0.832195 0
M  V30 6728 C 628.436 2.37555 2.53895 0
M  V30 6729 H 627.759 3.22428 2.3639 0
M  V30 6730 H 629.199 2.70598 3.26424 0
M  V30 6731 C 627.658 1.22507 3.13837 0
M  V30 6732 O 628.188 0.521388 3.98302 0
M  V30 6733 N 626.394 0.991444 2.73164 0
M  V30 6734 H 625.941 1.56544 2.04577 0
M  V30 6735 H 625.899 0.223546 3.13604 0
M  V30 6736 N 629.671 -0.424282 1.51781 0
M  V30 6737 C 630.919 -1.17028 1.64769 0
M  V30 6738 C 631.24 -1.91409 0.372523 0
M  V30 6739 O 630.51 -1.86091 -0.612108 0
M  V30 6740 H 629.09 -0.434992 0.607282 0
M  V30 6741 H 631.752 -0.485169 1.88765 0
M  V30 6742 H 630.848 -1.8927 2.4816 0
M  V30 6743 N 631.149 -1.42148 -0.680565 0
M  V30 6744 C 632.059 -1.47565 -1.82378 0
M  V30 6745 C 633.075 -0.36489 -1.70131 0
M  V30 6746 O 634.251 -0.614916 -1.91783 0
M  V30 6747 C 631.316 -1.37013 -3.18478 0
M  V30 6748 C 630.377 -2.58532 -3.42724 0
M  V30 6749 C 629.61 -2.48473 -4.72331 0
M  V30 6750 O 629.833 -1.51745 -5.49845 0
M  V30 6751 O 628.767 -3.38503 -4.97694 0
M  V30 6752 H 632.593 -2.44045 -1.80764 0
M  V30 6753 H 630.178 -1.23849 -0.835569 0
M  V30 6754 H 632.06 -1.33468 -3.99705 0
M  V30 6755 H 630.735 -0.436552 -3.20743 0
M  V30 6756 H 629.642 -2.67652 -2.61368 0
M  V30 6757 H 630.975 -3.50769 -3.45286 0
M  V30 6758 N 632.627 0.916307 -1.28225 0
M  V30 6759 C 634.043 1.19425 -1.05876 0
M  V30 6760 C 634.243 2.005 0.2005 0
M  V30 6761 O 633.299 2.35806 0.902873 0
M  V30 6762 C 634.612 1.93133 -2.30478 0
M  V30 6763 C 636.16 2.06026 -2.35632 0
M  V30 6764 C 636.635 2.83141 -3.59994 0
M  V30 6765 N 638.126 2.90704 -3.60618 0
M  V30 6766 C 638.861 3.50865 -4.53521 0
M  V30 6767 N 638.357 4.12327 -5.56739 0
M  V30 6768 N 640.15 3.48379 -4.41122 0
M  V30 6769 H 632.301 0.37496 -2.09064 0
M  V30 6770 H 634.564 0.228531 -0.920042 0
M  V30 6771 H 634.27 1.40985 -3.22205 0
M  V30 6772 H 634.144 2.93696 -2.36691 0
M  V30 6773 H 636.531 2.57355 -1.44404 0
M  V30 6774 H 636.612 1.04647 -2.33415 0
M  V30 6775 H 636.256 2.32492 -4.51564 0
M  V30 6776 H 636.186 3.84829 -3.59464 0
M  V30 6777 H 638.677 2.47034 -2.85977 0
M  V30 6778 H 638.99 4.56205 -6.23776 0
M  V30 6779 H 637.335 4.10839 -5.60568 0
M  V30 6780 H 640.526 2.99572 -3.59686 0
M  V30 6781 H 640.699 3.94974 -5.13712 0
M  V30 6782 N 634.105 1.10431 1.1244 0
M  V30 6783 C 635.516 0.864439 1.65482 0
M  V30 6784 C 635.867 -0.60527 1.8663 0
M  V30 6785 O 634.992 -1.46492 1.59276 0
M  V30 6786 C 635.587 1.56267 3.0061 0
M  V30 6787 C 634.146 1.3695 3.50602 0
M  V30 6788 C 633.293 1.61209 2.25626 0
M  V30 6789 H 636.244 1.26203 0.962209 0
M  V30 6790 H 636.265 1.00166 3.67079 0
M  V30 6791 H 635.777 2.63231 2.85186 0
M  V30 6792 H 633.878 0.321481 3.71211 0
M  V30 6793 H 633.991 2.11143 4.30064 0
M  V30 6794 H 632.355 1.03482 2.32731 0
M  V30 6795 H 633.138 2.69425 2.12756 0
M  V30 6796 N 635.583 -1.29855 0.893053 0
M  V30 6797 C 636.994 -1.77946 0.564998 0
M  V30 6798 C 637.345 -1.73339 -0.919134 0
M  V30 6799 O 636.47 -1.3152 -1.71847 0
M  V30 6800 C 637.065 -3.23118 1.01883 0
M  V30 6801 C 635.624 -3.69013 0.742051 0
M  V30 6802 C 634.771 -2.50121 1.19727 0
M  V30 6803 H 637.722 -1.16611 1.07646 0
M  V30 6804 H 637.743 -3.78875 0.351249 0
M  V30 6805 H 637.255 -3.26439 2.09903 0
M  V30 6806 H 635.356 -3.71173 -0.325816 0
M  V30 6807 H 635.469 -4.60117 1.33527 0
M  V30 6808 H 633.833 -2.47128 0.616418 0
M  V30 6809 H 634.616 -2.56174 2.28538 0
M  V30 6810 N 637.061 -0.65484 -1.43351 0
M  V30 6811 C 638.309 -0.168559 -2.01396 0
M  V30 6812 C 638.63 1.22235 -1.51933 0
M  V30 6813 O 637.9 1.81685 -0.732627 0
M  V30 6814 H 636.48 -0.0593244 -0.744641 0
M  V30 6815 H 639.142 -0.846871 -1.75539 0
M  V30 6816 H 638.238 -0.154428 -3.11718 0
M  V30 6817 N 638.539 1.52521 -0.396863 0
M  V30 6818 C 639.502 2.2527 0.422604 0
M  V30 6819 C 640.502 1.27184 0.983913 0
M  V30 6820 O 641.692 1.51222 0.864723 0
M  V30 6821 C 638.824 3.01356 1.59365 0
M  V30 6822 H 640.017 2.99133 -0.214416 0
M  V30 6823 H 637.57 1.55587 -0.149128 0
M  V30 6824 H 638.305 2.31813 2.26789 0
M  V30 6825 H 638.09 3.73357 1.19779 0
M  V30 6826 H 639.58 3.56571 2.17363 0
M  V30 6827 N 640.017 0.126909 1.57088 0
M  V30 6828 C 640.964 -0.82036 2.15728 0
M  V30 6829 C 641.934 -1.25811 1.08447 0
M  V30 6830 O 643.119 -1.33422 1.36393 0
M  V30 6831 C 640.259 -2.06199 2.76724 0
M  V30 6832 C 639.372 -1.67188 3.98337 0
M  V30 6833 C 638.507 -2.86378 4.47393 0
M  V30 6834 C 637.546 -2.43644 5.61519 0
M  V30 6835 N 636.683 -3.55775 6.05284 0
M  V30 6836 H 641.523 -0.313472 2.96347 0
M  V30 6837 H 639.06 -0.14303 1.46403 0
M  V30 6838 H 641.018 -2.78959 3.10222 0
M  V30 6839 H 639.648 -2.54333 1.98782 0
M  V30 6840 H 638.7 -0.842714 3.70948 0
M  V30 6841 H 640.012 -1.31789 4.81075 0
M  V30 6842 H 639.166 -3.67353 4.82842 0
M  V30 6843 H 637.905 -3.25009 3.63621 0
M  V30 6844 H 636.91 -1.61104 5.25667 0
M  V30 6845 H 638.135 -2.06122 6.47063 0
M  V30 6846 H 636.081 -3.94065 5.24451 0
M  V30 6847 H 635.998 -3.24325 6.82898 0
M  V30 6848 H 637.266 -4.37166 6.45373 0
M  V30 6849 N 641.495 -1.56914 -0.146875 0
M  V30 6850 C 642.405 -2.0154 -1.20079 0
M  V30 6851 C 643.421 -0.930838 -1.47008 0
M  V30 6852 O 644.597 -1.24032 -1.58676 0
M  V30 6853 C 641.662 -2.38715 -2.51428 0
M  V30 6854 C 640.723 -3.6112 -2.32145 0
M  V30 6855 C 639.956 -3.96512 -3.57231 0
M  V30 6856 O 640.179 -3.32566 -4.63418 0
M  V30 6857 O 639.113 -4.89758 -3.49887 0
M  V30 6858 H 642.939 -2.91506 -0.851924 0
M  V30 6859 H 640.524 -1.45106 -0.355607 0
M  V30 6860 H 642.406 -2.63485 -3.28867 0
M  V30 6861 H 641.081 -1.51903 -2.85845 0
M  V30 6862 H 639.988 -3.41536 -1.52656 0
M  V30 6863 H 641.321 -4.48549 -2.02644 0
M  V30 6864 N 642.974 0.416227 -1.52004 0
M  V30 6865 C 643.937 1.48926 -1.74223 0
M  V30 6866 C 644.937 1.48693 -0.612119 0
M  V30 6867 O 646.127 1.50343 -0.879921 0
M  V30 6868 C 643.259 2.88372 -1.81809 0
M  V30 6869 H 644.452 1.3052 -2.70008 0
M  V30 6870 H 642.005 0.646271 -1.42313 0
M  V30 6871 H 642.74 3.12157 -0.879135 0
M  V30 6872 H 642.525 2.89944 -2.6396 0
M  V30 6873 H 644.015 3.66173 -2.00766 0
M  V30 6874 N 644.452 1.42507 0.673017 0
M  V30 6875 C 645.863 1.38347 1.25367 0
M  V30 6876 C 646.214 0.0776327 1.96046 0
M  V30 6877 O 645.339 -0.823571 2.00116 0
M  V30 6878 C 645.934 2.506 2.28002 0
M  V30 6879 C 644.493 2.49767 2.81591 0
M  V30 6880 C 643.64 2.293 1.55938 0
M  V30 6881 H 646.591 1.51695 0.466288 0
M  V30 6882 H 646.612 2.20953 3.09774 0
M  V30 6883 H 646.124 3.45627 1.76532 0
M  V30 6884 H 644.225 1.58563 3.37177 0
M  V30 6885 H 644.338 3.46867 3.30485 0
M  V30 6886 H 642.702 1.77594 1.82572 0
M  V30 6887 H 643.485 3.26385 1.06431 0
M  V30 6888 N 645.93 -0.909495 1.28709 0
M  V30 6889 C 647.341 -1.47419 1.14563 0
M  V30 6890 C 647.692 -1.94432 -0.262832 0
M  V30 6891 O 646.817 -1.82842 -1.15748 0
M  V30 6892 C 647.412 -2.67933 2.07358 0
M  V30 6893 C 645.971 -3.20568 1.97264 0
M  V30 6894 C 645.118 -1.93269 1.98852 0
M  V30 6895 H 648.069 -0.721787 1.41336 0
M  V30 6896 H 648.09 -3.43339 1.64007 0
M  V30 6897 H 647.602 -2.33685 3.09859 0
M  V30 6898 H 645.703 -3.59531 0.978157 0
M  V30 6899 H 645.816 -3.85529 2.84436 0
M  V30 6900 H 644.18 -2.10553 1.43317 0
M  V30 6901 H 644.963 -1.61312 3.0304 0
M  V30 6902 N 647.408 -1.11026 -1.11852 0
M  V30 6903 C 648.338 -0.786812 -2.19844 0
M  V30 6904 C 649.319 0.242935 -1.68356 0
M  V30 6905 O 650.504 0.107355 -1.93903 0
M  V30 6906 C 647.634 -0.224516 -3.46574 0
M  V30 6907 C 646.588 -1.18564 -4.1125 0
M  V30 6908 C 645.914 -0.484261 -5.32503 0
M  V30 6909 C 647.214 -2.53465 -4.56676 0
M  V30 6910 H 648.908 -1.68978 -2.47158 0
M  V30 6911 H 646.454 -0.813906 -1.18792 0
M  V30 6912 H 648.407 0.0139435 -4.21398 0
M  V30 6913 H 647.131 0.713722 -3.18706 0
M  V30 6914 H 645.79 -1.40966 -3.38414 0
M  V30 6915 H 645.438 0.458646 -5.00905 0
M  V30 6916 H 645.138 -1.12526 -5.76725 0
M  V30 6917 H 646.662 -0.254492 -6.10069 0
M  V30 6918 H 648.076 -2.35177 -5.22843 0
M  V30 6919 H 646.473 -3.13507 -5.11697 0
M  V30 6920 H 647.543 -3.13008 -3.70343 0
M  V30 6921 N 648.886 1.2938 -0.899927 0
M  V30 6922 C 650.114 1.99691 -0.541386 0
M  V30 6923 C 650.529 1.67355 0.873936 0
M  V30 6924 O 649.886 0.918728 1.57688 0
M  V30 6925 C 649.937 3.54168 -0.72438 0
M  V30 6926 O 649.658 3.85359 -2.08399 0
M  V30 6927 C 651.159 4.41746 -0.370819 0
M  V30 6928 H 648.379 0.638037 -0.207726 0
M  V30 6929 H 650.923 1.6491 -1.20934 0
M  V30 6930 H 649.078 3.87261 -0.103607 0
M  V30 6931 H 649.492 4.80032 -2.11352 0
M  V30 6932 H 650.966 5.49256 -0.549693 0
M  V30 6933 H 651.443 4.33712 0.692148 0
M  V30 6934 H 652.049 4.14125 -0.968543 0
M  V30 6935 N 650.364 0.662433 1.43002 0
M  V30 6936 C 651.294 -0.00979809 2.33498 0
M  V30 6937 C 652.275 -0.802329 1.49989 0
M  V30 6938 O 653.46 -0.761964 1.78627 0
M  V30 6939 C 650.59 -0.970446 3.33466 0
M  V30 6940 C 649.544 -0.287383 4.27034 0
M  V30 6941 C 648.87 -1.36012 5.17112 0
M  V30 6942 C 650.17 0.82595 5.15728 0
M  V30 6943 H 651.864 0.745959 2.89958 0
M  V30 6944 H 649.41 0.360172 1.39423 0
M  V30 6945 H 651.363 -1.44971 3.95679 0
M  V30 6946 H 650.087 -1.75748 2.75282 0
M  V30 6947 H 648.746 0.17152 3.66199 0
M  V30 6948 H 648.394 -2.13882 4.55262 0
M  V30 6949 H 648.094 -0.908276 5.80538 0
M  V30 6950 H 649.618 -1.84056 5.82199 0
M  V30 6951 H 651.032 0.42845 5.71697 0
M  V30 6952 H 649.429 1.20282 5.87922 0
M  V30 6953 H 650.499 1.68003 4.54866 0
M  V30 6954 N 651.842 -1.52309 0.404946 0
M  V30 6955 C 653.067 -2.06666 -0.1743 0
M  V30 6956 C 653.492 -1.27341 -1.38441 0
M  V30 6957 O 652.85 -0.302539 -1.78758 0
M  V30 6958 C 652.898 -3.57014 -0.507262 0
M  V30 6959 O 652.002 -3.80144 -1.59889 0
M  V30 6960 H 651.343 -0.663807 -0.0160273 0
M  V30 6961 H 653.873 -1.96297 0.576937 0
M  V30 6962 H 653.883 -4.00724 -0.767098 0
M  V30 6963 H 652.558 -4.14184 0.377368 0
M  V30 6964 H 651.135 -3.48316 -1.33155 0
M  V30 6965 N 653.32 -0.135238 -1.57019 0
M  V30 6966 C 654.25 0.805235 -2.19176 0
M  V30 6967 C 655.231 1.2656 -1.13651 0
M  V30 6968 O 656.416 1.32528 -1.4195 0
M  V30 6969 C 653.546 2.04914 -2.80406 0
M  V30 6970 C 652.5 1.72598 -3.91655 0
M  V30 6971 C 651.826 3.04154 -4.39766 0
M  V30 6972 C 653.126 0.981709 -5.12991 0
M  V30 6973 H 654.82 0.287232 -2.98019 0
M  V30 6974 H 652.366 0.136714 -1.4335 0
M  V30 6975 H 654.319 2.71178 -3.22553 0
M  V30 6976 H 653.043 2.59067 -1.98877 0
M  V30 6977 H 651.702 1.08717 -3.50109 0
M  V30 6978 H 651.35 3.56274 -3.55075 0
M  V30 6979 H 651.05 2.83299 -5.14796 0
M  V30 6980 H 652.574 3.71509 -4.84576 0
M  V30 6981 H 653.988 1.5462 -5.52056 0
M  V30 6982 H 652.385 0.873533 -5.93708 0
M  V30 6983 H 653.455 -0.0286887 -4.84892 0
M  V30 6984 N 654.798 1.5699 0.138552 0
M  V30 6985 C 656.044 1.84081 0.85099 0
M  V30 6986 C 656.377 0.718107 1.80435 0
M  V30 6987 O 655.652 -0.277633 1.92508 0
M  V30 6988 C 655.935 3.21699 1.61808 0
M  V30 6989 C 655.788 4.44544 0.685633 0
M  V30 6990 C 657.107 3.5664 2.57868 0
M  V30 6991 H 654.226 0.669592 0.307922 0
M  V30 6992 H 656.868 1.89646 0.11588 0
M  V30 6993 H 655.018 3.17086 2.24474 0
M  V30 6994 H 656.69 4.61248 0.0693179 0
M  V30 6995 H 654.933 4.338 -0.00421993 0
M  V30 6996 H 655.604 5.3746 1.25858 0
M  V30 6997 H 658.08 3.61918 2.05316 0
M  V30 6998 H 656.956 4.53946 3.08584 0
M  V30 6999 H 657.217 2.83036 3.39622 0
M  V30 7000 N 656.276 -0.40816 1.52223 0
M  V30 7001 C 657.223 -1.49737 1.75635 0
M  V30 7002 C 658.193 -1.5493 0.598824 0
M  V30 7003 O 659.378 -1.71487 0.83648 0
M  V30 7004 C 656.518 -2.87174 1.91376 0
M  V30 7005 C 655.631 -2.91283 3.19027 0
M  V30 7006 C 654.766 -4.20026 3.25195 0
M  V30 7007 C 653.805 -4.18113 4.47044 0
M  V30 7008 N 652.942 -5.38429 4.50598 0
M  V30 7009 H 657.782 -1.29075 2.68596 0
M  V30 7010 H 655.319 -0.626518 1.33091 0
M  V30 7011 H 657.277 -3.66959 1.98486 0
M  V30 7012 H 655.907 -3.06329 1.01795 0
M  V30 7013 H 654.959 -2.03984 3.21084 0
M  V30 7014 H 656.271 -2.85734 4.08849 0
M  V30 7015 H 655.425 -5.08204 3.31382 0
M  V30 7016 H 654.164 -4.28271 2.33313 0
M  V30 7017 H 653.169 -3.28325 4.41002 0
M  V30 7018 H 654.394 -4.11507 5.40221 0
M  V30 7019 H 652.34 -5.4734 3.616 0
M  V30 7020 H 652.257 -5.34879 5.34266 0
M  V30 7021 H 653.525 -6.28557 4.61016 0
M  V30 7022 N 657.755 -1.42862 -0.66545 0
M  V30 7023 C 659.166 -1.3901 -1.24632 0
M  V30 7024 C 659.517 -0.0880285 -1.96002 0
M  V30 7025 O 658.642 0.812947 -2.0055 0
M  V30 7026 C 659.237 -2.51806 -2.2667 0
M  V30 7027 C 657.796 -2.51257 -2.80262 0
M  V30 7028 C 656.943 -2.30124 -1.5472 0
M  V30 7029 H 659.894 -1.5194 -0.458237 0
M  V30 7030 H 659.915 -2.22593 -3.08598 0
M  V30 7031 H 659.427 -3.46558 -1.74697 0
M  V30 7032 H 657.528 -1.60349 -3.36332 0
M  V30 7033 H 657.641 -3.48614 -3.28641 0
M  V30 7034 H 656.005 -1.7856 -1.81627 0
M  V30 7035 H 656.788 -3.26945 -1.04699 0
M  V30 7036 N 659.233 0.902656 -1.29189 0
M  V30 7037 C 660.458 1.69167 -1.19989 0
M  V30 7038 C 660.883 1.86607 0.236495 0
M  V30 7039 O 660.241 1.38425 1.17082 0
M  V30 7040 C 660.289 3.05532 -1.91527 0
M  V30 7041 O 659.393 3.93621 -1.2303 0
M  V30 7042 H 658.734 0.517584 -0.415936 0
M  V30 7043 H 661.264 1.12785 -1.70706 0
M  V30 7044 H 661.274 3.55693 -1.99866 0
M  V30 7045 H 659.949 2.92156 -2.96003 0
M  V30 7046 H 658.526 3.52055 -1.22928 0
M  V30 7047 N 660.711 1.11618 1.11262 0
M  V30 7048 C 661.959 0.864469 1.82678 0
M  V30 7049 C 662.28 -0.611564 1.85162 0
M  V30 7050 O 661.55 -1.44429 1.32352 0
M  V30 7051 H 660.13 0.316821 0.676486 0
M  V30 7052 H 662.792 1.40894 1.34666 0
M  V30 7053 H 661.888 1.23832 2.86482 0
M  V30 7054 N 662.189 -1.289 0.906776 0
M  V30 7055 C 663.605 -1.47733 0.603902 0
M  V30 7056 C 663.805 -1.82568 -0.852702 0
M  V30 7057 O 662.861 -1.92642 -1.63234 0
M  V30 7058 C 664.174 -2.58522 1.53581 0
M  V30 7059 C 665.722 -2.72394 1.54177 0
M  V30 7060 C 666.197 -3.86318 2.46013 0
M  V30 7061 N 667.688 -3.93661 2.441 0
M  V30 7062 C 668.423 -4.81177 3.11859 0
M  V30 7063 N 667.919 -5.73333 3.88923 0
M  V30 7064 N 669.712 -4.74728 3.00981 0
M  V30 7065 H 661.863 -1.04567 1.84877 0
M  V30 7066 H 664.126 -0.520118 0.792579 0
M  V30 7067 H 663.832 -2.39667 2.57396 0
M  V30 7068 H 663.706 -3.55475 1.26165 0
M  V30 7069 H 666.093 -2.90641 0.511034 0
M  V30 7070 H 666.174 -1.75993 1.85634 0
M  V30 7071 H 665.818 -3.68826 3.49185 0
M  V30 7072 H 665.748 -4.82102 2.11862 0
M  V30 7073 H 668.239 -3.27751 1.88115 0
M  V30 7074 H 668.552 -6.36923 4.37663 0
M  V30 7075 H 666.897 -5.73196 3.93029 0
M  V30 7076 H 670.088 -4.01722 2.40286 0
M  V30 7077 H 670.261 -5.42719 3.54062 0
M  V30 7078 N 663.667 -0.670007 -1.42649 0
M  V30 7079 C 664.915 -0.18991 -2.01206 0
M  V30 7080 C 665.236 1.20617 -1.53221 0
M  V30 7081 O 664.506 1.80898 -0.751856 0
M  V30 7082 H 663.086 -0.0672189 -0.743969 0
M  V30 7083 H 665.748 -0.865442 -1.74631 0
M  V30 7084 H 664.844 -0.187481 -3.11536 0
M  V30 7085 N 665.145 1.52092 -0.413018 0
M  V30 7086 C 666.108 2.25706 0.398687 0
M  V30 7087 C 667.108 1.28221 0.970368 0
M  V30 7088 O 668.298 1.52131 0.848635 0
M  V30 7089 C 665.43 3.03029 1.5616 0
M  V30 7090 H 666.623 2.98888 -0.246131 0
M  V30 7091 H 664.176 1.5542 -0.165622 0
M  V30 7092 H 664.911 2.34205 2.24317 0
M  V30 7093 H 664.696 3.74606 1.15812 0
M  V30 7094 H 666.186 3.58857 2.13569 0
M  V30 7095 N 666.623 0.143563 1.56945 0
M  V30 7096 C 667.586 -0.783295 2.154 0
M  V30 7097 C 668.586 -1.17763 1.09492 0
M  V30 7098 O 669.776 -1.09912 1.35148 0
M  V30 7099 C 666.908 -2.06248 2.7143 0
M  V30 7100 H 668.101 -0.274863 2.98638 0
M  V30 7101 H 665.654 -0.105859 1.55941 0
M  V30 7102 H 666.389 -2.61466 1.91849 0
M  V30 7103 H 666.174 -1.78897 3.4891 0
M  V30 7104 H 667.664 -2.72453 3.16479 0
M  V30 7105 N 668.101 -1.57061 -0.130224 0
M  V30 7106 C 669.512 -1.73539 -0.68856 0
M  V30 7107 C 669.863 -0.760554 -1.80859 0
M  V30 7108 O 668.988 0.0690796 -2.1629 0
M  V30 7109 C 669.583 -3.14666 -1.25581 0
M  V30 7110 C 668.142 -3.32689 -1.76055 0
M  V30 7111 C 667.289 -2.69436 -0.655712 0
M  V30 7112 H 670.24 -1.58412 0.0956002 0
M  V30 7113 H 670.261 -3.15595 -2.12556 0
M  V30 7114 H 669.773 -3.85593 -0.440412 0
M  V30 7115 H 667.874 -2.66786 -2.60108 0
M  V30 7116 H 667.987 -4.4077 -1.87772 0
M  V30 7117 H 666.351 -2.30362 -1.08654 0
M  V30 7118 H 667.134 -3.42979 0.14852 0
M  V30 7119 N 669.579 0.400081 -1.52437 0
M  V30 7120 C 670.804 1.17221 -1.71096 0
M  V30 7121 C 671.229 1.83269 -0.423565 0
M  V30 7122 O 670.587 1.70378 0.619751 0
M  V30 7123 C 670.635 2.20425 -2.85386 0
M  V30 7124 O 669.739 3.26769 -2.51586 0
M  V30 7125 H 669.08 0.341766 -0.569291 0
M  V30 7126 H 671.61 0.467772 -1.99181 0
M  V30 7127 H 671.62 2.64605 -3.10561 0
M  V30 7128 H 670.295 1.71737 -3.78786 0
M  V30 7129 H 668.872 2.87804 -2.37114 0
M  V30 7130 N 671.057 1.43213 0.657864 0
M  V30 7131 C 671.987 1.50815 1.78262 0
M  V30 7132 C 672.968 0.363211 1.66177 0
M  V30 7133 O 674.153 0.579806 1.85343 0
M  V30 7134 C 671.283 1.42625 3.16663 0
M  V30 7135 C 670.237 2.5532 3.43505 0
M  V30 7136 C 669.563 2.32184 4.81658 0
M  V30 7137 C 670.863 3.97583 3.38711 0
M  V30 7138 H 672.557 2.44954 1.72157 0
M  V30 7139 H 670.103 1.17896 0.82683 0
M  V30 7140 H 672.056 1.46548 3.95097 0
M  V30 7141 H 670.78 0.449877 3.23487 0
M  V30 7142 H 669.439 2.50742 2.6744 0
M  V30 7143 H 669.087 1.32801 4.85153 0
M  V30 7144 H 668.787 3.07724 5.00579 0
M  V30 7145 H 670.311 2.37883 5.62356 0
M  V30 7146 H 671.725 4.03673 4.07089 0
M  V30 7147 H 670.122 4.73112 3.69168 0
M  V30 7148 H 671.192 4.23049 2.36976 0
M  V30 7149 N 672.536 -0.895792 1.29666 0
M  V30 7150 C 673.764 -1.68001 1.20761 0
M  V30 7151 C 674.179 -1.87379 -0.231187 0
M  V30 7152 O 673.536 -1.41359 -1.15429 0
M  V30 7153 C 673.587 -3.06236 1.92098 0
M  V30 7154 O 673.308 -2.8774 3.30359 0
M  V30 7155 C 674.809 -4.00652 1.89717 0
M  V30 7156 H 672.029 -0.524591 0.418384 0
M  V30 7157 H 674.573 -1.11995 1.71106 0
M  V30 7158 H 672.728 -3.59007 1.45578 0
M  V30 7159 H 673.142 -3.75359 3.66342 0
M  V30 7160 H 674.616 -4.95051 2.44189 0
M  V30 7161 H 675.093 -4.30424 0.873595 0
M  V30 7162 H 675.699 -3.53815 2.35998 0
M  V30 7163 N 674.014 -1.12206 -1.10668 0
M  V30 7164 C 675.239 -0.898938 -1.86906 0
M  V30 7165 C 675.664 0.546346 -1.79991 0
M  V30 7166 O 675.022 1.38655 -1.1681 0
M  V30 7167 C 675.07 -1.37529 -3.33344 0
M  V30 7168 O 674.174 -0.55218 -4.08687 0
M  V30 7169 H 673.515 -0.323163 -0.580053 0
M  V30 7170 H 676.045 -1.49355 -1.39837 0
M  V30 7171 H 676.055 -1.3733 -3.84193 0
M  V30 7172 H 674.73 -2.42767 -3.37693 0
M  V30 7173 H 673.307 -0.620947 -3.67694 0
M  V30 7174 N 675.492 1.28418 -0.913599 0
M  V30 7175 C 676.424 2.26368 -0.359169 0
M  V30 7176 C 677.437 1.54858 0.502285 0
M  V30 7177 O 678.626 1.75659 0.31719 0
M  V30 7178 C 675.726 3.35112 0.50526 0
M  V30 7179 C 674.899 4.36126 -0.333648 0
M  V30 7180 C 673.958 5.24134 0.465845 0
M  V30 7181 O 672.984 5.6907 -0.121538 0
M  V30 7182 N 674.186 5.52892 1.76891 0
M  V30 7183 H 676.951 2.74579 -1.2011 0
M  V30 7184 H 674.512 1.41898 -0.779532 0
M  V30 7185 H 676.504 3.90926 1.04684 0
M  V30 7186 H 675.074 2.86611 1.2479 0
M  V30 7187 H 674.294 3.79776 -1.0566 0
M  V30 7188 H 675.582 5.00638 -0.907669 0
M  V30 7189 H 674.98 5.18217 2.26865 0
M  V30 7190 H 673.537 6.11464 2.25732 0
M  V30 7191 N 676.97 0.677563 1.42291 0
M  V30 7192 C 677.933 0.0101085 2.29198 0
M  V30 7193 C 678.933 -0.726219 1.43467 0
M  V30 7194 O 680.123 -0.563807 1.64824 0
M  V30 7195 C 677.255 -0.996316 3.26016 0
M  V30 7196 H 678.448 0.775071 2.89711 0
M  V30 7197 H 676.001 0.440065 1.49977 0
M  V30 7198 H 676.736 -1.78967 2.70446 0
M  V30 7199 H 676.521 -0.471687 3.89253 0
M  V30 7200 H 678.011 -1.46167 3.91184 0
M  V30 7201 N 678.448 -1.51871 0.421078 0
M  V30 7202 C 679.411 -2.25914 -0.386712 0
M  V30 7203 C 680.411 -1.28733 -0.963555 0
M  V30 7204 O 681.601 -1.52579 -0.840556 0
M  V30 7205 C 678.733 -3.03853 -1.54551 0
M  V30 7206 H 679.926 -2.98754 0.261978 0
M  V30 7207 H 677.479 -1.5533 0.173862 0
M  V30 7208 H 678.214 -2.35392 -2.23072 0
M  V30 7209 H 677.999 -3.75215 -1.13824 0
M  V30 7210 H 679.489 -3.59984 -2.11663 0
M  V30 7211 N 679.926 -0.151884 -1.56866 0
M  V30 7212 C 680.889 0.771861 -2.15812 0
M  V30 7213 C 681.889 1.17181 -1.10115 0
M  V30 7214 O 683.079 1.09194 -1.35729 0
M  V30 7215 C 680.211 2.04806 -2.7252 0
M  V30 7216 H 681.404 0.259021 -2.98779 0
M  V30 7217 H 678.957 0.097588 -1.55995 0
M  V30 7218 H 679.692 2.60445 -1.93233 0
M  V30 7219 H 679.477 1.77044 -3.49854 0
M  V30 7220 H 680.967 2.70771 -3.1792 0
M  V30 7221 N 681.404 1.57128 0.121893 0
M  V30 7222 C 682.336 1.96773 1.17529 0
M  V30 7223 C 683.349 0.866668 1.37814 0
M  V30 7224 O 684.538 1.14497 1.3694 0
M  V30 7225 C 681.638 2.24832 2.53582 0
M  V30 7226 C 680.811 3.56138 2.53939 0
M  V30 7227 C 679.87 3.72443 3.71716 0
M  V30 7228 O 678.896 4.44584 3.55434 0
M  V30 7229 N 680.098 3.10993 4.90167 0
M  V30 7230 H 682.863 2.87743 0.838086 0
M  V30 7231 H 680.424 1.58881 0.311199 0
M  V30 7232 H 682.416 2.32958 3.30927 0
M  V30 7233 H 680.986 1.40002 2.79496 0
M  V30 7234 H 680.206 3.59226 1.62329 0
M  V30 7235 H 681.494 4.42448 2.51231 0
M  V30 7236 H 680.892 2.52345 5.06299 0
M  V30 7237 H 679.449 3.24644 5.65198 0
M  V30 7238 N 682.882 -0.391992 1.52647 0
M  V30 7239 C 684.128 -1.139 1.67793 0
M  V30 7240 C 684.461 -1.89711 0.41514 0
M  V30 7241 O 683.736 -1.85431 -0.586979 0
M  V30 7242 C 684.019 -2.11966 2.91105 0
M  V30 7243 C 683.872 -1.39939 4.27478 0
M  V30 7244 C 685.191 -3.1243 3.09961 0
M  V30 7245 H 682.31 -0.412707 0.610608 0
M  V30 7246 H 684.952 -0.422725 1.85238 0
M  V30 7247 H 683.102 -2.73048 2.76364 0
M  V30 7248 H 684.774 -0.818439 4.53982 0
M  V30 7249 H 683.017 -0.701246 4.28095 0
M  V30 7250 H 683.688 -2.1158 5.09841 0
M  V30 7251 H 686.164 -2.61435 3.23714 0
M  V30 7252 H 685.04 -3.78294 3.97725 0
M  V30 7253 H 685.301 -3.81127 2.24042 0
M  V30 7254 N 684.36 -1.4356 -0.65026 0
M  V30 7255 C 685.323 -1.48615 -1.74489 0
M  V30 7256 C 686.323 -0.370483 -1.56474 0
M  V30 7257 O 687.513 -0.632351 -1.62317 0
M  V30 7258 C 684.645 -1.34161 -3.13391 0
M  V30 7259 H 685.838 -2.46103 -1.71387 0
M  V30 7260 H 683.391 -1.30369 -0.862186 0
M  V30 7261 H 684.126 -0.376918 -3.22102 0
M  V30 7262 H 683.911 -2.1504 -3.27872 0
M  V30 7263 H 685.401 -1.40637 -3.93206 0
M  V30 7264 N 685.838 0.888903 -1.30139 0
M  V30 7265 C 686.786 2.0156 -1.16088 0
M  V30 7266 C 687.78 1.69239 -0.0737413 0
M  V30 7267 O 688.986 1.78468 -0.234313 0
M  V30 7268 H 685.361 0.660825 -0.358907 0
M  V30 7269 H 687.332 2.10547 -2.11453 0
M  V30 7270 C 686.081 3.36758 -0.865426 0
M  V30 7271 H 685.404 3.62137 -1.69402 0
M  V30 7272 H 686.844 4.16246 -0.807192 0
M  V30 7273 C 685.303 3.34124 0.431577 0
M  V30 7274 O 685.833 3.7445 1.45431 0
M  V30 7275 N 684.039 2.87229 0.441321 0
M  V30 7276 H 683.586 2.54609 -0.391433 0
M  V30 7277 H 683.544 2.8585 1.30909 0
M  V30 7278 N 687.317 1.12792 1.10072 0
M  V30 7279 C 688.249 0.757003 2.16338 0
M  V30 7280 C 689.262 -0.218144 1.61332 0
M  V30 7281 O 690.451 0.0010727 1.785 0
M  V30 7282 C 687.551 0.100303 3.38752 0
M  V30 7283 C 686.724 1.10586 4.2319 0
M  V30 7284 C 685.783 0.47609 5.24042 0
M  V30 7285 O 684.809 1.13418 5.57786 0
M  V30 7286 N 686.011 -0.754823 5.75572 0
M  V30 7287 H 688.776 1.6714 2.48766 0
M  V30 7288 H 686.337 1.02003 1.25726 0
M  V30 7289 H 688.329 -0.333092 4.03327 0
M  V30 7290 H 686.899 -0.716915 3.04268 0
M  V30 7291 H 686.119 1.71677 3.54853 0
M  V30 7292 H 687.407 1.78571 4.76435 0
M  V30 7293 H 686.805 -1.30838 5.50362 0
M  V30 7294 H 685.362 -1.13098 6.41913 0
M  V30 7295 N 688.795 -1.27931 0.920396 0
M  V30 7296 C 689.758 -2.25345 0.41858 0
M  V30 7297 C 690.758 -1.54116 -0.458798 0
M  V30 7298 O 691.948 -1.72235 -0.260912 0
M  V30 7299 C 689.08 -3.38556 -0.399104 0
M  V30 7300 H 690.273 -2.71251 1.27918 0
M  V30 7301 H 687.826 -1.39728 0.700406 0
M  V30 7302 H 688.561 -2.98021 -1.27882 0
M  V30 7303 H 688.346 -3.91426 0.229863 0
M  V30 7304 H 689.836 -4.10976 -0.740817 0
M  V30 7305 N 690.273 -0.685099 -1.4193 0
M  V30 7306 C 691.203 -0.0273506 -2.33484 0
M  V30 7307 C 692.184 0.778366 -1.51246 0
M  V30 7308 O 693.369 0.733449 -1.79817 0
M  V30 7309 C 690.499 0.917272 -3.34968 0
M  V30 7310 C 689.453 0.21941 -4.27437 0
M  V30 7311 C 688.779 1.27768 -5.1921 0
M  V30 7312 C 690.079 -0.907894 -5.14349 0
M  V30 7313 H 691.773 -0.791994 -2.88735 0
M  V30 7314 H 689.319 -0.382308 -1.38832 0
M  V30 7315 H 691.272 1.38657 -3.97935 0
M  V30 7316 H 689.996 1.71346 -2.78043 0
M  V30 7317 H 688.655 -0.229757 -3.65879 0
M  V30 7318 H 688.303 2.06612 -4.58607 0
M  V30 7319 H 688.003 0.815803 -5.81909 0
M  V30 7320 H 689.527 1.7477 -5.85054 0
M  V30 7321 H 690.941 -0.519348 -5.70943 0
M  V30 7322 H 689.338 -1.2962 -5.85934 0
M  V30 7323 H 690.408 -1.75218 -4.52136 0
M  V30 7324 N 691.751 1.51645 -0.429126 0
M  V30 7325 C 693 2.01203 0.141538 0
M  V30 7326 C 693.313 1.31828 1.44502 0
M  V30 7327 O 694.519 1.7231 2.09813 0
M  V30 7328 C 692.975 3.58624 0.302786 0
M  V30 7329 C 692.583 4.3693 -0.989775 0
M  V30 7330 C 694.327 4.16353 0.827661 0
M  V30 7331 C 692.234 5.86037 -0.794619 0
M  V30 7332 H 691.164 0.751867 0.05667 0
M  V30 7333 H 693.815 1.74822 -0.557633 0
M  V30 7334 H 692.197 3.81417 1.06476 0
M  V30 7335 H 693.371 4.25887 -1.75945 0
M  V30 7336 H 691.686 3.90614 -1.44256 0
M  V30 7337 H 694.283 5.25455 0.990026 0
M  V30 7338 H 694.626 3.74995 1.80787 0
M  V30 7339 H 695.159 3.97606 0.124213 0
M  V30 7340 H 691.898 6.31792 -1.74697 0
M  V30 7341 H 691.418 5.99765 -0.0645968 0
M  V30 7342 H 693.097 6.45471 -0.444591 0
M  V30 7343 N 693.229 0.160201 1.56784 0
M  V30 7344 C 694.645 -0.196089 1.58391 0
M  V30 7345 C 694.845 -1.63689 1.17508 0
M  V30 7346 O 693.901 -2.36613 0.881506 0
M  V30 7347 C 695.214 0.0746449 3.00607 0
M  V30 7348 C 696.762 0.0119762 3.12998 0
M  V30 7349 C 697.237 0.255551 4.57286 0
M  V30 7350 N 698.728 0.202938 4.62755 0
M  V30 7351 C 699.463 0.365731 5.72232 0
M  V30 7352 N 698.959 0.586972 6.90309 0
M  V30 7353 N 700.752 0.302411 5.61286 0
M  V30 7354 H 692.903 1.1008 1.81648 0
M  V30 7355 H 695.166 0.436779 0.841384 0
M  V30 7356 H 694.872 1.07231 3.34954 0
M  V30 7357 H 694.746 -0.638802 3.71751 0
M  V30 7358 H 697.133 -0.976254 2.78484 0
M  V30 7359 H 697.214 0.75796 2.44313 0
M  V30 7360 H 696.858 1.24094 4.92507 0
M  V30 7361 H 696.788 -0.510912 5.24116 0
M  V30 7362 H 699.279 0.0371328 3.77882 0
M  V30 7363 H 699.592 0.700941 7.69615 0
M  V30 7364 H 697.937 0.623453 6.92198 0
M  V30 7365 H 701.128 0.130238 4.67919 0
M  V30 7366 H 701.301 0.432712 6.46554 0
M  V30 7367 N 694.707 -1.5719 -0.113559 0
M  V30 7368 C 695.955 -1.84772 -0.818761 0
M  V30 7369 C 696.276 -0.746196 -1.80158 0
M  V30 7370 O 695.546 0.229305 -1.94553 0
M  V30 7371 H 694.126 -0.681737 -0.305359 0
M  V30 7372 H 696.788 -1.94645 -0.0995845 0
M  V30 7373 H 695.884 -2.80878 -1.36067 0
M  V30 7374 N 696.185 0.383891 -1.52853 0
M  V30 7375 C 697.462 1.14296 -1.58732 0
M  V30 7376 C 697.842 2.07585 -0.383611 0
M  V30 7377 O 697.19 2.1971 0.627661 0
M  V30 7378 C 697.4 1.89816 -2.92867 0
M  V30 7379 C 698.748 2.44998 -3.46787 0
M  V30 7380 O 699.772 1.99966 -2.94774 0
M  V30 7381 O 698.631 3.2727 -4.37672 0
M  V30 7382 H 695.725 0.52326 -0.640413 0
M  V30 7383 H 698.271 0.388631 -1.6519 0
M  V30 7384 H 697.043 1.21626 -3.71918 0
M  V30 7385 H 696.666 2.72199 -2.89816 0
M  V30 7386 N 697.663 1.43903 0.642637 0
M  V30 7387 C 698.909 1.47291 1.40275 0
M  V30 7388 C 699.264 0.0996024 1.92142 0
M  V30 7389 O 698.557 -0.883423 1.70018 0
M  V30 7390 C 698.751 2.45907 2.59354 0
M  V30 7391 C 698.58 3.92691 2.19143 0
M  V30 7392 C 697.35 4.6097 2.06966 0
M  V30 7393 C 699.548 4.82231 1.78768 0
M  V30 7394 N 697.53 5.9263 1.60196 0
M  V30 7395 C 698.901 6.03246 1.43159 0
M  V30 7396 C 700.956 4.69397 1.66045 0
M  V30 7397 C 699.659 7.12851 0.961014 0
M  V30 7398 C 701.685 5.79016 1.20392 0
M  V30 7399 C 701.047 6.99164 0.857271 0
M  V30 7400 H 697.146 0.594055 0.50855 0
M  V30 7401 H 699.73 1.80153 0.738434 0
M  V30 7402 H 697.901 2.15054 3.23429 0
M  V30 7403 H 699.633 2.39665 3.26102 0
M  V30 7404 H 696.388 4.15622 2.27058 0
M  V30 7405 H 696.812 6.62547 1.39143 0
M  V30 7406 H 701.454 3.76954 1.91482 0
M  V30 7407 H 699.172 8.05113 0.694148 0
M  V30 7408 H 702.758 5.71109 1.11023 0
M  V30 7409 H 701.638 7.82544 0.509408 0
M  V30 7410 N 699.141 -0.881989 1.30609 0
M  V30 7411 C 700.089 -2.00942 1.17155 0
M  V30 7412 C 701.083 -1.69198 0.0827154 0
M  V30 7413 O 702.289 -1.78342 0.243775 0
M  V30 7414 H 698.664 -0.658913 0.362406 0
M  V30 7415 H 700.635 -2.09423 2.12567 0
M  V30 7416 C 699.384 -3.36294 0.883273 0
M  V30 7417 H 698.707 -3.61233 1.7132 0
M  V30 7418 H 700.147 -4.15812 0.829255 0
M  V30 7419 C 698.606 -3.34348 -0.413851 0
M  V30 7420 O 699.136 -3.75216 -1.43444 0
M  V30 7421 N 697.342 -2.87459 -0.426082 0
M  V30 7422 H 696.889 -2.54397 0.40493 0
M  V30 7423 H 696.847 -2.8654 -1.29391 0
M  V30 7424 N 700.619 -1.13374 -1.09472 0
M  V30 7425 C 702.035 -0.871846 -1.33682 0
M  V30 7426 C 702.235 0.492847 -1.9538 0
M  V30 7427 O 701.291 1.23946 -2.19985 0
M  V30 7428 C 702.604 -1.99608 -2.24893 0
M  V30 7429 C 704.152 -2.02812 -2.38404 0
M  V30 7430 C 704.627 -3.14497 -3.3295 0
M  V30 7431 N 706.118 -3.14004 -3.40523 0
M  V30 7432 C 706.853 -3.97061 -4.13679 0
M  V30 7433 N 706.349 -4.90131 -4.89636 0
M  V30 7434 N 708.142 -3.85162 -4.09398 0
M  V30 7435 H 700.293 -2.01288 -0.677995 0
M  V30 7436 H 702.556 -0.876492 -0.361201 0
M  V30 7437 H 702.262 -2.98 -1.86786 0
M  V30 7438 H 702.136 -1.90981 -3.25278 0
M  V30 7439 H 704.523 -1.05034 -2.75775 0
M  V30 7440 H 704.604 -2.15511 -1.37799 0
M  V30 7441 H 704.248 -4.12514 -2.96302 0
M  V30 7442 H 704.178 -2.99035 -4.33458 0
M  V30 7443 H 706.669 -2.46587 -2.86362 0
M  V30 7444 H 706.982 -5.49996 -5.42885 0
M  V30 7445 H 705.327 -4.94138 -4.88726 0
M  V30 7446 H 708.518 -3.11779 -3.49158 0
M  V30 7447 H 708.691 -4.5012 -4.6615 0
M  V30 7448 N 702.098 1.27442 -0.927168 0
M  V30 7449 C 703.346 1.94007 -0.566203 0
M  V30 7450 C 703.667 1.7323 0.895345 0
M  V30 7451 O 702.937 1.07973 1.63459 0
M  V30 7452 H 701.517 0.717917 -0.206409 0
M  V30 7453 H 704.179 1.55161 -1.17945 0
M  V30 7454 H 703.275 3.02401 -0.772028 0
M  V30 7455 N 703.576 0.692616 1.41565 0
M  V30 7456 C 704.824 0.221896 2.00878 0
M  V30 7457 C 705.145 -1.18164 1.5512 0
M  V30 7458 O 704.415 -1.79679 0.78054 0
M  V30 7459 H 702.995 0.0790463 0.742806 0
M  V30 7460 H 705.657 0.893115 1.73232 0
M  V30 7461 H 704.753 0.23702 3.11199 0
M  V30 7462 N 705.054 -1.51416 0.437162 0
M  V30 7463 C 706.302 -2.01687 -0.129108 0
M  V30 7464 C 706.623 -1.32329 -1.43227 0
M  V30 7465 O 705.893 -0.457796 -1.90476 0
M  V30 7466 H 704.473 -0.745277 -0.0507023 0
M  V30 7467 H 707.135 -1.86075 0.579828 0
M  V30 7468 H 706.231 -3.10605 -0.305141 0
M  V30 7469 N 706.532 -0.168513 -1.56696 0
M  V30 7470 C 707.778 0.477865 -1.9709 0
M  V30 7471 C 708.111 1.63084 -1.05438 0
M  V30 7472 O 707.386 1.94238 -0.10095 0
M  V30 7473 C 707.669 0.963521 -3.4697 0
M  V30 7474 C 707.522 -0.189443 -4.49401 0
M  V30 7475 C 708.841 1.83813 -3.99876 0
M  V30 7476 H 705.96 0.172229 -0.716593 0
M  V30 7477 H 708.602 -0.254083 -1.88293 0
M  V30 7478 H 706.752 1.58724 -3.54597 0
M  V30 7479 H 708.424 -0.826451 -4.53836 0
M  V30 7480 H 706.667 -0.845366 -4.25483 0
M  V30 7481 H 707.338 0.192446 -5.51664 0
M  V30 7482 H 709.814 1.31235 -3.94863 0
M  V30 7483 H 708.69 2.14697 -5.0517 0
M  V30 7484 H 708.951 2.78289 -3.43523 0
M  V30 7485 N 708.01 1.57248 0.105221 0
M  V30 7486 C 709.426 1.52853 0.459153 0
M  V30 7487 C 709.626 0.883674 1.8109 0
M  V30 7488 O 708.682 0.471864 2.48052 0
M  V30 7489 C 709.995 2.97596 0.43096 0
M  V30 7490 C 711.543 3.08758 0.513536 0
M  V30 7491 C 712.018 4.55089 0.515593 0
M  V30 7492 N 713.509 4.59597 0.576639 0
M  V30 7493 C 714.244 5.70253 0.599904 0
M  V30 7494 N 713.74 6.90368 0.579985 0
M  V30 7495 N 715.533 5.58399 0.643953 0
M  V30 7496 H 707.684 1.97547 -0.780306 0
M  V30 7497 H 709.947 0.902758 -0.289363 0
M  V30 7498 H 709.653 3.48201 -0.494903 0
M  V30 7499 H 709.527 3.55756 1.2537 0
M  V30 7500 H 711.914 2.58148 1.42982 0
M  V30 7501 H 711.995 2.53568 -0.337148 0
M  V30 7502 H 711.639 5.06348 -0.396701 0
M  V30 7503 H 711.569 5.08105 1.38335 0
M  V30 7504 H 714.06 3.73144 0.597639 0
M  V30 7505 H 714.373 7.70462 0.600741 0
M  V30 7506 H 712.718 6.92843 0.547191 0
M  V30 7507 H 715.909 4.63467 0.656975 0
M  V30 7508 H 716.082 6.44644 0.658616 0
M  V30 7509 N 709.488 -0.375779 1.53054 0
M  V30 7510 C 710.734 -1.12114 1.68992 0
M  V30 7511 C 711.067 -1.8926 0.435238 0
M  V30 7512 O 710.342 -1.86044 -0.567278 0
M  V30 7513 C 710.625 -2.08867 2.93337 0
M  V30 7514 C 710.478 -1.35397 4.28938 0
M  V30 7515 C 711.797 -3.09124 3.13257 0
M  V30 7516 H 708.916 -0.406207 0.614951 0
M  V30 7517 H 711.558 -0.403054 1.85676 0
M  V30 7518 H 709.708 -2.70102 2.79244 0
M  V30 7519 H 711.38 -0.770242 4.54824 0
M  V30 7520 H 709.623 -0.655801 4.28814 0
M  V30 7521 H 710.294 -2.06161 5.12056 0
M  V30 7522 H 712.77 -2.57987 3.26469 0
M  V30 7523 H 711.646 -3.74054 4.01715 0
M  V30 7524 H 711.907 -3.78729 2.28072 0
M  V30 7525 N 710.966 -1.44241 -0.634997 0
M  V30 7526 C 711.929 -1.50457 -1.72903 0
M  V30 7527 C 712.929 -0.387058 -1.56072 0
M  V30 7528 O 714.119 -0.649531 -1.61638 0
M  V30 7529 C 711.251 -1.37477 -3.1195 0
M  V30 7530 H 712.444 -2.47907 -1.68767 0
M  V30 7531 H 709.997 -1.31276 -0.84831 0
M  V30 7532 H 710.732 -0.41106 -3.21684 0
M  V30 7533 H 710.517 -2.18506 -3.25573 0
M  V30 7534 H 712.007 -1.44799 -3.91692 0
M  V30 7535 N 712.444 0.87505 -1.31075 0
M  V30 7536 C 713.669 1.66583 -1.23551 0
M  V30 7537 C 714.094 1.87067 0.19686 0
M  V30 7538 O 713.452 1.40877 1.1412 0
M  V30 7539 C 713.5 3.01401 -1.97965 0
M  V30 7540 O 712.604 3.90923 -1.31351 0
M  V30 7541 H 711.945 0.508645 -0.426821 0
M  V30 7542 H 714.475 1.09139 -1.7306 0
M  V30 7543 H 714.485 3.51374 -2.07366 0
M  V30 7544 H 713.16 2.85812 -3.02133 0
M  V30 7545 H 711.737 3.49369 -1.30368 0
M  V30 7546 N 713.922 1.13953 1.08869 0
M  V30 7547 C 715.168 0.906151 1.8143 0
M  V30 7548 C 715.501 -0.566089 1.85766 0
M  V30 7549 O 714.776 -1.41915 1.33006 0
M  V30 7550 C 715.059 1.50183 3.27287 0
M  V30 7551 C 714.912 3.04359 3.31189 0
M  V30 7552 C 716.231 1.17477 4.24131 0
M  V30 7553 H 713.35 0.330624 0.658678 0
M  V30 7554 H 715.992 1.40873 1.27495 0
M  V30 7555 H 714.142 1.07442 3.73348 0
M  V30 7556 H 715.814 3.55896 2.93488 0
M  V30 7557 H 714.057 3.39053 2.70602 0
M  V30 7558 H 714.728 3.41141 4.33966 0
M  V30 7559 H 717.204 1.5442 3.86385 0
M  V30 7560 H 716.08 1.61795 5.24513 0
M  V30 7561 H 716.341 0.0893312 4.4201 0
M  V30 7562 N 715.4 -1.26948 0.933913 0
M  V30 7563 C 716.332 -2.25768 0.395137 0
M  V30 7564 C 717.345 -1.55637 -0.477585 0
M  V30 7565 O 718.534 -1.76142 -0.289204 0
M  V30 7566 C 715.634 -3.35874 -0.451882 0
M  V30 7567 C 714.807 -4.3554 0.40299 0
M  V30 7568 C 713.866 -5.24809 -0.3824 0
M  V30 7569 O 712.892 -5.68805 0.212057 0
M  V30 7570 N 714.094 -5.55636 -1.68072 0
M  V30 7571 H 716.859 -2.72634 1.24463 0
M  V30 7572 H 714.42 -1.40639 0.802008 0
M  V30 7573 H 716.412 -3.92542 -0.984516 0
M  V30 7574 H 714.982 -2.8856 -1.20215 0
M  V30 7575 H 714.202 -3.78047 1.11688 0
M  V30 7576 H 715.49 -4.99131 0.987201 0
M  V30 7577 H 714.888 -5.2176 -2.18592 0
M  V30 7578 H 713.445 -6.14978 -2.15975 0
M  V30 7579 N 716.879 -0.700114 -1.41195 0
M  V30 7580 C 717.811 0.00155823 -2.292 0
M  V30 7581 C 718.824 0.739736 -1.45023 0
M  V30 7582 O 720.013 0.589684 -1.68478 0
M  V30 7583 C 717.113 1.02635 -3.22985 0
M  V30 7584 C 716.286 0.356871 -4.35942 0
M  V30 7585 C 715.345 1.28491 -5.10271 0
M  V30 7586 O 714.371 0.775562 -5.63892 0
M  V30 7587 N 715.573 2.61699 -5.18164 0
M  V30 7588 H 718.338 -0.754008 -2.9006 0
M  V30 7589 H 715.899 -0.546504 -1.52397 0
M  V30 7590 H 717.891 1.64902 -3.6958 0
M  V30 7591 H 716.461 1.68341 -2.63401 0
M  V30 7592 H 715.681 -0.445753 -3.91672 0
M  V30 7593 H 716.969 -0.108469 -5.08684 0
M  V30 7594 H 716.367 3.05594 -4.76056 0
M  V30 7595 H 714.924 3.19149 -5.6832 0
M  V30 7596 N 718.357 1.51182 -0.445186 0
M  V30 7597 C 719.603 2.02452 0.11882 0
M  V30 7598 C 719.936 1.32824 1.41673 0
M  V30 7599 O 719.211 0.445637 1.89326 0
M  V30 7600 C 719.494 3.5859 0.329475 0
M  V30 7601 C 719.347 4.38823 -0.987638 0
M  V30 7602 C 720.666 4.26241 1.09575 0
M  V30 7603 H 717.785 0.735819 0.0417092 0
M  V30 7604 H 720.427 1.80747 -0.585718 0
M  V30 7605 H 718.577 3.77214 0.9296 0
M  V30 7606 H 720.249 4.3183 -1.62235 0
M  V30 7607 H 718.492 4.03594 -1.59041 0
M  V30 7608 H 719.163 5.46257 -0.794192 0
M  V30 7609 H 721.639 4.11934 0.587328 0
M  V30 7610 H 720.515 5.35354 1.21191 0
M  V30 7611 H 720.776 3.87635 2.12584 0
M  V30 7612 N 719.835 0.176821 1.56605 0
M  V30 7613 C 721.246 -0.338963 1.83597 0
M  V30 7614 C 721.597 -1.62677 1.09684 0
M  V30 7615 O 720.722 -2.13524 0.351661 0
M  V30 7616 C 721.317 -0.62177 3.33046 0
M  V30 7617 C 719.876 -1.08198 3.60514 0
M  V30 7618 C 719.023 -0.120774 2.77037 0
M  V30 7619 H 721.974 0.400978 1.53551 0
M  V30 7620 H 721.995 -1.47321 3.50823 0
M  V30 7621 H 721.507 0.315692 3.86814 0
M  V30 7622 H 719.608 -2.03435 3.12162 0
M  V30 7623 H 719.721 -0.987329 4.68816 0
M  V30 7624 H 718.085 -0.619192 2.47059 0
M  V30 7625 H 718.868 0.810806 3.33588 0
M  V30 7626 N 721.313 -1.57302 -0.09688 0
M  V30 7627 C 722.724 -1.7496 -0.651595 0
M  V30 7628 C 723.075 -0.798746 -1.79205 0
M  V30 7629 O 722.2 0.0231858 -2.16388 0
M  V30 7630 C 722.795 -3.17259 -1.18878 0
M  V30 7631 C 721.354 -3.36348 -1.68958 0
M  V30 7632 C 720.501 -2.70766 -0.598413 0
M  V30 7633 H 723.452 -1.58173 0.12918 0
M  V30 7634 H 723.473 -3.20033 -2.05814 0
M  V30 7635 H 722.985 -3.8644 -0.358523 0
M  V30 7636 H 721.086 -2.72243 -2.5439 0
M  V30 7637 H 721.199 -4.44654 -1.7838 0
M  V30 7638 H 719.563 -2.32615 -1.03743 0
M  V30 7639 H 720.346 -3.42586 0.221238 0
M  V30 7640 N 722.791 0.367657 -1.53252 0
M  V30 7641 C 724.207 0.709191 -1.42978 0
M  V30 7642 C 724.407 1.93352 -0.567193 0
M  V30 7643 O 723.463 2.52453 -0.0488349 0
M  V30 7644 C 724.776 0.924338 -2.86141 0
M  V30 7645 C 726.324 1.02448 -2.95759 0
M  V30 7646 C 726.799 1.27211 -4.39979 0
M  V30 7647 N 728.29 1.33986 -4.43398 0
M  V30 7648 C 729.025 1.54852 -5.52095 0
M  V30 7649 N 728.521 1.73049 -6.7084 0
M  V30 7650 N 730.314 1.57205 -5.39669 0
M  V30 7651 H 722.465 -0.437669 -2.07842 0
M  V30 7652 H 724.728 -0.133737 -0.938519 0
M  V30 7653 H 724.434 0.0965455 -3.51567 0
M  V30 7654 H 724.308 1.83302 -3.29667 0
M  V30 7655 H 726.695 1.84282 -2.30487 0
M  V30 7656 H 726.776 0.0932301 -2.5563 0
M  V30 7657 H 726.42 0.458792 -5.05824 0
M  V30 7658 H 726.35 2.21654 -4.77679 0
M  V30 7659 H 728.841 1.21545 -3.5782 0
M  V30 7660 H 729.154 1.88538 -7.49449 0
M  V30 7661 H 727.499 1.70231 -6.7383 0
M  V30 7662 H 730.69 1.42555 -4.45865 0
M  V30 7663 H 730.863 1.73126 -6.24445 0
M  V30 7664 N 724.269 1.44576 0.627338 0
M  V30 7665 C 725.199 1.54562 1.75022 0
M  V30 7666 C 726.18 0.398378 1.65369 0
M  V30 7667 O 727.365 0.61899 1.84071 0
M  V30 7668 C 724.495 1.49309 3.13567 0
M  V30 7669 C 723.449 2.62549 3.38012 0
M  V30 7670 C 722.775 2.42348 4.76625 0
M  V30 7671 C 724.075 4.04678 3.30202 0
M  V30 7672 H 725.769 2.4855 1.66922 0
M  V30 7673 H 723.315 1.19624 0.801636 0
M  V30 7674 H 725.268 1.54895 3.919 0
M  V30 7675 H 723.992 0.518392 3.2246 0
M  V30 7676 H 722.651 2.56358 2.62061 0
M  V30 7677 H 722.299 1.43062 4.82226 0
M  V30 7678 H 721.999 3.18273 4.93939 0
M  V30 7679 H 723.523 2.49758 5.57183 0
M  V30 7680 H 724.937 4.12217 3.98435 0
M  V30 7681 H 723.334 4.80836 3.5905 0
M  V30 7682 H 724.404 4.2798 2.27949 0
M  V30 7683 N 725.747 -0.868086 1.31537 0
M  V30 7684 C 727.158 -1.437 1.19195 0
M  V30 7685 C 727.509 -1.95169 -0.200842 0
M  V30 7686 O 726.634 -1.86432 -1.09872 0
M  V30 7687 C 727.229 -2.612 2.15778 0
M  V30 7688 C 725.788 -3.1413 2.07363 0
M  V30 7689 C 724.935 -1.86845 2.049 0
M  V30 7690 H 727.886 -0.676457 1.43561 0
M  V30 7691 H 727.907 -3.37948 1.74847 0
M  V30 7692 H 727.419 -2.23709 3.17137 0
M  V30 7693 H 725.52 -3.56238 1.09204 0
M  V30 7694 H 725.633 -3.76285 2.96557 0
M  V30 7695 H 723.997 -2.05886 1.49943 0
M  V30 7696 H 724.78 -1.51589 3.08019 0
M  V30 7697 N 727.225 -1.14528 -1.08264 0
M  V30 7698 C 728.636 -0.925261 -1.6216 0
M  V30 7699 C 728.987 0.535587 -1.88748 0
M  V30 7700 O 728.112 1.4048 -1.64604 0
M  V30 7701 C 728.707 -1.67316 -2.94603 0
M  V30 7702 C 727.266 -1.49868 -3.45278 0
M  V30 7703 C 726.413 -1.69471 -2.19487 0
M  V30 7704 H 729.364 -1.29687 -0.914707 0
M  V30 7705 H 729.385 -1.13721 -3.63109 0
M  V30 7706 H 728.897 -2.73635 -2.75219 0
M  V30 7707 H 726.998 -0.459032 -3.69762 0
M  V30 7708 H 727.111 -2.2696 -4.21931 0
M  V30 7709 H 725.475 -1.12048 -2.2873 0
M  V30 7710 H 726.258 -2.77136 -2.0261 0
M  V30 7711 N 728.703 1.26451 -0.940633 0
M  V30 7712 C 729.613 2.30128 -0.455881 0
M  V30 7713 C 730.629 1.67536 0.469867 0
M  V30 7714 O 731.805 1.98344 0.349529 0
M  V30 7715 C 728.87 3.45634 0.271648 0
M  V30 7716 C 727.931 4.23709 -0.690594 0
M  V30 7717 C 727.164 5.337 0.00231047 0
M  V30 7718 O 727.387 5.57215 1.21935 0
M  V30 7719 O 726.321 5.98091 -0.676111 0
M  V30 7720 H 730.147 2.73655 -1.31707 0
M  V30 7721 H 727.732 1.3164 -0.706497 0
M  V30 7722 H 729.614 4.15853 0.681486 0
M  V30 7723 H 728.289 3.04138 1.10824 0
M  V30 7724 H 727.196 3.55974 -1.15037 0
M  V30 7725 H 728.529 4.68953 -1.49478 0
M  V30 7726 N 730.181 0.707592 1.40822 0
M  V30 7727 C 731.144 0.0587224 2.29125 0
M  V30 7728 C 732.144 -0.695624 1.44975 0
M  V30 7729 O 733.334 -0.528718 1.65983 0
M  V30 7730 C 730.466 -0.926939 3.28056 0
M  V30 7731 H 731.659 0.836349 2.88002 0
M  V30 7732 H 729.212 0.471778 1.4901 0
M  V30 7733 H 729.947 -1.7319 2.74182 0
M  V30 7734 H 729.732 -0.389015 3.90165 0
M  V30 7735 H 731.222 -1.37837 3.94196 0
M  V30 7736 N 731.66 -1.50943 0.453197 0
M  V30 7737 C 733.076 -1.59245 0.106342 0
M  V30 7738 C 733.276 -1.46287 -1.38572 0
M  V30 7739 O 732.332 -1.31219 -2.15726 0
M  V30 7740 C 733.645 -2.93797 0.640595 0
M  V30 7741 C 735.193 -3.07148 0.602435 0
M  V30 7742 C 735.668 -4.44247 1.11393 0
M  V30 7743 N 737.159 -4.50611 1.07258 0
M  V30 7744 C 737.894 -5.55049 1.43905 0
M  V30 7745 N 737.39 -6.66828 1.87914 0
M  V30 7746 N 739.183 -5.45494 1.35621 0
M  V30 7747 H 731.334 -1.5761 1.42382 0
M  V30 7748 H 733.597 -0.74384 0.587713 0
M  V30 7749 H 733.303 -3.087 1.68515 0
M  V30 7750 H 733.177 -3.77127 0.0742272 0
M  V30 7751 H 735.564 -2.91903 -0.433171 0
M  V30 7752 H 735.645 -2.25619 1.20539 0
M  V30 7753 H 735.289 -4.60239 2.14808 0
M  V30 7754 H 735.219 -5.2434 0.487353 0
M  V30 7755 H 737.71 -3.70391 0.749585 0
M  V30 7756 H 738.023 -7.42558 2.14072 0
M  V30 7757 H 736.368 -6.67995 1.91853 0
M  V30 7758 H 739.559 -4.57053 1.01093 0
M  V30 7759 H 739.732 -6.2677 1.64508 0
M  V30 7760 N 733.138 -0.185124 -1.56509 0
M  V30 7761 C 734.549 0.329221 -1.83774 0
M  V30 7762 C 734.9 1.62093 -1.10545 0
M  V30 7763 O 734.025 2.13334 -0.36298 0
M  V30 7764 C 734.62 0.604099 -3.33371 0
M  V30 7765 C 733.179 1.06284 -3.61083 0
M  V30 7766 C 732.326 0.10608 -2.77097 0
M  V30 7767 H 735.277 -0.409116 -1.53336 0
M  V30 7768 H 735.298 1.45458 -3.51599 0
M  V30 7769 H 734.81 -0.336201 -3.86641 0
M  V30 7770 H 732.911 2.01777 -3.13236 0
M  V30 7771 H 733.024 0.962453 -4.69333 0
M  V30 7772 H 731.388 0.606082 -2.47384 0
M  V30 7773 H 732.171 -0.828486 -3.33153 0
M  V30 7774 N 734.616 1.57351 0.0885366 0
M  V30 7775 C 735.864 1.86051 0.789262 0
M  V30 7776 C 736.185 0.774763 1.78948 0
M  V30 7777 O 735.455 -0.198324 1.94894 0
M  V30 7778 H 734.035 0.686508 0.294475 0
M  V30 7779 H 736.697 1.94779 0.0686055 0
M  V30 7780 H 735.793 2.83007 1.31581 0
M  V30 7781 N 736.094 -0.359525 1.53444 0
M  V30 7782 C 737.51 -0.701599 1.43352 0
M  V30 7783 C 737.71 -1.93049 0.577439 0
M  V30 7784 O 736.766 -2.52423 0.0622224 0
M  V30 7785 C 738.079 -0.90915 2.86627 0
M  V30 7786 C 739.627 -1.00878 2.96298 0
M  V30 7787 C 740.102 -1.24876 4.40647 0
M  V30 7788 N 741.593 -1.31632 4.44103 0
M  V30 7789 C 742.328 -1.51922 5.52908 0
M  V30 7790 N 741.824 -1.69489 6.71748 0
M  V30 7791 N 743.617 -1.54341 5.40496 0
M  V30 7792 H 735.768 0.448685 2.07607 0
M  V30 7793 H 738.031 0.138713 0.937797 0
M  V30 7794 H 737.737 -0.0778997 3.51614 0
M  V30 7795 H 737.611 -1.81551 3.30634 0
M  V30 7796 H 739.998 -1.83057 2.31461 0
M  V30 7797 H 740.079 -0.0796721 2.55676 0
M  V30 7798 H 739.723 -0.431961 5.0606 0
M  V30 7799 H 739.653 -2.19118 4.78848 0
M  V30 7800 H 742.144 -1.19646 3.5846 0
M  V30 7801 H 742.457 -1.84561 7.50438 0
M  V30 7802 H 740.802 -1.66655 6.74723 0
M  V30 7803 H 743.993 -1.40188 4.46615 0
M  V30 7804 H 744.166 -1.69812 6.25354 0
M  V30 7805 N 737.572 -1.44907 -0.619662 0
M  V30 7806 C 738.988 -1.29046 -0.939107 0
M  V30 7807 C 739.188 -0.23462 -2.00129 0
M  V30 7808 O 738.244 0.37558 -2.49691 0
M  V30 7809 C 739.557 -2.66567 -1.39149 0
M  V30 7810 C 741.105 -2.74368 -1.50635 0
M  V30 7811 C 741.58 -4.12386 -1.99253 0
M  V30 7812 N 743.071 -4.1462 -2.06506 0
M  V30 7813 C 743.806 -5.18272 -2.4532 0
M  V30 7814 N 743.302 -6.32278 -2.83189 0
M  V30 7815 N 745.095 -5.05628 -2.45554 0
M  V30 7816 H 737.246 -2.12239 0.0826135 0
M  V30 7817 H 739.509 -0.947652 -0.0256829 0
M  V30 7818 H 739.215 -3.4496 -0.685254 0
M  V30 7819 H 739.089 -2.94224 -2.36034 0
M  V30 7820 H 741.476 -1.96287 -2.20353 0
M  V30 7821 H 741.557 -2.50439 -0.520963 0
M  V30 7822 H 741.201 -4.90947 -1.30127 0
M  V30 7823 H 741.131 -4.33699 -2.98684 0
M  V30 7824 H 743.622 -3.32343 -1.79878 0
M  V30 7825 H 743.935 -7.07172 -3.11652 0
M  V30 7826 H 742.28 -6.35699 -2.80913 0
M  V30 7827 H 745.471 -4.15613 -2.15367 0
M  V30 7828 H 745.644 -5.86529 -2.75478 0
M  V30 7829 N 739.05 0.861098 -1.31996 0
M  V30 7830 C 739.983 1.97266 -1.14724 0
M  V30 7831 C 740.961 1.62528 -0.0483789 0
M  V30 7832 O 742.145 1.87366 -0.206478 0
M  V30 7833 C 739.272 3.30181 -0.754861 0
M  V30 7834 C 738.318 3.839 -1.85804 0
M  V30 7835 S 739.151 4.08274 -3.46515 0
M  V30 7836 C 740.307 5.44174 -3.09235 0
M  V30 7837 H 740.54 2.11614 -2.08822 0
M  V30 7838 H 738.073 1.01232 -1.16582 0
M  V30 7839 H 740.031 4.06996 -0.535232 0
M  V30 7840 H 738.692 3.13655 0.167155 0
M  V30 7841 H 737.885 4.80013 -1.53633 0
M  V30 7842 H 737.487 3.13907 -2.03318 0
M  V30 7843 H 739.779 6.26172 -2.58679 0
M  V30 7844 H 740.722 5.81301 -4.04345 0
M  V30 7845 H 741.13 5.0787 -2.46431 0
M  V30 7846 N 740.528 1.15101 1.07655 0
M  V30 7847 C 741.775 0.923974 1.80191 0
M  V30 7848 C 742.103 -0.549065 1.86589 0
M  V30 7849 O 741.358 -1.42307 1.3434 0
M  V30 7850 C 741.657 1.47954 3.25337 0
M  V30 7851 C 741.323 2.97253 3.39044 0
M  V30 7852 C 739.985 3.38012 3.42493 0
M  V30 7853 C 742.337 3.93219 3.42094 0
M  V30 7854 C 739.665 4.73384 3.4659 0
M  V30 7855 C 742.017 5.28458 3.47728 0
M  V30 7856 C 740.681 5.68717 3.49453 0
M  V30 7857 H 739.951 0.338106 0.659367 0
M  V30 7858 H 742.598 1.43594 1.26701 0
M  V30 7859 H 740.903 0.888691 3.81588 0
M  V30 7860 H 742.6 1.27972 3.80032 0
M  V30 7861 H 739.19 2.64746 3.37057 0
M  V30 7862 H 743.374 3.62805 3.38654 0
M  V30 7863 H 738.63 5.03925 3.46222 0
M  V30 7864 H 742.804 6.02618 3.49034 0
M  V30 7865 H 740.431 6.73596 3.5238 0
M  V30 7866 N 742.006 -1.2595 0.947325 0
M  V30 7867 C 743.231 -1.98083 0.614633 0
M  V30 7868 C 743.656 -1.70013 -0.804815 0
M  V30 7869 O 743.014 -0.95175 -1.54309 0
M  V30 7870 C 743.062 -3.4993 0.870706 0
M  V30 7871 O 742.166 -4.12364 -0.0541451 0
M  V30 7872 H 741.507 -0.621232 0.234451 0
M  V30 7873 H 744.037 -1.60259 1.27193 0
M  V30 7874 H 744.047 -4.00198 0.794051 0
M  V30 7875 H 742.722 -3.69691 1.90529 0
M  V30 7876 H 741.299 -3.72826 0.0740917 0
M  V30 7877 N 743.484 -0.715051 -1.40445 0
M  V30 7878 C 744.712 -0.263959 -2.05209 0
M  V30 7879 C 745.127 1.09403 -1.53871 0
M  V30 7880 O 744.484 1.68746 -0.695064 0
M  V30 7881 C 744.535 -0.234545 -3.60738 0
M  V30 7882 O 744.256 -1.53891 -4.10182 0
M  V30 7883 C 745.757 0.235164 -4.42676 0
M  V30 7884 H 742.977 -0.11876 -0.660407 0
M  V30 7885 H 745.521 -0.973107 -1.79864 0
M  V30 7886 H 743.676 0.425563 -3.85055 0
M  V30 7887 H 744.09 -1.43903 -5.04373 0
M  V30 7888 H 745.564 0.204598 -5.51621 0
M  V30 7889 H 746.041 1.27724 -4.20218 0
M  V30 7890 H 746.647 -0.394649 -4.23465 0
M  V30 7891 N 744.962 1.50701 -0.461195 0
M  V30 7892 C 746.187 2.07171 0.0974773 0
M  V30 7893 C 746.612 1.32391 1.3362 0
M  V30 7894 O 745.97 0.368676 1.77512 0
M  V30 7895 C 746.018 3.58651 0.374409 0
M  V30 7896 O 745.122 3.85816 1.4567 0
M  V30 7897 H 744.463 0.663944 -0.00862047 0
M  V30 7898 H 746.993 1.94021 -0.649394 0
M  V30 7899 H 747.003 4.03295 0.617843 0
M  V30 7900 H 745.678 4.12498 -0.530829 0
M  V30 7901 H 744.255 3.53018 1.20136 0
M  V30 7902 N 746.441 0.193421 1.56409 0
M  V30 7903 C 747.404 -0.714371 2.17783 0
M  V30 7904 C 748.404 -1.1422 1.13183 0
M  V30 7905 O 749.594 -1.05557 1.38576 0
M  V30 7906 C 746.726 -1.97509 2.77855 0
M  V30 7907 H 747.919 -0.179714 2.99361 0
M  V30 7908 H 745.472 -0.0561944 1.56199 0
M  V30 7909 H 746.207 -2.5523 2.0007 0
M  V30 7910 H 745.992 -1.67706 3.54425 0
M  V30 7911 H 747.482 -2.62246 3.24987 0
M  V30 7912 N 747.919 -1.57396 -0.0801906 0
M  V30 7913 C 748.849 -2.06145 -1.09665 0
M  V30 7914 C 749.83 -0.953273 -1.40878 0
M  V30 7915 O 751.015 -1.22548 -1.50651 0
M  V30 7916 C 748.145 -2.49836 -2.41245 0
M  V30 7917 C 747.099 -3.64454 -2.24405 0
M  V30 7918 C 746.425 -3.94172 -3.61293 0
M  V30 7919 C 747.725 -4.94807 -1.67223 0
M  V30 7920 H 749.419 -2.91316 -0.691028 0
M  V30 7921 H 746.965 -1.40145 -0.330957 0
M  V30 7922 H 748.918 -2.82552 -3.12638 0
M  V30 7923 H 747.642 -1.61683 -2.83771 0
M  V30 7924 H 746.301 -3.32008 -1.55454 0
M  V30 7925 H 745.949 -3.03163 -4.01374 0
M  V30 7926 H 745.649 -4.71345 -3.50867 0
M  V30 7927 H 747.173 -4.29376 -4.3413 0
M  V30 7928 H 748.587 -5.25807 -2.28472 0
M  V30 7929 H 746.984 -5.76245 -1.67515 0
M  V30 7930 H 748.054 -4.80751 -0.632944 0
M  V30 7931 N 749.397 0.351382 -1.53633 0
M  V30 7932 C 750.329 1.45159 -1.77374 0
M  V30 7933 C 751.342 1.4905 -0.654826 0
M  V30 7934 O 752.531 1.52274 -0.931396 0
M  V30 7935 C 749.631 2.83858 -1.85143 0
M  V30 7936 C 748.804 3.03498 -3.14972 0
M  V30 7937 C 747.863 4.22393 -3.138 0
M  V30 7938 O 746.889 4.16885 -3.87551 0
M  V30 7939 N 748.091 5.30533 -2.35617 0
M  V30 7940 H 750.856 1.25167 -2.72311 0
M  V30 7941 H 748.417 0.54121 -1.52586 0
M  V30 7942 H 750.409 3.61557 -1.8182 0
M  V30 7943 H 748.979 2.9703 -0.974275 0
M  V30 7944 H 748.199 2.13336 -3.31484 0
M  V30 7945 H 749.487 3.13498 -4.00745 0
M  V30 7946 H 748.885 5.37875 -1.75235 0
M  V30 7947 H 747.442 6.06756 -2.38098 0
M  V30 7948 N 750.875 1.45233 0.611969 0
M  V30 7949 C 752.123 1.48727 1.36838 0
M  V30 7950 C 752.444 0.128616 1.94575 0
M  V30 7951 O 751.714 -0.84149 1.76906 0
M  V30 7952 H 750.294 0.547695 0.507976 0
M  V30 7953 H 752.956 1.81156 0.718925 0
M  V30 7954 H 752.052 2.2236 2.19003 0
M  V30 7955 N 752.353 -0.854086 1.3245 0
M  V30 7956 C 753.316 -1.94427 1.21371 0
M  V30 7957 C 754.316 -1.60219 0.136613 0
M  V30 7958 O 755.506 -1.69846 0.387057 0
M  V30 7959 C 752.638 -3.29698 0.866701 0
M  V30 7960 H 753.831 -2.05679 2.18257 0
M  V30 7961 H 751.384 -1.04434 1.1629 0
M  V30 7962 H 752.119 -3.24145 -0.100319 0
M  V30 7963 H 751.904 -3.55903 1.64545 0
M  V30 7964 H 753.394 -4.09599 0.813515 0
M  V30 7965 N 753.831 -1.1567 -1.07043 0
M  V30 7966 C 754.763 -0.814095 -2.14255 0
M  V30 7967 C 755.776 0.175293 -1.61854 0
M  V30 7968 O 756.965 -0.0483984 -1.78434 0
M  V30 7969 C 754.065 -0.190082 -3.38367 0
M  V30 7970 C 753.238 -1.21768 -4.20109 0
M  V30 7971 C 752.297 -0.614863 -5.22595 0
M  V30 7972 O 751.323 -1.28167 -5.54583 0
M  V30 7973 N 752.525 0.601955 -5.77371 0
M  V30 7974 H 755.29 -1.73677 -2.44247 0
M  V30 7975 H 752.851 -1.05301 -1.22977 0
M  V30 7976 H 754.843 0.22604 -4.04068 0
M  V30 7977 H 753.413 0.635992 -3.06062 0
M  V30 7978 H 752.633 -1.81025 -3.50177 0
M  V30 7979 H 753.921 -1.9114 -4.71533 0
M  V30 7980 H 753.319 1.162 -5.53637 0
M  V30 7981 H 751.876 0.96039 -6.44686 0
M  V30 7982 N 755.309 1.25446 -0.953992 0
M  V30 7983 C 756.557 1.92762 -0.607227 0
M  V30 7984 C 756.878 1.7509 0.858399 0
M  V30 7985 O 756.148 1.11416 1.61132 0
M  V30 7986 H 754.728 0.713377 -0.221591 0
M  V30 7987 H 757.39 1.52625 -1.21209 0
M  V30 7988 H 756.486 3.00695 -0.835998 0
M  V30 7989 N 756.787 0.722489 1.40064 0
M  V30 7990 C 758.035 0.264455 2.00362 0
M  V30 7991 C 758.356 -1.14847 1.57592 0
M  V30 7992 O 757.626 -1.77982 0.818477 0
M  V30 7993 H 756.206 0.0947846 0.740962 0
M  V30 7994 H 758.868 0.929659 1.71299 0
M  V30 7995 H 757.964 0.302977 3.10626 0
M  V30 7996 N 758.265 -1.50454 0.469181 0
M  V30 7997 C 759.228 -2.2703 -0.314643 0
M  V30 7998 C 760.228 -1.31734 -0.922111 0
M  V30 7999 O 761.418 -1.55176 -0.791588 0
M  V30 8000 C 758.55 -3.08616 -1.44806 0
M  V30 8001 H 759.743 -2.97769 0.356892 0
M  V30 8002 H 757.296 -1.54698 0.223191 0
M  V30 8003 H 758.031 -2.42369 -2.1547 0
M  V30 8004 H 757.816 -3.78647 -1.01829 0
M  V30 8005 H 759.306 -3.66536 -2.00103 0
M  V30 8006 N 759.743 -0.201713 -1.56304 0
M  V30 8007 C 761.159 0.154025 -1.58855 0
M  V30 8008 C 761.359 1.60516 -1.21807 0
M  V30 8009 O 760.415 2.34193 -0.94393 0
M  V30 8010 C 761.728 -0.154319 -3.00304 0
M  V30 8011 C 763.276 -0.0949578 -3.12856 0
M  V30 8012 C 763.751 -0.376703 -4.56448 0
M  V30 8013 N 765.242 -0.325558 -4.62054 0
M  V30 8014 C 765.977 -0.51732 -5.71062 0
M  V30 8015 N 765.473 -0.769789 -6.8851 0
M  V30 8016 N 767.266 -0.45112 -5.60287 0
M  V30 8017 H 759.417 -1.14858 -1.78666 0
M  V30 8018 H 761.68 -0.458934 -0.829508 0
M  V30 8019 H 761.386 -1.16074 -3.31994 0
M  V30 8020 H 761.26 0.540014 -3.73314 0
M  V30 8021 H 763.647 0.902075 -2.80974 0
M  V30 8022 H 763.728 -0.822468 -2.42217 0
M  V30 8023 H 763.372 -1.37108 -4.89044 0
M  V30 8024 H 763.302 0.371772 -5.25286 0
M  V30 8025 H 765.793 -0.137308 -3.7765 0
M  V30 8026 H 766.106 -0.904744 -7.67486 0
M  V30 8027 H 764.451 -0.806758 -6.90302 0
M  V30 8028 H 767.642 -0.254253 -4.67409 0
M  V30 8029 H 767.815 -0.603982 -6.45179 0
M  V30 8030 N 761.222 1.57436 0.0718424 0
M  V30 8031 C 762.185 2.02703 1.06977 0
M  V30 8032 C 763.185 0.924062 1.31597 0
M  V30 8033 O 764.375 1.18894 1.27318 0
M  V30 8034 C 761.507 2.40763 2.41342 0
M  V30 8035 H 762.7 2.92098 0.679619 0
M  V30 8036 H 760.253 1.5304 0.317565 0
M  V30 8037 H 760.988 1.54394 2.8519 0
M  V30 8038 H 760.773 3.21249 2.24814 0
M  V30 8039 H 762.263 2.76361 3.13073 0
M  V30 8040 N 762.7 -0.34323 1.53817 0
M  V30 8041 C 763.63 -1.42709 1.84814 0
M  V30 8042 C 764.611 -1.5488 0.703297 0
M  V30 8043 O 765.796 -1.69082 0.955237 0
M  V30 8044 C 762.926 -2.79756 2.05801 0
M  V30 8045 C 761.88 -2.82392 3.21619 0
M  V30 8046 C 761.206 -4.22326 3.2794 0
M  V30 8047 C 762.506 -2.479 4.59721 0
M  V30 8048 H 764.2 -1.17018 2.75585 0
M  V30 8049 H 761.746 -0.561485 1.32602 0
M  V30 8050 H 763.699 -3.55627 2.26069 0
M  V30 8051 H 762.423 -3.06883 1.11761 0
M  V30 8052 H 761.082 -2.08974 3.01207 0
M  V30 8053 H 760.73 -4.46564 2.31494 0
M  V30 8054 H 760.43 -4.25001 4.05768 0
M  V30 8055 H 761.954 -5.00039 3.50419 0
M  V30 8056 H 763.368 -3.13484 4.80001 0
M  V30 8057 H 761.765 -2.61857 5.39954 0
M  V30 8058 H 762.835 -1.43087 4.63308 0
M  V30 8059 N 764.178 -1.45556 -0.604258 0
M  V30 8060 C 765.108 -1.57327 -1.72541 0
M  V30 8061 C 766.089 -0.424637 -1.64714 0
M  V30 8062 O 767.274 -0.648196 -1.83063 0
M  V30 8063 C 764.404 -1.54279 -3.11152 0
M  V30 8064 C 763.358 -2.67893 -3.33792 0
M  V30 8065 C 762.684 -2.499 -4.72709 0
M  V30 8066 C 763.984 -4.0988 -3.23722 0
M  V30 8067 H 765.678 -2.51175 -1.62947 0
M  V30 8068 H 763.224 -1.20884 -0.782504 0
M  V30 8069 H 765.177 -1.6111 -3.89386 0
M  V30 8070 H 763.901 -0.569627 -3.21594 0
M  V30 8071 H 762.56 -2.60495 -2.57949 0
M  V30 8072 H 762.208 -1.50715 -4.79889 0
M  V30 8073 H 761.908 -3.26091 -4.88813 0
M  V30 8074 H 763.432 -2.5859 -5.5314 0
M  V30 8075 H 764.846 -4.18503 -3.91826 0
M  V30 8076 H 763.243 -4.86487 -3.51355 0
M  V30 8077 H 764.313 -4.31553 -2.21111 0
M  V30 8078 N 765.656 0.84705 -1.32902 0
M  V30 8079 C 766.904 1.5986 -1.2365 0
M  V30 8080 C 767.225 1.93974 0.199789 0
M  V30 8081 O 766.495 1.60273 1.12648 0
M  V30 8082 H 765.075 0.592696 -0.454665 0
M  V30 8083 H 767.737 1.01278 -1.66519 0
M  V30 8084 H 766.833 2.53218 -1.82448 0
M  V30 8085 N 767.134 1.16236 1.06428 0
M  V30 8086 C 768.382 0.941171 1.78847 0
M  V30 8087 C 768.703 -0.53248 1.87589 0
M  V30 8088 O 767.973 -1.38686 1.38358 0
M  V30 8089 H 766.553 0.345228 0.66244 0
M  V30 8090 H 769.215 1.46479 1.28569 0
M  V30 8091 H 768.311 1.35871 2.80972 0
M  V30 8092 N 768.612 -1.24939 0.960631 0
M  V30 8093 C 769.842 -1.96595 0.635123 0
M  V30 8094 C 770.25 -1.71538 -0.798206 0
M  V30 8095 O 769.593 -0.991727 -1.5463 0
M  V30 8096 C 769.655 -3.49994 0.821248 0
M  V30 8097 C 769.319 -3.98738 2.23287 0
M  V30 8098 C 770.316 -4.08965 3.21004 0
M  V30 8099 C 768.001 -4.32247 2.55867 0
M  V30 8100 C 769.995 -4.52025 4.49391 0
M  V30 8101 C 767.682 -4.74991 3.84482 0
M  V30 8102 C 768.68 -4.84844 4.81056 0
M  V30 8103 O 768.368 -5.26638 6.07378 0
M  V30 8104 H 768.1 -0.633265 0.23654 0
M  V30 8105 H 770.654 -1.5991 1.28911 0
M  V30 8106 H 768.884 -3.86543 0.110105 0
M  V30 8107 H 770.573 -4.02859 0.495892 0
M  V30 8108 H 771.339 -3.83302 2.97161 0
M  V30 8109 H 767.218 -4.23801 1.81421 0
M  V30 8110 H 770.762 -4.5963 5.24773 0
M  V30 8111 H 766.659 -5.00101 4.08129 0
M  V30 8112 H 767.427 -5.44807 6.10842 0
M  V30 8113 N 770.09 -0.729906 -1.39679 0
M  V30 8114 C 771.315 -0.284345 -2.05442 0
M  V30 8115 C 771.74 1.07056 -1.54663 0
M  V30 8116 O 771.098 1.67732 -0.688157 0
M  V30 8117 C 771.146 -0.290089 -3.59431 0
M  V30 8118 O 770.25 0.723978 -4.05995 0
M  V30 8119 H 769.591 -0.130311 -0.651088 0
M  V30 8120 H 772.121 -0.994403 -1.78809 0
M  V30 8121 H 772.131 -0.132712 -4.07784 0
M  V30 8122 H 770.806 -1.27877 -3.95753 0
M  V30 8123 H 769.383 0.533154 -3.69069 0
M  V30 8124 N 771.568 1.50203 -0.477153 0
M  V30 8125 C 772.5 2.26508 0.350239 0
M  V30 8126 C 773.513 1.32081 0.95176 0
M  V30 8127 O 774.702 1.57546 0.839139 0
M  V30 8128 C 771.802 3.0361 1.50579 0
M  V30 8129 C 770.975 4.25438 1.01595 0
M  V30 8130 C 770.034 4.84783 2.04626 0
M  V30 8131 O 769.06 5.45528 1.62442 0
M  V30 8132 N 770.262 4.72318 3.37485 0
M  V30 8133 H 773.027 2.98155 -0.30394 0
M  V30 8134 H 770.588 1.58938 -0.308289 0
M  V30 8135 H 772.58 3.4019 2.1921 0
M  V30 8136 H 771.15 2.34724 2.06455 0
M  V30 8137 H 770.37 3.93894 0.155316 0
M  V30 8138 H 771.658 5.04413 0.666694 0
M  V30 8139 H 771.056 4.24022 3.74462 0
M  V30 8140 H 769.613 5.13149 4.01897 0
M  V30 8141 N 773.046 0.209999 1.56195 0
M  V30 8142 C 774.009 -0.691232 2.18528 0
M  V30 8143 C 775.009 -1.13013 1.14388 0
M  V30 8144 O 776.199 -1.04081 1.39688 0
M  V30 8145 C 773.331 -1.94551 2.79934 0
M  V30 8146 H 774.524 -0.147953 2.99535 0
M  V30 8147 H 772.077 -0.0396243 1.5625 0
M  V30 8148 H 772.812 -2.53094 2.02766 0
M  V30 8149 H 772.597 -1.63938 3.56184 0
M  V30 8150 H 774.087 -2.58785 3.2775 0
M  V30 8151 N 774.524 -1.57472 -0.0634922 0
M  V30 8152 C 775.754 -1.91608 -0.772645 0
M  V30 8153 C 776.162 -0.805019 -1.71219 0
M  V30 8154 O 775.505 0.229941 -1.82255 0
M  V30 8155 C 775.567 -3.21281 -1.61304 0
M  V30 8156 C 775.231 -4.49177 -0.841973 0
M  V30 8157 C 776.228 -5.19661 -0.157494 0
M  V30 8158 C 773.913 -4.9578 -0.80669 0
M  V30 8159 C 775.907 -6.35006 0.551948 0
M  V30 8160 C 773.594 -6.11028 -0.0934812 0
M  V30 8161 C 774.592 -6.80493 0.58463 0
M  V30 8162 O 774.28 -7.93542 1.28633 0
M  V30 8163 H 774.012 -0.637685 -0.224352 0
M  V30 8164 H 776.566 -2.05369 -0.0355279 0
M  V30 8165 H 774.796 -3.03752 -2.39315 0
M  V30 8166 H 776.485 -3.41003 -2.20162 0
M  V30 8167 H 777.251 -4.84681 -0.176006 0
M  V30 8168 H 773.13 -4.41579 -1.32397 0
M  V30 8169 H 776.674 -6.89161 1.0818 0
M  V30 8170 H 772.571 -6.45459 -0.0729258 0
M  V30 8171 H 773.339 -8.09708 1.19646 0
M  V30 8172 N 776.003 0.335068 -1.53997 0
M  V30 8173 C 777.251 1.07223 -1.71312 0
M  V30 8174 C 777.572 1.88911 -0.483486 0
M  V30 8175 O 776.842 1.89344 0.50257 0
M  V30 8176 H 775.422 0.398846 -0.63161 0
M  V30 8177 H 778.084 0.374288 -1.91272 0
M  V30 8178 H 777.18 1.7448 -2.58772 0
M  V30 8179 N 777.481 1.45874 0.596531 0
M  V30 8180 C 778.709 1.54013 1.38158 0
M  V30 8181 C 779.124 0.17648 1.87973 0
M  V30 8182 O 778.481 -0.823895 1.62844 0
M  V30 8183 C 778.532 2.53363 2.57855 0
M  V30 8184 O 778.253 3.8443 2.10108 0
M  V30 8185 C 779.754 2.71308 3.50581 0
M  V30 8186 H 776.974 0.521251 0.422538 0
M  V30 8187 H 779.518 1.9116 0.726493 0
M  V30 8188 H 777.673 2.19257 3.19382 0
M  V30 8189 H 778.087 4.38384 2.87958 0
M  V30 8190 H 779.561 3.44776 4.31084 0
M  V30 8191 H 780.038 1.77728 4.01633 0
M  V30 8192 H 780.644 3.06455 2.94899 0
M  V30 8193 N 778.959 -0.83999 1.33349 0
M  V30 8194 C 780.205 -1.59753 1.24927 0
M  V30 8195 C 780.538 -1.93318 -0.184855 0
M  V30 8196 O 779.813 -1.586 -1.12589 0
M  V30 8197 C 780.096 -2.90829 2.12345 0
M  V30 8198 C 779.949 -2.63953 3.6421 0
M  V30 8199 C 781.268 -3.92246 1.99577 0
M  V30 8200 H 778.387 -0.579654 0.45516 0
M  V30 8201 H 781.029 -0.968909 1.63439 0
M  V30 8202 H 779.179 -3.44478 1.79631 0
M  V30 8203 H 780.851 -2.16745 4.07209 0
M  V30 8204 H 779.094 -1.97671 3.86146 0
M  V30 8205 H 779.765 -3.57348 4.20721 0
M  V30 8206 H 782.241 -3.479 2.28265 0
M  V30 8207 H 781.117 -4.81793 2.62996 0
M  V30 8208 H 781.378 -4.3138 0.967673 0
M  V30 8209 N 780.437 -1.16799 -1.0581 0
M  V30 8210 C 781.677 -0.963264 -1.80279 0
M  V30 8211 C 782.041 0.499671 -1.85384 0
M  V30 8212 O 783.242 0.823264 -2.55882 0
M  V30 8213 C 781.513 -1.57938 -3.20609 0
M  V30 8214 S 783.072 -1.51997 -4.11634 0
M  V30 8215 H 779.89 -0.346302 -0.620964 0
M  V30 8216 H 782.492 -1.48632 -1.26999 0
M  V30 8217 H 781.196 -2.63672 -3.14492 0
M  V30 8218 H 780.727 -1.05586 -3.78966 0
M  V30 8219 H 782.742 -0.523625 -4.93429 0
M  V30 8220 N 781.915 1.24427 -0.967243 0
M  V30 8221 C 782.865 2.23143 -0.468106 0
M  V30 8222 C 783.849 1.5449 0.449633 0
M  V30 8223 O 785.041 1.74761 0.28063 0
M  V30 8224 C 782.17 3.42454 0.240867 0
M  V30 8225 C 781.256 4.18355 -0.695674 0
M  V30 8226 N 781.647 4.71428 -1.83273 0
M  V30 8227 C 779.945 4.43116 -0.506365 0
M  V30 8228 C 780.646 5.29041 -2.41849 0
M  V30 8229 N 779.622 5.16213 -1.70369 0
M  V30 8230 H 783.424 2.61795 -1.3357 0
M  V30 8231 H 780.938 1.39809 -0.826277 0
M  V30 8232 H 782.935 4.12329 0.615668 0
M  V30 8233 H 781.595 3.05323 1.10491 0
M  V30 8234 H 782.606 4.68177 -2.21428 0
M  V30 8235 H 779.283 4.16319 0.313747 0
M  V30 8236 H 780.673 5.80811 -3.37799 0
M  V30 8237 N 783.393 0.737304 1.3929 0
M  V30 8238 C 784.618 0.295237 2.05288 0
M  V30 8239 C 785.043 -1.06235 1.55228 0
M  V30 8240 O 784.401 -1.67365 0.697043 0
M  V30 8241 C 784.449 0.309146 3.59272 0
M  V30 8242 O 783.553 -0.702437 4.06374 0
M  V30 8243 H 782.894 0.133762 0.650387 0
M  V30 8244 H 785.424 1.00387 1.78279 0
M  V30 8245 H 785.434 0.154336 4.07708 0
M  V30 8246 H 784.109 1.29974 3.95069 0
M  V30 8247 H 782.686 -0.513574 3.69346 0
M  V30 8248 N 784.871 -1.49948 0.485112 0
M  V30 8249 C 785.834 -2.27351 -0.290546 0
M  V30 8250 C 786.834 -1.32704 -0.908087 0
M  V30 8251 O 788.024 -1.56007 -0.775085 0
M  V30 8252 C 785.156 -3.10135 -1.41524 0
M  V30 8253 H 786.349 -2.97374 0.388454 0
M  V30 8254 H 783.902 -1.54453 0.239586 0
M  V30 8255 H 784.637 -2.44641 -2.12888 0
M  V30 8256 H 784.422 -3.79705 -0.978074 0
M  V30 8257 H 785.912 -3.68638 -1.96204 0
M  V30 8258 N 786.349 -0.21828 -1.56081 0
M  V30 8259 C 787.279 0.687922 -2.23136 0
M  V30 8260 C 788.26 1.20357 -1.202 0
M  V30 8261 O 789.445 1.24817 -1.48776 0
M  V30 8262 C 786.575 1.89762 -2.90874 0
M  V30 8263 C 785.529 1.51595 -4.00254 0
M  V30 8264 C 784.855 2.80415 -4.55271 0
M  V30 8265 C 786.155 0.708404 -5.17474 0
M  V30 8266 H 787.849 0.128854 -2.99123 0
M  V30 8267 H 785.395 0.0605354 -1.43873 0
M  V30 8268 H 787.348 2.53699 -3.36474 0
M  V30 8269 H 786.072 2.4816 -2.1233 0
M  V30 8270 H 784.731 0.900058 -3.55379 0
M  V30 8271 H 784.379 3.36951 -3.73461 0
M  V30 8272 H 784.079 2.55613 -5.2909 0
M  V30 8273 H 785.603 3.453 -5.03587 0
M  V30 8274 H 787.017 1.2514 -5.59476 0
M  V30 8275 H 785.414 0.557593 -5.97504 0
M  V30 8276 H 786.484 -0.285679 -4.84058 0
M  V30 8277 N 787.827 1.57504 0.0551401 0
M  V30 8278 C 789.075 1.87684 0.74962 0
M  V30 8279 C 789.396 0.812547 1.77264 0
M  V30 8280 O 788.666 -0.15694 1.9527 0
M  V30 8281 H 787.246 0.6926 0.279846 0
M  V30 8282 H 789.908 1.94881 0.0272745 0
M  V30 8283 H 789.004 2.85734 1.25548 0
M  V30 8284 N 789.305 -0.326896 1.54172 0
M  V30 8285 C 790.255 -1.40319 1.79707 0
M  V30 8286 C 791.239 -1.47056 0.652938 0
M  V30 8287 O 792.431 -1.51645 0.91284 0
M  V30 8288 C 789.56 -2.77222 2.02491 0
M  V30 8289 C 788.646 -2.74811 3.23016 0
M  V30 8290 N 789.037 -2.42022 4.44138 0
M  V30 8291 C 787.335 -3.05943 3.24522 0
M  V30 8292 C 788.036 -2.48263 5.26061 0
M  V30 8293 N 787.012 -2.84567 4.63166 0
M  V30 8294 H 790.814 -1.13892 2.70935 0
M  V30 8295 H 788.328 -0.53536 1.53322 0
M  V30 8296 H 790.325 -3.54793 2.18923 0
M  V30 8297 H 788.985 -3.04582 1.12515 0
M  V30 8298 H 789.996 -2.14926 4.71197 0
M  V30 8299 H 786.673 -3.38367 2.44569 0
M  V30 8300 H 788.063 -2.2593 6.32776 0
M  V30 8301 N 790.784 -1.46188 -0.588786 0
M  V30 8302 C 791.714 -1.59148 -1.70863 0
M  V30 8303 C 792.695 -0.442083 -1.64255 0
M  V30 8304 O 793.88 -0.667575 -1.82365 0
M  V30 8305 C 791.01 -1.5757 -3.09498 0
M  V30 8306 C 789.964 -2.71418 -3.30932 0
M  V30 8307 C 789.29 -2.549 -4.70032 0
M  V30 8308 C 790.59 -4.1329 -3.19356 0
M  V30 8309 H 792.284 -2.52889 -1.60274 0
M  V30 8310 H 789.83 -1.21707 -0.769638 0
M  V30 8311 H 791.783 -1.65231 -3.87655 0
M  V30 8312 H 790.507 -0.603705 -3.20972 0
M  V30 8313 H 789.166 -2.63216 -2.55172 0
M  V30 8314 H 788.814 -1.55797 -4.78264 0
M  V30 8315 H 788.514 -3.31257 -4.85327 0
M  V30 8316 H 790.038 -2.64443 -5.50366 0
M  V30 8317 H 791.452 -4.22636 -3.87365 0
M  V30 8318 H 789.849 -4.90187 -3.46175 0
M  V30 8319 H 790.919 -4.33874 -2.16522 0
M  V30 8320 N 792.262 0.832906 -1.33792 0
M  V30 8321 C 793.673 1.40489 -1.22963 0
M  V30 8322 C 794.024 1.95633 0.149026 0
M  V30 8323 O 793.149 1.8928 1.04891 0
M  V30 8324 C 793.744 2.55387 -2.22627 0
M  V30 8325 C 792.303 3.08522 -2.15618 0
M  V30 8326 C 791.45 1.81347 -2.09782 0
M  V30 8327 H 794.401 0.638156 -1.45304 0
M  V30 8328 H 794.422 3.33193 -1.83746 0
M  V30 8329 H 793.934 2.15222 -3.22957 0
M  V30 8330 H 792.035 3.53217 -1.18611 0
M  V30 8331 H 792.148 3.6829 -3.0643 0
M  V30 8332 H 790.512 2.01839 -1.55349 0
M  V30 8333 H 791.295 1.43369 -3.1193 0
M  V30 8334 N 793.74 1.17359 1.05189 0
M  V30 8335 C 794.67 0.91365 2.14883 0
M  V30 8336 C 795.651 -0.144365 1.69486 0
M  V30 8337 O 796.836 0.00587861 1.94199 0
M  V30 8338 C 793.966 0.426196 3.44675 0
M  V30 8339 C 792.92 1.4234 4.03638 0
M  V30 8340 C 792.246 0.793902 5.28773 0
M  V30 8341 C 793.546 2.7966 4.41121 0
M  V30 8342 H 795.24 1.831 2.36885 0
M  V30 8343 H 792.786 0.881781 1.13845 0
M  V30 8344 H 794.739 0.231767 4.20762 0
M  V30 8345 H 793.463 -0.526693 3.22325 0
M  V30 8346 H 792.122 1.60457 3.2962 0
M  V30 8347 H 791.77 -0.165824 5.02727 0
M  V30 8348 H 791.47 1.45959 5.69183 0
M  V30 8349 H 792.994 0.609747 6.07548 0
M  V30 8350 H 794.408 2.6526 5.08242 0
M  V30 8351 H 792.805 3.42807 4.92548 0
M  V30 8352 H 793.875 3.34068 3.51464 0
M  V30 8353 N 795.218 -1.23913 0.973828 0
M  V30 8354 C 796.148 -2.27453 0.527969 0
M  V30 8355 C 797.129 -1.6443 -0.435513 0
M  V30 8356 O 798.314 -1.9137 -0.330306 0
M  V30 8357 C 795.444 -3.4685 -0.176757 0
M  V30 8358 C 794.398 -4.22181 0.703352 0
M  V30 8359 C 793.724 -5.34534 -0.133215 0
M  V30 8360 C 795.024 -4.82865 1.99096 0
M  V30 8361 H 796.718 -2.65 1.3934 0
M  V30 8362 H 794.264 -1.27388 0.671446 0
M  V30 8363 H 796.217 -4.18424 -0.499934 0
M  V30 8364 H 794.941 -3.08346 -1.07659 0
M  V30 8365 H 793.6 -3.52416 1.00989 0
M  V30 8366 H 793.248 -4.92271 -1.03338 0
M  V30 8367 H 792.948 -5.85855 0.452494 0
M  V30 8368 H 794.472 -6.08933 -0.450924 0
M  V30 8369 H 795.886 -5.46481 1.73297 0
M  V30 8370 H 794.283 -5.44444 2.52389 0
M  V30 8371 H 795.353 -4.03977 2.68199 0
M  V30 8372 N 796.696 -0.74468 -1.38897 0
M  V30 8373 C 797.606 -0.112892 -2.34328 0
M  V30 8374 C 798.622 0.71087 -1.58816 0
M  V30 8375 O 799.798 0.637092 -1.91058 0
M  V30 8376 C 796.863 0.776417 -3.37894 0
M  V30 8377 C 795.924 -0.0606999 -4.29257 0
M  V30 8378 C 795.157 0.786258 -5.27877 0
M  V30 8379 O 795.38 2.02463 -5.33259 0
M  V30 8380 O 794.314 0.209781 -6.01534 0
M  V30 8381 H 798.14 -0.900801 -2.90033 0
M  V30 8382 H 795.725 -0.505462 -1.4059 0
M  V30 8383 H 797.607 1.28496 -4.01331 0
M  V30 8384 H 796.282 1.54297 -2.84559 0
M  V30 8385 H 795.189 -0.614984 -3.69011 0
M  V30 8386 H 796.522 -0.789702 -4.85824 0
M  V30 8387 N 798.174 1.49689 -0.493057 0
M  V30 8388 C 799.422 2.02027 0.0541642 0
M  V30 8389 C 799.743 1.37554 1.38217 0
M  V30 8390 O 799.013 0.528174 1.88646 0
M  V30 8391 H 797.593 0.746646 0.0230069 0
M  V30 8392 H 800.255 1.83795 -0.648489 0
M  V30 8393 H 799.351 3.11523 0.189652 0
M  V30 8394 N 799.652 0.226554 1.55963 0
M  V30 8395 C 800.602 -0.694986 2.1715 0
M  V30 8396 C 801.586 -1.15394 1.12129 0
M  V30 8397 O 802.778 -1.1071 1.38102 0
M  V30 8398 C 799.907 -1.9007 2.85882 0
M  V30 8399 C 798.993 -1.46119 3.98133 0
M  V30 8400 N 799.384 -0.734584 5.00437 0
M  V30 8401 C 797.682 -1.74809 4.10314 0
M  V30 8402 C 798.383 -0.509773 5.79462 0
M  V30 8403 N 797.359 -1.06796 5.33006 0
M  V30 8404 H 801.161 -0.131469 2.93606 0
M  V30 8405 H 798.675 0.0280165 1.62376 0
M  V30 8406 H 800.672 -2.57169 3.28131 0
M  V30 8407 H 799.332 -2.46864 2.10923 0
M  V30 8408 H 800.343 -0.386757 5.16454 0
M  V30 8409 H 797.02 -2.32887 3.46511 0
M  V30 8410 H 798.41 0.0688847 6.71865 0
M  V30 8411 N 801.13 -1.57531 -0.0467866 0
M  V30 8412 C 802.08 -2.01845 -1.06031 0
M  V30 8413 C 803.064 -0.904662 -1.33059 0
M  V30 8414 O 804.256 -1.16858 -1.32941 0
M  V30 8415 C 801.385 -2.48673 -2.36679 0
M  V30 8416 C 800.471 -3.66837 -2.12818 0
M  V30 8417 N 800.862 -4.80172 -1.5896 0
M  V30 8418 C 799.16 -3.73869 -2.43183 0
M  V30 8419 C 799.861 -5.61895 -1.50494 0
M  V30 8420 N 798.837 -5.0648 -1.97431 0
M  V30 8421 H 802.639 -2.869 -0.637623 0
M  V30 8422 H 800.153 -1.6041 -0.253427 0
M  V30 8423 H 802.15 -2.78671 -3.10077 0
M  V30 8424 H 800.81 -1.65016 -2.79642 0
M  V30 8425 H 801.821 -5.01967 -1.27474 0
M  V30 8426 H 798.498 -3.00977 -2.89342 0
M  V30 8427 H 799.888 -6.62918 -1.09494 0
M  V30 8428 N 802.608 0.318715 -1.54344 0
M  V30 8429 C 803.854 1.05765 -1.73037 0
M  V30 8430 C 804.187 1.87514 -0.505181 0
M  V30 8431 O 803.462 1.88021 0.497838 0
M  V30 8432 C 803.745 1.97836 -3.00887 0
M  V30 8433 C 803.598 1.19384 -4.33668 0
M  V30 8434 C 804.917 2.97285 -3.24514 0
M  V30 8435 H 802.036 0.383104 -0.629603 0
M  V30 8436 H 804.678 0.333864 -1.87044 0
M  V30 8437 H 802.828 2.59552 -2.89076 0
M  V30 8438 H 804.5 0.600906 -4.57369 0
M  V30 8439 H 802.743 0.496198 -4.30953 0
M  V30 8440 H 803.414 1.87014 -5.19355 0
M  V30 8441 H 805.89 2.45693 -3.35819 0
M  V30 8442 H 804.766 3.58887 -4.15321 0
M  V30 8443 H 805.027 3.70003 -2.41971 0
M  V30 8444 O 804.125 1.54671 0.464657 0
M  V30 8445 H 804.816 1.58115 1.1189 0
M  V30 END ATOM
M  V30 BEGIN BOND
M  V30 END BOND
M  V30 END CTAB
M  END
$$$$
