drugbank_target|O43570 Carbonic anhydrase 12 (DB00562; DB00774; DB00819; DB00909; DB08846)
 OpenBabel12092119573D

  0  0  0     0  0            999 V3000
M  V30 BEGIN CTAB
M  V30 COUNTS 5532 5606 0 0 0
M  V30 BEGIN ATOM
M  V30 1 H -0.908 1.98254 -0.117106 0
M  V30 2 N 0 1.576 0 0
M  V30 3 C 0.933 2.03868 1.02534 0
M  V30 4 C 1.911 0.928543 1.3348 0
M  V30 5 O 3.095 1.19667 1.45644 0
M  V30 6 C 0.222 2.43627 2.35294 0
M  V30 7 C -0.732 3.65373 2.2001 0
M  V30 8 S 0.101 5.13292 1.52614 0
M  V30 9 C 1.257 5.56322 2.86805 0
M  V30 10 H 1.49 2.90518 0.631377 0
M  V30 11 H -0.977 1.52953 0.210867 0
M  V30 12 H 0.981 2.67203 3.11629 0
M  V30 13 H -0.358 1.57376 2.7183 0
M  V30 14 H -1.165 3.90944 3.18086 0
M  V30 15 H -1.563 3.418 1.51819 0
M  V30 16 H 0.729 5.58782 3.83104 0
M  V30 17 H 1.672 6.56266 2.65933 0
M  V30 18 H 2.08 4.83886 2.90714 0
M  V30 19 N 1.4781 -0.272755 1.55222 0
M  V30 20 C 2.8891 -0.84378 1.66545 0
M  V30 21 C 3.2401 -1.87035 0.592641 0
M  V30 22 O 2.3651 -2.14761 -0.265818 0
M  V30 23 C 2.9601 -1.53723 3.01918 0
M  V30 24 C 1.5191 -2.05628 3.15268 0
M  V30 25 C 0.6661 -0.898424 2.62343 0
M  V30 26 H 3.6171 -0.0490998 1.58624 0
M  V30 27 H 3.6381 -2.40421 2.94921 0
M  V30 28 H 3.1501 -0.78983 3.79978 0
M  V30 29 H 1.2511 -2.83329 2.41983 0
M  V30 30 H 1.3641 -2.27142 4.21833 0
M  V30 31 H -0.2719 -1.29186 2.19506 0
M  V30 32 H 0.5111 -0.164528 3.42906 0
M  V30 33 N 2.9562 -1.48159 -0.537278 0
M  V30 34 C 4.3722 -1.34118 -0.865129 0
M  V30 35 C 4.5722 -0.346678 -1.98495 0
M  V30 36 O 3.6282 0.234715 -2.51407 0
M  V30 37 C 4.9412 -2.73963 -1.23954 0
M  V30 38 C 6.4892 -2.82397 -1.34984 0
M  V30 39 C 6.9642 -4.22928 -1.75772 0
M  V30 40 N 8.4552 -4.25566 -1.82887 0
M  V30 41 C 9.1902 -5.31235 -2.15817 0
M  V30 42 N 8.6862 -6.47189 -2.47222 0
M  V30 43 N 10.4792 -5.18624 -2.16761 0
M  V30 44 H 2.6302 -2.1144 0.201715 0
M  V30 45 H 4.8932 -0.947598 0.0275949 0
M  V30 46 H 4.5992 -3.48264 -0.490381 0
M  V30 47 H 4.4732 -3.0702 -2.19132 0
M  V30 48 H 6.8602 -2.08356 -2.08978 0
M  V30 49 H 6.9412 -2.5297 -0.379448 0
M  V30 50 H 6.5852 -4.97482 -1.02341 0
M  V30 51 H 6.5152 -4.49794 -2.73848 0
M  V30 52 H 9.0062 -3.41924 -1.60924 0
M  V30 53 H 9.3192 -7.23564 -2.71433 0
M  V30 54 H 7.6642 -6.50476 -2.44757 0
M  V30 55 H 10.8552 -4.27056 -1.91679 0
M  V30 56 H 11.0282 -6.01078 -2.42093 0
M  V30 57 N 4.4343 0.785586 -1.36625 0
M  V30 58 C 5.8503 1.08419 -1.17122 0
M  V30 59 C 6.0503 2.015 0.00208491 0
M  V30 60 O 5.1063 2.43551 0.666278 0
M  V30 61 C 6.4193 1.69498 -2.48377 0
M  V30 62 C 7.9673 1.81821 -2.54775 0
M  V30 63 C 8.4423 2.46315 -3.86126 0
M  V30 64 N 9.9333 2.53779 -3.87492 0
M  V30 65 C 10.6683 3.045 -4.85868 0
M  V30 66 N 10.1643 3.55499 -5.94637 0
M  V30 67 N 11.9573 3.03247 -4.73284 0
M  V30 68 H 4.1083 0.167264 -2.1174 0
M  V30 69 H 6.3713 0.13682 -0.938075 0
M  V30 70 H 6.0773 1.08571 -3.34522 0
M  V30 71 H 5.9513 2.6896 -2.64462 0
M  V30 72 H 8.3383 2.41884 -1.69045 0
M  V30 73 H 8.4193 0.811532 -2.42586 0
M  V30 74 H 8.0633 1.86895 -4.72263 0
M  V30 75 H 7.9933 3.47561 -3.95612 0
M  V30 76 H 10.4843 2.17672 -3.08913 0
M  V30 77 H 10.7973 3.92562 -6.65669 0
M  V30 78 H 9.1423 3.5364 -5.98301 0
M  V30 79 H 12.3333 2.62696 -3.87438 0
M  V30 80 H 12.5063 3.42467 -5.50109 0
M  V30 81 N 5.9124 1.20967 1.01018 0
M  V30 82 C 7.1374 1.0503 1.78839 0
M  V30 83 C 7.5624 -0.395752 1.8389 0
M  V30 84 O 6.9204 -1.28529 1.27867 0
M  V30 85 C 6.9684 1.64602 3.2084 0
M  V30 86 O 6.0724 0.887988 4.02726 0
M  V30 87 H 5.4134 0.369987 0.551367 0
M  V30 88 H 7.9434 1.60399 1.27018 0
M  V30 89 H 7.9534 1.68607 3.71532 0
M  V30 90 H 6.6284 2.69841 3.16479 0
M  V30 91 H 5.2054 0.922648 3.61305 0
M  V30 92 N 7.3905 -1.2043 1.01659 0
M  V30 93 C 8.3205 -2.25466 0.607226 0
M  V30 94 C 9.3015 -1.65853 -0.377716 0
M  V30 95 O 10.4865 -1.92409 -0.263149 0
M  V30 96 C 7.6165 -3.47256 -0.0552949 0
M  V30 97 C 6.5705 -4.19462 0.850632 0
M  V30 98 C 5.8965 -5.34673 0.0538859 0
M  V30 99 C 7.1965 -4.75603 2.15868 0
M  V30 100 H 8.8905 -2.59962 1.48526 0
M  V30 101 H 6.4365 -1.2496 0.715605 0
M  V30 102 H 8.3895 -4.19917 -0.353233 0
M  V30 103 H 7.1135 -3.11924 -0.968045 0
M  V30 104 H 5.7725 -3.48667 1.13257 0
M  V30 105 H 5.4205 -4.95585 -0.860514 0
M  V30 106 H 5.1205 -5.83913 0.657192 0
M  V30 107 H 6.6445 -6.10138 -0.237598 0
M  V30 108 H 8.0585 -5.40083 1.92311 0
M  V30 109 H 6.4555 -5.3528 2.71284 0
M  V30 110 H 7.5255 -3.94346 2.82169 0
M  V30 111 N 8.8686 -0.792821 -1.36206 0
M  V30 112 C 9.8186 -0.166598 -2.27391 0
M  V30 113 C 10.8026 0.651479 -1.47121 0
M  V30 114 O 11.9946 0.510994 -1.69463 0
M  V30 115 C 9.1236 0.695033 -3.36191 0
M  V30 116 C 8.2096 -0.132019 -4.23894 0
M  V30 117 N 8.6006 -1.18822 -4.91645 0
M  V30 118 C 6.8986 0.0885952 -4.45912 0
M  V30 119 C 7.5996 -1.69198 -5.56549 0
M  V30 120 N 6.5756 -1.00065 -5.34311 0
M  V30 121 H 10.3776 -0.974947 -2.77258 0
M  V30 122 H 7.8916 -0.632616 -1.49572 0
M  V30 123 H 9.8886 1.1596 -4.00448 0
M  V30 124 H 8.5486 1.50189 -2.87877 0
M  V30 125 H 9.5596 -1.57069 -4.93507 0
M  V30 126 H 6.2366 0.865688 -4.08426 0
M  V30 127 H 7.6266 -2.57395 -6.20643 0
M  V30 128 N 10.3467 1.47872 -0.545128 0
M  V30 129 C 11.3097 2.28337 0.198717 0
M  V30 130 C 12.3097 1.36255 0.853888 0
M  V30 131 O 13.4997 1.59003 0.711606 0
M  V30 132 C 10.6317 3.15585 1.28915 0
M  V30 133 H 11.8247 2.95567 -0.507941 0
M  V30 134 H 9.3777 1.53362 -0.301616 0
M  V30 135 H 10.1127 2.53019 2.02859 0
M  V30 136 H 9.8977 3.83337 0.824309 0
M  V30 137 H 11.3877 3.76243 1.81194 0
M  V30 138 N 11.8248 0.280983 1.55075 0
M  V30 139 C 12.7878 -0.590896 2.21452 0
M  V30 140 C 13.7878 -1.07682 1.19421 0
M  V30 141 O 14.9778 -0.97605 1.44288 0
M  V30 142 C 12.1098 -1.81587 2.88511 0
M  V30 143 H 13.3028 -0.0112554 2.99898 0
M  V30 144 H 10.8558 0.0316438 1.56268 0
M  V30 145 H 11.5908 -2.43587 2.14093 0
M  V30 146 H 11.3758 -1.4753 3.63287 0
M  V30 147 H 12.8658 -2.43575 3.39206 0
M  V30 148 N 13.3029 -1.57598 0.00835791 0
M  V30 149 C 14.2659 -2.07884 -0.965242 0
M  V30 150 C 15.2659 -0.989825 -1.26725 0
M  V30 151 O 16.4559 -1.25218 -1.21104 0
M  V30 152 C 13.5879 -2.52731 -2.28779 0
M  V30 153 H 14.7809 -2.95178 -0.530112 0
M  V30 154 H 12.3339 -1.54458 -0.239283 0
M  V30 155 H 13.0689 -1.68705 -2.76964 0
M  V30 156 H 12.8539 -3.32272 -2.08177 0
M  V30 157 H 14.3439 -2.91933 -2.98605 0
M  V30 158 N 14.781 0.264519 -1.55364 0
M  V30 159 C 16.027 0.99646 -1.76631 0
M  V30 160 C 16.36 1.85632 -0.570478 0
M  V30 161 O 15.635 1.89647 0.43175 0
M  V30 162 C 15.918 1.87187 -3.07625 0
M  V30 163 C 15.771 1.04138 -4.37579 0
M  V30 164 C 17.09 2.85749 -3.34717 0
M  V30 165 H 14.209 0.360841 -0.642622 0
M  V30 166 H 16.851 0.268218 -1.88097 0
M  V30 167 H 15.001 2.49279 -2.9798 0
M  V30 168 H 16.673 0.440517 -4.59192 0
M  V30 169 H 14.916 0.345115 -4.32425 0
M  V30 170 H 15.587 1.68729 -5.2558 0
M  V30 171 H 18.063 2.33793 -3.4421 0
M  V30 172 H 16.939 3.44136 -4.27623 0
M  V30 173 H 17.2 3.61311 -2.54768 0
M  V30 174 N 16.2591 1.48442 0.529413 0
M  V30 175 C 17.1891 1.65902 1.64313 0
M  V30 176 C 18.1701 0.507897 1.6234 0
M  V30 177 O 19.3551 0.740503 1.79528 0
M  V30 178 C 16.4851 1.69911 3.02898 0
M  V30 179 C 15.4391 2.8453 3.19729 0
M  V30 180 C 14.7651 2.73629 4.59381 0
M  V30 181 C 16.0651 4.25821 3.02447 0
M  V30 182 H 17.7591 2.5914 1.49955 0
M  V30 183 H 15.3051 1.24709 0.719982 0
M  V30 184 H 17.2581 1.80715 3.80684 0
M  V30 185 H 15.9821 0.732524 3.18279 0
M  V30 186 H 14.6411 2.73283 2.44361 0
M  V30 187 H 14.2891 1.74938 4.71599 0
M  V30 188 H 13.9891 3.50541 4.71588 0
M  V30 189 H 15.5131 2.86401 5.39265 0
M  V30 190 H 16.9271 4.37898 3.70024 0
M  V30 191 H 15.3241 5.03735 3.26146 0
M  V30 192 H 16.3941 4.42244 1.98867 0
M  V30 193 N 17.7372 -0.778329 1.37039 0
M  V30 194 C 18.6672 -1.90546 1.34962 0
M  V30 195 C 19.6482 -1.68681 0.219274 0
M  V30 196 O 20.8332 -1.89634 0.418624 0
M  V30 197 C 17.9632 -3.27734 1.14925 0
M  V30 198 C 16.9172 -3.64147 2.24902 0
M  V30 199 C 16.2432 -4.99806 1.89996 0
M  V30 200 C 17.5432 -3.71579 3.67051 0
M  V30 201 H 19.2372 -1.92541 2.29277 0
M  V30 202 H 16.7832 -0.924948 1.10366 0
M  V30 203 H 18.7362 -4.06215 1.12104 0
M  V30 204 H 17.4602 -3.26154 0.170631 0
M  V30 205 H 16.1192 -2.8797 2.26868 0
M  V30 206 H 15.7672 -4.94759 0.906796 0
M  V30 207 H 15.4672 -5.25139 2.63634 0
M  V30 208 H 16.9912 -5.80694 1.88749 0
M  V30 209 H 18.4052 -4.40227 3.67251 0
M  V30 210 H 16.8022 -4.08405 4.39688 0
M  V30 211 H 17.8722 -2.72404 4.01154 0
M  V30 212 N 19.2153 -1.21501 -1.00376 0
M  V30 213 C 20.1453 -0.999478 -2.11028 0
M  V30 214 C 21.1263 0.0759671 -1.6993 0
M  V30 215 O 22.3113 -0.0841106 -1.94018 0
M  V30 216 C 19.4413 -0.564709 -3.42678 0
M  V30 217 C 18.3953 -1.58486 -3.97576 0
M  V30 218 C 17.7213 -1.00628 -5.25146 0
M  V30 219 C 19.0213 -2.97204 -4.29496 0
M  V30 220 H 20.7153 -1.92495 -2.29317 0
M  V30 221 H 18.2613 -0.92693 -1.102 0
M  V30 222 H 20.2143 -0.401091 -4.19487 0
M  V30 223 H 18.9383 0.396411 -3.24185 0
M  V30 224 H 17.5973 -1.73606 -3.22888 0
M  V30 225 H 17.2453 -0.0368439 -5.02987 0
M  V30 226 H 16.9453 -1.68771 -5.62841 0
M  V30 227 H 18.4693 -0.854015 -6.04598 0
M  V30 228 H 19.8833 -2.8552 -4.97143 0
M  V30 229 H 18.2803 -3.62372 -4.78338 0
M  V30 230 H 19.3503 -3.47956 -3.3772 0
M  V30 231 N 20.6934 1.19889 -1.02296 0
M  V30 232 C 21.9394 1.89701 -0.717033 0
M  V30 233 C 22.2724 1.7905 0.751989 0
M  V30 234 O 21.5474 1.17891 1.547 0
M  V30 235 C 21.8304 3.40858 -1.16136 0
M  V30 236 C 21.6834 3.60411 -2.69117 0
M  V30 237 C 23.0024 4.33876 -0.737549 0
M  V30 238 H 20.1214 0.688874 -0.261957 0
M  V30 239 H 22.7634 1.41154 -1.27183 0
M  V30 240 H 20.9134 3.82335 -0.689342 0
M  V30 241 H 22.5854 3.28145 -3.2422 0
M  V30 242 H 20.8284 3.03665 -3.0979 0
M  V30 243 H 21.4994 4.66396 -2.95261 0
M  V30 244 H 23.9754 4.00081 -1.14344 0
M  V30 245 H 22.8514 5.38242 -1.0764 0
M  V30 246 H 23.1124 4.40628 0.360436 0
M  V30 247 N 22.1715 0.800033 1.35784 0
M  V30 248 C 23.4205 0.37387 1.98205 0
M  V30 249 C 23.7335 -1.06302 1.64193 0
M  V30 250 O 24.9395 -1.59198 2.19928 0
M  V30 251 C 23.3955 0.617532 3.54562 0
M  V30 252 C 23.0035 2.06654 3.9749 0
M  V30 253 C 24.7475 0.256401 4.23725 0
M  V30 254 C 22.6545 2.2563 5.46667 0
M  V30 255 H 21.5845 0.136055 0.741623 0
M  V30 256 H 24.2355 0.983166 1.54939 0
M  V30 257 H 22.6175 -0.0616248 3.95952 0
M  V30 258 H 23.7915 2.78296 3.67271 0
M  V30 259 H 22.1065 2.38691 3.41197 0
M  V30 260 H 24.7035 0.376318 5.33374 0
M  V30 261 H 25.0465 -0.796692 4.08606 0
M  V30 262 H 25.5795 0.889214 3.87734 0
M  V30 263 H 22.3185 3.2936 5.66747 0
M  V30 264 H 21.8385 1.58504 5.78478 0
M  V30 265 H 23.5175 2.06861 6.1304 0
M  V30 266 N 23.6496 -1.47581 0.552962 0
M  V30 267 C 24.5796 -2.32762 -0.185451 0
M  V30 268 C 25.5606 -1.43527 -0.912905 0
M  V30 269 O 26.7456 -1.72388 -0.894201 0
M  V30 270 C 23.8756 -3.25219 -1.21859 0
M  V30 271 C 22.8296 -4.23661 -0.607864 0
M  V30 272 C 22.1556 -5.05413 -1.74533 0
M  V30 273 C 23.4556 -5.20481 0.435582 0
M  V30 274 H 25.1496 -2.94749 0.525684 0
M  V30 275 H 22.6956 -1.41738 0.254251 0
M  V30 276 H 24.6486 -3.8365 -1.7433 0
M  V30 277 H 23.3726 -2.61279 -1.95961 0
M  V30 278 H 22.0316 -3.66451 -0.104489 0
M  V30 279 H 21.6796 -4.3788 -2.47529 0
M  V30 280 H 21.3796 -5.72059 -1.34249 0
M  V30 281 H 22.9036 -5.66701 -2.27338 0
M  V30 282 H 24.3176 -5.733 -0.00290157 0
M  V30 283 H 22.7146 -5.95305 0.757067 0
M  V30 284 H 23.7846 -4.66217 1.33303 0
M  V30 285 N 25.1277 -0.289203 -1.54924 0
M  V30 286 C 26.0747 0.592115 -2.23075 0
M  V30 287 C 27.0447 1.13881 -1.20915 0
M  V30 288 O 28.2297 1.18551 -1.495 0
M  V30 289 C 25.3697 1.76376 -2.96623 0
M  V30 290 C 24.4827 1.24959 -4.13533 0
M  V30 291 C 23.6177 2.38416 -4.74691 0
M  V30 292 C 22.6567 1.84072 -5.83767 0
M  V30 293 N 21.7937 2.91057 -6.38929 0
M  V30 294 H 26.6337 0.00432038 -2.98 0
M  V30 295 H 24.1707 -0.00963529 -1.47097 0
M  V30 296 H 26.1287 2.45268 -3.3749 0
M  V30 297 H 24.7587 2.32337 -2.24097 0
M  V30 298 H 23.8107 0.453307 -3.77689 0
M  V30 299 H 25.1227 0.811662 -4.92152 0
M  V30 300 H 24.2767 3.15276 -5.18349 0
M  V30 301 H 23.0157 2.8553 -3.95378 0
M  V30 302 H 22.0207 1.05697 -5.39545 0
M  V30 303 H 23.2457 1.37877 -6.64956 0
M  V30 304 H 21.1917 3.37526 -5.62505 0
M  V30 305 H 21.1087 2.51724 -7.12861 0
M  V30 306 H 22.3767 3.6785 -6.87246 0
M  V30 307 N 26.6058 1.57591 -0.0167156 0
M  V30 308 C 27.5158 2.1291 0.98521 0
M  V30 309 C 28.5318 1.07834 1.36557 0
M  V30 310 O 29.7078 1.39826 1.44951 0
M  V30 311 C 26.7728 2.63512 2.25305 0
M  V30 312 C 25.8338 3.83256 1.93426 0
M  V30 313 C 25.0668 4.31435 3.14165 0
M  V30 314 O 25.2898 3.78851 4.26413 0
M  V30 315 O 24.2238 5.23416 2.97186 0
M  V30 316 H 28.0498 2.98772 0.544888 0
M  V30 317 H 25.6348 1.48012 0.203141 0
M  V30 318 H 27.5168 2.96183 2.99756 0
M  V30 319 H 26.1918 1.8074 2.68542 0
M  V30 320 H 25.0988 3.55531 1.16398 0
M  V30 321 H 26.4318 4.67153 1.55013 0
M  V30 322 N 28.0839 -0.256276 1.55502 0
M  V30 323 C 29.0159 -1.33981 1.85962 0
M  V30 324 C 30.0289 -1.44743 0.745212 0
M  V30 325 O 31.2179 -1.4626 1.02324 0
M  V30 326 C 28.3179 -2.7194 2.02242 0
M  V30 327 C 27.4909 -2.83562 3.33033 0
M  V30 328 C 26.5499 -4.02304 3.39172 0
M  V30 329 O 25.5759 -3.92273 4.12444 0
M  V30 330 N 26.7779 -5.15045 2.67784 0
M  V30 331 H 29.5429 -1.08191 2.7949 0
M  V30 332 H 27.1039 -0.446388 1.55624 0
M  V30 333 H 29.0959 -3.49697 2.03701 0
M  V30 334 H 27.6659 -2.90479 1.15502 0
M  V30 335 H 26.8859 -1.92555 3.43971 0
M  V30 336 H 28.1739 -2.88271 4.19258 0
M  V30 337 H 27.5719 -5.26085 2.07968 0
M  V30 338 H 26.1289 -5.90972 2.74947 0
M  V30 339 N 29.562 -1.4872 -0.521534 0
M  V30 340 C 30.973 -1.50607 -1.10337 0
M  V30 341 C 31.324 -0.280612 -1.94183 0
M  V30 342 O 30.449 0.611507 -2.0758 0
M  V30 343 C 31.044 -2.72903 -2.00772 0
M  V30 344 C 29.603 -2.77634 -2.54158 0
M  V30 345 C 28.75 -2.44241 -1.31307 0
M  V30 346 H 31.701 -1.55714 -0.306388 0
M  V30 347 H 31.722 -2.519 -2.85178 0
M  V30 348 H 31.234 -3.62077 -1.39721 0
M  V30 349 H 29.335 -1.92689 -3.18907 0
M  V30 350 H 29.448 -3.79283 -2.92714 0
M  V30 351 H 27.812 -1.95577 -1.63161 0
M  V30 352 H 28.595 -3.35666 -0.719943 0
M  V30 353 N 31.0401 0.771051 -1.3745 0
M  V30 354 C 32.2651 1.56529 -1.36065 0
M  V30 355 C 32.6901 1.88029 0.0515859 0
M  V30 356 O 32.0481 1.49282 1.02882 0
M  V30 357 C 32.0961 2.85187 -2.20683 0
M  V30 358 O 31.2001 3.79593 -1.61193 0
M  V30 359 H 30.5411 0.47411 -0.464883 0
M  V30 360 H 33.0711 0.954269 -1.80983 0
M  V30 361 H 33.0811 3.34283 -2.33921 0
M  V30 362 H 31.7561 2.61588 -3.23334 0
M  V30 363 H 30.3331 3.38239 -1.56999 0
M  V30 364 N 32.5182 1.22032 0.997298 0
M  V30 365 C 33.7432 1.06921 1.77715 0
M  V30 366 C 34.1682 -0.376226 1.84299 0
M  V30 367 O 33.5262 -1.27165 1.29223 0
M  V30 368 C 33.5742 1.67996 3.19076 0
M  V30 369 O 32.6782 0.930653 4.01762 0
M  V30 370 H 32.0192 0.375814 0.547412 0
M  V30 371 H 34.5492 1.61737 1.25309 0
M  V30 372 H 34.5592 1.72538 3.69723 0
M  V30 373 H 33.2342 2.73182 3.13599 0
M  V30 374 H 31.8112 0.960917 3.60307 0
M  V30 375 N 33.9963 -1.19345 1.0293 0
M  V30 376 C 35.4073 -1.70725 0.755633 0
M  V30 377 C 35.7583 -1.82326 -0.724676 0
M  V30 378 O 34.8833 -1.49471 -1.56484 0
M  V30 379 C 35.4783 -3.10084 1.36503 0
M  V30 380 C 34.0373 -3.58723 1.13994 0
M  V30 381 C 33.1843 -2.35577 1.46283 0
M  V30 382 H 36.1353 -1.0418 1.19718 0
M  V30 383 H 36.1563 -3.72787 0.762217 0
M  V30 384 H 35.6683 -3.01609 2.44241 0
M  V30 385 H 33.7693 -3.72512 0.0807901 0
M  V30 386 H 33.8823 -4.42816 1.82894 0
M  V30 387 H 32.2463 -2.38935 0.88217 0
M  V30 388 H 33.0293 -2.29731 2.55105 0
M  V30 389 N 35.4744 -0.807222 -1.35358 0
M  V30 390 C 36.4374 -0.223665 -2.28106 0
M  V30 391 C 37.4374 0.589354 -1.4961 0
M  V30 392 O 38.6274 0.407745 -1.69361 0
M  V30 393 C 35.7594 0.688149 -3.33882 0
M  V30 394 H 36.9524 -1.04169 -2.81227 0
M  V30 395 H 34.5054 -0.577921 -1.45223 0
M  V30 396 H 35.2404 1.52984 -2.85948 0
M  V30 397 H 35.0254 0.10687 -3.91954 0
M  V30 398 H 36.5154 1.09075 -4.03104 0
M  V30 399 N 36.9525 1.47285 -0.560781 0
M  V30 400 C 38.3635 1.86258 -0.128343 0
M  V30 401 C 38.7145 1.46699 1.30284 0
M  V30 402 O 37.8395 0.871698 1.98067 0
M  V30 403 C 38.4345 3.38044 -0.22614 0
M  V30 404 C 36.9935 3.76096 0.151283 0
M  V30 405 C 36.1405 2.71335 -0.572084 0
M  V30 406 H 39.0915 1.38752 -0.770297 0
M  V30 407 H 39.1125 3.76441 0.554322 0
M  V30 408 H 38.6245 3.66806 -1.26788 0
M  V30 409 H 36.7255 3.52951 1.19399 0
M  V30 410 H 36.8385 4.78641 -0.209765 0
M  V30 411 H 35.2025 2.54696 -0.0147653 0
M  V30 412 H 35.9855 3.02938 -1.61504 0
M  V30 413 N 38.4306 0.297415 1.54768 0
M  V30 414 C 39.6766 -0.313376 2.00364 0
M  V30 415 C 40.0096 -1.53815 1.18553 0
M  V30 416 O 39.2846 -1.92739 0.261103 0
M  V30 417 C 39.5676 -0.673525 3.53745 0
M  V30 418 C 39.4206 0.560133 4.46299 0
M  V30 419 C 40.7396 -1.50143 4.13697 0
M  V30 420 H 37.8586 -0.112428 0.728374 0
M  V30 421 H 40.5006 0.4088 1.8555 0
M  V30 422 H 38.6506 -1.28881 3.665 0
M  V30 423 H 40.3226 1.19863 4.45455 0
M  V30 424 H 38.5656 1.19405 4.17043 0
M  V30 425 H 39.2366 0.26405 5.51368 0
M  V30 426 H 41.7126 -0.981588 4.04356 0
M  V30 427 H 40.5886 -1.72221 5.21182 0
M  V30 428 H 40.8496 -2.48952 3.65343 0
M  V30 429 N 39.9087 -1.5758 0.0250728 0
M  V30 430 C 40.8567 -2.11125 -0.97617 0
M  V30 431 C 41.8507 -1.03689 -1.33959 0
M  V30 432 O 43.0567 -1.22128 -1.3223 0
M  V30 433 H 39.4317 -0.674468 -0.332561 0
M  V30 434 H 41.4027 -2.94194 -0.499223 0
M  V30 435 C 40.1517 -2.65017 -2.2508 0
M  V30 436 H 39.4747 -3.47333 -1.9799 0
M  V30 437 H 40.9147 -3.06133 -2.93357 0
M  V30 438 C 39.3737 -1.57574 -2.97779 0
M  V30 439 O 39.9037 -0.973203 -3.89733 0
M  V30 440 N 38.1097 -1.29716 -2.60043 0
M  V30 441 H 37.6567 -1.789 -1.85345 0
M  V30 442 H 37.6147 -0.58051 -3.08994 0
M  V30 443 N 41.3868 0.248026 -1.55636 0
M  V30 444 C 42.6348 0.974295 -1.77065 0
M  V30 445 C 42.9558 1.85897 -0.588849 0
M  V30 446 O 42.2258 1.91868 0.395407 0
M  V30 447 H 40.8058 0.362733 -0.653019 0
M  V30 448 H 43.4678 0.266244 -1.93073 0
M  V30 449 H 42.5638 1.59667 -2.68166 0
M  V30 450 N 42.8649 1.48995 0.513639 0
M  V30 451 C 44.0899 1.61792 1.29762 0
M  V30 452 C 44.5149 0.284475 1.85936 0
M  V30 453 O 43.8729 -0.746185 1.65232 0
M  V30 454 C 43.9209 2.67993 2.41272 0
M  V30 455 O 43.0249 2.26287 3.44772 0
M  V30 456 H 42.3659 0.541963 0.38363 0
M  V30 457 H 44.8959 1.95097 0.616307 0
M  V30 458 H 44.9059 2.89772 2.87221 0
M  V30 459 H 43.5809 3.64791 1.9975 0
M  V30 460 H 42.1579 2.14788 3.04829 0
M  V30 461 N 44.343 -0.763751 1.37857 0
M  V30 462 C 45.29 -1.87726 1.34267 0
M  V30 463 C 46.26 -1.64807 0.206879 0
M  V30 464 O 47.445 -1.86613 0.397508 0
M  V30 465 C 44.585 -3.24896 1.16346 0
M  V30 466 C 43.698 -3.59716 2.39225 0
M  V30 467 C 42.833 -4.86137 2.14114 0
M  V30 468 C 41.872 -5.13711 3.32817 0
M  V30 469 N 41.009 -6.31323 3.07206 0
M  V30 470 H 45.849 -1.90129 2.29466 0
M  V30 471 H 43.386 -0.929433 1.14017 0
M  V30 472 H 45.344 -4.04036 1.03975 0
M  V30 473 H 43.974 -3.21847 0.247909 0
M  V30 474 H 43.026 -2.75498 2.62307 0
M  V30 475 H 44.338 -3.76027 3.27728 0
M  V30 476 H 43.492 -5.73198 1.9882 0
M  V30 477 H 42.231 -4.71945 1.22961 0
M  V30 478 H 41.236 -4.25123 3.48641 0
M  V30 479 H 42.461 -5.29807 4.24832 0
M  V30 480 H 40.407 -6.18474 2.1869 0
M  V30 481 H 40.324 -6.48087 3.89254 0
M  V30 482 H 41.592 -7.213 2.95546 0
M  V30 483 N 45.8211 -1.22559 -0.990812 0
M  V30 484 C 47.0671 -1.06303 -1.73411 0
M  V30 485 C 47.4221 0.397442 -1.8825 0
M  V30 486 O 46.7151 1.29062 -1.41611 0
M  V30 487 C 46.9091 -1.71011 -3.13831 0
M  V30 488 C 46.7381 -3.232 -3.12685 0
M  V30 489 C 45.5081 -3.92314 -3.18461 0
M  V30 490 C 47.7061 -4.20107 -2.96673 0
M  V30 491 N 45.6881 -5.31571 -3.07091 0
M  V30 492 C 47.0591 -5.46208 -2.93354 0
M  V30 493 C 49.1141 -4.10973 -2.8108 0
M  V30 494 C 47.8171 -6.64225 -2.76039 0
M  V30 495 C 49.8431 -5.28642 -2.65126 0
M  V30 496 C 49.2051 -6.53663 -2.62496 0
M  V30 497 H 45.3041 -0.443441 -0.644115 0
M  V30 498 H 47.8881 -1.55131 -1.17654 0
M  V30 499 H 46.0591 -1.2473 -3.67827 0
M  V30 500 H 47.7911 -1.47828 -3.76735 0
M  V30 501 H 44.5461 -3.43326 -3.26227 0
M  V30 502 H 44.9701 -6.0455 -3.0471 0
M  V30 503 H 49.6121 -3.15098 -2.8191 0
M  V30 504 H 47.3301 -7.60246 -2.73954 0
M  V30 505 H 50.9161 -5.23407 -2.54039 0
M  V30 506 H 49.7961 -7.43182 -2.50302 0
M  V30 507 N 47.2992 1.18797 -1.03562 0
M  V30 508 C 48.5272 1.92599 -0.755869 0
M  V30 509 C 48.9422 1.75886 0.686271 0
M  V30 510 O 48.2992 1.08517 1.46732 0
M  V30 511 C 48.3502 3.44159 -1.10619 0
M  V30 512 O 48.0712 3.60341 -2.4917 0
M  V30 513 C 49.5722 4.3507 -0.850214 0
M  V30 514 H 46.7922 0.611587 -0.276048 0
M  V30 515 H 49.3362 1.50742 -1.38192 0
M  V30 516 H 47.4912 3.83823 -0.525194 0
M  V30 517 H 47.9052 4.54128 -2.62427 0
M  V30 518 H 49.3792 5.39989 -1.14523 0
M  V30 519 H 49.8562 4.38673 0.215176 0
M  V30 520 H 50.4622 4.01097 -1.41426 0
M  V30 521 N 48.7773 0.814389 1.34928 0
M  V30 522 C 50.0073 0.41054 2.0248 0
M  V30 523 C 50.4153 -0.985625 1.61499 0
M  V30 524 O 49.7583 -1.64781 0.811976 0
M  V30 525 C 49.8203 0.423384 3.56998 0
M  V30 526 C 49.4843 1.77141 4.21272 0
M  V30 527 C 50.4813 2.73093 4.42398 0
M  V30 528 C 48.1663 2.05755 4.58225 0
M  V30 529 C 50.1603 3.95838 4.9959 0
M  V30 530 C 47.8473 3.28762 5.1513 0
M  V30 531 C 48.8453 4.23621 5.35755 0
M  V30 532 O 48.5333 5.44456 5.91458 0
M  V30 533 H 48.2653 0.163997 0.655806 0
M  V30 534 H 50.8193 1.10155 1.73364 0
M  V30 535 H 49.0493 -0.324276 3.85338 0
M  V30 536 H 50.7383 0.0407683 4.0588 0
M  V30 537 H 51.5043 2.5228 4.14222 0
M  V30 538 H 47.3833 1.32727 4.4148 0
M  V30 539 H 50.9273 4.69891 5.15605 0
M  V30 540 H 46.8243 3.49443 5.42734 0
M  V30 541 H 47.5923 5.4586 6.09901 0
M  V30 542 N 50.2554 -1.46986 0.568584 0
M  V30 543 C 51.5024 -2.02441 0.0487986 0
M  V30 544 C 51.8304 -1.44169 -1.30559 0
M  V30 545 O 51.0854 -0.591213 -1.86556 0
M  V30 546 C 51.3844 -3.57306 -0.081836 0
M  V30 547 C 51.0504 -4.34552 1.20313 0
M  V30 548 C 49.7124 -4.55376 1.5552 0
M  V30 549 C 52.0644 -4.79016 2.05411 0
M  V30 550 C 49.3924 -5.17913 2.7565 0
M  V30 551 C 51.7444 -5.42879 3.24754 0
M  V30 552 C 50.4084 -5.61933 3.60261 0
M  V30 553 H 49.6784 -0.740785 0.0178567 0
M  V30 554 H 52.3254 -1.76525 0.742384 0
M  V30 555 H 50.6304 -3.8228 -0.858463 0
M  V30 556 H 52.3274 -3.97876 -0.499546 0
M  V30 557 H 48.9174 -4.18631 0.919014 0
M  V30 558 H 53.1014 -4.62696 1.79516 0
M  V30 559 H 48.3574 -5.30858 3.03315 0
M  V30 560 H 52.5314 -5.76293 3.90973 0
M  V30 561 H 50.1584 -6.10161 4.53439 0
M  V30 562 N 51.7335 -0.305618 -1.54608 0
M  V30 563 C 52.9815 0.301701 -1.99835 0
M  V30 564 C 53.3025 1.54054 -1.19551 0
M  V30 565 O 52.5725 1.93702 -0.292658 0
M  V30 566 H 51.1525 0.114468 -0.738178 0
M  V30 567 H 53.8145 -0.418016 -1.90364 0
M  V30 568 H 52.9105 0.570548 -3.06841 0
M  V30 569 N 53.2116 1.57565 -0.0334293 0
M  V30 570 C 54.6226 1.79746 0.504798 0
M  V30 571 C 54.9736 0.944091 1.71992 0
M  V30 572 O 54.0986 0.155694 2.15839 0
M  V30 573 C 54.6936 3.25997 0.922567 0
M  V30 574 C 53.2526 3.49159 1.40588 0
M  V30 575 C 52.3996 2.74785 0.372633 0
M  V30 576 H 55.3506 1.56565 -0.259436 0
M  V30 577 H 55.3716 3.35945 1.78666 0
M  V30 578 H 54.8836 3.88081 0.0379825 0
M  V30 579 H 52.9846 2.92332 2.31025 0
M  V30 580 H 53.0976 4.57873 1.41028 0
M  V30 581 H 51.4616 2.40391 0.841672 0
M  V30 582 H 52.2446 3.39587 -0.503559 0
M  V30 583 N 54.6897 -0.239769 1.55765 0
M  V30 584 C 55.9667 -0.990056 1.68693 0
M  V30 585 C 56.3467 -2.03107 0.5754 0
M  V30 586 O 55.6947 -2.24604 -0.42017 0
M  V30 587 C 55.9047 -1.61696 3.09282 0
M  V30 588 C 57.2527 -2.11613 3.6811 0
M  V30 589 O 58.2767 -1.71624 3.12127 0
M  V30 590 O 57.1357 -2.85057 4.66267 0
M  V30 591 H 54.2297 -0.461299 0.686391 0
M  V30 592 H 56.7757 -0.232991 1.68093 0
M  V30 593 H 55.5477 -0.864357 3.81634 0
M  V30 594 H 55.1707 -2.44005 3.13923 0
M  V30 595 N 56.1678 -1.49265 -0.50573 0
M  V30 596 C 57.4158 -1.582 -1.25766 0
M  V30 597 C 57.7368 -0.268482 -1.93143 0
M  V30 598 O 57.0068 0.711833 -1.8251 0
M  V30 599 H 55.5868 -0.582873 -0.467191 0
M  V30 600 H 58.2488 -1.85865 -0.586525 0
M  V30 601 H 57.3448 -2.37563 -2.02412 0
M  V30 602 N 57.6459 0.756429 -1.3826 0
M  V30 603 C 58.5559 1.9009 -1.37488 0
M  V30 604 C 59.5719 1.71855 -0.272366 0
M  V30 605 O 60.7479 1.94827 -0.510318 0
M  V30 606 C 57.8129 3.25421 -1.19592 0
M  V30 607 C 56.8739 3.56202 -2.39622 0
M  V30 608 C 56.1069 4.85075 -2.2257 0
M  V30 609 O 56.3299 5.57246 -1.21793 0
M  V30 610 O 55.2639 5.15269 -3.11098 0
M  V30 611 H 59.0899 1.93695 -2.33914 0
M  V30 612 H 56.6749 0.901313 -1.1915 0
M  V30 613 H 58.5569 4.06337 -1.11661 0
M  V30 614 H 57.2319 3.22634 -0.262486 0
M  V30 615 H 56.1389 2.75458 -2.53128 0
M  V30 616 H 57.4719 3.63747 -3.31586 0
M  V30 617 N 59.124 1.23083 0.984299 0
M  V30 618 C 60.072 1.00593 2.09723 0
M  V30 619 C 61.066 -0.0538014 1.69315 0
M  V30 620 O 62.272 0.0993719 1.79725 0
M  V30 621 H 58.647 0.30817 0.685956 0
M  V30 622 H 60.618 1.95012 2.2586 0
M  V30 623 C 59.367 0.609601 3.42314 0
M  V30 624 H 58.69 1.41675 3.73856 0
M  V30 625 H 60.13 0.491726 4.21139 0
M  V30 626 C 58.589 -0.681745 3.2993 0
M  V30 627 O 59.119 -1.73192 3.62446 0
M  V30 628 N 57.325 -0.656178 2.83095 0
M  V30 629 H 56.872 0.198759 2.56832 0
M  V30 630 H 56.83 -1.52044 2.75191 0
M  V30 631 N 60.6021 -1.18246 1.0419 0
M  V30 632 C 61.8271 -1.92736 0.765996 0
M  V30 633 C 62.2521 -1.75728 -0.67091 0
M  V30 634 O 61.6101 -1.06825 -1.46486 0
M  V30 635 C 61.6581 -3.42148 1.13875 0
M  V30 636 O 60.7621 -4.11548 0.264954 0
M  V30 637 H 60.1031 -0.601238 0.281797 0
M  V30 638 H 62.6331 -1.49942 1.39207 0
M  V30 639 H 62.6431 -3.92858 1.1012 0
M  V30 640 H 61.3181 -3.53848 2.18551 0
M  V30 641 H 59.8951 -3.71137 0.362226 0
M  V30 642 N 62.0802 -0.821533 -1.34494 0
M  V30 643 C 63.3262 -0.418729 -1.99043 0
M  V30 644 C 63.6812 1.00672 -1.6396 0
M  V30 645 O 62.9742 1.69132 -0.900271 0
M  V30 646 C 63.1682 -0.556512 -3.53041 0
M  V30 647 C 62.9972 -1.9938 -4.03085 0
M  V30 648 C 61.7672 -2.62539 -4.31742 0
M  V30 649 C 63.9652 -2.96035 -4.20556 0
M  V30 650 N 61.9472 -3.97523 -4.67813 0
M  V30 651 C 63.3182 -4.15924 -4.59791 0
M  V30 652 C 65.3732 -2.9267 -4.02801 0
M  V30 653 C 64.0762 -5.32899 -4.83126 0
M  V30 654 C 66.1022 -4.08861 -4.27302 0
M  V30 655 C 65.4642 -5.275 -4.66822 0
M  V30 656 H 61.5632 -0.201299 -0.755647 0
M  V30 657 H 64.1472 -1.06594 -1.62929 0
M  V30 658 H 62.3182 0.0607924 -3.88352 0
M  V30 659 H 64.0502 -0.126842 -4.04501 0
M  V30 660 H 60.8052 -2.13789 -4.22601 0
M  V30 661 H 61.2292 -4.67061 -4.90085 0
M  V30 662 H 65.8712 -2.02088 -3.71376 0
M  V30 663 H 63.5892 -6.24041 -5.13418 0
M  V30 664 H 67.1752 -4.07654 -4.15101 0
M  V30 665 H 66.0552 -6.15913 -4.85408 0
M  V30 666 N 63.5583 1.46682 -0.576371 0
M  V30 667 C 64.7833 2.07304 -0.0630475 0
M  V30 668 C 65.2083 1.42329 1.2298 0
M  V30 669 O 64.5663 0.504865 1.74129 0
M  V30 670 C 64.6143 3.60472 0.095895 0
M  V30 671 O 63.7183 3.95927 1.15394 0
M  V30 672 H 63.0593 0.661288 -0.0599463 0
M  V30 673 H 65.5893 1.88417 -0.797511 0
M  V30 674 H 65.5993 4.06865 0.304071 0
M  V30 675 H 64.2743 4.07157 -0.84828 0
M  V30 676 H 62.8513 3.61252 0.924724 0
M  V30 677 N 65.0364 0.313813 1.54444 0
M  V30 678 C 65.9834 -0.55655 2.23989 0
M  V30 679 C 66.9534 -1.11943 1.22711 0
M  V30 680 O 68.1384 -1.16158 1.51367 0
M  V30 681 C 65.2784 -1.71635 2.99392 0
M  V30 682 C 64.3914 -1.18364 4.15468 0
M  V30 683 C 63.5264 -2.30834 4.78424 0
M  V30 684 C 62.5654 -1.74762 5.86622 0
M  V30 685 N 61.7024 -2.80855 6.43479 0
M  V30 686 H 66.5424 0.0430893 2.97969 0
M  V30 687 H 64.0794 0.0330359 1.47063 0
M  V30 688 H 66.0374 -2.39868 3.41349 0
M  V30 689 H 64.6674 -2.28742 2.27765 0
M  V30 690 H 63.7194 -0.393163 3.78363 0
M  V30 691 H 65.0314 -0.733262 4.93381 0
M  V30 692 H 64.1854 -3.0699 5.23299 0
M  V30 693 H 62.9244 -2.79204 3.99871 0
M  V30 694 H 61.9294 -0.970995 5.41158 0
M  V30 695 H 63.1544 -1.2728 6.67066 0
M  V30 696 H 61.1004 -3.28535 5.67804 0
M  V30 697 H 61.0174 -2.40351 7.16776 0
M  V30 698 H 62.2854 -3.5687 6.93011 0
M  V30 699 N 66.5145 -1.57545 0.0417849 0
M  V30 700 C 67.4615 -2.10977 -0.935805 0
M  V30 701 C 68.4315 -1.01486 -1.31491 0
M  V30 702 O 69.6165 -1.2898 -1.40602 0
M  V30 703 C 66.7565 -2.65169 -2.2086 0
M  V30 704 C 65.8695 -3.88714 -1.88482 0
M  V30 705 C 65.0045 -4.31254 -3.1015 0
M  V30 706 C 64.0435 -5.47524 -2.7365 0
M  V30 707 N 63.1805 -5.85162 -3.87982 0
M  V30 708 H 68.0205 -2.94218 -0.473249 0
M  V30 709 H 65.5575 -1.45415 -0.221981 0
M  V30 710 H 67.5155 -2.94685 -2.95325 0
M  V30 711 H 66.1455 -1.8474 -2.64709 0
M  V30 712 H 65.1975 -3.65849 -1.04205 0
M  V30 713 H 66.5095 -4.73245 -1.57608 0
M  V30 714 H 65.6635 -4.62273 -3.92923 0
M  V30 715 H 64.4025 -3.45516 -3.44195 0
M  V30 716 H 63.4075 -5.16187 -1.89291 0
M  V30 717 H 64.6325 -6.34971 -2.40807 0
M  V30 718 H 62.5785 -5.02377 -4.21846 0
M  V30 719 H 62.4955 -6.64362 -3.60775 0
M  V30 720 H 63.7635 -6.20791 -4.71422 0
M  V30 721 N 67.9926 0.231505 -1.5589 0
M  V30 722 C 69.2226 0.973092 -1.82248 0
M  V30 723 C 69.6306 1.78845 -0.617328 0
M  V30 724 O 68.9736 1.78752 0.423499 0
M  V30 725 C 69.0356 1.94732 -3.02192 0
M  V30 726 C 68.6996 1.31743 -4.37599 0
M  V30 727 C 69.6966 0.712238 -5.14998 0
M  V30 728 C 67.3816 1.33218 -4.84312 0
M  V30 729 C 69.3756 0.130195 -6.37267 0
M  V30 730 C 67.0626 0.746286 -6.06526 0
M  V30 731 C 68.0606 0.146337 -6.82843 0
M  V30 732 O 67.7486 -0.430465 -8.02747 0
M  V30 733 H 67.4806 0.29125 -0.61004 0
M  V30 734 H 70.0346 0.254915 -2.03812 0
M  V30 735 H 68.2646 2.70422 -2.76422 0
M  V30 736 H 69.9536 2.55362 -3.15508 0
M  V30 737 H 70.7196 0.69324 -4.8002 0
M  V30 738 H 66.5986 1.78854 -4.24891 0
M  V30 739 H 70.1426 -0.33871 -6.96777 0
M  V30 740 H 66.0396 0.762663 -6.40979 0
M  V30 741 H 66.8076 -0.323818 -8.17859 0
M  V30 742 N 69.4707 1.49531 0.497807 0
M  V30 743 C 70.8817 1.52344 1.07927 0
M  V30 744 C 71.2327 0.311469 1.93712 0
M  V30 745 O 70.3577 -0.578405 2.08527 0
M  V30 746 C 70.9527 2.76062 1.96405 0
M  V30 747 C 69.5117 2.81643 2.49709 0
M  V30 748 C 68.6587 2.46299 1.27404 0
M  V30 749 H 71.6097 1.56182 0.281576 0
M  V30 750 H 71.6307 2.56405 2.81135 0
M  V30 751 H 71.1427 3.64254 1.33943 0
M  V30 752 H 69.2437 1.97739 3.15801 0
M  V30 753 H 69.3567 3.83891 2.86643 0
M  V30 754 H 67.7207 1.98148 1.60029 0
M  V30 755 H 68.5037 3.36769 0.66645 0
M  V30 756 N 70.9488 -0.749086 1.3866 0
M  V30 757 C 72.1738 -1.54344 1.38538 0
M  V30 758 C 72.5988 -1.88088 -0.0216655 0
M  V30 759 O 71.9568 -1.50899 -1.00494 0
M  V30 760 C 72.0048 -2.8164 2.25192 0
M  V30 761 O 71.1088 -3.7698 1.67212 0
M  V30 762 H 70.4498 -0.466654 0.472367 0
M  V30 763 H 72.9798 -0.925355 1.82478 0
M  V30 764 H 72.9898 -3.30519 2.3921 0
M  V30 765 H 71.6648 -2.56411 3.27454 0
M  V30 766 H 70.2418 -3.35699 1.6236 0
M  V30 767 N 72.4269 -1.23603 -0.977757 0
M  V30 768 C 73.6669 -1.08148 -1.73446 0
M  V30 769 C 74.0309 0.374785 -1.88307 0
M  V30 770 O 75.2319 0.650588 -2.60808 0
M  V30 771 C 73.5029 -1.78991 -3.0935 0
M  V30 772 S 75.0619 -1.79141 -4.00567 0
M  V30 773 H 71.8799 -0.386987 -0.596458 0
M  V30 774 H 74.4819 -1.5678 -1.16792 0
M  V30 775 H 73.1859 -2.8408 -2.96187 0
M  V30 776 H 72.7169 -1.30651 -3.71071 0
M  V30 777 H 74.7319 -0.851892 -4.88833 0
M  V30 778 N 73.905 1.17692 -1.04816 0
M  V30 779 C 75.153 1.87488 -0.754497 0
M  V30 780 C 75.474 1.81205 0.720407 0
M  V30 781 O 74.744 1.23544 1.52032 0
M  V30 782 H 73.324 0.694101 -0.276102 0
M  V30 783 H 75.986 1.42793 -1.32651 0
M  V30 784 H 75.082 2.93328 -1.06606 0
M  V30 785 N 75.3831 0.828654 1.34056 0
M  V30 786 C 76.6311 0.41863 1.97717 0
M  V30 787 C 76.9521 -1.02314 1.66002 0
M  V30 788 O 76.2221 -1.71119 0.953683 0
M  V30 789 H 74.8021 0.151809 0.731412 0
M  V30 790 H 77.4641 1.05936 1.63596 0
M  V30 791 H 76.5601 0.542318 3.07352 0
M  V30 792 N 76.8612 -1.46375 0.584142 0
M  V30 793 C 77.7912 -2.33103 -0.136037 0
M  V30 794 C 78.7722 -1.45431 -0.882255 0
M  V30 795 O 79.9572 -1.74246 -0.857434 0
M  V30 796 C 77.0872 -3.27731 -1.14933 0
M  V30 797 C 76.0412 -4.24855 -0.517862 0
M  V30 798 C 75.3672 -5.09001 -1.63773 0
M  V30 799 C 76.6672 -5.19439 0.545886 0
M  V30 800 H 78.3612 -2.93568 0.588086 0
M  V30 801 H 75.9072 -1.41166 0.284259 0
M  V30 802 H 77.8602 -3.87261 -1.66153 0
M  V30 803 H 76.5842 -2.65377 -1.90375 0
M  V30 804 H 75.2432 -3.6659 -0.0267361 0
M  V30 805 H 74.8912 -4.43031 -2.38185 0
M  V30 806 H 74.5912 -5.74777 -1.22085 0
M  V30 807 H 76.1152 -5.71396 -2.15266 0
M  V30 808 H 77.5292 -5.73177 0.118704 0
M  V30 809 H 75.9262 -5.93566 0.88317 0
M  V30 810 H 76.9962 -4.63285 1.43162 0
M  V30 811 N 78.3393 -0.321999 -1.54275 0
M  V30 812 C 79.2693 0.537411 -2.27231 0
M  V30 813 C 80.2503 1.12064 -1.27968 0
M  V30 814 O 81.4353 1.14606 -1.56777 0
M  V30 815 C 78.5653 1.69919 -3.02894 0
M  V30 816 C 77.5193 1.24534 -4.09482 0
M  V30 817 C 76.8453 2.49394 -4.72977 0
M  V30 818 C 78.1453 0.361335 -5.21049 0
M  V30 819 H 79.8393 -0.0711406 -2.99315 0
M  V30 820 H 77.3853 -0.0356555 -1.43956 0
M  V30 821 H 79.3383 2.30668 -3.52662 0
M  V30 822 H 78.0623 2.33431 -2.28424 0
M  V30 823 H 76.7213 0.660782 -3.60596 0
M  V30 824 H 76.3693 3.11265 -3.95124 0
M  V30 825 H 76.0693 2.19718 -5.44975 0
M  V30 826 H 77.5933 3.10908 -5.25517 0
M  V30 827 H 79.0073 0.875072 -5.66582 0
M  V30 828 H 77.4043 0.157428 -5.99893 0
M  V30 829 H 78.4743 -0.60822 -4.8107 0
M  V30 830 N 79.8174 1.5752 -0.0501392 0
M  V30 831 C 80.7494 2.08413 0.95376 0
M  V30 832 C 81.7624 1.01175 1.27544 0
M  V30 833 O 82.9514 1.28744 1.23641 0
M  V30 834 C 80.0514 2.51138 2.27559 0
M  V30 835 C 79.2244 3.817 2.13598 0
M  V30 836 C 78.2834 4.10749 3.28895 0
M  V30 837 O 77.3094 4.80685 3.04845 0
M  V30 838 N 78.5114 3.62579 4.5334 0
M  V30 839 H 81.2764 2.95165 0.519383 0
M  V30 840 H 78.8374 1.61327 0.136127 0
M  V30 841 H 80.8294 2.67648 3.03557 0
M  V30 842 H 79.3994 1.6964 2.62567 0
M  V30 843 H 78.6194 3.74782 1.22197 0
M  V30 844 H 79.9074 4.67201 2.01496 0
M  V30 845 H 79.3054 3.06039 4.75769 0
M  V30 846 H 77.8624 3.84329 5.26436 0
M  V30 847 N 81.2955 -0.223234 1.56011 0
M  V30 848 C 82.5205 -0.968978 1.83373 0
M  V30 849 C 82.9455 -1.77227 0.630254 0
M  V30 850 O 82.3035 -1.76345 -0.420959 0
M  V30 851 C 82.3515 -1.86363 3.08709 0
M  V30 852 O 81.4555 -2.95873 2.87285 0
M  V30 853 H 80.7965 -0.274461 0.604622 0
M  V30 854 H 83.3265 -0.237056 2.03222 0
M  V30 855 H 83.3365 -2.27376 3.38768 0
M  V30 856 H 82.0115 -1.27319 3.95933 0
M  V30 857 H 80.5885 -2.58818 2.68454 0
M  V30 858 N 82.7736 -1.49793 -0.48987 0
M  V30 859 C 84.1846 -1.52914 -1.07118 0
M  V30 860 C 84.5356 -0.321738 -1.93544 0
M  V30 861 O 83.6606 0.567338 -2.08831 0
M  V30 862 C 84.2556 -2.771 -1.94938 0
M  V30 863 C 82.8146 -2.82963 -2.48212 0
M  V30 864 C 81.9616 -2.46972 -1.26096 0
M  V30 865 H 84.9126 -1.56329 -0.273289 0
M  V30 866 H 84.9336 -2.57892 -2.79771 0
M  V30 867 H 84.4456 -3.64959 -1.32009 0
M  V30 868 H 82.5466 -1.99411 -3.14748 0
M  V30 869 H 82.6596 -3.85406 -2.84603 0
M  V30 870 H 81.0236 -1.98994 -1.58976 0
M  V30 871 H 81.8066 -3.37118 -0.648581 0
M  V30 872 N 84.2517 0.741722 -1.39055 0
M  V30 873 C 85.5007 1.49656 -1.35225 0
M  V30 874 C 85.8137 1.95533 0.0512708 0
M  V30 875 O 87.0197 2.7067 0.212138 0
M  V30 876 C 85.4757 2.70389 -2.37525 0
M  V30 877 C 85.0837 2.31489 -3.83558 0
M  V30 878 C 86.8277 3.48236 -2.42759 0
M  V30 879 C 84.7347 3.48903 -4.77515 0
M  V30 880 H 83.6647 0.56197 -0.502699 0
M  V30 881 H 86.3157 0.809727 -1.64668 0
M  V30 882 H 84.6977 3.41113 -2.01142 0
M  V30 883 H 85.8717 1.68354 -4.28945 0
M  V30 884 H 84.1867 1.66749 -3.81554 0
M  V30 885 H 86.7837 4.35558 -3.1015 0
M  V30 886 H 87.1267 3.90229 -1.45008 0
M  V30 887 H 87.6597 2.84535 -2.78002 0
M  V30 888 H 84.3987 3.11966 -5.76504 0
M  V30 889 H 83.9187 4.11041 -4.36813 0
M  V30 890 H 85.5977 4.15328 -4.96096 0
M  V30 891 N 85.7298 1.2412 0.971189 0
M  V30 892 C 87.0068 0.986867 1.6888 0
M  V30 893 C 87.3868 -0.491857 2.0529 0
M  V30 894 O 86.7348 -1.46531 1.75331 0
M  V30 895 C 86.9448 1.9063 2.92338 0
M  V30 896 C 88.2928 2.17515 3.64654 0
M  V30 897 O 89.3168 1.88254 3.02388 0
M  V30 898 O 88.1758 2.6719 4.7673 0
M  V30 899 H 85.2698 0.372944 0.738134 0
M  V30 900 H 87.8158 1.35203 1.02559 0
M  V30 901 H 86.5878 2.90552 2.62097 0
M  V30 902 H 86.2108 1.54408 3.66393 0
M  V30 903 N 87.2079 -1.17134 1.05439 0
M  V30 904 C 88.1379 -2.2342 0.678649 0
M  V30 905 C 89.1189 -1.66971 -0.32476 0
M  V30 906 O 90.3039 -1.93149 -0.201802 0
M  V30 907 C 87.4339 -3.47256 0.0552099 0
M  V30 908 C 86.3879 -4.16543 0.98365 0
M  V30 909 C 85.7139 -5.34231 0.223961 0
M  V30 910 C 87.0139 -4.68495 2.3089 0
M  V30 911 H 88.7079 -2.55105 1.56722 0
M  V30 912 H 86.2539 -1.2262 0.754998 0
M  V30 913 H 88.2069 -4.20828 -0.21946 0
M  V30 914 H 86.9309 -3.14846 -0.868319 0
M  V30 915 H 85.5899 -3.44887 1.24293 0
M  V30 916 H 85.2379 -4.98071 -0.702412 0
M  V30 917 H 84.9379 -5.81527 0.842627 0
M  V30 918 H 86.4619 -6.10585 -0.0433671 0
M  V30 919 H 87.8759 -5.33691 2.09396 0
M  V30 920 H 86.2729 -5.26379 2.88176 0
M  V30 921 H 87.3429 -3.85169 2.94572 0
M  V30 922 N 88.686 -0.835752 -1.33615 0
M  V30 923 C 89.636 -0.238856 -2.26745 0
M  V30 924 C 90.62 0.604343 -1.49119 0
M  V30 925 O 91.812 0.456822 -1.71003 0
M  V30 926 C 88.941 0.587725 -3.38232 0
M  V30 927 C 88.027 -0.266811 -4.2326 0
M  V30 928 N 88.418 -1.34403 -4.87616 0
M  V30 929 C 86.716 -0.0533131 -4.45968 0
M  V30 930 C 87.417 -1.86819 -5.50884 0
M  V30 931 N 86.393 -1.17013 -5.30857 0
M  V30 932 H 90.195 -1.06266 -2.74016 0
M  V30 933 H 87.709 -0.679881 -1.47483 0
M  V30 934 H 89.706 1.03161 -4.03935 0
M  V30 935 H 88.366 1.40954 -2.9251 0
M  V30 936 H 89.377 -1.7269 -4.88261 0
M  V30 937 H 86.054 0.735312 -4.10974 0
M  V30 938 H 87.444 -2.7701 -6.1214 0
M  V30 939 N 90.1641 1.46063 -0.591896 0
M  V30 940 C 91.3891 2.07226 -0.0850314 0
M  V30 941 C 91.8141 1.43625 1.21463 0
M  V30 942 O 91.1721 0.523305 1.73583 0
M  V30 943 C 91.2201 3.60554 0.0576567 0
M  V30 944 O 90.3241 3.97128 1.11188 0
M  V30 945 H 89.6651 0.660615 -0.0669568 0
M  V30 946 H 92.1951 1.8756 -0.81745 0
M  V30 947 H 92.2051 4.07165 0.2609 0
M  V30 948 H 90.8801 4.06235 -0.891416 0
M  V30 949 H 89.4571 3.62213 0.886356 0
M  V30 950 N 91.6422 0.330177 1.54103 0
M  V30 951 C 92.9192 -0.325007 1.92881 0
M  V30 952 C 93.2992 -1.6934 1.26045 0
M  V30 953 O 92.6472 -2.24855 0.406526 0
M  V30 954 C 92.8572 -0.410634 3.46576 0
M  V30 955 C 94.2052 -0.667801 4.19316 0
M  V30 956 O 95.2292 -0.49329 3.52768 0
M  V30 957 O 94.0882 -1.00491 5.37181 0
M  V30 958 H 91.1822 -0.186873 0.80561 0
M  V30 959 H 93.7282 0.380376 1.65382 0
M  V30 960 H 92.5002 0.550164 3.87413 0
M  V30 961 H 92.1232 -1.16333 3.802 0
M  V30 962 N 93.1203 -1.57491 0.0584922 0
M  V30 963 C 94.3693 -1.92155 -0.613146 0
M  V30 964 C 94.6823 -0.939334 -1.71569 0
M  V30 965 O 95.8883 -1.17829 -2.44599 0
M  V30 966 C 94.3443 -3.41303 -1.14195 0
M  V30 967 C 93.9523 -4.47944 -0.0711265 0
M  V30 968 C 95.6963 -3.84988 -1.78841 0
M  V30 969 C 93.6033 -5.88212 -0.613225 0
M  V30 970 H 92.5333 -0.717162 -0.232796 0
M  V30 971 H 95.1843 -1.83049 0.12857 0
M  V30 972 H 93.5663 -3.45437 -1.93621 0
M  V30 973 H 94.7403 -4.55408 0.702836 0
M  V30 974 H 93.0553 -4.13644 0.478313 0
M  V30 975 H 95.6523 -4.87159 -2.20408 0
M  V30 976 H 95.9953 -3.21632 -2.64308 0
M  V30 977 H 96.5283 -3.83401 -1.06059 0
M  V30 978 H 93.2673 -6.55183 0.203978 0
M  V30 979 H 92.7873 -5.84294 -1.35501 0
M  V30 980 H 94.4663 -6.37687 -1.09383 0
M  V30 981 N 94.5984 0.214957 -1.56127 0
M  V30 982 C 95.5284 1.2695 -1.95974 0
M  V30 983 C 96.5094 1.48539 -0.828868 0
M  V30 984 O 97.6944 1.60611 -1.09168 0
M  V30 985 C 94.8244 2.61794 -2.28214 0
M  V30 986 C 93.7784 2.54851 -3.43853 0
M  V30 987 C 93.1044 3.93785 -3.61715 0
M  V30 988 C 94.4044 2.09065 -4.78632 0
M  V30 989 H 96.0984 0.93846 -2.84312 0
M  V30 990 H 93.6444 0.449996 -1.36788 0
M  V30 991 H 95.5974 3.35731 -2.54682 0
M  V30 992 H 94.3214 2.96599 -1.36736 0
M  V30 993 H 92.9804 1.8337 -3.17444 0
M  V30 994 H 92.6284 4.25908 -2.67602 0
M  V30 995 H 92.3284 3.90019 -4.39498 0
M  V30 996 H 93.8524 4.69374 -3.90539 0
M  V30 997 H 95.2664 2.7275 -5.04262 0
M  V30 998 H 93.6634 2.16346 -5.59745 0
M  V30 999 H 94.7334 1.04315 -4.73547 0
M  V30 1000 N 96.0765 1.50051 0.48192 0
M  V30 1001 C 97.0085 1.64263 1.59844 0
M  V30 1002 C 98.0215 0.52451 1.54119 0
M  V30 1003 O 99.2105 0.797293 1.59704 0
M  V30 1004 C 96.3105 1.60102 2.98698 0
M  V30 1005 C 95.4835 2.87767 3.29407 0
M  V30 1006 C 94.5425 2.76397 4.47762 0
M  V30 1007 O 93.5685 3.50348 4.48603 0
M  V30 1008 N 94.7705 1.89222 5.48794 0
M  V30 1009 H 97.5355 2.60566 1.48073 0
M  V30 1010 H 95.0965 1.47379 0.670149 0
M  V30 1011 H 97.0885 1.50123 3.75826 0
M  V30 1012 H 95.6585 0.715798 3.04294 0
M  V30 1013 H 94.8785 3.11954 2.40994 0
M  V30 1014 H 96.1665 3.72365 3.4673 0
M  V30 1015 H 95.5645 1.28434 5.50928 0
M  V30 1016 H 94.1215 1.85154 6.24949 0
M  V30 1017 N 97.5546 -0.734337 1.39446 0
M  V30 1018 C 98.7846 -1.52137 1.39778 0
M  V30 1019 C 99.1926 -1.89198 -0.00929312 0
M  V30 1020 O 98.5356 -1.54666 -0.991168 0
M  V30 1021 C 98.5976 -2.83762 2.20724 0
M  V30 1022 C 98.2616 -2.69131 3.69347 0
M  V30 1023 C 99.2586 -2.37635 4.62413 0
M  V30 1024 C 96.9436 -2.85982 4.1294 0
M  V30 1025 C 98.9376 -2.23172 5.97054 0
M  V30 1026 C 96.6246 -2.71137 5.47657 0
M  V30 1027 C 97.6226 -2.39777 6.39528 0
M  V30 1028 O 97.3106 -2.25026 7.71763 0
M  V30 1029 H 97.0426 -0.476717 0.479288 0
M  V30 1030 H 99.5966 -0.915012 1.83893 0
M  V30 1031 H 97.8266 -3.4666 1.71359 0
M  V30 1032 H 99.5156 -3.45383 2.13226 0
M  V30 1033 H 100.282 -2.24267 4.30034 0
M  V30 1034 H 96.1606 -3.09383 3.41765 0
M  V30 1035 H 99.7046 -1.98617 6.68728 0
M  V30 1036 H 95.6016 -2.84083 5.79626 0
M  V30 1037 H 96.3696 -2.40091 7.82495 0
M  V30 1038 N 99.0327 -1.24633 -0.964593 0
M  V30 1039 C 100.31 -0.995809 -1.68354 0
M  V30 1040 C 100.69 0.480964 -2.05548 0
M  V30 1041 O 100.038 1.45599 -1.76105 0
M  V30 1042 C 100.248 -1.92177 -2.91323 0
M  V30 1043 C 101.596 -2.19446 -3.63495 0
M  V30 1044 O 102.62 -1.89855 -3.01386 0
M  V30 1045 O 101.479 -2.69714 -4.75307 0
M  V30 1046 H 98.5727 -0.376854 -0.736146 0
M  V30 1047 H 101.119 -1.35745 -1.0184 0
M  V30 1048 H 99.8907 -2.91938 -2.60553 0
M  V30 1049 H 99.5137 -1.56349 -3.65569 0
M  V30 1050 N 100.511 1.16574 -1.06058 0
M  V30 1051 C 101.474 2.19085 -0.673392 0
M  V30 1052 C 102.474 1.5835 0.279648 0
M  V30 1053 O 103.664 1.74088 0.0623488 0
M  V30 1054 C 100.796 3.40899 0.00954234 0
M  V30 1055 H 101.989 2.54853 -1.58081 0
M  V30 1056 H 99.5418 1.30808 -0.855516 0
M  V30 1057 H 100.277 3.10684 0.929826 0
M  V30 1058 H 100.062 3.86233 -0.67573 0
M  V30 1059 H 101.552 4.1675 0.266245 0
M  V30 1060 N 101.989 0.842826 1.3317 0
M  V30 1061 C 103.214 0.453129 2.02389 0
M  V30 1062 C 103.639 -0.939105 1.6298 0
M  V30 1063 O 102.997 -1.61472 0.8244 0
M  V30 1064 C 103.045 0.586094 3.55805 0
M  V30 1065 O 102.149 -0.386029 4.10589 0
M  V30 1066 H 101.49 0.183664 0.638094 0
M  V30 1067 H 104.02 1.13875 1.69981 0
M  V30 1068 H 104.03 0.469209 4.05293 0
M  V30 1069 H 102.705 1.6014 3.83833 0
M  V30 1070 H 101.282 -0.226371 3.72212 0
M  V30 1071 N 103.467 -1.45747 0.599634 0
M  V30 1072 C 104.397 -2.33235 -0.111306 0
M  V30 1073 C 105.378 -1.46359 -0.866781 0
M  V30 1074 O 106.563 -1.75146 -0.838904 0
M  V30 1075 C 103.693 -3.28932 -1.11451 0
M  V30 1076 C 102.647 -4.25381 -0.472772 0
M  V30 1077 C 101.973 -5.1071 -1.58365 0
M  V30 1078 C 103.273 -5.18831 0.600948 0
M  V30 1079 H 104.967 -2.92927 0.61919 0
M  V30 1080 H 102.513 -1.40857 0.299215 0
M  V30 1081 H 104.466 -3.89002 -1.62036 0
M  V30 1082 H 103.19 -2.67381 -1.8755 0
M  V30 1083 H 101.849 -3.66598 0.0121472 0
M  V30 1084 H 101.497 -4.45533 -2.33473 0
M  V30 1085 H 101.197 -5.7604 -1.15982 0
M  V30 1086 H 102.721 -5.73647 -2.09194 0
M  V30 1087 H 104.135 -5.73019 0.179491 0
M  V30 1088 H 102.532 -5.92595 0.946076 0
M  V30 1089 H 103.602 -4.6174 1.48068 0
M  V30 1090 N 104.945 -0.338344 -1.53925 0
M  V30 1091 C 106.173 0.261298 -2.05243 0
M  V30 1092 C 106.588 1.44625 -1.21363 0
M  V30 1093 O 105.945 1.80811 -0.247736 0
M  V30 1094 C 105.996 0.681412 -3.5502 0
M  V30 1095 O 105.717 -0.456414 -4.35716 0
M  V30 1096 C 107.218 1.34232 -4.22489 0
M  V30 1097 H 104.438 0.0513685 -0.669031 0
M  V30 1098 H 106.982 -0.488822 -1.98572 0
M  V30 1099 H 105.137 1.38148 -3.61931 0
M  V30 1100 H 105.551 -0.122564 -5.24357 0
M  V30 1101 H 107.025 1.58708 -5.28693 0
M  V30 1102 H 107.502 2.29426 -3.74514 0
M  V30 1103 H 108.108 0.684424 -4.19757 0
M  V30 1104 N 106.423 1.57458 -0.0668435 0
M  V30 1105 C 107.834 1.80776 0.466558 0
M  V30 1106 C 108.185 0.980361 1.69951 0
M  V30 1107 O 107.31 0.201441 2.1546 0
M  V30 1108 C 107.905 3.27881 0.85321 0
M  V30 1109 C 106.464 3.52062 1.3315 0
M  V30 1110 C 105.611 2.75513 0.314264 0
M  V30 1111 H 108.562 1.5598 -0.292588 0
M  V30 1112 H 108.583 3.39659 1.715 0
M  V30 1113 H 108.095 3.88075 -0.0443439 0
M  V30 1114 H 106.196 2.97167 2.24772 0
M  V30 1115 H 106.309 4.60762 1.31285 0
M  V30 1116 H 104.673 2.42123 0.790492 0
M  V30 1117 H 105.456 3.38442 -0.575477 0
M  V30 1118 N 107.901 -0.206675 1.56239 0
M  V30 1119 C 108.831 -1.25909 1.96645 0
M  V30 1120 C 109.812 -1.48097 0.836734 0
M  V30 1121 O 110.997 -1.6003 1.10019 0
M  V30 1122 C 108.127 -2.6058 2.29599 0
M  V30 1123 C 107.081 -2.53024 3.452 0
M  V30 1124 C 106.407 -3.91861 3.63798 0
M  V30 1125 C 107.707 -2.06524 4.79734 0
M  V30 1126 H 109.401 -0.923369 2.84806 0
M  V30 1127 H 106.947 -0.442735 1.37025 0
M  V30 1128 H 108.9 -3.34375 2.56459 0
M  V30 1129 H 107.624 -2.95869 1.38307 0
M  V30 1130 H 106.283 -1.81684 3.18412 0
M  V30 1131 H 105.931 -4.24483 2.69857 0
M  V30 1132 H 105.631 -3.87683 4.4156 0
M  V30 1133 H 107.155 -4.67296 3.93022 0
M  V30 1134 H 108.569 -2.70072 5.05702 0
M  V30 1135 H 106.966 -2.13374 5.60885 0
M  V30 1136 H 108.036 -1.01802 4.74093 0
M  V30 1137 N 109.379 -1.50304 -0.473955 0
M  V30 1138 C 110.289 -1.7174 -1.5982 0
M  V30 1139 C 111.305 -0.600457 -1.63311 0
M  V30 1140 O 112.481 -0.878441 -1.81233 0
M  V30 1141 C 109.546 -1.80427 -2.96052 0
M  V30 1142 C 108.607 -3.04148 -3.02972 0
M  V30 1143 C 107.84 -3.12411 -4.32706 0
M  V30 1144 O 108.063 -2.27542 -5.23049 0
M  V30 1145 O 106.997 -4.05113 -4.45159 0
M  V30 1146 H 110.823 -2.67035 -1.44657 0
M  V30 1147 H 108.408 -1.34366 -0.653148 0
M  V30 1148 H 110.29 -1.88338 -3.7697 0
M  V30 1149 H 108.965 -0.883156 -3.11419 0
M  V30 1150 H 107.872 -3.0174 -2.21142 0
M  V30 1151 H 109.205 -3.95829 -2.92541 0
M  V30 1152 N 110.857 0.726932 -1.39834 0
M  V30 1153 C 112.104 1.48664 -1.37496 0
M  V30 1154 C 112.432 1.94482 0.0264678 0
M  V30 1155 O 111.687 1.67692 1.00886 0
M  V30 1156 C 111.986 2.73495 -2.30077 0
M  V30 1157 C 111.652 2.46502 -3.77555 0
M  V30 1158 C 110.314 2.3885 -4.17737 0
M  V30 1159 C 112.666 2.23604 -4.70798 0
M  V30 1160 C 109.994 2.06352 -5.49214 0
M  V30 1161 C 112.346 1.92622 -6.02561 0
M  V30 1162 C 111.01 1.83444 -6.41798 0
M  V30 1163 H 110.28 0.544001 -0.503135 0
M  V30 1164 H 112.927 0.833657 -1.72402 0
M  V30 1165 H 111.232 3.43575 -1.88317 0
M  V30 1166 H 112.929 3.31549 -2.25558 0
M  V30 1167 H 109.519 2.5334 -3.45712 0
M  V30 1168 H 113.703 2.28479 -4.40581 0
M  V30 1169 H 108.959 1.97776 -5.78528 0
M  V30 1170 H 113.133 1.73914 -6.74334 0
M  V30 1171 H 110.76 1.58029 -7.43593 0
M  V30 1172 N 112.336 1.25143 0.95797 0
M  V30 1173 C 113.268 1.01023 2.05735 0
M  V30 1174 C 114.281 -0.0236902 1.62783 0
M  V30 1175 O 115.47 0.21448 1.77207 0
M  V30 1176 C 112.57 0.504595 3.35122 0
M  V30 1177 C 111.743 1.6039 4.06932 0
M  V30 1178 C 110.802 1.09922 5.14591 0
M  V30 1179 O 109.828 1.79293 5.40225 0
M  V30 1180 N 111.03 -0.0612545 5.80468 0
M  V30 1181 H 113.795 1.95683 2.26998 0
M  V30 1182 H 111.356 1.16303 1.12629 0
M  V30 1183 H 113.348 0.151516 4.04416 0
M  V30 1184 H 111.918 -0.347989 3.10657 0
M  V30 1185 H 111.138 2.12872 3.31782 0
M  V30 1186 H 112.426 2.34252 4.51667 0
M  V30 1187 H 111.824 -0.640985 5.62057 0
M  V30 1188 H 110.381 -0.355395 6.5083 0
M  V30 1189 N 113.814 -1.1601 1.06675 0
M  V30 1190 C 115.062 -1.86264 0.784229 0
M  V30 1191 C 115.383 -1.82328 -0.691488 0
M  V30 1192 O 114.653 -1.25947 -1.50047 0
M  V30 1193 H 113.233 -0.689621 0.28711 0
M  V30 1194 H 115.895 -1.40664 1.34906 0
M  V30 1195 H 114.991 -2.91595 1.11259 0
M  V30 1196 N 115.292 -0.849877 -1.32721 0
M  V30 1197 C 116.522 -0.46408 -2.0132 0
M  V30 1198 C 116.93 0.94246 -1.64056 0
M  V30 1199 O 116.273 1.6257 -0.855379 0
M  V30 1200 C 116.335 -0.517887 -3.5575 0
M  V30 1201 C 115.999 -1.88248 -4.16427 0
M  V30 1202 C 116.996 -2.84726 -4.35002 0
M  V30 1203 C 114.681 -2.17832 -4.52609 0
M  V30 1204 C 116.675 -4.08945 -4.8892 0
M  V30 1205 C 114.362 -3.42304 -5.06232 0
M  V30 1206 C 115.36 -4.37677 -5.24335 0
M  V30 1207 O 115.048 -5.59946 -5.76815 0
M  V30 1208 H 114.78 -0.181327 -0.651227 0
M  V30 1209 H 117.334 -1.14713 -1.70382 0
M  V30 1210 H 115.564 0.221997 -3.86062 0
M  V30 1211 H 117.253 -0.148366 -4.05629 0
M  V30 1212 H 118.019 -2.63174 -4.07388 0
M  V30 1213 H 113.898 -1.44385 -4.37806 0
M  V30 1214 H 117.442 -4.83396 -5.02966 0
M  V30 1215 H 113.339 -3.63709 -5.33278 0
M  V30 1216 H 114.107 -5.61838 -5.95214 0
M  V30 1217 N 116.77 1.45427 -0.607355 0
M  V30 1218 C 117.718 2.32269 0.12411 0
M  V30 1219 C 118.712 1.45955 0.859854 0
M  V30 1220 O 119.918 1.6244 0.775447 0
M  V30 1221 H 116.293 0.749691 0.0588839 0
M  V30 1222 H 118.264 2.91743 -0.626762 0
M  V30 1223 C 117.013 3.29567 1.1082 0
M  V30 1224 H 116.336 3.95978 0.551492 0
M  V30 1225 H 117.776 3.93061 1.58995 0
M  V30 1226 C 116.235 2.56722 2.18164 0
M  V30 1227 O 116.765 2.34842 3.25902 0
M  V30 1228 N 114.971 2.16861 1.93442 0
M  V30 1229 H 114.518 2.34855 1.05834 0
M  V30 1230 H 114.476 1.68444 2.65469 0
M  V30 1231 N 118.248 0.346503 1.53744 0
M  V30 1232 C 119.178 -0.501193 2.28058 0
M  V30 1233 C 120.159 -1.10014 1.29734 0
M  V30 1234 O 121.344 -1.12097 1.58581 0
M  V30 1235 C 118.474 -1.65078 3.05559 0
M  V30 1236 C 117.428 -1.18003 4.11411 0
M  V30 1237 C 116.754 -2.41837 4.76884 0
M  V30 1238 C 118.054 -0.278394 5.21558 0
M  V30 1239 H 119.748 0.11875 2.99164 0
M  V30 1240 H 117.294 0.0585531 1.43881 0
M  V30 1241 H 119.247 -2.25028 3.56287 0
M  V30 1242 H 117.971 -2.29767 2.32109 0
M  V30 1243 H 116.63 -0.603331 3.61601 0
M  V30 1244 H 116.278 -3.0494 4.00026 0
M  V30 1245 H 115.978 -2.1102 5.48402 0
M  V30 1246 H 117.502 -3.02508 5.30397 0
M  V30 1247 H 118.916 -0.784823 5.67903 0
M  V30 1248 H 117.313 -0.0619707 6.00068 0
M  V30 1249 H 118.383 0.684677 4.80042 0
M  V30 1250 N 119.726 -1.57421 0.075193 0
M  V30 1251 C 120.951 -1.98364 -0.605515 0
M  V30 1252 C 121.376 -0.953383 -1.62149 0
M  V30 1253 O 120.734 0.0806053 -1.81121 0
M  V30 1254 C 120.782 -3.38332 -1.24756 0
M  V30 1255 O 119.886 -3.37959 -2.36342 0
M  V30 1256 H 119.227 -0.645553 -0.155428 0
M  V30 1257 H 121.757 -2.04044 0.150714 0
M  V30 1258 H 121.767 -3.75591 -1.5936 0
M  V30 1259 H 120.442 -4.12846 -0.503129 0
M  V30 1260 H 119.019 -3.12474 -2.03506 0
M  V30 1261 N 121.204 0.198386 -1.56346 0
M  V30 1262 C 122.167 1.22952 -1.93431 0
M  V30 1263 C 123.167 1.38611 -0.815092 0
M  V30 1264 O 124.357 1.36479 -1.08255 0
M  V30 1265 C 121.489 2.59946 -2.20546 0
M  V30 1266 H 122.682 0.912626 -2.85677 0
M  V30 1267 H 120.235 0.43977 -1.49986 0
M  V30 1268 H 120.97 2.96696 -1.30927 0
M  V30 1269 H 120.755 2.49953 -3.02102 0
M  V30 1270 H 122.245 3.3431 -2.50253 0
M  V30 1271 N 122.682 1.50554 0.465978 0
M  V30 1272 C 123.63 1.70324 1.58406 0
M  V30 1273 C 124.624 0.569139 1.59553 0
M  V30 1274 O 125.83 0.749776 1.63641 0
M  V30 1275 H 122.205 0.537688 0.525734 0
M  V30 1276 H 124.176 2.64104 1.38894 0
M  V30 1277 C 122.925 1.81928 2.96307 0
M  V30 1278 H 122.248 2.68586 2.96144 0
M  V30 1279 H 123.688 1.99784 3.73982 0
M  V30 1280 C 122.147 0.572095 3.32007 0
M  V30 1281 O 122.677 -0.286416 4.00678 0
M  V30 1282 N 120.883 0.424606 2.87481 0
M  V30 1283 H 120.43 1.12427 2.31771 0
M  V30 1284 H 120.388 -0.408697 3.11732 0
M  V30 1285 N 124.16 -0.719506 1.40217 0
M  V30 1286 C 125.107 -1.83359 1.40172 0
M  V30 1287 C 126.077 -1.64065 0.259206 0
M  V30 1288 O 127.262 -1.85254 0.456677 0
M  V30 1289 C 124.402 -3.2103 1.26624 0
M  V30 1290 C 123.515 -3.51923 2.50548 0
M  V30 1291 C 122.65 -4.79079 2.29471 0
M  V30 1292 C 121.689 -5.02863 3.48992 0
M  V30 1293 N 120.826 -6.2123 3.27135 0
M  V30 1294 H 125.666 -1.82733 2.35399 0
M  V30 1295 H 123.203 -0.892688 1.16917 0
M  V30 1296 H 125.161 -4.00524 1.16776 0
M  V30 1297 H 123.791 -3.20895 0.350176 0
M  V30 1298 H 122.843 -2.67014 2.70939 0
M  V30 1299 H 124.155 -3.6541 3.39525 0
M  V30 1300 H 123.309 -5.66582 2.16955 0
M  V30 1301 H 122.048 -4.67794 1.37913 0
M  V30 1302 H 121.053 -4.13816 3.6199 0
M  V30 1303 H 122.278 -5.16023 4.41472 0
M  V30 1304 H 120.224 -6.11204 2.38256 0
M  V30 1305 H 120.141 -6.35375 4.09675 0
M  V30 1306 H 121.409 -7.11532 3.18344 0
M  V30 1307 N 125.638 -1.25649 -0.95132 0
M  V30 1308 C 126.57 -1.02112 -2.05197 0
M  V30 1309 C 127.583 0.0150571 -1.62793 0
M  V30 1310 O 128.772 -0.223874 -1.77091 0
M  V30 1311 C 125.872 -0.522361 -3.3485 0
M  V30 1312 C 125.045 -1.62546 -4.06076 0
M  V30 1313 C 124.104 -1.12649 -5.14001 0
M  V30 1314 O 123.13 -1.82156 -5.39266 0
M  V30 1315 N 124.332 0.03047 -5.80492 0
M  V30 1316 H 127.097 -1.96885 -2.25957 0
M  V30 1317 H 124.658 -1.16899 -1.1201 0
M  V30 1318 H 126.65 -0.172961 -4.0433 0
M  V30 1319 H 125.22 0.33151 -3.10837 0
M  V30 1320 H 124.44 -2.14628 -3.30649 0
M  V30 1321 H 125.728 -2.36644 -4.50419 0
M  V30 1322 H 125.126 0.611169 -5.62389 0
M  V30 1323 H 123.683 0.320875 -6.5101 0
M  V30 1324 N 127.117 1.15442 -1.07289 0
M  V30 1325 C 128.364 1.86213 -0.795668 0
M  V30 1326 C 128.692 1.82291 0.678238 0
M  V30 1327 O 127.947 1.24057 1.51355 0
M  V30 1328 C 128.246 3.3489 -1.24834 0
M  V30 1329 C 127.912 3.59007 -2.72809 0
M  V30 1330 C 126.574 3.65298 -3.13227 0
M  V30 1331 C 128.926 3.68762 -3.68326 0
M  V30 1332 C 126.254 3.78854 -4.4798 0
M  V30 1333 C 128.606 3.83842 -5.0284 0
M  V30 1334 C 127.27 3.88378 -5.4288 0
M  V30 1335 H 126.54 0.681403 -0.291155 0
M  V30 1336 H 129.187 1.36435 -1.34379 0
M  V30 1337 H 127.492 3.8687 -0.619595 0
M  V30 1338 H 129.189 3.88052 -1.01076 0
M  V30 1339 H 125.779 3.5475 -2.40521 0
M  V30 1340 H 129.963 3.63202 -3.38227 0
M  V30 1341 H 125.219 3.80623 -4.78472 0
M  V30 1342 H 129.393 3.90332 -5.76727 0
M  V30 1343 H 127.02 3.98635 -6.47298 0
M  V30 1344 N 128.595 0.856903 1.32268 0
M  V30 1345 C 129.525 0.31858 2.31316 0
M  V30 1346 C 130.506 -0.583487 1.59779 0
M  V30 1347 O 131.691 -0.503259 1.87566 0
M  V30 1348 C 128.821 -0.491979 3.43798 0
M  V30 1349 C 127.775 0.315849 4.26833 0
M  V30 1350 C 127.101 -0.619586 5.31098 0
M  V30 1351 C 128.401 1.54282 4.98993 0
M  V30 1352 H 130.095 1.14621 2.76591 0
M  V30 1353 H 127.641 0.552613 1.32974 0
M  V30 1354 H 129.594 -0.879012 4.1213 0
M  V30 1355 H 128.318 -1.35299 2.97257 0
M  V30 1356 H 126.977 0.684664 3.6015 0
M  V30 1357 H 126.625 -1.47751 4.8081 0
M  V30 1358 H 126.325 -0.0830621 5.87541 0
M  V30 1359 H 127.849 -1.00375 6.02293 0
M  V30 1360 H 129.263 1.22796 5.59995 0
M  V30 1361 H 127.66 2.01745 5.65172 0
M  V30 1362 H 128.73 2.30285 4.26728 0
M  V30 1363 N 130.073 -1.45103 0.615059 0
M  V30 1364 C 131.003 -2.33339 -0.0865619 0
M  V30 1365 C 131.984 -1.4727 -0.851209 0
M  V30 1366 O 133.169 -1.76026 -0.820281 0
M  V30 1367 C 130.299 -3.30095 -1.07956 0
M  V30 1368 C 129.253 -4.25858 -0.427628 0
M  V30 1369 C 128.579 -5.12361 -1.5294 0
M  V30 1370 C 129.879 -5.18165 0.655944 0
M  V30 1371 H 131.573 -2.92254 0.650224 0
M  V30 1372 H 129.119 -1.40532 0.314138 0
M  V30 1373 H 131.072 -3.90698 -1.57901 0
M  V30 1374 H 129.796 -2.69355 -1.84703 0
M  V30 1375 H 128.455 -3.66564 0.0510292 0
M  V30 1376 H 128.103 -4.47984 -2.28734 0
M  V30 1377 H 127.803 -5.77238 -1.09865 0
M  V30 1378 H 129.327 -5.75833 -2.03098 0
M  V30 1379 H 130.741 -5.72796 0.240257 0
M  V30 1380 H 129.138 -5.91559 1.00888 0
M  V30 1381 H 130.208 -4.60144 1.52957 0
M  V30 1382 N 131.551 -0.354651 -1.53558 0
M  V30 1383 C 132.779 0.239515 -2.05509 0
M  V30 1384 C 133.194 1.4333 -1.2289 0
M  V30 1385 O 132.551 1.80538 -0.266899 0
M  V30 1386 C 132.602 0.643719 -3.55723 0
M  V30 1387 O 132.323 -0.502602 -4.35207 0
M  V30 1388 C 133.824 1.29743 -4.23889 0
M  V30 1389 H 131.044 0.0442697 -0.669538 0
M  V30 1390 H 133.588 -0.509856 -1.98042 0
M  V30 1391 H 131.743 1.34302 -3.63376 0
M  V30 1392 H 132.157 -0.178172 -5.24197 0
M  V30 1393 H 133.631 1.53091 -5.30346 0
M  V30 1394 H 134.108 2.25441 -3.76926 0
M  V30 1395 H 134.714 0.639865 -4.20459 0
M  V30 1396 N 133.029 1.57378 -0.0835403 0
M  V30 1397 C 133.977 2.14602 0.89714 0
M  V30 1398 C 134.971 1.08589 1.30018 0
M  V30 1399 O 136.177 1.26952 1.27606 0
M  V30 1400 H 132.552 0.686346 0.3073 0
M  V30 1401 H 134.523 2.95845 0.38969 0
M  V30 1402 C 133.272 2.73188 2.15089 0
M  V30 1403 H 132.595 3.54442 1.84962 0
M  V30 1404 H 134.035 3.1681 2.81793 0
M  V30 1405 C 132.494 1.68517 2.91725 0
M  V30 1406 O 133.024 1.11718 3.85852 0
M  V30 1407 N 131.23 1.39277 2.55049 0
M  V30 1408 H 130.777 1.85655 1.78577 0
M  V30 1409 H 130.735 0.694791 3.06627 0
M  V30 1410 N 134.507 -0.190092 1.56449 0
M  V30 1411 C 135.455 -1.25501 1.95837 0
M  V30 1412 C 136.449 -1.4685 0.844485 0
M  V30 1413 O 137.655 -1.47651 1.02952 0
M  V30 1414 H 134.03 -0.421447 0.622805 0
M  V30 1415 H 136.001 -0.895821 2.84636 0
M  V30 1416 C 134.75 -2.59124 2.31841 0
M  V30 1417 H 134.073 -2.43514 3.17082 0
M  V30 1418 H 135.513 -3.32371 2.6326 0
M  V30 1419 C 133.972 -3.16488 1.15486 0
M  V30 1420 O 134.502 -3.99365 0.432535 0
M  V30 1421 N 132.708 -2.75305 0.930349 0
M  V30 1422 H 132.255 -2.08013 1.51948 0
M  V30 1423 H 132.213 -3.14024 0.153634 0
M  V30 1424 N 135.985 -1.50799 -0.457987 0
M  V30 1425 C 137.233 -1.62121 -1.2067 0
M  V30 1426 C 137.554 -0.329793 -1.92191 0
M  V30 1427 O 136.824 0.653409 -1.84682 0
M  V30 1428 H 135.404 -0.597441 -0.448411 0
M  V30 1429 H 138.066 -1.87637 -0.527096 0
M  V30 1430 H 137.162 -2.43882 -1.94751 0
M  V30 1431 N 137.463 0.71206 -1.40597 0
M  V30 1432 C 138.413 1.81783 -1.37619 0
M  V30 1433 C 139.397 1.58896 -0.253162 0
M  V30 1434 O 140.589 1.70009 -0.492547 0
M  V30 1435 C 137.718 3.19944 -1.24462 0
M  V30 1436 C 136.804 3.48582 -2.4156 0
M  V30 1437 N 137.195 3.48016 -3.67041 0
M  V30 1438 C 135.493 3.79056 -2.35016 0
M  V30 1439 C 136.194 3.75096 -4.44609 0
M  V30 1440 N 135.17 3.94022 -3.74497 0
M  V30 1441 H 138.972 1.79683 -2.32575 0
M  V30 1442 H 136.486 0.91134 -1.34419 0
M  V30 1443 H 138.483 3.99133 -1.20411 0
M  V30 1444 H 137.143 3.23267 -0.304762 0
M  V30 1445 H 138.154 3.28782 -4.00153 0
M  V30 1446 H 134.831 3.89848 -1.49415 0
M  V30 1447 H 136.221 3.80934 -5.53479 0
M  V30 1448 N 138.941 1.26152 0.944643 0
M  V30 1449 C 140.166 1.14363 1.7302 0
M  V30 1450 C 140.591 -0.29772 1.85729 0
M  V30 1451 O 139.949 -1.2157 1.34501 0
M  V30 1452 C 139.997 1.81378 3.11664 0
M  V30 1453 O 139.101 1.10022 3.97453 0
M  V30 1454 H 138.442 0.398694 0.53098 0
M  V30 1455 H 140.972 1.66906 1.18337 0
M  V30 1456 H 140.982 1.88064 3.62072 0
M  V30 1457 H 139.657 2.86237 3.0173 0
M  V30 1458 H 138.234 1.11287 3.55907 0
M  V30 1459 N 140.419 -1.14872 1.07899 0
M  V30 1460 C 141.665 -1.86064 0.806725 0
M  V30 1461 C 141.998 -1.82434 -0.665706 0
M  V30 1462 O 141.273 -1.25138 -1.48899 0
M  V30 1463 C 141.556 -3.34929 1.32267 0
M  V30 1464 C 141.409 -3.47161 2.86006 0
M  V30 1465 C 142.728 -4.29863 0.943717 0
M  V30 1466 H 139.847 -0.675591 0.294526 0
M  V30 1467 H 142.489 -1.34925 1.33773 0
M  V30 1468 H 140.639 -3.78611 0.870974 0
M  V30 1469 H 142.311 -3.12302 3.39507 0
M  V30 1470 H 140.554 -2.88539 3.23925 0
M  V30 1471 H 141.225 -4.51777 3.17177 0
M  V30 1472 H 143.701 -3.9417 1.33302 0
M  V30 1473 H 142.577 -5.32494 1.33198 0
M  V30 1474 H 142.838 -4.41846 -0.149796 0
M  V30 1475 N 141.898 -0.863906 -1.31812 0
M  V30 1476 C 142.845 -0.313303 -2.28664 0
M  V30 1477 C 143.815 0.584868 -1.55462 0
M  V30 1478 O 145 0.517805 -1.83639 0
M  V30 1479 C 142.14 0.48441 -3.41683 0
M  V30 1480 C 141.253 -0.440594 -4.29747 0
M  V30 1481 C 140.388 0.370652 -5.29905 0
M  V30 1482 C 139.427 -0.551164 -6.09613 0
M  V30 1483 N 138.564 0.223462 -7.01744 0
M  V30 1484 H 143.404 -1.14444 -2.75148 0
M  V30 1485 H 140.941 -0.575769 -1.35364 0
M  V30 1486 H 142.899 0.962627 -4.05943 0
M  V30 1487 H 141.529 1.28029 -2.96325 0
M  V30 1488 H 140.581 -1.03724 -3.65986 0
M  V30 1489 H 141.893 -1.14767 -4.85417 0
M  V30 1490 H 141.047 0.911638 -5.99812 0
M  V30 1491 H 139.786 1.11105 -4.74876 0
M  V30 1492 H 138.791 -1.10396 -5.38603 0
M  V30 1493 H 140.016 -1.29032 -6.66729 0
M  V30 1494 H 137.962 0.946787 -6.49132 0
M  V30 1495 H 137.879 -0.424399 -7.54808 0
M  V30 1496 H 139.147 0.745876 -7.75923 0
M  V30 1497 N 143.376 1.44774 -0.622745 0
M  V30 1498 C 144.306 2.33382 0.0741861 0
M  V30 1499 C 145.287 1.47719 0.843387 0
M  V30 1500 O 146.472 1.76458 0.810934 0
M  V30 1501 C 143.602 3.30663 1.06204 0
M  V30 1502 C 142.556 4.26079 0.405037 0
M  V30 1503 C 141.882 5.13165 1.5022 0
M  V30 1504 C 143.182 5.1781 -0.683414 0
M  V30 1505 H 144.876 2.91905 -0.665713 0
M  V30 1506 H 142.422 1.40363 -0.321587 0
M  V30 1507 H 144.375 3.9153 1.55827 0
M  V30 1508 H 143.099 2.70331 1.83272 0
M  V30 1509 H 141.758 3.66532 -0.0704683 0
M  V30 1510 H 141.406 4.49191 2.26355 0
M  V30 1511 H 141.106 5.77812 1.06803 0
M  V30 1512 H 142.63 5.76902 2.00041 0
M  V30 1513 H 144.044 5.72661 -0.270631 0
M  V30 1514 H 142.441 5.91015 -1.04023 0
M  V30 1515 H 143.511 4.59326 -1.55395 0
M  V30 1516 N 144.854 0.36279 1.53368 0
M  V30 1517 C 145.802 -0.500155 2.27159 0
M  V30 1518 C 146.796 -1.08575 1.3003 0
M  V30 1519 O 148.002 -1.02927 1.47668 0
M  V30 1520 H 144.377 -0.180009 0.730138 0
M  V30 1521 H 146.348 0.14401 2.98052 0
M  V30 1522 C 145.097 -1.62937 3.07159 0
M  V30 1523 H 144.42 -1.18806 3.8174 0
M  V30 1524 H 145.86 -2.20795 3.61975 0
M  V30 1525 C 144.319 -2.57007 2.17829 0
M  V30 1526 O 144.849 -3.59752 1.78721 0
M  V30 1527 N 143.055 -2.26131 1.82518 0
M  V30 1528 H 142.602 -1.42616 2.14519 0
M  V30 1529 H 142.56 -2.89327 1.23034 0
M  V30 1530 N 146.332 -1.57332 0.0918853 0
M  V30 1531 C 147.262 -2.16872 -0.865371 0
M  V30 1532 C 148.243 -1.10118 -1.29646 0
M  V30 1533 O 149.428 -1.38242 -1.36392 0
M  V30 1534 C 146.558 -2.74649 -2.12569 0
M  V30 1535 C 145.512 -3.86747 -1.83333 0
M  V30 1536 C 144.838 -4.31212 -3.16166 0
M  V30 1537 C 146.138 -5.10089 -1.1228 0
M  V30 1538 H 147.832 -2.97114 -0.369307 0
M  V30 1539 H 145.378 -1.42918 -0.176194 0
M  V30 1540 H 147.331 -3.14952 -2.7997 0
M  V30 1541 H 146.055 -1.91657 -2.64452 0
M  V30 1542 H 144.714 -3.46978 -1.18331 0
M  V30 1543 H 144.362 -3.45115 -3.6593 0
M  V30 1544 H 144.062 -5.06788 -2.97388 0
M  V30 1545 H 145.586 -4.74146 -3.84731 0
M  V30 1546 H 147 -5.47582 -1.69785 0
M  V30 1547 H 145.397 -5.91073 -1.03693 0
M  V30 1548 H 146.467 -4.84786 -0.105041 0
M  V30 1549 N 147.81 0.181792 -1.56548 0
M  V30 1550 C 149.221 0.745244 -1.71181 0
M  V30 1551 C 149.572 1.83262 -0.70068 0
M  V30 1552 O 148.697 2.15946 0.140154 0
M  V30 1553 C 149.292 1.35859 -3.10367 0
M  V30 1554 C 147.851 1.86898 -3.2672 0
M  V30 1555 C 146.998 0.743942 -2.67134 0
M  V30 1556 H 149.949 -0.0434661 -1.5864 0
M  V30 1557 H 149.97 2.22817 -3.08436 0
M  V30 1558 H 149.482 0.566948 -3.83937 0
M  V30 1559 H 147.583 2.68738 -2.5809 0
M  V30 1560 H 147.696 2.02162 -4.34359 0
M  V30 1561 H 146.06 1.16169 -2.26665 0
M  V30 1562 H 146.843 -0.035676 -3.43281 0
M  V30 1563 N 149.288 1.51039 0.449983 0
M  V30 1564 C 150.513 1.6715 1.22783 0
M  V30 1565 C 150.938 0.363081 1.84563 0
M  V30 1566 O 150.296 -0.675433 1.68249 0
M  V30 1567 C 150.344 2.77985 2.29689 0
M  V30 1568 O 149.448 2.40707 3.34864 0
M  V30 1569 H 148.789 0.557746 0.360299 0
M  V30 1570 H 151.319 1.97535 0.533005 0
M  V30 1571 H 151.329 3.01693 2.74673 0
M  V30 1572 H 150.004 3.72935 1.84098 0
M  V30 1573 H 148.581 2.27523 2.95445 0
M  V30 1574 N 150.766 -0.704594 1.40972 0
M  V30 1575 C 152.043 -1.45847 1.30338 0
M  V30 1576 C 152.423 -2.10973 -0.0732344 0
M  V30 1577 O 151.771 -2.00997 -1.08685 0
M  V30 1578 C 151.981 -2.48525 2.45023 0
M  V30 1579 C 153.329 -3.1404 2.8577 0
M  V30 1580 O 154.353 -2.58848 2.44696 0
M  V30 1581 O 153.212 -4.13981 3.56766 0
M  V30 1582 H 150.306 -0.649092 0.512454 0
M  V30 1583 H 152.852 -0.735836 1.52917 0
M  V30 1584 H 151.624 -1.98994 3.36923 0
M  V30 1585 H 151.247 -3.2831 2.24272 0
M  V30 1586 N 152.244 -1.26651 -0.937939 0
M  V30 1587 C 153.177 -1.02811 -2.03728 0
M  V30 1588 C 154.155 0.0481915 -1.62529 0
M  V30 1589 O 155.339 -0.0948839 -1.88261 0
M  V30 1590 C 152.466 -0.557517 -3.3408 0
M  V30 1591 C 151.512 -1.62686 -3.94253 0
M  V30 1592 S 152.345 -3.21667 -4.28125 0
M  V30 1593 C 153.501 -2.76384 -5.61572 0
M  V30 1594 H 153.734 -1.95891 -2.23638 0
M  V30 1595 H 151.267 -1.10367 -1.07974 0
M  V30 1596 H 153.225 -0.292674 -4.09455 0
M  V30 1597 H 151.886 0.353062 -3.12109 0
M  V30 1598 H 151.079 -1.24866 -4.88287 0
M  V30 1599 H 150.681 -1.84324 -3.25424 0
M  V30 1600 H 152.973 -2.2105 -6.40424 0
M  V30 1601 H 153.916 -3.69123 -6.0428 0
M  V30 1602 H 154.324 -2.15847 -5.21604 0
M  V30 1603 N 153.722 1.14298 -1.08507 0
M  V30 1604 C 154.672 2.17449 -0.685569 0
M  V30 1605 C 155.656 1.58167 0.295315 0
M  V30 1606 O 156.848 1.76675 0.107172 0
M  V30 1607 C 153.977 3.43161 -0.0975318 0
M  V30 1608 C 153.063 4.09471 -1.10426 0
M  V30 1609 N 153.454 4.51089 -2.28806 0
M  V30 1610 C 151.752 4.35976 -0.940258 0
M  V30 1611 C 152.453 5.02654 -2.9277 0
M  V30 1612 N 151.429 4.96927 -2.20374 0
M  V30 1613 H 155.231 2.47369 -1.587 0
M  V30 1614 H 152.745 1.30992 -0.959936 0
M  V30 1615 H 154.742 4.16388 0.20664 0
M  V30 1616 H 153.402 3.14719 0.798872 0
M  V30 1617 H 154.413 4.44097 -2.66455 0
M  V30 1618 H 151.09 4.17386 -0.0977441 0
M  V30 1619 H 152.48 5.44723 -3.93352 0
M  V30 1620 N 155.201 0.870884 1.31352 0
M  V30 1621 C 156.45 0.478408 1.95944 0
M  V30 1622 C 156.763 -0.974493 1.69597 0
M  V30 1623 O 157.969 -1.47316 2.28058 0
M  V30 1624 C 156.425 0.804609 3.50791 0
M  V30 1625 C 156.033 2.27433 3.85977 0
M  V30 1626 C 157.777 0.480648 4.2177 0
M  V30 1627 C 155.684 2.5429 5.33939 0
M  V30 1628 H 154.614 0.175175 0.733369 0
M  V30 1629 H 157.265 1.06391 1.4951 0
M  V30 1630 H 155.647 0.148347 3.95722 0
M  V30 1631 H 156.821 2.97373 3.52002 0
M  V30 1632 H 155.136 2.56442 3.28065 0
M  V30 1633 H 157.733 0.658519 5.30629 0
M  V30 1634 H 158.076 -0.578979 4.12254 0
M  V30 1635 H 158.609 1.09349 3.82476 0
M  V30 1636 H 155.348 3.58939 5.48491 0
M  V30 1637 H 154.868 1.88945 5.69263 0
M  V30 1638 H 156.547 2.39066 6.01212 0
M  V30 1639 N 156.679 -1.44442 0.630414 0
M  V30 1640 C 157.611 -2.2892 -0.113347 0
M  V30 1641 C 158.624 -1.41243 -0.80959 0
M  V30 1642 O 159.813 -1.65402 -0.671156 0
M  V30 1643 C 156.913 -3.17594 -1.18266 0
M  V30 1644 C 156.086 -4.33682 -0.569073 0
M  V30 1645 C 155.145 -5.03397 -1.53226 0
M  V30 1646 O 154.171 -5.59438 -1.04967 0
M  V30 1647 N 155.373 -5.04783 -2.86661 0
M  V30 1648 H 158.138 -2.93392 0.611636 0
M  V30 1649 H 155.699 -1.54881 0.471523 0
M  V30 1650 H 157.691 -3.61097 -1.82732 0
M  V30 1651 H 156.261 -2.54876 -1.80988 0
M  V30 1652 H 155.481 -3.9338 0.254187 0
M  V30 1653 H 156.769 -5.08608 -0.139767 0
M  V30 1654 H 156.167 -4.60584 -3.28449 0
M  V30 1655 H 154.724 -5.52077 -3.46489 0
M  V30 1656 N 158.157 -0.370918 -1.53173 0
M  V30 1657 C 159.405 0.216673 -2.00935 0
M  V30 1658 C 159.726 1.48845 -1.25977 0
M  V30 1659 O 158.996 1.92286 -0.374551 0
M  V30 1660 H 157.576 0.0830565 -0.742368 0
M  V30 1661 H 160.238 -0.49838 -1.8842 0
M  V30 1662 H 159.334 0.439893 -3.08984 0
M  V30 1663 N 159.635 1.57281 -0.100228 0
M  V30 1664 C 160.565 2.17328 0.853857 0
M  V30 1665 C 161.546 1.10804 1.2906 0
M  V30 1666 O 162.731 1.38963 1.35657 0
M  V30 1667 C 159.861 2.75772 2.11109 0
M  V30 1668 C 158.815 3.87713 1.81279 0
M  V30 1669 C 158.141 4.32882 3.13874 0
M  V30 1670 C 159.441 5.10677 1.09574 0
M  V30 1671 H 161.135 2.97305 0.353545 0
M  V30 1672 H 158.681 1.43009 0.168612 0
M  V30 1673 H 160.634 3.16433 2.78296 0
M  V30 1674 H 159.358 1.93057 2.63432 0
M  V30 1675 H 158.017 3.476 1.16489 0
M  V30 1676 H 157.665 3.47051 3.64095 0
M  V30 1677 H 157.365 5.08358 2.94696 0
M  V30 1678 H 158.889 4.7618 3.82211 0
M  V30 1679 H 160.303 5.48474 1.66879 0
M  V30 1680 H 158.7 5.91615 1.00557 0
M  V30 1681 H 159.77 4.84835 0.0793299 0
M  V30 1682 N 161.113 -0.173488 1.56642 0
M  V30 1683 C 162.045 -1.23935 1.92802 0
M  V30 1684 C 163.058 -1.40589 0.820889 0
M  V30 1685 O 164.247 -1.40631 1.09933 0
M  V30 1686 C 161.347 -2.60837 2.16373 0
M  V30 1687 C 160.52 -2.6551 3.47596 0
M  V30 1688 C 159.579 -3.8376 3.60021 0
M  V30 1689 O 158.605 -3.69859 4.32658 0
M  V30 1690 N 159.807 -5.00127 2.94709 0
M  V30 1691 H 162.572 -0.932236 2.84832 0
M  V30 1692 H 160.133 -0.363268 1.57772 0
M  V30 1693 H 162.125 -3.38407 2.21952 0
M  V30 1694 H 160.695 -2.83948 1.30738 0
M  V30 1695 H 159.915 -1.74052 3.53694 0
M  V30 1696 H 161.203 -2.65641 4.33949 0
M  V30 1697 H 160.601 -5.14322 2.35563 0
M  V30 1698 H 159.158 -5.75567 3.05886 0
M  V30 1699 N 162.591 -1.51276 -0.441967 0
M  V30 1700 C 163.816 -1.67799 -1.21895 0
M  V30 1701 C 164.241 -0.372864 -1.84367 0
M  V30 1702 O 163.599 0.666501 -1.68604 0
M  V30 1703 C 163.647 -2.79199 -2.28211 0
M  V30 1704 O 162.751 -2.42479 -3.33583 0
M  V30 1705 H 162.092 -0.559649 -0.357336 0
M  V30 1706 H 164.622 -1.97815 -0.522522 0
M  V30 1707 H 164.632 -3.03146 -2.73069 0
M  V30 1708 H 163.307 -3.73906 -1.82118 0
M  V30 1709 H 161.884 -2.29087 -2.94234 0
M  V30 1710 N 164.069 0.697108 -1.41344 0
M  V30 1711 C 165.485 1.00751 -1.2378 0
M  V30 1712 C 165.685 2.01105 -0.126066 0
M  V30 1713 O 164.741 2.47295 0.51004 0
M  V30 1714 C 166.054 1.53359 -2.58653 0
M  V30 1715 C 167.602 1.6525 -2.65822 0
M  V30 1716 C 168.077 2.2126 -4.01009 0
M  V30 1717 N 169.568 2.28622 -4.02847 0
M  V30 1718 C 170.303 2.72984 -5.04249 0
M  V30 1719 N 169.799 3.16962 -6.16041 0
M  V30 1720 N 171.592 2.72534 -4.91611 0
M  V30 1721 H 163.743 0.0322662 -2.12375 0
M  V30 1722 H 166.006 0.0768853 -0.944877 0
M  V30 1723 H 165.712 0.870773 -3.4075 0
M  V30 1724 H 165.586 2.51597 -2.81032 0
M  V30 1725 H 167.973 2.30644 -1.84086 0
M  V30 1726 H 168.054 0.655614 -2.47256 0
M  V30 1727 H 167.698 1.56482 -4.83193 0
M  V30 1728 H 167.628 3.21698 -4.16915 0
M  V30 1729 H 170.119 1.97585 -3.22131 0
M  V30 1730 H 170.432 3.49434 -6.89287 0
M  V30 1731 H 168.777 3.14875 -6.1958 0
M  V30 1732 H 171.968 2.37525 -4.0336 0
M  V30 1733 H 172.141 3.06789 -5.70775 0
M  V30 1734 N 165.547 1.27147 0.931209 0
M  V30 1735 C 166.777 1.15914 1.71019 0
M  V30 1736 C 167.185 -0.287112 1.87009 0
M  V30 1737 O 166.528 -1.20761 1.38429 0
M  V30 1738 C 166.59 1.76647 3.13107 0
M  V30 1739 C 166.254 3.25807 3.20467 0
M  V30 1740 C 167.251 4.22489 3.02983 0
M  V30 1741 C 164.936 3.66452 3.43538 0
M  V30 1742 C 166.93 5.57794 3.08454 0
M  V30 1743 C 164.617 5.01888 3.48643 0
M  V30 1744 C 165.615 5.97369 3.31119 0
M  V30 1745 O 165.303 7.30337 3.35952 0
M  V30 1746 H 165.035 0.404062 0.54195 0
M  V30 1747 H 167.589 1.68457 1.17521 0
M  V30 1748 H 165.819 1.18578 3.68071 0
M  V30 1749 H 167.508 1.60179 3.72958 0
M  V30 1750 H 168.274 3.92425 2.85004 0
M  V30 1751 H 164.153 2.92611 3.5623 0
M  V30 1752 H 167.697 6.32298 2.94694 0
M  V30 1753 H 163.594 5.31609 3.66145 0
M  V30 1754 H 164.362 7.38739 3.5243 0
M  V30 1755 N 167.025 -1.13721 1.09112 0
M  V30 1756 C 168.25 -1.89314 0.847053 0
M  V30 1757 C 168.675 -1.78416 -0.595774 0
M  V30 1758 O 168.033 -1.12942 -1.41823 0
M  V30 1759 C 168.081 -3.3701 1.28284 0
M  V30 1760 O 167.185 -4.10054 0.439267 0
M  V30 1761 H 166.526 -0.588745 0.307044 0
M  V30 1762 H 169.056 -1.43902 1.45442 0
M  V30 1763 H 169.066 -3.87834 1.26683 0
M  V30 1764 H 167.741 -3.4426 2.33363 0
M  V30 1765 H 166.318 -3.69266 0.519312 0
M  V30 1766 N 168.503 -0.877838 -1.30888 0
M  V30 1767 C 169.466 -0.344265 -2.266 0
M  V30 1768 C 170.466 0.50922 -1.52524 0
M  V30 1769 O 171.656 0.317398 -1.71284 0
M  V30 1770 C 168.788 0.510198 -3.37061 0
M  V30 1771 H 169.981 -1.1893 -2.7531 0
M  V30 1772 H 167.534 -0.654088 -1.41956 0
M  V30 1773 H 168.269 1.37612 -2.93655 0
M  V30 1774 H 168.054 -0.101047 -3.9197 0
M  V30 1775 H 169.544 0.875537 -4.08319 0
M  V30 1776 N 169.982 1.44106 -0.638065 0
M  V30 1777 C 171.21 2.06336 -0.152615 0
M  V30 1778 C 171.625 1.47731 1.17563 0
M  V30 1779 O 170.982 0.602806 1.72257 0
M  V30 1780 C 171.033 3.61479 -0.0391491 0
M  V30 1781 O 170.754 4.17903 -1.31487 0
M  V30 1782 C 172.255 4.40757 0.474176 0
M  V30 1783 H 169.475 0.665862 -0.0828776 0
M  V30 1784 H 172.019 1.84862 -0.87443 0
M  V30 1785 H 170.174 3.82191 0.633142 0
M  V30 1786 H 170.588 5.11416 -1.16421 0
M  V30 1787 H 172.062 5.49707 0.502562 0
M  V30 1788 H 172.539 4.12697 1.50258 0
M  V30 1789 H 173.145 4.24979 -0.165102 0
M  V30 1790 N 171.46 0.379036 1.52974 0
M  V30 1791 C 172.392 -0.495963 2.2377 0
M  V30 1792 C 173.405 -1.03517 1.25651 0
M  V30 1793 O 174.594 -0.939249 1.51791 0
M  V30 1794 C 171.694 -1.69894 2.93239 0
M  V30 1795 C 170.867 -1.2889 4.17979 0
M  V30 1796 C 169.926 -2.35543 4.70538 0
M  V30 1797 O 168.952 -1.97375 5.33883 0
M  V30 1798 N 170.154 -3.67318 4.49508 0
M  V30 1799 H 172.919 0.110523 2.99496 0
M  V30 1800 H 170.48 0.204878 1.60598 0
M  V30 1801 H 172.472 -2.40747 3.25304 0
M  V30 1802 H 171.042 -2.212 2.20883 0
M  V30 1803 H 170.262 -0.409676 3.92065 0
M  V30 1804 H 171.55 -0.991443 4.99047 0
M  V30 1805 H 170.948 -4.01095 3.98923 0
M  V30 1806 H 169.505 -4.34235 4.8609 0
M  V30 1807 N 172.938 -1.57226 0.108567 0
M  V30 1808 C 173.868 -2.17778 -0.84232 0
M  V30 1809 C 174.849 -1.11487 -1.2847 0
M  V30 1810 O 176.034 -1.39681 -1.34918 0
M  V30 1811 C 173.164 -2.76888 -2.09644 0
M  V30 1812 C 172.118 -3.88669 -1.79221 0
M  V30 1813 C 171.444 -4.34541 -3.11574 0
M  V30 1814 C 172.744 -5.11251 -1.06864 0
M  V30 1815 H 174.438 -2.97489 -0.337774 0
M  V30 1816 H 171.984 -1.43097 -0.161025 0
M  V30 1817 H 173.937 -3.17904 -2.76614 0
M  V30 1818 H 172.661 -1.94451 -2.62405 0
M  V30 1819 H 171.32 -3.48213 -1.14644 0
M  V30 1820 H 170.968 -3.48977 -3.62249 0
M  V30 1821 H 170.668 -5.09914 -2.91996 0
M  V30 1822 H 172.192 -4.782 -3.7968 0
M  V30 1823 H 173.606 -5.49352 -1.63968 0
M  V30 1824 H 172.003 -5.9214 -0.974178 0
M  V30 1825 H 173.073 -4.8487 -0.0536168 0
M  V30 1826 N 174.416 0.165178 -1.56732 0
M  V30 1827 C 175.366 1.20917 -1.93295 0
M  V30 1828 C 176.35 1.39488 -0.801985 0
M  V30 1829 O 177.542 1.41356 -1.06525 0
M  V30 1830 C 174.671 2.54718 -2.3016 0
M  V30 1831 C 173.757 2.39815 -3.49785 0
M  V30 1832 N 174.148 1.94637 -4.66851 0
M  V30 1833 C 172.446 2.70623 -3.54513 0
M  V30 1834 C 173.147 1.92344 -5.4898 0
M  V30 1835 N 172.123 2.34978 -4.9019 0
M  V30 1836 H 175.925 0.851675 -2.81289 0
M  V30 1837 H 173.439 0.373399 -1.58049 0
M  V30 1838 H 175.436 3.30165 -2.54552 0
M  V30 1839 H 174.096 2.91265 -1.43508 0
M  V30 1840 H 175.107 1.6488 -4.90953 0
M  V30 1841 H 171.784 3.11167 -2.78354 0
M  V30 1842 H 173.174 1.5906 -6.52801 0
M  V30 1843 N 175.894 1.51508 0.433938 0
M  V30 1844 C 176.824 1.76016 1.53429 0
M  V30 1845 C 177.805 0.610112 1.58782 0
M  V30 1846 O 178.99 0.853177 1.74455 0
M  V30 1847 C 176.12 1.88831 2.9148 0
M  V30 1848 C 175.074 3.04288 3.00987 0
M  V30 1849 C 174.4 3.0229 4.4105 0
M  V30 1850 C 175.7 4.44193 2.74754 0
M  V30 1851 H 177.394 2.68152 1.33171 0
M  V30 1852 H 174.94 1.29035 0.639214 0
M  V30 1853 H 176.893 2.04559 3.6842 0
M  V30 1854 H 175.617 0.933455 3.12976 0
M  V30 1855 H 174.276 2.8827 2.26486 0
M  V30 1856 H 173.924 2.04576 4.59519 0
M  V30 1857 H 173.624 3.79822 4.4834 0
M  V30 1858 H 175.148 3.20116 5.1996 0
M  V30 1859 H 176.562 4.60544 3.41426 0
M  V30 1860 H 174.959 5.23457 2.9345 0
M  V30 1861 H 176.029 4.53996 1.70339 0
M  V30 1862 N 177.372 -0.689602 1.41712 0
M  V30 1863 C 178.322 -1.79571 1.40493 0
M  V30 1864 C 179.306 -1.58473 0.278409 0
M  V30 1865 O 180.498 -1.69204 0.519532 0
M  V30 1866 C 177.627 -3.17923 1.29536 0
M  V30 1867 C 176.713 -3.44695 2.47075 0
M  V30 1868 N 177.104 -3.42132 3.72531 0
M  V30 1869 C 175.402 -3.75269 2.41017 0
M  V30 1870 C 176.103 -3.67976 4.50521 0
M  V30 1871 N 175.079 -3.88014 3.80718 0
M  V30 1872 H 178.881 -1.75961 2.35404 0
M  V30 1873 H 176.395 -0.889839 1.35851 0
M  V30 1874 H 178.392 -3.97167 1.26745 0
M  V30 1875 H 177.052 -3.22741 0.356153 0
M  V30 1876 H 178.063 -3.22375 4.05333 0
M  V30 1877 H 174.74 -3.87421 1.55599 0
M  V30 1878 H 176.13 -3.7208 5.59469 0
M  V30 1879 N 178.85 -1.27639 -0.924453 0
M  V30 1880 C 180.096 -1.15345 -1.67532 0
M  V30 1881 C 180.451 0.297096 -1.90092 0
M  V30 1882 O 179.744 1.21374 -1.48253 0
M  V30 1883 C 179.938 -1.87407 -3.04325 0
M  V30 1884 C 179.767 -3.3932 -2.95114 0
M  V30 1885 C 178.537 -4.08644 -2.97218 0
M  V30 1886 C 180.735 -4.35242 -2.73987 0
M  V30 1887 N 178.717 -5.47102 -2.78482 0
M  V30 1888 C 180.088 -5.6099 -2.63988 0
M  V30 1889 C 182.143 -4.25294 -2.589 0
M  V30 1890 C 180.846 -6.77924 -2.40442 0
M  V30 1891 C 182.872 -5.41952 -2.36731 0
M  V30 1892 C 182.234 -6.66658 -2.27478 0
M  V30 1893 H 178.333 -0.47696 -0.619704 0
M  V30 1894 H 180.917 -1.6115 -1.09265 0
M  V30 1895 H 179.088 -1.44053 -3.60699 0
M  V30 1896 H 180.82 -1.6759 -3.68369 0
M  V30 1897 H 177.575 -3.60136 -3.07569 0
M  V30 1898 H 177.999 -6.19852 -2.72236 0
M  V30 1899 H 182.641 -3.29598 -2.64811 0
M  V30 1900 H 180.359 -7.73699 -2.3327 0
M  V30 1901 H 183.945 -5.36137 -2.25938 0
M  V30 1902 H 182.825 -7.55405 -2.10555 0
M  V30 1903 N 180.328 1.1314 -1.09713 0
M  V30 1904 C 181.576 1.84119 -0.833338 0
M  V30 1905 C 181.897 1.84097 0.642904 0
M  V30 1906 O 181.167 1.29881 1.46655 0
M  V30 1907 H 179.747 0.681766 -0.305293 0
M  V30 1908 H 182.409 1.37038 -1.38588 0
M  V30 1909 H 181.505 2.88543 -1.18951 0
M  V30 1910 N 181.806 0.884767 1.30421 0
M  V30 1911 C 182.754 0.340869 2.30089 0
M  V30 1912 C 183.748 -0.55201 1.60154 0
M  V30 1913 O 184.954 -0.436467 1.74628 0
M  V30 1914 H 181.329 0.0915739 0.746404 0
M  V30 1915 H 183.3 1.19513 2.73421 0
M  V30 1916 C 182.049 -0.429779 3.45034 0
M  V30 1917 H 181.372 0.248024 3.9903 0
M  V30 1918 H 182.812 -0.775445 4.16849 0
M  V30 1919 C 181.271 -1.62677 2.95022 0
M  V30 1920 O 181.801 -2.72614 2.95033 0
M  V30 1921 N 180.007 -1.46387 2.51036 0
M  V30 1922 H 179.554 -0.569506 2.51226 0
M  V30 1923 H 179.512 -2.26612 2.17932 0
M  V30 1924 N 183.284 -1.43765 0.645699 0
M  V30 1925 C 184.695 -1.85193 0.236719 0
M  V30 1926 C 185.046 -1.54045 -1.21509 0
M  V30 1927 O 184.171 -0.985694 -1.92647 0
M  V30 1928 C 184.766 -3.36151 0.422845 0
M  V30 1929 C 183.325 -3.76338 0.0682492 0
M  V30 1930 C 182.472 -2.67538 0.729306 0
M  V30 1931 H 185.423 -1.34025 0.849883 0
M  V30 1932 H 185.444 -3.79032 -0.333904 0
M  V30 1933 H 184.956 -3.5879 1.47958 0
M  V30 1934 H 183.057 -3.59312 -0.986179 0
M  V30 1935 H 183.17 -4.76603 0.488469 0
M  V30 1936 H 181.534 -2.54176 0.163235 0
M  V30 1937 H 182.317 -2.93006 1.78892 0
M  V30 1938 N 184.763 -0.387143 -1.52771 0
M  V30 1939 C 185.711 0.463953 -2.27926 0
M  V30 1940 C 186.705 1.06493 -1.31741 0
M  V30 1941 O 187.911 1.00565 -1.49287 0
M  V30 1942 H 184.286 0.16837 -0.732909 0
M  V30 1943 H 186.257 -0.19141 -2.97785 0
M  V30 1944 C 185.006 1.5803 -3.09713 0
M  V30 1945 H 184.329 1.12718 -3.83581 0
M  V30 1946 H 185.769 2.15008 -3.65442 0
M  V30 1947 C 184.228 2.53509 -2.2189 0
M  V30 1948 O 184.758 3.56863 -1.84422 0
M  V30 1949 N 182.964 2.23199 -1.86093 0
M  V30 1950 H 182.511 1.39185 -2.16761 0
M  V30 1951 H 182.469 2.87333 -1.27621 0
M  V30 1952 N 186.241 1.57166 -0.116904 0
M  V30 1953 C 187.518 1.86645 0.585049 0
M  V30 1954 C 187.898 1.0177 1.84949 0
M  V30 1955 O 187.246 0.0960379 2.28298 0
M  V30 1956 C 187.456 3.37736 0.879507 0
M  V30 1957 C 188.804 4.06289 1.23348 0
M  V30 1958 O 189.828 3.42743 0.969836 0
M  V30 1959 O 188.687 5.18455 1.7282 0
M  V30 1960 H 185.781 0.772593 0.295007 0
M  V30 1961 H 188.327 1.69025 -0.151249 0
M  V30 1962 H 187.099 3.91296 -0.0166136 0
M  V30 1963 H 186.722 3.6078 1.67103 0
M  V30 1964 N 187.719 -0.156864 1.56817 0
M  V30 1965 C 189.13 -0.717916 1.72345 0
M  V30 1966 C 189.481 -1.82124 0.729747 0
M  V30 1967 O 188.606 -2.16141 -0.105781 0
M  V30 1968 C 189.201 -1.30904 3.12489 0
M  V30 1969 C 187.76 -1.81676 3.29653 0
M  V30 1970 C 186.907 -0.701349 2.68284 0
M  V30 1971 H 189.858 0.0686989 1.58551 0
M  V30 1972 H 189.879 -2.17882 3.11942 0
M  V30 1973 H 189.391 -0.505796 3.8479 0
M  V30 1974 H 187.492 -2.64598 2.62333 0
M  V30 1975 H 187.605 -1.95226 4.3752 0
M  V30 1976 H 185.969 -1.12548 2.28484 0
M  V30 1977 H 186.752 0.0902846 3.43181 0
M  V30 1978 N 189.197 -1.51736 -0.425897 0
M  V30 1979 C 190.147 -1.70258 -1.51645 0
M  V30 1980 C 191.131 -0.556488 -1.5097 0
M  V30 1981 O 192.323 -0.812879 -1.5723 0
M  V30 1982 C 189.452 -1.84143 -2.89735 0
M  V30 1983 C 188.538 -3.04572 -2.95122 0
M  V30 1984 N 188.929 -4.2756 -2.70233 0
M  V30 1985 C 187.227 -3.04061 -3.26286 0
M  V30 1986 C 187.928 -5.08908 -2.81757 0
M  V30 1987 N 186.904 -4.43797 -3.13919 0
M  V30 1988 H 190.706 -2.63004 -1.31172 0
M  V30 1989 H 188.22 -1.4954 -0.633375 0
M  V30 1990 H 190.217 -1.95525 -3.68206 0
M  V30 1991 H 188.877 -0.925857 -3.1122 0
M  V30 1992 H 189.888 -4.56315 -2.44943 0
M  V30 1993 H 186.565 -2.22179 -3.53473 0
M  V30 1994 H 187.955 -6.16843 -2.66372 0
M  V30 1995 N 190.675 0.682077 -1.42076 0
M  V30 1996 C 191.923 1.4393 -1.41876 0
M  V30 1997 C 192.244 1.94971 -0.0335599 0
M  V30 1998 O 191.514 1.72591 0.926773 0
M  V30 1999 H 190.094 0.534085 -0.522267 0
M  V30 2000 H 192.756 0.806427 -1.77434 0
M  V30 2001 H 191.852 2.29588 -2.11414 0
M  V30 2002 N 192.153 1.28127 0.917671 0
M  V30 2003 C 193.378 1.18007 1.70555 0
M  V30 2004 C 193.803 -0.258257 1.86319 0
M  V30 2005 O 193.161 -1.1869 1.37049 0
M  V30 2006 C 193.209 1.87948 3.07746 0
M  V30 2007 O 192.313 1.18427 3.9503 0
M  V30 2008 H 191.654 0.409867 0.522403 0
M  V30 2009 H 194.184 1.69379 1.1477 0
M  V30 2010 H 194.194 1.95701 3.58001 0
M  V30 2011 H 192.869 2.92573 2.95591 0
M  V30 2012 H 191.446 1.18811 3.53466 0
M  V30 2013 N 193.631 -1.12557 1.10312 0
M  V30 2014 C 194.541 -2.21841 0.763142 0
M  V30 2015 C 195.557 -1.72354 -0.238801 0
M  V30 2016 O 196.733 -2.01249 -0.0778746 0
M  V30 2017 C 193.798 -3.46131 0.198632 0
M  V30 2018 C 192.859 -4.10464 1.25769 0
M  V30 2019 C 192.092 -5.28821 0.72002 0
M  V30 2020 O 192.315 -5.6859 -0.453993 0
M  V30 2021 O 191.249 -5.83437 1.47935 0
M  V30 2022 H 195.075 -2.53312 1.67532 0
M  V30 2023 H 192.66 -1.20867 0.878157 0
M  V30 2024 H 194.542 -4.2125 -0.112401 0
M  V30 2025 H 193.217 -3.16338 -0.686419 0
M  V30 2026 H 192.124 -3.3713 1.62156 0
M  V30 2027 H 193.457 -4.44408 2.11571 0
M  V30 2028 N 195.109 -0.891671 -1.2995 0
M  V30 2029 C 196.059 -0.334811 -2.25528 0
M  V30 2030 C 197.043 0.540553 -1.51548 0
M  V30 2031 O 198.235 0.383882 -1.72787 0
M  V30 2032 C 195.364 0.44374 -3.4042 0
M  V30 2033 C 194.45 -0.44609 -4.21747 0
M  V30 2034 N 194.841 -1.54963 -4.81477 0
M  V30 2035 C 193.139 -0.242415 -4.45341 0
M  V30 2036 C 193.84 -2.10015 -5.42465 0
M  V30 2037 N 192.816 -1.39423 -5.25416 0
M  V30 2038 H 196.618 -1.17792 -2.69262 0
M  V30 2039 H 194.132 -0.741822 -1.44467 0
M  V30 2040 H 196.129 0.859362 -4.07947 0
M  V30 2041 H 194.789 1.28421 -2.98225 0
M  V30 2042 H 195.8 -1.93244 -4.80497 0
M  V30 2043 H 192.477 0.560342 -4.13723 0
M  V30 2044 H 193.867 -3.02724 -5.9984 0
M  V30 2045 N 196.587 1.43421 -0.653314 0
M  V30 2046 C 197.815 2.06163 -0.174491 0
M  V30 2047 C 198.23 1.48969 1.1599 0
M  V30 2048 O 197.587 0.621042 1.71608 0
M  V30 2049 C 197.638 3.61417 -0.0774865 0
M  V30 2050 O 197.359 4.16485 -1.35912 0
M  V30 2051 C 198.86 4.41235 0.427402 0
M  V30 2052 H 196.08 0.664946 -0.0899353 0
M  V30 2053 H 198.624 1.83924 -0.893988 0
M  V30 2054 H 196.779 3.82841 0.59257 0
M  V30 2055 H 197.193 5.10153 -1.21839 0
M  V30 2056 H 198.667 5.5021 0.44423 0
M  V30 2057 H 199.144 4.14268 1.45873 0
M  V30 2058 H 199.75 4.2478 -0.210167 0
M  V30 2059 N 198.065 0.39524 1.52563 0
M  V30 2060 C 199.311 -0.185318 2.01952 0
M  V30 2061 C 199.644 -1.45964 1.28095 0
M  V30 2062 O 198.919 -1.90689 0.38315 0
M  V30 2063 C 199.202 -0.447193 3.57312 0
M  V30 2064 C 199.055 0.842828 4.41833 0
M  V30 2065 C 200.374 -1.23529 4.22408 0
M  V30 2066 H 197.493 -0.0658788 0.73405 0
M  V30 2067 H 200.135 0.525975 1.82575 0
M  V30 2068 H 198.285 -1.05312 3.73954 0
M  V30 2069 H 199.957 1.4795 4.36931 0
M  V30 2070 H 198.2 1.45686 4.08605 0
M  V30 2071 H 198.871 0.614165 5.48573 0
M  V30 2072 H 201.347 -0.722445 4.0978 0
M  V30 2073 H 200.223 -1.38727 5.3108 0
M  V30 2074 H 200.484 -2.25213 3.80436 0
M  V30 2075 N 199.544 -1.57102 0.125237 0
M  V30 2076 C 200.769 -2.0019 -0.542101 0
M  V30 2077 C 201.194 -1.00449 -1.59034 0
M  V30 2078 O 200.552 0.0229423 -1.81285 0
M  V30 2079 C 200.6 -3.42129 -1.13929 0
M  V30 2080 O 199.704 -3.45307 -2.2547 0
M  V30 2081 H 199.045 -0.650171 -0.134812 0
M  V30 2082 H 201.575 -2.03461 0.215553 0
M  V30 2083 H 201.585 -3.80471 -1.4733 0
M  V30 2084 H 200.26 -4.14237 -0.371531 0
M  V30 2085 H 198.837 -3.1879 -1.93462 0
M  V30 2086 N 201.022 0.148545 -1.56898 0
M  V30 2087 C 202.27 0.859717 -1.82902 0
M  V30 2088 C 202.591 1.81775 -0.70588 0
M  V30 2089 O 201.861 1.93994 0.272586 0
M  V30 2090 H 200.441 0.320469 -0.674766 0
M  V30 2091 H 203.103 0.142918 -1.94375 0
M  V30 2092 H 202.199 1.4229 -2.77777 0
M  V30 2093 N 202.5 1.5196 0.417844 0
M  V30 2094 C 203.432 1.70895 1.52733 0
M  V30 2095 C 204.445 0.589405 1.51756 0
M  V30 2096 O 205.634 0.864312 1.56179 0
M  V30 2097 C 202.734 1.72627 2.91639 0
M  V30 2098 C 201.907 3.01479 3.16905 0
M  V30 2099 C 200.966 2.95139 4.35637 0
M  V30 2100 O 199.992 3.69059 4.3334 0
M  V30 2101 N 201.194 2.12328 5.40275 0
M  V30 2102 H 203.959 2.66612 1.36888 0
M  V30 2103 H 201.52 1.50089 0.607037 0
M  V30 2104 H 203.512 1.65928 3.6912 0
M  V30 2105 H 202.082 0.844216 3.00985 0
M  V30 2106 H 201.302 3.21895 2.27546 0
M  V30 2107 H 202.59 3.86736 3.30625 0
M  V30 2108 H 201.988 1.51685 5.44985 0
M  V30 2109 H 200.545 2.11494 6.16534 0
M  V30 2110 N 203.978 -0.674533 1.42435 0
M  V30 2111 C 204.928 -1.7807 1.4239 0
M  V30 2112 C 205.912 -1.58169 0.295202 0
M  V30 2113 O 207.104 -1.68643 0.537449 0
M  V30 2114 C 204.233 -3.16532 1.32901 0
M  V30 2115 C 203.319 -3.42055 2.50717 0
M  V30 2116 N 203.71 -3.38162 3.76139 0
M  V30 2117 C 202.008 -3.72692 2.44983 0
M  V30 2118 C 202.709 -3.63177 4.54398 0
M  V30 2119 N 201.685 -3.83954 3.84812 0
M  V30 2120 H 205.487 -1.73454 2.37257 0
M  V30 2121 H 203.001 -0.875381 1.36788 0
M  V30 2122 H 204.998 -3.958 1.30951 0
M  V30 2123 H 203.658 -3.22345 0.390363 0
M  V30 2124 H 204.669 -3.18057 4.0873 0
M  V30 2125 H 201.346 -3.85749 1.59699 0
M  V30 2126 H 202.736 -3.66125 5.63384 0
M  V30 2127 N 205.456 -1.28612 -0.910864 0
M  V30 2128 C 206.703 -1.15934 -1.66029 0
M  V30 2129 C 207.031 0.291483 -1.92303 0
M  V30 2130 O 206.286 1.22816 -1.52364 0
M  V30 2131 C 206.585 -1.90624 -3.0232 0
M  V30 2132 C 206.251 -3.40405 -2.95695 0
M  V30 2133 C 204.913 -3.81255 -2.93595 0
M  V30 2134 C 207.265 -4.359 -2.85728 0
M  V30 2135 C 204.593 -5.15936 -2.79334 0
M  V30 2136 C 206.945 -5.70657 -2.73007 0
M  V30 2137 C 205.609 -6.10779 -2.69267 0
M  V30 2138 H 204.879 -0.424234 -0.607541 0
M  V30 2139 H 207.526 -1.5942 -1.06101 0
M  V30 2140 H 205.831 -1.39696 -3.6605 0
M  V30 2141 H 207.528 -1.78228 -3.59215 0
M  V30 2142 H 204.118 -3.07927 -2.98125 0
M  V30 2143 H 208.302 -4.053 -2.86436 0
M  V30 2144 H 203.558 -5.46146 -2.74835 0
M  V30 2145 H 207.732 -6.44311 -2.64264 0
M  V30 2146 H 205.359 -7.1509 -2.57974 0
M  V30 2147 N 206.934 1.1197 -1.10907 0
M  V30 2148 C 207.897 2.16031 -0.765707 0
M  V30 2149 C 208.897 1.59393 0.212235 0
M  V30 2150 O 210.087 1.74196 -0.0115441 0
M  V30 2151 C 207.219 3.40632 -0.135053 0
M  V30 2152 H 208.412 2.47919 -1.68748 0
M  V30 2153 H 205.965 1.27061 -0.910226 0
M  V30 2154 H 206.7 3.14348 0.797218 0
M  V30 2155 H 206.485 3.8302 -0.838937 0
M  V30 2156 H 207.975 4.17505 0.0892469 0
M  V30 2157 N 208.412 0.89855 1.29475 0
M  V30 2158 C 209.375 0.380272 2.26023 0
M  V30 2159 C 210.375 -0.484891 1.53315 0
M  V30 2160 O 211.565 -0.290108 1.71767 0
M  V30 2161 C 208.697 -0.45651 3.3783 0
M  V30 2162 H 209.89 1.23295 2.73383 0
M  V30 2163 H 207.443 0.676589 1.40897 0
M  V30 2164 H 208.178 -1.32922 2.95808 0
M  V30 2165 H 207.963 0.163393 3.91759 0
M  V30 2166 H 209.453 -0.810466 4.0966 0
M  V30 2167 N 209.89 -1.43072 0.660911 0
M  V30 2168 C 210.8 -2.34585 -0.0264163 0
M  V30 2169 C 211.816 -1.54316 -0.803898 0
M  V30 2170 O 212.992 -1.86939 -0.749391 0
M  V30 2171 C 210.057 -3.32689 -0.975639 0
M  V30 2172 C 209.118 -4.2886 -0.194236 0
M  V30 2173 C 208.351 -5.22278 -1.09825 0
M  V30 2174 O 208.574 -5.20299 -2.33763 0
M  V30 2175 O 207.508 -5.99228 -0.566513 0
M  V30 2176 H 211.334 -2.94869 0.727034 0
M  V30 2177 H 208.919 -1.43342 0.42111 0
M  V30 2178 H 210.801 -3.92995 -1.52094 0
M  V30 2179 H 209.476 -2.74898 -1.70918 0
M  V30 2180 H 208.383 -3.72011 0.394835 0
M  V30 2181 H 209.716 -4.89655 0.499899 0
M  V30 2182 N 211.368 -0.403325 -1.52352 0
M  V30 2183 C 212.298 0.416205 -2.29761 0
M  V30 2184 C 213.279 1.05123 -1.33728 0
M  V30 2185 O 214.464 1.06134 -1.62632 0
M  V30 2186 C 211.594 1.53624 -3.11475 0
M  V30 2187 C 210.548 1.02653 -4.15507 0
M  V30 2188 C 209.874 2.23971 -4.85532 0
M  V30 2189 C 211.174 0.08463 -5.22231 0
M  V30 2190 H 212.868 -0.229701 -2.98518 0
M  V30 2191 H 210.414 -0.111913 -1.43564 0
M  V30 2192 H 212.367 2.1165 -3.64393 0
M  V30 2193 H 211.091 2.20994 -2.40477 0
M  V30 2194 H 209.75 0.46871 -3.63591 0
M  V30 2195 H 209.398 2.89883 -4.11068 0
M  V30 2196 H 209.098 1.90521 -5.55856 0
M  V30 2197 H 210.622 2.82614 -5.41259 0
M  V30 2198 H 212.036 0.573509 -5.70424 0
M  V30 2199 H 210.433 -0.160783 -5.99885 0
M  V30 2200 H 211.503 -0.86237 -4.7717 0
M  V30 2201 N 212.846 1.57033 -0.133567 0
M  V30 2202 C 213.796 2.12641 0.822671 0
M  V30 2203 C 214.78 1.05081 1.21847 0
M  V30 2204 O 215.972 1.31287 1.18713 0
M  V30 2205 C 213.101 2.74094 2.06706 0
M  V30 2206 C 212.187 3.88757 1.69497 0
M  V30 2207 N 212.578 4.95194 1.03037 0
M  V30 2208 C 210.876 3.99213 1.98859 0
M  V30 2209 C 211.577 5.75414 0.852873 0
M  V30 2210 N 210.553 5.25726 1.3825 0
M  V30 2211 H 214.355 2.92308 0.305537 0
M  V30 2212 H 211.869 1.62256 0.0684276 0
M  V30 2213 H 213.866 3.12285 2.76195 0
M  V30 2214 H 212.526 1.95896 2.5895 0
M  V30 2215 H 213.537 5.13247 0.692669 0
M  V30 2216 H 210.214 3.32075 2.53047 0
M  V30 2217 H 211.604 6.71089 0.330091 0
M  V30 2218 N 214.325 -0.140222 1.56975 0
M  V30 2219 C 215.574 -0.850152 1.82908 0
M  V30 2220 C 215.887 -1.82028 0.715892 0
M  V30 2221 O 217.093 -2.57485 0.861016 0
M  V30 2222 C 215.549 -1.5625 3.24213 0
M  V30 2223 C 215.157 -0.63443 4.43485 0
M  V30 2224 C 216.901 -2.25881 3.59413 0
M  V30 2225 C 214.808 -1.34879 5.75814 0
M  V30 2226 H 213.738 -0.321221 0.682153 0
M  V30 2227 H 216.389 -0.102874 1.83211 0
M  V30 2228 H 214.771 -2.35565 3.18316 0
M  V30 2229 H 215.945 0.12398 4.60633 0
M  V30 2230 H 214.26 -0.0461836 4.16374 0
M  V30 2231 H 216.857 -2.79978 4.5554 0
M  V30 2232 H 217.2 -3.02693 2.85802 0
M  V30 2233 H 217.733 -1.53477 3.67001 0
M  V30 2234 H 214.472 -0.622385 6.52539 0
M  V30 2235 H 213.992 -2.07974 5.6259 0
M  V30 2236 H 215.671 -1.88784 6.18845 0
M  V30 2237 N 215.803 -1.52179 -0.40978 0
M  V30 2238 C 217.049 -1.66453 -1.15851 0
M  V30 2239 C 217.382 -0.392972 -1.90182 0
M  V30 2240 O 216.657 0.608579 -1.84734 0
M  V30 2241 C 216.94 -2.88612 -2.15349 0
M  V30 2242 C 216.793 -4.25815 -1.44918 0
M  V30 2243 C 218.112 -3.06294 -3.16026 0
M  V30 2244 H 215.231 -0.60575 -0.419805 0
M  V30 2245 H 217.873 -1.84732 -0.444314 0
M  V30 2246 H 216.023 -2.73158 -2.76255 0
M  V30 2247 H 217.695 -4.52995 -0.871365 0
M  V30 2248 H 215.938 -4.27247 -0.751159 0
M  V30 2249 H 216.609 -5.07337 -2.17516 0
M  V30 2250 H 219.085 -3.20641 -2.65195 0
M  V30 2251 H 217.961 -3.93283 -3.8291 0
M  V30 2252 H 218.222 -2.19579 -3.83715 0
M  V30 2253 N 217.281 0.66697 -1.42791 0
M  V30 2254 C 218.231 1.77313 -1.43332 0
M  V30 2255 C 219.215 1.5801 -0.303586 0
M  V30 2256 O 220.407 1.68356 -0.546385 0
M  V30 2257 C 217.536 3.15822 -1.34578 0
M  V30 2258 C 216.622 3.40721 -2.52528 0
M  V30 2259 N 217.013 3.36162 -3.77927 0
M  V30 2260 C 215.311 3.71387 -2.46956 0
M  V30 2261 C 216.012 3.60762 -4.56318 0
M  V30 2262 N 214.988 3.81908 -3.86843 0
M  V30 2263 H 218.79 1.72193 -2.38174 0
M  V30 2264 H 216.304 0.868114 -1.3725 0
M  V30 2265 H 218.301 3.951 -1.33048 0
M  V30 2266 H 216.961 3.22133 -0.407453 0
M  V30 2267 H 217.972 3.15885 -4.10411 0
M  V30 2268 H 214.649 3.84897 -1.61743 0
M  V30 2269 H 216.039 3.63132 -5.65318 0
M  V30 2270 N 218.759 1.29093 0.90403 0
M  V30 2271 C 219.989 1.19516 1.68522 0
M  V30 2272 C 220.397 -0.24738 1.87576 0
M  V30 2273 O 219.74 -1.17798 1.40959 0
M  V30 2274 C 219.802 1.83249 3.0929 0
M  V30 2275 C 219.466 3.32531 3.13484 0
M  V30 2276 C 220.463 4.28821 2.93953 0
M  V30 2277 C 218.148 3.73656 3.35688 0
M  V30 2278 C 220.142 5.64212 2.96553 0
M  V30 2279 C 217.829 5.0917 3.37919 0
M  V30 2280 C 218.827 6.04258 3.18373 0
M  V30 2281 O 218.515 7.37298 3.20385 0
M  V30 2282 H 218.247 0.415467 0.533257 0
M  V30 2283 H 220.801 1.70912 1.13922 0
M  V30 2284 H 219.031 1.26358 3.65473 0
M  V30 2285 H 220.72 1.68054 3.69476 0
M  V30 2286 H 221.486 3.98382 2.76616 0
M  V30 2287 H 217.365 3.00101 3.49943 0
M  V30 2288 H 220.909 6.38407 2.81216 0
M  V30 2289 H 216.806 5.39256 3.54787 0
M  V30 2290 H 217.574 7.46048 3.36681 0
M  V30 2291 N 220.237 -1.11381 1.11499 0
M  V30 2292 C 221.185 -2.19522 0.768956 0
M  V30 2293 C 222.179 -1.67693 -0.239857 0
M  V30 2294 O 223.385 -1.79727 -0.0990755 0
M  V30 2295 H 219.76 -0.715711 0.230786 0
M  V30 2296 H 221.731 -2.45954 1.68964 0
M  V30 2297 C 220.48 -3.46945 0.229073 0
M  V30 2298 H 219.803 -3.8718 0.996596 0
M  V30 2299 H 221.243 -4.23993 0.0251441 0
M  V30 2300 C 219.702 -3.2042 -1.04079 0
M  V30 2301 O 220.232 -3.41178 -2.12038 0
M  V30 2302 N 218.438 -2.74151 -0.963823 0
M  V30 2303 H 217.985 -2.57459 -0.0851722 0
M  V30 2304 H 217.943 -2.56781 -1.81414 0
M  V30 2305 N 221.715 -0.905404 -1.28997 0
M  V30 2306 C 222.94 -0.549175 -1.99997 0
M  V30 2307 C 223.365 0.860276 -1.67275 0
M  V30 2308 O 222.723 1.57355 -0.900502 0
M  V30 2309 C 222.771 -0.755185 -3.52604 0
M  V30 2310 O 221.875 0.189692 -4.11964 0
M  V30 2311 H 221.216 -0.213899 -0.628604 0
M  V30 2312 H 223.746 -1.21856 -1.64354 0
M  V30 2313 H 223.756 -0.662045 -4.02593 0
M  V30 2314 H 222.431 -1.78271 -3.75755 0
M  V30 2315 H 221.008 0.0485257 -3.72868 0
M  V30 2316 N 223.193 1.4272 -0.668489 0
M  V30 2317 C 224.47 1.95248 -0.117373 0
M  V30 2318 C 224.85 1.60919 1.36632 0
M  V30 2319 O 224.198 0.902095 2.09939 0
M  V30 2320 C 224.408 3.46927 -0.379806 0
M  V30 2321 C 225.756 4.23588 -0.292923 0
M  V30 2322 O 226.78 3.5482 -0.313204 0
M  V30 2323 O 225.639 5.46017 -0.229697 0
M  V30 2324 H 222.733 0.827 0.00079152 0
M  V30 2325 H 225.279 1.52581 -0.742783 0
M  V30 2326 H 224.051 3.65096 -1.40786 0
M  V30 2327 H 223.674 3.96627 0.277923 0
M  V30 2328 N 224.671 0.411399 1.52136 0
M  V30 2329 C 225.601 -0.404015 2.29978 0
M  V30 2330 C 226.582 -1.04412 1.34284 0
M  V30 2331 O 227.767 -1.0527 1.63192 0
M  V30 2332 C 224.897 -1.5197 3.12286 0
M  V30 2333 C 223.851 -1.00448 4.16046 0
M  V30 2334 C 223.177 -2.21393 4.86712 0
M  V30 2335 C 224.477 -0.0569336 5.22269 0
M  V30 2336 H 226.171 0.245529 2.98392 0
M  V30 2337 H 223.717 0.119525 1.43503 0
M  V30 2338 H 225.67 -2.09715 3.6551 0
M  V30 2339 H 224.394 -2.19716 2.41646 0
M  V30 2340 H 223.053 -0.449421 3.63835 0
M  V30 2341 H 222.701 -2.87699 4.12599 0
M  V30 2342 H 222.401 -1.87571 5.56858 0
M  V30 2343 H 223.925 -2.7974 5.4275 0
M  V30 2344 H 225.339 -0.54325 5.7072 0
M  V30 2345 H 223.736 0.192594 5.99791 0
M  V30 2346 H 224.806 0.887663 4.76706 0
M  V30 2347 N 226.149 -1.5696 0.141893 0
M  V30 2348 C 227.379 -2.00031 -0.516828 0
M  V30 2349 C 227.787 -1.02091 -1.59293 0
M  V30 2350 O 227.13 -0.00909657 -1.83698 0
M  V30 2351 C 227.192 -3.39534 -1.1814 0
M  V30 2352 C 226.856 -4.56313 -0.250513 0
M  V30 2353 C 227.853 -5.17295 0.519839 0
M  V30 2354 C 225.538 -5.02061 -0.154907 0
M  V30 2355 C 227.532 -6.2243 1.3733 0
M  V30 2356 C 225.219 -6.07053 0.702161 0
M  V30 2357 C 226.217 -6.67106 1.46487 0
M  V30 2358 O 225.905 -7.70066 2.30767 0
M  V30 2359 H 225.637 -0.661451 -0.139493 0
M  V30 2360 H 228.191 -2.04086 0.231926 0
M  V30 2361 H 226.421 -3.32302 -1.97769 0
M  V30 2362 H 228.11 -3.66745 -1.73933 0
M  V30 2363 H 228.876 -4.82852 0.45598 0
M  V30 2364 H 224.755 -4.5505 -0.7383 0
M  V30 2365 H 228.299 -6.69233 1.96909 0
M  V30 2366 H 224.196 -6.40923 0.76733 0
M  V30 2367 H 224.964 -7.87264 2.23959 0
M  V30 2368 N 227.627 0.131896 -1.57047 0
M  V30 2369 C 229.038 0.690407 -1.73465 0
M  V30 2370 C 229.389 1.8094 -0.758629 0
M  V30 2371 O 228.514 2.16282 0.0713813 0
M  V30 2372 C 229.109 1.25916 -3.14532 0
M  V30 2373 C 227.668 1.76409 -3.32501 0
M  V30 2374 C 226.815 0.658579 -2.69366 0
M  V30 2375 H 229.766 -0.0939144 -1.58422 0
M  V30 2376 H 229.787 2.12892 -3.15369 0
M  V30 2377 H 229.299 0.444515 -3.85546 0
M  V30 2378 H 227.4 2.60391 -2.66509 0
M  V30 2379 H 227.513 1.88241 -4.4057 0
M  V30 2380 H 225.877 1.08899 -2.30246 0
M  V30 2381 H 226.66 -0.14487 -3.42994 0
M  V30 2382 N 229.106 1.52395 0.401703 0
M  V30 2383 C 230.383 1.57387 1.16141 0
M  V30 2384 C 230.763 0.359359 2.08019 0
M  V30 2385 O 230.111 -0.65326 2.18963 0
M  V30 2386 C 230.321 2.90631 1.93221 0
M  V30 2387 C 231.669 3.43904 2.49028 0
M  V30 2388 O 232.693 2.92421 2.03393 0
M  V30 2389 O 231.552 4.33823 3.32356 0
M  V30 2390 H 228.646 0.634262 0.530698 0
M  V30 2391 H 231.192 1.64725 0.407883 0
M  V30 2392 H 229.964 3.70473 1.25958 0
M  V30 2393 H 229.587 2.8662 2.75563 0
M  V30 2394 N 230.584 -0.659388 1.43143 0
M  V30 2395 C 231.547 -1.75432 1.47501 0
M  V30 2396 C 232.547 -1.56707 0.360512 0
M  V30 2397 O 233.737 -1.62717 0.622002 0
M  V30 2398 C 230.869 -3.14239 1.32162 0
M  V30 2399 H 232.062 -1.7295 2.45006 0
M  V30 2400 H 229.615 -0.870469 1.29817 0
M  V30 2401 H 230.35 -3.22336 0.356401 0
M  V30 2402 H 230.135 -3.29235 2.12948 0
M  V30 2403 H 231.625 -3.94094 1.3813 0
M  V30 2404 N 232.062 -1.29571 -0.897171 0
M  V30 2405 C 233.287 -1.20705 -1.68656 0
M  V30 2406 C 233.712 0.228582 -1.86706 0
M  V30 2407 O 233.07 1.16494 -1.3892 0
M  V30 2408 C 233.118 -1.9282 -3.04717 0
M  V30 2409 O 232.222 -1.24697 -3.93096 0
M  V30 2410 H 231.563 -0.418126 -0.515816 0
M  V30 2411 H 234.093 -1.71183 -1.12061 0
M  V30 2412 H 234.103 -2.01372 -3.54843 0
M  V30 2413 H 232.778 -2.97239 -2.90899 0
M  V30 2414 H 231.355 -1.2442 -3.51531 0
M  V30 2415 N 233.54 1.10788 -1.12088 0
M  V30 2416 C 234.768 1.86461 -0.896651 0
M  V30 2417 C 235.183 1.80492 0.553912 0
M  V30 2418 O 234.54 1.19102 1.38278 0
M  V30 2419 C 234.591 3.35006 -1.35843 0
M  V30 2420 O 234.312 3.40866 -2.75213 0
M  V30 2421 C 235.813 4.27565 -1.1706 0
M  V30 2422 H 233.033 0.589425 -0.320654 0
M  V30 2423 H 235.577 1.40076 -1.48993 0
M  V30 2424 H 233.732 3.7887 -0.808458 0
M  V30 2425 H 234.146 4.33411 -2.9539 0
M  V30 2426 H 235.62 5.30007 -1.54263 0
M  V30 2427 H 236.097 4.3906 -0.110814 0
M  V30 2428 H 236.703 3.89501 -1.70789 0
M  V30 2429 N 235.018 0.912232 1.28515 0
M  V30 2430 C 235.981 0.404223 2.25607 0
M  V30 2431 C 236.981 -0.468602 1.53821 0
M  V30 2432 O 238.171 -0.271873 1.72065 0
M  V30 2433 C 235.303 -0.420653 3.38295 0
M  V30 2434 H 236.496 1.26188 2.7206 0
M  V30 2435 H 234.049 0.691495 1.40171 0
M  V30 2436 H 234.784 -1.29777 2.97201 0
M  V30 2437 H 234.569 0.204935 3.91564 0
M  V30 2438 H 236.059 -0.766971 4.10496 0
M  V30 2439 N 236.496 -1.42363 0.676048 0
M  V30 2440 C 237.721 -2.06377 0.205705 0
M  V30 2441 C 238.146 -1.50463 -1.12883 0
M  V30 2442 O 237.504 -0.623619 -1.70237 0
M  V30 2443 C 237.552 -3.60277 0.152655 0
M  V30 2444 O 236.656 -4.02935 -0.87845 0
M  V30 2445 H 235.997 -0.655588 0.105359 0
M  V30 2446 H 238.527 -1.82475 0.925412 0
M  V30 2447 H 238.537 -4.07993 -0.0230675 0
M  V30 2448 H 237.212 -4.00346 1.12675 0
M  V30 2449 H 235.789 -3.66764 -0.673668 0
M  V30 2450 N 237.974 -0.419461 -1.51915 0
M  V30 2451 C 238.922 0.415502 -2.28859 0
M  V30 2452 C 239.916 1.03674 -1.3397 0
M  V30 2453 O 241.122 0.973757 -1.51387 0
M  V30 2454 H 237.497 0.152786 -0.736315 0
M  V30 2455 H 239.468 -0.254531 -2.97312 0
M  V30 2456 C 238.217 1.51425 -3.12995 0
M  V30 2457 H 237.54 1.04556 -3.85886 0
M  V30 2458 H 238.98 2.07208 -3.6992 0
M  V30 2459 C 237.439 2.48745 -2.27217 0
M  V30 2460 O 237.969 3.52871 -1.9195 0
M  V30 2461 N 236.175 2.19202 -1.90785 0
M  V30 2462 H 235.722 1.34556 -2.19664 0
M  V30 2463 H 235.68 2.84561 -1.33687 0
M  V30 2464 N 239.452 1.56882 -0.150215 0
M  V30 2465 C 240.399 2.16922 0.788244 0
M  V30 2466 C 241.369 1.10303 1.24187 0
M  V30 2467 O 242.554 1.38359 1.31383 0
M  V30 2468 C 239.694 2.79754 2.02068 0
M  V30 2469 C 238.807 4.00775 1.61257 0
M  V30 2470 C 237.942 4.51595 2.79705 0
M  V30 2471 C 236.981 5.65074 2.35282 0
M  V30 2472 N 236.118 6.10499 3.4675 0
M  V30 2473 H 240.958 2.96779 0.269444 0
M  V30 2474 H 238.495 1.46599 0.12128 0
M  V30 2475 H 240.453 3.14329 2.74323 0
M  V30 2476 H 239.083 2.02536 2.51354 0
M  V30 2477 H 238.135 3.72158 0.787553 0
M  V30 2478 H 239.447 4.82978 1.24633 0
M  V30 2479 H 238.601 4.88242 3.60145 0
M  V30 2480 H 237.34 3.68406 3.19576 0
M  V30 2481 H 236.345 5.28 1.53283 0
M  V30 2482 H 237.57 6.50052 1.96493 0
M  V30 2483 H 235.516 5.30243 3.86236 0
M  V30 2484 H 235.433 6.87637 3.14152 0
M  V30 2485 H 236.701 6.51791 4.27537 0
M  V30 2486 N 240.93 -0.123565 1.57115 0
M  V30 2487 C 242.155 -0.850398 1.89164 0
M  V30 2488 C 242.58 -1.7286 0.741688 0
M  V30 2489 O 241.938 -1.78665 -0.307958 0
M  V30 2490 C 241.986 -1.66353 3.19936 0
M  V30 2491 O 241.09 -2.77004 3.0552 0
M  V30 2492 H 240.431 -0.235454 0.620852 0
M  V30 2493 H 242.961 -0.107335 2.04318 0
M  V30 2494 H 242.971 -2.05372 3.52543 0
M  V30 2495 H 241.646 -1.01881 4.03228 0
M  V30 2496 H 240.223 -2.41221 2.84371 0
M  V30 2497 N 242.408 -1.52605 -0.393616 0
M  V30 2498 C 243.318 -1.79971 -1.50492 0
M  V30 2499 C 244.334 -0.686181 -1.59899 0
M  V30 2500 O 245.51 -0.973274 -1.76322 0
M  V30 2501 C 242.575 -1.95867 -2.86072 0
M  V30 2502 C 241.636 -3.19781 -2.86424 0
M  V30 2503 C 240.869 -3.34909 -4.15538 0
M  V30 2504 O 241.092 -2.54948 -5.10253 0
M  V30 2505 O 240.026 -4.28141 -4.23059 0
M  V30 2506 H 243.852 -2.74328 -1.30299 0
M  V30 2507 H 241.437 -1.3764 -0.581005 0
M  V30 2508 H 243.319 -2.08056 -3.66457 0
M  V30 2509 H 241.994 -1.04699 -3.063 0
M  V30 2510 H 240.901 -3.13038 -2.04837 0
M  V30 2511 H 242.234 -4.1078 -2.71147 0
M  V30 2512 N 243.887 0.651787 -1.4349 0
M  V30 2513 C 245.135 1.40888 -1.44897 0
M  V30 2514 C 245.456 1.94856 -0.0749086 0
M  V30 2515 O 244.726 1.74518 0.889956 0
M  V30 2516 H 243.306 0.522887 -0.533478 0
M  V30 2517 H 245.968 0.768609 -1.79104 0
M  V30 2518 H 245.064 2.25052 -2.16236 0
M  V30 2519 N 245.365 1.30045 0.890287 0
M  V30 2520 C 246.295 1.18541 2.01172 0
M  V30 2521 C 247.276 0.0773356 1.69924 0
M  V30 2522 O 248.461 0.25845 1.92473 0
M  V30 2523 C 245.591 0.870941 3.36202 0
M  V30 2524 C 244.545 1.93637 3.81692 0
M  V30 2525 C 243.871 1.475 5.13953 0
M  V30 2526 C 245.171 3.34666 4.00994 0
M  V30 2527 H 246.865 2.12359 2.11054 0
M  V30 2528 H 244.411 1.02238 1.01407 0
M  V30 2529 H 246.364 0.777141 4.14172 0
M  V30 2530 H 245.088 -0.102926 3.26438 0
M  V30 2531 H 243.747 2.01972 3.05946 0
M  V30 2532 H 243.395 0.489551 5.00612 0
M  V30 2533 H 243.095 2.1876 5.4536 0
M  V30 2534 H 244.619 1.39489 5.94454 0
M  V30 2535 H 246.033 3.2912 4.69417 0
M  V30 2536 H 244.43 4.03966 4.43769 0
M  V30 2537 H 245.5 3.76949 3.05021 0
M  V30 2538 N 246.843 -1.10192 1.12674 0
M  V30 2539 C 247.806 -2.14786 0.799979 0
M  V30 2540 C 248.806 -1.59711 -0.18685 0
M  V30 2541 O 249.996 -1.74156 0.0392558 0
M  V30 2542 C 247.128 -3.40374 0.189228 0
M  V30 2543 H 248.321 -2.45203 1.72671 0
M  V30 2544 H 245.874 -1.25597 0.930326 0
M  V30 2545 H 246.609 -3.15577 -0.747107 0
M  V30 2546 H 246.394 -3.81637 0.899766 0
M  V30 2547 H 247.884 -4.17594 -0.0228143 0
M  V30 2548 N 248.321 -0.919034 -1.28029 0
M  V30 2549 C 249.567 -0.555757 -1.95036 0
M  V30 2550 C 249.9 0.899198 -1.72128 0
M  V30 2551 O 249.175 1.64023 -1.04531 0
M  V30 2552 C 249.458 -0.872024 -3.49382 0
M  V30 2553 C 249.311 -2.3801 -3.81669 0
M  V30 2554 C 250.63 -0.37185 -4.38526 0
M  V30 2555 H 247.749 -0.203386 -0.708381 0
M  V30 2556 H 250.391 -1.14924 -1.51303 0
M  V30 2557 H 248.541 -0.366946 -3.86763 0
M  V30 2558 H 250.213 -2.9562 -3.54128 0
M  V30 2559 H 248.456 -2.83289 -3.28526 0
M  V30 2560 H 249.127 -2.55192 -4.8947 0
M  V30 2561 H 251.603 -0.804602 -4.08247 0
M  V30 2562 H 250.479 -0.622173 -5.45362 0
M  V30 2563 H 250.74 0.727934 -4.36066 0
M  V30 2564 N 249.799 1.42003 -0.683588 0
M  V30 2565 C 250.729 2.33487 -0.024866 0
M  V30 2566 C 251.71 1.51163 0.779975 0
M  V30 2567 O 252.895 1.79739 0.735362 0
M  V30 2568 C 250.025 3.3487 0.920836 0
M  V30 2569 C 248.979 4.27414 0.223958 0
M  V30 2570 C 248.305 5.19074 1.2832 0
M  V30 2571 C 249.605 5.14445 -0.90242 0
M  V30 2572 H 251.299 2.88819 -0.788921 0
M  V30 2573 H 248.845 1.38873 -0.38083 0
M  V30 2574 H 250.798 3.97787 1.39081 0
M  V30 2575 H 249.522 2.77861 1.71642 0
M  V30 2576 H 248.181 3.65904 -0.225864 0
M  V30 2577 H 247.829 4.58387 2.071 0
M  V30 2578 H 247.529 5.81822 0.821995 0
M  V30 2579 H 249.053 5.84867 1.75392 0
M  V30 2580 H 250.467 5.70998 -0.513272 0
M  V30 2581 H 248.864 5.86072 -1.28997 0
M  V30 2582 H 249.934 4.52322 -1.74737 0
M  V30 2583 N 251.277 0.427512 1.51691 0
M  V30 2584 C 252.24 -0.377132 2.26076 0
M  V30 2585 C 253.24 -0.958089 1.29141 0
M  V30 2586 O 254.43 -0.83408 1.52934 0
M  V30 2587 C 251.562 -1.53262 3.04506 0
M  V30 2588 H 252.755 0.27464 2.9864 0
M  V30 2589 H 250.308 0.180445 1.55255 0
M  V30 2590 H 251.043 -2.22072 2.36335 0
M  V30 2591 H 250.828 -1.12232 3.75694 0
M  V30 2592 H 252.318 -2.10135 3.60878 0
M  V30 2593 N 252.755 -1.56801 0.158532 0
M  V30 2594 C 254.001 -1.96781 -0.490405 0
M  V30 2595 C 254.334 -1.04397 -1.63753 0
M  V30 2596 O 253.609 -0.0885805 -1.94298 0
M  V30 2597 C 253.892 -3.4635 -0.985594 0
M  V30 2598 C 253.745 -4.49512 0.160824 0
M  V30 2599 C 255.064 -3.98697 -1.86355 0
M  V30 2600 H 252.183 -0.715482 -0.176788 0
M  V30 2601 H 254.825 -1.88451 0.242088 0
M  V30 2602 H 252.975 -3.53579 -1.60978 0
M  V30 2603 H 254.647 -4.54353 0.797537 0
M  V30 2604 H 252.89 -4.26013 0.818256 0
M  V30 2605 H 253.561 -5.51531 -0.227569 0
M  V30 2606 H 256.037 -3.94019 -1.33746 0
M  V30 2607 H 254.913 -5.03792 -2.17909 0
M  V30 2608 H 255.174 -3.41744 -2.8047 0
M  V30 2609 N 254.233 0.115231 -1.57178 0
M  V30 2610 C 255.163 1.1423 -2.03651 0
M  V30 2611 C 256.144 1.42967 -0.921655 0
M  V30 2612 O 257.329 1.53343 -1.19162 0
M  V30 2613 C 254.459 2.4675 -2.44401 0
M  V30 2614 C 253.413 2.32467 -3.59365 0
M  V30 2615 C 252.739 3.69984 -3.86026 0
M  V30 2616 C 254.039 1.78203 -4.90959 0
M  V30 2617 H 255.733 0.755749 -2.89705 0
M  V30 2618 H 253.279 0.362093 -1.39373 0
M  V30 2619 H 255.232 3.18854 -2.75517 0
M  V30 2620 H 253.956 2.87302 -1.55322 0
M  V30 2621 H 252.615 1.62811 -3.28463 0
M  V30 2622 H 252.263 4.08028 -2.94147 0
M  V30 2623 H 251.963 3.61279 -4.63412 0
M  V30 2624 H 253.487 4.43587 -4.19599 0
M  V30 2625 H 254.901 2.40128 -5.20587 0
M  V30 2626 H 253.298 1.8031 -5.72371 0
M  V30 2627 H 254.368 0.739876 -4.79222 0
M  V30 2628 N 255.711 1.52812 0.385517 0
M  V30 2629 C 256.96 1.67249 1.12741 0
M  V30 2630 C 257.273 0.4205 1.91027 0
M  V30 2631 O 258.479 0.445064 2.67827 0
M  V30 2632 C 256.935 2.95583 2.05326 0
M  V30 2633 C 256.543 4.27974 1.32447 0
M  V30 2634 C 258.287 3.19386 2.7963 0
M  V30 2635 C 256.194 5.47412 2.23818 0
M  V30 2636 H 255.124 0.6231 0.424573 0
M  V30 2637 H 257.775 1.79309 0.389924 0
M  V30 2638 H 256.157 2.77277 2.82725 0
M  V30 2639 H 257.331 4.56844 0.602495 0
M  V30 2640 H 255.646 4.10459 0.700885 0
M  V30 2641 H 258.243 4.05801 3.48181 0
M  V30 2642 H 258.586 2.34604 3.43899 0
M  V30 2643 H 259.119 3.38274 2.09322 0
M  V30 2644 H 255.858 6.34612 1.64157 0
M  V30 2645 H 255.378 5.22849 2.93921 0
M  V30 2646 H 257.057 5.81423 2.83824 0
M  V30 2647 N 257.189 -0.644168 1.43834 0
M  V30 2648 C 258.099 -1.78563 1.52159 0
M  V30 2649 C 259.115 -1.69147 0.408069 0
M  V30 2650 O 260.291 -1.90156 0.663524 0
M  V30 2651 C 257.356 -3.14888 1.45073 0
M  V30 2652 C 256.417 -3.36034 2.6717 0
M  V30 2653 C 255.65 -4.65855 2.60413 0
M  V30 2654 O 255.873 -5.45805 1.65689 0
M  V30 2655 O 254.807 -4.88918 3.5106 0
M  V30 2656 H 258.633 -1.74494 2.48567 0
M  V30 2657 H 256.218 -0.80378 1.25935 0
M  V30 2658 H 258.1 -3.96179 1.43597 0
M  V30 2659 H 256.775 -3.19528 0.518037 0
M  V30 2660 H 255.682 -2.54472 2.74217 0
M  V30 2661 H 257.015 -3.36247 3.59442 0
M  V30 2662 N 258.668 -1.30515 -0.883378 0
M  V30 2663 C 259.601 -1.11359 -1.99184 0
M  V30 2664 C 260.579 -0.0207858 -1.62587 0
M  V30 2665 O 261.763 -0.174646 -1.87689 0
M  V30 2666 C 258.89 -0.69871 -3.31415 0
M  V30 2667 C 257.936 -1.79261 -3.86998 0
M  V30 2668 S 258.769 -3.39536 -4.14096 0
M  V30 2669 C 259.925 -2.99954 -5.49344 0
M  V30 2670 H 260.158 -2.052 -2.15128 0
M  V30 2671 H 257.691 -1.14847 -1.03196 0
M  V30 2672 H 259.649 -0.466075 -4.07846 0
M  V30 2673 H 258.31 0.220368 -3.13326 0
M  V30 2674 H 257.503 -1.45464 -4.82552 0
M  V30 2675 H 257.105 -1.97961 -3.17313 0
M  V30 2676 H 259.397 -2.48013 -6.30473 0
M  V30 2677 H 260.34 -3.9442 -5.8808 0
M  V30 2678 H 260.748 -2.37775 -5.1198 0
M  V30 2679 N 260.146 1.09593 -1.13257 0
M  V30 2680 C 261.394 1.81375 -0.891492 0
M  V30 2681 C 261.715 1.86049 0.584009 0
M  V30 2682 O 260.985 1.34481 1.42449 0
M  V30 2683 H 259.565 0.671708 -0.326828 0
M  V30 2684 H 262.227 1.3256 -1.42877 0
M  V30 2685 H 261.323 2.84612 -1.28071 0
M  V30 2686 N 261.624 0.925811 1.2754 0
M  V30 2687 C 262.849 0.580924 1.99098 0
M  V30 2688 C 263.274 -0.833555 1.68622 0
M  V30 2689 O 262.632 -1.55903 0.925422 0
M  V30 2690 C 262.68 0.811186 3.51358 0
M  V30 2691 O 261.784 -0.124129 4.12213 0
M  V30 2692 H 261.125 0.223873 0.625122 0
M  V30 2693 H 263.655 1.24455 1.62395 0
M  V30 2694 H 263.665 0.72601 4.01489 0
M  V30 2695 H 262.34 1.84227 3.72872 0
M  V30 2696 H 260.917 0.0108006 3.72898 0
M  V30 2697 N 263.102 -1.41638 0.69111 0
M  V30 2698 C 264.349 -2.01299 0.220193 0
M  V30 2699 C 264.677 -1.54715 -1.17871 0
M  V30 2700 O 263.932 -0.747193 -1.80874 0
M  V30 2701 C 264.231 -3.56714 0.221277 0
M  V30 2702 C 263.897 -4.22792 1.56709 0
M  V30 2703 C 262.559 -4.40557 1.93554 0
M  V30 2704 C 264.911 -4.59883 2.45268 0
M  V30 2705 C 262.239 -4.92688 3.18552 0
M  V30 2706 C 264.591 -5.13403 3.69595 0
M  V30 2707 C 263.255 -5.29379 4.06589 0
M  V30 2708 H 262.525 -0.736606 0.0805743 0
M  V30 2709 H 265.172 -1.69598 0.889319 0
M  V30 2710 H 263.477 -3.8818 -0.531391 0
M  V30 2711 H 265.174 -4.00678 -0.160547 0
M  V30 2712 H 261.764 -4.09336 1.2705 0
M  V30 2713 H 265.948 -4.45817 2.18084 0
M  V30 2714 H 261.204 -5.03242 3.47214 0
M  V30 2715 H 265.378 -5.41084 4.38407 0
M  V30 2716 H 263.005 -5.69537 5.03519 0
M  V30 2717 N 264.58 -0.43555 -1.51462 0
M  V30 2718 C 265.528 0.391205 -2.29287 0
M  V30 2719 C 266.522 1.02247 -1.35062 0
M  V30 2720 O 267.728 0.957646 -1.52411 0
M  V30 2721 H 264.103 0.144968 -0.737895 0
M  V30 2722 H 266.074 -0.286051 -2.97026 0
M  V30 2723 C 264.823 1.48096 -3.14583 0
M  V30 2724 H 264.146 1.00457 -3.86973 0
M  V30 2725 H 265.586 2.03273 -3.72097 0
M  V30 2726 C 264.045 2.46321 -2.29843 0
M  V30 2727 O 264.575 3.50815 -1.95682 0
M  V30 2728 N 262.781 2.17166 -1.931 0
M  V30 2729 H 262.328 1.32218 -2.21079 0
M  V30 2730 H 262.286 2.83127 -1.36698 0
M  V30 2731 N 266.058 1.56714 -0.166846 0
M  V30 2732 C 267.469 1.83378 0.350646 0
M  V30 2733 C 267.82 1.08646 1.63372 0
M  V30 2734 O 266.945 0.338058 2.13743 0
M  V30 2735 C 267.54 3.32643 0.642963 0
M  V30 2736 C 266.099 3.59818 1.10491 0
M  V30 2737 C 265.246 2.76954 0.138411 0
M  V30 2738 H 268.197 1.53803 -0.391193 0
M  V30 2739 H 268.218 3.49878 1.49551 0
M  V30 2740 H 267.73 3.87007 -0.291055 0
M  V30 2741 H 265.831 3.1086 2.05418 0
M  V30 2742 H 265.944 4.68178 1.01716 0
M  V30 2743 H 264.308 2.4666 0.634911 0
M  V30 2744 H 265.091 3.34097 -0.789549 0
M  V30 2745 N 267.536 -0.106894 1.57237 0
M  V30 2746 C 268.761 -0.830287 1.90055 0
M  V30 2747 C 269.186 -1.72064 0.75998 0
M  V30 2748 O 268.544 -1.78982 -0.288991 0
M  V30 2749 C 268.592 -1.6295 3.21683 0
M  V30 2750 O 267.696 -2.73748 3.08441 0
M  V30 2751 H 267.037 -0.228855 0.623315 0
M  V30 2752 H 269.567 -0.085658 2.04421 0
M  V30 2753 H 269.577 -2.01621 3.54701 0
M  V30 2754 H 268.252 -0.975989 4.04286 0
M  V30 2755 H 266.829 -2.38192 2.86913 0
M  V30 2756 N 269.014 -1.53014 -0.377408 0
M  V30 2757 C 270.244 -1.72265 -1.14054 0
M  V30 2758 C 270.652 -0.44601 -1.83868 0
M  V30 2759 O 269.995 0.590095 -1.73964 0
M  V30 2760 C 270.057 -2.82492 -2.22348 0
M  V30 2761 C 269.721 -4.23233 -1.72402 0
M  V30 2762 C 270.718 -5.05992 -1.19448 0
M  V30 2763 C 268.403 -4.696 -1.78273 0
M  V30 2764 C 270.397 -6.33203 -0.730268 0
M  V30 2765 C 268.084 -5.96792 -1.31464 0
M  V30 2766 C 269.082 -6.78424 -0.789297 0
M  V30 2767 O 268.77 -8.0323 -0.328077 0
M  V30 2768 H 268.502 -0.579873 -0.347453 0
M  V30 2769 H 271.056 -2.00502 -0.445882 0
M  V30 2770 H 269.286 -2.49702 -2.95272 0
M  V30 2771 H 270.975 -2.90034 -2.83963 0
M  V30 2772 H 271.741 -4.71349 -1.14259 0
M  V30 2773 H 267.62 -4.06142 -2.18106 0
M  V30 2774 H 271.164 -6.96868 -0.319542 0
M  V30 2775 H 267.061 -6.30937 -1.36342 0
M  V30 2776 H 267.829 -8.1727 -0.448493 0
M  V30 2777 N 270.492 0.636531 -1.44174 0
M  V30 2778 C 271.769 1.39463 -1.37148 0
M  V30 2779 C 272.149 2.11082 -0.027507 0
M  V30 2780 O 271.497 2.05954 0.989716 0
M  V30 2781 C 271.707 2.36552 -2.56601 0
M  V30 2782 C 273.055 3.00048 -3.00427 0
M  V30 2783 O 274.079 2.46878 -2.56767 0
M  V30 2784 O 272.938 3.96488 -3.76111 0
M  V30 2785 H 270.032 0.623903 -0.542839 0
M  V30 2786 H 272.578 0.662039 -1.56253 0
M  V30 2787 H 271.35 1.82692 -3.46034 0
M  V30 2788 H 270.973 3.17236 -2.39681 0
M  V30 2789 N 271.97 1.30982 0.876444 0
M  V30 2790 C 272.917 1.18085 1.98304 0
M  V30 2791 C 273.887 0.0682263 1.6596 0
M  V30 2792 O 275.072 0.239937 1.89285 0
M  V30 2793 C 272.212 0.887475 3.33493 0
M  V30 2794 C 271.325 2.08281 3.78475 0
M  V30 2795 C 270.46 1.72678 5.0235 0
M  V30 2796 C 269.499 2.88657 5.39762 0
M  V30 2797 N 268.636 2.53292 6.54819 0
M  V30 2798 H 273.476 2.1275 2.08666 0
M  V30 2799 H 271.013 1.05839 1.02159 0
M  V30 2800 H 272.971 0.697961 4.1132 0
M  V30 2801 H 271.601 -0.022315 3.22792 0
M  V30 2802 H 270.653 2.3833 2.96484 0
M  V30 2803 H 271.965 2.95108 4.02135 0
M  V30 2804 H 271.119 1.50151 5.87826 0
M  V30 2805 H 269.858 0.830327 4.8058 0
M  V30 2806 H 268.863 3.1184 4.52809 0
M  V30 2807 H 270.088 3.79002 5.63502 0
M  V30 2808 H 268.034 1.66163 6.34607 0
M  V30 2809 H 267.951 3.3365 6.7839 0
M  V30 2810 H 269.219 2.34143 7.43503 0
M  V30 2811 N 273.449 -1.08991 1.13837 0
M  V30 2812 C 274.698 -1.80631 0.897509 0
M  V30 2813 C 275.011 -1.86872 -0.57777 0
M  V30 2814 O 276.217 -2.54866 -0.935701 0
M  V30 2815 C 274.673 -3.24517 1.55618 0
M  V30 2816 C 274.281 -3.26529 3.0673 0
M  V30 2817 C 276.025 -4.00882 1.3962 0
M  V30 2818 C 273.932 -4.64965 3.65461 0
M  V30 2819 H 272.862 -0.67691 0.332129 0
M  V30 2820 H 275.513 -1.2246 1.3666 0
M  V30 2821 H 273.895 -3.82778 1.01476 0
M  V30 2822 H 275.069 -2.78008 3.67489 0
M  V30 2823 H 273.384 -2.63656 3.22296 0
M  V30 2824 H 275.981 -5.03167 1.80906 0
M  V30 2825 H 276.324 -4.14896 0.341578 0
M  V30 2826 H 276.857 -3.49075 1.90766 0
M  V30 2827 H 273.596 -4.56153 4.70749 0
M  V30 2828 H 273.116 -5.13792 3.09481 0
M  V30 2829 H 274.795 -5.3394 3.654 0
M  V30 2830 N 274.927 -0.932562 -1.27047 0
M  V30 2831 C 276.174 -0.575559 -1.94148 0
M  V30 2832 C 276.502 0.883984 -1.73251 0
M  V30 2833 O 275.757 1.64655 -1.0577 0
M  V30 2834 C 276.056 -0.853713 -3.47054 0
M  V30 2835 C 275.722 -2.29577 -3.88079 0
M  V30 2836 C 274.384 -2.68999 -3.9899 0
M  V30 2837 C 276.736 -3.23331 -4.08787 0
M  V30 2838 C 274.064 -4.01289 -4.28 0
M  V30 2839 C 276.416 -4.55207 -4.39282 0
M  V30 2840 C 275.08 -4.94457 -4.48407 0
M  V30 2841 H 274.35 -0.210612 -0.710439 0
M  V30 2842 H 276.997 -1.17744 -1.51025 0
M  V30 2843 H 275.302 -0.169204 -3.91434 0
M  V30 2844 H 276.999 -0.55639 -3.97121 0
M  V30 2845 H 273.589 -1.97994 -3.80127 0
M  V30 2846 H 277.773 -2.94074 -3.99793 0
M  V30 2847 H 273.029 -4.31374 -4.33275 0
M  V30 2848 H 277.203 -5.27852 -4.54252 0
M  V30 2849 H 274.83 -5.96994 -4.7064 0
M  V30 2850 N 276.405 1.4127 -0.698611 0
M  V30 2851 C 277.63 2.06024 -0.238512 0
M  V30 2852 C 278.055 1.5224 1.10475 0
M  V30 2853 O 277.413 0.650623 1.69223 0
M  V30 2854 C 277.461 3.59988 -0.209952 0
M  V30 2855 O 276.565 4.04282 0.814235 0
M  V30 2856 H 275.906 0.653829 -0.115775 0
M  V30 2857 H 278.436 1.8098 -0.954326 0
M  V30 2858 H 278.446 4.07979 -0.0418436 0
M  V30 2859 H 277.121 3.98503 -1.1903 0
M  V30 2860 H 275.698 3.6779 0.615234 0
M  V30 2861 N 277.883 0.443576 1.51229 0
M  V30 2862 C 278.833 -0.382787 2.24764 0
M  V30 2863 C 279.817 -0.984836 1.27239 0
M  V30 2864 O 281.009 -0.901943 1.52296 0
M  V30 2865 C 278.138 -1.47989 3.09765 0
M  V30 2866 C 277.224 -0.886931 4.14722 0
M  V30 2867 N 277.615 -0.0237103 5.05794 0
M  V30 2868 C 275.913 -1.15385 4.30816 0
M  V30 2869 C 276.614 0.309971 5.80874 0
M  V30 2870 N 275.59 -0.307989 5.42727 0
M  V30 2871 H 279.392 0.282624 2.92538 0
M  V30 2872 H 276.906 0.256027 1.60369 0
M  V30 2873 H 278.903 -2.08482 3.61027 0
M  V30 2874 H 277.563 -2.14758 2.43535 0
M  V30 2875 H 278.574 0.34318 5.16762 0
M  V30 2876 H 275.251 -1.81857 3.75812 0
M  V30 2877 H 276.641 1.01279 6.64223 0
M  V30 2878 N 279.361 -1.56624 0.175154 0
M  V30 2879 C 280.291 -2.21155 -0.749195 0
M  V30 2880 C 281.272 -1.16836 -1.23626 0
M  V30 2881 O 282.457 -1.45277 -1.28873 0
M  V30 2882 C 279.587 -2.8553 -1.97711 0
M  V30 2883 C 278.541 -3.95921 -1.62575 0
M  V30 2884 C 277.867 -4.47365 -2.92864 0
M  V30 2885 C 279.167 -5.15323 -0.850838 0
M  V30 2886 H 280.861 -2.98653 -0.211295 0
M  V30 2887 H 278.407 -1.43651 -0.100188 0
M  V30 2888 H 280.36 -3.2935 -2.62881 0
M  V30 2889 H 279.084 -2.05406 -2.53921 0
M  V30 2890 H 277.743 -3.52762 -0.997719 0
M  V30 2891 H 277.391 -3.64027 -3.47122 0
M  V30 2892 H 277.091 -5.21839 -2.70106 0
M  V30 2893 H 278.615 -4.93873 -3.59056 0
M  V30 2894 H 280.029 -5.55812 -1.40521 0
M  V30 2895 H 278.426 -5.95739 -0.722154 0
M  V30 2896 H 279.496 -4.84661 0.152082 0
M  V30 2897 N 280.839 0.0985539 -1.57292 0
M  V30 2898 C 281.771 1.14595 -1.98496 0
M  V30 2899 C 282.784 1.36512 -0.887031 0
M  V30 2900 O 283.973 1.35225 -1.16518 0
M  V30 2901 C 281.073 2.50216 -2.28572 0
M  V30 2902 C 280.246 2.48624 -3.59868 0
M  V30 2903 C 279.305 3.66146 -3.7792 0
M  V30 2904 O 278.331 3.48795 -4.49812 0
M  V30 2905 N 279.533 4.85496 -3.18235 0
M  V30 2906 H 282.298 0.795277 -2.88956 0
M  V30 2907 H 279.859 0.287579 -1.59325 0
M  V30 2908 H 281.851 3.27432 -2.37845 0
M  V30 2909 H 280.421 2.77387 -1.44136 0
M  V30 2910 H 279.641 1.56978 -3.61596 0
M  V30 2911 H 280.929 2.44635 -4.46129 0
M  V30 2912 H 280.327 5.02497 -2.59833 0
M  V30 2913 H 278.884 5.60317 -3.32999 0
M  V30 2914 N 282.317 1.53212 0.369288 0
M  V30 2915 C 283.267 1.75769 1.45222 0
M  V30 2916 C 284.251 0.612136 1.48801 0
M  V30 2917 O 285.443 0.870674 1.54105 0
M  V30 2918 C 282.572 1.94769 2.82701 0
M  V30 2919 C 281.658 3.15315 2.83615 0
M  V30 2920 N 282.049 4.37295 2.54178 0
M  V30 2921 C 280.347 3.15962 3.14776 0
M  V30 2922 C 281.048 5.19015 2.62675 0
M  V30 2923 N 280.024 4.55142 2.97232 0
M  V30 2924 H 283.826 2.67691 1.2132 0
M  V30 2925 H 281.34 1.51787 0.577438 0
M  V30 2926 H 283.337 2.09056 3.60696 0
M  V30 2927 H 281.997 1.04073 3.07569 0
M  V30 2928 H 283.008 4.65091 2.27839 0
M  V30 2929 H 279.685 2.35144 3.44983 0
M  V30 2930 H 281.075 6.26305 2.43294 0
M  V30 2931 N 283.795 -0.628877 1.44509 0
M  V30 2932 C 285.041 -1.39045 1.47629 0
M  V30 2933 C 285.374 -1.93892 0.109343 0
M  V30 2934 O 284.649 -1.7379 -0.87334 0
M  V30 2935 C 284.932 -2.55408 2.53848 0
M  V30 2936 C 284.785 -2.05896 3.99909 0
M  V30 2937 C 286.104 -3.5759 2.56549 0
M  V30 2938 H 283.223 -0.504232 0.537512 0
M  V30 2939 H 285.865 -0.710854 1.76201 0
M  V30 2940 H 284.015 -3.13384 2.29615 0
M  V30 2941 H 285.687 -1.52734 4.35282 0
M  V30 2942 H 283.93 -1.37061 4.11578 0
M  V30 2943 H 284.601 -2.89681 4.69882 0
M  V30 2944 H 287.077 -3.09419 2.78207 0
M  V30 2945 H 285.953 -4.36527 3.32769 0
M  V30 2946 H 286.214 -4.11808 1.60832 0
M  V30 2947 N 285.273 -1.31445 -0.869486 0
M  V30 2948 C 286.22 -1.19135 -1.97675 0
M  V30 2949 C 287.19 -0.0770266 -1.65921 0
M  V30 2950 O 288.375 -0.249972 -1.89155 0
M  V30 2951 C 285.515 -0.905149 -3.33018 0
M  V30 2952 C 284.628 -2.10285 -3.77365 0
M  V30 2953 C 283.763 -1.75339 -5.01427 0
M  V30 2954 C 282.802 -2.91515 -5.38224 0
M  V30 2955 N 281.939 -2.56762 -6.53466 0
M  V30 2956 H 286.779 -2.13853 -2.07535 0
M  V30 2957 H 284.316 -1.06379 -1.01597 0
M  V30 2958 H 286.274 -0.719765 -4.10944 0
M  V30 2959 H 284.904 0.00519624 -3.228 0
M  V30 2960 H 283.956 -2.39899 -2.95216 0
M  V30 2961 H 285.268 -2.97237 -4.00564 0
M  V30 2962 H 284.422 -1.53266 -5.87022 0
M  V30 2963 H 283.161 -0.855801 -4.80133 0
M  V30 2964 H 282.166 -3.14237 -4.51149 0
M  V30 2965 H 283.391 -3.81985 -5.61484 0
M  V30 2966 H 281.337 -1.69526 -6.33717 0
M  V30 2967 H 281.254 -3.37243 -6.76612 0
M  V30 2968 H 282.522 -2.38083 -7.42251 0
M  V30 2969 N 286.751 1.08385 -1.14413 0
M  V30 2970 C 287.981 1.8425 -0.934644 0
M  V30 2971 C 288.389 1.81907 0.520234 0
M  V30 2972 O 287.732 1.22126 1.37226 0
M  V30 2973 C 287.794 3.32853 -1.35828 0
M  V30 2974 C 287.458 3.5893 -2.82875 0
M  V30 2975 C 288.455 3.53756 -3.80989 0
M  V30 2976 C 286.14 3.86934 -3.20293 0
M  V30 2977 C 288.134 3.76216 -5.14529 0
M  V30 2978 C 285.821 4.09047 -4.54008 0
M  V30 2979 C 286.819 4.03682 -5.50936 0
M  V30 2980 O 286.507 4.25214 -6.82238 0
M  V30 2981 H 286.239 0.588502 -0.332628 0
M  V30 2982 H 288.793 1.37792 -1.52324 0
M  V30 2983 H 287.023 3.8007 -0.713019 0
M  V30 2984 H 288.712 3.90154 -1.11957 0
M  V30 2985 H 289.478 3.32135 -3.53428 0
M  V30 2986 H 285.357 3.9023 -2.45442 0
M  V30 2987 H 288.901 3.71943 -5.90173 0
M  V30 2988 H 284.798 4.30151 -4.8129 0
M  V30 2989 H 285.566 4.42619 -6.88499 0
M  V30 2990 N 288.23 0.939286 1.26551 0
M  V30 2991 C 289.177 0.446088 2.26448 0
M  V30 2992 C 290.147 -0.493234 1.58608 0
M  V30 2993 O 291.332 -0.409857 1.86346 0
M  V30 2994 C 288.472 -0.284375 3.43926 0
M  V30 2995 C 287.585 0.690399 4.26448 0
M  V30 2996 C 286.72 -0.0610712 5.31165 0
M  V30 2997 C 285.759 0.905649 6.05363 0
M  V30 2998 N 284.896 0.186055 7.01853 0
M  V30 2999 H 289.736 1.30291 2.68008 0
M  V30 3000 H 287.273 0.65371 1.31776 0
M  V30 3001 H 289.231 -0.724313 4.10864 0
M  V30 3002 H 287.861 -1.10535 3.03285 0
M  V30 3003 H 286.913 1.24885 3.59316 0
M  V30 3004 H 288.225 1.42873 4.779 0
M  V30 3005 H 287.379 -0.56038 6.04106 0
M  V30 3006 H 286.118 -0.832297 4.80546 0
M  V30 3007 H 285.123 1.4161 5.3125 0
M  V30 3008 H 286.348 1.67685 6.58072 0
M  V30 3009 H 284.294 -0.566714 6.53548 0
M  V30 3010 H 284.211 0.863752 7.51049 0
M  V30 3011 H 285.479 -0.292221 7.78952 0
M  V30 3012 N 289.708 -1.40897 0.706093 0
M  V30 3013 C 290.956 -2.00657 0.241054 0
M  V30 3014 C 291.277 -1.56241 -1.16678 0
M  V30 3015 O 290.547 -0.79765 -1.78926 0
M  V30 3016 H 289.127 -0.742018 0.0861308 0
M  V30 3017 H 291.789 -1.72372 0.909604 0
M  V30 3018 H 290.885 -3.10958 0.266705 0
M  V30 3019 N 291.186 -0.45159 -1.50991 0
M  V30 3020 C 292.118 0.388634 -2.25881 0
M  V30 3021 C 293.131 0.974041 -1.30446 0
M  V30 3022 O 294.32 0.865758 -1.56099 0
M  V30 3023 C 291.42 1.5571 -3.01011 0
M  V30 3024 C 290.593 1.08801 -4.23652 0
M  V30 3025 C 289.652 2.12825 -4.8124 0
M  V30 3026 O 288.678 1.71678 -5.42693 0
M  V30 3027 N 289.88 3.45453 -4.66522 0
M  V30 3028 H 292.645 -0.25329 -2.98628 0
M  V30 3029 H 290.206 -0.281268 -1.59438 0
M  V30 3030 H 292.198 2.24952 -3.3642 0
M  V30 3031 H 290.768 2.10409 -2.31186 0
M  V30 3032 H 289.988 0.22215 -3.93574 0
M  V30 3033 H 291.276 0.752213 -5.03209 0
M  V30 3034 H 290.674 3.81605 -4.17605 0
M  V30 3035 H 289.231 4.10549 -5.06254 0
M  V30 3036 N 292.664 1.56529 -0.183458 0
M  V30 3037 C 293.574 2.22144 0.754272 0
M  V30 3038 C 294.59 1.21684 1.24374 0
M  V30 3039 O 295.766 1.54385 1.29333 0
M  V30 3040 C 292.831 2.85884 1.96141 0
M  V30 3041 C 291.892 4.01579 1.51765 0
M  V30 3042 C 291.125 4.6227 2.66725 0
M  V30 3043 O 291.348 4.21865 3.83909 0
M  V30 3044 O 290.282 5.51936 2.40104 0
M  V30 3045 H 294.108 3.02861 0.225527 0
M  V30 3046 H 291.693 1.49331 0.0453032 0
M  V30 3047 H 293.575 3.26253 2.66715 0
M  V30 3048 H 292.25 2.08154 2.47899 0
M  V30 3049 H 291.157 3.65856 0.781049 0
M  V30 3050 H 292.49 4.80938 1.04686 0
M  V30 3051 N 294.142 -0.090211 1.57342 0
M  V30 3052 C 295.105 -1.09335 2.01441 0
M  V30 3053 C 296.105 -1.32666 0.908641 0
M  V30 3054 O 297.295 -1.28697 1.174 0
M  V30 3055 C 294.427 -2.44136 2.3793 0
M  V30 3056 H 295.62 -0.713662 2.91285 0
M  V30 3057 H 293.173 -0.335404 1.52659 0
M  V30 3058 H 293.908 -2.86972 1.51055 0
M  V30 3059 H 293.693 -2.28548 3.18603 0
M  V30 3060 H 295.183 -3.16277 2.72688 0
M  V30 3061 N 295.62 -1.53406 -0.361157 0
M  V30 3062 C 296.867 -1.69802 -1.10333 0
M  V30 3063 C 297.195 -0.452087 -1.89173 0
M  V30 3064 O 296.45 0.566017 -1.87336 0
M  V30 3065 C 296.749 -2.90211 -2.08596 0
M  V30 3066 C 296.415 -4.26539 -1.46203 0
M  V30 3067 C 295.077 -4.6361 -1.28915 0
M  V30 3068 C 297.429 -5.113 -1.01101 0
M  V30 3069 C 294.757 -5.83075 -0.651157 0
M  V30 3070 C 297.109 -6.31415 -0.387007 0
M  V30 3071 C 295.773 -6.67195 -0.201657 0
M  V30 3072 H 295.043 -0.621351 -0.403737 0
M  V30 3073 H 297.69 -1.87598 -0.384609 0
M  V30 3074 H 295.995 -2.66946 -2.86788 0
M  V30 3075 H 297.692 -3.00091 -2.65982 0
M  V30 3076 H 294.282 -3.97352 -1.60653 0
M  V30 3077 H 298.466 -4.83206 -1.13249 0
M  V30 3078 H 293.722 -6.09385 -0.496006 0
M  V30 3079 H 297.896 -6.96394 -0.0293563 0
M  V30 3080 H 295.523 -7.59628 0.294766 0
M  V30 3081 N 297.098 0.621204 -1.44841 0
M  V30 3082 C 298.344 1.3826 -1.48365 0
M  V30 3083 C 298.677 1.93831 -0.119624 0
M  V30 3084 O 297.952 1.74251 0.864111 0
M  V30 3085 C 298.235 2.54058 -2.55199 0
M  V30 3086 C 298.088 2.03772 -4.00995 0
M  V30 3087 C 299.407 3.56225 -2.58442 0
M  V30 3088 H 296.526 0.501374 -0.540179 0
M  V30 3089 H 299.168 0.7015 -1.76576 0
M  V30 3090 H 297.318 3.12162 -2.31274 0
M  V30 3091 H 298.99 1.50423 -4.36086 0
M  V30 3092 H 297.233 1.34876 -4.12299 0
M  V30 3093 H 297.904 2.87185 -4.71411 0
M  V30 3094 H 300.38 3.07939 -2.79844 0
M  V30 3095 H 299.256 4.34756 -3.3508 0
M  V30 3096 H 299.517 4.10949 -1.63013 0
M  V30 3097 N 298.576 1.31904 0.862503 0
M  V30 3098 C 299.987 1.19803 1.43193 0
M  V30 3099 C 300.338 -0.192567 1.95253 0
M  V30 3100 O 299.463 -1.09081 1.86896 0
M  V30 3101 C 300.058 2.16883 2.60283 0
M  V30 3102 C 298.617 2.08692 3.13248 0
M  V30 3103 C 297.764 2.05691 1.85975 0
M  V30 3104 H 300.715 1.43846 0.670365 0
M  V30 3105 H 300.736 1.76278 3.37204 0
M  V30 3106 H 300.248 3.18083 2.22363 0
M  V30 3107 H 298.349 1.10713 3.55771 0
M  V30 3108 H 298.462 2.9815 3.75025 0
M  V30 3109 H 296.826 1.50814 2.05249 0
M  V30 3110 H 297.609 3.08659 1.50282 0
M  V30 3111 N 300.054 -1.07777 1.14986 0
M  V30 3112 C 301.302 -1.79934 0.920235 0
M  V30 3113 C 301.623 -1.86955 -0.554336 0
M  V30 3114 O 300.893 -1.36731 -1.40291 0
M  V30 3115 H 299.473 -0.666424 0.337473 0
M  V30 3116 H 302.135 -1.3027 1.44968 0
M  V30 3117 H 301.231 -2.82539 1.32583 0
M  V30 3118 N 301.532 -0.945985 -1.26051 0
M  V30 3119 C 302.779 -0.596118 -1.93527 0
M  V30 3120 C 303.107 0.865559 -1.74179 0
M  V30 3121 O 302.362 1.63524 -1.0751 0
M  V30 3122 C 302.661 -0.890475 -3.46129 0
M  V30 3123 C 302.327 -2.3368 -3.85622 0
M  V30 3124 C 300.989 -2.73216 -3.96114 0
M  V30 3125 C 303.341 -3.27648 -4.05334 0
M  V30 3126 C 300.669 -4.05806 -4.2372 0
M  V30 3127 C 303.021 -4.59841 -4.3443 0
M  V30 3128 C 301.685 -4.99185 -4.43137 0
M  V30 3129 H 300.955 -0.218135 -0.708165 0
M  V30 3130 H 303.602 -1.1934 -1.49768 0
M  V30 3131 H 301.907 -0.210711 -3.91233 0
M  V30 3132 H 303.604 -0.598478 -3.96509 0
M  V30 3133 H 300.194 -2.02015 -3.78005 0
M  V30 3134 H 304.378 -2.98298 -3.96651 0
M  V30 3135 H 299.634 -4.35945 -4.28675 0
M  V30 3136 H 303.808 -5.32641 -4.48628 0
M  V30 3137 H 301.435 -6.01952 -4.64282 0
M  V30 3138 N 303.011 1.40521 -0.713556 0
M  V30 3139 C 303.959 2.32549 -0.0485227 0
M  V30 3140 C 304.953 1.51931 0.74922 0
M  V30 3141 O 306.159 1.67745 0.652816 0
M  V30 3142 H 302.534 0.751994 0.00311138 0
M  V30 3143 H 304.505 2.86291 -0.841443 0
M  V30 3144 C 303.254 3.36879 0.860687 0
M  V30 3145 H 302.577 3.98978 0.256246 0
M  V30 3146 H 304.017 4.03772 1.294 0
M  V30 3147 C 302.476 2.72197 1.9852 0
M  V30 3148 O 303.006 2.5837 3.07584 0
M  V30 3149 N 301.212 2.30612 1.76823 0
M  V30 3150 H 300.759 2.42059 0.881217 0
M  V30 3151 H 300.717 1.87672 2.52243 0
M  V30 3152 N 304.489 0.459591 1.5075 0
M  V30 3153 C 305.738 -0.100971 2.01447 0
M  V30 3154 C 306.051 -1.41816 1.34713 0
M  V30 3155 O 307.257 -2.06299 1.76502 0
M  V30 3156 C 305.713 -0.23047 3.59161 0
M  V30 3157 C 305.321 1.0776 4.34847 0
M  V30 3158 C 307.065 -0.743608 4.17936 0
M  V30 3159 C 304.972 0.91253 5.84317 0
M  V30 3160 H 303.902 -0.0415102 0.752856 0
M  V30 3161 H 306.553 0.592742 1.73663 0
M  V30 3162 H 304.935 -0.987703 3.83485 0
M  V30 3163 H 306.109 1.8449 4.22256 0
M  V30 3164 H 304.424 1.52097 3.87628 0
M  V30 3165 H 307.021 -0.883959 5.27343 0
M  V30 3166 H 307.364 -1.73196 3.78562 0
M  V30 3167 H 307.897 -0.04408 3.97776 0
M  V30 3168 H 304.636 1.87391 6.28144 0
M  V30 3169 H 304.156 0.185422 5.99513 0
M  V30 3170 H 305.835 0.574547 6.44444 0
M  V30 3171 N 305.967 -1.56429 0.191757 0
M  V30 3172 C 306.877 -2.22541 -0.742481 0
M  V30 3173 C 307.893 -1.22342 -1.23727 0
M  V30 3174 O 309.069 -1.55069 -1.28513 0
M  V30 3175 C 306.134 -2.8692 -1.94623 0
M  V30 3176 C 305.195 -4.02378 -1.49633 0
M  V30 3177 C 304.428 -4.63678 -2.6427 0
M  V30 3178 O 304.651 -4.23895 -3.81666 0
M  V30 3179 O 303.585 -5.53202 -2.37174 0
M  V30 3180 H 307.411 -3.02977 -0.209462 0
M  V30 3181 H 304.996 -1.49353 -0.0373832 0
M  V30 3182 H 306.878 -3.27663 -2.64982 0
M  V30 3183 H 305.553 -2.09466 -2.46791 0
M  V30 3184 H 304.46 -3.66265 -0.761636 0
M  V30 3185 H 305.793 -4.81487 -1.02134 0
M  V30 3186 N 307.445 0.0818655 -1.57387 0
M  V30 3187 C 308.355 1.11642 -2.06333 0
M  V30 3188 C 309.371 1.43033 -0.99083 0
M  V30 3189 O 310.547 1.53411 -1.30488 0
M  V30 3190 C 307.612 2.41342 -2.48907 0
M  V30 3191 C 306.673 2.17014 -3.7041 0
M  V30 3192 C 305.906 3.4053 -4.10944 0
M  V30 3193 O 306.129 4.4927 -3.51444 0
M  V30 3194 O 305.063 3.29336 -5.03807 0
M  V30 3195 H 308.889 0.730657 -2.9478 0
M  V30 3196 H 306.474 0.295301 -1.46452 0
M  V30 3197 H 308.356 3.17691 -2.76858 0
M  V30 3198 H 307.031 2.79319 -1.63593 0
M  V30 3199 H 305.938 1.38403 -3.47556 0
M  V30 3200 H 307.271 1.83923 -4.56545 0
M  V30 3201 N 308.923 1.53595 0.353017 0
M  V30 3202 C 309.853 1.83902 1.43883 0
M  V30 3203 C 310.834 0.693421 1.55324 0
M  V30 3204 O 312.019 0.944452 1.69687 0
M  V30 3205 C 309.149 2.04016 2.8106 0
M  V30 3206 C 308.103 3.19814 2.84434 0
M  V30 3207 C 307.429 3.25244 4.24406 0
M  V30 3208 C 308.729 4.58133 2.50822 0
M  V30 3209 H 310.423 2.74835 1.1877 0
M  V30 3210 H 307.969 1.32242 0.569917 0
M  V30 3211 H 309.922 2.238 3.57059 0
M  V30 3212 H 308.646 1.09804 3.07588 0
M  V30 3213 H 307.305 2.9987 2.10887 0
M  V30 3214 H 306.953 2.28646 4.48029 0
M  V30 3215 H 306.653 4.03054 4.27576 0
M  V30 3216 H 308.177 3.47228 5.0226 0
M  V30 3217 H 309.591 4.77995 3.16534 0
M  V30 3218 H 307.988 5.38276 2.6529 0
M  V30 3219 H 309.058 4.62387 1.46034 0
M  V30 3220 N 310.401 -0.613514 1.45168 0
M  V30 3221 C 311.331 -1.7354 1.56225 0
M  V30 3222 C 312.312 -1.64981 0.41414 0
M  V30 3223 O 313.497 -1.83472 0.636526 0
M  V30 3224 C 310.627 -3.12128 1.52295 0
M  V30 3225 C 309.581 -3.35491 2.65762 0
M  V30 3226 C 308.907 -4.74291 2.46885 0
M  V30 3227 C 310.207 -3.26325 4.0781 0
M  V30 3228 H 311.901 -1.64543 2.50132 0
M  V30 3229 H 309.447 -0.790185 1.20383 0
M  V30 3230 H 311.4 -3.90404 1.58628 0
M  V30 3231 H 310.124 -3.2195 0.549139 0
M  V30 3232 H 308.783 -2.59603 2.58847 0
M  V30 3233 H 308.431 -4.80839 1.47657 0
M  V30 3234 H 308.131 -4.9088 3.22972 0
M  V30 3235 H 309.655 -5.54775 2.55063 0
M  V30 3236 H 311.069 -3.94483 4.16 0
M  V30 3237 H 309.466 -3.54445 4.8424 0
M  V30 3238 H 310.536 -2.23855 4.30136 0
M  V30 3239 N 311.879 -1.3236 -0.855495 0
M  V30 3240 C 313.29 -1.2056 -1.42556 0
M  V30 3241 C 313.641 0.182209 -1.95352 0
M  V30 3242 O 312.766 1.08088 -1.87472 0
M  V30 3243 C 313.361 -2.1826 -2.59129 0
M  V30 3244 C 311.92 -2.10351 -3.12137 0
M  V30 3245 C 311.067 -2.06674 -1.84882 0
M  V30 3246 H 314.018 -1.442 -0.662727 0
M  V30 3247 H 314.039 -1.78064 -3.36264 0
M  V30 3248 H 313.551 -3.19257 -2.20673 0
M  V30 3249 H 311.652 -1.12599 -3.55179 0
M  V30 3250 H 311.765 -3.00135 -3.73438 0
M  V30 3251 H 310.129 -1.51901 -2.04446 0
M  V30 3252 H 310.912 -3.09451 -1.48643 0
M  V30 3253 N 313.357 1.07166 -1.15556 0
M  V30 3254 C 314.267 2.17947 -0.868116 0
M  V30 3255 C 315.283 1.73297 0.156297 0
M  V30 3256 O 316.459 2.01392 -0.0182327 0
M  V30 3257 C 313.524 3.44789 -0.36355 0
M  V30 3258 C 312.585 4.03996 -1.45209 0
M  V30 3259 C 311.818 5.24783 -0.971508 0
M  V30 3260 O 312.041 5.70109 0.182194 0
M  V30 3261 O 310.975 5.75715 -1.75603 0
M  V30 3262 H 314.801 2.4503 -1.79427 0
M  V30 3263 H 312.386 1.16539 -0.934824 0
M  V30 3264 H 314.268 4.21307 -0.0887113 0
M  V30 3265 H 312.943 3.19253 0.534708 0
M  V30 3266 H 311.85 3.29009 -1.78056 0
M  V30 3267 H 313.183 4.33808 -2.32533 0
M  V30 3268 N 314.835 0.952656 1.25548 0
M  V30 3269 C 316.251 0.656769 1.4546 0
M  V30 3270 C 316.451 -0.78633 1.85524 0
M  V30 3271 O 315.507 -1.56183 1.98402 0
M  V30 3272 C 316.82 1.62801 2.52817 0
M  V30 3273 C 318.368 1.63897 2.66659 0
M  V30 3274 C 318.843 2.5978 3.77198 0
M  V30 3275 N 320.334 2.58133 3.84606 0
M  V30 3276 C 321.069 3.29003 4.69621 0
M  V30 3277 N 320.565 4.09339 5.58939 0
M  V30 3278 N 322.358 3.179 4.63569 0
M  V30 3279 H 314.509 1.88526 0.978344 0
M  V30 3280 H 316.772 0.810815 0.491206 0
M  V30 3281 H 316.478 2.65869 2.30232 0
M  V30 3282 H 316.352 1.38898 3.50695 0
M  V30 3283 H 318.739 0.615481 2.8861 0
M  V30 3284 H 318.82 1.91858 1.69187 0
M  V30 3285 H 318.464 3.62254 3.55997 0
M  V30 3286 H 318.394 2.29105 4.7415 0
M  V30 3287 H 320.885 1.99809 3.20757 0
M  V30 3288 H 321.198 4.6034 6.20731 0
M  V30 3289 H 319.543 4.13438 5.58654 0
M  V30 3290 H 322.734 2.54612 3.92798 0
M  V30 3291 H 322.907 3.73398 5.29602 0
M  V30 3292 N 316.313 -1.40141 0.720998 0
M  V30 3293 C 317.541 -2.05096 0.272656 0
M  V30 3294 C 317.956 -1.54334 -1.0875 0
M  V30 3295 O 317.313 -0.702211 -1.6845 0
M  V30 3296 C 317.364 -3.60636 0.249835 0
M  V30 3297 O 317.085 -4.09526 1.55629 0
M  V30 3298 C 318.586 -4.42772 -0.216396 0
M  V30 3299 H 315.806 -0.659897 0.121558 0
M  V30 3300 H 318.35 -1.79449 0.980723 0
M  V30 3301 H 316.505 -3.85232 -0.409237 0
M  V30 3302 H 316.919 -5.03758 1.4604 0
M  V30 3303 H 318.393 -5.51702 -0.181212 0
M  V30 3304 H 318.87 -4.20756 -1.25941 0
M  V30 3305 H 319.476 -4.23294 0.412596 0
M  V30 3306 N 317.792 -0.46758 -1.50504 0
M  V30 3307 C 318.755 0.317059 -2.26996 0
M  V30 3308 C 319.755 0.923513 -1.31635 0
M  V30 3309 O 320.945 0.793239 -1.55091 0
M  V30 3310 C 318.077 1.45134 -3.08462 0
M  V30 3311 H 319.27 -0.353723 -2.97807 0
M  V30 3312 H 316.823 -0.221545 -1.54722 0
M  V30 3313 H 317.558 2.15728 -2.4214 0
M  V30 3314 H 317.343 1.02232 -3.78538 0
M  V30 3315 H 318.833 2.00493 -3.66323 0
M  V30 3316 N 319.27 1.56325 -0.20005 0
M  V30 3317 C 320.18 2.22931 0.730668 0
M  V30 3318 C 321.196 1.22997 1.23076 0
M  V30 3319 O 322.372 1.55748 1.27689 0
M  V30 3320 C 319.437 2.87948 1.93098 0
M  V30 3321 C 318.498 4.03166 1.47497 0
M  V30 3322 C 317.731 4.65073 2.61807 0
M  V30 3323 O 317.954 4.25913 3.79413 0
M  V30 3324 O 316.888 5.54452 2.34237 0
M  V30 3325 H 320.714 3.03084 0.193391 0
M  V30 3326 H 318.299 1.49371 0.0294621 0
M  V30 3327 H 320.181 3.29063 2.6324 0
M  V30 3328 H 318.856 2.10771 2.45677 0
M  V30 3329 H 317.763 3.66664 0.742201 0
M  V30 3330 H 319.096 4.82022 0.995796 0
M  V30 3331 N 320.748 -0.0735177 1.57428 0
M  V30 3332 C 321.978 -0.78483 1.91112 0
M  V30 3333 C 322.386 -1.71729 0.7941 0
M  V30 3334 O 321.729 -1.82105 -0.241542 0
M  V30 3335 C 321.791 -1.63346 3.20247 0
M  V30 3336 C 321.455 -0.870557 4.48632 0
M  V30 3337 C 322.452 -0.19058 5.19551 0
M  V30 3338 C 320.137 -0.838242 4.95256 0
M  V30 3339 C 322.131 0.511503 6.35344 0
M  V30 3340 C 319.818 -0.132386 6.10957 0
M  V30 3341 C 320.816 0.541288 6.80852 0
M  V30 3342 O 320.504 1.23578 7.94345 0
M  V30 3343 H 320.236 -0.228408 0.636244 0
M  V30 3344 H 322.79 -0.0486039 2.05342 0
M  V30 3345 H 321.02 -2.41245 3.02222 0
M  V30 3346 H 322.709 -2.22329 3.39595 0
M  V30 3347 H 323.475 -0.206864 4.84559 0
M  V30 3348 H 319.354 -1.35206 4.40727 0
M  V30 3349 H 322.898 1.03789 6.89836 0
M  V30 3350 H 318.795 -0.114023 6.45399 0
M  V30 3351 H 319.563 1.14487 8.10454 0
M  V30 3352 N 322.226 -1.5378 -0.344866 0
M  V30 3353 C 323.456 -1.74646 -1.10374 0
M  V30 3354 C 323.864 -0.48491 -1.8288 0
M  V30 3355 O 323.207 0.553062 -1.75177 0
M  V30 3356 C 323.269 -2.87145 -2.16306 0
M  V30 3357 C 322.933 -4.26795 -1.63386 0
M  V30 3358 C 323.93 -5.08412 -1.08688 0
M  V30 3359 C 321.615 -4.73276 -1.68272 0
M  V30 3360 C 323.609 -6.34609 -0.595792 0
M  V30 3361 C 321.296 -5.99446 -1.18776 0
M  V30 3362 C 322.294 -6.79946 -0.645215 0
M  V30 3363 O 321.982 -8.03745 -0.157626 0
M  V30 3364 H 321.714 -0.587112 -0.335075 0
M  V30 3365 H 324.268 -2.01403 -0.403252 0
M  V30 3366 H 322.498 -2.55909 -2.89909 0
M  V30 3367 H 324.187 -2.95992 -2.77747 0
M  V30 3368 H 324.953 -4.73666 -1.04236 0
M  V30 3369 H 320.832 -4.10677 -2.09442 0
M  V30 3370 H 324.376 -6.97389 -0.171654 0
M  V30 3371 H 320.273 -6.33687 -1.22928 0
M  V30 3372 H 321.041 -8.18038 -0.275037 0
M  V30 3373 N 323.704 0.605807 -1.45491 0
M  V30 3374 C 325.12 0.926751 -1.29936 0
M  V30 3375 C 325.32 1.99896 -0.253706 0
M  V30 3376 O 324.376 2.50038 0.351737 0
M  V30 3377 C 325.689 1.36599 -2.67883 0
M  V30 3378 C 327.237 1.4801 -2.75793 0
M  V30 3379 C 327.712 1.95309 -4.14268 0
M  V30 3380 N 329.203 2.0254 -4.16571 0
M  V30 3381 C 329.938 2.40363 -5.20589 0
M  V30 3382 N 329.434 2.77143 -6.34952 0
M  V30 3383 N 331.227 2.40718 -5.07948 0
M  V30 3384 H 323.378 -0.102862 -2.12151 0
M  V30 3385 H 325.641 0.016639 -0.947854 0
M  V30 3386 H 325.347 0.652306 -3.45598 0
M  V30 3387 H 325.221 2.33215 -2.96463 0
M  V30 3388 H 327.608 2.1847 -1.98381 0
M  V30 3389 H 327.689 0.497041 -2.50925 0
M  V30 3390 H 327.333 1.25436 -4.92167 0
M  V30 3391 H 327.263 2.94532 -4.3653 0
M  V30 3392 H 329.754 1.76699 -3.34045 0
M  V30 3393 H 330.067 3.0489 -7.10114 0
M  V30 3394 H 328.412 2.74834 -6.3835 0
M  V30 3395 H 331.603 2.11392 -4.1765 0
M  V30 3396 H 331.776 2.69869 -5.89131 0
M  V30 3397 N 325.182 1.32811 0.848464 0
M  V30 3398 C 326.412 1.26556 1.63301 0
M  V30 3399 C 326.82 -0.1676 1.88456 0
M  V30 3400 O 326.163 -1.11713 1.45828 0
M  V30 3401 C 326.225 1.96202 3.01239 0
M  V30 3402 C 325.889 3.45528 2.99098 0
M  V30 3403 C 326.886 4.40903 2.75501 0
M  V30 3404 C 324.571 3.87558 3.19537 0
M  V30 3405 C 326.565 5.76282 2.72356 0
M  V30 3406 C 324.252 5.23044 3.16019 0
M  V30 3407 C 325.25 6.17217 2.92458 0
M  V30 3408 O 324.938 7.50223 2.88825 0
M  V30 3409 H 324.67 0.43771 0.515156 0
M  V30 3410 H 327.224 1.7559 1.0657 0
M  V30 3411 H 325.454 1.41746 3.59785 0
M  V30 3412 H 327.143 1.83573 3.62016 0
M  V30 3413 H 327.909 4.09756 2.5947 0
M  V30 3414 H 323.788 3.14674 3.369 0
M  V30 3415 H 327.332 6.4976 2.53886 0
M  V30 3416 H 323.229 5.53818 3.31596 0
M  V30 3417 H 323.997 7.59657 3.04735 0
M  V30 3418 N 326.66 -1.06551 1.16123 0
M  V30 3419 C 328.076 -1.3142 0.905585 0
M  V30 3420 C 328.276 -1.96571 -0.442964 0
M  V30 3421 O 327.332 -2.23068 -1.18308 0
M  V30 3422 C 328.645 -2.19741 2.05267 0
M  V30 3423 C 330.193 -2.33165 2.08813 0
M  V30 3424 C 330.668 -3.24838 3.22868 0
M  V30 3425 N 332.159 -3.32421 3.22568 0
M  V30 3426 C 332.894 -4.0344 4.0746 0
M  V30 3427 N 332.39 -4.77003 5.02434 0
M  V30 3428 N 334.183 -3.99464 3.95456 0
M  V30 3429 H 326.334 -0.626548 2.02949 0
M  V30 3430 H 328.597 -0.338777 0.8854 0
M  V30 3431 H 328.303 -1.79142 3.02657 0
M  V30 3432 H 328.177 -3.20313 1.99198 0
M  V30 3433 H 330.564 -2.73013 1.12018 0
M  V30 3434 H 330.645 -1.3227 2.18948 0
M  V30 3435 H 330.289 -2.85708 4.19921 0
M  V30 3436 H 330.219 -4.25707 3.0997 0
M  V30 3437 H 332.71 -2.79994 2.53795 0
M  V30 3438 H 333.023 -5.28712 5.63634 0
M  V30 3439 H 331.368 -4.75992 5.06415 0
M  V30 3440 H 334.559 -3.4111 3.20564 0
M  V30 3441 H 334.732 -4.54544 4.61837 0
M  V30 3442 N 328.138 -0.959301 -1.25041 0
M  V30 3443 C 329.386 -0.615393 -1.92503 0
M  V30 3444 C 329.707 0.850969 -1.75452 0
M  V30 3445 O 328.977 1.60658 -1.12098 0
M  V30 3446 H 327.557 -0.224613 -0.712431 0
M  V30 3447 H 330.219 -1.21855 -1.5211 0
M  V30 3448 H 329.315 -0.848738 -3.00338 0
M  V30 3449 N 329.616 1.39756 -0.72842 0
M  V30 3450 C 330.841 2.05472 -0.282159 0
M  V30 3451 C 331.266 1.54549 1.07221 0
M  V30 3452 O 330.624 0.686372 1.67805 0
M  V30 3453 C 330.672 3.59462 -0.286264 0
M  V30 3454 O 329.776 4.05918 0.728298 0
M  V30 3455 H 329.117 0.651226 -0.129618 0
M  V30 3456 H 331.647 1.78915 -0.992499 0
M  V30 3457 H 331.657 4.07798 -0.128373 0
M  V30 3458 H 330.332 3.95889 -1.27456 0
M  V30 3459 H 328.909 3.69012 0.537081 0
M  V30 3460 N 331.094 0.475555 1.50254 0
M  V30 3461 C 332.024 -0.30611 2.31485 0
M  V30 3462 C 333.005 -0.986228 1.38591 0
M  V30 3463 O 334.19 -0.982541 1.67511 0
M  V30 3464 C 331.32 -1.38588 3.1845 0
M  V30 3465 C 330.274 -0.827115 4.19932 0
M  V30 3466 C 329.6 -2.00551 4.95665 0
M  V30 3467 C 330.9 0.16463 5.2204 0
M  V30 3468 H 332.594 0.371866 2.97082 0
M  V30 3469 H 330.14 0.180282 1.42867 0
M  V30 3470 H 332.093 -1.94023 3.74076 0
M  V30 3471 H 330.817 -2.09269 2.50747 0
M  V30 3472 H 329.476 -0.294702 3.65414 0
M  V30 3473 H 329.124 -2.6994 4.2443 0
M  V30 3474 H 328.824 -1.63784 5.64313 0
M  V30 3475 H 330.348 -2.56468 5.54127 0
M  V30 3476 H 331.762 -0.300699 5.72511 0
M  V30 3477 H 330.159 0.446813 5.98434 0
M  V30 3478 H 331.229 1.08905 4.72512 0
M  V30 3479 N 332.573 -1.56217 0.208337 0
M  V30 3480 C 333.801 -2.02337 -0.43215 0
M  V30 3481 C 334.216 -1.08834 -1.54275 0
M  V30 3482 O 333.573 -0.0955462 -1.8225 0
M  V30 3483 C 333.624 -3.48072 -0.976138 0
M  V30 3484 O 333.345 -4.38007 0.0901621 0
M  V30 3485 C 334.846 -4.09773 -1.69119 0
M  V30 3486 H 332.066 -0.662385 -0.10718 0
M  V30 3487 H 334.61 -2.01966 0.320923 0
M  V30 3488 H 332.765 -3.49099 -1.67954 0
M  V30 3489 H 333.179 -5.23543 -0.316701 0
M  V30 3490 H 334.653 -5.13556 -2.02397 0
M  V30 3491 H 335.13 -3.53999 -2.59964 0
M  V30 3492 H 335.736 -4.12556 -1.03332 0
M  V30 3493 N 334.051 0.0651679 -1.57465 0
M  V30 3494 C 335.279 0.775808 -1.91804 0
M  V30 3495 C 335.694 1.70782 -0.804916 0
M  V30 3496 O 335.051 1.81153 0.221311 0
M  V30 3497 C 335.102 1.56381 -3.25925 0
M  V30 3498 O 334.823 0.669248 -4.32958 0
M  V30 3499 C 336.324 2.37485 -3.7432 0
M  V30 3500 H 333.544 0.2202 -0.63384 0
M  V30 3501 H 336.088 0.0334587 -2.04473 0
M  V30 3502 H 334.243 2.25837 -3.14764 0
M  V30 3503 H 334.657 1.21801 -5.10162 0
M  V30 3504 H 336.131 2.88223 -4.70778 0
M  V30 3505 H 336.608 3.17307 -3.03666 0
M  V30 3506 H 337.214 1.73173 -3.88447 0
M  V30 3507 N 335.529 1.53961 0.336706 0
M  V30 3508 C 336.94 1.62914 0.911925 0
M  V30 3509 C 337.291 0.514795 1.89326 0
M  V30 3510 O 336.416 -0.354395 2.13478 0
M  V30 3511 C 337.011 2.95304 1.66076 0
M  V30 3512 C 335.57 3.06496 2.18489 0
M  V30 3513 C 334.717 2.58403 1.00613 0
M  V30 3514 H 337.668 1.58285 0.114649 0
M  V30 3515 H 337.689 2.84727 2.5241 0
M  V30 3516 H 337.201 3.76387 0.946276 0
M  V30 3517 H 335.302 2.3006 2.93092 0
M  V30 3518 H 335.415 4.1208 2.44391 0
M  V30 3519 H 333.779 2.13977 1.38152 0
M  V30 3520 H 334.562 3.41932 0.306179 0
M  V30 3521 N 337.007 -0.598083 1.45811 0
M  V30 3522 C 338.418 -1.18011 1.44673 0
M  V30 3523 C 338.769 -1.95378 0.179364 0
M  V30 3524 O 337.894 -2.04124 -0.718509 0
M  V30 3525 C 338.489 -2.14677 2.62105 0
M  V30 3526 C 337.048 -2.68236 2.64057 0
M  V30 3527 C 336.195 -1.43816 2.37091 0
M  V30 3528 H 339.146 -0.38686 1.53913 0
M  V30 3529 H 339.167 -2.97878 2.36746 0
M  V30 3530 H 338.679 -1.5834 3.5433 0
M  V30 3531 H 336.78 -3.28486 1.75864 0
M  V30 3532 H 336.893 -3.12021 3.63566 0
M  V30 3533 H 335.257 -1.731 1.86838 0
M  V30 3534 H 336.04 -0.893333 3.31473 0
M  V30 3535 N 338.485 -1.33259 -0.841409 0
M  V30 3536 C 339.725 -1.25902 -1.61022 0
M  V30 3537 C 340.089 0.173325 -1.91216 0
M  V30 3538 O 341.29 0.370824 -2.6623 0
M  V30 3539 C 339.561 -2.10735 -2.88662 0
M  V30 3540 S 341.12 -2.20541 -3.79351 0
M  V30 3541 H 337.938 -0.447958 -0.552137 0
M  V30 3542 H 340.54 -1.68263 -0.995382 0
M  V30 3543 H 339.244 -3.1384 -2.64448 0
M  V30 3544 H 338.775 -1.69201 -3.55154 0
M  V30 3545 H 340.79 -1.36462 -4.77067 0
M  V30 3546 N 339.963 1.05934 -1.16686 0
M  V30 3547 C 340.911 2.15603 -0.872817 0
M  V30 3548 C 341.905 1.68647 0.159576 0
M  V30 3549 O 343.111 1.79995 0.0132125 0
M  V30 3550 H 339.486 0.703885 -0.264671 0
M  V30 3551 H 341.457 2.37613 -1.80507 0
M  V30 3552 C 340.206 3.45457 -0.394344 0
M  V30 3553 H 339.529 3.81984 -1.18019 0
M  V30 3554 H 340.969 4.2339 -0.227408 0
M  V30 3555 C 339.428 3.25021 0.88673 0
M  V30 3556 O 339.958 3.50906 1.95519 0
M  V30 3557 N 338.164 2.78437 0.831925 0
M  V30 3558 H 337.711 2.57572 -0.0377619 0
M  V30 3559 H 337.669 2.65144 1.68956 0
M  V30 3560 N 341.441 0.965919 1.2453 0
M  V30 3561 C 342.852 0.665929 1.7442 0
M  V30 3562 C 343.203 -0.818407 1.78316 0
M  V30 3563 O 342.328 -1.64037 1.41141 0
M  V30 3564 C 342.923 1.20211 3.16757 0
M  V30 3565 C 341.482 0.952059 3.6416 0
M  V30 3566 C 340.629 1.33848 2.42858 0
M  V30 3567 H 343.58 1.14144 1.10258 0
M  V30 3568 H 343.601 0.567544 3.76244 0
M  V30 3569 H 343.113 2.28244 3.13889 0
M  V30 3570 H 341.214 -0.112821 3.72429 0
M  V30 3571 H 341.327 1.59645 4.51719 0
M  V30 3572 H 339.691 0.756864 2.43195 0
M  V30 3573 H 340.474 2.42827 2.42673 0
M  V30 3574 N 342.919 -1.39368 0.735821 0
M  V30 3575 C 344.147 -2.04795 0.294393 0
M  V30 3576 C 344.562 -1.55478 -1.07107 0
M  V30 3577 O 343.919 -0.720038 -1.67695 0
M  V30 3578 C 343.97 -3.6035 0.288071 0
M  V30 3579 O 343.691 -4.07852 1.59963 0
M  V30 3580 C 345.192 -4.42976 -0.169422 0
M  V30 3581 H 342.412 -0.658571 0.128551 0
M  V30 3582 H 344.956 -1.78399 0.999701 0
M  V30 3583 H 343.111 -3.85645 -0.368355 0
M  V30 3584 H 343.525 -5.02181 1.51375 0
M  V30 3585 H 344.999 -5.51864 -0.122687 0
M  V30 3586 H 345.476 -4.22068 -1.21472 0
M  V30 3587 H 346.082 -4.22832 0.457469 0
M  V30 3588 N 344.397 -0.483516 -1.5 0
M  V30 3589 C 345.643 0.0672592 -2.02688 0
M  V30 3590 C 345.976 1.38247 -1.36387 0
M  V30 3591 O 345.251 1.88131 -0.493675 0
M  V30 3592 C 345.534 0.238109 -3.59312 0
M  V30 3593 C 345.387 -1.099 -4.36168 0
M  V30 3594 C 346.706 0.986916 -4.28892 0
M  V30 3595 H 343.825 0.0229696 -0.736642 0
M  V30 3596 H 346.467 -0.631527 -1.79197 0
M  V30 3597 H 344.617 0.8333 -3.79458 0
M  V30 3598 H 346.289 -1.73172 -4.27562 0
M  V30 3599 H 344.532 -1.69261 -3.99416 0
M  V30 3600 H 345.203 -0.932954 -5.44059 0
M  V30 3601 H 347.679 0.482302 -4.13295 0
M  V30 3602 H 346.555 1.07527 -5.38265 0
M  V30 3603 H 346.816 2.0265 -3.92919 0
M  V30 3604 N 345.875 1.56104 -0.216619 0
M  V30 3605 C 346.805 2.23063 0.690296 0
M  V30 3606 C 347.786 1.20072 1.20485 0
M  V30 3607 O 348.971 1.48643 1.24976 0
M  V30 3608 C 346.101 2.90672 1.90072 0
M  V30 3609 C 345.055 4.00092 1.5202 0
M  V30 3610 C 344.381 4.54972 2.80899 0
M  V30 3611 C 345.681 5.17398 0.71391 0
M  V30 3612 H 347.375 2.99109 0.132038 0
M  V30 3613 H 344.921 1.43866 0.0620664 0
M  V30 3614 H 346.874 3.36204 2.54057 0
M  V30 3615 H 345.598 2.12066 2.48386 0
M  V30 3616 H 344.257 3.55283 0.903839 0
M  V30 3617 H 343.905 3.73102 3.37348 0
M  V30 3618 H 343.605 5.28817 2.56176 0
M  V30 3619 H 345.129 5.0322 3.45836 0
M  V30 3620 H 346.543 5.59342 1.25735 0
M  V30 3621 H 344.94 5.97444 0.563951 0
M  V30 3622 H 346.01 4.84088 -0.280527 0
M  V30 3623 N 347.353 -0.0568162 1.57498 0
M  V30 3624 C 348.599 -0.748893 1.89111 0
M  V30 3625 C 348.954 -1.74422 0.81208 0
M  V30 3626 O 348.247 -1.90731 -0.182247 0
M  V30 3627 C 348.441 -1.48359 3.25153 0
M  V30 3628 C 348.27 -0.560924 4.46188 0
M  V30 3629 C 347.04 -0.192264 5.04934 0
M  V30 3630 C 349.238 0.148824 5.14085 0
M  V30 3631 N 347.22 0.734555 6.0949 0
M  V30 3632 C 348.591 0.932286 6.12951 0
M  V30 3633 C 350.646 0.218713 4.97419 0
M  V30 3634 C 349.349 1.77917 6.96949 0
M  V30 3635 C 351.375 1.05262 5.81957 0
M  V30 3636 C 350.737 1.82409 6.80372 0
M  V30 3637 H 346.836 -0.249002 0.741298 0
M  V30 3638 H 349.42 -0.00984926 1.94698 0
M  V30 3639 H 347.591 -2.19326 3.20547 0
M  V30 3640 H 349.323 -2.12586 3.44368 0
M  V30 3641 H 346.078 -0.548421 4.70414 0
M  V30 3642 H 346.502 1.19165 6.6643 0
M  V30 3643 H 351.144 -0.363407 4.21235 0
M  V30 3644 H 348.862 2.3722 7.72497 0
M  V30 3645 H 352.448 1.10987 5.71116 0
M  V30 3646 H 351.328 2.45895 7.44651 0
M  V30 3647 N 348.832 -1.54138 -0.328536 0
M  V30 3648 C 350.06 -1.76062 -1.08673 0
M  V30 3649 C 350.475 -0.506852 -1.81869 0
M  V30 3650 O 349.832 0.522223 -1.74869 0
M  V30 3651 C 349.883 -2.95054 -2.08866 0
M  V30 3652 O 349.604 -4.15583 -1.38644 0
M  V30 3653 C 351.105 -3.2915 -2.96943 0
M  V30 3654 H 348.325 -0.587889 -0.323461 0
M  V30 3655 H 350.869 -2.0101 -0.376175 0
M  V30 3656 H 349.024 -2.72394 -2.75464 0
M  V30 3657 H 349.438 -4.82481 -2.05699 0
M  V30 3658 H 350.912 -4.15723 -3.63151 0
M  V30 3659 H 351.389 -2.461 -3.63774 0
M  V30 3660 H 351.995 -3.53871 -2.35914 0
M  V30 3661 N 350.31 0.590341 -1.46126 0
M  V30 3662 C 351.556 1.35082 -1.51264 0
M  V30 3663 C 351.889 1.93534 -0.160711 0
M  V30 3664 O 351.164 1.76045 0.826956 0
M  V30 3665 C 351.447 2.48588 -2.6053 0
M  V30 3666 C 351.3 1.95221 -4.05227 0
M  V30 3667 C 352.619 3.50662 -2.6594 0
M  V30 3668 H 349.738 0.489803 -0.550692 0
M  V30 3669 H 352.38 0.663887 -1.78024 0
M  V30 3670 H 350.53 3.07186 -2.37843 0
M  V30 3671 H 352.202 1.41139 -4.39178 0
M  V30 3672 H 350.445 1.26101 -4.15068 0
M  V30 3673 H 351.116 2.77121 -4.77397 0
M  V30 3674 H 353.592 3.01934 -2.86313 0
M  V30 3675 H 352.468 4.27551 -3.44226 0
M  V30 3676 H 352.729 4.07399 -1.71694 0
M  V30 3677 N 351.788 1.33704 0.83433 0
M  V30 3678 C 353.035 1.25417 1.58987 0
M  V30 3679 C 353.363 -0.178869 1.93676 0
M  V30 3680 O 352.618 -1.13723 1.59265 0
M  V30 3681 C 352.917 2.07926 2.90692 0
M  V30 3682 C 352.583 3.57066 2.75345 0
M  V30 3683 C 351.245 3.97724 2.70867 0
M  V30 3684 C 353.597 4.51817 2.59828 0
M  V30 3685 C 350.925 5.31344 2.48778 0
M  V30 3686 C 353.277 5.85604 2.39272 0
M  V30 3687 C 351.941 6.25439 2.33199 0
M  V30 3688 H 351.211 0.458934 0.581774 0
M  V30 3689 H 353.858 1.65335 0.966261 0
M  V30 3690 H 352.163 1.608 3.57282 0
M  V30 3691 H 353.86 1.98868 3.48213 0
M  V30 3692 H 350.45 3.24785 2.79665 0
M  V30 3693 H 354.634 4.21311 2.62319 0
M  V30 3694 H 349.89 5.61241 2.42526 0
M  V30 3695 H 354.064 6.58623 2.2625 0
M  V30 3696 H 351.691 7.28914 2.15843 0
M  V30 3697 N 353.266 -1.05314 1.17247 0
M  V30 3698 C 354.682 -1.30452 0.919473 0
M  V30 3699 C 354.882 -1.9703 -0.42209 0
M  V30 3700 O 353.938 -2.24311 -1.15935 0
M  V30 3701 C 355.251 -2.17551 2.07586 0
M  V30 3702 C 356.799 -2.30937 2.11275 0
M  V30 3703 C 357.274 -3.21396 3.26296 0
M  V30 3704 N 358.765 -3.28981 3.26076 0
M  V30 3705 C 359.5 -3.99095 4.11716 0
M  V30 3706 N 358.996 -4.71648 5.07465 0
M  V30 3707 N 360.789 -3.95247 3.9967 0
M  V30 3708 H 352.94 -0.604988 2.03602 0
M  V30 3709 H 355.203 -0.329368 0.888944 0
M  V30 3710 H 354.909 -1.75921 3.0454 0
M  V30 3711 H 354.783 -3.18182 2.02584 0
M  V30 3712 H 357.17 -2.71809 1.14907 0
M  V30 3713 H 357.251 -1.2994 2.20339 0
M  V30 3714 H 356.895 -2.81238 4.22927 0
M  V30 3715 H 356.825 -4.22395 3.14467 0
M  V30 3716 H 359.316 -2.77286 2.5675 0
M  V30 3717 H 359.629 -5.22705 5.6921 0
M  V30 3718 H 357.974 -4.70594 5.11435 0
M  V30 3719 H 361.165 -3.37691 3.24164 0
M  V30 3720 H 361.338 -4.4962 4.66632 0
M  V30 3721 N 354.744 -0.972509 -1.24016 0
M  V30 3722 C 355.692 -0.498562 -2.27194 0
M  V30 3723 C 356.686 0.440372 -1.63576 0
M  V30 3724 O 357.892 0.315133 -1.7722 0
M  V30 3725 H 354.267 -0.142775 -0.738322 0
M  V30 3726 H 356.238 -1.38065 -2.64539 0
M  V30 3727 C 354.987 0.191072 -3.47175 0
M  V30 3728 H 354.31 -0.522318 -3.96373 0
M  V30 3729 H 355.75 0.486445 -4.212 0
M  V30 3730 C 354.209 1.41967 -3.05527 0
M  V30 3731 O 354.739 2.51642 -3.13112 0
M  V30 3732 N 352.945 1.28746 -2.60524 0
M  V30 3733 H 352.492 0.395089 -2.54552 0
M  V30 3734 H 352.45 2.11061 -2.33025 0
M  V30 3735 N 356.222 1.38976 -0.743202 0
M  V30 3736 C 357.633 1.83123 -0.363732 0
M  V30 3737 C 357.984 1.6205 1.10609 0
M  V30 3738 O 357.109 1.11606 1.854 0
M  V30 3739 C 357.704 3.32439 -0.653408 0
M  V30 3740 C 356.263 3.74974 -0.327338 0
M  V30 3741 C 355.41 2.61878 -0.911875 0
M  V30 3742 H 358.361 1.27852 -0.940191 0
M  V30 3743 H 358.382 3.80432 0.0720031 0
M  V30 3744 H 357.894 3.47745 -1.72323 0
M  V30 3745 H 355.995 3.65252 0.736314 0
M  V30 3746 H 356.108 4.72106 -0.815631 0
M  V30 3747 H 354.472 2.52448 -0.337944 0
M  V30 3748 H 355.255 2.79987 -1.98651 0
M  V30 3749 N 357.7 0.491464 1.49741 0
M  V30 3750 C 358.946 -0.0565092 2.02721 0
M  V30 3751 C 359.279 -1.37522 1.37118 0
M  V30 3752 O 358.554 -1.87866 0.503645 0
M  V30 3753 C 358.837 -0.219051 3.59433 0
M  V30 3754 C 358.69 1.12211 4.35579 0
M  V30 3755 C 360.009 -0.964157 4.29409 0
M  V30 3756 H 357.128 -0.0190627 0.736753 0
M  V30 3757 H 359.77 0.641021 1.7886 0
M  V30 3758 H 357.92 -0.813165 3.79895 0
M  V30 3759 H 359.592 1.75437 4.26637 0
M  V30 3760 H 357.835 1.71377 3.98513 0
M  V30 3761 H 358.506 0.961794 5.43556 0
M  V30 3762 H 360.982 -0.460378 4.13545 0
M  V30 3763 H 359.858 -1.04671 5.38828 0
M  V30 3764 H 360.119 -2.00563 3.93988 0
M  V30 3765 N 359.178 -1.55987 0.224894 0
M  V30 3766 C 360.11 -2.17722 -0.716224 0
M  V30 3767 C 361.123 -1.14723 -1.15509 0
M  V30 3768 O 362.312 -1.41688 -1.08567 0
M  V30 3769 C 359.412 -2.74873 -1.98238 0
M  V30 3770 C 358.585 -4.03074 -1.69853 0
M  V30 3771 C 357.644 -4.44757 -2.81208 0
M  V30 3772 O 356.67 -5.11587 -2.49534 0
M  V30 3773 N 357.872 -4.10716 -4.10235 0
M  V30 3774 H 360.637 -2.99109 -0.188123 0
M  V30 3775 H 358.198 -1.6184 0.0440123 0
M  V30 3776 H 360.19 -2.99727 -2.7193 0
M  V30 3777 H 358.76 -1.9777 -2.42086 0
M  V30 3778 H 357.98 -3.86041 -0.797875 0
M  V30 3779 H 359.268 -4.86701 -1.48324 0
M  V30 3780 H 358.666 -3.57019 -4.38809 0
M  V30 3781 H 357.223 -4.40455 -4.80461 0
M  V30 3782 N 360.656 0.0484629 -1.57525 0
M  V30 3783 C 361.905 0.742065 -1.87553 0
M  V30 3784 C 362.218 1.77545 -0.820802 0
M  V30 3785 O 363.424 2.52027 -1.00967 0
M  V30 3786 C 361.88 1.37081 -3.32771 0
M  V30 3787 C 361.488 0.374786 -4.4643 0
M  V30 3788 C 363.232 2.04542 -3.71972 0
M  V30 3789 C 361.139 1.01077 -5.82698 0
M  V30 3790 H 360.069 0.280903 -0.699721 0
M  V30 3791 H 362.72 -0.00411877 -1.835 0
M  V30 3792 H 361.102 2.16605 -3.31509 0
M  V30 3793 H 362.276 -0.392331 -4.59127 0
M  V30 3794 H 360.591 -0.196653 -4.15935 0
M  V30 3795 H 363.188 2.52943 -4.71088 0
M  V30 3796 H 363.531 2.85515 -3.02964 0
M  V30 3797 H 364.064 1.31819 -3.75325 0
M  V30 3798 H 360.803 0.240878 -6.55057 0
M  V30 3799 H 360.323 1.74819 -5.73758 0
M  V30 3800 H 362.002 1.52383 -6.28799 0
M  V30 3801 N 362.134 1.5431 0.320358 0
M  V30 3802 C 363.359 1.76954 1.08175 0
M  V30 3803 C 363.784 0.518193 1.80821 0
M  V30 3804 O 363.142 -0.530411 1.73368 0
M  V30 3805 C 363.19 2.96451 2.05303 0
M  V30 3806 O 362.294 2.68221 3.13259 0
M  V30 3807 H 361.635 0.586275 0.311733 0
M  V30 3808 H 364.165 2.01342 0.363676 0
M  V30 3809 H 364.175 3.23887 2.48116 0
M  V30 3810 H 362.85 3.87196 1.51829 0
M  V30 3811 H 361.427 2.51744 2.75099 0
M  V30 3812 N 363.613 -0.582584 1.46437 0
M  V30 3813 C 364.545 -1.70618 1.53043 0
M  V30 3814 C 365.558 -1.57322 0.418769 0
M  V30 3815 O 366.747 -1.64744 0.687136 0
M  V30 3816 C 363.847 -3.08869 1.39474 0
M  V30 3817 C 363.02 -3.48166 2.64762 0
M  V30 3818 C 362.079 -4.65478 2.4539 0
M  V30 3819 O 361.105 -4.71333 3.19114 0
M  V30 3820 N 362.307 -5.60365 1.51564 0
M  V30 3821 H 365.072 -1.65405 2.49923 0
M  V30 3822 H 362.633 -0.768567 1.42494 0
M  V30 3823 H 364.625 -3.85143 1.24287 0
M  V30 3824 H 363.195 -3.08449 0.507758 0
M  V30 3825 H 362.415 -2.61598 2.9489 0
M  V30 3826 H 363.703 -3.71188 3.4799 0
M  V30 3827 H 363.101 -5.5837 0.907705 0
M  V30 3828 H 361.658 -6.36068 1.4234 0
M  V30 3829 N 365.091 -1.34144 -0.827227 0
M  V30 3830 C 366.001 -1.27428 -1.96975 0
M  V30 3831 C 367.017 -0.182728 -1.73038 0
M  V30 3832 O 368.193 -0.408426 -1.97215 0
M  V30 3833 C 365.258 -1.02526 -3.31194 0
M  V30 3834 C 364.319 -2.20796 -3.68168 0
M  V30 3835 C 363.552 -1.97073 -4.95982 0
M  V30 3836 O 363.775 -0.926822 -5.6282 0
M  V30 3837 O 362.709 -2.83912 -5.30733 0
M  V30 3838 H 366.535 -2.23537 -2.05584 0
M  V30 3839 H 364.12 -1.14307 -0.961989 0
M  V30 3840 H 366.002 -0.904026 -4.11589 0
M  V30 3841 H 364.677 -0.0945389 -3.23562 0
M  V30 3842 H 363.584 -2.38477 -2.88235 0
M  V30 3843 H 364.917 -3.12243 -3.8048 0
M  V30 3844 N 366.569 1.04691 -1.17803 0
M  V30 3845 C 367.501 2.12571 -0.857097 0
M  V30 3846 C 368.514 1.62174 0.142647 0
M  V30 3847 O 369.703 1.78301 -0.0843387 0
M  V30 3848 C 366.803 3.37915 -0.258216 0
M  V30 3849 C 365.976 4.1757 -1.30207 0
M  V30 3850 C 365.035 5.2125 -0.720029 0
M  V30 3851 O 364.061 5.51888 -1.39314 0
M  V30 3852 N 365.263 5.78466 0.485507 0
M  V30 3853 H 368.028 2.40698 -1.78562 0
M  V30 3854 H 365.589 1.20831 -1.07757 0
M  V30 3855 H 367.581 4.04442 0.144584 0
M  V30 3856 H 366.151 3.07281 0.574199 0
M  V30 3857 H 365.371 3.46458 -1.88043 0
M  V30 3858 H 366.659 4.67586 -2.00601 0
M  V30 3859 H 366.057 5.55866 1.05022 0
M  V30 3860 H 364.614 6.4649 0.830307 0
M  V30 3861 N 368.047 0.979072 1.23499 0
M  V30 3862 C 368.977 0.537606 2.27227 0
M  V30 3863 C 369.958 -0.428539 1.64613 0
M  V30 3864 O 371.143 -0.322191 1.91509 0
M  V30 3865 C 368.273 -0.162052 3.46922 0
M  V30 3866 C 367.227 0.721242 4.21879 0
M  V30 3867 C 366.553 -0.110555 5.34586 0
M  V30 3868 C 367.853 2.01141 4.82016 0
M  V30 3869 H 369.547 1.40462 2.64406 0
M  V30 3870 H 367.093 0.67684 1.27102 0
M  V30 3871 H 369.046 -0.482192 4.18632 0
M  V30 3872 H 367.77 -1.06351 3.08799 0
M  V30 3873 H 366.429 1.02482 3.51984 0
M  V30 3874 H 366.077 -1.0125 4.92704 0
M  V30 3875 H 365.777 0.477325 5.85658 0
M  V30 3876 H 367.301 -0.425107 6.09118 0
M  V30 3877 H 368.715 1.75612 5.45741 0
M  V30 3878 H 367.112 2.54695 5.43369 0
M  V30 3879 H 368.182 2.69909 4.02836 0
M  V30 3880 N 369.525 -1.3858 0.750561 0
M  V30 3881 C 370.455 -2.33102 0.136237 0
M  V30 3882 C 371.436 -1.54713 -0.706965 0
M  V30 3883 O 372.621 -1.83043 -0.648769 0
M  V30 3884 C 369.751 -3.38882 -0.760017 0
M  V30 3885 C 368.705 -4.27995 -0.0197785 0
M  V30 3886 C 368.031 -5.24605 -1.03408 0
M  V30 3887 C 369.331 -5.09554 1.14684 0
M  V30 3888 H 371.025 -2.84726 0.925822 0
M  V30 3889 H 368.571 -1.36898 0.446654 0
M  V30 3890 H 370.524 -4.0397 -1.19943 0
M  V30 3891 H 369.248 -2.85734 -1.58189 0
M  V30 3892 H 367.907 -3.64409 0.400184 0
M  V30 3893 H 367.555 -4.67746 -1.84994 0
M  V30 3894 H 367.255 -5.85081 -0.543464 0
M  V30 3895 H 368.779 -5.9257 -1.47288 0
M  V30 3896 H 370.193 -5.67899 0.785118 0
M  V30 3897 H 368.59 -5.7925 1.56812 0
M  V30 3898 H 369.66 -4.4347 1.96118 0
M  V30 3899 N 371.003 -0.499398 -1.49478 0
M  V30 3900 C 371.966 0.268838 -2.27618 0
M  V30 3901 C 372.966 0.895383 -1.33565 0
M  V30 3902 O 374.156 0.760164 -1.56739 0
M  V30 3903 C 371.288 1.38559 -3.11471 0
M  V30 3904 H 372.481 -0.416812 -2.96989 0
M  V30 3905 H 370.034 -0.254313 -1.54217 0
M  V30 3906 H 370.769 2.10544 -2.46661 0
M  V30 3907 H 370.554 0.941797 -3.80621 0
M  V30 3908 H 372.044 1.92678 -3.70493 0
M  V30 3909 N 372.481 1.55866 -0.233164 0
M  V30 3910 C 373.411 2.23783 0.666599 0
M  V30 3911 C 374.392 1.21343 1.19205 0
M  V30 3912 O 375.577 1.4996 1.23392 0
M  V30 3913 C 372.707 2.92671 1.86978 0
M  V30 3914 C 371.661 4.01682 1.47768 0
M  V30 3915 C 370.987 4.57926 2.76058 0
M  V30 3916 C 372.287 5.18126 0.658993 0
M  V30 3917 H 373.981 2.99232 0.100306 0
M  V30 3918 H 371.527 1.43924 0.046804 0
M  V30 3919 H 373.48 3.3888 2.50476 0
M  V30 3920 H 372.204 2.14688 2.46123 0
M  V30 3921 H 370.863 3.56222 0.866106 0
M  V30 3922 H 370.511 3.76659 3.33372 0
M  V30 3923 H 370.211 5.31505 2.50552 0
M  V30 3924 H 371.735 5.06859 3.40479 0
M  V30 3925 H 373.149 5.60644 1.19795 0
M  V30 3926 H 371.546 5.98009 0.500552 0
M  V30 3927 H 372.616 4.83763 -0.331856 0
M  V30 3928 N 373.959 -0.0401083 1.57549 0
M  V30 3929 C 374.869 -1.06133 2.0922 0
M  V30 3930 C 375.885 -1.40356 1.0284 0
M  V30 3931 O 377.061 -1.49897 1.34509 0
M  V30 3932 C 374.126 -2.34658 2.55218 0
M  V30 3933 C 373.187 -2.07117 3.76033 0
M  V30 3934 C 372.42 -3.29514 4.19829 0
M  V30 3935 O 372.643 -4.39794 3.63232 0
M  V30 3936 O 371.577 -3.15863 5.12362 0
M  V30 3937 H 375.403 -0.652244 2.96613 0
M  V30 3938 H 372.988 -0.256368 1.47184 0
M  V30 3939 H 374.87 -3.10239 2.85184 0
M  V30 3940 H 373.545 -2.74883 1.70941 0
M  V30 3941 H 372.452 -1.29139 3.51104 0
M  V30 3942 H 373.785 -1.71754 4.61261 0
M  V30 3943 N 375.437 -1.54477 -0.31217 0
M  V30 3944 C 376.665 -1.77205 -1.068 0
M  V30 3945 C 377.08 -0.526114 -1.81321 0
M  V30 3946 O 376.437 0.503647 -1.75413 0
M  V30 3947 C 376.488 -2.97253 -2.05725 0
M  V30 3948 O 376.209 -4.1703 -1.34228 0
M  V30 3949 C 377.71 -3.32281 -2.93435 0
M  V30 3950 H 374.93 -0.591287 -0.317208 0
M  V30 3951 H 377.474 -2.01398 -0.354834 0
M  V30 3952 H 375.629 -2.753 -2.72559 0
M  V30 3953 H 376.043 -4.84636 -2.00571 0
M  V30 3954 H 377.517 -4.19551 -3.58721 0
M  V30 3955 H 377.994 -2.49945 -3.61143 0
M  V30 3956 H 378.6 -3.56353 -2.32147 0
M  V30 3957 N 376.915 0.57481 -1.46744 0
M  V30 3958 C 377.878 1.66533 -1.57478 0
M  V30 3959 C 378.878 1.54338 -0.451263 0
M  V30 3960 O 380.068 1.58814 -0.715813 0
M  V30 3961 C 377.2 3.05999 -1.50259 0
M  V30 3962 H 378.393 1.58372 -2.54673 0
M  V30 3963 H 375.946 0.793301 -1.34672 0
M  V30 3964 H 376.681 3.19709 -0.543725 0
M  V30 3965 H 376.466 3.16259 -2.31781 0
M  V30 3966 H 377.956 3.8537 -1.60872 0
M  V30 3967 N 378.394 1.34581 0.820102 0
M  V30 3968 C 379.324 1.29038 1.94606 0
M  V30 3969 C 380.305 0.1673 1.69275 0
M  V30 3970 O 381.49 0.360112 1.90832 0
M  V30 3971 C 378.62 1.04793 3.31113 0
M  V30 3972 C 377.574 2.13597 3.70891 0
M  V30 3973 C 376.9 1.74537 5.05412 0
M  V30 3974 C 378.2 3.55451 3.8269 0
M  V30 3975 H 379.894 2.23248 1.99501 0
M  V30 3976 H 377.44 1.0747 0.958449 0
M  V30 3977 H 379.393 0.995592 4.0947 0
M  V30 3978 H 378.117 0.0702565 3.26524 0
M  V30 3979 H 376.776 2.17905 2.9481 0
M  V30 3980 H 376.424 0.754226 4.97313 0
M  V30 3981 H 376.124 2.47361 5.32997 0
M  V30 3982 H 377.648 1.70803 5.86224 0
M  V30 3983 H 379.062 3.5354 4.51312 0
M  V30 3984 H 377.459 4.26922 4.21732 0
M  V30 3985 H 378.529 3.92587 2.84611 0
M  V30 3986 N 379.872 -1.04064 1.18357 0
M  V30 3987 C 381.102 -1.80654 1.00238 0
M  V30 3988 C 381.51 -1.83713 -0.452362 0
M  V30 3989 O 380.853 -1.27135 -1.32599 0
M  V30 3990 C 380.915 -3.27582 1.48088 0
M  V30 3991 C 380.579 -3.48184 2.96002 0
M  V30 3992 C 381.576 -3.39372 3.93856 0
M  V30 3993 C 379.261 -3.7478 3.34433 0
M  V30 3994 C 381.255 -3.5686 5.28138 0
M  V30 3995 C 378.942 -3.91915 4.68877 0
M  V30 3996 C 379.94 -3.82956 5.65539 0
M  V30 3997 O 379.628 -3.996 6.97549 0
M  V30 3998 H 379.36 -0.575751 0.354241 0
M  V30 3999 H 381.914 -1.32044 1.57333 0
M  V30 4000 H 380.144 -3.77161 0.853588 0
M  V30 4001 H 381.833 -3.8573 1.2636 0
M  V30 4002 H 382.599 -3.18789 3.65511 0
M  V30 4003 H 378.478 -3.80852 2.59756 0
M  V30 4004 H 382.022 -3.49783 6.03571 0
M  V30 4005 H 377.919 -4.11992 4.96923 0
M  V30 4006 H 378.687 -4.1676 7.04452 0
M  V30 4007 N 381.35 -0.985608 -1.22978 0
M  V30 4008 C 382.59 -0.665487 -1.93263 0
M  V30 4009 C 382.954 0.78706 -1.75127 0
M  V30 4010 O 384.155 1.21826 -2.39608 0
M  V30 4011 C 382.426 -1.0515 -3.41582 0
M  V30 4012 S 383.985 -0.848637 -4.30516 0
M  V30 4013 H 380.803 -0.24355 -0.667985 0
M  V30 4014 H 383.405 -1.26635 -1.48942 0
M  V30 4015 H 382.109 -2.10517 -3.52293 0
M  V30 4016 H 381.64 -0.442134 -3.90908 0
M  V30 4017 H 383.655 0.264717 -4.95493 0
M  V30 4018 N 382.828 1.3818 -0.7579 0
M  V30 4019 C 384.056 2.04301 -0.326937 0
M  V30 4020 C 384.471 1.57163 1.0462 0
M  V30 4021 O 383.828 0.746626 1.66529 0
M  V30 4022 C 383.879 3.59846 -0.345363 0
M  V30 4023 O 383.6 4.05256 -1.66432 0
M  V30 4024 C 385.101 4.4319 0.098927 0
M  V30 4025 H 382.321 0.656443 -0.139012 0
M  V30 4026 H 384.865 1.76786 -1.02796 0
M  V30 4027 H 383.02 3.86182 0.306955 0
M  V30 4028 H 383.434 4.99709 -1.59345 0
M  V30 4029 H 384.908 5.51989 0.0348745 0
M  V30 4030 H 385.385 4.23947 1.14741 0
M  V30 4031 H 385.991 4.22051 -0.52468 0
M  V30 4032 N 384.306 0.507319 1.49211 0
M  V30 4033 C 385.256 -0.287112 2.26185 0
M  V30 4034 C 386.24 -0.929983 1.31302 0
M  V30 4035 O 387.432 -0.836538 1.55984 0
M  V30 4036 C 384.561 -1.34718 3.15763 0
M  V30 4037 C 383.647 -0.710235 4.18111 0
M  V30 4038 N 384.038 0.190836 5.0544 0
M  V30 4039 C 382.336 -0.97009 4.35322 0
M  V30 4040 C 383.037 0.55606 5.79036 0
M  V30 4041 N 382.013 -0.0775232 5.43545 0
M  V30 4042 H 385.815 0.406445 2.91076 0
M  V30 4043 H 383.329 0.323814 1.59139 0
M  V30 4044 H 385.326 -1.92982 3.69545 0
M  V30 4045 H 383.986 -2.04235 2.52424 0
M  V30 4046 H 384.997 0.562047 5.14841 0
M  V30 4047 H 381.674 -1.65753 3.83187 0
M  V30 4048 H 383.064 1.2936 6.5933 0
M  V30 4049 N 385.784 -1.5574 0.241426 0
M  V30 4050 C 386.717 -2.17168 -0.700935 0
M  V30 4051 C 387.695 -1.12206 -1.1768 0
M  V30 4052 O 388.879 -1.40565 -1.25593 0
M  V30 4053 C 386.006 -2.76796 -1.95196 0
M  V30 4054 C 385.052 -3.94764 -1.61442 0
M  V30 4055 S 385.885 -5.30613 -0.72182 0
M  V30 4056 C 387.041 -5.93691 -1.98197 0
M  V30 4057 H 387.274 -2.96761 -0.178882 0
M  V30 4058 H 384.807 -1.54378 0.0259299 0
M  V30 4059 H 386.765 -3.11787 -2.67019 0
M  V30 4060 H 385.426 -1.9716 -2.44514 0
M  V30 4061 H 384.619 -4.35057 -2.54443 0
M  V30 4062 H 384.221 -3.61022 -0.976672 0
M  V30 4063 H 386.513 -6.10874 -2.92983 0
M  V30 4064 H 387.456 -6.89258 -1.62262 0
M  V30 4065 H 387.864 -5.22709 -2.13156 0
M  V30 4066 N 387.262 0.0317525 -1.57568 0
M  V30 4067 C 388.539 0.758366 -1.803 0
M  V30 4068 C 388.919 1.93718 -0.838845 0
M  V30 4069 O 388.267 2.28187 0.119571 0
M  V30 4070 C 388.477 1.19392 -3.27943 0
M  V30 4071 C 389.825 1.61094 -3.92854 0
M  V30 4072 O 390.849 1.28857 -3.32076 0
M  V30 4073 O 389.708 2.20918 -4.99858 0
M  V30 4074 H 386.802 0.366514 -0.741348 0
M  V30 4075 H 389.348 0.00873765 -1.69698 0
M  V30 4076 H 388.12 0.352275 -3.89711 0
M  V30 4077 H 387.743 2.00365 -3.43424 0
M  V30 4078 N 388.74 1.54641 0.303973 0
M  V30 4079 C 390.017 1.64455 1.05896 0
M  V30 4080 C 390.397 0.490923 2.05312 0
M  V30 4081 O 389.745 -0.512685 2.22674 0
M  V30 4082 C 389.955 3.02331 1.74347 0
M  V30 4083 C 391.303 3.59045 2.26653 0
M  V30 4084 O 392.327 3.04764 1.84384 0
M  V30 4085 O 391.186 4.54081 3.04093 0
M  V30 4086 H 388.28 0.666729 0.489287 0
M  V30 4087 H 390.826 1.66986 0.302298 0
M  V30 4088 H 389.598 3.77734 1.02142 0
M  V30 4089 H 389.221 3.03565 2.56777 0
M  V30 4090 N 390.218 -0.567019 1.47046 0
M  V30 4091 C 391.629 -1.14916 1.47143 0
M  V30 4092 C 391.98 -1.94954 0.220767 0
M  V30 4093 O 391.105 -2.05602 -0.67505 0
M  V30 4094 C 391.7 -2.09069 2.666 0
M  V30 4095 C 390.259 -2.62575 2.69687 0
M  V30 4096 C 389.406 -1.38755 2.40088 0
M  V30 4097 H 392.357 -0.354126 1.54699 0
M  V30 4098 H 392.378 -2.92789 2.43011 0
M  V30 4099 H 391.89 -1.50789 3.57609 0
M  V30 4100 H 389.991 -3.24681 1.82792 0
M  V30 4101 H 390.104 -3.04239 3.70102 0
M  V30 4102 H 388.468 -1.69098 1.90468 0
M  V30 4103 H 389.251 -0.822822 3.33293 0
M  V30 4104 N 391.696 -1.35014 -0.812953 0
M  V30 4105 C 392.921 -1.31187 -1.60639 0
M  V30 4106 C 393.346 0.109382 -1.87782 0
M  V30 4107 O 392.704 1.07424 -1.46047 0
M  V30 4108 C 392.752 -2.11809 -2.91838 0
M  V30 4109 O 391.856 -1.49444 -3.8437 0
M  V30 4110 H 391.197 -0.450084 -0.488181 0
M  V30 4111 H 393.727 -1.77963 -1.00947 0
M  V30 4112 H 393.737 -2.23531 -3.41318 0
M  V30 4113 H 392.412 -3.15137 -2.71407 0
M  V30 4114 H 390.989 -1.46524 -3.42907 0
M  V30 4115 N 393.175 1.03435 -1.18907 0
M  V30 4116 C 394.586 1.58195 -0.991523 0
M  V30 4117 C 394.937 1.90801 0.457081 0
M  V30 4118 O 394.062 1.70272 1.33553 0
M  V30 4119 C 394.657 2.87432 -1.79355 0
M  V30 4120 C 393.216 3.38785 -1.64017 0
M  V30 4121 C 392.363 2.12292 -1.78402 0
M  V30 4122 H 395.314 0.860299 -1.33359 0
M  V30 4123 H 395.335 3.58096 -1.28638 0
M  V30 4124 H 394.847 2.63669 -2.84781 0
M  V30 4125 H 392.948 3.67547 -0.611536 0
M  V30 4126 H 393.061 4.12186 -2.44212 0
M  V30 4127 H 391.425 2.23901 -1.2141 0
M  V30 4128 H 392.208 1.90977 -2.85277 0
M  V30 4129 N 394.653 0.992116 1.22453 0
M  V30 4130 C 396.069 0.702713 1.43297 0
M  V30 4131 C 396.269 -0.726909 1.87932 0
M  V30 4132 O 395.325 -1.49792 2.0327 0
M  V30 4133 C 396.638 1.70762 2.47509 0
M  V30 4134 C 398.186 1.72298 2.61309 0
M  V30 4135 C 398.661 2.71649 3.68742 0
M  V30 4136 N 400.152 2.70239 3.76199 0
M  V30 4137 C 400.887 3.43778 4.58917 0
M  V30 4138 N 400.383 4.26914 5.45633 0
M  V30 4139 N 402.176 3.32487 4.5322 0
M  V30 4140 H 394.327 1.91543 0.917871 0
M  V30 4141 H 396.59 0.826031 0.465162 0
M  V30 4142 H 396.296 2.73059 2.21657 0
M  V30 4143 H 396.17 1.49985 3.46099 0
M  V30 4144 H 398.557 0.706989 2.86506 0
M  V30 4145 H 398.638 1.97143 1.62997 0
M  V30 4146 H 398.282 3.73397 3.44292 0
M  V30 4147 H 398.212 2.44074 4.66622 0
M  V30 4148 H 400.703 2.09912 3.14237 0
M  V30 4149 H 401.016 4.79855 6.05771 0
M  V30 4150 H 399.361 4.31002 5.45218 0
M  V30 4151 H 402.552 2.6698 3.84499 0
M  V30 4152 H 402.725 3.90058 5.17454 0
M  V30 4153 N 396.131 -1.37776 0.765217 0
M  V30 4154 C 397.041 -2.34135 0.147666 0
M  V30 4155 C 398.057 -1.59854 -0.687215 0
M  V30 4156 O 399.233 -1.91983 -0.608659 0
M  V30 4157 C 396.298 -3.3901 -0.72617 0
M  V30 4158 C 395.359 -4.2912 0.124417 0
M  V30 4159 C 394.592 -5.28986 -0.707807 0
M  V30 4160 O 394.815 -5.36205 -1.94525 0
M  V30 4161 O 393.749 -6.01779 -0.12046 0
M  V30 4162 H 397.575 -2.88664 0.943758 0
M  V30 4163 H 395.16 -1.39824 0.526277 0
M  V30 4164 H 397.042 -4.03195 -1.22524 0
M  V30 4165 H 395.717 -2.86819 -1.50056 0
M  V30 4166 H 394.624 -3.68057 0.669696 0
M  V30 4167 H 395.957 -4.84598 0.861736 0
M  V30 4168 N 397.609 -0.515225 -1.4894 0
M  V30 4169 C 398.542 0.302518 -2.26186 0
M  V30 4170 C 399.52 0.957895 -1.31389 0
M  V30 4171 O 400.704 0.985198 -1.60705 0
M  V30 4172 C 397.831 1.42719 -3.07163 0
M  V30 4173 C 396.877 0.884736 -4.17223 0
M  V30 4174 S 397.71 -0.235767 -5.34981 0
M  V30 4175 C 398.866 0.891731 -6.19515 0
M  V30 4176 H 399.099 -0.353076 -2.95196 0
M  V30 4177 H 396.632 -0.300753 -1.51443 0
M  V30 4178 H 398.59 2.07152 -3.54398 0
M  V30 4179 H 397.251 2.05445 -2.37595 0
M  V30 4180 H 396.444 1.72801 -4.73451 0
M  V30 4181 H 396.046 0.317362 -3.72651 0
M  V30 4182 H 398.338 1.79377 -6.53322 0
M  V30 4183 H 399.281 0.367751 -7.07144 0
M  V30 4184 H 399.689 1.16548 -5.52338 0
M  V30 4185 N 399.087 1.5561 -0.249682 0
M  V30 4186 C 400.336 1.98187 0.37479 0
M  V30 4187 C 400.649 1.14111 1.58865 0
M  V30 4188 O 401.855 1.46714 2.28445 0
M  V30 4189 C 400.311 3.52661 0.718192 0
M  V30 4190 C 399.919 4.45481 -0.474428 0
M  V30 4191 C 401.663 4.03888 1.3067 0
M  V30 4192 C 399.57 5.91303 -0.107026 0
M  V30 4193 H 398.5 0.740159 0.143808 0
M  V30 4194 H 401.151 1.80125 -0.350336 0
M  V30 4195 H 399.533 3.66429 1.50152 0
M  V30 4196 H 400.707 4.43473 -1.25172 0
M  V30 4197 H 399.022 4.04751 -0.978052 0
M  V30 4198 H 401.619 5.10358 1.59496 0
M  V30 4199 H 401.962 3.51401 2.23211 0
M  V30 4200 H 402.495 3.93457 0.586211 0
M  V30 4201 H 399.234 6.47833 -0.999642 0
M  V30 4202 H 398.754 5.9644 0.634013 0
M  V30 4203 H 400.433 6.46258 0.309807 0
M  V30 4204 N 400.565 -0.0233959 1.57583 0
M  V30 4205 C 401.513 -1.04063 2.08023 0
M  V30 4206 C 402.507 -1.37084 0.995204 0
M  V30 4207 O 403.713 -1.35923 1.18004 0
M  V30 4208 H 400.088 -0.353144 0.663922 0
M  V30 4209 H 402.059 -0.589453 2.9252 0
M  V30 4210 C 400.808 -2.33123 2.57971 0
M  V30 4211 H 400.131 -2.08577 3.4108 0
M  V30 4212 H 401.571 -3.02632 2.96967 0
M  V30 4213 C 400.03 -3.02483 1.48342 0
M  V30 4214 O 400.56 -3.92541 0.852898 0
M  V30 4215 N 398.766 -2.63909 1.21658 0
M  V30 4216 H 398.313 -1.90758 1.73116 0
M  V30 4217 H 398.271 -3.10633 0.485218 0
M  V30 4218 N 402.043 -1.548 -0.295768 0
M  V30 4219 C 402.991 -1.86874 -1.38495 0
M  V30 4220 C 403.985 -0.742938 -1.52239 0
M  V30 4221 O 405.191 -0.926999 -1.54294 0
M  V30 4222 H 401.566 -0.592786 -0.462719 0
M  V30 4223 H 403.537 -2.77904 -1.08682 0
M  V30 4224 C 402.286 -2.13732 -2.74252 0
M  V30 4225 H 401.609 -2.99835 -2.64459 0
M  V30 4226 H 403.049 -2.4011 -3.49461 0
M  V30 4227 C 401.508 -0.937539 -3.23592 0
M  V30 4228 O 402.038 -0.160665 -4.01379 0
M  V30 4229 N 400.244 -0.741478 -2.80981 0
M  V30 4230 H 399.791 -1.37489 -2.1784 0
M  V30 4231 H 399.749 0.0597103 -3.14343 0
M  V30 4232 N 403.521 0.559213 -1.47345 0
M  V30 4233 C 404.768 1.31648 -1.53867 0
M  V30 4234 C 405.096 1.93468 -0.200104 0
M  V30 4235 O 404.351 1.78295 0.806799 0
M  V30 4236 C 404.65 2.44853 -2.6035 0
M  V30 4237 C 404.316 2.00876 -4.03683 0
M  V30 4238 C 402.978 1.88599 -4.42701 0
M  V30 4239 C 405.33 1.67279 -4.93626 0
M  V30 4240 C 402.658 1.41017 -5.69501 0
M  V30 4241 C 405.01 1.21169 -6.20887 0
M  V30 4242 C 403.674 1.07487 -6.58789 0
M  V30 4243 H 402.944 0.481734 -0.56304 0
M  V30 4244 H 405.591 0.627301 -1.80934 0
M  V30 4245 H 403.896 3.19318 -2.27032 0
M  V30 4246 H 405.593 3.03039 -2.62619 0
M  V30 4247 H 402.183 2.11374 -3.72853 0
M  V30 4248 H 406.367 1.75638 -4.64182 0
M  V30 4249 H 401.623 1.29086 -5.97618 0
M  V30 4250 H 405.797 0.942345 -6.89995 0
M  V30 4251 H 403.424 0.703946 -7.56934 0
M  V30 4252 N 404.999 1.35443 0.805782 0
M  V30 4253 C 406.415 1.15499 1.10146 0
M  V30 4254 C 406.615 -0.0319975 2.01475 0
M  V30 4255 O 405.671 -0.70236 2.42535 0
M  V30 4256 C 406.984 2.45833 1.73166 0
M  V30 4257 C 408.532 2.52047 1.85583 0
M  V30 4258 C 409.007 3.82427 2.52019 0
M  V30 4259 N 410.498 3.83682 2.59504 0
M  V30 4260 C 411.233 4.81294 3.11679 0
M  V30 4261 N 410.729 5.89294 3.64287 0
M  V30 4262 N 412.522 4.6873 3.1024 0
M  V30 4263 H 404.673 2.11469 0.198678 0
M  V30 4264 H 406.936 0.93594 0.150731 0
M  V30 4265 H 406.642 3.32874 1.13526 0
M  V30 4266 H 406.516 2.6044 2.72857 0
M  V30 4267 H 408.903 1.65435 2.44367 0
M  V30 4268 H 408.984 2.41354 0.847455 0
M  V30 4269 H 408.628 4.69437 1.93885 0
M  V30 4270 H 408.558 3.90409 3.53395 0
M  V30 4271 H 411.049 3.05648 2.22234 0
M  V30 4272 H 411.362 6.59768 4.02401 0
M  V30 4273 H 409.707 5.92985 3.62483 0
M  V30 4274 H 412.898 3.83496 2.68419 0
M  V30 4275 H 413.071 5.44965 3.50596 0
M  V30 4276 N 406.477 -1.02803 1.19454 0
M  V30 4277 C 407.409 -2.11181 0.890807 0
M  V30 4278 C 408.422 -1.6238 -0.116829 0
M  V30 4279 O 409.611 -1.78144 0.112694 0
M  V30 4280 C 406.711 -3.37461 0.311942 0
M  V30 4281 C 405.884 -4.15446 1.36834 0
M  V30 4282 C 404.943 -5.20039 0.802864 0
M  V30 4283 O 403.969 -5.49602 1.48077 0
M  V30 4284 N 405.171 -5.79165 -0.393417 0
M  V30 4285 H 407.936 -2.37827 1.82369 0
M  V30 4286 H 405.497 -1.19101 1.09666 0
M  V30 4287 H 407.489 -4.0462 -0.0802225 0
M  V30 4288 H 406.059 -3.08156 -0.52524 0
M  V30 4289 H 405.279 -3.43423 1.93531 0
M  V30 4290 H 406.567 -4.64335 2.08015 0
M  V30 4291 H 405.965 -5.57466 -0.961658 0
M  V30 4292 H 404.522 -6.47729 -0.727351 0
M  V30 4293 N 407.956 -0.998596 -1.21925 0
M  V30 4294 C 409.202 -0.678667 -1.91107 0
M  V30 4295 C 409.535 0.78791 -1.77498 0
M  V30 4296 O 408.81 1.57043 -1.1475 0
M  V30 4297 C 409.093 -1.09245 -3.43129 0
M  V30 4298 C 408.946 -2.61801 -3.6576 0
M  V30 4299 C 410.265 -0.649984 -4.35274 0
M  V30 4300 H 407.384 -0.248025 -0.694012 0
M  V30 4301 H 410.026 -1.24314 -1.43688 0
M  V30 4302 H 408.176 -0.612171 -3.83647 0
M  V30 4303 H 409.848 -3.17543 -3.34611 0
M  V30 4304 H 408.091 -3.03609 -3.09845 0
M  V30 4305 H 408.762 -2.85804 -4.7225 0
M  V30 4306 H 411.238 -1.0626 -4.02303 0
M  V30 4307 H 410.114 -0.967743 -5.40302 0
M  V30 4308 H 410.375 0.449139 -4.39813 0
M  V30 4309 N 409.434 1.37368 -0.772513 0
M  V30 4310 C 410.366 2.28899 -0.117502 0
M  V30 4311 C 411.379 1.4867 0.663405 0
M  V30 4312 O 412.568 1.71314 0.501372 0
M  V30 4313 C 409.668 3.2788 0.857192 0
M  V30 4314 C 408.841 4.37207 0.129938 0
M  V30 4315 C 407.9 5.16257 1.01811 0
M  V30 4316 O 406.926 5.67159 0.481601 0
M  V30 4317 N 408.128 5.31058 2.3443 0
M  V30 4318 H 410.893 2.85752 -0.903662 0
M  V30 4319 H 408.454 1.49353 -0.62493 0
M  V30 4320 H 410.446 3.77647 1.45482 0
M  V30 4321 H 409.016 2.7179 1.54432 0
M  V30 4322 H 408.236 3.88827 -0.648605 0
M  V30 4323 H 409.524 5.07434 -0.372559 0
M  V30 4324 H 408.922 4.91287 2.80452 0
M  V30 4325 H 407.479 5.84131 2.89197 0
M  V30 4326 N 410.912 0.523116 1.48665 0
M  V30 4327 C 411.859 -0.243398 2.29513 0
M  V30 4328 C 412.829 -0.940139 1.36933 0
M  V30 4329 O 414.014 -0.942503 1.65896 0
M  V30 4330 C 411.154 -1.28855 3.20141 0
M  V30 4331 C 410.267 -0.60135 4.27794 0
M  V30 4332 C 409.402 -1.62884 5.05611 0
M  V30 4333 C 408.441 -0.924726 6.05075 0
M  V30 4334 N 407.578 -1.89744 6.75975 0
M  V30 4335 H 412.418 0.452234 2.94549 0
M  V30 4336 H 409.955 0.234858 1.45213 0
M  V30 4337 H 411.913 -1.90674 3.71079 0
M  V30 4338 H 410.543 -1.95266 2.57043 0
M  V30 4339 H 409.595 0.130623 3.80176 0
M  V30 4340 H 410.907 -0.0481585 4.98777 0
M  V30 4341 H 410.061 -2.32149 5.60528 0
M  V30 4342 H 408.8 -2.21592 4.34452 0
M  V30 4343 H 407.805 -0.217966 5.49368 0
M  V30 4344 H 409.03 -0.343851 6.78229 0
M  V30 4345 H 406.976 -2.47373 6.07571 0
M  V30 4346 H 406.893 -1.3955 7.43009 0
M  V30 4347 H 408.161 -2.58229 7.35485 0
M  V30 4348 N 412.39 -1.55475 0.257931 0
M  V30 4349 C 413.637 -1.99207 -0.363728 0
M  V30 4350 C 413.965 -1.1462 -1.57139 0
M  V30 4351 O 413.22 -0.199653 -1.94679 0
M  V30 4352 C 413.519 -3.48183 -0.806433 0
M  V30 4353 C 413.185 -4.49936 0.294684 0
M  V30 4354 C 411.847 -4.77481 0.597076 0
M  V30 4355 C 414.199 -5.10769 1.03751 0
M  V30 4356 C 411.527 -5.63132 1.64618 0
M  V30 4357 C 413.879 -5.97558 2.07622 0
M  V30 4358 C 412.543 -6.23432 2.38514 0
M  V30 4359 H 411.813 -0.728949 -0.133097 0
M  V30 4360 H 414.46 -1.8793 0.368059 0
M  V30 4361 H 412.765 -3.56848 -1.61761 0
M  V30 4362 H 414.462 -3.79415 -1.29789 0
M  V30 4363 H 411.052 -4.28572 0.0488649 0
M  V30 4364 H 415.236 -4.89527 0.817149 0
M  V30 4365 H 410.492 -5.8143 1.89074 0
M  V30 4366 H 414.666 -6.43735 2.65666 0
M  V30 4367 H 412.293 -6.89594 3.19943 0
M  V30 4368 N 413.868 0.0150385 -1.57593 0
M  V30 4369 C 415.145 0.7392 -1.81094 0
M  V30 4370 C 415.525 1.92817 -0.859344 0
M  V30 4371 O 414.873 2.28301 0.095362 0
M  V30 4372 C 415.083 1.15907 -3.29191 0
M  V30 4373 C 416.431 1.56918 -3.9454 0
M  V30 4374 O 417.455 1.25328 -3.33424 0
M  V30 4375 O 416.314 2.15604 -5.02173 0
M  V30 4376 H 413.408 0.358631 -0.745193 0
M  V30 4377 H 415.954 -0.00926156 -1.69697 0
M  V30 4378 H 414.726 0.310921 -3.90063 0
M  V30 4379 H 414.349 1.96711 -3.45529 0
M  V30 4380 N 415.346 1.54954 0.287554 0
M  V30 4381 C 416.256 1.8991 1.37736 0
M  V30 4382 C 417.272 0.794701 1.54792 0
M  V30 4383 O 418.448 1.09243 1.69198 0
M  V30 4384 C 415.513 2.15108 2.71899 0
M  V30 4385 C 414.574 3.38752 2.63715 0
M  V30 4386 C 413.807 3.62739 3.91479 0
M  V30 4387 O 414.03 2.89492 4.91478 0
M  V30 4388 O 412.964 4.56267 3.92561 0
M  V30 4389 H 416.79 2.82652 1.11092 0
M  V30 4390 H 414.375 1.41315 0.484807 0
M  V30 4391 H 416.257 2.32806 3.51254 0
M  V30 4392 H 414.932 1.25551 2.9836 0
M  V30 4393 H 413.839 3.26405 1.82786 0
M  V30 4394 H 415.172 4.28483 2.42205 0
M  V30 4395 N 416.824 -0.551391 1.4764 0
M  V30 4396 C 418.24 -0.877887 1.33287 0
M  V30 4397 C 418.44 -1.98817 0.327721 0
M  V30 4398 O 417.496 -2.51171 -0.258695 0
M  V30 4399 C 418.809 -1.26563 2.72768 0
M  V30 4400 C 420.357 -1.37673 2.81097 0
M  V30 4401 C 420.832 -1.79799 4.21232 0
M  V30 4402 N 422.323 -1.8694 4.23802 0
M  V30 4403 C 423.058 -2.20876 5.29151 0
M  V30 4404 N 422.554 -2.53386 6.448 0
M  V30 4405 N 424.347 -2.217 5.16532 0
M  V30 4406 H 416.498 0.18153 2.11623 0
M  V30 4407 H 418.761 0.0185514 0.947818 0
M  V30 4408 H 418.467 -0.523591 3.47781 0
M  V30 4409 H 418.341 -2.22052 3.04915 0
M  V30 4410 H 420.728 -2.10956 2.06353 0
M  V30 4411 H 420.809 -0.40357 2.52596 0
M  V30 4412 H 420.453 -1.07083 4.96483 0
M  V30 4413 H 420.383 -2.78128 4.4716 0
M  V30 4414 H 422.874 -1.64179 3.40373 0
M  V30 4415 H 423.187 -2.78325 7.20941 0
M  V30 4416 H 421.532 -2.50953 6.48111 0
M  V30 4417 H 424.723 -1.95745 4.25207 0
M  V30 4418 H 424.896 -2.47818 5.98741 0
M  V30 4419 N 418.302 -1.35869 -0.798587 0
M  V30 4420 C 419.232 -1.32118 -1.92528 0
M  V30 4421 C 420.213 -0.194209 -1.68988 0
M  V30 4422 O 421.398 -0.390426 -1.90235 0
M  V30 4423 C 418.528 -1.10047 -3.29404 0
M  V30 4424 C 417.482 -2.19471 -3.67446 0
M  V30 4425 C 416.808 -1.82555 -5.02571 0
M  V30 4426 C 418.108 -3.61495 -3.76987 0
M  V30 4427 H 419.802 -2.26394 -1.95924 0
M  V30 4428 H 417.348 -1.08981 -0.94123 0
M  V30 4429 H 419.301 -1.06061 -4.07835 0
M  V30 4430 H 418.025 -0.122195 -3.26371 0
M  V30 4431 H 416.684 -2.22568 -2.91306 0
M  V30 4432 H 416.332 -0.833249 -4.9605 0
M  V30 4433 H 416.032 -2.5581 -5.28995 0
M  V30 4434 H 417.556 -1.80108 -5.83432 0
M  V30 4435 H 418.97 -3.60676 -4.4563 0
M  V30 4436 H 417.367 -4.33577 -4.14887 0
M  V30 4437 H 418.437 -3.97065 -2.78329 0
M  V30 4438 N 419.78 1.02168 -1.19998 0
M  V30 4439 C 421.026 1.75945 -1.00852 0
M  V30 4440 C 421.359 1.88702 0.458828 0
M  V30 4441 O 420.634 1.40911 1.34069 0
M  V30 4442 C 420.917 3.18154 -1.68671 0
M  V30 4443 C 420.77 3.13224 -3.22817 0
M  V30 4444 C 422.089 4.16711 -1.41561 0
M  V30 4445 H 419.208 0.638673 -0.367785 0
M  V30 4446 H 421.85 1.19222 -1.4794 0
M  V30 4447 H 420 3.66586 -1.28636 0
M  V30 4448 H 421.672 2.72635 -3.72112 0
M  V30 4449 H 419.915 2.50751 -3.53986 0
M  V30 4450 H 420.586 4.13728 -3.65422 0
M  V30 4451 H 423.062 3.76913 -1.76284 0
M  V30 4452 H 421.938 5.14391 -1.91553 0
M  V30 4453 H 422.199 4.40774 -0.342193 0
M  V30 4454 N 421.258 1.00505 1.21394 0
M  V30 4455 C 422.488 0.705584 1.94178 0
M  V30 4456 C 422.896 -0.735846 1.74304 0
M  V30 4457 O 422.239 -1.50954 1.04683 0
M  V30 4458 C 422.301 0.94689 3.46806 0
M  V30 4459 C 421.965 2.37517 3.90429 0
M  V30 4460 C 422.962 3.35539 3.97127 0
M  V30 4461 C 420.647 2.71284 4.22742 0
M  V30 4462 C 422.641 4.65395 4.3553 0
M  V30 4463 C 420.328 4.01356 4.60822 0
M  V30 4464 C 421.326 4.98223 4.67186 0
M  V30 4465 O 421.014 6.25969 5.04399 0
M  V30 4466 H 420.746 0.259216 0.624326 0
M  V30 4467 H 423.3 1.34592 1.55159 0
M  V30 4468 H 421.53 0.249386 3.85895 0
M  V30 4469 H 423.219 0.640804 4.0081 0
M  V30 4470 H 423.985 3.10786 3.7234 0
M  V30 4471 H 419.864 1.96581 4.16985 0
M  V30 4472 H 423.408 5.41002 4.40412 0
M  V30 4473 H 419.305 4.25893 4.85063 0
M  V30 4474 H 420.073 6.30085 5.22431 0
M  V30 4475 N 422.737 -1.36956 0.779787 0
M  V30 4476 C 423.965 -2.03755 0.359398 0
M  V30 4477 C 424.38 -1.58807 -1.02106 0
M  V30 4478 O 423.737 -0.773024 -1.6532 0
M  V30 4479 C 423.788 -3.59251 0.402568 0
M  V30 4480 O 423.509 -4.02557 1.72858 0
M  V30 4481 C 425.01 -4.43291 -0.0284068 0
M  V30 4482 H 422.23 -0.654148 0.149437 0
M  V30 4483 H 424.774 -1.75128 1.05595 0
M  V30 4484 H 422.929 -3.86621 -0.245478 0
M  V30 4485 H 423.343 -4.97111 1.67275 0
M  V30 4486 H 424.817 -5.51975 0.0529466 0
M  V30 4487 H 425.294 -4.25719 -1.07982 0
M  V30 4488 H 425.9 -4.21163 0.591758 0
M  V30 4489 N 424.215 -0.530993 -1.48385 0
M  V30 4490 C 425.44 0.000729535 -2.074 0
M  V30 4491 C 425.865 1.27298 -1.3848 0
M  V30 4492 O 425.223 1.75599 -0.451081 0
M  V30 4493 C 425.271 0.206697 -3.60007 0
M  V30 4494 O 424.375 1.27514 -3.92191 0
M  V30 4495 H 423.716 -0.039583 -0.662819 0
M  V30 4496 H 426.246 -0.739194 -1.9078 0
M  V30 4497 H 426.256 0.42904 -4.05738 0
M  V30 4498 H 424.931 -0.722675 -4.09573 0
M  V30 4499 H 423.508 1.03537 -3.58238 0
M  V30 4500 N 425.693 1.55336 -0.266172 0
M  V30 4501 C 426.94 1.99397 0.353158 0
M  V30 4502 C 427.268 1.15451 1.56529 0
M  V30 4503 O 426.523 0.209974 1.9457 0
M  V30 4504 C 426.822 3.48606 0.787957 0
M  V30 4505 C 426.488 4.49773 -0.318541 0
M  V30 4506 C 425.15 4.77158 -0.62239 0
M  V30 4507 C 427.502 5.10212 -1.06459 0
M  V30 4508 C 424.83 5.62251 -1.67602 0
M  V30 4509 C 427.182 5.96449 -2.10788 0
M  V30 4510 C 425.846 6.22158 -2.41817 0
M  V30 4511 H 425.116 0.729644 0.12923 0
M  V30 4512 H 427.763 1.87732 -0.37802 0
M  V30 4513 H 426.068 3.57701 1.59866 0
M  V30 4514 H 427.765 3.80098 1.27775 0
M  V30 4515 H 424.355 4.2854 -0.0715925 0
M  V30 4516 H 428.539 4.89086 -0.843098 0
M  V30 4517 H 423.795 5.80419 -1.92155 0
M  V30 4518 H 427.969 6.42317 -2.69076 0
M  V30 4519 H 425.596 6.87888 -3.23596 0
M  V30 4520 N 427.171 -0.0066808 1.57599 0
M  V30 4521 C 428.396 -0.707738 1.94951 0
M  V30 4522 C 428.821 -1.66882 0.867868 0
M  V30 4523 O 428.179 -1.80457 -0.17458 0
M  V30 4524 C 428.227 -1.42162 3.31394 0
M  V30 4525 O 427.331 -2.53578 3.25226 0
M  V30 4526 H 426.672 -0.188752 0.636607 0
M  V30 4527 H 429.202 0.0445193 2.04552 0
M  V30 4528 H 429.212 -1.78655 3.66806 0
M  V30 4529 H 427.887 -0.716903 4.09675 0
M  V30 4530 H 426.464 -2.19463 3.01481 0
M  V30 4531 N 428.649 -1.55105 -0.279332 0
M  V30 4532 C 429.581 -1.83952 -1.36727 0
M  V30 4533 C 430.594 -0.723642 -1.45833 0
M  V30 4534 O 431.783 -1.00141 -1.47763 0
M  V30 4535 C 428.883 -1.98183 -2.74912 0
M  V30 4536 C 428.056 -3.28787 -2.88475 0
M  V30 4537 C 427.115 -3.33162 -4.07295 0
M  V30 4538 O 426.141 -4.06576 -3.98353 0
M  V30 4539 N 427.343 -2.60109 -5.18964 0
M  V30 4540 H 430.108 -2.77853 -1.12328 0
M  V30 4541 H 427.669 -1.54945 -0.469442 0
M  V30 4542 H 429.661 -1.98488 -3.52682 0
M  V30 4543 H 428.231 -1.11177 -2.92162 0
M  V30 4544 H 427.451 -3.41075 -1.97641 0
M  V30 4545 H 428.739 -4.14933 -2.94463 0
M  V30 4546 H 428.137 -2.00136 -5.29115 0
M  V30 4547 H 426.694 -2.66143 -5.94988 0
M  V30 4548 N 430.127 0.543554 -1.4793 0
M  V30 4549 C 431.373 1.30201 -1.55485 0
M  V30 4550 C 431.706 1.92925 -0.222201 0
M  V30 4551 O 430.981 1.78586 0.77053 0
M  V30 4552 C 431.264 2.40174 -2.68307 0
M  V30 4553 C 431.117 1.8223 -4.11233 0
M  V30 4554 C 432.436 3.42024 -2.76961 0
M  V30 4555 H 429.555 0.472036 -0.565996 0
M  V30 4556 H 432.197 0.606914 -1.80046 0
M  V30 4557 H 430.347 2.99463 -2.47495 0
M  V30 4558 H 432.019 1.27096 -4.43446 0
M  V30 4559 H 430.262 1.12832 -4.18869 0
M  V30 4560 H 430.933 2.61793 -4.85972 0
M  V30 4561 H 433.409 2.92672 -2.95774 0
M  V30 4562 H 432.285 4.16383 -3.57654 0
M  V30 4563 H 432.546 4.0173 -1.84568 0
M  V30 4564 N 431.605 1.3629 0.791371 0
M  V30 4565 C 432.537 1.26321 1.91248 0
M  V30 4566 C 433.55 0.18313 1.61767 0
M  V30 4567 O 434.739 0.437682 1.73051 0
M  V30 4568 C 431.839 0.925901 3.26007 0
M  V30 4569 C 431.012 2.10746 3.83281 0
M  V30 4570 C 430.071 1.74352 4.96475 0
M  V30 4571 O 429.097 2.46416 5.13096 0
M  V30 4572 N 430.299 0.676058 5.7655 0
M  V30 4573 H 433.064 2.22915 2.00323 0
M  V30 4574 H 430.625 1.29659 0.969546 0
M  V30 4575 H 432.617 0.663636 3.99222 0
M  V30 4576 H 431.187 0.0491581 3.12561 0
M  V30 4577 H 430.407 2.53264 3.02077 0
M  V30 4578 H 431.695 2.8969 4.18279 0
M  V30 4579 H 431.093 0.0776467 5.65647 0
M  V30 4580 H 429.65 0.473612 6.50077 0
M  V30 4581 N 433.083 -1.0153 1.20538 0
M  V30 4582 C 434.329 -1.75408 1.01783 0
M  V30 4583 C 434.662 -1.88943 -0.448814 0
M  V30 4584 O 433.937 -1.4162 -1.33319 0
M  V30 4585 C 434.22 -3.17255 1.70356 0
M  V30 4586 C 434.073 -3.11508 3.24473 0
M  V30 4587 C 435.392 -4.15955 1.43769 0
M  V30 4588 H 432.511 -0.636713 0.371167 0
M  V30 4589 H 435.153 -1.18436 1.4857 0
M  V30 4590 H 433.303 -3.65898 1.30578 0
M  V30 4591 H 434.975 -2.70658 3.73553 0
M  V30 4592 H 433.218 -2.4887 3.55311 0
M  V30 4593 H 433.889 -4.11784 3.67611 0
M  V30 4594 H 436.365 -3.75973 1.7828 0
M  V30 4595 H 435.241 -5.13368 1.94279 0
M  V30 4596 H 435.502 -4.40586 0.365564 0
M  V30 4597 N 434.561 -1.01147 -1.20859 0
M  V30 4598 C 435.801 -0.706331 -1.91808 0
M  V30 4599 C 436.165 0.749736 -1.76757 0
M  V30 4600 O 437.366 1.16716 -2.42138 0
M  V30 4601 C 435.637 -1.12371 -3.39275 0
M  V30 4602 S 437.196 -0.939764 -4.28619 0
M  V30 4603 H 434.014 -0.257665 -0.662669 0
M  V30 4604 H 436.616 -1.29766 -1.46223 0
M  V30 4605 H 435.32 -2.17943 -3.47749 0
M  V30 4606 H 434.851 -0.524952 -3.89882 0
M  V30 4607 H 436.866 0.159556 -4.95943 0
M  V30 4608 N 436.039 1.36541 -0.78704 0
M  V30 4609 C 437.267 2.03561 -0.370199 0
M  V30 4610 C 437.682 1.59347 1.01263 0
M  V30 4611 O 437.039 0.781781 1.64907 0
M  V30 4612 C 437.09 3.59033 -0.421614 0
M  V30 4613 O 436.811 4.01634 -1.7499 0
M  V30 4614 C 438.312 4.433 0.00489763 0
M  V30 4615 H 435.532 0.653346 -0.152904 0
M  V30 4616 H 438.076 1.74566 -1.06522 0
M  V30 4617 H 436.231 3.86746 0.224971 0
M  V30 4618 H 436.645 4.96217 -1.69909 0
M  V30 4619 H 438.119 5.51939 -0.0822184 0
M  V30 4620 H 438.596 4.26285 1.05723 0
M  V30 4621 H 439.202 4.20843 -0.614085 0
M  V30 4622 N 437.518 0.538854 1.48102 0
M  V30 4623 C 438.481 -0.208395 2.28251 0
M  V30 4624 C 439.481 -0.859656 1.35892 0
M  V30 4625 O 440.671 -0.71834 1.58699 0
M  V30 4626 C 437.803 -1.30252 3.15035 0
M  V30 4627 H 438.996 0.495407 2.9578 0
M  V30 4628 H 436.549 0.295112 1.53489 0
M  V30 4629 H 437.284 -2.0393 2.52157 0
M  V30 4630 H 437.069 -0.840551 3.82985 0
M  V30 4631 H 438.559 -1.82787 3.75471 0
M  V30 4632 N 438.996 -1.55193 0.274407 0
M  V30 4633 C 439.959 -2.212 -0.600279 0
M  V30 4634 C 440.959 -1.18963 -1.08187 0
M  V30 4635 O 442.149 -1.43873 -0.982158 0
M  V30 4636 C 439.281 -2.87739 -1.82809 0
M  V30 4637 H 440.474 -2.9989 -0.0239682 0
M  V30 4638 H 438.027 -1.5628 0.0250192 0
M  V30 4639 H 438.762 -2.13058 -2.44493 0
M  V30 4640 H 438.547 -3.62658 -1.49069 0
M  V30 4641 H 440.037 -3.38171 -2.45011 0
M  V30 4642 N 440.474 -0.00167713 -1.576 0
M  V30 4643 C 441.722 0.681471 -1.90264 0
M  V30 4644 C 442.043 1.7422 -0.875924 0
M  V30 4645 O 441.313 1.95709 0.0864412 0
M  V30 4646 H 439.893 0.254696 -0.702239 0
M  V30 4647 H 442.555 -0.0429996 -1.94853 0
M  V30 4648 H 441.651 1.15166 -2.90075 0
M  V30 4649 N 441.952 1.55251 0.271103 0
M  V30 4650 C 442.882 1.9127 1.33933 0
M  V30 4651 C 443.863 0.77478 1.5143 0
M  V30 4652 O 445.048 1.03307 1.64442 0
M  V30 4653 C 442.178 2.18627 2.69851 0
M  V30 4654 C 441.132 3.34442 2.67081 0
M  V30 4655 C 440.458 3.47284 4.06569 0
M  V30 4656 C 441.758 4.70784 2.26185 0
M  V30 4657 H 443.452 2.80744 1.04035 0
M  V30 4658 H 440.998 1.35077 0.499017 0
M  V30 4659 H 442.951 2.42413 3.44694 0
M  V30 4660 H 441.675 1.25955 3.01335 0
M  V30 4661 H 440.334 3.10627 1.94695 0
M  V30 4662 H 439.982 2.52074 4.35279 0
M  V30 4663 H 439.682 4.25152 4.0561 0
M  V30 4664 H 441.206 3.73363 4.83148 0
M  V30 4665 H 442.62 4.94102 2.90751 0
M  V30 4666 H 441.017 5.51582 2.36384 0
M  V30 4667 H 442.087 4.69478 1.21319 0
M  V30 4668 N 443.43 -0.535701 1.48216 0
M  V30 4669 C 444.655 -1.32149 1.59848 0
M  V30 4670 C 445.08 -1.86338 0.256842 0
M  V30 4671 O 444.438 -1.64107 -0.770632 0
M  V30 4672 C 444.486 -2.45224 2.64381 0
M  V30 4673 O 443.59 -3.48093 2.21144 0
M  V30 4674 H 442.931 -0.391634 0.536208 0
M  V30 4675 H 445.461 -0.645202 1.94161 0
M  V30 4676 H 445.471 -2.91491 2.85476 0
M  V30 4677 H 444.146 -2.05143 3.61786 0
M  V30 4678 H 442.723 -3.07984 2.10239 0
M  V30 4679 N 444.908 -1.36708 -0.784132 0
M  V30 4680 C 445.838 -1.34153 -1.91116 0
M  V30 4681 C 446.819 -0.212121 -1.68772 0
M  V30 4682 O 448.004 -0.410581 -1.8981 0
M  V30 4683 C 445.134 -1.13535 -3.28218 0
M  V30 4684 C 444.088 -2.23356 -3.65097 0
M  V30 4685 C 443.414 -1.87875 -5.00607 0
M  V30 4686 C 444.714 -3.65473 -3.73131 0
M  V30 4687 H 446.408 -2.28459 -1.93512 0
M  V30 4688 H 443.954 -1.09973 -0.929618 0
M  V30 4689 H 445.907 -1.10381 -4.06687 0
M  V30 4690 H 444.631 -0.156804 -3.26223 0
M  V30 4691 H 443.29 -2.25645 -2.88929 0
M  V30 4692 H 442.938 -0.885814 -4.95139 0
M  V30 4693 H 442.638 -2.61406 -5.26252 0
M  V30 4694 H 444.162 -1.86286 -5.81489 0
M  V30 4695 H 445.576 -3.65382 -4.41779 0
M  V30 4696 H 443.973 -4.37953 -4.10265 0
M  V30 4697 H 445.043 -3.99995 -2.74102 0
M  V30 4698 N 446.386 1.0089 -1.21074 0
M  V30 4699 C 447.634 1.74262 -1.02358 0
M  V30 4700 C 447.955 1.89869 0.444393 0
M  V30 4701 O 447.225 1.44677 1.32081 0
M  V30 4702 H 445.805 0.645615 -0.375754 0
M  V30 4703 H 448.467 1.21596 -1.52317 0
M  V30 4704 H 447.563 2.74328 -1.4883 0
M  V30 4705 N 447.864 1.01787 1.20321 0
M  V30 4706 C 449.113 0.703249 1.89043 0
M  V30 4707 C 449.426 -0.770445 1.79787 0
M  V30 4708 O 450.632 -1.19767 2.43656 0
M  V30 4709 C 449.088 1.20749 3.3904 0
M  V30 4710 C 448.696 2.70817 3.56878 0
M  V30 4711 C 450.44 0.968352 4.13308 0
M  V30 4712 C 448.347 3.14716 5.00708 0
M  V30 4713 H 447.277 0.259354 0.707991 0
M  V30 4714 H 449.928 1.23072 1.36108 0
M  V30 4715 H 448.31 0.607989 3.91305 0
M  V30 4716 H 449.484 3.36327 3.14993 0
M  V30 4717 H 447.799 2.92888 2.95983 0
M  V30 4718 H 450.396 1.27173 5.19356 0
M  V30 4719 H 450.739 -0.095149 4.16191 0
M  V30 4720 H 451.272 1.53129 3.67146 0
M  V30 4721 H 448.011 4.20347 5.02979 0
M  V30 4722 H 447.531 2.53927 5.43398 0
M  V30 4723 H 449.21 3.07426 5.69296 0
M  V30 4724 N 449.342 -1.36122 0.79427 0
M  V30 4725 C 450.591 -1.98361 0.365464 0
M  V30 4726 C 450.904 -1.6374 -1.06997 0
M  V30 4727 O 452.11 -2.19251 -1.60129 0
M  V30 4728 C 450.566 -3.54821 0.602496 0
M  V30 4729 C 450.174 -3.98362 2.04967 0
M  V30 4730 C 451.918 -4.2383 0.238437 0
M  V30 4731 C 449.825 -5.47619 2.2331 0
M  V30 4732 H 448.755 -0.742193 0.13291 0
M  V30 4733 H 451.406 -1.55354 0.976589 0
M  V30 4734 H 449.788 -3.95922 -0.078409 0
M  V30 4735 H 450.962 -3.68447 2.76737 0
M  V30 4736 H 449.277 -3.42206 2.37243 0
M  V30 4737 H 451.874 -5.33529 0.353705 0
M  V30 4738 H 452.217 -4.08264 -0.814006 0
M  V30 4739 H 452.75 -3.88108 0.872769 0
M  V30 4740 H 449.489 -5.68138 3.26955 0
M  V30 4741 H 449.009 -5.79145 1.5605 0
M  V30 4742 H 450.688 -6.13911 2.0426 0
M  V30 4743 N 450.82 -0.546701 -1.47814 0
M  V30 4744 C 451.75 0.195317 -2.32682 0
M  V30 4745 C 452.731 0.918981 -1.43139 0
M  V30 4746 O 453.916 0.901501 -1.72008 0
M  V30 4747 C 451.046 1.23237 -3.247 0
M  V30 4748 C 450 0.625818 -4.234 0
M  V30 4749 C 449.326 1.76674 -5.04669 0
M  V30 4750 C 450.626 -0.413515 -5.2066 0
M  V30 4751 H 452.32 -0.513184 -2.94969 0
M  V30 4752 H 449.866 -0.248241 -1.41844 0
M  V30 4753 H 451.819 1.75955 -3.82907 0
M  V30 4754 H 450.543 1.97067 -2.60446 0
M  V30 4755 H 449.202 0.120023 -3.66403 0
M  V30 4756 H 448.85 2.49383 -4.36826 0
M  V30 4757 H 448.55 1.36673 -5.71484 0
M  V30 4758 H 450.074 2.29738 -5.65732 0
M  V30 4759 H 451.488 0.0272042 -5.73294 0
M  V30 4760 H 449.885 -0.731825 -5.95621 0
M  V30 4761 H 450.955 -1.31325 -4.66778 0
M  V30 4762 N 452.299 1.55045 -0.282633 0
M  V30 4763 C 453.524 2.04628 0.337977 0
M  V30 4764 C 453.949 1.15937 1.48123 0
M  V30 4765 O 453.307 0.159532 1.80597 0
M  V30 4766 C 453.355 3.51854 0.78936 0
M  V30 4767 O 452.459 3.66236 1.89592 0
M  V30 4768 H 451.8 0.660434 0.0687261 0
M  V30 4769 H 454.33 2.00261 -0.419124 0
M  V30 4770 H 454.34 3.93361 1.08311 0
M  V30 4771 H 453.015 4.15873 -0.0470419 0
M  V30 4772 H 451.592 3.36633 1.60413 0
M  V30 4773 N 453.777 0.010035 1.57597 0
M  V30 4774 C 454.707 -0.976857 2.12084 0
M  V30 4775 C 455.688 -1.35191 1.03235 0
M  V30 4776 O 456.873 -1.43389 1.3097 0
M  V30 4777 C 454.003 -2.26548 2.63236 0
M  V30 4778 C 452.957 -2.03175 3.76701 0
M  V30 4779 C 452.283 -3.38138 4.14206 0
M  V30 4780 C 453.583 -1.38625 5.03568 0
M  V30 4781 H 455.277 -0.523145 2.94794 0
M  V30 4782 H 452.823 -0.250195 1.4181 0
M  V30 4783 H 454.776 -2.95952 2.99984 0
M  V30 4784 H 453.5 -2.74051 1.77661 0
M  V30 4785 H 452.159 -1.36195 3.40362 0
M  V30 4786 H 451.807 -3.83363 3.25641 0
M  V30 4787 H 451.507 -3.23312 4.90656 0
M  V30 4788 H 453.031 -4.08841 4.53521 0
M  V30 4789 H 454.445 -1.98 5.38023 0
M  V30 4790 H 452.842 -1.34256 5.84889 0
M  V30 4791 H 453.912 -0.356722 4.83586 0
M  V30 4792 N 455.255 -1.55392 -0.262866 0
M  V30 4793 C 456.218 -1.88181 -1.30846 0
M  V30 4794 C 457.218 -0.757079 -1.41862 0
M  V30 4795 O 458.408 -1.02519 -1.40838 0
M  V30 4796 C 455.54 -2.09609 -2.68844 0
M  V30 4797 H 456.733 -2.81659 -1.02997 0
M  V30 4798 H 454.286 -1.48039 -0.501414 0
M  V30 4799 H 455.021 -1.18547 -3.01856 0
M  V30 4800 H 454.806 -2.91508 -2.62231 0
M  V30 4801 H 456.296 -2.36215 -3.44372 0
M  V30 4802 N 456.733 0.527833 -1.48498 0
M  V30 4803 C 457.663 1.64136 -1.66077 0
M  V30 4804 C 458.644 1.62286 -0.509625 0
M  V30 4805 O 459.829 1.79449 -0.742413 0
M  V30 4806 C 456.959 3.02717 -1.70234 0
M  V30 4807 C 455.913 3.19426 -2.8487 0
M  V30 4808 C 455.239 4.5909 -2.74118 0
M  V30 4809 C 456.539 3.01993 -4.26142 0
M  V30 4810 H 458.233 1.4968 -2.593 0
M  V30 4811 H 455.779 0.718654 -1.24785 0
M  V30 4812 H 457.732 3.80491 -1.8112 0
M  V30 4813 H 456.456 3.18201 -0.735911 0
M  V30 4814 H 455.115 2.4407 -2.73542 0
M  V30 4815 H 454.763 4.71413 -1.7544 0
M  V30 4816 H 454.463 4.71214 -3.51042 0
M  V30 4817 H 455.987 5.3896 -2.86974 0
M  V30 4818 H 457.401 3.69558 -4.38292 0
M  V30 4819 H 455.798 3.2561 -5.04082 0
M  V30 4820 H 456.868 1.98396 -4.42456 0
M  V30 4821 N 458.211 1.37122 0.776871 0
M  V30 4822 C 459.174 1.32301 1.8716 0
M  V30 4823 C 460.174 0.228099 1.59174 0
M  V30 4824 O 461.364 0.483642 1.67352 0
M  V30 4825 C 458.496 1.054 3.24197 0
M  V30 4826 H 459.689 2.29673 1.92848 0
M  V30 4827 H 457.242 1.22077 0.97606 0
M  V30 4828 H 457.977 0.0853872 3.24188 0
M  V30 4829 H 457.762 1.84648 3.45901 0
M  V30 4830 H 459.252 1.04664 4.04271 0
M  V30 4831 N 459.689 -1.00246 1.21608 0
M  V30 4832 C 460.937 -1.73717 1.0328 0
M  V30 4833 C 461.258 -1.90102 -0.434318 0
M  V30 4834 O 460.528 -1.45376 -1.31311 0
M  V30 4835 H 459.108 -0.643613 0.379172 0
M  V30 4836 H 461.77 -1.20787 1.52959 0
M  V30 4837 H 460.866 -2.73535 1.50283 0
M  V30 4838 N 461.167 -1.02423 -1.1978 0
M  V30 4839 C 462.416 -0.713265 -1.88667 0
M  V30 4840 C 462.729 0.7609 -1.80193 0
M  V30 4841 O 463.935 1.18473 -2.44288 0
M  V30 4842 C 462.391 -1.22545 -3.38394 0
M  V30 4843 C 461.999 -2.72706 -3.55437 0
M  V30 4844 C 463.743 -0.990257 -4.12788 0
M  V30 4845 C 461.65 -3.17367 -4.99031 0
M  V30 4846 H 460.58 -0.263105 -0.706606 0
M  V30 4847 H 463.231 -1.23792 -1.35454 0
M  V30 4848 H 461.613 -0.628732 -3.90977 0
M  V30 4849 H 462.787 -3.37993 -3.13205 0
M  V30 4850 H 461.102 -2.94453 -2.94425 0
M  V30 4851 H 463.699 -1.29926 -5.18675 0
M  V30 4852 H 464.042 0.0730761 -4.16236 0
M  V30 4853 H 464.575 -1.55074 -3.66329 0
M  V30 4854 H 461.314 -4.23009 -5.00743 0
M  V30 4855 H 460.834 -2.56805 -5.42044 0
M  V30 4856 H 462.513 -3.10441 -5.67658 0
M  V30 4857 N 462.645 1.35699 -0.801477 0
M  V30 4858 C 463.575 2.32436 -0.222658 0
M  V30 4859 C 464.556 1.5723 0.649057 0
M  V30 4860 O 465.741 1.85324 0.580387 0
M  V30 4861 C 462.871 3.41469 0.633719 0
M  V30 4862 C 461.825 4.27774 -0.139083 0
M  V30 4863 C 461.151 5.28082 0.838666 0
M  V30 4864 C 462.451 5.04946 -1.33517 0
M  V30 4865 H 464.145 2.81094 -1.03086 0
M  V30 4866 H 461.691 1.35146 -0.497155 0
M  V30 4867 H 463.644 4.08143 1.04868 0
M  V30 4868 H 462.368 2.91408 1.47475 0
M  V30 4869 H 461.027 3.62673 -0.535156 0
M  V30 4870 H 460.675 4.7429 1.67506 0
M  V30 4871 H 460.375 5.86695 0.32594 0
M  V30 4872 H 461.899 5.97628 1.25194 0
M  V30 4873 H 463.313 5.64593 -0.995349 0
M  V30 4874 H 461.71 5.7303 -1.78202 0
M  V30 4875 H 462.78 4.35886 -2.12442 0
M  V30 4876 N 464.123 0.554532 1.47522 0
M  V30 4877 C 465.371 0.0294208 2.02079 0
M  V30 4878 C 465.692 -1.32411 1.43151 0
M  V30 4879 O 464.962 -1.863 0.605728 0
M  V30 4880 H 463.542 0.00788672 0.746958 0
M  V30 4881 H 466.204 0.723934 1.80956 0
M  V30 4882 H 465.3 -0.0606745 3.12041 0
M  V30 4883 N 465.601 -1.54893 0.290851 0
M  V30 4884 C 466.85 -1.99111 -0.322113 0
M  V30 4885 C 467.163 -1.18283 -1.55784 0
M  V30 4886 O 468.369 -1.5272 -2.24475 0
M  V30 4887 C 466.825 -3.54442 -0.624438 0
M  V30 4888 C 466.433 -4.44066 0.592373 0
M  V30 4889 C 468.177 -4.07211 -1.19916 0
M  V30 4890 C 466.084 -5.90812 0.263762 0
M  V30 4891 H 465.014 -0.743712 -0.124133 0
M  V30 4892 H 467.665 -1.79132 0.39797 0
M  V30 4893 H 466.047 -3.70281 -1.40384 0
M  V30 4894 H 467.221 -4.39999 1.36886 0
M  V30 4895 H 465.536 -4.02015 1.08502 0
M  V30 4896 H 468.133 -5.14407 -1.45909 0
M  V30 4897 H 468.476 -3.57196 -2.13815 0
M  V30 4898 H 469.009 -3.94873 -0.481687 0
M  V30 4899 H 465.748 -6.44955 1.17105 0
M  V30 4900 H 465.268 -5.97911 -0.475655 0
M  V30 4901 H 466.947 -6.46852 -0.138354 0
M  V30 4902 N 467.08 -0.0183926 -1.57589 0
M  V30 4903 C 468.32 0.666846 -1.93216 0
M  V30 4904 C 468.684 1.69905 -0.894215 0
M  V30 4905 O 469.885 2.436 -1.13633 0
M  V30 4906 C 468.156 1.27684 -3.33814 0
M  V30 4907 S 469.715 1.98464 -3.91353 0
M  V30 4908 H 466.533 0.219826 -0.676164 0
M  V30 4909 H 469.135 -0.0794893 -1.95338 0
M  V30 4910 H 467.839 0.513006 -4.07181 0
M  V30 4911 H 467.37 2.06071 -3.3511 0
M  V30 4912 H 469.385 3.26189 -3.73918 0
M  V30 4913 N 468.558 1.5553 0.254621 0
M  V30 4914 C 469.807 1.76202 0.981612 0
M  V30 4915 C 470.12 0.580883 1.86776 0
M  V30 4916 O 471.326 0.670448 2.63092 0
M  V30 4917 C 469.782 3.11921 1.79537 0
M  V30 4918 C 469.39 4.37659 0.956991 0
M  V30 4919 C 471.134 3.41936 2.51555 0
M  V30 4920 C 469.041 5.64411 1.76619 0
M  V30 4921 H 467.971 0.656841 0.370237 0
M  V30 4922 H 470.622 1.81969 0.236556 0
M  V30 4923 H 469.004 3.00241 2.58208 0
M  V30 4924 H 470.178 4.60307 0.21315 0
M  V30 4925 H 468.493 4.14922 0.350497 0
M  V30 4926 H 471.09 4.33849 3.12536 0
M  V30 4927 H 471.433 2.62905 3.22779 0
M  V30 4928 H 471.966 3.54797 1.799 0
M  V30 4929 H 468.705 6.46241 1.09783 0
M  V30 4930 H 468.225 5.45877 2.48551 0
M  V30 4931 H 469.904 6.03386 2.33527 0
M  V30 4932 N 470.036 -0.519951 1.48776 0
M  V30 4933 C 471.282 -1.27711 1.57536 0
M  V30 4934 C 471.615 -1.92547 0.252866 0
M  V30 4935 O 470.89 -1.7979 -0.742021 0
M  V30 4936 C 471.173 -2.35875 2.72094 0
M  V30 4937 C 471.026 -1.75664 4.1408 0
M  V30 4938 C 472.345 -3.37575 2.82367 0
M  V30 4939 H 469.464 -0.462971 0.573434 0
M  V30 4940 H 472.106 -0.578194 1.80989 0
M  V30 4941 H 470.256 -2.95488 2.52228 0
M  V30 4942 H 471.928 -1.20025 4.45412 0
M  V30 4943 H 470.171 -1.06154 4.20611 0
M  V30 4944 H 470.842 -2.54029 4.90075 0
M  V30 4945 H 473.318 -2.87929 3.00393 0
M  V30 4946 H 472.194 -4.1064 3.64233 0
M  V30 4947 H 472.455 -3.98743 1.90936 0
M  V30 4948 N 471.514 -1.37532 -0.769588 0
M  V30 4949 C 472.76 -1.33057 -1.53048 0
M  V30 4950 C 473.093 0.0841865 -1.94017 0
M  V30 4951 O 472.368 1.04198 -1.64235 0
M  V30 4952 C 472.651 -2.27166 -2.79406 0
M  V30 4953 C 472.504 -3.77429 -2.44677 0
M  V30 4954 C 473.823 -2.19683 -3.81349 0
M  V30 4955 H 470.942 -0.484655 -0.555228 0
M  V30 4956 H 473.584 -1.68251 -0.882702 0
M  V30 4957 H 471.734 -1.97283 -3.34682 0
M  V30 4958 H 473.406 -4.17918 -1.953 0
M  V30 4959 H 471.649 -3.95892 -1.77346 0
M  V30 4960 H 472.32 -4.38716 -3.35011 0
M  V30 4961 H 474.796 -2.46029 -3.35573 0
M  V30 4962 H 473.672 -2.87668 -4.67481 0
M  V30 4963 H 473.933 -1.19045 -4.25771 0
M  V30 4964 N 472.992 0.995999 -1.22138 0
M  V30 4965 C 474.238 1.73767 -1.04561 0
M  V30 4966 C 474.571 1.89633 0.418698 0
M  V30 4967 O 473.846 1.43723 1.3105 0
M  V30 4968 C 474.129 3.14505 -1.75382 0
M  V30 4969 C 473.982 3.06306 -3.29388 0
M  V30 4970 C 475.301 4.13615 -1.50369 0
M  V30 4971 H 472.42 0.630728 -0.38125 0
M  V30 4972 H 475.062 1.16057 -1.50435 0
M  V30 4973 H 473.212 3.63775 -1.36383 0
M  V30 4974 H 474.884 2.64681 -3.77812 0
M  V30 4975 H 473.127 2.43186 -3.59226 0
M  V30 4976 H 473.798 4.05884 -3.74116 0
M  V30 4977 H 476.274 3.73089 -1.84239 0
M  V30 4978 H 475.15 5.10212 -2.02421 0
M  V30 4979 H 475.411 4.39949 -0.435611 0
M  V30 4980 N 474.47 1.03057 1.19235 0
M  V30 4981 C 475.716 0.729098 1.89241 0
M  V30 4982 C 476.049 -0.740573 1.79525 0
M  V30 4983 O 475.324 -1.53946 1.18874 0
M  V30 4984 C 475.607 1.18304 3.40112 0
M  V30 4985 C 475.46 2.71406 3.5869 0
M  V30 4986 C 476.779 0.765161 4.33397 0
M  V30 4987 H 473.898 0.266338 0.687192 0
M  V30 4988 H 476.54 1.28079 1.40341 0
M  V30 4989 H 474.69 0.713672 3.81889 0
M  V30 4990 H 476.362 3.26303 3.26074 0
M  V30 4991 H 474.605 3.11717 3.01687 0
M  V30 4992 H 475.276 2.98225 4.64506 0
M  V30 4993 H 477.752 1.16889 3.99345 0
M  V30 4994 H 476.628 1.11065 5.37546 0
M  V30 4995 H 476.889 -0.332372 4.40849 0
M  V30 4996 N 475.948 -1.35272 0.808662 0
M  V30 4997 C 477.173 -2.03477 0.401475 0
M  V30 4998 C 477.598 -1.60537 -0.980279 0
M  V30 4999 O 476.956 -0.78304 -1.63518 0
M  V30 5000 C 477.004 -3.57181 0.495354 0
M  V30 5001 O 476.108 -4.09474 -0.490397 0
M  V30 5002 H 475.449 -0.642561 0.167366 0
M  V30 5003 H 477.979 -1.72824 1.09512 0
M  V30 5004 H 477.989 -4.06356 0.365912 0
M  V30 5005 H 476.664 -3.87784 1.5032 0
M  V30 5006 H 475.241 -3.71516 -0.321023 0
M  V30 5007 N 477.426 -0.562348 -1.47226 0
M  V30 5008 C 478.675 -0.038041 -2.01664 0
M  V30 5009 C 478.988 1.32199 -1.44162 0
M  V30 5010 O 480.194 1.9365 -1.90294 0
M  V30 5011 C 478.65 -0.0174958 -3.59896 0
M  V30 5012 C 478.258 -1.3746 -4.2639 0
M  V30 5013 C 480.002 0.453934 -4.22066 0
M  V30 5014 C 477.909 -1.31289 -5.76643 0
M  V30 5015 H 476.839 -0.0104511 -0.753928 0
M  V30 5016 H 479.49 -0.710966 -1.69167 0
M  V30 5017 H 477.872 0.721182 -3.89378 0
M  V30 5018 H 479.046 -2.1314 -4.08544 0
M  V30 5019 H 477.361 -1.78438 -3.7623 0
M  V30 5020 H 479.958 0.518584 -5.32179 0
M  V30 5021 H 480.301 1.46706 -3.89594 0
M  V30 5022 H 480.834 -0.230044 -3.97134 0
M  V30 5023 H 477.573 -2.30217 -6.13743 0
M  V30 5024 H 477.093 -0.597973 -5.96812 0
M  V30 5025 H 478.772 -1.01713 -6.38955 0
M  V30 5026 N 478.904 1.54736 -0.299062 0
M  V30 5027 C 480.15 2.01114 0.304123 0
M  V30 5028 C 480.505 1.18376 1.51674 0
M  V30 5029 O 479.798 0.251635 1.8994 0
M  V30 5030 C 479.992 3.50199 0.713835 0
M  V30 5031 C 479.821 4.47366 -0.457531 0
M  V30 5032 C 478.591 4.9631 -0.948933 0
M  V30 5033 C 480.789 4.9755 -1.30186 0
M  V30 5034 N 478.771 5.77327 -2.08726 0
M  V30 5035 C 480.142 5.7625 -2.28771 0
M  V30 5036 C 482.197 4.79739 -1.33246 0
M  V30 5037 C 480.9 6.39036 -3.3019 0
M  V30 5038 C 482.926 5.43343 -2.33521 0
M  V30 5039 C 482.288 6.21874 -3.30836 0
M  V30 5040 H 478.387 0.778318 0.0757992 0
M  V30 5041 H 480.971 1.89925 -0.428536 0
M  V30 5042 H 479.142 3.61681 1.41567 0
M  V30 5043 H 480.874 3.83374 1.29639 0
M  V30 5044 H 477.629 4.7069 -0.52423 0
M  V30 5045 H 478.053 6.22521 -2.66077 0
M  V30 5046 H 482.695 4.18609 -0.59383 0
M  V30 5047 H 480.413 6.99302 -4.04973 0
M  V30 5048 H 483.999 5.31492 -2.3666 0
M  V30 5049 H 482.879 6.70217 -4.07159 0
M  V30 5050 N 480.382 0.0267497 1.57577 0
M  V30 5051 C 481.312 -0.954308 2.13108 0
M  V30 5052 C 482.293 -1.34088 1.04663 0
M  V30 5053 O 483.478 -1.41992 1.32484 0
M  V30 5054 C 480.608 -2.23744 2.65624 0
M  V30 5055 C 479.562 -1.99168 3.78835 0
M  V30 5056 C 478.888 -3.33726 4.17769 0
M  V30 5057 C 480.188 -1.33277 5.0501 0
M  V30 5058 H 481.882 -0.491848 2.95332 0
M  V30 5059 H 479.428 -0.23514 1.42067 0
M  V30 5060 H 481.381 -2.92754 3.03106 0
M  V30 5061 H 480.105 -2.72151 1.80558 0
M  V30 5062 H 478.764 -1.32577 3.41788 0
M  V30 5063 H 478.412 -3.79888 3.29688 0
M  V30 5064 H 478.112 -3.18089 4.94058 0
M  V30 5065 H 479.636 -4.04008 4.57832 0
M  V30 5066 H 481.05 -1.92283 5.40093 0
M  V30 5067 H 479.447 -1.28045 5.8628 0
M  V30 5068 H 480.517 -0.305411 4.83937 0
M  V30 5069 N 481.861 -1.55662 -0.24637 0
M  V30 5070 C 483.108 -1.77519 -0.974335 0
M  V30 5071 C 483.436 -0.591165 -1.85298 0
M  V30 5072 O 482.691 0.425497 -1.91018 0
M  V30 5073 C 482.99 -3.04885 -1.86494 0
M  V30 5074 C 482.656 -4.36209 -1.14161 0
M  V30 5075 C 481.318 -4.71896 -0.941701 0
M  V30 5076 C 483.67 -5.17391 -0.628957 0
M  V30 5077 C 480.998 -5.86299 -0.216852 0
M  V30 5078 C 483.35 -6.32546 0.0824273 0
M  V30 5079 C 482.014 -6.66853 0.293807 0
M  V30 5080 H 481.284 -0.649588 -0.356535 0
M  V30 5081 H 483.931 -1.89934 -0.244394 0
M  V30 5082 H 482.236 -2.87484 -2.66196 0
M  V30 5083 H 483.933 -3.18994 -2.42989 0
M  V30 5084 H 480.523 -4.08174 -1.30736 0
M  V30 5085 H 484.707 -4.90276 -0.770943 0
M  V30 5086 H 479.963 -6.11385 -0.0426124 0
M  V30 5087 H 484.137 -6.94693 0.487292 0
M  V30 5088 H 481.764 -7.55349 0.857428 0
M  V30 5089 N 483.339 0.512053 -1.4905 0
M  V30 5090 C 484.755 0.84224 -1.35567 0
M  V30 5091 C 484.955 1.97878 -0.380319 0
M  V30 5092 O 484.011 2.51769 0.19201 0
M  V30 5093 C 485.324 1.19286 -2.76028 0
M  V30 5094 C 486.872 1.30171 -2.84648 0
M  V30 5095 C 487.347 1.68568 -4.25851 0
M  V30 5096 N 488.838 1.75638 -4.28609 0
M  V30 5097 C 489.573 2.06769 -5.34821 0
M  V30 5098 N 489.069 2.36201 -6.51292 0
M  V30 5099 N 490.862 2.07927 -5.22229 0
M  V30 5100 H 483.013 -0.237574 -2.11067 0
M  V30 5101 H 485.276 -0.0436747 -0.946993 0
M  V30 5102 H 484.982 0.431199 -3.49047 0
M  V30 5103 H 484.856 2.13889 -3.10695 0
M  V30 5104 H 487.243 2.05411 -2.11873 0
M  V30 5105 H 487.324 0.336457 -2.53578 0
M  V30 5106 H 486.968 0.938824 -4.99148 0
M  V30 5107 H 486.898 2.66174 -4.54377 0
M  V30 5108 H 489.389 1.55097 -3.44606 0
M  V30 5109 H 489.702 2.59112 -7.28066 0
M  V30 5110 H 488.047 2.33681 -6.54536 0
M  V30 5111 H 491.238 1.84403 -4.30248 0
M  V30 5112 H 491.411 2.31856 -6.05101 0
M  V30 5113 N 484.817 1.37938 0.762283 0
M  V30 5114 C 486.233 1.18945 1.06415 0
M  V30 5115 C 486.433 0.0321163 2.01474 0
M  V30 5116 O 485.489 -0.624844 2.44647 0
M  V30 5117 C 486.802 2.51218 1.65258 0
M  V30 5118 C 488.35 2.57824 1.7747 0
M  V30 5119 C 488.825 3.90251 2.39725 0
M  V30 5120 N 490.316 3.91744 2.47166 0
M  V30 5121 C 491.051 4.90966 2.96209 0
M  V30 5122 N 490.547 6.00585 3.45354 0
M  V30 5123 N 492.34 4.78363 2.9517 0
M  V30 5124 H 484.491 2.11994 0.131301 0
M  V30 5125 H 486.754 0.940262 0.120879 0
M  V30 5126 H 486.46 3.36317 1.02878 0
M  V30 5127 H 486.334 2.68989 2.64433 0
M  V30 5128 H 488.721 1.73126 2.3898 0
M  V30 5129 H 488.802 2.43928 0.770241 0
M  V30 5130 H 488.446 4.75368 1.78852 0
M  V30 5131 H 488.376 4.01454 3.40796 0
M  V30 5132 H 490.867 3.12563 2.12397 0
M  V30 5133 H 491.18 6.72236 3.81207 0
M  V30 5134 H 489.525 6.04217 3.43434 0
M  V30 5135 H 492.716 3.91841 2.56082 0
M  V30 5136 H 492.889 5.55843 3.33081 0
M  V30 5137 N 486.295 -0.989507 1.22664 0
M  V30 5138 C 487.242 -2.08024 0.999733 0
M  V30 5139 C 488.212 -1.65909 -0.0797047 0
M  V30 5140 O 489.397 -1.90669 0.0705715 0
M  V30 5141 C 486.537 -3.40067 0.587234 0
M  V30 5142 C 485.65 -3.95505 1.73781 0
M  V30 5143 C 484.785 -5.15722 1.27297 0
M  V30 5144 C 483.824 -5.63305 2.39488 0
M  V30 5145 N 482.961 -6.74758 1.94026 0
M  V30 5146 H 487.801 -2.26768 1.9334 0
M  V30 5147 H 485.338 -1.11171 0.963297 0
M  V30 5148 H 487.296 -4.15899 0.329227 0
M  V30 5149 H 485.926 -3.21314 -0.309426 0
M  V30 5150 H 484.978 -3.16513 2.11006 0
M  V30 5151 H 486.29 -4.26797 2.58158 0
M  V30 5152 H 485.444 -5.98854 0.972546 0
M  V30 5153 H 484.183 -4.86061 0.399445 0
M  V30 5154 H 483.188 -4.78759 2.70315 0
M  V30 5155 H 484.413 -5.94988 3.27362 0
M  V30 5156 H 482.359 -6.46874 1.09041 0
M  V30 5157 H 482.276 -7.05386 2.71968 0
M  V30 5158 H 483.544 -7.61387 1.67062 0
M  V30 5159 N 487.773 -1.03688 -1.18687 0
M  V30 5160 C 488.998 -0.757819 -1.93059 0
M  V30 5161 C 489.423 0.678353 -1.75442 0
M  V30 5162 O 488.781 1.46938 -1.06203 0
M  V30 5163 C 488.829 -1.12423 -3.42627 0
M  V30 5164 O 487.933 -0.247505 -4.11657 0
M  V30 5165 H 487.274 -0.279245 -0.602427 0
M  V30 5166 H 489.804 -1.3857 -1.5053 0
M  V30 5167 H 489.814 -1.08454 -3.93322 0
M  V30 5168 H 488.489 -2.17049 -3.54771 0
M  V30 5169 H 487.066 -0.34649 -3.71287 0
M  V30 5170 N 489.251 1.34841 -0.815825 0
M  V30 5171 C 490.5 1.97755 -0.396976 0
M  V30 5172 C 490.813 1.65422 1.04379 0
M  V30 5173 O 492.019 2.21771 1.5662 0
M  V30 5174 C 490.475 3.53818 -0.658869 0
M  V30 5175 C 490.083 3.95051 -2.11278 0
M  V30 5176 C 491.827 4.23397 -0.305834 0
M  V30 5177 C 489.734 5.43997 -2.31994 0
M  V30 5178 H 488.664 0.739985 -0.1447 0
M  V30 5179 H 491.315 1.53781 -1.00118 0
M  V30 5180 H 489.697 3.95997 0.0154112 0
M  V30 5181 H 490.871 3.63998 -2.82564 0
M  V30 5182 H 489.186 3.38388 -2.42657 0
M  V30 5183 H 491.783 5.32899 -0.43854 0
M  V30 5184 H 492.126 4.09508 0.748952 0
M  V30 5185 H 492.659 3.8667 -0.934403 0
M  V30 5186 H 489.398 5.62865 -3.35952 0
M  V30 5187 H 488.918 5.76589 -1.65244 0
M  V30 5188 H 490.597 6.10584 -2.14001 0
M  V30 5189 N 490.729 0.570148 1.46925 0
M  V30 5190 C 491.676 -0.170257 2.30171 0
M  V30 5191 C 492.646 -0.896099 1.39855 0
M  V30 5192 O 493.831 -0.889248 1.68811 0
M  V30 5193 C 490.971 -1.18605 3.24079 0
M  V30 5194 C 490.084 -0.464947 4.29491 0
M  V30 5195 C 489.219 -1.46716 5.10537 0
M  V30 5196 C 488.258 -0.731758 6.0771 0
M  V30 5197 N 487.395 -1.68142 6.81669 0
M  V30 5198 H 492.235 0.545713 2.92961 0
M  V30 5199 H 489.772 0.280938 1.44392 0
M  V30 5200 H 491.73 -1.78771 3.76957 0
M  V30 5201 H 490.36 -1.86989 2.63125 0
M  V30 5202 H 489.412 0.251506 3.79568 0
M  V30 5203 H 490.724 0.110548 4.98677 0
M  V30 5204 H 489.878 -2.14199 5.6763 0
M  V30 5205 H 488.617 -2.07658 4.41282 0
M  V30 5206 H 487.622 -0.0430787 5.49783 0
M  V30 5207 H 488.847 -0.127904 6.7898 0
M  V30 5208 H 486.793 -2.27918 6.15134 0
M  V30 5209 H 486.71 -1.15841 7.47072 0
M  V30 5210 H 487.978 -2.347 7.43328 0
M  V30 5211 N 492.207 -1.54576 0.307264 0
M  V30 5212 C 493.154 -2.23751 -0.56604 0
M  V30 5213 C 494.124 -1.22235 -1.12462 0
M  V30 5214 O 495.309 -1.50873 -1.16799 0
M  V30 5215 C 492.449 -2.98661 -1.72903 0
M  V30 5216 C 491.562 -4.14963 -1.20124 0
M  V30 5217 C 490.697 -4.77441 -2.3286 0
M  V30 5218 C 489.736 -5.85875 -1.77247 0
M  V30 5219 N 488.873 -6.42282 -2.8358 0
M  V30 5220 H 493.713 -2.97984 0.0304578 0
M  V30 5221 H 491.25 -1.47076 0.0268015 0
M  V30 5222 H 493.208 -3.40329 -2.41313 0
M  V30 5223 H 491.838 -2.26793 -2.29706 0
M  V30 5224 H 490.89 -3.78193 -0.409198 0
M  V30 5225 H 492.202 -4.93066 -0.754171 0
M  V30 5226 H 491.356 -5.21993 -3.09205 0
M  V30 5227 H 490.095 -3.98684 -2.80896 0
M  V30 5228 H 489.1 -5.40741 -0.993926 0
M  V30 5229 H 490.325 -6.6652 -1.30107 0
M  V30 5230 H 488.271 -5.66406 -3.30939 0
M  V30 5231 H 488.188 -7.1575 -2.43388 0
M  V30 5232 H 489.456 -6.91492 -3.59804 0
M  V30 5233 N 493.685 -0.035106 -1.57561 0
M  V30 5234 C 494.933 0.64096 -1.91667 0
M  V30 5235 C 495.254 1.72323 -0.912681 0
M  V30 5236 O 494.524 1.95849 0.0449089 0
M  V30 5237 H 493.104 0.239743 -0.707483 0
M  V30 5238 H 495.766 -0.084321 -1.94718 0
M  V30 5239 H 494.862 1.08987 -2.92452 0
M  V30 5240 N 495.163 1.55791 0.238111 0
M  V30 5241 C 496.44 1.68798 0.98826 0
M  V30 5242 C 496.82 0.577562 2.03045 0
M  V30 5243 O 496.168 -0.41778 2.24648 0
M  V30 5244 C 496.378 3.09454 1.61367 0
M  V30 5245 C 497.726 3.68335 2.11221 0
M  V30 5246 O 498.75 3.1231 1.71292 0
M  V30 5247 O 497.609 4.6657 2.84561 0
M  V30 5248 H 494.703 0.686881 0.460568 0
M  V30 5249 H 497.249 1.68118 0.231202 0
M  V30 5250 H 496.021 3.81726 0.860295 0
M  V30 5251 H 495.644 3.14182 2.4367 0
M  V30 5252 N 496.642 -0.504142 1.49319 0
M  V30 5253 C 497.59 -1.62689 1.66238 0
M  V30 5254 C 498.584 -1.6095 0.528349 0
M  V30 5255 O 499.79 -1.65496 0.707887 0
M  V30 5256 H 496.165 -0.539247 0.524134 0
M  V30 5257 H 498.136 -1.45571 2.60484 0
M  V30 5258 C 496.885 -3.00841 1.74328 0
M  V30 5259 H 496.208 -3.02884 2.60963 0
M  V30 5260 H 497.648 -3.78945 1.90202 0
M  V30 5261 C 496.107 -3.33355 0.487416 0
M  V30 5262 O 496.637 -3.99819 -0.388294 0
M  V30 5263 N 494.843 -2.88469 0.351306 0
M  V30 5264 H 494.39 -2.34557 1.06492 0
M  V30 5265 H 494.348 -3.10591 -0.487899 0
M  V30 5266 N 498.12 -1.38341 -0.754957 0
M  V30 5267 C 499.067 -1.3546 -1.86867 0
M  V30 5268 C 500.037 -0.217369 -1.64672 0
M  V30 5269 O 501.222 -0.409383 -1.86356 0
M  V30 5270 C 498.362 -1.18413 -3.24149 0
M  V30 5271 C 497.475 -2.41511 -3.58185 0
M  V30 5272 C 496.61 -2.17205 -4.84763 0
M  V30 5273 C 495.649 -3.36081 -5.11582 0
M  V30 5274 N 494.786 -3.11219 -6.29354 0
M  V30 5275 H 499.626 -2.30672 -1.88664 0
M  V30 5276 H 497.163 -1.14607 -0.922154 0
M  V30 5277 H 499.121 -1.06545 -4.03366 0
M  V30 5278 H 497.751 -0.268397 -3.21682 0
M  V30 5279 H 496.803 -2.64056 -2.73822 0
M  V30 5280 H 498.115 -3.30115 -3.73932 0
M  V30 5281 H 497.269 -2.02465 -5.7192 0
M  V30 5282 H 496.008 -1.25964 -4.71152 0
M  V30 5283 H 495.013 -3.51341 -4.22894 0
M  V30 5284 H 496.238 -4.28196 -5.27091 0
M  V30 5285 H 494.184 -2.22624 -6.17069 0
M  V30 5286 H 494.101 -3.93373 -6.45596 0
M  V30 5287 H 495.369 -3.00132 -7.19403 0
M  V30 5288 N 499.598 0.982988 -1.23187 0
M  V30 5289 C 500.846 1.72052 -1.06031 0
M  V30 5290 C 501.167 1.90769 0.404019 0
M  V30 5291 O 500.437 1.47446 1.28982 0
M  V30 5292 H 499.017 0.637499 -0.389363 0
M  V30 5293 H 501.679 1.18338 -1.54862 0
M  V30 5294 H 500.775 2.7111 -1.54615 0
M  V30 5295 N 501.076 1.04316 1.18135 0
M  V30 5296 C 502.322 0.749128 1.88457 0
M  V30 5297 C 502.655 -0.72149 1.803 0
M  V30 5298 O 501.93 -1.52676 1.205 0
M  V30 5299 C 502.213 1.21905 3.38838 0
M  V30 5300 C 502.066 2.75195 3.55792 0
M  V30 5301 C 503.385 0.811085 4.32561 0
M  V30 5302 H 500.504 0.273611 0.684329 0
M  V30 5303 H 503.146 1.29561 1.38975 0
M  V30 5304 H 501.296 0.754137 3.8111 0
M  V30 5305 H 502.968 3.29743 3.22595 0
M  V30 5306 H 501.211 3.14899 2.98364 0
M  V30 5307 H 501.882 3.03135 4.61317 0
M  V30 5308 H 504.358 1.21118 3.98082 0
M  V30 5309 H 503.234 1.16761 5.36338 0
M  V30 5310 H 503.495 -0.285596 4.41177 0
M  V30 5311 N 502.554 -1.34406 0.822964 0
M  V30 5312 C 503.803 -1.97542 0.407458 0
M  V30 5313 C 504.116 -1.65973 -1.035 0
M  V30 5314 O 505.322 -2.22598 -1.55442 0
M  V30 5315 C 503.778 -3.53463 0.677623 0
M  V30 5316 C 503.386 -3.93925 2.1337 0
M  V30 5317 C 505.13 -4.23229 0.328284 0
M  V30 5318 C 503.037 -5.42759 2.34876 0
M  V30 5319 H 501.967 -0.739207 0.148623 0
M  V30 5320 H 504.618 -1.53248 1.00932 0
M  V30 5321 H 503 -3.96 0.00558965 0
M  V30 5322 H 504.174 -3.62494 2.8449 0
M  V30 5323 H 502.489 -3.37097 2.44448 0
M  V30 5324 H 505.086 -5.32659 0.466794 0
M  V30 5325 H 505.429 -4.09899 -0.727224 0
M  V30 5326 H 505.962 -3.86169 0.954896 0
M  V30 5327 H 502.701 -5.61075 3.38932 0
M  V30 5328 H 502.221 -5.75704 1.68299 0
M  V30 5329 H 503.9 -6.0944 2.17236 0
M  V30 5330 N 504.032 -0.577932 -1.46621 0
M  V30 5331 C 505.262 -0.0670668 -2.06491 0
M  V30 5332 C 505.67 1.24119 -1.42798 0
M  V30 5333 O 505.013 1.76016 -0.525759 0
M  V30 5334 C 505.075 0.177995 -3.59059 0
M  V30 5335 C 504.739 -1.04394 -4.44917 0
M  V30 5336 C 505.736 -1.95479 -4.81751 0
M  V30 5337 C 503.421 -1.26444 -4.86125 0
M  V30 5338 C 505.415 -3.06965 -5.58615 0
M  V30 5339 C 503.102 -2.38237 -5.62749 0
M  V30 5340 C 504.1 -3.28327 -5.98908 0
M  V30 5341 O 503.788 -4.38179 -6.73984 0
M  V30 5342 H 503.52 -0.0523159 -0.673973 0
M  V30 5343 H 506.074 -0.796966 -1.89308 0
M  V30 5344 H 504.304 0.962451 -3.74531 0
M  V30 5345 H 505.993 0.636782 -4.00874 0
M  V30 5346 H 506.759 -1.79657 -4.50498 0
M  V30 5347 H 502.638 -0.572316 -4.57434 0
M  V30 5348 H 506.182 -3.77309 -5.86757 0
M  V30 5349 H 502.079 -2.54023 -5.93416 0
M  V30 5350 H 502.847 -4.36486 -6.92403 0
M  V30 5351 N 505.51 1.54411 -0.315457 0
M  V30 5352 C 506.457 2.24048 0.554166 0
M  V30 5353 C 507.427 1.2283 1.11812 0
M  V30 5354 O 508.612 1.51491 1.15997 0
M  V30 5355 C 505.752 2.99574 1.71316 0
M  V30 5356 C 504.865 4.15594 1.17922 0
M  V30 5357 C 504 4.78669 2.30324 0
M  V30 5358 C 503.039 5.86807 1.74137 0
M  V30 5359 N 502.176 6.43777 2.8017 0
M  V30 5360 H 507.016 2.97964 -0.0462602 0
M  V30 5361 H 504.553 1.47059 -0.0346009 0
M  V30 5362 H 506.511 3.41604 2.39505 0
M  V30 5363 H 505.141 2.28008 2.285 0
M  V30 5364 H 504.193 3.78404 0.389136 0
M  V30 5365 H 505.505 4.93459 0.728012 0
M  V30 5366 H 504.659 5.23626 3.06433 0
M  V30 5367 H 503.398 4.00168 2.78778 0
M  V30 5368 H 502.403 5.41261 0.965236 0
M  V30 5369 H 503.628 6.67201 1.2657 0
M  V30 5370 H 501.574 5.68153 3.2793 0
M  V30 5371 H 501.491 7.17031 2.39588 0
M  V30 5372 H 502.759 6.9339 3.56132 0
M  V30 5373 N 506.988 0.0434614 1.5754 0
M  V30 5374 C 508.399 -0.493343 1.80064 0
M  V30 5375 C 508.75 -1.71388 0.955023 0
M  V30 5376 O 507.875 -2.15736 0.169434 0
M  V30 5377 C 508.47 -0.90179 3.26578 0
M  V30 5378 C 507.029 -1.38362 3.50047 0
M  V30 5379 C 506.176 -0.355129 2.75017 0
M  V30 5380 H 509.127 0.2694 1.56397 0
M  V30 5381 H 509.148 -1.76523 3.37075 0
M  V30 5382 H 508.66 -0.013271 3.88098 0
M  V30 5383 H 506.761 -2.29159 2.93798 0
M  V30 5384 H 506.874 -1.3811 4.58762 0
M  V30 5385 H 505.238 -0.826348 2.40922 0
M  V30 5386 H 506.021 0.525172 3.39259 0
M  V30 5387 N 508.466 -1.55915 -0.229846 0
M  V30 5388 C 509.429 -1.90914 -1.26824 0
M  V30 5389 C 510.429 -0.786999 -1.40225 0
M  V30 5390 O 511.619 -1.05484 -1.38632 0
M  V30 5391 C 508.751 -2.15264 -2.64337 0
M  V30 5392 H 509.944 -2.8378 -0.969998 0
M  V30 5393 H 507.497 -1.49069 -0.4699 0
M  V30 5394 H 508.232 -1.24923 -2.99274 0
M  V30 5395 H 508.017 -2.97005 -2.55989 0
M  V30 5396 H 509.507 -2.43467 -3.39284 0
M  V30 5397 N 509.944 0.496216 -1.49584 0
M  V30 5398 C 511.172 1.27394 -1.63029 0
M  V30 5399 C 511.587 1.86344 -0.303569 0
M  V30 5400 O 510.944 1.68057 0.711547 0
M  V30 5401 C 510.995 2.40077 -2.70269 0
M  V30 5402 O 510.716 1.83549 -3.97796 0
M  V30 5403 C 512.217 3.31372 -2.94462 0
M  V30 5404 H 509.437 0.386211 -0.54871 0
M  V30 5405 H 511.981 0.595163 -1.95648 0
M  V30 5406 H 510.136 3.03775 -2.40415 0
M  V30 5407 H 510.55 2.57561 -4.56905 0
M  V30 5408 H 512.024 4.06707 -3.73221 0
M  V30 5409 H 512.501 3.88654 -2.0456 0
M  V30 5410 H 513.107 2.73435 -3.25751 0
M  V30 5411 N 511.423 1.38739 0.74761 0
M  V30 5412 C 512.37 1.36449 1.86146 0
M  V30 5413 C 513.34 0.226098 1.64554 0
M  V30 5414 O 514.525 0.41926 1.86137 0
M  V30 5415 C 511.665 1.2013 3.23516 0
M  V30 5416 C 510.778 2.43407 3.56899 0
M  V30 5417 C 509.913 2.19773 4.83605 0
M  V30 5418 C 508.952 3.3879 5.09792 0
M  V30 5419 N 508.089 3.14553 6.27695 0
M  V30 5420 H 512.929 2.3167 1.87438 0
M  V30 5421 H 510.466 1.15094 0.916063 0
M  V30 5422 H 512.424 1.08683 4.02795 0
M  V30 5423 H 511.054 0.285453 3.21535 0
M  V30 5424 H 510.106 2.65504 2.72418 0
M  V30 5425 H 511.418 3.32094 3.72176 0
M  V30 5426 H 510.572 2.05496 5.70838 0
M  V30 5427 H 509.311 1.28461 4.70478 0
M  V30 5428 H 508.316 3.53579 4.21025 0
M  V30 5429 H 509.541 4.30986 5.24812 0
M  V30 5430 H 507.487 2.25893 6.1588 0
M  V30 5431 H 507.404 3.96791 6.435 0
M  V30 5432 H 508.672 3.03943 7.17801 0
M  V30 5433 N 512.901 -0.976442 1.23707 0
M  V30 5434 C 513.834 -2.06793 0.964973 0
M  V30 5435 C 514.812 -1.62304 -0.0981472 0
M  V30 5436 O 515.996 -1.88464 0.0369477 0
M  V30 5437 C 513.123 -3.35636 0.454522 0
M  V30 5438 C 512.169 -3.99069 1.50485 0
M  V30 5439 S 513.002 -4.37814 3.0835 0
M  V30 5440 C 514.158 -5.69805 2.58985 0
M  V30 5441 H 514.391 -2.29556 1.88922 0
M  V30 5442 H 511.924 -1.11317 1.06995 0
M  V30 5443 H 513.882 -4.10162 0.166626 0
M  V30 5444 H 512.543 -3.10876 -0.448871 0
M  V30 5445 H 511.736 -4.91896 1.09792 0
M  V30 5446 H 511.338 -3.30938 1.7423 0
M  V30 5447 H 513.63 -6.46919 2.01252 0
M  V30 5448 H 514.573 -6.15345 3.50366 0
M  V30 5449 H 514.981 -5.27994 1.99705 0
M  V30 5450 N 514.379 -1.04941 -1.1758 0
M  V30 5451 C 515.289 -0.658826 -2.25159 0
M  V30 5452 C 516.305 0.318941 -1.71052 0
M  V30 5453 O 517.481 0.171669 -2.00667 0
M  V30 5454 C 514.546 -0.0369522 -3.4668 0
M  V30 5455 C 513.607 -1.06484 -4.15884 0
M  V30 5456 C 512.84 -0.472551 -5.31604 0
M  V30 5457 O 513.063 0.718736 -5.65854 0
M  V30 5458 O 511.997 -1.20557 -5.89703 0
M  V30 5459 H 515.823 -1.55533 -2.60851 0
M  V30 5460 H 513.408 -0.820819 -1.24832 0
M  V30 5461 H 515.29 0.308784 -4.20267 0
M  V30 5462 H 513.965 0.833238 -3.12792 0
M  V30 5463 H 512.872 -1.46253 -3.44327 0
M  V30 5464 H 514.205 -1.9061 -4.53794 0
M  V30 5465 N 515.857 1.33968 -0.830081 0
M  V30 5466 C 517.085 2.0228 -0.434773 0
M  V30 5467 C 517.5 1.62487 0.961419 0
M  V30 5468 O 516.857 0.833849 1.62337 0
M  V30 5469 C 516.908 3.5751 -0.535625 0
M  V30 5470 O 516.629 3.95864 -1.87679 0
M  V30 5471 C 518.13 4.43091 -0.136137 0
M  V30 5472 H 515.35 0.648151 -0.173613 0
M  V30 5473 H 517.894 1.71089 -1.12022 0
M  V30 5474 H 516.049 3.87266 0.101817 0
M  V30 5475 H 516.463 4.9056 -1.85609 0
M  V30 5476 H 517.937 5.51398 -0.257772 0
M  V30 5477 H 518.414 4.29433 0.921076 0
M  V30 5478 H 519.02 4.18677 -0.747662 0
M  V30 5479 N 517.335 0.585699 1.46312 0
M  V30 5480 C 518.245 -0.148236 2.34131 0
M  V30 5481 C 519.261 -0.882972 1.49932 0
M  V30 5482 O 520.437 -0.845484 1.82794 0
M  V30 5483 C 517.502 -1.14714 3.27172 0
M  V30 5484 C 516.563 -0.416746 4.27272 0
M  V30 5485 C 515.796 -1.36806 5.15868 0
M  V30 5486 O 516.019 -2.60475 5.07454 0
M  V30 5487 O 514.953 -0.877018 5.95476 0
M  V30 5488 H 518.779 0.572882 2.98248 0
M  V30 5489 H 516.364 0.346082 1.45336 0
M  V30 5490 H 518.246 -1.72303 3.84564 0
M  V30 5491 H 516.921 -1.84967 2.65648 0
M  V30 5492 H 515.828 0.201061 3.73559 0
M  V30 5493 H 517.161 0.244872 4.9159 0
M  V30 5494 N 518.813 -1.54241 0.323641 0
M  V30 5495 C 519.776 -2.22997 -0.529602 0
M  V30 5496 C 520.776 -1.22345 -1.04347 0
M  V30 5497 O 521.966 -1.46924 -0.935889 0
M  V30 5498 C 519.098 -2.93409 -1.73562 0
M  V30 5499 H 520.291 -2.99815 0.0714518 0
M  V30 5500 H 517.844 -1.56121 0.0747258 0
M  V30 5501 H 518.579 -2.20729 -2.37591 0
M  V30 5502 H 518.364 -3.67217 -1.37456 0
M  V30 5503 H 519.854 -3.45794 -2.34128 0
M  V30 5504 N 520.291 -0.0518155 -1.57515 0
M  V30 5505 C 521.241 0.932017 -2.0808 0
M  V30 5506 C 522.225 1.27141 -0.986098 0
M  V30 5507 O 523.417 1.25373 -1.24943 0
M  V30 5508 C 520.546 2.20665 -2.62986 0
M  V30 5509 C 519.632 1.89462 -3.79427 0
M  V30 5510 N 520.023 1.28621 -4.89173 0
M  V30 5511 C 518.321 2.19327 -3.88345 0
M  V30 5512 C 519.022 1.15062 -5.70207 0
M  V30 5513 N 517.998 1.65372 -5.17835 0
M  V30 5514 H 521.8 0.456964 -2.90326 0
M  V30 5515 H 519.314 0.152619 -1.61681 0
M  V30 5516 H 521.311 2.92044 -2.97516 0
M  V30 5517 H 519.971 2.68776 -1.8218 0
M  V30 5518 H 520.982 0.958341 -5.08956 0
M  V30 5519 H 517.659 2.69955 -3.18482 0
M  V30 5520 H 519.049 0.678243 -6.68468 0
M  V30 5521 N 521.769 1.56035 0.221574 0
M  V30 5522 C 522.732 1.91584 1.2581 0
M  V30 5523 C 523.732 0.794425 1.39805 0
M  V30 5524 O 524.922 1.06217 1.38071 0
M  V30 5525 C 522.054 2.16663 2.63192 0
M  V30 5526 H 523.247 2.8429 0.954935 0
M  V30 5527 H 520.8 1.49316 0.461988 0
M  V30 5528 H 521.535 1.26508 2.98607 0
M  V30 5529 H 521.32 2.98358 2.5441 0
M  V30 5530 H 522.81 2.45262 3.37988 0
M  V30 5531 O 523.286 -0.367026 1.57274 0
M  V30 5532 H 523.977 -1.01783 1.64803 0
M  V30 END ATOM
M  V30 BEGIN BOND
M  V30 END BOND
M  V30 END CTAB
M  END
$$$$
