drugbank_target|Q9UGN5 Poly [ADP-ribose] polymerase 2 (DB07232; DB09074; DB11760; DB11793; DB12332)
 OpenBabel12092120403D

  0  0  0     0  0            999 V3000
M  V30 BEGIN CTAB
M  V30 COUNTS 9295 9386 0 0 0
M  V30 BEGIN ATOM
M  V30 1 H -0.908 1.98254 -0.117106 0
M  V30 2 N 0 1.576 0 0
M  V30 3 C 0.933 2.03868 1.02534 0
M  V30 4 C 1.911 0.928543 1.3348 0
M  V30 5 O 3.095 1.19667 1.45644 0
M  V30 6 C 0.222 2.43627 2.35294 0
M  V30 7 C -0.732 3.65373 2.2001 0
M  V30 8 S 0.101 5.13292 1.52614 0
M  V30 9 C 1.257 5.56322 2.86805 0
M  V30 10 H 1.49 2.90518 0.631377 0
M  V30 11 H -0.977 1.52953 0.210867 0
M  V30 12 H 0.981 2.67203 3.11629 0
M  V30 13 H -0.358 1.57376 2.7183 0
M  V30 14 H -1.165 3.90944 3.18086 0
M  V30 15 H -1.563 3.418 1.51819 0
M  V30 16 H 0.729 5.58782 3.83104 0
M  V30 17 H 1.672 6.56266 2.65933 0
M  V30 18 H 2.08 4.83886 2.90714 0
M  V30 19 N 1.4781 -0.272755 1.55222 0
M  V30 20 C 2.4411 -1.32041 1.87344 0
M  V30 21 C 3.4411 -1.42342 0.74803 0
M  V30 22 O 4.6311 -1.41488 1.0162 0
M  V30 23 C 1.7631 -2.70173 2.07893 0
M  V30 24 H 2.9561 -1.04789 2.80997 0
M  V30 25 H 0.5091 -0.51083 1.47717 0
M  V30 26 H 1.2441 -3.02605 1.16622 0
M  V30 27 H 1.0291 -2.64082 2.89833 0
M  V30 28 H 2.5191 -3.45869 2.34017 0
M  V30 29 N 2.9562 -1.48159 -0.537278 0
M  V30 30 C 3.9192 -1.61665 -1.62472 0
M  V30 31 C 4.9192 -0.490395 -1.5314 0
M  V30 32 O 6.1092 -0.755998 -1.5694 0
M  V30 33 C 3.2412 -1.57997 -3.02076 0
M  V30 34 H 4.4342 -2.58621 -1.51839 0
M  V30 35 H 1.9872 -1.36647 -0.758771 0
M  V30 36 H 2.7222 -0.624913 -3.18222 0
M  V30 37 H 2.5072 -2.39755 -3.10258 0
M  V30 38 H 3.9972 -1.70627 -3.81151 0
M  V30 39 N 4.4343 0.785586 -1.36625 0
M  V30 40 C 5.8503 1.08419 -1.17122 0
M  V30 41 C 6.0503 2.015 0.00208491 0
M  V30 42 O 5.1063 2.43551 0.666278 0
M  V30 43 C 6.4193 1.69498 -2.48377 0
M  V30 44 C 7.9673 1.81821 -2.54775 0
M  V30 45 C 8.4423 2.46315 -3.86126 0
M  V30 46 N 9.9333 2.53779 -3.87492 0
M  V30 47 C 10.6683 3.045 -4.85868 0
M  V30 48 N 10.1643 3.55499 -5.94637 0
M  V30 49 N 11.9573 3.03247 -4.73284 0
M  V30 50 H 4.1083 0.167264 -2.1174 0
M  V30 51 H 6.3713 0.13682 -0.938075 0
M  V30 52 H 6.0773 1.08571 -3.34522 0
M  V30 53 H 5.9513 2.6896 -2.64462 0
M  V30 54 H 8.3383 2.41884 -1.69045 0
M  V30 55 H 8.4193 0.811532 -2.42586 0
M  V30 56 H 8.0633 1.86895 -4.72263 0
M  V30 57 H 7.9933 3.47561 -3.95612 0
M  V30 58 H 10.4843 2.17672 -3.08913 0
M  V30 59 H 10.7973 3.92562 -6.65669 0
M  V30 60 H 9.1423 3.5364 -5.98301 0
M  V30 61 H 12.3333 2.62696 -3.87438 0
M  V30 62 H 12.5063 3.42467 -5.50109 0
M  V30 63 N 5.9124 1.20967 1.01018 0
M  V30 64 C 7.3284 0.965905 1.27053 0
M  V30 65 C 7.5284 -0.350785 1.98423 0
M  V30 66 O 6.5844 -1.07773 2.28344 0
M  V30 67 C 7.8974 2.15294 2.09926 0
M  V30 68 C 9.4454 2.19463 2.23171 0
M  V30 69 C 9.9204 3.3767 3.09424 0
M  V30 70 N 11.4114 3.37724 3.17012 0
M  V30 71 C 12.1464 4.25837 3.83993 0
M  V30 72 N 11.6424 5.24138 4.53047 0
M  V30 73 N 13.4354 4.1366 3.80581 0
M  V30 74 H 5.5864 2.0565 0.531194 0
M  V30 75 H 7.8494 0.90024 0.297106 0
M  V30 76 H 7.5554 3.10684 1.64828 0
M  V30 77 H 7.4294 2.13923 3.10672 0
M  V30 78 H 9.8164 1.24632 2.6749 0
M  V30 79 H 9.8974 2.2488 1.21912 0
M  V30 80 H 9.5414 4.32791 2.65808 0
M  V30 81 H 9.4714 3.29491 4.10784 0
M  V30 82 H 11.9624 2.6658 2.6785 0
M  V30 83 H 12.2754 5.87684 5.01844 0
M  V30 84 H 10.6204 5.28068 4.5185 0
M  V30 85 H 13.8114 3.36127 3.25785 0
M  V30 86 H 13.9844 4.82538 4.32505 0
M  V30 87 N 7.3905 -1.2043 1.01659 0
M  V30 88 C 8.8065 -1.41852 0.731442 0
M  V30 89 C 9.0065 -1.89358 -0.688898 0
M  V30 90 O 8.0625 -2.06247 -1.45666 0
M  V30 91 C 9.3755 -2.44019 1.75714 0
M  V30 92 C 10.9235 -2.57785 1.77527 0
M  V30 93 C 11.3985 -3.63194 2.79023 0
M  V30 94 N 12.8895 -3.70678 2.77763 0
M  V30 95 C 13.6245 -4.51897 3.52954 0
M  V30 96 N 13.1205 -5.36921 4.37821 0
M  V30 97 N 14.9135 -4.4643 3.41551 0
M  V30 98 H 7.0645 -0.879093 1.93354 0
M  V30 99 H 9.3275 -0.448425 0.835236 0
M  V30 100 H 9.0335 -2.1611 2.77469 0
M  V30 101 H 8.9075 -3.43007 1.56927 0
M  V30 102 H 11.2945 -2.85023 0.764569 0
M  V30 103 H 11.3755 -1.58992 2.00387 0
M  V30 104 H 11.0195 -3.36699 3.80258 0
M  V30 105 H 10.9495 -4.61609 2.53425 0
M  V30 106 H 13.4405 -3.09944 2.16201 0
M  V30 107 H 13.7535 -5.95981 4.91962 0
M  V30 108 H 12.0985 -5.36424 4.41899 0
M  V30 109 H 15.2895 -3.79042 2.74672 0
M  V30 110 H 15.4625 -5.09491 4.00404 0
M  V30 111 N 8.8686 -0.792821 -1.36206 0
M  V30 112 C 10.2846 -0.474903 -1.52371 0
M  V30 113 C 10.4846 1.00622 -1.74578 0
M  V30 114 O 9.5406 1.79162 -1.77924 0
M  V30 115 C 10.8536 -1.3083 -2.70747 0
M  V30 116 C 12.4016 -1.30234 -2.84619 0
M  V30 117 C 12.8766 -2.11956 -4.06004 0
M  V30 118 N 14.3676 -2.09419 -4.13156 0
M  V30 119 C 15.1026 -2.69419 -5.06163 0
M  V30 120 N 14.5986 -3.3829 -6.04592 0
M  V30 121 N 16.3916 -2.59134 -4.98804 0
M  V30 122 H 8.5426 -1.75222 -1.20046 0
M  V30 123 H 10.8056 -0.745024 -0.586211 0
M  V30 124 H 10.5116 -2.35881 -2.6087 0
M  V30 125 H 10.3856 -0.95196 -3.6499 0
M  V30 126 H 12.7726 -0.259748 -2.93955 0
M  V30 127 H 12.8536 -1.69847 -1.91274 0
M  V30 128 H 12.4976 -3.16248 -3.97429 0
M  V30 129 H 12.4276 -1.69711 -4.98503 0
M  V30 130 H 14.9186 -1.59297 -3.42685 0
M  V30 131 H 15.2316 -3.81394 -6.7213 0
M  V30 132 H 13.5766 -3.42393 -6.04807 0
M  V30 133 H 16.7676 -2.04927 -4.20859 0
M  V30 134 H 16.9406 -3.06185 -5.711 0
M  V30 135 N 10.3467 1.47872 -0.545128 0
M  V30 136 C 11.5717 2.07391 -0.0190611 0
M  V30 137 C 11.9967 1.39688 1.25971 0
M  V30 138 O 11.3547 0.467816 1.7516 0
M  V30 139 C 11.4027 3.60188 0.172335 0
M  V30 140 O 10.5067 3.9339 1.23766 0
M  V30 141 H 9.8477 0.662411 -0.0459059 0
M  V30 142 H 12.3777 1.90066 -0.757365 0
M  V30 143 H 12.3877 4.06129 0.390305 0
M  V30 144 H 11.0627 4.08865 -0.761725 0
M  V30 145 H 9.6397 3.5921 1.00114 0
M  V30 146 N 11.8248 0.280983 1.55075 0
M  V30 147 C 13.0528 -0.337293 2.04132 0
M  V30 148 C 13.4678 -1.4903 1.15912 0
M  V30 149 O 12.8248 -1.81606 0.180459 0
M  V30 150 C 12.8758 -0.812706 3.52246 0
M  V30 151 O 12.5968 0.294387 4.3711 0
M  V30 152 C 14.0978 -1.4982 4.17216 0
M  V30 153 H 11.3178 -0.0761638 0.666663 0
M  V30 154 H 13.8618 0.414787 2.00249 0
M  V30 155 H 12.0168 -1.51486 3.56554 0
M  V30 156 H 12.4308 -0.0721325 5.2445 0
M  V30 157 H 13.9048 -1.7822 5.22438 0
M  V30 158 H 14.3818 -2.43168 3.65741 0
M  V30 159 H 14.9878 -0.839742 4.16927 0
M  V30 160 N 13.3029 -1.57598 0.00835791 0
M  V30 161 C 14.5509 -1.90551 -0.6734 0
M  V30 162 C 14.8719 -0.883301 -1.73847 0
M  V30 163 O 14.1419 0.0781442 -1.95744 0
M  V30 164 H 12.7219 -0.703312 -0.251717 0
M  V30 165 H 15.3839 -1.94833 0.0512592 0
M  V30 166 H 14.4799 -2.9056 -1.13935 0
M  V30 167 N 14.781 0.264519 -1.55364 0
M  V30 168 C 16.029 0.993021 -1.76021 0
M  V30 169 C 16.35 1.86511 -0.569099 0
M  V30 170 O 15.62 1.91438 0.415735 0
M  V30 171 H 14.2 0.369639 -0.649135 0
M  V30 172 H 16.862 0.286707 -1.9278 0
M  V30 173 H 15.958 1.62502 -2.66457 0
M  V30 174 N 16.2591 1.48442 0.529413 0
M  V30 175 C 17.5071 1.56179 1.28267 0
M  V30 176 C 17.8281 0.237721 1.93546 0
M  V30 177 O 17.0981 -0.740779 1.81354 0
M  V30 178 H 15.6781 0.575367 0.476405 0
M  V30 179 H 18.3401 1.84909 0.61602 0
M  V30 180 H 17.4361 2.34312 2.06165 0
M  V30 181 N 17.7372 -0.778329 1.37039 0
M  V30 182 C 19.1532 -1.07796 1.17695 0
M  V30 183 C 19.3532 -2.01498 0.00860115 0
M  V30 184 O 18.4092 -2.43901 -0.653352 0
M  V30 185 C 19.7222 -1.68178 2.49272 0
M  V30 186 C 21.2702 -1.80467 2.55735 0
M  V30 187 C 21.7452 -2.44263 3.87427 0
M  V30 188 N 23.2362 -2.51721 3.88833 0
M  V30 189 C 23.9712 -3.01919 4.87476 0
M  V30 190 N 23.4672 -3.5234 5.96513 0
M  V30 191 N 25.2602 -3.00733 4.74885 0
M  V30 192 H 17.4112 -0.156032 2.11826 0
M  V30 193 H 19.6742 -0.131844 0.938787 0
M  V30 194 H 19.3802 -1.06796 3.35093 0
M  V30 195 H 19.2542 -2.67554 2.65885 0
M  V30 196 H 21.6412 -2.40984 1.70325 0
M  V30 197 H 21.7222 -0.798656 2.43013 0
M  V30 198 H 21.3662 -1.84388 4.73248 0
M  V30 199 H 21.2962 -3.45458 3.9745 0
M  V30 200 H 23.7872 -2.1603 3.10063 0
M  V30 201 H 24.1002 -3.89027 6.67741 0
M  V30 202 H 22.4452 -3.50462 6.00168 0
M  V30 203 H 25.6362 -2.60638 3.88826 0
M  V30 204 H 25.8092 -3.39545 5.51918 0
M  V30 205 N 19.2153 -1.21501 -1.00376 0
M  V30 206 C 20.1783 -0.976927 -2.07337 0
M  V30 207 C 21.1783 0.0525322 -1.60714 0
M  V30 208 O 22.3683 -0.184869 -1.73216 0
M  V30 209 C 19.5003 -0.473423 -3.37597 0
M  V30 210 H 20.6933 -1.92587 -2.29892 0
M  V30 211 H 18.2463 -1.03217 -1.17371 0
M  V30 212 H 18.9813 0.480379 -3.20722 0
M  V30 213 H 18.7663 -1.216 -3.72768 0
M  V30 214 H 20.2563 -0.32675 -4.1632 0
M  V30 215 N 20.6934 1.19889 -1.02296 0
M  V30 216 C 22.1094 1.41462 -0.738954 0
M  V30 217 C 22.3094 1.89721 0.678846 0
M  V30 218 O 21.3654 2.07016 1.4457 0
M  V30 219 C 22.6784 2.43083 -1.77005 0
M  V30 220 C 24.2264 2.5684 -1.78892 0
M  V30 221 C 24.7014 3.61709 -2.80945 0
M  V30 222 N 26.1924 3.69199 -2.79725 0
M  V30 223 C 26.9274 4.50019 -3.55345 0
M  V30 224 N 26.4234 5.34592 -4.40662 0
M  V30 225 N 28.2164 4.44612 -3.43914 0
M  V30 226 H 20.3674 0.868827 -1.93817 0
M  V30 227 H 22.6304 0.44399 -0.837602 0
M  V30 228 H 22.3364 2.14636 -2.78612 0
M  V30 229 H 22.2104 3.4217 -1.58744 0
M  V30 230 H 24.5974 2.84614 -0.779674 0
M  V30 231 H 24.6784 1.57927 -2.01228 0
M  V30 232 H 24.3224 3.34678 -3.82038 0
M  V30 233 H 24.2524 4.60259 -2.5587 0
M  V30 234 H 26.7434 3.08794 -2.17842 0
M  V30 235 H 27.0564 5.93363 -4.95116 0
M  V30 236 H 25.4014 5.34073 -4.44737 0
M  V30 237 H 28.5924 3.7758 -2.76679 0
M  V30 238 H 28.7654 5.0736 -4.031 0
M  V30 239 N 22.1715 0.800033 1.35784 0
M  V30 240 C 23.1345 0.211565 2.28221 0
M  V30 241 C 24.1345 -0.59728 1.49296 0
M  V30 242 O 25.3245 -0.416721 1.69142 0
M  V30 243 C 22.4565 -0.705846 3.33513 0
M  V30 244 H 23.6495 1.02677 2.81776 0
M  V30 245 H 21.2025 0.570211 1.45528 0
M  V30 246 H 21.9375 -1.54498 2.85133 0
M  V30 247 H 21.7225 -0.127655 3.91892 0
M  V30 248 H 23.2125 -1.11211 4.02519 0
M  V30 249 N 23.6496 -1.47581 0.552962 0
M  V30 250 C 24.5796 -2.32762 -0.185451 0
M  V30 251 C 25.5606 -1.43527 -0.912905 0
M  V30 252 O 26.7456 -1.72388 -0.894201 0
M  V30 253 C 23.8756 -3.25219 -1.21859 0
M  V30 254 C 22.8296 -4.23661 -0.607864 0
M  V30 255 C 22.1556 -5.05413 -1.74533 0
M  V30 256 C 23.4556 -5.20481 0.435582 0
M  V30 257 H 25.1496 -2.94749 0.525684 0
M  V30 258 H 22.6956 -1.41738 0.254251 0
M  V30 259 H 24.6486 -3.8365 -1.7433 0
M  V30 260 H 23.3726 -2.61279 -1.95961 0
M  V30 261 H 22.0316 -3.66451 -0.104489 0
M  V30 262 H 21.6796 -4.3788 -2.47529 0
M  V30 263 H 21.3796 -5.72059 -1.34249 0
M  V30 264 H 22.9036 -5.66701 -2.27338 0
M  V30 265 H 24.3176 -5.733 -0.00290157 0
M  V30 266 H 22.7146 -5.95305 0.757067 0
M  V30 267 H 23.7846 -4.66217 1.33303 0
M  V30 268 N 25.1277 -0.289203 -1.54924 0
M  V30 269 C 26.0757 0.607966 -2.24514 0
M  V30 270 C 27.0697 1.14655 -1.24702 0
M  V30 271 O 28.2757 1.09856 -1.4259 0
M  V30 272 H 24.6507 0.21464 -0.720718 0
M  V30 273 H 26.6217 -0.00164182 -2.984 0
M  V30 274 C 25.3707 1.77406 -2.99036 0
M  V30 275 H 24.6937 1.36884 -3.75637 0
M  V30 276 H 26.1337 2.37814 -3.51028 0
M  V30 277 C 24.5927 2.67107 -2.05318 0
M  V30 278 O 25.1227 3.6787 -1.61353 0
M  V30 279 N 23.3287 2.34582 -1.71521 0
M  V30 280 H 22.8757 1.52688 -2.07471 0
M  V30 281 H 22.8337 2.94867 -1.0909 0
M  V30 282 N 26.6058 1.57591 -0.0167156 0
M  V30 283 C 27.5158 2.1291 0.98521 0
M  V30 284 C 28.5318 1.07834 1.36557 0
M  V30 285 O 29.7078 1.39826 1.44951 0
M  V30 286 C 26.7728 2.63512 2.25305 0
M  V30 287 C 25.8338 3.83256 1.93426 0
M  V30 288 C 25.0668 4.31435 3.14165 0
M  V30 289 O 25.2898 3.78851 4.26413 0
M  V30 290 O 24.2238 5.23416 2.97186 0
M  V30 291 H 28.0498 2.98772 0.544888 0
M  V30 292 H 25.6348 1.48012 0.203141 0
M  V30 293 H 27.5168 2.96183 2.99756 0
M  V30 294 H 26.1918 1.8074 2.68542 0
M  V30 295 H 25.0988 3.55531 1.16398 0
M  V30 296 H 26.4318 4.67153 1.55013 0
M  V30 297 N 28.0839 -0.256276 1.55502 0
M  V30 298 C 29.3089 -1.00766 1.81276 0
M  V30 299 C 29.7339 -1.78524 0.59252 0
M  V30 300 O 29.0919 -1.75413 -0.45827 0
M  V30 301 C 29.1399 -1.92869 3.04687 0
M  V30 302 O 28.2439 -3.019 2.80945 0
M  V30 303 H 27.5849 -0.287224 0.598664 0
M  V30 304 H 30.1149 -0.280109 2.02674 0
M  V30 305 H 30.1249 -2.34511 3.33869 0
M  V30 306 H 28.7999 -1.35689 3.93143 0
M  V30 307 H 27.3769 -2.64454 2.62904 0
M  V30 308 N 29.562 -1.4872 -0.521534 0
M  V30 309 C 30.509 -1.63871 -1.62527 0
M  V30 310 C 31.479 -0.480559 -1.58996 0
M  V30 311 O 32.664 -0.705085 -1.77294 0
M  V30 312 C 29.804 -1.69227 -3.00759 0
M  V30 313 C 28.917 -2.96207 -3.14461 0
M  V30 314 C 28.052 -2.92671 -4.43303 0
M  V30 315 C 27.091 -4.14318 -4.50563 0
M  V30 316 N 26.228 -4.0881 -5.70805 0
M  V30 317 H 31.068 -2.58123 -1.48918 0
M  V30 318 H 28.605 -1.28 -0.724878 0
M  V30 319 H 30.563 -1.70314 -3.80853 0
M  V30 320 H 29.193 -0.784586 -3.1312 0
M  V30 321 H 28.245 -3.04826 -2.27564 0
M  V30 322 H 29.557 -3.86192 -3.15686 0
M  V30 323 H 28.711 -2.92206 -5.31696 0
M  V30 324 H 27.45 -2.00429 -4.44612 0
M  V30 325 H 26.455 -4.15049 -3.60575 0
M  V30 326 H 27.68 -5.07729 -4.50986 0
M  V30 327 H 25.626 -3.19394 -5.72995 0
M  V30 328 H 25.543 -4.92509 -5.7356 0
M  V30 329 H 26.811 -4.12418 -6.61462 0
M  V30 330 N 31.0401 0.771051 -1.3745 0
M  V30 331 C 32.4561 1.07171 -1.18265 0
M  V30 332 C 32.6561 2.01491 -0.019287 0
M  V30 333 O 31.7121 2.44244 0.640408 0
M  V30 334 C 33.0251 1.66854 -2.50161 0
M  V30 335 C 34.5731 1.79109 -2.56689 0
M  V30 336 C 35.0481 2.42205 -3.88717 0
M  V30 337 N 36.5391 2.49655 -3.90162 0
M  V30 338 C 37.2741 2.9933 -4.8907 0
M  V30 339 N 36.7701 3.49172 -5.98374 0
M  V30 340 N 38.5631 2.9821 -4.76474 0
M  V30 341 H 30.7141 0.144796 -2.11906 0
M  V30 342 H 32.9771 0.126863 -0.939473 0
M  V30 343 H 32.6831 1.05017 -3.35655 0
M  V30 344 H 32.5571 2.6614 -2.673 0
M  V30 345 H 34.9441 2.40077 -1.71601 0
M  V30 346 H 35.0251 0.785757 -2.43433 0
M  V30 347 H 34.6691 1.81875 -4.74219 0
M  V30 348 H 34.5991 3.43345 -3.99276 0
M  V30 349 H 37.0901 2.14383 -3.11205 0
M  V30 350 H 37.4031 3.8548 -6.69795 0
M  V30 351 H 35.7481 3.47275 -6.02018 0
M  V30 352 H 38.9391 2.58572 -3.90203 0
M  V30 353 H 39.1121 3.36613 -5.53711 0
M  V30 354 N 32.5182 1.22032 0.997298 0
M  V30 355 C 33.7642 1.04376 1.73878 0
M  V30 356 C 34.0972 -0.420716 1.89588 0
M  V30 357 O 33.3722 -1.31202 1.43583 0
M  V30 358 C 33.6552 1.75047 3.14691 0
M  V30 359 C 33.5082 3.29062 3.06656 0
M  V30 360 C 34.8272 1.49928 4.13775 0
M  V30 361 H 31.9462 0.380578 0.631133 0
M  V30 362 H 34.5882 1.50312 1.16217 0
M  V30 363 H 32.7382 1.35996 3.63919 0
M  V30 364 H 34.4102 3.7753 2.65083 0
M  V30 365 H 32.6532 3.58967 2.43568 0
M  V30 366 H 33.3242 3.73683 4.06282 0
M  V30 367 H 35.8002 1.83842 3.73285 0
M  V30 368 H 34.6762 2.01878 5.10428 0
M  V30 369 H 34.9372 0.430929 4.39995 0
M  V30 370 N 33.9963 -1.19345 1.0293 0
M  V30 371 C 34.9443 -2.24621 0.604001 0
M  V30 372 C 35.9383 -1.65452 -0.363587 0
M  V30 373 O 37.1443 -1.78497 -0.23212 0
M  V30 374 H 33.5193 -0.730858 0.177061 0
M  V30 375 H 35.4903 -2.5781 1.50255 0
M  V30 376 C 34.2393 -3.47688 -0.0289127 0
M  V30 377 H 33.5623 -3.93505 0.706651 0
M  V30 378 H 35.0023 -4.23011 -0.289432 0
M  V30 379 C 33.4613 -3.11817 -1.2756 0
M  V30 380 O 33.9913 -3.2451 -2.36762 0
M  V30 381 N 32.1973 -2.66246 -1.16453 0
M  V30 382 H 31.7443 -2.56118 -0.275914 0
M  V30 383 H 31.7023 -2.42617 -1.99961 0
M  V30 384 N 35.4744 -0.807222 -1.35358 0
M  V30 385 C 36.4224 -0.20614 -2.31685 0
M  V30 386 C 37.4164 0.644445 -1.56663 0
M  V30 387 O 38.6224 0.537538 -1.71786 0
M  V30 388 H 34.9974 -0.0479006 -0.750473 0
M  V30 389 H 36.9684 -1.03369 -2.79924 0
M  V30 390 C 35.7174 0.630212 -3.41941 0
M  V30 391 H 35.0404 -0.0149558 -3.99797 0
M  V30 392 H 36.4804 1.01716 -4.11619 0
M  V30 393 C 34.9394 1.79601 -2.85035 0
M  V30 394 O 35.4694 2.89351 -2.78637 0
M  V30 395 N 33.6754 1.60774 -2.42074 0
M  V30 396 H 33.2224 0.715009 -2.47478 0
M  V30 397 H 33.1804 2.38933 -2.04349 0
M  V30 398 N 36.9525 1.47285 -0.560781 0
M  V30 399 C 38.2005 2.02064 -0.0379868 0
M  V30 400 C 38.5215 1.43711 1.31803 0
M  V30 401 O 37.7915 0.61362 1.86042 0
M  V30 402 H 36.3715 0.746918 -0.0110531 0
M  V30 403 H 39.0335 1.80648 -0.731598 0
M  V30 404 H 38.1295 3.12064 0.0474463 0
M  V30 405 N 38.4306 0.297415 1.54768 0
M  V30 406 C 39.3786 -0.596051 2.24833 0
M  V30 407 C 40.3726 -1.13992 1.25308 0
M  V30 408 O 41.5786 -1.09098 1.4317 0
M  V30 409 H 37.9536 -0.210814 0.721846 0
M  V30 410 H 39.9246 0.0174667 2.98395 0
M  V30 411 C 38.6736 -1.75818 2.99972 0
M  V30 412 H 37.9966 -1.3489 3.76357 0
M  V30 413 H 39.4366 -2.35949 3.52284 0
M  V30 414 C 37.8956 -2.66014 2.06732 0
M  V30 415 O 38.4256 -3.67009 1.63302 0
M  V30 416 N 36.6316 -2.33669 1.72763 0
M  V30 417 H 36.1786 -1.51586 2.08277 0
M  V30 418 H 36.1366 -2.94285 1.10652 0
M  V30 419 N 39.9087 -1.5758 0.0250728 0
M  V30 420 C 41.1367 -1.9593 -0.664747 0
M  V30 421 C 41.5517 -0.901352 -1.65895 0
M  V30 422 O 40.9087 0.117255 -1.82123 0
M  V30 423 C 40.9597 -3.34342 -1.37468 0
M  V30 424 O 40.6807 -4.36079 -0.420324 0
M  V30 425 C 42.1817 -3.873 -2.1567 0
M  V30 426 H 39.4017 -0.645405 -0.183557 0
M  V30 427 H 41.9457 -2.04329 0.0836372 0
M  V30 428 H 40.1007 -3.27175 -2.0745 0
M  V30 429 H 40.5147 -5.16297 -0.923991 0
M  V30 430 H 41.9887 -4.86504 -2.60803 0
M  V30 431 H 42.4657 -3.21331 -2.99405 0
M  V30 432 H 43.0717 -3.97723 -1.50654 0
M  V30 433 N 41.3868 0.248026 -1.55636 0
M  V30 434 C 42.3498 1.29044 -1.89421 0
M  V30 435 C 43.3498 1.41134 -0.770581 0
M  V30 436 O 44.5398 1.39854 -1.03858 0
M  V30 437 C 41.6718 2.66831 -2.12165 0
M  V30 438 H 42.8648 1.00305 -2.82629 0
M  V30 439 H 40.4178 0.487265 -1.48511 0
M  V30 440 H 41.1528 3.00711 -1.21422 0
M  V30 441 H 40.9378 2.59438 -2.93997 0
M  V30 442 H 42.4278 3.42103 -2.3949 0
M  V30 443 N 42.8649 1.48995 0.513639 0
M  V30 444 C 44.2759 1.5119 1.09537 0
M  V30 445 C 44.6269 0.290906 1.94031 0
M  V30 446 O 43.7519 -0.60049 2.07902 0
M  V30 447 C 44.3469 2.73964 1.99322 0
M  V30 448 C 42.9059 2.78978 2.52682 0
M  V30 449 C 42.0529 2.44934 1.30009 0
M  V30 450 H 45.0039 1.55875 0.298125 0
M  V30 451 H 45.0249 2.53409 2.83838 0
M  V30 452 H 44.5369 3.62813 1.37799 0
M  V30 453 H 42.6379 1.94378 3.1788 0
M  V30 454 H 42.7509 3.8083 2.90698 0
M  V30 455 H 41.1149 1.9644 1.62122 0
M  V30 456 H 41.8979 3.36043 0.702131 0
M  V30 457 N 44.343 -0.763751 1.37857 0
M  V30 458 C 45.253 -1.90817 1.36478 0
M  V30 459 C 46.269 -1.71997 0.263248 0
M  V30 460 O 47.445 -1.95095 0.499979 0
M  V30 461 C 44.51 -3.2605 1.17864 0
M  V30 462 C 43.571 -3.57467 2.3773 0
M  V30 463 C 42.804 -4.86249 2.19995 0
M  V30 464 O 43.027 -5.57884 1.18836 0
M  V30 465 O 41.961 -5.16911 3.08361 0
M  V30 466 H 45.787 -1.94933 2.32884 0
M  V30 467 H 43.372 -0.907619 1.1867 0
M  V30 468 H 45.254 -4.06924 1.09504 0
M  V30 469 H 43.929 -3.22769 0.245372 0
M  V30 470 H 42.836 -2.76796 2.51664 0
M  V30 471 H 44.169 -3.655 3.29652 0
M  V30 472 N 45.8211 -1.22559 -0.990812 0
M  V30 473 C 47.0981 -0.959875 -1.70428 0
M  V30 474 C 47.4781 0.524455 -2.04481 0
M  V30 475 O 46.8261 1.49302 -1.72977 0
M  V30 476 C 47.0361 -1.85955 -2.95333 0
M  V30 477 C 48.3841 -2.11687 -3.68068 0
M  V30 478 O 49.4081 -1.8342 -3.05345 0
M  V30 479 O 48.2671 -2.59572 -4.80921 0
M  V30 480 H 45.3611 -0.361154 -0.743974 0
M  V30 481 H 47.9071 -1.33554 -1.04697 0
M  V30 482 H 46.6791 -2.86346 -2.66687 0
M  V30 483 H 46.3021 -1.4856 -3.68803 0
M  V30 484 N 47.2992 1.18797 -1.03562 0
M  V30 485 C 48.5242 1.9314 -0.755764 0
M  V30 486 C 48.9492 1.7537 0.68022 0
M  V30 487 O 48.3072 1.06046 1.47051 0
M  V30 488 C 48.3552 3.42747 -1.12058 0
M  V30 489 O 47.4592 4.11683 -0.243124 0
M  V30 490 H 46.8002 0.602724 -0.278604 0
M  V30 491 H 49.3302 1.50678 -1.3841 0
M  V30 492 H 49.3402 3.93437 -1.08035 0
M  V30 493 H 48.0152 3.55002 -2.16672 0
M  V30 494 H 46.5922 3.71323 -0.342539 0
M  V30 495 N 48.7773 0.814389 1.34928 0
M  V30 496 C 50.0023 0.410097 2.03305 0
M  V30 497 C 50.4273 -0.973464 1.60951 0
M  V30 498 O 49.7853 -1.63185 0.789964 0
M  V30 499 C 49.8333 0.51049 3.56968 0
M  V30 500 O 48.9373 -0.473035 4.09678 0
M  V30 501 H 48.2783 0.170088 0.641846 0
M  V30 502 H 50.8083 1.10244 1.72358 0
M  V30 503 H 50.8183 0.383135 4.06197 0
M  V30 504 H 49.4933 1.51963 3.87144 0
M  V30 505 H 48.0703 -0.305272 3.71648 0
M  V30 506 N 50.2554 -1.46986 0.568584 0
M  V30 507 C 51.6664 -1.86188 0.138219 0
M  V30 508 C 52.0174 -1.47388 -1.29504 0
M  V30 509 O 51.1424 -0.88219 -1.97602 0
M  V30 510 C 51.7374 -3.3792 0.244065 0
M  V30 511 C 50.2964 -3.76171 -0.131335 0
M  V30 512 C 49.4434 -2.71027 0.586465 0
M  V30 513 H 52.3944 -1.38342 0.777645 0
M  V30 514 H 52.4154 -3.76729 -0.534351 0
M  V30 515 H 51.9274 -3.66128 1.28731 0
M  V30 516 H 50.0284 -3.5358 -1.17526 0
M  V30 517 H 50.1414 -4.78523 0.235146 0
M  V30 518 H 48.5054 -2.54684 0.0282722 0
M  V30 519 H 49.2884 -3.02077 1.63109 0
M  V30 520 N 51.7335 -0.305618 -1.54608 0
M  V30 521 C 52.6965 0.555591 -2.22364 0
M  V30 522 C 53.6965 1.05768 -1.21119 0
M  V30 523 O 54.8865 0.952972 -1.45822 0
M  V30 524 C 52.0185 1.76974 -2.91364 0
M  V30 525 H 53.2115 -0.0364572 -2.99878 0
M  V30 526 H 50.7645 -0.0565007 -1.56198 0
M  V30 527 H 51.4995 2.40151 -2.17941 0
M  V30 528 H 51.2845 1.41732 -3.65588 0
M  V30 529 H 52.7745 2.38148 -3.43038 0
M  V30 530 N 53.2116 1.57565 -0.0334293 0
M  V30 531 C 54.1586 2.10478 0.946981 0
M  V30 532 C 55.1286 1.00787 1.32027 0
M  V30 533 O 56.3136 1.28232 1.41284 0
M  V30 534 C 53.4536 2.63994 2.22263 0
M  V30 535 C 52.5666 3.87709 1.90541 0
M  V30 536 C 51.7016 4.29604 3.12433 0
M  V30 537 C 50.7406 5.46065 2.76549 0
M  V30 538 N 49.8776 5.83096 3.9108 0
M  V30 539 H 54.7176 2.93963 0.488846 0
M  V30 540 H 52.2546 1.45296 0.22969 0
M  V30 541 H 54.2126 2.93114 2.96884 0
M  V30 542 H 52.8426 1.83333 2.65685 0
M  V30 543 H 51.8946 3.65291 1.06144 0
M  V30 544 H 53.2066 4.72403 1.60116 0
M  V30 545 H 52.3606 4.60182 3.9537 0
M  V30 546 H 51.0996 3.43685 3.46023 0
M  V30 547 H 50.1046 5.15176 1.92026 0
M  V30 548 H 51.3296 6.33685 2.44171 0
M  V30 549 H 49.2756 5.00132 4.24504 0
M  V30 550 H 49.1926 6.6244 3.64293 0
M  V30 551 H 50.4606 6.18282 4.74708 0
M  V30 552 N 54.6897 -0.239769 1.55765 0
M  V30 553 C 55.6367 -1.29696 1.90913 0
M  V30 554 C 56.6067 -1.47478 0.764164 0
M  V30 555 O 57.7917 -1.61345 1.01845 0
M  V30 556 C 54.9317 -2.64598 2.21544 0
M  V30 557 C 54.0447 -2.54765 3.48882 0
M  V30 558 C 53.1797 -3.82069 3.69049 0
M  V30 559 C 52.2187 -3.66883 4.89963 0
M  V30 560 N 51.3557 -4.86094 5.06614 0
M  V30 561 H 56.1957 -0.990224 2.81067 0
M  V30 562 H 53.7327 -0.477684 1.39128 0
M  V30 563 H 55.6907 -3.43132 2.3731 0
M  V30 564 H 54.3207 -2.93405 1.34585 0
M  V30 565 H 53.3727 -1.67763 3.41409 0
M  V30 566 H 54.6847 -2.39457 4.37563 0
M  V30 567 H 53.8387 -4.69046 3.84812 0
M  V30 568 H 52.5777 -4.00282 2.78614 0
M  V30 569 H 51.5827 -2.78289 4.74168 0
M  V30 570 H 52.8077 -3.50157 5.81865 0
M  V30 571 H 50.7537 -5.04655 4.19117 0
M  V30 572 H 50.6707 -4.73443 5.89396 0
M  V30 573 H 51.9387 -5.74549 5.26795 0
M  V30 574 N 56.1678 -1.49265 -0.50573 0
M  V30 575 C 57.3958 -1.62215 -1.28429 0
M  V30 576 C 57.8108 -0.291697 -1.86533 0
M  V30 577 O 57.1678 0.722233 -1.67601 0
M  V30 578 C 57.2188 -2.68735 -2.41793 0
M  V30 579 O 56.9398 -3.96619 -1.86078 0
M  V30 580 C 58.4408 -2.92346 -3.3324 0
M  V30 581 H 55.6608 -0.546239 -0.389697 0
M  V30 582 H 58.2048 -1.95265 -0.607609 0
M  V30 583 H 56.3598 -2.38476 -3.053 0
M  V30 584 H 56.7738 -4.55256 -2.60465 0
M  V30 585 H 58.2478 -3.70623 -4.09075 0
M  V30 586 H 58.7248 -2.02081 -3.89948 0
M  V30 587 H 59.3308 -3.24003 -2.75503 0
M  V30 588 N 57.6459 0.756429 -1.3826 0
M  V30 589 C 59.0619 1.0591 -1.19395 0
M  V30 590 C 59.2619 2.01459 -0.0406567 0
M  V30 591 O 58.3179 2.44909 0.614467 0
M  V30 592 C 59.6309 1.64191 -2.51916 0
M  V30 593 C 61.1789 1.76376 -2.58574 0
M  V30 594 C 61.6539 2.38069 -3.91264 0
M  V30 595 N 63.1449 2.45503 -3.92788 0
M  V30 596 C 63.8799 2.94126 -4.92217 0
M  V30 597 N 63.3759 3.42805 -6.02043 0
M  V30 598 N 65.1689 2.9314 -4.7961 0
M  V30 599 H 57.3199 0.122313 -2.12048 0
M  V30 600 H 59.5829 0.116892 -0.940766 0
M  V30 601 H 59.2889 1.01451 -3.3675 0
M  V30 602 H 59.1629 2.6329 -2.70108 0
M  V30 603 H 61.5499 2.38244 -1.74137 0
M  V30 604 H 61.6309 0.759894 -2.44252 0
M  V30 605 H 61.2749 1.76835 -4.76121 0
M  V30 606 H 61.2049 3.39091 -4.02895 0
M  V30 607 H 63.6959 2.1107 -3.13461 0
M  V30 608 H 64.0089 3.78354 -6.73846 0
M  V30 609 H 62.3539 3.4087 -6.05667 0
M  V30 610 H 65.5449 2.54419 -3.92923 0
M  V30 611 H 65.7179 3.30721 -5.5725 0
M  V30 612 N 59.124 1.23083 0.984299 0
M  V30 613 C 60.54 0.992637 1.24975 0
M  V30 614 C 60.74 -0.308618 1.99123 0
M  V30 615 O 59.796 -1.02905 2.30579 0
M  V30 616 C 61.109 2.19698 2.05312 0
M  V30 617 C 62.657 2.24147 2.18465 0
M  V30 618 C 63.132 3.44157 3.02192 0
M  V30 619 N 64.623 3.44372 3.09777 0
M  V30 620 C 65.358 4.33886 3.74874 0
M  V30 621 N 64.854 5.3363 4.41827 0
M  V30 622 N 66.647 4.21639 3.71721 0
M  V30 623 H 58.798 2.06731 0.487453 0
M  V30 624 H 61.061 0.906339 0.277944 0
M  V30 625 H 60.767 3.1411 1.58201 0
M  V30 626 H 60.641 2.20465 3.06064 0
M  V30 627 H 63.028 1.30277 2.64786 0
M  V30 628 H 63.109 2.27415 1.17115 0
M  V30 629 H 62.753 4.38332 2.56568 0
M  V30 630 H 62.683 3.3813 4.03702 0
M  V30 631 H 65.174 2.72201 2.62135 0
M  V30 632 H 65.487 5.98196 4.89266 0
M  V30 633 H 63.832 5.37534 4.40548 0
M  V30 634 H 67.023 3.42962 3.18582 0
M  V30 635 H 67.196 4.91604 4.22173 0
M  V30 636 N 60.6021 -1.18246 1.0419 0
M  V30 637 C 61.8421 -1.89948 0.754916 0
M  V30 638 C 62.2061 -1.78608 -0.70451 0
M  V30 639 O 63.4071 -2.4503 -1.10516 0
M  V30 640 C 61.6781 -3.36305 1.20969 0
M  V30 641 S 63.2371 -4.26088 1.04854 0
M  V30 642 H 60.0551 -0.655897 0.274446 0
M  V30 643 H 62.6571 -1.42873 1.33445 0
M  V30 644 H 61.3611 -3.42089 2.26722 0
M  V30 645 H 60.8921 -3.8842 0.624004 0
M  V30 646 H 62.9071 -4.96189 -0.0332896 0
M  V30 647 N 62.0802 -0.821533 -1.34494 0
M  V30 648 C 63.0122 -0.199946 -2.28326 0
M  V30 649 C 64.0252 0.609377 -1.50965 0
M  V30 650 O 65.2142 0.439285 -1.7301 0
M  V30 651 C 62.3142 0.738431 -3.30757 0
M  V30 652 C 61.4872 -0.0277632 -4.37391 0
M  V30 653 C 60.5462 0.831332 -5.19591 0
M  V30 654 O 59.5722 0.276822 -5.68526 0
M  V30 655 N 60.7742 2.15132 -5.39165 0
M  V30 656 H 63.5392 -1.00609 -2.82308 0
M  V30 657 H 61.1002 -0.678366 -1.47003 0
M  V30 658 H 63.0922 1.31773 -3.82646 0
M  V30 659 H 61.6622 1.44533 -2.7718 0
M  V30 660 H 60.8822 -0.788359 -3.86236 0
M  V30 661 H 62.1702 -0.555251 -5.05761 0
M  V30 662 H 61.5682 2.62559 -5.01078 0
M  V30 663 H 60.1252 2.6795 -5.94177 0
M  V30 664 N 63.5583 1.46682 -0.576371 0
M  V30 665 C 64.9743 1.57822 -0.237562 0
M  V30 666 C 65.1743 1.57237 1.26011 0
M  V30 667 O 64.2303 1.48596 2.04146 0
M  V30 668 C 65.5433 2.87499 -0.881168 0
M  V30 669 C 67.0913 3.01119 -0.85417 0
M  V30 670 C 67.5663 4.33524 -1.4772 0
M  V30 671 N 69.0573 4.40207 -1.44125 0
M  V30 672 C 69.7923 5.4126 -1.89276 0
M  V30 673 N 69.2883 6.49021 -2.42371 0
M  V30 674 N 71.0813 5.32422 -1.80231 0
M  V30 675 H 63.2323 1.45306 -1.54919 0
M  V30 676 H 65.4953 0.692733 -0.647167 0
M  V30 677 H 65.2013 2.9372 -1.93447 0
M  V30 678 H 65.0753 3.75224 -0.385592 0
M  V30 679 H 67.4623 2.94485 0.190491 0
M  V30 680 H 67.5433 2.14887 -1.3877 0
M  V30 681 H 67.1873 4.40916 -2.52103 0
M  V30 682 H 67.1173 5.1852 -0.918947 0
M  V30 683 H 69.6083 3.62931 -1.05307 0
M  V30 684 H 69.9213 7.2233 -2.74698 0
M  V30 685 H 68.2663 6.49858 -2.46393 0
M  V30 686 H 71.4573 4.47137 -1.38514 0
M  V30 687 H 71.6303 6.11034 -2.15735 0
M  V30 688 N 65.0364 0.313813 1.54444 0
M  V30 689 C 65.9684 -0.590425 2.21465 0
M  V30 690 C 66.9814 -1.08753 1.21147 0
M  V30 691 O 68.1704 -1.00278 1.4767 0
M  V30 692 C 65.2704 -1.82179 2.85769 0
M  V30 693 C 64.4434 -1.46502 4.12136 0
M  V30 694 C 63.5024 -2.55288 4.60124 0
M  V30 695 O 62.5284 -2.19842 5.25032 0
M  V30 696 N 63.7304 -3.86053 4.33525 0
M  V30 697 H 66.4954 -0.0166033 2.99695 0
M  V30 698 H 64.0564 0.136578 1.61323 0
M  V30 699 H 66.0484 -2.54328 3.14801 0
M  V30 700 H 64.6184 -2.30369 2.11303 0
M  V30 701 H 63.8384 -0.575595 3.89975 0
M  V30 702 H 65.1264 -1.20221 4.94393 0
M  V30 703 H 64.5244 -4.17654 3.81552 0
M  V30 704 H 63.0814 -4.54461 4.67235 0
M  V30 705 N 66.5145 -1.57545 0.0417849 0
M  V30 706 C 67.4245 -2.14451 -0.951213 0
M  V30 707 C 68.4405 -1.09992 -1.34825 0
M  V30 708 O 69.6165 -1.42114 -1.42708 0
M  V30 709 C 66.6815 -2.67063 -2.21084 0
M  V30 710 C 65.7425 -3.86284 -1.87304 0
M  V30 711 C 64.9755 -4.36378 -3.07261 0
M  V30 712 O 65.1985 -3.85587 -4.20332 0
M  V30 713 O 64.1325 -5.28077 -2.88822 0
M  V30 714 H 67.9585 -2.99601 -0.497287 0
M  V30 715 H 65.5435 -1.48317 -0.179567 0
M  V30 716 H 67.4255 -3.00914 -2.95006 0
M  V30 717 H 66.1005 -1.84989 -2.65633 0
M  V30 718 H 65.0075 -3.57338 -1.10727 0
M  V30 719 H 66.3405 -4.6956 -1.47562 0
M  V30 720 N 67.9926 0.231505 -1.5589 0
M  V30 721 C 69.2176 0.978689 -1.82856 0
M  V30 722 C 69.6426 1.77559 -0.620846 0
M  V30 723 O 69.0006 1.76119 0.430305 0
M  V30 724 C 69.0486 1.87997 -3.07716 0
M  V30 725 O 68.1526 2.97393 -2.85712 0
M  V30 726 H 67.4936 0.277663 -0.603158 0
M  V30 727 H 70.0236 0.24783 -2.03093 0
M  V30 728 H 70.0336 2.2917 -3.37558 0
M  V30 729 H 68.7086 1.29417 -3.95252 0
M  V30 730 H 67.2856 2.60238 -2.67078 0
M  V30 731 N 69.4707 1.49531 0.497807 0
M  V30 732 C 70.4177 1.66436 1.59899 0
M  V30 733 C 71.3877 0.505793 1.58212 0
M  V30 734 O 72.5727 0.733202 1.7615 0
M  V30 735 C 69.7127 1.7399 2.98029 0
M  V30 736 C 68.8257 3.01172 3.09708 0
M  V30 737 C 67.9607 2.99686 4.38591 0
M  V30 738 C 66.9997 4.21434 4.43914 0
M  V30 739 N 66.1367 4.1784 5.64229 0
M  V30 740 H 70.9767 2.60459 1.44793 0
M  V30 741 H 68.5137 1.29137 0.704423 0
M  V30 742 H 70.4717 1.76352 3.78095 0
M  V30 743 H 69.1017 0.834301 3.11832 0
M  V30 744 H 68.1537 3.08408 2.22685 0
M  V30 745 H 69.4657 3.91165 3.09502 0
M  V30 746 H 68.6197 3.00628 5.2698 0
M  V30 747 H 67.3587 2.07477 4.41367 0
M  V30 748 H 66.3637 4.20733 3.53926 0
M  V30 749 H 67.5887 5.14839 4.42851 0
M  V30 750 H 65.5347 3.28469 5.67841 0
M  V30 751 H 65.4517 5.01571 5.65652 0
M  V30 752 H 66.7197 4.22889 6.54817 0
M  V30 753 N 70.9488 -0.749086 1.3866 0
M  V30 754 C 71.8958 -1.86291 1.36251 0
M  V30 755 C 72.8658 -1.64578 0.224347 0
M  V30 756 O 74.0508 -1.86181 0.417279 0
M  V30 757 C 71.1908 -3.23644 1.19786 0
M  V30 758 C 70.3038 -3.57158 2.43027 0
M  V30 759 C 69.4388 -4.83838 2.19258 0
M  V30 760 C 68.4778 -5.10152 3.38247 0
M  V30 761 N 67.6148 -6.28029 3.13884 0
M  V30 762 H 72.4548 -1.87685 2.3147 0
M  V30 763 H 69.9918 -0.917287 1.14997 0
M  V30 764 H 71.9498 -4.0291 1.08254 0
M  V30 765 H 70.5798 -3.21566 0.282031 0
M  V30 766 H 69.6318 -2.72701 2.65214 0
M  V30 767 H 70.9438 -3.7253 3.31697 0
M  V30 768 H 70.0978 -5.71057 2.04888 0
M  V30 769 H 68.8368 -4.70614 1.2796 0
M  V30 770 H 67.8418 -4.21401 3.53131 0
M  V30 771 H 69.0668 -5.25271 4.30427 0
M  V30 772 H 67.0128 -6.1612 2.25238 0
M  V30 773 H 66.9298 -6.43922 3.96106 0
M  V30 774 H 68.1978 -7.18124 3.03179 0
M  V30 775 N 72.4269 -1.23603 -0.977757 0
M  V30 776 C 73.3599 -0.962772 -2.06896 0
M  V30 777 C 74.3379 0.0998743 -1.62293 0
M  V30 778 O 75.5219 -0.0349421 -1.88468 0
M  V30 779 C 72.6489 -0.45095 -3.35685 0
M  V30 780 C 71.6949 -1.50061 -3.99229 0
M  V30 781 S 72.5279 -3.07884 -4.38142 0
M  V30 782 C 73.6839 -2.58378 -5.7008 0
M  V30 783 H 73.9169 -1.88677 -2.29757 0
M  V30 784 H 71.4499 -1.06876 -1.11431 0
M  V30 785 H 73.4079 -0.162261 -4.10179 0
M  V30 786 H 72.0689 0.452179 -3.10828 0
M  V30 787 H 71.2619 -1.09269 -4.92013 0
M  V30 788 H 70.8639 -1.73878 -3.31123 0
M  V30 789 H 73.1559 -2.00563 -6.47133 0
M  V30 790 H 74.0989 -3.49711 -6.15717 0
M  V30 791 H 74.5069 -1.99143 -5.28207 0
M  V30 792 N 73.905 1.17692 -1.04816 0
M  V30 793 C 75.316 1.69501 -0.782698 0
M  V30 794 C 75.667 1.83456 0.695577 0
M  V30 795 O 74.792 1.51942 1.54086 0
M  V30 796 C 75.387 3.07874 -1.41419 0
M  V30 797 C 73.946 3.56864 -1.19686 0
M  V30 798 C 73.093 2.3322 -1.50012 0
M  V30 799 H 76.044 1.02262 -1.2136 0
M  V30 800 H 76.065 3.71528 -0.821428 0
M  V30 801 H 75.577 2.97685 -2.49009 0
M  V30 802 H 73.678 3.72337 -0.140043 0
M  V30 803 H 73.791 4.39851 -1.89916 0
M  V30 804 H 72.155 2.37501 -0.920071 0
M  V30 805 H 72.938 2.25644 -2.58727 0
M  V30 806 N 75.3831 0.828654 1.34056 0
M  V30 807 C 76.6291 0.42008 1.98402 0
M  V30 808 C 76.9621 -1.01564 1.65525 0
M  V30 809 O 76.2371 -1.70834 0.929831 0
M  V30 810 C 76.5201 0.62927 3.54559 0
M  V30 811 C 76.3731 2.11152 3.97159 0
M  V30 812 C 77.6921 0.0688756 4.40046 0
M  V30 813 H 74.8111 0.154104 0.720709 0
M  V30 814 H 77.4531 1.04228 1.5886 0
M  V30 815 H 75.6031 0.0996418 3.88372 0
M  V30 816 H 77.2751 2.70522 3.73651 0
M  V30 817 H 75.5181 2.59985 3.47261 0
M  V30 818 H 76.1891 2.20868 5.05887 0
M  V30 819 H 78.6651 0.521458 4.1282 0
M  V30 820 H 77.5411 0.245006 5.48353 0
M  V30 821 H 77.8021 -1.0266 4.30015 0
M  V30 822 N 76.8612 -1.46375 0.584142 0
M  V30 823 C 77.8242 -2.28784 -0.138108 0
M  V30 824 C 78.8242 -1.38471 -0.817462 0
M  V30 825 O 80.0142 -1.60833 -0.669199 0
M  V30 826 C 77.1462 -3.18892 -1.20503 0
M  V30 827 H 78.3392 -2.94117 0.586127 0
M  V30 828 H 75.8922 -1.52509 0.342171 0
M  V30 829 H 76.6272 -2.58309 -1.96079 0
M  V30 830 H 76.4122 -3.85388 -0.722384 0
M  V30 831 H 77.9022 -3.80914 -1.71155 0
M  V30 832 N 78.3393 -0.321999 -1.54275 0
M  V30 833 C 79.5873 0.280489 -2.00144 0
M  V30 834 C 79.9083 1.52777 -1.21178 0
M  V30 835 O 79.1783 1.9338 -0.313187 0
M  V30 836 H 77.7583 0.106632 -0.73935 0
M  V30 837 H 80.4203 -0.438184 -1.8991 0
M  V30 838 H 79.5163 0.537972 -3.07428 0
M  V30 839 N 79.8174 1.5752 -0.0501392 0
M  V30 840 C 81.0654 1.9227 0.622642 0
M  V30 841 C 81.3864 0.929083 1.71444 0
M  V30 842 O 80.6564 -0.0262186 1.95882 0
M  V30 843 H 79.2364 0.709739 0.232981 0
M  V30 844 H 81.8984 1.94628 -0.102898 0
M  V30 845 H 80.9944 2.93479 1.06191 0
M  V30 846 N 81.2955 -0.223234 1.56011 0
M  V30 847 C 82.2425 -1.27664 1.92277 0
M  V30 848 C 83.2125 -1.46659 0.779763 0
M  V30 849 O 84.3975 -1.60256 1.03551 0
M  V30 850 C 81.5375 -2.62234 2.24338 0
M  V30 851 C 80.6505 -2.51051 3.51564 0
M  V30 852 C 79.7855 -3.78133 3.7308 0
M  V30 853 C 78.8245 -3.61665 4.93827 0
M  V30 854 N 77.9615 -4.80693 5.11741 0
M  V30 855 H 82.8015 -0.960358 2.82101 0
M  V30 856 H 80.3385 -0.462901 1.39627 0
M  V30 857 H 82.2965 -3.40596 2.40936 0
M  V30 858 H 80.9265 -2.91961 1.3769 0
M  V30 859 H 79.9785 -1.64132 3.43169 0
M  V30 860 H 81.2905 -2.34803 4.40079 0
M  V30 861 H 80.4445 -4.64938 3.89766 0
M  V30 862 H 79.1835 -3.97304 2.82844 0
M  V30 863 H 78.1885 -2.73244 4.77093 0
M  V30 864 H 79.4135 -3.43966 5.85546 0
M  V30 865 H 77.3595 -5.00181 4.24446 0
M  V30 866 H 77.2765 -4.67165 5.94384 0
M  V30 867 H 78.5445 -5.6893 5.3286 0
M  V30 868 N 82.7736 -1.49793 -0.48987 0
M  V30 869 C 83.7366 -1.66752 -1.57246 0
M  V30 870 C 84.7366 -0.538867 -1.51502 0
M  V30 871 O 85.9266 -0.805545 -1.54456 0
M  V30 872 C 83.0586 -1.67528 -2.96896 0
M  V30 873 H 84.2516 -2.63321 -1.43534 0
M  V30 874 H 81.8046 -1.38992 -0.714914 0
M  V30 875 H 82.5396 -0.725837 -3.16073 0
M  V30 876 H 82.3246 -2.49504 -3.02473 0
M  V30 877 H 83.8146 -1.82667 -3.7553 0
M  V30 878 N 84.2517 0.741722 -1.39055 0
M  V30 879 C 85.1997 1.87702 -1.3737 0
M  V30 880 C 86.1937 1.67427 -0.257812 0
M  V30 881 O 87.3997 1.7485 -0.427489 0
M  V30 882 H 83.7747 0.617757 -0.428812 0
M  V30 883 H 85.7457 1.86239 -2.33147 0
M  V30 884 C 84.4947 3.25315 -1.22741 0
M  V30 885 H 83.8177 3.41509 -2.07873 0
M  V30 886 H 85.2577 4.04964 -1.25618 0
M  V30 887 C 83.7167 3.36838 0.0647316 0
M  V30 888 O 84.2467 3.88073 1.03741 0
M  V30 889 N 82.4527 2.90329 0.125544 0
M  V30 890 H 81.9997 2.48823 -0.666682 0
M  V30 891 H 81.9577 2.98418 0.989639 0
M  V30 892 N 85.7298 1.2412 0.971189 0
M  V30 893 C 86.6768 1.0305 2.06517 0
M  V30 894 C 87.6468 -0.0550666 1.66009 0
M  V30 895 O 88.8318 0.0988688 1.90544 0
M  V30 896 C 85.9718 0.637653 3.39158 0
M  V30 897 C 85.0848 1.79633 3.92882 0
M  V30 898 C 84.2198 1.34939 5.13775 0
M  V30 899 C 83.2588 2.47823 5.59687 0
M  V30 900 N 82.3958 2.04022 6.71803 0
M  V30 901 H 87.2358 1.96685 2.23873 0
M  V30 902 H 84.7728 0.979694 1.09729 0
M  V30 903 H 86.7308 0.390931 4.15364 0
M  V30 904 H 85.3608 -0.261693 3.21737 0
M  V30 905 H 84.4128 2.15681 3.13346 0
M  V30 906 H 85.7248 2.64466 4.22918 0
M  V30 907 H 84.8788 1.06134 5.97345 0
M  V30 908 H 83.6178 0.471557 4.85415 0
M  V30 909 H 82.6228 2.77392 4.74693 0
M  V30 910 H 83.8478 3.36158 5.90063 0
M  V30 911 H 81.7938 1.18632 6.45184 0
M  V30 912 H 81.7108 2.82409 7.01271 0
M  V30 913 H 82.9788 1.78347 7.58823 0
M  V30 914 N 87.2079 -1.17134 1.05439 0
M  V30 915 C 88.4849 -1.83411 0.679699 0
M  V30 916 C 88.8649 -1.9368 -0.839726 0
M  V30 917 O 88.2129 -1.47325 -1.74664 0
M  V30 918 C 88.4229 -3.20918 1.37159 0
M  V30 919 C 89.7709 -3.96796 1.51123 0
M  V30 920 O 90.7949 -3.30406 1.3308 0
M  V30 921 O 89.6539 -5.15778 1.80651 0
M  V30 922 H 86.7479 -0.79154 0.239569 0
M  V30 923 H 89.2939 -1.24411 1.15413 0
M  V30 924 H 88.0659 -3.08428 2.40807 0
M  V30 925 H 87.6889 -3.87587 0.886674 0
M  V30 926 N 88.686 -0.835752 -1.33615 0
M  V30 927 C 90.102 -0.523139 -1.50783 0
M  V30 928 C 90.302 0.950171 -1.77691 0
M  V30 929 O 89.358 1.73411 -1.83534 0
M  V30 930 C 90.671 -1.39378 -2.66448 0
M  V30 931 C 92.219 -1.39223 -2.80332 0
M  V30 932 C 92.694 -2.24765 -3.99055 0
M  V30 933 N 94.185 -2.22458 -4.06284 0
M  V30 934 C 94.92 -2.85386 -4.97336 0
M  V30 935 N 94.416 -3.57354 -5.93523 0
M  V30 936 N 96.209 -2.74872 -4.90308 0
M  V30 937 H 88.36 -1.78952 -1.14411 0
M  V30 938 H 90.623 -0.763297 -0.562212 0
M  V30 939 H 90.329 -2.44061 -2.53234 0
M  V30 940 H 90.203 -1.0676 -3.61776 0
M  V30 941 H 92.59 -0.353136 -2.92979 0
M  V30 942 H 92.671 -1.75846 -1.85773 0
M  V30 943 H 92.315 -3.28732 -3.87167 0
M  V30 944 H 92.245 -1.85485 -4.92852 0
M  V30 945 H 94.736 -1.70119 -3.37443 0
M  V30 946 H 95.049 -4.02584 -6.59656 0
M  V30 947 H 93.394 -3.61461 -5.93608 0
M  V30 948 H 96.585 -2.18213 -4.14126 0
M  V30 949 H 96.758 -3.24199 -5.61069 0
M  V30 950 N 90.1641 1.46063 -0.591896 0
M  V30 951 C 91.3921 2.06717 -0.0868936 0
M  V30 952 C 91.8071 1.43916 1.22203 0
M  V30 953 O 91.1641 0.547698 1.74088 0
M  V30 954 C 91.2151 3.6142 0.0758725 0
M  V30 955 O 90.9361 4.21874 -1.18126 0
M  V30 956 C 92.4371 4.39025 0.61416 0
M  V30 957 H 89.6571 0.668162 -0.0616518 0
M  V30 958 H 92.2011 1.8755 -0.815175 0
M  V30 959 H 90.3561 3.79983 0.754413 0
M  V30 960 H 90.7701 5.14861 -1.00092 0
M  V30 961 H 92.2441 5.4783 0.677193 0
M  V30 962 H 92.7211 4.07708 1.63312 0
M  V30 963 H 93.3271 4.2529 -0.0298142 0
M  V30 964 N 91.6422 0.330177 1.54103 0
M  V30 965 C 92.5522 -0.541534 2.28264 0
M  V30 966 C 93.5682 -1.12351 1.32866 0
M  V30 967 O 94.7442 -1.14206 1.65888 0
M  V30 968 C 91.8092 -1.68322 3.03098 0
M  V30 969 C 90.8702 -1.13238 4.14096 0
M  V30 970 C 90.1032 -2.21966 4.85352 0
M  V30 971 O 90.3262 -3.42437 4.56172 0
M  V30 972 O 89.2602 -1.87013 5.7211 0
M  V30 973 H 93.0862 0.060938 3.03639 0
M  V30 974 H 90.6712 0.09565 1.49093 0
M  V30 975 H 92.5532 -2.34777 3.49939 0
M  V30 976 H 91.2282 -2.27176 2.30593 0
M  V30 977 H 90.1352 -0.432736 3.71589 0
M  V30 978 H 91.4682 -0.588898 4.88664 0
M  V30 979 N 93.1203 -1.57491 0.0584922 0
M  V30 980 C 94.3973 -1.84346 -0.653918 0
M  V30 981 C 94.7773 -0.948355 -1.88599 0
M  V30 982 O 94.1253 -0.0112403 -2.28497 0
M  V30 983 C 94.3353 -3.34239 -1.00425 0
M  V30 984 C 95.6833 -4.01431 -1.38342 0
M  V30 985 O 96.7073 -3.38907 -1.09637 0
M  V30 986 O 95.5663 -5.11683 -1.91943 0
M  V30 987 H 92.6603 -0.761112 -0.323478 0
M  V30 988 H 95.2063 -1.6947 0.0884125 0
M  V30 989 H 93.9783 -3.91089 -0.128625 0
M  V30 990 H 93.6013 -3.54329 -1.80378 0
M  V30 991 N 94.5984 0.214957 -1.56127 0
M  V30 992 C 95.5454 1.26642 -1.92952 0
M  V30 993 C 96.5154 1.46244 -0.78753 0
M  V30 994 O 97.7004 1.59704 -1.04399 0
M  V30 995 C 94.8404 2.6104 -2.25726 0
M  V30 996 C 93.9534 2.49183 -3.52891 0
M  V30 997 C 93.0884 3.76149 -3.7508 0
M  V30 998 C 92.1274 3.59041 -4.95738 0
M  V30 999 N 91.2644 4.77972 -5.14283 0
M  V30 1000 H 96.1044 0.945384 -2.82607 0
M  V30 1001 H 93.6414 0.455489 -1.3987 0
M  V30 1002 H 95.5994 3.39313 -2.42739 0
M  V30 1003 H 94.2294 2.91227 -1.39236 0
M  V30 1004 H 93.2814 1.6231 -3.44034 0
M  V30 1005 H 94.5934 2.32466 -4.41318 0
M  V30 1006 H 93.7474 4.62865 -3.92226 0
M  V30 1007 H 92.4864 3.95799 -2.84947 0
M  V30 1008 H 91.4914 2.7071 -4.78535 0
M  V30 1009 H 92.7164 3.40856 -5.87362 0
M  V30 1010 H 90.6624 4.97923 -4.27093 0
M  V30 1011 H 90.5794 4.64006 -5.96853 0
M  V30 1012 H 91.8474 5.66096 -5.35869 0
M  V30 1013 N 96.0765 1.50051 0.48192 0
M  V30 1014 C 97.0085 1.64263 1.59844 0
M  V30 1015 C 98.0215 0.52451 1.54119 0
M  V30 1016 O 99.2105 0.797293 1.59704 0
M  V30 1017 C 96.3105 1.60102 2.98698 0
M  V30 1018 C 95.4835 2.87767 3.29407 0
M  V30 1019 C 94.5425 2.76397 4.47762 0
M  V30 1020 O 93.5685 3.50348 4.48603 0
M  V30 1021 N 94.7705 1.89222 5.48794 0
M  V30 1022 H 97.5355 2.60566 1.48073 0
M  V30 1023 H 95.0965 1.47379 0.670149 0
M  V30 1024 H 97.0885 1.50123 3.75826 0
M  V30 1025 H 95.6585 0.715798 3.04294 0
M  V30 1026 H 94.8785 3.11954 2.40994 0
M  V30 1027 H 96.1665 3.72365 3.4673 0
M  V30 1028 H 95.5645 1.28434 5.50928 0
M  V30 1029 H 94.1215 1.85154 6.24949 0
M  V30 1030 N 97.5546 -0.734337 1.39446 0
M  V30 1031 C 98.8316 -1.48579 1.27215 0
M  V30 1032 C 99.2116 -2.1077 -0.117968 0
M  V30 1033 O 98.5596 -1.98646 -1.12924 0
M  V30 1034 C 98.7696 -2.53667 2.39696 0
M  V30 1035 C 100.118 -3.20031 2.79044 0
M  V30 1036 O 101.142 -2.6398 2.39151 0
M  V30 1037 O 100.001 -4.21455 3.47905 0
M  V30 1038 H 97.0946 -0.659816 0.49857 0
M  V30 1039 H 99.6406 -0.768106 1.51322 0
M  V30 1040 H 98.4126 -2.06096 3.32626 0
M  V30 1041 H 98.0356 -3.32994 2.17258 0
M  V30 1042 N 99.0327 -1.24633 -0.964593 0
M  V30 1043 C 100.281 -1.08573 -1.70459 0
M  V30 1044 C 100.602 0.375655 -1.91347 0
M  V30 1045 O 99.8717 1.26779 -1.49345 0
M  V30 1046 H 98.4517 -0.398784 -0.631649 0
M  V30 1047 H 101.114 -1.56601 -1.16026 0
M  V30 1048 H 100.21 -1.58623 -2.68785 0
M  V30 1049 N 100.511 1.16574 -1.06058 0
M  V30 1050 C 101.444 2.19798 -0.61352 0
M  V30 1051 C 102.422 1.58509 0.362453 0
M  V30 1052 O 103.606 1.86527 0.271994 0
M  V30 1053 C 100.733 3.3855 0.100915 0
M  V30 1054 C 99.7788 4.18317 -0.831438 0
M  V30 1055 S 100.612 4.82375 -2.32539 0
M  V30 1056 C 101.768 6.04508 -1.62238 0
M  V30 1057 H 102.001 2.5738 -1.48805 0
M  V30 1058 H 99.5338 1.27327 -0.873338 0
M  V30 1059 H 101.492 4.07358 0.506898 0
M  V30 1060 H 100.153 2.99338 0.951604 0
M  V30 1061 H 99.3458 5.03232 -0.278071 0
M  V30 1062 H 98.9478 3.5499 -1.17719 0
M  V30 1063 H 101.24 6.71133 -0.926622 0
M  V30 1064 H 102.183 6.64389 -2.44934 0
M  V30 1065 H 102.591 5.53559 -1.106 0
M  V30 1066 N 101.989 0.842826 1.3317 0
M  V30 1067 C 103.4 0.496651 1.79973 0
M  V30 1068 C 103.751 -0.984641 1.69703 0
M  V30 1069 O 102.876 -1.76743 1.24863 0
M  V30 1070 C 103.471 0.894727 3.26772 0
M  V30 1071 C 102.03 0.600629 3.71577 0
M  V30 1072 C 101.177 1.10091 2.5451 0
M  V30 1073 H 104.128 1.03116 1.20635 0
M  V30 1074 H 104.149 0.206347 3.7994 0
M  V30 1075 H 103.661 1.97287 3.34215 0
M  V30 1076 H 101.762 -0.467284 3.69658 0
M  V30 1077 H 101.875 1.15863 4.64879 0
M  V30 1078 H 100.239 0.52162 2.49301 0
M  V30 1079 H 101.022 2.18591 2.64713 0
M  V30 1080 N 103.467 -1.45747 0.599634 0
M  V30 1081 C 104.715 -2.01893 0.0915472 0
M  V30 1082 C 105.036 -1.47155 -1.27946 0
M  V30 1083 O 104.306 -0.66273 -1.84349 0
M  V30 1084 H 102.886 -0.746363 0.0308524 0
M  V30 1085 H 105.548 -1.78645 0.779237 0
M  V30 1086 H 104.644 -3.1208 0.0353086 0
M  V30 1087 N 104.945 -0.338344 -1.53925 0
M  V30 1088 C 106.361 0.0137736 -1.59594 0
M  V30 1089 C 106.561 1.49186 -1.35447 0
M  V30 1090 O 105.617 2.24987 -1.14616 0
M  V30 1091 C 106.93 -0.41773 -2.97784 0
M  V30 1092 C 108.478 -0.369633 -3.1081 0
M  V30 1093 C 108.953 -0.776524 -4.51369 0
M  V30 1094 N 110.444 -0.730506 -4.57403 0
M  V30 1095 C 111.179 -1.01736 -5.64303 0
M  V30 1096 N 110.675 -1.3721 -6.79077 0
M  V30 1097 N 112.468 -0.941942 -5.54151 0
M  V30 1098 H 104.619 -1.3012 -1.67876 0
M  V30 1099 H 106.882 -0.530082 -0.78595 0
M  V30 1100 H 106.588 -1.44811 -3.20504 0
M  V30 1101 H 106.462 0.209729 -3.76616 0
M  V30 1102 H 108.849 0.651568 -2.87817 0
M  V30 1103 H 108.93 -1.03223 -2.34049 0
M  V30 1104 H 108.574 -1.79571 -4.75096 0
M  V30 1105 H 108.504 -0.0914649 -5.26521 0
M  V30 1106 H 110.995 -0.468783 -3.74981 0
M  V30 1107 H 111.308 -1.57597 -7.5656 0
M  V30 1108 H 109.653 -1.4105 -6.80536 0
M  V30 1109 H 112.844 -0.664184 -4.63364 0
M  V30 1110 H 113.017 -1.16884 -6.37371 0
M  V30 1111 N 106.423 1.57458 -0.0668435 0
M  V30 1112 C 107.648 1.9804 0.616027 0
M  V30 1113 C 108.073 0.944771 1.62652 0
M  V30 1114 O 107.431 -0.0902094 1.81075 0
M  V30 1115 C 107.479 3.37665 1.26549 0
M  V30 1116 O 106.583 3.36701 2.38131 0
M  V30 1117 H 105.924 0.644719 0.158849 0
M  V30 1118 H 108.454 2.04121 -0.139891 0
M  V30 1119 H 108.464 3.7474 1.6135 0
M  V30 1120 H 107.139 4.12573 0.525016 0
M  V30 1121 H 105.716 3.1139 2.0516 0
M  V30 1122 N 107.901 -0.206675 1.56239 0
M  V30 1123 C 109.147 -0.925733 1.81113 0
M  V30 1124 C 109.502 -1.81368 0.642135 0
M  V30 1125 O 108.795 -1.88126 -0.363211 0
M  V30 1126 C 108.989 -1.78675 3.09532 0
M  V30 1127 C 108.818 -0.98365 4.3881 0
M  V30 1128 C 107.588 -0.672661 5.00803 0
M  V30 1129 C 109.786 -0.341847 5.13163 0
M  V30 1130 N 107.768 0.150283 6.13716 0
M  V30 1131 C 109.139 0.343815 6.19046 0
M  V30 1132 C 111.194 -0.256392 4.97239 0
M  V30 1133 C 109.897 1.10678 7.10734 0
M  V30 1134 C 111.923 0.493142 5.8934 0
M  V30 1135 C 111.285 1.16729 6.94661 0
M  V30 1136 H 107.384 -0.318524 0.714189 0
M  V30 1137 H 109.968 -0.195378 1.93717 0
M  V30 1138 H 108.139 -2.4888 2.98183 0
M  V30 1139 H 109.871 -2.44441 3.22538 0
M  V30 1140 H 106.626 -0.994294 4.63045 0
M  V30 1141 H 107.05 0.551026 6.74754 0
M  V30 1142 H 111.692 -0.763249 4.15854 0
M  V30 1143 H 109.41 1.6251 7.91591 0
M  V30 1144 H 112.996 0.560465 5.79094 0
M  V30 1145 H 111.876 1.738 7.64698 0
M  V30 1146 N 109.379 -1.50304 -0.473955 0
M  V30 1147 C 110.342 -1.6841 -1.55469 0
M  V30 1148 C 111.342 -0.554905 -1.50922 0
M  V30 1149 O 112.532 -0.821882 -1.53593 0
M  V30 1150 C 109.664 -1.70667 -2.95102 0
M  V30 1151 H 110.857 -2.64828 -1.40733 0
M  V30 1152 H 108.41 -1.39742 -0.700132 0
M  V30 1153 H 109.145 -0.75932 -3.15285 0
M  V30 1154 H 108.93 -2.52698 -2.9981 0
M  V30 1155 H 110.42 -1.8664 -3.73571 0
M  V30 1156 N 110.857 0.726932 -1.39834 0
M  V30 1157 C 112.082 1.52121 -1.40976 0
M  V30 1158 C 112.507 1.88098 -0.00826029 0
M  V30 1159 O 111.865 1.52479 0.980807 0
M  V30 1160 C 111.913 2.78021 -2.29644 0
M  V30 1161 O 111.017 3.74272 -1.73188 0
M  V30 1162 H 110.358 0.45908 -0.479731 0
M  V30 1163 H 112.888 0.896207 -1.83927 0
M  V30 1164 H 112.898 3.26671 -2.44438 0
M  V30 1165 H 111.573 2.51169 -3.31492 0
M  V30 1166 H 110.15 3.33073 -1.6768 0
M  V30 1167 N 112.336 1.25143 0.95797 0
M  V30 1168 C 113.283 1.05235 2.05412 0
M  V30 1169 C 114.253 -0.0374561 1.66058 0
M  V30 1170 O 115.438 0.119073 1.90428 0
M  V30 1171 C 112.578 0.673589 3.38462 0
M  V30 1172 C 111.691 1.8379 3.90954 0
M  V30 1173 C 110.826 1.40381 5.12315 0
M  V30 1174 C 109.865 2.53746 5.57027 0
M  V30 1175 N 109.002 2.11136 6.69601 0
M  V30 1176 H 113.842 1.99048 2.21774 0
M  V30 1177 H 111.379 0.991277 1.08683 0
M  V30 1178 H 113.337 0.434964 4.14926 0
M  V30 1179 H 111.967 -0.227554 3.21997 0
M  V30 1180 H 111.019 2.18992 3.11041 0
M  V30 1181 H 112.331 2.68937 4.20089 0
M  V30 1182 H 111.485 1.12464 5.96185 0
M  V30 1183 H 110.224 0.523015 4.84887 0
M  V30 1184 H 109.229 2.82412 4.71724 0
M  V30 1185 H 110.454 3.42398 5.86464 0
M  V30 1186 H 108.4 1.25468 6.4389 0
M  V30 1187 H 108.317 2.89832 6.98236 0
M  V30 1188 H 109.585 1.86385 7.56889 0
M  V30 1189 N 113.814 -1.1601 1.06675 0
M  V30 1190 C 115.23 -1.38622 0.790948 0
M  V30 1191 C 115.43 -1.92109 -0.607965 0
M  V30 1192 O 114.486 -2.12239 -1.36787 0
M  V30 1193 C 115.799 -2.36347 1.85905 0
M  V30 1194 C 117.347 -2.50023 1.88301 0
M  V30 1195 C 117.822 -3.51033 2.94176 0
M  V30 1196 N 119.313 -3.58563 2.93235 0
M  V30 1197 C 120.048 -4.36521 3.71803 0
M  V30 1198 N 119.544 -5.17869 4.602 0
M  V30 1199 N 121.337 -4.31541 3.60178 0
M  V30 1200 H 113.488 -0.796294 1.96908 0
M  V30 1201 H 115.751 -0.412597 0.853503 0
M  V30 1202 H 115.457 -2.04147 2.86386 0
M  V30 1203 H 115.331 -3.36042 1.71334 0
M  V30 1204 H 117.718 -2.81524 0.884769 0
M  V30 1205 H 117.799 -1.5035 2.06951 0
M  V30 1206 H 117.443 -3.20268 3.94196 0
M  V30 1207 H 117.373 -4.50445 2.72776 0
M  V30 1208 H 119.864 -3.00496 2.29152 0
M  V30 1209 H 120.177 -5.74578 5.16797 0
M  V30 1210 H 118.522 -5.17199 4.64253 0
M  V30 1211 H 121.713 -3.67051 2.90502 0
M  V30 1212 H 121.886 -4.9205 4.21653 0
M  V30 1213 N 115.292 -0.849877 -1.32721 0
M  V30 1214 C 116.538 -0.451591 -1.97708 0
M  V30 1215 C 116.871 0.989175 -1.6712 0
M  V30 1216 O 116.146 1.69334 -0.956891 0
M  V30 1217 C 116.429 -0.685598 -3.53513 0
M  V30 1218 C 116.282 -2.17444 -3.93749 0
M  V30 1219 C 117.601 -0.138874 -4.39881 0
M  V30 1220 H 114.72 -0.16555 -0.718166 0
M  V30 1221 H 117.362 -1.06742 -1.57182 0
M  V30 1222 H 115.512 -0.161416 -3.88165 0
M  V30 1223 H 117.184 -2.76433 -3.693 0
M  V30 1224 H 115.427 -2.65476 -3.43081 0
M  V30 1225 H 116.098 -2.28888 -5.02309 0
M  V30 1226 H 118.574 -0.587068 -4.11938 0
M  V30 1227 H 117.45 -0.332213 -5.47894 0
M  V30 1228 H 117.711 0.95806 -4.31594 0
M  V30 1229 N 116.77 1.45427 -0.607355 0
M  V30 1230 C 117.995 2.07124 -0.107006 0
M  V30 1231 C 118.42 1.44906 1.19933 0
M  V30 1232 O 117.778 0.541687 1.73019 0
M  V30 1233 C 117.826 3.60595 0.0194119 0
M  V30 1234 O 116.93 3.98285 1.0697 0
M  V30 1235 H 116.271 0.659868 -0.0739597 0
M  V30 1236 H 118.801 1.86683 -0.837297 0
M  V30 1237 H 118.811 4.07419 0.2177 0
M  V30 1238 H 117.486 4.05266 -0.934453 0
M  V30 1239 H 116.063 3.63133 0.847889 0
M  V30 1240 N 118.248 0.346503 1.53744 0
M  V30 1241 C 119.158 -0.517293 2.28826 0
M  V30 1242 C 120.174 -1.10935 1.3405 0
M  V30 1243 O 121.35 -1.1244 1.6709 0
M  V30 1244 C 118.415 -1.65098 3.04866 0
M  V30 1245 C 117.476 -1.0884 4.15274 0
M  V30 1246 C 116.709 -2.16806 4.87679 0
M  V30 1247 O 116.932 -3.3758 4.59778 0
M  V30 1248 O 115.866 -1.80934 5.74061 0
M  V30 1249 H 119.692 0.0931396 3.03557 0
M  V30 1250 H 117.277 0.111458 1.48984 0
M  V30 1251 H 119.159 -2.31053 3.5241 0
M  V30 1252 H 117.834 -2.24717 2.32989 0
M  V30 1253 H 116.741 -0.3933 3.72027 0
M  V30 1254 H 118.074 -0.537036 4.89261 0
M  V30 1255 N 119.726 -1.57421 0.075193 0
M  V30 1256 C 120.951 -1.98364 -0.605515 0
M  V30 1257 C 121.376 -0.953383 -1.62149 0
M  V30 1258 O 120.734 0.0806053 -1.81121 0
M  V30 1259 C 120.782 -3.38332 -1.24756 0
M  V30 1260 O 119.886 -3.37959 -2.36342 0
M  V30 1261 H 119.227 -0.645553 -0.155428 0
M  V30 1262 H 121.757 -2.04044 0.150714 0
M  V30 1263 H 121.767 -3.75591 -1.5936 0
M  V30 1264 H 120.442 -4.12846 -0.503129 0
M  V30 1265 H 119.019 -3.12474 -2.03506 0
M  V30 1266 N 121.204 0.198386 -1.56346 0
M  V30 1267 C 122.45 0.920648 -1.80698 0
M  V30 1268 C 122.783 1.83045 -0.648697 0
M  V30 1269 O 122.058 1.91308 0.350925 0
M  V30 1270 C 122.341 1.73971 -3.15287 0
M  V30 1271 C 122.194 0.85485 -4.41602 0
M  V30 1272 C 123.513 2.71296 -3.46535 0
M  V30 1273 H 120.632 0.333261 -0.657348 0
M  V30 1274 H 123.274 0.188198 -1.89066 0
M  V30 1275 H 121.424 2.36416 -3.08285 0
M  V30 1276 H 123.096 0.245362 -4.60647 0
M  V30 1277 H 121.339 0.161398 -4.335 0
M  V30 1278 H 122.01 1.46286 -5.32264 0
M  V30 1279 H 124.486 2.18983 -3.53816 0
M  V30 1280 H 123.362 3.2569 -4.41834 0
M  V30 1281 H 123.623 3.5018 -2.69864 0
M  V30 1282 N 122.682 1.50554 0.465978 0
M  V30 1283 C 123.629 1.6979 1.56333 0
M  V30 1284 C 124.599 0.539239 1.57103 0
M  V30 1285 O 125.784 0.770401 1.74555 0
M  V30 1286 C 122.924 1.80273 2.94271 0
M  V30 1287 C 122.037 3.07674 3.0325 0
M  V30 1288 C 121.172 3.08922 4.32135 0
M  V30 1289 C 120.211 4.30755 4.34875 0
M  V30 1290 N 119.348 4.29714 5.55239 0
M  V30 1291 H 124.188 2.63472 1.39235 0
M  V30 1292 H 121.725 1.30602 0.676873 0
M  V30 1293 H 123.683 1.84332 3.74269 0
M  V30 1294 H 122.313 0.900258 3.09992 0
M  V30 1295 H 121.365 3.13062 2.16094 0
M  V30 1296 H 122.677 3.97642 3.01135 0
M  V30 1297 H 121.831 3.11738 5.20485 0
M  V30 1298 H 120.57 2.16792 4.36866 0
M  V30 1299 H 119.575 4.28146 3.44922 0
M  V30 1300 H 120.8 5.24117 4.31831 0
M  V30 1301 H 118.746 3.4044 5.60746 0
M  V30 1302 H 118.663 5.13456 5.54886 0
M  V30 1303 H 119.931 4.36683 6.457 0
M  V30 1304 N 124.16 -0.719506 1.40217 0
M  V30 1305 C 125.123 -1.8153 1.39927 0
M  V30 1306 C 126.123 -1.58095 0.293723 0
M  V30 1307 O 127.313 -1.65209 0.552429 0
M  V30 1308 C 124.445 -3.19561 1.18716 0
M  V30 1309 H 125.638 -1.83186 2.37451 0
M  V30 1310 H 123.191 -0.924746 1.26008 0
M  V30 1311 H 123.926 -3.23557 0.219366 0
M  V30 1312 H 123.711 -3.3797 1.98793 0
M  V30 1313 H 125.201 -3.99598 1.21291 0
M  V30 1314 N 125.638 -1.25649 -0.95132 0
M  V30 1315 C 126.568 -1.08808 -2.06599 0
M  V30 1316 C 127.549 0.00382547 -1.701 0
M  V30 1317 O 128.734 -0.166325 -1.93486 0
M  V30 1318 C 125.864 -0.709542 -3.39975 0
M  V30 1319 C 124.818 -1.75206 -3.90496 0
M  V30 1320 C 124.144 -1.22811 -5.20405 0
M  V30 1321 C 125.444 -3.15153 -4.16504 0
M  V30 1322 H 127.138 -2.02048 -2.20946 0
M  V30 1323 H 124.684 -0.972835 -1.06169 0
M  V30 1324 H 126.637 -0.578649 -4.17408 0
M  V30 1325 H 125.361 0.258556 -3.25575 0
M  V30 1326 H 124.02 -1.87145 -3.15234 0
M  V30 1327 H 123.668 -0.250145 -5.02378 0
M  V30 1328 H 123.368 -1.92492 -5.55176 0
M  V30 1329 H 124.892 -1.10968 -6.00432 0
M  V30 1330 H 126.306 -3.06349 -4.84586 0
M  V30 1331 H 124.703 -3.82333 -4.62538 0
M  V30 1332 H 125.773 -3.61966 -3.22658 0
M  V30 1333 N 127.117 1.15442 -1.07289 0
M  V30 1334 C 128.047 2.22312 -0.714107 0
M  V30 1335 C 129.028 1.67467 0.298155 0
M  V30 1336 O 130.213 1.93445 0.171048 0
M  V30 1337 C 127.343 3.47124 -0.110448 0
M  V30 1338 C 126.297 4.14926 -1.04979 0
M  V30 1339 C 125.623 5.33807 -0.308924 0
M  V30 1340 C 126.923 4.64762 -2.38314 0
M  V30 1341 H 128.617 2.5258 -1.6076 0
M  V30 1342 H 126.163 1.21404 -0.77441 0
M  V30 1343 H 128.116 4.21124 0.152482 0
M  V30 1344 H 126.84 3.16187 0.81812 0
M  V30 1345 H 125.499 3.42866 -1.29764 0
M  V30 1346 H 125.147 4.99126 0.623084 0
M  V30 1347 H 124.847 5.80113 -0.935036 0
M  V30 1348 H 126.371 6.10576 -0.0537771 0
M  V30 1349 H 127.785 5.30292 -2.1786 0
M  V30 1350 H 126.182 5.21728 -2.96514 0
M  V30 1351 H 127.252 3.80434 -3.00663 0
M  V30 1352 N 128.595 0.856903 1.32268 0
M  V30 1353 C 129.525 0.31858 2.31316 0
M  V30 1354 C 130.506 -0.583487 1.59779 0
M  V30 1355 O 131.691 -0.503259 1.87566 0
M  V30 1356 C 128.821 -0.491979 3.43798 0
M  V30 1357 C 127.775 0.315849 4.26833 0
M  V30 1358 C 127.101 -0.619586 5.31098 0
M  V30 1359 C 128.401 1.54282 4.98993 0
M  V30 1360 H 130.095 1.14621 2.76591 0
M  V30 1361 H 127.641 0.552613 1.32974 0
M  V30 1362 H 129.594 -0.879012 4.1213 0
M  V30 1363 H 128.318 -1.35299 2.97257 0
M  V30 1364 H 126.977 0.684664 3.6015 0
M  V30 1365 H 126.625 -1.47751 4.8081 0
M  V30 1366 H 126.325 -0.0830621 5.87541 0
M  V30 1367 H 127.849 -1.00375 6.02293 0
M  V30 1368 H 129.263 1.22796 5.59995 0
M  V30 1369 H 127.66 2.01745 5.65172 0
M  V30 1370 H 128.73 2.30285 4.26728 0
M  V30 1371 N 130.073 -1.45103 0.615059 0
M  V30 1372 C 131.02 -2.30586 -0.0993978 0
M  V30 1373 C 131.99 -1.42544 -0.852669 0
M  V30 1374 O 133.175 -1.71465 -0.836917 0
M  V30 1375 C 130.315 -3.27572 -1.08583 0
M  V30 1376 C 129.428 -4.30717 -0.332656 0
M  V30 1377 C 128.563 -5.14807 -1.30947 0
M  V30 1378 C 127.602 -6.09673 -0.544538 0
M  V30 1379 N 126.739 -6.86517 -1.47101 0
M  V30 1380 H 131.579 -2.91144 0.635542 0
M  V30 1381 H 129.116 -1.4346 0.325206 0
M  V30 1382 H 131.074 -3.82276 -1.67095 0
M  V30 1383 H 129.704 -2.68751 -1.78809 0
M  V30 1384 H 128.756 -3.78615 0.368107 0
M  V30 1385 H 130.068 -4.98102 0.263842 0
M  V30 1386 H 129.222 -5.73948 -1.96643 0
M  V30 1387 H 127.961 -4.47458 -1.9399 0
M  V30 1388 H 126.966 -5.49656 0.126003 0
M  V30 1389 H 128.191 -6.79052 0.080947 0
M  V30 1390 H 126.137 -6.21851 -2.08895 0
M  V30 1391 H 126.054 -7.50281 -0.928137 0
M  V30 1392 H 127.322 -7.50194 -2.11731 0
M  V30 1393 N 131.551 -0.354651 -1.53558 0
M  V30 1394 C 132.799 0.237972 -2.00694 0
M  V30 1395 C 133.12 1.50173 -1.24391 0
M  V30 1396 O 132.39 1.92673 -0.354135 0
M  V30 1397 H 130.97 0.0909256 -0.741446 0
M  V30 1398 H 133.632 -0.478368 -1.88938 0
M  V30 1399 H 132.728 0.47264 -3.085 0
M  V30 1400 N 133.029 1.57378 -0.0835403 0
M  V30 1401 C 133.976 2.13384 0.879539 0
M  V30 1402 C 134.946 1.04936 1.28754 0
M  V30 1403 O 136.131 1.32662 1.37133 0
M  V30 1404 C 133.271 2.70932 2.13752 0
M  V30 1405 C 132.384 3.93575 1.7811 0
M  V30 1406 C 131.519 4.39326 2.98607 0
M  V30 1407 C 130.558 5.54587 2.59037 0
M  V30 1408 N 129.695 5.95243 3.72331 0
M  V30 1409 H 134.535 2.9537 0.395076 0
M  V30 1410 H 132.072 1.45953 0.183349 0
M  V30 1411 H 134.03 3.02411 2.87408 0
M  V30 1412 H 132.66 1.91693 2.59718 0
M  V30 1413 H 131.712 3.68483 0.94469 0
M  V30 1414 H 133.024 4.77258 1.45005 0
M  V30 1415 H 132.178 4.72528 3.80529 0
M  V30 1416 H 130.917 3.5452 3.34913 0
M  V30 1417 H 129.922 5.21024 1.75539 0
M  V30 1418 H 131.147 6.41133 2.23887 0
M  V30 1419 H 129.093 5.13385 4.08378 0
M  V30 1420 H 129.01 6.73694 3.43034 0
M  V30 1421 H 130.278 6.33072 4.54797 0
M  V30 1422 N 134.507 -0.190092 1.56449 0
M  V30 1423 C 135.47 -1.21925 1.9408 0
M  V30 1424 C 136.47 -1.38176 0.822431 0
M  V30 1425 O 137.66 -1.35903 1.08977 0
M  V30 1426 C 134.792 -2.58773 2.21922 0
M  V30 1427 H 135.985 -0.897464 2.86157 0
M  V30 1428 H 133.538 -0.43181 1.50217 0
M  V30 1429 H 134.273 -2.95998 1.32499 0
M  V30 1430 H 134.058 -2.48348 3.03424 0
M  V30 1431 H 135.548 -3.32978 2.52022 0
M  V30 1432 N 135.985 -1.50799 -0.457987 0
M  V30 1433 C 137.396 -1.55152 -1.0385 0
M  V30 1434 C 137.747 -0.362719 -1.92818 0
M  V30 1435 O 136.872 0.522915 -2.09987 0
M  V30 1436 C 137.467 -2.81173 -1.89017 0
M  V30 1437 C 136.026 -2.88164 -2.42154 0
M  V30 1438 C 135.173 -2.49591 -1.20829 0
M  V30 1439 H 138.124 -1.56874 -0.240068 0
M  V30 1440 H 138.145 -2.63769 -2.74238 0
M  V30 1441 H 137.657 -3.67677 -1.24238 0
M  V30 1442 H 135.758 -2.06042 -3.10447 0
M  V30 1443 H 135.871 -3.91356 -2.76364 0
M  V30 1444 H 134.235 -2.02322 -1.54719 0
M  V30 1445 H 135.018 -3.38418 -0.576927 0
M  V30 1446 N 137.463 0.71206 -1.40597 0
M  V30 1447 C 138.709 1.47416 -1.39271 0
M  V30 1448 C 139.042 1.942 0.00388791 0
M  V30 1449 O 138.317 1.68403 0.973179 0
M  V30 1450 C 138.6 2.69774 -2.38525 0
M  V30 1451 C 138.453 2.28861 -3.87224 0
M  V30 1452 C 139.772 3.71939 -2.35264 0
M  V30 1453 H 136.891 0.534713 -0.5072 0
M  V30 1454 H 139.533 0.812375 -1.71757 0
M  V30 1455 H 137.683 3.26238 -2.10953 0
M  V30 1456 H 139.355 1.77852 -4.25636 0
M  V30 1457 H 137.598 1.60824 -4.02887 0
M  V30 1458 H 138.269 3.16584 -4.52193 0
M  V30 1459 H 140.745 3.25113 -2.59694 0
M  V30 1460 H 139.621 4.55186 -3.06753 0
M  V30 1461 H 139.882 4.20484 -1.36549 0
M  V30 1462 N 138.941 1.26152 0.944643 0
M  V30 1463 C 140.218 1.02247 1.66748 0
M  V30 1464 C 140.598 -0.448202 2.06287 0
M  V30 1465 O 139.946 -1.42779 1.78399 0
M  V30 1466 C 140.156 1.96788 2.88228 0
M  V30 1467 C 141.504 2.25201 3.59958 0
M  V30 1468 O 142.528 1.94626 2.98327 0
M  V30 1469 O 141.387 2.77242 4.70956 0
M  V30 1470 H 138.481 0.388517 0.730057 0
M  V30 1471 H 141.027 1.37348 0.99668 0
M  V30 1472 H 139.799 2.96047 2.55875 0
M  V30 1473 H 139.422 1.62145 3.63035 0
M  V30 1474 N 140.419 -1.14872 1.07899 0
M  V30 1475 C 141.83 -1.67367 0.827363 0
M  V30 1476 C 142.181 -1.85236 -0.646693 0
M  V30 1477 O 141.306 -1.55974 -1.50004 0
M  V30 1478 C 141.901 -3.04016 1.49532 0
M  V30 1479 C 140.46 -3.53566 1.29106 0
M  V30 1480 C 139.607 -2.29161 1.56143 0
M  V30 1481 H 142.558 -0.990083 1.24028 0
M  V30 1482 H 142.579 -3.69219 0.919643 0
M  V30 1483 H 142.091 -2.90978 2.56814 0
M  V30 1484 H 140.192 -3.71835 0.238713 0
M  V30 1485 H 140.305 -4.34661 2.01511 0
M  V30 1486 H 138.669 -2.34978 0.982717 0
M  V30 1487 H 139.452 -2.18705 2.64619 0
M  V30 1488 N 141.898 -0.863906 -1.31812 0
M  V30 1489 C 142.808 -0.318461 -2.32428 0
M  V30 1490 C 143.824 0.568496 -1.64451 0
M  V30 1491 O 145 0.46666 -1.95919 0
M  V30 1492 C 142.065 0.476355 -3.43412 0
M  V30 1493 C 141.126 -0.43784 -4.27061 0
M  V30 1494 C 140.359 0.319138 -5.32745 0
M  V30 1495 O 140.582 1.54799 -5.48993 0
M  V30 1496 O 139.516 -0.319861 -6.01049 0
M  V30 1497 H 143.342 -1.15229 -2.80991 0
M  V30 1498 H 140.927 -0.627103 -1.35602 0
M  V30 1499 H 142.809 0.927156 -4.11074 0
M  V30 1500 H 141.484 1.28683 -2.97022 0
M  V30 1501 H 140.391 -0.937013 -3.62175 0
M  V30 1502 H 141.724 -1.21375 -4.77 0
M  V30 1503 N 143.376 1.44774 -0.622745 0
M  V30 1504 C 144.616 2.04004 -0.127102 0
M  V30 1505 C 144.98 1.47862 1.22478 0
M  V30 1506 O 146.181 1.98541 1.81204 0
M  V30 1507 C 144.452 3.57247 -0.104429 0
M  V30 1508 S 146.011 4.37574 0.327814 0
M  V30 1509 H 142.829 0.708713 -0.0569776 0
M  V30 1510 H 145.431 1.77275 -0.824253 0
M  V30 1511 H 144.135 3.95616 -1.09159 0
M  V30 1512 H 143.666 3.88575 0.614236 0
M  V30 1513 H 145.681 4.70575 1.57395 0
M  V30 1514 N 144.854 0.36279 1.53368 0
M  V30 1515 C 146.082 -0.228613 2.05633 0
M  V30 1516 C 146.497 -1.42676 1.23649 0
M  V30 1517 O 145.854 -1.80394 0.27647 0
M  V30 1518 C 145.905 -0.624845 3.56059 0
M  V30 1519 O 145.626 0.525675 4.34935 0
M  V30 1520 C 147.127 -1.27493 4.24571 0
M  V30 1521 H 144.347 -0.0407183 0.669763 0
M  V30 1522 H 146.891 0.520352 1.97769 0
M  V30 1523 H 145.046 -1.32373 3.64083 0
M  V30 1524 H 145.46 0.205969 5.24095 0
M  V30 1525 H 146.934 -1.50277 5.31151 0
M  V30 1526 H 147.411 -2.23439 3.78116 0
M  V30 1527 H 148.017 -0.617558 4.20792 0
M  V30 1528 N 146.332 -1.57332 0.0918853 0
M  V30 1529 C 147.295 -2.12708 -0.85369 0
M  V30 1530 C 148.295 -1.05561 -1.213 0
M  V30 1531 O 149.485 -1.31461 -1.14296 0
M  V30 1532 C 146.617 -2.64503 -2.15061 0
M  V30 1533 H 147.81 -2.97573 -0.3729 0
M  V30 1534 H 145.363 -1.55509 -0.157072 0
M  V30 1535 H 146.098 -1.83149 -2.67632 0
M  V30 1536 H 145.883 -3.4284 -1.90272 0
M  V30 1537 H 147.373 -3.07351 -2.82711 0
M  V30 1538 N 147.81 0.181792 -1.56548 0
M  V30 1539 C 148.757 1.22521 -1.95595 0
M  V30 1540 C 149.727 1.4454 -0.818373 0
M  V30 1541 O 150.912 1.57454 -1.07763 0
M  V30 1542 C 148.052 2.56193 -2.31212 0
M  V30 1543 C 147.165 2.41641 -3.58097 0
M  V30 1544 C 146.3 3.68108 -3.82975 0
M  V30 1545 C 145.339 3.48445 -5.03242 0
M  V30 1546 N 144.476 4.66956 -5.24306 0
M  V30 1547 H 149.316 0.885226 -2.84548 0
M  V30 1548 H 146.853 0.425718 -1.40805 0
M  V30 1549 H 148.811 3.34088 -2.49882 0
M  V30 1550 H 147.441 2.88208 -1.45382 0
M  V30 1551 H 146.493 1.54976 -3.474 0
M  V30 1552 H 147.805 2.23052 -4.46149 0
M  V30 1553 H 146.959 4.54441 -4.01956 0
M  V30 1554 H 145.698 3.89666 -2.93278 0
M  V30 1555 H 144.703 2.60499 -4.8417 0
M  V30 1556 H 145.928 3.2832 -5.9446 0
M  V30 1557 H 143.874 4.88752 -4.37559 0
M  V30 1558 H 143.791 4.51242 -6.06561 0
M  V30 1559 H 145.059 5.54602 -5.47756 0
M  V30 1560 N 149.288 1.51039 0.449983 0
M  V30 1561 C 150.534 1.63322 1.20223 0
M  V30 1562 C 150.867 0.34241 1.91158 0
M  V30 1563 O 150.142 -0.657344 1.83055 0
M  V30 1564 C 150.425 2.82801 2.22925 0
M  V30 1565 C 150.278 4.21823 1.56157 0
M  V30 1566 C 151.597 2.97807 3.24035 0
M  V30 1567 H 148.716 0.594407 0.435718 0
M  V30 1568 H 151.358 1.83489 0.493136 0
M  V30 1569 H 149.508 2.65738 2.834 0
M  V30 1570 H 151.18 4.50526 0.991162 0
M  V30 1571 H 149.423 4.25105 0.864172 0
M  V30 1572 H 150.094 5.01391 2.30891 0
M  V30 1573 H 152.57 3.13497 2.73603 0
M  V30 1574 H 151.446 3.82992 3.93202 0
M  V30 1575 H 151.707 2.09328 3.89402 0
M  V30 1576 N 150.766 -0.704594 1.40972 0
M  V30 1577 C 152.014 -1.46169 1.39568 0
M  V30 1578 C 152.335 -1.95 0.00253745 0
M  V30 1579 O 151.605 -1.71095 -0.954114 0
M  V30 1580 H 150.185 -0.542326 0.513704 0
M  V30 1581 H 152.847 -0.834553 1.76128 0
M  V30 1582 H 151.943 -2.32922 2.07735 0
M  V30 1583 N 152.244 -1.26651 -0.937939 0
M  V30 1584 C 153.191 -1.0849 -2.03712 0
M  V30 1585 C 154.161 0.011033 -1.66096 0
M  V30 1586 O 155.346 -0.149353 -1.90215 0
M  V30 1587 C 152.486 -0.72735 -3.37348 0
M  V30 1588 C 151.599 -1.89986 -3.87981 0
M  V30 1589 C 150.734 -1.48513 -5.10017 0
M  V30 1590 C 149.773 -2.62575 -5.5292 0
M  V30 1591 N 148.91 -2.21762 -6.66158 0
M  V30 1592 H 153.75 -2.02551 -2.18579 0
M  V30 1593 H 151.287 -1.00844 -1.07093 0
M  V30 1594 H 153.245 -0.50092 -4.14182 0
M  V30 1595 H 151.875 0.176298 -3.22318 0
M  V30 1596 H 150.927 -2.23913 -3.07518 0
M  V30 1597 H 152.239 -2.75586 -4.15757 0
M  V30 1598 H 151.393 -1.21934 -5.94321 0
M  V30 1599 H 150.132 -0.60009 -4.83994 0
M  V30 1600 H 149.137 -2.8988 -4.67172 0
M  V30 1601 H 150.362 -3.51685 -5.80943 0
M  V30 1602 H 148.308 -1.35696 -6.41812 0
M  V30 1603 H 148.225 -3.00903 -6.93537 0
M  V30 1604 H 149.493 -1.98403 -7.53828 0
M  V30 1605 N 153.722 1.14298 -1.08507 0
M  V30 1606 C 154.685 2.17607 -0.719711 0
M  V30 1607 C 155.685 1.58907 0.245997 0
M  V30 1608 O 156.875 1.74181 0.0254081 0
M  V30 1609 C 154.007 3.40842 -0.0627695 0
M  V30 1610 H 155.2 2.51443 -1.63452 0
M  V30 1611 H 152.753 1.28963 -0.88307 0
M  V30 1612 H 153.488 3.12587 0.863716 0
M  V30 1613 H 153.273 3.84713 -0.757504 0
M  V30 1614 H 154.763 4.17221 0.177786 0
M  V30 1615 N 155.201 0.870884 1.31352 0
M  V30 1616 C 156.151 0.298889 2.26032 0
M  V30 1617 C 157.135 -0.564595 1.50669 0
M  V30 1618 O 158.327 -0.411323 1.72154 0
M  V30 1619 C 155.456 -0.497842 3.39671 0
M  V30 1620 C 154.542 0.378937 4.22404 0
M  V30 1621 N 154.933 1.47284 4.83881 0
M  V30 1622 C 153.231 0.171535 4.4567 0
M  V30 1623 C 153.932 2.01359 5.45738 0
M  V30 1624 N 152.908 1.31047 5.27568 0
M  V30 1625 H 156.71 1.13494 2.71102 0
M  V30 1626 H 154.224 0.718745 1.45629 0
M  V30 1627 H 156.221 -0.924155 4.06528 0
M  V30 1628 H 154.881 -1.33149 2.96144 0
M  V30 1629 H 155.892 1.85575 4.8351 0
M  V30 1630 H 152.569 -0.626091 4.12779 0
M  V30 1631 H 153.959 2.93143 6.0458 0
M  V30 1632 N 156.679 -1.44442 0.630414 0
M  V30 1633 C 157.925 -2.02351 0.134816 0
M  V30 1634 C 158.258 -1.4947 -1.23986 0
M  V30 1635 O 157.533 -0.678475 -1.82283 0
M  V30 1636 C 157.816 -3.59898 0.120707 0
M  V30 1637 C 157.669 -4.23063 1.52767 0
M  V30 1638 C 158.988 -4.36585 -0.555127 0
M  V30 1639 H 156.107 -0.73527 0.0504646 0
M  V30 1640 H 158.749 -1.72022 0.806751 0
M  V30 1641 H 156.899 -3.85868 -0.451477 0
M  V30 1642 H 158.571 -4.08202 2.14869 0
M  V30 1643 H 156.814 -3.80586 2.08175 0
M  V30 1644 H 157.485 -5.32071 1.46984 0
M  V30 1645 H 159.961 -4.16044 -0.0685429 0
M  V30 1646 H 158.837 -5.46294 -0.534185 0
M  V30 1647 H 159.098 -4.11138 -1.62535 0
M  V30 1648 N 158.157 -0.370918 -1.53173 0
M  V30 1649 C 159.387 0.217389 -2.05453 0
M  V30 1650 C 159.795 1.42568 -1.24382 0
M  V30 1651 O 159.138 1.81571 -0.278839 0
M  V30 1652 C 159.2 0.669827 -3.53205 0
M  V30 1653 C 158.864 -0.4225 -4.55043 0
M  V30 1654 C 159.861 -1.27407 -5.04047 0
M  V30 1655 C 157.546 -0.58427 -4.9889 0
M  V30 1656 C 159.54 -2.27271 -5.95505 0
M  V30 1657 C 157.227 -1.58627 -5.90153 0
M  V30 1658 C 158.225 -2.42892 -6.38351 0
M  V30 1659 O 157.913 -3.41382 -7.27814 0
M  V30 1660 H 157.645 0.0408171 -0.674767 0
M  V30 1661 H 160.199 -0.5292 -1.98466 0
M  V30 1662 H 158.429 1.4681 -3.57748 0
M  V30 1663 H 160.118 1.18173 -3.88317 0
M  V30 1664 H 160.884 -1.16031 -4.70916 0
M  V30 1665 H 156.763 0.061851 -4.60959 0
M  V30 1666 H 160.307 -2.93079 -6.33049 0
M  V30 1667 H 156.204 -1.70048 -6.22699 0
M  V30 1668 H 156.972 -3.37173 -7.45826 0
M  V30 1669 N 159.635 1.57281 -0.100228 0
M  V30 1670 C 160.875 1.96419 0.56558 0
M  V30 1671 C 161.239 0.981265 1.65031 0
M  V30 1672 O 162.44 1.26133 2.37369 0
M  V30 1673 C 160.711 3.39996 1.10171 0
M  V30 1674 S 162.27 4.01134 1.77867 0
M  V30 1675 H 159.088 0.68667 0.184406 0
M  V30 1676 H 161.69 1.94662 -0.180851 0
M  V30 1677 H 160.394 4.09296 0.300803 0
M  V30 1678 H 159.925 3.45361 1.88385 0
M  V30 1679 H 161.94 3.90358 3.06326 0
M  V30 1680 N 161.113 -0.173488 1.56642 0
M  V30 1681 C 162.023 -1.23482 1.99473 0
M  V30 1682 C 163.039 -1.48567 0.905752 0
M  V30 1683 O 164.215 -1.60758 1.21321 0
M  V30 1684 C 161.28 -2.55444 2.34413 0
M  V30 1685 C 160.341 -2.38241 3.57127 0
M  V30 1686 C 159.574 -3.63909 3.90392 0
M  V30 1687 O 159.797 -4.68996 3.24653 0
M  V30 1688 O 158.731 -3.58149 4.83749 0
M  V30 1689 H 162.557 -0.901279 2.90018 0
M  V30 1690 H 160.142 -0.380185 1.44482 0
M  V30 1691 H 162.024 -3.33292 2.57865 0
M  V30 1692 H 160.699 -2.88382 1.4703 0
M  V30 1693 H 159.606 -1.58431 3.38896 0
M  V30 1694 H 160.939 -2.10228 4.45045 0
M  V30 1695 N 162.591 -1.51276 -0.441967 0
M  V30 1696 C 163.839 -1.63392 -1.18943 0
M  V30 1697 C 164.16 -0.350159 -1.9183 0
M  V30 1698 O 163.43 0.633784 -1.85364 0
M  V30 1699 H 162.01 -0.602164 -0.442049 0
M  V30 1700 H 164.672 -1.88186 -0.507165 0
M  V30 1701 H 163.768 -2.45934 -1.92154 0
M  V30 1702 N 164.069 0.697108 -1.41344 0
M  V30 1703 C 165.017 1.83237 -1.43272 0
M  V30 1704 C 166.011 1.66522 -0.310947 0
M  V30 1705 O 167.217 1.73402 -0.482899 0
M  V30 1706 H 163.592 0.603802 -0.448249 0
M  V30 1707 H 165.563 1.78727 -2.38954 0
M  V30 1708 C 164.312 3.21245 -1.33029 0
M  V30 1709 H 163.635 3.34723 -2.18633 0
M  V30 1710 H 165.075 4.00763 -1.38439 0
M  V30 1711 C 163.534 3.36873 -0.0424635 0
M  V30 1712 O 164.064 3.91177 0.913421 0
M  V30 1713 N 162.27 2.90581 0.0331145 0
M  V30 1714 H 161.817 2.46577 -0.745506 0
M  V30 1715 H 161.775 3.01416 0.894199 0
M  V30 1716 N 165.547 1.27147 0.931209 0
M  V30 1717 C 166.824 1.0401 1.65654 0
M  V30 1718 C 167.204 -0.426297 2.06751 0
M  V30 1719 O 166.552 -1.40879 1.79904 0
M  V30 1720 C 166.762 1.99834 2.86125 0
M  V30 1721 C 168.11 2.29007 3.57549 0
M  V30 1722 O 169.134 1.97779 2.96246 0
M  V30 1723 O 167.993 2.82222 4.67989 0
M  V30 1724 H 165.087 0.396239 0.725895 0
M  V30 1725 H 167.633 1.38397 0.982056 0
M  V30 1726 H 166.405 2.98744 2.52721 0
M  V30 1727 H 166.028 1.65987 3.61295 0
M  V30 1728 N 167.025 -1.13721 1.09112 0
M  V30 1729 C 168.271 -1.85198 0.826414 0
M  V30 1730 C 168.604 -1.83129 -0.646319 0
M  V30 1731 O 167.879 -1.2671 -1.47563 0
M  V30 1732 C 168.162 -3.33507 1.35812 0
M  V30 1733 C 168.015 -3.44108 2.89672 0
M  V30 1734 C 169.334 -4.28838 0.989256 0
M  V30 1735 H 166.453 -0.67243 0.301675 0
M  V30 1736 H 169.095 -1.33499 1.35197 0
M  V30 1737 H 167.245 -3.77666 0.911082 0
M  V30 1738 H 168.917 -3.08684 3.428 0
M  V30 1739 H 167.16 -2.85087 3.26967 0
M  V30 1740 H 167.831 -4.48388 3.21951 0
M  V30 1741 H 170.307 -3.92734 1.37475 0
M  V30 1742 H 169.183 -5.31051 1.38838 0
M  V30 1743 H 169.444 -4.4198 -0.102924 0
M  V30 1744 N 168.503 -0.877838 -1.30888 0
M  V30 1745 C 169.733 -0.506678 -2.00291 0
M  V30 1746 C 170.141 0.907449 -1.66018 0
M  V30 1747 O 169.484 1.60719 -0.88967 0
M  V30 1748 C 169.546 -0.59323 -3.54572 0
M  V30 1749 C 169.21 -1.97038 -4.12341 0
M  V30 1750 C 170.207 -2.93889 -4.28865 0
M  V30 1751 C 167.892 -2.27383 -4.47886 0
M  V30 1752 C 169.886 -4.19224 -4.80136 0
M  V30 1753 C 167.573 -3.52965 -4.98857 0
M  V30 1754 C 168.571 -4.48701 -5.14934 0
M  V30 1755 O 168.259 -5.72056 -5.64808 0
M  V30 1756 H 167.991 -0.1951 -0.647234 0
M  V30 1757 H 170.545 -1.18301 -1.6791 0
M  V30 1758 H 168.775 0.140057 -3.86446 0
M  V30 1759 H 170.464 -0.234372 -4.05223 0
M  V30 1760 H 171.23 -2.71756 -4.01714 0
M  V30 1761 H 167.109 -1.53639 -4.34645 0
M  V30 1762 H 170.653 -4.93956 -4.92599 0
M  V30 1763 H 166.55 -3.74939 -5.25443 0
M  V30 1764 H 167.318 -5.74337 -5.83163 0
M  V30 1765 N 169.982 1.44106 -0.638065 0
M  V30 1766 C 171.259 1.95453 -0.0759321 0
M  V30 1767 C 171.639 1.57984 1.40015 0
M  V30 1768 O 170.987 0.857361 2.11806 0
M  V30 1769 C 171.197 3.47655 -0.306132 0
M  V30 1770 C 172.545 4.24114 -0.203008 0
M  V30 1771 O 173.569 3.55405 -0.237871 0
M  V30 1772 O 172.428 5.46381 -0.113827 0
M  V30 1773 H 169.522 0.826797 0.0183332 0
M  V30 1774 H 172.068 1.54122 -0.710251 0
M  V30 1775 H 170.84 3.68 -1.3301 0
M  V30 1776 H 170.463 3.95949 0.361991 0
M  V30 1777 N 171.46 0.379036 1.52974 0
M  V30 1778 C 172.706 -0.206727 2.01744 0
M  V30 1779 C 173.039 -1.47314 1.26539 0
M  V30 1780 O 172.314 -1.91084 0.362903 0
M  V30 1781 C 172.597 -0.485066 3.56818 0
M  V30 1782 C 172.45 0.795919 4.42702 0
M  V30 1783 C 173.769 -1.28003 4.21074 0
M  V30 1784 H 170.888 -0.0736607 0.73331 0
M  V30 1785 H 173.53 0.506581 1.83122 0
M  V30 1786 H 171.68 -1.09272 3.72816 0
M  V30 1787 H 173.352 1.43307 4.38476 0
M  V30 1788 H 171.595 1.41344 4.10127 0
M  V30 1789 H 172.266 0.555947 5.49193 0
M  V30 1790 H 174.742 -0.765867 4.08991 0
M  V30 1791 H 173.618 -1.44352 5.29579 0
M  V30 1792 H 173.879 -2.29236 3.78026 0
M  V30 1793 N 172.938 -1.57226 0.108567 0
M  V30 1794 C 173.871 -2.10447 -0.882464 0
M  V30 1795 C 174.849 -1.01829 -1.26766 0
M  V30 1796 O 176.033 -1.29415 -1.37054 0
M  V30 1797 C 173.16 -2.59258 -2.17952 0
M  V30 1798 C 172.206 -3.79662 -1.94318 0
M  V30 1799 S 173.039 -5.22586 -1.16892 0
M  V30 1800 C 174.195 -5.74758 -2.47799 0
M  V30 1801 H 174.428 -2.94178 -0.429745 0
M  V30 1802 H 171.961 -1.54043 -0.105 0
M  V30 1803 H 173.919 -2.88036 -2.92482 0
M  V30 1804 H 172.58 -1.75728 -2.60343 0
M  V30 1805 H 171.773 -4.11928 -2.90399 0
M  V30 1806 H 171.375 -3.51446 -1.27913 0
M  V30 1807 H 173.667 -5.83846 -3.43701 0
M  V30 1808 H 174.61 -6.73027 -2.20093 0
M  V30 1809 H 175.018 -5.02763 -2.56689 0
M  V30 1810 N 174.416 0.165178 -1.56732 0
M  V30 1811 C 175.346 1.20651 -1.99914 0
M  V30 1812 C 176.327 1.45827 -0.875705 0
M  V30 1813 O 177.512 1.57057 -1.14223 0
M  V30 1814 C 174.642 2.54401 -2.36427 0
M  V30 1815 C 173.596 2.43782 -3.51787 0
M  V30 1816 C 172.922 3.82078 -3.7406 0
M  V30 1817 C 174.222 1.93732 -4.85041 0
M  V30 1818 H 175.916 0.847534 -2.87154 0
M  V30 1819 H 173.462 0.40625 -1.38151 0
M  V30 1820 H 175.415 3.27458 -2.65234 0
M  V30 1821 H 174.139 2.92098 -1.46103 0
M  V30 1822 H 172.798 1.73178 -3.23117 0
M  V30 1823 H 172.446 4.17179 -2.81017 0
M  V30 1824 H 172.146 3.7584 -4.51684 0
M  V30 1825 H 173.67 4.56712 -4.05274 0
M  V30 1826 H 175.084 2.56569 -5.12684 0
M  V30 1827 H 173.481 1.98428 -5.66345 0
M  V30 1828 H 174.551 0.891962 -4.76626 0
M  V30 1829 N 175.894 1.51508 0.433938 0
M  V30 1830 C 176.842 1.73646 1.54757 0
M  V30 1831 C 177.836 0.602854 1.5831 0
M  V30 1832 O 179.042 0.784318 1.62014 0
M  V30 1833 H 175.417 0.548718 0.51421 0
M  V30 1834 H 177.388 2.66991 1.33261 0
M  V30 1835 C 176.137 1.88172 2.92381 0
M  V30 1836 H 175.46 2.74808 2.90381 0
M  V30 1837 H 176.9 2.07672 3.6966 0
M  V30 1838 C 175.359 0.64239 3.30719 0
M  V30 1839 O 175.889 -0.201362 4.01195 0
M  V30 1840 N 174.095 0.485489 2.86516 0
M  V30 1841 H 173.642 1.17318 2.29334 0
M  V30 1842 H 173.6 -0.342482 3.12529 0
M  V30 1843 N 177.372 -0.689602 1.41712 0
M  V30 1844 C 178.304 -1.815 1.39966 0
M  V30 1845 C 179.317 -1.59995 0.300917 0
M  V30 1846 O 180.506 -1.69387 0.563039 0
M  V30 1847 C 177.606 -3.18364 1.16179 0
M  V30 1848 C 176.779 -3.66847 2.38206 0
M  V30 1849 C 175.838 -4.82398 2.10186 0
M  V30 1850 O 174.864 -4.93706 2.83272 0
M  V30 1851 N 176.066 -5.70064 1.0958 0
M  V30 1852 H 178.831 -1.83488 2.36965 0
M  V30 1853 H 176.392 -0.872149 1.36401 0
M  V30 1854 H 178.384 -3.93301 0.953756 0
M  V30 1855 H 176.954 -3.11365 0.27756 0
M  V30 1856 H 176.174 -2.82751 2.74673 0
M  V30 1857 H 177.462 -3.95978 3.19498 0
M  V30 1858 H 176.86 -5.63565 0.491019 0
M  V30 1859 H 175.417 -6.44874 0.947656 0
M  V30 1860 N 178.85 -1.27639 -0.924453 0
M  V30 1861 C 180.078 -1.16989 -1.70649 0
M  V30 1862 C 180.493 0.272869 -1.86818 0
M  V30 1863 O 179.85 1.18549 -1.38753 0
M  V30 1864 C 179.901 -1.85229 -3.10439 0
M  V30 1865 O 179.622 -3.23868 -2.95028 0
M  V30 1866 C 181.123 -1.80746 -4.04779 0
M  V30 1867 H 178.343 -0.406595 -0.53378 0
M  V30 1868 H 180.887 -1.68569 -1.15778 0
M  V30 1869 H 179.042 -1.37545 -3.6216 0
M  V30 1870 H 179.456 -3.57889 -3.83426 0
M  V30 1871 H 180.93 -2.33101 -5.00368 0
M  V30 1872 H 181.407 -0.777499 -4.32263 0
M  V30 1873 H 182.013 -2.28059 -3.58984 0
M  V30 1874 N 180.328 1.1314 -1.09713 0
M  V30 1875 C 181.276 2.20717 -0.733934 0
M  V30 1876 C 182.27 1.6729 0.266506 0
M  V30 1877 O 183.476 1.79547 0.127656 0
M  V30 1878 H 179.851 0.719292 -0.21937 0
M  V30 1879 H 181.822 2.48611 -1.6503 0
M  V30 1880 C 180.571 3.47265 -0.173849 0
M  V30 1881 H 179.894 3.88716 -0.934873 0
M  V30 1882 H 181.334 4.23979 0.0423126 0
M  V30 1883 C 179.793 3.18724 1.09164 0
M  V30 1884 O 180.323 3.37762 2.17439 0
M  V30 1885 N 178.529 2.72583 1.00732 0
M  V30 1886 H 178.076 2.57291 0.126121 0
M  V30 1887 H 178.034 2.53862 1.85476 0
M  V30 1888 N 181.806 0.884767 1.30421 0
M  V30 1889 C 182.736 0.367574 2.30589 0
M  V30 1890 C 183.717 -0.549464 1.60981 0
M  V30 1891 O 184.902 -0.46336 1.88591 0
M  V30 1892 C 182.032 -0.418944 3.44764 0
M  V30 1893 C 180.986 0.406316 4.26067 0
M  V30 1894 C 180.312 -0.506793 5.32293 0
M  V30 1895 C 181.612 1.64832 4.95608 0
M  V30 1896 H 183.306 1.20462 2.74097 0
M  V30 1897 H 180.852 0.580695 1.31772 0
M  V30 1898 H 182.805 -0.791395 4.13902 0
M  V30 1899 H 181.529 -1.28964 3.0006 0
M  V30 1900 H 180.188 0.760903 3.58617 0
M  V30 1901 H 179.836 -1.37519 4.83836 0
M  V30 1902 H 179.536 0.0415828 5.87585 0
M  V30 1903 H 181.06 -0.875764 6.04287 0
M  V30 1904 H 182.474 1.34646 5.57264 0
M  V30 1905 H 180.871 2.13688 5.60765 0
M  V30 1906 H 181.941 2.39284 4.21748 0
M  V30 1907 N 183.284 -1.43765 0.645699 0
M  V30 1908 C 184.216 -2.29027 -0.0890605 0
M  V30 1909 C 185.229 -1.42093 -0.794563 0
M  V30 1910 O 186.418 -1.66104 -0.653575 0
M  V30 1911 C 183.518 -3.18831 -1.14891 0
M  V30 1912 C 182.691 -4.34261 -0.523043 0
M  V30 1913 C 181.75 -5.04994 -1.47878 0
M  V30 1914 O 180.776 -5.6052 -0.990277 0
M  V30 1915 N 181.978 -5.07795 -2.81291 0
M  V30 1916 H 184.743 -2.92727 0.64272 0
M  V30 1917 H 182.304 -1.54373 0.487924 0
M  V30 1918 H 184.296 -3.63015 -1.78892 0
M  V30 1919 H 182.866 -2.56782 -1.78275 0
M  V30 1920 H 182.086 -3.93088 0.295896 0
M  V30 1921 H 183.374 -5.08728 -0.0858147 0
M  V30 1922 H 182.772 -4.64042 -3.23546 0
M  V30 1923 H 181.329 -5.55721 -3.40614 0
M  V30 1924 N 184.763 -0.387143 -1.52771 0
M  V30 1925 C 186.01 0.195735 -2.01552 0
M  V30 1926 C 186.338 1.46995 -1.27369 0
M  V30 1927 O 185.593 1.92325 -0.361879 0
M  V30 1928 C 185.892 0.512209 -3.53711 0
M  V30 1929 C 185.558 -0.670202 -4.45891 0
M  V30 1930 C 184.22 -0.994586 -4.70809 0
M  V30 1931 C 186.572 -1.46134 -5.00294 0
M  V30 1932 C 183.9 -2.11169 -5.4738 0
M  V30 1933 C 186.252 -2.56903 -5.78086 0
M  V30 1934 C 184.916 -2.89852 -6.01284 0
M  V30 1935 H 184.186 0.0716246 -0.73753 0
M  V30 1936 H 186.833 -0.524046 -1.8419 0
M  V30 1937 H 185.138 1.31329 -3.69134 0
M  V30 1938 H 186.835 0.975804 -3.88946 0
M  V30 1939 H 183.425 -0.407366 -4.2666 0
M  V30 1940 H 187.609 -1.22397 -4.80971 0
M  V30 1941 H 182.865 -2.3707 -5.63567 0
M  V30 1942 H 187.039 -3.18608 -6.19243 0
M  V30 1943 H 184.666 -3.76533 -6.60399 0
M  V30 1944 N 186.241 1.57166 -0.116904 0
M  V30 1945 C 187.189 2.16457 0.851418 0
M  V30 1946 C 188.183 1.11323 1.27686 0
M  V30 1947 O 189.389 1.2963 1.24884 0
M  V30 1948 H 185.764 0.69271 0.292672 0
M  V30 1949 H 187.735 2.96605 0.32685 0
M  V30 1950 C 186.484 2.77689 2.09246 0
M  V30 1951 H 185.807 3.58285 1.77402 0
M  V30 1952 H 187.247 3.22716 2.7501 0
M  V30 1953 C 185.706 1.74667 2.88085 0
M  V30 1954 O 186.236 1.19877 3.83396 0
M  V30 1955 N 184.442 1.44656 2.52038 0
M  V30 1956 H 183.989 1.89402 1.74599 0
M  V30 1957 H 183.947 0.759675 3.05084 0
M  V30 1958 N 187.719 -0.156864 1.56817 0
M  V30 1959 C 188.667 -1.21319 1.98455 0
M  V30 1960 C 189.661 -1.45025 0.875444 0
M  V30 1961 O 190.867 -1.45435 1.0606 0
M  V30 1962 H 187.242 -0.408142 0.631605 0
M  V30 1963 H 189.213 -0.835244 2.86472 0
M  V30 1964 C 187.962 -2.54148 2.37285 0
M  V30 1965 H 187.285 -2.36733 3.22176 0
M  V30 1966 H 188.725 -3.26712 2.70251 0
M  V30 1967 C 187.184 -3.13967 1.22173 0
M  V30 1968 O 187.714 -3.98357 0.517149 0
M  V30 1969 N 185.92 -2.7327 0.988536 0
M  V30 1970 H 185.467 -2.04744 1.56326 0
M  V30 1971 H 185.425 -3.13628 0.220209 0
M  V30 1972 N 189.197 -1.51736 -0.425897 0
M  V30 1973 C 190.145 -1.74464 -1.53834 0
M  V30 1974 C 191.139 -0.611241 -1.57988 0
M  V30 1975 O 192.345 -0.792899 -1.61596 0
M  V30 1976 H 188.72 -0.551437 -0.511293 0
M  V30 1977 H 190.691 -2.67694 -1.31843 0
M  V30 1978 C 189.44 -1.8972 -2.91379 0
M  V30 1979 H 188.763 -2.76344 -2.88919 0
M  V30 1980 H 190.203 -2.09629 -3.68553 0
M  V30 1981 C 188.662 -0.65992 -3.30374 0
M  V30 1982 O 189.192 0.180083 -4.01296 0
M  V30 1983 N 187.398 -0.500677 -2.86254 0
M  V30 1984 H 186.945 -1.18532 -2.28709 0
M  V30 1985 H 186.903 0.325903 -3.12706 0
M  V30 1986 N 190.675 0.682077 -1.42076 0
M  V30 1987 C 191.622 1.79578 -1.44984 0
M  V30 1988 C 192.592 1.6332 -0.302614 0
M  V30 1989 O 193.777 1.83978 -0.505633 0
M  V30 1990 C 190.917 3.1756 -1.35091 0
M  V30 1991 C 190.03 3.45156 -2.59791 0
M  V30 1992 C 189.165 4.72826 -2.42093 0
M  V30 1993 C 188.204 4.93433 -3.62202 0
M  V30 1994 N 187.341 6.12338 -3.43491 0
M  V30 1995 H 192.181 1.76427 -2.40161 0
M  V30 1996 H 189.718 0.861376 -1.19242 0
M  V30 1997 H 191.676 3.97287 -1.27354 0
M  V30 1998 H 190.306 3.19854 -0.435133 0
M  V30 1999 H 189.358 2.59736 -2.77923 0
M  V30 2000 H 190.67 3.5628 -3.49094 0
M  V30 2001 H 189.824 5.60631 -2.319 0
M  V30 2002 H 188.563 4.63973 -1.50268 0
M  V30 2003 H 187.568 4.04073 -3.72834 0
M  V30 2004 H 188.793 5.04136 -4.54998 0
M  V30 2005 H 186.739 6.04672 -2.54377 0
M  V30 2006 H 186.656 6.2429 -4.26377 0
M  V30 2007 H 187.924 7.02841 -3.37097 0
M  V30 2008 N 192.153 1.28127 0.917671 0
M  V30 2009 C 193.383 1.17722 1.6978 0
M  V30 2010 C 193.791 -0.267261 1.87303 0
M  V30 2011 O 193.134 -1.19286 1.39702 0
M  V30 2012 C 193.196 1.79958 3.11216 0
M  V30 2013 C 192.86 3.29187 3.16993 0
M  V30 2014 C 193.857 4.25679 2.98485 0
M  V30 2015 C 191.542 3.70075 3.39632 0
M  V30 2016 C 193.536 5.61035 3.02521 0
M  V30 2017 C 191.223 5.05557 3.433 0
M  V30 2018 C 192.221 6.00847 3.24764 0
M  V30 2019 O 191.909 7.33859 3.28187 0
M  V30 2020 H 191.641 0.409788 0.537634 0
M  V30 2021 H 194.195 1.69694 1.15728 0
M  V30 2022 H 192.425 1.22475 3.66793 0
M  V30 2023 H 194.114 1.64125 3.71238 0
M  V30 2024 H 194.88 3.95426 2.80826 0
M  V30 2025 H 190.759 2.96373 3.53106 0
M  V30 2026 H 194.303 6.35388 2.87971 0
M  V30 2027 H 190.2 5.35462 3.60486 0
M  V30 2028 H 190.968 7.42436 3.44575 0
M  V30 2029 N 193.631 -1.12557 1.10312 0
M  V30 2030 C 194.861 -1.87592 0.865617 0
M  V30 2031 C 195.269 -1.79851 -0.587389 0
M  V30 2032 O 194.612 -1.16949 -1.41664 0
M  V30 2033 C 194.674 -3.37665 1.23381 0
M  V30 2034 C 194.338 -3.69181 2.69359 0
M  V30 2035 C 195.335 -3.67652 3.67597 0
M  V30 2036 C 193.02 -3.98555 3.05711 0
M  V30 2037 C 195.014 -3.95053 5.00212 0
M  V30 2038 C 192.701 -4.25616 4.38514 0
M  V30 2039 C 193.699 -4.23851 5.35574 0
M  V30 2040 O 193.387 -4.50242 6.65986 0
M  V30 2041 H 193.119 -0.600442 0.310557 0
M  V30 2042 H 195.673 -1.4335 1.47105 0
M  V30 2043 H 193.903 -3.82454 0.571467 0
M  V30 2044 H 195.592 -3.94041 0.973994 0
M  V30 2045 H 196.358 -3.45024 3.40857 0
M  V30 2046 H 192.237 -3.99071 2.30789 0
M  V30 2047 H 195.781 -3.93591 5.75962 0
M  V30 2048 H 191.678 -4.47718 4.64994 0
M  V30 2049 H 192.446 -4.67867 6.71597 0
M  V30 2050 N 195.109 -0.891671 -1.2995 0
M  V30 2051 C 196.039 -0.379797 -2.30391 0
M  V30 2052 C 197.02 0.540919 -1.6127 0
M  V30 2053 O 198.205 0.453352 -1.88834 0
M  V30 2054 C 195.335 0.400654 -3.44981 0
M  V30 2055 C 194.289 -0.428905 -4.25846 0
M  V30 2056 C 193.615 0.478557 -5.32554 0
M  V30 2057 C 194.915 -1.67458 -4.94727 0
M  V30 2058 H 196.609 -1.21914 -2.73454 0
M  V30 2059 H 194.155 -0.587675 -1.31462 0
M  V30 2060 H 196.108 0.769434 -4.14316 0
M  V30 2061 H 194.832 1.27371 -3.0074 0
M  V30 2062 H 193.491 -0.779911 -3.58208 0
M  V30 2063 H 193.139 1.34951 -4.84559 0
M  V30 2064 H 192.839 -0.0727433 -5.87555 0
M  V30 2065 H 194.363 0.843705 -6.04743 0
M  V30 2066 H 195.777 -1.376 -5.56542 0
M  V30 2067 H 194.174 -2.16659 -5.59624 0
M  V30 2068 H 195.244 -2.41518 -4.20473 0
M  V30 2069 N 196.587 1.43421 -0.653314 0
M  V30 2070 C 197.836 2.01032 -0.164076 0
M  V30 2071 C 198.149 1.52147 1.22926 0
M  V30 2072 O 199.355 2.02031 1.81371 0
M  V30 2073 C 197.811 3.59082 -0.24252 0
M  V30 2074 C 197.419 4.1696 -1.63855 0
M  V30 2075 C 199.163 4.24079 0.18911 0
M  V30 2076 C 197.07 5.67304 -1.67092 0
M  V30 2077 H 196 0.751798 -0.0575769 0
M  V30 2078 H 198.651 1.6439 -0.815362 0
M  V30 2079 H 197.033 3.93125 0.476276 0
M  V30 2080 H 198.207 3.94416 -2.38271 0
M  V30 2081 H 196.522 3.64335 -2.01616 0
M  V30 2082 H 199.119 5.34381 0.184775 0
M  V30 2083 H 199.462 3.98005 1.22056 0
M  V30 2084 H 199.995 3.94918 -0.477938 0
M  V30 2085 H 196.734 5.98145 -2.68146 0
M  V30 2086 H 196.254 5.91904 -0.970014 0
M  V30 2087 H 197.933 6.31344 -1.4147 0
M  V30 2088 N 198.065 0.39524 1.52563 0
M  V30 2089 C 198.997 -0.472201 2.24283 0
M  V30 2090 C 200.01 -1.02178 1.26742 0
M  V30 2091 O 201.199 -0.923097 1.52778 0
M  V30 2092 C 198.299 -1.66775 2.95024 0
M  V30 2093 C 197.472 -1.2445 4.19322 0
M  V30 2094 C 196.531 -2.30539 4.7301 0
M  V30 2095 O 195.557 -1.91702 5.35947 0
M  V30 2096 N 196.759 -3.6253 4.53379 0
M  V30 2097 H 199.524 0.142282 2.99362 0
M  V30 2098 H 197.085 0.2219 1.60372 0
M  V30 2099 H 199.077 -2.37283 3.27839 0
M  V30 2100 H 197.647 -2.18845 2.23217 0
M  V30 2101 H 196.867 -0.368069 3.92478 0
M  V30 2102 H 198.155 -0.938457 5.0007 0
M  V30 2103 H 197.553 -3.96841 4.03154 0
M  V30 2104 H 196.11 -4.29055 4.90668 0
M  V30 2105 N 199.544 -1.57102 0.125237 0
M  V30 2106 C 200.474 -2.18659 -0.819174 0
M  V30 2107 C 201.455 -1.12843 -1.27281 0
M  V30 2108 O 202.64 -1.41104 -1.33429 0
M  V30 2109 C 199.77 -2.79096 -2.06695 0
M  V30 2110 C 198.724 -3.90548 -1.75088 0
M  V30 2111 C 198.05 -4.37821 -3.06948 0
M  V30 2112 C 199.35 -5.12356 -1.01435 0
M  V30 2113 H 201.044 -2.9783 -0.306202 0
M  V30 2114 H 198.59 -1.4326 -0.145839 0
M  V30 2115 H 200.543 -3.2082 -2.73226 0
M  V30 2116 H 199.267 -1.97223 -2.60328 0
M  V30 2117 H 197.926 -3.49409 -1.10944 0
M  V30 2118 H 197.574 -3.52799 -3.58527 0
M  V30 2119 H 197.274 -5.12982 -2.86571 0
M  V30 2120 H 198.798 -4.822 -3.74587 0
M  V30 2121 H 200.212 -5.5106 -1.58132 0
M  V30 2122 H 198.609 -5.9314 -0.911319 0
M  V30 2123 H 199.679 -4.849 -0.00218681 0
M  V30 2124 N 201.022 0.148545 -1.56898 0
M  V30 2125 C 201.952 1.18524 -2.01182 0
M  V30 2126 C 202.933 1.4489 -0.891123 0
M  V30 2127 O 204.118 1.55836 -1.15882 0
M  V30 2128 C 201.248 2.51879 -2.39112 0
M  V30 2129 C 200.202 2.40038 -3.54353 0
M  V30 2130 C 199.528 3.78089 -3.78091 0
M  V30 2131 C 200.828 1.88577 -4.87069 0
M  V30 2132 H 202.522 0.817029 -2.88036 0
M  V30 2133 H 200.068 0.391575 -1.38574 0
M  V30 2134 H 202.021 3.24627 -2.68692 0
M  V30 2135 H 200.745 2.90532 -1.49193 0
M  V30 2136 H 199.404 1.69742 -3.24936 0
M  V30 2137 H 199.052 4.14175 -2.85426 0
M  V30 2138 H 198.752 3.71028 -4.55645 0
M  V30 2139 H 200.276 4.52387 -4.10095 0
M  V30 2140 H 201.69 2.51117 -5.15377 0
M  V30 2141 H 200.087 1.9241 -5.68417 0
M  V30 2142 H 201.157 0.84136 -4.77545 0
M  V30 2143 N 202.5 1.5196 0.417844 0
M  V30 2144 C 203.41 1.77554 1.53336 0
M  V30 2145 C 204.426 0.660655 1.6097 0
M  V30 2146 O 205.602 0.945099 1.77848 0
M  V30 2147 C 202.667 1.91291 2.89152 0
M  V30 2148 C 201.728 3.15183 2.91475 0
M  V30 2149 C 200.961 3.28256 4.20813 0
M  V30 2150 O 201.184 2.46798 5.14244 0
M  V30 2151 O 200.118 4.21356 4.29817 0
M  V30 2152 H 203.944 2.7222 1.34647 0
M  V30 2153 H 201.529 1.36698 0.602828 0
M  V30 2154 H 203.411 2.02199 3.69721 0
M  V30 2155 H 202.086 0.998129 3.07927 0
M  V30 2156 H 200.993 3.09739 2.09791 0
M  V30 2157 H 202.326 4.06414 2.77648 0
M  V30 2158 N 203.978 -0.674533 1.42435 0
M  V30 2159 C 205.255 -1.4305 1.33402 0
M  V30 2160 C 205.635 -2.11081 -0.0284674 0
M  V30 2161 O 204.983 -2.03257 -1.04397 0
M  V30 2162 C 205.193 -2.43272 2.50239 0
M  V30 2163 C 206.541 -3.07907 2.92367 0
M  V30 2164 O 207.565 -2.53599 2.50132 0
M  V30 2165 O 206.424 -4.0632 3.65467 0
M  V30 2166 H 203.518 -0.638076 0.526106 0
M  V30 2167 H 206.064 -0.703235 1.54443 0
M  V30 2168 H 204.836 -1.91803 3.41068 0
M  V30 2169 H 204.459 -3.23479 2.31186 0
M  V30 2170 N 205.456 -1.28612 -0.910864 0
M  V30 2171 C 206.733 -1.06632 -1.63979 0
M  V30 2172 C 207.113 0.393351 -2.07403 0
M  V30 2173 O 206.461 1.37999 -1.82122 0
M  V30 2174 C 206.671 -2.0436 -2.8291 0
M  V30 2175 C 208.019 -2.34666 -3.5386 0
M  V30 2176 O 209.043 -2.02467 -2.93062 0
M  V30 2177 O 207.902 -2.89631 -4.63439 0
M  V30 2178 H 204.996 -0.407737 -0.7195 0
M  V30 2179 H 207.542 -1.39942 -0.959914 0
M  V30 2180 H 206.314 -3.02727 -2.47936 0
M  V30 2181 H 205.937 -1.71714 -3.58609 0
M  V30 2182 N 206.934 1.1197 -1.10907 0
M  V30 2183 C 207.897 2.16031 -0.765707 0
M  V30 2184 C 208.897 1.59393 0.212235 0
M  V30 2185 O 210.087 1.74196 -0.0115441 0
M  V30 2186 C 207.219 3.40632 -0.135053 0
M  V30 2187 H 208.412 2.47919 -1.68748 0
M  V30 2188 H 205.965 1.27061 -0.910226 0
M  V30 2189 H 206.7 3.14348 0.797218 0
M  V30 2190 H 206.485 3.8302 -0.838937 0
M  V30 2191 H 207.975 4.17505 0.0892469 0
M  V30 2192 N 208.412 0.89855 1.29475 0
M  V30 2193 C 209.344 0.332726 2.26772 0
M  V30 2194 C 210.357 -0.520323 1.54261 0
M  V30 2195 O 211.546 -0.337668 1.75277 0
M  V30 2196 C 208.646 -0.544334 3.345 0
M  V30 2197 C 207.819 0.282728 4.36485 0
M  V30 2198 C 206.878 -0.526982 5.23555 0
M  V30 2199 O 205.904 0.0551165 5.69173 0
M  V30 2200 N 207.106 -1.83331 5.5079 0
M  V30 2201 H 209.871 1.16897 2.75962 0
M  V30 2202 H 207.432 0.762919 1.42798 0
M  V30 2203 H 209.424 -1.09239 3.89678 0
M  V30 2204 H 207.994 -1.28127 2.85136 0
M  V30 2205 H 207.214 1.01221 3.80983 0
M  V30 2206 H 208.502 0.84918 5.01664 0
M  V30 2207 H 207.9 -2.32898 5.15534 0
M  V30 2208 H 206.457 -2.32852 6.08788 0
M  V30 2209 N 209.89 -1.43072 0.660911 0
M  V30 2210 C 211.306 -1.56169 0.329173 0
M  V30 2211 C 211.506 -1.64317 -1.16629 0
M  V30 2212 O 210.562 -1.60245 -1.95135 0
M  V30 2213 C 211.875 -2.81873 1.04729 0
M  V30 2214 C 213.423 -2.95627 1.02828 0
M  V30 2215 C 213.898 -4.24174 1.72744 0
M  V30 2216 N 215.389 -4.31055 1.69545 0
M  V30 2217 C 216.124 -5.29304 2.20511 0
M  V30 2218 N 215.62 -6.33786 2.79799 0
M  V30 2219 N 217.413 -5.21008 2.10966 0
M  V30 2220 H 209.564 -1.36027 1.63127 0
M  V30 2221 H 211.827 -0.653823 0.686454 0
M  V30 2222 H 211.533 -2.81942 2.10242 0
M  V30 2223 H 211.407 -3.72338 0.603702 0
M  V30 2224 H 213.794 -2.95094 -0.0184742 0
M  V30 2225 H 213.875 -2.06431 1.51063 0
M  V30 2226 H 213.519 -4.25467 2.7738 0
M  V30 2227 H 213.449 -5.1228 1.2197 0
M  V30 2228 H 215.94 -3.56174 1.26288 0
M  V30 2229 H 216.253 -7.05086 3.16344 0
M  V30 2230 H 214.598 -6.34387 2.83863 0
M  V30 2231 H 217.789 -4.38301 1.64347 0
M  V30 2232 H 217.962 -5.97416 2.50993 0
M  V30 2233 N 211.368 -0.403325 -1.52352 0
M  V30 2234 C 212.316 0.439752 -2.28405 0
M  V30 2235 C 213.31 1.05089 -1.32863 0
M  V30 2236 O 214.516 0.989759 -1.50345 0
M  V30 2237 H 210.891 0.160587 -0.734653 0
M  V30 2238 H 212.862 -0.222983 -2.97566 0
M  V30 2239 C 211.611 1.54736 -3.11371 0
M  V30 2240 H 210.934 1.08643 -3.84755 0
M  V30 2241 H 212.374 2.1112 -3.67701 0
M  V30 2242 C 210.833 2.51141 -2.24566 0
M  V30 2243 O 211.363 3.54887 -1.88196 0
M  V30 2244 N 209.569 2.21213 -1.8845 0
M  V30 2245 H 209.116 1.36878 -2.18225 0
M  V30 2246 H 209.074 2.85963 -1.30662 0
M  V30 2247 N 212.846 1.57033 -0.133567 0
M  V30 2248 C 214.093 1.95686 0.520877 0
M  V30 2249 C 214.421 1.0177 1.6575 0
M  V30 2250 O 213.676 0.0443195 1.9565 0
M  V30 2251 C 213.975 3.40674 1.08057 0
M  V30 2252 C 213.641 4.50855 0.0637899 0
M  V30 2253 C 212.303 4.80716 -0.215757 0
M  V30 2254 C 214.655 5.17398 -0.62835 0
M  V30 2255 C 211.983 5.74433 -1.19348 0
M  V30 2256 C 214.335 6.12167 -1.5948 0
M  V30 2257 C 212.999 6.40414 -1.88218 0
M  V30 2258 H 212.269 0.716067 0.190602 0
M  V30 2259 H 214.916 1.9026 -0.217556 0
M  V30 2260 H 213.221 3.42865 1.89606 0
M  V30 2261 H 214.918 3.67902 1.59529 0
M  V30 2262 H 211.508 4.27605 0.291855 0
M  V30 2263 H 215.692 4.94472 -0.425562 0
M  V30 2264 H 210.948 5.94616 -1.42272 0
M  V30 2265 H 215.122 6.6281 -2.13671 0
M  V30 2266 H 212.749 7.12838 -2.64133 0
M  V30 2267 N 214.325 -0.140222 1.56975 0
M  V30 2268 C 215.55 -0.870414 1.88251 0
M  V30 2269 C 215.975 -1.73637 0.723312 0
M  V30 2270 O 215.333 -1.78329 -0.32689 0
M  V30 2271 C 215.381 -1.69737 3.18154 0
M  V30 2272 O 214.485 -2.80229 3.02565 0
M  V30 2273 H 213.826 -0.242025 0.61832 0
M  V30 2274 H 216.356 -0.128999 2.04193 0
M  V30 2275 H 216.366 -2.09099 3.50345 0
M  V30 2276 H 215.041 -1.06152 4.02125 0
M  V30 2277 H 213.618 -2.44224 2.81796 0
M  V30 2278 N 215.803 -1.52179 -0.40978 0
M  V30 2279 C 217.049 -1.66453 -1.15851 0
M  V30 2280 C 217.382 -0.392972 -1.90182 0
M  V30 2281 O 216.657 0.608579 -1.84734 0
M  V30 2282 C 216.94 -2.88612 -2.15349 0
M  V30 2283 C 216.793 -4.25815 -1.44918 0
M  V30 2284 C 218.112 -3.06294 -3.16026 0
M  V30 2285 H 215.231 -0.60575 -0.419805 0
M  V30 2286 H 217.873 -1.84732 -0.444314 0
M  V30 2287 H 216.023 -2.73158 -2.76255 0
M  V30 2288 H 217.695 -4.52995 -0.871365 0
M  V30 2289 H 215.938 -4.27247 -0.751159 0
M  V30 2290 H 216.609 -5.07337 -2.17516 0
M  V30 2291 H 219.085 -3.20641 -2.65195 0
M  V30 2292 H 217.961 -3.93283 -3.8291 0
M  V30 2293 H 218.222 -2.19579 -3.83715 0
M  V30 2294 N 217.281 0.66697 -1.42791 0
M  V30 2295 C 218.527 1.42754 -1.44889 0
M  V30 2296 C 218.882 1.92283 -0.0669755 0
M  V30 2297 O 218.175 1.68494 0.912154 0
M  V30 2298 C 218.369 2.6349 -2.4147 0
M  V30 2299 C 218.198 2.25776 -3.88915 0
M  V30 2300 C 216.968 2.1476 -4.57391 0
M  V30 2301 C 219.166 1.86927 -4.79127 0
M  V30 2302 N 217.148 1.70232 -5.89826 0
M  V30 2303 C 218.519 1.53378 -6.00729 0
M  V30 2304 C 220.574 1.73989 -4.66511 0
M  V30 2305 C 219.277 1.08187 -7.11117 0
M  V30 2306 C 221.303 1.30203 -5.76889 0
M  V30 2307 C 220.665 0.975818 -6.97608 0
M  V30 2308 H 216.764 0.518559 -0.585338 0
M  V30 2309 H 219.348 0.768906 -1.78874 0
M  V30 2310 H 217.519 3.27033 -2.09533 0
M  V30 2311 H 219.251 3.30123 -2.34096 0
M  V30 2312 H 216.006 2.3408 -4.11708 0
M  V30 2313 H 216.43 1.50369 -6.6009 0
M  V30 2314 H 221.072 1.97853 -3.7365 0
M  V30 2315 H 218.79 0.830701 -8.03819 0
M  V30 2316 H 222.376 1.20701 -5.69142 0
M  V30 2317 H 221.256 0.642157 -7.81566 0
M  V30 2318 N 218.759 1.29093 0.90403 0
M  V30 2319 C 219.692 1.08176 2.00931 0
M  V30 2320 C 220.67 -0.005083 1.62599 0
M  V30 2321 O 221.854 0.144765 1.87943 0
M  V30 2322 C 218.981 0.645897 3.32484 0
M  V30 2323 C 218.027 1.73081 3.89801 0
M  V30 2324 S 218.86 3.32905 4.19446 0
M  V30 2325 C 220.016 2.91176 5.54046 0
M  V30 2326 H 220.249 2.01752 2.18365 0
M  V30 2327 H 217.782 1.13191 1.0501 0
M  V30 2328 H 219.74 0.401131 4.08535 0
M  V30 2329 H 218.401 -0.270188 3.12936 0
M  V30 2330 H 217.594 1.37768 4.84805 0
M  V30 2331 H 217.196 1.92888 3.20422 0
M  V30 2332 H 219.488 2.37952 6.34338 0
M  V30 2333 H 220.431 3.85014 5.94281 0
M  V30 2334 H 220.839 2.296 5.15698 0
M  V30 2335 N 220.237 -1.11381 1.11499 0
M  V30 2336 C 221.653 -1.35143 0.849031 0
M  V30 2337 C 221.853 -1.94515 -0.525938 0
M  V30 2338 O 220.909 -2.1785 -1.27662 0
M  V30 2339 C 222.222 -2.28249 1.95762 0
M  V30 2340 C 223.77 -2.41812 1.98736 0
M  V30 2341 C 224.245 -3.3824 3.088 0
M  V30 2342 N 225.736 -3.45803 3.08179 0
M  V30 2343 C 226.471 -4.20358 3.89982 0
M  V30 2344 N 225.967 -4.97884 4.8175 0
M  V30 2345 N 227.76 -4.15877 3.78157 0
M  V30 2346 H 219.911 -0.712062 2.00109 0
M  V30 2347 H 222.174 -0.376025 0.870235 0
M  V30 2348 H 221.88 -1.91817 2.94787 0
M  V30 2349 H 221.754 -3.28473 1.85433 0
M  V30 2350 H 224.141 -2.77518 1.00338 0
M  V30 2351 H 224.222 -1.41437 2.13141 0
M  V30 2352 H 223.866 -3.03261 4.07425 0
M  V30 2353 H 223.796 -4.38471 2.91635 0
M  V30 2354 H 226.287 -2.90506 2.41691 0
M  V30 2355 H 226.6 -5.52142 5.40702 0
M  V30 2356 H 224.945 -4.97043 4.85771 0
M  V30 2357 H 228.136 -3.544 3.05808 0
M  V30 2358 H 228.309 -4.73723 4.42143 0
M  V30 2359 N 221.715 -0.905404 -1.28997 0
M  V30 2360 C 222.961 -0.544465 -1.95977 0
M  V30 2361 C 223.316 0.90041 -1.70031 0
M  V30 2362 O 222.609 1.63064 -1.00601 0
M  V30 2363 C 222.803 -0.779906 -3.48787 0
M  V30 2364 C 222.632 -2.24612 -3.89589 0
M  V30 2365 C 221.402 -2.89464 -4.14172 0
M  V30 2366 C 223.6 -3.22182 -4.00878 0
M  V30 2367 N 221.582 -4.26469 -4.41585 0
M  V30 2368 C 222.953 -4.44323 -4.32409 0
M  V30 2369 C 225.008 -3.17694 -3.83373 0
M  V30 2370 C 223.711 -5.62546 -4.48258 0
M  V30 2371 C 225.737 -4.35208 -4.00435 0
M  V30 2372 C 225.099 -5.56121 -4.3233 0
M  V30 2373 H 221.198 -0.248948 -0.741316 0
M  V30 2374 H 223.782 -1.1674 -1.5582 0
M  V30 2375 H 221.953 -0.186308 -3.87953 0
M  V30 2376 H 223.685 -0.383833 -4.02876 0
M  V30 2377 H 220.44 -2.40232 -4.08149 0
M  V30 2378 H 220.864 -4.97283 -4.5939 0
M  V30 2379 H 225.506 -2.25297 -3.57773 0
M  V30 2380 H 223.224 -6.55429 -4.72692 0
M  V30 2381 H 226.81 -4.33228 -3.88336 0
M  V30 2382 H 225.69 -6.45537 -4.45255 0
M  V30 2383 N 223.193 1.4272 -0.668489 0
M  V30 2384 C 224.441 2.01226 -0.187769 0
M  V30 2385 C 224.762 1.53092 1.2078 0
M  V30 2386 O 224.032 0.74993 1.80977 0
M  V30 2387 H 222.612 0.744041 -0.0664272 0
M  V30 2388 H 225.274 1.74723 -0.863583 0
M  V30 2389 H 224.37 3.11556 -0.184166 0
M  V30 2390 N 224.671 0.411399 1.52136 0
M  V30 2391 C 226.087 0.0623865 1.59478 0
M  V30 2392 C 226.287 -1.42554 1.4241 0
M  V30 2393 O 225.343 -2.19263 1.2522 0
M  V30 2394 C 226.656 0.559331 2.95452 0
M  V30 2395 C 228.204 0.517503 3.08692 0
M  V30 2396 C 228.679 0.990994 4.4715 0
M  V30 2397 N 230.17 0.947908 4.53397 0
M  V30 2398 C 230.905 1.28544 5.58806 0
M  V30 2399 N 230.401 1.69454 6.71757 0
M  V30 2400 N 232.194 1.20526 5.49026 0
M  V30 2401 H 224.345 1.37982 1.61477 0
M  V30 2402 H 226.608 0.566977 0.759764 0
M  V30 2403 H 226.314 1.59938 3.1323 0
M  V30 2404 H 226.188 -0.0298014 3.77188 0
M  V30 2405 H 228.575 -0.513505 2.90598 0
M  V30 2406 H 228.656 1.14272 2.28857 0
M  V30 2407 H 228.3 2.02034 4.65988 0
M  V30 2408 H 228.23 0.34257 5.25485 0
M  V30 2409 H 230.721 0.647157 3.72317 0
M  V30 2410 H 231.034 1.93513 7.48179 0
M  V30 2411 H 229.379 1.73359 6.73032 0
M  V30 2412 H 232.57 0.884505 4.59667 0
M  V30 2413 H 232.743 1.47161 6.31069 0
M  V30 2414 N 226.149 -1.5696 0.141893 0
M  V30 2415 C 227.395 -1.9625 -0.511248 0
M  V30 2416 C 227.728 -1.02654 -1.64851 0
M  V30 2417 O 227.003 -0.0679676 -1.94381 0
M  V30 2418 C 227.286 -3.45285 -1.02227 0
M  V30 2419 C 227.139 -4.49658 0.113138 0
M  V30 2420 C 228.458 -3.96698 -1.90574 0
M  V30 2421 H 225.577 -0.713567 -0.184367 0
M  V30 2422 H 228.219 -1.88698 0.222087 0
M  V30 2423 H 226.369 -3.51852 -1.64719 0
M  V30 2424 H 228.041 -4.55174 0.749302 0
M  V30 2425 H 226.284 -4.26857 0.773026 0
M  V30 2426 H 226.955 -5.51258 -0.286053 0
M  V30 2427 H 229.431 -3.92578 -1.37918 0
M  V30 2428 H 228.307 -5.01453 -2.2324 0
M  V30 2429 H 228.568 -3.3875 -2.84079 0
M  V30 2430 N 227.627 0.131896 -1.57047 0
M  V30 2431 C 228.875 0.840269 -1.83804 0
M  V30 2432 C 229.196 1.81017 -0.72512 0
M  V30 2433 O 228.466 1.94272 0.251995 0
M  V30 2434 H 227.046 0.313294 -0.678127 0
M  V30 2435 H 229.708 0.122294 -1.94516 0
M  V30 2436 H 228.804 1.39335 -2.79271 0
M  V30 2437 N 229.106 1.52395 0.401703 0
M  V30 2438 C 230.053 1.76268 1.48991 0
M  V30 2439 C 231.023 0.605386 1.54675 0
M  V30 2440 O 232.208 0.843742 1.7113 0
M  V30 2441 C 229.348 1.92592 2.86361 0
M  V30 2442 C 228.461 3.20259 2.89928 0
M  V30 2443 C 227.596 3.26972 4.18644 0
M  V30 2444 C 226.635 4.48812 4.16214 0
M  V30 2445 N 225.772 4.52877 5.36514 0
M  V30 2446 H 230.612 2.6914 1.27935 0
M  V30 2447 H 228.149 1.33355 0.620871 0
M  V30 2448 H 230.107 2.0004 3.66115 0
M  V30 2449 H 228.737 1.03093 3.05895 0
M  V30 2450 H 227.789 3.21945 2.02621 0
M  V30 2451 H 229.101 4.10056 2.83999 0
M  V30 2452 H 228.255 3.33533 5.06794 0
M  V30 2453 H 226.994 2.35126 4.27278 0
M  V30 2454 H 225.999 4.4239 3.26453 0
M  V30 2455 H 227.224 5.41961 4.09213 0
M  V30 2456 H 225.17 3.63917 5.45802 0
M  V30 2457 H 225.087 5.36529 5.32609 0
M  V30 2458 H 226.355 4.63676 6.26597 0
M  V30 2459 N 230.584 -0.659388 1.43143 0
M  V30 2460 C 231.517 -1.78425 1.42267 0
M  V30 2461 C 232.495 -1.60085 0.284894 0
M  V30 2462 O 233.679 -1.82351 0.477527 0
M  V30 2463 C 230.806 -3.15642 1.22833 0
M  V30 2464 C 229.852 -3.52698 2.39806 0
M  V30 2465 S 230.685 -3.53372 4.02353 0
M  V30 2466 C 231.841 -4.93256 3.85291 0
M  V30 2467 H 232.074 -1.78897 2.37452 0
M  V30 2468 H 229.607 -0.831469 1.301 0
M  V30 2469 H 231.565 -3.94838 1.12308 0
M  V30 2470 H 230.226 -3.12739 0.29207 0
M  V30 2471 H 229.419 -4.52475 2.21996 0
M  V30 2472 H 229.021 -2.80899 2.46925 0
M  V30 2473 H 231.313 -5.81751 3.47235 0
M  V30 2474 H 232.256 -5.16115 4.84799 0
M  V30 2475 H 232.664 -4.665 3.17865 0
M  V30 2476 N 232.062 -1.29571 -0.897171 0
M  V30 2477 C 233.31 -1.17456 -1.64464 0
M  V30 2478 C 233.631 0.273698 -1.9307 0
M  V30 2479 O 232.901 1.18684 -1.55855 0
M  V30 2480 H 231.481 -0.431706 -0.609622 0
M  V30 2481 H 234.143 -1.62531 -1.07562 0
M  V30 2482 H 233.239 -1.72648 -2.59998 0
M  V30 2483 N 233.54 1.10788 -1.12088 0
M  V30 2484 C 234.472 2.16816 -0.743213 0
M  V30 2485 C 235.485 1.6119 0.228412 0
M  V30 2486 O 236.674 1.78497 0.0102931 0
M  V30 2487 C 233.774 3.38809 -0.0787313 0
M  V30 2488 C 232.947 4.23885 -1.0789 0
M  V30 2489 C 232.006 5.24334 -0.442713 0
M  V30 2490 O 231.032 5.58497 -1.09864 0
M  V30 2491 N 232.234 5.75079 0.791457 0
M  V30 2492 H 234.999 2.49825 -1.65552 0
M  V30 2493 H 232.56 1.26373 -1.012 0
M  V30 2494 H 234.552 4.03107 0.358766 0
M  V30 2495 H 233.122 3.03805 0.736275 0
M  V30 2496 H 232.342 3.55939 -1.69414 0
M  V30 2497 H 233.63 4.77562 -1.75533 0
M  V30 2498 H 233.028 5.49517 1.3434 0
M  V30 2499 H 231.585 6.4118 1.17183 0
M  V30 2500 N 235.018 0.912232 1.28515 0
M  V30 2501 C 235.968 0.370649 2.24967 0
M  V30 2502 C 236.952 -0.516375 1.52389 0
M  V30 2503 O 238.144 -0.356345 1.73376 0
M  V30 2504 C 235.273 -0.389526 3.41083 0
M  V30 2505 C 234.359 0.51313 4.20984 0
M  V30 2506 N 234.75 1.62604 4.78951 0
M  V30 2507 C 233.048 0.313235 4.44899 0
M  V30 2508 C 233.749 2.18619 5.39055 0
M  V30 2509 N 232.725 1.47765 5.23132 0
M  V30 2510 H 236.527 1.22061 2.67354 0
M  V30 2511 H 234.041 0.764712 1.43269 0
M  V30 2512 H 236.038 -0.794353 4.09262 0
M  V30 2513 H 234.698 -1.2366 3.0023 0
M  V30 2514 H 235.709 2.00864 4.77362 0
M  V30 2515 H 232.386 -0.494452 4.14562 0
M  V30 2516 H 233.776 3.12228 5.94948 0
M  V30 2517 N 236.496 -1.42363 0.676048 0
M  V30 2518 C 237.721 -2.06377 0.205705 0
M  V30 2519 C 238.146 -1.50463 -1.12883 0
M  V30 2520 O 237.504 -0.623619 -1.70237 0
M  V30 2521 C 237.552 -3.60277 0.152655 0
M  V30 2522 O 236.656 -4.02935 -0.87845 0
M  V30 2523 H 235.997 -0.655588 0.105359 0
M  V30 2524 H 238.527 -1.82475 0.925412 0
M  V30 2525 H 238.537 -4.07993 -0.0230675 0
M  V30 2526 H 237.212 -4.00346 1.12675 0
M  V30 2527 H 235.789 -3.66764 -0.673668 0
M  V30 2528 N 237.974 -0.419461 -1.51915 0
M  V30 2529 C 238.904 0.391813 -2.30189 0
M  V30 2530 C 239.885 1.03699 -1.34836 0
M  V30 2531 O 241.07 1.04403 -1.63748 0
M  V30 2532 C 238.2 1.50312 -3.13087 0
M  V30 2533 C 237.154 0.9824 -4.16573 0
M  V30 2534 C 236.48 2.18809 -4.8788 0
M  V30 2535 C 237.78 0.0292356 -5.22292 0
M  V30 2536 H 239.474 -0.26135 -2.98257 0
M  V30 2537 H 237.02 -0.127134 -1.43438 0
M  V30 2538 H 238.973 2.07773 -3.66617 0
M  V30 2539 H 237.697 2.18431 -2.42807 0
M  V30 2540 H 236.356 0.430119 -3.64068 0
M  V30 2541 H 236.004 2.85507 -4.14119 0
M  V30 2542 H 235.704 1.84615 -5.57845 0
M  V30 2543 H 237.228 2.76858 -5.44226 0
M  V30 2544 H 238.642 0.512976 -5.71 0
M  V30 2545 H 237.039 -0.2244 -5.9968 0
M  V30 2546 H 238.109 -0.912931 -4.76228 0
M  V30 2547 N 239.452 1.56882 -0.150215 0
M  V30 2548 C 240.698 1.96518 0.500834 0
M  V30 2549 C 241.031 1.03527 1.64304 0
M  V30 2550 O 240.306 0.0782751 1.94342 0
M  V30 2551 C 240.589 3.45822 1.00395 0
M  V30 2552 C 240.442 4.49591 -0.136983 0
M  V30 2553 C 241.761 3.97704 1.88467 0
M  V30 2554 H 238.88 0.714535 0.18058 0
M  V30 2555 H 241.522 1.88577 -0.232091 0
M  V30 2556 H 239.672 3.5272 1.62851 0
M  V30 2557 H 241.344 4.5477 -0.77343 0
M  V30 2558 H 239.587 4.26441 -0.795652 0
M  V30 2559 H 240.258 5.51402 0.256815 0
M  V30 2560 H 242.734 3.93304 1.35834 0
M  V30 2561 H 241.61 5.0263 2.20578 0
M  V30 2562 H 241.871 3.40252 2.82279 0
M  V30 2563 N 240.93 -0.123565 1.57115 0
M  V30 2564 C 241.893 -1.13583 1.99076 0
M  V30 2565 C 242.893 -1.34564 0.880296 0
M  V30 2566 O 244.083 -1.31158 1.14644 0
M  V30 2567 C 241.215 -2.49128 2.32698 0
M  V30 2568 H 242.408 -0.775287 2.89706 0
M  V30 2569 H 239.961 -0.36771 1.51913 0
M  V30 2570 H 240.696 -2.90111 1.44934 0
M  V30 2571 H 240.481 -2.35255 3.13684 0
M  V30 2572 H 241.971 -3.2199 2.65918 0
M  V30 2573 N 242.408 -1.52605 -0.393616 0
M  V30 2574 C 243.648 -1.6911 -1.1481 0
M  V30 2575 C 244.012 -0.41969 -1.87357 0
M  V30 2576 O 245.213 -0.461034 -2.64817 0
M  V30 2577 C 243.484 -2.88909 -2.10395 0
M  V30 2578 S 245.043 -3.25977 -2.93742 0
M  V30 2579 H 241.861 -0.595337 -0.38871 0
M  V30 2580 H 244.463 -1.90641 -0.433178 0
M  V30 2581 H 243.167 -3.79672 -1.55812 0
M  V30 2582 H 242.698 -2.69698 -2.86403 0
M  V30 2583 H 244.713 -2.75806 -4.12487 0
M  V30 2584 N 243.887 0.651787 -1.4349 0
M  V30 2585 C 245.112 1.44434 -1.48841 0
M  V30 2586 C 245.537 1.8779 -0.107955 0
M  V30 2587 O 244.895 1.57464 0.898602 0
M  V30 2588 C 244.943 2.65458 -2.44059 0
M  V30 2589 O 244.047 3.64566 -1.92784 0
M  V30 2590 H 243.388 0.433005 -0.503391 0
M  V30 2591 H 245.918 0.797451 -1.88419 0
M  V30 2592 H 245.928 3.13255 -2.6141 0
M  V30 2593 H 244.603 2.33244 -3.4434 0
M  V30 2594 H 243.18 3.23716 -1.851 0
M  V30 2595 N 245.365 1.30045 0.890287 0
M  V30 2596 C 246.613 1.18327 1.63839 0
M  V30 2597 C 246.934 -0.263455 1.93212 0
M  V30 2598 O 246.204 -1.17856 1.56482 0
M  V30 2599 H 244.784 0.434933 0.607324 0
M  V30 2600 H 247.446 1.631 1.06698 0
M  V30 2601 H 246.542 1.74024 2.59079 0
M  V30 2602 N 246.843 -1.10192 1.12674 0
M  V30 2603 C 247.791 -2.18694 0.792196 0
M  V30 2604 C 248.785 -1.67938 -0.222058 0
M  V30 2605 O 249.991 -1.79822 -0.0800074 0
M  V30 2606 H 246.366 -0.713223 0.238364 0
M  V30 2607 H 248.337 -2.44149 1.71564 0
M  V30 2608 C 247.086 -3.46682 0.265859 0
M  V30 2609 H 246.409 -3.86101 1.03761 0
M  V30 2610 H 247.849 -4.23942 0.0701128 0
M  V30 2611 C 246.308 -3.21506 -1.00675 0
M  V30 2612 O 246.838 -3.43408 -2.08408 0
M  V30 2613 N 245.044 -2.75158 -0.934692 0
M  V30 2614 H 244.591 -2.57535 -0.0578604 0
M  V30 2615 H 244.549 -2.58691 -1.7868 0
M  V30 2616 N 248.321 -0.919034 -1.28029 0
M  V30 2617 C 249.251 -0.428581 -2.29533 0
M  V30 2618 C 250.232 0.50659 -1.62381 0
M  V30 2619 O 251.417 0.413195 -1.89753 0
M  V30 2620 C 248.547 0.327388 -3.45753 0
M  V30 2621 C 247.501 -0.519137 -4.2484 0
M  V30 2622 C 246.827 0.365486 -5.33449 0
M  V30 2623 C 248.127 -1.77914 -4.91064 0
M  V30 2624 H 249.821 -1.27687 -2.70807 0
M  V30 2625 H 247.367 -0.615428 -1.30186 0
M  V30 2626 H 249.32 0.681378 -4.15855 0
M  V30 2627 H 248.044 1.20963 -3.03374 0
M  V30 2628 H 246.703 -0.855717 -3.56473 0
M  V30 2629 H 246.351 1.24642 -4.87312 0
M  V30 2630 H 246.051 -0.197356 -5.87268 0
M  V30 2631 H 247.575 0.715241 -6.06396 0
M  V30 2632 H 248.989 -1.49374 -5.53498 0
M  V30 2633 H 247.386 -2.2848 -5.54903 0
M  V30 2634 H 248.456 -2.50382 -4.15255 0
M  V30 2635 N 249.799 1.42003 -0.683588 0
M  V30 2636 C 250.747 2.326 0.000815408 0
M  V30 2637 C 251.741 1.50308 0.781278 0
M  V30 2638 O 252.947 1.66322 0.688251 0
M  V30 2639 H 249.322 0.751758 0.0190616 0
M  V30 2640 H 251.293 2.88011 -0.780528 0
M  V30 2641 C 250.042 3.34978 0.93195 0
M  V30 2642 H 249.365 3.98345 0.340817 0
M  V30 2643 H 250.805 4.00936 1.37936 0
M  V30 2644 C 249.264 2.67925 2.04249 0
M  V30 2645 O 249.794 2.51788 3.12995 0
M  V30 2646 N 248 2.2681 1.81675 0
M  V30 2647 H 247.547 2.40135 0.932363 0
M  V30 2648 H 247.505 1.8228 2.56167 0
M  V30 2649 N 251.277 0.427512 1.51691 0
M  V30 2650 C 252.224 -0.388867 2.275 0
M  V30 2651 C 253.194 -1.02532 1.30677 0
M  V30 2652 O 254.379 -1.0461 1.59566 0
M  V30 2653 C 251.519 -1.48954 3.11298 0
M  V30 2654 C 250.632 -0.872194 4.23104 0
M  V30 2655 C 249.767 -1.94709 4.94228 0
M  V30 2656 C 248.806 -1.30766 5.97969 0
M  V30 2657 N 247.943 -2.32349 6.62539 0
M  V30 2658 H 252.783 0.263997 2.96828 0
M  V30 2659 H 250.32 0.142033 1.46413 0
M  V30 2660 H 252.278 -2.13887 3.58201 0
M  V30 2661 H 250.908 -2.11217 2.44105 0
M  V30 2662 H 249.96 -0.111419 3.80237 0
M  V30 2663 H 251.272 -0.365264 4.97461 0
M  V30 2664 H 250.426 -2.67327 5.44629 0
M  V30 2665 H 249.165 -2.48773 4.1948 0
M  V30 2666 H 248.17 -0.566902 5.4687 0
M  V30 2667 H 249.395 -0.774483 6.74669 0
M  V30 2668 H 247.341 -2.85511 5.90609 0
M  V30 2669 H 247.258 -1.8652 7.3263 0
M  V30 2670 H 248.526 -3.04481 7.17574 0
M  V30 2671 N 252.755 -1.56801 0.158532 0
M  V30 2672 C 253.718 -2.16138 -0.762705 0
M  V30 2673 C 254.718 -1.1061 -1.16713 0
M  V30 2674 O 255.908 -1.36191 -1.08617 0
M  V30 2675 C 253.04 -2.73386 -2.03649 0
M  V30 2676 H 254.233 -2.98886 -0.246354 0
M  V30 2677 H 251.786 -1.56035 -0.0909744 0
M  V30 2678 H 252.521 -1.94335 -2.59623 0
M  V30 2679 H 252.306 -3.50601 -1.75559 0
M  V30 2680 H 253.796 -3.19065 -2.6942 0
M  V30 2681 N 254.233 0.115231 -1.57178 0
M  V30 2682 C 255.18 1.14115 -2.00615 0
M  V30 2683 C 256.15 1.40939 -0.878941 0
M  V30 2684 O 257.335 1.52741 -1.14345 0
M  V30 2685 C 254.475 2.46156 -2.4187 0
M  V30 2686 C 253.588 2.26236 -3.68024 0
M  V30 2687 C 252.723 3.51534 -3.98243 0
M  V30 2688 C 251.762 3.26787 -5.17568 0
M  V30 2689 N 250.899 4.44298 -5.43639 0
M  V30 2690 H 255.739 0.763743 -2.88047 0
M  V30 2691 H 253.276 0.365615 -1.42484 0
M  V30 2692 H 255.234 3.23189 -2.63827 0
M  V30 2693 H 253.864 2.81783 -1.57475 0
M  V30 2694 H 252.916 1.40102 -3.5366 0
M  V30 2695 H 254.228 2.03929 -4.55208 0
M  V30 2696 H 253.382 4.36984 -4.20868 0
M  V30 2697 H 252.121 3.76876 -3.09541 0
M  V30 2698 H 251.126 2.39729 -4.94783 0
M  V30 2699 H 252.351 3.02812 -6.0785 0
M  V30 2700 H 250.297 4.69754 -4.57895 0
M  V30 2701 H 250.214 4.25109 -6.25154 0
M  V30 2702 H 251.482 5.3087 -5.70786 0
M  V30 2703 N 255.711 1.52812 0.385517 0
M  V30 2704 C 256.621 1.80766 1.49535 0
M  V30 2705 C 257.637 0.694651 1.59532 0
M  V30 2706 O 258.813 0.982611 1.75803 0
M  V30 2707 C 255.878 1.97381 2.85029 0
M  V30 2708 C 254.939 3.21295 2.84724 0
M  V30 2709 C 254.172 3.37108 4.13756 0
M  V30 2710 O 254.395 2.5765 5.08893 0
M  V30 2711 O 253.329 4.30378 4.20783 0
M  V30 2712 H 257.155 2.75015 1.28842 0
M  V30 2713 H 254.74 1.37946 0.573697 0
M  V30 2714 H 256.622 2.09996 3.65349 0
M  V30 2715 H 255.297 1.06322 3.05741 0
M  V30 2716 H 254.204 3.1412 2.03174 0
M  V30 2717 H 255.537 4.12212 2.68965 0
M  V30 2718 N 257.189 -0.644168 1.43834 0
M  V30 2719 C 258.438 -1.39985 1.45214 0
M  V30 2720 C 258.751 -1.95421 0.0835494 0
M  V30 2721 O 259.957 -2.71488 -0.0251748 0
M  V30 2722 C 258.413 -2.53384 2.55587 0
M  V30 2723 C 258.021 -2.04517 3.98594 0
M  V30 2724 C 259.765 -3.30685 2.66172 0
M  V30 2725 C 257.672 -3.1518 5.00416 0
M  V30 2726 H 256.602 -0.526005 0.540218 0
M  V30 2727 H 259.253 -0.694367 1.69855 0
M  V30 2728 H 257.635 -3.26446 2.24163 0
M  V30 2729 H 258.809 -1.38405 4.39523 0
M  V30 2730 H 257.124 -1.40068 3.92135 0
M  V30 2731 H 259.721 -4.13158 3.39418 0
M  V30 2732 H 260.064 -3.79312 1.71546 0
M  V30 2733 H 260.597 -2.64708 2.96942 0
M  V30 2734 H 257.336 -2.71511 5.96625 0
M  V30 2735 H 256.856 -3.79974 4.64091 0
M  V30 2736 H 258.535 -3.80166 5.23529 0
M  V30 2737 N 258.668 -1.30515 -0.883378 0
M  V30 2738 C 259.915 -1.1943 -1.63532 0
M  V30 2739 C 260.243 0.250627 -1.92878 0
M  V30 2740 O 259.498 1.19556 -1.54935 0
M  V30 2741 C 259.797 -1.96994 -2.98209 0
M  V30 2742 C 259.463 -3.466 -2.88408 0
M  V30 2743 C 258.125 -3.87397 -2.85442 0
M  V30 2744 C 260.477 -4.41863 -2.76418 0
M  V30 2745 C 257.805 -5.21745 -2.68327 0
M  V30 2746 C 260.157 -5.7632 -2.60841 0
M  V30 2747 C 258.821 -6.16354 -2.56251 0
M  V30 2748 H 258.091 -0.437025 -0.598406 0
M  V30 2749 H 260.738 -1.61635 -1.02696 0
M  V30 2750 H 259.043 -1.47429 -3.63004 0
M  V30 2751 H 260.74 -1.85808 -3.55354 0
M  V30 2752 H 257.33 -3.14182 -2.91527 0
M  V30 2753 H 261.514 -4.11285 -2.77775 0
M  V30 2754 H 256.77 -5.51853 -2.63189 0
M  V30 2755 H 260.944 -6.49772 -2.50538 0
M  V30 2756 H 258.571 -7.20401 -2.42748 0
M  V30 2757 N 260.146 1.09593 -1.13257 0
M  V30 2758 C 261.078 2.16015 -0.766167 0
M  V30 2759 C 262.091 1.61423 0.211303 0
M  V30 2760 O 263.28 1.78498 -0.00863946 0
M  V30 2761 C 260.38 3.38706 -0.114662 0
M  V30 2762 C 259.553 4.22717 -1.12379 0
M  V30 2763 C 258.612 5.23835 -0.498301 0
M  V30 2764 O 257.638 5.573 -1.15781 0
M  V30 2765 N 258.84 5.75886 0.730417 0
M  V30 2766 H 261.605 2.48055 -1.68193 0
M  V30 2767 H 259.166 1.25292 -1.02535 0
M  V30 2768 H 261.158 4.03464 0.315991 0
M  V30 2769 H 259.728 3.04569 0.704011 0
M  V30 2770 H 258.948 3.54122 -1.73179 0
M  V30 2771 H 260.236 4.75673 -1.80589 0
M  V30 2772 H 259.634 5.50911 1.28504 0
M  V30 2773 H 258.191 6.42387 1.10376 0
M  V30 2774 N 261.624 0.925811 1.2754 0
M  V30 2775 C 262.571 0.422045 2.26908 0
M  V30 2776 C 263.541 -0.510029 1.58076 0
M  V30 2777 O 264.726 -0.429599 1.85901 0
M  V30 2778 C 261.866 -0.320837 3.43605 0
M  V30 2779 C 260.979 0.64513 4.27156 0
M  V30 2780 C 260.114 -0.117405 5.3107 0
M  V30 2781 C 259.153 0.841391 6.0629 0
M  V30 2782 N 258.29 0.111604 7.02011 0
M  V30 2783 H 263.13 1.27441 2.69375 0
M  V30 2784 H 260.667 0.639697 1.32462 0
M  V30 2785 H 262.625 -0.76785 4.10073 0
M  V30 2786 H 261.255 -1.13745 3.02096 0
M  V30 2787 H 260.307 1.21067 3.6062 0
M  V30 2788 H 261.619 1.37797 4.79389 0
M  V30 2789 H 260.773 -0.624422 6.03478 0
M  V30 2790 H 259.512 -0.883219 4.79636 0
M  V30 2791 H 258.517 1.35967 5.32722 0
M  V30 2792 H 259.742 1.60696 6.59813 0
M  V30 2793 H 257.688 -0.635999 6.5291 0
M  V30 2794 H 257.605 0.784044 7.51923 0
M  V30 2795 H 258.873 -0.374823 7.78598 0
M  V30 2796 N 263.102 -1.41638 0.69111 0
M  V30 2797 C 264.049 -2.30789 0.0229705 0
M  V30 2798 C 265.019 -1.46863 -0.775911 0
M  V30 2799 O 266.204 -1.75661 -0.74485 0
M  V30 2800 C 263.344 -3.32868 -0.910666 0
M  V30 2801 C 262.457 -4.31875 -0.103874 0
M  V30 2802 C 261.592 -5.21024 -1.03475 0
M  V30 2803 C 260.631 -6.11702 -0.220598 0
M  V30 2804 N 259.768 -6.93349 -1.10504 0
M  V30 2805 H 264.608 -2.87366 0.788978 0
M  V30 2806 H 262.145 -1.41535 0.400794 0
M  V30 2807 H 264.103 -3.90596 -1.46597 0
M  V30 2808 H 262.733 -2.77851 -1.64312 0
M  V30 2809 H 261.785 -3.76131 0.568285 0
M  V30 2810 H 263.097 -4.96003 0.527504 0
M  V30 2811 H 262.251 -5.83565 -1.65943 0
M  V30 2812 H 260.99 -4.57112 -1.69999 0
M  V30 2813 H 259.995 -5.48215 0.417187 0
M  V30 2814 H 261.22 -6.77668 0.440784 0
M  V30 2815 H 259.166 -6.3205 -1.75638 0
M  V30 2816 H 259.083 -7.54146 -0.529125 0
M  V30 2817 H 260.351 -7.60362 -1.71667 0
M  V30 2818 N 264.58 -0.43555 -1.51462 0
M  V30 2819 C 265.827 0.131514 -2.02072 0
M  V30 2820 C 266.155 1.42868 -1.31981 0
M  V30 2821 O 265.41 1.91076 -0.422883 0
M  V30 2822 C 265.709 0.39942 -3.55161 0
M  V30 2823 C 265.375 -0.81172 -4.43533 0
M  V30 2824 C 264.037 -1.14387 -4.67407 0
M  V30 2825 C 266.389 -1.61976 -4.95392 0
M  V30 2826 C 263.717 -2.28477 -5.40384 0
M  V30 2827 C 266.069 -2.75164 -5.6962 0
M  V30 2828 C 264.733 -3.08835 -5.91758 0
M  V30 2829 H 264.003 0.0481244 -0.739436 0
M  V30 2830 H 266.65 -0.58238 -1.8243 0
M  V30 2831 H 264.955 1.19519 -3.73125 0
M  V30 2832 H 266.652 0.85157 -3.91854 0
M  V30 2833 H 263.242 -0.542898 -4.25148 0
M  V30 2834 H 267.426 -1.37637 -4.76833 0
M  V30 2835 H 262.682 -2.5488 -5.55739 0
M  V30 2836 H 266.856 -3.38147 -6.08793 0
M  V30 2837 H 264.483 -3.97353 -6.48086 0
M  V30 2838 N 266.058 1.56714 -0.166846 0
M  V30 2839 C 266.988 2.20754 0.760913 0
M  V30 2840 C 267.969 1.16178 1.24244 0
M  V30 2841 O 269.154 1.44592 1.29641 0
M  V30 2842 C 266.284 2.84478 1.99223 0
M  V30 2843 C 265.238 3.95053 1.64672 0
M  V30 2844 C 264.564 4.45805 2.95232 0
M  V30 2845 C 265.864 5.14865 0.878155 0
M  V30 2846 H 267.558 2.98537 0.22713 0
M  V30 2847 H 265.104 1.43596 0.107805 0
M  V30 2848 H 267.057 3.27951 2.64624 0
M  V30 2849 H 265.781 2.04056 2.55007 0
M  V30 2850 H 264.44 3.52228 1.01641 0
M  V30 2851 H 264.088 3.62181 3.49047 0
M  V30 2852 H 263.788 5.204 2.7287 0
M  V30 2853 H 265.312 4.91962 3.6167 0
M  V30 2854 H 266.726 5.55059 1.43466 0
M  V30 2855 H 265.123 5.95348 0.753738 0
M  V30 2856 H 266.193 4.84735 -0.126377 0
M  V30 2857 N 267.536 -0.106894 1.57237 0
M  V30 2858 C 268.813 -0.843526 1.76477 0
M  V30 2859 C 269.193 -1.97499 0.745464 0
M  V30 2860 O 268.541 -2.27357 -0.228306 0
M  V30 2861 C 268.751 -1.34903 3.21873 0
M  V30 2862 C 270.099 -1.79654 3.8472 0
M  V30 2863 O 271.123 -1.44554 3.2555 0
M  V30 2864 O 269.982 -2.44515 4.88748 0
M  V30 2865 H 267.076 -0.401468 0.723016 0
M  V30 2866 H 269.622 -0.0896927 1.69463 0
M  V30 2867 H 268.394 -0.53781 3.87586 0
M  V30 2868 H 268.017 -2.16522 3.33473 0
M  V30 2869 N 269.014 -1.53014 -0.377408 0
M  V30 2870 C 269.961 -1.78616 -1.46168 0
M  V30 2871 C 270.931 -0.629917 -1.53692 0
M  V30 2872 O 272.116 -0.870861 -1.69766 0
M  V30 2873 C 269.256 -1.97123 -2.8326 0
M  V30 2874 C 268.369 -3.24831 -2.84796 0
M  V30 2875 C 267.504 -3.33591 -4.13389 0
M  V30 2876 C 266.543 -4.55377 -4.09021 0
M  V30 2877 N 265.68 -4.61355 -5.29241 0
M  V30 2878 H 270.52 -2.71142 -1.23637 0
M  V30 2879 H 268.057 -1.34326 -0.599577 0
M  V30 2880 H 270.015 -2.05839 -3.62886 0
M  V30 2881 H 268.645 -1.07946 -3.04216 0
M  V30 2882 H 267.697 -3.25128 -1.97474 0
M  V30 2883 H 269.009 -4.14523 -2.77439 0
M  V30 2884 H 268.163 -3.41554 -5.01424 0
M  V30 2885 H 266.902 -2.41894 -4.23484 0
M  V30 2886 H 265.907 -4.47527 -3.19373 0
M  V30 2887 H 267.132 -5.48402 -4.00539 0
M  V30 2888 H 265.078 -3.72554 -5.39944 0
M  V30 2889 H 264.995 -5.44935 -5.24006 0
M  V30 2890 H 266.263 -4.73586 -6.19141 0
M  V30 2891 N 270.492 0.636531 -1.44174 0
M  V30 2892 C 271.72 1.42353 -1.50144 0
M  V30 2893 C 272.135 1.88389 -0.124575 0
M  V30 2894 O 271.492 1.6051 0.868489 0
M  V30 2895 C 271.543 2.64744 -2.46156 0
M  V30 2896 O 271.264 2.20629 -3.7849 0
M  V30 2897 C 272.765 3.57929 -2.61537 0
M  V30 2898 H 269.985 0.436752 -0.5094 0
M  V30 2899 H 272.529 0.778933 -1.89084 0
M  V30 2900 H 270.684 3.25307 -2.10366 0
M  V30 2901 H 271.098 2.99938 -4.30276 0
M  V30 2902 H 272.572 4.40428 -3.32757 0
M  V30 2903 H 273.049 4.06382 -1.66585 0
M  V30 2904 H 273.655 3.03238 -2.98206 0
M  V30 2905 N 271.97 1.30982 0.876444 0
M  V30 2906 C 272.917 1.18085 1.98304 0
M  V30 2907 C 273.887 0.0682263 1.6596 0
M  V30 2908 O 275.072 0.239937 1.89285 0
M  V30 2909 C 272.212 0.887475 3.33493 0
M  V30 2910 C 271.325 2.08281 3.78475 0
M  V30 2911 C 270.46 1.72678 5.0235 0
M  V30 2912 C 269.499 2.88657 5.39762 0
M  V30 2913 N 268.636 2.53292 6.54819 0
M  V30 2914 H 273.476 2.1275 2.08666 0
M  V30 2915 H 271.013 1.05839 1.02159 0
M  V30 2916 H 272.971 0.697961 4.1132 0
M  V30 2917 H 271.601 -0.022315 3.22792 0
M  V30 2918 H 270.653 2.3833 2.96484 0
M  V30 2919 H 271.965 2.95108 4.02135 0
M  V30 2920 H 271.119 1.50151 5.87826 0
M  V30 2921 H 269.858 0.830327 4.8058 0
M  V30 2922 H 268.863 3.1184 4.52809 0
M  V30 2923 H 270.088 3.79002 5.63502 0
M  V30 2924 H 268.034 1.66163 6.34607 0
M  V30 2925 H 267.951 3.3365 6.7839 0
M  V30 2926 H 269.219 2.34143 7.43503 0
M  V30 2927 N 273.449 -1.08991 1.13837 0
M  V30 2928 C 274.397 -2.17841 0.815347 0
M  V30 2929 C 275.391 -1.68164 -0.204233 0
M  V30 2930 O 276.597 -1.79897 -0.0609304 0
M  V30 2931 H 272.972 -0.710654 0.245915 0
M  V30 2932 H 274.943 -2.42315 1.74143 0
M  V30 2933 C 273.692 -3.46381 0.302614 0
M  V30 2934 H 273.015 -3.84979 1.0785 0
M  V30 2935 H 274.455 -4.23844 0.115074 0
M  V30 2936 C 272.914 -3.22556 -0.972591 0
M  V30 2937 O 273.444 -3.45599 -2.04754 0
M  V30 2938 N 271.65 -2.76134 -0.905455 0
M  V30 2939 H 271.197 -2.57582 -0.0305421 0
M  V30 2940 H 271.155 -2.60571 -1.75926 0
M  V30 2941 N 274.927 -0.932562 -1.27047 0
M  V30 2942 C 275.875 -0.42603 -2.28665 0
M  V30 2943 C 276.869 0.49219 -1.62092 0
M  V30 2944 O 278.075 0.371355 -1.76128 0
M  V30 2945 H 274.45 -0.119213 -0.742491 0
M  V30 2946 H 276.421 -1.29579 -2.68797 0
M  V30 2947 C 275.17 0.301426 -3.46391 0
M  V30 2948 H 274.493 -0.39595 -3.97834 0
M  V30 2949 H 275.933 0.6202 -4.1944 0
M  V30 2950 C 274.392 1.51616 -3.00856 0
M  V30 2951 O 274.922 2.61476 -3.04948 0
M  V30 2952 N 273.128 1.36969 -2.56296 0
M  V30 2953 H 272.675 0.475873 -2.53166 0
M  V30 2954 H 272.633 2.18368 -2.26192 0
M  V30 2955 N 276.405 1.4127 -0.698611 0
M  V30 2956 C 277.651 2.01979 -0.239972 0
M  V30 2957 C 278.006 1.54353 1.14861 0
M  V30 2958 O 277.299 0.746218 1.76471 0
M  V30 2959 C 277.493 3.56592 -0.240192 0
M  V30 2960 C 277.322 4.19226 -1.62726 0
M  V30 2961 C 276.092 4.53389 -2.23084 0
M  V30 2962 C 278.29 4.45228 -2.57443 0
M  V30 2963 N 276.272 5.01327 -3.54323 0
M  V30 2964 C 277.643 4.94973 -3.73365 0
M  V30 2965 C 279.698 4.27243 -2.55671 0
M  V30 2966 C 278.401 5.28624 -4.878 0
M  V30 2967 C 280.427 4.61985 -3.69221 0
M  V30 2968 C 279.789 5.11904 -4.83873 0
M  V30 2969 H 275.888 0.770561 -0.133269 0
M  V30 2970 H 278.472 1.71767 -0.916748 0
M  V30 2971 H 276.643 3.86271 0.406082 0
M  V30 2972 H 278.375 4.04025 0.23356 0
M  V30 2973 H 275.13 4.39946 -1.75341 0
M  V30 2974 H 275.554 5.29697 -4.21604 0
M  V30 2975 H 280.196 3.87884 -1.68243 0
M  V30 2976 H 277.914 5.66905 -5.75885 0
M  V30 2977 H 281.5 4.49725 -3.69105 0
M  V30 2978 H 280.38 5.38282 -5.70282 0
M  V30 2979 N 277.883 0.443576 1.51229 0
M  V30 2980 C 278.793 -0.370721 2.31652 0
M  V30 2981 C 279.809 -1.02186 1.40833 0
M  V30 2982 O 280.985 -1.01586 1.73903 0
M  V30 2983 C 278.05 -1.45376 3.14749 0
M  V30 2984 C 277.111 -0.822099 4.21355 0
M  V30 2985 C 276.344 -1.85353 5.0048 0
M  V30 2986 O 276.567 -3.07656 4.80316 0
M  V30 2987 O 275.501 -1.4406 5.84406 0
M  V30 2988 H 279.327 0.286002 3.0235 0
M  V30 2989 H 276.912 0.20598 1.47973 0
M  V30 2990 H 278.794 -2.08173 3.66391 0
M  V30 2991 H 277.469 -2.09445 2.46809 0
M  V30 2992 H 276.376 -0.155909 3.73775 0
M  V30 2993 H 277.709 -0.224797 4.91686 0
M  V30 2994 N 279.361 -1.56624 0.175154 0
M  V30 2995 C 280.638 -1.88688 -0.515373 0
M  V30 2996 C 281.018 -1.08564 -1.81044 0
M  V30 2997 O 280.366 -0.180703 -2.27784 0
M  V30 2998 C 280.576 -3.40768 -0.753552 0
M  V30 2999 C 281.924 -4.10587 -1.08184 0
M  V30 3000 O 282.948 -3.46106 -0.841961 0
M  V30 3001 O 281.807 -5.24512 -1.53459 0
M  V30 3002 H 278.901 -0.78301 -0.26613 0
M  V30 3003 H 281.447 -1.68347 0.213877 0
M  V30 3004 H 280.219 -3.90965 0.161829 0
M  V30 3005 H 279.842 -3.66733 -1.53598 0
M  V30 3006 N 280.839 0.0985539 -1.57292 0
M  V30 3007 C 282.255 0.45267 -1.53046 0
M  V30 3008 C 282.455 1.80713 -0.891342 0
M  V30 3009 O 281.511 2.4785 -0.482375 0
M  V30 3010 C 282.824 0.418341 -2.97776 0
M  V30 3011 C 284.372 0.500443 -3.08973 0
M  V30 3012 C 284.847 0.496297 -4.55303 0
M  V30 3013 N 286.338 0.557151 -4.59837 0
M  V30 3014 C 287.073 0.575726 -5.70502 0
M  V30 3015 N 286.569 0.550714 -6.90608 0
M  V30 3016 N 288.362 0.620277 -5.58667 0
M  V30 3017 H 280.513 -0.788673 -1.97215 0
M  V30 3018 H 282.776 -0.293188 -0.901524 0
M  V30 3019 H 282.482 -0.509659 -3.47988 0
M  V30 3020 H 282.356 1.2386 -3.56284 0
M  V30 3021 H 284.743 1.41886 -2.58751 0
M  V30 3022 H 284.824 -0.347894 -2.53423 0
M  V30 3023 H 284.468 -0.418162 -5.06176 0
M  V30 3024 H 284.398 1.3618 -5.08687 0
M  V30 3025 H 286.889 0.581816 -3.73394 0
M  V30 3026 H 287.202 0.568075 -7.70709 0
M  V30 3027 H 285.547 0.517816 -6.93068 0
M  V30 3028 H 288.738 0.637322 -4.63741 0
M  V30 3029 H 288.911 0.631283 -6.44918 0
M  V30 3030 N 282.317 1.53212 0.369288 0
M  V30 3031 C 283.227 1.82342 1.47609 0
M  V30 3032 C 284.243 0.711532 1.58787 0
M  V30 3033 O 285.419 1.0012 1.74751 0
M  V30 3034 C 282.484 2.00393 2.8292 0
M  V30 3035 C 281.545 3.24297 2.81301 0
M  V30 3036 C 280.778 3.41478 4.10157 0
M  V30 3037 O 281.001 2.63033 5.06132 0
M  V30 3038 O 279.935 4.34817 4.16194 0
M  V30 3039 H 283.761 2.76366 1.25918 0
M  V30 3040 H 281.346 1.38547 0.559034 0
M  V30 3041 H 283.228 2.13859 3.63101 0
M  V30 3042 H 281.903 1.09559 3.04596 0
M  V30 3043 H 280.81 3.16257 1.99831 0
M  V30 3044 H 282.143 4.15041 2.64578 0
M  V30 3045 N 283.795 -0.628877 1.44509 0
M  V30 3046 C 284.742 -1.74074 1.51549 0
M  V30 3047 C 285.712 -1.62084 0.363021 0
M  V30 3048 O 286.897 -1.81975 0.573567 0
M  V30 3049 C 284.037 -3.12328 1.46784 0
M  V30 3050 C 283.15 -3.35277 2.72422 0
M  V30 3051 C 282.285 -4.63515 2.59475 0
M  V30 3052 C 281.324 -4.7965 3.80266 0
M  V30 3053 N 280.461 -5.99168 3.65981 0
M  V30 3054 H 285.301 -1.67392 2.46544 0
M  V30 3055 H 282.838 -0.816527 1.22357 0
M  V30 3056 H 284.796 -3.92286 1.42012 0
M  V30 3057 H 283.426 -3.18018 0.553544 0
M  V30 3058 H 282.478 -2.49242 2.87372 0
M  V30 3059 H 283.79 -3.43078 3.62076 0
M  V30 3060 H 282.944 -5.51638 2.52548 0
M  V30 3061 H 281.683 -4.58076 1.67384 0
M  V30 3062 H 280.688 -3.89957 3.87574 0
M  V30 3063 H 281.913 -4.86902 4.73395 0
M  V30 3064 H 279.859 -5.94814 2.76644 0
M  V30 3065 H 279.776 -6.08035 4.49254 0
M  V30 3066 H 281.044 -6.89846 3.6295 0
M  V30 3067 N 285.273 -1.31445 -0.869486 0
M  V30 3068 C 286.52 -1.21158 -1.62256 0
M  V30 3069 C 286.848 0.230155 -1.93133 0
M  V30 3070 O 286.103 1.17906 -1.56194 0
M  V30 3071 C 286.402 -2.00145 -2.96102 0
M  V30 3072 C 286.068 -3.4964 -2.84715 0
M  V30 3073 C 284.73 -3.90403 -2.81317 0
M  V30 3074 C 287.082 -4.44769 -2.71716 0
M  V30 3075 C 284.41 -5.24561 -2.62778 0
M  V30 3076 C 286.762 -5.79054 -2.54714 0
M  V30 3077 C 285.426 -6.19037 -2.49699 0
M  V30 3078 H 284.696 -0.443348 -0.593737 0
M  V30 3079 H 287.343 -1.62715 -1.00976 0
M  V30 3080 H 285.648 -1.5127 -3.6142 0
M  V30 3081 H 287.345 -1.89566 -3.53363 0
M  V30 3082 H 283.935 -3.17256 -2.88178 0
M  V30 3083 H 288.119 -4.14208 -2.73397 0
M  V30 3084 H 283.375 -5.54613 -2.57321 0
M  V30 3085 H 287.549 -6.52393 -2.43632 0
M  V30 3086 H 285.176 -7.22935 -2.35093 0
M  V30 3087 N 286.751 1.08385 -1.14413 0
M  V30 3088 C 287.661 2.18856 -0.844951 0
M  V30 3089 C 288.677 1.73121 0.174668 0
M  V30 3090 O 289.853 2.014 0.00312857 0
M  V30 3091 C 286.918 3.45155 -0.32696 0
M  V30 3092 C 285.979 4.05513 -1.40916 0
M  V30 3093 C 285.212 5.25784 -0.915793 0
M  V30 3094 O 285.435 5.69884 0.242651 0
M  V30 3095 O 284.369 5.77545 -1.69487 0
M  V30 3096 H 288.195 2.46919 -1.76818 0
M  V30 3097 H 285.78 1.17524 -0.922411 0
M  V30 3098 H 287.662 4.21377 -0.0440211 0
M  V30 3099 H 286.337 3.18668 0.568539 0
M  V30 3100 H 285.244 3.30879 -1.74556 0
M  V30 3101 H 286.577 4.3625 -2.27919 0
M  V30 3102 N 288.23 0.939286 1.26551 0
M  V30 3103 C 289.177 0.446088 2.26448 0
M  V30 3104 C 290.147 -0.493234 1.58608 0
M  V30 3105 O 291.332 -0.409857 1.86346 0
M  V30 3106 C 288.472 -0.284375 3.43926 0
M  V30 3107 C 287.585 0.690399 4.26448 0
M  V30 3108 C 286.72 -0.0610712 5.31165 0
M  V30 3109 C 285.759 0.905649 6.05363 0
M  V30 3110 N 284.896 0.186055 7.01853 0
M  V30 3111 H 289.736 1.30291 2.68008 0
M  V30 3112 H 287.273 0.65371 1.31776 0
M  V30 3113 H 289.231 -0.724313 4.10864 0
M  V30 3114 H 287.861 -1.10535 3.03285 0
M  V30 3115 H 286.913 1.24885 3.59316 0
M  V30 3116 H 288.225 1.42873 4.779 0
M  V30 3117 H 287.379 -0.56038 6.04106 0
M  V30 3118 H 286.118 -0.832297 4.80546 0
M  V30 3119 H 285.123 1.4161 5.3125 0
M  V30 3120 H 286.348 1.67685 6.58072 0
M  V30 3121 H 284.294 -0.566714 6.53548 0
M  V30 3122 H 284.211 0.863752 7.51049 0
M  V30 3123 H 285.479 -0.292221 7.78952 0
M  V30 3124 N 289.708 -1.40897 0.706093 0
M  V30 3125 C 290.954 -2.01352 0.241889 0
M  V30 3126 C 291.287 -1.55832 -1.15888 0
M  V30 3127 O 290.562 -0.774145 -1.7843 0
M  V30 3128 C 290.845 -3.58752 0.311311 0
M  V30 3129 C 290.698 -4.1437 1.74978 0
M  V30 3130 C 292.017 -4.38914 -0.322922 0
M  V30 3131 H 289.136 -0.731562 0.0893687 0
M  V30 3132 H 291.778 -1.67504 0.896802 0
M  V30 3133 H 289.928 -3.87718 -0.246302 0
M  V30 3134 H 291.6 -3.96239 2.36205 0
M  V30 3135 H 289.843 -3.69016 2.28057 0
M  V30 3136 H 290.514 -5.23532 1.74981 0
M  V30 3137 H 292.99 -4.15822 0.152089 0
M  V30 3138 H 291.866 -5.48358 -0.243855 0
M  V30 3139 H 292.127 -4.19176 -1.40513 0
M  V30 3140 N 291.186 -0.45159 -1.50991 0
M  V30 3141 C 292.597 0.00818571 -1.86698 0
M  V30 3142 C 292.948 1.40661 -1.3678 0
M  V30 3143 O 292.073 2.0391 -0.724546 0
M  V30 3144 C 292.668 0.0216303 -3.38793 0
M  V30 3145 C 291.227 0.425865 -3.73983 0
M  V30 3146 C 290.374 -0.372163 -2.74791 0
M  V30 3147 H 293.325 -0.666785 -1.44013 0
M  V30 3148 H 293.346 0.828078 -3.7138 0
M  V30 3149 H 292.858 -0.996288 -3.75094 0
M  V30 3150 H 290.959 1.44886 -3.43277 0
M  V30 3151 H 291.072 0.140761 -4.78893 0
M  V30 3152 H 289.436 0.171498 -2.54122 0
M  V30 3153 H 290.219 -1.38922 -3.13935 0
M  V30 3154 N 292.664 1.56529 -0.183458 0
M  V30 3155 C 293.912 1.96855 0.457452 0
M  V30 3156 C 294.233 1.07104 1.62953 0
M  V30 3157 O 293.503 0.139887 1.954 0
M  V30 3158 H 292.083 0.72693 0.171992 0
M  V30 3159 H 294.745 1.93056 -0.267476 0
M  V30 3160 H 293.841 3.01423 0.809368 0
M  V30 3161 N 294.142 -0.090211 1.57342 0
M  V30 3162 C 295.089 -1.10909 2.02405 0
M  V30 3163 C 296.059 -1.39523 0.901252 0
M  V30 3164 O 297.244 -1.50903 1.1676 0
M  V30 3165 C 294.384 -2.42277 2.45755 0
M  V30 3166 C 293.497 -2.20352 3.71576 0
M  V30 3167 C 292.632 -3.45154 4.03785 0
M  V30 3168 C 291.671 -3.18512 5.22701 0
M  V30 3169 N 290.808 -4.35593 5.50639 0
M  V30 3170 H 295.648 -0.71782 2.89225 0
M  V30 3171 H 293.185 -0.342901 1.43048 0
M  V30 3172 H 295.143 -3.18951 2.68935 0
M  V30 3173 H 293.773 -2.79242 1.61938 0
M  V30 3174 H 292.825 -1.34458 3.55844 0
M  V30 3175 H 294.137 -1.96661 4.58395 0
M  V30 3176 H 293.291 -4.30233 4.27767 0
M  V30 3177 H 292.03 -3.71904 3.15498 0
M  V30 3178 H 291.035 -2.31827 4.98534 0
M  V30 3179 H 292.26 -2.93103 6.12591 0
M  V30 3180 H 290.206 -4.6241 4.6531 0
M  V30 3181 H 290.123 -4.1511 6.31838 0
M  V30 3182 H 291.391 -5.21723 5.7916 0
M  V30 3183 N 295.62 -1.53406 -0.361157 0
M  V30 3184 C 296.85 -1.73465 -1.1222 0
M  V30 3185 C 297.258 -0.465486 -1.83384 0
M  V30 3186 O 296.601 0.571611 -1.7458 0
M  V30 3187 C 296.663 -2.84834 -2.19339 0
M  V30 3188 C 296.327 -4.25038 -1.67903 0
M  V30 3189 C 297.324 -5.07231 -1.14074 0
M  V30 3190 C 295.009 -4.71464 -1.73282 0
M  V30 3191 C 297.003 -6.33942 -0.663068 0
M  V30 3192 C 294.69 -5.98153 -1.25127 0
M  V30 3193 C 295.688 -6.79223 -0.717296 0
M  V30 3194 O 295.376 -8.03533 -0.242865 0
M  V30 3195 H 295.108 -0.583526 -0.341283 0
M  V30 3196 H 297.662 -2.00964 -0.424591 0
M  V30 3197 H 295.892 -2.5282 -2.92607 0
M  V30 3198 H 297.581 -2.9303 -2.80871 0
M  V30 3199 H 298.347 -4.72534 -1.09254 0
M  V30 3200 H 294.226 -4.08432 -2.13786 0
M  V30 3201 H 297.77 -6.97167 -0.245612 0
M  V30 3202 H 293.667 -6.32347 -1.29642 0
M  V30 3203 H 294.435 -8.177 -0.361786 0
M  V30 3204 N 297.098 0.621204 -1.44841 0
M  V30 3205 C 298.375 1.38 -1.38619 0
M  V30 3206 C 298.755 2.11041 -0.0498935 0
M  V30 3207 O 298.103 2.06992 0.967816 0
M  V30 3208 C 298.313 2.33817 -2.59096 0
M  V30 3209 C 299.661 2.96844 -3.03593 0
M  V30 3210 O 300.685 2.44141 -2.59371 0
M  V30 3211 O 299.544 3.92476 -3.80296 0
M  V30 3212 H 296.638 0.61811 -0.549426 0
M  V30 3213 H 299.184 0.645429 -1.56947 0
M  V30 3214 H 297.956 1.79012 -3.47952 0
M  V30 3215 H 297.579 3.14676 -2.43032 0
M  V30 3216 N 298.576 1.31904 0.862503 0
M  V30 3217 C 299.509 1.14514 1.97388 0
M  V30 3218 C 300.487 0.0466493 1.62533 0
M  V30 3219 O 301.671 0.204484 1.87388 0
M  V30 3220 C 298.798 0.751347 3.30261 0
M  V30 3221 C 297.844 1.85395 3.84098 0
M  V30 3222 S 298.677 3.46081 4.08642 0
M  V30 3223 C 299.833 3.08655 5.44502 0
M  V30 3224 H 300.066 2.08597 2.11836 0
M  V30 3225 H 297.599 1.16475 1.01356 0
M  V30 3226 H 299.557 0.530901 4.07052 0
M  V30 3227 H 298.218 -0.170493 3.13637 0
M  V30 3228 H 297.411 1.53122 4.80177 0
M  V30 3229 H 297.013 2.02984 3.14123 0
M  V30 3230 H 299.305 2.58012 6.26447 0
M  V30 3231 H 300.248 4.03726 5.81731 0
M  V30 3232 H 300.656 2.45891 5.08132 0
M  V30 3233 N 300.054 -1.07777 1.14986 0
M  V30 3234 C 300.984 -2.16865 0.865557 0
M  V30 3235 C 301.965 -1.69123 -0.182083 0
M  V30 3236 O 303.15 -1.94164 -0.0373815 0
M  V30 3237 C 300.28 -3.45539 0.349313 0
M  V30 3238 C 299.234 -4.06708 1.33313 0
M  V30 3239 C 298.56 -5.30411 0.675918 0
M  V30 3240 C 299.86 -4.47241 2.69764 0
M  V30 3241 H 301.554 -2.40905 1.77778 0
M  V30 3242 H 299.1 -1.15781 0.856203 0
M  V30 3243 H 301.053 -4.21174 0.137983 0
M  V30 3244 H 299.777 -3.21072 -0.598362 0
M  V30 3245 H 298.436 -3.33112 1.53075 0
M  V30 3246 H 298.084 -5.02232 -0.277767 0
M  V30 3247 H 297.784 -5.72293 1.33244 0
M  V30 3248 H 299.308 -6.08755 0.474262 0
M  V30 3249 H 300.722 -5.14025 2.53873 0
M  V30 3250 H 299.119 -5.00062 3.3175 0
M  V30 3251 H 300.189 -3.58818 3.26156 0
M  V30 3252 N 301.532 -0.945985 -1.26051 0
M  V30 3253 C 302.464 -0.416662 -2.25381 0
M  V30 3254 C 303.477 0.462712 -1.56086 0
M  V30 3255 O 304.666 0.272383 -1.7641 0
M  V30 3256 C 301.766 0.419812 -3.3629 0
M  V30 3257 C 300.939 -0.444531 -4.35135 0
M  V30 3258 C 299.998 0.332305 -5.2515 0
M  V30 3259 O 299.024 -0.266324 -5.68577 0
M  V30 3260 N 300.226 1.62763 -5.57215 0
M  V30 3261 H 302.991 -1.27059 -2.71433 0
M  V30 3262 H 300.552 -0.815392 -1.39868 0
M  V30 3263 H 302.544 0.947013 -3.93464 0
M  V30 3264 H 301.114 1.17456 -2.89694 0
M  V30 3265 H 300.334 -1.15291 -3.76964 0
M  V30 3266 H 301.622 -1.03478 -4.98166 0
M  V30 3267 H 301.02 2.13603 -5.23823 0
M  V30 3268 H 299.577 2.10097 -6.17011 0
M  V30 3269 N 303.011 1.40521 -0.713556 0
M  V30 3270 C 303.944 2.28198 -0.00881422 0
M  V30 3271 C 304.922 1.43227 0.769735 0
M  V30 3272 O 306.106 1.72641 0.756799 0
M  V30 3273 C 303.233 3.23758 0.994899 0
M  V30 3274 C 302.279 4.25391 0.3074 0
M  V30 3275 S 303.112 5.26765 -0.963247 0
M  V30 3276 C 304.268 6.25888 0.0384143 0
M  V30 3277 H 304.501 2.87622 -0.752407 0
M  V30 3278 H 302.034 1.45925 -0.504502 0
M  V30 3279 H 303.992 3.79341 1.56879 0
M  V30 3280 H 302.653 2.63396 1.71118 0
M  V30 3281 H 301.846 4.92596 1.0661 0
M  V30 3282 H 301.448 3.73497 -0.193879 0
M  V30 3283 H 303.74 6.71683 0.885912 0
M  V30 3284 H 304.683 7.05552 -0.60019 0
M  V30 3285 H 305.091 5.63072 0.401233 0
M  V30 3286 N 304.489 0.459591 1.5075 0
M  V30 3287 C 305.766 -0.160371 1.94941 0
M  V30 3288 C 306.146 -1.58048 1.39943 0
M  V30 3289 O 305.494 -2.206 0.595629 0
M  V30 3290 C 305.704 -0.115432 3.48809 0
M  V30 3291 C 307.052 -0.310026 4.23467 0
M  V30 3292 O 308.076 -0.192543 3.55679 0
M  V30 3293 O 306.935 -0.546031 5.43765 0
M  V30 3294 H 304.029 -0.117925 0.818549 0
M  V30 3295 H 306.575 0.519169 1.61563 0
M  V30 3296 H 305.347 0.87652 3.81357 0
M  V30 3297 H 304.97 -0.836928 3.88692 0
M  V30 3298 N 305.967 -1.56429 0.191757 0
M  V30 3299 C 307.197 -2.01574 -0.452928 0
M  V30 3300 C 307.605 -1.07107 -1.55964 0
M  V30 3301 O 306.948 -0.067534 -1.83576 0
M  V30 3302 C 307.01 -3.43121 -1.07278 0
M  V30 3303 C 306.674 -4.56879 -0.105214 0
M  V30 3304 C 307.671 -5.15379 0.684149 0
M  V30 3305 C 305.356 -5.023 0.00489824 0
M  V30 3306 C 307.35 -6.17746 1.57062 0
M  V30 3307 C 305.037 -6.04511 0.894935 0
M  V30 3308 C 306.035 -6.62108 1.67637 0
M  V30 3309 O 305.723 -7.62335 2.55149 0
M  V30 3310 H 305.455 -0.665554 -0.118379 0
M  V30 3311 H 308.009 -2.03245 0.296737 0
M  V30 3312 H 306.239 -3.38425 -1.87097 0
M  V30 3313 H 307.928 -3.72093 -1.62177 0
M  V30 3314 H 308.694 -4.81157 0.609365 0
M  V30 3315 H 304.573 -4.57168 -0.593156 0
M  V30 3316 H 308.117 -6.6263 2.181 0
M  V30 3317 H 304.014 -6.38157 0.970847 0
M  V30 3318 H 304.782 -7.79741 2.48892 0
M  V30 3319 N 307.445 0.0818655 -1.57387 0
M  V30 3320 C 308.408 1.08265 -2.02018 0
M  V30 3321 C 309.408 1.32183 -0.915664 0
M  V30 3322 O 310.598 1.28073 -1.18081 0
M  V30 3323 C 307.73 2.42871 -2.39221 0
M  V30 3324 H 308.923 0.698204 -2.91659 0
M  V30 3325 H 306.476 0.327303 -1.52835 0
M  V30 3326 H 307.211 2.86167 -1.52575 0
M  V30 3327 H 306.996 2.26855 -3.19811 0
M  V30 3328 H 308.486 3.14826 -2.74362 0
M  V30 3329 N 308.923 1.53595 0.353017 0
M  V30 3330 C 310.151 1.74311 1.1146 0
M  V30 3331 C 310.566 0.477854 1.82653 0
M  V30 3332 O 309.923 -0.549977 1.74016 0
M  V30 3333 C 309.974 2.91694 2.13534 0
M  V30 3334 O 309.695 4.13325 1.45238 0
M  V30 3335 C 311.196 3.24384 3.02142 0
M  V30 3336 H 308.416 0.582669 0.332773 0
M  V30 3337 H 310.96 2.00386 0.408107 0
M  V30 3338 H 309.115 2.67977 2.79763 0
M  V30 3339 H 309.529 4.79148 2.13349 0
M  V30 3340 H 311.003 4.09893 3.69718 0
M  V30 3341 H 311.48 2.40282 3.67643 0
M  V30 3342 H 312.086 3.50073 2.41514 0
M  V30 3343 N 310.401 -0.613514 1.45168 0
M  V30 3344 C 311.349 -1.74572 1.53712 0
M  V30 3345 C 312.343 -1.64426 0.407505 0
M  V30 3346 O 313.549 -1.70291 0.583176 0
M  V30 3347 H 309.924 -0.576641 0.48269 0
M  V30 3348 H 311.895 -1.64492 2.48968 0
M  V30 3349 C 310.644 -3.12943 1.51532 0
M  V30 3350 H 309.967 -3.21407 2.37776 0
M  V30 3351 H 311.407 -3.9201 1.61569 0
M  V30 3352 C 309.866 -3.36053 0.238798 0
M  V30 3353 O 310.396 -3.95837 -0.6838 0
M  V30 3354 N 308.602 -2.9028 0.136359 0
M  V30 3355 H 308.149 -2.41811 0.887999 0
M  V30 3356 H 308.107 -3.06116 -0.716944 0
M  V30 3357 N 311.879 -1.3236 -0.855495 0
M  V30 3358 C 313.107 -1.2587 -1.64208 0
M  V30 3359 C 313.522 0.173457 -1.88002 0
M  V30 3360 O 312.879 1.11027 -1.44842 0
M  V30 3361 C 312.93 -2.01424 -3.00184 0
M  V30 3362 O 312.651 -3.39051 -2.77445 0
M  V30 3363 C 314.152 -2.01948 -3.94629 0
M  V30 3364 H 311.372 -0.434318 -0.511477 0
M  V30 3365 H 313.916 -1.74469 -1.0668 0
M  V30 3366 H 312.071 -1.56549 -3.5436 0
M  V30 3367 H 312.485 -3.77711 -3.63916 0
M  V30 3368 H 313.959 -2.59297 -4.87308 0
M  V30 3369 H 314.436 -1.00554 -4.27534 0
M  V30 3370 H 315.042 -2.46767 -3.4639 0
M  V30 3371 N 313.357 1.07166 -1.15556 0
M  V30 3372 C 314.289 2.14341 -0.811815 0
M  V30 3373 C 315.302 1.61835 0.177015 0
M  V30 3374 O 316.491 1.78439 -0.0464996 0
M  V30 3375 C 313.591 3.38387 -0.186481 0
M  V30 3376 C 312.764 4.20238 -1.21321 0
M  V30 3377 C 311.823 5.2266 -0.609302 0
M  V30 3378 O 310.849 5.54719 -1.27576 0
M  V30 3379 N 312.051 5.77306 0.608099 0
M  V30 3380 H 314.816 2.44431 -1.73417 0
M  V30 3381 H 312.377 1.23089 -1.0517 0
M  V30 3382 H 314.369 4.04044 0.230339 0
M  V30 3383 H 312.939 3.05994 0.639249 0
M  V30 3384 H 312.159 3.50369 -1.80652 0
M  V30 3385 H 313.447 4.71736 -1.90638 0
M  V30 3386 H 312.845 5.53513 1.1679 0
M  V30 3387 H 311.402 6.44583 0.96725 0
M  V30 3388 N 314.835 0.952656 1.25548 0
M  V30 3389 C 316.112 0.523818 1.88456 0
M  V30 3390 C 316.492 -0.998871 1.85973 0
M  V30 3391 O 315.84 -1.86381 1.3219 0
M  V30 3392 C 316.05 1.0982 3.31271 0
M  V30 3393 C 317.398 1.17385 4.08051 0
M  V30 3394 O 318.422 1.04961 3.40384 0
M  V30 3395 O 317.281 1.36852 5.29088 0
M  V30 3396 H 314.375 0.172485 0.808813 0
M  V30 3397 H 316.921 1.04596 1.33633 0
M  V30 3398 H 315.693 2.1415 3.27499 0
M  V30 3399 H 315.316 0.559191 3.93648 0
M  V30 3400 N 316.313 -1.40141 0.720998 0
M  V30 3401 C 317.223 -2.34486 0.0731031 0
M  V30 3402 C 318.239 -1.57587 -0.737723 0
M  V30 3403 O 319.415 -1.89949 -0.669429 0
M  V30 3404 C 316.48 -3.36528 -0.833656 0
M  V30 3405 C 315.541 -4.29298 -0.0121673 0
M  V30 3406 C 314.774 -5.26466 -0.875742 0
M  V30 3407 O 314.997 -5.29745 -2.11485 0
M  V30 3408 O 313.931 -6.01092 -0.31185 0
M  V30 3409 H 317.757 -2.9152 0.851444 0
M  V30 3410 H 315.342 -1.41427 0.481527 0
M  V30 3411 H 317.224 -3.99093 -1.35289 0
M  V30 3412 H 315.899 -2.81899 -1.59105 0
M  V30 3413 H 314.806 -3.70001 0.552262 0
M  V30 3414 H 316.139 -4.87094 0.707129 0
M  V30 3415 N 317.792 -0.46758 -1.50504 0
M  V30 3416 C 318.702 0.33382 -2.32213 0
M  V30 3417 C 319.718 0.999323 -1.42441 0
M  V30 3418 O 320.894 0.988068 -1.75497 0
M  V30 3419 C 317.959 1.4035 -3.17022 0
M  V30 3420 C 317.02 0.754961 -4.2261 0
M  V30 3421 C 316.253 1.77367 -5.03365 0
M  V30 3422 O 316.476 2.99976 -4.8515 0
M  V30 3423 O 315.41 1.34744 -5.86624 0
M  V30 3424 H 319.236 -0.334067 -3.01857 0
M  V30 3425 H 316.821 -0.229496 -1.47627 0
M  V30 3426 H 318.703 2.02318 -3.69656 0
M  V30 3427 H 317.378 2.05492 -2.5011 0
M  V30 3428 H 316.285 0.0964244 -3.73976 0
M  V30 3429 H 317.618 0.146545 -4.91982 0
M  V30 3430 N 319.27 1.56325 -0.20005 0
M  V30 3431 C 320.18 2.22931 0.730668 0
M  V30 3432 C 321.196 1.22997 1.23076 0
M  V30 3433 O 322.372 1.55748 1.27689 0
M  V30 3434 C 319.437 2.87948 1.93098 0
M  V30 3435 C 318.498 4.03166 1.47497 0
M  V30 3436 C 317.731 4.65073 2.61807 0
M  V30 3437 O 317.954 4.25913 3.79413 0
M  V30 3438 O 316.888 5.54452 2.34237 0
M  V30 3439 H 320.714 3.03084 0.193391 0
M  V30 3440 H 318.299 1.49371 0.0294621 0
M  V30 3441 H 320.181 3.29063 2.6324 0
M  V30 3442 H 318.856 2.10771 2.45677 0
M  V30 3443 H 317.763 3.66664 0.742201 0
M  V30 3444 H 319.096 4.82022 0.995796 0
M  V30 3445 N 320.748 -0.0735177 1.57428 0
M  V30 3446 C 321.976 -0.785969 1.9139 0
M  V30 3447 C 322.391 -1.71207 0.795847 0
M  V30 3448 O 321.748 -1.81033 -0.230915 0
M  V30 3449 C 321.799 -1.58107 3.25091 0
M  V30 3450 O 321.52 -0.6922 4.32597 0
M  V30 3451 C 323.021 -2.39467 3.73055 0
M  V30 3452 H 320.241 -0.223558 0.632663 0
M  V30 3453 H 322.785 -0.044302 2.04452 0
M  V30 3454 H 320.94 -2.27503 3.13562 0
M  V30 3455 H 321.354 -1.24504 5.09508 0
M  V30 3456 H 322.828 -2.90716 4.69242 0
M  V30 3457 H 323.305 -3.18913 3.01979 0
M  V30 3458 H 323.911 -1.7523 3.87523 0
M  V30 3459 N 322.226 -1.5378 -0.344866 0
M  V30 3460 C 323.173 -1.81676 -1.42346 0
M  V30 3461 C 324.143 -0.662376 -1.52321 0
M  V30 3462 O 325.328 -0.906675 -1.67881 0
M  V30 3463 C 322.468 -2.03087 -2.79015 0
M  V30 3464 C 321.581 -3.30799 -2.77842 0
M  V30 3465 C 320.716 -3.42285 -4.0622 0
M  V30 3466 C 319.755 -4.6395 -3.9927 0
M  V30 3467 N 318.892 -4.72477 -5.19336 0
M  V30 3468 H 323.732 -2.73703 -1.17858 0
M  V30 3469 H 321.269 -1.35568 -0.570949 0
M  V30 3470 H 323.227 -2.1349 -3.58438 0
M  V30 3471 H 321.857 -1.14375 -3.01858 0
M  V30 3472 H 320.909 -3.29244 -1.90533 0
M  V30 3473 H 322.221 -4.20314 -2.68584 0
M  V30 3474 H 321.375 -3.52113 -4.94066 0
M  V30 3475 H 320.114 -2.50823 -4.18258 0
M  V30 3476 H 319.119 -4.54201 -3.09809 0
M  V30 3477 H 320.344 -5.56775 -3.88817 0
M  V30 3478 H 318.29 -3.83924 -5.3192 0
M  V30 3479 H 318.207 -5.55927 -5.12329 0
M  V30 3480 H 319.475 -4.86613 -6.08957 0
M  V30 3481 N 323.704 0.605807 -1.45491 0
M  V30 3482 C 324.651 1.7164 -1.54299 0
M  V30 3483 C 325.621 1.61486 -0.388761 0
M  V30 3484 O 326.806 1.81039 -0.602445 0
M  V30 3485 C 323.946 3.09953 -1.51734 0
M  V30 3486 C 323.059 3.309 -2.77721 0
M  V30 3487 C 322.194 4.59329 -2.66816 0
M  V30 3488 C 321.233 4.7354 -3.87848 0
M  V30 3489 N 320.37 5.9327 -3.75467 0
M  V30 3490 H 325.21 1.63449 -2.49176 0
M  V30 3491 H 322.747 0.796957 -1.23641 0
M  V30 3492 H 324.705 3.89977 -1.48235 0
M  V30 3493 H 323.335 3.17098 -0.604068 0
M  V30 3494 H 322.387 2.44639 -2.913 0
M  V30 3495 H 323.699 3.37274 -3.67488 0
M  V30 3496 H 322.853 5.4755 -2.61292 0
M  V30 3497 H 321.592 4.55355 -1.74651 0
M  V30 3498 H 320.597 3.83741 -3.93729 0
M  V30 3499 H 321.822 4.79309 -4.81082 0
M  V30 3500 H 319.768 5.90338 -2.86072 0
M  V30 3501 H 319.685 6.00811 -4.5887 0
M  V30 3502 H 320.953 6.83984 -3.73879 0
M  V30 3503 N 325.182 1.32811 0.848464 0
M  V30 3504 C 326.092 1.24278 1.98978 0
M  V30 3505 C 327.108 0.155176 1.73307 0
M  V30 3506 O 328.284 0.376999 1.9784 0
M  V30 3507 C 325.349 0.972444 3.32783 0
M  V30 3508 C 324.41 2.14911 3.71634 0
M  V30 3509 C 323.643 1.89157 4.99054 0
M  V30 3510 O 323.866 0.837165 5.64223 0
M  V30 3511 O 322.8 2.75433 5.35183 0
M  V30 3512 H 326.626 2.20238 2.09115 0
M  V30 3513 H 324.211 1.12762 0.980052 0
M  V30 3514 H 326.093 0.838432 4.12975 0
M  V30 3515 H 324.768 0.043051 3.23671 0
M  V30 3516 H 323.675 2.33862 2.91992 0
M  V30 3517 H 325.008 3.06151 3.85399 0
M  V30 3518 N 326.66 -1.06551 1.16123 0
M  V30 3519 C 327.57 -2.17484 0.879662 0
M  V30 3520 C 328.586 -1.73377 -0.147104 0
M  V30 3521 O 329.762 -2.01379 0.0289128 0
M  V30 3522 C 326.827 -3.44591 0.381829 0
M  V30 3523 C 325.888 -4.0322 1.4735 0
M  V30 3524 C 325.121 -5.24261 0.999324 0
M  V30 3525 O 325.344 -5.70198 -0.151957 0
M  V30 3526 O 324.278 -5.74775 1.78653 0
M  V30 3527 H 328.104 -2.44075 1.80724 0
M  V30 3528 H 325.689 -1.16042 0.940992 0
M  V30 3529 H 327.571 -4.21254 0.111053 0
M  V30 3530 H 326.246 -3.19532 -0.51777 0
M  V30 3531 H 325.153 -3.2806 1.79798 0
M  V30 3532 H 326.486 -4.32568 2.34831 0
M  V30 3533 N 328.138 -0.959301 -1.25041 0
M  V30 3534 C 329.363 -0.633507 -1.97488 0
M  V30 3535 C 329.788 0.788555 -1.70773 0
M  V30 3536 O 329.146 1.53394 -0.966431 0
M  V30 3537 C 329.194 -0.904057 -3.49083 0
M  V30 3538 O 328.298 0.0147939 -4.12397 0
M  V30 3539 H 327.639 -0.240368 -0.618966 0
M  V30 3540 H 330.169 -1.28717 -1.59038 0
M  V30 3541 H 330.179 -0.832203 -3.99423 0
M  V30 3542 H 328.854 -1.94048 -3.67856 0
M  V30 3543 H 327.431 -0.109664 -3.72739 0
M  V30 3544 N 329.616 1.39756 -0.72842 0
M  V30 3545 C 330.546 2.33289 -0.0991354 0
M  V30 3546 C 331.527 1.53568 0.731489 0
M  V30 3547 O 332.712 1.81987 0.677807 0
M  V30 3548 C 329.842 3.3763 0.813834 0
M  V30 3549 C 328.796 4.2791 0.0878663 0
M  V30 3550 C 328.122 5.22894 1.11741 0
M  V30 3551 C 329.422 5.11314 -1.06563 0
M  V30 3552 H 331.116 2.86163 -0.880408 0
M  V30 3553 H 328.662 1.37591 -0.424819 0
M  V30 3554 H 330.615 4.0201 1.26355 0
M  V30 3555 H 329.339 2.83181 1.62715 0
M  V30 3556 H 327.998 3.65 -0.342159 0
M  V30 3557 H 327.646 4.64744 1.92412 0
M  V30 3558 H 327.346 5.84143 0.636477 0
M  V30 3559 H 328.87 5.90151 1.56697 0
M  V30 3560 H 330.284 5.69076 -0.694671 0
M  V30 3561 H 328.681 5.81671 -1.47577 0
M  V30 3562 H 329.751 4.46534 -1.89038 0
M  V30 3563 N 331.094 0.475555 1.50254 0
M  V30 3564 C 332.041 -0.316293 2.28622 0
M  V30 3565 C 333.011 -0.983227 1.33873 0
M  V30 3566 O 334.196 -0.994805 1.62814 0
M  V30 3567 C 331.336 -1.38975 3.1588 0
M  V30 3568 C 330.449 -0.737146 4.25664 0
M  V30 3569 C 329.584 -1.78887 5.00173 0
M  V30 3570 C 328.623 -1.11676 6.01826 0
M  V30 3571 N 327.76 -2.11154 6.69596 0
M  V30 3572 H 332.6 0.358297 2.95838 0
M  V30 3573 H 330.137 0.188541 1.45887 0
M  V30 3574 H 332.095 -2.02383 3.64825 0
M  V30 3575 H 330.725 -2.03344 2.50701 0
M  V30 3576 H 329.777 0.0096065 3.80399 0
M  V30 3577 H 331.089 -0.206816 4.98371 0
M  V30 3578 H 330.243 -2.49865 5.52859 0
M  V30 3579 H 328.982 -2.35302 4.27182 0
M  V30 3580 H 327.987 -0.392633 5.48396 0
M  V30 3581 H 329.212 -0.55945 6.76792 0
M  V30 3582 H 327.158 -2.66577 5.99394 0
M  V30 3583 H 327.075 -1.63118 7.38193 0
M  V30 3584 H 328.343 -2.81497 7.26897 0
M  V30 3585 N 332.573 -1.56217 0.208337 0
M  V30 3586 C 333.798 -2.02782 -0.435222 0
M  V30 3587 C 334.223 -1.08738 -1.53485 0
M  V30 3588 O 333.581 -0.0731855 -1.81152 0
M  V30 3589 C 333.629 -3.47687 -0.956335 0
M  V30 3590 O 332.733 -3.56773 -2.06849 0
M  V30 3591 H 332.074 -0.656403 -0.100158 0
M  V30 3592 H 334.604 -2.02033 0.3231 0
M  V30 3593 H 334.614 -3.87745 -1.26955 0
M  V30 3594 H 333.289 -4.15624 -0.15143 0
M  V30 3595 H 331.866 -3.28597 -1.76292 0
M  V30 3596 N 334.051 0.0651679 -1.57465 0
M  V30 3597 C 335.462 0.616213 -1.76238 0
M  V30 3598 C 335.813 1.7756 -0.834689 0
M  V30 3599 O 334.938 2.1639 -0.0204156 0
M  V30 3600 C 335.533 1.12462 -3.1959 0
M  V30 3601 C 334.092 1.62147 -3.39684 0
M  V30 3602 C 333.239 0.543739 -2.71917 0
M  V30 3603 H 336.19 -0.161022 -1.57881 0
M  V30 3604 H 336.211 1.99324 -3.24114 0
M  V30 3605 H 335.723 0.280592 -3.87084 0
M  V30 3606 H 333.824 2.48854 -2.77313 0
M  V30 3607 H 333.937 1.69385 -4.48158 0
M  V30 3608 H 332.301 0.990352 -2.34657 0
M  V30 3609 H 333.084 -0.290216 -3.42071 0
M  V30 3610 N 335.529 1.53961 0.336706 0
M  V30 3611 C 336.459 1.85417 1.41925 0
M  V30 3612 C 337.44 0.709856 1.5458 0
M  V30 3613 O 338.625 0.962396 1.68676 0
M  V30 3614 C 335.755 2.06985 2.78881 0
M  V30 3615 C 334.709 3.22813 2.81026 0
M  V30 3616 C 334.035 3.29727 4.20932 0
M  V30 3617 C 335.335 4.60767 2.45949 0
M  V30 3618 H 337.029 2.76079 1.15848 0
M  V30 3619 H 334.575 1.32839 0.555859 0
M  V30 3620 H 336.528 2.27575 3.54665 0
M  V30 3621 H 335.252 1.13061 3.06406 0
M  V30 3622 H 333.911 3.0209 2.07695 0
M  V30 3623 H 333.559 2.33385 4.45579 0
M  V30 3624 H 333.259 4.07566 4.23277 0
M  V30 3625 H 334.783 3.52536 4.98549 0
M  V30 3626 H 336.197 4.81325 3.11446 0
M  V30 3627 H 334.594 5.4106 2.59566 0
M  V30 3628 H 335.664 4.6391 1.41122 0
M  V30 3629 N 337.007 -0.598083 1.45811 0
M  V30 3630 C 337.954 -1.7082 1.55207 0
M  V30 3631 C 338.924 -1.61278 0.39732 0
M  V30 3632 O 340.109 -1.80717 0.612038 0
M  V30 3633 C 337.249 -3.09144 1.53376 0
M  V30 3634 C 336.362 -3.29423 2.79472 0
M  V30 3635 C 335.497 -4.57907 2.69248 0
M  V30 3636 C 334.536 -4.71476 3.90354 0
M  V30 3637 N 333.673 -5.9127 3.78608 0
M  V30 3638 H 338.513 -1.62125 2.50039 0
M  V30 3639 H 336.05 -0.790389 1.24062 0
M  V30 3640 H 338.008 -3.89186 1.50301 0
M  V30 3641 H 336.638 -3.16773 0.620876 0
M  V30 3642 H 335.69 -2.43091 2.92594 0
M  V30 3643 H 337.002 -3.3532 3.69272 0
M  V30 3644 H 336.156 -5.46157 2.64192 0
M  V30 3645 H 334.895 -4.54423 1.77063 0
M  V30 3646 H 333.9 -3.81648 3.95759 0
M  V30 3647 H 335.125 -4.76751 4.83617 0
M  V30 3648 H 333.071 -5.88813 2.89199 0
M  V30 3649 H 332.988 -5.98369 4.6205 0
M  V30 3650 H 334.256 -6.81992 3.77501 0
M  V30 3651 N 338.485 -1.33259 -0.841409 0
M  V30 3652 C 339.896 -1.22066 -1.41269 0
M  V30 3653 C 340.247 0.161479 -1.95534 0
M  V30 3654 O 339.372 1.06094 -1.88608 0
M  V30 3655 C 339.967 -2.20996 -2.568 0
M  V30 3656 C 338.526 -2.13649 -3.09888 0
M  V30 3657 C 337.673 -2.08623 -1.82679 0
M  V30 3658 H 340.624 -1.44895 -0.647395 0
M  V30 3659 H 340.645 -1.81621 -3.34356 0
M  V30 3660 H 340.157 -3.2158 -2.17274 0
M  V30 3661 H 338.258 -1.16359 -3.53965 0
M  V30 3662 H 338.371 -3.04079 -3.70234 0
M  V30 3663 H 336.735 -1.54061 -2.02824 0
M  V30 3664 H 337.518 -3.1101 -1.45353 0
M  V30 3665 N 339.963 1.05934 -1.16686 0
M  V30 3666 C 340.873 2.17014 -0.891183 0
M  V30 3667 C 341.889 1.73453 0.137907 0
M  V30 3668 O 343.065 2.01361 -0.039592 0
M  V30 3669 C 340.13 3.44384 -0.400099 0
M  V30 3670 C 339.191 4.02433 -1.49486 0
M  V30 3671 C 338.424 5.23723 -1.02711 0
M  V30 3672 O 338.647 5.7027 0.121716 0
M  V30 3673 O 337.581 5.7382 -1.81699 0
M  V30 3674 H 341.407 2.43113 -1.82015 0
M  V30 3675 H 338.992 1.15541 -0.947132 0
M  V30 3676 H 340.874 4.21189 -0.133392 0
M  V30 3677 H 339.549 3.19802 0.500817 0
M  V30 3678 H 338.456 3.27102 -1.81535 0
M  V30 3679 H 339.789 4.31317 -2.37121 0
M  V30 3680 N 341.441 0.965919 1.2453 0
M  V30 3681 C 342.666 0.643971 1.97149 0
M  V30 3682 C 343.091 -0.779487 1.71189 0
M  V30 3683 O 342.449 -1.5288 0.974553 0
M  V30 3684 C 342.497 0.922557 3.48599 0
M  V30 3685 O 341.601 0.00707672 4.12399 0
M  V30 3686 H 340.942 0.243647 0.617683 0
M  V30 3687 H 343.472 1.29558 1.58353 0
M  V30 3688 H 343.482 0.853373 3.98976 0
M  V30 3689 H 342.157 1.95996 3.66822 0
M  V30 3690 H 340.734 0.12943 3.72675 0
M  V30 3691 N 342.919 -1.39368 0.735821 0
M  V30 3692 C 343.851 -2.2913 0.0567723 0
M  V30 3693 C 344.864 -1.46859 -0.702589 0
M  V30 3694 O 346.053 -1.69925 -0.546616 0
M  V30 3695 C 343.153 -3.25492 -0.943823 0
M  V30 3696 C 342.326 -4.36709 -0.24581 0
M  V30 3697 C 341.385 -5.13376 -1.15463 0
M  V30 3698 O 340.411 -5.65683 -0.631803 0
M  V30 3699 N 341.613 -5.24656 -2.48427 0
M  V30 3700 H 344.378 -2.88047 0.827582 0
M  V30 3701 H 341.939 -1.50957 0.585112 0
M  V30 3702 H 343.931 -3.73657 -1.55443 0
M  V30 3703 H 342.501 -2.676 -1.61583 0
M  V30 3704 H 341.721 -3.9041 0.545286 0
M  V30 3705 H 343.009 -5.08244 0.237891 0
M  V30 3706 H 342.407 -4.83679 -2.93379 0
M  V30 3707 H 340.964 -5.76258 -3.04582 0
M  V30 3708 N 344.397 -0.483516 -1.5 0
M  V30 3709 C 345.327 0.293829 -2.31644 0
M  V30 3710 C 346.308 0.978864 -1.39112 0
M  V30 3711 O 347.493 0.973644 -1.68029 0
M  V30 3712 C 344.623 1.36897 -3.19181 0
M  V30 3713 C 343.577 0.804833 -4.20365 0
M  V30 3714 C 342.903 1.9792 -4.96721 0
M  V30 3715 C 344.203 -0.192313 -5.21946 0
M  V30 3716 H 345.897 -0.387616 -2.9688 0
M  V30 3717 H 343.443 -0.187856 -1.42769 0
M  V30 3718 H 345.396 1.92037 -3.751 0
M  V30 3719 H 344.12 2.07936 -2.51853 0
M  V30 3720 H 342.779 0.275319 -3.65565 0
M  V30 3721 H 342.427 2.67686 -4.25856 0
M  V30 3722 H 342.127 1.60789 -5.65173 0
M  V30 3723 H 343.651 2.53526 -5.55479 0
M  V30 3724 H 345.065 0.270333 -5.72662 0
M  V30 3725 H 343.462 -0.478543 -5.98189 0
M  V30 3726 H 344.532 -1.11409 -4.71928 0
M  V30 3727 N 345.875 1.56104 -0.216619 0
M  V30 3728 C 347.152 1.89988 0.465165 0
M  V30 3729 C 347.532 1.13326 1.78102 0
M  V30 3730 O 346.88 0.241033 2.27225 0
M  V30 3731 C 347.09 3.42646 0.662939 0
M  V30 3732 C 348.438 4.13311 0.972602 0
M  V30 3733 O 349.462 3.48217 0.749901 0
M  V30 3734 O 348.321 5.28396 1.39499 0
M  V30 3735 H 345.415 0.78979 0.245276 0
M  V30 3736 H 347.961 1.67721 -0.258436 0
M  V30 3737 H 346.733 3.90399 -0.26543 0
M  V30 3738 H 346.356 3.70677 1.43821 0
M  V30 3739 N 347.353 -0.0568162 1.57498 0
M  V30 3740 C 348.283 -1.06593 2.0775 0
M  V30 3741 C 349.264 -1.39448 0.974082 0
M  V30 3742 O 350.449 -1.48815 1.24771 0
M  V30 3743 C 347.579 -2.37509 2.5339 0
M  V30 3744 C 346.533 -2.1897 3.67745 0
M  V30 3745 C 345.859 -3.55402 3.99492 0
M  V30 3746 C 347.159 -1.59859 4.97235 0
M  V30 3747 H 348.853 -0.647706 2.9231 0
M  V30 3748 H 346.399 -0.310116 1.40621 0
M  V30 3749 H 348.352 -3.08409 2.87162 0
M  V30 3750 H 347.076 -2.8134 1.65878 0
M  V30 3751 H 345.735 -1.50508 3.3428 0
M  V30 3752 H 345.383 -3.9683 3.09088 0
M  V30 3753 H 345.083 -3.43831 4.76502 0
M  V30 3754 H 346.607 -4.27708 4.35773 0
M  V30 3755 H 348.021 -2.20642 5.29141 0
M  V30 3756 H 346.418 -1.58942 5.78669 0
M  V30 3757 H 347.488 -0.561506 4.81638 0
M  V30 3758 N 348.832 -1.54138 -0.328536 0
M  V30 3759 C 350.248 -1.44736 -0.672574 0
M  V30 3760 C 350.448 -0.616217 -1.91846 0
M  V30 3761 O 349.504 -0.113067 -2.52247 0
M  V30 3762 C 350.817 -2.884 -0.851217 0
M  V30 3763 C 352.365 -2.98271 -0.948877 0
M  V30 3764 C 352.84 -4.43074 -1.15973 0
M  V30 3765 N 354.331 -4.46665 -1.22658 0
M  V30 3766 C 355.066 -5.55857 -1.40751 0
M  V30 3767 N 354.562 -6.75026 -1.5592 0
M  V30 3768 N 356.355 -5.43495 -1.4342 0
M  V30 3769 H 348.506 -2.06661 0.490421 0
M  V30 3770 H 350.769 -0.934812 0.157579 0
M  V30 3771 H 350.475 -3.51699 -0.00704236 0
M  V30 3772 H 350.349 -3.34225 -1.74853 0
M  V30 3773 H 352.736 -2.35102 -1.78356 0
M  V30 3774 H 352.817 -2.55785 -0.0281435 0
M  V30 3775 H 352.461 -5.06827 -0.329915 0
M  V30 3776 H 352.391 -4.83165 -2.09426 0
M  V30 3777 H 354.882 -3.60797 -1.124 0
M  V30 3778 H 355.195 -7.54004 -1.69404 0
M  V30 3779 H 353.54 -6.77944 -1.53027 0
M  V30 3780 H 356.731 -4.49349 -1.31162 0
M  V30 3781 H 356.904 -6.28649 -1.57178 0
M  V30 3782 N 350.31 0.590341 -1.46126 0
M  V30 3783 C 351.556 1.35082 -1.51264 0
M  V30 3784 C 351.889 1.93534 -0.160711 0
M  V30 3785 O 351.164 1.76045 0.826956 0
M  V30 3786 C 351.447 2.48588 -2.6053 0
M  V30 3787 C 351.3 1.95221 -4.05227 0
M  V30 3788 C 352.619 3.50662 -2.6594 0
M  V30 3789 H 349.738 0.489803 -0.550692 0
M  V30 3790 H 352.38 0.663887 -1.78024 0
M  V30 3791 H 350.53 3.07186 -2.37843 0
M  V30 3792 H 352.202 1.41139 -4.39178 0
M  V30 3793 H 350.445 1.26101 -4.15068 0
M  V30 3794 H 351.116 2.77121 -4.77397 0
M  V30 3795 H 353.592 3.01934 -2.86313 0
M  V30 3796 H 352.468 4.27551 -3.44226 0
M  V30 3797 H 352.729 4.07399 -1.71694 0
M  V30 3798 N 351.788 1.33704 0.83433 0
M  V30 3799 C 352.72 1.20172 1.9517 0
M  V30 3800 C 353.733 0.131572 1.62267 0
M  V30 3801 O 354.922 0.382406 1.74356 0
M  V30 3802 C 352.022 0.821716 3.28787 0
M  V30 3803 C 351.195 1.98446 3.89792 0
M  V30 3804 C 350.254 1.58469 5.01771 0
M  V30 3805 O 349.28 2.29968 5.20676 0
M  V30 3806 N 350.482 0.492291 5.78409 0
M  V30 3807 H 353.247 2.16429 2.07313 0
M  V30 3808 H 350.808 1.26509 1.0103 0
M  V30 3809 H 352.8 0.536291 4.01131 0
M  V30 3810 H 351.37 -0.0503058 3.1256 0
M  V30 3811 H 350.59 2.43526 3.09982 0
M  V30 3812 H 351.878 2.76236 4.27283 0
M  V30 3813 H 351.276 -0.102349 5.65607 0
M  V30 3814 H 349.833 0.266555 6.51255 0
M  V30 3815 N 353.266 -1.05314 1.17247 0
M  V30 3816 C 354.176 -2.16538 0.90268 0
M  V30 3817 C 355.192 -1.73523 -0.128707 0
M  V30 3818 O 356.368 -2.01337 0.0502701 0
M  V30 3819 C 353.433 -3.44167 0.418356 0
M  V30 3820 C 352.494 -4.01635 1.51618 0
M  V30 3821 C 351.727 -5.23171 1.05487 0
M  V30 3822 O 351.95 -5.70327 -0.0914715 0
M  V30 3823 O 350.884 -5.72848 1.8474 0
M  V30 3824 H 354.71 -2.42145 1.83302 0
M  V30 3825 H 352.295 -1.15037 0.953246 0
M  V30 3826 H 354.177 -4.21112 0.155726 0
M  V30 3827 H 352.852 -3.20063 -0.48385 0
M  V30 3828 H 351.759 -3.26135 1.83268 0
M  V30 3829 H 353.092 -4.30053 2.39405 0
M  V30 3830 N 354.744 -0.972509 -1.24016 0
M  V30 3831 C 355.674 -0.525548 -2.27509 0
M  V30 3832 C 356.655 0.437262 -1.64384 0
M  V30 3833 O 357.84 0.332343 -1.91335 0
M  V30 3834 C 354.97 0.180448 -3.46831 0
M  V30 3835 C 353.924 -0.698859 -4.22256 0
M  V30 3836 C 353.25 0.138903 -5.3452 0
M  V30 3837 C 354.55 -1.98582 -4.83076 0
M  V30 3838 H 356.244 -1.39058 -2.65148 0
M  V30 3839 H 353.79 -0.67009 -1.27459 0
M  V30 3840 H 355.743 0.504387 -4.18371 0
M  V30 3841 H 354.467 1.07987 -3.08231 0
M  V30 3842 H 353.126 -1.00614 -3.52523 0
M  V30 3843 H 352.774 1.03862 -4.9216 0
M  V30 3844 H 352.474 -0.446259 -5.85903 0
M  V30 3845 H 353.998 0.457404 -6.08884 0
M  V30 3846 H 355.412 -1.72715 -5.46665 0
M  V30 3847 H 353.809 -2.5181 -5.44713 0
M  V30 3848 H 354.879 -2.67769 -4.04262 0
M  V30 3849 N 356.222 1.38976 -0.743202 0
M  V30 3850 C 357.471 1.99581 -0.291592 0
M  V30 3851 C 357.784 1.59656 1.13001 0
M  V30 3852 O 358.99 2.13157 1.68156 0
M  V30 3853 C 357.446 3.56813 -0.470391 0
M  V30 3854 C 357.054 4.05695 -1.90041 0
M  V30 3855 C 358.798 4.24423 -0.0809709 0
M  V30 3856 C 356.705 5.5553 -2.02832 0
M  V30 3857 H 355.635 0.746615 -0.105272 0
M  V30 3858 H 358.286 1.58872 -0.918258 0
M  V30 3859 H 356.668 3.95359 0.225299 0
M  V30 3860 H 357.842 3.78464 -2.62872 0
M  V30 3861 H 356.157 3.50775 -2.24379 0
M  V30 3862 H 358.754 5.34474 -0.155445 0
M  V30 3863 H 359.097 4.04962 0.96497 0
M  V30 3864 H 359.63 3.9108 -0.728124 0
M  V30 3865 H 356.369 5.79881 -3.05643 0
M  V30 3866 H 355.889 5.84537 -1.34448 0
M  V30 3867 H 357.568 6.21069 -1.81335 0
M  V30 3868 N 357.7 0.491464 1.49741 0
M  V30 3869 C 358.647 -0.292027 2.28945 0
M  V30 3870 C 359.617 -0.968973 1.34908 0
M  V30 3871 O 360.802 -0.97748 1.6386 0
M  V30 3872 C 357.942 -1.35617 3.17336 0
M  V30 3873 C 357.055 -0.691957 4.26422 0
M  V30 3874 C 356.19 -1.73572 5.02042 0
M  V30 3875 C 355.229 -1.05286 6.02977 0
M  V30 3876 N 354.366 -2.0404 6.71798 0
M  V30 3877 H 359.206 0.389654 2.95442 0
M  V30 3878 H 356.743 0.204003 1.45679 0
M  V30 3879 H 358.701 -1.98502 3.66951 0
M  V30 3880 H 357.331 -2.00674 2.52844 0
M  V30 3881 H 356.383 0.0499523 3.80367 0
M  V30 3882 H 357.695 -0.153946 4.98562 0
M  V30 3883 H 356.849 -2.43987 5.55478 0
M  V30 3884 H 355.588 -2.30757 4.29654 0
M  V30 3885 H 354.593 -0.334446 5.48782 0
M  V30 3886 H 355.818 -0.487636 6.77347 0
M  V30 3887 H 353.764 -2.60205 6.02187 0
M  V30 3888 H 353.681 -1.55279 7.39881 0
M  V30 3889 H 354.949 -2.73772 7.29842 0
M  V30 3890 N 359.178 -1.55987 0.224894 0
M  V30 3891 C 360.108 -2.23426 -0.678457 0
M  V30 3892 C 361.089 -1.20709 -1.19847 0
M  V30 3893 O 362.274 -1.49304 -1.24186 0
M  V30 3894 C 359.404 -2.91676 -1.88527 0
M  V30 3895 C 358.358 -4.00893 -1.49896 0
M  V30 3896 C 357.684 -4.56455 -2.78483 0
M  V30 3897 C 358.984 -5.17769 -0.686461 0
M  V30 3898 H 360.678 -2.99175 -0.116173 0
M  V30 3899 H 358.224 -1.43897 -0.054436 0
M  V30 3900 H 360.177 -3.37547 -2.5227 0
M  V30 3901 H 358.901 -2.1338 -2.47258 0
M  V30 3902 H 357.56 -3.55758 -0.884985 0
M  V30 3903 H 357.208 -3.74886 -3.35365 0
M  V30 3904 H 356.908 -5.30169 -2.53368 0
M  V30 3905 H 358.432 -5.05047 -3.43162 0
M  V30 3906 H 359.846 -5.60001 -1.22767 0
M  V30 3907 H 358.243 -5.97735 -0.532259 0
M  V30 3908 H 359.313 -4.83932 0.306196 0
M  V30 3909 N 360.656 0.0484629 -1.57525 0
M  V30 3910 C 361.905 0.742065 -1.87553 0
M  V30 3911 C 362.218 1.77545 -0.820802 0
M  V30 3912 O 363.424 2.52027 -1.00967 0
M  V30 3913 C 361.88 1.37081 -3.32771 0
M  V30 3914 C 361.488 0.374786 -4.4643 0
M  V30 3915 C 363.232 2.04542 -3.71972 0
M  V30 3916 C 361.139 1.01077 -5.82698 0
M  V30 3917 H 360.069 0.280903 -0.699721 0
M  V30 3918 H 362.72 -0.00411877 -1.835 0
M  V30 3919 H 361.102 2.16605 -3.31509 0
M  V30 3920 H 362.276 -0.392331 -4.59127 0
M  V30 3921 H 360.591 -0.196653 -4.15935 0
M  V30 3922 H 363.188 2.52943 -4.71088 0
M  V30 3923 H 363.531 2.85515 -3.02964 0
M  V30 3924 H 364.064 1.31819 -3.75325 0
M  V30 3925 H 360.803 0.240878 -6.55057 0
M  V30 3926 H 360.323 1.74819 -5.73758 0
M  V30 3927 H 362.002 1.52383 -6.28799 0
M  V30 3928 N 362.134 1.5431 0.320358 0
M  V30 3929 C 363.374 1.74395 1.0661 0
M  V30 3930 C 363.738 0.508602 1.85141 0
M  V30 3931 O 364.939 0.586856 2.62316 0
M  V30 3932 C 363.21 2.98619 1.96371 0
M  V30 3933 S 364.769 3.39621 2.77854 0
M  V30 3934 H 361.587 0.613204 0.359863 0
M  V30 3935 H 364.189 1.9249 0.341727 0
M  V30 3936 H 362.893 3.86673 1.3752 0
M  V30 3937 H 362.424 2.83055 2.73209 0
M  V30 3938 H 364.439 2.95172 3.98858 0
M  V30 3939 N 363.613 -0.582584 1.46437 0
M  V30 3940 C 364.561 -1.71272 1.5738 0
M  V30 3941 C 365.555 -1.63524 0.44229 0
M  V30 3942 O 366.761 -1.69016 0.619166 0
M  V30 3943 H 363.136 -0.566273 0.494813 0
M  V30 3944 H 365.107 -1.59174 2.52401 0
M  V30 3945 C 363.856 -3.09658 1.58136 0
M  V30 3946 H 363.179 -3.16291 2.44541 0
M  V30 3947 H 364.619 -3.88494 1.69847 0
M  V30 3948 C 363.078 -3.3547 0.310026 0
M  V30 3949 O 363.608 -3.97199 -0.599683 0
M  V30 3950 N 361.814 -2.89925 0.197901 0
M  V30 3951 H 361.361 -2.39873 0.93909 0
M  V30 3952 H 361.319 -3.07568 -0.65185 0
M  V30 3953 N 365.091 -1.34144 -0.827227 0
M  V30 3954 C 366.337 -1.26446 -1.58554 0
M  V30 3955 C 366.67 0.1664 -1.93486 0
M  V30 3956 O 365.945 1.1107 -1.59667 0
M  V30 3957 C 366.228 -2.15111 -2.8879 0
M  V30 3958 C 366.081 -3.66712 -2.60465 0
M  V30 3959 C 367.4 -2.03311 -3.90324 0
M  V30 3960 H 364.519 -0.46067 -0.575284 0
M  V30 3961 H 367.161 -1.64356 -0.953269 0
M  V30 3962 H 365.311 -1.8291 -3.42748 0
M  V30 3963 H 366.983 -4.09259 -2.1285 0
M  V30 3964 H 365.226 -3.88014 -1.93978 0
M  V30 3965 H 365.897 -4.24112 -3.53317 0
M  V30 3966 H 368.373 -2.31574 -3.45706 0
M  V30 3967 H 367.249 -2.67582 -4.79261 0
M  V30 3968 H 367.51 -1.00879 -4.30437 0
M  V30 3969 N 366.569 1.04691 -1.17803 0
M  V30 3970 C 367.501 2.12571 -0.857097 0
M  V30 3971 C 368.514 1.62174 0.142647 0
M  V30 3972 O 369.703 1.78301 -0.0843387 0
M  V30 3973 C 366.803 3.37915 -0.258216 0
M  V30 3974 C 365.976 4.1757 -1.30207 0
M  V30 3975 C 365.035 5.2125 -0.720029 0
M  V30 3976 O 364.061 5.51888 -1.39314 0
M  V30 3977 N 365.263 5.78466 0.485507 0
M  V30 3978 H 368.028 2.40698 -1.78562 0
M  V30 3979 H 365.589 1.20831 -1.07757 0
M  V30 3980 H 367.581 4.04442 0.144584 0
M  V30 3981 H 366.151 3.07281 0.574199 0
M  V30 3982 H 365.371 3.46458 -1.88043 0
M  V30 3983 H 366.659 4.67586 -2.00601 0
M  V30 3984 H 366.057 5.55866 1.05022 0
M  V30 3985 H 364.614 6.4649 0.830307 0
M  V30 3986 N 368.047 0.979072 1.23499 0
M  V30 3987 C 369.01 0.523244 2.23147 0
M  V30 3988 C 370.01 -0.386406 1.56088 0
M  V30 3989 O 371.2 -0.180283 1.73265 0
M  V30 3990 C 368.332 -0.240739 3.40049 0
M  V30 3991 H 369.525 1.40432 2.64989 0
M  V30 3992 H 367.078 0.764824 1.36309 0
M  V30 3993 H 367.813 -1.13841 3.03662 0
M  V30 3994 H 367.598 0.412207 3.89927 0
M  V30 3995 H 369.088 -0.548297 4.13985 0
M  V30 3996 N 369.525 -1.3858 0.750561 0
M  V30 3997 C 370.458 -2.28095 0.0693139 0
M  V30 3998 C 371.436 -1.45217 -0.731491 0
M  V30 3999 O 372.62 -1.74587 -0.71076 0
M  V30 4000 C 369.747 -3.26282 -0.90871 0
M  V30 4001 C 368.793 -4.26056 -0.194507 0
M  V30 4002 S 369.626 -5.24026 1.10257 0
M  V30 4003 C 370.782 -6.2577 0.127542 0
M  V30 4004 H 371.015 -2.85526 0.8284 0
M  V30 4005 H 368.548 -1.44536 0.543014 0
M  V30 4006 H 370.506 -3.83367 -1.46766 0
M  V30 4007 H 369.167 -2.6784 -1.64075 0
M  V30 4008 H 368.36 -4.95249 -0.93512 0
M  V30 4009 H 367.962 -3.72852 0.292837 0
M  V30 4010 H 370.254 -6.73796 -0.707516 0
M  V30 4011 H 371.197 -7.03712 0.787044 0
M  V30 4012 H 371.605 -5.63938 -0.251803 0
M  V30 4013 N 371.003 -0.499398 -1.49478 0
M  V30 4014 C 371.913 0.284489 -2.32869 0
M  V30 4015 C 372.929 0.968885 -1.44529 0
M  V30 4016 O 374.105 0.95062 -1.77553 0
M  V30 4017 C 371.17 1.33594 -3.19928 0
M  V30 4018 C 370.231 0.665149 -4.24116 0
M  V30 4019 C 369.464 1.6665 -5.07014 0
M  V30 4020 O 369.687 2.89618 -4.91404 0
M  V30 4021 O 368.621 1.22271 -5.8935 0
M  V30 4022 H 372.447 -0.39802 -3.01081 0
M  V30 4023 H 370.032 -0.260758 -1.47107 0
M  V30 4024 H 371.914 1.94431 -3.73864 0
M  V30 4025 H 370.589 2.0014 -2.54412 0
M  V30 4026 H 369.496 0.0170769 -3.74096 0
M  V30 4027 H 370.829 0.0421555 -4.92182 0
M  V30 4028 N 372.481 1.55866 -0.233164 0
M  V30 4029 C 373.391 2.24431 0.683217 0
M  V30 4030 C 374.407 1.2558 1.2044 0
M  V30 4031 O 375.583 1.58422 1.24356 0
M  V30 4032 C 372.648 2.91979 1.86947 0
M  V30 4033 C 371.709 4.06204 1.38912 0
M  V30 4034 C 370.942 4.70522 2.51883 0
M  V30 4035 O 371.165 4.33865 3.70293 0
M  V30 4036 O 370.099 5.59296 2.22423 0
M  V30 4037 H 373.925 3.03426 0.129059 0
M  V30 4038 H 371.51 1.494 -0.0022283 0
M  V30 4039 H 373.392 3.34573 2.56201 0
M  V30 4040 H 372.067 2.15935 2.41151 0
M  V30 4041 H 370.974 3.68155 0.664259 0
M  V30 4042 H 372.307 4.84025 0.893328 0
M  V30 4043 N 373.959 -0.0401083 1.57549 0
M  V30 4044 C 374.892 -1.07689 2.01192 0
M  V30 4045 C 375.87 -1.358 0.894273 0
M  V30 4046 O 377.054 -1.48642 1.15921 0
M  V30 4047 C 374.181 -2.41418 2.3756 0
M  V30 4048 C 373.227 -2.29237 3.59656 0
M  V30 4049 S 374.06 -1.65628 5.09242 0
M  V30 4050 C 375.216 -3.0087 5.48843 0
M  V30 4051 H 375.449 -0.705108 2.88817 0
M  V30 4052 H 372.982 -0.249724 1.52367 0
M  V30 4053 H 374.94 -3.18329 2.59186 0
M  V30 4054 H 373.601 -2.75747 1.50407 0
M  V30 4055 H 372.794 -3.27932 3.82722 0
M  V30 4056 H 372.396 -1.60469 3.37825 0
M  V30 4057 H 374.688 -3.97201 5.48851 0
M  V30 4058 H 375.631 -2.82549 6.49286 0
M  V30 4059 H 376.039 -3.02934 4.76331 0
M  V30 4060 N 375.437 -1.54477 -0.31217 0
M  V30 4061 C 376.37 -1.79519 -1.40884 0
M  V30 4062 C 377.348 -0.645753 -1.49227 0
M  V30 4063 O 378.532 -0.884468 -1.66461 0
M  V30 4064 C 375.659 -1.92194 -2.78889 0
M  V30 4065 C 374.705 -3.14555 -2.88023 0
M  V30 4066 S 375.538 -4.72893 -2.51262 0
M  V30 4067 C 376.694 -4.8849 -3.91317 0
M  V30 4068 H 376.927 -2.72256 -1.19432 0
M  V30 4069 H 374.46 -1.45746 -0.509654 0
M  V30 4070 H 376.418 -2.00182 -3.58382 0
M  V30 4071 H 375.079 -1.00414 -2.97617 0
M  V30 4072 H 374.272 -3.20193 -3.89221 0
M  V30 4073 H 373.874 -3.04955 -2.16514 0
M  V30 4074 H 376.166 -4.71826 -4.86196 0
M  V30 4075 H 377.109 -5.90588 -3.90656 0
M  V30 4076 H 377.517 -4.16715 -3.80801 0
M  V30 4077 N 376.915 0.57481 -1.46744 0
M  V30 4078 C 377.848 1.69827 -1.52427 0
M  V30 4079 C 378.826 1.58151 -0.377744 0
M  V30 4080 O 380.01 1.79257 -0.58303 0
M  V30 4081 C 377.137 3.07943 -1.41027 0
M  V30 4082 C 376.183 3.38116 -2.59961 0
M  V30 4083 S 377.016 3.29313 -4.22272 0
M  V30 4084 C 378.172 4.69953 -4.13394 0
M  V30 4085 H 378.405 1.64748 -2.47478 0
M  V30 4086 H 375.938 0.754203 -1.34726 0
M  V30 4087 H 377.896 3.87619 -1.35137 0
M  V30 4088 H 376.557 3.10504 -0.473909 0
M  V30 4089 H 375.75 4.38762 -2.47999 0
M  V30 4090 H 375.352 2.66024 -2.62882 0
M  V30 4091 H 377.644 5.60517 -3.80562 0
M  V30 4092 H 378.587 4.86972 -5.14066 0
M  V30 4093 H 378.995 4.47174 -3.44522 0
M  V30 4094 N 378.394 1.34581 0.820102 0
M  V30 4095 C 379.304 1.28471 1.96297 0
M  V30 4096 C 380.32 0.191902 1.72939 0
M  V30 4097 O 381.496 0.418879 1.96996 0
M  V30 4098 C 378.561 1.04281 3.30645 0
M  V30 4099 C 377.622 2.22745 3.66992 0
M  V30 4100 C 376.855 1.997 4.9493 0
M  V30 4101 O 377.078 0.956656 5.6232 0
M  V30 4102 O 376.012 2.86723 5.2922 0
M  V30 4103 H 379.838 2.24624 2.04396 0
M  V30 4104 H 377.423 1.14816 0.955913 0
M  V30 4105 H 379.305 0.925841 4.11104 0
M  V30 4106 H 377.98 0.111697 3.23507 0
M  V30 4107 H 376.887 2.40003 2.86966 0
M  V30 4108 H 378.22 3.14257 3.78819 0
M  V30 4109 N 379.872 -1.04064 1.18357 0
M  V30 4110 C 380.805 -2.11618 0.854 0
M  V30 4111 C 381.783 -1.61555 -0.184043 0
M  V30 4112 O 382.967 -1.88395 -0.0630048 0
M  V30 4113 C 380.094 -3.37574 0.27597 0
M  V30 4114 C 379.14 -4.06485 1.2912 0
M  V30 4115 S 379.973 -4.53543 2.84709 0
M  V30 4116 C 381.129 -5.82732 2.28417 0
M  V30 4117 H 381.362 -2.39247 1.76488 0
M  V30 4118 H 378.895 -1.16832 1.00944 0
M  V30 4119 H 380.853 -4.10468 -0.051026 0
M  V30 4120 H 379.514 -3.0806 -0.613028 0
M  V30 4121 H 378.707 -4.97024 0.835633 0
M  V30 4122 H 378.309 -3.39708 1.56443 0
M  V30 4123 H 380.601 -6.56677 1.66677 0
M  V30 4124 H 381.544 -6.33052 3.17256 0
M  V30 4125 H 381.952 -5.37838 1.71436 0
M  V30 4126 N 381.35 -0.985608 -1.22978 0
M  V30 4127 C 382.297 -0.529825 -2.24636 0
M  V30 4128 C 383.267 0.434028 -1.60329 0
M  V30 4129 O 384.452 0.340414 -1.87739 0
M  V30 4130 C 381.592 0.156533 -3.44745 0
M  V30 4131 C 380.705 -0.848197 -4.23591 0
M  V30 4132 C 379.84 -0.136109 -5.31026 0
M  V30 4133 C 378.879 -1.1297 -6.01585 0
M  V30 4134 N 378.016 -0.446415 -7.00679 0
M  V30 4135 H 382.856 -1.40148 -2.62988 0
M  V30 4136 H 380.393 -0.702168 -1.29259 0
M  V30 4137 H 382.351 0.571324 -4.1327 0
M  V30 4138 H 380.981 0.992025 -3.07179 0
M  V30 4139 H 380.033 -1.38135 -3.54433 0
M  V30 4140 H 381.345 -1.60512 -4.72268 0
M  V30 4141 H 380.499 0.335784 -6.0577 0
M  V30 4142 H 379.238 0.653373 -4.83304 0
M  V30 4143 H 378.243 -1.6123 -5.25628 0
M  V30 4144 H 379.468 -1.91993 -6.51395 0
M  V30 4145 H 377.414 0.323763 -6.55201 0
M  V30 4146 H 377.331 -1.1419 -7.47326 0
M  V30 4147 H 378.599 0.00291697 -7.795 0
M  V30 4148 N 382.828 1.3818 -0.7579 0
M  V30 4149 C 384.058 2.04004 -0.326463 0
M  V30 4150 C 384.466 1.57286 1.05156 0
M  V30 4151 O 383.809 0.743144 1.67997 0
M  V30 4152 C 383.871 3.58444 -0.275402 0
M  V30 4153 C 383.535 4.28237 -1.59569 0
M  V30 4154 C 384.532 4.53312 -2.54566 0
M  V30 4155 C 382.217 4.66341 -1.86631 0
M  V30 4156 C 384.211 5.15531 -3.74842 0
M  V30 4157 C 381.898 5.28283 -3.0718 0
M  V30 4158 C 382.896 5.52814 -4.01106 0
M  V30 4159 O 382.584 6.13465 -5.19534 0
M  V30 4160 H 382.316 0.662026 -0.136739 0
M  V30 4161 H 384.87 1.7777 -1.02893 0
M  V30 4162 H 383.1 3.83667 0.483337 0
M  V30 4163 H 384.789 4.05701 0.127099 0
M  V30 4164 H 385.555 4.24299 -2.34936 0
M  V30 4165 H 381.434 4.46591 -1.14358 0
M  V30 4166 H 384.978 5.34594 -4.48168 0
M  V30 4167 H 380.875 5.56719 -3.26702 0
M  V30 4168 H 381.643 6.31951 -5.20173 0
M  V30 4169 N 384.306 0.507319 1.49211 0
M  V30 4170 C 385.254 -0.281364 2.30892 0
M  V30 4171 C 386.248 -0.95687 1.39787 0
M  V30 4172 O 387.454 -0.883838 1.56807 0
M  V30 4173 H 383.829 -0.109597 0.743971 0
M  V30 4174 H 385.8 0.42744 2.95323 0
M  V30 4175 C 384.549 -1.32918 3.21291 0
M  V30 4176 H 383.872 -0.818799 3.91326 0
M  V30 4177 H 385.312 -1.85288 3.81372 0
M  V30 4178 C 383.771 -2.35074 2.41333 0
M  V30 4179 O 384.301 -3.4108 2.12197 0
M  V30 4180 N 382.507 -2.07705 2.03241 0
M  V30 4181 H 382.054 -1.2152 2.27136 0
M  V30 4182 H 382.012 -2.76283 1.50051 0
M  V30 4183 N 385.784 -1.5574 0.241426 0
M  V30 4184 C 387.012 -2.03208 -0.389134 0
M  V30 4185 C 387.427 -1.12082 -1.51931 0
M  V30 4186 O 386.784 -0.134183 -1.82006 0
M  V30 4187 C 386.835 -3.50064 -0.902087 0
M  V30 4188 O 386.556 -4.37717 0.18305 0
M  V30 4189 C 388.057 -4.13268 -1.60389 0
M  V30 4190 H 385.277 -0.664509 -0.0931053 0
M  V30 4191 H 387.821 -2.0124 0.36369 0
M  V30 4192 H 385.976 -3.52583 -1.60511 0
M  V30 4193 H 386.39 -5.24097 -0.205579 0
M  V30 4194 H 387.864 -5.17733 -1.91458 0
M  V30 4195 H 388.341 -3.59434 -2.52397 0
M  V30 4196 H 388.947 -4.14655 -0.945576 0
M  V30 4197 N 387.262 0.0317525 -1.57568 0
M  V30 4198 C 388.209 1.0332 -2.06382 0
M  V30 4199 C 389.179 1.36082 -0.952414 0
M  V30 4200 O 390.364 1.46466 -1.2228 0
M  V30 4201 C 387.504 2.32989 -2.54578 0
M  V30 4202 C 386.617 2.0641 -3.79498 0
M  V30 4203 C 385.752 3.2993 -4.16317 0
M  V30 4204 C 384.791 2.98893 -5.34162 0
M  V30 4205 N 383.928 4.14857 -5.66426 0
M  V30 4206 H 388.768 0.609982 -2.9169 0
M  V30 4207 H 386.305 0.289573 -1.44222 0
M  V30 4208 H 388.263 3.0875 -2.80587 0
M  V30 4209 H 386.893 2.73039 -1.7219 0
M  V30 4210 H 385.945 1.21158 -3.6059 0
M  V30 4211 H 387.257 1.79513 -4.65378 0
M  V30 4212 H 386.411 4.1406 -4.4344 0
M  V30 4213 H 385.15 3.59938 -3.29083 0
M  V30 4214 H 384.155 2.13164 -5.06795 0
M  V30 4215 H 385.38 2.70165 -6.23047 0
M  V30 4216 H 383.326 4.44821 -4.82151 0
M  V30 4217 H 383.243 3.91374 -6.4681 0
M  V30 4218 H 384.511 4.99868 -5.98124 0
M  V30 4219 N 388.74 1.54641 0.303973 0
M  V30 4220 C 389.687 1.85386 1.37479 0
M  V30 4221 C 390.657 0.702528 1.50512 0
M  V30 4222 O 391.842 0.950867 1.65418 0
M  V30 4223 C 388.982 2.10413 2.73533 0
M  V30 4224 C 388.095 3.38049 2.68974 0
M  V30 4225 C 387.23 3.52934 3.97002 0
M  V30 4226 C 386.269 4.74373 3.86829 0
M  V30 4227 N 385.406 4.8608 5.06627 0
M  V30 4228 H 390.246 2.76732 1.1056 0
M  V30 4229 H 387.783 1.37034 0.534805 0
M  V30 4230 H 389.741 2.22919 3.52652 0
M  V30 4231 H 388.371 1.22338 2.98719 0
M  V30 4232 H 387.423 3.3418 1.81736 0
M  V30 4233 H 388.735 4.27288 2.57346 0
M  V30 4234 H 387.889 3.65088 4.84557 0
M  V30 4235 H 386.628 2.61824 4.1146 0
M  V30 4236 H 385.633 4.62255 2.97658 0
M  V30 4237 H 386.858 5.66888 3.73918 0
M  V30 4238 H 384.804 3.97891 5.21554 0
M  V30 4239 H 384.721 5.69315 4.9741 0
M  V30 4240 H 385.989 5.02587 5.95841 0
M  V30 4241 N 390.218 -0.567019 1.47046 0
M  V30 4242 C 391.181 -1.65696 1.58359 0
M  V30 4243 C 392.181 -1.54097 0.459441 0
M  V30 4244 O 393.371 -1.58432 0.724225 0
M  V30 4245 C 390.503 -3.05197 1.51879 0
M  V30 4246 H 391.696 -1.57019 2.5551 0
M  V30 4247 H 389.249 -0.786148 1.3509 0
M  V30 4248 H 389.984 -3.19417 0.560673 0
M  V30 4249 H 389.769 -3.15025 2.33455 0
M  V30 4250 H 391.259 -3.84511 1.62913 0
M  V30 4251 N 391.696 -1.35014 -0.812953 0
M  V30 4252 C 393.107 -1.25035 -1.38648 0
M  V30 4253 C 393.458 0.119967 -1.95833 0
M  V30 4254 O 392.583 1.02069 -1.90816 0
M  V30 4255 C 393.178 -2.26394 -2.52054 0
M  V30 4256 C 391.737 -2.20175 -3.05287 0
M  V30 4257 C 390.884 -2.12451 -1.78213 0
M  V30 4258 H 393.835 -1.46235 -0.616516 0
M  V30 4259 H 393.856 -1.88672 -3.30429 0
M  V30 4260 H 393.368 -3.26116 -2.10404 0
M  V30 4261 H 391.469 -1.23841 -3.51417 0
M  V30 4262 H 391.582 -3.11863 -3.63701 0
M  V30 4263 H 389.946 -1.58328 -1.9951 0
M  V30 4264 H 390.729 -3.14024 -1.38723 0
M  V30 4265 N 393.175 1.03435 -1.18907 0
M  V30 4266 C 394.105 2.13503 -0.945448 0
M  V30 4267 C 395.086 1.69682 0.119189 0
M  V30 4268 O 396.271 1.94169 -0.034707 0
M  V30 4269 C 393.401 3.44004 -0.477316 0
M  V30 4270 C 392.355 4.0148 -1.48316 0
M  V30 4271 C 391.681 5.27537 -0.872311 0
M  V30 4272 C 392.981 4.36921 -2.86177 0
M  V30 4273 H 394.675 2.34141 -1.86597 0
M  V30 4274 H 392.221 1.12523 -0.898584 0
M  V30 4275 H 394.174 4.20372 -0.294204 0
M  V30 4276 H 392.898 3.23072 0.478786 0
M  V30 4277 H 391.557 3.27201 -1.65332 0
M  V30 4278 H 391.205 5.02917 0.0911752 0
M  V30 4279 H 390.905 5.66954 -1.54393 0
M  V30 4280 H 392.429 6.06576 -0.699871 0
M  V30 4281 H 393.843 5.04248 -2.72776 0
M  V30 4282 H 392.24 4.87405 -3.50081 0
M  V30 4283 H 393.31 3.46466 -3.39248 0
M  V30 4284 N 394.653 0.992116 1.22453 0
M  V30 4285 C 395.901 0.666215 1.90804 0
M  V30 4286 C 396.222 -0.804152 1.77647 0
M  V30 4287 O 395.492 -1.57629 1.16318 0
M  V30 4288 H 394.072 0.243423 0.706225 0
M  V30 4289 H 396.734 1.25845 1.48825 0
M  V30 4290 H 395.83 0.928069 2.97982 0
M  V30 4291 N 396.131 -1.37776 0.765217 0
M  V30 4292 C 397.078 -2.30342 0.145274 0
M  V30 4293 C 398.048 -1.5077 -0.696971 0
M  V30 4294 O 399.233 -1.79362 -0.650689 0
M  V30 4295 C 396.373 -3.37227 -0.732939 0
M  V30 4296 C 395.486 -4.31819 0.125199 0
M  V30 4297 C 394.621 -5.25777 -0.757107 0
M  V30 4298 C 393.66 -6.12012 0.103963 0
M  V30 4299 N 392.797 -6.98232 -0.735953 0
M  V30 4300 H 397.637 -2.8278 0.940195 0
M  V30 4301 H 395.174 -1.39211 0.475255 0
M  V30 4302 H 397.132 -3.97818 -1.25686 0
M  V30 4303 H 395.762 -2.86171 -1.49353 0
M  V30 4304 H 394.814 -3.7259 0.766865 0
M  V30 4305 H 396.126 -4.92509 0.789683 0
M  V30 4306 H 395.28 -5.91541 -1.34776 0
M  V30 4307 H 394.019 -4.65481 -1.45529 0
M  V30 4308 H 393.024 -5.45233 0.707197 0
M  V30 4309 H 394.249 -6.74379 0.799381 0
M  V30 4310 H 392.195 -6.40472 -1.41887 0
M  V30 4311 H 392.112 -7.55891 -0.128624 0
M  V30 4312 H 393.38 -7.68393 -1.31121 0
M  V30 4313 N 397.609 -0.515225 -1.4894 0
M  V30 4314 C 398.539 0.244628 -2.32215 0
M  V30 4315 C 399.52 0.949136 -1.41157 0
M  V30 4316 O 400.705 0.937783 -1.70057 0
M  V30 4317 C 397.835 1.30096 -3.22013 0
M  V30 4318 C 396.789 0.715486 -4.21977 0
M  V30 4319 C 396.115 1.87339 -5.00808 0
M  V30 4320 C 397.415 -0.302982 -5.2142 0
M  V30 4321 H 399.109 -0.450501 -2.95991 0
M  V30 4322 H 396.655 -0.218098 -1.42339 0
M  V30 4323 H 398.608 1.84037 -3.79089 0
M  V30 4324 H 397.332 2.02547 -2.56207 0
M  V30 4325 H 395.991 0.197715 -3.66066 0
M  V30 4326 H 395.639 2.58592 -4.31438 0
M  V30 4327 H 395.339 1.48764 -5.68457 0
M  V30 4328 H 396.863 2.41686 -5.60732 0
M  V30 4329 H 398.277 0.148802 -5.73107 0
M  V30 4330 H 396.674 -0.60532 -5.97039 0
M  V30 4331 H 397.744 -1.21395 -4.69459 0
M  V30 4332 N 399.087 1.5561 -0.249682 0
M  V30 4333 C 400.315 2.03411 0.378352 0
M  V30 4334 C 400.73 1.12886 1.51335 0
M  V30 4335 O 400.087 0.143833 1.81932 0
M  V30 4336 C 400.138 3.50537 0.88351 0
M  V30 4337 O 399.859 4.37614 -0.20626 0
M  V30 4338 C 401.36 4.14113 1.58195 0
M  V30 4339 H 398.58 0.664994 0.08958 0
M  V30 4340 H 401.124 2.01044 -0.374357 0
M  V30 4341 H 399.279 3.5343 1.58639 0
M  V30 4342 H 399.693 5.24199 0.177782 0
M  V30 4343 H 401.167 5.18741 1.8871 0
M  V30 4344 H 401.644 3.60767 2.50487 0
M  V30 4345 H 402.25 4.15151 0.923573 0
M  V30 4346 N 400.565 -0.0233959 1.57583 0
M  V30 4347 C 401.811 -0.714119 1.89811 0
M  V30 4348 C 402.144 -1.74702 0.848113 0
M  V30 4349 O 401.419 -1.94023 -0.136135 0
M  V30 4350 C 401.702 -1.37853 3.32669 0
M  V30 4351 C 401.555 -0.358764 4.48367 0
M  V30 4352 C 402.874 -2.31101 3.7454 0
M  V30 4353 H 399.993 -0.25814 0.690314 0
M  V30 4354 H 402.635 0.0230927 1.89986 0
M  V30 4355 H 400.785 -2.00689 3.3265 0
M  V30 4356 H 402.457 0.268115 4.6052 0
M  V30 4357 H 400.7 0.321387 4.32608 0
M  V30 4358 H 401.371 -0.862242 5.45224 0
M  V30 4359 H 403.847 -1.78304 3.75961 0
M  V30 4360 H 402.723 -2.74567 4.75294 0
M  V30 4361 H 402.984 -3.18018 3.0711 0
M  V30 4362 N 402.043 -1.548 -0.295768 0
M  V30 4363 C 403.006 -1.85363 -1.34808 0
M  V30 4364 C 404.006 -0.726817 -1.43436 0
M  V30 4365 O 405.196 -0.995088 -1.42981 0
M  V30 4366 C 402.328 -2.03859 -2.73229 0
M  V30 4367 H 403.521 -2.7941 -1.08949 0
M  V30 4368 H 401.074 -1.46942 -0.532702 0
M  V30 4369 H 401.809 -1.12117 -3.04303 0
M  V30 4370 H 401.594 -2.8588 -2.68356 0
M  V30 4371 H 403.084 -2.28857 -3.49305 0
M  V30 4372 N 403.521 0.559213 -1.47345 0
M  V30 4373 C 404.453 1.68161 -1.55738 0
M  V30 4374 C 405.466 1.56636 -0.443744 0
M  V30 4375 O 406.655 1.6363 -0.713258 0
M  V30 4376 C 403.755 3.06611 -1.4437 0
M  V30 4377 C 402.928 3.4391 -2.70268 0
M  V30 4378 C 401.987 4.61515 -2.52765 0
M  V30 4379 O 401.013 4.66197 -3.26572 0
M  V30 4380 N 402.215 5.57883 -1.6046 0
M  V30 4381 H 404.98 1.61408 -2.52522 0
M  V30 4382 H 402.541 0.7458 -1.43699 0
M  V30 4383 H 404.533 3.83117 -1.30398 0
M  V30 4384 H 403.103 3.07602 -0.556766 0
M  V30 4385 H 402.323 2.56873 -2.99015 0
M  V30 4386 H 403.611 3.65605 -3.53851 0
M  V30 4387 H 403.009 5.56855 -0.996422 0
M  V30 4388 H 401.566 6.33723 -1.52441 0
M  V30 4389 N 404.999 1.35443 0.805782 0
M  V30 4390 C 406.248 1.28097 1.55801 0
M  V30 4391 C 406.561 -0.142428 1.95081 0
M  V30 4392 O 407.767 -0.33817 2.69386 0
M  V30 4393 C 406.223 2.24653 2.81174 0
M  V30 4394 C 405.831 3.72342 2.49129 0
M  V30 4395 C 407.575 2.2625 3.59181 0
M  V30 4396 C 405.482 4.60719 3.70799 0
M  V30 4397 H 404.412 0.475937 0.584808 0
M  V30 4398 H 407.063 1.60712 0.885661 0
M  V30 4399 H 405.445 1.85011 3.50124 0
M  V30 4400 H 406.619 4.20624 1.88181 0
M  V30 4401 H 404.934 3.73361 1.84366 0
M  V30 4402 H 407.531 2.89495 4.49552 0
M  V30 4403 H 407.874 1.26647 3.96568 0
M  V30 4404 H 408.407 2.64426 2.97193 0
M  V30 4405 H 405.146 5.61324 3.3852 0
M  V30 4406 H 404.666 4.17163 4.3097 0
M  V30 4407 H 406.345 4.76182 4.38018 0
M  V30 4408 N 406.477 -1.02803 1.19454 0
M  V30 4409 C 407.424 -2.11099 0.933046 0
M  V30 4410 C 408.394 -1.65571 -0.132447 0
M  V30 4411 O 409.579 -1.90797 0.00987576 0
M  V30 4412 C 406.719 -3.41763 0.478747 0
M  V30 4413 C 405.832 -4.00833 1.6111 0
M  V30 4414 C 404.967 -5.19511 1.10825 0
M  V30 4415 C 404.006 -5.70639 2.21445 0
M  V30 4416 N 403.143 -6.80589 1.72461 0
M  V30 4417 H 407.983 -2.32804 1.86028 0
M  V30 4418 H 405.52 -1.14179 0.927441 0
M  V30 4419 H 407.478 -4.16736 0.196745 0
M  V30 4420 H 406.108 -3.20166 -0.411493 0
M  V30 4421 H 405.16 -3.23066 2.00829 0
M  V30 4422 H 406.472 -4.34794 2.4445 0
M  V30 4423 H 405.626 -6.01645 0.781533 0
M  V30 4424 H 404.365 -4.87086 0.244606 0
M  V30 4425 H 403.37 -4.87116 2.54947 0
M  V30 4426 H 404.595 -6.05102 3.08267 0
M  V30 4427 H 402.541 -6.50016 0.884056 0
M  V30 4428 H 402.458 -7.13681 2.49389 0
M  V30 4429 H 403.726 -7.66317 1.42755 0
M  V30 4430 N 407.956 -0.998596 -1.21925 0
M  V30 4431 C 408.919 -0.558679 -2.22287 0
M  V30 4432 C 409.919 0.361525 -1.56683 0
M  V30 4433 O 411.109 0.152695 -1.73529 0
M  V30 4434 C 408.241 0.18661 -3.40389 0
M  V30 4435 H 409.434 -1.4463 -2.62721 0
M  V30 4436 H 406.987 -0.786413 -1.35075 0
M  V30 4437 H 407.722 1.08996 -3.05435 0
M  V30 4438 H 407.507 -0.474188 -3.89222 0
M  V30 4439 H 408.997 0.482367 -4.14805 0
M  V30 4440 N 409.434 1.37368 -0.772513 0
M  V30 4441 C 410.682 1.99279 -0.336516 0
M  V30 4442 C 411.003 1.6163 1.09091 0
M  V30 4443 O 410.273 0.882109 1.74916 0
M  V30 4444 H 408.853 0.737063 -0.121435 0
M  V30 4445 H 411.515 1.67836 -0.990809 0
M  V30 4446 H 410.611 3.09332 -0.414763 0
M  V30 4447 N 410.912 0.523116 1.48665 0
M  V30 4448 C 412.142 -0.00961724 2.06598 0
M  V30 4449 C 412.55 -1.29333 1.38093 0
M  V30 4450 O 411.893 -1.77846 0.46007 0
M  V30 4451 C 411.955 -0.311135 3.58151 0
M  V30 4452 C 411.619 0.878092 4.48485 0
M  V30 4453 C 412.616 1.77464 4.88674 0
M  V30 4454 C 410.301 1.08315 4.90483 0
M  V30 4455 C 412.295 2.86021 5.69623 0
M  V30 4456 C 409.982 2.17187 5.71203 0
M  V30 4457 C 410.98 3.05873 6.10681 0
M  V30 4458 O 410.668 4.12862 6.89783 0
M  V30 4459 H 410.4 0.0272658 0.67545 0
M  V30 4460 H 412.954 0.726156 1.92136 0
M  V30 4461 H 411.184 -1.10079 3.70701 0
M  V30 4462 H 412.873 -0.785125 3.98234 0
M  V30 4463 H 413.639 1.62813 4.56855 0
M  V30 4464 H 409.518 0.402149 4.59243 0
M  V30 4465 H 413.062 3.55272 6.00356 0
M  V30 4466 H 408.959 2.31824 6.02435 0
M  V30 4467 H 409.727 4.10487 7.08126 0
M  V30 4468 N 412.39 -1.55475 0.257931 0
M  V30 4469 C 413.322 -2.19192 -0.669881 0
M  V30 4470 C 414.335 -1.17148 -1.1305 0
M  V30 4471 O 415.524 -1.43959 -1.05537 0
M  V30 4472 C 412.624 -2.79016 -1.92363 0
M  V30 4473 C 411.797 -4.06586 -1.61265 0
M  V30 4474 C 410.856 -4.50622 -2.7171 0
M  V30 4475 O 409.882 -5.16765 -2.38627 0
M  V30 4476 N 411.084 -4.19325 -4.01431 0
M  V30 4477 H 413.849 -2.99441 -0.124635 0
M  V30 4478 H 411.41 -1.6171 0.0783311 0
M  V30 4479 H 413.402 -3.05427 -2.65511 0
M  V30 4480 H 411.972 -2.0286 -2.37837 0
M  V30 4481 H 411.192 -3.87646 -0.715811 0
M  V30 4482 H 412.48 -4.89737 -1.37967 0
M  V30 4483 H 411.878 -3.66247 -4.31138 0
M  V30 4484 H 410.435 -4.50547 -4.7101 0
M  V30 4485 N 413.868 0.0150385 -1.57593 0
M  V30 4486 C 415.093 0.718067 -1.94573 0
M  V30 4487 C 415.518 1.6734 -0.859005 0
M  V30 4488 O 414.876 1.80362 0.184147 0
M  V30 4489 C 414.924 1.43918 -3.30636 0
M  V30 4490 O 414.028 2.55299 -3.23876 0
M  V30 4491 H 413.369 0.192125 -0.635597 0
M  V30 4492 H 415.899 -0.0336708 -2.04572 0
M  V30 4493 H 415.909 1.80598 -3.65853 0
M  V30 4494 H 414.584 0.738619 -4.09289 0
M  V30 4495 H 413.161 2.21058 -3.00312 0
M  V30 4496 N 415.346 1.54954 0.287554 0
M  V30 4497 C 416.276 1.89839 1.35954 0
M  V30 4498 C 417.257 0.758675 1.52244 0
M  V30 4499 O 418.442 1.01557 1.65529 0
M  V30 4500 C 415.572 2.15753 2.72154 0
M  V30 4501 C 414.526 3.3159 2.70614 0
M  V30 4502 C 413.852 3.42952 4.10229 0
M  V30 4503 C 415.152 4.68359 2.31165 0
M  V30 4504 H 416.846 2.79625 1.07007 0
M  V30 4505 H 414.392 1.3454 0.513316 0
M  V30 4506 H 416.345 2.38743 3.47246 0
M  V30 4507 H 415.069 1.22752 3.02654 0
M  V30 4508 H 413.728 3.08545 1.97979 0
M  V30 4509 H 413.376 2.47443 4.37928 0
M  V30 4510 H 413.076 4.20826 4.10097 0
M  V30 4511 H 414.6 3.68218 4.87081 0
M  V30 4512 H 416.014 4.9099 2.95976 0
M  V30 4513 H 414.411 5.49044 2.42221 0
M  V30 4514 H 415.481 4.68165 1.26291 0
M  V30 4515 N 416.824 -0.551391 1.4764 0
M  V30 4516 C 417.771 -1.65796 1.60563 0
M  V30 4517 C 418.741 -1.59932 0.448428 0
M  V30 4518 O 419.926 -1.78679 0.669222 0
M  V30 4519 C 417.066 -3.04108 1.63133 0
M  V30 4520 C 416.179 -3.20365 2.89811 0
M  V30 4521 C 415.314 -4.49109 2.8368 0
M  V30 4522 C 414.353 -4.58819 4.05156 0
M  V30 4523 N 413.49 -5.78926 3.97227 0
M  V30 4524 H 418.33 -1.54088 2.5507 0
M  V30 4525 H 415.867 -0.75052 1.26513 0
M  V30 4526 H 417.825 -3.84207 1.62606 0
M  V30 4527 H 416.455 -3.14637 0.721341 0
M  V30 4528 H 415.507 -2.33659 3.00179 0
M  V30 4529 H 416.819 -3.23402 3.79753 0
M  V30 4530 H 415.973 -5.37475 2.81434 0
M  V30 4531 H 414.712 -4.4856 1.91431 0
M  V30 4532 H 413.717 -3.68864 4.077 0
M  V30 4533 H 414.942 -4.61124 4.98539 0
M  V30 4534 H 412.888 -5.79314 3.07785 0
M  V30 4535 H 412.805 -5.83367 4.80853 0
M  V30 4536 H 414.073 -6.69637 3.99007 0
M  V30 4537 N 418.302 -1.35869 -0.798587 0
M  V30 4538 C 419.249 -1.29446 -1.91082 0
M  V30 4539 C 420.219 -0.16487 -1.6528 0
M  V30 4540 O 421.404 -0.349888 -1.87564 0
M  V30 4541 C 418.544 -1.0804 -3.27752 0
M  V30 4542 C 417.657 -2.29993 -3.65687 0
M  V30 4543 C 416.792 -2.01673 -4.91428 0
M  V30 4544 C 415.831 -3.19636 -5.22015 0
M  V30 4545 N 414.968 -2.91039 -6.38937 0
M  V30 4546 H 419.808 -2.24553 -1.95907 0
M  V30 4547 H 417.345 -1.11615 -0.958148 0
M  V30 4548 H 419.303 -0.936586 -4.06551 0
M  V30 4549 H 417.933 -0.16592 -3.22373 0
M  V30 4550 H 416.985 -2.55211 -2.82085 0
M  V30 4551 H 418.297 -3.18052 -3.84245 0
M  V30 4552 H 417.451 -1.84168 -5.78072 0
M  V30 4553 H 416.19 -1.10911 -4.74921 0
M  V30 4554 H 415.195 -3.37709 -4.33858 0
M  V30 4555 H 416.42 -4.11211 -5.40447 0
M  V30 4556 H 414.366 -2.0288 -6.2384 0
M  V30 4557 H 414.283 -3.72635 -6.57784 0
M  V30 4558 H 415.551 -2.77093 -7.28587 0
M  V30 4559 N 419.78 1.02168 -1.19998 0
M  V30 4560 C 421.029 1.75091 -1.0013 0
M  V30 4561 C 421.342 1.89923 0.467835 0
M  V30 4562 O 422.548 2.59888 0.785515 0
M  V30 4563 C 421.004 3.14892 -1.74273 0
M  V30 4564 C 420.612 3.0809 -3.25245 0
M  V30 4565 C 422.356 3.9206 -1.62755 0
M  V30 4566 C 420.263 4.42867 -3.91948 0
M  V30 4567 H 419.193 0.656394 -0.37103 0
M  V30 4568 H 421.844 1.14284 -1.43567 0
M  V30 4569 H 420.226 3.7621 -1.2362 0
M  V30 4570 H 421.4 2.5611 -3.83072 0
M  V30 4571 H 419.715 2.44416 -3.3712 0
M  V30 4572 H 422.312 4.91764 -2.09934 0
M  V30 4573 H 422.655 4.12199 -0.582894 0
M  V30 4574 H 423.188 3.37359 -2.10793 0
M  V30 4575 H 419.927 4.27931 -4.96543 0
M  V30 4576 H 419.447 4.94874 -3.3891 0
M  V30 4577 H 421.126 5.11728 -3.95909 0
M  V30 4578 N 421.258 1.00505 1.21394 0
M  V30 4579 C 422.168 0.574806 2.27449 0
M  V30 4580 C 423.184 -0.382206 1.6975 0
M  V30 4581 O 424.36 -0.246027 1.99892 0
M  V30 4582 C 421.425 -0.0917414 3.46579 0
M  V30 4583 C 420.486 0.909758 4.1955 0
M  V30 4584 C 419.719 0.274924 5.32991 0
M  V30 4585 O 419.942 -0.928254 5.62796 0
M  V30 4586 O 418.876 0.985877 5.93771 0
M  V30 4587 H 422.702 1.45744 2.66444 0
M  V30 4588 H 420.287 0.773923 1.27792 0
M  V30 4589 H 422.169 -0.464551 4.18832 0
M  V30 4590 H 420.844 -0.948755 3.09484 0
M  V30 4591 H 419.751 1.33372 3.49518 0
M  V30 4592 H 421.084 1.73636 4.60555 0
M  V30 4593 N 422.737 -1.36956 0.779787 0
M  V30 4594 C 424.014 -1.93697 0.272156 0
M  V30 4595 C 424.394 -1.71267 -1.23413 0
M  V30 4596 O 423.742 -1.06607 -2.02107 0
M  V30 4597 C 423.952 -3.42812 0.654291 0
M  V30 4598 C 425.3 -4.19921 0.628602 0
M  V30 4599 O 426.324 -3.51209 0.594172 0
M  V30 4600 O 425.183 -5.42465 0.662864 0
M  V30 4601 H 422.277 -0.824447 0.0649286 0
M  V30 4602 H 424.823 -1.46196 0.861682 0
M  V30 4603 H 423.595 -3.52754 1.69353 0
M  V30 4604 H 423.218 -3.97582 0.0381369 0
M  V30 4605 N 424.215 -0.530993 -1.48385 0
M  V30 4606 C 425.455 0.000718982 -2.044 0
M  V30 4607 C 425.819 1.31485 -1.39913 0
M  V30 4608 O 427.02 1.93265 -1.86821 0
M  V30 4609 C 425.291 0.119177 -3.57201 0
M  V30 4610 S 426.85 0.600806 -4.34667 0
M  V30 4611 H 423.668 -0.0125473 -0.710889 0
M  V30 4612 H 426.27 -0.711783 -1.82082 0
M  V30 4613 H 424.974 -0.842061 -4.01668 0
M  V30 4614 H 424.505 0.856026 -3.83974 0
M  V30 4615 H 426.52 1.86514 -4.59812 0
M  V30 4616 N 425.693 1.55336 -0.266172 0
M  V30 4617 C 426.942 1.98574 0.353749 0
M  V30 4618 C 427.255 1.15789 1.57646 0
M  V30 4619 O 428.461 1.49129 2.26876 0
M  V30 4620 C 426.917 3.53403 0.680747 0
M  V30 4621 C 426.525 4.44953 -0.52165 0
M  V30 4622 C 428.269 4.05251 1.26379 0
M  V30 4623 C 426.176 5.91156 -0.169736 0
M  V30 4624 H 425.106 0.741643 0.135949 0
M  V30 4625 H 427.757 1.79743 -0.369421 0
M  V30 4626 H 426.139 3.68001 1.46257 0
M  V30 4627 H 427.313 4.42121 -1.29869 0
M  V30 4628 H 425.628 4.03691 -1.02093 0
M  V30 4629 H 428.225 5.12021 1.54074 0
M  V30 4630 H 428.568 3.53749 2.19471 0
M  V30 4631 H 429.101 3.94057 0.544447 0
M  V30 4632 H 425.84 6.46736 -1.0683 0
M  V30 4633 H 425.36 5.97079 0.570717 0
M  V30 4634 H 427.039 6.4655 0.241245 0
M  V30 4635 N 427.171 -0.0066808 1.57599 0
M  V30 4636 C 428.587 -0.36267 1.55425 0
M  V30 4637 C 428.787 -1.75209 0.995187 0
M  V30 4638 O 427.843 -2.44616 0.626058 0
M  V30 4639 C 429.156 -0.244017 2.99708 0
M  V30 4640 C 430.704 -0.319451 3.11366 0
M  V30 4641 C 431.179 -0.229998 4.57422 0
M  V30 4642 N 432.67 -0.288105 4.62303 0
M  V30 4643 C 433.405 -0.242127 5.72889 0
M  V30 4644 N 432.901 -0.147133 6.92644 0
M  V30 4645 N 434.694 -0.293502 5.61333 0
M  V30 4646 H 426.845 0.902314 1.92281 0
M  V30 4647 H 429.108 0.34525 0.882896 0
M  V30 4648 H 428.814 0.711678 3.44424 0
M  V30 4649 H 428.688 -1.02877 3.629 0
M  V30 4650 H 431.075 -1.26559 2.66584 0
M  V30 4651 H 431.156 0.495055 2.50964 0
M  V30 4652 H 430.8 0.712566 5.02877 0
M  V30 4653 H 430.73 -1.0629 5.15761 0
M  V30 4654 H 433.221 -0.363126 3.76151 0
M  V30 4655 H 433.534 -0.117763 7.7271 0
M  V30 4656 H 431.879 -0.112857 6.94908 0
M  V30 4657 H 435.07 -0.365864 4.66668 0
M  V30 4658 H 435.243 -0.254204 6.47501 0
M  V30 4659 N 428.649 -1.55105 -0.279332 0
M  V30 4660 C 429.612 -1.86783 -1.32834 0
M  V30 4661 C 430.612 -0.74199 -1.42657 0
M  V30 4662 O 431.802 -1.0102 -1.41918 0
M  V30 4663 C 428.934 -2.06746 -2.71052 0
M  V30 4664 H 430.127 -2.8055 -1.05979 0
M  V30 4665 H 427.68 -1.47499 -0.517087 0
M  V30 4666 H 428.415 -1.15339 -3.03097 0
M  V30 4667 H 428.2 -2.88711 -2.65309 0
M  V30 4668 H 429.69 -2.32549 -3.46858 0
M  V30 4669 N 430.127 0.543554 -1.4793 0
M  V30 4670 C 431.375 1.29752 -1.54948 0
M  V30 4671 C 431.696 1.93764 -0.219242 0
M  V30 4672 O 430.966 1.80639 0.75805 0
M  V30 4673 H 429.546 0.481874 -0.570795 0
M  V30 4674 H 432.208 0.633636 -1.84312 0
M  V30 4675 H 431.304 2.08392 -2.32334 0
M  V30 4676 N 431.605 1.3629 0.791371 0
M  V30 4677 C 432.537 1.26321 1.91248 0
M  V30 4678 C 433.55 0.18313 1.61767 0
M  V30 4679 O 434.739 0.437682 1.73051 0
M  V30 4680 C 431.839 0.925901 3.26007 0
M  V30 4681 C 431.012 2.10746 3.83281 0
M  V30 4682 C 430.071 1.74352 4.96475 0
M  V30 4683 O 429.097 2.46416 5.13096 0
M  V30 4684 N 430.299 0.676058 5.7655 0
M  V30 4685 H 433.064 2.22915 2.00323 0
M  V30 4686 H 430.625 1.29659 0.969546 0
M  V30 4687 H 432.617 0.663636 3.99222 0
M  V30 4688 H 431.187 0.0491581 3.12561 0
M  V30 4689 H 430.407 2.53264 3.02077 0
M  V30 4690 H 431.695 2.8969 4.18279 0
M  V30 4691 H 431.093 0.0776467 5.65647 0
M  V30 4692 H 429.65 0.473612 6.50077 0
M  V30 4693 N 433.083 -1.0153 1.20538 0
M  V30 4694 C 434.033 -2.08482 0.922991 0
M  V30 4695 C 435.017 -1.60469 -0.117702 0
M  V30 4696 O 436.209 -1.76772 0.0898465 0
M  V30 4697 C 433.338 -3.39952 0.478312 0
M  V30 4698 C 432.424 -3.94662 1.5525 0
M  V30 4699 N 432.815 -4.22866 2.77521 0
M  V30 4700 C 431.113 -4.22825 1.41897 0
M  V30 4701 C 431.814 -4.67002 3.4682 0
M  V30 4702 N 430.79 -4.69356 2.74237 0
M  V30 4703 H 434.592 -2.28199 1.85209 0
M  V30 4704 H 432.106 -1.19512 1.09957 0
M  V30 4705 H 434.103 -4.16105 0.257408 0
M  V30 4706 H 432.763 -3.21648 -0.444148 0
M  V30 4707 H 433.774 -4.11732 3.1416 0
M  V30 4708 H 430.451 -4.13714 0.561015 0
M  V30 4709 H 431.841 -4.97632 4.51455 0
M  V30 4710 N 434.561 -1.01147 -1.20859 0
M  V30 4711 C 435.809 -0.696486 -1.89719 0
M  V30 4712 C 436.13 0.775788 -1.78904 0
M  V30 4713 O 435.4 1.55759 -1.18811 0
M  V30 4714 H 433.98 -0.254628 -0.702263 0
M  V30 4715 H 436.642 -1.28197 -1.46804 0
M  V30 4716 H 435.738 -0.975357 -2.96468 0
M  V30 4717 N 436.039 1.36541 -0.78704 0
M  V30 4718 C 437.455 1.52571 -0.46844 0
M  V30 4719 C 437.655 1.7415 1.01361 0
M  V30 4720 O 436.711 1.77163 1.79915 0
M  V30 4721 C 438.024 2.71299 -1.29682 0
M  V30 4722 C 439.572 2.85169 -1.29027 0
M  V30 4723 C 440.047 4.06898 -2.10233 0
M  V30 4724 N 441.538 4.1404 -2.07666 0
M  V30 4725 C 442.273 5.07301 -2.67271 0
M  V30 4726 N 441.769 6.06021 -3.35724 0
M  V30 4727 N 443.562 4.99898 -2.57018 0
M  V30 4728 H 435.713 1.20788 -1.74711 0
M  V30 4729 H 437.976 0.589364 -0.742532 0
M  V30 4730 H 437.682 2.61868 -2.34773 0
M  V30 4731 H 437.556 3.6539 -0.936479 0
M  V30 4732 H 439.943 2.94062 -0.247284 0
M  V30 4733 H 440.024 1.91992 -1.69035 0
M  V30 4734 H 439.668 3.98766 -3.1456 0
M  V30 4735 H 439.598 4.99218 -1.67597 0
M  V30 4736 H 442.089 3.43357 -1.57843 0
M  V30 4737 H 442.402 6.73741 -3.78541 0
M  V30 4738 H 440.747 6.06253 -3.39826 0
M  V30 4739 H 443.938 4.21724 -2.03142 0
M  V30 4740 H 444.111 5.72392 -3.03761 0
M  V30 4741 N 437.518 0.538854 1.48102 0
M  V30 4742 C 438.481 -0.208395 2.28251 0
M  V30 4743 C 439.481 -0.859656 1.35892 0
M  V30 4744 O 440.671 -0.71834 1.58699 0
M  V30 4745 C 437.803 -1.30252 3.15035 0
M  V30 4746 H 438.996 0.495407 2.9578 0
M  V30 4747 H 436.549 0.295112 1.53489 0
M  V30 4748 H 437.284 -2.0393 2.52157 0
M  V30 4749 H 437.069 -0.840551 3.82985 0
M  V30 4750 H 438.559 -1.82787 3.75471 0
M  V30 4751 N 438.996 -1.55193 0.274407 0
M  V30 4752 C 439.926 -2.25471 -0.607032 0
M  V30 4753 C 440.907 -1.24461 -1.15946 0
M  V30 4754 O 442.092 -1.53179 -1.19373 0
M  V30 4755 C 439.222 -2.97526 -1.79153 0
M  V30 4756 C 438.176 -4.05459 -1.37067 0
M  V30 4757 C 437.502 -4.65084 -2.6382 0
M  V30 4758 C 438.802 -5.19691 -0.521389 0
M  V30 4759 H 440.496 -2.99393 -0.0209343 0
M  V30 4760 H 438.042 -1.43997 -0.00862866 0
M  V30 4761 H 439.995 -3.45402 -2.41404 0
M  V30 4762 H 438.719 -2.21138 -2.40344 0
M  V30 4763 H 437.378 -3.58393 -0.771355 0
M  V30 4764 H 437.026 -3.85365 -3.23268 0
M  V30 4765 H 436.726 -5.37961 -2.36372 0
M  V30 4766 H 438.25 -5.15708 -3.26921 0
M  V30 4767 H 439.664 -5.63623 -1.04889 0
M  V30 4768 H 438.061 -5.99126 -0.341825 0
M  V30 4769 H 439.131 -4.82713 0.46 0
M  V30 4770 N 440.474 -0.00167713 -1.576 0
M  V30 4771 C 441.407 1.02317 -2.03977 0
M  V30 4772 C 442.385 1.33381 -0.929963 0
M  V30 4773 O 443.569 1.45517 -1.19822 0
M  V30 4774 C 440.696 2.35035 -2.43878 0
M  V30 4775 C 439.742 2.19621 -3.65607 0
M  V30 4776 S 440.575 1.52068 -5.13455 0
M  V30 4777 C 441.731 2.86212 -5.56627 0
M  V30 4778 H 441.964 0.628285 -2.90585 0
M  V30 4779 H 439.497 0.209239 -1.52976 0
M  V30 4780 H 441.455 3.11345 -2.67534 0
M  V30 4781 H 440.116 2.71663 -1.57665 0
M  V30 4782 H 439.309 3.1767 -3.91282 0
M  V30 4783 H 438.911 1.51455 -3.41961 0
M  V30 4784 H 441.203 3.82509 -5.59189 0
M  V30 4785 H 442.146 2.65235 -6.56549 0
M  V30 4786 H 442.554 2.90199 -4.84195 0
M  V30 4787 N 441.952 1.55251 0.271103 0
M  V30 4788 C 442.862 1.9136 1.35714 0
M  V30 4789 C 443.878 0.811075 1.5394 0
M  V30 4790 O 445.054 1.11031 1.6803 0
M  V30 4791 C 442.119 2.1798 2.69603 0
M  V30 4792 C 441.18 3.4153 2.60107 0
M  V30 4793 C 440.413 3.66871 3.8761 0
M  V30 4794 O 440.636 2.94689 4.8838 0
M  V30 4795 O 439.57 4.60405 3.87699 0
M  V30 4796 H 443.396 2.83815 1.08088 0
M  V30 4797 H 440.981 1.41821 0.469792 0
M  V30 4798 H 442.863 2.36518 3.48765 0
M  V30 4799 H 441.538 1.28708 2.97012 0
M  V30 4800 H 440.445 3.28325 1.79314 0
M  V30 4801 H 441.778 4.31027 2.37647 0
M  V30 4802 N 443.43 -0.535701 1.48216 0
M  V30 4803 C 444.393 -1.623 1.61838 0
M  V30 4804 C 445.393 -1.53087 0.492024 0
M  V30 4805 O 446.583 -1.5686 0.757668 0
M  V30 4806 C 443.715 -3.01907 1.58319 0
M  V30 4807 H 444.908 -1.51564 2.58783 0
M  V30 4808 H 442.461 -0.757317 1.36727 0
M  V30 4809 H 443.196 -3.18155 0.628299 0
M  V30 4810 H 442.981 -3.10003 2.40085 0
M  V30 4811 H 444.471 -3.80969 1.71033 0
M  V30 4812 N 444.908 -1.36708 -0.784132 0
M  V30 4813 C 446.148 -1.32618 -1.55537 0
M  V30 4814 C 446.512 0.0920681 -1.91779 0
M  V30 4815 O 447.713 0.257573 -2.67563 0
M  V30 4816 C 445.984 -2.22788 -2.79464 0
M  V30 4817 S 447.543 -2.36432 -3.69656 0
M  V30 4818 H 444.361 -0.470973 -0.53264 0
M  V30 4819 H 446.963 -1.72333 -0.92312 0
M  V30 4820 H 445.667 -3.24774 -2.50899 0
M  V30 4821 H 445.198 -1.84112 -3.47658 0
M  V30 4822 H 447.213 -1.56573 -4.7085 0
M  V30 4823 N 446.386 1.0089 -1.21074 0
M  V30 4824 C 447.334 2.11707 -0.963476 0
M  V30 4825 C 448.328 1.69172 0.0879032 0
M  V30 4826 O 449.534 1.79889 -0.0631415 0
M  V30 4827 H 445.909 0.692026 -0.294287 0
M  V30 4828 H 447.88 2.29743 -1.90422 0
M  V30 4829 C 446.629 3.43473 -0.540509 0
M  V30 4830 H 445.952 3.76634 -1.34114 0
M  V30 4831 H 447.392 4.22044 -0.406777 0
M  V30 4832 C 445.851 3.2849 0.748079 0
M  V30 4833 O 446.381 3.58883 1.8046 0
M  V30 4834 N 444.587 2.81715 0.713081 0
M  V30 4835 H 444.134 2.5718 -0.146973 0
M  V30 4836 H 444.092 2.72071 1.57558 0
M  V30 4837 N 447.864 1.01787 1.20321 0
M  V30 4838 C 448.774 0.598898 2.26827 0
M  V30 4839 C 449.79 -0.36418 1.70146 0
M  V30 4840 O 450.966 -0.224812 2.00141 0
M  V30 4841 C 448.031 -0.0549769 3.46656 0
M  V30 4842 C 447.092 0.954205 4.18561 0
M  V30 4843 C 446.325 0.331439 5.3267 0
M  V30 4844 O 446.548 -0.86851 5.63749 0
M  V30 4845 O 445.482 1.0488 5.92692 0
M  V30 4846 H 449.308 1.48562 2.64883 0
M  V30 4847 H 446.893 0.787434 1.26964 0
M  V30 4848 H 448.775 -0.420102 4.19301 0
M  V30 4849 H 447.45 -0.915876 3.10473 0
M  V30 4850 H 446.357 1.37072 3.48083 0
M  V30 4851 H 447.69 1.78511 4.58688 0
M  V30 4852 N 449.342 -1.36122 0.79427 0
M  V30 4853 C 450.589 -1.99111 0.368905 0
M  V30 4854 C 450.917 -1.63032 -1.0607 0
M  V30 4855 O 450.172 -0.879303 -1.74833 0
M  V30 4856 C 450.471 -3.5409 0.48527 0
M  V30 4857 C 450.137 -4.10003 1.87638 0
M  V30 4858 C 448.799 -4.24986 2.257 0
M  V30 4859 C 451.151 -4.40423 2.78706 0
M  V30 4860 C 448.479 -4.67701 3.54221 0
M  V30 4861 C 450.831 -4.84573 4.0666 0
M  V30 4862 C 449.495 -4.97761 4.44737 0
M  V30 4863 H 448.765 -0.7286 0.134992 0
M  V30 4864 H 451.412 -1.62534 1.01267 0
M  V30 4865 H 449.717 -3.91052 -0.241984 0
M  V30 4866 H 451.414 -4.00766 0.137109 0
M  V30 4867 H 448.004 -3.98784 1.57064 0
M  V30 4868 H 452.188 -4.28412 2.50553 0
M  V30 4869 H 447.444 -4.761 3.83587 0
M  V30 4870 H 451.618 -5.07074 4.77336 0
M  V30 4871 H 449.245 -5.30618 5.44379 0
M  V30 4872 N 450.82 -0.546701 -1.47814 0
M  V30 4873 C 452.05 -0.0232519 -2.06587 0
M  V30 4874 C 452.458 1.2712 -1.40133 0
M  V30 4875 O 451.801 1.77091 -0.488305 0
M  V30 4876 C 451.863 0.254117 -3.58601 0
M  V30 4877 C 451.527 -0.949331 -4.47031 0
M  V30 4878 C 452.524 -1.85216 -4.85789 0
M  V30 4879 C 450.209 -1.16104 -4.88697 0
M  V30 4880 C 452.203 -2.95047 -5.65001 0
M  V30 4881 C 449.89 -2.26247 -5.67676 0
M  V30 4882 C 450.888 -3.1555 -6.05737 0
M  V30 4883 O 450.576 -4.23784 -6.83127 0
M  V30 4884 H 450.308 -0.0380082 -0.674931 0
M  V30 4885 H 452.862 -0.756631 -1.90956 0
M  V30 4886 H 451.092 1.04168 -3.72406 0
M  V30 4887 H 452.781 0.72167 -3.99433 0
M  V30 4888 H 453.547 -1.70061 -4.54207 0
M  V30 4889 H 449.426 -0.475159 -4.58545 0
M  V30 4890 H 452.97 -3.64778 -5.94628 0
M  V30 4891 H 448.867 -2.41379 -5.98671 0
M  V30 4892 H 449.635 -4.21701 -7.01506 0
M  V30 4893 N 452.299 1.55045 -0.282633 0
M  V30 4894 C 453.527 2.04168 0.33512 0
M  V30 4895 C 453.942 1.16071 1.48906 0
M  V30 4896 O 453.299 0.182391 1.81586 0
M  V30 4897 C 453.35 3.52332 0.808957 0
M  V30 4898 O 453.071 4.37078 -0.299038 0
M  V30 4899 C 454.572 4.17375 1.49375 0
M  V30 4900 H 451.792 0.666744 0.0754543 0
M  V30 4901 H 454.336 2.00205 -0.416918 0
M  V30 4902 H 452.491 3.56715 1.51106 0
M  V30 4903 H 452.905 5.24458 0.0665514 0
M  V30 4904 H 454.379 5.22627 1.77664 0
M  V30 4905 H 454.856 3.65999 2.42778 0
M  V30 4906 H 455.462 4.17016 0.835305 0
M  V30 4907 N 453.777 0.010035 1.57597 0
M  V30 4908 C 455.193 -0.346164 1.55801 0
M  V30 4909 C 455.393 -1.74144 1.01371 0
M  V30 4910 O 454.449 -2.43938 0.651968 0
M  V30 4911 C 455.762 -0.212216 2.9995 0
M  V30 4912 C 457.31 -0.286409 3.11687 0
M  V30 4913 C 457.785 -0.18147 4.5764 0
M  V30 4914 N 459.276 -0.239056 4.62583 0
M  V30 4915 C 460.011 -0.181351 5.73113 0
M  V30 4916 N 459.507 -0.073661 6.92761 0
M  V30 4917 N 461.3 -0.233949 5.61613 0
M  V30 4918 H 453.451 0.922657 1.91313 0
M  V30 4919 H 455.714 0.354595 0.879185 0
M  V30 4920 H 455.42 0.748169 3.4365 0
M  V30 4921 H 455.294 -0.990224 3.6397 0
M  V30 4922 H 457.681 -1.23724 2.67911 0
M  V30 4923 H 457.762 0.521645 2.50425 0
M  V30 4924 H 457.406 0.765863 5.02093 0
M  V30 4925 H 457.336 -1.00814 5.1686 0
M  V30 4926 H 459.827 -0.32321 3.76515 0
M  V30 4927 H 460.14 -0.0358003 7.72792 0
M  V30 4928 H 458.485 -0.0391461 6.94989 0
M  V30 4929 H 461.676 -0.316347 4.6703 0
M  V30 4930 H 461.849 -0.185514 6.47734 0
M  V30 4931 N 455.255 -1.55392 -0.262866 0
M  V30 4932 C 456.504 -1.75679 -0.990943 0
M  V30 4933 C 456.817 -0.57097 -1.87081 0
M  V30 4934 O 458.023 -0.656486 -2.63444 0
M  V30 4935 C 456.479 -3.10964 -1.81188 0
M  V30 4936 C 456.087 -4.37146 -0.980188 0
M  V30 4937 C 457.831 -3.40597 -2.53365 0
M  V30 4938 C 455.738 -5.63466 -1.7961 0
M  V30 4939 H 454.668 -0.654868 -0.373716 0
M  V30 4940 H 457.319 -1.81841 -0.246203 0
M  V30 4941 H 455.701 -2.98867 -2.59797 0
M  V30 4942 H 456.875 -4.60187 -0.237558 0
M  V30 4943 H 455.19 -4.14731 -0.372497 0
M  V30 4944 H 457.787 -4.32186 -3.14833 0
M  V30 4945 H 458.13 -2.6119 -3.24169 0
M  V30 4946 H 458.663 -3.53838 -1.81779 0
M  V30 4947 H 455.402 -6.4565 -1.13209 0
M  V30 4948 H 454.922 -5.44552 -2.51443 0
M  V30 4949 H 456.601 -6.02139 -2.36723 0
M  V30 4950 N 456.733 0.527833 -1.48498 0
M  V30 4951 C 458.144 1.10975 -1.50138 0
M  V30 4952 C 458.495 1.943 -0.272378 0
M  V30 4953 O 457.62 2.07319 0.620301 0
M  V30 4954 C 458.215 2.01927 -2.72049 0
M  V30 4955 C 456.774 2.55332 -2.76554 0
M  V30 4956 C 455.921 1.32341 -2.43683 0
M  V30 4957 H 458.872 0.312986 -1.55583 0
M  V30 4958 H 458.893 2.86244 -2.50689 0
M  V30 4959 H 458.405 1.41254 -3.61481 0
M  V30 4960 H 456.506 3.19721 -1.91336 0
M  V30 4961 H 456.619 2.94319 -3.78038 0
M  V30 4962 H 454.983 1.63989 -1.94884 0
M  V30 4963 H 455.766 0.734165 -3.35358 0
M  V30 4964 N 458.211 1.37122 0.776871 0
M  V30 4965 C 459.161 1.28989 1.88005 0
M  V30 4966 C 460.145 0.178765 1.59904 0
M  V30 4967 O 461.337 0.412705 1.72121 0
M  V30 4968 C 458.466 1.09402 3.25402 0
M  V30 4969 C 457.552 2.25036 3.59471 0
M  V30 4970 N 457.943 3.50407 3.64759 0
M  V30 4971 C 456.241 2.17078 3.89607 0
M  V30 4972 C 456.942 4.26628 3.95428 0
M  V30 4973 N 455.918 3.55709 4.11062 0
M  V30 4974 H 459.72 2.2394 1.90337 0
M  V30 4975 H 457.234 1.30021 0.973052 0
M  V30 4976 H 459.231 1.01661 4.04315 0
M  V30 4977 H 457.891 0.153632 3.24336 0
M  V30 4978 H 458.902 3.8438 3.47091 0
M  V30 4979 H 455.579 1.31067 3.96393 0
M  V30 4980 H 456.969 5.35107 4.06338 0
M  V30 4981 N 459.689 -1.00246 1.21608 0
M  V30 4982 C 460.966 -1.71336 0.943568 0
M  V30 4983 C 461.346 -2.03972 -0.543943 0
M  V30 4984 O 460.694 -1.71545 -1.50946 0
M  V30 4985 C 460.904 -2.97094 1.83128 0
M  V30 4986 C 462.252 -3.70071 2.08165 0
M  V30 4987 O 463.276 -3.07081 1.80498 0
M  V30 4988 O 462.135 -4.83376 2.54971 0
M  V30 4989 H 459.229 -0.747386 0.354039 0
M  V30 4990 H 461.775 -1.05967 1.32549 0
M  V30 4991 H 460.547 -2.69407 2.83788 0
M  V30 4992 H 460.17 -3.70204 1.45034 0
M  V30 4993 N 461.167 -1.02423 -1.1978 0
M  V30 4994 C 462.414 -0.717988 -1.89344 0
M  V30 4995 C 462.742 0.753036 -1.79331 0
M  V30 4996 O 461.997 1.56355 -1.17692 0
M  V30 4997 C 462.296 -1.1088 -3.39765 0
M  V30 4998 C 461.962 -2.57731 -3.6998 0
M  V30 4999 C 460.624 -2.97854 -3.77937 0
M  V30 5000 C 462.976 -3.52763 -3.83677 0
M  V30 5001 C 460.304 -4.31931 -3.97054 0
M  V30 5002 C 462.656 -4.86538 -4.04306 0
M  V30 5003 C 461.32 -5.26356 -4.10494 0
M  V30 5004 H 460.59 -0.26273 -0.692859 0
M  V30 5005 H 463.237 -1.28623 -1.41875 0
M  V30 5006 H 461.542 -0.459094 -3.89101 0
M  V30 5007 H 463.239 -0.849432 -3.919 0
M  V30 5008 H 459.829 -2.25646 -3.64393 0
M  V30 5009 H 464.013 -3.2292 -3.76877 0
M  V30 5010 H 459.269 -4.62324 -4.00083 0
M  V30 5011 H 463.443 -5.60093 -4.13846 0
M  V30 5012 H 461.07 -6.3026 -4.2506 0
M  V30 5013 N 462.645 1.35699 -0.801477 0
M  V30 5014 C 463.893 1.9852 -0.37871 0
M  V30 5015 C 464.214 1.63907 1.05638 0
M  V30 5016 O 463.484 0.919013 1.73006 0
M  V30 5017 H 462.064 0.734322 -0.137042 0
M  V30 5018 H 464.726 1.65697 -1.02619 0
M  V30 5019 H 463.822 3.08382 -0.480284 0
M  V30 5020 N 464.123 0.554532 1.47522 0
M  V30 5021 C 465.053 -0.182974 2.32782 0
M  V30 5022 C 466.034 -0.911377 1.43624 0
M  V30 5023 O 467.219 -0.892366 1.72483 0
M  V30 5024 C 464.349 -1.21513 3.25349 0
M  V30 5025 C 463.303 -0.603355 4.23726 0
M  V30 5026 C 462.629 -1.73995 5.05598 0
M  V30 5027 C 463.929 0.441121 5.20434 0
M  V30 5028 H 465.623 0.52882 2.94693 0
M  V30 5029 H 463.169 0.255759 1.41711 0
M  V30 5030 H 465.122 -1.73922 3.83835 0
M  V30 5031 H 463.846 -1.95683 2.61487 0
M  V30 5032 H 462.505 -0.10059 3.66462 0
M  V30 5033 H 462.153 -2.47063 4.38143 0
M  V30 5034 H 461.853 -1.3364 5.72201 0
M  V30 5035 H 463.377 -2.26735 5.66942 0
M  V30 5036 H 464.791 0.00319931 5.733 0
M  V30 5037 H 463.188 0.763402 5.95224 0
M  V30 5038 H 464.258 1.33799 4.66075 0
M  V30 5039 N 465.601 -1.54893 0.290851 0
M  V30 5040 C 467.017 -1.59476 -0.0628432 0
M  V30 5041 C 467.217 -1.30795 -1.5328 0
M  V30 5042 O 466.273 -1.07644 -2.28406 0
M  V30 5043 C 467.586 -2.98928 0.325962 0
M  V30 5044 C 469.134 -3.11799 0.273882 0
M  V30 5045 C 469.609 -4.53544 0.637359 0
M  V30 5046 N 471.1 -4.59433 0.589507 0
M  V30 5047 C 471.835 -5.67164 0.84335 0
M  V30 5048 N 471.331 -6.82975 1.16263 0
M  V30 5049 N 473.124 -5.56786 0.771091 0
M  V30 5050 H 465.275 -1.71798 1.24896 0
M  V30 5051 H 467.538 -0.801879 0.505663 0
M  V30 5052 H 467.244 -3.24805 1.34887 0
M  V30 5053 H 467.118 -3.75793 -0.325441 0
M  V30 5054 H 469.505 -2.85677 -0.739765 0
M  V30 5055 H 469.586 -2.37112 0.959766 0
M  V30 5056 H 469.23 -4.80394 1.64877 0
M  V30 5057 H 469.16 -5.26553 -0.0704866 0
M  V30 5058 H 471.651 -3.76245 0.353252 0
M  V30 5059 H 471.964 -7.61048 1.34257 0
M  V30 5060 H 470.309 -6.84552 1.20057 0
M  V30 5061 H 473.5 -4.65187 0.521383 0
M  V30 5062 H 473.673 -6.40664 0.972295 0
M  V30 5063 N 467.08 -0.0183926 -1.57589 0
M  V30 5064 C 468.308 0.673046 -1.95647 0
M  V30 5065 C 468.723 1.66275 -0.894312 0
M  V30 5066 O 468.08 1.82072 0.124975 0
M  V30 5067 C 468.131 1.38884 -3.33756 0
M  V30 5068 O 467.852 0.438806 -4.35897 0
M  V30 5069 C 469.353 2.1731 -3.86383 0
M  V30 5070 H 466.573 0.186292 -0.644621 0
M  V30 5071 H 469.117 -0.0749748 -2.04363 0
M  V30 5072 H 467.272 2.08835 -3.26293 0
M  V30 5073 H 467.686 0.945869 -5.15901 0
M  V30 5074 H 469.16 2.62863 -4.85394 0
M  V30 5075 H 469.637 3.00764 -3.20059 0
M  V30 5076 H 470.243 1.52339 -3.97081 0
M  V30 5077 N 468.558 1.5553 0.254621 0
M  V30 5078 C 469.969 1.67518 0.824286 0
M  V30 5079 C 470.32 0.614429 1.86331 0
M  V30 5080 O 469.445 -0.240736 2.15057 0
M  V30 5081 C 470.04 3.03692 1.50189 0
M  V30 5082 C 468.599 3.17646 2.01935 0
M  V30 5083 C 467.746 2.63373 0.867746 0
M  V30 5084 H 470.697 1.58671 0.0305843 0
M  V30 5085 H 470.718 2.97706 2.36962 0
M  V30 5086 H 470.23 3.80874 0.745431 0
M  V30 5087 H 468.331 2.45273 2.80485 0
M  V30 5088 H 468.444 4.24455 2.22204 0
M  V30 5089 H 466.808 2.20999 1.26616 0
M  V30 5090 H 467.591 3.43074 0.124498 0
M  V30 5091 N 470.036 -0.519951 1.48776 0
M  V30 5092 C 471.447 -1.10177 1.50725 0
M  V30 5093 C 471.798 -1.94153 0.282678 0
M  V30 5094 O 470.923 -2.07645 -0.609298 0
M  V30 5095 C 471.518 -2.00482 2.73116 0
M  V30 5096 C 470.077 -2.53862 2.77905 0
M  V30 5097 C 469.224 -1.31047 2.44381 0
M  V30 5098 H 472.175 -0.30473 1.55747 0
M  V30 5099 H 472.196 -2.8491 2.52203 0
M  V30 5100 H 471.708 -1.39335 3.62225 0
M  V30 5101 H 469.809 -3.18702 1.93029 0
M  V30 5102 H 469.922 -2.9231 3.79594 0
M  V30 5103 H 468.286 -1.62953 1.95751 0
M  V30 5104 H 469.069 -0.71637 3.35743 0
M  V30 5105 N 471.514 -1.37532 -0.769588 0
M  V30 5106 C 472.444 -1.36172 -1.89682 0
M  V30 5107 C 473.425 -0.23001 -1.68538 0
M  V30 5108 O 474.61 -0.43069 -1.89364 0
M  V30 5109 C 471.74 -1.1701 -3.26995 0
M  V30 5110 C 470.694 -2.27216 -3.62708 0
M  V30 5111 C 470.02 -1.93174 -4.98586 0
M  V30 5112 C 471.32 -3.6941 -3.69234 0
M  V30 5113 H 473.014 -2.30499 -1.91078 0
M  V30 5114 H 470.56 -1.10953 -0.917902 0
M  V30 5115 H 472.513 -1.14688 -4.05493 0
M  V30 5116 H 471.237 -0.191395 -3.26039 0
M  V30 5117 H 469.896 -2.28697 -2.86519 0
M  V30 5118 H 469.544 -0.938281 -4.94171 0
M  V30 5119 H 469.244 -2.66973 -5.23449 0
M  V30 5120 H 470.768 -1.92443 -5.79481 0
M  V30 5121 H 472.182 -3.70047 -4.37879 0
M  V30 5122 H 470.579 -4.4228 -4.05597 0
M  V30 5123 H 471.649 -4.0288 -2.69844 0
M  V30 5124 N 472.992 0.995999 -1.22138 0
M  V30 5125 C 474.241 1.72928 -1.03821 0
M  V30 5126 C 474.554 1.90872 0.427444 0
M  V30 5127 O 475.76 2.61496 0.730212 0
M  V30 5128 C 474.216 3.11124 -1.80913 0
M  V30 5129 C 473.824 3.01122 -3.31707 0
M  V30 5130 C 475.568 3.8852 -1.71035 0
M  V30 5131 C 473.475 4.34453 -4.01253 0
M  V30 5132 H 472.405 0.648376 -0.384869 0
M  V30 5133 H 475.056 1.11213 -1.45959 0
M  V30 5134 H 473.438 3.73503 -1.31573 0
M  V30 5135 H 474.612 2.47926 -3.88419 0
M  V30 5136 H 472.927 2.3721 -3.42228 0
M  V30 5137 H 475.524 4.872 -2.20318 0
M  V30 5138 H 475.867 4.1087 -0.670196 0
M  V30 5139 H 476.4 3.32812 -2.17902 0
M  V30 5140 H 473.139 4.17303 -5.05508 0
M  V30 5141 H 472.659 4.87574 -3.49331 0
M  V30 5142 H 474.338 5.03215 -4.06674 0
M  V30 5143 N 474.47 1.03057 1.19235 0
M  V30 5144 C 475.886 0.747947 1.40989 0
M  V30 5145 C 476.086 -0.666752 1.90149 0
M  V30 5146 O 475.142 -1.43249 2.07933 0
M  V30 5147 C 476.455 1.7855 2.41951 0
M  V30 5148 C 478.003 1.80524 2.55695 0
M  V30 5149 C 478.478 2.83243 3.59913 0
M  V30 5150 N 479.969 2.8207 3.67411 0
M  V30 5151 C 480.704 3.58204 4.47747 0
M  V30 5152 N 480.2 4.44057 5.31775 0
M  V30 5153 N 481.993 3.46738 4.42413 0
M  V30 5154 H 474.144 1.94367 0.856468 0
M  V30 5155 H 476.407 0.840412 0.438647 0
M  V30 5156 H 476.113 2.79973 2.12857 0
M  V30 5157 H 475.987 1.6092 3.41152 0
M  V30 5158 H 478.374 0.79778 2.84112 0
M  V30 5159 H 478.455 2.02229 1.56643 0
M  V30 5160 H 478.099 3.84161 3.32239 0
M  V30 5161 H 478.029 2.58795 4.5862 0
M  V30 5162 H 480.52 2.19803 3.074 0
M  V30 5163 H 480.833 4.98884 5.90199 0
M  V30 5164 H 479.178 4.48129 5.3123 0
M  V30 5165 H 482.369 2.79077 3.75811 0
M  V30 5166 H 482.542 4.06322 5.04783 0
M  V30 5167 N 475.948 -1.35272 0.808662 0
M  V30 5168 C 477.176 -2.02946 0.402537 0
M  V30 5169 C 477.591 -1.60937 -0.987147 0
M  V30 5170 O 476.948 -0.807917 -1.63643 0
M  V30 5171 C 476.999 -3.58317 0.47868 0
M  V30 5172 O 476.72 -3.98799 1.81358 0
M  V30 5173 C 478.221 -4.43251 0.0656281 0
M  V30 5174 H 475.441 -0.650831 0.163279 0
M  V30 5175 H 477.985 -1.72849 1.09286 0
M  V30 5176 H 476.14 -3.87055 -0.163415 0
M  V30 5177 H 476.554 -4.93451 1.77781 0
M  V30 5178 H 478.028 -5.51738 0.170017 0
M  V30 5179 H 478.505 -4.27913 -0.989278 0
M  V30 5180 H 479.111 -4.19813 0.68096 0
M  V30 5181 N 477.426 -0.562348 -1.47226 0
M  V30 5182 C 478.358 0.220011 -2.28142 0
M  V30 5183 C 479.371 0.874596 -1.37312 0
M  V30 5184 O 480.56 0.747583 -1.62091 0
M  V30 5185 C 477.66 1.32953 -3.11732 0
M  V30 5186 C 476.833 0.770759 -4.30556 0
M  V30 5187 C 475.892 1.76541 -4.95701 0
M  V30 5188 O 474.918 1.3095 -5.53932 0
M  V30 5189 N 476.12 3.09896 -4.90861 0
M  V30 5190 H 478.885 -0.474107 -2.95926 0
M  V30 5191 H 476.446 -0.398761 -1.56912 0
M  V30 5192 H 478.438 1.99378 -3.5218 0
M  V30 5193 H 477.008 1.92681 -2.46156 0
M  V30 5194 H 476.228 -0.0704056 -3.94137 0
M  V30 5195 H 477.516 0.376872 -5.07402 0
M  V30 5196 H 476.914 3.49577 -4.44761 0
M  V30 5197 H 475.471 3.71865 -5.35313 0
M  V30 5198 N 478.904 1.54736 -0.299062 0
M  V30 5199 C 479.851 2.23448 0.577899 0
M  V30 5200 C 480.821 1.21637 1.13109 0
M  V30 5201 O 482.006 1.50252 1.17597 0
M  V30 5202 C 479.146 2.9774 1.74484 0
M  V30 5203 C 478.259 4.1432 1.22323 0
M  V30 5204 C 477.394 4.76199 2.35388 0
M  V30 5205 C 476.433 5.84927 1.80351 0
M  V30 5206 N 475.57 6.4077 2.86982 0
M  V30 5207 H 480.41 2.97996 -0.0146545 0
M  V30 5208 H 477.947 1.47088 -0.0190013 0
M  V30 5209 H 479.905 3.39045 2.43114 0
M  V30 5210 H 478.535 2.25572 2.30905 0
M  V30 5211 H 477.587 3.7797 0.429249 0
M  V30 5212 H 478.899 4.92659 0.780309 0
M  V30 5213 H 478.053 5.20346 3.11969 0
M  V30 5214 H 476.792 3.97188 2.83006 0
M  V30 5215 H 475.797 5.40207 1.02259 0
M  V30 5216 H 477.022 6.65821 1.3364 0
M  V30 5217 H 474.968 5.64643 3.33938 0
M  V30 5218 H 474.885 7.1445 2.4718 0
M  V30 5219 H 476.153 6.89574 3.63466 0
M  V30 5220 N 480.382 0.0267497 1.57577 0
M  V30 5221 C 481.292 -0.971633 2.13533 0
M  V30 5222 C 482.308 -1.35868 1.08701 0
M  V30 5223 O 483.484 -1.44058 1.40746 0
M  V30 5224 C 480.549 -2.23622 2.64941 0
M  V30 5225 C 479.61 -1.90982 3.8448 0
M  V30 5226 C 478.843 -3.11411 4.33427 0
M  V30 5227 O 479.066 -4.23992 3.81558 0
M  V30 5228 O 478 -2.93848 5.25297 0
M  V30 5229 H 481.826 -0.525853 2.99113 0
M  V30 5230 H 479.411 -0.193712 1.48139 0
M  V30 5231 H 481.293 -2.97864 2.98086 0
M  V30 5232 H 479.968 -2.67386 1.82446 0
M  V30 5233 H 478.875 -1.14132 3.56265 0
M  V30 5234 H 480.208 -1.52036 4.6813 0
M  V30 5235 N 481.861 -1.55662 -0.24637 0
M  V30 5236 C 482.791 -1.93377 -1.30873 0
M  V30 5237 C 483.772 -0.798773 -1.50179 0
M  V30 5238 O 484.957 -1.0591 -1.62778 0
M  V30 5239 C 482.087 -2.22893 -2.66338 0
M  V30 5240 C 481.041 -3.38649 -2.61727 0
M  V30 5241 C 480.367 -3.53708 -4.00992 0
M  V30 5242 C 481.667 -4.74323 -2.18666 0
M  V30 5243 H 483.361 -2.82363 -0.995552 0
M  V30 5244 H 480.907 -1.35854 -0.477464 0
M  V30 5245 H 482.86 -2.47866 -3.40794 0
M  V30 5246 H 481.584 -1.30733 -2.99293 0
M  V30 5247 H 480.243 -3.13685 -1.89729 0
M  V30 5248 H 479.891 -2.58967 -4.31214 0
M  V30 5249 H 479.591 -4.31551 -3.98795 0
M  V30 5250 H 481.115 -3.81003 -4.77147 0
M  V30 5251 H 482.529 -4.98665 -2.82854 0
M  V30 5252 H 480.926 -5.55273 -2.27579 0
M  V30 5253 H 481.996 -4.71349 -1.13834 0
M  V30 5254 N 483.339 0.512053 -1.4905 0
M  V30 5255 C 484.564 1.2959 -1.6193 0
M  V30 5256 C 484.989 1.85906 -0.286454 0
M  V30 5257 O 484.347 1.65312 0.744426 0
M  V30 5258 C 484.395 2.40987 -2.68249 0
M  V30 5259 O 483.499 3.44531 -2.26654 0
M  V30 5260 H 482.84 0.383053 -0.542371 0
M  V30 5261 H 485.37 0.614231 -1.95162 0
M  V30 5262 H 485.38 2.86913 -2.90078 0
M  V30 5263 H 484.055 1.99361 -3.65004 0
M  V30 5264 H 482.632 3.046 -2.15112 0
M  V30 5265 N 484.817 1.37938 0.762283 0
M  V30 5266 C 485.727 1.36681 1.90671 0
M  V30 5267 C 486.743 0.265078 1.71969 0
M  V30 5268 O 487.919 0.502055 1.95042 0
M  V30 5269 C 484.984 1.18211 3.25925 0
M  V30 5270 C 484.045 2.3811 3.57214 0
M  V30 5271 C 483.278 2.20512 4.86014 0
M  V30 5272 O 483.501 1.19429 5.57757 0
M  V30 5273 O 482.435 3.08911 5.16583 0
M  V30 5274 H 486.261 2.33091 1.94685 0
M  V30 5275 H 483.846 1.18767 0.906356 0
M  V30 5276 H 485.728 1.09937 4.06807 0
M  V30 5277 H 484.403 0.248807 3.22742 0
M  V30 5278 H 483.31 2.51958 2.76529 0
M  V30 5279 H 484.643 3.30041 3.65149 0
M  V30 5280 N 486.295 -0.989507 1.22664 0
M  V30 5281 C 487.242 -2.08024 0.999733 0
M  V30 5282 C 488.212 -1.65909 -0.0797047 0
M  V30 5283 O 489.397 -1.90669 0.0705715 0
M  V30 5284 C 486.537 -3.40067 0.587234 0
M  V30 5285 C 485.65 -3.95505 1.73781 0
M  V30 5286 C 484.785 -5.15722 1.27297 0
M  V30 5287 C 483.824 -5.63305 2.39488 0
M  V30 5288 N 482.961 -6.74758 1.94026 0
M  V30 5289 H 487.801 -2.26768 1.9334 0
M  V30 5290 H 485.338 -1.11171 0.963297 0
M  V30 5291 H 487.296 -4.15899 0.329227 0
M  V30 5292 H 485.926 -3.21314 -0.309426 0
M  V30 5293 H 484.978 -3.16513 2.11006 0
M  V30 5294 H 486.29 -4.26797 2.58158 0
M  V30 5295 H 485.444 -5.98854 0.972546 0
M  V30 5296 H 484.183 -4.86061 0.399445 0
M  V30 5297 H 483.188 -4.78759 2.70315 0
M  V30 5298 H 484.413 -5.94988 3.27362 0
M  V30 5299 H 482.359 -6.46874 1.09041 0
M  V30 5300 H 482.276 -7.05386 2.71968 0
M  V30 5301 H 483.544 -7.61387 1.67062 0
M  V30 5302 N 487.773 -1.03688 -1.18687 0
M  V30 5303 C 489.022 -0.733235 -1.879 0
M  V30 5304 C 489.335 0.741745 -1.8099 0
M  V30 5305 O 490.541 1.15875 -2.4553 0
M  V30 5306 C 488.997 -1.26127 -3.37076 0
M  V30 5307 C 488.605 -2.76461 -3.52524 0
M  V30 5308 C 490.349 -1.03398 -4.11715 0
M  V30 5309 C 488.256 -3.22642 -4.95637 0
M  V30 5310 H 487.186 -0.270584 -0.703776 0
M  V30 5311 H 489.837 -1.25222 -1.34133 0
M  V30 5312 H 488.219 -0.670165 -3.90288 0
M  V30 5313 H 489.393 -3.41296 -3.09602 0
M  V30 5314 H 487.708 -2.97559 -2.91286 0
M  V30 5315 H 490.305 -1.3542 -5.17267 0
M  V30 5316 H 490.648 0.0289246 -4.1629 0
M  V30 5317 H 491.181 -1.5895 -3.64664 0
M  V30 5318 H 487.92 -4.28296 -4.96228 0
M  V30 5319 H 487.44 -2.62539 -5.39289 0
M  V30 5320 H 489.119 -3.16444 -5.64333 0
M  V30 5321 N 489.251 1.34841 -0.815825 0
M  V30 5322 C 490.183 2.28409 -0.190265 0
M  V30 5323 C 491.196 1.50705 0.615771 0
M  V30 5324 O 492.385 1.72822 0.446616 0
M  V30 5325 C 489.485 3.30441 0.752446 0
M  V30 5326 C 488.658 4.37399 -0.00922152 0
M  V30 5327 C 487.717 5.19234 0.853351 0
M  V30 5328 O 486.743 5.68404 0.300919 0
M  V30 5329 N 487.945 5.38248 2.17416 0
M  V30 5330 H 490.71 2.82732 -0.994114 0
M  V30 5331 H 488.271 1.47289 -0.672129 0
M  V30 5332 H 490.263 3.82084 1.33394 0
M  V30 5333 H 488.833 2.76565 1.45707 0
M  V30 5334 H 488.053 3.86567 -0.771979 0
M  V30 5335 H 489.341 5.05992 -0.533807 0
M  V30 5336 H 488.739 4.99961 2.6468 0
M  V30 5337 H 487.296 5.93035 2.70467 0
M  V30 5338 N 490.729 0.570148 1.46925 0
M  V30 5339 C 491.659 -0.158274 2.32963 0
M  V30 5340 C 492.64 -0.896093 1.44583 0
M  V30 5341 O 493.825 -0.874022 1.7342 0
M  V30 5342 C 490.955 -1.18055 3.26619 0
M  V30 5343 C 489.909 -0.558379 4.24342 0
M  V30 5344 C 489.235 -1.68623 5.07415 0
M  V30 5345 C 490.535 0.496295 5.19937 0
M  V30 5346 H 492.229 0.560046 2.94115 0
M  V30 5347 H 489.775 0.270775 1.41431 0
M  V30 5348 H 491.728 -1.69841 3.85658 0
M  V30 5349 H 490.452 -1.92899 2.63548 0
M  V30 5350 H 489.111 -0.0617157 3.66548 0
M  V30 5351 H 488.759 -2.42402 4.40738 0
M  V30 5352 H 488.459 -1.27564 5.73586 0
M  V30 5353 H 489.983 -2.20709 5.69315 0
M  V30 5354 H 491.397 0.0640052 5.73264 0
M  V30 5355 H 489.794 0.82649 5.94381 0
M  V30 5356 H 490.864 1.38735 4.6463 0
M  V30 5357 N 492.207 -1.54576 0.307264 0
M  V30 5358 C 493.137 -2.26708 -0.55907 0
M  V30 5359 C 494.118 -1.26893 -1.1328 0
M  V30 5360 O 495.303 -1.55677 -1.16097 0
M  V30 5361 C 492.433 -3.01259 -1.72801 0
M  V30 5362 C 491.387 -4.08275 -1.28435 0
M  V30 5363 C 490.713 -4.70575 -2.53895 0
M  V30 5364 C 492.013 -5.2068 -0.411038 0
M  V30 5365 H 493.707 -2.9937 0.042576 0
M  V30 5366 H 491.253 -1.43983 0.0219173 0
M  V30 5367 H 493.206 -3.50444 -2.34023 0
M  V30 5368 H 491.93 -2.26187 -2.356 0
M  V30 5369 H 490.589 -3.59949 -0.695161 0
M  V30 5370 H 490.237 -3.92136 -3.15021 0
M  V30 5371 H 489.937 -5.42854 -2.24908 0
M  V30 5372 H 491.461 -5.22527 -3.15908 0
M  V30 5373 H 492.875 -5.65721 -0.929097 0
M  V30 5374 H 491.272 -5.99716 -0.214664 0
M  V30 5375 H 492.342 -4.81629 0.562287 0
M  V30 5376 N 493.685 -0.035106 -1.57561 0
M  V30 5377 C 494.595 0.960295 -2.14046 0
M  V30 5378 C 495.611 1.3529 -1.0942 0
M  V30 5379 O 496.787 1.43309 -1.41508 0
M  V30 5380 C 493.852 2.22214 -2.66124 0
M  V30 5381 C 492.913 1.8894 -3.85487 0
M  V30 5382 C 492.146 3.09109 -4.35072 0
M  V30 5383 O 492.369 4.21963 -3.83802 0
M  V30 5384 O 491.303 2.91058 -5.26848 0
M  V30 5385 H 495.129 0.509983 -2.99387 0
M  V30 5386 H 492.714 0.185853 -1.48239 0
M  V30 5387 H 494.596 2.96279 -2.99661 0
M  V30 5388 H 493.271 2.66414 -1.83862 0
M  V30 5389 H 492.178 1.12241 -3.56865 0
M  V30 5390 H 493.511 1.49551 -4.6893 0
M  V30 5391 N 495.163 1.55791 0.238111 0
M  V30 5392 C 496.126 1.90239 1.27835 0
M  V30 5393 C 497.126 0.779552 1.4064 0
M  V30 5394 O 498.316 1.04747 1.3919 0
M  V30 5395 C 495.448 2.13859 2.65475 0
M  V30 5396 H 496.641 2.83262 0.985034 0
M  V30 5397 H 494.194 1.48818 0.477799 0
M  V30 5398 H 494.929 1.23334 2.99932 0
M  V30 5399 H 494.714 2.95643 2.57561 0
M  V30 5400 H 496.204 2.41664 3.40571 0
M  V30 5401 N 496.642 -0.504142 1.49319 0
M  V30 5402 C 497.572 -1.61473 1.68667 0
M  V30 5403 C 498.553 -1.61455 0.535378 0
M  V30 5404 O 499.738 -1.78245 0.770868 0
M  V30 5405 C 496.868 -2.99971 1.75028 0
M  V30 5406 C 495.822 -3.14854 2.89916 0
M  V30 5407 C 495.148 -4.54671 2.81387 0
M  V30 5408 C 496.448 -2.95176 4.30893 0
M  V30 5409 H 498.142 -1.45535 2.61648 0
M  V30 5410 H 495.688 -0.698711 1.25913 0
M  V30 5411 H 497.641 -3.77562 1.8715 0
M  V30 5412 H 496.365 -3.1699 0.786441 0
M  V30 5413 H 495.024 -2.39687 2.77391 0
M  V30 5414 H 494.672 -4.68562 1.82917 0
M  V30 5415 H 494.372 -4.6557 3.58494 0
M  V30 5416 H 495.896 -5.34327 2.95512 0
M  V30 5417 H 497.31 -3.62538 4.44116 0
M  V30 5418 H 495.707 -3.17549 5.09198 0
M  V30 5419 H 496.777 -1.91332 4.45556 0
M  V30 5420 N 498.12 -1.38341 -0.754957 0
M  V30 5421 C 499.368 -1.34208 -1.51105 0
M  V30 5422 C 499.689 0.0677634 -1.94882 0
M  V30 5423 O 498.959 1.01517 -1.67544 0
M  V30 5424 H 497.539 -0.493819 -0.560493 0
M  V30 5425 H 500.201 -1.73005 -0.897507 0
M  V30 5426 H 499.297 -1.99203 -2.4026 0
M  V30 5427 N 499.598 0.982988 -1.23187 0
M  V30 5428 C 500.875 1.69814 -0.970707 0
M  V30 5429 C 501.255 2.04811 0.511424 0
M  V30 5430 O 500.603 1.73924 1.48198 0
M  V30 5431 C 500.813 2.94143 -1.87831 0
M  V30 5432 C 502.161 3.66712 -2.14026 0
M  V30 5433 O 503.185 3.04171 -1.8536 0
M  V30 5434 O 502.044 4.79258 -2.62629 0
M  V30 5435 H 499.138 0.741659 -0.365884 0
M  V30 5436 H 501.684 1.03844 -1.34218 0
M  V30 5437 H 500.456 2.64858 -2.88038 0
M  V30 5438 H 500.079 3.6785 -1.50905 0
M  V30 5439 N 501.076 1.04316 1.18135 0
M  V30 5440 C 502.325 0.74319 1.87509 0
M  V30 5441 C 502.638 -0.732136 1.81381 0
M  V30 5442 O 503.844 -1.14572 2.46141 0
M  V30 5443 C 502.3 1.27913 3.36402 0
M  V30 5444 C 501.908 2.78326 3.51053 0
M  V30 5445 C 503.652 1.0558 4.11161 0
M  V30 5446 C 501.559 3.25266 4.93919 0
M  V30 5447 H 500.489 0.274313 0.702331 0
M  V30 5448 H 503.14 1.25931 1.33467 0
M  V30 5449 H 501.522 0.690853 3.89927 0
M  V30 5450 H 502.696 3.42933 3.07788 0
M  V30 5451 H 501.011 2.991 2.89704 0
M  V30 5452 H 503.608 1.38161 5.16542 0
M  V30 5453 H 503.951 -0.00684729 4.16299 0
M  V30 5454 H 504.484 1.60882 3.63816 0
M  V30 5455 H 501.223 4.30922 4.9395 0
M  V30 5456 H 500.743 2.65396 5.3789 0
M  V30 5457 H 502.422 3.19433 5.62647 0
M  V30 5458 N 502.554 -1.34406 0.822964 0
M  V30 5459 C 503.464 -2.33298 0.246838 0
M  V30 5460 C 504.48 -1.62625 -0.618797 0
M  V30 5461 O 505.656 -1.94391 -0.526685 0
M  V30 5462 C 502.721 -3.41785 -0.581731 0
M  V30 5463 C 501.782 -4.28206 0.306309 0
M  V30 5464 C 501.015 -5.31512 -0.48281 0
M  V30 5465 O 501.238 -5.43973 -1.71607 0
M  V30 5466 O 500.172 -6.01749 0.134884 0
M  V30 5467 H 503.998 -2.84401 1.06534 0
M  V30 5468 H 501.583 -1.37466 0.585108 0
M  V30 5469 H 503.465 -4.08028 -1.05313 0
M  V30 5470 H 502.14 -2.92925 -1.37756 0
M  V30 5471 H 501.047 -3.64885 0.825199 0
M  V30 5472 H 502.38 -4.80507 1.06649 0
M  V30 5473 N 504.032 -0.577932 -1.46621 0
M  V30 5474 C 505.281 -0.0594281 -2.01612 0
M  V30 5475 C 505.594 1.30663 -1.45556 0
M  V30 5476 O 506.8 1.91621 -1.92337 0
M  V30 5477 C 505.256 -0.0556666 -3.59857 0
M  V30 5478 C 504.864 -1.41975 -4.24908 0
M  V30 5479 C 506.608 0.409143 -4.22524 0
M  V30 5480 C 504.515 -1.37397 -5.75218 0
M  V30 5481 H 503.445 -0.0184469 -0.753774 0
M  V30 5482 H 506.096 -0.728869 -1.68404 0
M  V30 5483 H 504.478 0.679843 -3.90121 0
M  V30 5484 H 505.652 -2.17461 -4.0626 0
M  V30 5485 H 503.967 -1.82419 -3.74316 0
M  V30 5486 H 506.564 0.46211 -5.32699 0
M  V30 5487 H 506.907 1.42565 -3.91128 0
M  V30 5488 H 507.44 -0.272152 -3.96868 0
M  V30 5489 H 504.179 -2.36714 -6.11267 0
M  V30 5490 H 503.699 -0.661239 -5.96144 0
M  V30 5491 H 505.378 -1.08484 -6.3784 0
M  V30 5492 N 505.51 1.54411 -0.315457 0
M  V30 5493 C 506.473 2.22713 0.54142 0
M  V30 5494 C 507.473 1.2179 1.04995 0
M  V30 5495 O 508.663 1.46426 0.943667 0
M  V30 5496 C 505.795 2.92485 1.75116 0
M  V30 5497 H 506.988 2.99849 -0.0555508 0
M  V30 5498 H 504.541 1.56159 -0.0664453 0
M  V30 5499 H 505.276 2.19466 2.38758 0
M  V30 5500 H 505.061 3.66483 1.39401 0
M  V30 5501 H 506.551 3.44548 2.35959 0
M  V30 5502 N 506.988 0.0434614 1.5754 0
M  V30 5503 C 508.237 -0.631454 1.91561 0
M  V30 5504 C 508.55 -1.72457 0.92292 0
M  V30 5505 O 509.756 -2.45712 1.15489 0
M  V30 5506 C 508.212 -1.17447 3.40197 0
M  V30 5507 C 507.82 -0.113867 4.47855 0
M  V30 5508 C 509.564 -1.82507 3.83264 0
M  V30 5509 C 507.471 -0.669326 5.876 0
M  V30 5510 H 506.401 -0.239629 0.714908 0
M  V30 5511 H 509.052 0.111097 1.83163 0
M  V30 5512 H 507.434 -1.96909 3.43574 0
M  V30 5513 H 508.608 0.659348 4.56058 0
M  V30 5514 H 506.923 0.438821 4.14081 0
M  V30 5515 H 509.52 -2.25047 4.85034 0
M  V30 5516 H 509.863 -2.67365 3.19095 0
M  V30 5517 H 510.396 -1.09712 3.82372 0
M  V30 5518 H 507.135 0.141449 6.55347 0
M  V30 5519 H 506.655 -1.4107 5.82974 0
M  V30 5520 H 508.334 -1.15463 6.36614 0
M  V30 5521 N 508.466 -1.55915 -0.229846 0
M  V30 5522 C 509.413 -1.91734 -1.28478 0
M  V30 5523 C 510.383 -0.773539 -1.46988 0
M  V30 5524 O 511.568 -1.02871 -1.60693 0
M  V30 5525 C 508.708 -2.23224 -2.63182 0
M  V30 5526 C 507.821 -3.50497 -2.52539 0
M  V30 5527 C 506.956 -3.71474 -3.79711 0
M  V30 5528 C 505.995 -4.92289 -3.63755 0
M  V30 5529 N 505.132 -5.09698 -4.82858 0
M  V30 5530 H 509.972 -2.81692 -0.972308 0
M  V30 5531 H 507.509 -1.39429 -0.468815 0
M  V30 5532 H 509.467 -2.3949 -3.41614 0
M  V30 5533 H 508.097 -1.36451 -2.92542 0
M  V30 5534 H 507.149 -3.4247 -1.65585 0
M  V30 5535 H 508.461 -4.39079 -2.36666 0
M  V30 5536 H 507.615 -3.87791 -4.66586 0
M  V30 5537 H 506.354 -2.81157 -3.985 0
M  V30 5538 H 505.359 -4.7593 -2.75264 0
M  V30 5539 H 506.584 -5.84083 -3.46445 0
M  V30 5540 H 504.53 -4.22322 -5.01976 0
M  V30 5541 H 504.447 -5.92399 -4.69681 0
M  V30 5542 H 505.715 -5.30443 -5.71183 0
M  V30 5543 N 509.944 0.496216 -1.49584 0
M  V30 5544 C 510.874 1.60576 -1.69521 0
M  V30 5545 C 511.855 1.61169 -0.543933 0
M  V30 5546 O 513.04 1.77834 -0.78031 0
M  V30 5547 C 510.17 2.99038 -1.76616 0
M  V30 5548 C 509.124 3.13312 -2.91581 0
M  V30 5549 C 508.45 4.53172 -2.83794 0
M  V30 5550 C 509.75 2.92886 -4.32452 0
M  V30 5551 H 511.444 1.44146 -2.62416 0
M  V30 5552 H 508.99 0.692024 -1.26282 0
M  V30 5553 H 510.943 3.76564 -1.8915 0
M  V30 5554 H 509.667 3.16568 -0.80324 0
M  V30 5555 H 508.326 2.38213 -2.78658 0
M  V30 5556 H 507.974 4.67585 -1.854 0
M  V30 5557 H 507.674 4.63662 -3.60958 0
M  V30 5558 H 509.198 5.32752 -2.98342 0
M  V30 5559 H 510.612 3.60178 -4.46032 0
M  V30 5560 H 509.009 3.14844 -5.10875 0
M  V30 5561 H 510.079 1.88966 -4.46565 0
M  V30 5562 N 511.423 1.38739 0.74761 0
M  V30 5563 C 512.669 1.35475 1.50912 0
M  V30 5564 C 513.002 -0.0533093 1.94127 0
M  V30 5565 O 512.277 -1.01572 1.65871 0
M  V30 5566 C 512.56 2.31582 2.75757 0
M  V30 5567 C 512.413 3.81274 2.38642 0
M  V30 5568 C 513.732 2.25722 3.77806 0
M  V30 5569 H 510.851 0.493427 0.547447 0
M  V30 5570 H 513.493 1.69634 0.855823 0
M  V30 5571 H 511.643 2.02582 3.31501 0
M  V30 5572 H 513.315 4.20972 1.88626 0
M  V30 5573 H 511.558 3.98664 1.71025 0
M  V30 5574 H 512.229 4.4399 3.27989 0
M  V30 5575 H 514.705 2.51336 3.31616 0
M  V30 5576 H 513.581 2.95069 4.62845 0
M  V30 5577 H 513.842 1.25803 4.23823 0
M  V30 5578 N 512.901 -0.976442 1.23707 0
M  V30 5579 C 513.848 -2.06952 1.02174 0
M  V30 5580 C 514.818 -1.65984 -0.0621034 0
M  V30 5581 O 516.003 -1.90584 0.0907906 0
M  V30 5582 C 513.143 -3.39425 0.62327 0
M  V30 5583 C 512.256 -3.9364 1.77966 0
M  V30 5584 C 511.391 -5.14343 1.3276 0
M  V30 5585 C 510.43 -5.60733 2.45449 0
M  V30 5586 N 509.567 -6.72662 2.01172 0
M  V30 5587 H 514.407 -2.24704 1.95734 0
M  V30 5588 H 511.944 -1.10143 0.975034 0
M  V30 5589 H 513.902 -4.15526 0.37332 0
M  V30 5590 H 512.532 -3.21624 -0.275329 0
M  V30 5591 H 511.584 -3.14258 2.14351 0
M  V30 5592 H 512.896 -4.24035 2.62671 0
M  V30 5593 H 512.05 -5.97789 1.03601 0
M  V30 5594 H 510.789 -4.8561 0.450975 0
M  V30 5595 H 509.794 -4.75865 2.75378 0
M  V30 5596 H 511.019 -5.91483 3.33654 0
M  V30 5597 H 508.965 -6.45681 1.15895 0
M  V30 5598 H 508.882 -7.02462 2.79434 0
M  V30 5599 H 510.15 -7.59572 1.75129 0
M  V30 5600 N 514.379 -1.04941 -1.1758 0
M  V30 5601 C 515.607 -0.778294 -1.91703 0
M  V30 5602 C 516.022 0.665697 -1.76675 0
M  V30 5603 O 515.379 1.45456 -1.10222 0
M  V30 5604 C 515.43 -1.14628 -3.42845 0
M  V30 5605 O 515.151 -2.53359 -3.57409 0
M  V30 5606 C 516.652 -0.900931 -4.34049 0
M  V30 5607 H 513.872 -0.283167 -0.608323 0
M  V30 5608 H 516.416 -1.39942 -1.49119 0
M  V30 5609 H 514.571 -0.569953 -3.83184 0
M  V30 5610 H 514.985 -2.67709 -4.51035 0
M  V30 5611 H 516.459 -1.20817 -5.38616 0
M  V30 5612 H 516.936 0.163966 -4.38894 0
M  V30 5613 H 517.542 -1.46097 -3.99419 0
M  V30 5614 N 515.857 1.33968 -0.830081 0
M  V30 5615 C 516.767 2.33164 -0.259207 0
M  V30 5616 C 517.783 1.62951 0.610164 0
M  V30 5617 O 518.959 1.94668 0.516369 0
M  V30 5618 C 516.024 3.42088 0.563598 0
M  V30 5619 C 515.085 4.28037 -0.329014 0
M  V30 5620 C 514.318 5.3176 0.454616 0
M  V30 5621 O 514.541 5.44876 1.6872 0
M  V30 5622 O 513.475 6.01669 -0.166794 0
M  V30 5623 H 517.301 2.83832 -1.08041 0
M  V30 5624 H 514.886 1.37154 -0.59239 0
M  V30 5625 H 516.768 4.08581 1.03147 0
M  V30 5626 H 515.443 2.93651 1.36201 0
M  V30 5627 H 514.35 3.64443 -0.844538 0
M  V30 5628 H 515.683 4.79934 -1.09196 0
M  V30 5629 N 517.335 0.585699 1.46312 0
M  V30 5630 C 518.265 -0.133556 2.33118 0
M  V30 5631 C 519.246 -0.880707 1.45525 0
M  V30 5632 O 520.431 -0.855579 1.74337 0
M  V30 5633 C 517.561 -1.14585 3.27853 0
M  V30 5634 C 516.515 -0.513341 4.2491 0
M  V30 5635 C 515.841 -1.63231 5.09175 0
M  V30 5636 C 517.141 0.551413 5.19381 0
M  V30 5637 H 518.835 0.59121 2.93505 0
M  V30 5638 H 516.381 0.285761 1.41136 0
M  V30 5639 H 518.334 -1.65741 3.87438 0
M  V30 5640 H 517.058 -1.90093 2.65579 0
M  V30 5641 H 515.717 -0.0228349 3.66593 0
M  V30 5642 H 515.365 -2.37713 4.43285 0
M  V30 5643 H 515.065 -1.21473 5.74907 0
M  V30 5644 H 516.589 -2.14658 5.71624 0
M  V30 5645 H 518.003 0.124804 5.73164 0
M  V30 5646 H 516.4 0.889486 5.93471 0
M  V30 5647 H 517.47 1.43655 4.63132 0
M  V30 5648 N 518.813 -1.54241 0.323641 0
M  V30 5649 C 519.745 -2.21836 -0.576311 0
M  V30 5650 C 520.758 -1.21837 -1.07979 0
M  V30 5651 O 521.947 -1.48306 -0.99336 0
M  V30 5652 C 519.047 -2.86923 -1.80356 0
M  V30 5653 C 518.22 -4.1306 -1.43875 0
M  V30 5654 C 517.279 -4.6174 -2.52353 0
M  V30 5655 O 516.305 -5.26421 -2.16494 0
M  V30 5656 N 517.507 -4.35974 -3.83284 0
M  V30 5657 H 520.272 -2.997 0.00247987 0
M  V30 5658 H 517.833 -1.61233 0.146848 0
M  V30 5659 H 519.825 -3.16414 -2.52318 0
M  V30 5660 H 518.395 -2.12765 -2.29019 0
M  V30 5661 H 517.615 -3.90334 -0.550752 0
M  V30 5662 H 518.903 -4.95148 -1.17071 0
M  V30 5663 H 518.301 -3.84203 -4.15216 0
M  V30 5664 H 516.858 -4.70119 -4.51477 0
M  V30 5665 N 520.291 -0.0518155 -1.57515 0
M  V30 5666 C 521.516 0.634896 -1.97443 0
M  V30 5667 C 521.941 1.63546 -0.929207 0
M  V30 5668 O 521.299 1.80981 0.107484 0
M  V30 5669 C 521.347 1.29765 -3.36442 0
M  V30 5670 O 520.451 2.41333 -3.34413 0
M  V30 5671 H 519.792 0.164994 -0.643174 0
M  V30 5672 H 522.322 -0.120407 -2.04245 0
M  V30 5673 H 522.332 1.64918 -3.73184 0
M  V30 5674 H 521.007 0.564361 -4.12053 0
M  V30 5675 H 519.584 2.08122 -3.09418 0
M  V30 5676 N 521.769 1.56035 0.221574 0
M  V30 5677 C 523.18 1.69229 0.788567 0
M  V30 5678 C 523.531 0.653814 1.84986 0
M  V30 5679 O 522.656 -0.195065 2.15519 0
M  V30 5680 C 523.251 3.06809 1.43713 0
M  V30 5681 C 521.81 3.21858 1.95152 0
M  V30 5682 C 520.957 2.65155 0.811685 0
M  V30 5683 H 523.908 1.587 -0.00307894 0
M  V30 5684 H 523.929 3.02666 2.30594 0
M  V30 5685 H 523.441 3.82369 0.664475 0
M  V30 5686 H 521.542 2.51167 2.7522 0
M  V30 5687 H 521.655 4.29073 2.1315 0
M  V30 5688 H 520.019 2.23635 1.21899 0
M  V30 5689 H 520.802 3.43261 0.0516987 0
M  V30 5690 N 523.247 -0.488276 1.49845 0
M  V30 5691 C 524.157 -1.61451 1.70207 0
M  V30 5692 C 525.173 -1.63877 0.584846 0
M  V30 5693 O 526.349 -1.82063 0.861107 0
M  V30 5694 C 523.414 -2.9776 1.77594 0
M  V30 5695 C 522.475 -3.05861 3.01243 0
M  V30 5696 C 521.708 -4.35668 3.08268 0
M  V30 5697 O 521.931 -5.25197 2.22541 0
M  V30 5698 O 520.865 -4.49005 4.00847 0
M  V30 5699 H 524.691 -1.47199 2.65643 0
M  V30 5700 H 522.276 -0.665939 1.33737 0
M  V30 5701 H 524.158 -3.7875 1.84732 0
M  V30 5702 H 522.833 -3.12248 0.8534 0
M  V30 5703 H 521.74 -2.24012 2.99616 0
M  V30 5704 H 523.073 -2.96304 3.9302 0
M  V30 5705 N 524.725 -1.39134 -0.740242 0
M  V30 5706 C 525.675 -1.33928 -1.84519 0
M  V30 5707 C 526.659 -0.221097 -1.59374 0
M  V30 5708 O 527.851 -0.458195 -1.70967 0
M  V30 5709 C 524.98 -1.17991 -3.22387 0
M  V30 5710 C 524.066 -2.34488 -3.53378 0
M  V30 5711 N 524.457 -3.59954 -3.5534 0
M  V30 5712 C 522.755 -2.27331 -3.83714 0
M  V30 5713 C 523.456 -4.36962 -3.83978 0
M  V30 5714 N 522.432 -3.66482 -4.01487 0
M  V30 5715 H 526.234 -2.28907 -1.84333 0
M  V30 5716 H 523.748 -1.32555 -0.938237 0
M  V30 5717 H 525.745 -1.12345 -4.01478 0
M  V30 5718 H 524.405 -0.23957 -3.23815 0
M  V30 5719 H 525.416 -3.93448 -3.36778 0
M  V30 5720 H 522.093 -1.41531 -3.92779 0
M  V30 5721 H 523.483 -5.45692 -3.92008 0
M  V30 5722 N 526.204 0.969867 -1.24223 0
M  V30 5723 C 527.615 1.52717 -1.07399 0
M  V30 5724 C 527.966 1.92956 0.355298 0
M  V30 5725 O 527.091 1.77112 1.2434 0
M  V30 5726 C 527.686 2.77521 -1.94339 0
M  V30 5727 C 526.245 3.29615 -1.81744 0
M  V30 5728 C 525.392 2.02537 -1.89405 0
M  V30 5729 H 528.343 0.788399 -1.37732 0
M  V30 5730 H 528.364 3.50773 -1.47439 0
M  V30 5731 H 527.876 2.48203 -2.98357 0
M  V30 5732 H 525.977 3.63789 -0.805505 0
M  V30 5733 H 526.09 3.98661 -2.65718 0
M  V30 5734 H 524.454 2.17151 -1.33108 0
M  V30 5735 H 525.237 1.75587 -2.94999 0
M  V30 5736 N 527.682 1.05563 1.17022 0
M  V30 5737 C 528.612 0.681026 2.23348 0
M  V30 5738 C 529.593 -0.322983 1.67005 0
M  V30 5739 O 530.778 -0.199746 1.9317 0
M  V30 5740 C 527.908 0.0589053 3.4725 0
M  V30 5741 C 526.862 0.988082 4.16438 0
M  V30 5742 C 526.188 0.229646 5.34207 0
M  V30 5743 C 527.488 2.31388 4.68249 0
M  V30 5744 H 529.182 1.56993 2.54938 0
M  V30 5745 H 526.728 0.756302 1.2254 0
M  V30 5746 H 528.681 -0.214982 4.20851 0
M  V30 5747 H 527.405 -0.864968 3.14938 0
M  V30 5748 H 526.064 1.24659 3.44754 0
M  V30 5749 H 525.712 -0.697111 4.98146 0
M  V30 5750 H 525.412 0.848815 5.81437 0
M  V30 5751 H 526.936 -0.0368694 6.10589 0
M  V30 5752 H 528.35 2.09964 5.33468 0
M  V30 5753 H 526.747 2.88736 5.26072 0
M  V30 5754 H 527.817 2.94982 3.84855 0
M  V30 5755 N 529.16 -1.33526 0.837174 0
M  V30 5756 C 530.437 -1.92369 0.354065 0
M  V30 5757 C 530.817 -1.76348 -1.16038 0
M  V30 5758 O 530.165 -1.15083 -1.97403 0
M  V30 5759 C 530.375 -3.39728 0.799101 0
M  V30 5760 C 531.723 -4.16877 0.806139 0
M  V30 5761 O 532.747 -3.48373 0.742597 0
M  V30 5762 O 531.606 -5.39166 0.892345 0
M  V30 5763 H 528.7 -0.820952 0.0998378 0
M  V30 5764 H 531.246 -1.42409 0.922913 0
M  V30 5765 H 530.018 -3.45254 1.84162 0
M  V30 5766 H 529.641 -3.97062 0.206731 0
M  V30 5767 N 530.638 -0.59345 -1.46 0
M  V30 5768 C 531.57 0.171569 -2.28557 0
M  V30 5769 C 532.583 0.845273 -1.39137 0
M  V30 5770 O 533.772 0.713033 -1.6364 0
M  V30 5771 C 530.872 1.26311 -3.14482 0
M  V30 5772 C 530.045 0.679258 -4.32094 0
M  V30 5773 C 529.104 1.65987 -4.99334 0
M  V30 5774 O 528.13 1.19171 -5.56585 0
M  V30 5775 N 529.332 2.99414 -4.97324 0
M  V30 5776 H 532.097 -0.536771 -2.94854 0
M  V30 5777 H 529.658 -0.431954 -1.56031 0
M  V30 5778 H 531.65 1.91863 -3.5633 0
M  V30 5779 H 530.22 1.87416 -2.50188 0
M  V30 5780 H 529.44 -0.153992 -3.93899 0
M  V30 5781 H 530.728 0.26916 -5.08088 0
M  V30 5782 H 530.126 3.40064 -4.52076 0
M  V30 5783 H 528.683 3.60426 -5.4308 0
M  V30 5784 N 532.116 1.54067 -0.331816 0
M  V30 5785 C 533.066 2.21363 0.546101 0
M  V30 5786 C 534.05 1.19698 1.07523 0
M  V30 5787 O 535.242 1.45293 1.01088 0
M  V30 5788 C 532.371 2.98115 1.70242 0
M  V30 5789 C 531.457 4.07127 1.18779 0
M  V30 5790 N 531.848 5.04267 0.393465 0
M  V30 5791 C 530.146 4.21226 1.46576 0
M  V30 5792 C 530.847 5.81585 0.115572 0
M  V30 5793 N 529.823 5.39022 0.703987 0
M  V30 5794 H 533.625 2.93821 -0.0679751 0
M  V30 5795 H 531.139 1.61812 -0.138085 0
M  V30 5796 H 533.136 3.44818 2.34321 0
M  V30 5797 H 531.796 2.27181 2.31989 0
M  V30 5798 H 532.807 5.17888 0.0355757 0
M  V30 5799 H 529.484 3.61509 2.08848 0
M  V30 5800 H 530.874 6.6985 -0.524426 0
M  V30 5801 N 533.594 0.0601682 1.57485 0
M  V30 5802 C 534.824 -0.620037 1.97076 0
M  V30 5803 C 535.232 -1.64381 0.936784 0
M  V30 5804 O 534.575 -1.83497 -0.0863377 0
M  V30 5805 C 534.637 -1.35617 3.32939 0
M  V30 5806 C 534.301 -0.487208 4.54396 0
M  V30 5807 C 535.298 0.250428 5.19297 0
M  V30 5808 C 532.983 -0.415494 5.00579 0
M  V30 5809 C 534.977 1.04812 6.28723 0
M  V30 5810 C 532.664 0.385879 6.0988 0
M  V30 5811 C 533.662 1.11637 6.73815 0
M  V30 5812 O 533.35 1.90454 7.81014 0
M  V30 5813 H 533.082 -0.173664 0.653312 0
M  V30 5814 H 535.636 0.1256 2.05016 0
M  V30 5815 H 533.866 -2.14763 3.2158 0
M  V30 5816 H 535.555 -1.92749 3.57215 0
M  V30 5817 H 536.321 0.204546 4.84568 0
M  V30 5818 H 532.2 -0.973679 4.506 0
M  V30 5819 H 535.744 1.6188 6.78558 0
M  V30 5820 H 531.641 0.433366 6.44044 0
M  V30 5821 H 532.409 1.82762 7.97835 0
M  V30 5822 N 535.072 -1.5615 -0.213296 0
M  V30 5823 C 536.488 -1.49327 -0.56336 0
M  V30 5824 C 536.688 -0.756826 -1.86747 0
M  V30 5825 O 535.744 -0.299866 -2.50713 0
M  V30 5826 C 537.057 -2.9392 -0.634944 0
M  V30 5827 C 538.605 -3.04487 -0.725013 0
M  V30 5828 C 539.08 -4.50456 -0.82787 0
M  V30 5829 N 540.571 -4.54533 -0.891876 0
M  V30 5830 C 541.306 -5.64766 -0.991315 0
M  V30 5831 N 540.802 -6.84733 -1.05419 0
M  V30 5832 N 542.595 -5.52637 -1.02709 0
M  V30 5833 H 534.746 -2.02453 0.642366 0
M  V30 5834 H 537.009 -0.920548 0.226487 0
M  V30 5835 H 536.715 -3.50783 0.253859 0
M  V30 5836 H 536.589 -3.46274 -1.49579 0
M  V30 5837 H 538.976 -2.47685 -1.60425 0
M  V30 5838 H 539.057 -2.55289 0.161669 0
M  V30 5839 H 538.701 -5.07878 0.0469464 0
M  V30 5840 H 538.631 -4.97369 -1.73009 0
M  V30 5841 H 541.122 -3.68141 -0.85327 0
M  V30 5842 H 541.435 -7.64493 -1.13007 0
M  V30 5843 H 539.78 -6.87427 -1.02318 0
M  V30 5844 H 542.971 -4.5784 -0.974687 0
M  V30 5845 H 543.144 -6.38576 -1.10113 0
M  V30 5846 N 536.55 0.480323 -1.50102 0
M  V30 5847 C 537.498 1.60024 -1.68805 0
M  V30 5848 C 538.492 1.60089 -0.553888 0
M  V30 5849 O 539.698 1.64349 -0.734127 0
M  V30 5850 H 536.073 0.530841 -0.532646 0
M  V30 5851 H 538.044 1.41408 -2.62767 0
M  V30 5852 C 536.793 2.98029 -1.79092 0
M  V30 5853 H 536.116 2.98694 -2.65748 0
M  V30 5854 H 537.556 3.75871 -1.96206 0
M  V30 5855 C 536.015 3.32538 -0.540388 0
M  V30 5856 O 536.545 4.00386 0.324637 0
M  V30 5857 N 534.751 2.87873 -0.397154 0
M  V30 5858 H 534.298 2.32834 -1.1021 0
M  V30 5859 H 534.256 3.11328 0.438425 0
M  V30 5860 N 538.028 1.39524 0.732853 0
M  V30 5861 C 538.958 1.41153 1.86005 0
M  V30 5862 C 539.939 0.274614 1.67869 0
M  V30 5863 O 541.124 0.480745 1.88155 0
M  V30 5864 C 538.254 1.25638 3.23778 0
M  V30 5865 C 537.208 2.36752 3.56556 0
M  V30 5866 C 536.534 2.06326 4.93289 0
M  V30 5867 C 537.834 3.79069 3.5931 0
M  V30 5868 H 539.528 2.35484 1.84899 0
M  V30 5869 H 537.074 1.13348 0.888162 0
M  V30 5870 H 539.027 1.25398 4.0231 0
M  V30 5871 H 537.751 0.277772 3.25417 0
M  V30 5872 H 536.41 2.36213 2.80355 0
M  V30 5873 H 536.058 1.06897 4.9151 0
M  V30 5874 H 535.758 2.80757 5.16187 0
M  V30 5875 H 537.282 2.07739 5.74175 0
M  V30 5876 H 538.696 3.81526 4.27914 0
M  V30 5877 H 537.093 4.52878 3.93728 0
M  V30 5878 H 538.163 4.09893 2.59068 0
M  V30 5879 N 539.506 -0.963266 1.24736 0
M  V30 5880 C 540.456 -2.0438 1.01058 0
M  V30 5881 C 541.44 -1.60824 -0.0495354 0
M  V30 5882 O 542.632 -1.76232 0.164741 0
M  V30 5883 C 539.761 -3.37617 0.622067 0
M  V30 5884 C 538.847 -3.87722 1.7185 0
M  V30 5885 N 539.238 -4.10715 2.95207 0
M  V30 5886 C 537.536 -4.16426 1.59703 0
M  V30 5887 C 538.237 -4.51872 3.66315 0
M  V30 5888 N 537.213 -4.57302 2.93897 0
M  V30 5889 H 541.015 -2.20138 1.94721 0
M  V30 5890 H 538.529 -1.14741 1.14927 0
M  V30 5891 H 540.526 -4.14638 0.43366 0
M  V30 5892 H 539.186 -3.23242 -0.307327 0
M  V30 5893 H 540.197 -3.98037 3.31341 0
M  V30 5894 H 536.874 -4.10962 0.73598 0
M  V30 5895 H 538.264 -4.78037 4.72155 0
M  V30 5896 N 540.985 -1.06182 -1.16461 0
M  V30 5897 C 542.225 -0.787048 -1.8864 0
M  V30 5898 C 542.589 0.674093 -1.79778 0
M  V30 5899 O 543.79 1.06341 -2.46871 0
M  V30 5900 C 542.061 -1.2666 -3.34203 0
M  V30 5901 S 543.62 -1.12071 -4.24247 0
M  V30 5902 H 540.438 -0.285539 -0.651144 0
M  V30 5903 H 543.04 -1.35851 -1.40587 0
M  V30 5904 H 541.744 -2.32496 -3.38192 0
M  V30 5905 H 541.275 -0.689841 -3.87304 0
M  V30 5906 H 543.29 -0.0509341 -4.96174 0
M  V30 5907 N 542.463 1.3308 -0.844243 0
M  V30 5908 C 543.426 2.27403 -0.286485 0
M  V30 5909 C 544.426 1.51179 0.547872 0
M  V30 5910 O 545.616 1.70421 0.360886 0
M  V30 5911 C 542.748 3.35653 0.595813 0
M  V30 5912 H 543.941 2.78248 -1.11885 0
M  V30 5913 H 541.494 1.43574 -0.617749 0
M  V30 5914 H 542.229 2.90058 1.4504 0
M  V30 5915 H 542.014 3.921 -0.00125994 0
M  V30 5916 H 543.504 4.05958 0.979168 0
M  V30 5917 N 543.941 0.601185 1.45683 0
M  V30 5918 C 544.871 -0.108824 2.33246 0
M  V30 5919 C 545.852 -0.865223 1.46451 0
M  V30 5920 O 547.037 -0.83704 1.75235 0
M  V30 5921 C 544.167 -1.11101 3.2905 0
M  V30 5922 C 543.121 -0.468244 4.25431 0
M  V30 5923 C 542.447 -1.57822 5.10878 0
M  V30 5924 C 543.747 0.606469 5.18767 0
M  V30 5925 H 545.441 0.622306 2.92861 0
M  V30 5926 H 542.987 0.300714 1.40825 0
M  V30 5927 H 544.94 -1.61622 3.89174 0
M  V30 5928 H 543.664 -1.87265 2.67581 0
M  V30 5929 H 542.323 0.0160484 3.66596 0
M  V30 5930 H 541.971 -2.32998 4.45781 0
M  V30 5931 H 541.671 -1.15369 5.76163 0
M  V30 5932 H 543.195 -2.08583 5.73869 0
M  V30 5933 H 544.609 0.185589 5.73 0
M  V30 5934 H 543.006 0.952381 5.92494 0
M  V30 5935 H 544.076 1.48559 4.61582 0
M  V30 5936 N 545.419 -1.53889 0.339982 0
M  V30 5937 C 546.835 -1.59595 -0.0120752 0
M  V30 5938 C 547.035 -1.35605 -1.49042 0
M  V30 5939 O 546.091 -1.14856 -2.24865 0
M  V30 5940 C 547.404 -2.9774 0.420898 0
M  V30 5941 C 548.952 -3.1077 0.37294 0
M  V30 5942 C 549.427 -4.51286 0.781327 0
M  V30 5943 N 550.918 -4.57325 0.735374 0
M  V30 5944 C 551.653 -5.64194 1.02336 0
M  V30 5945 N 551.149 -6.7893 1.37933 0
M  V30 5946 N 552.942 -5.54051 0.947838 0
M  V30 5947 H 545.093 -1.67738 1.30299 0
M  V30 5948 H 547.356 -0.785385 0.530918 0
M  V30 5949 H 547.062 -3.20349 1.45152 0
M  V30 5950 H 546.936 -3.76639 -0.205721 0
M  V30 5951 H 549.323 -2.87886 -0.648505 0
M  V30 5952 H 549.404 -2.33939 1.03472 0
M  V30 5953 H 549.048 -4.74905 1.80077 0
M  V30 5954 H 548.978 -5.26511 0.0970679 0
M  V30 5955 H 551.469 -3.74931 0.472773 0
M  V30 5956 H 551.782 -7.56392 1.58402 0
M  V30 5957 H 550.127 -6.80386 1.41774 0
M  V30 5958 H 553.318 -4.63293 0.669115 0
M  V30 5959 H 553.491 -6.37246 1.17563 0
M  V30 5960 N 546.897 -0.0685191 -1.57451 0
M  V30 5961 C 548.308 0.464634 -1.80826 0
M  V30 5962 C 548.659 1.69847 -0.982169 0
M  V30 5963 O 547.784 2.15439 -0.203734 0
M  V30 5964 C 548.379 0.849721 -3.27971 0
M  V30 5965 C 546.938 1.32776 -3.52204 0
M  V30 5966 C 546.085 0.311332 -2.75547 0
M  V30 5967 H 549.036 -0.294248 -1.55948 0
M  V30 5968 H 549.057 1.71138 -3.39841 0
M  V30 5969 H 548.569 -0.0484736 -3.8807 0
M  V30 5970 H 546.67 2.24456 -2.97406 0
M  V30 5971 H 546.783 1.30794 -4.60901 0
M  V30 5972 H 545.147 0.787915 -2.42206 0
M  V30 5973 H 545.93 -0.579078 -3.38381 0
M  V30 5974 N 548.375 1.56261 0.205012 0
M  V30 5975 C 549.305 1.96779 1.257 0
M  V30 5976 C 550.286 0.838309 1.48008 0
M  V30 5977 O 551.471 1.10189 1.59913 0
M  V30 5978 C 548.601 2.29876 2.60335 0
M  V30 5979 C 547.555 3.45469 2.52656 0
M  V30 5980 C 546.881 3.64215 3.91473 0
M  V30 5981 C 548.181 4.79954 2.06014 0
M  V30 5982 H 549.875 2.84904 0.920338 0
M  V30 5983 H 547.421 1.37072 0.441277 0
M  V30 5984 H 549.374 2.56814 3.34102 0
M  V30 5985 H 548.098 1.38622 2.95722 0
M  V30 5986 H 546.757 3.18605 1.81345 0
M  V30 5987 H 546.405 2.70309 4.24196 0
M  V30 5988 H 546.105 4.41973 3.87213 0
M  V30 5989 H 547.629 3.93519 4.66878 0
M  V30 5990 H 549.043 5.05989 2.69533 0
M  V30 5991 H 547.44 5.61111 2.12777 0
M  V30 5992 H 548.51 4.74201 1.01297 0
M  V30 5993 N 549.853 -0.472356 1.50355 0
M  V30 5994 C 551.13 -1.23356 1.51798 0
M  V30 5995 C 551.51 -2.09469 0.26193 0
M  V30 5996 O 550.858 -2.15677 -0.754691 0
M  V30 5997 C 551.068 -2.06568 2.81302 0
M  V30 5998 C 552.416 -2.648 3.31913 0
M  V30 5999 O 553.44 -2.16812 2.82614 0
M  V30 6000 O 552.299 -3.52231 4.17846 0
M  V30 6001 H 549.393 -0.559707 0.608816 0
M  V30 6002 H 551.939 -0.48428 1.62643 0
M  V30 6003 H 550.711 -1.43103 3.64194 0
M  V30 6004 H 550.334 -2.88633 2.73454 0
M  V30 6005 N 551.331 -1.39911 -0.725443 0
M  V30 6006 C 552.281 -1.35878 -1.83088 0
M  V30 6007 C 553.265 -0.237989 -1.5913 0
M  V30 6008 O 554.457 -0.476302 -1.70471 0
M  V30 6009 C 551.586 -1.21403 -3.21117 0
M  V30 6010 C 550.672 -2.38223 -3.50871 0
M  V30 6011 N 551.063 -3.63703 -3.51502 0
M  V30 6012 C 549.361 -2.31388 -3.81281 0
M  V30 6013 C 550.062 -4.4101 -3.79322 0
M  V30 6014 N 549.038 -3.7072 -3.97577 0
M  V30 6015 H 552.84 -2.3085 -1.81895 0
M  V30 6016 H 550.354 -1.33543 -0.924125 0
M  V30 6017 H 552.351 -1.16597 -4.00263 0
M  V30 6018 H 551.011 -0.273902 -3.23543 0
M  V30 6019 H 552.022 -3.96998 -3.32586 0
M  V30 6020 H 548.699 -1.45689 -3.91256 0
M  V30 6021 H 550.089 -5.49819 -3.86198 0
M  V30 6022 N 552.809 0.956637 -1.25245 0
M  V30 6023 C 553.719 2.0868 -1.0719 0
M  V30 6024 C 554.735 1.73997 -0.00959074 0
M  V30 6025 O 555.911 2.00301 -0.210104 0
M  V30 6026 C 552.976 3.39754 -0.690526 0
M  V30 6027 C 552.037 3.88316 -1.83055 0
M  V30 6028 C 551.27 5.13134 -1.46728 0
M  V30 6029 O 551.493 5.6925 -0.362029 0
M  V30 6030 O 550.427 5.56356 -2.29677 0
M  V30 6031 H 554.253 2.26813 -2.01965 0
M  V30 6032 H 551.838 1.07098 -1.04165 0
M  V30 6033 H 553.72 4.18543 -0.489871 0
M  V30 6034 H 552.395 3.22896 0.227981 0
M  V30 6035 H 551.302 3.1054 -2.08604 0
M  V30 6036 H 552.635 4.09669 -2.72822 0
M  V30 6037 N 554.287 1.06798 1.15896 0
M  V30 6038 C 555.512 0.808739 1.90982 0
M  V30 6039 C 555.937 -0.6316 1.77179 0
M  V30 6040 O 555.295 -1.4407 1.10061 0
M  V30 6041 C 555.343 1.21468 3.39526 0
M  V30 6042 O 554.447 0.356562 4.10856 0
M  V30 6043 H 553.788 0.29512 0.594811 0
M  V30 6044 H 556.318 1.42513 1.46804 0
M  V30 6045 H 556.328 1.18844 3.90308 0
M  V30 6046 H 555.003 2.26379 3.48891 0
M  V30 6047 H 553.58 0.444808 3.70238 0
M  V30 6048 N 555.766 -1.3263 0.851289 0
M  V30 6049 C 556.996 -2.01271 0.466222 0
M  V30 6050 C 557.404 -1.64156 -0.940714 0
M  V30 6051 O 556.747 -0.857109 -1.62479 0
M  V30 6052 C 556.809 -3.55695 0.521672 0
M  V30 6053 C 556.473 -4.16227 1.88691 0
M  V30 6054 C 557.47 -4.34699 2.85189 0
M  V30 6055 C 555.155 -4.52377 2.18313 0
M  V30 6056 C 557.149 -4.88484 4.09465 0
M  V30 6057 C 554.836 -5.05868 3.42843 0
M  V30 6058 C 555.834 -5.23869 4.38235 0
M  V30 6059 O 555.522 -5.76218 5.6056 0
M  V30 6060 H 555.254 -0.651034 0.18202 0
M  V30 6061 H 557.808 -1.7026 1.14894 0
M  V30 6062 H 556.038 -3.86086 -0.217888 0
M  V30 6063 H 557.727 -4.05613 0.152682 0
M  V30 6064 H 558.493 -4.07107 2.63607 0
M  V30 6065 H 554.372 -4.37652 1.44851 0
M  V30 6066 H 557.916 -5.02451 4.83931 0
M  V30 6067 H 553.813 -5.32891 3.64277 0
M  V30 6068 H 554.581 -5.94616 5.62471 0
M  V30 6069 N 557.244 -0.608902 -1.45362 0
M  V30 6070 C 558.154 0.110969 -2.34337 0
M  V30 6071 C 559.17 0.859007 -1.51318 0
M  V30 6072 O 560.346 0.816296 -1.84116 0
M  V30 6073 C 557.411 1.09494 -3.28956 0
M  V30 6074 C 556.472 0.348718 -4.27881 0
M  V30 6075 C 555.705 1.28582 -5.17979 0
M  V30 6076 O 555.928 2.52369 -5.11533 0
M  V30 6077 O 554.862 0.782172 -5.96796 0
M  V30 6078 H 558.688 -0.620258 -2.97299 0
M  V30 6079 H 556.273 -0.36916 -1.44767 0
M  V30 6080 H 558.155 1.66163 -3.87257 0
M  V30 6081 H 556.83 1.80717 -2.68557 0
M  V30 6082 H 555.737 -0.260465 -3.73192 0
M  V30 6083 H 557.07 -0.323049 -4.91139 0
M  V30 6084 N 558.722 1.53707 -0.348139 0
M  V30 6085 C 559.969 2.00988 0.246966 0
M  V30 6086 C 560.297 1.23586 1.50189 0
M  V30 6087 O 559.552 0.312817 1.93184 0
M  V30 6088 C 559.851 3.52292 0.602061 0
M  V30 6089 C 559.517 4.47453 -0.556509 0
M  V30 6090 C 558.179 4.73188 -0.874446 0
M  V30 6091 C 560.531 5.03851 -1.33354 0
M  V30 6092 C 557.859 5.52577 -1.9717 0
M  V30 6093 C 560.211 5.84437 -2.42108 0
M  V30 6094 C 558.875 6.08465 -2.74456 0
M  V30 6095 H 558.145 0.735469 0.0903712 0
M  V30 6096 H 560.792 1.85464 -0.477001 0
M  V30 6097 H 559.097 3.65672 1.40681 0
M  V30 6098 H 560.794 3.86337 1.07447 0
M  V30 6099 H 557.384 4.27558 -0.298652 0
M  V30 6100 H 561.568 4.8393 -1.10117 0
M  V30 6101 H 556.824 5.69418 -2.22651 0
M  V30 6102 H 560.998 6.27151 -3.02745 0
M  V30 6103 H 558.625 6.69768 -3.59604 0
M  V30 6104 N 560.2 0.0768682 1.57412 0
M  V30 6105 C 561.147 -0.888577 2.13009 0
M  V30 6106 C 562.117 -1.29198 1.0439 0
M  V30 6107 O 563.302 -1.37694 1.3208 0
M  V30 6108 C 560.442 -2.14899 2.70023 0
M  V30 6109 C 559.555 -1.79777 3.92816 0
M  V30 6110 C 558.69 -3.00467 4.38056 0
M  V30 6111 C 557.729 -2.61385 5.53484 0
M  V30 6112 N 556.866 -3.74851 5.93659 0
M  V30 6113 H 561.706 -0.407593 2.95199 0
M  V30 6114 H 559.243 -0.189534 1.45874 0
M  V30 6115 H 561.201 -2.88688 3.0119 0
M  V30 6116 H 559.831 -2.60529 1.9059 0
M  V30 6117 H 558.883 -0.960301 3.68079 0
M  V30 6118 H 560.195 -1.47027 4.76639 0
M  V30 6119 H 559.349 -3.82529 4.7091 0
M  V30 6120 H 558.088 -3.36413 3.53097 0
M  V30 6121 H 557.093 -1.77746 5.20275 0
M  V30 6122 H 558.318 -2.26603 6.40178 0
M  V30 6123 H 556.264 -4.1055 5.11649 0
M  V30 6124 H 556.181 -3.45887 6.72234 0
M  V30 6125 H 557.449 -4.57477 6.31138 0
M  V30 6126 N 561.678 -1.56367 -0.196722 0
M  V30 6127 C 562.924 -1.80796 -0.918725 0
M  V30 6128 C 563.257 -0.650645 -1.82976 0
M  V30 6129 O 562.532 0.348889 -1.91345 0
M  V30 6130 C 562.815 -3.15472 -1.73636 0
M  V30 6131 C 562.668 -4.41693 -0.85015 0
M  V30 6132 C 563.987 -3.46824 -2.70927 0
M  V30 6133 H 561.106 -0.657702 -0.332561 0
M  V30 6134 H 563.748 -1.89086 -0.186186 0
M  V30 6135 H 561.898 -3.08536 -2.36088 0
M  V30 6136 H 563.57 -4.60673 -0.240459 0
M  V30 6137 H 561.813 -4.33517 -0.156785 0
M  V30 6138 H 562.484 -5.32419 -1.45719 0
M  V30 6139 H 564.96 -3.54049 -2.18607 0
M  V30 6140 H 563.836 -4.4218 -3.25219 0
M  V30 6141 H 564.097 -2.70236 -3.49893 0
M  V30 6142 N 563.156 0.464375 -1.50603 0
M  V30 6143 C 564.405 1.21277 -1.61167 0
M  V30 6144 C 564.718 1.92953 -0.320704 0
M  V30 6145 O 565.924 2.69778 -0.30534 0
M  V30 6146 C 564.38 2.20403 -2.84518 0
M  V30 6147 C 563.988 1.54499 -4.20516 0
M  V30 6148 C 565.732 2.95843 -3.0443 0
M  V30 6149 C 563.639 2.51951 -5.35047 0
M  V30 6150 H 562.569 0.456367 -0.600204 0
M  V30 6151 H 565.22 0.48254 -1.77042 0
M  V30 6152 H 563.602 2.96746 -2.62217 0
M  V30 6153 H 564.776 0.83899 -4.53098 0
M  V30 6154 H 563.091 0.913152 -4.06264 0
M  V30 6155 H 565.688 3.6879 -3.87167 0
M  V30 6156 H 566.031 3.55622 -2.16423 0
M  V30 6157 H 566.564 2.26611 -3.26944 0
M  V30 6158 H 563.303 1.96901 -6.25228 0
M  V30 6159 H 562.823 3.20683 -5.06875 0
M  V30 6160 H 564.502 3.13643 -5.65895 0
M  V30 6161 N 564.634 1.40294 0.718013 0
M  V30 6162 C 565.859 1.41941 1.5122 0
M  V30 6163 C 566.284 0.0202371 1.88089 0
M  V30 6164 O 565.642 -0.971078 1.53101 0
M  V30 6165 C 565.69 2.3141 2.76554 0
M  V30 6166 O 564.794 1.75567 3.73162 0
M  V30 6167 H 564.135 0.482644 0.456016 0
M  V30 6168 H 566.665 1.84494 0.884478 0
M  V30 6169 H 566.675 2.46513 3.25108 0
M  V30 6170 H 565.35 3.33085 2.49053 0
M  V30 6171 H 563.927 1.69798 3.31999 0
M  V30 6172 N 566.112 -0.949982 1.2575 0
M  V30 6173 C 567.044 -2.05088 1.02331 0
M  V30 6174 C 568.057 -1.62795 -0.0133247 0
M  V30 6175 O 569.246 -1.77067 0.225759 0
M  V30 6176 C 566.346 -3.34794 0.525924 0
M  V30 6177 C 565.519 -4.05903 1.62978 0
M  V30 6178 C 564.578 -5.1388 1.13196 0
M  V30 6179 O 563.604 -5.39072 1.82729 0
M  V30 6180 N 564.806 -5.80495 -0.0242926 0
M  V30 6181 H 567.571 -2.25747 1.97125 0
M  V30 6182 H 565.132 -1.11886 1.17018 0
M  V30 6183 H 567.124 -4.04312 0.177263 0
M  V30 6184 H 565.694 -3.10872 -0.328202 0
M  V30 6185 H 564.914 -3.3042 2.1498 0
M  V30 6186 H 566.202 -4.50166 2.37124 0
M  V30 6187 H 565.6 -5.62454 -0.605184 0
M  V30 6188 H 564.157 -6.51043 -0.313947 0
M  V30 6189 N 567.59 -1.07411 -1.15328 0
M  V30 6190 C 568.82 -0.817595 -1.89734 0
M  V30 6191 C 569.228 0.63297 -1.78298 0
M  V30 6192 O 568.571 1.44594 -1.13306 0
M  V30 6193 C 568.633 -1.14748 -3.40695 0
M  V30 6194 C 568.297 -2.59876 -3.75917 0
M  V30 6195 C 569.294 -3.58122 -3.76888 0
M  V30 6196 C 566.979 -2.95469 -4.06206 0
M  V30 6197 C 568.973 -4.89996 -4.07655 0
M  V30 6198 C 566.66 -4.2754 -4.36638 0
M  V30 6199 C 567.658 -5.24614 -4.37344 0
M  V30 6200 O 567.346 -6.54312 -4.67045 0
M  V30 6201 H 567.078 -0.295175 -0.608151 0
M  V30 6202 H 569.632 -1.43409 -1.47048 0
M  V30 6203 H 567.862 -0.47395 -3.83785 0
M  V30 6204 H 569.551 -0.873397 -3.96392 0
M  V30 6205 H 570.317 -3.31966 -3.53587 0
M  V30 6206 H 566.196 -2.20558 -4.04815 0
M  V30 6207 H 569.74 -5.65759 -4.08121 0
M  V30 6208 H 565.637 -4.53449 -4.59407 0
M  V30 6209 H 566.405 -6.59473 -4.84807 0
M  V30 6210 N 569.068 1.32177 -0.85831 0
M  V30 6211 C 569.998 2.31282 -0.321041 0
M  V30 6212 C 570.979 1.59841 0.581786 0
M  V30 6213 O 572.164 1.87619 0.501262 0
M  V30 6214 C 569.294 3.4385 0.48832 0
M  V30 6215 C 568.248 4.26799 -0.320391 0
M  V30 6216 C 567.574 5.31164 0.613934 0
M  V30 6217 C 568.874 4.98829 -1.54813 0
M  V30 6218 H 570.568 2.76469 -1.14915 0
M  V30 6219 H 568.114 1.32916 -0.554028 0
M  V30 6220 H 570.067 4.12224 0.874626 0
M  V30 6221 H 568.791 2.97401 1.34983 0
M  V30 6222 H 567.45 3.60077 -0.688497 0
M  V30 6223 H 567.098 4.80967 1.47239 0
M  V30 6224 H 566.798 5.8755 0.0768097 0
M  V30 6225 H 568.322 6.024 0.997336 0
M  V30 6226 H 569.736 5.59864 -1.23392 0
M  V30 6227 H 568.133 5.64957 -2.02346 0
M  V30 6228 H 569.203 4.26483 -2.30739 0
M  V30 6229 N 570.547 0.616602 1.45037 0
M  V30 6230 C 571.479 -0.135186 2.28801 0
M  V30 6231 C 572.492 -0.82303 1.40464 0
M  V30 6232 O 573.681 -0.686909 1.64754 0
M  V30 6233 C 570.781 -1.21292 3.16451 0
M  V30 6234 C 569.954 -0.61043 4.3312 0
M  V30 6235 C 569.013 -1.58022 5.01912 0
M  V30 6236 O 568.039 -1.10301 5.58411 0
M  V30 6237 N 569.241 -2.91464 5.02025 0
M  V30 6238 H 572.006 0.583612 2.93963 0
M  V30 6239 H 569.567 0.456723 1.55324 0
M  V30 6240 H 571.559 -1.86169 3.59337 0
M  V30 6241 H 570.129 -1.83412 2.53138 0
M  V30 6242 H 569.349 0.216638 3.93604 0
M  V30 6243 H 570.637 -0.188293 5.08451 0
M  V30 6244 H 570.035 -3.32829 4.57429 0
M  V30 6245 H 568.592 -3.51741 5.48745 0
M  V30 6246 N 572.025 -1.5352 0.356285 0
M  V30 6247 C 573.25 -2.06007 -0.239961 0
M  V30 6248 C 573.675 -1.22872 -1.42422 0
M  V30 6249 O 573.033 -0.245516 -1.7963 0
M  V30 6250 C 573.081 -3.5522 -0.620587 0
M  V30 6251 O 572.185 -3.74864 -1.71902 0
M  V30 6252 H 571.526 -0.662961 -0.0371377 0
M  V30 6253 H 574.056 -1.98033 0.514194 0
M  V30 6254 H 574.066 -3.98081 -0.894197 0
M  V30 6255 H 572.741 -4.15175 0.245407 0
M  V30 6256 H 571.318 -3.43904 -1.44169 0
M  V30 6257 N 573.503 -0.0852151 -1.57369 0
M  V30 6258 C 574.731 0.58946 -1.98325 0
M  V30 6259 C 575.146 1.62333 -0.96403 0
M  V30 6260 O 574.503 1.82438 0.0476395 0
M  V30 6261 C 574.554 1.24604 -3.39347 0
M  V30 6262 O 574.275 0.253532 -4.37366 0
M  V30 6263 C 575.776 2.00726 -3.95252 0
M  V30 6264 H 572.996 0.158783 -0.651942 0
M  V30 6265 H 575.54 -0.161584 -2.03861 0
M  V30 6266 H 573.695 1.94808 -3.34856 0
M  V30 6267 H 574.109 0.726207 -5.19448 0
M  V30 6268 H 575.583 2.42039 -4.96106 0
M  V30 6269 H 576.06 2.86919 -3.32527 0
M  V30 6270 H 576.666 1.3536 -4.03185 0
M  V30 6271 N 574.981 1.5647 0.188427 0
M  V30 6272 C 575.931 1.91479 1.23774 0
M  V30 6273 C 576.915 0.78119 1.40664 0
M  V30 6274 O 578.107 1.04414 1.42922 0
M  V30 6275 C 575.236 2.26354 2.58106 0
M  V30 6276 C 574.322 3.46186 2.44981 0
M  V30 6277 N 574.713 4.63911 2.01546 0
M  V30 6278 C 573.011 3.50456 2.75856 0
M  V30 6279 C 573.712 5.46064 2.00472 0
M  V30 6280 N 572.688 4.86648 2.42229 0
M  V30 6281 H 576.49 2.79994 0.893339 0
M  V30 6282 H 574.004 1.57477 0.39682 0
M  V30 6283 H 576.001 2.49622 3.33908 0
M  V30 6284 H 574.661 1.39168 2.93364 0
M  V30 6285 H 575.672 4.88451 1.7215 0
M  V30 6286 H 572.349 2.73704 3.15265 0
M  V30 6287 H 573.739 6.50368 1.68734 0
M  V30 6288 N 576.459 -0.456382 1.50847 0
M  V30 6289 C 577.422 -1.53493 1.70213 0
M  V30 6290 C 578.422 -1.50264 0.572481 0
M  V30 6291 O 579.612 -1.52623 0.839751 0
M  V30 6292 C 576.744 -2.93091 1.741 0
M  V30 6293 H 577.937 -1.37633 2.66453 0
M  V30 6294 H 575.49 -0.683776 1.4055 0
M  V30 6295 H 576.225 -3.14378 0.796063 0
M  V30 6296 H 576.01 -2.9684 2.5618 0
M  V30 6297 H 577.5 -3.71368 1.90987 0
M  V30 6298 N 577.937 -1.40673 -0.710563 0
M  V30 6299 C 579.348 -1.34975 -1.28991 0
M  V30 6300 C 579.699 -0.0256272 -1.96183 0
M  V30 6301 O 578.824 0.876339 -1.97862 0
M  V30 6302 C 579.419 -2.44467 -2.34567 0
M  V30 6303 C 577.978 -2.42213 -2.88114 0
M  V30 6304 C 577.125 -2.25085 -1.61963 0
M  V30 6305 H 580.076 -1.50406 -0.506343 0
M  V30 6306 H 580.097 -2.12663 -3.15523 0
M  V30 6307 H 579.609 -3.40825 -1.85634 0
M  V30 6308 H 577.71 -1.49568 -3.41263 0
M  V30 6309 H 577.823 -3.37983 -3.39565 0
M  V30 6310 H 576.187 -1.72691 -1.87216 0
M  V30 6311 H 576.97 -3.23449 -1.15047 0
M  V30 6312 N 579.415 0.9433 -1.26252 0
M  V30 6313 C 580.643 1.72367 -1.14443 0
M  V30 6314 C 581.058 1.86392 0.300572 0
M  V30 6315 O 580.415 1.36978 1.20596 0
M  V30 6316 C 580.466 3.13155 -1.806 0
M  V30 6317 O 580.187 2.99803 -3.19452 0
M  V30 6318 C 581.688 4.07417 -1.74717 0
M  V30 6319 H 578.908 0.539758 -0.398626 0
M  V30 6320 H 581.452 1.18268 -1.66832 0
M  V30 6321 H 579.607 3.64162 -1.32154 0
M  V30 6322 H 580.021 3.88697 -3.52158 0
M  V30 6323 H 581.495 5.03773 -2.25647 0
M  V30 6324 H 581.972 4.3337 -0.713244 0
M  V30 6325 H 582.578 3.6233 -2.22704 0
M  V30 6326 N 580.893 1.08022 1.14757 0
M  V30 6327 C 581.843 0.676345 2.17737 0
M  V30 6328 C 582.827 -0.302018 1.5804 0
M  V30 6329 O 584.019 -0.11466 1.76628 0
M  V30 6330 C 581.148 0.082984 3.432 0
M  V30 6331 C 580.234 1.0869 4.09936 0
M  V30 6332 N 580.625 2.26891 4.52055 0
M  V30 6333 C 578.923 0.921768 4.36371 0
M  V30 6334 C 579.624 2.90636 5.0389 0
M  V30 6335 N 578.6 2.18266 4.97856 0
M  V30 6336 H 582.402 1.5765 2.4804 0
M  V30 6337 H 579.916 0.954374 1.31398 0
M  V30 6338 H 581.913 -0.224289 4.16296 0
M  V30 6339 H 580.573 -0.812206 3.14378 0
M  V30 6340 H 581.584 2.6457 4.45223 0
M  V30 6341 H 578.261 0.0800499 4.17423 0
M  V30 6342 H 579.651 3.9104 5.46386 0
M  V30 6343 N 582.371 -1.3172 0.865308 0
M  V30 6344 C 583.596 -2.01591 0.487415 0
M  V30 6345 C 584.021 -1.6455 -0.911307 0
M  V30 6346 O 583.379 -0.851689 -1.6005 0
M  V30 6347 C 583.427 -3.54759 0.646401 0
M  V30 6348 O 582.531 -4.11185 -0.316284 0
M  V30 6349 H 581.872 -0.634884 0.194468 0
M  V30 6350 H 584.402 -1.68024 1.16744 0
M  V30 6351 H 584.412 -4.04438 0.537932 0
M  V30 6352 H 583.087 -3.8106 1.66632 0
M  V30 6353 H 581.664 -3.72543 -0.163162 0
M  V30 6354 N 583.85 -0.624285 -1.44708 0
M  V30 6355 C 585.127 -0.0572781 -1.95516 0
M  V30 6356 C 585.507 1.41516 -1.56641 0
M  V30 6357 O 584.855 2.12614 -0.837111 0
M  V30 6358 C 585.065 -0.272944 -3.47931 0
M  V30 6359 C 586.413 -0.162529 -4.24289 0
M  V30 6360 O 587.437 -0.203946 -3.55616 0
M  V30 6361 O 586.296 -0.0616847 -5.46465 0
M  V30 6362 H 583.389 0.0262219 -0.826584 0
M  V30 6363 H 585.936 -0.695512 -1.54793 0
M  V30 6364 H 584.707 -1.29492 -3.69253 0
M  V30 6365 H 584.331 0.399756 -3.95585 0
M  V30 6366 N 585.328 1.53329 -0.364422 0
M  V30 6367 C 586.558 2.05359 0.226096 0
M  V30 6368 C 586.966 1.23777 1.43094 0
M  V30 6369 O 586.309 0.271139 1.81688 0
M  V30 6370 C 586.371 3.52918 0.684794 0
M  V30 6371 C 586.035 4.55218 -0.403206 0
M  V30 6372 C 587.032 5.04583 -1.2527 0
M  V30 6373 C 584.717 4.99134 -0.563117 0
M  V30 6374 C 586.711 5.96463 -2.24745 0
M  V30 6375 C 584.398 5.9082 -1.56124 0
M  V30 6376 C 585.396 6.39375 -2.40184 0
M  V30 6377 O 585.084 7.29255 -3.38293 0
M  V30 6378 H 584.816 0.674588 0.0436772 0
M  V30 6379 H 587.37 1.98688 -0.520782 0
M  V30 6380 H 585.6 3.57122 1.48326 0
M  V30 6381 H 587.289 3.87812 1.19818 0
M  V30 6382 H 588.055 4.71403 -1.14034 0
M  V30 6383 H 583.934 4.60928 0.0813909 0
M  V30 6384 H 587.478 6.34285 -2.90393 0
M  V30 6385 H 583.375 6.23414 -1.67407 0
M  V30 6386 H 584.143 7.47249 -3.34009 0
M  V30 6387 N 586.806 0.0935595 1.57322 0
M  V30 6388 C 588.034 -0.578934 1.98635 0
M  V30 6389 C 588.449 -1.61819 0.972626 0
M  V30 6390 O 587.806 -1.82461 -0.0379638 0
M  V30 6391 C 587.857 -1.22802 3.40003 0
M  V30 6392 O 587.578 -0.230334 4.37494 0
M  V30 6393 C 589.079 -1.98627 3.96311 0
M  V30 6394 H 586.299 -0.155324 0.652775 0
M  V30 6395 H 588.843 0.172393 2.03772 0
M  V30 6396 H 586.998 -1.93029 3.35885 0
M  V30 6397 H 587.412 -0.698649 5.19826 0
M  V30 6398 H 588.886 -2.39405 4.97382 0
M  V30 6399 H 589.363 -2.85151 3.34044 0
M  V30 6400 H 589.969 -1.3322 4.03897 0
M  V30 6401 N 588.284 -1.56567 -0.180126 0
M  V30 6402 C 589.217 -1.90813 -1.25163 0
M  V30 6403 C 590.195 -0.7699 -1.43218 0
M  V30 6404 O 591.379 -1.02236 -1.58367 0
M  V30 6405 C 588.506 -2.15138 -2.61597 0
M  V30 6406 C 587.552 -3.37834 -2.60328 0
M  V30 6407 S 588.385 -4.92486 -2.1028 0
M  V30 6408 C 589.541 -5.19896 -3.48509 0
M  V30 6409 H 589.774 -2.81398 -0.959283 0
M  V30 6410 H 587.307 -1.49541 -0.3843 0
M  V30 6411 H 589.265 -2.29835 -3.40127 0
M  V30 6412 H 587.926 -1.25276 -2.88036 0
M  V30 6413 H 587.119 -3.52027 -3.60684 0
M  V30 6414 H 586.721 -3.22208 -1.8989 0
M  V30 6415 H 589.013 -5.11334 -4.44459 0
M  V30 6416 H 589.956 -6.21571 -3.39198 0
M  V30 6417 H 590.364 -4.47489 -3.44114 0
M  V30 6418 N 589.762 0.448376 -1.51087 0
M  V30 6419 C 590.99 1.22143 -1.66999 0
M  V30 6420 C 591.405 1.85283 -0.362699 0
M  V30 6421 O 590.762 1.70236 0.65772 0
M  V30 6422 C 590.813 2.31357 -2.7777 0
M  V30 6423 O 590.534 1.70801 -4.03434 0
M  V30 6424 C 592.035 3.21836 -3.04855 0
M  V30 6425 H 589.255 0.368558 -0.560719 0
M  V30 6426 H 591.799 0.532618 -1.97442 0
M  V30 6427 H 589.954 2.95973 -2.49958 0
M  V30 6428 H 590.368 2.42895 -4.64868 0
M  V30 6429 H 591.842 3.94627 -3.85971 0
M  V30 6430 H 592.319 3.81949 -2.16821 0
M  V30 6431 H 592.925 2.62933 -3.34285 0
M  V30 6432 N 591.24 1.41047 0.703093 0
M  V30 6433 C 592.17 1.45067 1.82969 0
M  V30 6434 C 593.151 0.31016 1.67248 0
M  V30 6435 O 594.336 0.520548 1.87093 0
M  V30 6436 C 591.466 1.32478 3.2104 0
M  V30 6437 C 590.42 2.44262 3.51454 0
M  V30 6438 C 589.746 2.16742 4.88801 0
M  V30 6439 C 591.046 3.86606 3.51189 0
M  V30 6440 H 592.74 2.39353 1.79863 0
M  V30 6441 H 590.286 1.15206 0.863919 0
M  V30 6442 H 592.239 1.33904 3.99559 0
M  V30 6443 H 590.963 0.346735 3.24754 0
M  V30 6444 H 589.622 2.42107 2.75282 0
M  V30 6445 H 589.27 1.17299 4.89132 0
M  V30 6446 H 588.97 2.91643 5.10116 0
M  V30 6447 H 590.494 2.19872 5.69639 0
M  V30 6448 H 591.908 3.90517 4.19725 0
M  V30 6449 H 590.305 4.61128 3.84033 0
M  V30 6450 H 591.375 4.15296 2.50315 0
M  V30 6451 N 592.718 -0.936591 1.26751 0
M  V30 6452 C 593.648 -2.05315 1.11212 0
M  V30 6453 C 594.629 -1.70092 0.0160262 0
M  V30 6454 O 595.814 -1.93279 0.188894 0
M  V30 6455 C 592.944 -3.39123 0.749171 0
M  V30 6456 C 591.898 -3.88425 1.79751 0
M  V30 6457 C 591.224 -5.18936 1.28876 0
M  V30 6458 C 592.524 -4.12798 3.19992 0
M  V30 6459 H 594.218 -2.18573 2.04613 0
M  V30 6460 H 591.764 -1.05027 0.985159 0
M  V30 6461 H 593.717 -4.16704 0.627323 0
M  V30 6462 H 592.441 -3.25855 -0.220543 0
M  V30 6463 H 591.1 -3.13028 1.90811 0
M  V30 6464 H 590.748 -5.02051 0.308757 0
M  V30 6465 H 590.448 -5.52892 1.98958 0
M  V30 6466 H 591.972 -5.99096 1.17967 0
M  V30 6467 H 593.386 -4.80977 3.11983 0
M  V30 6468 H 591.783 -4.58044 3.87705 0
M  V30 6469 H 592.853 -3.18412 3.65707 0
M  V30 6470 N 594.196 -1.08629 -1.14182 0
M  V30 6471 C 595.473 -0.73002 -1.81466 0
M  V30 6472 C 595.853 0.785996 -1.95922 0
M  V30 6473 O 595.201 1.70535 -1.52086 0
M  V30 6474 C 595.411 -1.45957 -3.17014 0
M  V30 6475 C 596.759 -1.62008 -3.92477 0
M  V30 6476 O 597.783 -1.42141 -3.26611 0
M  V30 6477 O 596.642 -1.94806 -5.106 0
M  V30 6478 H 593.736 -0.261307 -0.784632 0
M  V30 6479 H 596.282 -1.188 -1.2118 0
M  V30 6480 H 595.054 -2.49221 -3.01669 0
M  V30 6481 H 594.677 -0.993222 -3.84995 0
M  V30 6482 N 595.674 1.31259 -0.872281 0
M  V30 6483 C 596.604 2.30929 -0.345554 0
M  V30 6484 C 597.585 1.60449 0.5648 0
M  V30 6485 O 598.77 1.8814 0.481335 0
M  V30 6486 C 595.9 3.44348 0.451823 0
M  V30 6487 C 594.854 4.26435 -0.365641 0
M  V30 6488 C 594.18 5.31785 0.557562 0
M  V30 6489 C 595.48 4.97159 -1.60095 0
M  V30 6490 H 597.174 2.75234 -1.17841 0
M  V30 6491 H 594.72 1.3232 -0.568094 0
M  V30 6492 H 596.673 4.13128 0.830854 0
M  V30 6493 H 595.397 2.98816 1.31821 0
M  V30 6494 H 594.056 3.59326 -0.726649 0
M  V30 6495 H 593.704 4.82502 1.4213 0
M  V30 6496 H 593.404 5.87598 0.0144878 0
M  V30 6497 H 594.928 6.03424 0.933387 0
M  V30 6498 H 596.342 5.58523 -1.29323 0
M  V30 6499 H 594.739 5.62779 -2.08327 0
M  V30 6500 H 595.809 4.24012 -2.35249 0
M  V30 6501 N 597.152 0.631951 1.44375 0
M  V30 6502 C 598.399 0.136767 2.02038 0
M  V30 6503 C 598.727 -1.24168 1.49709 0
M  V30 6504 O 597.982 -1.83809 0.671763 0
M  V30 6505 C 598.281 0.0735861 3.57324 0
M  V30 6506 C 597.947 1.39092 4.28911 0
M  V30 6507 C 596.609 1.75171 4.48184 0
M  V30 6508 C 598.961 2.26042 4.69632 0
M  V30 6509 C 596.289 2.97907 5.05439 0
M  V30 6510 C 598.641 3.4805 5.28246 0
M  V30 6511 C 597.305 3.84351 5.45738 0
M  V30 6512 H 596.575 0.0500466 0.739308 0
M  V30 6513 H 599.222 0.818429 1.7313 0
M  V30 6514 H 597.527 -0.691449 3.8565 0
M  V30 6515 H 599.224 -0.326091 3.99672 0
M  V30 6516 H 595.814 1.10015 4.1424 0
M  V30 6517 H 599.998 1.99463 4.54454 0
M  V30 6518 H 595.254 3.26108 5.17169 0
M  V30 6519 H 599.428 4.15658 5.5875 0
M  V30 6520 H 597.055 4.79538 5.8987 0
M  V30 6521 N 598.631 -1.53133 0.372548 0
M  V30 6522 C 599.541 -2.29671 -0.478379 0
M  V30 6523 C 600.557 -1.35913 -1.08644 0
M  V30 6524 O 601.733 -1.68975 -1.09588 0
M  V30 6525 C 598.798 -3.07625 -1.599 0
M  V30 6526 C 597.859 -4.17061 -1.01776 0
M  V30 6527 C 597.092 -4.91289 -2.08497 0
M  V30 6528 O 597.315 -4.65442 -3.29727 0
M  V30 6529 O 596.249 -5.7705 -1.71164 0
M  V30 6530 H 600.075 -3.03355 0.144649 0
M  V30 6531 H 597.66 -1.48773 0.136729 0
M  V30 6532 H 599.542 -3.56281 -2.25038 0
M  V30 6533 H 598.217 -2.3677 -2.2073 0
M  V30 6534 H 597.124 -3.72641 -0.330098 0
M  V30 6535 H 598.457 -4.90102 -0.453915 0
M  V30 6536 N 600.109 -0.101901 -1.5727 0
M  V30 6537 C 601.355 0.561027 -1.94885 0
M  V30 6538 C 601.688 1.6741 -0.984258 0
M  V30 6539 O 600.963 1.94491 -0.0184767 0
M  V30 6540 C 601.246 1.10982 -3.42571 0
M  V30 6541 C 601.099 0.00133418 -4.498 0
M  V30 6542 C 602.418 2.00608 -3.9172 0
M  V30 6543 H 599.537 0.202467 -0.708644 0
M  V30 6544 H 602.179 -0.173992 -1.89202 0
M  V30 6545 H 600.329 1.73621 -3.47546 0
M  V30 6546 H 602.001 -0.63322 -4.56933 0
M  V30 6547 H 600.244 -0.664143 -4.28686 0
M  V30 6548 H 600.915 0.426253 -5.50352 0
M  V30 6549 H 603.391 1.47864 -3.88941 0
M  V30 6550 H 602.267 2.3593 -4.95609 0
M  V30 6551 H 602.528 2.92608 -3.3141 0
M  V30 6552 N 601.587 1.56661 0.17182 0
M  V30 6553 C 602.497 1.99604 1.2327 0
M  V30 6554 C 603.513 0.907333 1.4847 0
M  V30 6555 O 604.689 1.21492 1.60629 0
M  V30 6556 C 601.754 2.34685 2.55194 0
M  V30 6557 C 600.815 3.57381 2.3786 0
M  V30 6558 C 600.048 3.90779 3.63494 0
M  V30 6559 O 600.271 3.25152 4.6865 0
M  V30 6560 O 599.205 4.84129 3.57634 0
M  V30 6561 H 603.031 2.90114 0.898192 0
M  V30 6562 H 600.616 1.44522 0.378647 0
M  V30 6563 H 602.498 2.5822 3.33017 0
M  V30 6564 H 601.173 1.47336 2.88225 0
M  V30 6565 H 600.08 3.39064 1.5807 0
M  V30 6566 H 601.413 4.45268 2.09754 0
M  V30 6567 N 603.065 -0.440357 1.51323 0
M  V30 6568 C 604.012 -1.53429 1.72419 0
M  V30 6569 C 604.982 -1.56165 0.565826 0
M  V30 6570 O 606.167 -1.73222 0.799917 0
M  V30 6571 C 603.307 -2.91169 1.85242 0
M  V30 6572 C 602.42 -2.97985 3.12777 0
M  V30 6573 C 601.555 -4.26829 3.16212 0
M  V30 6574 C 600.594 -4.27501 4.38074 0
M  V30 6575 N 599.731 -5.47866 4.39076 0
M  V30 6576 H 604.571 -1.34743 2.65797 0
M  V30 6577 H 602.108 -0.654608 1.31732 0
M  V30 6578 H 604.066 -3.71087 1.90658 0
M  V30 6579 H 602.696 -3.0842 0.952744 0
M  V30 6580 H 601.748 -2.10749 3.16685 0
M  V30 6581 H 603.06 -2.94342 4.02696 0
M  V30 6582 H 602.214 -5.15118 3.20527 0
M  V30 6583 H 600.953 -4.33124 2.24176 0
M  V30 6584 H 599.958 -3.37606 4.33938 0
M  V30 6585 H 601.183 -4.22873 5.31371 0
M  V30 6586 H 599.129 -5.54887 3.49909 0
M  V30 6587 H 599.046 -5.46091 5.22801 0
M  V30 6588 H 600.314 -6.38195 4.4758 0
M  V30 6589 N 604.543 -1.41418 -0.695603 0
M  V30 6590 C 605.82 -1.31264 -1.45014 0
M  V30 6591 C 606.2 0.0597994 -2.11015 0
M  V30 6592 O 605.548 1.07403 -2.01685 0
M  V30 6593 C 605.758 -2.466 -2.4696 0
M  V30 6594 C 607.106 -2.87763 -3.12214 0
M  V30 6595 O 608.13 -2.46339 -2.57285 0
M  V30 6596 O 606.989 -3.59395 -4.11701 0
M  V30 6597 H 604.083 -0.516576 -0.645816 0
M  V30 6598 H 606.629 -1.53382 -0.726084 0
M  V30 6599 H 605.401 -3.38183 -1.96845 0
M  V30 6600 H 605.024 -2.26358 -3.26876 0
M  V30 6601 N 606.021 0.929856 -1.27246 0
M  V30 6602 C 607.269 1.674 -1.13233 0
M  V30 6603 C 607.59 1.92311 0.322744 0
M  V30 6604 O 606.86 1.52784 1.22612 0
M  V30 6605 H 605.44 0.620411 -0.416052 0
M  V30 6606 H 608.102 1.11663 -1.59741 0
M  V30 6607 H 607.198 2.64308 -1.65975 0
M  V30 6608 N 607.499 1.09233 1.13605 0
M  V30 6609 C 608.409 0.741939 2.22559 0
M  V30 6610 C 609.425 -0.255236 1.72118 0
M  V30 6611 O 610.601 -0.0970747 2.01166 0
M  V30 6612 C 607.666 0.165595 3.46304 0
M  V30 6613 C 606.727 1.21846 4.11645 0
M  V30 6614 C 605.96 0.669526 5.29484 0
M  V30 6615 O 606.183 -0.508228 5.68131 0
M  V30 6616 O 605.117 1.42361 5.84822 0
M  V30 6617 H 608.943 1.65107 2.54899 0
M  V30 6618 H 606.528 0.866584 1.21699 0
M  V30 6619 H 608.41 -0.152592 4.21124 0
M  V30 6620 H 607.085 -0.716573 3.15669 0
M  V30 6621 H 605.992 1.58931 3.38662 0
M  V30 6622 H 607.325 2.07321 4.46407 0
M  V30 6623 N 608.977 -1.30795 0.87923 0
M  V30 6624 C 609.924 -2.28282 0.339968 0
M  V30 6625 C 610.894 -1.56134 -0.566685 0
M  V30 6626 O 612.079 -1.84231 -0.496338 0
M  V30 6627 C 609.219 -3.42225 -0.444501 0
M  V30 6628 C 608.332 -4.29204 0.490717 0
M  V30 6629 C 607.467 -5.30302 -0.308784 0
M  V30 6630 C 606.506 -6.08929 0.622272 0
M  V30 6631 N 605.643 -7.01957 -0.14155 0
M  V30 6632 H 610.483 -2.73794 1.17647 0
M  V30 6633 H 608.02 -1.34682 0.591527 0
M  V30 6634 H 609.978 -4.07038 -0.915186 0
M  V30 6635 H 608.608 -2.97799 -1.24562 0
M  V30 6636 H 607.66 -3.6475 1.07988 0
M  V30 6637 H 608.972 -4.84045 1.20425 0
M  V30 6638 H 608.126 -6.00835 -0.841575 0
M  V30 6639 H 606.865 -4.7614 -1.05556 0
M  V30 6640 H 605.87 -5.37278 1.16674 0
M  V30 6641 H 607.095 -6.65178 1.36804 0
M  V30 6642 H 605.041 -6.50192 -0.870966 0
M  V30 6643 H 604.958 -7.54261 0.51246 0
M  V30 6644 H 606.226 -7.76741 -0.655271 0
M  V30 6645 N 610.455 -0.639598 -1.44038 0
M  V30 6646 C 611.365 0.0612377 -2.3452 0
M  V30 6647 C 612.381 0.826717 -1.53106 0
M  V30 6648 O 613.557 0.777059 -1.85806 0
M  V30 6649 C 610.622 1.02492 -3.31204 0
M  V30 6650 C 609.683 0.25788 -4.28525 0
M  V30 6651 C 608.916 1.17566 -5.2059 0
M  V30 6652 O 609.139 2.41461 -5.16771 0
M  V30 6653 O 608.073 0.655407 -5.98321 0
M  V30 6654 H 611.899 -0.68318 -2.95916 0
M  V30 6655 H 609.484 -0.399784 -1.43952 0
M  V30 6656 H 611.366 1.57911 -3.90694 0
M  V30 6657 H 610.041 1.7498 -2.7233 0
M  V30 6658 H 608.948 -0.339566 -3.72556 0
M  V30 6659 H 610.281 -0.427154 -4.90343 0
M  V30 6660 N 611.933 1.52934 -0.380664 0
M  V30 6661 C 612.896 2.24809 0.446473 0
M  V30 6662 C 613.896 1.26133 0.997347 0
M  V30 6663 O 615.086 1.50297 0.880714 0
M  V30 6664 C 612.218 2.99649 1.62553 0
M  V30 6665 H 613.411 2.99343 -0.182677 0
M  V30 6666 H 610.964 1.55736 -0.132618 0
M  V30 6667 H 611.699 2.29395 2.29235 0
M  V30 6668 H 611.484 3.72066 1.23732 0
M  V30 6669 H 612.974 3.54246 2.21133 0
M  V30 6670 N 613.412 0.11024 1.57214 0
M  V30 6671 C 614.659 -0.54987 1.94891 0
M  V30 6672 C 614.987 -1.67243 0.992984 0
M  V30 6673 O 614.242 -1.95694 0.0152703 0
M  V30 6674 C 614.541 -1.13102 3.39032 0
M  V30 6675 C 614.207 -0.130713 4.5071 0
M  V30 6676 C 612.869 0.14437 4.80983 0
M  V30 6677 C 615.221 0.551472 5.18274 0
M  V30 6678 C 612.549 1.10807 5.76141 0
M  V30 6679 C 614.901 1.50375 6.14467 0
M  V30 6680 C 613.565 1.78691 6.43138 0
M  V30 6681 H 612.835 -0.201212 0.713158 0
M  V30 6682 H 615.482 0.189288 1.90562 0
M  V30 6683 H 613.787 -1.94675 3.40013 0
M  V30 6684 H 615.484 -1.64973 3.65493 0
M  V30 6685 H 612.074 -0.355301 4.27125 0
M  V30 6686 H 616.258 0.35211 4.95049 0
M  V30 6687 H 611.514 1.3343 5.96663 0
M  V30 6688 H 615.688 2.03808 6.65909 0
M  V30 6689 H 613.315 2.53522 7.1668 0
M  V30 6690 N 614.89 -1.56749 -0.16351 0
M  V30 6691 C 616.306 -1.51043 -0.515567 0
M  V30 6692 C 616.506 -0.815855 -1.84245 0
M  V30 6693 O 615.562 -0.379477 -2.49632 0
M  V30 6694 C 616.875 -2.95791 -0.541114 0
M  V30 6695 C 618.423 -3.0664 -0.627776 0
M  V30 6696 C 618.898 -4.52861 -0.684141 0
M  V30 6697 N 620.389 -4.5714 -0.746818 0
M  V30 6698 C 621.124 -5.67634 -0.811137 0
M  V30 6699 N 620.62 -6.8774 -0.835811 0
M  V30 6700 N 622.413 -5.55624 -0.850756 0
M  V30 6701 H 614.564 -2.00307 0.70645 0
M  V30 6702 H 616.827 -0.912876 0.255659 0
M  V30 6703 H 616.533 -3.49797 0.365329 0
M  V30 6704 H 616.407 -3.50858 -1.38487 0
M  V30 6705 H 618.794 -2.52663 -1.52464 0
M  V30 6706 H 618.875 -2.54645 0.242805 0
M  V30 6707 H 618.519 -5.07472 0.2085 0
M  V30 6708 H 618.449 -5.02621 -1.57098 0
M  V30 6709 H 620.94 -3.70669 -0.735717 0
M  V30 6710 H 621.253 -7.67701 -0.886279 0
M  V30 6711 H 619.598 -6.90334 -0.803958 0
M  V30 6712 H 622.789 -4.60709 -0.828535 0
M  V30 6713 H 622.962 -6.41756 -0.897418 0
M  V30 6714 N 616.368 0.432326 -1.51554 0
M  V30 6715 C 617.278 1.55023 -1.76082 0
M  V30 6716 C 618.294 1.61593 -0.645265 0
M  V30 6717 O 619.47 1.78742 -0.928086 0
M  V30 6718 C 616.535 2.90964 -1.88523 0
M  V30 6719 C 615.596 2.9447 -3.12388 0
M  V30 6720 C 614.829 4.23926 -3.24225 0
M  V30 6721 O 615.052 5.16576 -2.4188 0
M  V30 6722 O 613.986 4.33818 -4.17235 0
M  V30 6723 H 617.812 1.37238 -2.70923 0
M  V30 6724 H 615.397 0.615845 -1.36117 0
M  V30 6725 H 617.279 3.71633 -1.98662 0
M  V30 6726 H 615.954 3.08865 -0.9687 0
M  V30 6727 H 614.861 2.12737 -3.07723 0
M  V30 6728 H 616.194 2.81514 -4.03746 0
M  V30 6729 N 617.846 1.41785 0.688094 0
M  V30 6730 C 619.123 1.32031 1.44316 0
M  V30 6731 C 619.503 -0.0486079 2.11044 0
M  V30 6732 O 618.851 -1.06332 2.02252 0
M  V30 6733 C 619.061 2.47906 2.45649 0
M  V30 6734 C 620.409 2.89415 3.10683 0
M  V30 6735 O 621.433 2.477 2.55975 0
M  V30 6736 O 620.292 3.61573 4.09789 0
M  V30 6737 H 617.386 0.519994 0.643067 0
M  V30 6738 H 619.932 1.53765 0.71794 0
M  V30 6739 H 618.704 3.39222 1.95048 0
M  V30 6740 H 618.327 2.28089 3.25671 0
M  V30 6741 N 619.324 -0.923095 1.27737 0
M  V30 6742 C 620.254 -2.04124 1.13383 0
M  V30 6743 C 621.235 -1.70066 0.0340658 0
M  V30 6744 O 622.42 -1.93068 0.209383 0
M  V30 6745 C 619.55 -3.3831 0.785097 0
M  V30 6746 C 618.504 -3.86496 1.8386 0
M  V30 6747 C 617.83 -5.1754 1.34373 0
M  V30 6748 C 619.13 -4.09381 3.24353 0
M  V30 6749 H 620.824 -2.1639 2.06919 0
M  V30 6750 H 618.37 -1.03976 0.996243 0
M  V30 6751 H 620.323 -4.16016 0.671485 0
M  V30 6752 H 619.047 -3.2607 -0.185969 0
M  V30 6753 H 617.706 -3.10987 1.9412 0
M  V30 6754 H 617.354 -5.01696 0.361989 0
M  V30 6755 H 617.054 -5.50751 2.04811 0
M  V30 6756 H 618.578 -5.97811 1.24315 0
M  V30 6757 H 619.992 -4.77641 3.17067 0
M  V30 6758 H 618.389 -4.53906 3.92542 0
M  V30 6759 H 619.459 -3.14515 3.69064 0
M  V30 6760 N 620.802 -1.09834 -1.13024 0
M  V30 6761 C 621.752 -0.710899 -2.16634 0
M  V30 6762 C 622.736 0.276836 -1.58501 0
M  V30 6763 O 623.928 0.0865457 -1.76788 0
M  V30 6764 C 621.057 -0.137574 -3.43024 0
M  V30 6765 C 620.143 -1.15198 -4.08155 0
M  V30 6766 N 620.534 -2.34054 -4.48388 0
M  V30 6767 C 618.832 -0.991074 -4.34849 0
M  V30 6768 C 619.533 -2.98616 -4.99203 0
M  V30 6769 N 618.509 -2.26159 -4.94321 0
M  V30 6770 H 622.311 -1.61576 -2.455 0
M  V30 6771 H 619.825 -0.975158 -1.29863 0
M  V30 6772 H 621.822 0.158031 -4.166 0
M  V30 6773 H 620.482 0.762088 -3.1563 0
M  V30 6774 H 621.493 -2.7162 -4.40957 0
M  V30 6775 H 618.17 -0.146448 -4.17243 0
M  V30 6776 H 619.56 -3.99683 -5.40096 0
M  V30 6777 N 622.28 1.30327 -0.886154 0
M  V30 6778 C 623.228 2.30052 -0.343317 0
M  V30 6779 C 624.222 1.60212 0.550305 0
M  V30 6780 O 625.428 1.74674 0.434609 0
M  V30 6781 H 621.803 0.746306 -0.0923681 0
M  V30 6782 H 623.774 2.73294 -1.19804 0
M  V30 6783 C 622.523 3.45079 0.426107 0
M  V30 6784 H 621.846 3.99003 -0.25227 0
M  V30 6785 H 623.286 4.16931 0.771009 0
M  V30 6786 C 621.745 2.95195 1.62363 0
M  V30 6787 O 622.275 2.95323 2.723 0
M  V30 6788 N 620.481 2.51192 1.4612 0
M  V30 6789 H 620.028 2.51286 0.566832 0
M  V30 6790 H 619.986 2.18173 2.2638 0
M  V30 6791 N 623.758 0.647228 1.43697 0
M  V30 6792 C 625.174 0.314256 1.56476 0
M  V30 6793 C 625.374 -1.18191 1.63196 0
M  V30 6794 O 624.43 -1.96655 1.58376 0
M  V30 6795 C 625.743 1.02034 2.82859 0
M  V30 6796 C 627.291 1.00002 2.96595 0
M  V30 6797 C 627.766 1.68689 4.25803 0
M  V30 6798 N 629.257 1.65424 4.32654 0
M  V30 6799 C 629.992 2.1545 5.31384 0
M  V30 6800 N 629.488 2.73738 6.36427 0
M  V30 6801 N 631.281 2.05985 5.22998 0
M  V30 6802 H 623.432 1.61821 1.37578 0
M  V30 6803 H 625.695 0.680184 0.660344 0
M  V30 6804 H 625.401 2.07542 2.83935 0
M  V30 6805 H 625.275 0.568146 3.72897 0
M  V30 6806 H 627.662 -0.0466319 2.95063 0
M  V30 6807 H 627.743 1.49086 2.07863 0
M  V30 6808 H 627.387 2.73308 4.28095 0
M  V30 6809 H 627.317 1.17076 5.13421 0
M  V30 6810 H 629.808 1.22884 3.57363 0
M  V30 6811 H 630.121 3.09602 7.08072 0
M  V30 6812 H 628.466 2.77796 6.37067 0
M  V30 6813 H 631.657 1.60157 4.39849 0
M  V30 6814 H 631.83 2.45281 5.99784 0
M  V30 6815 N 625.236 -1.5273 0.388769 0
M  V30 6816 C 626.169 -2.22861 -0.490752 0
M  V30 6817 C 627.147 -1.22912 -1.06449 0
M  V30 6818 O 628.331 -1.51896 -1.11624 0
M  V30 6819 C 625.458 -2.94141 -1.67925 0
M  V30 6820 C 624.504 -4.08355 -1.23081 0
M  V30 6821 S 625.337 -5.35077 -0.212786 0
M  V30 6822 C 626.493 -6.09879 -1.40708 0
M  V30 6823 H 626.726 -2.97115 0.104787 0
M  V30 6824 H 624.259 -1.53428 0.172956 0
M  V30 6825 H 626.217 -3.35818 -2.36085 0
M  V30 6826 H 624.878 -2.19568 -2.24608 0
M  V30 6827 H 624.071 -4.57328 -2.11818 0
M  V30 6828 H 623.673 -3.68688 -0.628121 0
M  V30 6829 H 625.965 -6.36018 -2.33424 0
M  V30 6830 H 626.908 -7.01586 -0.958271 0
M  V30 6831 H 627.316 -5.40646 -1.62364 0
M  V30 6832 N 626.714 -0.118576 -1.57153 0
M  V30 6833 C 627.644 0.828436 -2.1831 0
M  V30 6834 C 628.625 1.27758 -1.12303 0
M  V30 6835 O 629.81 1.34026 -1.40537 0
M  V30 6836 C 626.94 2.07876 -2.78217 0
M  V30 6837 C 625.894 1.76742 -3.89803 0
M  V30 6838 C 625.22 3.08801 -4.36516 0
M  V30 6839 C 626.52 1.03606 -5.11921 0
M  V30 6840 H 628.214 0.318824 -2.97698 0
M  V30 6841 H 625.76 0.151911 -1.43196 0
M  V30 6842 H 627.713 2.74584 -3.19659 0
M  V30 6843 H 626.437 2.61161 -1.96118 0
M  V30 6844 H 625.096 1.12424 -3.48936 0
M  V30 6845 H 624.744 3.6002 -3.51276 0
M  V30 6846 H 624.444 2.88743 -5.11763 0
M  V30 6847 H 625.968 3.76627 -4.80608 0
M  V30 6848 H 627.382 1.60467 -5.50385 0
M  V30 6849 H 625.779 0.936454 -5.92748 0
M  V30 6850 H 626.849 0.0227421 -4.84895 0
M  V30 6851 N 628.193 1.56834 0.155195 0
M  V30 6852 C 629.123 2.00678 1.19376 0
M  V30 6853 C 630.104 0.884973 1.45266 0
M  V30 6854 O 631.289 1.1522 1.56326 0
M  V30 6855 C 628.419 2.38042 2.5289 0
M  V30 6856 C 627.373 3.53332 2.41538 0
M  V30 6857 C 626.699 3.76485 3.79688 0
M  V30 6858 C 627.999 4.86265 1.9064 0
M  V30 6859 H 629.693 2.87688 0.829232 0
M  V30 6860 H 627.239 1.38407 0.397445 0
M  V30 6861 H 629.192 2.67314 3.25763 0
M  V30 6862 H 627.916 1.4796 2.91162 0
M  V30 6863 H 626.575 3.24213 1.71117 0
M  V30 6864 H 626.223 2.83667 4.15382 0
M  V30 6865 H 625.923 4.54068 3.72956 0
M  V30 6866 H 627.447 4.08174 4.54122 0
M  V30 6867 H 628.861 5.14308 2.53299 0
M  V30 6868 H 627.258 5.67597 1.94818 0
M  V30 6869 H 628.328 4.77184 0.861596 0
M  V30 6870 N 629.671 -0.424282 1.51781 0
M  V30 6871 C 630.917 -1.17117 1.66298 0
M  V30 6872 C 631.272 -1.88595 0.380767 0
M  V30 6873 O 630.565 -1.81151 -0.624094 0
M  V30 6874 C 630.759 -2.20418 2.81337 0
M  V30 6875 C 630.588 -1.59081 4.20622 0
M  V30 6876 C 629.358 -1.37007 4.86371 0
M  V30 6877 C 631.556 -1.05992 5.0326 0
M  V30 6878 N 629.538 -0.714049 6.09733 0
M  V30 6879 C 630.909 -0.529933 6.17731 0
M  V30 6880 C 632.964 -0.952927 4.88696 0
M  V30 6881 C 631.667 0.0965457 7.19235 0
M  V30 6882 C 633.693 -0.340325 5.9042 0
M  V30 6883 C 633.055 0.179057 7.04172 0
M  V30 6884 H 629.154 -0.41577 0.662314 0
M  V30 6885 H 631.738 -0.46579 1.89046 0
M  V30 6886 H 629.909 -2.8833 2.60231 0
M  V30 6887 H 631.641 -2.8736 2.84968 0
M  V30 6888 H 628.396 -1.63543 4.44467 0
M  V30 6889 H 628.82 -0.403101 6.75799 0
M  V30 6890 H 633.462 -1.34033 4.00993 0
M  V30 6891 H 631.18 0.496044 8.06576 0
M  V30 6892 H 634.766 -0.259266 5.81222 0
M  V30 6893 H 633.646 0.645626 7.81538 0
M  V30 6894 N 631.149 -1.42148 -0.680565 0
M  V30 6895 C 632.099 -1.41634 -1.78672 0
M  V30 6896 C 633.083 -0.288494 -1.58293 0
M  V30 6897 O 634.275 -0.530295 -1.68869 0
M  V30 6898 C 631.404 -1.31558 -3.17092 0
M  V30 6899 C 630.49 -2.49265 -3.43115 0
M  V30 6900 N 630.881 -3.74702 -3.39753 0
M  V30 6901 C 629.179 -2.43401 -3.73727 0
M  V30 6902 C 629.88 -4.52854 -3.651 0
M  V30 6903 N 628.856 -3.83181 -3.85582 0
M  V30 6904 H 632.658 -2.3652 -1.74458 0
M  V30 6905 H 630.172 -1.36415 -0.881171 0
M  V30 6906 H 632.169 -1.29272 -3.96351 0
M  V30 6907 H 630.829 -0.376696 -3.22508 0
M  V30 6908 H 631.84 -4.07378 -3.19787 0
M  V30 6909 H 628.517 -1.58062 -3.86423 0
M  V30 6910 H 629.907 -5.61827 -3.6851 0
M  V30 6911 N 632.627 0.916307 -1.28225 0
M  V30 6912 C 633.875 1.6619 -1.15002 0
M  V30 6913 C 634.196 1.92642 0.302329 0
M  V30 6914 O 633.466 1.54076 1.20985 0
M  V30 6915 H 632.046 0.615964 -0.422608 0
M  V30 6916 H 634.708 1.09963 -1.60917 0
M  V30 6917 H 633.804 2.62533 -1.68769 0
M  V30 6918 N 634.105 1.10431 1.1244 0
M  V30 6919 C 635.33 0.869089 1.88313 0
M  V30 6920 C 635.755 -0.574912 1.79099 0
M  V30 6921 O 635.113 -1.40496 1.14589 0
M  V30 6922 C 635.161 1.32208 3.3549 0
M  V30 6923 O 634.265 0.487092 4.09513 0
M  V30 6924 H 633.606 0.313894 0.585121 0
M  V30 6925 H 636.136 1.47111 1.42195 0
M  V30 6926 H 636.146 1.31201 3.86329 0
M  V30 6927 H 634.821 2.37364 3.41513 0
M  V30 6928 H 633.398 0.562372 3.68635 0
M  V30 6929 N 635.583 -1.29855 0.893053 0
M  V30 6930 C 636.999 -1.48366 0.588199 0
M  V30 6931 C 637.199 -1.81654 -0.872018 0
M  V30 6932 O 636.255 -1.909 -1.65268 0
M  V30 6933 C 637.568 -2.60136 1.5083 0
M  V30 6934 C 639.116 -2.74014 1.51279 0
M  V30 6935 C 639.591 -3.88905 2.41902 0
M  V30 6936 N 641.082 -3.96228 2.39911 0
M  V30 6937 C 641.817 -4.84458 3.06738 0
M  V30 6938 N 641.313 -5.77426 3.8282 0
M  V30 6939 N 643.106 -4.77894 2.95929 0
M  V30 6940 H 635.257 -1.06522 1.83757 0
M  V30 6941 H 637.52 -0.528495 0.787018 0
M  V30 6942 H 637.226 -2.42383 2.54839 0
M  V30 6943 H 637.1 -3.56793 1.22388 0
M  V30 6944 H 639.487 -2.91167 0.480179 0
M  V30 6945 H 639.568 -1.77952 1.83757 0
M  V30 6946 H 639.212 -3.72508 3.45253 0
M  V30 6947 H 639.142 -4.84322 2.06737 0
M  V30 6948 H 641.633 -3.29728 1.84629 0
M  V30 6949 H 641.946 -6.41529 4.30883 0
M  V30 6950 H 640.291 -5.77332 3.86927 0
M  V30 6951 H 643.482 -4.04248 2.36012 0
M  V30 6952 H 643.655 -5.46444 3.48286 0
M  V30 6953 N 637.061 -0.65484 -1.43351 0
M  V30 6954 C 637.994 0.0855537 -2.2804 0
M  V30 6955 C 638.972 0.828301 -1.39921 0
M  V30 6956 O 640.156 0.827539 -1.69364 0
M  V30 6957 C 637.283 1.12792 -3.19368 0
M  V30 6958 C 636.329 0.483037 -4.23756 0
M  V30 6959 S 637.162 -0.744605 -5.30298 0
M  V30 6960 C 638.318 0.297187 -6.25194 0
M  V30 6961 H 638.551 -0.632831 -2.90487 0
M  V30 6962 H 636.084 -0.44373 -1.47886 0
M  V30 6963 H 638.042 1.7243 -3.72529 0
M  V30 6964 H 636.703 1.81863 -2.56095 0
M  V30 6965 H 635.896 1.26888 -4.87766 0
M  V30 6966 H 635.498 -0.0392713 -3.73979 0
M  V30 6967 H 637.79 1.1629 -6.67445 0
M  V30 6968 H 638.733 -0.30793 -7.0743 0
M  V30 6969 H 639.141 0.633721 -5.60932 0
M  V30 6970 N 638.539 1.52521 -0.396863 0
M  V30 6971 C 639.764 2.06571 0.185258 0
M  V30 6972 C 640.189 1.26605 1.39115 0
M  V30 6973 O 639.547 0.293055 1.78916 0
M  V30 6974 C 639.595 3.5674 0.526189 0
M  V30 6975 O 638.699 3.7929 1.61903 0
M  V30 6976 H 638.04 0.663712 0.0195474 0
M  V30 6977 H 640.57 1.966 -0.566519 0
M  V30 6978 H 640.58 4.00311 0.788338 0
M  V30 6979 H 639.255 4.14379 -0.355397 0
M  V30 6980 H 637.832 3.47605 1.35 0
M  V30 6981 N 640.017 0.126909 1.57088 0
M  V30 6982 C 640.965 -0.837618 2.16995 0
M  V30 6983 C 641.959 -1.26974 1.12133 0
M  V30 6984 O 643.165 -1.24056 1.30423 0
M  V30 6985 H 639.54 -0.288256 0.694559 0
M  V30 6986 H 641.511 -0.307957 2.96807 0
M  V30 6987 C 640.26 -2.07474 2.79016 0
M  V30 6988 H 639.583 -1.75117 3.59408 0
M  V30 6989 H 641.023 -2.72949 3.24461 0
M  V30 6990 C 639.482 -2.86967 1.76498 0
M  V30 6991 O 640.012 -3.82625 1.22316 0
M  V30 6992 N 638.218 -2.51111 1.46258 0
M  V30 6993 H 637.765 -1.73389 1.90509 0
M  V30 6994 H 637.723 -3.04594 0.779085 0
M  V30 6995 N 641.495 -1.56914 -0.146875 0
M  V30 6996 C 642.741 -1.84515 -0.855914 0
M  V30 6997 C 643.096 -0.710909 -1.78784 0
M  V30 6998 O 642.389 0.291123 -1.89375 0
M  V30 6999 C 642.583 -3.16128 -1.66727 0
M  V30 7000 C 642.412 -4.42246 -0.815405 0
M  V30 7001 C 641.182 -5.03006 -0.480976 0
M  V30 7002 C 643.38 -5.14094 -0.145684 0
M  V30 7003 N 641.362 -6.12695 0.384476 0
M  V30 7004 C 642.733 -6.17282 0.579902 0
M  V30 7005 C 644.788 -4.97856 -0.0663705 0
M  V30 7006 C 643.491 -7.0599 1.37731 0
M  V30 7007 C 645.517 -5.87028 0.71778 0
M  V30 7008 C 644.879 -6.89698 1.43165 0
M  V30 7009 H 640.978 -0.725829 -0.291026 0
M  V30 7010 H 643.562 -1.94322 -0.121279 0
M  V30 7011 H 641.733 -3.07468 -2.37315 0
M  V30 7012 H 643.465 -3.31635 -2.31949 0
M  V30 7013 H 640.22 -4.66504 -0.816789 0
M  V30 7014 H 640.644 -6.72158 0.80823 0
M  V30 7015 H 645.286 -4.18465 -0.603929 0
M  V30 7016 H 643.004 -7.84809 1.92613 0
M  V30 7017 H 646.59 -5.76532 0.781141 0
M  V30 7018 H 645.47 -7.57505 2.02868 0
M  V30 7019 N 642.974 0.416227 -1.52004 0
M  V30 7020 C 644.22 1.16555 -1.6596 0
M  V30 7021 C 644.553 1.90347 -0.384906 0
M  V30 7022 O 643.828 1.84474 0.616405 0
M  V30 7023 C 644.111 2.1657 -2.87696 0
M  V30 7024 C 643.964 1.46722 -4.25197 0
M  V30 7025 C 645.283 3.17321 -3.04951 0
M  V30 7026 H 642.402 0.422369 -0.603965 0
M  V30 7027 H 645.044 0.452141 -1.84542 0
M  V30 7028 H 643.194 2.77411 -2.71985 0
M  V30 7029 H 644.866 0.89056 -4.52622 0
M  V30 7030 H 643.109 0.769263 -4.26925 0
M  V30 7031 H 643.78 2.19665 -5.0641 0
M  V30 7032 H 646.256 2.66552 -3.19514 0
M  V30 7033 H 645.132 3.84573 -3.91656 0
M  V30 7034 H 645.393 3.84643 -2.17951 0
M  V30 7035 N 644.452 1.42507 0.673017 0
M  V30 7036 C 645.7 1.42789 1.43023 0
M  V30 7037 C 646.021 0.0459738 1.94946 0
M  V30 7038 O 645.291 -0.915765 1.73178 0
M  V30 7039 H 643.871 0.525657 0.530748 0
M  V30 7040 H 646.533 1.77944 0.795113 0
M  V30 7041 H 645.629 2.12872 2.28237 0
M  V30 7042 N 645.93 -0.909495 1.28709 0
M  V30 7043 C 647.179 -1.65365 1.15487 0
M  V30 7044 C 647.492 -1.93364 -0.294941 0
M  V30 7045 O 648.698 -2.65905 -0.548338 0
M  V30 7046 C 647.154 -2.97923 2.01916 0
M  V30 7047 C 646.762 -2.77556 3.51663 0
M  V30 7048 C 648.506 -3.75814 1.97393 0
M  V30 7049 C 646.413 -4.0578 4.30229 0
M  V30 7050 H 645.343 -0.620323 0.42862 0
M  V30 7051 H 647.994 -1.00894 1.53273 0
M  V30 7052 H 646.376 -3.63552 1.5699 0
M  V30 7053 H 647.55 -2.2058 4.04575 0
M  V30 7054 H 645.865 -2.13072 3.57756 0
M  V30 7055 H 648.462 -4.70866 2.53357 0
M  V30 7056 H 648.805 -4.05277 0.951643 0
M  V30 7057 H 649.338 -3.1701 2.40311 0
M  V30 7058 H 646.077 -3.81488 5.33055 0
M  V30 7059 H 645.597 -4.62351 3.82089 0
M  V30 7060 H 647.276 -4.74004 4.40374 0
M  V30 7061 N 647.408 -1.11026 -1.11852 0
M  V30 7062 C 648.338 -0.786812 -2.19844 0
M  V30 7063 C 649.319 0.242935 -1.68356 0
M  V30 7064 O 650.504 0.107355 -1.93903 0
M  V30 7065 C 647.634 -0.224516 -3.46574 0
M  V30 7066 C 646.588 -1.18564 -4.1125 0
M  V30 7067 C 645.914 -0.484261 -5.32503 0
M  V30 7068 C 647.214 -2.53465 -4.56676 0
M  V30 7069 H 648.908 -1.68978 -2.47158 0
M  V30 7070 H 646.454 -0.813906 -1.18792 0
M  V30 7071 H 648.407 0.0139435 -4.21398 0
M  V30 7072 H 647.131 0.713722 -3.18706 0
M  V30 7073 H 645.79 -1.40966 -3.38414 0
M  V30 7074 H 645.438 0.458646 -5.00905 0
M  V30 7075 H 645.138 -1.12526 -5.76725 0
M  V30 7076 H 646.662 -0.254492 -6.10069 0
M  V30 7077 H 648.076 -2.35177 -5.22843 0
M  V30 7078 H 646.473 -3.13507 -5.11697 0
M  V30 7079 H 647.543 -3.13008 -3.70343 0
M  V30 7080 N 648.886 1.2938 -0.899927 0
M  V30 7081 C 650.111 2.00228 -0.540692 0
M  V30 7082 C 650.536 1.66909 0.867359 0
M  V30 7083 O 649.894 0.893824 1.57735 0
M  V30 7084 C 649.942 3.52921 -0.740232 0
M  V30 7085 O 649.046 4.11879 0.207154 0
M  V30 7086 H 648.387 0.629505 -0.211233 0
M  V30 7087 H 650.917 1.6487 -1.21158 0
M  V30 7088 H 650.927 4.0287 -0.644973 0
M  V30 7089 H 649.602 3.76508 -1.76677 0
M  V30 7090 H 648.179 3.72845 0.0643315 0
M  V30 7091 N 650.364 0.662433 1.43002 0
M  V30 7092 C 651.314 -0.0460442 2.27954 0
M  V30 7093 C 652.298 -0.785753 1.40409 0
M  V30 7094 O 653.49 -0.666701 1.63964 0
M  V30 7095 C 650.619 -1.00532 3.2825 0
M  V30 7096 C 649.705 -0.263604 4.2328 0
M  V30 7097 N 650.096 0.724855 5.00579 0
M  V30 7098 C 648.394 -0.503778 4.43146 0
M  V30 7099 C 649.095 1.16594 5.69895 0
M  V30 7100 N 648.071 0.498345 5.41311 0
M  V30 7101 H 651.873 0.712314 2.85137 0
M  V30 7102 H 649.387 0.490469 1.54817 0
M  V30 7103 H 651.384 -1.52775 3.87899 0
M  V30 7104 H 650.044 -1.76364 2.72628 0
M  V30 7105 H 651.055 1.10393 5.05998 0
M  V30 7106 H 647.732 -1.24255 3.98581 0
M  V30 7107 H 649.122 1.98434 6.4193 0
M  V30 7108 N 651.842 -1.52309 0.404946 0
M  V30 7109 C 653.09 -2.01368 -0.17186 0
M  V30 7110 C 653.411 -1.29261 -1.46002 0
M  V30 7111 O 652.681 -0.41729 -1.91404 0
M  V30 7112 H 651.261 -0.744034 -0.0664993 0
M  V30 7113 H 653.923 -1.87263 0.540228 0
M  V30 7114 H 653.019 -3.09888 -0.370957 0
M  V30 7115 N 653.32 -0.135238 -1.57019 0
M  V30 7116 C 654.25 0.805235 -2.19176 0
M  V30 7117 C 655.231 1.2656 -1.13651 0
M  V30 7118 O 656.416 1.32528 -1.4195 0
M  V30 7119 C 653.546 2.04914 -2.80406 0
M  V30 7120 C 652.5 1.72598 -3.91655 0
M  V30 7121 C 651.826 3.04154 -4.39766 0
M  V30 7122 C 653.126 0.981709 -5.12991 0
M  V30 7123 H 654.82 0.287232 -2.98019 0
M  V30 7124 H 652.366 0.136714 -1.4335 0
M  V30 7125 H 654.319 2.71178 -3.22553 0
M  V30 7126 H 653.043 2.59067 -1.98877 0
M  V30 7127 H 651.702 1.08717 -3.50109 0
M  V30 7128 H 651.35 3.56274 -3.55075 0
M  V30 7129 H 651.05 2.83299 -5.14796 0
M  V30 7130 H 652.574 3.71509 -4.84576 0
M  V30 7131 H 653.988 1.5462 -5.52056 0
M  V30 7132 H 652.385 0.873533 -5.93708 0
M  V30 7133 H 653.455 -0.0286887 -4.84892 0
M  V30 7134 N 654.798 1.5699 0.138552 0
M  V30 7135 C 656.214 1.51844 0.491472 0
M  V30 7136 C 656.414 0.845063 1.82923 0
M  V30 7137 O 655.47 0.419143 2.48997 0
M  V30 7138 C 656.783 2.96615 0.493987 0
M  V30 7139 C 658.331 3.076 0.578913 0
M  V30 7140 C 658.806 4.53893 0.612009 0
M  V30 7141 N 660.297 4.5827 0.673997 0
M  V30 7142 C 661.032 5.68852 0.720729 0
M  V30 7143 N 660.528 6.88982 0.726292 0
M  V30 7144 N 662.321 5.56908 0.762253 0
M  V30 7145 H 654.472 1.99158 -0.738228 0
M  V30 7146 H 656.735 0.908693 -0.270149 0
M  V30 7147 H 656.441 3.49172 -0.420933 0
M  V30 7148 H 656.315 3.53017 1.32887 0
M  V30 7149 H 658.702 2.55057 1.48425 0
M  V30 7150 H 658.783 2.54227 -0.283286 0
M  V30 7151 H 658.427 5.07076 -0.289208 0
M  V30 7152 H 658.357 5.05057 1.49082 0
M  V30 7153 H 660.848 3.71793 0.676654 0
M  V30 7154 H 661.161 7.69014 0.764032 0
M  V30 7155 H 659.506 6.91526 0.69403 0
M  V30 7156 H 662.697 4.61969 0.755135 0
M  V30 7157 H 662.87 6.43102 0.795207 0
M  V30 7158 N 656.276 -0.40816 1.52223 0
M  V30 7159 C 657.525 -1.15212 1.65557 0
M  V30 7160 C 657.838 -1.9163 0.392096 0
M  V30 7161 O 659.044 -2.68458 0.405256 0
M  V30 7162 C 657.5 -2.09691 2.92502 0
M  V30 7163 C 657.108 -1.38785 4.25961 0
M  V30 7164 C 658.852 -2.8434 3.152 0
M  V30 7165 C 656.759 -2.31919 5.44029 0
M  V30 7166 H 655.689 -0.433776 0.616729 0
M  V30 7167 H 658.34 -0.4165 1.78711 0
M  V30 7168 H 656.722 -2.8681 2.7305 0
M  V30 7169 H 657.896 -0.670248 4.55899 0
M  V30 7170 H 656.211 -0.761741 4.09373 0
M  V30 7171 H 658.808 -3.54166 4.00587 0
M  V30 7172 H 659.151 -3.47344 2.29473 0
M  V30 7173 H 659.684 -2.14321 3.35129 0
M  V30 7174 H 656.423 -1.7356 6.32105 0
M  V30 7175 H 655.943 -3.0165 5.18428 0
M  V30 7176 H 657.622 -2.92424 5.77146 0
M  V30 7177 N 657.755 -1.42862 -0.66545 0
M  V30 7178 C 658.718 -1.46756 -1.76055 0
M  V30 7179 C 659.718 -0.353866 -1.56858 0
M  V30 7180 O 660.908 -0.615099 -1.62979 0
M  V30 7181 C 658.04 -1.30829 -3.14796 0
M  V30 7182 H 659.233 -2.44271 -1.73987 0
M  V30 7183 H 656.786 -1.29447 -0.875965 0
M  V30 7184 H 657.521 -0.342733 -3.22484 0
M  V30 7185 H 657.306 -2.11551 -3.30134 0
M  V30 7186 H 658.796 -1.36458 -3.94676 0
M  V30 7187 N 659.233 0.902656 -1.29189 0
M  V30 7188 C 660.644 1.46809 -1.15343 0
M  V30 7189 C 660.995 1.94568 0.252517 0
M  V30 7190 O 660.12 1.83454 1.14777 0
M  V30 7191 C 660.715 2.66829 -2.08776 0
M  V30 7192 C 659.274 3.19518 -1.98961 0
M  V30 7193 C 658.421 1.92212 -1.99874 0
M  V30 7194 H 661.372 0.714282 -1.41717 0
M  V30 7195 H 661.393 3.42465 -1.65826 0
M  V30 7196 H 660.905 2.32039 -3.11094 0
M  V30 7197 H 659.006 3.59008 -0.99721 0
M  V30 7198 H 659.119 3.84016 -2.86477 0
M  V30 7199 H 657.483 2.0979 -1.44431 0
M  V30 7200 H 658.266 1.59702 -3.03891 0
M  V30 7201 N 660.711 1.11618 1.11262 0
M  V30 7202 C 662.122 0.881942 1.64556 0
M  V30 7203 C 662.473 -0.585442 1.87262 0
M  V30 7204 O 661.598 -1.44795 1.60821 0
M  V30 7205 C 662.193 1.59446 2.98935 0
M  V30 7206 C 660.752 1.40661 3.4913 0
M  V30 7207 C 659.899 1.63593 2.23903 0
M  V30 7208 H 662.85 1.27217 0.94877 0
M  V30 7209 H 662.871 1.04054 3.65996 0
M  V30 7210 H 662.383 2.66241 2.82378 0
M  V30 7211 H 660.484 0.360835 3.70849 0
M  V30 7212 H 660.597 2.15693 4.27801 0
M  V30 7213 H 658.961 1.05944 2.3162 0
M  V30 7214 H 659.744 2.71666 2.09886 0
M  V30 7215 N 662.189 -1.289 0.906776 0
M  V30 7216 C 663.099 -2.31256 0.394707 0
M  V30 7217 C 664.115 -1.66231 -0.514121 0
M  V30 7218 O 665.291 -1.97347 -0.401994 0
M  V30 7219 C 662.356 -3.44792 -0.363191 0
M  V30 7220 C 661.417 -4.25391 0.578012 0
M  V30 7221 C 660.65 -5.33506 -0.143811 0
M  V30 7222 O 660.873 -5.53786 -1.36665 0
M  V30 7223 O 659.807 -5.99673 0.5173 0
M  V30 7224 H 663.633 -2.77051 1.24405 0
M  V30 7225 H 661.218 -1.33466 0.671346 0
M  V30 7226 H 663.1 -4.139 -0.791503 0
M  V30 7227 H 661.775 -3.01093 -1.18848 0
M  V30 7228 H 660.682 -3.58899 1.05558 0
M  V30 7229 H 662.015 -4.72752 1.36992 0
M  V30 7230 N 663.667 -0.670007 -1.42649 0
M  V30 7231 C 664.63 0.00204659 -2.292 0
M  V30 7232 C 665.63 0.733817 -1.4308 0
M  V30 7233 O 666.82 0.57254 -1.64522 0
M  V30 7234 C 663.952 1.01359 -3.25483 0
M  V30 7235 H 665.145 -0.759696 -2.90118 0
M  V30 7236 H 662.698 -0.432105 -1.50208 0
M  V30 7237 H 663.433 1.80399 -2.69493 0
M  V30 7238 H 663.218 0.492323 -3.88997 0
M  V30 7239 H 664.708 1.4824 -3.90403 0
M  V30 7240 N 665.145 1.52092 -0.413018 0
M  V30 7241 C 666.556 1.86617 0.0556967 0
M  V30 7242 C 666.907 1.33156 1.44097 0
M  V30 7243 O 666.032 0.672417 2.05688 0
M  V30 7244 C 666.627 3.38628 0.107844 0
M  V30 7245 C 665.186 3.72778 0.520904 0
M  V30 7246 C 664.333 2.75649 -0.302109 0
M  V30 7247 H 667.284 1.45663 -0.629919 0
M  V30 7248 H 667.305 3.69152 0.922324 0
M  V30 7249 H 666.817 3.77508 -0.900506 0
M  V30 7250 H 664.918 3.39478 1.53575 0
M  V30 7251 H 665.031 4.7838 0.262591 0
M  V30 7252 H 663.395 2.53603 0.236115 0
M  V30 7253 H 664.178 3.17369 -1.30888 0
M  V30 7254 N 666.623 0.143563 1.56945 0
M  V30 7255 C 667.872 -0.50835 1.95189 0
M  V30 7256 C 668.185 -1.66239 1.03073 0
M  V30 7257 O 669.391 -2.3787 1.30882 0
M  V30 7258 C 667.847 -0.955735 3.46978 0
M  V30 7259 C 667.455 0.171183 4.47673 0
M  V30 7260 C 669.199 -1.57763 3.94095 0
M  V30 7261 C 667.106 -0.294279 5.90667 0
M  V30 7262 H 666.036 -0.193679 0.728701 0
M  V30 7263 H 668.687 0.227357 1.82086 0
M  V30 7264 H 667.069 -1.7466 3.55401 0
M  V30 7265 H 668.243 0.948049 4.50942 0
M  V30 7266 H 666.558 0.701273 4.10452 0
M  V30 7267 H 669.155 -1.93745 4.98364 0
M  V30 7268 H 669.498 -2.46531 3.35452 0
M  V30 7269 H 670.031 -0.851728 3.88575 0
M  V30 7270 H 666.77 0.557939 6.53121 0
M  V30 7271 H 666.29 -1.0371 5.90766 0
M  V30 7272 H 667.969 -0.747426 6.42668 0
M  V30 7273 N 668.101 -1.57061 -0.130224 0
M  V30 7274 C 669.329 -1.88432 -0.854456 0
M  V30 7275 C 669.744 -0.733608 -1.73964 0
M  V30 7276 O 669.101 0.296029 -1.80083 0
M  V30 7277 C 669.152 -3.1918 -1.69724 0
M  V30 7278 O 668.873 -4.2982 -0.847705 0
M  V30 7279 C 670.374 -3.6418 -2.5276 0
M  V30 7280 H 667.594 -0.624193 -0.246221 0
M  V30 7281 H 670.138 -2.04159 -0.11798 0
M  V30 7282 H 668.293 -3.05156 -2.3866 0
M  V30 7283 H 668.707 -5.04689 -1.42792 0
M  V30 7284 H 670.181 -4.58457 -3.07443 0
M  V30 7285 H 670.658 -2.90285 -3.29592 0
M  V30 7286 H 671.264 -3.80954 -1.89087 0
M  V30 7287 N 669.579 0.400081 -1.52437 0
M  V30 7288 C 670.827 1.14392 -1.6661 0
M  V30 7289 C 671.148 1.90792 -0.402927 0
M  V30 7290 O 670.418 1.87042 0.582425 0
M  V30 7291 H 668.998 0.425275 -0.614125 0
M  V30 7292 H 671.66 0.455076 -1.89513 0
M  V30 7293 H 670.756 1.85298 -2.51139 0
M  V30 7294 N 671.057 1.43213 0.657864 0
M  V30 7295 C 672.287 1.478 1.44356 0
M  V30 7296 C 672.695 0.0930206 1.88971 0
M  V30 7297 O 672.038 -0.906089 1.59799 0
M  V30 7298 C 672.1 2.35745 2.71412 0
M  V30 7299 C 671.764 3.83359 2.48767 0
M  V30 7300 C 672.761 4.74585 2.12285 0
M  V30 7301 C 670.446 4.27799 2.63235 0
M  V30 7302 C 672.44 6.08247 1.90562 0
M  V30 7303 C 670.127 5.61516 2.41128 0
M  V30 7304 C 671.125 6.51557 2.04847 0
M  V30 7305 O 670.813 7.82802 1.82967 0
M  V30 7306 H 670.545 0.504363 0.450104 0
M  V30 7307 H 673.099 1.88572 0.814241 0
M  V30 7308 H 671.329 1.89852 3.36887 0
M  V30 7309 H 673.018 2.31589 3.33348 0
M  V30 7310 H 673.784 4.41531 2.00687 0
M  V30 7311 H 669.663 3.57993 2.90451 0
M  V30 7312 H 673.207 6.78489 1.62168 0
M  V30 7313 H 669.104 5.94139 2.52327 0
M  V30 7314 H 669.872 7.94332 1.97429 0
M  V30 7315 N 672.536 -0.895792 1.29666 0
M  V30 7316 C 673.469 -2.00238 1.09453 0
M  V30 7317 C 674.447 -1.62599 0.00527044 0
M  V30 7318 O 675.631 -1.87847 0.156729 0
M  V30 7319 C 672.758 -3.32066 0.667054 0
M  V30 7320 C 671.804 -3.88691 1.7556 0
M  V30 7321 S 672.637 -4.17317 3.35569 0
M  V30 7322 C 673.793 -5.52181 2.94698 0
M  V30 7323 H 674.026 -2.17076 2.03138 0
M  V30 7324 H 671.559 -1.04287 1.13858 0
M  V30 7325 H 673.517 -4.08272 0.427136 0
M  V30 7326 H 672.178 -3.13101 -0.250256 0
M  V30 7327 H 671.371 -4.83918 1.40853 0
M  V30 7328 H 670.973 -3.19187 1.94924 0
M  V30 7329 H 673.265 -6.3281 2.41986 0
M  V30 7330 H 674.208 -5.91817 3.88791 0
M  V30 7331 H 674.616 -5.14225 2.32879 0
M  V30 7332 N 674.014 -1.12206 -1.10668 0
M  V30 7333 C 675.261 -0.875875 -1.82578 0
M  V30 7334 C 675.589 0.598342 -1.85068 0
M  V30 7335 O 674.844 1.45818 -1.3052 0
M  V30 7336 C 675.143 -1.39276 -3.29146 0
M  V30 7337 C 674.809 -2.8816 -3.46806 0
M  V30 7338 C 673.471 -3.28813 -3.51334 0
M  V30 7339 C 675.823 -3.8401 -3.52399 0
M  V30 7340 C 673.151 -4.64028 -3.59019 0
M  V30 7341 C 675.503 -5.19053 -3.61617 0
M  V30 7342 C 674.167 -5.59252 -3.64408 0
M  V30 7343 H 673.437 -0.320505 -0.6681 0
M  V30 7344 H 676.084 -1.40184 -1.30464 0
M  V30 7345 H 674.389 -0.787207 -3.8381 0
M  V30 7346 H 676.086 -1.17851 -3.83291 0
M  V30 7347 H 672.676 -2.55716 -3.43958 0
M  V30 7348 H 676.86 -3.53698 -3.48154 0
M  V30 7349 H 672.116 -4.94568 -3.59461 0
M  V30 7350 H 676.29 -5.93152 -3.64889 0
M  V30 7351 H 673.917 -6.64017 -3.70116 0
M  V30 7352 N 675.492 1.28418 -0.913599 0
M  V30 7353 C 676.74 1.94596 -0.545594 0
M  V30 7354 C 677.061 1.7227 0.913668 0
M  V30 7355 O 676.331 1.06233 1.64595 0
M  V30 7356 H 674.911 0.720065 -0.198783 0
M  V30 7357 H 677.573 1.56404 -1.16292 0
M  V30 7358 H 676.669 3.03202 -0.739911 0
M  V30 7359 N 676.97 0.677563 1.42291 0
M  V30 7360 C 677.917 0.000947061 2.308 0
M  V30 7361 C 678.887 -0.789889 1.46116 0
M  V30 7362 O 680.072 -0.761578 1.74942 0
M  V30 7363 C 677.212 -0.942387 3.31984 0
M  V30 7364 C 676.325 -0.14508 4.31756 0
M  V30 7365 C 675.46 -1.08442 5.20013 0
M  V30 7366 C 674.499 -0.278958 6.11464 0
M  V30 7367 N 673.636 -1.17115 6.92263 0
M  V30 7368 H 678.476 0.761521 2.88106 0
M  V30 7369 H 676.013 0.38727 1.41911 0
M  V30 7370 H 677.971 -1.50317 3.89179 0
M  V30 7371 H 676.601 -1.66956 2.76271 0
M  V30 7372 H 675.653 0.532368 3.76656 0
M  V30 7373 H 676.965 0.48015 4.96484 0
M  V30 7374 H 676.119 -1.71504 5.81955 0
M  V30 7375 H 674.858 -1.74353 4.55469 0
M  V30 7376 H 673.863 0.364856 5.48588 0
M  V30 7377 H 675.088 0.376099 6.78058 0
M  V30 7378 H 673.034 -1.81661 6.30345 0
M  V30 7379 H 672.951 -0.601063 7.53607 0
M  V30 7380 H 674.219 -1.78915 7.58689 0
M  V30 7381 N 678.448 -1.51871 0.421078 0
M  V30 7382 C 679.696 -2.01539 -0.150492 0
M  V30 7383 C 680.017 -1.30803 -1.44623 0
M  V30 7384 O 679.287 -0.437568 -1.90951 0
M  V30 7385 H 677.867 -0.744698 -0.0586041 0
M  V30 7386 H 680.529 -1.8668 0.560059 0
M  V30 7387 H 679.625 -3.10264 -0.338068 0
M  V30 7388 N 679.926 -0.151884 -1.56866 0
M  V30 7389 C 681.175 0.497992 -1.95456 0
M  V30 7390 C 681.488 1.6569 -1.03953 0
M  V30 7391 O 682.694 2.37173 -1.32142 0
M  V30 7392 C 681.15 0.93732 -3.4748 0
M  V30 7393 C 680.758 -0.194921 -4.47576 0
M  V30 7394 C 682.502 1.55671 -3.94926 0
M  V30 7395 C 680.409 0.26295 -5.90815 0
M  V30 7396 H 679.339 0.189811 -0.729717 0
M  V30 7397 H 681.99 -0.237011 -1.81963 0
M  V30 7398 H 680.372 1.72773 -3.56322 0
M  V30 7399 H 681.546 -0.971951 -4.50433 0
M  V30 7400 H 679.861 -0.72303 -4.10075 0
M  V30 7401 H 682.458 1.91099 -4.99385 0
M  V30 7402 H 682.801 2.44748 -3.36755 0
M  V30 7403 H 683.334 0.831109 -3.89021 0
M  V30 7404 H 680.073 -0.592568 -6.52816 0
M  V30 7405 H 679.593 1.00575 -5.91308 0
M  V30 7406 H 681.272 0.713333 -6.43056 0
M  V30 7407 N 681.404 1.57128 0.121893 0
M  V30 7408 C 682.634 1.88609 0.843227 0
M  V30 7409 C 683.042 0.740917 1.74089 0
M  V30 7410 O 682.385 -0.297426 1.81276 0
M  V30 7411 C 682.447 3.15073 1.73117 0
M  V30 7412 C 682.111 4.45742 1.0081 0
M  V30 7413 C 683.108 5.18719 0.350255 0
M  V30 7414 C 680.793 4.92444 0.99014 0
M  V30 7415 C 682.787 6.36617 -0.315889 0
M  V30 7416 C 680.474 6.10261 0.320196 0
M  V30 7417 C 681.472 6.82194 -0.331666 0
M  V30 7418 O 681.16 7.97769 -0.990927 0
M  V30 7419 H 680.892 0.628919 0.247865 0
M  V30 7420 H 683.446 2.05096 0.111725 0
M  V30 7421 H 681.676 2.9466 2.50424 0
M  V30 7422 H 683.365 3.32597 2.32667 0
M  V30 7423 H 684.131 4.83693 0.35577 0
M  V30 7424 H 680.01 4.36361 1.48695 0
M  V30 7425 H 683.554 6.92701 -0.825272 0
M  V30 7426 H 679.451 6.44743 0.312433 0
M  V30 7427 H 680.219 8.13591 -0.895113 0
M  V30 7428 N 682.882 -0.391992 1.52647 0
M  V30 7429 C 684.129 -1.13732 1.67545 0
M  V30 7430 C 684.457 -1.90045 0.413881 0
M  V30 7431 O 683.712 -1.86157 -0.603646 0
M  V30 7432 C 684.011 -2.14401 2.85949 0
M  V30 7433 C 683.677 -1.54767 4.23507 0
M  V30 7434 C 682.339 -1.38229 4.60919 0
M  V30 7435 C 684.691 -1.11382 5.0916 0
M  V30 7436 C 682.019 -0.7685 5.81645 0
M  V30 7437 C 684.371 -0.514143 6.30507 0
M  V30 7438 C 683.035 -0.33604 6.66654 0
M  V30 7439 H 682.305 -0.416174 0.613091 0
M  V30 7440 H 684.952 -0.422327 1.86785 0
M  V30 7441 H 683.257 -2.92108 2.61114 0
M  V30 7442 H 684.954 -2.71974 2.94671 0
M  V30 7443 H 681.544 -1.68626 3.94035 0
M  V30 7444 H 685.728 -1.22962 4.80826 0
M  V30 7445 H 680.984 -0.618681 6.08262 0
M  V30 7446 H 685.158 -0.169657 6.96193 0
M  V30 7447 H 682.785 0.14166 7.60068 0
M  V30 7448 N 684.36 -1.4356 -0.65026 0
M  V30 7449 C 685.323 -1.48615 -1.74489 0
M  V30 7450 C 686.323 -0.370483 -1.56474 0
M  V30 7451 O 687.513 -0.632351 -1.62317 0
M  V30 7452 C 684.645 -1.34161 -3.13391 0
M  V30 7453 H 685.838 -2.46103 -1.71387 0
M  V30 7454 H 683.391 -1.30369 -0.862186 0
M  V30 7455 H 684.126 -0.376918 -3.22102 0
M  V30 7456 H 683.911 -2.1504 -3.27872 0
M  V30 7457 H 685.401 -1.40637 -3.93206 0
M  V30 7458 N 685.838 0.888903 -1.30139 0
M  V30 7459 C 687.115 1.62145 -1.094 0
M  V30 7460 C 687.495 2.08041 0.358091 0
M  V30 7461 O 686.843 1.84438 1.34888 0
M  V30 7462 C 687.053 2.794 -2.09133 0
M  V30 7463 C 688.401 3.49826 -2.40638 0
M  V30 7464 O 689.425 2.89583 -2.07412 0
M  V30 7465 O 688.284 4.58457 -2.97455 0
M  V30 7466 H 685.378 0.712475 -0.41989 0
M  V30 7467 H 687.924 0.936023 -1.41551 0
M  V30 7468 H 686.696 2.42762 -3.06891 0
M  V30 7469 H 686.319 3.55643 -1.77776 0
M  V30 7470 N 687.317 1.12792 1.10072 0
M  V30 7471 C 688.25 0.742921 2.15768 0
M  V30 7472 C 689.228 -0.267714 1.60381 0
M  V30 7473 O 690.412 -0.160782 1.87813 0
M  V30 7474 C 687.539 0.100244 3.38552 0
M  V30 7475 C 686.585 1.07831 4.12644 0
M  V30 7476 S 687.418 2.60765 4.6772 0
M  V30 7477 C 688.574 1.97838 5.9381 0
M  V30 7478 H 688.807 1.63822 2.48092 0
M  V30 7479 H 686.34 0.947385 1.21918 0
M  V30 7480 H 688.298 -0.264175 4.09649 0
M  V30 7481 H 686.959 -0.772223 3.04459 0
M  V30 7482 H 686.152 0.576325 5.00694 0
M  V30 7483 H 685.754 1.38586 3.47376 0
M  V30 7484 H 688.046 1.32341 6.64449 0
M  V30 7485 H 688.989 2.83943 6.48677 0
M  V30 7486 H 689.397 1.43267 5.46017 0
M  V30 7487 N 688.795 -1.27931 0.920396 0
M  V30 7488 C 690.02 -1.99343 0.572478 0
M  V30 7489 C 690.445 -1.68267 -0.840696 0
M  V30 7490 O 689.803 -0.918805 -1.56294 0
M  V30 7491 C 689.851 -3.51698 0.796284 0
M  V30 7492 O 688.955 -4.12157 -0.141602 0
M  V30 7493 H 688.296 -0.626065 0.221221 0
M  V30 7494 H 690.826 -1.62921 1.23765 0
M  V30 7495 H 690.836 -4.01793 0.708984 0
M  V30 7496 H 689.511 -3.73649 1.82644 0
M  V30 7497 H 688.088 -3.729 -0.005007 0
M  V30 7498 N 690.273 -0.685099 -1.4193 0
M  V30 7499 C 691.498 -0.218842 -2.06242 0
M  V30 7500 C 691.923 1.11923 -1.51178 0
M  V30 7501 O 691.281 1.69837 -0.634446 0
M  V30 7502 C 691.329 -0.175592 -3.60172 0
M  V30 7503 O 690.433 0.852776 -4.03487 0
M  V30 7504 H 689.774 -0.109531 -0.654904 0
M  V30 7505 H 692.304 -0.937013 -1.81882 0
M  V30 7506 H 692.314 -0.00291151 -4.08 0
M  V30 7507 H 690.989 -1.15222 -3.99621 0
M  V30 7508 H 689.566 0.650301 -3.67186 0
M  V30 7509 N 691.751 1.51645 -0.429126 0
M  V30 7510 C 692.698 2.27542 0.386446 0
M  V30 7511 C 693.668 1.30786 1.02393 0
M  V30 7512 O 694.853 1.59678 1.0444 0
M  V30 7513 C 691.993 3.11457 1.48623 0
M  V30 7514 C 691.106 4.23196 0.867691 0
M  V30 7515 C 690.241 4.94435 1.94183 0
M  V30 7516 C 689.28 5.98108 1.30129 0
M  V30 7517 N 688.417 6.62786 2.31644 0
M  V30 7518 H 693.257 2.968 -0.267155 0
M  V30 7519 H 690.794 1.46397 -0.143591 0
M  V30 7520 H 692.752 3.58429 2.13506 0
M  V30 7521 H 691.382 2.44329 2.10957 0
M  V30 7522 H 690.434 3.80248 0.107373 0
M  V30 7523 H 691.746 4.97499 0.35997 0
M  V30 7524 H 690.9 5.44914 2.66747 0
M  V30 7525 H 689.639 4.19744 2.48326 0
M  V30 7526 H 688.644 5.4693 0.561082 0
M  V30 7527 H 689.869 6.74751 0.767303 0
M  V30 7528 H 687.815 5.90913 2.84883 0
M  V30 7529 H 687.732 7.32828 1.85741 0
M  V30 7530 H 689 7.17897 3.03717 0
M  V30 7531 N 693.229 0.160201 1.56784 0
M  V30 7532 C 694.454 -0.497373 2.01348 0
M  V30 7533 C 694.879 -1.56757 1.03966 0
M  V30 7534 O 694.237 -1.81292 0.0174455 0
M  V30 7535 C 694.285 -1.0628 3.44582 0
M  V30 7536 O 693.389 -2.17723 3.50244 0
M  V30 7537 H 692.73 -0.120295 0.653012 0
M  V30 7538 H 695.26 0.260821 2.02931 0
M  V30 7539 H 695.27 -1.38819 3.83658 0
M  V30 7540 H 693.945 -0.279166 4.14962 0
M  V30 7541 H 692.522 -1.86313 3.2302 0
M  V30 7542 N 694.707 -1.5719 -0.113559 0
M  V30 7543 C 695.67 -1.99796 -1.12314 0
M  V30 7544 C 696.67 -0.888847 -1.34001 0
M  V30 7545 O 697.86 -1.15476 -1.30426 0
M  V30 7546 C 694.992 -2.34279 -2.47641 0
M  V30 7547 H 696.185 -2.90193 -0.756825 0
M  V30 7548 H 693.738 -1.52144 -0.358029 0
M  V30 7549 H 694.473 -1.46778 -2.89183 0
M  V30 7550 H 694.258 -3.15175 -2.33253 0
M  V30 7551 H 695.748 -2.67963 -3.2029 0
M  V30 7552 N 696.185 0.383891 -1.52853 0
M  V30 7553 C 697.133 1.48965 -1.7864 0
M  V30 7554 C 698.127 1.56242 -0.654577 0
M  V30 7555 O 699.333 1.59347 -0.83716 0
M  V30 7556 H 695.708 0.495892 -0.565328 0
M  V30 7557 H 697.679 1.24411 -2.71228 0
M  V30 7558 C 696.428 2.86036 -1.97683 0
M  V30 7559 H 695.751 2.81188 -2.84206 0
M  V30 7560 H 697.191 3.62632 -2.19713 0
M  V30 7561 C 695.65 3.28428 -0.750776 0
M  V30 7562 O 696.18 4.0164 0.0693491 0
M  V30 7563 N 694.386 2.84765 -0.579427 0
M  V30 7564 H 693.933 2.25353 -1.24795 0
M  V30 7565 H 693.891 3.13486 0.239544 0
M  V30 7566 N 697.663 1.43903 0.642637 0
M  V30 7567 C 698.893 1.49323 1.4278 0
M  V30 7568 C 699.301 0.113058 1.88862 0
M  V30 7569 O 698.644 -0.889089 1.60751 0
M  V30 7570 C 698.706 2.3861 2.68897 0
M  V30 7571 C 698.37 3.85976 2.44687 0
M  V30 7572 C 699.367 4.7681 2.07239 0
M  V30 7573 C 697.052 4.30567 2.58683 0
M  V30 7574 C 699.046 6.10234 1.841 0
M  V30 7575 C 696.733 5.64042 2.35159 0
M  V30 7576 C 697.731 6.53693 1.97925 0
M  V30 7577 O 697.419 7.84698 1.74654 0
M  V30 7578 H 697.151 0.509109 0.444729 0
M  V30 7579 H 699.705 1.89425 0.794195 0
M  V30 7580 H 697.935 1.93415 3.34855 0
M  V30 7581 H 699.624 2.35112 3.30873 0
M  V30 7582 H 700.39 4.43635 1.95993 0
M  V30 7583 H 696.269 3.61054 2.86637 0
M  V30 7584 H 699.813 6.80171 1.54962 0
M  V30 7585 H 695.71 5.96782 2.46011 0
M  V30 7586 H 696.478 7.96382 1.88993 0
M  V30 7587 N 699.141 -0.881989 1.30609 0
M  V30 7588 C 700.381 -1.64817 1.20891 0
M  V30 7589 C 700.745 -1.90593 -0.232043 0
M  V30 7590 O 701.946 -2.64964 -0.452516 0
M  V30 7591 C 700.217 -2.95006 2.01758 0
M  V30 7592 S 701.776 -3.85953 2.08771 0
M  V30 7593 H 698.594 -0.565651 0.430767 0
M  V30 7594 H 701.196 -1.04665 1.65122 0
M  V30 7595 H 699.9 -2.73973 3.0556 0
M  V30 7596 H 699.431 -3.60189 1.582 0
M  V30 7597 H 701.446 -4.81037 1.21727 0
M  V30 7598 N 700.619 -1.13374 -1.09472 0
M  V30 7599 C 701.866 -0.89519 -1.81639 0
M  V30 7600 C 702.194 0.57868 -1.85692 0
M  V30 7601 O 701.449 1.44426 -1.32059 0
M  V30 7602 C 701.748 -1.42759 -3.2765 0
M  V30 7603 C 701.414 -2.91822 -3.43731 0
M  V30 7604 C 700.076 -3.32521 -3.47827 0
M  V30 7605 C 702.428 -3.87727 -3.48307 0
M  V30 7606 C 699.756 -4.6781 -3.54078 0
M  V30 7607 C 702.108 -5.22859 -3.56091 0
M  V30 7608 C 700.772 -5.63086 -3.58456 0
M  V30 7609 H 700.042 -0.327573 -0.664663 0
M  V30 7610 H 702.689 -1.4156 -1.28969 0
M  V30 7611 H 700.994 -0.827871 -3.82954 0
M  V30 7612 H 702.691 -1.2191 -3.8202 0
M  V30 7613 H 699.281 -2.5935 -3.41226 0
M  V30 7614 H 703.465 -3.57371 -3.44383 0
M  V30 7615 H 698.721 -4.98353 -3.54195 0
M  V30 7616 H 702.895 -5.96989 -3.58577 0
M  V30 7617 H 700.522 -6.67905 -3.63052 0
M  V30 7618 N 702.098 1.27442 -0.927168 0
M  V30 7619 C 703.061 2.2512 -0.430525 0
M  V30 7620 C 704.061 1.54357 0.450619 0
M  V30 7621 O 705.251 1.72371 0.251774 0
M  V30 7622 C 702.383 3.38763 0.381144 0
M  V30 7623 H 703.576 2.70569 -1.29354 0
M  V30 7624 H 701.129 1.39355 -0.707806 0
M  V30 7625 H 701.864 2.98695 1.263 0
M  V30 7626 H 701.649 3.91298 -0.250618 0
M  V30 7627 H 703.139 4.11364 0.719012 0
M  V30 7628 N 703.576 0.692616 1.41565 0
M  V30 7629 C 704.801 0.229776 2.06123 0
M  V30 7630 C 705.226 -1.11119 1.5177 0
M  V30 7631 O 704.584 -1.69498 0.643444 0
M  V30 7632 C 704.632 0.19469 3.60074 0
M  V30 7633 O 703.736 -0.831366 4.03933 0
M  V30 7634 H 703.077 0.113002 0.654314 0
M  V30 7635 H 705.607 0.946645 1.81383 0
M  V30 7636 H 705.617 0.0245487 4.07993 0
M  V30 7637 H 704.292 1.17339 3.99004 0
M  V30 7638 H 702.869 -0.630819 3.67526 0
M  V30 7639 N 705.054 -1.51416 0.437162 0
M  V30 7640 C 706.47 -1.59349 0.0894459 0
M  V30 7641 C 706.67 -1.44809 -1.40116 0
M  V30 7642 O 705.726 -1.28924 -2.17106 0
M  V30 7643 C 707.039 -2.9446 0.609398 0
M  V30 7644 C 708.587 -3.07769 0.569824 0
M  V30 7645 C 709.062 -4.45404 1.06675 0
M  V30 7646 N 710.553 -4.51723 1.02473 0
M  V30 7647 C 711.288 -5.56544 1.3801 0
M  V30 7648 N 710.784 -6.68784 1.80831 0
M  V30 7649 N 712.577 -5.46901 1.29828 0
M  V30 7650 H 704.728 -1.59112 1.40703 0
M  V30 7651 H 706.991 -0.750031 0.579791 0
M  V30 7652 H 706.697 -3.1047 1.65231 0
M  V30 7653 H 706.571 -3.77184 0.0342236 0
M  V30 7654 H 708.958 -2.91428 -0.464107 0
M  V30 7655 H 709.039 -2.26885 1.1814 0
M  V30 7656 H 708.683 -4.62492 2.09914 0
M  V30 7657 H 708.613 -5.24827 0.431712 0
M  V30 7658 H 711.104 -3.71165 0.710258 0
M  V30 7659 H 711.417 -7.44787 2.06185 0
M  V30 7660 H 709.762 -6.69992 1.84757 0
M  V30 7661 H 712.953 -4.581 0.962397 0
M  V30 7662 H 713.126 -6.2848 1.57851 0
M  V30 7663 N 706.532 -0.168513 -1.56696 0
M  V30 7664 C 707.462 0.758563 -2.20835 0
M  V30 7665 C 708.443 1.24121 -1.1631 0
M  V30 7666 O 709.628 1.29487 -1.4473 0
M  V30 7667 C 706.758 1.9892 -2.8469 0
M  V30 7668 C 705.712 1.64252 -3.95228 0
M  V30 7669 C 705.038 2.94757 -4.46119 0
M  V30 7670 C 706.338 0.872675 -5.14958 0
M  V30 7671 H 708.032 0.223953 -2.98561 0
M  V30 7672 H 705.578 0.106277 -1.43607 0
M  V30 7673 H 707.531 2.64275 -3.28233 0
M  V30 7674 H 706.255 2.5479 -2.04327 0
M  V30 7675 H 704.914 1.01266 -3.52336 0
M  V30 7676 H 704.562 3.48662 -3.62552 0
M  V30 7677 H 704.262 2.72316 -5.2069 0
M  V30 7678 H 705.786 3.61147 -4.92347 0
M  V30 7679 H 707.2 1.42875 -5.55211 0
M  V30 7680 H 705.597 0.747402 -5.95428 0
M  V30 7681 H 706.667 -0.131535 -4.84722 0
M  V30 7682 N 708.01 1.57248 0.105221 0
M  V30 7683 C 708.957 2.01338 1.12835 0
M  V30 7684 C 709.927 0.887897 1.40377 0
M  V30 7685 O 711.112 1.15315 1.5201 0
M  V30 7686 C 708.252 2.43432 2.44611 0
M  V30 7687 C 707.365 3.69457 2.23888 0
M  V30 7688 C 706.5 4.00473 3.48991 0
M  V30 7689 C 705.539 5.19638 3.23485 0
M  V30 7690 N 704.676 5.46457 4.40828 0
M  V30 7691 H 709.516 2.88527 0.745386 0
M  V30 7692 H 707.053 1.42714 0.356535 0
M  V30 7693 H 709.011 2.65879 3.21503 0
M  V30 7694 H 707.641 1.59266 2.80774 0
M  V30 7695 H 706.693 3.54545 1.37847 0
M  V30 7696 H 708.005 4.56497 2.01026 0
M  V30 7697 H 707.159 4.23642 4.34295 0
M  V30 7698 H 705.898 3.11935 3.74897 0
M  V30 7699 H 704.903 4.96299 2.36574 0
M  V30 7700 H 706.128 6.09766 2.98935 0
M  V30 7701 H 704.074 4.60876 4.66829 0
M  V30 7702 H 703.991 6.27849 4.2112 0
M  V30 7703 H 705.259 5.74155 5.27225 0
M  V30 7704 N 709.488 -0.375779 1.53054 0
M  V30 7705 C 710.436 -1.48015 1.79428 0
M  V30 7706 C 711.43 -1.55893 0.662854 0
M  V30 7707 O 712.636 -1.58901 0.845599 0
M  V30 7708 H 709.011 -0.492887 0.56795 0
M  V30 7709 H 710.982 -1.22971 2.71884 0
M  V30 7710 C 709.731 -2.84984 1.99197 0
M  V30 7711 H 709.054 -2.79677 2.85693 0
M  V30 7712 H 710.494 -3.61462 2.21633 0
M  V30 7713 C 708.953 -3.28025 0.768183 0
M  V30 7714 O 709.483 -4.01671 -0.0480482 0
M  V30 7715 N 707.689 -2.84454 0.594521 0
M  V30 7716 H 707.236 -2.24688 1.25988 0
M  V30 7717 H 707.194 -3.13609 -0.222916 0
M  V30 7718 N 710.966 -1.44241 -0.634997 0
M  V30 7719 C 712.194 -1.50296 -1.42193 0
M  V30 7720 C 712.609 -0.12658 -1.88375 0
M  V30 7721 O 711.966 0.86678 -1.60603 0
M  V30 7722 C 712.017 -2.46437 -2.64482 0
M  V30 7723 O 711.738 -3.78724 -2.20226 0
M  V30 7724 C 713.239 -2.61918 -3.57651 0
M  V30 7725 H 710.459 -0.509865 -0.43621 0
M  V30 7726 H 713.003 -1.89167 -0.776921 0
M  V30 7727 H 711.158 -2.10712 -3.25083 0
M  V30 7728 H 711.572 -4.30595 -2.9948 0
M  V30 7729 H 713.046 -3.33225 -4.40074 0
M  V30 7730 H 713.523 -1.67017 -4.06204 0
M  V30 7731 H 714.129 -2.98528 -3.02921 0
M  V30 7732 N 712.444 0.87505 -1.31075 0
M  V30 7733 C 713.692 1.62447 -1.20231 0
M  V30 7734 C 714.013 1.93506 0.240888 0
M  V30 7735 O 713.283 1.57847 1.16022 0
M  V30 7736 H 711.863 0.602207 -0.441991 0
M  V30 7737 H 714.525 1.04788 -1.64334 0
M  V30 7738 H 713.621 2.57031 -1.77036 0
M  V30 7739 N 713.922 1.13953 1.08869 0
M  V30 7740 C 714.852 0.844824 2.17681 0
M  V30 7741 C 715.833 -0.198213 1.68941 0
M  V30 7742 O 717.018 -0.0559073 1.9412 0
M  V30 7743 C 714.148 0.316325 3.45856 0
M  V30 7744 C 713.102 1.29426 4.07962 0
M  V30 7745 C 712.428 0.625275 5.31031 0
M  V30 7746 C 713.728 2.65484 4.49795 0
M  V30 7747 H 715.422 1.75471 2.42591 0
M  V30 7748 H 712.968 0.845116 1.16592 0
M  V30 7749 H 714.921 0.0977876 4.21287 0
M  V30 7750 H 713.645 -0.628972 3.20486 0
M  V30 7751 H 712.304 1.49889 3.34558 0
M  V30 7752 H 711.952 -0.325678 5.01945 0
M  V30 7753 H 711.652 1.27777 5.73539 0
M  V30 7754 H 713.176 0.416152 6.0918 0
M  V30 7755 H 714.59 2.48957 5.16424 0
M  V30 7756 H 712.987 3.26963 5.03205 0
M  V30 7757 H 714.057 3.22717 3.61914 0
M  V30 7758 N 715.4 -1.26948 0.933913 0
M  V30 7759 C 716.33 -2.29017 0.45534 0
M  V30 7760 C 717.311 -1.62961 -0.487605 0
M  V30 7761 O 718.496 -1.90223 -0.391022 0
M  V30 7762 C 715.626 -3.46112 -0.287015 0
M  V30 7763 C 714.58 -4.24205 0.568682 0
M  V30 7764 C 713.906 -5.3384 -0.303206 0
M  V30 7765 C 715.206 -4.88954 1.83633 0
M  V30 7766 H 716.9 -2.69298 1.30839 0
M  V30 7767 H 714.446 -1.29459 0.630579 0
M  V30 7768 H 716.399 -4.16622 -0.6328 0
M  V30 7769 H 715.123 -3.04765 -1.17414 0
M  V30 7770 H 713.782 -3.5545 0.897261 0
M  V30 7771 H 713.43 -4.88734 -1.18947 0
M  V30 7772 H 713.13 -5.86998 0.265879 0
M  V30 7773 H 714.654 -6.0719 -0.644423 0
M  V30 7774 H 716.068 -5.51717 1.55823 0
M  V30 7775 H 714.465 -5.52198 2.34941 0
M  V30 7776 H 715.535 -4.12305 2.55211 0
M  V30 7777 N 716.879 -0.700114 -1.41195 0
M  V30 7778 C 717.809 -0.0521132 -2.33442 0
M  V30 7779 C 718.79 0.76228 -1.52063 0
M  V30 7780 O 719.975 0.714336 -1.80585 0
M  V30 7781 C 717.105 0.881693 -3.35922 0
M  V30 7782 C 716.059 0.174062 -4.27646 0
M  V30 7783 C 715.385 1.22254 -5.20536 0
M  V30 7784 C 716.685 -0.962396 -5.13357 0
M  V30 7785 H 718.379 -0.822574 -2.87879 0
M  V30 7786 H 715.925 -0.397011 -1.38419 0
M  V30 7787 H 717.878 1.34429 -3.99383 0
M  V30 7788 H 716.602 1.68387 -2.79845 0
M  V30 7789 H 715.261 -0.268551 -3.65615 0
M  V30 7790 H 714.909 2.01736 -4.60773 0
M  V30 7791 H 714.609 0.754038 -5.82742 0
M  V30 7792 H 716.133 1.68555 -5.86874 0
M  V30 7793 H 717.547 -0.579875 -5.7036 0
M  V30 7794 H 715.944 -1.35828 -5.84526 0
M  V30 7795 H 717.014 -1.80003 -4.50252 0
M  V30 7796 N 718.357 1.51182 -0.445186 0
M  V30 7797 C 719.287 2.30821 0.352686 0
M  V30 7798 C 720.268 1.36576 1.01395 0
M  V30 7799 O 721.453 1.65497 1.01609 0
M  V30 7800 C 718.583 3.15593 1.44976 0
M  V30 7801 C 717.537 4.1818 0.911553 0
M  V30 7802 C 716.863 4.91523 2.10497 0
M  V30 7803 C 718.163 5.22266 -0.059418 0
M  V30 7804 H 719.857 2.97771 -0.311936 0
M  V30 7805 H 717.403 1.43201 -0.151461 0
M  V30 7806 H 719.356 3.70091 2.01521 0
M  V30 7807 H 718.08 2.4648 2.14278 0
M  V30 7808 H 716.739 3.64746 0.368264 0
M  V30 7809 H 716.387 4.18906 2.78437 0
M  V30 7810 H 716.087 5.60898 1.7512 0
M  V30 7811 H 717.611 5.48847 2.6758 0
M  V30 7812 H 719.025 5.71789 0.415985 0
M  V30 7813 H 717.422 5.99213 -0.326152 0
M  V30 7814 H 718.492 4.7461 -0.993631 0
M  V30 7815 N 719.835 0.176821 1.56605 0
M  V30 7816 C 721.06 -0.47599 2.01864 0
M  V30 7817 C 721.485 -1.55645 1.05623 0
M  V30 7818 O 720.843 -1.81263 0.0366729 0
M  V30 7819 C 720.891 -1.02619 3.4569 0
M  V30 7820 O 719.995 -2.13996 3.52533 0
M  V30 7821 H 719.336 -0.113363 0.654251 0
M  V30 7822 H 721.866 0.28233 2.02643 0
M  V30 7823 H 721.876 -1.34742 3.85109 0
M  V30 7824 H 720.551 -0.235138 4.15235 0
M  V30 7825 H 719.128 -1.82876 3.24978 0
M  V30 7826 N 721.313 -1.57302 -0.09688 0
M  V30 7827 C 722.223 -2.05258 -1.13606 0
M  V30 7828 C 723.239 -0.977137 -1.43972 0
M  V30 7829 O 724.415 -1.29018 -1.54649 0
M  V30 7830 C 721.48 -2.46593 -2.43706 0
M  V30 7831 C 720.541 -3.68322 -2.20538 0
M  V30 7832 C 719.774 -4.07676 -3.44435 0
M  V30 7833 O 719.997 -3.47141 -4.52603 0
M  V30 7834 O 718.931 -5.00641 -3.34129 0
M  V30 7835 H 722.757 -2.94069 -0.758752 0
M  V30 7836 H 720.342 -1.46164 -0.309263 0
M  V30 7837 H 722.224 -2.73814 -3.20318 0
M  V30 7838 H 720.899 -1.6092 -2.80867 0
M  V30 7839 H 719.806 -3.4622 -1.41713 0
M  V30 7840 H 721.139 -4.54769 -1.88271 0
M  V30 7841 N 722.791 0.367657 -1.53252 0
M  V30 7842 C 724.037 1.11216 -1.69584 0
M  V30 7843 C 724.37 1.89026 -0.445269 0
M  V30 7844 O 723.645 1.86342 0.557404 0
M  V30 7845 C 723.928 2.07308 -2.94441 0
M  V30 7846 C 723.781 1.3312 -4.2965 0
M  V30 7847 C 725.1 3.07459 -3.14892 0
M  V30 7848 H 722.219 0.40294 -0.617096 0
M  V30 7849 H 724.861 0.393201 -1.85887 0
M  V30 7850 H 723.011 2.68617 -2.80673 0
M  V30 7851 H 724.683 0.746111 -4.55226 0
M  V30 7852 H 722.926 0.633051 -4.29156 0
M  V30 7853 H 723.597 2.03443 -5.13142 0
M  V30 7854 H 726.073 2.56252 -3.27832 0
M  V30 7855 H 724.949 3.71919 -4.03693 0
M  V30 7856 H 725.21 3.77514 -2.30077 0
M  V30 7857 N 724.269 1.44576 0.627338 0
M  V30 7858 C 725.232 1.51372 1.72102 0
M  V30 7859 C 726.232 0.395329 1.55865 0
M  V30 7860 O 727.422 0.658094 1.61291 0
M  V30 7861 C 724.554 1.39129 3.11217 0
M  V30 7862 H 725.747 2.48798 1.6745 0
M  V30 7863 H 723.3 1.31724 0.841336 0
M  V30 7864 H 724.035 0.428114 3.21462 0
M  V30 7865 H 723.82 2.20229 3.24409 0
M  V30 7866 H 725.31 1.46874 3.90919 0
M  V30 7867 N 725.747 -0.868086 1.31537 0
M  V30 7868 C 726.677 -1.99131 1.21939 0
M  V30 7869 C 727.658 -1.69768 0.106166 0
M  V30 7870 O 728.843 -1.92006 0.291081 0
M  V30 7871 C 725.973 -3.34676 0.927879 0
M  V30 7872 C 724.927 -3.7835 2.00088 0
M  V30 7873 C 724.253 -5.11375 1.56203 0
M  V30 7874 C 725.553 -3.95256 3.41424 0
M  V30 7875 H 727.247 -2.07419 2.15911 0
M  V30 7876 H 724.793 -0.996569 1.03945 0
M  V30 7877 H 726.746 -4.12793 0.847327 0
M  V30 7878 H 725.47 -3.26565 -0.0475042 0
M  V30 7879 H 724.129 -3.02474 2.07135 0
M  V30 7880 H 723.777 -4.99709 0.57445 0
M  V30 7881 H 723.477 -5.41568 2.27985 0
M  V30 7882 H 725.001 -5.92001 1.49558 0
M  V30 7883 H 726.415 -4.63764 3.3704 0
M  V30 7884 H 724.812 -4.36849 4.1144 0
M  V30 7885 H 725.882 -2.98579 3.82072 0
M  V30 7886 N 727.225 -1.14528 -1.08264 0
M  V30 7887 C 728.473 -0.912599 -1.80322 0
M  V30 7888 C 728.794 0.562256 -1.86718 0
M  V30 7889 O 728.064 1.40869 -1.36135 0
M  V30 7890 H 726.644 -0.334645 -0.667849 0
M  V30 7891 H 729.306 -1.44415 -1.30883 0
M  V30 7892 H 728.402 -1.31384 -2.83098 0
M  V30 7893 N 728.703 1.26451 -0.940633 0
M  V30 7894 C 729.635 2.25556 -0.407104 0
M  V30 7895 C 730.648 1.55888 0.469324 0
M  V30 7896 O 731.837 1.76292 0.279858 0
M  V30 7897 C 728.937 3.36109 0.434064 0
M  V30 7898 C 728.11 4.3532 -0.426082 0
M  V30 7899 C 727.169 5.25004 0.354563 0
M  V30 7900 O 726.195 5.68684 -0.242219 0
M  V30 7901 N 727.397 5.5652 1.65123 0
M  V30 7902 H 730.162 2.7197 -1.25907 0
M  V30 7903 H 727.723 1.40212 -0.809456 0
M  V30 7904 H 729.715 3.93059 0.963684 0
M  V30 7905 H 728.285 2.89194 1.18683 0
M  V30 7906 H 727.505 3.77449 -1.13692 0
M  V30 7907 H 728.793 4.986 -1.01366 0
M  V30 7908 H 728.191 5.22912 2.15822 0
M  V30 7909 H 726.748 6.16115 2.12711 0
M  V30 7910 N 730.181 0.707592 1.40822 0
M  V30 7911 C 731.421 0.247986 2.0289 0
M  V30 7912 C 731.785 -1.13484 1.54872 0
M  V30 7913 O 732.986 -1.69098 2.08948 0
M  V30 7914 C 731.257 0.316326 3.55997 0
M  V30 7915 S 732.816 -0.0674698 4.38748 0
M  V30 7916 H 729.634 0.09895 0.704081 0
M  V30 7917 H 732.236 0.928039 1.72069 0
M  V30 7918 H 730.94 1.32453 3.88438 0
M  V30 7919 H 730.471 -0.382474 3.91536 0
M  V30 7920 H 732.486 -1.29182 4.79089 0
M  V30 7921 N 731.66 -1.50943 0.453197 0
M  V30 7922 C 732.608 -2.29728 -0.364419 0
M  V30 7923 C 733.602 -1.36246 -1.00664 0
M  V30 7924 O 734.808 -1.53518 -0.939794 0
M  V30 7925 H 731.183 -0.739536 -0.136347 0
M  V30 7926 H 733.154 -2.96672 0.320696 0
M  V30 7927 C 731.903 -3.1629 -1.44415 0
M  V30 7928 H 731.226 -3.88119 -0.959343 0
M  V30 7929 H 732.666 -3.74444 -1.98917 0
M  V30 7930 C 731.125 -2.32702 -2.43622 0
M  V30 7931 O 731.655 -1.99763 -3.48508 0
M  V30 7932 N 729.861 -1.95621 -2.14897 0
M  V30 7933 H 729.408 -2.22607 -1.29629 0
M  V30 7934 H 729.366 -1.39993 -2.81513 0
M  V30 7935 N 733.138 -0.185124 -1.56509 0
M  V30 7936 C 734.048 0.751908 -2.22224 0
M  V30 7937 C 735.064 1.24244 -1.21817 0
M  V30 7938 O 736.24 1.29169 -1.54523 0
M  V30 7939 C 733.305 1.95837 -2.86092 0
M  V30 7940 C 732.366 1.51337 -4.01741 0
M  V30 7941 C 731.599 2.66233 -4.62554 0
M  V30 7942 O 731.822 3.8346 -4.22273 0
M  V30 7943 O 730.756 2.39517 -5.52191 0
M  V30 7944 H 734.582 0.222304 -3.02885 0
M  V30 7945 H 732.167 0.0437141 -1.49336 0
M  V30 7946 H 734.049 2.66368 -3.26536 0
M  V30 7947 H 732.724 2.47677 -2.08417 0
M  V30 7948 H 731.631 0.777155 -3.65939 0
M  V30 7949 H 732.964 1.04175 -4.81049 0
M  V30 7950 N 734.616 1.57351 0.0885366 0
M  V30 7951 C 735.546 2.05561 1.10757 0
M  V30 7952 C 736.527 0.945789 1.41382 0
M  V30 7953 O 737.712 1.21747 1.51299 0
M  V30 7954 C 734.842 2.48554 2.42566 0
M  V30 7955 C 733.796 3.63259 2.26334 0
M  V30 7956 C 733.122 3.9225 3.63378 0
M  V30 7957 C 734.422 4.93913 1.69844 0
M  V30 7958 H 736.116 2.90946 0.706468 0
M  V30 7959 H 733.662 1.39968 0.338385 0
M  V30 7960 H 735.615 2.8089 3.14132 0
M  V30 7961 H 734.339 1.60176 2.84625 0
M  V30 7962 H 732.998 3.31179 1.57213 0
M  V30 7963 H 732.646 3.0103 4.02976 0
M  V30 7964 H 732.346 4.69478 3.53362 0
M  V30 7965 H 733.87 4.27067 4.36401 0
M  V30 7966 H 735.284 5.24588 2.31258 0
M  V30 7967 H 733.681 5.75349 1.70569 0
M  V30 7968 H 734.751 4.80409 0.65843 0
M  V30 7969 N 736.094 -0.359525 1.53444 0
M  V30 7970 C 737.024 -1.44662 1.8329 0
M  V30 7971 C 738.005 -1.55617 0.68683 0
M  V30 7972 O 739.19 -1.70086 0.93725 0
M  V30 7973 C 736.32 -2.81923 2.02822 0
M  V30 7974 C 735.274 -2.85787 3.18606 0
M  V30 7975 C 734.6 -4.25781 3.23442 0
M  V30 7976 C 735.9 -2.52762 4.57065 0
M  V30 7977 H 737.594 -1.19934 2.74329 0
M  V30 7978 H 735.14 -0.575517 1.31999 0
M  V30 7979 H 737.093 -3.58005 2.22285 0
M  V30 7980 H 735.817 -3.08051 1.085 0
M  V30 7981 H 734.476 -2.12157 2.98973 0
M  V30 7982 H 734.124 -4.48994 2.26745 0
M  V30 7983 H 733.824 -4.29281 4.01238 0
M  V30 7984 H 735.348 -5.03727 3.45096 0
M  V30 7985 H 736.762 -3.18557 4.76649 0
M  V30 7986 H 735.159 -2.67569 5.37147 0
M  V30 7987 H 736.229 -1.47993 4.61764 0
M  V30 7988 N 737.572 -1.44907 -0.619662 0
M  V30 7989 C 738.482 -1.55168 -1.75955 0
M  V30 7990 C 739.498 -0.43672 -1.6843 0
M  V30 7991 O 740.674 -0.695704 -1.89002 0
M  V30 7992 C 737.739 -1.50397 -3.12381 0
M  V30 7993 C 736.8 -2.72835 -3.31451 0
M  V30 7994 C 736.033 -2.68283 -4.61368 0
M  V30 7995 O 736.256 -1.74929 -5.42914 0
M  V30 7996 O 735.19 -3.59308 -4.82889 0
M  V30 7997 H 739.016 -2.51493 -1.7025 0
M  V30 7998 H 736.601 -1.27282 -0.782289 0
M  V30 7999 H 738.483 -1.50301 -3.93685 0
M  V30 8000 H 737.158 -0.572197 -3.18603 0
M  V30 8001 H 736.065 -2.78496 -2.49781 0
M  V30 8002 H 737.398 -3.65098 -3.30098 0
M  V30 8003 N 739.05 0.861098 -1.31996 0
M  V30 8004 C 740.013 1.95068 -1.20338 0
M  V30 8005 C 741.013 1.60289 -0.128114 0
M  V30 8006 O 742.203 1.70048 -0.378044 0
M  V30 8007 C 739.335 3.30153 -0.849205 0
M  V30 8008 H 740.528 2.06833 -2.17164 0
M  V30 8009 H 738.081 1.05049 -1.15734 0
M  V30 8010 H 738.816 3.24087 0.117508 0
M  V30 8011 H 738.601 3.56771 -1.62655 0
M  V30 8012 H 740.091 4.10025 -0.791782 0
M  V30 8013 N 740.528 1.15101 1.07655 0
M  V30 8014 C 741.476 0.840714 2.16875 0
M  V30 8015 C 742.47 -0.184594 1.68391 0
M  V30 8016 O 743.676 -0.0399315 1.79956 0
M  V30 8017 H 740.051 0.254192 0.707736 0
M  V30 8018 H 742.022 1.76959 2.40266 0
M  V30 8019 C 740.771 0.343018 3.46004 0
M  V30 8020 H 740.094 1.12335 3.83694 0
M  V30 8021 H 741.534 0.16453 4.23681 0
M  V30 8022 C 739.993 -0.934881 3.23669 0
M  V30 8023 O 740.523 -2.00706 3.47965 0
M  V30 8024 N 738.729 -0.873167 2.77172 0
M  V30 8025 H 738.276 -0.000479072 2.576 0
M  V30 8026 H 738.234 -1.72873 2.62607 0
M  V30 8027 N 742.006 -1.2595 0.947325 0
M  V30 8028 C 743.417 -1.75389 0.639963 0
M  V30 8029 C 743.768 -1.77081 -0.844788 0
M  V30 8030 O 742.893 -1.3869 -1.66114 0
M  V30 8031 C 743.488 -3.18506 1.15496 0
M  V30 8032 C 742.047 -3.65534 0.897894 0
M  V30 8033 C 741.194 -2.44818 1.30228 0
M  V30 8034 H 744.145 -1.1194 1.12495 0
M  V30 8035 H 744.166 -3.77045 0.511627 0
M  V30 8036 H 743.678 -3.17243 2.23559 0
M  V30 8037 H 741.779 -3.72221 -0.168096 0
M  V30 8038 H 741.892 -4.54039 1.52922 0
M  V30 8039 H 740.256 -2.44291 0.720678 0
M  V30 8040 H 741.039 -2.46251 2.39198 0
M  V30 8041 N 743.484 -0.715051 -1.40445 0
M  V30 8042 C 744.431 -0.0621393 -2.30716 0
M  V30 8043 C 745.401 0.750871 -1.48159 0
M  V30 8044 O 746.586 0.714928 -1.76899 0
M  V30 8045 C 743.726 0.854036 -3.34365 0
M  V30 8046 C 742.839 0.0305565 -4.31989 0
M  V30 8047 C 741.974 0.946162 -5.22706 0
M  V30 8048 C 741.013 0.116741 -6.11989 0
M  V30 8049 N 740.15 0.987194 -6.95125 0
M  V30 8050 H 744.99 -0.83764 -2.85985 0
M  V30 8051 H 742.527 -0.424759 -1.40834 0
M  V30 8052 H 744.485 1.39946 -3.93028 0
M  V30 8053 H 743.115 1.59572 -2.806 0
M  V30 8054 H 742.167 -0.632044 -3.75112 0
M  V30 8055 H 743.479 -0.611615 -4.95036 0
M  V30 8056 H 742.633 1.56014 -5.86297 0
M  V30 8057 H 741.372 1.62216 -4.59932 0
M  V30 8058 H 740.377 -0.510176 -5.47428 0
M  V30 8059 H 741.602 -0.555742 -6.76822 0
M  V30 8060 H 739.548 1.64885 -6.3494 0
M  V30 8061 H 739.465 0.401046 -7.54936 0
M  V30 8062 H 740.733 1.58737 -7.63166 0
M  V30 8063 N 744.962 1.50701 -0.461195 0
M  V30 8064 C 745.925 2.2686 0.326679 0
M  V30 8065 C 746.925 1.31243 0.929085 0
M  V30 8066 O 748.115 1.54754 0.799807 0
M  V30 8067 C 745.247 3.07844 1.46441 0
M  V30 8068 H 746.44 2.97954 -0.341095 0
M  V30 8069 H 743.993 1.54814 -0.214984 0
M  V30 8070 H 744.728 2.41223 2.16753 0
M  V30 8071 H 744.513 3.78101 1.03836 0
M  V30 8072 H 746.003 3.65469 2.02044 0
M  V30 8073 N 746.441 0.193421 1.56409 0
M  V30 8074 C 747.351 -0.740112 2.2262 0
M  V30 8075 C 748.367 -1.23597 1.22474 0
M  V30 8076 O 749.543 -1.28348 1.55206 0
M  V30 8077 C 746.608 -1.94317 2.87127 0
M  V30 8078 C 745.669 -1.49205 4.02538 0
M  V30 8079 C 744.902 -2.63776 4.63959 0
M  V30 8080 O 745.125 -3.81215 4.24301 0
M  V30 8081 O 744.059 -2.36585 5.53454 0
M  V30 8082 H 747.885 -0.206238 3.02999 0
M  V30 8083 H 745.47 -0.0357938 1.49357 0
M  V30 8084 H 747.352 -2.64633 3.27944 0
M  V30 8085 H 746.027 -2.46568 2.09728 0
M  V30 8086 H 744.934 -0.757738 3.66346 0
M  V30 8087 H 746.267 -1.01622 4.81595 0
M  V30 8088 N 747.919 -1.57396 -0.0801906 0
M  V30 8089 C 749.167 -1.86467 -0.779384 0
M  V30 8090 C 749.488 -0.784243 -1.78535 0
M  V30 8091 O 748.758 0.187986 -1.94996 0
M  V30 8092 H 747.338 -0.68806 -0.29083 0
M  V30 8093 H 750 -1.94813 -0.0582749 0
M  V30 8094 H 749.096 -2.83701 -1.30078 0
M  V30 8095 N 749.397 0.351382 -1.53633 0
M  V30 8096 C 750.327 1.43688 -1.84055 0
M  V30 8097 C 751.308 1.55251 -0.695073 0
M  V30 8098 O 752.493 1.69587 -0.946257 0
M  V30 8099 C 749.623 2.80843 -2.04315 0
M  V30 8100 C 748.577 2.84094 -3.20117 0
M  V30 8101 C 747.903 4.2406 -3.25696 0
M  V30 8102 C 749.203 2.50334 -4.58399 0
M  V30 8103 H 750.897 1.18478 -2.74961 0
M  V30 8104 H 748.443 0.568509 -1.32303 0
M  V30 8105 H 750.396 3.56821 -2.2418 0
M  V30 8106 H 749.12 3.07471 -1.10132 0
M  V30 8107 H 747.779 2.10568 -3.00094 0
M  V30 8108 H 747.427 4.47785 -2.29123 0
M  V30 8109 H 747.127 4.27147 -4.03509 0
M  V30 8110 H 748.651 5.0189 -3.47762 0
M  V30 8111 H 750.065 3.16025 -4.78332 0
M  V30 8112 H 748.462 2.64717 -5.38558 0
M  V30 8113 H 749.532 1.45542 -4.62543 0
M  V30 8114 N 750.875 1.45233 0.611969 0
M  V30 8115 C 751.805 1.5641 1.73373 0
M  V30 8116 C 752.786 0.415896 1.64937 0
M  V30 8117 O 753.971 0.638478 1.83404 0
M  V30 8118 C 751.101 1.52627 3.11965 0
M  V30 8119 C 750.055 2.66119 3.35208 0
M  V30 8120 C 749.381 2.4739 4.74028 0
M  V30 8121 C 750.681 4.08157 3.25891 0
M  V30 8122 H 752.375 2.50307 1.64277 0
M  V30 8123 H 749.921 1.20467 0.788904 0
M  V30 8124 H 751.874 1.59043 3.90235 0
M  V30 8125 H 750.598 0.552564 3.21892 0
M  V30 8126 H 749.257 2.59123 2.59327 0
M  V30 8127 H 748.905 1.48168 4.80682 0
M  V30 8128 H 748.605 3.23494 4.90536 0
M  V30 8129 H 750.129 2.55653 5.54503 0
M  V30 8130 H 751.543 4.1642 3.9404 0
M  V30 8131 H 749.94 4.84617 3.5393 0
M  V30 8132 H 751.01 4.30374 2.23397 0
M  V30 8133 N 752.353 -0.854086 1.3245 0
M  V30 8134 C 753.285 -1.96932 1.17262 0
M  V30 8135 C 754.298 -1.62445 0.107469 0
M  V30 8136 O 755.487 -1.74904 0.356481 0
M  V30 8137 C 752.587 -3.29971 0.772817 0
M  V30 8138 C 751.76 -3.92695 1.92638 0
M  V30 8139 C 750.819 -5.04068 1.51003 0
M  V30 8140 O 749.845 -5.24032 2.22213 0
M  V30 8141 N 751.047 -5.79076 0.406371 0
M  V30 8142 H 753.812 -2.10503 2.13327 0
M  V30 8143 H 751.373 -1.02897 1.24995 0
M  V30 8144 H 753.365 -4.01883 0.476684 0
M  V30 8145 H 751.935 -3.1245 -0.0967 0
M  V30 8146 H 751.155 -3.13563 2.38897 0
M  V30 8147 H 752.443 -4.31337 2.69863 0
M  V30 8148 H 751.841 -5.65393 -0.186302 0
M  V30 8149 H 750.398 -6.51579 0.169846 0
M  V30 8150 N 753.831 -1.1567 -1.07043 0
M  V30 8151 C 755.079 -0.931673 -1.79344 0
M  V30 8152 C 755.4 0.542421 -1.87304 0
M  V30 8153 O 754.67 1.39418 -1.37621 0
M  V30 8154 H 753.25 -0.34171 -0.664262 0
M  V30 8155 H 755.912 -1.45795 -1.29344 0
M  V30 8156 H 755.008 -1.34379 -2.81689 0
M  V30 8157 N 755.309 1.25446 -0.953992 0
M  V30 8158 C 756.256 2.25912 -0.472485 0
M  V30 8159 C 757.226 1.59173 0.47469 0
M  V30 8160 O 758.411 1.86812 0.388082 0
M  V30 8161 C 755.551 3.44235 0.244218 0
M  V30 8162 C 754.664 4.25613 -0.740121 0
M  V30 8163 C 753.799 5.312 -0.000922267 0
M  V30 8164 C 752.838 6.04265 -0.976236 0
M  V30 8165 N 751.975 7.01589 -0.267952 0
M  V30 8166 H 756.815 2.66469 -1.3341 0
M  V30 8167 H 754.352 1.31005 -0.669045 0
M  V30 8168 H 756.31 4.11682 0.676314 0
M  V30 8169 H 754.94 3.04554 1.06988 0
M  V30 8170 H 753.992 3.57834 -1.2907 0
M  V30 8171 H 755.304 4.762 -1.48441 0
M  V30 8172 H 754.458 6.04719 0.48984 0
M  V30 8173 H 753.197 4.81484 0.776159 0
M  V30 8174 H 752.202 5.29561 -1.478 0
M  V30 8175 H 753.427 6.5607 -1.75354 0
M  V30 8176 H 751.373 6.54164 0.490403 0
M  V30 8177 H 751.29 7.4999 -0.951344 0
M  V30 8178 H 752.558 7.7924 0.201294 0
M  V30 8179 N 756.787 0.722489 1.40064 0
M  V30 8180 C 757.737 0.0506801 2.27944 0
M  V30 8181 C 758.721 -0.725493 1.43615 0
M  V30 8182 O 759.913 -0.596559 1.66644 0
M  V30 8183 C 757.042 -0.865195 3.32219 0
M  V30 8184 C 756.128 -0.0838393 4.24017 0
M  V30 8185 N 756.519 0.936516 4.97054 0
M  V30 8186 C 754.817 -0.315371 4.44884 0
M  V30 8187 C 755.518 1.4066 5.64437 0
M  V30 8188 N 754.494 0.727485 5.3871 0
M  V30 8189 H 758.296 0.832609 2.8186 0
M  V30 8190 H 755.81 0.555691 1.52597 0
M  V30 8191 H 757.807 -1.36186 3.94029 0
M  V30 8192 H 756.467 -1.64642 2.79862 0
M  V30 8193 H 757.478 1.31755 5.0086 0
M  V30 8194 H 754.155 -1.07238 4.03492 0
M  V30 8195 H 755.545 2.25482 6.32936 0
M  V30 8196 N 758.265 -1.50454 0.469181 0
M  V30 8197 C 759.49 -2.0722 -0.0864892 0
M  V30 8198 C 759.915 -1.33098 -1.32916 0
M  V30 8199 O 759.273 -0.378084 -1.77314 0
M  V30 8200 C 759.321 -3.58845 -0.355384 0
M  V30 8201 O 758.425 -3.86583 -1.43622 0
M  V30 8202 H 757.766 -0.663889 0.0121414 0
M  V30 8203 H 760.296 -1.93674 0.659674 0
M  V30 8204 H 760.306 -4.03617 -0.596447 0
M  V30 8205 H 758.981 -4.12211 0.552698 0
M  V30 8206 H 757.558 -3.5365 -1.18262 0
M  V30 8207 N 759.743 -0.201713 -1.56304 0
M  V30 8208 C 760.971 0.440723 -2.02152 0
M  V30 8209 C 761.386 1.54735 -1.08179 0
M  V30 8210 O 760.743 1.82289 -0.0878196 0
M  V30 8211 C 760.794 0.990884 -3.47655 0
M  V30 8212 O 760.515 -0.0715937 -4.38041 0
M  V30 8213 C 762.016 1.70854 -4.09052 0
M  V30 8214 H 759.236 0.109987 -0.661924 0
M  V30 8215 H 761.78 -0.312358 -2.021 0
M  V30 8216 H 759.935 1.69432 -3.48384 0
M  V30 8217 H 760.349 0.338892 -5.23404 0
M  V30 8218 H 761.823 2.04572 -5.12693 0
M  V30 8219 H 762.3 2.61462 -3.52894 0
M  V30 8220 H 762.906 1.0508 -4.12114 0
M  V30 8221 N 761.222 1.57436 0.0718424 0
M  V30 8222 C 762.169 2.03686 1.08539 0
M  V30 8223 C 763.139 0.917474 1.38462 0
M  V30 8224 O 764.324 1.18513 1.4953 0
M  V30 8225 C 761.464 2.48566 2.39393 0
M  V30 8226 C 760.577 3.74122 2.16001 0
M  V30 8227 C 759.712 4.07786 3.40418 0
M  V30 8228 C 758.751 5.26383 3.1239 0
M  V30 8229 N 757.888 5.55685 4.29138 0
M  V30 8230 H 762.728 2.90043 0.684018 0
M  V30 8231 H 760.265 1.43438 0.326183 0
M  V30 8232 H 762.223 2.72639 3.15791 0
M  V30 8233 H 760.853 1.65186 2.77333 0
M  V30 8234 H 759.905 3.57389 1.30296 0
M  V30 8235 H 761.217 4.60659 1.91298 0
M  V30 8236 H 760.371 4.32759 4.25211 0
M  V30 8237 H 759.11 3.19817 3.68197 0
M  V30 8238 H 758.115 5.01206 2.25993 0
M  V30 8239 H 759.34 6.1597 2.85934 0
M  V30 8240 H 757.286 4.70675 4.56948 0
M  V30 8241 H 757.203 6.3664 4.07708 0
M  V30 8242 H 758.471 5.85209 5.14928 0
M  V30 8243 N 762.7 -0.34323 1.53817 0
M  V30 8244 C 763.948 -1.0813 1.70741 0
M  V30 8245 C 764.269 -1.89165 0.473461 0
M  V30 8246 O 763.539 -1.89075 -0.512605 0
M  V30 8247 H 762.119 -0.40219 0.629486 0
M  V30 8248 H 764.781 -0.384426 1.91071 0
M  V30 8249 H 763.877 -1.7585 2.57843 0
M  V30 8250 N 764.178 -1.45556 -0.604258 0
M  V30 8251 C 765.108 -1.57327 -1.72541 0
M  V30 8252 C 766.089 -0.424637 -1.64714 0
M  V30 8253 O 767.274 -0.648196 -1.83063 0
M  V30 8254 C 764.404 -1.54279 -3.11152 0
M  V30 8255 C 763.358 -2.67893 -3.33792 0
M  V30 8256 C 762.684 -2.499 -4.72709 0
M  V30 8257 C 763.984 -4.0988 -3.23722 0
M  V30 8258 H 765.678 -2.51175 -1.62947 0
M  V30 8259 H 763.224 -1.20884 -0.782504 0
M  V30 8260 H 765.177 -1.6111 -3.89386 0
M  V30 8261 H 763.901 -0.569627 -3.21594 0
M  V30 8262 H 762.56 -2.60495 -2.57949 0
M  V30 8263 H 762.208 -1.50715 -4.79889 0
M  V30 8264 H 761.908 -3.26091 -4.88813 0
M  V30 8265 H 763.432 -2.5859 -5.5314 0
M  V30 8266 H 764.846 -4.18503 -3.91826 0
M  V30 8267 H 763.243 -4.86487 -3.51355 0
M  V30 8268 H 764.313 -4.31553 -2.21111 0
M  V30 8269 N 765.656 0.84705 -1.32902 0
M  V30 8270 C 766.904 1.5986 -1.2365 0
M  V30 8271 C 767.225 1.93974 0.199789 0
M  V30 8272 O 766.495 1.60273 1.12648 0
M  V30 8273 H 765.075 0.592696 -0.454665 0
M  V30 8274 H 767.737 1.01278 -1.66519 0
M  V30 8275 H 766.833 2.53218 -1.82448 0
M  V30 8276 N 767.134 1.16236 1.06428 0
M  V30 8277 C 768.081 0.86769 2.13869 0
M  V30 8278 C 769.051 -0.183298 1.65086 0
M  V30 8279 O 770.236 -0.0488002 1.90738 0
M  V30 8280 C 767.376 0.373427 3.43074 0
M  V30 8281 C 766.489 1.48708 4.05598 0
M  V30 8282 C 765.624 0.947977 5.22673 0
M  V30 8283 C 764.663 2.03793 5.77178 0
M  V30 8284 N 763.8 1.51451 6.85571 0
M  V30 8285 H 768.64 1.78781 2.38414 0
M  V30 8286 H 766.177 0.891892 1.16977 0
M  V30 8287 H 768.135 0.0685035 4.17144 0
M  V30 8288 H 766.765 -0.509752 3.1875 0
M  V30 8289 H 765.817 1.908 3.29089 0
M  V30 8290 H 767.129 2.30964 4.42105 0
M  V30 8291 H 766.283 0.596154 6.03764 0
M  V30 8292 H 765.022 0.0947081 4.87608 0
M  V30 8293 H 764.027 2.39847 4.94726 0
M  V30 8294 H 765.252 2.89514 6.14295 0
M  V30 8295 H 763.198 0.683755 6.52427 0
M  V30 8296 H 763.115 2.27325 7.21013 0
M  V30 8297 H 764.383 1.19123 7.70344 0
M  V30 8298 N 768.612 -1.24939 0.960631 0
M  V30 8299 C 769.545 -2.24116 0.429804 0
M  V30 8300 C 770.523 -1.54972 -0.492188 0
M  V30 8301 O 771.707 -1.83642 -0.42519 0
M  V30 8302 C 768.834 -3.36558 -0.380312 0
M  V30 8303 C 767.88 -4.23757 0.482941 0
M  V30 8304 S 768.713 -4.9994 1.91885 0
M  V30 8305 C 769.869 -6.15846 1.11732 0
M  V30 8306 H 770.102 -2.68795 1.27029 0
M  V30 8307 H 767.635 -1.34108 0.765141 0
M  V30 8308 H 769.593 -4.01777 -0.841764 0
M  V30 8309 H 768.254 -2.90451 -1.19569 0
M  V30 8310 H 767.447 -5.03809 -0.138699 0
M  V30 8311 H 767.049 -3.63504 0.879839 0
M  V30 8312 H 769.341 -6.76495 0.368898 0
M  V30 8313 H 770.284 -6.82356 1.89198 0
M  V30 8314 H 770.692 -5.60805 0.644812 0
M  V30 8315 N 770.09 -0.729906 -1.39679 0
M  V30 8316 C 771.053 -0.0951668 -2.29002 0
M  V30 8317 C 772.053 0.672471 -1.46063 0
M  V30 8318 O 773.243 0.502245 -1.66803 0
M  V30 8319 C 770.375 0.874631 -3.29489 0
M  V30 8320 H 771.568 -0.882062 -2.86635 0
M  V30 8321 H 769.121 -0.495424 -1.4824 0
M  V30 8322 H 769.856 1.68807 -2.76902 0
M  V30 8323 H 769.641 0.326893 -3.90735 0
M  V30 8324 H 771.131 1.31548 -3.96339 0
M  V30 8325 N 771.568 1.50203 -0.477153 0
M  V30 8326 C 772.979 1.86685 -0.0235041 0
M  V30 8327 C 773.33 1.39148 1.38319 0
M  V30 8328 O 772.455 0.759051 2.02651 0
M  V30 8329 C 773.05 3.38781 -0.0358767 0
M  V30 8330 C 771.609 3.74652 0.362327 0
M  V30 8331 C 770.756 2.7412 -0.41875 0
M  V30 8332 H 773.707 1.4286 -0.691133 0
M  V30 8333 H 773.728 3.72732 0.764924 0
M  V30 8334 H 773.24 3.73349 -1.05981 0
M  V30 8335 H 771.341 3.45686 1.39039 0
M  V30 8336 H 771.454 4.79063 0.059457 0
M  V30 8337 H 769.818 2.54376 0.128341 0
M  V30 8338 H 770.601 3.11532 -1.44231 0
M  V30 8339 N 773.046 0.209999 1.56195 0
M  V30 8340 C 774.271 -0.433064 2.02828 0
M  V30 8341 C 774.696 -1.5337 1.08901 0
M  V30 8342 O 774.054 -1.81144 0.0751132 0
M  V30 8343 C 774.102 -0.952635 3.47789 0
M  V30 8344 O 773.206 -2.0647 3.56993 0
M  V30 8345 H 772.547 -0.0994594 0.656509 0
M  V30 8346 H 775.077 0.32525 2.01998 0
M  V30 8347 H 775.087 -1.26542 3.8788 0
M  V30 8348 H 773.762 -0.147007 4.1564 0
M  V30 8349 H 772.339 -1.75942 3.28784 0
M  V30 8350 N 774.524 -1.57472 -0.0634922 0
M  V30 8351 C 775.749 -1.92273 -0.77756 0
M  V30 8352 C 776.174 -0.807141 -1.69902 0
M  V30 8353 O 775.532 0.239523 -1.79711 0
M  V30 8354 C 775.58 -3.26054 -1.54017 0
M  V30 8355 O 774.684 -3.15873 -2.65138 0
M  V30 8356 H 774.025 -0.629389 -0.211579 0
M  V30 8357 H 776.555 -2.04579 -0.0292523 0
M  V30 8358 H 776.565 -3.60127 -1.91763 0
M  V30 8359 H 775.24 -4.06824 -0.864128 0
M  V30 8360 H 773.817 -2.93373 -2.30189 0
M  V30 8361 N 776.003 0.335068 -1.53997 0
M  V30 8362 C 776.966 1.39481 -1.81872 0
M  V30 8363 C 777.966 1.4524 -0.690078 0
M  V30 8364 O 779.156 1.45467 -0.958377 0
M  V30 8365 C 776.288 2.78329 -1.9684 0
M  V30 8366 H 777.481 1.16024 -2.76547 0
M  V30 8367 H 775.034 0.569926 -1.45539 0
M  V30 8368 H 775.769 3.07058 -1.04337 0
M  V30 8369 H 775.554 2.75544 -2.78958 0
M  V30 8370 H 777.044 3.55016 -2.19894 0
M  V30 8371 N 777.481 1.45874 0.596531 0
M  V30 8372 C 778.431 1.5181 1.70111 0
M  V30 8373 C 779.415 0.380293 1.56341 0
M  V30 8374 O 780.607 0.627849 1.6549 0
M  V30 8375 C 777.736 1.49822 3.08883 0
M  V30 8376 C 776.822 2.68845 3.27998 0
M  V30 8377 N 777.213 3.93873 3.17329 0
M  V30 8378 C 775.511 2.64777 3.589 0
M  V30 8379 C 776.212 4.73371 3.38076 0
M  V30 8380 N 775.188 4.0501 3.62585 0
M  V30 8381 H 778.99 2.46289 1.60372 0
M  V30 8382 H 776.504 1.41321 0.800138 0
M  V30 8383 H 778.501 1.5216 3.8814 0
M  V30 8384 H 777.161 0.564086 3.19763 0
M  V30 8385 H 778.172 4.25329 2.95492 0
M  V30 8386 H 774.849 1.80323 3.7655 0
M  V30 8387 H 776.239 5.82357 3.35127 0
M  V30 8388 N 778.959 -0.83999 1.33349 0
M  V30 8389 C 780.206 -1.59517 1.24742 0
M  V30 8390 C 780.534 -1.93598 -0.187077 0
M  V30 8391 O 779.789 -1.58782 -1.14398 0
M  V30 8392 C 780.088 -2.91571 2.06691 0
M  V30 8393 C 779.754 -2.76856 3.55895 0
M  V30 8394 C 778.416 -2.72551 3.96572 0
M  V30 8395 C 780.768 -2.61741 4.50712 0
M  V30 8396 C 778.096 -2.51028 5.30285 0
M  V30 8397 C 780.448 -2.41752 5.84584 0
M  V30 8398 C 779.112 -2.35848 6.24445 0
M  V30 8399 H 778.382 -0.583714 0.456463 0
M  V30 8400 H 781.029 -0.973261 1.64924 0
M  V30 8401 H 779.334 -3.57961 1.59284 0
M  V30 8402 H 781.031 -3.49053 1.9739 0
M  V30 8403 H 777.621 -2.81039 3.23597 0
M  V30 8404 H 781.805 -2.64102 4.20195 0
M  V30 8405 H 777.061 -2.44903 5.60208 0
M  V30 8406 H 781.235 -2.2904 6.57658 0
M  V30 8407 H 778.862 -2.18931 7.27993 0
M  V30 8408 N 780.437 -1.16799 -1.0581 0
M  V30 8409 C 781.683 -0.953935 -1.78963 0
M  V30 8410 C 782.016 0.516638 -1.87202 0
M  V30 8411 O 781.291 1.38338 -1.36721 0
M  V30 8412 C 781.574 -1.58808 -3.23191 0
M  V30 8413 C 781.427 -3.13032 -3.23003 0
M  V30 8414 C 782.746 -1.2868 -4.20867 0
M  V30 8415 H 779.865 -0.347972 -0.64968 0
M  V30 8416 H 782.507 -1.44204 -1.23715 0
M  V30 8417 H 780.657 -1.17303 -3.70368 0
M  V30 8418 H 782.329 -3.63553 -2.83949 0
M  V30 8419 H 780.572 -3.46108 -2.61518 0
M  V30 8420 H 781.243 -3.52527 -4.24769 0
M  V30 8421 H 783.719 -1.6461 -3.82155 0
M  V30 8422 H 782.595 -1.75645 -5.20038 0
M  V30 8423 H 782.856 -0.206491 -4.41618 0
M  V30 8424 N 781.915 1.24427 -0.967243 0
M  V30 8425 C 783.143 1.96541 -0.646477 0
M  V30 8426 C 783.558 1.71753 0.783996 0
M  V30 8427 O 782.915 1.00102 1.52597 0
M  V30 8428 C 782.966 3.4983 -0.911098 0
M  V30 8429 O 782.687 3.7377 -2.28534 0
M  V30 8430 C 784.188 4.3916 -0.604458 0
M  V30 8431 H 781.408 0.626129 -0.241255 0
M  V30 8432 H 783.952 1.58268 -1.29505 0
M  V30 8433 H 782.107 3.86168 -0.308741 0
M  V30 8434 H 782.521 4.68154 -2.365 0
M  V30 8435 H 783.995 5.4557 -0.840069 0
M  V30 8436 H 784.472 4.36771 0.461273 0
M  V30 8437 H 785.078 4.08409 -1.1867 0
M  V30 8438 N 783.393 0.737304 1.3929 0
M  V30 8439 C 784.323 0.113988 2.33222 0
M  V30 8440 C 785.304 -0.721695 1.54031 0
M  V30 8441 O 786.489 -0.666206 1.82415 0
M  V30 8442 C 783.619 -0.792319 3.38141 0
M  V30 8443 C 782.573 -0.0606178 4.27957 0
M  V30 8444 C 781.899 -1.08409 5.23595 0
M  V30 8445 C 783.199 1.09817 5.10625 0
M  V30 8446 H 784.893 0.898611 2.85596 0
M  V30 8447 H 782.439 0.433571 1.37318 0
M  V30 8448 H 784.392 -1.23793 4.02807 0
M  V30 8449 H 783.116 -1.60908 2.84211 0
M  V30 8450 H 781.775 0.365393 3.64775 0
M  V30 8451 H 781.423 -1.89449 4.6596 0
M  V30 8452 H 781.123 -0.599269 5.84536 0
M  V30 8453 H 782.647 -1.52936 5.91137 0
M  V30 8454 H 784.061 0.730892 5.68622 0
M  V30 8455 H 782.458 1.51278 5.80719 0
M  V30 8456 H 783.528 1.91878 4.45321 0
M  V30 8457 N 784.871 -1.49948 0.485112 0
M  V30 8458 C 785.819 -2.30449 -0.315609 0
M  V30 8459 C 786.813 -1.38351 -0.977516 0
M  V30 8460 O 788.019 -1.55477 -0.907019 0
M  V30 8461 H 784.394 -0.742262 -0.120629 0
M  V30 8462 H 786.365 -2.95925 0.383552 0
M  V30 8463 C 785.114 -3.19283 -1.37673 0
M  V30 8464 H 784.437 -3.90067 -0.876801 0
M  V30 8465 H 785.877 -3.78579 -1.90929 0
M  V30 8466 C 784.336 -2.37817 -2.38631 0
M  V30 8467 O 784.866 -2.0711 -3.44192 0
M  V30 8468 N 783.072 -2.00135 -2.107 0
M  V30 8469 H 782.619 -2.25307 -1.24878 0
M  V30 8470 H 782.577 -1.45933 -2.7848 0
M  V30 8471 N 786.349 -0.21828 -1.56081 0
M  V30 8472 C 787.597 0.413488 -1.97825 0
M  V30 8473 C 787.918 1.60527 -1.10707 0
M  V30 8474 O 787.188 1.9504 -0.183378 0
M  V30 8475 H 785.768 0.155757 -0.730581 0
M  V30 8476 H 788.43 -0.310413 -1.92412 0
M  V30 8477 H 787.526 0.742024 -3.03151 0
M  V30 8478 N 787.827 1.57504 0.0551401 0
M  V30 8479 C 789.052 1.92682 0.767352 0
M  V30 8480 C 789.477 0.81614 1.69472 0
M  V30 8481 O 788.835 -0.229989 1.79835 0
M  V30 8482 C 788.883 3.26866 1.52286 0
M  V30 8483 O 787.987 3.17274 2.63459 0
M  V30 8484 H 787.328 0.630502 0.208238 0
M  V30 8485 H 789.858 2.04592 0.0184026 0
M  V30 8486 H 789.868 3.61138 1.8985 0
M  V30 8487 H 788.543 4.07276 0.842541 0
M  V30 8488 H 787.12 2.94589 2.2863 0
M  V30 8489 N 789.305 -0.326896 1.54172 0
M  V30 8490 C 790.533 -1.08486 1.76177 0
M  V30 8491 C 790.948 -1.81815 0.508788 0
M  V30 8492 O 790.305 -1.74924 -0.520362 0
M  V30 8493 C 790.356 -2.08552 2.95276 0
M  V30 8494 O 790.077 -1.38202 4.15731 0
M  V30 8495 C 791.578 -2.96593 3.29466 0
M  V30 8496 H 788.798 -0.322835 0.588233 0
M  V30 8497 H 791.342 -0.374036 2.0105 0
M  V30 8498 H 789.497 -2.75174 2.72687 0
M  V30 8499 H 789.911 -2.05186 4.827 0
M  V30 8500 H 791.385 -3.62708 4.16109 0
M  V30 8501 H 791.862 -3.63511 2.46487 0
M  V30 8502 H 792.468 -2.35537 3.54122 0
M  V30 8503 N 790.784 -1.46188 -0.588786 0
M  V30 8504 C 792.03 -1.51407 -1.34921 0
M  V30 8505 C 792.363 -0.162771 -1.93517 0
M  V30 8506 O 791.638 0.825082 -1.76132 0
M  V30 8507 C 791.921 -2.60795 -2.48311 0
M  V30 8508 C 791.774 -4.05435 -1.94789 0
M  V30 8509 C 793.093 -2.66313 -3.50379 0
M  V30 8510 H 790.212 -0.551213 -0.489217 0
M  V30 8511 H 792.854 -1.78095 -0.661993 0
M  V30 8512 H 791.004 -2.3817 -3.06932 0
M  V30 8513 H 792.676 -4.39328 -1.40672 0
M  V30 8514 H 790.919 -4.15202 -1.25659 0
M  V30 8515 H 791.59 -4.77691 -2.76613 0
M  V30 8516 H 794.066 -2.86634 -3.01629 0
M  V30 8517 H 792.942 -3.44681 -4.27184 0
M  V30 8518 H 793.203 -1.72127 -4.07216 0
M  V30 8519 N 792.262 0.832906 -1.33792 0
M  V30 8520 C 793.673 1.40489 -1.22963 0
M  V30 8521 C 794.024 1.95633 0.149026 0
M  V30 8522 O 793.149 1.8928 1.04891 0
M  V30 8523 C 793.744 2.55387 -2.22627 0
M  V30 8524 C 792.303 3.08522 -2.15618 0
M  V30 8525 C 791.45 1.81347 -2.09782 0
M  V30 8526 H 794.401 0.638156 -1.45304 0
M  V30 8527 H 794.422 3.33193 -1.83746 0
M  V30 8528 H 793.934 2.15222 -3.22957 0
M  V30 8529 H 792.035 3.53217 -1.18611 0
M  V30 8530 H 792.148 3.6829 -3.0643 0
M  V30 8531 H 790.512 2.01839 -1.55349 0
M  V30 8532 H 791.295 1.43369 -3.1193 0
M  V30 8533 N 793.74 1.17359 1.05189 0
M  V30 8534 C 794.67 0.91365 2.14883 0
M  V30 8535 C 795.651 -0.144365 1.69486 0
M  V30 8536 O 796.836 0.00587861 1.94199 0
M  V30 8537 C 793.966 0.426196 3.44675 0
M  V30 8538 C 792.92 1.4234 4.03638 0
M  V30 8539 C 792.246 0.793902 5.28773 0
M  V30 8540 C 793.546 2.7966 4.41121 0
M  V30 8541 H 795.24 1.831 2.36885 0
M  V30 8542 H 792.786 0.881781 1.13845 0
M  V30 8543 H 794.739 0.231767 4.20762 0
M  V30 8544 H 793.463 -0.526693 3.22325 0
M  V30 8545 H 792.122 1.60457 3.2962 0
M  V30 8546 H 791.77 -0.165824 5.02727 0
M  V30 8547 H 791.47 1.45959 5.69183 0
M  V30 8548 H 792.994 0.609747 6.07548 0
M  V30 8549 H 794.408 2.6526 5.08242 0
M  V30 8550 H 792.805 3.42807 4.92548 0
M  V30 8551 H 793.875 3.34068 3.51464 0
M  V30 8552 N 795.218 -1.23913 0.973828 0
M  V30 8553 C 796.466 -1.91771 0.637817 0
M  V30 8554 C 796.787 -1.76434 -0.830435 0
M  V30 8555 O 796.057 -1.13965 -1.59339 0
M  V30 8556 H 794.637 -0.709761 0.232912 0
M  V30 8557 H 797.299 -1.50677 1.23622 0
M  V30 8558 H 796.395 -2.99327 0.883731 0
M  V30 8559 N 796.696 -0.74468 -1.38897 0
M  V30 8560 C 798.107 -0.36568 -1.83084 0
M  V30 8561 C 798.458 1.10436 -1.62168 0
M  V30 8562 O 797.583 1.85281 -1.11804 0
M  V30 8563 C 798.178 -0.656946 -3.3237 0
M  V30 8564 C 796.737 -0.331329 -3.74939 0
M  V30 8565 C 795.884 -0.914661 -2.61781 0
M  V30 8566 H 798.835 -0.941551 -1.27752 0
M  V30 8567 H 798.856 0.0679546 -3.80439 0
M  V30 8568 H 798.368 -1.72693 -3.47561 0
M  V30 8569 H 796.469 0.732426 -3.6533 0
M  V30 8570 H 796.582 -0.820655 -4.72019 0
M  V30 8571 H 794.946 -0.34063 -2.52412 0
M  V30 8572 H 795.729 -1.98949 -2.79775 0
M  V30 8573 N 798.174 1.49689 -0.493057 0
M  V30 8574 C 799.137 2.27502 0.278485 0
M  V30 8575 C 800.137 1.33184 0.901037 0
M  V30 8576 O 801.327 1.56415 0.766801 0
M  V30 8577 C 798.459 3.10881 1.39878 0
M  V30 8578 H 799.652 2.97163 -0.404219 0
M  V30 8579 H 797.205 1.54324 -0.247774 0
M  V30 8580 H 797.94 2.45767 2.11587 0
M  V30 8581 H 797.725 3.80219 0.957924 0
M  V30 8582 H 799.215 3.69673 1.94247 0
M  V30 8583 N 799.652 0.226554 1.55963 0
M  V30 8584 C 800.877 -0.411527 2.03276 0
M  V30 8585 C 801.302 -1.52206 1.10521 0
M  V30 8586 O 800.66 -1.81054 0.0943217 0
M  V30 8587 C 800.708 -0.915694 3.4878 0
M  V30 8588 O 799.812 -2.02672 3.59163 0
M  V30 8589 H 799.153 -0.0924907 0.657527 0
M  V30 8590 H 801.683 0.346656 2.01642 0
M  V30 8591 H 801.693 -1.22421 3.892 0
M  V30 8592 H 800.368 -0.102915 4.15773 0
M  V30 8593 H 798.945 -1.72445 3.30632 0
M  V30 8594 N 801.13 -1.57531 -0.0467866 0
M  V30 8595 C 802.407 -1.79568 -0.775536 0
M  V30 8596 C 802.787 -0.820322 -1.94509 0
M  V30 8597 O 802.135 0.14134 -2.28062 0
M  V30 8598 C 802.345 -3.26789 -1.22516 0
M  V30 8599 C 803.693 -3.91299 -1.64835 0
M  V30 8600 O 804.717 -3.30831 -1.3202 0
M  V30 8601 O 803.576 -4.97727 -2.25677 0
M  V30 8602 H 800.67 -0.737817 -0.373572 0
M  V30 8603 H 803.216 -1.69682 -0.0249302 0
M  V30 8604 H 801.988 -3.89357 -0.389446 0
M  V30 8605 H 801.611 -3.41496 -2.03633 0
M  V30 8606 N 802.608 0.318715 -1.54344 0
M  V30 8607 C 803.836 1.0755 -1.7675 0
M  V30 8608 C 804.251 1.81543 -0.518422 0
M  V30 8609 O 803.608 1.75198 0.511078 0
M  V30 8610 C 803.659 2.06983 -2.96378 0
M  V30 8611 O 803.38 1.35995 -4.16458 0
M  V30 8612 C 804.881 2.94841 -3.31034 0
M  V30 8613 H 802.101 0.319711 -0.589937 0
M  V30 8614 H 804.645 0.363369 -2.01246 0
M  V30 8615 H 802.8 2.73724 -2.74142 0
M  V30 8616 H 803.214 2.02623 -4.83781 0
M  V30 8617 H 804.688 3.60496 -4.18027 0
M  V30 8618 H 805.165 3.62199 -2.48412 0
M  V30 8619 H 805.771 2.33656 -3.55366 0
M  V30 8620 N 804.086 1.46499 0.581025 0
M  V30 8621 C 805.334 1.51596 1.33653 0
M  V30 8622 C 805.655 0.169859 1.94259 0
M  V30 8623 O 804.925 -0.803776 1.78651 0
M  V30 8624 H 803.505 0.558346 0.496244 0
M  V30 8625 H 806.167 1.8264 0.680338 0
M  V30 8626 H 805.263 2.26956 2.14237 0
M  V30 8627 N 805.565 -0.825799 1.34232 0
M  V30 8628 C 806.814 -1.57686 1.2577 0
M  V30 8629 C 807.127 -1.94848 -0.171372 0
M  V30 8630 O 808.333 -2.68854 -0.378123 0
M  V30 8631 C 806.789 -2.84478 2.20454 0
M  V30 8632 C 806.397 -2.54629 3.68603 0
M  V30 8633 C 808.141 -3.625 2.20893 0
M  V30 8634 C 806.048 -3.77597 4.55164 0
M  V30 8635 H 804.978 -0.591809 0.467203 0
M  V30 8636 H 807.629 -0.909421 1.59379 0
M  V30 8637 H 806.011 -3.52832 1.79793 0
M  V30 8638 H 807.185 -1.94404 4.17784 0
M  V30 8639 H 805.5 -1.89888 3.70582 0
M  V30 8640 H 808.097 -4.538 2.82789 0
M  V30 8641 H 808.44 -3.98404 1.20746 0
M  V30 8642 H 808.973 -3.01086 2.59985 0
M  V30 8643 H 805.712 -3.46815 5.56237 0
M  V30 8644 H 805.232 -4.37116 4.10719 0
M  V30 8645 H 806.911 -4.45039 4.69627 0
M  V30 8646 N 807.043 -1.17915 -1.04565 0
M  V30 8647 C 807.973 -0.925033 -2.14395 0
M  V30 8648 C 808.954 0.135375 -1.6956 0
M  V30 8649 O 810.139 -0.0161774 -1.94193 0
M  V30 8650 C 807.269 -0.444469 -3.44444 0
M  V30 8651 C 806.223 -1.44478 -4.02877 0
M  V30 8652 C 805.549 -0.821933 -5.28345 0
M  V30 8653 C 806.849 -2.81995 -4.39632 0
M  V30 8654 H 808.543 -1.84354 -2.35911 0
M  V30 8655 H 806.089 -0.887806 -1.13375 0
M  V30 8656 H 808.042 -0.254078 -4.20633 0
M  V30 8657 H 806.766 0.509592 -3.226 0
M  V30 8658 H 805.425 -1.62203 -3.28764 0
M  V30 8659 H 805.073 0.139161 -5.02807 0
M  V30 8660 H 804.773 -1.48976 -5.68401 0
M  V30 8661 H 806.297 -0.641959 -6.07216 0
M  V30 8662 H 807.711 -2.67952 -5.06828 0
M  V30 8663 H 806.108 -3.45414 -4.90723 0
M  V30 8664 H 807.178 -3.35927 -3.49687 0
M  V30 8665 N 808.521 1.23394 -0.980386 0
M  V30 8666 C 809.469 2.26872 -0.513018 0
M  V30 8667 C 810.463 1.63853 0.429948 0
M  V30 8668 O 811.669 1.77417 0.303842 0
M  V30 8669 H 808.044 0.737398 -0.147473 0
M  V30 8670 H 810.015 2.63654 -1.39746 0
M  V30 8671 C 808.764 3.47289 0.168962 0
M  V30 8672 H 808.087 3.96033 -0.547546 0
M  V30 8673 H 809.527 4.21502 0.459616 0
M  V30 8674 C 807.986 3.06425 1.40019 0
M  V30 8675 O 808.516 3.14708 2.49643 0
M  V30 8676 N 806.722 2.61339 1.27084 0
M  V30 8677 H 806.269 2.54799 0.378872 0
M  V30 8678 H 806.227 2.34364 2.09573 0
M  V30 8679 N 809.999 0.752036 1.385 0
M  V30 8680 C 811.41 0.375385 1.82887 0
M  V30 8681 C 811.761 -1.09575 1.62751 0
M  V30 8682 O 810.886 -1.84685 1.12785 0
M  V30 8683 C 811.481 0.674563 3.32017 0
M  V30 8684 C 810.04 0.351208 3.74758 0
M  V30 8685 C 809.187 0.928531 2.61292 0
M  V30 8686 H 812.138 0.948313 1.27251 0
M  V30 8687 H 812.159 -0.0477781 3.8047 0
M  V30 8688 H 811.671 1.74533 3.46641 0
M  V30 8689 H 809.772 -0.713042 3.65714 0
M  V30 8690 H 809.885 0.845675 4.71577 0
M  V30 8691 H 808.249 0.354012 2.52228 0
M  V30 8692 H 809.032 2.0043 2.78716 0
M  V30 8693 N 811.477 -1.49425 0.500989 0
M  V30 8694 C 812.754 -1.9531 -0.106551 0
M  V30 8695 C 813.134 -1.44248 -1.54129 0
M  V30 8696 O 812.482 -0.656237 -2.18874 0
M  V30 8697 C 812.692 -3.48995 -0.0191972 0
M  V30 8698 C 814.04 -4.24161 -0.193129 0
M  V30 8699 O 815.064 -3.56075 -0.0943843 0
M  V30 8700 O 813.923 -5.45064 -0.395869 0
M  V30 8701 H 811.017 -0.82149 -0.0953068 0
M  V30 8702 H 813.563 -1.6007 0.563526 0
M  V30 8703 H 812.335 -3.78794 0.981353 0
M  V30 8704 H 811.958 -3.90852 -0.72942 0
M  V30 8705 N 812.955 -0.234822 -1.55841 0
M  V30 8706 C 814.203 0.392483 -1.98252 0
M  V30 8707 C 814.524 1.59344 -1.12404 0
M  V30 8708 O 813.794 1.94834 -0.204055 0
M  V30 8709 H 812.374 0.147999 -0.732192 0
M  V30 8710 H 815.036 -0.330804 -1.92072 0
M  V30 8711 H 814.132 0.709829 -3.03921 0
M  V30 8712 N 814.433 1.57553 0.0384317 0
M  V30 8713 C 815.663 1.92813 0.742064 0
M  V30 8714 C 816.071 0.832157 1.69917 0
M  V30 8715 O 815.414 -0.200917 1.82598 0
M  V30 8716 C 815.476 3.23806 1.56172 0
M  V30 8717 C 815.14 4.50459 0.770407 0
M  V30 8718 C 816.137 5.19846 0.0748006 0
M  V30 8719 C 813.822 4.97001 0.727714 0
M  V30 8720 C 815.816 6.34047 -0.652902 0
M  V30 8721 C 813.503 6.111 -0.00373992 0
M  V30 8722 C 814.501 6.79477 -0.692816 0
M  V30 8723 O 814.189 7.91395 -1.41241 0
M  V30 8724 H 813.921 0.641174 0.214179 0
M  V30 8725 H 816.475 2.054 0.00285095 0
M  V30 8726 H 814.705 3.0752 2.34453 0
M  V30 8727 H 816.394 3.44463 2.14709 0
M  V30 8728 H 817.16 4.84899 0.098875 0
M  V30 8729 H 813.039 4.43629 1.25355 0
M  V30 8730 H 816.583 6.87353 -1.1913 0
M  V30 8731 H 812.48 6.45493 -0.0297703 0
M  V30 8732 H 813.248 8.07702 -1.32512 0
M  V30 8733 N 815.911 -0.310526 1.54511 0
M  V30 8734 C 817.139 -1.06611 1.77318 0
M  V30 8735 C 817.554 -1.81265 0.528043 0
M  V30 8736 O 816.911 -1.75466 -0.50178 0
M  V30 8737 C 816.962 -2.05409 2.97472 0
M  V30 8738 O 816.683 -1.33785 4.17173 0
M  V30 8739 C 818.184 -2.93082 3.32593 0
M  V30 8740 H 815.404 -0.316578 0.591624 0
M  V30 8741 H 817.948 -0.352691 2.01436 0
M  V30 8742 H 816.103 -2.72266 2.7559 0
M  V30 8743 H 816.517 -2.00055 4.84849 0
M  V30 8744 H 817.991 -3.58274 4.19933 0
M  V30 8745 H 818.468 -3.60877 2.50329 0
M  V30 8746 H 819.074 -2.31768 3.566 0
M  V30 8747 N 817.389 -1.46805 -0.573248 0
M  V30 8748 C 818.319 -1.60951 -1.69165 0
M  V30 8749 C 819.3 -0.45948 -1.63777 0
M  V30 8750 O 820.485 -0.68688 -1.81647 0
M  V30 8751 C 817.615 -1.60844 -3.07809 0
M  V30 8752 C 816.569 -2.74913 -3.28035 0
M  V30 8753 C 815.895 -2.59871 -4.67302 0
M  V30 8754 C 817.195 -4.16654 -3.14955 0
M  V30 8755 H 818.889 -2.54574 -1.57582 0
M  V30 8756 H 816.435 -1.22516 -0.756686 0
M  V30 8757 H 818.388 -1.69334 -3.85881 0
M  V30 8758 H 817.112 -0.637714 -3.20314 0
M  V30 8759 H 815.771 -2.65908 -2.52366 0
M  V30 8760 H 815.419 -1.60861 -4.76585 0
M  V30 8761 H 815.119 -3.36386 -4.81786 0
M  V30 8762 H 816.643 -2.70265 -5.4753 0
M  V30 8763 H 818.057 -4.26721 -3.82861 0
M  V30 8764 H 816.454 -4.93831 -3.40956 0
M  V30 8765 H 817.524 -4.36146 -2.11908 0
M  V30 8766 N 818.867 0.818669 -1.34668 0
M  V30 8767 C 819.815 1.95123 -1.26609 0
M  V30 8768 C 820.809 1.68611 -0.163348 0
M  V30 8769 O 822.015 1.76975 -0.328586 0
M  V30 8770 H 818.39 0.640871 -0.393431 0
M  V30 8771 H 820.361 1.99043 -2.22316 0
M  V30 8772 C 819.11 3.31697 -1.04272 0
M  V30 8773 H 818.433 3.52648 -1.8836 0
M  V30 8774 H 819.873 4.11382 -1.0267 0
M  V30 8775 C 818.332 3.35942 0.253858 0
M  V30 8776 O 818.862 3.81632 1.25378 0
M  V30 8777 N 817.068 2.89165 0.288447 0
M  V30 8778 H 816.615 2.52176 -0.525845 0
M  V30 8779 H 816.573 2.92387 1.15572 0
M  V30 8780 N 820.346 1.18468 1.03938 0
M  V30 8781 C 821.576 1.0043 1.80547 0
M  V30 8782 C 821.984 -0.450407 1.83761 0
M  V30 8783 O 821.327 -1.32463 1.27276 0
M  V30 8784 C 821.389 1.48437 3.27424 0
M  V30 8785 C 821.053 2.96372 3.47869 0
M  V30 8786 C 822.05 3.94217 3.38953 0
M  V30 8787 C 819.735 3.34831 3.74424 0
M  V30 8788 C 821.729 5.28517 3.56298 0
M  V30 8789 C 819.416 4.69294 3.91416 0
M  V30 8790 C 820.414 5.65946 3.82354 0
M  V30 8791 O 820.102 6.97974 3.98858 0
M  V30 8792 H 819.834 0.354853 0.575374 0
M  V30 8793 H 822.388 1.57473 1.31876 0
M  V30 8794 H 820.618 0.857601 3.7707 0
M  V30 8795 H 822.307 1.2677 3.85596 0
M  V30 8796 H 823.073 3.6585 3.184 0
M  V30 8797 H 818.952 2.60161 3.80575 0
M  V30 8798 H 822.496 6.03943 3.49141 0
M  V30 8799 H 818.393 4.97361 4.11463 0
M  V30 8800 H 819.161 7.04895 4.1601 0
M  V30 8801 N 821.824 -1.22873 0.986916 0
M  V30 8802 C 822.772 -2.26597 0.525043 0
M  V30 8803 C 823.766 -1.64079 -0.421252 0
M  V30 8804 O 824.972 -1.77576 -0.294429 0
M  V30 8805 H 821.347 -0.736606 0.151381 0
M  V30 8806 H 823.318 -2.62909 1.41142 0
M  V30 8807 C 822.067 -3.47374 -0.150542 0
M  V30 8808 H 821.39 -3.95737 0.568541 0
M  V30 8809 H 822.83 -4.21739 -0.437256 0
M  V30 8810 C 821.289 -3.07163 -1.38392 0
M  V30 8811 O 821.819 -3.16028 -2.47971 0
M  V30 8812 N 820.025 -2.62009 -1.25697 0
M  V30 8813 H 819.572 -2.54996 -0.365355 0
M  V30 8814 H 819.53 -2.35472 -2.08327 0
M  V30 8815 N 823.302 -0.75937 -1.38099 0
M  V30 8816 C 824.212 -0.13774 -2.34195 0
M  V30 8817 C 825.228 0.693985 -1.59561 0
M  V30 8818 O 826.404 0.616792 -1.91723 0
M  V30 8819 C 823.469 0.740535 -3.38699 0
M  V30 8820 C 822.53 -0.106225 -4.29169 0
M  V30 8821 C 821.763 0.730225 -5.28681 0
M  V30 8822 O 821.986 1.96796 -5.35376 0
M  V30 8823 O 820.92 0.145969 -6.01723 0
M  V30 8824 H 824.746 -0.931512 -2.89061 0
M  V30 8825 H 822.331 -0.520345 -1.40046 0
M  V30 8826 H 824.213 1.24232 -4.02672 0
M  V30 8827 H 822.888 1.51271 -2.8618 0
M  V30 8828 H 821.795 -0.654088 -3.68337 0
M  V30 8829 H 823.128 -0.841186 -4.84959 0
M  V30 8830 N 824.78 1.49157 -0.508906 0
M  V30 8831 C 826.01 2.06579 0.0293308 0
M  V30 8832 C 826.418 1.36852 1.30645 0
M  V30 8833 O 825.761 0.443079 1.78276 0
M  V30 8834 C 825.823 3.57838 0.345296 0
M  V30 8835 C 825.487 4.49302 -0.835256 0
M  V30 8836 C 826.484 4.90345 -1.72793 0
M  V30 8837 C 824.169 4.91494 -1.0363 0
M  V30 8838 C 826.163 5.72327 -2.80573 0
M  V30 8839 C 823.85 5.7325 -2.11726 0
M  V30 8840 C 824.848 6.13572 -3.00032 0
M  V30 8841 O 824.536 6.93691 -4.06261 0
M  V30 8842 H 824.268 0.675679 -0.0208193 0
M  V30 8843 H 826.822 1.9282 -0.707789 0
M  V30 8844 H 825.052 3.69634 1.13612 0
M  V30 8845 H 826.741 3.97467 0.823089 0
M  V30 8846 H 827.507 4.58388 -1.58446 0
M  V30 8847 H 823.386 4.59605 -0.358308 0
M  V30 8848 H 826.93 6.03719 -3.49527 0
M  V30 8849 H 822.827 6.0462 -2.26065 0
M  V30 8850 H 823.595 7.12011 -4.03711 0
M  V30 8851 N 826.258 0.243083 1.55714 0
M  V30 8852 C 827.507 -0.383188 1.98027 0
M  V30 8853 C 827.82 -1.59347 1.13436 0
M  V30 8854 O 829.026 -2.29065 1.45745 0
M  V30 8855 C 827.482 -0.733135 3.52354 0
M  V30 8856 C 827.09 0.455539 4.45678 0
M  V30 8857 C 828.834 -1.32381 4.03331 0
M  V30 8858 C 826.741 0.0819591 5.91343 0
M  V30 8859 H 825.671 -0.146944 0.739543 0
M  V30 8860 H 828.322 0.342697 1.80272 0
M  V30 8861 H 826.704 -1.51704 3.65789 0
M  V30 8862 H 827.878 1.23291 4.44 0
M  V30 8863 H 826.193 0.960886 4.05162 0
M  V30 8864 H 828.79 -1.61658 5.09677 0
M  V30 8865 H 829.133 -2.24698 3.50452 0
M  V30 8866 H 829.666 -0.602885 3.93205 0
M  V30 8867 H 826.405 0.972171 6.48251 0
M  V30 8868 H 825.925 -0.659291 5.96166 0
M  V30 8869 H 827.604 -0.3372 6.46121 0
M  V30 8870 N 827.736 -1.57571 -0.0300757 0
M  V30 8871 C 828.982 -1.89506 -0.722159 0
M  V30 8872 C 829.315 -0.840699 -1.7506 0
M  V30 8873 O 828.59 0.144358 -1.93964 0
M  V30 8874 C 828.873 -3.32081 -1.39262 0
M  V30 8875 C 828.726 -4.48211 -0.377768 0
M  V30 8876 C 830.045 -3.73557 -2.32687 0
M  V30 8877 H 827.164 -0.689213 -0.261064 0
M  V30 8878 H 829.806 -1.89994 0.0150388 0
M  V30 8879 H 827.956 -3.31796 -2.02098 0
M  V30 8880 H 829.628 -4.6063 0.248591 0
M  V30 8881 H 827.871 -4.3274 0.303045 0
M  V30 8882 H 828.542 -5.44854 -0.885347 0
M  V30 8883 H 831.018 -3.75202 -1.79896 0
M  V30 8884 H 829.894 -4.74125 -2.7658 0
M  V30 8885 H 830.155 -3.05759 -3.19317 0
M  V30 8886 N 829.214 0.302327 -1.54673 0
M  V30 8887 C 830.444 1.05516 -1.77623 0
M  V30 8888 C 830.852 1.81474 -0.535159 0
M  V30 8889 O 830.195 1.76635 0.504543 0
M  V30 8890 C 830.257 2.08305 -2.93001 0
M  V30 8891 C 829.921 1.51554 -4.31139 0
M  V30 8892 C 830.918 0.946261 -5.11216 0
M  V30 8893 C 828.603 1.55157 -4.77736 0
M  V30 8894 C 830.597 0.420559 -6.36011 0
M  V30 8895 C 828.284 1.022 -6.02494 0
M  V30 8896 C 829.282 0.457461 -6.81466 0
M  V30 8897 O 828.97 -0.064083 -8.03874 0
M  V30 8898 H 828.702 0.318756 -0.59613 0
M  V30 8899 H 831.256 0.347558 -2.02438 0
M  V30 8900 H 829.486 2.82742 -2.63807 0
M  V30 8901 H 831.175 2.69479 -3.03539 0
M  V30 8902 H 831.941 0.911338 -4.76361 0
M  V30 8903 H 827.82 1.98037 -4.16296 0
M  V30 8904 H 831.364 -0.0207298 -6.97597 0
M  V30 8905 H 827.261 1.05406 -6.36836 0
M  V30 8906 H 828.029 0.0493422 -8.18485 0
M  V30 8907 N 830.692 1.47107 0.565454 0
M  V30 8908 C 831.64 1.59368 1.69424 0
M  V30 8909 C 832.634 0.461344 1.62997 0
M  V30 8910 O 833.84 0.638849 1.68282 0
M  V30 8911 H 830.215 0.501387 0.560459 0
M  V30 8912 H 832.186 2.54242 1.56217 0
M  V30 8913 C 830.935 1.61739 3.07792 0
M  V30 8914 H 830.258 2.48215 3.13416 0
M  V30 8915 H 831.698 1.7437 3.86486 0
M  V30 8916 C 830.157 0.349156 3.35086 0
M  V30 8917 O 830.687 -0.553287 3.97871 0
M  V30 8918 N 828.893 0.231723 2.89675 0
M  V30 8919 H 828.44 0.967021 2.3876 0
M  V30 8920 H 828.398 -0.615911 3.08308 0
M  V30 8921 N 832.17 -0.811516 1.35101 0
M  V30 8922 C 833.581 -1.38515 1.25182 0
M  V30 8923 C 833.932 -1.95846 -0.117883 0
M  V30 8924 O 833.057 -1.90925 -1.01866 0
M  V30 8925 C 833.652 -2.51813 2.26662 0
M  V30 8926 C 832.211 -3.05052 2.20499 0
M  V30 8927 C 831.358 -1.77987 2.12641 0
M  V30 8928 H 834.309 -0.614959 1.46301 0
M  V30 8929 H 834.33 -3.30228 1.89023 0
M  V30 8930 H 833.842 -2.10057 3.2634 0
M  V30 8931 H 831.943 -3.51285 1.24215 0
M  V30 8932 H 832.056 -3.63368 3.1225 0
M  V30 8933 H 830.42 -1.99342 1.5854 0
M  V30 8934 H 831.203 -1.38389 3.14171 0
M  V30 8935 N 833.648 -1.19017 -1.03309 0
M  V30 8936 C 834.596 -0.920627 -2.13605 0
M  V30 8937 C 835.59 0.121969 -1.6896 0
M  V30 8938 O 836.796 -0.0268854 -1.7998 0
M  V30 8939 H 833.171 -0.280284 -0.697814 0
M  V30 8940 H 835.142 -1.85755 -2.33533 0
M  V30 8941 C 833.891 -0.471198 -3.44492 0
M  V30 8942 H 833.214 -1.26499 -3.7926 0
M  V30 8943 H 834.654 -0.321663 -4.22778 0
M  V30 8944 C 833.113 0.81411 -3.26916 0
M  V30 8945 O 833.643 1.87654 -3.55175 0
M  V30 8946 N 831.849 0.769695 -2.80221 0
M  V30 8947 H 831.396 -0.0951278 -2.57424 0
M  V30 8948 H 831.354 1.63008 -2.68842 0
M  V30 8949 N 835.127 1.22348 -0.993418 0
M  V30 8950 C 836.059 2.23626 -0.502404 0
M  V30 8951 C 837.072 1.57739 0.402784 0
M  V30 8952 O 838.261 1.77321 0.204835 0
M  V30 8953 C 835.361 3.37647 0.291118 0
M  V30 8954 C 834.534 4.33121 -0.610332 0
M  V30 8955 C 833.593 5.26035 0.131572 0
M  V30 8956 O 832.619 5.67145 -0.483199 0
M  V30 8957 N 833.821 5.63023 1.41371 0
M  V30 8958 H 836.586 2.66385 -1.37329 0
M  V30 8959 H 834.147 1.36653 -0.868196 0
M  V30 8960 H 836.139 3.96792 0.796107 0
M  V30 8961 H 834.709 2.93967 1.0631 0
M  V30 8962 H 833.929 3.72287 -1.29598 0
M  V30 8963 H 835.217 4.93853 -1.22422 0
M  V30 8964 H 834.615 5.31596 1.93449 0
M  V30 8965 H 833.172 6.24582 1.86388 0
M  V30 8966 N 836.605 0.766683 1.37694 0
M  V30 8967 C 837.851 0.329201 2.0011 0
M  V30 8968 C 838.184 -1.09004 1.60723 0
M  V30 8969 O 837.459 -1.74895 0.850989 0
M  V30 8970 C 837.742 0.466989 3.57059 0
M  V30 8971 C 837.595 1.92828 4.06371 0
M  V30 8972 C 838.914 -0.131792 4.39903 0
M  V30 8973 H 836.033 0.12109 0.726984 0
M  V30 8974 H 838.675 0.968779 1.63446 0
M  V30 8975 H 836.825 -0.0775023 3.88423 0
M  V30 8976 H 838.497 2.53208 3.85595 0
M  V30 8977 H 836.74 2.43884 3.58752 0
M  V30 8978 H 837.411 1.97577 5.15429 0
M  V30 8979 H 839.887 0.332731 4.14768 0
M  V30 8980 H 838.763 -0.005217 5.489 0
M  V30 8981 H 839.024 -1.22156 4.24889 0
M  V30 8982 N 838.083 -1.48885 0.516809 0
M  V30 8983 C 839.499 -1.58651 0.173788 0
M  V30 8984 C 839.699 -1.52033 -1.32243 0
M  V30 8985 O 838.755 -1.40251 -2.09967 0
M  V30 8986 C 840.068 -2.90816 0.764628 0
M  V30 8987 C 841.616 -3.04316 0.732164 0
M  V30 8988 C 842.091 -4.39123 1.30135 0
M  V30 8989 N 843.582 -4.45656 1.26273 0
M  V30 8990 C 844.317 -5.48446 1.67317 0
M  V30 8991 N 843.813 -6.58258 2.16028 0
M  V30 8992 N 845.606 -5.39251 1.58635 0
M  V30 8993 H 837.757 -1.5143 1.48939 0
M  V30 8994 H 840.02 -0.718243 0.618733 0
M  V30 8995 H 839.726 -3.01275 1.81456 0
M  V30 8996 H 839.6 -3.76473 0.234113 0
M  V30 8997 H 841.987 -2.93478 -0.308975 0
M  V30 8998 H 842.068 -2.20303 1.3 0
M  V30 8999 H 841.712 -4.50714 2.34135 0
M  V30 9000 H 841.642 -5.21801 0.709305 0
M  V30 9001 H 844.133 -3.66879 0.906006 0
M  V30 9002 H 844.446 -7.32811 2.45374 0
M  V30 9003 H 842.791 -6.59257 2.20013 0
M  V30 9004 H 845.982 -4.52354 1.20387 0
M  V30 9005 H 846.155 -6.19229 1.90944 0
M  V30 9006 N 839.561 -0.251338 -1.55583 0
M  V30 9007 C 840.494 0.687092 -2.1761 0
M  V30 9008 C 841.472 1.16963 -1.12953 0
M  V30 9009 O 842.656 1.24696 -1.41362 0
M  V30 9010 C 839.783 1.93429 -2.78034 0
M  V30 9011 C 838.829 1.58925 -3.95784 0
M  V30 9012 S 839.662 0.688019 -5.31062 0
M  V30 9013 C 840.818 1.94413 -5.94941 0
M  V30 9014 H 841.051 0.159982 -2.96869 0
M  V30 9015 H 838.584 -0.0357593 -1.54359 0
M  V30 9016 H 840.542 2.65028 -3.13481 0
M  V30 9017 H 839.203 2.43253 -1.98713 0
M  V30 9018 H 838.396 2.51668 -4.36668 0
M  V30 9019 H 837.998 0.953664 -3.61637 0
M  V30 9020 H 840.29 2.89087 -6.12727 0
M  V30 9021 H 841.233 1.5787 -6.90277 0
M  V30 9022 H 841.641 2.09824 -5.24056 0
M  V30 9023 N 841.039 1.57585 0.0217189 0
M  V30 9024 C 842.455 1.55072 0.377484 0
M  V30 9025 C 842.655 0.978423 1.76151 0
M  V30 9026 O 841.711 0.602688 2.45202 0
M  V30 9027 C 843.024 2.99462 0.272605 0
M  V30 9028 C 844.572 3.11047 0.349148 0
M  V30 9029 C 845.047 4.57182 0.273636 0
M  V30 9030 N 846.538 4.62007 0.332206 0
M  V30 9031 C 847.273 5.72631 0.296782 0
M  V30 9032 N 846.769 6.92472 0.21322 0
M  V30 9033 N 848.562 5.61028 0.347053 0
M  V30 9034 H 840.713 1.93133 -0.883925 0
M  V30 9035 H 842.976 0.886151 -0.33681 0
M  V30 9036 H 842.682 3.45088 -0.67878 0
M  V30 9037 H 842.556 3.61901 1.06335 0
M  V30 9038 H 844.943 2.65364 1.29097 0
M  V30 9039 H 845.024 2.51425 -0.471085 0
M  V30 9040 H 844.668 5.03534 -0.664548 0
M  V30 9041 H 844.598 5.14724 1.11207 0
M  V30 9042 H 847.089 3.75788 0.399003 0
M  V30 9043 H 847.402 7.72563 0.191492 0
M  V30 9044 H 845.747 6.94769 0.179161 0
M  V30 9045 H 848.938 4.66298 0.410378 0
M  V30 9046 H 849.111 6.47229 0.315979 0
M  V30 9047 N 842.517 -0.29412 1.54831 0
M  V30 9048 C 843.747 -1.04572 1.7818 0
M  V30 9049 C 844.155 -1.81187 0.544776 0
M  V30 9050 O 843.498 -1.769 -0.495169 0
M  V30 9051 C 843.56 -2.06748 2.94101 0
M  V30 9052 C 843.224 -1.49265 4.31936 0
M  V30 9053 C 844.221 -0.919136 5.11711 0
M  V30 9054 C 841.906 -1.52621 4.78552 0
M  V30 9055 C 843.9 -0.386824 6.36225 0
M  V30 9056 C 841.587 -0.990031 6.03027 0
M  V30 9057 C 842.585 -0.421315 6.81699 0
M  V30 9058 O 842.273 0.106713 8.03829 0
M  V30 9059 H 842.005 -0.31559 0.597812 0
M  V30 9060 H 844.559 -0.336817 2.0262 0
M  V30 9061 H 842.789 -2.81339 2.65303 0
M  V30 9062 H 844.478 -2.67865 3.04964 0
M  V30 9063 H 845.244 -0.886062 4.76837 0
M  V30 9064 H 841.123 -1.95826 4.17341 0
M  V30 9065 H 844.667 0.0577248 6.97576 0
M  V30 9066 H 840.564 -1.02027 6.37386 0
M  V30 9067 H 841.332 -0.00593526 8.185 0
M  V30 9068 N 843.995 -1.47404 -0.557645 0
M  V30 9069 C 844.925 -1.62736 -1.67449 0
M  V30 9070 C 845.906 -0.476824 -1.6328 0
M  V30 9071 O 847.091 -0.706108 -1.80908 0
M  V30 9072 C 844.221 -1.641 -3.06086 0
M  V30 9073 C 843.175 -2.78377 -3.25101 0
M  V30 9074 C 842.501 -2.64812 -4.6452 0
M  V30 9075 C 843.801 -4.19971 -3.10518 0
M  V30 9076 H 845.495 -2.56232 -1.54873 0
M  V30 9077 H 843.041 -1.23312 -0.743649 0
M  V30 9078 H 844.994 -1.73417 -3.84063 0
M  V30 9079 H 843.718 -0.671652 -3.19619 0
M  V30 9080 H 842.377 -2.6857 -2.49531 0
M  V30 9081 H 842.025 -1.65906 -4.74852 0
M  V30 9082 H 841.725 -3.41477 -4.78191 0
M  V30 9083 H 843.249 -2.76057 -5.44633 0
M  V30 9084 H 844.663 -4.30757 -3.78313 0
M  V30 9085 H 843.06 -4.97419 -3.35699 0
M  V30 9086 H 844.13 -4.38369 -2.0727 0
M  V30 9087 N 845.473 0.80434 -1.35529 0
M  V30 9088 C 846.403 1.93086 -1.31301 0
M  V30 9089 C 847.384 1.69068 -0.187044 0
M  V30 9090 O 848.569 1.90399 -0.382359 0
M  V30 9091 C 845.699 3.29867 -1.0865 0
M  V30 9092 C 844.653 3.68373 -2.17911 0
M  V30 9093 C 843.979 5.0334 -1.80423 0
M  V30 9094 C 845.279 3.78516 -3.59893 0
M  V30 9095 H 846.973 1.96882 -2.25561 0
M  V30 9096 H 844.519 0.945841 -1.08581 0
M  V30 9097 H 846.472 4.08281 -1.04331 0
M  V30 9098 H 845.196 3.2642 -0.108359 0
M  V30 9099 H 843.855 2.92247 -2.21331 0
M  V30 9100 H 843.503 4.96399 -0.812213 0
M  V30 9101 H 843.203 5.30074 -2.53565 0
M  V30 9102 H 844.727 5.84191 -1.77633 0
M  V30 9103 H 846.141 4.47155 -3.58783 0
M  V30 9104 H 844.538 4.16721 -4.31814 0
M  V30 9105 H 845.608 2.8001 -3.95882 0
M  V30 9106 N 846.951 1.19563 1.02676 0
M  V30 9107 C 847.898 0.935291 2.11 0
M  V30 9108 C 848.868 -0.130685 1.65585 0
M  V30 9109 O 850.053 0.0119062 1.90796 0
M  V30 9110 C 847.193 0.482384 3.41712 0
M  V30 9111 C 846.306 1.61537 4.00662 0
M  V30 9112 C 845.441 1.11378 5.19392 0
M  V30 9113 C 844.48 2.22052 5.70403 0
M  V30 9114 N 843.617 1.73185 6.80405 0
M  V30 9115 H 848.457 1.86275 2.32606 0
M  V30 9116 H 845.994 0.928656 1.14081 0
M  V30 9117 H 847.952 0.20118 4.16715 0
M  V30 9118 H 846.582 -0.408086 3.2021 0
M  V30 9119 H 845.634 2.01173 3.22852 0
M  V30 9120 H 846.946 2.44912 4.34534 0
M  V30 9121 H 846.1 0.787935 6.01562 0
M  V30 9122 H 844.839 0.249789 4.8706 0
M  V30 9123 H 843.844 2.55465 4.86845 0
M  V30 9124 H 845.069 3.08911 6.04774 0
M  V30 9125 H 843.015 0.890973 6.49921 0
M  V30 9126 H 842.932 2.50148 7.13416 0
M  V30 9127 H 844.2 1.4357 7.66164 0
M  V30 9128 N 848.429 -1.21819 0.999893 0
M  V30 9129 C 849.675 -1.91035 0.680701 0
M  V30 9130 C 850.008 -1.77582 -0.786021 0
M  V30 9131 O 849.283 -1.14917 -1.56921 0
M  V30 9132 C 849.566 -3.43013 1.0961 0
M  V30 9133 C 849.419 -3.65481 2.6219 0
M  V30 9134 C 850.738 -4.35204 0.654616 0
M  V30 9135 H 847.857 -0.693748 0.248763 0
M  V30 9136 H 850.499 -1.43555 1.24466 0
M  V30 9137 H 848.649 -3.83581 0.616253 0
M  V30 9138 H 850.321 -3.34273 3.17899 0
M  V30 9139 H 848.564 -3.09522 3.03938 0
M  V30 9140 H 849.235 -4.71945 2.86307 0
M  V30 9141 H 851.711 -4.0219 1.06688 0
M  V30 9142 H 850.587 -5.40198 0.973492 0
M  V30 9143 H 850.848 -4.3986 -0.444458 0
M  V30 9144 N 849.908 -0.773975 -1.37286 0
M  V30 9145 C 850.84 -0.119938 -2.28886 0
M  V30 9146 C 851.853 0.661822 -1.48741 0
M  V30 9147 O 853.042 0.499548 -1.71367 0
M  V30 9148 C 850.142 0.853703 -3.27971 0
M  V30 9149 C 849.315 0.125286 -4.37221 0
M  V30 9150 C 848.374 1.01261 -5.16365 0
M  V30 9151 O 847.4 0.475565 -5.6721 0
M  V30 9152 N 848.602 2.33864 -5.31308 0
M  V30 9153 H 851.367 -0.906702 -2.85655 0
M  V30 9154 H 848.928 -0.626519 -1.49286 0
M  V30 9155 H 850.92 1.4508 -3.77801 0
M  V30 9156 H 849.49 1.54142 -2.71954 0
M  V30 9157 H 848.71 -0.652742 -3.88758 0
M  V30 9158 H 849.998 -0.377959 -5.07394 0
M  V30 9159 H 849.396 2.79929 -4.91585 0
M  V30 9160 H 847.953 2.88575 -5.84438 0
M  V30 9161 N 851.386 1.48609 -0.524698 0
M  V30 9162 C 852.633 2.02497 0.0113214 0
M  V30 9163 C 852.961 1.40229 1.34781 0
M  V30 9164 O 852.216 0.53557 1.88229 0
M  V30 9165 C 852.515 3.56906 0.187873 0
M  V30 9166 C 852.181 4.37932 -1.07359 0
M  V30 9167 C 850.843 4.59792 -1.41933 0
M  V30 9168 C 853.195 4.84902 -1.911 0
M  V30 9169 C 850.523 5.25868 -2.60154 0
M  V30 9170 C 852.875 5.52281 -3.08495 0
M  V30 9171 C 851.539 5.7238 -3.4342 0
M  V30 9172 H 850.809 0.740988 0.0041428 0
M  V30 9173 H 853.456 1.78651 -0.689652 0
M  V30 9174 H 851.761 3.79563 0.971572 0
M  V30 9175 H 853.458 3.96218 0.617443 0
M  V30 9176 H 850.048 4.21175 -0.794331 0
M  V30 9177 H 854.232 4.67821 -1.65701 0
M  V30 9178 H 849.488 5.39628 -2.87422 0
M  V30 9179 H 853.662 5.87645 -3.73692 0
M  V30 9180 H 851.289 6.23354 -4.35126 0
M  V30 9181 N 852.864 0.259585 1.55447 0
M  V30 9182 C 853.812 -0.6507 2.23313 0
M  V30 9183 C 854.806 -1.17014 1.22491 0
M  V30 9184 O 856.012 -1.12557 1.40467 0
M  V30 9185 H 852.387 -0.228354 0.71649 0
M  V30 9186 H 854.358 -0.0553039 2.98349 0
M  V30 9187 C 853.107 -1.83081 2.95596 0
M  V30 9188 H 852.43 -1.44027 3.72956 0
M  V30 9189 H 853.87 -2.44469 3.46426 0
M  V30 9190 C 852.329 -2.70976 2.00184 0
M  V30 9191 O 852.859 -3.70882 1.54304 0
M  V30 9192 N 851.065 -2.37813 1.67014 0
M  V30 9193 H 850.612 -1.5662 2.04519 0
M  V30 9194 H 850.57 -2.96896 1.03443 0
M  V30 9195 N 854.342 -1.57594 -0.0133615 0
M  V30 9196 C 855.589 -1.8998 -0.70098 0
M  V30 9197 C 855.917 -0.858802 -1.74513 0
M  V30 9198 O 855.172 0.138209 -1.95211 0
M  V30 9199 C 855.471 -3.29121 -1.39336 0
M  V30 9200 C 855.137 -4.48298 -0.483687 0
M  V30 9201 C 853.799 -4.80635 -0.233186 0
M  V30 9202 C 856.151 -5.21003 0.143426 0
M  V30 9203 C 853.479 -5.83055 0.652943 0
M  V30 9204 C 855.831 -6.24366 1.01735 0
M  V30 9205 C 854.495 -6.55168 1.27716 0
M  V30 9206 H 853.765 -0.695187 -0.256507 0
M  V30 9207 H 856.412 -1.9146 0.0392965 0
M  V30 9208 H 854.717 -3.23703 -2.20735 0
M  V30 9209 H 856.414 -3.51433 -1.93121 0
M  V30 9210 H 853.004 -4.23024 -0.689092 0
M  V30 9211 H 857.188 -4.96286 -0.0371139 0
M  V30 9212 H 852.444 -6.05288 0.862379 0
M  V30 9213 H 856.618 -6.79839 1.5097 0
M  V30 9214 H 854.245 -7.34351 1.9655 0
M  V30 9215 N 855.82 0.285905 -1.54985 0
M  V30 9216 C 856.75 1.35752 -1.89983 0
M  V30 9217 C 857.731 1.52163 -0.760295 0
M  V30 9218 O 858.916 1.65421 -1.01733 0
M  V30 9219 C 856.046 2.71925 -2.16042 0
M  V30 9220 C 855 2.70261 -3.31878 0
M  V30 9221 C 854.326 4.09864 -3.43388 0
M  V30 9222 C 855.626 2.30667 -4.68604 0
M  V30 9223 H 857.32 1.06709 -2.79738 0
M  V30 9224 H 854.866 0.511884 -1.34595 0
M  V30 9225 H 856.819 3.46992 -2.39113 0
M  V30 9226 H 855.543 3.02523 -1.23074 0
M  V30 9227 H 854.202 1.97651 -3.08755 0
M  V30 9228 H 853.85 4.37664 -2.47909 0
M  V30 9229 H 853.55 4.09648 -4.21262 0
M  V30 9230 H 855.074 4.86689 -3.68736 0
M  V30 9231 H 856.488 2.95453 -4.91305 0
M  V30 9232 H 854.885 2.41637 -5.49301 0
M  V30 9233 H 855.955 1.25793 -4.68299 0
M  V30 9234 N 857.298 1.47698 0.54982 0
M  V30 9235 C 858.23 1.56806 1.67166 0
M  V30 9236 C 859.243 0.453709 1.5635 0
M  V30 9237 O 860.432 0.723663 1.63173 0
M  V30 9238 C 857.532 1.4632 3.05686 0
M  V30 9239 C 856.705 2.72452 3.42182 0
M  V30 9240 C 855.764 2.55698 4.59897 0
M  V30 9241 O 854.79 3.29534 4.64108 0
M  V30 9242 N 855.992 1.64009 5.56849 0
M  V30 9243 H 858.757 2.53545 1.59797 0
M  V30 9244 H 856.318 1.44171 0.736635 0
M  V30 9245 H 858.31 1.32835 3.82279 0
M  V30 9246 H 856.88 0.57634 3.07241 0
M  V30 9247 H 856.1 3.00644 2.54964 0
M  V30 9248 H 857.388 3.56172 3.63344 0
M  V30 9249 H 856.786 1.03186 5.5621 0
M  V30 9250 H 855.343 1.56473 6.3274 0
M  V30 9251 N 858.776 -0.797141 1.35954 0
M  V30 9252 C 859.706 -1.92387 1.32323 0
M  V30 9253 C 860.687 -1.68967 0.196007 0
M  V30 9254 O 861.872 -1.90193 0.39245 0
M  V30 9255 C 859.002 -3.29286 1.10398 0
M  V30 9256 C 857.956 -3.67212 2.19862 0
M  V30 9257 C 857.282 -5.02377 1.8309 0
M  V30 9258 C 858.582 -3.76602 3.61896 0
M  V30 9259 H 860.276 -1.95683 2.26602 0
M  V30 9260 H 857.822 -0.94007 1.09081 0
M  V30 9261 H 859.775 -4.07721 1.06495 0
M  V30 9262 H 858.499 -3.26358 0.125668 0
M  V30 9263 H 857.158 -2.91069 2.22878 0
M  V30 9264 H 856.806 -4.95961 0.838527 0
M  V30 9265 H 856.506 -5.28722 2.56372 0
M  V30 9266 H 858.03 -5.8324 1.80729 0
M  V30 9267 H 859.444 -4.45246 3.6115 0
M  V30 9268 H 857.841 -4.14425 4.34018 0
M  V30 9269 H 858.911 -2.77906 3.97361 0
M  V30 9270 N 860.254 -1.20106 -1.0204 0
M  V30 9271 C 861.5 -1.02042 -1.75951 0
M  V30 9272 C 861.855 0.443229 -1.87225 0
M  V30 9273 O 861.148 1.32477 -1.38421 0
M  V30 9274 C 861.342 -1.63308 -3.17908 0
M  V30 9275 C 861.171 -3.15478 -3.20474 0
M  V30 9276 C 859.941 -3.84432 -3.27933 0
M  V30 9277 C 862.139 -4.12747 -3.06829 0
M  V30 9278 N 860.121 -5.23925 -3.19963 0
M  V30 9279 C 861.492 -5.38892 -3.06586 0
M  V30 9280 C 863.547 -4.03996 -2.91018 0
M  V30 9281 C 862.25 -6.57296 -2.92154 0
M  V30 9282 C 864.276 -5.22019 -2.77938 0
M  V30 9283 C 863.638 -6.47067 -2.78358 0
M  V30 9284 H 859.737 -0.427602 -0.654737 0
M  V30 9285 H 862.321 -1.52216 -1.21402 0
M  V30 9286 H 860.492 -1.15723 -3.7076 0
M  V30 9287 H 862.224 -1.38597 -3.80227 0
M  V30 9288 H 858.979 -3.35269 -3.34502 0
M  V30 9289 H 859.403 -5.9694 -3.19362 0
M  V30 9290 H 864.045 -3.0813 -2.8951 0
M  V30 9291 H 861.763 -7.5334 -2.92412 0
M  V30 9292 H 865.349 -5.17057 -2.66728 0
M  V30 9293 H 864.229 -7.36857 -2.6835 0
M  V30 9294 O 861.771 1.15001 -1.13389 0
M  V30 9295 H 862.462 1.74049 -0.85009 0
M  V30 END ATOM
M  V30 BEGIN BOND
M  V30 END BOND
M  V30 END CTAB
M  END
$$$$
