drugbank_target|Q02641 Voltage-dependent L-type calcium channel subunit beta-1 (DB00252; DB00653; DB00825; DB09089; DB09231; DB09232; DB09236; DB09238; DB13746)
 OpenBabel12092119283D

  0  0  0     0  0            999 V3000
M  V30 BEGIN CTAB
M  V30 COUNTS 9178 9278 0 0 0
M  V30 BEGIN ATOM
M  V30 1 H -0.908 1.98254 -0.117106 0
M  V30 2 N 0 1.576 0 0
M  V30 3 C 0.933 2.03868 1.02534 0
M  V30 4 C 1.911 0.928543 1.3348 0
M  V30 5 O 3.095 1.19667 1.45644 0
M  V30 6 C 0.222 2.43627 2.35294 0
M  V30 7 C -0.732 3.65373 2.2001 0
M  V30 8 S 0.101 5.13292 1.52614 0
M  V30 9 C 1.257 5.56322 2.86805 0
M  V30 10 H 1.49 2.90518 0.631377 0
M  V30 11 H -0.977 1.52953 0.210867 0
M  V30 12 H 0.981 2.67203 3.11629 0
M  V30 13 H -0.358 1.57376 2.7183 0
M  V30 14 H -1.165 3.90944 3.18086 0
M  V30 15 H -1.563 3.418 1.51819 0
M  V30 16 H 0.729 5.58782 3.83104 0
M  V30 17 H 1.672 6.56266 2.65933 0
M  V30 18 H 2.08 4.83886 2.90714 0
M  V30 19 N 1.4781 -0.272755 1.55222 0
M  V30 20 C 2.7241 -1.00581 1.761 0
M  V30 21 C 3.0571 -1.85932 0.560625 0
M  V30 22 O 2.3321 -1.89416 -0.441801 0
M  V30 23 C 2.6151 -1.88816 3.06628 0
M  V30 24 C 2.4681 -1.06457 4.37021 0
M  V30 25 C 3.7871 -2.8752 3.33197 0
M  V30 26 H 0.9061 -0.364244 0.640699 0
M  V30 27 H 3.5481 -0.278189 1.87952 0
M  V30 28 H 1.6981 -2.50856 2.96654 0
M  V30 29 H 3.3701 -0.464863 4.58952 0
M  V30 30 H 1.6131 -0.368043 4.32236 0
M  V30 31 H 2.2841 -1.71514 5.24678 0
M  V30 32 H 4.7601 -2.35615 3.42965 0
M  V30 33 H 3.6361 -3.46399 4.25792 0
M  V30 34 H 3.8971 -3.62657 2.52849 0
M  V30 35 N 2.9562 -1.48159 -0.537278 0
M  V30 36 C 3.8882 -1.58218 -1.65831 0
M  V30 37 C 4.9012 -0.466948 -1.5596 0
M  V30 38 O 6.0902 -0.73747 -1.62553 0
M  V30 39 C 3.1902 -1.48906 -3.04434 0
M  V30 40 C 2.3632 -2.75343 -3.3986 0
M  V30 41 C 1.4222 -2.59588 -4.57712 0
M  V30 42 O 0.4482 -3.33457 -4.61297 0
M  V30 43 N 1.6502 -1.68724 -5.55439 0
M  V30 44 H 4.4152 -2.54891 -1.57641 0
M  V30 45 H 1.9762 -1.4479 -0.724386 0
M  V30 46 H 3.9682 -1.36072 -3.81139 0
M  V30 47 H 2.5382 -0.602368 -3.06741 0
M  V30 48 H 1.7582 -3.02795 -2.52406 0
M  V30 49 H 3.0462 -3.5924 -3.60311 0
M  V30 50 H 2.4442 -1.07898 -5.55315 0
M  V30 51 H 1.0012 -1.61832 -6.3139 0
M  V30 52 N 4.4343 0.785586 -1.36625 0
M  V30 53 C 5.3813 1.89838 -1.31264 0
M  V30 54 C 6.3513 1.65115 -0.180633 0
M  V30 55 O 7.5363 1.87222 -0.36777 0
M  V30 56 C 4.6763 3.26706 -1.11163 0
M  V30 57 C 3.7893 3.63476 -2.33472 0
M  V30 58 C 2.9243 4.89481 -2.06353 0
M  V30 59 C 1.9633 5.18941 -3.24602 0
M  V30 60 N 1.1003 6.36131 -2.97123 0
M  V30 61 H 5.9403 1.93756 -2.26413 0
M  V30 62 H 3.4773 0.947454 -1.12524 0
M  V30 63 H 5.4353 4.05639 -0.975337 0
M  V30 64 H 4.0653 3.222 -0.196674 0
M  V30 65 H 3.1173 2.79636 -2.57891 0
M  V30 66 H 4.4293 3.81193 -3.21704 0
M  V30 67 H 3.5833 5.76288 -1.89675 0
M  V30 68 H 2.3223 4.73841 -1.15437 0
M  V30 69 H 1.3273 4.30615 -3.41834 0
M  V30 70 H 2.5523 5.36498 -4.16349 0
M  V30 71 H 0.4983 6.21875 -2.08823 0
M  V30 72 H 0.4153 6.54198 -3.78894 0
M  V30 73 H 1.6833 7.2591 -2.84033 0
M  V30 74 N 5.9124 1.20967 1.01018 0
M  V30 75 C 7.1404 1.04956 1.78303 0
M  V30 76 C 7.5554 -0.400915 1.84494 0
M  V30 77 O 6.9124 -1.27826 1.30257 0
M  V30 78 C 6.9634 1.63403 3.22462 0
M  V30 79 O 6.6844 3.02775 3.16637 0
M  V30 80 C 8.1854 1.52432 4.16268 0
M  V30 81 H 5.4054 0.368858 0.560522 0
M  V30 82 H 7.9494 1.60193 1.27116 0
M  V30 83 H 6.1044 1.1227 3.70775 0
M  V30 84 H 6.5184 3.30626 4.07169 0
M  V30 85 H 7.9924 1.98078 5.15237 0
M  V30 86 H 8.4694 0.477875 4.36592 0
M  V30 87 H 9.0754 2.02787 3.73841 0
M  V30 88 N 7.3905 -1.2043 1.01659 0
M  V30 89 C 8.6155 -1.94318 0.724942 0
M  V30 90 C 9.0405 -1.74266 -0.708034 0
M  V30 91 O 8.3985 -1.03694 -1.48719 0
M  V30 92 C 8.4465 -3.44486 1.06591 0
M  V30 93 O 7.5505 -4.12017 0.177599 0
M  V30 94 H 6.8915 -0.60708 0.26898 0
M  V30 95 H 9.4215 -1.52861 1.35995 0
M  V30 96 H 9.4315 -3.95106 1.01762 0
M  V30 97 H 8.1065 -3.58404 2.10997 0
M  V30 98 H 6.6835 -3.71821 0.283421 0
M  V30 99 N 8.8686 -0.792821 -1.36206 0
M  V30 100 C 9.8016 -0.139422 -2.27774 0
M  V30 101 C 10.7796 0.68649 -1.47398 0
M  V30 102 O 11.9636 0.656738 -1.7669 0
M  V30 103 C 9.0906 0.807947 -3.28922 0
M  V30 104 C 8.1366 0.0633999 -4.26453 0
M  V30 105 S 8.9696 -1.26319 -5.20388 0
M  V30 106 C 10.1256 -0.31991 -6.25082 0
M  V30 107 H 10.3586 -0.915809 -2.82843 0
M  V30 108 H 7.8916 -0.587203 -1.42798 0
M  V30 109 H 9.8496 1.34908 -3.87699 0
M  V30 110 H 8.5106 1.55761 -2.72759 0
M  V30 111 H 7.7036 0.782386 -4.9789 0
M  V30 112 H 7.3056 -0.407352 -3.71775 0
M  V30 113 H 9.5976 0.499985 -6.75653 0
M  V30 114 H 10.5406 -1.00307 -7.00959 0
M  V30 115 H 10.9486 0.0782694 -5.64446 0
M  V30 116 N 10.3467 1.47872 -0.545128 0
M  V30 117 C 11.5717 2.07391 -0.0190611 0
M  V30 118 C 11.9967 1.39688 1.25971 0
M  V30 119 O 11.3547 0.467816 1.7516 0
M  V30 120 C 11.4027 3.60188 0.172335 0
M  V30 121 O 10.5067 3.9339 1.23766 0
M  V30 122 H 9.8477 0.662411 -0.0459059 0
M  V30 123 H 12.3777 1.90066 -0.757365 0
M  V30 124 H 12.3877 4.06129 0.390305 0
M  V30 125 H 11.0627 4.08865 -0.761725 0
M  V30 126 H 9.6397 3.5921 1.00114 0
M  V30 127 N 11.8248 0.280983 1.55075 0
M  V30 128 C 13.2408 -0.0729964 1.59433 0
M  V30 129 C 13.4408 -1.5411 1.29817 0
M  V30 130 O 12.4968 -2.29086 1.06187 0
M  V30 131 C 13.8098 0.306921 2.9913 0
M  V30 132 C 15.3578 0.254023 3.11968 0
M  V30 133 C 15.8328 0.608467 4.5394 0
M  V30 134 N 17.3238 0.560241 4.59799 0
M  V30 135 C 18.0588 0.80722 5.6769 0
M  V30 136 N 17.5548 1.11912 6.83701 0
M  V30 137 N 19.3478 0.735623 5.57266 0
M  V30 138 H 11.4988 1.238 1.7259 0
M  V30 139 H 13.7618 0.500547 0.805082 0
M  V30 140 H 13.4678 1.32816 3.25657 0
M  V30 141 H 13.3418 -0.349363 3.75579 0
M  V30 142 H 15.7288 -0.75794 2.852 0
M  V30 143 H 15.8098 0.944649 2.37718 0
M  V30 144 H 15.4538 1.61814 4.81434 0
M  V30 145 H 15.3838 -0.104013 5.26497 0
M  V30 146 H 17.8748 0.329288 3.76463 0
M  V30 147 H 18.1878 1.29409 7.61888 0
M  V30 148 H 16.5328 1.15695 6.85303 0
M  V30 149 H 19.7238 0.491752 4.6551 0
M  V30 150 H 19.8968 0.931482 6.4127 0
M  V30 151 N 13.3029 -1.57598 0.00835791 0
M  V30 152 C 14.5509 -1.90551 -0.6734 0
M  V30 153 C 14.8719 -0.883301 -1.73847 0
M  V30 154 O 14.1419 0.0781442 -1.95744 0
M  V30 155 H 12.7219 -0.703312 -0.251717 0
M  V30 156 H 15.3839 -1.94833 0.0512592 0
M  V30 157 H 14.4799 -2.9056 -1.13935 0
M  V30 158 N 14.781 0.264519 -1.55364 0
M  V30 159 C 16.192 0.834936 -1.6699 0
M  V30 160 C 16.543 1.86718 -0.602552 0
M  V30 161 O 15.668 2.14899 0.254425 0
M  V30 162 C 16.263 1.5212 -3.02729 0
M  V30 163 C 14.822 2.03954 -3.16354 0
M  V30 164 C 13.969 0.884498 -2.62815 0
M  V30 165 H 16.92 0.0406869 -1.58648 0
M  V30 166 H 16.941 2.38853 -2.96191 0
M  V30 167 H 16.453 0.769668 -3.80392 0
M  V30 168 H 14.554 2.82041 -2.43482 0
M  V30 169 H 14.667 2.24902 -4.23032 0
M  V30 170 H 13.031 1.2802 -2.20188 0
M  V30 171 H 13.814 0.14634 -3.42988 0
M  V30 172 N 16.2591 1.48442 0.529413 0
M  V30 173 C 17.4891 1.59919 1.30804 0
M  V30 174 C 17.8971 0.258792 1.87422 0
M  V30 175 O 17.2401 -0.762096 1.67146 0
M  V30 176 C 17.3021 2.58693 2.49636 0
M  V30 177 C 16.9661 4.03745 2.14101 0
M  V30 178 C 17.9631 4.9141 1.6974 0
M  V30 179 C 15.6481 4.49285 2.24607 0
M  V30 180 C 17.6421 6.22645 1.36351 0
M  V30 181 C 15.3291 5.8054 1.9083 0
M  V30 182 C 16.3271 6.67043 1.46773 0
M  V30 183 O 16.0151 7.95856 1.1344 0
M  V30 184 H 15.7471 0.541981 0.404021 0
M  V30 185 H 18.3011 1.95 0.645309 0
M  V30 186 H 16.5311 2.18734 3.18892 0
M  V30 187 H 18.2201 2.59999 3.11698 0
M  V30 188 H 18.9861 4.57465 1.61094 0
M  V30 189 H 14.8651 3.82142 2.57854 0
M  V30 190 H 18.4091 6.90119 1.01891 0
M  V30 191 H 14.3061 6.14022 1.99117 0
M  V30 192 H 15.0741 8.08613 1.26832 0
M  V30 193 N 17.7372 -0.778329 1.37039 0
M  V30 194 C 19.1482 -1.35421 1.28523 0
M  V30 195 C 19.4992 -1.96075 -0.0700901 0
M  V30 196 O 18.6242 -1.93352 -0.971801 0
M  V30 197 C 19.2192 -2.46211 2.32735 0
M  V30 198 C 17.7782 -2.99585 2.27873 0
M  V30 199 C 16.9252 -1.72748 2.16918 0
M  V30 200 H 19.8762 -0.5791 1.47757 0
M  V30 201 H 19.8972 -3.2552 1.9702 0
M  V30 202 H 19.4092 -2.02036 3.31365 0
M  V30 203 H 17.5102 -3.48152 1.32745 0
M  V30 204 H 17.6232 -3.55646 3.21018 0
M  V30 205 H 15.9872 -1.95416 1.63354 0
M  V30 206 H 16.7702 -1.30686 3.17452 0
M  V30 207 N 19.2153 -1.21501 -1.00376 0
M  V30 208 C 20.6263 -1.03146 -1.55621 0
M  V30 209 C 20.9773 0.408375 -1.91903 0
M  V30 210 O 20.1023 1.29177 -1.73616 0
M  V30 211 C 20.6973 -1.86612 -2.82775 0
M  V30 212 C 19.2563 -1.72586 -3.34501 0
M  V30 213 C 18.4033 -1.83747 -2.07683 0
M  V30 214 H 21.3543 -1.35505 -0.826081 0
M  V30 215 H 21.3753 -1.3771 -3.54706 0
M  V30 216 H 20.8873 -2.91399 -2.56336 0
M  V30 217 H 18.9883 -0.704877 -3.65872 0
M  V30 218 H 19.1013 -2.54623 -4.05837 0
M  V30 219 H 17.4653 -1.27069 -2.20739 0
M  V30 220 H 18.2483 -2.90044 -1.83655 0
M  V30 221 N 20.6934 1.19889 -1.02296 0
M  V30 222 C 21.9184 1.9393 -0.735237 0
M  V30 223 C 22.3434 1.74639 0.698782 0
M  V30 224 O 21.7014 1.04481 1.48167 0
M  V30 225 C 21.7494 3.43916 -1.08417 0
M  V30 226 O 20.8534 4.11917 -0.199446 0
M  V30 227 H 20.1944 0.605645 -0.272196 0
M  V30 228 H 22.7244 1.52137 -1.36804 0
M  V30 229 H 22.7344 3.9456 -1.03856 0
M  V30 230 H 21.4094 3.5728 -2.12894 0
M  V30 231 H 19.9864 3.71666 -0.303136 0
M  V30 232 N 22.1715 0.800033 1.35784 0
M  V30 233 C 23.1035 0.163596 2.28615 0
M  V30 234 C 24.1165 -0.633317 1.49976 0
M  V30 235 O 25.3055 -0.466754 1.72289 0
M  V30 236 C 22.4055 -0.790958 3.29541 0
M  V30 237 C 21.5785 -0.0418255 4.3738 0
M  V30 238 C 20.6375 -0.91389 5.18203 0
M  V30 239 O 19.6635 -0.367234 5.68014 0
M  V30 240 N 20.8655 -2.23682 5.35674 0
M  V30 241 H 23.6305 0.96105 2.83873 0
M  V30 242 H 21.1915 0.654894 1.48063 0
M  V30 243 H 23.1835 -1.37844 3.80501 0
M  V30 244 H 21.7535 -1.48925 2.74846 0
M  V30 245 H 20.9735 0.726813 3.87442 0
M  V30 246 H 22.2615 0.474719 5.06581 0
M  V30 247 H 21.6595 -2.70497 4.96838 0
M  V30 248 H 20.2165 -2.77369 5.89839 0
M  V30 249 N 23.6496 -1.47581 0.552962 0
M  V30 250 C 24.5596 -2.33743 -0.200353 0
M  V30 251 C 25.5756 -1.47928 -0.916151 0
M  V30 252 O 26.7516 -1.80865 -0.885993 0
M  V30 253 C 23.8166 -3.24536 -1.21973 0
M  V30 254 C 22.8776 -4.26238 -0.511819 0
M  V30 255 C 22.1106 -5.12693 -1.48263 0
M  V30 256 O 22.3336 -5.01525 -2.71714 0
M  V30 257 O 21.2676 -5.93375 -1.00945 0
M  V30 258 H 25.0936 -2.9945 0.506304 0
M  V30 259 H 22.6786 -1.46071 0.313622 0
M  V30 260 H 24.5606 -3.80631 -1.80827 0
M  V30 261 H 23.2356 -2.61462 -1.90839 0
M  V30 262 H 22.1426 -3.73914 0.117799 0
M  V30 263 H 23.4756 -4.92014 0.135308 0
M  V30 264 N 25.1277 -0.289203 -1.54924 0
M  V30 265 C 26.3767 0.324231 -1.99077 0
M  V30 266 C 26.6897 1.5591 -1.18117 0
M  V30 267 O 27.8957 2.24637 -1.52481 0
M  V30 268 C 26.3517 0.628209 -3.54375 0
M  V30 269 C 25.9597 -0.587647 -4.44129 0
M  V30 270 C 27.7037 1.20349 -4.07083 0
M  V30 271 C 25.6107 -0.257475 -5.90839 0
M  V30 272 H 24.5407 0.124924 -0.743579 0
M  V30 273 H 27.1917 -0.396063 -1.79175 0
M  V30 274 H 25.5737 1.40778 -3.70132 0
M  V30 275 H 26.7477 -1.36418 -4.40144 0
M  V30 276 H 25.0627 -1.08074 -4.0213 0
M  V30 277 H 27.6597 1.46456 -5.14252 0
M  V30 278 H 28.0027 2.14195 -3.56968 0
M  V30 279 H 28.5357 0.485889 -3.94821 0
M  V30 280 H 25.2747 -1.16419 -6.45079 0
M  V30 281 H 24.7947 0.482018 -5.9786 0
M  V30 282 H 26.4737 0.145238 -6.46837 0
M  V30 283 N 26.6058 1.57591 -0.0167156 0
M  V30 284 C 28.0168 1.79201 0.523834 0
M  V30 285 C 28.3678 0.925796 1.72984 0
M  V30 286 O 27.4928 0.132792 2.15992 0
M  V30 287 C 28.0878 3.25 0.957091 0
M  V30 288 C 26.6468 3.47648 1.44283 0
M  V30 289 C 25.7938 2.74374 0.401757 0
M  V30 290 H 28.7448 1.56831 -0.242816 0
M  V30 291 H 28.7658 3.34031 1.82219 0
M  V30 292 H 28.2778 3.88019 0.0791415 0
M  V30 293 H 26.3788 2.89866 2.34113 0
M  V30 294 H 26.4918 4.56352 1.45877 0
M  V30 295 H 24.8558 2.39485 0.867121 0
M  V30 296 H 25.6388 3.40102 -0.467513 0
M  V30 297 N 28.0839 -0.256276 1.55502 0
M  V30 298 C 29.0169 -1.34321 1.84481 0
M  V30 299 C 29.9949 -1.46802 0.699131 0
M  V30 300 O 31.1789 -1.63165 0.943904 0
M  V30 301 C 28.3059 -2.71779 2.02123 0
M  V30 302 C 27.3519 -2.76496 3.24734 0
M  V30 303 S 28.1849 -2.3405 4.81644 0
M  V30 304 C 29.3409 -3.73452 5.02279 0
M  V30 305 H 29.5739 -1.09539 2.76385 0
M  V30 306 H 27.1069 -0.45678 1.47489 0
M  V30 307 H 29.0649 -3.50932 2.12972 0
M  V30 308 H 27.7259 -2.93803 1.11078 0
M  V30 309 H 26.9189 -3.77424 3.34016 0
M  V30 310 H 26.5209 -2.05379 3.12563 0
M  V30 311 H 28.8129 -4.6887 4.89047 0
M  V30 312 H 29.7559 -3.6911 6.04287 0
M  V30 313 H 30.1639 -3.6553 4.30172 0
M  V30 314 N 29.562 -1.4872 -0.521534 0
M  V30 315 C 30.472 -1.66569 -1.65203 0
M  V30 316 C 31.488 -0.548197 -1.65139 0
M  V30 317 O 32.664 -0.820339 -1.83936 0
M  V30 318 C 29.729 -1.70917 -3.01642 0
M  V30 319 C 28.79 -2.94356 -3.12495 0
M  V30 320 C 28.023 -2.98487 -4.42426 0
M  V30 321 O 28.246 -2.10786 -5.30024 0
M  V30 322 O 27.18 -3.90746 -4.57822 0
M  V30 323 H 31.006 -2.62298 -1.5308 0
M  V30 324 H 28.591 -1.3222 -0.695565 0
M  V30 325 H 30.473 -1.7625 -3.82771 0
M  V30 326 H 29.148 -0.783633 -3.14071 0
M  V30 327 H 28.055 -2.94552 -2.3063 0
M  V30 328 H 29.388 -3.86322 -3.04986 0
M  V30 329 N 31.0401 0.771051 -1.3745 0
M  V30 330 C 32.2861 1.5319 -1.32894 0
M  V30 331 C 32.6191 1.94008 0.0862511 0
M  V30 332 O 31.8941 1.64124 1.04373 0
M  V30 333 C 32.1771 2.79648 -2.26868 0
M  V30 334 C 32.0301 2.45079 -3.77169 0
M  V30 335 C 33.3491 3.81583 -2.19277 0
M  V30 336 H 30.4681 0.555744 -0.484064 0
M  V30 337 H 33.1101 0.884492 -1.68157 0
M  V30 338 H 31.2601 3.34891 -1.96926 0
M  V30 339 H 32.9321 1.95745 -4.1771 0
M  V30 340 H 31.1751 1.77767 -3.95704 0
M  V30 341 H 31.8461 3.35478 -4.38359 0
M  V30 342 H 34.3221 3.35835 -2.45671 0
M  V30 343 H 33.1981 4.67787 -2.87171 0
M  V30 344 H 33.4591 4.25897 -1.18592 0
M  V30 345 N 32.5182 1.22032 0.997298 0
M  V30 346 C 33.7652 1.04222 1.73621 0
M  V30 347 C 34.0932 -0.423264 1.89839 0
M  V30 348 O 33.3482 -1.3302 1.43542 0
M  V30 349 C 33.6472 1.69345 3.14733 0
M  V30 350 C 33.3132 3.19226 3.18442 0
M  V30 351 C 31.9752 3.60124 3.19161 0
M  V30 352 C 34.3272 4.15181 3.15078 0
M  V30 353 C 31.6552 4.95467 3.14212 0
M  V30 354 C 34.0072 5.50495 3.1167 0
M  V30 355 C 32.6712 5.90779 3.10703 0
M  V30 356 H 31.9412 0.381374 0.635323 0
M  V30 357 H 34.5882 1.51732 1.16831 0
M  V30 358 H 32.8932 1.14147 3.74803 0
M  V30 359 H 34.5902 1.53059 3.7064 0
M  V30 360 H 31.1802 2.86659 3.18629 0
M  V30 361 H 35.3642 3.84605 3.13676 0
M  V30 362 H 30.6202 5.25916 3.11805 0
M  V30 363 H 34.7942 6.24576 3.08022 0
M  V30 364 H 32.4212 6.9562 3.06622 0
M  V30 365 N 33.9963 -1.19345 1.0293 0
M  V30 366 C 35.2733 -1.84811 0.640642 0
M  V30 367 C 35.6533 -1.91855 -0.88062 0
M  V30 368 O 35.0013 -1.43587 -1.7775 0
M  V30 369 C 35.2113 -3.23755 1.30321 0
M  V30 370 C 36.5593 -3.99912 1.42673 0
M  V30 371 O 37.5833 -3.33155 1.26041 0
M  V30 372 O 36.4423 -5.19494 1.6967 0
M  V30 373 H 33.5363 -0.796443 0.222726 0
M  V30 374 H 36.0823 -1.26831 1.12748 0
M  V30 375 H 34.8543 -3.13466 2.34211 0
M  V30 376 H 34.4773 -3.89381 0.804261 0
M  V30 377 N 35.4744 -0.807222 -1.35358 0
M  V30 378 C 36.8854 -0.44876 -1.81226 0
M  V30 379 C 37.2364 1.02929 -1.67033 0
M  V30 380 O 36.3614 1.79991 -1.20133 0
M  V30 381 C 36.9564 -0.807774 -3.2903 0
M  V30 382 C 35.5154 -0.501901 -3.73039 0
M  V30 383 C 34.6624 -1.03304 -2.57339 0
M  V30 384 H 37.6134 -0.998808 -1.23327 0
M  V30 385 H 37.6344 -0.10554 -3.80354 0
M  V30 386 H 37.1464 -1.88357 -3.39328 0
M  V30 387 H 35.2474 0.565128 -3.68289 0
M  V30 388 H 35.3604 -1.03497 -4.67787 0
M  V30 389 H 33.7244 -0.455339 -2.50597 0
M  V30 390 H 34.5074 -2.11496 -2.70415 0
M  V30 391 N 36.9525 1.47285 -0.560781 0
M  V30 392 C 38.1775 2.07359 -0.0410566 0
M  V30 393 C 38.6025 1.41017 1.24483 0
M  V30 394 O 37.9605 0.486368 1.74654 0
M  V30 395 C 38.0085 3.6035 0.134123 0
M  V30 396 O 37.1125 3.94681 1.19587 0
M  V30 397 H 36.4535 0.661887 -0.0529291 0
M  V30 398 H 38.9835 1.89252 -0.777482 0
M  V30 399 H 38.9935 4.0652 0.347207 0
M  V30 400 H 37.6685 4.08034 -0.805047 0
M  V30 401 H 36.2455 3.60251 0.962987 0
M  V30 402 N 38.4306 0.297415 1.54768 0
M  V30 403 C 39.8416 -0.195947 1.85669 0
M  V30 404 C 40.1926 -1.53707 1.21937 0
M  V30 405 O 39.3176 -2.10164 0.515754 0
M  V30 406 C 39.9126 -0.362318 3.36857 0
M  V30 407 C 38.4716 -0.799901 3.67802 0
M  V30 408 C 37.6186 0.0938578 2.77141 0
M  V30 409 H 40.5696 0.518538 1.4999 0
M  V30 410 H 40.5906 -1.19745 3.61167 0
M  V30 411 H 40.1026 0.613921 3.83214 0
M  V30 412 H 38.2036 -1.78682 3.26961 0
M  V30 413 H 38.3166 -0.621773 4.75048 0
M  V30 414 H 36.6806 -0.426254 2.51108 0
M  V30 415 H 37.4636 1.06639 3.26318 0
M  V30 416 N 39.9087 -1.5758 0.0250728 0
M  V30 417 C 40.8407 -2.06869 -0.986796 0
M  V30 418 C 41.8537 -0.991332 -1.29137 0
M  V30 419 O 43.0427 -1.26761 -1.25674 0
M  V30 420 C 40.1427 -2.47486 -2.31525 0
M  V30 421 C 39.3157 -3.78253 -2.19643 0
M  V30 422 C 38.3747 -4.05464 -3.35388 0
M  V30 423 O 37.4007 -4.75774 -3.12454 0
M  V30 424 N 38.6027 -3.55321 -4.59051 0
M  V30 425 H 41.3677 -2.94302 -0.566276 0
M  V30 426 H 38.9287 -1.6109 -0.161776 0
M  V30 427 H 40.9207 -2.62785 -3.07776 0
M  V30 428 H 39.4907 -1.65441 -2.65232 0
M  V30 429 H 38.7107 -3.7279 -1.28144 0
M  V30 430 H 39.9987 -4.63936 -2.08903 0
M  V30 431 H 39.3967 -2.98431 -4.80578 0
M  V30 432 H 37.9537 -3.75905 -5.32483 0
M  V30 433 N 41.3868 0.248026 -1.55636 0
M  V30 434 C 42.6348 0.974295 -1.77065 0
M  V30 435 C 42.9558 1.85897 -0.588849 0
M  V30 436 O 42.2258 1.91868 0.395407 0
M  V30 437 H 40.8058 0.362733 -0.653019 0
M  V30 438 H 43.4678 0.266244 -1.93073 0
M  V30 439 H 42.5638 1.59667 -2.68166 0
M  V30 440 N 42.8649 1.48995 0.513639 0
M  V30 441 C 43.8119 1.6473 1.61656 0
M  V30 442 C 44.7819 0.488984 1.58739 0
M  V30 443 O 45.9669 0.714478 1.76918 0
M  V30 444 C 43.1069 1.7082 2.99858 0
M  V30 445 C 42.2199 2.9787 3.12885 0
M  V30 446 C 41.3549 2.95017 4.41744 0
M  V30 447 C 40.3939 4.16702 4.48359 0
M  V30 448 N 39.5309 4.11832 5.68629 0
M  V30 449 H 44.3709 2.58909 1.47547 0
M  V30 450 H 41.9079 1.28382 0.71808 0
M  V30 451 H 43.8659 1.72331 3.79944 0
M  V30 452 H 42.4959 0.801181 3.12699 0
M  V30 453 H 41.5479 3.06029 2.25944 0
M  V30 454 H 42.8599 3.8786 3.13633 0
M  V30 455 H 42.0139 2.95021 5.30139 0
M  V30 456 H 40.7529 2.02784 4.43542 0
M  V30 457 H 39.7579 4.16955 3.58369 0
M  V30 458 H 40.9829 5.10113 4.48287 0
M  V30 459 H 38.9289 3.22428 5.71293 0
M  V30 460 H 38.8459 4.95543 5.7094 0
M  V30 461 H 40.1139 4.1592 6.59266 0
M  V30 462 N 44.343 -0.763751 1.37857 0
M  V30 463 C 45.573 -1.55067 1.3652 0
M  V30 464 C 45.981 -1.89135 -0.0494227 0
M  V30 465 O 45.324 -1.52529 -1.02375 0
M  V30 466 C 45.386 -2.8838 2.14656 0
M  V30 467 C 45.05 -2.76905 3.63555 0
M  V30 468 C 46.047 -2.4739 4.57268 0
M  V30 469 C 43.732 -2.94676 4.06781 0
M  V30 470 C 45.726 -2.35786 5.92186 0
M  V30 471 C 43.413 -2.82692 5.41782 0
M  V30 472 C 44.411 -2.53289 6.34298 0
M  V30 473 O 44.099 -2.41345 7.66817 0
M  V30 474 H 43.831 -0.486776 0.469069 0
M  V30 475 H 46.385 -0.953812 1.81911 0
M  V30 476 H 44.615 -3.50217 1.63967 0
M  V30 477 H 46.304 -3.49828 2.05852 0
M  V30 478 H 47.07 -2.33339 4.2518 0
M  V30 479 H 42.949 -3.16563 3.35126 0
M  V30 480 H 46.493 -2.12757 6.64365 0
M  V30 481 H 42.39 -2.96314 5.7347 0
M  V30 482 H 43.158 -2.56634 7.77226 0
M  V30 483 N 45.8211 -1.22559 -0.990812 0
M  V30 484 C 47.0461 -1.07862 -1.77145 0
M  V30 485 C 47.4711 0.366447 -1.84496 0
M  V30 486 O 46.8291 1.26478 -1.29896 0
M  V30 487 C 46.8771 -1.69686 -3.18181 0
M  V30 488 O 45.9811 -0.951946 -4.01263 0
M  V30 489 H 45.3221 -0.378712 -0.545411 0
M  V30 490 H 47.8521 -1.62399 -1.2445 0
M  V30 491 H 47.8621 -1.74496 -3.68802 0
M  V30 492 H 46.5371 -2.74841 -3.12146 0
M  V30 493 H 45.1141 -0.980011 -3.59792 0
M  V30 494 N 47.2992 1.18797 -1.03562 0
M  V30 495 C 48.2462 2.22253 -0.622259 0
M  V30 496 C 49.2162 1.61987 0.36736 0
M  V30 497 O 50.4012 1.88986 0.262492 0
M  V30 498 C 47.5412 3.45097 0.0138462 0
M  V30 499 C 46.6542 4.19722 -1.02263 0
M  V30 500 C 45.7892 5.30009 -0.355573 0
M  V30 501 C 44.8282 5.96399 -1.37749 0
M  V30 502 N 43.9652 6.98234 -0.735766 0
M  V30 503 H 48.8052 2.56968 -1.50903 0
M  V30 504 H 46.3422 1.26245 -0.755017 0
M  V30 505 H 48.3002 4.15279 0.399948 0
M  V30 506 H 46.9302 3.11018 0.864158 0
M  V30 507 H 45.9822 3.48418 -1.52673 0
M  V30 508 H 47.2942 4.65227 -1.79903 0
M  V30 509 H 46.4482 6.0664 0.0850095 0
M  V30 510 H 45.1872 4.85592 0.452967 0
M  V30 511 H 44.1922 5.18512 -1.82826 0
M  V30 512 H 45.4172 6.42899 -2.18764 0
M  V30 513 H 43.3632 6.55979 0.0525597 0
M  V30 514 H 43.2802 7.41965 -1.44995 0
M  V30 515 H 44.5482 7.78845 -0.31941 0
M  V30 516 N 48.7773 0.814389 1.34928 0
M  V30 517 C 50.1933 0.499084 1.51596 0
M  V30 518 C 50.3933 -0.978319 1.76157 0
M  V30 519 O 49.4493 -1.76309 1.80752 0
M  V30 520 C 50.7623 1.35121 2.68631 0
M  V30 521 C 52.3103 1.34746 2.82511 0
M  V30 522 C 52.7853 2.18388 4.0258 0
M  V30 523 N 54.2763 2.15966 4.09772 0
M  V30 524 C 55.0113 2.77437 5.01813 0
M  V30 525 N 54.5073 3.47866 5.99134 0
M  V30 526 N 56.3003 2.67037 4.94619 0
M  V30 527 H 48.4513 1.7711 1.17243 0
M  V30 528 H 50.7143 0.754256 0.574284 0
M  V30 529 H 50.4203 2.40001 2.57085 0
M  V30 530 H 50.2943 1.00991 3.63429 0
M  V30 531 H 52.6813 0.30648 2.93504 0
M  V30 532 H 52.7623 1.72869 1.88547 0
M  V30 533 H 52.4063 3.2253 3.92347 0
M  V30 534 H 52.3363 1.77621 4.9574 0
M  V30 535 H 54.8273 1.64729 3.40107 0
M  V30 536 H 55.1403 3.92038 6.65977 0
M  V30 537 H 53.4853 3.51972 5.99284 0
M  V30 538 H 56.6763 2.11597 4.17546 0
M  V30 539 H 56.8493 3.15232 5.66156 0
M  V30 540 N 50.2554 -1.46986 0.568584 0
M  V30 541 C 51.2024 -2.30153 -0.172707 0
M  V30 542 C 52.1724 -1.39759 -0.897586 0
M  V30 543 O 53.3574 -1.68716 -0.891044 0
M  V30 544 C 50.4974 -3.23952 -1.1895 0
M  V30 545 C 49.6104 -4.29441 -0.469517 0
M  V30 546 C 48.7454 -5.1038 -1.47259 0
M  V30 547 C 47.7844 -6.07632 -0.738225 0
M  V30 548 N 46.9214 -6.8149 -1.68868 0
M  V30 549 H 51.7614 -2.93019 0.542596 0
M  V30 550 H 49.2984 -1.44422 0.279401 0
M  V30 551 H 51.2564 -3.76767 -1.79173 0
M  V30 552 H 49.8864 -2.62926 -1.87269 0
M  V30 553 H 48.9384 -3.79594 0.247467 0
M  V30 554 H 50.2504 -4.98689 0.105241 0
M  V30 555 H 49.4044 -5.67402 -2.14803 0
M  V30 556 H 48.1434 -4.4106 -2.08128 0
M  V30 557 H 47.1484 -5.49778 -0.0489293 0
M  V30 558 H 48.3734 -6.78966 -0.135129 0
M  V30 559 H 46.3194 -6.14891 -2.28573 0
M  V30 560 H 46.2364 -7.46948 -1.16636 0
M  V30 561 H 47.5044 -7.43078 -2.3549 0
M  V30 562 N 51.7335 -0.305618 -1.54608 0
M  V30 563 C 52.9815 0.301701 -1.99835 0
M  V30 564 C 53.3025 1.54054 -1.19551 0
M  V30 565 O 52.5725 1.93702 -0.292658 0
M  V30 566 H 51.1525 0.114468 -0.738178 0
M  V30 567 H 53.8145 -0.418016 -1.90364 0
M  V30 568 H 52.9105 0.570548 -3.06841 0
M  V30 569 N 53.2116 1.57565 -0.0334293 0
M  V30 570 C 54.6276 1.56297 0.322997 0
M  V30 571 C 54.8276 1.03945 1.7262 0
M  V30 572 O 53.8836 0.688109 2.42943 0
M  V30 573 C 55.1966 3.00232 0.167664 0
M  V30 574 C 56.7446 3.12078 0.240107 0
M  V30 575 C 57.2196 4.57859 0.113513 0
M  V30 576 N 58.7106 4.62887 0.170359 0
M  V30 577 C 59.4456 5.73319 0.0962517 0
M  V30 578 N 58.9416 6.92794 -0.0291881 0
M  V30 579 N 60.7346 5.61898 0.150551 0
M  V30 580 H 52.8856 1.89923 -0.950956 0
M  V30 581 H 55.1486 0.873824 -0.367608 0
M  V30 582 H 54.8546 3.42501 -0.799102 0
M  V30 583 H 54.7286 3.654 0.936083 0
M  V30 584 H 57.1156 2.69718 1.19733 0
M  V30 585 H 57.1966 2.49623 -0.558763 0
M  V30 586 H 56.8406 5.009 -0.840314 0
M  V30 587 H 56.7706 5.18299 0.931302 0
M  V30 588 H 59.2616 3.76954 0.26728 0
M  V30 589 H 59.5746 7.7276 -0.0789252 0
M  V30 590 H 57.9196 6.94971 -0.0640299 0
M  V30 591 H 61.1106 4.67448 0.246981 0
M  V30 592 H 61.2836 6.47938 0.0893365 0
M  V30 593 N 54.6897 -0.239769 1.55765 0
M  V30 594 C 55.9367 -0.966801 1.7793 0
M  V30 595 C 56.2647 -1.85046 0.599015 0
M  V30 596 O 55.5197 -1.91197 -0.417395 0
M  V30 597 C 55.8187 -1.852 3.05672 0
M  V30 598 C 55.4847 -1.1231 4.36689 0
M  V30 599 C 54.1467 -0.921689 4.72291 0
M  V30 600 C 56.4987 -0.607019 5.17653 0
M  V30 601 C 53.8267 -0.191996 5.86386 0
M  V30 602 C 56.1787 0.109241 6.32506 0
M  V30 603 C 54.8427 0.322073 6.66723 0
M  V30 604 H 54.1127 -0.353778 0.651093 0
M  V30 605 H 56.7597 -0.23634 1.90036 0
M  V30 606 H 55.0647 -2.64975 2.8861 0
M  V30 607 H 56.7617 -2.41635 3.20021 0
M  V30 608 H 53.3517 -1.29004 4.08725 0
M  V30 609 H 57.5357 -0.750153 4.90598 0
M  V30 610 H 52.7917 -0.0166949 6.11398 0
M  V30 611 H 56.9657 0.516737 6.9448 0
M  V30 612 H 54.5927 0.88944 7.54979 0
M  V30 613 N 56.1678 -1.49265 -0.50573 0
M  V30 614 C 57.1148 -1.65585 -1.6078 0
M  V30 615 C 58.0848 -0.497396 -1.58478 0
M  V30 616 O 59.2698 -0.72385 -1.76536 0
M  V30 617 C 56.4098 -1.72408 -2.98948 0
M  V30 618 C 55.5228 -2.99525 -3.11301 0
M  V30 619 C 54.6578 -2.97356 -4.40174 0
M  V30 620 C 53.6968 -4.19074 -4.46143 0
M  V30 621 N 52.8338 -4.14841 -5.66437 0
M  V30 622 H 57.6738 -2.59688 -1.46172 0
M  V30 623 H 55.2108 -1.28761 -0.711261 0
M  V30 624 H 57.1688 -1.74344 -3.79025 0
M  V30 625 H 55.7988 -0.817753 -3.1227 0
M  V30 626 H 54.8508 -3.07222 -2.24318 0
M  V30 627 H 56.1628 -3.89518 -3.11572 0
M  V30 628 H 55.3168 -2.97829 -5.28567 0
M  V30 629 H 54.0558 -2.05133 -4.42461 0
M  V30 630 H 53.0608 -4.1885 -3.56153 0
M  V30 631 H 54.2858 -5.12483 -4.45575 0
M  V30 632 H 52.2318 -3.25453 -5.69575 0
M  V30 633 H 52.1488 -4.98564 -5.68304 0
M  V30 634 H 53.4168 -4.1941 -6.57051 0
M  V30 635 N 57.6459 0.756429 -1.3826 0
M  V30 636 C 59.0619 1.0591 -1.19395 0
M  V30 637 C 59.2619 2.01459 -0.0406567 0
M  V30 638 O 58.3179 2.44909 0.614467 0
M  V30 639 C 59.6309 1.64191 -2.51916 0
M  V30 640 C 61.1789 1.76376 -2.58574 0
M  V30 641 C 61.6539 2.38069 -3.91264 0
M  V30 642 N 63.1449 2.45503 -3.92788 0
M  V30 643 C 63.8799 2.94126 -4.92217 0
M  V30 644 N 63.3759 3.42805 -6.02043 0
M  V30 645 N 65.1689 2.9314 -4.7961 0
M  V30 646 H 57.3199 0.122313 -2.12048 0
M  V30 647 H 59.5829 0.116892 -0.940766 0
M  V30 648 H 59.2889 1.01451 -3.3675 0
M  V30 649 H 59.1629 2.6329 -2.70108 0
M  V30 650 H 61.5499 2.38244 -1.74137 0
M  V30 651 H 61.6309 0.759894 -2.44252 0
M  V30 652 H 61.2749 1.76835 -4.76121 0
M  V30 653 H 61.2049 3.39091 -4.02895 0
M  V30 654 H 63.6959 2.1107 -3.13461 0
M  V30 655 H 64.0089 3.78354 -6.73846 0
M  V30 656 H 62.3539 3.4087 -6.05667 0
M  V30 657 H 65.5449 2.54419 -3.92923 0
M  V30 658 H 65.7179 3.30721 -5.5725 0
M  V30 659 N 59.124 1.23083 0.984299 0
M  V30 660 C 60.349 1.088 1.76571 0
M  V30 661 C 60.774 -0.356657 1.84688 0
M  V30 662 O 60.132 -1.25788 1.30565 0
M  V30 663 C 60.18 1.71371 3.17277 0
M  V30 664 O 59.284 0.973213 4.00752 0
M  V30 665 H 58.625 0.381599 0.543395 0
M  V30 666 H 61.155 1.63057 1.23587 0
M  V30 667 H 61.165 1.76449 3.67872 0
M  V30 668 H 59.84 2.76493 3.10684 0
M  V30 669 H 58.417 0.999078 3.59267 0
M  V30 670 N 60.6021 -1.18246 1.0419 0
M  V30 671 C 61.8791 -1.84121 0.660208 0
M  V30 672 C 62.2591 -1.92778 -0.860221 0
M  V30 673 O 61.6071 -1.45464 -1.76217 0
M  V30 674 C 61.8171 -3.22355 1.33747 0
M  V30 675 C 63.1651 -3.98376 1.46906 0
M  V30 676 O 64.1891 -3.31799 1.29568 0
M  V30 677 O 63.0481 -5.17665 1.75171 0
M  V30 678 H 60.1421 -0.794036 0.231161 0
M  V30 679 H 62.6881 -1.25628 1.14087 0
M  V30 680 H 61.4601 -3.10964 2.37522 0
M  V30 681 H 61.0831 -3.88506 0.845515 0
M  V30 682 N 62.0802 -0.821533 -1.34494 0
M  V30 683 C 63.3282 -0.408139 -1.97936 0
M  V30 684 C 63.6492 1.03193 -1.65457 0
M  V30 685 O 62.9192 1.71622 -0.944595 0
M  V30 686 H 61.4992 -0.147928 -0.732206 0
M  V30 687 H 64.1612 -1.05067 -1.64155 0
M  V30 688 H 63.2572 -0.52601 -3.07635 0
M  V30 689 N 63.5583 1.46682 -0.576371 0
M  V30 690 C 64.7833 2.07304 -0.0630475 0
M  V30 691 C 65.2083 1.42329 1.2298 0
M  V30 692 O 64.5663 0.504865 1.74129 0
M  V30 693 C 64.6143 3.60472 0.095895 0
M  V30 694 O 63.7183 3.95927 1.15394 0
M  V30 695 H 63.0593 0.661288 -0.0599463 0
M  V30 696 H 65.5893 1.88417 -0.797511 0
M  V30 697 H 65.5993 4.06865 0.304071 0
M  V30 698 H 64.2743 4.07157 -0.84828 0
M  V30 699 H 62.8513 3.61252 0.924724 0
M  V30 700 N 65.0364 0.313813 1.54444 0
M  V30 701 C 66.2644 -0.293918 2.04802 0
M  V30 702 C 66.6794 -1.46537 1.19047 0
M  V30 703 O 66.0364 -1.81182 0.218939 0
M  V30 704 C 66.0874 -0.737806 3.53891 0
M  V30 705 O 65.8084 0.387038 4.36387 0
M  V30 706 C 67.3094 -1.40936 4.203 0
M  V30 707 H 64.5294 -0.0620057 0.668129 0
M  V30 708 H 67.0734 0.457169 1.99324 0
M  V30 709 H 65.2284 -1.43889 3.59687 0
M  V30 710 H 65.6424 0.0391274 5.24485 0
M  V30 711 H 67.1164 -1.67099 5.26101 0
M  V30 712 H 67.5934 -2.35355 3.70816 0
M  V30 713 H 68.1994 -0.751117 4.18615 0
M  V30 714 N 66.5145 -1.57545 0.0417849 0
M  V30 715 C 67.7395 -1.97035 -0.647455 0
M  V30 716 C 68.1645 -0.918775 -1.64135 0
M  V30 717 O 67.5225 0.119006 -1.80909 0
M  V30 718 C 67.5705 -3.35609 -1.31905 0
M  V30 719 O 66.6745 -3.3287 -2.43457 0
M  V30 720 H 66.0155 -0.64211 -0.169086 0
M  V30 721 H 68.5455 -2.04318 0.107399 0
M  V30 722 H 68.5555 -3.72126 -1.67291 0
M  V30 723 H 67.2305 -4.11685 -0.590586 0
M  V30 724 H 65.8075 -3.08087 -2.10088 0
M  V30 725 N 67.9926 0.231505 -1.5589 0
M  V30 726 C 69.2176 0.978689 -1.82856 0
M  V30 727 C 69.6426 1.77559 -0.620846 0
M  V30 728 O 69.0006 1.76119 0.430305 0
M  V30 729 C 69.0486 1.87997 -3.07716 0
M  V30 730 O 68.1526 2.97393 -2.85712 0
M  V30 731 H 67.4936 0.277663 -0.603158 0
M  V30 732 H 70.0236 0.24783 -2.03093 0
M  V30 733 H 70.0336 2.2917 -3.37558 0
M  V30 734 H 68.7086 1.29417 -3.95252 0
M  V30 735 H 67.2856 2.60238 -2.67078 0
M  V30 736 N 69.4707 1.49531 0.497807 0
M  V30 737 C 70.7477 1.49682 1.25915 0
M  V30 738 C 71.1277 0.226339 2.09883 0
M  V30 739 O 70.4757 -0.791189 2.14365 0
M  V30 740 C 70.6857 2.77755 2.11313 0
M  V30 741 C 72.0337 3.27371 2.70395 0
M  V30 742 O 73.0577 2.78894 2.21578 0
M  V30 743 O 71.9167 4.11808 3.59272 0
M  V30 744 H 69.0107 0.599228 0.56996 0
M  V30 745 H 71.5567 1.61798 0.511816 0
M  V30 746 H 70.3287 3.61713 1.49264 0
M  V30 747 H 69.9517 2.68515 2.93233 0
M  V30 748 N 70.9488 -0.749086 1.3866 0
M  V30 749 C 72.1768 -1.53834 1.38358 0
M  V30 750 C 72.5918 -1.88783 -0.0255219 0
M  V30 751 O 71.9488 -1.53101 -0.993292 0
M  V30 752 C 71.9998 -2.83468 2.2434 0
M  V30 753 O 71.7208 -2.50008 3.5976 0
M  V30 754 C 73.2218 -3.7758 2.32267 0
M  V30 755 H 70.4418 -0.47585 0.473083 0
M  V30 756 H 72.9858 -0.926726 1.82297 0
M  V30 757 H 71.1408 -3.40995 1.83851 0
M  V30 758 H 71.5548 -3.33182 4.05081 0
M  V30 759 H 73.0288 -4.65478 2.96706 0
M  V30 760 H 73.5058 -4.18334 1.33765 0
M  V30 761 H 74.1118 -3.25976 2.73166 0
M  V30 762 N 72.4269 -1.23603 -0.977757 0
M  V30 763 C 73.6549 -1.09646 -1.75458 0
M  V30 764 C 74.0699 0.351859 -1.85492 0
M  V30 765 O 73.4269 1.24327 -1.336 0
M  V30 766 C 73.4779 -1.71895 -3.18016 0
M  V30 767 O 73.1989 -3.11063 -3.08498 0
M  V30 768 C 74.6999 -1.63415 -4.12081 0
M  V30 769 H 71.9199 -0.38359 -0.550545 0
M  V30 770 H 74.4639 -1.63507 -1.22824 0
M  V30 771 H 72.6189 -1.22061 -3.67668 0
M  V30 772 H 73.0329 -3.41305 -3.9826 0
M  V30 773 H 74.5069 -2.11669 -5.09804 0
M  V30 774 H 74.9839 -0.593462 -4.35172 0
M  V30 775 H 75.5899 -2.12628 -3.68334 0
M  V30 776 N 73.905 1.17692 -1.04816 0
M  V30 777 C 75.13 1.92327 -0.776207 0
M  V30 778 C 75.555 1.76082 0.661581 0
M  V30 779 O 74.913 1.076 1.45917 0
M  V30 780 C 74.961 3.41539 -1.15687 0
M  V30 781 O 74.065 4.11402 -0.286775 0
M  V30 782 H 73.406 0.599735 -0.284981 0
M  V30 783 H 75.936 1.49201 -1.4 0
M  V30 784 H 75.946 3.92269 -1.12202 0
M  V30 785 H 74.621 3.52684 -2.20425 0
M  V30 786 H 73.198 3.70939 -0.381903 0
M  V30 787 N 75.3831 0.828654 1.34056 0
M  V30 788 C 76.3311 0.242973 2.31327 0
M  V30 789 C 77.3251 -0.61944 1.57668 0
M  V30 790 O 78.5311 -0.51014 1.7262 0
M  V30 791 H 74.9061 0.059834 0.749616 0
M  V30 792 H 76.8771 1.07809 2.78244 0
M  V30 793 C 75.6261 -0.575733 3.429 0
M  V30 794 H 74.9491 0.0785582 3.99723 0
M  V30 795 H 76.3891 -0.951547 4.13185 0
M  V30 796 C 74.8481 -1.75044 2.87856 0
M  V30 797 O 75.3781 -2.84882 2.83205 0
M  V30 798 N 73.5841 -1.56903 2.44602 0
M  V30 799 H 73.1311 -0.675547 2.48584 0
M  V30 800 H 73.0891 -2.35652 2.08124 0
M  V30 801 N 76.8612 -1.46375 0.584142 0
M  V30 802 C 78.0862 -2.07268 0.0740405 0
M  V30 803 C 78.5112 -1.42979 -1.22223 0
M  V30 804 O 77.8692 -0.514092 -1.73859 0
M  V30 805 C 77.9172 -3.60518 -0.0767769 0
M  V30 806 O 77.0212 -3.96533 -1.13292 0
M  V30 807 H 76.3622 -0.660961 0.0634524 0
M  V30 808 H 78.8922 -1.87991 0.807492 0
M  V30 809 H 78.9022 -4.07021 -0.282489 0
M  V30 810 H 77.5772 -4.06702 0.86986 0
M  V30 811 H 76.1542 -3.61738 -0.905553 0
M  V30 812 N 78.3393 -0.321999 -1.54275 0
M  V30 813 C 79.5863 0.281044 -2.0054 0
M  V30 814 C 79.9143 1.52265 -1.21019 0
M  V30 815 O 79.1693 1.93687 -0.279982 0
M  V30 816 C 79.4683 0.661769 -3.5122 0
M  V30 817 C 79.1343 -0.480482 -4.48333 0
M  V30 818 C 77.7963 -0.794005 -4.74604 0
M  V30 819 C 80.1483 -1.24783 -5.06042 0
M  V30 820 C 77.4763 -1.87763 -5.55844 0
M  V30 821 C 79.8283 -2.32153 -5.88462 0
M  V30 822 C 78.4923 -2.64089 -6.13036 0
M  V30 823 H 77.7623 0.102841 -0.733829 0
M  V30 824 H 80.4093 -0.445453 -1.86247 0
M  V30 825 H 78.7143 1.46867 -3.63232 0
M  V30 826 H 80.4113 1.13989 -3.84457 0
M  V30 827 H 77.0013 -0.226039 -4.28004 0
M  V30 828 H 81.1853 -1.01887 -4.85729 0
M  V30 829 H 76.4413 -2.12954 -5.73115 0
M  V30 830 H 80.6153 -2.92057 -6.32199 0
M  V30 831 H 78.2423 -3.48185 -6.75775 0
M  V30 832 N 79.8174 1.5752 -0.0501392 0
M  V30 833 C 81.0634 1.92936 0.624798 0
M  V30 834 C 81.3964 0.928685 1.70555 0
M  V30 835 O 80.6714 -0.0454779 1.94447 0
M  V30 836 C 80.9544 3.38737 1.22185 0
M  V30 837 C 80.8074 4.49552 0.149218 0
M  V30 838 C 82.1264 3.84913 2.13378 0
M  V30 839 H 79.2454 0.701604 0.225657 0
M  V30 840 H 81.8874 1.89671 -0.111693 0
M  V30 841 H 80.0374 3.4165 1.84953 0
M  V30 842 H 81.7094 4.58768 -0.482648 0
M  V30 843 H 79.9524 4.30638 -0.522841 0
M  V30 844 H 80.6234 5.48653 0.606966 0
M  V30 845 H 83.0994 3.8387 1.60572 0
M  V30 846 H 81.9754 4.87584 2.52097 0
M  V30 847 H 82.2364 3.21611 3.03346 0
M  V30 848 N 81.2955 -0.223234 1.56011 0
M  V30 849 C 82.7115 -0.572856 1.48965 0
M  V30 850 C 82.9115 -1.87225 0.74492 0
M  V30 851 O 81.9675 -2.50899 0.283896 0
M  V30 852 C 83.2805 -0.653646 2.9351 0
M  V30 853 C 84.8285 -0.744386 3.0402 0
M  V30 854 C 85.3035 -0.856535 4.49919 0
M  V30 855 N 86.7945 -0.9208 4.53955 0
M  V30 856 C 87.5295 -1.02726 5.64123 0
M  V30 857 N 87.0255 -1.09777 6.84047 0
M  V30 858 N 88.8185 -1.06226 5.51971 0
M  V30 859 H 80.9695 0.629462 2.02858 0
M  V30 860 H 83.2325 0.220621 0.921971 0
M  V30 861 H 82.9385 0.231518 3.50937 0
M  V30 862 H 82.8125 -1.51781 3.45315 0
M  V30 863 H 85.1995 -1.61999 2.46658 0
M  V30 864 H 85.2805 0.14541 2.55386 0
M  V30 865 H 84.9245 0.0146069 5.07898 0
M  V30 866 H 84.8545 -1.76172 4.96257 0
M  V30 867 H 87.3455 -0.876694 3.6759 0
M  V30 868 H 87.6585 -1.17872 7.63758 0
M  V30 869 H 86.0035 -1.06693 6.86762 0
M  V30 870 H 89.1945 -1.00382 4.5721 0
M  V30 871 H 89.3675 -1.14177 6.37862 0
M  V30 872 N 82.7736 -1.49793 -0.48987 0
M  V30 873 C 83.7056 -1.63413 -1.60713 0
M  V30 874 C 84.7186 -0.516329 -1.54395 0
M  V30 875 O 85.9076 -0.788812 -1.60125 0
M  V30 876 C 83.0076 -1.58516 -2.99543 0
M  V30 877 C 82.1806 -2.86016 -3.30928 0
M  V30 878 C 81.2396 -2.74018 -4.49222 0
M  V30 879 O 80.2656 -3.47964 -4.50455 0
M  V30 880 N 81.4676 -1.86309 -5.4979 0
M  V30 881 H 84.2326 -2.59777 -1.49452 0
M  V30 882 H 81.7936 -1.47022 -0.677955 0
M  V30 883 H 83.7856 -1.48128 -3.76617 0
M  V30 884 H 82.3556 -0.69965 -3.0467 0
M  V30 885 H 81.5756 -3.10672 -2.42645 0
M  V30 886 H 82.8636 -3.70521 -3.487 0
M  V30 887 H 82.2616 -1.2551 -5.51601 0
M  V30 888 H 80.8186 -1.81837 -6.25922 0
M  V30 889 N 84.2517 0.741722 -1.39055 0
M  V30 890 C 85.4997 1.49818 -1.35643 0
M  V30 891 C 85.8207 1.94938 0.0491642 0
M  V30 892 O 85.0907 1.68505 0.999141 0
M  V30 893 H 83.6707 0.555755 -0.499144 0
M  V30 894 H 86.3327 0.880957 -1.73854 0
M  V30 895 H 85.4287 2.38348 -2.01486 0
M  V30 896 N 85.7298 1.2412 0.971189 0
M  V30 897 C 86.9548 1.10667 1.75407 0
M  V30 898 C 87.3798 -0.337048 1.85056 0
M  V30 899 O 86.7378 -1.24396 1.31892 0
M  V30 900 C 86.7858 1.74726 3.15441 0
M  V30 901 O 85.8898 1.01566 3.99697 0
M  V30 902 H 85.2308 0.387341 0.539317 0
M  V30 903 H 87.7608 1.64358 1.2185 0
M  V30 904 H 87.7708 1.80341 3.6598 0
M  V30 905 H 86.4458 2.79773 3.07734 0
M  V30 906 H 85.0228 1.03713 3.58187 0
M  V30 907 N 87.2079 -1.17134 1.05439 0
M  V30 908 C 88.1709 -2.19439 0.661764 0
M  V30 909 C 89.1709 -1.58199 -0.288042 0
M  V30 910 O 90.3609 -1.74053 -0.0715803 0
M  V30 911 C 87.4929 -3.40889 -0.0276209 0
M  V30 912 H 88.6859 -2.55688 1.56728 0
M  V30 913 H 86.2389 -1.31259 0.848567 0
M  V30 914 H 86.9739 -3.10187 -0.94629 0
M  V30 915 H 86.7589 -3.86586 0.655238 0
M  V30 916 H 88.2489 -4.16603 -0.288342 0
M  V30 917 N 88.686 -0.835752 -1.33615 0
M  V30 918 C 89.596 -0.269088 -2.33052 0
M  V30 919 C 90.612 0.603251 -1.63208 0
M  V30 920 O 91.788 0.508112 -1.94885 0
M  V30 921 C 88.853 0.549091 -3.42324 0
M  V30 922 C 87.914 -0.347156 -4.27894 0
M  V30 923 C 87.147 0.43207 -5.31948 0
M  V30 924 O 87.37 1.66409 -5.45586 0
M  V30 925 O 86.304 -0.192298 -6.01593 0
M  V30 926 H 90.13 -1.09243 -2.83372 0
M  V30 927 H 87.715 -0.598198 -1.36901 0
M  V30 928 H 89.597 1.01414 -4.09015 0
M  V30 929 H 88.272 1.34955 -2.94226 0
M  V30 930 H 87.179 -0.859979 -3.64081 0
M  V30 931 H 88.512 -1.1123 -4.79467 0
M  V30 932 N 90.1641 1.46063 -0.591896 0
M  V30 933 C 91.3891 2.07226 -0.0850314 0
M  V30 934 C 91.8141 1.43625 1.21463 0
M  V30 935 O 91.1721 0.523305 1.73583 0
M  V30 936 C 91.2201 3.60554 0.0576567 0
M  V30 937 O 90.3241 3.97128 1.11188 0
M  V30 938 H 89.6651 0.660615 -0.0669568 0
M  V30 939 H 92.1951 1.8756 -0.81745 0
M  V30 940 H 92.2051 4.07165 0.2609 0
M  V30 941 H 90.8801 4.06235 -0.891416 0
M  V30 942 H 89.4571 3.62213 0.886356 0
M  V30 943 N 91.6422 0.330177 1.54103 0
M  V30 944 C 92.8722 -0.271784 2.04805 0
M  V30 945 C 93.2802 -1.45816 1.20559 0
M  V30 946 O 92.6232 -1.82247 0.2306 0
M  V30 947 C 92.6852 -0.763238 3.51305 0
M  V30 948 C 92.3492 0.301705 4.56003 0
M  V30 949 C 93.3462 1.13999 5.07248 0
M  V30 950 C 91.0312 0.451793 5.00264 0
M  V30 951 C 93.0252 2.11402 6.01322 0
M  V30 952 C 90.7122 1.42924 5.94151 0
M  V30 953 C 91.7102 2.25882 6.44567 0
M  V30 954 O 91.3982 3.21965 7.3661 0
M  V30 955 H 91.1302 -0.058693 0.673447 0
M  V30 956 H 93.6842 0.476395 1.99799 0
M  V30 957 H 91.9142 -1.56244 3.5373 0
M  V30 958 H 93.6032 -1.28427 3.85047 0
M  V30 959 H 94.3692 1.03505 4.73827 0
M  V30 960 H 90.2482 -0.184044 4.60632 0
M  V30 961 H 93.7922 2.76192 6.40596 0
M  V30 962 H 89.6892 1.53479 6.26988 0
M  V30 963 H 90.4572 3.17281 7.54503 0
M  V30 964 N 93.1203 -1.57491 0.0584922 0
M  V30 965 C 94.3483 -1.97296 -0.623037 0
M  V30 966 C 94.7633 -0.936338 -1.63946 0
M  V30 967 O 94.1203 0.0785981 -1.82331 0
M  V30 968 C 94.1713 -3.37183 -1.30345 0
M  V30 969 O 93.8923 -4.36872 -0.32773 0
M  V30 970 C 95.3933 -3.91788 -2.07406 0
M  V30 971 H 92.6133 -0.649153 -0.169826 0
M  V30 972 H 95.1573 -2.04106 0.12696 0
M  V30 973 H 93.3123 -3.31502 -2.00463 0
M  V30 974 H 93.7263 -5.18141 -0.814269 0
M  V30 975 H 95.2003 -4.91926 -2.50425 0
M  V30 976 H 95.6773 -3.27609 -2.92521 0
M  V30 977 H 96.2833 -4.00829 -1.42184 0
M  V30 978 N 94.5984 0.214957 -1.56127 0
M  V30 979 C 95.8234 0.95924 -1.83884 0
M  V30 980 C 96.2484 1.7689 -0.639644 0
M  V30 981 O 95.6064 1.76566 0.411601 0
M  V30 982 C 95.6544 1.84723 -3.09693 0
M  V30 983 O 94.7584 2.94346 -2.8885 0
M  V30 984 H 94.0994 0.27125 -0.606069 0
M  V30 985 H 96.6294 0.226276 -2.03345 0
M  V30 986 H 96.6394 2.25576 -3.39969 0
M  V30 987 H 95.3144 1.25218 -3.96602 0
M  V30 988 H 93.8914 2.57391 -2.69823 0
M  V30 989 N 96.0765 1.50051 0.48192 0
M  V30 990 C 97.4925 1.37237 0.814756 0
M  V30 991 C 97.6925 0.420109 1.97072 0
M  V30 992 O 96.7485 -0.141246 2.52105 0
M  V30 993 C 98.0615 2.78375 1.13701 0
M  V30 994 C 99.6095 2.87213 1.2441 0
M  V30 995 C 100.084 4.29161 1.59954 0
M  V30 996 N 101.575 4.32061 1.66967 0
M  V30 997 C 102.31 5.38879 1.95952 0
M  V30 998 N 101.806 6.55918 2.23031 0
M  V30 999 N 103.599 5.26312 1.97363 0
M  V30 1000 H 95.7505 2.10546 -0.28005 0
M  V30 1001 H 98.0135 0.945921 -0.0627454 0
M  V30 1002 H 97.7195 3.49845 0.360787 0
M  V30 1003 H 97.5935 3.14941 2.07586 0
M  V30 1004 H 99.9805 2.15969 2.01101 0
M  V30 1005 H 100.061 2.54204 0.285299 0
M  V30 1006 H 99.7055 5.00938 0.838067 0
M  V30 1007 H 99.6355 4.59648 2.56966 0
M  V30 1008 H 102.126 3.47661 1.48123 0
M  V30 1009 H 102.439 7.33139 2.44391 0
M  V30 1010 H 100.784 6.59112 2.20447 0
M  V30 1011 H 103.975 4.33876 1.75697 0
M  V30 1012 H 104.148 6.09649 2.19618 0
M  V30 1013 N 97.5546 -0.734337 1.39446 0
M  V30 1014 C 98.9656 -1.31264 1.32766 0
M  V30 1015 C 99.3166 -1.96198 -0.00767497 0
M  V30 1016 O 98.4416 -1.96346 -0.909796 0
M  V30 1017 C 99.0366 -2.38682 2.4045 0
M  V30 1018 C 97.5956 -2.92184 2.37288 0
M  V30 1019 C 96.7426 -1.6576 2.22304 0
M  V30 1020 H 99.6936 -0.531799 1.49525 0
M  V30 1021 H 99.7146 -3.19087 2.07276 0
M  V30 1022 H 99.2266 -1.91392 3.37625 0
M  V30 1023 H 97.3276 -3.43752 1.43754 0
M  V30 1024 H 97.4406 -3.45253 3.3217 0
M  V30 1025 H 95.8046 -1.9012 1.69489 0
M  V30 1026 H 96.5876 -1.20521 3.21449 0
M  V30 1027 N 99.0327 -1.24633 -0.964593 0
M  V30 1028 C 100.258 -1.11596 -1.74818 0
M  V30 1029 C 100.683 0.32723 -1.85232 0
M  V30 1030 O 100.041 1.23695 -1.32549 0
M  V30 1031 C 100.089 -1.76397 -3.1451 0
M  V30 1032 O 99.1927 -1.03685 -3.99153 0
M  V30 1033 H 98.5337 -0.390196 -0.537255 0
M  V30 1034 H 101.064 -1.65002 -1.20977 0
M  V30 1035 H 101.074 -1.8228 -3.65018 0
M  V30 1036 H 99.7487 -2.81401 -3.06246 0
M  V30 1037 H 98.3257 -1.05611 -3.57632 0
M  V30 1038 N 100.511 1.16574 -1.06058 0
M  V30 1039 C 101.788 1.83048 -0.689416 0
M  V30 1040 C 102.168 1.94122 0.829443 0
M  V30 1041 O 101.516 1.48249 1.7388 0
M  V30 1042 C 101.726 3.20186 -1.38859 0
M  V30 1043 C 103.074 3.95989 -1.53226 0
M  V30 1044 O 104.098 3.29696 -1.3483 0
M  V30 1045 O 102.957 5.14813 -1.83384 0
M  V30 1046 H 100.051 0.790258 -0.243764 0
M  V30 1047 H 102.597 1.23797 -1.16071 0
M  V30 1048 H 101.369 3.07146 -2.4244 0
M  V30 1049 H 100.992 3.87112 -0.907216 0
M  V30 1050 N 101.989 0.842826 1.3317 0
M  V30 1051 C 103.214 0.453129 2.02389 0
M  V30 1052 C 103.639 -0.939105 1.6298 0
M  V30 1053 O 102.997 -1.61472 0.8244 0
M  V30 1054 C 103.045 0.586094 3.55805 0
M  V30 1055 O 102.149 -0.386029 4.10589 0
M  V30 1056 H 101.49 0.183664 0.638094 0
M  V30 1057 H 104.02 1.13875 1.69981 0
M  V30 1058 H 104.03 0.469209 4.05293 0
M  V30 1059 H 102.705 1.6014 3.83833 0
M  V30 1060 H 101.282 -0.226371 3.72212 0
M  V30 1061 N 103.467 -1.45747 0.599634 0
M  V30 1062 C 104.744 -1.95585 0.0240846 0
M  V30 1063 C 105.124 -1.54217 -1.44154 0
M  V30 1064 O 104.472 -0.800903 -2.14004 0
M  V30 1065 C 104.682 -3.48344 0.21385 0
M  V30 1066 C 106.03 -4.24504 0.0904902 0
M  V30 1067 O 107.054 -3.55911 0.143558 0
M  V30 1068 O 105.913 -5.46491 -0.0310766 0
M  V30 1069 H 103.007 -0.82602 -0.0402478 0
M  V30 1070 H 105.553 -1.55951 0.669139 0
M  V30 1071 H 104.325 -3.71397 1.23206 0
M  V30 1072 H 103.948 -3.9485 -0.466842 0
M  V30 1073 N 104.945 -0.338344 -1.53925 0
M  V30 1074 C 106.191 0.260143 -2.01125 0
M  V30 1075 C 106.524 1.50617 -1.22589 0
M  V30 1076 O 105.799 1.91979 -0.312113 0
M  V30 1077 C 106.082 0.579499 -3.55407 0
M  V30 1078 C 105.935 -0.678264 -4.44657 0
M  V30 1079 C 107.254 1.39122 -4.17532 0
M  V30 1080 H 104.373 0.0930772 -0.731099 0
M  V30 1081 H 107.015 -0.457852 -1.84401 0
M  V30 1082 H 105.165 1.19118 -3.69788 0
M  V30 1083 H 106.837 -1.31631 -4.42121 0
M  V30 1084 H 105.08 -1.3042 -4.13731 0
M  V30 1085 H 105.751 -0.410143 -5.50474 0
M  V30 1086 H 108.227 0.874035 -4.06817 0
M  V30 1087 H 107.103 1.58342 -5.25565 0
M  V30 1088 H 107.364 2.39178 -3.71815 0
M  V30 1089 N 106.423 1.57458 -0.0668435 0
M  V30 1090 C 107.648 1.9804 0.616027 0
M  V30 1091 C 108.073 0.944771 1.62652 0
M  V30 1092 O 107.431 -0.0902094 1.81075 0
M  V30 1093 C 107.479 3.37665 1.26549 0
M  V30 1094 O 106.583 3.36701 2.38131 0
M  V30 1095 H 105.924 0.644719 0.158849 0
M  V30 1096 H 108.454 2.04121 -0.139891 0
M  V30 1097 H 108.464 3.7474 1.6135 0
M  V30 1098 H 107.139 4.12573 0.525016 0
M  V30 1099 H 105.716 3.1139 2.0516 0
M  V30 1100 N 107.901 -0.206675 1.56239 0
M  V30 1101 C 108.831 -1.25909 1.96645 0
M  V30 1102 C 109.812 -1.48097 0.836734 0
M  V30 1103 O 110.997 -1.6003 1.10019 0
M  V30 1104 C 108.127 -2.6058 2.29599 0
M  V30 1105 C 107.081 -2.53024 3.452 0
M  V30 1106 C 106.407 -3.91861 3.63798 0
M  V30 1107 C 107.707 -2.06524 4.79734 0
M  V30 1108 H 109.401 -0.923369 2.84806 0
M  V30 1109 H 106.947 -0.442735 1.37025 0
M  V30 1110 H 108.9 -3.34375 2.56459 0
M  V30 1111 H 107.624 -2.95869 1.38307 0
M  V30 1112 H 106.283 -1.81684 3.18412 0
M  V30 1113 H 105.931 -4.24483 2.69857 0
M  V30 1114 H 105.631 -3.87683 4.4156 0
M  V30 1115 H 107.155 -4.67296 3.93022 0
M  V30 1116 H 108.569 -2.70072 5.05702 0
M  V30 1117 H 106.966 -2.13374 5.60885 0
M  V30 1118 H 108.036 -1.01802 4.74093 0
M  V30 1119 N 109.379 -1.50304 -0.473955 0
M  V30 1120 C 110.289 -1.7174 -1.5982 0
M  V30 1121 C 111.305 -0.600457 -1.63311 0
M  V30 1122 O 112.481 -0.878441 -1.81233 0
M  V30 1123 C 109.546 -1.80427 -2.96052 0
M  V30 1124 C 108.607 -3.04148 -3.02972 0
M  V30 1125 C 107.84 -3.12411 -4.32706 0
M  V30 1126 O 108.063 -2.27542 -5.23049 0
M  V30 1127 O 106.997 -4.05113 -4.45159 0
M  V30 1128 H 110.823 -2.67035 -1.44657 0
M  V30 1129 H 108.408 -1.34366 -0.653148 0
M  V30 1130 H 110.29 -1.88338 -3.7697 0
M  V30 1131 H 108.965 -0.883156 -3.11419 0
M  V30 1132 H 107.872 -3.0174 -2.21142 0
M  V30 1133 H 109.205 -3.95829 -2.92541 0
M  V30 1134 N 110.857 0.726932 -1.39834 0
M  V30 1135 C 111.767 1.87131 -1.41489 0
M  V30 1136 C 112.783 1.71239 -0.308757 0
M  V30 1137 O 113.959 1.93701 -0.551529 0
M  V30 1138 C 111.024 3.22811 -1.26468 0
M  V30 1139 C 110.085 3.51039 -2.47124 0
M  V30 1140 C 109.318 4.80245 -2.3281 0
M  V30 1141 O 109.541 5.54537 -1.33585 0
M  V30 1142 O 108.475 5.08554 -3.21957 0
M  V30 1143 H 112.301 1.8869 -2.3797 0
M  V30 1144 H 109.886 0.875837 -1.21035 0
M  V30 1145 H 111.768 4.03877 -1.20255 0
M  V30 1146 H 110.443 3.22005 -0.330862 0
M  V30 1147 H 109.35 2.70027 -2.58914 0
M  V30 1148 H 110.683 3.56632 -3.39227 0
M  V30 1149 N 112.336 1.25143 0.95797 0
M  V30 1150 C 113.613 1.00472 1.67823 0
M  V30 1151 C 113.993 -0.470056 2.058 0
M  V30 1152 O 113.341 -1.44663 1.76875 0
M  V30 1153 C 113.551 1.9372 2.90299 0
M  V30 1154 C 114.899 2.21371 3.62326 0
M  V30 1155 O 115.923 1.91451 3.00375 0
M  V30 1156 O 114.782 2.72231 4.7387 0
M  V30 1157 H 111.876 0.380752 0.734137 0
M  V30 1158 H 114.422 1.36283 1.01119 0
M  V30 1159 H 113.194 2.93316 2.59001 0
M  V30 1160 H 112.817 1.58286 3.64735 0
M  V30 1161 N 113.814 -1.1601 1.06675 0
M  V30 1162 C 115.23 -1.38622 0.790948 0
M  V30 1163 C 115.43 -1.92109 -0.607965 0
M  V30 1164 O 114.486 -2.12239 -1.36787 0
M  V30 1165 C 115.799 -2.36347 1.85905 0
M  V30 1166 C 117.347 -2.50023 1.88301 0
M  V30 1167 C 117.822 -3.51033 2.94176 0
M  V30 1168 N 119.313 -3.58563 2.93235 0
M  V30 1169 C 120.048 -4.36521 3.71803 0
M  V30 1170 N 119.544 -5.17869 4.602 0
M  V30 1171 N 121.337 -4.31541 3.60178 0
M  V30 1172 H 113.488 -0.796294 1.96908 0
M  V30 1173 H 115.751 -0.412597 0.853503 0
M  V30 1174 H 115.457 -2.04147 2.86386 0
M  V30 1175 H 115.331 -3.36042 1.71334 0
M  V30 1176 H 117.718 -2.81524 0.884769 0
M  V30 1177 H 117.799 -1.5035 2.06951 0
M  V30 1178 H 117.443 -3.20268 3.94196 0
M  V30 1179 H 117.373 -4.50445 2.72776 0
M  V30 1180 H 119.864 -3.00496 2.29152 0
M  V30 1181 H 120.177 -5.74578 5.16797 0
M  V30 1182 H 118.522 -5.17199 4.64253 0
M  V30 1183 H 121.713 -3.67051 2.90502 0
M  V30 1184 H 121.886 -4.9205 4.21653 0
M  V30 1185 N 115.292 -0.849877 -1.32721 0
M  V30 1186 C 116.202 -0.293791 -2.32753 0
M  V30 1187 C 117.218 0.585906 -1.63839 0
M  V30 1188 O 118.394 0.487413 -1.95413 0
M  V30 1189 C 115.459 0.512752 -3.42887 0
M  V30 1190 C 114.52 -0.39252 -4.27502 0
M  V30 1191 C 113.753 0.375625 -5.32377 0
M  V30 1192 O 113.976 1.60613 -5.4732 0
M  V30 1193 O 112.91 -0.256094 -6.01355 0
M  V30 1194 H 116.736 -1.12242 -2.82197 0
M  V30 1195 H 114.321 -0.612685 -1.36259 0
M  V30 1196 H 116.203 0.970704 -4.10067 0
M  V30 1197 H 114.878 1.31826 -2.95641 0
M  V30 1198 H 113.785 -0.898547 -3.63149 0
M  V30 1199 H 115.118 -1.16309 -4.7826 0
M  V30 1200 N 116.77 1.45427 -0.607355 0
M  V30 1201 C 117.733 2.28974 0.101693 0
M  V30 1202 C 118.733 1.39754 0.795329 0
M  V30 1203 O 119.923 1.61878 0.643527 0
M  V30 1204 C 117.055 3.20768 1.15414 0
M  V30 1205 H 118.248 2.93147 -0.632844 0
M  V30 1206 H 115.801 1.51945 -0.366391 0
M  V30 1207 H 116.536 2.61395 1.91945 0
M  V30 1208 H 116.321 3.86489 0.66098 0
M  V30 1209 H 117.811 3.83589 1.65073 0
M  V30 1210 N 118.248 0.346503 1.53744 0
M  V30 1211 C 119.178 -0.501193 2.28058 0
M  V30 1212 C 120.159 -1.10014 1.29734 0
M  V30 1213 O 121.344 -1.12097 1.58581 0
M  V30 1214 C 118.474 -1.65078 3.05559 0
M  V30 1215 C 117.428 -1.18003 4.11411 0
M  V30 1216 C 116.754 -2.41837 4.76884 0
M  V30 1217 C 118.054 -0.278394 5.21558 0
M  V30 1218 H 119.748 0.11875 2.99164 0
M  V30 1219 H 117.294 0.0585531 1.43881 0
M  V30 1220 H 119.247 -2.25028 3.56287 0
M  V30 1221 H 117.971 -2.29767 2.32109 0
M  V30 1222 H 116.63 -0.603331 3.61601 0
M  V30 1223 H 116.278 -3.0494 4.00026 0
M  V30 1224 H 115.978 -2.1102 5.48402 0
M  V30 1225 H 117.502 -3.02508 5.30397 0
M  V30 1226 H 118.916 -0.784823 5.67903 0
M  V30 1227 H 117.313 -0.0619707 6.00068 0
M  V30 1228 H 118.383 0.684677 4.80042 0
M  V30 1229 N 119.726 -1.57421 0.075193 0
M  V30 1230 C 121.142 -1.57099 -0.281444 0
M  V30 1231 C 121.342 -1.08486 -1.69803 0
M  V30 1232 O 120.398 -0.752279 -2.41033 0
M  V30 1233 C 121.711 -3.00571 -0.0880041 0
M  V30 1234 C 123.259 -3.12605 -0.157281 0
M  V30 1235 C 123.734 -4.57999 0.0079207 0
M  V30 1236 N 125.225 -4.63176 -0.0475725 0
M  V30 1237 C 125.96 -5.73373 0.0557876 0
M  V30 1238 N 125.456 -6.92473 0.21286 0
M  V30 1239 N 127.249 -5.621 -0.00152098 0
M  V30 1240 H 119.4 -1.87335 1.00098 0
M  V30 1241 H 121.663 -0.86377 0.390646 0
M  V30 1242 H 121.369 -3.40262 0.889629 0
M  V30 1243 H 121.243 -3.67754 -0.838875 0
M  V30 1244 H 123.63 -2.72798 -1.1254 0
M  V30 1245 H 123.711 -2.48053 0.62475 0
M  V30 1246 H 123.355 -4.98496 0.972824 0
M  V30 1247 H 123.285 -5.20586 -0.793556 0
M  V30 1248 H 125.776 -3.7753 -0.167244 0
M  V30 1249 H 126.089 -7.72279 0.283781 0
M  V30 1250 H 124.434 -6.94556 0.248267 0
M  V30 1251 H 127.625 -4.67938 -0.122958 0
M  V30 1252 H 127.798 -6.47948 0.0824844 0
M  V30 1253 N 121.204 0.198386 -1.56346 0
M  V30 1254 C 122.151 1.24589 -1.94284 0
M  V30 1255 C 123.121 1.454 -0.802997 0
M  V30 1256 O 124.306 1.58588 -1.06087 0
M  V30 1257 C 121.446 2.58631 -2.28482 0
M  V30 1258 C 120.559 2.45426 -3.55514 0
M  V30 1259 C 119.694 3.7215 -3.79049 0
M  V30 1260 C 118.733 3.53763 -4.99518 0
M  V30 1261 N 117.87 4.72491 -5.19323 0
M  V30 1262 H 122.71 0.915356 -2.83593 0
M  V30 1263 H 120.247 0.440629 -1.40346 0
M  V30 1264 H 122.205 3.3672 -2.46324 0
M  V30 1265 H 120.835 2.89734 -1.42317 0
M  V30 1266 H 119.887 1.58652 -3.45737 0
M  V30 1267 H 121.199 2.27772 -4.43758 0
M  V30 1268 H 120.353 4.58679 -3.97113 0
M  V30 1269 H 119.092 3.92754 -2.89129 0
M  V30 1270 H 118.097 2.65619 -4.8138 0
M  V30 1271 H 119.322 3.34607 -5.90944 0
M  V30 1272 H 117.268 4.93365 -4.3235 0
M  V30 1273 H 117.185 4.5765 -6.01741 0
M  V30 1274 H 118.453 5.6038 -5.41843 0
M  V30 1275 N 122.682 1.50554 0.465978 0
M  V30 1276 C 123.592 1.72585 1.58907 0
M  V30 1277 C 124.608 0.60911 1.6299 0
M  V30 1278 O 125.784 0.88804 1.80765 0
M  V30 1279 C 122.849 1.81995 2.95091 0
M  V30 1280 C 121.91 3.05751 3.01355 0
M  V30 1281 C 121.143 3.14702 4.31043 0
M  V30 1282 O 121.366 2.30313 5.21835 0
M  V30 1283 O 120.3 4.07468 4.43005 0
M  V30 1284 H 124.126 2.67799 1.43239 0
M  V30 1285 H 121.711 1.34711 0.646013 0
M  V30 1286 H 123.593 1.90335 3.75966 0
M  V30 1287 H 122.268 0.899659 3.10947 0
M  V30 1288 H 121.175 3.02908 2.19539 0
M  V30 1289 H 122.508 3.97375 2.90437 0
M  V30 1290 N 124.16 -0.719506 1.40217 0
M  V30 1291 C 125.123 -1.8153 1.39927 0
M  V30 1292 C 126.123 -1.58095 0.293723 0
M  V30 1293 O 127.313 -1.65209 0.552429 0
M  V30 1294 C 124.445 -3.19561 1.18716 0
M  V30 1295 H 125.638 -1.83186 2.37451 0
M  V30 1296 H 123.191 -0.924746 1.26008 0
M  V30 1297 H 123.926 -3.23557 0.219366 0
M  V30 1298 H 123.711 -3.3797 1.98793 0
M  V30 1299 H 125.201 -3.99598 1.21291 0
M  V30 1300 N 125.638 -1.25649 -0.95132 0
M  V30 1301 C 126.548 -1.08073 -2.08224 0
M  V30 1302 C 127.564 -0.0169666 -1.73992 0
M  V30 1303 O 128.74 -0.218593 -2.0021 0
M  V30 1304 C 125.805 -0.704922 -3.39458 0
M  V30 1305 C 124.866 -1.84699 -3.87537 0
M  V30 1306 C 124.099 -1.48902 -5.12508 0
M  V30 1307 O 124.322 -0.386156 -5.69091 0
M  V30 1308 O 123.256 -2.32033 -5.55378 0
M  V30 1309 H 127.082 -2.02924 -2.25954 0
M  V30 1310 H 124.667 -1.04618 -1.06656 0
M  V30 1311 H 126.549 -0.507609 -4.18332 0
M  V30 1312 H 125.224 0.214291 -3.2299 0
M  V30 1313 H 124.131 -2.09919 -3.09653 0
M  V30 1314 H 125.464 -2.74557 -4.08509 0
M  V30 1315 N 127.117 1.15442 -1.07289 0
M  V30 1316 C 128.533 1.38201 -0.798288 0
M  V30 1317 C 128.733 1.92429 0.597769 0
M  V30 1318 O 127.789 2.12962 1.3566 0
M  V30 1319 C 129.102 2.35357 -1.87156 0
M  V30 1320 C 130.65 2.49021 -1.89624 0
M  V30 1321 C 131.125 3.49468 -2.96034 0
M  V30 1322 N 132.616 3.57003 -2.95132 0
M  V30 1323 C 133.351 4.34543 -3.74112 0
M  V30 1324 N 132.847 5.15421 -4.6294 0
M  V30 1325 N 134.64 4.29625 -3.62462 0
M  V30 1326 H 126.791 0.78584 -1.97328 0
M  V30 1327 H 129.054 0.408065 -0.855679 0
M  V30 1328 H 128.76 2.02626 -2.87464 0
M  V30 1329 H 128.634 3.35129 -1.73114 0
M  V30 1330 H 131.021 2.81051 -0.899687 0
M  V30 1331 H 131.102 1.4925 -2.07745 0
M  V30 1332 H 130.746 3.18173 -3.95889 0
M  V30 1333 H 130.676 4.48992 -2.75161 0
M  V30 1334 H 133.167 2.99276 -2.30743 0
M  V30 1335 H 133.48 5.7183 -5.19837 0
M  V30 1336 H 131.825 5.14729 -4.66989 0
M  V30 1337 H 135.016 3.65505 -2.92444 0
M  V30 1338 H 135.189 4.89807 -4.24256 0
M  V30 1339 N 128.595 0.856903 1.32268 0
M  V30 1340 C 129.527 0.260412 2.27716 0
M  V30 1341 C 130.54 -0.569137 1.52528 0
M  V30 1342 O 131.729 -0.39326 1.74114 0
M  V30 1343 C 128.829 -0.650477 3.32599 0
M  V30 1344 C 128.002 0.14372 4.37164 0
M  V30 1345 C 127.061 -0.69328 5.21613 0
M  V30 1346 O 126.087 -0.12599 5.69061 0
M  V30 1347 N 127.289 -2.00761 5.44679 0
M  V30 1348 H 130.054 1.08059 2.79541 0
M  V30 1349 H 127.615 0.717103 1.45152 0
M  V30 1350 H 129.607 -1.21581 3.86005 0
M  V30 1351 H 128.177 -1.37133 2.80915 0
M  V30 1352 H 127.397 0.890486 3.8401 0
M  V30 1353 H 128.685 0.68915 5.04111 0
M  V30 1354 H 128.083 -2.49181 5.07863 0
M  V30 1355 H 126.64 -2.52103 6.01072 0
M  V30 1356 N 130.073 -1.45103 0.615059 0
M  V30 1357 C 131.036 -2.29025 -0.0895485 0
M  V30 1358 C 132.036 -1.40174 -0.787906 0
M  V30 1359 O 133.226 -1.62217 -0.634933 0
M  V30 1360 C 130.358 -3.21376 -1.13711 0
M  V30 1361 H 131.551 -2.92807 0.648382 0
M  V30 1362 H 129.104 -1.51749 0.374444 0
M  V30 1363 H 129.839 -2.6241 -1.90556 0
M  V30 1364 H 129.624 -3.86834 -0.640475 0
M  V30 1365 H 131.114 -3.84459 -1.63036 0
M  V30 1366 N 131.551 -0.354651 -1.53558 0
M  V30 1367 C 132.481 0.489091 -2.2832 0
M  V30 1368 C 133.462 1.09324 -1.30316 0
M  V30 1369 O 134.647 1.11255 -1.59173 0
M  V30 1370 C 131.777 1.63456 -3.0643 0
M  V30 1371 C 130.731 1.1582 -4.12031 0
M  V30 1372 C 130.057 2.39305 -4.7816 0
M  V30 1373 C 131.357 0.250731 -5.21698 0
M  V30 1374 H 133.051 -0.134614 -2.99097 0
M  V30 1375 H 130.597 -0.0661826 -1.43848 0
M  V30 1376 H 132.55 2.23136 -3.57475 0
M  V30 1377 H 131.274 2.28533 -2.33325 0
M  V30 1378 H 129.933 0.584146 -3.61916 0
M  V30 1379 H 129.581 3.02814 -4.01637 0
M  V30 1380 H 129.281 2.08109 -5.49513 0
M  V30 1381 H 130.805 2.99691 -5.31994 0
M  V30 1382 H 132.219 0.754695 -5.68311 0
M  V30 1383 H 130.616 0.0301468 -6.00092 0
M  V30 1384 H 131.686 -0.710125 -4.79672 0
M  V30 1385 N 133.029 1.57378 -0.0835403 0
M  V30 1386 C 133.992 2.12252 0.864959 0
M  V30 1387 C 134.992 1.04916 1.21858 0
M  V30 1388 O 136.182 1.30853 1.14991 0
M  V30 1389 C 133.314 2.63358 2.16461 0
M  V30 1390 H 134.507 2.97371 0.388676 0
M  V30 1391 H 132.06 1.55423 0.165317 0
M  V30 1392 H 132.795 1.81727 2.686 0
M  V30 1393 H 132.58 3.41826 1.92087 0
M  V30 1394 H 134.07 3.05847 2.84337 0
M  V30 1395 N 134.507 -0.190092 1.56449 0
M  V30 1396 C 135.439 -1.25973 1.91477 0
M  V30 1397 C 136.452 -1.41452 0.805931 0
M  V30 1398 O 137.641 -1.41789 1.08435 0
M  V30 1399 C 134.741 -2.63117 2.13594 0
M  V30 1400 C 133.914 -2.69182 3.4476 0
M  V30 1401 C 132.973 -3.87557 3.5593 0
M  V30 1402 O 131.999 -3.74427 4.28711 0
M  V30 1403 N 133.201 -5.03224 2.89388 0
M  V30 1404 H 135.966 -0.962394 2.83828 0
M  V30 1405 H 133.527 -0.379981 1.57378 0
M  V30 1406 H 135.519 -3.40742 2.1835 0
M  V30 1407 H 134.089 -2.85319 1.27719 0
M  V30 1408 H 133.309 -1.77793 3.51828 0
M  V30 1409 H 134.597 -2.70229 4.31107 0
M  V30 1410 H 133.995 -5.16791 2.30094 0
M  V30 1411 H 132.552 -5.78778 2.99764 0
M  V30 1412 N 135.985 -1.50799 -0.457987 0
M  V30 1413 C 136.915 -1.73553 -1.5621 0
M  V30 1414 C 137.896 -0.584774 -1.59732 0
M  V30 1415 O 139.081 -0.825314 -1.7579 0
M  V30 1416 C 136.211 -1.84169 -2.94447 0
M  V30 1417 C 135.165 -2.99461 -3.0579 0
M  V30 1418 C 134.491 -2.95235 -4.45803 0
M  V30 1419 C 135.791 -4.39766 -2.81786 0
M  V30 1420 H 137.485 -2.66 -1.37421 0
M  V30 1421 H 135.031 -1.28002 -0.659662 0
M  V30 1422 H 136.984 -1.98672 -3.71628 0
M  V30 1423 H 135.708 -0.883545 -3.14422 0
M  V30 1424 H 134.367 -2.8463 -2.31044 0
M  V30 1425 H 134.015 -1.97239 -4.62715 0
M  V30 1426 H 133.715 -3.72642 -4.54326 0
M  V30 1427 H 135.239 -3.11803 -5.24987 0
M  V30 1428 H 136.653 -4.55054 -3.4871 0
M  V30 1429 H 135.05 -5.18722 -3.0174 0
M  V30 1430 H 136.12 -4.51229 -1.7754 0
M  V30 1431 N 137.463 0.71206 -1.40597 0
M  V30 1432 C 138.373 1.8562 -1.43466 0
M  V30 1433 C 139.389 1.70902 -0.326902 0
M  V30 1434 O 140.565 1.93105 -0.572043 0
M  V30 1435 C 137.63 3.21451 -1.29884 0
M  V30 1436 C 136.691 3.48398 -2.50833 0
M  V30 1437 C 135.924 4.77749 -2.3789 0
M  V30 1438 O 136.147 5.53089 -1.39459 0
M  V30 1439 O 135.081 5.05111 -3.27333 0
M  V30 1440 H 138.907 1.86155 -2.39958 0
M  V30 1441 H 136.492 0.86295 -1.21957 0
M  V30 1442 H 138.374 4.02579 -1.24531 0
M  V30 1443 H 137.049 3.21636 -0.364997 0
M  V30 1444 H 135.956 2.67265 -2.61763 0
M  V30 1445 H 137.289 3.53014 -3.4299 0
M  V30 1446 N 138.941 1.26152 0.944643 0
M  V30 1447 C 139.888 1.07408 2.04285 0
M  V30 1448 C 140.858 -0.0198413 1.66088 0
M  V30 1449 O 142.043 0.139264 1.90291 0
M  V30 1450 C 139.183 0.70945 3.37729 0
M  V30 1451 C 138.296 1.87926 3.88983 0
M  V30 1452 C 137.431 1.45807 5.10797 0
M  V30 1453 C 136.47 2.5964 5.54305 0
M  V30 1454 N 135.607 2.18226 6.67324 0
M  V30 1455 H 140.447 2.01389 2.1965 0
M  V30 1456 H 137.984 1.00275 1.07626 0
M  V30 1457 H 139.942 0.478948 4.14442 0
M  V30 1458 H 138.572 -0.193389 3.2222 0
M  V30 1459 H 137.624 2.22279 3.08701 0
M  V30 1460 H 138.936 2.73377 4.17213 0
M  V30 1461 H 138.09 1.18781 5.94959 0
M  V30 1462 H 136.829 0.574414 4.84305 0
M  V30 1463 H 135.834 2.87399 4.68702 0
M  V30 1464 H 137.059 3.48599 5.828 0
M  V30 1465 H 135.005 1.3229 6.42523 0
M  V30 1466 H 134.922 2.97221 6.95123 0
M  V30 1467 H 136.19 1.94403 7.54869 0
M  V30 1468 N 140.419 -1.14872 1.07899 0
M  V30 1469 C 141.382 -2.17986 0.708161 0
M  V30 1470 C 142.382 -1.58775 -0.25442 0
M  V30 1471 O 143.572 -1.74166 -0.034645 0
M  V30 1472 C 140.704 -3.40871 0.0446929 0
M  V30 1473 H 141.897 -2.52306 1.62116 0
M  V30 1474 H 139.45 -1.2943 0.876218 0
M  V30 1475 H 140.185 -3.12124 -0.880281 0
M  V30 1476 H 139.97 -3.8511 0.737091 0
M  V30 1477 H 141.46 -4.17121 -0.19991 0
M  V30 1478 N 141.898 -0.863906 -1.31812 0
M  V30 1479 C 142.845 -0.313303 -2.28664 0
M  V30 1480 C 143.815 0.584868 -1.55462 0
M  V30 1481 O 145 0.517805 -1.83639 0
M  V30 1482 C 142.14 0.48441 -3.41683 0
M  V30 1483 C 141.253 -0.440594 -4.29747 0
M  V30 1484 C 140.388 0.370652 -5.29905 0
M  V30 1485 C 139.427 -0.551164 -6.09613 0
M  V30 1486 N 138.564 0.223462 -7.01744 0
M  V30 1487 H 143.404 -1.14444 -2.75148 0
M  V30 1488 H 140.941 -0.575769 -1.35364 0
M  V30 1489 H 142.899 0.962627 -4.05943 0
M  V30 1490 H 141.529 1.28029 -2.96325 0
M  V30 1491 H 140.581 -1.03724 -3.65986 0
M  V30 1492 H 141.893 -1.14767 -4.85417 0
M  V30 1493 H 141.047 0.911638 -5.99812 0
M  V30 1494 H 139.786 1.11105 -4.74876 0
M  V30 1495 H 138.791 -1.10396 -5.38603 0
M  V30 1496 H 140.016 -1.29032 -6.66729 0
M  V30 1497 H 137.962 0.946787 -6.49132 0
M  V30 1498 H 137.879 -0.424399 -7.54808 0
M  V30 1499 H 139.147 0.745876 -7.75923 0
M  V30 1500 N 143.376 1.44774 -0.622745 0
M  V30 1501 C 144.604 2.06487 -0.130722 0
M  V30 1502 C 145.019 1.46476 1.19123 0
M  V30 1503 O 144.376 0.584502 1.72887 0
M  V30 1504 C 144.427 3.615 -0.000807207 0
M  V30 1505 O 144.148 4.19274 -1.27048 0
M  V30 1506 C 145.649 4.40229 0.520898 0
M  V30 1507 H 142.869 0.666704 -0.0758106 0
M  V30 1508 H 145.413 1.85779 -0.854774 0
M  V30 1509 H 143.568 3.81498 0.673643 0
M  V30 1510 H 143.982 5.12622 -1.1099 0
M  V30 1511 H 145.456 5.49144 0.560838 0
M  V30 1512 H 145.933 4.1108 1.54627 0
M  V30 1513 H 146.539 4.25131 -0.120018 0
M  V30 1514 N 144.854 0.36279 1.53368 0
M  V30 1515 C 145.801 -0.485008 2.25646 0
M  V30 1516 C 146.771 -1.07982 1.2621 0
M  V30 1517 O 147.956 -1.11284 1.54986 0
M  V30 1518 C 145.096 -1.62023 3.04701 0
M  V30 1519 C 144.209 -1.05086 4.19024 0
M  V30 1520 C 143.344 -2.15496 4.85525 0
M  V30 1521 C 142.383 -1.5601 5.91884 0
M  V30 1522 N 141.52 -2.60241 6.52088 0
M  V30 1523 H 146.36 0.137864 2.97681 0
M  V30 1524 H 143.897 0.0798061 1.46883 0
M  V30 1525 H 145.855 -2.28887 3.48807 0
M  V30 1526 H 144.485 -2.2138 2.34927 0
M  V30 1527 H 143.537 -0.27259 3.79422 0
M  V30 1528 H 144.849 -0.575926 4.95464 0
M  V30 1529 H 144.003 -2.90186 5.32801 0
M  V30 1530 H 142.742 -2.66341 4.08551 0
M  V30 1531 H 141.747 -0.798338 5.43973 0
M  V30 1532 H 142.972 -1.05994 6.70777 0
M  V30 1533 H 140.918 -3.10304 5.77968 0
M  V30 1534 H 140.835 -2.17426 7.24059 0
M  V30 1535 H 142.103 -3.34641 7.04014 0
M  V30 1536 N 146.332 -1.57332 0.0918853 0
M  V30 1537 C 147.743 -1.81496 -0.437739 0
M  V30 1538 C 148.094 -1.00727 -1.6837 0
M  V30 1539 O 147.219 -0.235694 -2.15113 0
M  V30 1540 C 147.814 -3.29197 -0.800939 0
M  V30 1541 C 146.373 -3.54136 -1.27532 0
M  V30 1542 C 145.52 -2.75979 -0.270392 0
M  V30 1543 H 148.471 -1.55494 0.317366 0
M  V30 1544 H 148.492 -3.42344 -1.66074 0
M  V30 1545 H 148.004 -3.87955 0.106078 0
M  V30 1546 H 146.105 -3.00705 -2.20016 0
M  V30 1547 H 146.218 -4.62792 -1.23938 0
M  V30 1548 H 144.582 -2.43349 -0.751872 0
M  V30 1549 H 145.365 -3.37484 0.629248 0
M  V30 1550 N 147.81 0.181792 -1.56548 0
M  V30 1551 C 149.056 0.901431 -1.81665 0
M  V30 1552 C 149.389 1.82347 -0.668075 0
M  V30 1553 O 148.664 1.91669 0.330615 0
M  V30 1554 C 148.947 1.70618 -3.17115 0
M  V30 1555 C 148.8 0.807964 -4.42484 0
M  V30 1556 C 150.119 2.67605 -3.49393 0
M  V30 1557 H 147.238 0.32627 -0.660846 0
M  V30 1558 H 149.88 0.168134 -1.89255 0
M  V30 1559 H 148.03 2.33133 -3.10775 0
M  V30 1560 H 149.702 0.19649 -4.60881 0
M  V30 1561 H 147.945 0.115411 -4.33646 0
M  V30 1562 H 148.616 1.40632 -5.33785 0
M  V30 1563 H 151.092 2.15218 -3.56118 0
M  V30 1564 H 149.968 3.20985 -4.45264 0
M  V30 1565 H 150.229 3.47298 -2.73563 0
M  V30 1566 N 149.288 1.51039 0.449983 0
M  V30 1567 C 150.251 1.70863 1.5277 0
M  V30 1568 C 151.251 0.578846 1.5002 0
M  V30 1569 O 152.441 0.846213 1.52266 0
M  V30 1570 C 149.573 1.75341 2.9235 0
M  V30 1571 H 150.766 2.67034 1.36502 0
M  V30 1572 H 148.319 1.40838 0.677812 0
M  V30 1573 H 149.054 0.809383 3.14037 0
M  V30 1574 H 148.839 2.57436 2.95752 0
M  V30 1575 H 150.329 1.92559 3.70555 0
M  V30 1576 N 150.766 -0.704594 1.40972 0
M  V30 1577 C 152.013 -1.46458 1.39844 0
M  V30 1578 C 152.341 -1.94499 0.00447594 0
M  V30 1579 O 151.596 -1.69275 -0.982057 0
M  V30 1580 C 151.895 -2.698 2.34399 0
M  V30 1581 C 151.561 -2.40464 3.81429 0
M  V30 1582 C 150.223 -2.32174 4.21484 0
M  V30 1583 C 152.575 -2.16086 4.74296 0
M  V30 1584 C 149.903 -1.97589 5.52427 0
M  V30 1585 C 152.255 -1.83011 6.05549 0
M  V30 1586 C 150.919 -1.7321 6.44635 0
M  V30 1587 H 150.189 -0.535927 0.511725 0
M  V30 1588 H 152.836 -0.806124 1.73706 0
M  V30 1589 H 151.141 -3.40536 1.93759 0
M  V30 1590 H 152.838 -3.27919 2.30804 0
M  V30 1591 H 149.428 -2.47808 3.49699 0
M  V30 1592 H 153.612 -2.2144 4.4416 0
M  V30 1593 H 148.868 -1.88547 5.81601 0
M  V30 1594 H 153.042 -1.63164 6.77016 0
M  V30 1595 H 150.669 -1.46179 7.46013 0
M  V30 1596 N 152.244 -1.26651 -0.937939 0
M  V30 1597 C 153.207 -1.08546 -2.01867 0
M  V30 1598 C 154.207 -0.0327327 -1.60767 0
M  V30 1599 O 155.397 -0.276427 -1.71993 0
M  V30 1600 C 152.529 -0.651711 -3.34613 0
M  V30 1601 H 153.722 -2.04502 -2.1936 0
M  V30 1602 H 151.275 -1.09294 -1.11734 0
M  V30 1603 H 152.01 0.309696 -3.22818 0
M  V30 1604 H 151.795 -1.41189 -3.65798 0
M  V30 1605 H 153.285 -0.546973 -4.14002 0
M  V30 1606 N 153.722 1.14298 -1.08507 0
M  V30 1607 C 154.968 1.85633 -0.816581 0
M  V30 1608 C 155.301 1.82784 0.656021 0
M  V30 1609 O 154.576 1.25926 1.48233 0
M  V30 1610 C 154.859 3.34223 -1.34041 0
M  V30 1611 C 154.712 3.45639 -2.87843 0
M  V30 1612 C 156.031 4.29356 -0.9665 0
M  V30 1613 H 153.15 0.67402 -0.298104 0
M  V30 1614 H 155.792 1.34214 -1.34487 0
M  V30 1615 H 153.942 3.78144 -0.89104 0
M  V30 1616 H 155.614 3.10498 -3.41158 0
M  V30 1617 H 153.857 2.86817 -3.25451 0
M  V30 1618 H 154.528 4.50089 -3.19569 0
M  V30 1619 H 157.004 3.93457 -1.35391 0
M  V30 1620 H 155.88 5.3178 -1.3602 0
M  V30 1621 H 156.141 4.41919 0.126362 0
M  V30 1622 N 155.201 0.870884 1.31352 0
M  V30 1623 C 156.617 0.562932 1.49343 0
M  V30 1624 C 156.817 -0.902725 1.80148 0
M  V30 1625 O 155.873 -1.68484 1.88067 0
M  V30 1626 C 157.186 1.46393 2.62659 0
M  V30 1627 C 158.734 1.46607 2.76542 0
M  V30 1628 C 159.209 2.35266 3.92955 0
M  V30 1629 N 160.7 2.33151 4.00243 0
M  V30 1630 C 161.435 2.98471 4.89594 0
M  V30 1631 N 160.931 3.72964 5.8384 0
M  V30 1632 N 162.724 2.87775 4.82848 0
M  V30 1633 H 154.875 1.81923 1.09626 0
M  V30 1634 H 157.138 0.777934 0.541777 0
M  V30 1635 H 156.844 2.50689 2.46674 0
M  V30 1636 H 156.718 1.16314 3.58819 0
M  V30 1637 H 159.105 0.43069 2.9194 0
M  V30 1638 H 159.186 1.8071 1.81046 0
M  V30 1639 H 158.83 3.38881 3.78315 0
M  V30 1640 H 158.76 1.98487 4.87761 0
M  V30 1641 H 161.251 1.79006 3.32814 0
M  V30 1642 H 161.564 4.19932 6.4875 0
M  V30 1643 H 159.909 3.77073 5.83816 0
M  V30 1644 H 163.1 2.29116 4.08195 0
M  V30 1645 H 163.273 3.38961 5.52277 0
M  V30 1646 N 156.679 -1.44442 0.630414 0
M  V30 1647 C 157.907 -2.06414 0.141671 0
M  V30 1648 C 158.322 -1.47105 -1.18345 0
M  V30 1649 O 157.679 -0.593662 -1.72574 0
M  V30 1650 C 157.73 -3.61494 0.0199784 0
M  V30 1651 O 157.451 -4.18594 1.29269 0
M  V30 1652 C 158.952 -4.40499 -0.497544 0
M  V30 1653 H 156.172 -0.666292 0.0793452 0
M  V30 1654 H 158.716 -1.85323 0.864614 0
M  V30 1655 H 156.871 -3.8185 -0.653402 0
M  V30 1656 H 157.285 -5.12026 1.13707 0
M  V30 1657 H 158.759 -5.49433 -0.531708 0
M  V30 1658 H 159.236 -4.11895 -1.52445 0
M  V30 1659 H 159.842 -4.25061 0.142562 0
M  V30 1660 N 158.157 -0.370918 -1.53173 0
M  V30 1661 C 159.105 0.488101 -2.27421 0
M  V30 1662 C 160.099 1.07884 -1.30604 0
M  V30 1663 O 161.305 1.02143 -1.48212 0
M  V30 1664 H 157.68 0.176134 -0.731082 0
M  V30 1665 H 159.651 -0.159815 -2.97972 0
M  V30 1666 C 158.4 1.61306 -3.08019 0
M  V30 1667 H 157.723 1.1678 -3.82364 0
M  V30 1668 H 159.163 2.18872 -3.63141 0
M  V30 1669 C 157.622 2.55848 -2.19188 0
M  V30 1670 O 158.152 3.58799 -1.80626 0
M  V30 1671 N 156.358 2.2516 -1.83715 0
M  V30 1672 H 155.905 1.41476 -2.15273 0
M  V30 1673 H 155.863 2.8867 -1.24567 0
M  V30 1674 N 159.635 1.57281 -0.100228 0
M  V30 1675 C 160.881 1.94826 0.563101 0
M  V30 1676 C 161.214 0.982475 1.67514 0
M  V30 1677 O 160.489 0.0164069 1.94493 0
M  V30 1678 C 160.772 3.42453 1.11346 0
M  V30 1679 C 160.625 4.498 0.00612081 0
M  V30 1680 C 161.944 3.91506 2.01024 0
M  V30 1681 H 159.063 0.708428 0.203221 0
M  V30 1682 H 161.705 1.8922 -0.171979 0
M  V30 1683 H 159.855 3.47361 1.7399 0
M  V30 1684 H 161.527 4.57 -0.628357 0
M  V30 1685 H 159.77 4.28756 -0.659581 0
M  V30 1686 H 160.441 5.50306 0.432109 0
M  V30 1687 H 162.917 3.88784 1.48278 0
M  V30 1688 H 161.793 4.95358 2.36457 0
M  V30 1689 H 162.054 3.31099 2.92961 0
M  V30 1690 N 161.113 -0.173488 1.56642 0
M  V30 1691 C 162.361 -0.888706 1.81512 0
M  V30 1692 C 162.682 -1.82875 0.676872 0
M  V30 1693 O 161.952 -1.93536 -0.303414 0
M  V30 1694 H 160.532 -0.331164 0.669582 0
M  V30 1695 H 163.194 -0.173823 1.94123 0
M  V30 1696 H 162.29 -1.46691 2.75478 0
M  V30 1697 N 162.591 -1.51276 -0.441967 0
M  V30 1698 C 163.821 -1.67273 -1.21257 0
M  V30 1699 C 164.229 -0.367624 -1.85594 0
M  V30 1700 O 163.572 0.663349 -1.71305 0
M  V30 1701 C 163.634 -2.72807 -2.34129 0
M  V30 1702 C 163.298 -4.1554 -1.90198 0
M  V30 1703 C 164.295 -5.00471 -1.40801 0
M  V30 1704 C 161.98 -4.61616 -1.9803 0
M  V30 1705 C 163.974 -6.29536 -0.998174 0
M  V30 1706 C 161.661 -5.90679 -1.56658 0
M  V30 1707 C 162.659 -6.74466 -1.07633 0
M  V30 1708 O 162.347 -8.01116 -0.668459 0
M  V30 1709 H 162.079 -0.564614 -0.371734 0
M  V30 1710 H 164.633 -1.9843 -0.530521 0
M  V30 1711 H 162.863 -2.36954 -3.05597 0
M  V30 1712 H 164.552 -2.77729 -2.96009 0
M  V30 1713 H 165.318 -4.66079 -1.34148 0
M  V30 1714 H 161.197 -3.96526 -2.35135 0
M  V30 1715 H 164.741 -6.94885 -0.61482 0
M  V30 1716 H 160.638 -6.24586 -1.62979 0
M  V30 1717 H 161.406 -8.14633 -0.794722 0
M  V30 1718 N 164.069 0.697108 -1.41344 0
M  V30 1719 C 165.017 1.83237 -1.43272 0
M  V30 1720 C 166.011 1.66522 -0.310947 0
M  V30 1721 O 167.217 1.73402 -0.482899 0
M  V30 1722 H 163.592 0.603802 -0.448249 0
M  V30 1723 H 165.563 1.78727 -2.38954 0
M  V30 1724 C 164.312 3.21245 -1.33029 0
M  V30 1725 H 163.635 3.34723 -2.18633 0
M  V30 1726 H 165.075 4.00763 -1.38439 0
M  V30 1727 C 163.534 3.36873 -0.0424635 0
M  V30 1728 O 164.064 3.91177 0.913421 0
M  V30 1729 N 162.27 2.90581 0.0331145 0
M  V30 1730 H 161.817 2.46577 -0.745506 0
M  V30 1731 H 161.775 3.01416 0.894199 0
M  V30 1732 N 165.547 1.27147 0.931209 0
M  V30 1733 C 166.958 1.12044 1.49342 0
M  V30 1734 C 167.309 -0.295795 1.93957 0
M  V30 1735 O 166.434 -1.18835 1.80852 0
M  V30 1736 C 167.029 2.02781 2.71414 0
M  V30 1737 C 165.588 1.91794 3.2387 0
M  V30 1738 C 164.735 1.95543 1.96617 0
M  V30 1739 H 167.686 1.40091 0.745672 0
M  V30 1740 H 167.707 1.58156 3.46074 0
M  V30 1741 H 167.219 3.05848 2.38911 0
M  V30 1742 H 165.32 0.916992 3.6114 0
M  V30 1743 H 165.433 2.77852 3.90302 0
M  V30 1744 H 163.797 1.39722 2.12955 0
M  V30 1745 H 164.58 3.00259 1.66432 0
M  V30 1746 N 167.025 -1.13721 1.09112 0
M  V30 1747 C 168.25 -1.89314 0.847053 0
M  V30 1748 C 168.675 -1.78416 -0.595774 0
M  V30 1749 O 168.033 -1.12942 -1.41823 0
M  V30 1750 C 168.081 -3.3701 1.28284 0
M  V30 1751 O 167.185 -4.10054 0.439267 0
M  V30 1752 H 166.526 -0.588745 0.307044 0
M  V30 1753 H 169.056 -1.43902 1.45442 0
M  V30 1754 H 169.066 -3.87834 1.26683 0
M  V30 1755 H 167.741 -3.4426 2.33363 0
M  V30 1756 H 166.318 -3.69266 0.519312 0
M  V30 1757 N 168.503 -0.877838 -1.30888 0
M  V30 1758 C 169.914 -0.544193 -1.78593 0
M  V30 1759 C 170.265 0.939301 -1.72254 0
M  V30 1760 O 169.39 1.7337 -1.29505 0
M  V30 1761 C 169.985 -0.98105 -3.24285 0
M  V30 1762 C 168.544 -0.698935 -3.69854 0
M  V30 1763 C 167.691 -1.168 -2.51502 0
M  V30 1764 H 170.642 -1.06278 -1.17859 0
M  V30 1765 H 170.663 -0.307009 -3.79259 0
M  V30 1766 H 170.175 -2.06079 -3.28866 0
M  V30 1767 H 168.276 0.369112 -3.70767 0
M  V30 1768 H 168.389 -1.28148 -4.61644 0
M  V30 1769 H 166.753 -0.587535 -2.47831 0
M  V30 1770 H 167.536 -2.25533 -2.58824 0
M  V30 1771 N 169.982 1.44106 -0.638065 0
M  V30 1772 C 171.23 2.01579 -0.145043 0
M  V30 1773 C 171.551 1.50496 1.24 0
M  V30 1774 O 170.821 0.711374 1.82527 0
M  V30 1775 H 169.401 0.745282 -0.05063 0
M  V30 1776 H 172.063 1.76516 -0.826327 0
M  V30 1777 H 171.159 3.11877 -0.118039 0
M  V30 1778 N 171.46 0.379036 1.52974 0
M  V30 1779 C 172.737 -0.263479 1.93817 0
M  V30 1780 C 173.117 -1.65244 1.31368 0
M  V30 1781 O 172.465 -2.23448 0.477856 0
M  V30 1782 C 172.675 -0.300166 3.47707 0
M  V30 1783 C 174.023 -0.534061 4.21228 0
M  V30 1784 O 175.047 -0.38081 3.54159 0
M  V30 1785 O 173.906 -0.833501 5.40106 0
M  V30 1786 H 171 -0.161149 0.811147 0
M  V30 1787 H 173.546 0.432798 1.64088 0
M  V30 1788 H 172.318 0.673138 3.85467 0
M  V30 1789 H 171.941 -1.04179 3.83709 0
M  V30 1790 N 172.938 -1.57226 0.108567 0
M  V30 1791 C 173.848 -2.18292 -0.859401 0
M  V30 1792 C 174.864 -1.15612 -1.30038 0
M  V30 1793 O 176.04 -1.48039 -1.36552 0
M  V30 1794 C 173.105 -2.762 -2.09558 0
M  V30 1795 C 172.166 -3.93881 -1.70752 0
M  V30 1796 C 171.399 -4.49018 -2.88477 0
M  V30 1797 O 171.622 -4.03068 -4.036 0
M  V30 1798 O 170.556 -5.39852 -2.66164 0
M  V30 1799 H 174.382 -3.01441 -0.369769 0
M  V30 1800 H 171.967 -1.48945 -0.1165 0
M  V30 1801 H 173.849 -3.13156 -2.81978 0
M  V30 1802 H 172.524 -1.96089 -2.57548 0
M  V30 1803 H 171.431 -3.61713 -0.954714 0
M  V30 1804 H 172.764 -4.75396 -1.27513 0
M  V30 1805 N 174.416 0.165178 -1.56732 0
M  V30 1806 C 175.662 0.882112 -1.82611 0
M  V30 1807 C 175.995 1.81628 -0.687378 0
M  V30 1808 O 175.27 1.92009 0.310267 0
M  V30 1809 C 175.553 1.67245 -3.18906 0
M  V30 1810 C 175.406 0.760987 -4.43316 0
M  V30 1811 C 176.725 2.63884 -3.52212 0
M  V30 1812 H 173.844 0.319242 -0.664269 0
M  V30 1813 H 176.486 0.148052 -1.89422 0
M  V30 1814 H 174.636 2.29824 -3.1323 0
M  V30 1815 H 176.308 0.147596 -4.61064 0
M  V30 1816 H 174.551 0.0694102 -4.33744 0
M  V30 1817 H 175.222 1.34962 -5.35247 0
M  V30 1818 H 177.698 2.11429 -3.58381 0
M  V30 1819 H 176.574 3.16245 -4.48643 0
M  V30 1820 H 176.835 3.44377 -2.77231 0
M  V30 1821 N 175.894 1.51508 0.433938 0
M  V30 1822 C 177.305 1.56784 1.01369 0
M  V30 1823 C 177.656 0.393349 1.92217 0
M  V30 1824 O 176.781 -0.489441 2.10792 0
M  V30 1825 C 177.376 2.84144 1.8452 0
M  V30 1826 C 175.935 2.9198 2.37539 0
M  V30 1827 C 175.082 2.51482 1.16843 0
M  V30 1828 H 178.033 1.57236 0.215081 0
M  V30 1829 H 178.054 2.68098 2.70007 0
M  V30 1830 H 177.566 3.69607 1.18373 0
M  V30 1831 H 175.667 2.10955 3.0713 0
M  V30 1832 H 175.78 3.95704 2.70103 0
M  V30 1833 H 174.144 2.04758 1.51481 0
M  V30 1834 H 174.927 3.39293 0.523015 0
M  V30 1835 N 177.372 -0.689602 1.41712 0
M  V30 1836 C 178.618 -1.45181 1.41599 0
M  V30 1837 C 178.951 -1.94181 0.0270081 0
M  V30 1838 O 178.226 -1.6993 -0.946265 0
M  V30 1839 C 178.509 -2.65945 2.42787 0
M  V30 1840 C 178.362 -2.22672 3.90816 0
M  V30 1841 C 179.681 -3.68149 2.41151 0
M  V30 1842 H 176.8 -0.526576 0.515642 0
M  V30 1843 H 179.442 -0.784947 1.73028 0
M  V30 1844 H 177.592 -3.2284 2.16116 0
M  V30 1845 H 179.264 -1.71058 4.28412 0
M  V30 1846 H 177.507 -1.54394 4.05395 0
M  V30 1847 H 178.178 -3.0935 4.57172 0
M  V30 1848 H 180.654 -3.2094 2.64834 0
M  V30 1849 H 179.53 -4.50248 3.13955 0
M  V30 1850 H 179.791 -4.18259 1.43221 0
M  V30 1851 N 178.85 -1.27639 -0.924453 0
M  V30 1852 C 179.782 -1.06442 -2.02985 0
M  V30 1853 C 180.795 -0.0194771 -1.62788 0
M  V30 1854 O 181.984 -0.261388 -1.76576 0
M  V30 1855 C 179.084 -0.59327 -3.33667 0
M  V30 1856 C 178.257 -1.71123 -4.02537 0
M  V30 1857 C 177.316 -1.23527 -5.11495 0
M  V30 1858 O 176.342 -1.93553 -5.35281 0
M  V30 1859 N 177.544 -0.0926678 -5.80426 0
M  V30 1860 H 180.309 -2.01633 -2.2173 0
M  V30 1861 H 177.87 -1.19248 -1.09505 0
M  V30 1862 H 179.862 -0.258686 -4.03872 0
M  V30 1863 H 178.432 0.265502 -3.1147 0
M  V30 1864 H 177.652 -2.21593 -3.26022 0
M  V30 1865 H 178.94 -2.46145 -4.45298 0
M  V30 1866 H 178.338 0.491741 -5.63559 0
M  V30 1867 H 176.895 0.182714 -6.51544 0
M  V30 1868 N 180.328 1.1314 -1.09713 0
M  V30 1869 C 181.576 1.84119 -0.833338 0
M  V30 1870 C 181.897 1.84097 0.642904 0
M  V30 1871 O 181.167 1.29881 1.46655 0
M  V30 1872 H 179.747 0.681766 -0.305293 0
M  V30 1873 H 182.409 1.37038 -1.38588 0
M  V30 1874 H 181.505 2.88543 -1.18951 0
M  V30 1875 N 181.806 0.884767 1.30421 0
M  V30 1876 C 183.052 0.503851 1.96441 0
M  V30 1877 C 183.385 -0.944518 1.69684 0
M  V30 1878 O 182.66 -1.66737 1.00145 0
M  V30 1879 C 182.943 0.779085 3.51571 0
M  V30 1880 C 182.796 2.27807 3.87846 0
M  V30 1881 C 184.115 0.255452 4.39358 0
M  V30 1882 H 181.234 0.184533 0.713524 0
M  V30 1883 H 183.876 1.10872 1.54297 0
M  V30 1884 H 182.026 0.264274 3.876 0
M  V30 1885 H 183.698 2.86127 3.61841 0
M  V30 1886 H 181.941 2.74479 3.35922 0
M  V30 1887 H 182.612 2.42125 4.96064 0
M  V30 1888 H 185.088 0.696079 4.10236 0
M  V30 1889 H 183.964 0.477361 5.4682 0
M  V30 1890 H 184.225 -0.843293 4.33983 0
M  V30 1891 N 183.284 -1.43765 0.645699 0
M  V30 1892 C 184.247 -2.29163 -0.0409488 0
M  V30 1893 C 185.247 -1.41813 -0.757996 0
M  V30 1894 O 186.437 -1.63527 -0.600382 0
M  V30 1895 C 183.569 -3.23716 -1.06869 0
M  V30 1896 H 184.762 -2.91366 0.710345 0
M  V30 1897 H 182.315 -1.5092 0.406547 0
M  V30 1898 H 183.05 -2.66393 -1.84947 0
M  V30 1899 H 182.835 -3.88105 -0.558277 0
M  V30 1900 H 184.325 -3.87831 -1.54845 0
M  V30 1901 N 184.763 -0.387143 -1.52771 0
M  V30 1902 C 186.012 0.19697 -2.00736 0
M  V30 1903 C 186.325 1.48082 -1.27793 0
M  V30 1904 O 187.531 2.14485 -1.66458 0
M  V30 1905 C 185.987 0.401568 -3.57653 0
M  V30 1906 C 185.595 -0.868907 -4.39493 0
M  V30 1907 C 187.339 0.942164 -4.13912 0
M  V30 1908 C 185.246 -0.632705 -5.88006 0
M  V30 1909 H 184.176 0.0773827 -0.750019 0
M  V30 1910 H 186.827 -0.50921 -1.76293 0
M  V30 1911 H 185.209 1.16954 -3.78335 0
M  V30 1912 H 186.383 -1.64133 -4.30577 0
M  V30 1913 H 184.698 -1.33429 -3.94443 0
M  V30 1914 H 187.295 1.13455 -5.22525 0
M  V30 1915 H 187.638 1.9106 -3.69867 0
M  V30 1916 H 188.171 0.233814 -3.97112 0
M  V30 1917 H 184.91 -1.57208 -6.36369 0
M  V30 1918 H 184.43 0.100825 -5.99715 0
M  V30 1919 H 186.109 -0.26642 -6.46451 0
M  V30 1920 N 186.241 1.57166 -0.116904 0
M  V30 1921 C 187.469 1.99473 0.549383 0
M  V30 1922 C 187.884 0.996541 1.60357 0
M  V30 1923 O 187.241 -0.0108731 1.82497 0
M  V30 1924 C 187.292 3.41788 1.17741 0
M  V30 1925 O 187.013 4.37788 0.165362 0
M  V30 1926 C 188.514 3.99216 1.92722 0
M  V30 1927 H 185.734 0.655009 0.145616 0
M  V30 1928 H 188.278 2.03494 -0.202625 0
M  V30 1929 H 186.433 3.38713 1.88021 0
M  V30 1930 H 186.847 5.20806 0.621403 0
M  V30 1931 H 188.321 5.00882 2.31995 0
M  V30 1932 H 188.798 3.3824 2.80161 0
M  V30 1933 H 189.404 4.0583 1.27209 0
M  V30 1934 N 187.719 -0.156864 1.56817 0
M  V30 1935 C 188.966 -0.871125 1.82805 0
M  V30 1936 C 189.294 -1.81611 0.696262 0
M  V30 1937 O 188.549 -1.93141 -0.315459 0
M  V30 1938 C 188.848 -1.68737 3.1506 0
M  V30 1939 C 188.514 -0.890045 4.42028 0
M  V30 1940 C 187.176 -0.670042 4.76512 0
M  V30 1941 C 189.528 -0.331769 5.20143 0
M  V30 1942 C 186.856 0.119104 5.86579 0
M  V30 1943 C 189.208 0.444365 6.31037 0
M  V30 1944 C 187.872 0.675035 6.64078 0
M  V30 1945 H 187.142 -0.318767 0.668931 0
M  V30 1946 H 189.789 -0.135274 1.91022 0
M  V30 1947 H 188.094 -2.49304 3.0225 0
M  V30 1948 H 189.791 -2.24331 3.3238 0
M  V30 1949 H 186.381 -1.07157 4.14988 0
M  V30 1950 H 190.565 -0.489043 4.93885 0
M  V30 1951 H 185.821 0.307417 6.10627 0
M  V30 1952 H 189.995 0.884139 6.90765 0
M  V30 1953 H 187.622 1.28839 7.49203 0
M  V30 1954 N 189.197 -1.51736 -0.425897 0
M  V30 1955 C 190.107 -1.76738 -1.54275 0
M  V30 1956 C 191.123 -0.65211 -1.61318 0
M  V30 1957 O 192.299 -0.935654 -1.78346 0
M  V30 1958 C 189.364 -1.89755 -2.90162 0
M  V30 1959 C 188.425 -3.13633 -2.93143 0
M  V30 1960 C 187.658 -3.2602 -4.22548 0
M  V30 1961 O 187.881 -2.44067 -5.15546 0
M  V30 1962 O 186.815 -4.19071 -4.32046 0
M  V30 1963 H 190.641 -2.71502 -1.36089 0
M  V30 1964 H 188.226 -1.36376 -0.610069 0
M  V30 1965 H 190.108 -2.00236 -3.70788 0
M  V30 1966 H 188.783 -0.981785 -3.08452 0
M  V30 1967 H 187.69 -3.08622 -2.11431 0
M  V30 1968 H 189.023 -4.04936 -2.798 0
M  V30 1969 N 190.675 0.682077 -1.42076 0
M  V30 1970 C 192.086 1.26246 -1.37546 0
M  V30 1971 C 192.437 1.96092 -0.0651481 0
M  V30 1972 O 191.562 1.99587 0.836297 0
M  V30 1973 C 192.157 2.29594 -2.49143 0
M  V30 1974 C 190.716 2.83175 -2.47969 0
M  V30 1975 C 189.863 1.57395 -2.28303 0
M  V30 1976 H 192.814 0.475937 -1.51395 0
M  V30 1977 H 192.835 3.11175 -2.18976 0
M  V30 1978 H 192.347 1.78729 -3.44496 0
M  V30 1979 H 190.448 3.3818 -1.56413 0
M  V30 1980 H 190.561 3.32687 -3.44755 0
M  V30 1981 H 188.925 1.83699 -1.76428 0
M  V30 1982 H 189.708 1.08507 -3.25701 0
M  V30 1983 N 192.153 1.28127 0.917671 0
M  V30 1984 C 193.1 1.11717 2.0196 0
M  V30 1985 C 194.07 0.0153929 1.66093 0
M  V30 1986 O 195.255 0.179596 1.89953 0
M  V30 1987 C 192.395 0.780927 3.36148 0
M  V30 1988 C 191.508 1.96135 3.84909 0
M  V30 1989 C 190.643 1.56609 5.0759 0
M  V30 1990 C 189.682 2.71339 5.48673 0
M  V30 1991 N 188.819 2.32332 6.62545 0
M  V30 1992 H 193.659 2.06003 2.15329 0
M  V30 1993 H 191.196 1.02535 1.05475 0
M  V30 1994 H 193.154 0.56675 4.13333 0
M  V30 1995 H 191.784 -0.124998 3.22558 0
M  V30 1996 H 190.836 2.28777 3.03916 0
M  V30 1997 H 192.148 2.82165 4.1132 0
M  V30 1998 H 191.302 1.31374 5.92305 0
M  V30 1999 H 190.041 0.677014 4.82978 0
M  V30 2000 H 189.046 2.97276 4.62501 0
M  V30 2001 H 190.271 3.60882 5.75274 0
M  V30 2002 H 188.217 1.45889 6.39572 0
M  V30 2003 H 188.134 3.11899 6.88662 0
M  V30 2004 H 189.402 2.10371 7.50576 0
M  V30 2005 N 193.631 -1.12557 1.10312 0
M  V30 2006 C 194.908 -1.80363 0.756878 0
M  V30 2007 C 195.288 -1.97067 -0.756824 0
M  V30 2008 O 194.636 -1.54601 -1.68259 0
M  V30 2009 C 194.846 -3.14812 1.50647 0
M  V30 2010 C 196.194 -3.90029 1.67817 0
M  V30 2011 O 197.218 -3.24464 1.46974 0
M  V30 2012 O 196.077 -5.07652 2.02365 0
M  V30 2013 H 193.171 -0.780667 0.272926 0
M  V30 2014 H 195.717 -1.19404 1.20586 0
M  V30 2015 H 194.489 -2.97936 2.53672 0
M  V30 2016 H 194.112 -3.83478 1.05026 0
M  V30 2017 N 195.109 -0.891671 -1.2995 0
M  V30 2018 C 196.356 -0.513501 -1.95881 0
M  V30 2019 C 196.684 0.938655 -1.70351 0
M  V30 2020 O 195.939 1.67936 -1.00478 0
M  V30 2021 C 196.238 -0.742868 -3.49594 0
M  V30 2022 C 195.904 -2.17114 -3.95186 0
M  V30 2023 C 194.566 -2.56169 -4.07346 0
M  V30 2024 C 196.918 -3.10162 -4.18866 0
M  V30 2025 C 194.246 -3.87469 -4.4055 0
M  V30 2026 C 196.598 -4.41001 -4.53542 0
M  V30 2027 C 195.262 -4.79941 -4.63911 0
M  V30 2028 H 194.532 -0.187903 -0.71678 0
M  V30 2029 H 197.179 -1.1288 -1.54694 0
M  V30 2030 H 195.484 -0.044586 -3.91775 0
M  V30 2031 H 197.181 -0.429767 -3.9869 0
M  V30 2032 H 193.771 -1.85801 -3.86233 0
M  V30 2033 H 197.955 -2.81206 -4.08946 0
M  V30 2034 H 193.211 -4.17371 -4.46779 0
M  V30 2035 H 197.385 -5.13133 -4.70815 0
M  V30 2036 H 195.012 -5.81719 -4.89395 0
M  V30 2037 N 196.587 1.43421 -0.653314 0
M  V30 2038 C 197.517 2.33487 0.0246656 0
M  V30 2039 C 198.498 1.49475 0.811863 0
M  V30 2040 O 199.683 1.78139 0.773322 0
M  V30 2041 C 196.813 3.32841 0.99166 0
M  V30 2042 C 195.767 4.26842 0.314568 0
M  V30 2043 C 195.093 5.16236 1.39302 0
M  V30 2044 C 196.393 5.16243 -0.793095 0
M  V30 2045 H 198.087 2.90427 -0.727481 0
M  V30 2046 H 195.633 1.39649 -0.351287 0
M  V30 2047 H 197.586 3.94747 1.47487 0
M  V30 2048 H 196.31 2.74158 1.77497 0
M  V30 2049 H 194.969 3.663 -0.148199 0
M  V30 2050 H 194.617 4.53891 2.16776 0
M  V30 2051 H 194.317 5.79948 0.945223 0
M  V30 2052 H 195.841 5.81015 1.87759 0
M  V30 2053 H 197.255 5.71958 -0.392039 0
M  V30 2054 H 195.652 5.88676 -1.16536 0
M  V30 2055 H 196.722 4.55927 -1.65103 0
M  V30 2056 N 198.065 0.39524 1.52563 0
M  V30 2057 C 199.015 -0.4541 2.23432 0
M  V30 2058 C 199.999 -1.02482 1.24042 0
M  V30 2059 O 201.191 -0.949938 1.49349 0
M  V30 2060 C 198.32 -1.57769 3.049 0
M  V30 2061 C 197.406 -1.01842 4.1169 0
M  V30 2062 N 197.797 -0.184613 5.05463 0
M  V30 2063 C 196.095 -1.29033 4.26927 0
M  V30 2064 C 196.796 0.125013 5.81566 0
M  V30 2065 N 195.772 -0.480498 5.41472 0
M  V30 2066 H 199.574 0.189413 2.93289 0
M  V30 2067 H 197.088 0.204877 1.61102 0
M  V30 2068 H 199.085 -2.19862 3.54212 0
M  V30 2069 H 197.745 -2.22397 2.36579 0
M  V30 2070 H 198.756 0.178602 5.17592 0
M  V30 2071 H 195.433 -1.93721 3.69836 0
M  V30 2072 H 196.823 0.800962 6.67109 0
M  V30 2073 N 199.544 -1.57102 0.125237 0
M  V30 2074 C 200.793 -1.94582 -0.531095 0
M  V30 2075 C 201.106 -1.01126 -1.6743 0
M  V30 2076 O 202.312 -1.28097 -2.39381 0
M  V30 2077 C 200.768 -3.45839 -0.996164 0
M  V30 2078 C 200.376 -4.47842 0.118926 0
M  V30 2079 C 202.12 -3.92227 -1.62352 0
M  V30 2080 C 200.027 -5.90284 -0.363192 0
M  V30 2081 H 198.957 -0.726391 -0.20217 0
M  V30 2082 H 201.608 -1.82339 0.206092 0
M  V30 2083 H 199.99 -3.53338 -1.78796 0
M  V30 2084 H 201.164 -4.52018 0.895358 0
M  V30 2085 H 199.479 -4.11243 0.653324 0
M  V30 2086 H 202.076 -4.96069 -1.99548 0
M  V30 2087 H 202.419 -3.32552 -2.50429 0
M  V30 2088 H 202.952 -3.87554 -0.897019 0
M  V30 2089 H 199.691 -6.53728 0.481679 0
M  V30 2090 H 199.211 -5.89515 -1.10597 0
M  V30 2091 H 200.89 -6.41752 -0.822377 0
M  V30 2092 N 201.022 0.148545 -1.56898 0
M  V30 2093 C 201.969 1.18345 -1.98149 0
M  V30 2094 C 202.939 1.42772 -0.848848 0
M  V30 2095 O 204.124 1.55132 -1.11079 0
M  V30 2096 C 201.264 2.51231 -2.36594 0
M  V30 2097 C 200.377 2.33991 -3.63142 0
M  V30 2098 C 199.512 3.59902 -3.90697 0
M  V30 2099 C 198.551 3.37692 -5.1052 0
M  V30 2100 N 197.688 4.5573 -5.34092 0
M  V30 2101 H 202.528 0.82467 -2.86362 0
M  V30 2102 H 200.065 0.395756 -1.41676 0
M  V30 2103 H 202.023 3.28713 -2.56912 0
M  V30 2104 H 200.653 2.85059 -1.51463 0
M  V30 2105 H 199.705 1.47572 -3.50609 0
M  V30 2106 H 201.017 2.13539 -4.5078 0
M  V30 2107 H 200.171 4.45813 -4.11505 0
M  V30 2108 H 198.91 3.83357 -3.01477 0
M  V30 2109 H 197.915 2.5017 -4.89587 0
M  V30 2110 H 199.14 3.15637 -6.0129 0
M  V30 2111 H 197.086 4.79361 -4.47827 0
M  V30 2112 H 197.003 4.38274 -6.15996 0
M  V30 2113 H 198.271 5.42858 -5.59397 0
M  V30 2114 N 202.5 1.5196 0.417844 0
M  V30 2115 C 203.41 1.77554 1.53336 0
M  V30 2116 C 204.426 0.660655 1.6097 0
M  V30 2117 O 205.602 0.945099 1.77848 0
M  V30 2118 C 202.667 1.91291 2.89152 0
M  V30 2119 C 201.728 3.15183 2.91475 0
M  V30 2120 C 200.961 3.28256 4.20813 0
M  V30 2121 O 201.184 2.46798 5.14244 0
M  V30 2122 O 200.118 4.21356 4.29817 0
M  V30 2123 H 203.944 2.7222 1.34647 0
M  V30 2124 H 201.529 1.36698 0.602828 0
M  V30 2125 H 203.411 2.02199 3.69721 0
M  V30 2126 H 202.086 0.998129 3.07927 0
M  V30 2127 H 200.993 3.09739 2.09791 0
M  V30 2128 H 202.326 4.06414 2.77648 0
M  V30 2129 N 203.978 -0.674533 1.42435 0
M  V30 2130 C 204.925 -1.78807 1.45934 0
M  V30 2131 C 205.895 -1.63157 0.311271 0
M  V30 2132 O 207.08 -1.83707 0.515383 0
M  V30 2133 C 204.22 -3.16839 1.36773 0
M  V30 2134 C 203.333 -3.43774 2.61617 0
M  V30 2135 C 202.468 -4.71536 2.44597 0
M  V30 2136 C 201.507 -4.91505 3.64814 0
M  V30 2137 N 200.644 -6.10508 3.46734 0
M  V30 2138 H 205.484 -1.75151 2.41093 0
M  V30 2139 H 203.021 -0.85504 1.19697 0
M  V30 2140 H 204.979 -3.96606 1.29459 0
M  V30 2141 H 203.609 -3.19619 0.452089 0
M  V30 2142 H 202.661 -2.58259 2.79297 0
M  V30 2143 H 203.973 -3.54423 3.50978 0
M  V30 2144 H 203.127 -5.59393 2.3487 0
M  V30 2145 H 201.866 -4.6317 1.52726 0
M  V30 2146 H 200.871 -4.0209 3.74972 0
M  V30 2147 H 202.096 -5.01716 4.57665 0
M  V30 2148 H 200.042 -6.03315 2.5758 0
M  V30 2149 H 199.959 -6.2202 4.29682 0
M  V30 2150 H 201.227 -7.01044 3.40819 0
M  V30 2151 N 205.456 -1.28612 -0.910864 0
M  V30 2152 C 206.686 -1.1862 -1.69153 0
M  V30 2153 C 207.094 0.257324 -1.87442 0
M  V30 2154 O 206.437 1.18543 -1.40332 0
M  V30 2155 C 206.499 -1.81606 -3.10257 0
M  V30 2156 C 206.163 -3.30864 -3.15243 0
M  V30 2157 C 207.16 -4.27256 -2.96223 0
M  V30 2158 C 204.845 -3.71871 -3.37664 0
M  V30 2159 C 206.839 -5.62631 -2.99541 0
M  V30 2160 C 204.526 -5.07371 -3.40614 0
M  V30 2161 C 205.524 -6.02561 -3.21573 0
M  V30 2162 O 205.212 -7.35589 -3.2429 0
M  V30 2163 H 204.944 -0.412633 -0.535453 0
M  V30 2164 H 207.498 -1.70306 -1.14827 0
M  V30 2165 H 205.728 -1.24418 -3.66138 0
M  V30 2166 H 207.417 -1.66092 -3.70362 0
M  V30 2167 H 208.183 -3.9691 -2.78725 0
M  V30 2168 H 204.062 -2.98241 -3.5153 0
M  V30 2169 H 207.606 -6.36907 -2.84597 0
M  V30 2170 H 203.503 -5.37366 -3.57642 0
M  V30 2171 H 204.271 -7.44252 -3.40633 0
M  V30 2172 N 206.934 1.1197 -1.10907 0
M  V30 2173 C 207.882 2.19927 -0.757303 0
M  V30 2174 C 208.876 1.67564 0.248747 0
M  V30 2175 O 210.082 1.79672 0.108605 0
M  V30 2176 H 206.457 0.716925 -0.226987 0
M  V30 2177 H 208.428 2.46847 -1.67658 0
M  V30 2178 C 207.177 3.47061 -0.210671 0
M  V30 2179 H 206.5 3.87703 -0.976049 0
M  V30 2180 H 207.94 4.24 -0.0026584 0
M  V30 2181 C 206.399 3.19864 1.05777 0
M  V30 2182 O 206.929 3.40049 2.13845 0
M  V30 2183 N 205.135 2.73636 0.978349 0
M  V30 2184 H 204.682 2.5741 0.0988246 0
M  V30 2185 H 204.64 2.55815 1.82773 0
M  V30 2186 N 208.412 0.89855 1.29475 0
M  V30 2187 C 209.36 0.365253 2.29714 0
M  V30 2188 C 210.354 -0.534993 1.6073 0
M  V30 2189 O 211.56 -0.417921 1.75081 0
M  V30 2190 H 207.935 0.0994853 0.74539 0
M  V30 2191 H 209.906 1.22406 2.72138 0
M  V30 2192 C 208.655 -0.393159 3.4547 0
M  V30 2193 H 207.978 0.290332 3.98744 0
M  V30 2194 H 209.418 -0.731189 4.17648 0
M  V30 2195 C 207.877 -1.59539 2.9673 0
M  V30 2196 O 208.407 -2.69469 2.97908 0
M  V30 2197 N 206.613 -1.43716 2.52575 0
M  V30 2198 H 206.16 -0.542828 2.51816 0
M  V30 2199 H 206.118 -2.24288 2.20323 0
M  V30 2200 N 209.89 -1.43072 0.660911 0
M  V30 2201 C 211.167 -1.95307 0.107017 0
M  V30 2202 C 211.547 -1.60192 -1.37484 0
M  V30 2203 O 210.895 -0.890949 -2.10415 0
M  V30 2204 C 211.105 -3.47124 0.361402 0
M  V30 2205 C 212.453 -4.23738 0.270455 0
M  V30 2206 O 213.477 -3.54981 0.294382 0
M  V30 2207 O 212.336 -5.46131 0.200737 0
M  V30 2208 H 209.43 -0.826984 -0.00517729 0
M  V30 2209 H 211.976 -1.52972 0.734681 0
M  V30 2210 H 210.748 -3.65837 1.38848 0
M  V30 2211 H 210.371 -3.96475 -0.298953 0
M  V30 2212 N 211.368 -0.403325 -1.52352 0
M  V30 2213 C 212.614 0.167015 -2.02713 0
M  V30 2214 C 212.969 1.43296 -1.28391 0
M  V30 2215 O 212.262 1.87796 -0.379885 0
M  V30 2216 C 212.456 0.474665 -3.54234 0
M  V30 2217 C 212.285 -0.759909 -4.43233 0
M  V30 2218 C 211.055 -1.28338 -4.88731 0
M  V30 2219 C 213.253 -1.63634 -4.87574 0
M  V30 2220 N 211.235 -2.47404 -5.6184 0
M  V30 2221 C 212.606 -2.67329 -5.59406 0
M  V30 2222 C 214.661 -1.65478 -4.69597 0
M  V30 2223 C 213.364 -3.72773 -6.15169 0
M  V30 2224 C 215.39 -2.69837 -5.26253 0
M  V30 2225 C 214.752 -3.72253 -5.98002 0
M  V30 2226 H 210.851 0.0228343 -0.781667 0
M  V30 2227 H 213.435 -0.556368 -1.86581 0
M  V30 2228 H 211.606 1.16709 -3.7045 0
M  V30 2229 H 213.338 1.03338 -3.91284 0
M  V30 2230 H 210.093 -0.842273 -4.6605 0
M  V30 2231 H 210.517 -3.07688 -6.0304 0
M  V30 2232 H 215.159 -0.876389 -4.13617 0
M  V30 2233 H 212.877 -4.51471 -6.70223 0
M  V30 2234 H 216.463 -2.72164 -5.14216 0
M  V30 2235 H 215.343 -4.51679 -6.41058 0
M  V30 2236 N 212.846 1.57033 -0.133567 0
M  V30 2237 C 214.092 1.96764 0.515326 0
M  V30 2238 C 214.447 1.01653 1.63353 0
M  V30 2239 O 213.74 0.0491374 1.91537 0
M  V30 2240 C 213.934 3.40674 1.08057 0
M  V30 2241 C 213.763 4.49696 0.0186522 0
M  V30 2242 C 212.533 5.03567 -0.418174 0
M  V30 2243 C 214.731 5.08536 -0.767809 0
M  V30 2244 N 212.713 5.9618 -1.46434 0
M  V30 2245 C 214.084 5.97231 -1.6648 0
M  V30 2246 C 216.139 4.9115 -0.817087 0
M  V30 2247 C 214.842 6.70401 -2.60681 0
M  V30 2248 C 216.868 5.65012 -1.74687 0
M  V30 2249 C 216.23 6.53403 -2.63141 0
M  V30 2250 H 212.329 0.765919 0.157771 0
M  V30 2251 H 214.913 1.93395 -0.22506 0
M  V30 2252 H 213.084 3.44662 1.79061 0
M  V30 2253 H 214.816 3.67495 1.69497 0
M  V30 2254 H 211.571 4.73594 -0.0229803 0
M  V30 2255 H 211.995 6.47191 -1.98678 0
M  V30 2256 H 216.637 4.22543 -0.147326 0
M  V30 2257 H 214.355 7.38245 -3.28664 0
M  V30 2258 H 217.941 5.53559 -1.79063 0
M  V30 2259 H 216.821 7.09556 -3.33917 0
M  V30 2260 N 214.325 -0.140222 1.56975 0
M  V30 2261 C 215.574 -0.850152 1.82908 0
M  V30 2262 C 215.887 -1.82028 0.715892 0
M  V30 2263 O 217.093 -2.57485 0.861016 0
M  V30 2264 C 215.549 -1.5625 3.24213 0
M  V30 2265 C 215.157 -0.63443 4.43485 0
M  V30 2266 C 216.901 -2.25881 3.59413 0
M  V30 2267 C 214.808 -1.34879 5.75814 0
M  V30 2268 H 213.738 -0.321221 0.682153 0
M  V30 2269 H 216.389 -0.102874 1.83211 0
M  V30 2270 H 214.771 -2.35565 3.18316 0
M  V30 2271 H 215.945 0.12398 4.60633 0
M  V30 2272 H 214.26 -0.0461836 4.16374 0
M  V30 2273 H 216.857 -2.79978 4.5554 0
M  V30 2274 H 217.2 -3.02693 2.85802 0
M  V30 2275 H 217.733 -1.53477 3.67001 0
M  V30 2276 H 214.472 -0.622385 6.52539 0
M  V30 2277 H 213.992 -2.07974 5.6259 0
M  V30 2278 H 215.671 -1.88784 6.18845 0
M  V30 2279 N 215.803 -1.52179 -0.40978 0
M  V30 2280 C 217.051 -1.65878 -1.15451 0
M  V30 2281 C 217.372 -0.390771 -1.91044 0
M  V30 2282 O 216.642 0.594323 -1.86667 0
M  V30 2283 H 215.222 -0.611405 -0.429177 0
M  V30 2284 H 217.884 -1.89219 -0.467134 0
M  V30 2285 H 216.98 -2.49954 -1.86894 0
M  V30 2286 N 217.281 0.66697 -1.42791 0
M  V30 2287 C 218.697 0.981027 -1.25889 0
M  V30 2288 C 218.897 2.00793 -0.168695 0
M  V30 2289 O 217.953 2.48321 0.45747 0
M  V30 2290 C 219.266 1.47838 -2.61848 0
M  V30 2291 C 220.814 1.59575 -2.69267 0
M  V30 2292 C 221.289 2.12704 -4.05612 0
M  V30 2293 N 222.78 2.20026 -4.07606 0
M  V30 2294 C 223.515 2.62227 -5.09926 0
M  V30 2295 N 223.011 3.03824 -6.22626 0
M  V30 2296 N 224.804 2.62045 -4.97281 0
M  V30 2297 H 216.955 -0.0127891 -2.12396 0
M  V30 2298 H 219.218 0.0568258 -0.946295 0
M  V30 2299 H 218.924 0.798299 -3.4252 0
M  V30 2300 H 218.798 2.45579 -2.86305 0
M  V30 2301 H 221.185 2.26687 -1.88936 0
M  V30 2302 H 221.266 0.60302 -2.48591 0
M  V30 2303 H 220.91 1.46198 -4.86404 0
M  V30 2304 H 220.84 3.12782 -4.23645 0
M  V30 2305 H 223.331 1.90708 -3.2625 0
M  V30 2306 H 223.644 3.34734 -6.96544 0
M  V30 2307 H 221.989 3.01662 -6.26119 0
M  V30 2308 H 225.18 2.28916 -4.08308 0
M  V30 2309 H 225.353 2.94613 -5.77154 0
M  V30 2310 N 218.759 1.29093 0.90403 0
M  V30 2311 C 219.689 1.16401 2.02418 0
M  V30 2312 C 220.67 0.0593085 1.69997 0
M  V30 2313 O 221.855 0.238021 1.92736 0
M  V30 2314 C 218.985 0.835233 3.37107 0
M  V30 2315 C 217.939 1.89578 3.83724 0
M  V30 2316 C 217.265 1.42041 5.15489 0
M  V30 2317 C 218.565 3.30394 4.04521 0
M  V30 2318 H 220.259 2.10109 2.13295 0
M  V30 2319 H 217.805 1.01157 1.02486 0
M  V30 2320 H 219.758 0.733169 4.14973 0
M  V30 2321 H 218.482 -0.137543 3.2631 0
M  V30 2322 H 217.141 1.98715 3.08071 0
M  V30 2323 H 216.789 0.436426 5.01103 0
M  V30 2324 H 216.489 2.12964 5.4765 0
M  V30 2325 H 218.013 1.33176 5.959 0
M  V30 2326 H 219.427 3.24123 4.72882 0
M  V30 2327 H 217.824 3.99237 4.48029 0
M  V30 2328 H 218.894 3.73692 3.09002 0
M  V30 2329 N 220.237 -1.11381 1.11499 0
M  V30 2330 C 221.483 -1.83403 0.865512 0
M  V30 2331 C 221.816 -1.84459 -0.607329 0
M  V30 2332 O 221.091 -1.29811 -1.44842 0
M  V30 2333 C 221.374 -3.30552 1.42855 0
M  V30 2334 C 221.227 -3.37886 2.96906 0
M  V30 2335 C 222.546 -4.26643 1.08 0
M  V30 2336 H 219.665 -0.665879 0.31587 0
M  V30 2337 H 222.307 -1.30601 1.37998 0
M  V30 2338 H 220.457 -3.75648 0.990985 0
M  V30 2339 H 222.129 -3.01343 3.49271 0
M  V30 2340 H 220.372 -2.78088 3.32941 0
M  V30 2341 H 221.043 -4.41458 3.31389 0
M  V30 2342 H 223.519 -3.89729 1.45775 0
M  V30 2343 H 222.395 -5.27986 1.50072 0
M  V30 2344 H 222.656 -4.42099 -0.00915037 0
M  V30 2345 N 221.715 -0.905404 -1.28997 0
M  V30 2346 C 222.662 -0.385892 -2.27551 0
M  V30 2347 C 223.632 0.535113 -1.57244 0
M  V30 2348 O 224.817 0.459119 -1.85194 0
M  V30 2349 C 221.957 0.375461 -3.43051 0
M  V30 2350 C 221.07 -0.577092 -4.28128 0
M  V30 2351 C 220.205 0.201879 -5.30816 0
M  V30 2352 C 219.244 -0.744829 -6.07551 0
M  V30 2353 N 218.381 9.42587e-05 -7.021 0
M  V30 2354 H 223.221 -1.23139 -2.71368 0
M  V30 2355 H 220.758 -0.618542 -1.33463 0
M  V30 2356 H 222.716 0.832992 -4.088 0
M  V30 2357 H 221.346 1.18537 -3.00248 0
M  V30 2358 H 220.398 -1.15315 -3.62501 0
M  V30 2359 H 221.71 -1.30152 -4.8152 0
M  V30 2360 H 220.864 0.720351 -6.02408 0
M  V30 2361 H 219.603 0.959413 -4.7817 0
M  V30 2362 H 218.608 -1.27475 -5.34818 0
M  V30 2363 H 219.833 -1.50178 -6.62286 0
M  V30 2364 H 217.779 0.739791 -6.51815 0
M  V30 2365 H 217.696 -0.664321 -7.53076 0
M  V30 2366 H 218.964 0.498644 -7.77903 0
M  V30 2367 N 223.193 1.4272 -0.668489 0
M  V30 2368 C 224.103 2.34596 0.0139753 0
M  V30 2369 C 225.119 1.5474 0.795703 0
M  V30 2370 O 226.295 1.87334 0.739466 0
M  V30 2371 C 223.36 3.33202 0.957982 0
M  V30 2372 C 222.421 4.28957 0.17149 0
M  V30 2373 C 221.654 5.22853 1.07053 0
M  V30 2374 O 221.877 5.21531 2.31001 0
M  V30 2375 O 220.811 5.9952 0.534727 0
M  V30 2376 H 224.637 2.9448 -0.742661 0
M  V30 2377 H 222.222 1.43117 -0.428705 0
M  V30 2378 H 224.104 3.93796 1.50008 0
M  V30 2379 H 222.779 2.758 1.69458 0
M  V30 2380 H 221.686 3.71796 -0.414558 0
M  V30 2381 H 223.019 4.89383 -0.52586 0
M  V30 2382 N 224.671 0.411399 1.52136 0
M  V30 2383 C 225.919 -0.163322 2.01439 0
M  V30 2384 C 226.24 -1.45453 1.29879 0
M  V30 2385 O 225.51 -1.91225 0.4254 0
M  V30 2386 H 224.09 -0.0633447 0.744309 0
M  V30 2387 H 226.752 0.548161 1.87033 0
M  V30 2388 H 225.848 -0.357817 3.10042 0
M  V30 2389 N 226.149 -1.5696 0.141893 0
M  V30 2390 C 227.389 -1.9785 -0.513304 0
M  V30 2391 C 227.753 -1.02467 -1.62371 0
M  V30 2392 O 228.954 -1.32382 -2.33941 0
M  V30 2393 C 227.225 -3.42797 -1.01118 0
M  V30 2394 S 228.784 -4.05709 -1.67169 0
M  V30 2395 H 225.602 -0.691318 -0.166135 0
M  V30 2396 H 228.204 -1.94114 0.232398 0
M  V30 2397 H 226.908 -4.0995 -0.192179 0
M  V30 2398 H 226.439 -3.50235 -1.79162 0
M  V30 2399 H 228.454 -3.98342 -2.95868 0
M  V30 2400 N 227.627 0.131896 -1.57047 0
M  V30 2401 C 228.537 1.1815 -2.02676 0
M  V30 2402 C 229.553 1.46113 -0.944824 0
M  V30 2403 O 230.729 1.57485 -1.25541 0
M  V30 2404 C 227.794 2.49139 -2.41103 0
M  V30 2405 C 226.855 2.28688 -3.63318 0
M  V30 2406 C 226.088 3.53431 -3.99903 0
M  V30 2407 O 226.311 4.60223 -3.36973 0
M  V30 2408 O 225.245 3.45198 -4.93074 0
M  V30 2409 H 229.071 0.824069 -2.92306 0
M  V30 2410 H 226.656 0.341745 -1.45439 0
M  V30 2411 H 228.538 3.26338 -2.66611 0
M  V30 2412 H 227.213 2.84382 -1.54624 0
M  V30 2413 H 226.12 1.4939 -3.42977 0
M  V30 2414 H 227.453 1.98355 -4.50462 0
M  V30 2415 N 229.106 1.52395 0.401703 0
M  V30 2416 C 230.352 1.67065 1.14966 0
M  V30 2417 C 230.685 0.403052 1.89971 0
M  V30 2418 O 229.96 -0.598774 1.85054 0
M  V30 2419 C 230.243 2.8975 2.13815 0
M  V30 2420 C 230.096 4.26578 1.42658 0
M  V30 2421 C 231.415 3.07965 3.14397 0
M  V30 2422 H 228.534 0.607968 0.416587 0
M  V30 2423 H 231.176 1.84965 0.434511 0
M  V30 2424 H 229.326 2.74619 2.74803 0
M  V30 2425 H 230.998 4.53451 0.847329 0
M  V30 2426 H 229.241 4.27639 0.72849 0
M  V30 2427 H 229.912 5.08483 2.14823 0
M  V30 2428 H 232.388 3.22043 2.63491 0
M  V30 2429 H 231.264 3.95308 3.80819 0
M  V30 2430 H 231.525 2.21611 3.82545 0
M  V30 2431 N 230.584 -0.659388 1.43143 0
M  V30 2432 C 231.832 -1.41654 1.44147 0
M  V30 2433 C 232.153 -1.94893 0.0645739 0
M  V30 2434 O 231.423 -1.74044 -0.899198 0
M  V30 2435 H 230.003 -0.525708 0.530697 0
M  V30 2436 H 232.665 -0.778097 1.78694 0
M  V30 2437 H 231.761 -2.26195 2.1504 0
M  V30 2438 N 232.062 -1.29571 -0.897171 0
M  V30 2439 C 233.309 -1.17689 -1.6479 0
M  V30 2440 C 233.637 0.27107 -1.92602 0
M  V30 2441 O 232.892 1.21193 -1.53658 0
M  V30 2442 C 233.191 -1.9382 -3.00281 0
M  V30 2443 C 232.857 -3.43522 -2.92068 0
M  V30 2444 C 231.519 -3.84348 -2.89535 0
M  V30 2445 C 233.871 -4.38906 -2.81089 0
M  V30 2446 C 231.199 -5.18869 -2.73846 0
M  V30 2447 C 233.551 -5.73521 -2.66939 0
M  V30 2448 C 232.215 -6.13601 -2.62774 0
M  V30 2449 H 231.485 -0.430654 -0.603008 0
M  V30 2450 H 234.132 -1.60536 -1.04404 0
M  V30 2451 H 232.437 -1.4357 -3.64547 0
M  V30 2452 H 234.134 -1.82028 -3.57305 0
M  V30 2453 H 230.724 -3.11072 -2.94842 0
M  V30 2454 H 234.908 -4.08315 -2.82121 0
M  V30 2455 H 230.164 -5.4903 -2.69027 0
M  V30 2456 H 234.338 -6.47078 -2.57416 0
M  V30 2457 H 231.965 -7.17786 -2.50375 0
M  V30 2458 N 233.54 1.10788 -1.12088 0
M  V30 2459 C 234.789 1.82036 -0.868659 0
M  V30 2460 C 235.102 1.85929 0.607426 0
M  V30 2461 O 236.308 2.53346 0.97613 0
M  V30 2462 C 234.764 3.26951 -1.50435 0
M  V30 2463 C 234.372 3.31367 -3.01496 0
M  V30 2464 C 236.116 4.03053 -1.33225 0
M  V30 2465 C 234.023 4.7072 -3.58017 0
M  V30 2466 H 232.953 0.682108 -0.321318 0
M  V30 2467 H 235.604 1.24618 -1.34694 0
M  V30 2468 H 233.986 3.84343 -0.953735 0
M  V30 2469 H 235.16 2.83819 -3.6302 0
M  V30 2470 H 233.475 2.6875 -3.18061 0
M  V30 2471 H 236.072 5.05981 -1.72878 0
M  V30 2472 H 236.415 4.15387 -0.275529 0
M  V30 2473 H 236.948 3.52066 -1.85188 0
M  V30 2474 H 233.687 4.63585 -4.63432 0
M  V30 2475 H 233.207 5.1865 -3.01268 0
M  V30 2476 H 234.886 5.39685 -3.56859 0
M  V30 2477 N 235.018 0.912232 1.28515 0
M  V30 2478 C 236.429 0.591352 1.77087 0
M  V30 2479 C 236.78 -0.8933 1.74684 0
M  V30 2480 O 235.905 -1.69876 1.34056 0
M  V30 2481 C 236.5 1.06668 3.2157 0
M  V30 2482 C 235.059 0.79675 3.67871 0
M  V30 2483 C 234.206 1.23427 2.48316 0
M  V30 2484 H 237.157 1.09365 1.15 0
M  V30 2485 H 237.178 0.407455 3.78312 0
M  V30 2486 H 236.69 2.14726 3.23287 0
M  V30 2487 H 234.791 -0.270679 3.71616 0
M  V30 2488 H 234.904 1.40343 4.58084 0
M  V30 2489 H 233.268 0.653036 2.46186 0
M  V30 2490 H 234.051 2.32316 2.52753 0
M  V30 2491 N 236.496 -1.42363 0.676048 0
M  V30 2492 C 237.721 -2.06377 0.205705 0
M  V30 2493 C 238.146 -1.50463 -1.12883 0
M  V30 2494 O 237.504 -0.623619 -1.70237 0
M  V30 2495 C 237.552 -3.60277 0.152655 0
M  V30 2496 O 236.656 -4.02935 -0.87845 0
M  V30 2497 H 235.997 -0.655588 0.105359 0
M  V30 2498 H 238.527 -1.82475 0.925412 0
M  V30 2499 H 238.537 -4.07993 -0.0230675 0
M  V30 2500 H 237.212 -4.00346 1.12675 0
M  V30 2501 H 235.789 -3.66764 -0.673668 0
M  V30 2502 N 237.974 -0.419461 -1.51915 0
M  V30 2503 C 239.385 0.0477853 -1.86639 0
M  V30 2504 C 239.736 1.43531 -1.33766 0
M  V30 2505 O 238.861 2.05401 -0.68113 0
M  V30 2506 C 239.456 0.0934885 -3.38671 0
M  V30 2507 C 238.015 0.505097 -3.72996 0
M  V30 2508 C 237.162 -0.313792 -2.75519 0
M  V30 2509 H 240.113 -0.636088 -1.45395 0
M  V30 2510 H 240.134 0.906667 -3.6954 0
M  V30 2511 H 239.646 -0.916501 -3.77123 0
M  V30 2512 H 237.747 1.52135 -3.40126 0
M  V30 2513 H 237.86 0.242309 -4.78487 0
M  V30 2514 H 236.224 0.225363 -2.53701 0
M  V30 2515 H 237.007 -1.32232 -3.16812 0
M  V30 2516 N 239.452 1.56882 -0.150215 0
M  V30 2517 C 240.698 1.96518 0.500834 0
M  V30 2518 C 241.031 1.03527 1.64304 0
M  V30 2519 O 240.306 0.0782751 1.94342 0
M  V30 2520 C 240.589 3.45822 1.00395 0
M  V30 2521 C 240.442 4.49591 -0.136983 0
M  V30 2522 C 241.761 3.97704 1.88467 0
M  V30 2523 H 238.88 0.714535 0.18058 0
M  V30 2524 H 241.522 1.88577 -0.232091 0
M  V30 2525 H 239.672 3.5272 1.62851 0
M  V30 2526 H 241.344 4.5477 -0.77343 0
M  V30 2527 H 239.587 4.26441 -0.795652 0
M  V30 2528 H 240.258 5.51402 0.256815 0
M  V30 2529 H 242.734 3.93304 1.35834 0
M  V30 2530 H 241.61 5.0263 2.20578 0
M  V30 2531 H 241.871 3.40252 2.82279 0
M  V30 2532 N 240.93 -0.123565 1.57115 0
M  V30 2533 C 241.877 -1.15177 2.00007 0
M  V30 2534 C 242.847 -1.41403 0.871454 0
M  V30 2535 O 244.032 -1.53346 1.13533 0
M  V30 2536 C 241.172 -2.47436 2.40561 0
M  V30 2537 C 240.285 -2.28184 3.66819 0
M  V30 2538 C 239.42 -3.53641 3.96373 0
M  V30 2539 C 238.459 -3.29528 5.15827 0
M  V30 2540 N 237.596 -4.47175 5.41275 0
M  V30 2541 H 242.436 -0.779008 2.87638 0
M  V30 2542 H 239.973 -0.373166 1.42288 0
M  V30 2543 H 241.931 -3.24584 2.62109 0
M  V30 2544 H 240.561 -2.82614 1.55978 0
M  V30 2545 H 239.613 -1.41976 3.52912 0
M  V30 2546 H 240.925 -2.0634 4.5412 0
M  V30 2547 H 240.079 -4.39209 4.18545 0
M  V30 2548 H 238.818 -3.78512 3.07538 0
M  V30 2549 H 237.823 -2.42349 4.93505 0
M  V30 2550 H 239.048 -3.06031 6.06236 0
M  V30 2551 H 236.994 -4.72175 4.55397 0
M  V30 2552 H 236.911 -4.28419 6.22891 0
M  V30 2553 H 238.179 -5.3389 5.67963 0
M  V30 2554 N 242.408 -1.52605 -0.393616 0
M  V30 2555 C 243.338 -1.80022 -1.48709 0
M  V30 2556 C 244.319 -0.651995 -1.57108 0
M  V30 2557 O 245.504 -0.89913 -1.72132 0
M  V30 2558 C 242.634 -1.96492 -2.86371 0
M  V30 2559 C 241.588 -3.12161 -2.92813 0
M  V30 2560 C 240.914 -3.13877 -4.3288 0
M  V30 2561 C 242.214 -4.51322 -2.6288 0
M  V30 2562 H 243.908 -2.71589 -1.26015 0
M  V30 2563 H 241.454 -1.30684 -0.604778 0
M  V30 2564 H 243.407 -2.14255 -3.62867 0
M  V30 2565 H 242.131 -1.01611 -3.10391 0
M  V30 2566 H 240.79 -2.94173 -2.18764 0
M  V30 2567 H 240.438 -2.16687 -4.53933 0
M  V30 2568 H 240.138 -3.91576 -4.38112 0
M  V30 2569 H 241.662 -3.33789 -5.1129 0
M  V30 2570 H 243.076 -4.69435 -3.29096 0
M  V30 2571 H 241.473 -5.31053 -2.79468 0
M  V30 2572 H 242.543 -4.58353 -1.58242 0
M  V30 2573 N 243.887 0.651787 -1.4349 0
M  V30 2574 C 245.164 1.40909 -1.35661 0
M  V30 2575 C 245.544 2.11099 -0.00511733 0
M  V30 2576 O 244.892 2.04892 1.0115 0
M  V30 2577 C 245.102 2.3926 -2.54078 0
M  V30 2578 C 246.45 3.03217 -2.97228 0
M  V30 2579 O 247.474 2.49588 -2.54135 0
M  V30 2580 O 246.333 4.00455 -3.71885 0
M  V30 2581 H 243.427 0.629625 -0.536191 0
M  V30 2582 H 245.973 0.678575 -1.55542 0
M  V30 2583 H 244.745 1.86352 -3.44076 0
M  V30 2584 H 244.368 3.1976 -2.36303 0
M  V30 2585 N 245.365 1.30045 0.890287 0
M  V30 2586 C 246.59 1.21598 1.68014 0
M  V30 2587 C 247.015 -0.218678 1.86825 0
M  V30 2588 O 246.373 -1.15756 1.39536 0
M  V30 2589 C 246.421 1.94434 3.03691 0
M  V30 2590 O 245.525 1.2678 3.92429 0
M  V30 2591 H 244.866 0.420856 0.513592 0
M  V30 2592 H 247.396 1.71775 1.11151 0
M  V30 2593 H 247.406 2.03251 3.5377 0
M  V30 2594 H 246.081 2.98777 2.89318 0
M  V30 2595 H 244.658 1.26282 3.50866 0
M  V30 2596 N 246.843 -1.10192 1.12674 0
M  V30 2597 C 247.773 -2.18652 0.819362 0
M  V30 2598 C 248.754 -1.68698 -0.217915 0
M  V30 2599 O 249.939 -1.94041 -0.0785581 0
M  V30 2600 C 247.069 -3.46202 0.27594 0
M  V30 2601 C 246.023 -4.09444 1.24656 0
M  V30 2602 C 245.349 -5.31725 0.563258 0
M  V30 2603 C 246.649 -4.52863 2.60217 0
M  V30 2604 H 248.343 -2.44622 1.72628 0
M  V30 2605 H 245.889 -1.17571 0.831451 0
M  V30 2606 H 247.842 -4.21372 0.0486149 0
M  V30 2607 H 246.566 -3.1973 -0.666331 0
M  V30 2608 H 245.225 -3.36284 1.45974 0
M  V30 2609 H 244.873 -5.0153 -0.384235 0
M  V30 2610 H 244.573 -5.74991 1.21075 0
M  V30 2611 H 246.097 -6.09624 0.34503 0
M  V30 2612 H 247.511 -5.19294 2.42913 0
M  V30 2613 H 245.908 -5.06986 3.21068 0
M  V30 2614 H 246.978 -3.65656 3.18471 0
M  V30 2615 N 248.321 -0.919034 -1.28029 0
M  V30 2616 C 249.737 -0.617972 -1.4715 0
M  V30 2617 C 249.937 0.835242 -1.83374 0
M  V30 2618 O 248.993 1.61388 -1.94191 0
M  V30 2619 C 250.306 -1.56041 -2.57044 0
M  V30 2620 C 251.854 -1.56769 -2.7091 0
M  V30 2621 C 252.329 -2.49688 -3.83953 0
M  V30 2622 N 253.82 -2.47845 -3.91314 0
M  V30 2623 C 254.555 -3.16437 -4.78179 0
M  V30 2624 N 254.051 -3.94376 -5.69596 0
M  V30 2625 N 255.844 -3.05498 -4.71834 0
M  V30 2626 H 247.995 -1.85866 -1.02798 0
M  V30 2627 H 250.258 -0.797506 -0.512531 0
M  V30 2628 H 249.964 -2.59671 -2.372 0
M  V30 2629 H 249.838 -1.29551 -3.54255 0
M  V30 2630 H 252.225 -0.538745 -2.90141 0
M  V30 2631 H 252.306 -1.87305 -1.74214 0
M  V30 2632 H 251.95 -3.52688 -3.65477 0
M  V30 2633 H 251.88 -2.16453 -4.80058 0
M  V30 2634 H 254.371 -1.91234 -3.25941 0
M  V30 2635 H 254.684 -4.43721 -6.32718 0
M  V30 2636 H 253.029 -3.98481 -5.69419 0
M  V30 2637 H 256.22 -2.44108 -3.99411 0
M  V30 2638 H 256.393 -3.59225 -5.39316 0
M  V30 2639 N 249.799 1.42003 -0.683588 0
M  V30 2640 C 250.729 2.33487 -0.024866 0
M  V30 2641 C 251.71 1.51163 0.779975 0
M  V30 2642 O 252.895 1.79739 0.735362 0
M  V30 2643 C 250.025 3.3487 0.920836 0
M  V30 2644 C 248.979 4.27414 0.223958 0
M  V30 2645 C 248.305 5.19074 1.2832 0
M  V30 2646 C 249.605 5.14445 -0.90242 0
M  V30 2647 H 251.299 2.88819 -0.788921 0
M  V30 2648 H 248.845 1.38873 -0.38083 0
M  V30 2649 H 250.798 3.97787 1.39081 0
M  V30 2650 H 249.522 2.77861 1.71642 0
M  V30 2651 H 248.181 3.65904 -0.225864 0
M  V30 2652 H 247.829 4.58387 2.071 0
M  V30 2653 H 247.529 5.81822 0.821995 0
M  V30 2654 H 249.053 5.84867 1.75392 0
M  V30 2655 H 250.467 5.70998 -0.513272 0
M  V30 2656 H 248.864 5.86072 -1.28997 0
M  V30 2657 H 249.934 4.52322 -1.74737 0
M  V30 2658 N 251.277 0.427512 1.51691 0
M  V30 2659 C 252.207 -0.3796 2.30394 0
M  V30 2660 C 253.188 -1.02982 1.35384 0
M  V30 2661 O 254.373 -1.03534 1.643 0
M  V30 2662 C 251.503 -1.48649 3.1388 0
M  V30 2663 C 250.457 -0.960294 4.17088 0
M  V30 2664 C 249.783 -2.16219 4.89033 0
M  V30 2665 C 251.083 -0.00153679 5.223 0
M  V30 2666 H 252.777 0.277164 2.98114 0
M  V30 2667 H 250.323 0.134739 1.43368 0
M  V30 2668 H 252.276 -2.05826 3.67714 0
M  V30 2669 H 251 -2.1714 2.43962 0
M  V30 2670 H 249.659 -0.410806 3.64291 0
M  V30 2671 H 249.307 -2.83307 4.15628 0
M  V30 2672 H 249.007 -1.81654 5.58816 0
M  V30 2673 H 250.531 -2.73968 5.45687 0
M  V30 2674 H 251.945 -0.482687 5.71264 0
M  V30 2675 H 250.342 0.256199 5.99553 0
M  V30 2676 H 251.412 0.938174 4.75738 0
M  V30 2677 N 252.755 -1.56801 0.158532 0
M  V30 2678 C 253.687 -2.14488 -0.807923 0
M  V30 2679 C 254.7 -1.09721 -1.20271 0
M  V30 2680 O 255.889 -1.36956 -1.14478 0
M  V30 2681 C 252.989 -2.66217 -2.09718 0
M  V30 2682 C 252.162 -3.95507 -1.86796 0
M  V30 2683 C 251.221 -4.3243 -2.99818 0
M  V30 2684 O 250.247 -5.00543 -2.71008 0
M  V30 2685 N 251.449 -3.92947 -4.27285 0
M  V30 2686 H 254.214 -2.98042 -0.314816 0
M  V30 2687 H 251.775 -1.61881 -0.0246692 0
M  V30 2688 H 253.767 -2.87924 -2.84398 0
M  V30 2689 H 252.337 -1.87324 -2.50257 0
M  V30 2690 H 251.557 -3.82309 -0.96089 0
M  V30 2691 H 252.845 -4.79972 -1.68833 0
M  V30 2692 H 252.243 -3.38087 -4.53557 0
M  V30 2693 H 250.8 -4.19681 -4.9871 0
M  V30 2694 N 254.233 0.115231 -1.57178 0
M  V30 2695 C 255.143 1.15994 -2.03918 0
M  V30 2696 C 256.159 1.45103 -0.960268 0
M  V30 2697 O 257.335 1.56144 -1.27204 0
M  V30 2698 C 254.4 2.46568 -2.43732 0
M  V30 2699 C 253.461 2.24822 -3.65723 0
M  V30 2700 C 252.694 3.4917 -4.03629 0
M  V30 2701 O 252.917 4.56623 -3.41835 0
M  V30 2702 O 251.851 3.39949 -4.96708 0
M  V30 2703 H 255.677 0.793019 -2.93164 0
M  V30 2704 H 253.262 0.3263 -1.45793 0
M  V30 2705 H 255.144 3.23492 -2.70057 0
M  V30 2706 H 253.819 2.82726 -1.57631 0
M  V30 2707 H 252.726 1.45744 -3.44542 0
M  V30 2708 H 254.059 1.93566 -4.52541 0
M  V30 2709 N 255.711 1.52812 0.385517 0
M  V30 2710 C 256.643 1.74096 1.49074 0
M  V30 2711 C 257.656 0.621462 1.50472 0
M  V30 2712 O 258.845 0.897245 1.54311 0
M  V30 2713 C 255.945 1.78774 2.87911 0
M  V30 2714 C 255.118 3.08134 3.10439 0
M  V30 2715 C 254.177 3.04313 4.29278 0
M  V30 2716 O 253.203 3.78168 4.25415 0
M  V30 2717 N 254.405 2.23741 5.35649 0
M  V30 2718 H 257.17 2.69455 1.31202 0
M  V30 2719 H 254.731 1.51343 0.575065 0
M  V30 2720 H 256.723 1.73721 3.65518 0
M  V30 2721 H 255.293 0.907869 2.99126 0
M  V30 2722 H 254.513 3.26649 2.20667 0
M  V30 2723 H 255.801 3.93662 3.22347 0
M  V30 2724 H 255.199 1.63211 5.41645 0
M  V30 2725 H 253.756 2.24524 6.11909 0
M  V30 2726 N 257.189 -0.644168 1.43834 0
M  V30 2727 C 258.136 -1.75671 1.49694 0
M  V30 2728 C 259.106 -1.6246 0.345809 0
M  V30 2729 O 260.291 -1.82573 0.554234 0
M  V30 2730 C 257.431 -3.13867 1.43463 0
M  V30 2731 C 256.544 -3.38147 2.6885 0
M  V30 2732 C 255.679 -4.66241 2.54544 0
M  V30 2733 C 254.718 -4.83657 3.75157 0
M  V30 2734 N 253.855 -6.03016 3.59605 0
M  V30 2735 H 258.695 -1.69998 2.44754 0
M  V30 2736 H 256.232 -0.829458 1.21484 0
M  V30 2737 H 258.19 -3.9377 1.37843 0
M  V30 2738 H 256.82 -3.18588 0.519783 0
M  V30 2739 H 255.872 -2.52276 2.84712 0
M  V30 2740 H 257.184 -3.46899 3.58417 0
M  V30 2741 H 256.338 -5.54285 2.46683 0
M  V30 2742 H 255.077 -4.59826 1.62516 0
M  V30 2743 H 254.082 -3.94046 3.83416 0
M  V30 2744 H 255.307 -4.91896 4.68204 0
M  V30 2745 H 253.253 -5.97715 2.7032 0
M  V30 2746 H 253.17 -6.12766 4.42779 0
M  V30 2747 H 254.438 -6.93657 3.55613 0
M  V30 2748 N 258.668 -1.30515 -0.883378 0
M  V30 2749 C 259.598 -1.19607 -2.00541 0
M  V30 2750 C 260.579 -0.086346 -1.69881 0
M  V30 2751 O 261.764 -0.268654 -1.92333 0
M  V30 2752 C 258.894 -0.888758 -3.35736 0
M  V30 2753 C 257.848 -1.95659 -3.8066 0
M  V30 2754 C 257.174 -1.50224 -5.13164 0
M  V30 2755 C 258.474 -3.36788 -3.99213 0
M  V30 2756 H 260.168 -2.13476 -2.09925 0
M  V30 2757 H 257.714 -1.02775 -1.00863 0
M  V30 2758 H 259.667 -0.799094 -4.13754 0
M  V30 2759 H 258.391 0.0856125 -3.26488 0
M  V30 2760 H 257.05 -2.03591 -3.04871 0
M  V30 2761 H 256.698 -0.516092 -5.00345 0
M  V30 2762 H 256.398 -2.2165 -5.44192 0
M  V30 2763 H 257.922 -1.42639 -5.93706 0
M  V30 2764 H 259.336 -3.31605 -4.67665 0
M  V30 2765 H 257.733 -4.06314 -4.41621 0
M  V30 2766 H 258.803 -3.78561 -3.03017 0
M  V30 2767 N 260.146 1.09593 -1.13257 0
M  V30 2768 C 261.562 1.33775 -0.870423 0
M  V30 2769 C 261.762 1.95327 0.494926 0
M  V30 2770 O 260.818 2.19853 1.2418 0
M  V30 2771 C 262.131 2.25106 -1.99369 0
M  V30 2772 C 263.679 2.3862 -2.02558 0
M  V30 2773 C 264.154 3.33285 -3.14142 0
M  V30 2774 N 265.645 3.40857 -3.13641 0
M  V30 2775 C 266.38 4.14101 -3.96621 0
M  V30 2776 N 265.876 4.90157 -4.8961 0
M  V30 2777 N 267.669 4.09808 -3.84726 0
M  V30 2778 H 259.82 0.680136 -2.01216 0
M  V30 2779 H 262.083 0.362133 -0.876107 0
M  V30 2780 H 261.789 1.87103 -2.97801 0
M  V30 2781 H 261.663 3.25481 -1.90635 0
M  V30 2782 H 264.05 2.75887 -1.0474 0
M  V30 2783 H 264.131 1.38028 -2.15364 0
M  V30 2784 H 263.775 2.96741 -4.12198 0
M  V30 2785 H 263.705 4.33776 -2.98574 0
M  V30 2786 H 266.196 2.86624 -2.46282 0
M  V30 2787 H 266.509 5.4347 -5.49418 0
M  V30 2788 H 264.854 4.89251 -4.93617 0
M  V30 2789 H 268.045 3.4949 -3.11408 0
M  V30 2790 H 268.218 4.66629 -4.49623 0
M  V30 2791 N 261.624 0.925811 1.2754 0
M  V30 2792 C 262.556 0.380753 2.26015 0
M  V30 2793 C 263.569 -0.487485 1.5533 0
M  V30 2794 O 264.758 -0.300413 1.75954 0
M  V30 2795 C 261.858 -0.473259 3.35579 0
M  V30 2796 C 261.031 0.375249 4.35787 0
M  V30 2797 C 260.09 -0.415809 5.24555 0
M  V30 2798 O 259.116 0.175834 5.68928 0
M  V30 2799 N 260.318 -1.71607 5.54555 0
M  V30 2800 H 263.083 1.22725 2.73421 0
M  V30 2801 H 260.644 0.793037 1.41147 0
M  V30 2802 H 262.636 -1.00949 3.91907 0
M  V30 2803 H 261.206 -1.2205 2.87789 0
M  V30 2804 H 260.426 1.09279 3.7875 0
M  V30 2805 H 261.714 0.955399 4.99749 0
M  V30 2806 H 261.112 -2.2191 5.20358 0
M  V30 2807 H 259.669 -2.19887 6.1359 0
M  V30 2808 N 263.102 -1.41638 0.69111 0
M  V30 2809 C 264.05 -2.32597 0.0115199 0
M  V30 2810 C 265.044 -1.5072 -0.773296 0
M  V30 2811 O 266.25 -1.66685 -0.67942 0
M  V30 2812 H 262.625 -0.751849 -0.0150746 0
M  V30 2813 H 264.596 -2.87593 0.795791 0
M  V30 2814 C 263.345 -3.35467 -0.914172 0
M  V30 2815 H 262.668 -3.9852 -0.319687 0
M  V30 2816 H 264.108 -4.01662 -1.35808 0
M  V30 2817 C 262.567 -2.69004 -2.02826 0
M  V30 2818 O 263.097 -2.53444 -3.11655 0
M  V30 2819 N 261.303 -2.2777 -1.80469 0
M  V30 2820 H 260.85 -2.40626 -0.919615 0
M  V30 2821 H 260.808 -1.83635 -2.55197 0
M  V30 2822 N 264.58 -0.43555 -1.51462 0
M  V30 2823 C 265.996 -0.0877501 -1.59359 0
M  V30 2824 C 266.196 1.4027 -1.4466 0
M  V30 2825 O 265.252 2.17243 -1.28693 0
M  V30 2826 C 266.565 -0.606264 -2.94525 0
M  V30 2827 C 268.113 -0.566548 -3.0783 0
M  V30 2828 C 268.588 -1.06201 -4.45517 0
M  V30 2829 N 270.079 -1.01992 -4.51832 0
M  V30 2830 C 270.814 -1.37417 -5.5669 0
M  V30 2831 N 270.31 -1.80119 -6.68976 0
M  V30 2832 N 272.103 -1.29245 -5.47039 0
M  V30 2833 H 264.254 -1.40533 -1.59261 0
M  V30 2834 H 266.517 -0.578992 -0.750648 0
M  V30 2835 H 266.223 -1.64901 -3.10645 0
M  V30 2836 H 266.097 -0.0302097 -3.77188 0
M  V30 2837 H 268.484 0.467208 -2.91378 0
M  V30 2838 H 268.565 -1.17898 -2.2701 0
M  V30 2839 H 268.209 -2.09422 -4.62715 0
M  V30 2840 H 268.139 -0.426127 -5.24873 0
M  V30 2841 H 270.63 -0.706308 -3.71241 0
M  V30 2842 H 270.943 -2.05392 -7.45006 0
M  V30 2843 H 269.288 -1.84044 -6.70189 0
M  V30 2844 H 272.479 -0.957522 -4.58202 0
M  V30 2845 H 272.652 -1.57182 -6.28648 0
M  V30 2846 N 266.058 1.56714 -0.166846 0
M  V30 2847 C 266.988 2.20754 0.760913 0
M  V30 2848 C 267.969 1.16178 1.24244 0
M  V30 2849 O 269.154 1.44592 1.29641 0
M  V30 2850 C 266.284 2.84478 1.99223 0
M  V30 2851 C 265.238 3.95053 1.64672 0
M  V30 2852 C 264.564 4.45805 2.95232 0
M  V30 2853 C 265.864 5.14865 0.878155 0
M  V30 2854 H 267.558 2.98537 0.22713 0
M  V30 2855 H 265.104 1.43596 0.107805 0
M  V30 2856 H 267.057 3.27951 2.64624 0
M  V30 2857 H 265.781 2.04056 2.55007 0
M  V30 2858 H 264.44 3.52228 1.01641 0
M  V30 2859 H 264.088 3.62181 3.49047 0
M  V30 2860 H 263.788 5.204 2.7287 0
M  V30 2861 H 265.312 4.91962 3.6167 0
M  V30 2862 H 266.726 5.55059 1.43466 0
M  V30 2863 H 265.123 5.95348 0.753738 0
M  V30 2864 H 266.193 4.84735 -0.126377 0
M  V30 2865 N 267.536 -0.106894 1.57237 0
M  V30 2866 C 268.784 -0.810921 1.85117 0
M  V30 2867 C 269.105 -1.7984 0.753827 0
M  V30 2868 O 268.375 -1.94649 -0.221056 0
M  V30 2869 H 266.955 -0.302466 0.683025 0
M  V30 2870 H 269.617 -0.0913324 1.94686 0
M  V30 2871 H 268.713 -1.34875 2.81452 0
M  V30 2872 N 269.014 -1.53014 -0.377408 0
M  V30 2873 C 270.239 -1.72818 -1.14668 0
M  V30 2874 C 270.664 -0.450725 -1.8262 0
M  V30 2875 O 270.022 0.59439 -1.7128 0
M  V30 2876 C 270.07 -2.88627 -2.16164 0
M  V30 2877 O 269.174 -2.56409 -3.22998 0
M  V30 2878 H 268.515 -0.574301 -0.333278 0
M  V30 2879 H 271.045 -1.99853 -0.438152 0
M  V30 2880 H 271.055 -3.14455 -2.59966 0
M  V30 2881 H 269.73 -3.81294 -1.66095 0
M  V30 2882 H 268.307 -2.4136 -2.84253 0
M  V30 2883 N 270.492 0.636531 -1.44174 0
M  V30 2884 C 271.717 1.42847 -1.50364 0
M  V30 2885 C 272.142 1.87665 -0.127867 0
M  V30 2886 O 271.5 1.58408 0.88185 0
M  V30 2887 C 271.548 2.62854 -2.4686 0
M  V30 2888 O 270.652 3.62501 -1.9664 0
M  V30 2889 H 269.993 0.427642 -0.507955 0
M  V30 2890 H 272.523 0.777422 -1.89255 0
M  V30 2891 H 272.533 3.10465 -2.64718 0
M  V30 2892 H 271.208 2.29578 -3.46795 0
M  V30 2893 H 269.785 3.21735 -1.88523 0
M  V30 2894 N 271.97 1.30982 0.876444 0
M  V30 2895 C 272.917 1.18085 1.98304 0
M  V30 2896 C 273.887 0.0682263 1.6596 0
M  V30 2897 O 275.072 0.239937 1.89285 0
M  V30 2898 C 272.212 0.887475 3.33493 0
M  V30 2899 C 271.325 2.08281 3.78475 0
M  V30 2900 C 270.46 1.72678 5.0235 0
M  V30 2901 C 269.499 2.88657 5.39762 0
M  V30 2902 N 268.636 2.53292 6.54819 0
M  V30 2903 H 273.476 2.1275 2.08666 0
M  V30 2904 H 271.013 1.05839 1.02159 0
M  V30 2905 H 272.971 0.697961 4.1132 0
M  V30 2906 H 271.601 -0.022315 3.22792 0
M  V30 2907 H 270.653 2.3833 2.96484 0
M  V30 2908 H 271.965 2.95108 4.02135 0
M  V30 2909 H 271.119 1.50151 5.87826 0
M  V30 2910 H 269.858 0.830327 4.8058 0
M  V30 2911 H 268.863 3.1184 4.52809 0
M  V30 2912 H 270.088 3.79002 5.63502 0
M  V30 2913 H 268.034 1.66163 6.34607 0
M  V30 2914 H 267.951 3.3365 6.7839 0
M  V30 2915 H 269.219 2.34143 7.43503 0
M  V30 2916 N 273.449 -1.08991 1.13837 0
M  V30 2917 C 274.674 -1.85551 0.926585 0
M  V30 2918 C 275.099 -1.80782 -0.519566 0
M  V30 2919 O 274.457 -1.18855 -1.36906 0
M  V30 2920 C 274.505 -3.31266 1.42462 0
M  V30 2921 O 273.609 -4.07822 0.612789 0
M  V30 2922 H 272.95 -0.575192 0.331738 0
M  V30 2923 H 275.48 -1.37604 1.51414 0
M  V30 2924 H 275.49 -3.82112 1.43019 0
M  V30 2925 H 274.165 -3.34052 2.47754 0
M  V30 2926 H 272.742 -3.66731 0.675463 0
M  V30 2927 N 274.927 -0.932562 -1.27047 0
M  V30 2928 C 276.175 -0.574422 -1.93765 0
M  V30 2929 C 276.496 0.887993 -1.73608 0
M  V30 2930 O 275.766 1.62999 -1.08665 0
M  V30 2931 H 274.346 -0.209451 -0.717035 0
M  V30 2932 H 277.008 -1.18601 -1.5466 0
M  V30 2933 H 276.104 -0.784841 -3.02071 0
M  V30 2934 N 276.405 1.4127 -0.698611 0
M  V30 2935 C 277.682 1.94955 -0.158762 0
M  V30 2936 C 278.062 1.63781 1.33188 0
M  V30 2937 O 277.41 0.946423 2.07979 0
M  V30 2938 C 277.62 3.46044 -0.453309 0
M  V30 2939 C 278.968 4.22872 -0.382707 0
M  V30 2940 O 279.992 3.54076 -0.388396 0
M  V30 2941 O 278.851 5.45407 -0.345463 0
M  V30 2942 H 275.945 0.82683 -0.0167505 0
M  V30 2943 H 278.491 1.50971 -0.77498 0
M  V30 2944 H 277.263 3.62028 -1.48498 0
M  V30 2945 H 276.886 3.97128 0.19373 0
M  V30 2946 N 277.883 0.443576 1.51229 0
M  V30 2947 C 278.831 -0.37904 2.29491 0
M  V30 2948 C 279.825 -1.0153 1.35603 0
M  V30 2949 O 281.031 -0.94955 1.52917 0
M  V30 2950 H 277.406 -0.141053 0.738653 0
M  V30 2951 H 279.377 0.301799 2.9687 0
M  V30 2952 C 278.126 -1.46426 3.15364 0
M  V30 2953 H 277.449 -0.984037 3.87501 0
M  V30 2954 H 278.889 -2.01297 3.7317 0
M  V30 2955 C 277.348 -2.45099 2.31146 0
M  V30 2956 O 277.878 -3.49773 1.9754 0
M  V30 2957 N 276.084 -2.16139 1.94249 0
M  V30 2958 H 275.631 -1.31044 2.21777 0
M  V30 2959 H 275.589 -2.82398 1.38198 0
M  V30 2960 N 279.361 -1.56624 0.175154 0
M  V30 2961 C 280.586 -2.01813 -0.478137 0
M  V30 2962 C 281.011 -1.05457 -1.55757 0
M  V30 2963 O 280.369 -0.0347439 -1.81267 0
M  V30 2964 C 280.417 -3.45581 -1.02987 0
M  V30 2965 O 279.521 -3.52305 -2.14371 0
M  V30 2966 H 278.862 -0.65413 -0.114059 0
M  V30 2967 H 281.392 -2.02673 0.280173 0
M  V30 2968 H 281.402 -3.84965 -1.35151 0
M  V30 2969 H 280.077 -4.1521 -0.239556 0
M  V30 2970 H 278.654 -3.24783 -1.83222 0
M  V30 2971 N 280.839 0.0985539 -1.57292 0
M  V30 2972 C 282.064 0.820196 -1.90493 0
M  V30 2973 C 282.489 1.71658 -0.769094 0
M  V30 2974 O 281.847 1.79133 0.279495 0
M  V30 2975 C 281.895 1.61242 -3.22542 0
M  V30 2976 O 280.999 2.72108 -3.09888 0
M  V30 2977 H 280.34 0.225547 -0.62452 0
M  V30 2978 H 282.87 0.0748159 -2.04463 0
M  V30 2979 H 282.88 1.99737 -3.55766 0
M  V30 2980 H 281.555 0.954535 -4.04798 0
M  V30 2981 H 280.132 2.36667 -2.88172 0
M  V30 2982 N 282.317 1.53212 0.369288 0
M  V30 2983 C 283.542 1.73423 1.1375 0
M  V30 2984 C 283.967 0.460404 1.82378 0
M  V30 2985 O 283.325 -0.585298 1.71592 0
M  V30 2986 C 283.373 2.89769 2.1463 0
M  V30 2987 O 282.477 2.58119 3.21634 0
M  V30 2988 H 281.818 0.576061 0.330227 0
M  V30 2989 H 284.348 2.00083 0.427547 0
M  V30 2990 H 284.358 3.15829 2.58294 0
M  V30 2991 H 283.033 3.8217 1.64071 0
M  V30 2992 H 281.61 2.42864 2.82969 0
M  V30 2993 N 283.795 -0.628877 1.44509 0
M  V30 2994 C 285.02 -1.42048 1.5112 0
M  V30 2995 C 285.445 -1.87594 0.137818 0
M  V30 2996 O 284.803 -1.58873 -0.873437 0
M  V30 2997 C 284.851 -2.61541 2.48251 0
M  V30 2998 O 283.955 -3.61453 1.98559 0
M  V30 2999 H 283.296 -0.424942 0.510216 0
M  V30 3000 H 285.826 -0.767374 1.89664 0
M  V30 3001 H 285.836 -3.09057 2.66361 0
M  V30 3002 H 284.511 -2.27736 3.48007 0
M  V30 3003 H 283.088 -3.20731 1.90227 0
M  V30 3004 N 285.273 -1.31445 -0.869486 0
M  V30 3005 C 286.203 -1.21727 -1.99261 0
M  V30 3006 C 287.184 -0.104359 -1.6978 0
M  V30 3007 O 288.369 -0.289038 -1.92037 0
M  V30 3008 C 285.499 -0.924317 -3.34774 0
M  V30 3009 C 284.453 -1.99685 -3.78563 0
M  V30 3010 C 283.779 -1.55658 -5.11541 0
M  V30 3011 C 285.079 -3.41003 -3.95619 0
M  V30 3012 H 286.773 -2.1569 -2.07649 0
M  V30 3013 H 284.319 -1.03839 -0.997675 0
M  V30 3014 H 286.272 -0.842934 -4.12883 0
M  V30 3015 H 284.996 0.0509793 -3.2656 0
M  V30 3016 H 283.655 -2.06813 -3.02694 0
M  V30 3017 H 283.303 -0.569132 -4.9977 0
M  V30 3018 H 283.003 -2.27409 -5.41811 0
M  V30 3019 H 284.527 -1.48928 -5.92159 0
M  V30 3020 H 285.941 -3.36547 -4.64122 0
M  V30 3021 H 284.338 -4.10975 -4.37286 0
M  V30 3022 H 285.408 -3.81754 -2.98985 0
M  V30 3023 N 286.751 1.08385 -1.14413 0
M  V30 3024 C 287.999 1.80419 -0.910679 0
M  V30 3025 C 288.32 1.86658 0.564243 0
M  V30 3026 O 287.59 1.35985 1.41014 0
M  V30 3027 H 286.17 0.668204 -0.333934 0
M  V30 3028 H 288.832 1.31037 -1.44275 0
M  V30 3029 H 287.928 2.83238 -1.31082 0
M  V30 3030 N 288.23 0.939286 1.26551 0
M  V30 3031 C 289.507 0.5038 1.89001 0
M  V30 3032 C 289.887 -1.01854 1.84903 0
M  V30 3033 O 289.235 -1.87773 1.30206 0
M  V30 3034 C 289.445 1.063 3.32417 0
M  V30 3035 C 290.793 1.13051 4.09273 0
M  V30 3036 O 291.817 1.01345 3.41479 0
M  V30 3037 O 290.676 1.31233 5.30509 0
M  V30 3038 H 287.77 0.163897 0.810597 0
M  V30 3039 H 290.316 1.03173 1.34735 0
M  V30 3040 H 289.088 2.10665 3.29752 0
M  V30 3041 H 288.711 0.517408 3.94219 0
M  V30 3042 N 289.708 -1.40897 0.706093 0
M  V30 3043 C 290.954 -2.01352 0.241889 0
M  V30 3044 C 291.287 -1.55832 -1.15888 0
M  V30 3045 O 290.562 -0.774145 -1.7843 0
M  V30 3046 C 290.845 -3.58752 0.311311 0
M  V30 3047 C 290.698 -4.1437 1.74978 0
M  V30 3048 C 292.017 -4.38914 -0.322922 0
M  V30 3049 H 289.136 -0.731562 0.0893687 0
M  V30 3050 H 291.778 -1.67504 0.896802 0
M  V30 3051 H 289.928 -3.87718 -0.246302 0
M  V30 3052 H 291.6 -3.96239 2.36205 0
M  V30 3053 H 289.843 -3.69016 2.28057 0
M  V30 3054 H 290.514 -5.23532 1.74981 0
M  V30 3055 H 292.99 -4.15822 0.152089 0
M  V30 3056 H 291.866 -5.48358 -0.243855 0
M  V30 3057 H 292.127 -4.19176 -1.40513 0
M  V30 3058 N 291.186 -0.45159 -1.50991 0
M  V30 3059 C 292.432 0.110237 -2.025 0
M  V30 3060 C 292.765 1.41109 -1.33424 0
M  V30 3061 O 292.04 1.89135 -0.453659 0
M  V30 3062 C 292.323 0.314271 -3.58726 0
M  V30 3063 C 292.176 -1.00623 -4.38401 0
M  V30 3064 C 293.495 1.07767 -4.26702 0
M  V30 3065 H 290.614 0.0385897 -0.735989 0
M  V30 3066 H 293.256 -0.593374 -1.80497 0
M  V30 3067 H 291.406 0.913601 -3.77605 0
M  V30 3068 H 293.078 -1.64064 -4.31139 0
M  V30 3069 H 291.321 -1.6075 -4.02917 0
M  V30 3070 H 291.992 -0.817341 -5.45915 0
M  V30 3071 H 294.468 0.56986 -4.12179 0
M  V30 3072 H 293.344 1.18921 -5.35863 0
M  V30 3073 H 293.605 2.10939 -3.88532 0
M  V30 3074 N 292.664 1.56529 -0.183458 0
M  V30 3075 C 293.892 2.01623 0.464285 0
M  V30 3076 C 294.307 1.06366 1.55986 0
M  V30 3077 O 293.664 0.0665398 1.82379 0
M  V30 3078 C 293.715 3.46475 1.03139 0
M  V30 3079 O 293.436 4.38095 -0.0204675 0
M  V30 3080 C 294.937 4.0703 1.75617 0
M  V30 3081 H 292.157 0.660596 0.117704 0
M  V30 3082 H 294.701 2.02451 -0.288751 0
M  V30 3083 H 292.856 3.46383 1.73486 0
M  V30 3084 H 293.27 5.22973 0.399952 0
M  V30 3085 H 294.744 5.10271 2.10542 0
M  V30 3086 H 295.221 3.49819 2.65563 0
M  V30 3087 H 295.827 4.1086 1.09882 0
M  V30 3088 N 294.142 -0.090211 1.57342 0
M  V30 3089 C 295.39 -0.791241 1.85967 0
M  V30 3090 C 295.711 -1.7903 0.772859 0
M  V30 3091 O 294.981 -1.94872 -0.200398 0
M  V30 3092 H 293.561 -0.295205 0.686195 0
M  V30 3093 H 296.223 -0.0706782 1.94772 0
M  V30 3094 H 295.319 -1.31882 2.82867 0
M  V30 3095 N 295.62 -1.53406 -0.361157 0
M  V30 3096 C 296.848 -1.73717 -1.12383 0
M  V30 3097 C 297.263 -0.468161 -1.82904 0
M  V30 3098 O 296.62 0.559198 -1.73722 0
M  V30 3099 C 296.671 -2.90558 -2.15078 0
M  V30 3100 O 296.392 -4.12549 -1.47428 0
M  V30 3101 C 297.893 -3.22777 -3.03858 0
M  V30 3102 H 295.113 -0.580896 -0.335858 0
M  V30 3103 H 297.657 -2.00167 -0.418728 0
M  V30 3104 H 295.812 -2.66489 -2.8118 0
M  V30 3105 H 296.226 -4.78009 -2.15887 0
M  V30 3106 H 297.7 -4.07927 -3.71887 0
M  V30 3107 H 298.177 -2.38329 -3.68912 0
M  V30 3108 H 298.783 -3.48787 -2.43367 0
M  V30 3109 N 297.098 0.621204 -1.44841 0
M  V30 3110 C 298.514 0.94048 -1.28946 0
M  V30 3111 C 298.714 2.00154 -0.23249 0
M  V30 3112 O 297.77 2.49651 0.378237 0
M  V30 3113 C 299.083 1.39433 -2.66419 0
M  V30 3114 C 300.631 1.50927 -2.74208 0
M  V30 3115 C 301.106 1.99692 -4.12174 0
M  V30 3116 N 302.597 2.06947 -4.144 0
M  V30 3117 C 303.332 2.45871 -5.1801 0
M  V30 3118 N 302.828 2.83862 -6.31977 0
M  V30 3119 N 304.621 2.46092 -5.05366 0
M  V30 3120 H 296.772 -0.0803548 -2.12248 0
M  V30 3121 H 299.035 0.0266913 -0.947624 0
M  V30 3122 H 298.741 0.688925 -3.44887 0
M  V30 3123 H 298.615 2.36347 -2.93973 0
M  V30 3124 H 301.002 2.20561 -1.96053 0
M  V30 3125 H 301.083 0.523627 -2.50383 0
M  V30 3126 H 300.727 1.30649 -4.90809 0
M  V30 3127 H 300.657 2.99146 -4.33381 0
M  V30 3128 H 303.148 1.80232 -3.32152 0
M  V30 3129 H 303.461 3.12405 -7.0684 0
M  V30 3130 H 301.806 2.8159 -6.35399 0
M  V30 3131 H 304.997 2.1581 -4.15384 0
M  V30 3132 H 305.17 2.76102 -5.86235 0
M  V30 3133 N 298.576 1.31904 0.862503 0
M  V30 3134 C 299.992 1.10724 1.14945 0
M  V30 3135 C 300.192 -0.117421 2.01158 0
M  V30 3136 O 299.248 -0.804595 2.39338 0
M  V30 3137 C 300.561 2.38267 1.83437 0
M  V30 3138 C 302.109 2.43949 1.96106 0
M  V30 3139 C 302.584 3.71394 2.68013 0
M  V30 3140 N 304.075 3.72331 2.75543 0
M  V30 3141 C 304.81 4.67641 3.31812 0
M  V30 3142 N 304.306 5.73313 3.88953 0
M  V30 3143 N 306.099 4.5515 3.29841 0
M  V30 3144 H 298.25 2.10436 0.288191 0
M  V30 3145 H 300.513 0.928705 0.190292 0
M  V30 3146 H 300.219 3.27759 1.27542 0
M  V30 3147 H 300.093 2.48633 2.83657 0
M  V30 3148 H 302.48 1.54922 2.51164 0
M  V30 3149 H 302.561 2.37543 0.949059 0
M  V30 3150 H 302.205 4.60791 2.13621 0
M  V30 3151 H 302.135 3.75069 3.69636 0
M  V30 3152 H 304.626 2.95947 2.34997 0
M  V30 3153 H 304.939 6.42107 4.30022 0
M  V30 3154 H 303.284 5.77077 3.87308 0
M  V30 3155 H 306.475 3.71766 2.84443 0
M  V30 3156 H 306.648 5.29604 3.73394 0
M  V30 3157 N 300.054 -1.07777 1.14986 0
M  V30 3158 C 301.465 -1.61766 0.932127 0
M  V30 3159 C 301.816 -1.88974 -0.527581 0
M  V30 3160 O 300.941 -1.65198 -1.39781 0
M  V30 3161 C 301.536 -2.93891 1.68563 0
M  V30 3162 C 300.095 -3.44639 1.5133 0
M  V30 3163 C 299.242 -2.18767 1.704 0
M  V30 3164 H 302.193 -0.909201 1.30074 0
M  V30 3165 H 302.214 -3.62623 1.15259 0
M  V30 3166 H 301.726 -2.74057 2.74799 0
M  V30 3167 H 299.827 -3.69564 0.474702 0
M  V30 3168 H 299.94 -4.20966 2.28746 0
M  V30 3169 H 298.304 -2.28253 1.13016 0
M  V30 3170 H 299.087 -2.01433 2.77992 0
M  V30 3171 N 301.532 -0.945985 -1.26051 0
M  V30 3172 C 302.76 -0.613025 -1.9761 0
M  V30 3173 C 303.175 0.813035 -1.70397 0
M  V30 3174 O 302.532 1.54274 -0.974979 0
M  V30 3175 C 302.583 -0.85159 -3.51326 0
M  V30 3176 O 302.304 -2.22157 -3.77595 0
M  V30 3177 C 303.805 -0.529831 -4.40122 0
M  V30 3178 H 301.025 -0.230593 -0.630133 0
M  V30 3179 H 303.569 -1.268 -1.60443 0
M  V30 3180 H 301.724 -0.243151 -3.86636 0
M  V30 3181 H 302.138 -2.2852 -4.721 0
M  V30 3182 H 303.612 -0.747348 -5.46917 0
M  V30 3183 H 304.089 0.535341 -4.35925 0
M  V30 3184 H 304.695 -1.11721 -4.10364 0
M  V30 3185 N 303.011 1.40521 -0.713556 0
M  V30 3186 C 304.422 1.83853 -0.324807 0
M  V30 3187 C 304.773 1.59667 1.14021 0
M  V30 3188 O 303.898 1.07649 1.87725 0
M  V30 3189 C 304.493 3.33751 -0.582746 0
M  V30 3190 C 303.052 3.75584 -0.247727 0
M  V30 3191 C 302.199 2.63753 -0.856121 0
M  V30 3192 H 305.15 1.29817 -0.91286 0
M  V30 3193 H 305.171 3.80194 0.152682 0
M  V30 3194 H 304.683 3.51322 -1.64908 0
M  V30 3195 H 302.784 3.63608 0.813624 0
M  V30 3196 H 302.897 4.7373 -0.715307 0
M  V30 3197 H 301.261 2.53108 -0.28432 0
M  V30 3198 H 302.044 2.84137 -1.92668 0
M  V30 3199 N 304.489 0.459591 1.5075 0
M  V30 3200 C 305.9 0.00171547 1.867 0
M  V30 3201 C 306.251 -1.39934 1.37525 0
M  V30 3202 O 305.376 -2.03523 0.735349 0
M  V30 3203 C 305.971 -0.00366298 3.388 0
M  V30 3204 C 304.53 -0.406026 3.74204 0
M  V30 3205 C 303.677 0.38673 2.7459 0
M  V30 3206 H 306.628 0.674413 1.43657 0
M  V30 3207 H 306.649 -0.808371 3.71814 0
M  V30 3208 H 306.161 1.01617 3.74561 0
M  V30 3209 H 304.262 -1.43063 3.4404 0
M  V30 3210 H 304.375 -0.115362 4.78961 0
M  V30 3211 H 302.739 -0.158019 2.54209 0
M  V30 3212 H 303.522 1.40585 3.13194 0
M  V30 3213 N 305.967 -1.56429 0.191757 0
M  V30 3214 C 306.93 -2.17707 -0.716688 0
M  V30 3215 C 307.93 -1.13061 -1.14341 0
M  V30 3216 O 309.12 -1.38464 -1.05704 0
M  V30 3217 C 306.252 -2.77644 -1.97804 0
M  V30 3218 H 307.445 -2.99342 -0.1829 0
M  V30 3219 H 304.998 -1.56193 -0.0578566 0
M  V30 3220 H 305.733 -1.99799 -2.55443 0
M  V30 3221 H 305.518 -3.54246 -1.68083 0
M  V30 3222 H 307.008 -3.24708 -2.62592 0
M  V30 3223 N 307.445 0.0818655 -1.57387 0
M  V30 3224 C 308.67 0.799946 -1.91352 0
M  V30 3225 C 309.095 1.70833 -0.787258 0
M  V30 3226 O 308.453 1.79419 0.26048 0
M  V30 3227 C 308.501 1.57812 -3.24234 0
M  V30 3228 O 307.605 2.68806 -3.12757 0
M  V30 3229 H 306.946 0.21891 -0.626877 0
M  V30 3230 H 309.476 0.0531256 -2.04531 0
M  V30 3231 H 309.486 1.95952 -3.57864 0
M  V30 3232 H 308.161 0.911548 -4.05788 0
M  V30 3233 H 306.738 2.33597 -2.90666 0
M  V30 3234 N 308.923 1.53595 0.353017 0
M  V30 3235 C 309.886 1.80232 1.41594 0
M  V30 3236 C 310.886 0.673081 1.46035 0
M  V30 3237 O 312.076 0.941335 1.46576 0
M  V30 3238 C 309.208 1.93578 2.80607 0
M  V30 3239 H 310.401 2.75174 1.19244 0
M  V30 3240 H 307.954 1.44864 0.586872 0
M  V30 3241 H 308.689 1.00746 3.08254 0
M  V30 3242 H 308.474 2.75724 2.78781 0
M  V30 3243 H 309.964 2.15735 3.57558 0
M  V30 3244 N 310.401 -0.613514 1.45168 0
M  V30 3245 C 311.348 -1.72456 1.53387 0
M  V30 3246 C 312.318 -1.6169 0.380191 0
M  V30 3247 O 313.503 -1.81356 0.592836 0
M  V30 3248 C 310.643 -3.10753 1.50088 0
M  V30 3249 C 309.756 -3.32368 2.75963 0
M  V30 3250 C 308.891 -4.60737 2.64376 0
M  V30 3251 C 307.93 -4.7559 3.85332 0
M  V30 3252 N 307.067 -5.95253 3.72315 0
M  V30 3253 H 311.907 -1.64768 2.48305 0
M  V30 3254 H 309.444 -0.803503 1.23216 0
M  V30 3255 H 311.402 -3.90758 1.46164 0
M  V30 3256 H 310.032 -3.17413 0.587243 0
M  V30 3257 H 309.084 -2.4618 2.89999 0
M  V30 3258 H 310.396 -3.39218 3.65695 0
M  V30 3259 H 309.55 -5.48928 2.58385 0
M  V30 3260 H 308.289 -4.56275 1.72233 0
M  V30 3261 H 307.294 -3.85824 3.91688 0
M  V30 3262 H 308.519 -4.81854 4.78533 0
M  V30 3263 H 306.465 -5.91847 2.82937 0
M  V30 3264 H 306.382 -6.03236 4.55677 0
M  V30 3265 H 307.65 -6.85958 3.70246 0
M  V30 3266 N 311.879 -1.3236 -0.855495 0
M  V30 3267 C 312.811 -1.17052 -1.97057 0
M  V30 3268 C 313.824 -0.10574 -1.62456 0
M  V30 3269 O 315.013 -0.354619 -1.74942 0
M  V30 3270 C 312.113 -0.769305 -3.30053 0
M  V30 3271 C 311.286 -1.9222 -3.929 0
M  V30 3272 C 310.345 -1.50466 -5.04228 0
M  V30 3273 O 309.371 -2.21655 -5.24269 0
M  V30 3274 N 310.573 -0.400209 -5.79119 0
M  V30 3275 H 313.338 -2.13103 -2.1073 0
M  V30 3276 H 310.899 -1.24885 -1.0303 0
M  V30 3277 H 312.891 -0.472407 -4.01933 0
M  V30 3278 H 311.461 0.100025 -3.1244 0
M  V30 3279 H 310.681 -2.38563 -3.13817 0
M  V30 3280 H 311.969 -2.69403 -4.31624 0
M  V30 3281 H 311.367 0.192319 -5.65373 0
M  V30 3282 H 309.924 -0.162912 -6.51596 0
M  V30 3283 N 313.357 1.07166 -1.15556 0
M  V30 3284 C 314.304 2.14417 -0.854055 0
M  V30 3285 C 315.274 1.64965 0.193806 0
M  V30 3286 O 316.459 1.90703 0.0609443 0
M  V30 3287 C 313.599 3.43304 -0.351574 0
M  V30 3288 C 312.712 4.06537 -1.46123 0
M  V30 3289 C 311.847 5.23266 -0.914677 0
M  V30 3290 C 310.886 5.78464 -2.00114 0
M  V30 3291 N 310.023 6.86521 -1.47083 0
M  V30 3292 H 314.863 2.39548 -1.77259 0
M  V30 3293 H 312.4 1.17543 -0.884425 0
M  V30 3294 H 314.358 4.17179 -0.0419409 0
M  V30 3295 H 312.988 3.18419 0.530037 0
M  V30 3296 H 312.04 3.30297 -1.88701 0
M  V30 3297 H 313.352 4.43567 -2.28144 0
M  V30 3298 H 312.506 6.04131 -0.557698 0
M  V30 3299 H 311.245 4.87658 -0.0636583 0
M  V30 3300 H 310.25 4.96243 -2.36692 0
M  V30 3301 H 311.475 6.16126 -2.85597 0
M  V30 3302 H 309.421 6.52849 -0.642198 0
M  V30 3303 H 309.338 7.22446 -2.22729 0
M  V30 3304 H 310.606 7.71087 -1.14215 0
M  V30 3305 N 314.835 0.952656 1.25548 0
M  V30 3306 C 315.767 0.428609 2.25157 0
M  V30 3307 C 316.78 -0.454428 1.56329 0
M  V30 3308 O 317.969 -0.263023 1.76552 0
M  V30 3309 C 315.069 -0.401972 3.36508 0
M  V30 3310 C 314.242 0.467601 4.34893 0
M  V30 3311 C 313.301 -0.30445 5.25319 0
M  V30 3312 O 312.327 0.296473 5.68427 0
M  V30 3313 N 313.529 -1.59805 5.5807 0
M  V30 3314 H 316.294 1.28497 2.70756 0
M  V30 3315 H 313.855 0.822798 1.39433 0
M  V30 3316 H 315.847 -0.926134 3.9396 0
M  V30 3317 H 314.417 -1.15918 2.90313 0
M  V30 3318 H 313.637 1.17288 3.76347 0
M  V30 3319 H 314.925 1.06119 4.97611 0
M  V30 3320 H 314.323 -2.10823 5.24948 0
M  V30 3321 H 312.88 -2.06822 6.18116 0
M  V30 3322 N 316.313 -1.40141 0.720998 0
M  V30 3323 C 317.26 -2.30688 0.071919 0
M  V30 3324 C 318.23 -1.48476 -0.744584 0
M  V30 3325 O 319.415 -1.77201 -0.707423 0
M  V30 3326 C 316.555 -3.34724 -0.839855 0
M  V30 3327 C 315.668 -4.31998 -0.0122438 0
M  V30 3328 C 314.803 -5.23102 -0.923995 0
M  V30 3329 C 313.842 -6.12033 -0.0907969 0
M  V30 3330 N 312.979 -6.95537 -0.957718 0
M  V30 3331 H 317.819 -2.85628 0.849755 0
M  V30 3332 H 315.356 -1.40653 0.430726 0
M  V30 3333 H 317.314 -3.93618 -1.38279 0
M  V30 3334 H 315.944 -2.81274 -1.58381 0
M  V30 3335 H 314.996 -3.74841 0.64794 0
M  V30 3336 H 316.308 -4.94772 0.632595 0
M  V30 3337 H 315.462 -5.86953 -1.53527 0
M  V30 3338 H 314.201 -4.60615 -1.60264 0
M  V30 3339 H 313.206 -5.47207 0.533377 0
M  V30 3340 H 314.431 -6.76581 0.584428 0
M  V30 3341 H 312.377 -6.35633 -1.62192 0
M  V30 3342 H 312.294 -7.55099 -0.36904 0
M  V30 3343 H 313.562 -7.63832 -1.555 0
M  V30 3344 N 317.792 -0.46758 -1.50504 0
M  V30 3345 C 319.017 0.0886943 -2.0721 0
M  V30 3346 C 319.442 1.33057 -1.32956 0
M  V30 3347 O 318.8 1.77354 -0.376197 0
M  V30 3348 C 318.848 0.359202 -3.58806 0
M  V30 3349 O 317.952 1.44034 -3.8643 0
M  V30 3350 H 317.293 -0.0114349 -0.663902 0
M  V30 3351 H 319.823 -0.657613 -1.93744 0
M  V30 3352 H 319.833 0.600742 -4.03553 0
M  V30 3353 H 318.508 -0.548311 -4.1227 0
M  V30 3354 H 317.085 1.18638 -3.53524 0
M  V30 3355 N 319.27 1.56325 -0.20005 0
M  V30 3356 C 320.498 2.02105 0.442874 0
M  V30 3357 C 320.913 1.08014 1.5485 0
M  V30 3358 O 320.27 0.0858797 1.82298 0
M  V30 3359 C 320.321 3.47549 0.994583 0
M  V30 3360 O 320.042 4.38049 -0.0669322 0
M  V30 3361 C 321.543 4.0887 1.7129 0
M  V30 3362 H 318.763 0.661807 0.110691 0
M  V30 3363 H 321.307 2.02134 -0.310207 0
M  V30 3364 H 319.462 3.48204 1.69803 0
M  V30 3365 H 319.876 5.23368 0.344462 0
M  V30 3366 H 321.35 5.12475 2.05118 0
M  V30 3367 H 321.827 3.52615 2.61838 0
M  V30 3368 H 322.433 4.12002 1.05518 0
M  V30 3369 N 320.748 -0.0735177 1.57428 0
M  V30 3370 C 321.658 -1.10547 2.06922 0
M  V30 3371 C 322.674 -1.42506 0.998402 0
M  V30 3372 O 323.85 -1.52717 1.31299 0
M  V30 3373 C 320.915 -2.40019 2.50184 0
M  V30 3374 C 319.976 -2.15046 3.71556 0
M  V30 3375 C 319.209 -3.38345 4.12745 0
M  V30 3376 O 319.432 -4.47399 3.53822 0
M  V30 3377 O 318.366 -3.2666 5.05546 0
M  V30 3378 H 322.192 -0.715013 2.95163 0
M  V30 3379 H 319.777 -0.287531 1.46607 0
M  V30 3380 H 321.659 -3.16218 2.78539 0
M  V30 3381 H 320.334 -2.78447 1.65072 0
M  V30 3382 H 319.241 -1.36558 3.48285 0
M  V30 3383 H 320.574 -1.81499 4.57514 0
M  V30 3384 N 322.226 -1.5378 -0.344866 0
M  V30 3385 C 323.176 -1.78057 -1.42407 0
M  V30 3386 C 324.16 -0.635732 -1.47808 0
M  V30 3387 O 325.352 -0.89508 -1.527 0
M  V30 3388 C 322.481 -1.99242 -2.79566 0
M  V30 3389 C 321.567 -3.19787 -2.78562 0
M  V30 3390 N 321.958 -4.41284 -2.47189 0
M  V30 3391 C 320.256 -3.2093 -3.0971 0
M  V30 3392 C 320.957 -5.23128 -2.54385 0
M  V30 3393 N 319.933 -4.59813 -2.89953 0
M  V30 3394 H 323.735 -2.69588 -1.17046 0
M  V30 3395 H 321.249 -1.52687 -0.553217 0
M  V30 3396 H 323.246 -2.14768 -3.57324 0
M  V30 3397 H 321.906 -1.08953 -3.05875 0
M  V30 3398 H 322.917 -4.68657 -2.20411 0
M  V30 3399 H 319.594 -2.40603 -3.41199 0
M  V30 3400 H 320.984 -6.30096 -2.333 0
M  V30 3401 N 323.704 0.605807 -1.45491 0
M  V30 3402 C 324.95 1.36679 -1.49823 0
M  V30 3403 C 325.283 1.93693 -0.140175 0
M  V30 3404 O 324.558 1.75158 0.845581 0
M  V30 3405 C 324.841 2.51337 -2.57879 0
M  V30 3406 C 324.694 1.99508 -4.03134 0
M  V30 3407 C 326.013 3.53463 -2.62205 0
M  V30 3408 H 323.132 0.495617 -0.545466 0
M  V30 3409 H 325.774 0.682732 -1.7731 0
M  V30 3410 H 323.924 3.09691 -2.34571 0
M  V30 3411 H 325.596 1.45789 -4.37656 0
M  V30 3412 H 323.839 1.30496 -4.13707 0
M  V30 3413 H 324.51 2.82169 -4.74431 0
M  V30 3414 H 326.986 3.04953 -2.83095 0
M  V30 3415 H 325.862 4.31178 -3.39672 0
M  V30 3416 H 326.123 4.09197 -1.67363 0
M  V30 3417 N 325.182 1.32811 0.848464 0
M  V30 3418 C 326.593 1.21315 1.41914 0
M  V30 3419 C 326.944 -0.171847 1.95446 0
M  V30 3420 O 326.069 -1.07093 1.88043 0
M  V30 3421 C 326.664 2.19631 2.57968 0
M  V30 3422 C 325.223 2.12003 3.11017 0
M  V30 3423 C 324.37 2.07651 1.83783 0
M  V30 3424 H 327.321 1.44549 0.655071 0
M  V30 3425 H 327.342 1.79845 3.35315 0
M  V30 3426 H 326.854 3.20423 2.18976 0
M  V30 3427 H 324.955 1.14481 3.54577 0
M  V30 3428 H 325.068 3.02111 3.71841 0
M  V30 3429 H 323.432 1.52983 2.03638 0
M  V30 3430 H 324.215 3.10235 1.47 0
M  V30 3431 N 326.66 -1.06551 1.16123 0
M  V30 3432 C 328.071 -1.60768 0.949232 0
M  V30 3433 C 328.422 -1.89523 -0.507508 0
M  V30 3434 O 327.547 -1.66671 -1.38021 0
M  V30 3435 C 328.142 -2.92086 1.71671 0
M  V30 3436 C 326.701 -3.43015 1.54977 0
M  V30 3437 C 325.848 -2.16947 1.72711 0
M  V30 3438 H 328.799 -0.895354 1.31031 0
M  V30 3439 H 328.82 -3.6138 1.19099 0
M  V30 3440 H 328.332 -2.71127 2.7769 0
M  V30 3441 H 326.433 -3.69039 0.513873 0
M  V30 3442 H 326.546 -4.18516 2.33198 0
M  V30 3443 H 324.91 -2.27041 1.15431 0
M  V30 3444 H 325.693 -1.98473 2.80113 0
M  V30 3445 N 328.138 -0.959301 -1.25041 0
M  V30 3446 C 329.368 -0.63303 -1.96663 0
M  V30 3447 C 329.776 0.800031 -1.71453 0
M  V30 3448 O 329.119 1.54736 -0.99008 0
M  V30 3449 C 329.181 -0.817523 -3.50081 0
M  V30 3450 C 328.845 -2.22863 -3.98975 0
M  V30 3451 C 329.842 -3.20569 -4.09306 0
M  V30 3452 C 327.527 -2.55407 -4.32519 0
M  V30 3453 C 329.521 -4.4891 -4.52503 0
M  V30 3454 C 327.208 -3.83976 -4.754 0
M  V30 3455 C 328.206 -4.8054 -4.85356 0
M  V30 3456 O 327.894 -6.06817 -5.27284 0
M  V30 3457 H 327.626 -0.235866 -0.633516 0
M  V30 3458 H 330.18 -1.2874 -1.60047 0
M  V30 3459 H 328.41 -0.105992 -3.86555 0
M  V30 3460 H 330.099 -0.491604 -4.02912 0
M  V30 3461 H 330.865 -2.96753 -3.83618 0
M  V30 3462 H 326.744 -1.8097 -4.23994 0
M  V30 3463 H 330.288 -5.24283 -4.60188 0
M  V30 3464 H 326.185 -4.07596 -5.00535 0
M  V30 3465 H 326.953 -6.10262 -5.45457 0
M  V30 3466 N 329.616 1.39756 -0.72842 0
M  V30 3467 C 330.893 1.94574 -0.200079 0
M  V30 3468 C 331.273 1.66569 1.29684 0
M  V30 3469 O 330.621 0.990326 2.05924 0
M  V30 3470 C 330.831 3.45004 -0.526608 0
M  V30 3471 C 332.179 4.21965 -0.472318 0
M  V30 3472 O 333.203 3.53173 -0.463413 0
M  V30 3473 O 332.062 5.44552 -0.461075 0
M  V30 3474 H 329.156 0.826289 -0.0342851 0
M  V30 3475 H 331.702 1.49293 -0.806829 0
M  V30 3476 H 330.474 3.58796 -1.56144 0
M  V30 3477 H 330.097 3.97449 0.109449 0
M  V30 3478 N 331.094 0.475555 1.50254 0
M  V30 3479 C 332.34 -0.0780073 2.0265 0
M  V30 3480 C 332.673 -1.38968 1.35652 0
M  V30 3481 O 331.948 -1.8839 0.483691 0
M  V30 3482 C 332.231 -0.257161 3.59181 0
M  V30 3483 C 332.084 1.07585 4.36744 0
M  V30 3484 C 333.403 -1.00965 4.28362 0
M  V30 3485 H 330.522 -0.0268758 0.73651 0
M  V30 3486 H 333.164 0.622015 1.7953 0
M  V30 3487 H 331.314 -0.853412 3.79011 0
M  V30 3488 H 332.986 1.70902 4.28474 0
M  V30 3489 H 331.229 1.6714 4.00308 0
M  V30 3490 H 331.9 0.904088 5.44546 0
M  V30 3491 H 334.376 -0.504214 4.13034 0
M  V30 3492 H 333.252 -1.10381 5.37687 0
M  V30 3493 H 333.513 -2.04731 3.91839 0
M  V30 3494 N 332.573 -1.56217 0.208337 0
M  V30 3495 C 333.819 -1.98242 -0.427552 0
M  V30 3496 C 334.152 -1.09554 -1.60348 0
M  V30 3497 O 333.427 -0.15035 -1.93918 0
M  V30 3498 C 333.71 -3.4931 -0.874907 0
M  V30 3499 C 333.563 -4.48773 0.303751 0
M  V30 3500 C 334.882 -4.04424 -1.73577 0
M  V30 3501 H 332.001 -0.720744 -0.153936 0
M  V30 3502 H 334.643 -1.87586 0.30192 0
M  V30 3503 H 332.793 -3.58522 -1.49648 0
M  V30 3504 H 334.465 -4.51586 0.941682 0
M  V30 3505 H 332.708 -4.23194 0.953375 0
M  V30 3506 H 333.379 -5.51976 -0.0519883 0
M  V30 3507 H 335.855 -3.98075 -1.21143 0
M  V30 3508 H 334.731 -5.1047 -2.01771 0
M  V30 3509 H 334.992 -3.50494 -2.69456 0
M  V30 3510 N 334.051 0.0651679 -1.57465 0
M  V30 3511 C 335.462 0.616213 -1.76238 0
M  V30 3512 C 335.813 1.7756 -0.834689 0
M  V30 3513 O 334.938 2.1639 -0.0204156 0
M  V30 3514 C 335.533 1.12462 -3.1959 0
M  V30 3515 C 334.092 1.62147 -3.39684 0
M  V30 3516 C 333.239 0.543739 -2.71917 0
M  V30 3517 H 336.19 -0.161022 -1.57881 0
M  V30 3518 H 336.211 1.99324 -3.24114 0
M  V30 3519 H 335.723 0.280592 -3.87084 0
M  V30 3520 H 333.824 2.48854 -2.77313 0
M  V30 3521 H 333.937 1.69385 -4.48158 0
M  V30 3522 H 332.301 0.990352 -2.34657 0
M  V30 3523 H 333.084 -0.290216 -3.42071 0
M  V30 3524 N 335.529 1.53961 0.336706 0
M  V30 3525 C 336.754 1.75797 1.10046 0
M  V30 3526 C 337.179 0.498985 1.81361 0
M  V30 3527 O 336.537 -0.548769 1.72795 0
M  V30 3528 C 336.585 2.94257 2.08436 0
M  V30 3529 O 335.689 2.64883 3.16087 0
M  V30 3530 H 335.03 0.582936 0.317934 0
M  V30 3531 H 337.56 2.00945 0.38501 0
M  V30 3532 H 337.57 3.21237 2.51537 0
M  V30 3533 H 336.245 3.85564 1.55927 0
M  V30 3534 H 334.822 2.48812 2.77753 0
M  V30 3535 N 337.007 -0.598083 1.45811 0
M  V30 3536 C 337.94 -1.7223 1.49706 0
M  V30 3537 C 338.918 -1.58732 0.352535 0
M  V30 3538 O 340.102 -1.80162 0.554438 0
M  V30 3539 C 337.229 -3.10148 1.3611 0
M  V30 3540 C 336.275 -3.42209 2.54549 0
M  V30 3541 S 337.108 -3.35989 4.16979 0
M  V30 3542 C 338.264 -4.76471 4.05865 0
M  V30 3543 H 338.497 -1.68665 2.44826 0
M  V30 3544 H 336.03 -0.775541 1.33509 0
M  V30 3545 H 337.988 -3.8972 1.28953 0
M  V30 3546 H 336.649 -3.11219 0.424451 0
M  V30 3547 H 335.842 -4.42652 2.40988 0
M  V30 3548 H 335.444 -2.70173 2.58617 0
M  V30 3549 H 337.736 -5.665 3.71596 0
M  V30 3550 H 338.679 -4.95089 5.06253 0
M  V30 3551 H 339.087 -4.52599 3.37364 0
M  V30 3552 N 338.485 -1.33259 -0.841409 0
M  V30 3553 C 339.901 -1.12538 -1.13169 0
M  V30 3554 C 340.101 0.0854037 -2.01319 0
M  V30 3555 O 339.157 0.766417 -2.40587 0
M  V30 3556 C 340.47 -2.41156 -1.79623 0
M  V30 3557 C 342.018 -2.47038 -1.922 0
M  V30 3558 C 342.493 -3.7561 -2.6207 0
M  V30 3559 N 343.984 -3.76667 -2.69585 0
M  V30 3560 C 344.719 -4.72861 -3.2433 0
M  V30 3561 N 344.215 -5.79428 -3.79783 0
M  V30 3562 N 346.008 -4.6034 -3.22558 0
M  V30 3563 H 338.159 -2.10868 -0.254676 0
M  V30 3564 H 340.422 -0.931615 -0.175493 0
M  V30 3565 H 340.128 -3.29747 -1.22311 0
M  V30 3566 H 340.002 -2.53114 -2.79666 0
M  V30 3567 H 342.389 -1.58898 -2.48667 0
M  V30 3568 H 342.47 -2.39022 -0.911148 0
M  V30 3569 H 342.114 -4.64131 -2.06263 0
M  V30 3570 H 342.044 -3.80902 -3.63622 0
M  V30 3571 H 344.535 -2.99648 -2.30259 0
M  V30 3572 H 344.848 -6.48867 -4.19752 0
M  V30 3573 H 343.193 -5.83166 -3.78078 0
M  V30 3574 H 346.384 -3.76244 -2.78492 0
M  V30 3575 H 346.557 -5.35478 -3.64921 0
M  V30 3576 N 339.963 1.05934 -1.16686 0
M  V30 3577 C 341.374 1.60263 -0.957745 0
M  V30 3578 C 341.725 1.89789 0.49745 0
M  V30 3579 O 340.85 1.67401 1.37135 0
M  V30 3580 C 341.445 2.91172 -1.73218 0
M  V30 3581 C 340.004 3.42188 -1.56794 0
M  V30 3582 C 339.151 2.16028 -1.73859 0
M  V30 3583 H 342.102 0.888392 -1.31504 0
M  V30 3584 H 342.123 3.60744 -1.21014 0
M  V30 3585 H 341.635 2.6965 -2.79124 0
M  V30 3586 H 339.736 3.68762 -0.533437 0
M  V30 3587 H 339.849 4.17273 -2.35414 0
M  V30 3588 H 338.213 2.26426 -1.16633 0
M  V30 3589 H 338.996 1.96985 -2.81161 0
M  V30 3590 N 341.441 0.965919 1.2453 0
M  V30 3591 C 342.69 0.622437 1.91856 0
M  V30 3592 C 343.003 -0.846006 1.76358 0
M  V30 3593 O 344.209 -1.29993 2.38357 0
M  V30 3594 C 342.665 1.0626 3.43856 0
M  V30 3595 C 342.273 2.55437 3.68043 0
M  V30 3596 C 344.017 0.792183 4.17043 0
M  V30 3597 C 341.924 2.93196 5.13605 0
M  V30 3598 H 340.854 0.229092 0.718354 0
M  V30 3599 H 343.505 1.17189 1.41206 0
M  V30 3600 H 341.887 0.441476 3.93531 0
M  V30 3601 H 343.061 3.22665 3.28974 0
M  V30 3602 H 341.376 2.8007 3.08139 0
M  V30 3603 H 343.973 1.05031 5.24283 0
M  V30 3604 H 344.316 -0.271584 4.15413 0
M  V30 3605 H 344.849 1.37419 3.73311 0
M  V30 3606 H 341.588 3.98636 5.20355 0
M  V30 3607 H 341.108 2.30651 5.53679 0
M  V30 3608 H 342.787 2.83004 5.81823 0
M  V30 3609 N 342.919 -1.39368 0.735821 0
M  V30 3610 C 344.168 -1.99733 0.281004 0
M  V30 3611 C 344.481 -1.59055 -1.13846 0
M  V30 3612 O 345.687 -2.12262 -1.69284 0
M  V30 3613 C 344.143 -3.57057 0.451462 0
M  V30 3614 C 343.751 -4.06697 1.87886 0
M  V30 3615 C 345.495 -4.2446 0.0584616 0
M  V30 3616 C 343.402 -5.56598 1.99883 0
M  V30 3617 H 342.332 -0.747163 0.101311 0
M  V30 3618 H 344.983 -1.59357 0.909819 0
M  V30 3619 H 343.365 -3.95234 -0.246263 0
M  V30 3620 H 344.539 -3.79853 2.60861 0
M  V30 3621 H 342.854 -3.5196 2.22515 0
M  V30 3622 H 345.451 -5.34549 0.127099 0
M  V30 3623 H 345.794 -4.04444 -0.986433 0
M  V30 3624 H 346.327 -3.9146 0.707374 0
M  V30 3625 H 343.066 -5.81494 3.02564 0
M  V30 3626 H 342.586 -5.85242 1.31346 0
M  V30 3627 H 344.265 -6.22022 1.78039 0
M  V30 3628 N 344.397 -0.483516 -1.5 0
M  V30 3629 C 345.327 0.293829 -2.31644 0
M  V30 3630 C 346.308 0.978864 -1.39112 0
M  V30 3631 O 347.493 0.973644 -1.68029 0
M  V30 3632 C 344.623 1.36897 -3.19181 0
M  V30 3633 C 343.577 0.804833 -4.20365 0
M  V30 3634 C 342.903 1.9792 -4.96721 0
M  V30 3635 C 344.203 -0.192313 -5.21946 0
M  V30 3636 H 345.897 -0.387616 -2.9688 0
M  V30 3637 H 343.443 -0.187856 -1.42769 0
M  V30 3638 H 345.396 1.92037 -3.751 0
M  V30 3639 H 344.12 2.07936 -2.51853 0
M  V30 3640 H 342.779 0.275319 -3.65565 0
M  V30 3641 H 342.427 2.67686 -4.25856 0
M  V30 3642 H 342.127 1.60789 -5.65173 0
M  V30 3643 H 343.651 2.53526 -5.55479 0
M  V30 3644 H 345.065 0.270333 -5.72662 0
M  V30 3645 H 343.462 -0.478543 -5.98189 0
M  V30 3646 H 344.532 -1.11409 -4.71928 0
M  V30 3647 N 345.875 1.56104 -0.216619 0
M  V30 3648 C 347.121 1.98466 0.417033 0
M  V30 3649 C 347.454 1.10403 1.59765 0
M  V30 3650 O 346.729 0.160632 1.93836 0
M  V30 3651 C 347.012 3.49769 0.85637 0
M  V30 3652 C 346.865 4.48606 -0.327546 0
M  V30 3653 C 348.184 4.05339 1.7143 0
M  V30 3654 H 345.303 0.721551 0.150112 0
M  V30 3655 H 347.945 1.87423 -0.311864 0
M  V30 3656 H 346.095 3.5931 1.47745 0
M  V30 3657 H 347.767 4.5108 -0.965618 0
M  V30 3658 H 346.01 4.22682 -0.975805 0
M  V30 3659 H 346.681 5.51995 0.0227149 0
M  V30 3660 H 349.157 3.98712 1.19031 0
M  V30 3661 H 348.033 5.11533 1.99061 0
M  V30 3662 H 348.294 3.51918 2.67593 0
M  V30 3663 N 347.353 -0.0568162 1.57498 0
M  V30 3664 C 348.601 -0.751617 1.87604 0
M  V30 3665 C 348.922 -1.77351 0.81066 0
M  V30 3666 O 348.192 -1.95254 -0.159018 0
M  V30 3667 H 346.772 -0.280583 0.692302 0
M  V30 3668 H 349.434 -0.0293483 1.94878 0
M  V30 3669 H 348.53 -1.25852 2.856 0
M  V30 3670 N 348.832 -1.54138 -0.328536 0
M  V30 3671 C 350.243 -1.63395 -0.903272 0
M  V30 3672 C 350.594 -0.524828 -1.8905 0
M  V30 3673 O 349.719 0.343068 -2.13663 0
M  V30 3674 C 350.314 -2.9618 -1.64507 0
M  V30 3675 C 348.873 -3.0765 -2.1686 0
M  V30 3676 C 348.02 -2.58933 -0.992416 0
M  V30 3677 H 350.971 -1.58344 -0.106253 0
M  V30 3678 H 350.992 -2.86061 -2.50897 0
M  V30 3679 H 350.504 -3.76884 -0.926302 0
M  V30 3680 H 348.605 -2.31611 -2.91868 0
M  V30 3681 H 348.718 -4.1337 -2.42202 0
M  V30 3682 H 347.082 -2.14706 -1.37016 0
M  V30 3683 H 347.865 -3.42089 -0.288041 0
M  V30 3684 N 350.31 0.590341 -1.46126 0
M  V30 3685 C 351.535 1.37991 -1.54833 0
M  V30 3686 C 351.96 1.87163 -0.187506 0
M  V30 3687 O 351.318 1.61133 0.831008 0
M  V30 3688 C 351.366 2.54867 -2.55098 0
M  V30 3689 O 350.47 3.56061 -2.08073 0
M  V30 3690 H 349.811 0.411265 -0.521303 0
M  V30 3691 H 352.341 0.716819 -1.91632 0
M  V30 3692 H 352.351 3.01886 -2.74461 0
M  V30 3693 H 351.026 2.18429 -3.53923 0
M  V30 3694 H 349.603 3.15574 -1.98664 0
M  V30 3695 N 351.788 1.33704 0.83433 0
M  V30 3696 C 352.718 1.26967 1.95963 0
M  V30 3697 C 353.699 0.149337 1.69443 0
M  V30 3698 O 354.884 0.339852 1.91203 0
M  V30 3699 C 352.014 1.01275 3.32206 0
M  V30 3700 C 350.968 2.09652 3.73136 0
M  V30 3701 C 350.294 1.69166 5.07235 0
M  V30 3702 C 351.594 3.51372 3.86439 0
M  V30 3703 H 353.288 2.2112 2.01857 0
M  V30 3704 H 350.834 1.06447 0.969793 0
M  V30 3705 H 352.787 0.952106 4.10503 0
M  V30 3706 H 351.511 0.0356203 3.26581 0
M  V30 3707 H 350.17 2.14766 2.97104 0
M  V30 3708 H 349.818 0.701437 4.98085 0
M  V30 3709 H 349.518 2.41694 5.35591 0
M  V30 3710 H 351.042 1.64576 5.88003 0
M  V30 3711 H 352.456 3.48734 4.55036 0
M  V30 3712 H 350.853 4.22425 4.26236 0
M  V30 3713 H 351.923 3.89546 2.88759 0
M  V30 3714 N 353.266 -1.05314 1.17247 0
M  V30 3715 C 354.213 -2.13031 0.888058 0
M  V30 3716 C 355.183 -1.65253 -0.167537 0
M  V30 3717 O 356.368 -1.90775 -0.0305974 0
M  V30 3718 C 353.508 -3.42702 0.406147 0
M  V30 3719 C 352.621 -4.04161 1.52572 0
M  V30 3720 C 351.756 -5.21744 0.997808 0
M  V30 3721 C 350.795 -5.75207 2.09291 0
M  V30 3722 N 349.932 -6.84094 1.57986 0
M  V30 3723 H 354.772 -2.36698 1.81048 0
M  V30 3724 H 352.309 -1.16121 0.903013 0
M  V30 3725 H 354.267 -4.17059 0.108305 0
M  V30 3726 H 352.897 -3.19222 -0.479313 0
M  V30 3727 H 351.949 -3.27253 1.93931 0
M  V30 3728 H 353.261 -4.39881 2.35172 0
M  V30 3729 H 352.415 -6.03168 0.653739 0
M  V30 3730 H 351.154 -4.87495 0.141232 0
M  V30 3731 H 350.159 -4.92414 2.44557 0
M  V30 3732 H 351.384 -6.11505 2.95362 0
M  V30 3733 H 349.33 -6.51745 0.74598 0
M  V30 3734 H 349.247 -7.18811 2.34195 0
M  V30 3735 H 350.515 -7.69172 1.26468 0
M  V30 3736 N 354.744 -0.972509 -1.24016 0
M  V30 3737 C 355.992 -0.635776 -1.91839 0
M  V30 3738 C 356.313 0.832312 -1.76345 0
M  V30 3739 O 355.583 1.5946 -1.13795 0
M  V30 3740 H 354.163 -0.232157 -0.710009 0
M  V30 3741 H 356.825 -1.23462 -1.50809 0
M  V30 3742 H 355.921 -0.880545 -2.99421 0
M  V30 3743 N 356.222 1.38976 -0.743202 0
M  V30 3744 C 357.452 2.04339 -0.304807 0
M  V30 3745 C 357.86 1.56162 1.06819 0
M  V30 3746 O 357.203 0.725284 1.68776 0
M  V30 3747 C 357.265 3.58716 -0.237369 0
M  V30 3748 C 356.929 4.29905 -1.55018 0
M  V30 3749 C 357.926 4.55987 -2.49744 0
M  V30 3750 C 355.611 4.68294 -1.81675 0
M  V30 3751 C 357.605 5.19478 -3.69353 0
M  V30 3752 C 355.292 5.31512 -3.0156 0
M  V30 3753 C 356.29 5.57037 -3.9522 0
M  V30 3754 O 355.978 6.18941 -5.12998 0
M  V30 3755 H 355.71 0.663439 -0.12971 0
M  V30 3756 H 358.264 1.78852 -1.01001 0
M  V30 3757 H 356.494 3.83133 0.524003 0
M  V30 3758 H 358.183 4.05543 0.170121 0
M  V30 3759 H 358.949 4.26767 -2.30423 0
M  V30 3760 H 354.828 4.47779 -1.09615 0
M  V30 3761 H 358.372 5.39318 -4.42473 0
M  V30 3762 H 354.269 5.60153 -3.20778 0
M  V30 3763 H 355.037 6.37433 -5.13441 0
M  V30 3764 N 357.7 0.491464 1.49741 0
M  V30 3765 C 358.61 -0.296835 2.32715 0
M  V30 3766 C 359.626 -0.976536 1.44013 0
M  V30 3767 O 360.802 -0.960023 1.77047 0
M  V30 3768 C 357.867 -1.35288 3.19215 0
M  V30 3769 C 356.928 -0.687632 4.23757 0
M  V30 3770 C 356.161 -1.69336 5.06123 0
M  V30 3771 O 356.384 -2.92219 4.89861 0
M  V30 3772 O 355.318 -1.25394 5.88693 0
M  V30 3773 H 359.144 0.382048 3.01287 0
M  V30 3774 H 356.729 0.252953 1.47243 0
M  V30 3775 H 358.611 -1.96411 3.72828 0
M  V30 3776 H 357.286 -2.01487 2.53347 0
M  V30 3777 H 356.193 -0.0369159 3.74082 0
M  V30 3778 H 357.526 -0.0682566 4.92153 0
M  V30 3779 N 359.178 -1.55987 0.224894 0
M  V30 3780 C 360.424 -1.98684 -0.406502 0
M  V30 3781 C 360.757 -1.11248 -1.59177 0
M  V30 3782 O 360.032 -0.170909 -1.93748 0
M  V30 3783 C 360.315 -3.50218 -0.837808 0
M  V30 3784 C 360.168 -4.48426 0.351332 0
M  V30 3785 C 361.487 -4.06243 -1.69278 0
M  V30 3786 H 358.606 -0.722337 -0.146283 0
M  V30 3787 H 361.248 -1.87255 0.321799 0
M  V30 3788 H 359.398 -3.60089 -1.45837 0
M  V30 3789 H 361.07 -4.50562 0.989526 0
M  V30 3790 H 359.313 -4.22159 0.998207 0
M  V30 3791 H 359.984 -5.52 0.00655905 0
M  V30 3792 H 362.46 -3.99337 -1.16914 0
M  V30 3793 H 361.336 -5.12581 -1.96346 0
M  V30 3794 H 361.597 -3.53332 -2.65723 0
M  V30 3795 N 360.656 0.0484629 -1.57525 0
M  V30 3796 C 361.884 0.755421 -1.92616 0
M  V30 3797 C 362.299 1.69919 -0.822984 0
M  V30 3798 O 361.656 1.81378 0.202085 0
M  V30 3799 C 361.707 1.52915 -3.27566 0
M  V30 3800 O 361.428 0.62329 -4.33644 0
M  V30 3801 C 362.929 2.33502 -3.76818 0
M  V30 3802 H 360.149 0.213465 -0.63614 0
M  V30 3803 H 362.693 0.0117698 -2.04497 0
M  V30 3804 H 360.848 2.22486 -3.17142 0
M  V30 3805 H 361.262 1.16383 -5.11425 0
M  V30 3806 H 362.736 2.83214 -4.73808 0
M  V30 3807 H 363.213 3.14068 -3.07014 0
M  V30 3808 H 363.819 1.69043 -3.90262 0
M  V30 3809 N 362.134 1.5431 0.320358 0
M  V30 3810 C 363.411 1.63322 1.07635 0
M  V30 3811 C 363.791 0.46912 2.05821 0
M  V30 3812 O 363.139 -0.536274 2.22118 0
M  V30 3813 C 363.349 3.00465 1.77544 0
M  V30 3814 C 364.697 3.56621 2.30449 0
M  V30 3815 O 365.721 3.02791 1.87606 0
M  V30 3816 O 364.58 4.5083 3.08892 0
M  V30 3817 H 361.674 0.661502 0.496331 0
M  V30 3818 H 364.22 1.66656 0.319992 0
M  V30 3819 H 362.992 3.76629 1.06143 0
M  V30 3820 H 362.615 3.00824 2.59982 0
M  V30 3821 N 363.613 -0.582584 1.46437 0
M  V30 3822 C 364.546 -1.70633 1.51524 0
M  V30 3823 C 365.524 -1.58349 0.369351 0
M  V30 3824 O 366.708 -1.79563 0.573516 0
M  V30 3825 C 363.835 -3.08687 1.39392 0
M  V30 3826 C 362.881 -3.3949 2.58164 0
M  V30 3827 S 363.714 -3.31548 4.20519 0
M  V30 3828 C 364.87 -4.72139 4.10896 0
M  V30 3829 H 365.103 -1.66058 2.46601 0
M  V30 3830 H 362.636 -0.761337 1.34324 0
M  V30 3831 H 364.594 -3.8833 1.33079 0
M  V30 3832 H 363.255 -3.10751 0.457436 0
M  V30 3833 H 362.448 -4.40071 2.45669 0
M  V30 3834 H 362.05 -2.67415 2.61468 0
M  V30 3835 H 364.342 -5.62527 3.77584 0
M  V30 3836 H 365.285 -4.89692 5.11476 0
M  V30 3837 H 365.693 -4.48995 3.42146 0
M  V30 3838 N 365.091 -1.34144 -0.827227 0
M  V30 3839 C 366.024 -1.19707 -1.94282 0
M  V30 3840 C 367.002 -0.0897256 -1.62352 0
M  V30 3841 O 368.186 -0.254095 -1.8678 0
M  V30 3842 C 365.313 -0.838646 -3.28153 0
M  V30 3843 C 364.359 -1.95514 -3.79047 0
M  V30 3844 S 365.192 -3.56793 -3.99323 0
M  V30 3845 C 366.348 -3.22983 -5.36127 0
M  V30 3846 H 366.581 -2.1414 -2.06231 0
M  V30 3847 H 364.114 -1.19121 -0.982321 0
M  V30 3848 H 366.072 -0.638637 -4.05502 0
M  V30 3849 H 364.733 0.0872776 -3.13979 0
M  V30 3850 H 363.926 -1.658 -4.75948 0
M  V30 3851 H 363.528 -2.11241 -3.08631 0
M  V30 3852 H 365.82 -2.74531 -6.19386 0
M  V30 3853 H 366.763 -4.19008 -5.70822 0
M  V30 3854 H 367.171 -2.59276 -5.01434 0
M  V30 3855 N 366.569 1.04691 -1.17803 0
M  V30 3856 C 367.501 2.12571 -0.857097 0
M  V30 3857 C 368.514 1.62174 0.142647 0
M  V30 3858 O 369.703 1.78301 -0.0843387 0
M  V30 3859 C 366.803 3.37915 -0.258216 0
M  V30 3860 C 365.976 4.1757 -1.30207 0
M  V30 3861 C 365.035 5.2125 -0.720029 0
M  V30 3862 O 364.061 5.51888 -1.39314 0
M  V30 3863 N 365.263 5.78466 0.485507 0
M  V30 3864 H 368.028 2.40698 -1.78562 0
M  V30 3865 H 365.589 1.20831 -1.07757 0
M  V30 3866 H 367.581 4.04442 0.144584 0
M  V30 3867 H 366.151 3.07281 0.574199 0
M  V30 3868 H 365.371 3.46458 -1.88043 0
M  V30 3869 H 366.659 4.67586 -2.00601 0
M  V30 3870 H 366.057 5.55866 1.05022 0
M  V30 3871 H 364.614 6.4649 0.830307 0
M  V30 3872 N 368.047 0.979072 1.23499 0
M  V30 3873 C 368.994 0.517904 2.24914 0
M  V30 3874 C 369.964 -0.442525 1.60097 0
M  V30 3875 O 371.149 -0.350365 1.87556 0
M  V30 3876 C 368.289 -0.174813 3.44657 0
M  V30 3877 C 367.402 0.825721 4.24035 0
M  V30 3878 C 366.537 0.107946 5.3109 0
M  V30 3879 C 365.576 1.09778 6.02175 0
M  V30 3880 N 364.713 0.40925 7.00906 0
M  V30 3881 H 369.553 1.38751 2.63727 0
M  V30 3882 H 367.09 0.695303 1.2963 0
M  V30 3883 H 369.048 -0.593233 4.12961 0
M  V30 3884 H 367.678 -1.0083 3.06648 0
M  V30 3885 H 366.73 1.36253 3.55161 0
M  V30 3886 H 368.042 1.58005 4.73113 0
M  V30 3887 H 367.196 -0.367904 6.05583 0
M  V30 3888 H 365.935 -0.678994 4.8295 0
M  V30 3889 H 364.94 1.5844 5.26476 0
M  V30 3890 H 366.165 1.88536 6.52404 0
M  V30 3891 H 364.111 -0.358506 6.5502 0
M  V30 3892 H 364.028 1.10226 7.47921 0
M  V30 3893 H 365.296 -0.0442557 7.79487 0
M  V30 3894 N 369.525 -1.3858 0.750561 0
M  V30 3895 C 370.488 -2.28836 0.129152 0
M  V30 3896 C 371.488 -1.47045 -0.650714 0
M  V30 3897 O 372.678 -1.6753 -0.477428 0
M  V30 3898 C 369.81 -3.30751 -0.825622 0
M  V30 3899 H 371.003 -2.85294 0.924516 0
M  V30 3900 H 368.556 -1.47489 0.517376 0
M  V30 3901 H 369.291 -2.79378 -1.64677 0
M  V30 3902 H 369.076 -3.91177 -0.268852 0
M  V30 3903 H 370.566 -3.98249 -1.2565 0
M  V30 3904 N 371.003 -0.499398 -1.49478 0
M  V30 3905 C 371.933 0.269244 -2.31943 0
M  V30 3906 C 372.914 0.964054 -1.40143 0
M  V30 3907 O 374.099 0.955767 -1.69052 0
M  V30 3908 C 371.229 1.33504 -3.20615 0
M  V30 3909 C 370.183 0.760202 -4.21195 0
M  V30 3910 C 369.509 1.9264 -4.98792 0
M  V30 3911 C 370.809 -0.247661 -5.21712 0
M  V30 3912 H 372.503 -0.419082 -2.96452 0
M  V30 3913 H 370.049 -0.202988 -1.42562 0
M  V30 3914 H 372.002 1.88048 -3.77115 0
M  V30 3915 H 370.726 2.05253 -2.54045 0
M  V30 3916 H 369.385 0.23653 -3.65836 0
M  V30 3917 H 369.033 2.63154 -4.28671 0
M  V30 3918 H 368.733 1.54785 -5.66847 0
M  V30 3919 H 370.257 2.4762 -5.58137 0
M  V30 3920 H 371.671 0.209579 -5.72917 0
M  V30 3921 H 370.068 -0.541962 -5.97648 0
M  V30 3922 H 371.138 -1.16409 -4.7072 0
M  V30 3923 N 372.481 1.55866 -0.233164 0
M  V30 3924 C 373.728 1.98603 0.395374 0
M  V30 3925 C 374.056 1.12105 1.58942 0
M  V30 3926 O 373.311 0.168656 1.94972 0
M  V30 3927 C 373.61 3.46856 0.861724 0
M  V30 3928 C 373.276 4.50348 -0.223066 0
M  V30 3929 C 371.938 4.78371 -0.521038 0
M  V30 3930 C 374.29 5.12355 -0.956124 0
M  V30 3931 C 371.618 5.6568 -1.55638 0
M  V30 3932 C 373.97 6.00786 -1.98089 0
M  V30 3933 C 372.634 6.27148 -2.28565 0
M  V30 3934 H 371.904 0.726739 0.144677 0
M  V30 3935 H 374.551 1.88491 -0.338114 0
M  V30 3936 H 372.856 3.5423 1.67418 0
M  V30 3937 H 374.553 3.77302 1.35809 0
M  V30 3938 H 371.143 4.28596 0.0193234 0
M  V30 3939 H 375.327 4.90765 -0.739166 0
M  V30 3940 H 370.583 5.84365 -1.798 0
M  V30 3941 H 374.757 6.4788 -2.55391 0
M  V30 3942 H 372.384 6.94597 -3.08932 0
M  V30 3943 N 373.959 -0.0401083 1.57549 0
M  V30 3944 C 375.236 -0.767917 1.79896 0
M  V30 3945 C 375.616 -1.9416 0.82856 0
M  V30 3946 O 374.964 -2.2812 -0.131671 0
M  V30 3947 C 375.174 -1.2113 3.27305 0
M  V30 3948 C 376.522 -1.63175 3.91994 0
M  V30 3949 O 377.546 -1.30616 3.31388 0
M  V30 3950 O 376.405 -2.23565 4.98679 0
M  V30 3951 H 373.499 -0.370441 0.739393 0
M  V30 3952 H 376.045 -0.017737 1.69691 0
M  V30 3953 H 374.817 -0.372937 3.89519 0
M  V30 3954 H 374.44 -2.02183 3.42356 0
M  V30 3955 N 375.437 -1.54477 -0.31217 0
M  V30 3956 C 376.684 -1.73227 -1.04875 0
M  V30 3957 C 377.012 -0.512042 -1.87639 0
M  V30 3958 O 376.267 0.506131 -1.89042 0
M  V30 3959 C 376.566 -2.967 -1.99258 0
M  V30 3960 C 376.232 -4.30974 -1.32559 0
M  V30 3961 C 374.894 -4.67477 -1.141 0
M  V30 3962 C 377.246 -5.14258 -0.847835 0
M  V30 3963 C 374.574 -5.84852 -0.465326 0
M  V30 3964 C 376.926 -6.32327 -0.185931 0
M  V30 3965 C 375.59 -6.67499 0.0107077 0
M  V30 3966 H 374.86 -0.633881 -0.383765 0
M  V30 3967 H 377.507 -1.88727 -0.324731 0
M  V30 3968 H 375.812 -2.75935 -2.7815 0
M  V30 3969 H 377.509 -3.08401 -2.563 0
M  V30 3970 H 374.099 -4.02262 -1.4793 0
M  V30 3971 H 378.283 -4.86565 -0.978192 0
M  V30 3972 H 373.539 -6.10654 -0.301883 0
M  V30 3973 H 377.713 -6.96135 0.192211 0
M  V30 3974 H 375.34 -7.58306 0.536287 0
M  V30 3975 N 376.915 0.57481 -1.46744 0
M  V30 3976 C 377.845 1.69337 -1.60771 0
M  V30 3977 C 378.826 1.63825 -0.457736 0
M  V30 3978 O 380.011 1.8172 -0.684947 0
M  V30 3979 C 377.141 3.0798 -1.60517 0
M  V30 3980 C 376.095 3.28327 -2.74564 0
M  V30 3981 C 375.421 4.67578 -2.59373 0
M  V30 3982 C 376.721 3.15398 -4.16319 0
M  V30 3983 H 378.415 1.57853 -2.54407 0
M  V30 3984 H 375.961 0.75799 -1.22436 0
M  V30 3985 H 377.914 3.86061 -1.68923 0
M  V30 3986 H 376.638 3.20381 -0.634305 0
M  V30 3987 H 375.297 2.52649 -2.65639 0
M  V30 3988 H 374.945 4.76755 -1.60353 0
M  V30 3989 H 374.645 4.82144 -3.35873 0
M  V30 3990 H 376.169 5.47817 -2.69682 0
M  V30 3991 H 377.583 3.83315 -4.26313 0
M  V30 3992 H 375.98 3.41482 -4.93468 0
M  V30 3993 H 377.05 2.12372 -4.3592 0
M  V30 3994 N 378.394 1.34581 0.820102 0
M  V30 3995 C 379.341 1.2639 1.93117 0
M  V30 3996 C 380.311 0.138554 1.65521 0
M  V30 3997 O 381.496 0.320004 1.88097 0
M  V30 3998 C 378.636 1.02812 3.29429 0
M  V30 3999 C 377.749 2.24146 3.693 0
M  V30 4000 C 376.884 1.93829 4.94574 0
M  V30 4001 C 375.923 3.1129 5.27034 0
M  V30 4002 N 375.06 2.80838 6.43486 0
M  V30 4003 H 379.9 2.21408 1.99455 0
M  V30 4004 H 377.437 1.10077 0.975784 0
M  V30 4005 H 379.395 0.871788 4.0799 0
M  V30 4006 H 378.025 0.114612 3.22596 0
M  V30 4007 H 377.077 2.50691 2.86109 0
M  V30 4008 H 378.389 3.11899 3.89257 0
M  V30 4009 H 377.543 1.74948 5.80929 0
M  V30 4010 H 376.282 1.03341 4.76626 0
M  V30 4011 H 375.287 3.30764 4.39175 0
M  V30 4012 H 376.512 4.02561 5.4692 0
M  V30 4013 H 374.458 1.92929 6.26988 0
M  V30 4014 H 374.375 3.62123 6.63629 0
M  V30 4015 H 375.643 2.65467 7.32903 0
M  V30 4016 N 379.872 -1.04064 1.18357 0
M  V30 4017 C 380.822 -2.10393 0.878561 0
M  V30 4018 C 381.806 -1.60183 -0.151713 0
M  V30 4019 O 382.998 -1.76923 0.0523303 0
M  V30 4020 C 380.127 -3.4089 0.406096 0
M  V30 4021 C 379.213 -3.97866 1.46844 0
M  V30 4022 N 379.604 -4.28657 2.68489 0
M  V30 4023 C 377.902 -4.2574 1.32896 0
M  V30 4024 C 378.603 -4.74253 3.36836 0
M  V30 4025 N 377.579 -4.75068 2.64219 0
M  V30 4026 H 381.381 -2.32076 1.80327 0
M  V30 4027 H 378.895 -1.21818 1.07397 0
M  V30 4028 H 380.892 -4.16557 0.169088 0
M  V30 4029 H 379.552 -3.20633 -0.512275 0
M  V30 4030 H 380.563 -4.18304 3.05356 0
M  V30 4031 H 377.24 -4.1481 0.473134 0
M  V30 4032 H 378.63 -5.07096 4.40798 0
M  V30 4033 N 381.35 -0.985608 -1.22978 0
M  V30 4034 C 382.766 -0.695104 -1.43668 0
M  V30 4035 C 382.966 0.736866 -1.87543 0
M  V30 4036 O 382.022 1.50868 -2.02473 0
M  V30 4037 C 383.335 -1.69447 -2.48412 0
M  V30 4038 C 384.883 -1.70909 -2.62219 0
M  V30 4039 C 385.358 -2.6969 -3.70178 0
M  V30 4040 N 386.849 -2.6824 -3.77626 0
M  V30 4041 C 387.584 -3.41339 -4.60733 0
M  V30 4042 N 387.08 -4.24015 -5.4789 0
M  V30 4043 N 388.873 -3.30079 -4.54977 0
M  V30 4044 H 381.024 -1.91054 -0.928016 0
M  V30 4045 H 383.287 -0.823553 -0.469536 0
M  V30 4046 H 382.993 -2.7188 -2.23102 0
M  V30 4047 H 382.867 -1.48147 -3.46889 0
M  V30 4048 H 385.254 -0.691785 -2.86877 0
M  V30 4049 H 385.335 -1.96276 -1.6404 0
M  V30 4050 H 384.979 -3.71566 -3.46268 0
M  V30 4051 H 384.909 -2.41595 -4.67909 0
M  V30 4052 H 387.4 -2.08243 -3.15346 0
M  V30 4053 H 387.713 -4.76636 -6.08308 0
M  V30 4054 H 386.058 -4.28104 -5.47496 0
M  V30 4055 H 389.249 -2.64937 -3.85909 0
M  V30 4056 H 389.422 -3.87308 -5.19516 0
M  V30 4057 N 382.828 1.3818 -0.7579 0
M  V30 4058 C 384.075 2.00019 -0.315985 0
M  V30 4059 C 384.403 1.60163 1.10355 0
M  V30 4060 O 383.658 0.83264 1.77103 0
M  V30 4061 C 383.957 3.55252 -0.391218 0
M  V30 4062 C 383.623 4.14834 -1.76702 0
M  V30 4063 C 382.285 4.30821 -2.14353 0
M  V30 4064 C 384.637 4.47658 -2.66931 0
M  V30 4065 C 381.965 4.76928 -3.41696 0
M  V30 4066 C 384.317 4.95184 -3.93669 0
M  V30 4067 C 382.981 5.09377 -4.31383 0
M  V30 4068 H 382.251 0.731923 -0.115627 0
M  V30 4069 H 384.898 1.65161 -0.969223 0
M  V30 4070 H 383.203 3.90273 0.34558 0
M  V30 4071 H 384.9 4.00988 -0.030805 0
M  V30 4072 H 381.49 4.02808 -1.46435 0
M  V30 4073 H 385.674 4.34904 -2.39106 0
M  V30 4074 H 380.93 4.86103 -3.70829 0
M  V30 4075 H 385.104 5.19551 -4.63724 0
M  V30 4076 H 382.731 5.44865 -5.30119 0
M  V30 4077 N 384.306 0.507319 1.49211 0
M  V30 4078 C 385.583 -0.0982702 1.95353 0
M  V30 4079 C 385.963 -1.53516 1.449 0
M  V30 4080 O 385.311 -2.18594 0.66551 0
M  V30 4081 C 385.521 -0.00440283 3.49 0
M  V30 4082 C 386.869 -0.175147 4.24239 0
M  V30 4083 O 387.893 -0.0792891 3.56112 0
M  V30 4084 O 386.752 -0.37276 5.45227 0
M  V30 4085 H 383.846 -0.0918236 0.821887 0
M  V30 4086 H 386.392 0.570307 1.5983 0
M  V30 4087 H 385.164 0.997402 3.78375 0
M  V30 4088 H 384.787 -0.712845 3.91158 0
M  V30 4089 N 385.784 -1.5574 0.241426 0
M  V30 4090 C 387.032 -1.98417 -0.384075 0
M  V30 4091 C 387.353 -1.13078 -1.58866 0
M  V30 4092 O 386.623 -0.212312 -1.94746 0
M  V30 4093 H 385.203 -0.732813 -0.144894 0
M  V30 4094 H 387.865 -1.9193 0.338943 0
M  V30 4095 H 386.961 -3.04219 -0.696939 0
M  V30 4096 N 387.262 0.0317525 -1.57568 0
M  V30 4097 C 388.678 0.38735 -1.54828 0
M  V30 4098 C 388.878 1.7677 -0.967187 0
M  V30 4099 O 387.934 2.45581 -0.587063 0
M  V30 4100 C 389.247 0.291667 -2.99282 0
M  V30 4101 C 390.795 0.368946 -3.10818 0
M  V30 4102 C 391.27 0.302741 -4.56998 0
M  V30 4103 N 392.761 0.361617 -4.61786 0
M  V30 4104 C 393.496 0.333238 -5.72431 0
M  V30 4105 N 392.992 0.257308 -6.92322 0
M  V30 4106 N 394.785 0.382769 -5.60795 0
M  V30 4107 H 386.936 -0.871609 -1.93692 0
M  V30 4108 H 389.199 -0.331161 -0.888277 0
M  V30 4109 H 388.905 -0.656794 -3.45513 0
M  V30 4110 H 388.779 1.08638 -3.61217 0
M  V30 4111 H 391.166 1.30784 -2.64536 0
M  V30 4112 H 391.247 -0.455066 -2.5172 0
M  V30 4113 H 390.891 -0.632473 -5.03947 0
M  V30 4114 H 390.821 1.14482 -5.14005 0
M  V30 4115 H 393.312 0.422923 -3.75526 0
M  V30 4116 H 393.625 0.24068 -7.72425 0
M  V30 4117 H 391.97 0.223396 -6.94641 0
M  V30 4118 H 395.161 0.44006 -4.66027 0
M  V30 4119 H 395.334 0.357184 -6.47015 0
M  V30 4120 N 388.74 1.54641 0.303973 0
M  V30 4121 C 389.989 1.7299 1.03717 0
M  V30 4122 C 390.302 0.521168 1.88529 0
M  V30 4123 O 391.508 0.586408 2.65092 0
M  V30 4124 C 389.964 3.06051 1.89369 0
M  V30 4125 C 389.572 4.34393 1.09574 0
M  V30 4126 C 391.316 3.3376 2.62306 0
M  V30 4127 C 389.223 5.58506 1.94486 0
M  V30 4128 H 388.153 0.64473 0.390947 0
M  V30 4129 H 390.804 1.81124 0.294328 0
M  V30 4130 H 389.186 2.91874 2.67629 0
M  V30 4131 H 390.36 4.59396 0.359485 0
M  V30 4132 H 388.675 4.13597 0.482324 0
M  V30 4133 H 391.272 4.23687 3.26181 0
M  V30 4134 H 391.615 2.52503 3.3098 0
M  V30 4135 H 392.148 3.48894 1.91097 0
M  V30 4136 H 388.887 6.42422 1.30287 0
M  V30 4137 H 388.407 5.37694 2.65792 0
M  V30 4138 H 390.086 5.95651 2.52605 0
M  V30 4139 N 390.218 -0.567019 1.47046 0
M  V30 4140 C 391.443 -1.3551 1.57009 0
M  V30 4141 C 391.868 -1.86841 0.217259 0
M  V30 4142 O 391.226 -1.62435 -0.805268 0
M  V30 4143 C 391.274 -2.50777 2.5912 0
M  V30 4144 O 390.378 -3.52706 2.13711 0
M  V30 4145 H 389.719 -0.402919 0.52778 0
M  V30 4146 H 392.249 -0.686241 1.92748 0
M  V30 4147 H 392.259 -2.97481 2.79229 0
M  V30 4148 H 390.934 -2.12771 3.57353 0
M  V30 4149 H 389.511 -3.12374 2.03659 0
M  V30 4150 N 391.696 -1.35014 -0.812953 0
M  V30 4151 C 392.945 -1.27269 -1.56479 0
M  V30 4152 C 393.258 0.152771 -1.95002 0
M  V30 4153 O 394.464 0.352451 -2.69203 0
M  V30 4154 C 392.92 -2.23159 -2.82362 0
M  V30 4155 C 392.528 -3.71016 -2.511 0
M  V30 4156 C 394.272 -2.24342 -3.60376 0
M  V30 4157 C 392.179 -4.58746 -3.73237 0
M  V30 4158 H 391.109 -0.472829 -0.587324 0
M  V30 4159 H 393.76 -1.6024 -0.894171 0
M  V30 4160 H 392.142 -1.83151 -3.51101 0
M  V30 4161 H 393.316 -4.1962 -1.90409 0
M  V30 4162 H 391.631 -3.72378 -1.86343 0
M  V30 4163 H 394.228 -2.87107 -4.51081 0
M  V30 4164 H 394.571 -1.24542 -3.97234 0
M  V30 4165 H 395.104 -2.62846 -2.98591 0
M  V30 4166 H 391.843 -5.59521 -3.41492 0
M  V30 4167 H 391.363 -4.14871 -4.33176 0
M  V30 4168 H 393.042 -4.73852 -4.40537 0
M  V30 4169 N 393.175 1.03435 -1.18907 0
M  V30 4170 C 394.403 1.80381 -1.01342 0
M  V30 4171 C 394.818 1.83649 0.438005 0
M  V30 4172 O 394.175 1.27655 1.30424 0
M  V30 4173 C 394.226 3.25689 -1.56873 0
M  V30 4174 O 393.947 3.22673 -2.96334 0
M  V30 4175 C 395.448 4.19255 -1.44014 0
M  V30 4176 H 392.668 0.56784 -0.35749 0
M  V30 4177 H 395.212 1.30317 -1.576 0
M  V30 4178 H 393.367 3.72962 -1.04777 0
M  V30 4179 H 393.781 4.13748 -3.22355 0
M  V30 4180 H 395.255 5.19123 -1.87657 0
M  V30 4181 H 395.732 4.37467 -0.389815 0
M  V30 4182 H 396.338 3.77851 -1.95214 0
M  V30 4183 N 394.653 0.992116 1.22453 0
M  V30 4184 C 396.069 0.702713 1.43297 0
M  V30 4185 C 396.269 -0.726909 1.87932 0
M  V30 4186 O 395.325 -1.49792 2.0327 0
M  V30 4187 C 396.638 1.70762 2.47509 0
M  V30 4188 C 398.186 1.72298 2.61309 0
M  V30 4189 C 398.661 2.71649 3.68742 0
M  V30 4190 N 400.152 2.70239 3.76199 0
M  V30 4191 C 400.887 3.43778 4.58917 0
M  V30 4192 N 400.383 4.26914 5.45633 0
M  V30 4193 N 402.176 3.32487 4.5322 0
M  V30 4194 H 394.327 1.91543 0.917871 0
M  V30 4195 H 396.59 0.826031 0.465162 0
M  V30 4196 H 396.296 2.73059 2.21657 0
M  V30 4197 H 396.17 1.49985 3.46099 0
M  V30 4198 H 398.557 0.706989 2.86506 0
M  V30 4199 H 398.638 1.97143 1.62997 0
M  V30 4200 H 398.282 3.73397 3.44292 0
M  V30 4201 H 398.212 2.44074 4.66622 0
M  V30 4202 H 400.703 2.09912 3.14237 0
M  V30 4203 H 401.016 4.79855 6.05771 0
M  V30 4204 H 399.361 4.31002 5.45218 0
M  V30 4205 H 402.552 2.6698 3.84499 0
M  V30 4206 H 402.725 3.90058 5.17454 0
M  V30 4207 N 396.131 -1.37776 0.765217 0
M  V30 4208 C 397.377 -2.00145 0.327072 0
M  V30 4209 C 397.71 -1.60607 -1.09175 0
M  V30 4210 O 396.985 -0.849127 -1.74986 0
M  V30 4211 C 397.268 -3.57109 0.46319 0
M  V30 4212 C 397.121 -4.06576 1.92395 0
M  V30 4213 C 398.44 -4.39888 -0.136473 0
M  V30 4214 H 395.559 -0.727113 0.120316 0
M  V30 4215 H 398.201 -1.63549 0.967039 0
M  V30 4216 H 396.351 -3.88414 -0.0816358 0
M  V30 4217 H 398.023 -3.85864 2.52798 0
M  V30 4218 H 396.266 -3.59011 2.43503 0
M  V30 4219 H 396.937 -5.15639 1.97028 0
M  V30 4220 H 399.413 -4.14803 0.328317 0
M  V30 4221 H 398.289 -5.48899 -0.0110582 0
M  V30 4222 H 398.55 -4.24758 -1.22608 0
M  V30 4223 N 397.609 -0.515225 -1.4894 0
M  V30 4224 C 398.837 0.0206034 -2.0689 0
M  V30 4225 C 399.252 1.29514 -1.37374 0
M  V30 4226 O 398.609 1.76698 -0.456529 0
M  V30 4227 C 398.66 0.26351 -3.60538 0
M  V30 4228 O 398.381 -0.960517 -4.27441 0
M  V30 4229 C 399.882 0.841383 -4.35242 0
M  V30 4230 H 397.102 -0.0268608 -0.670462 0
M  V30 4231 H 399.646 -0.716651 -1.91532 0
M  V30 4232 H 397.801 0.950777 -3.75552 0
M  V30 4233 H 398.215 -0.73212 -5.19365 0
M  V30 4234 H 399.689 0.96085 -5.43573 0
M  V30 4235 H 400.166 1.8427 -3.98674 0
M  V30 4236 H 400.772 0.191143 -4.2487 0
M  V30 4237 N 399.087 1.5561 -0.249682 0
M  V30 4238 C 400.05 2.20217 0.635394 0
M  V30 4239 C 401.05 1.17227 1.10066 0
M  V30 4240 O 402.24 1.42292 1.00492 0
M  V30 4241 C 399.372 2.84794 1.87363 0
M  V30 4242 H 400.565 2.99814 0.0716752 0
M  V30 4243 H 398.118 1.563 -0.000153234 0
M  V30 4244 H 398.853 2.09142 2.47851 0
M  V30 4245 H 398.638 3.60241 1.5482 0
M  V30 4246 H 400.128 3.3423 2.5036 0
M  V30 4247 N 400.565 -0.0233959 1.57583 0
M  V30 4248 C 401.842 -0.748794 1.807 0
M  V30 4249 C 402.222 -1.9327 0.849106 0
M  V30 4250 O 401.57 -2.28247 -0.107468 0
M  V30 4251 C 401.78 -1.17651 3.28571 0
M  V30 4252 C 403.128 -1.59008 3.93702 0
M  V30 4253 O 404.152 -1.27094 3.32755 0
M  V30 4254 O 403.011 -2.18264 5.01022 0
M  V30 4255 H 400.105 -0.362578 0.743281 0
M  V30 4256 H 402.651 0.000261958 1.697 0
M  V30 4257 H 401.423 -0.331603 3.89892 0
M  V30 4258 H 401.046 -1.98541 3.44481 0
M  V30 4259 N 402.043 -1.548 -0.295768 0
M  V30 4260 C 403.292 -1.73538 -1.02798 0
M  V30 4261 C 403.605 -0.531159 -1.8825 0
M  V30 4262 O 404.811 -0.600458 -2.64777 0
M  V30 4263 C 403.267 -3.07051 -1.87744 0
M  V30 4264 C 402.875 -4.34968 -1.07269 0
M  V30 4265 C 404.619 -3.35146 -2.60533 0
M  V30 4266 C 402.526 -5.5953 -1.91521 0
M  V30 4267 H 401.456 -0.646794 -0.387522 0
M  V30 4268 H 404.107 -1.81278 -0.284718 0
M  V30 4269 H 402.489 -2.93289 -2.66078 0
M  V30 4270 H 403.663 -4.5958 -0.335117 0
M  V30 4271 H 401.978 -4.13847 -0.460384 0
M  V30 4272 H 404.575 -4.2541 -3.23929 0
M  V30 4273 H 404.918 -2.54255 -3.29636 0
M  V30 4274 H 405.451 -3.49902 -1.89244 0
M  V30 4275 H 402.19 -6.43103 -1.26878 0
M  V30 4276 H 401.71 -5.39096 -2.62937 0
M  V30 4277 H 403.389 -5.96982 -2.49442 0
M  V30 4278 N 403.521 0.559213 -1.47345 0
M  V30 4279 C 404.746 1.34676 -1.57725 0
M  V30 4280 C 405.171 1.86723 -0.227164 0
M  V30 4281 O 404.529 1.6286 0.796642 0
M  V30 4282 C 404.577 2.49399 -2.60447 0
M  V30 4283 O 403.681 3.51567 -2.15578 0
M  V30 4284 H 403.022 0.400115 -0.52991 0
M  V30 4285 H 405.552 0.676009 -1.93109 0
M  V30 4286 H 405.562 2.95996 -2.80803 0
M  V30 4287 H 404.237 2.10873 -3.58477 0
M  V30 4288 H 402.814 3.11289 -2.05313 0
M  V30 4289 N 404.999 1.35443 0.805782 0
M  V30 4290 C 405.929 1.31095 1.93226 0
M  V30 4291 C 406.91 0.185244 1.69088 0
M  V30 4292 O 408.095 0.380332 1.90439 0
M  V30 4293 C 405.225 1.08299 3.29983 0
M  V30 4294 C 404.179 2.17519 3.68605 0
M  V30 4295 C 403.505 1.79887 5.03532 0
M  V30 4296 C 404.805 3.5949 3.78898 0
M  V30 4297 H 406.499 2.25352 1.97122 0
M  V30 4298 H 404.045 1.0848 0.946996 0
M  V30 4299 H 405.998 1.03897 4.08391 0
M  V30 4300 H 404.722 0.104885 3.26432 0
M  V30 4301 H 403.381 2.2102 2.92482 0
M  V30 4302 H 403.029 0.80693 4.96485 0
M  V30 4303 H 402.729 2.53001 5.30344 0
M  V30 4304 H 404.253 1.77011 5.84379 0
M  V30 4305 H 405.667 3.58307 4.47536 0
M  V30 4306 H 404.064 4.31371 4.1718 0
M  V30 4307 H 405.134 3.95584 2.80431 0
M  V30 4308 N 406.477 -1.02803 1.19454 0
M  V30 4309 C 407.44 -2.09264 0.934955 0
M  V30 4310 C 408.44 -1.60576 -0.0849015 0
M  V30 4311 O 409.63 -1.73554 0.149933 0
M  V30 4312 C 406.762 -3.38482 0.40531 0
M  V30 4313 H 407.955 -2.33726 1.87916 0
M  V30 4314 H 405.508 -1.19426 1.00832 0
M  V30 4315 H 406.243 -3.19689 -0.544899 0
M  V30 4316 H 406.028 -3.75142 1.14065 0
M  V30 4317 H 407.518 -4.16894 0.242806 0
M  V30 4318 N 407.956 -0.998596 -1.21925 0
M  V30 4319 C 408.903 -0.553621 -2.24062 0
M  V30 4320 C 409.873 0.416999 -1.6078 0
M  V30 4321 O 411.058 0.320482 -1.88089 0
M  V30 4322 C 408.198 0.119959 -3.44891 0
M  V30 4323 C 407.311 -0.893077 -4.22668 0
M  V30 4324 C 406.446 -0.192424 -5.30851 0
M  V30 4325 C 405.485 -1.19344 -6.00353 0
M  V30 4326 N 404.622 -0.520707 -7.00166 0
M  V30 4327 H 409.462 -1.4293 -2.61486 0
M  V30 4328 H 406.999 -0.715838 -1.28507 0
M  V30 4329 H 408.957 0.527459 -4.13852 0
M  V30 4330 H 407.587 0.959389 -3.08214 0
M  V30 4331 H 406.639 -1.41886 -3.52948 0
M  V30 4332 H 407.951 -1.65512 -4.70539 0
M  V30 4333 H 407.105 0.271515 -6.06092 0
M  V30 4334 H 405.844 0.602075 -4.83969 0
M  V30 4335 H 404.849 -1.66795 -5.23889 0
M  V30 4336 H 406.074 -1.98891 -6.49322 0
M  V30 4337 H 404.02 0.254252 -6.55507 0
M  V30 4338 H 403.937 -1.2211 -7.46073 0
M  V30 4339 H 405.205 -0.0797596 -7.79459 0
M  V30 4340 N 409.434 1.37368 -0.772513 0
M  V30 4341 C 410.85 1.53059 -0.452231 0
M  V30 4342 C 411.05 1.73065 1.03203 0
M  V30 4343 O 410.106 1.75245 1.81784 0
M  V30 4344 C 411.419 2.72659 -1.26797 0
M  V30 4345 C 412.967 2.86521 -1.25995 0
M  V30 4346 C 413.442 4.09105 -2.05905 0
M  V30 4347 N 414.933 4.16219 -2.03263 0
M  V30 4348 C 415.668 5.10107 -2.61875 0
M  V30 4349 N 415.164 6.09547 -3.29278 0
M  V30 4350 N 416.957 5.02596 -2.51701 0
M  V30 4351 H 409.108 1.22634 -1.7342 0
M  V30 4352 H 411.371 0.597206 -0.736239 0
M  V30 4353 H 411.077 2.64343 -2.31982 0
M  V30 4354 H 410.951 3.66363 -0.897672 0
M  V30 4355 H 413.338 2.94308 -0.216081 0
M  V30 4356 H 413.419 1.93774 -1.66989 0
M  V30 4357 H 413.063 4.0208 -3.10313 0
M  V30 4358 H 412.993 5.00968 -1.62292 0
M  V30 4359 H 415.484 3.45012 -1.54192 0
M  V30 4360 H 415.797 6.77718 -3.71374 0
M  V30 4361 H 414.142 6.09824 -3.33377 0
M  V30 4362 H 417.333 4.23855 -1.98657 0
M  V30 4363 H 417.506 5.75582 -2.97673 0
M  V30 4364 N 410.912 0.523116 1.48665 0
M  V30 4365 C 412.137 -0.0117284 2.07397 0
M  V30 4366 C 412.562 -1.28031 1.37803 0
M  V30 4367 O 411.92 -1.75836 0.441762 0
M  V30 4368 C 411.968 -0.225786 3.59892 0
M  V30 4369 O 411.072 -1.29592 3.91509 0
M  V30 4370 H 410.413 0.0360673 0.66302 0
M  V30 4371 H 412.943 0.729066 1.9117 0
M  V30 4372 H 412.953 -0.450552 4.05505 0
M  V30 4373 H 411.628 0.700944 4.09951 0
M  V30 4374 H 410.205 -1.05436 3.57684 0
M  V30 4375 N 412.39 -1.55475 0.257931 0
M  V30 4376 C 413.636 -1.99502 -0.364266 0
M  V30 4377 C 413.969 -1.146 -1.56782 0
M  V30 4378 O 413.244 -0.211968 -1.93342 0
M  V30 4379 C 413.527 -3.51917 -0.763333 0
M  V30 4380 C 413.38 -4.4758 0.446371 0
M  V30 4381 C 414.699 -4.09742 -1.60623 0
M  V30 4382 H 411.818 -0.725277 -0.130929 0
M  V30 4383 H 414.46 -1.8653 0.361446 0
M  V30 4384 H 412.61 -3.63101 -1.38166 0
M  V30 4385 H 414.282 -4.48362 1.08487 0
M  V30 4386 H 412.525 -4.19947 1.08753 0
M  V30 4387 H 413.196 -5.51862 0.123645 0
M  V30 4388 H 415.672 -4.01727 -1.08418 0
M  V30 4389 H 414.548 -5.16631 -1.85429 0
M  V30 4390 H 414.809 -3.58889 -2.58169 0
M  V30 4391 N 413.868 0.0150385 -1.57593 0
M  V30 4392 C 414.798 1.01047 -2.10503 0
M  V30 4393 C 415.779 1.36816 -1.01071 0
M  V30 4394 O 416.964 1.45455 -1.28672 0
M  V30 4395 C 414.094 2.30708 -2.59598 0
M  V30 4396 C 413.048 2.09142 -3.73421 0
M  V30 4397 C 412.374 3.44685 -4.08774 0
M  V30 4398 C 413.674 1.46619 -5.01298 0
M  V30 4399 H 415.368 0.569978 -2.93925 0
M  V30 4400 H 412.914 0.272724 -1.41394 0
M  V30 4401 H 414.867 3.00687 -2.95238 0
M  V30 4402 H 413.591 2.76843 -1.73279 0
M  V30 4403 H 412.25 1.41592 -3.38153 0
M  V30 4404 H 411.898 3.88495 -3.195 0
M  V30 4405 H 411.598 3.31077 -4.8545 0
M  V30 4406 H 413.122 4.16004 -4.4696 0
M  V30 4407 H 414.536 2.06535 -5.34805 0
M  V30 4408 H 412.933 1.43544 -5.82679 0
M  V30 4409 H 414.003 0.433611 -4.82957 0
M  V30 4410 N 415.346 1.54954 0.287554 0
M  V30 4411 C 416.294 1.87606 1.37502 0
M  V30 4412 C 417.288 0.751001 1.51843 0
M  V30 4413 O 418.494 0.935169 1.53801 0
M  V30 4414 H 414.869 0.595231 0.459569 0
M  V30 4415 H 416.84 2.78477 1.07206 0
M  V30 4416 C 415.589 2.15183 2.73115 0
M  V30 4417 H 414.912 3.01234 2.62866 0
M  V30 4418 H 416.352 2.4196 3.48183 0
M  V30 4419 C 414.811 0.954686 3.2309 0
M  V30 4420 O 415.341 0.181949 4.01288 0
M  V30 4421 N 413.547 0.756368 2.80584 0
M  V30 4422 H 413.094 1.38643 2.17108 0
M  V30 4423 H 413.052 -0.0430391 3.14371 0
M  V30 4424 N 416.824 -0.551391 1.4764 0
M  V30 4425 C 417.772 -1.67896 1.60978 0
M  V30 4426 C 418.766 -1.62549 0.476877 0
M  V30 4427 O 419.972 -1.67664 0.654878 0
M  V30 4428 H 416.347 -0.555649 0.506713 0
M  V30 4429 H 418.318 -1.53784 2.55721 0
M  V30 4430 C 417.067 -3.06234 1.64669 0
M  V30 4431 H 416.39 -3.11033 2.51194 0
M  V30 4432 H 417.83 -3.84804 1.7805 0
M  V30 4433 C 416.289 -3.34737 0.381115 0
M  V30 4434 O 416.819 -3.98381 -0.515297 0
M  V30 4435 N 415.025 -2.8944 0.259354 0
M  V30 4436 H 414.572 -2.37827 0.98976 0
M  V30 4437 H 414.53 -3.08882 -0.586464 0
M  V30 4438 N 418.302 -1.35869 -0.798587 0
M  V30 4439 C 419.713 -1.26498 -1.37314 0
M  V30 4440 C 420.064 0.0991899 -1.95949 0
M  V30 4441 O 419.189 1.0004 -1.91888 0
M  V30 4442 C 419.784 -2.29054 -2.49639 0
M  V30 4443 C 418.343 -2.234 -3.02935 0
M  V30 4444 C 417.49 -2.14329 -1.75949 0
M  V30 4445 H 420.441 -1.46881 -0.600971 0
M  V30 4446 H 420.462 -1.92166 -3.28409 0
M  V30 4447 H 419.974 -3.2833 -2.06933 0
M  V30 4448 H 418.075 -1.27562 -3.50084 0
M  V30 4449 H 418.188 -3.15703 -3.60372 0
M  V30 4450 H 416.552 -1.60435 -1.9782 0
M  V30 4451 H 417.335 -3.15477 -1.35384 0
M  V30 4452 N 419.78 1.02168 -1.19998 0
M  V30 4453 C 421.005 1.79833 -1.03319 0
M  V30 4454 C 421.43 1.83504 0.413281 0
M  V30 4455 O 420.788 1.26635 1.29743 0
M  V30 4456 C 420.836 3.22396 -1.61533 0
M  V30 4457 O 419.94 4.03555 -0.849519 0
M  V30 4458 H 419.281 0.554872 -0.364709 0
M  V30 4459 H 421.811 1.28542 -1.59179 0
M  V30 4460 H 421.821 3.73124 -1.65054 0
M  V30 4461 H 420.496 3.19039 -2.66809 0
M  V30 4462 H 419.073 3.62169 -0.888129 0
M  V30 4463 N 421.258 1.00505 1.21394 0
M  V30 4464 C 422.205 0.565496 2.23765 0
M  V30 4465 C 423.175 -0.408466 1.60999 0
M  V30 4466 O 424.36 -0.310503 1.88257 0
M  V30 4467 C 421.5 -0.101667 3.4495 0
M  V30 4468 C 420.613 0.915479 4.22188 0
M  V30 4469 C 419.748 0.220574 5.30742 0
M  V30 4470 C 418.787 1.22527 5.99711 0
M  V30 4471 N 417.924 0.557831 6.9988 0
M  V30 4472 H 422.764 1.44314 2.60725 0
M  V30 4473 H 420.301 0.722643 1.28126 0
M  V30 4474 H 422.259 -0.505504 4.14126 0
M  V30 4475 H 420.889 -0.94303 3.08718 0
M  V30 4476 H 419.941 1.43756 3.52191 0
M  V30 4477 H 421.253 1.68005 4.69655 0
M  V30 4478 H 420.407 -0.239368 6.06228 0
M  V30 4479 H 419.146 -0.576401 4.84282 0
M  V30 4480 H 418.151 1.69571 5.22997 0
M  V30 4481 H 419.376 2.02332 6.48258 0
M  V30 4482 H 417.322 -0.219486 6.55633 0
M  V30 4483 H 417.239 1.26065 7.45415 0
M  V30 4484 H 418.507 0.121095 7.79406 0
M  V30 4485 N 422.737 -1.36956 0.779787 0
M  V30 4486 C 423.687 -2.27539 0.144892 0
M  V30 4487 C 424.671 -1.46493 -0.665488 0
M  V30 4488 O 425.863 -1.68968 -0.527141 0
M  V30 4489 C 422.992 -3.35512 -0.727082 0
M  V30 4490 C 422.078 -4.24001 0.0915642 0
M  V30 4491 N 422.469 -4.92757 1.14125 0
M  V30 4492 C 420.767 -4.45807 -0.131141 0
M  V30 4493 C 421.468 -5.58138 1.6388 0
M  V30 4494 N 420.444 -5.35241 0.94962 0
M  V30 4495 H 424.246 -2.78176 0.948446 0
M  V30 4496 H 421.76 -1.50169 0.618315 0
M  V30 4497 H 423.757 -3.99324 -1.19776 0
M  V30 4498 H 422.417 -2.86431 -1.52929 0
M  V30 4499 H 423.428 -4.94984 1.52353 0
M  V30 4500 H 420.105 -4.07582 -0.904621 0
M  V30 4501 H 421.495 -6.23071 2.51461 0
M  V30 4502 N 424.215 -0.530993 -1.48385 0
M  V30 4503 C 425.464 0.00474348 -2.01699 0
M  V30 4504 C 425.777 1.35227 -1.41325 0
M  V30 4505 O 426.983 1.97643 -1.86144 0
M  V30 4506 C 425.439 0.0588473 -3.59852 0
M  V30 4507 C 425.047 -1.28385 -4.2921 0
M  V30 4508 C 426.791 0.543358 -4.21008 0
M  V30 4509 C 424.698 -1.19028 -5.79298 0
M  V30 4510 H 423.628 0.00554317 -0.75398 0
M  V30 4511 H 426.279 -0.674924 -1.70637 0
M  V30 4512 H 424.661 0.803612 -3.8776 0
M  V30 4513 H 425.835 -2.04426 -4.12973 0
M  V30 4514 H 424.15 -1.70418 -3.7993 0
M  V30 4515 H 426.747 0.631351 -5.3096 0
M  V30 4516 H 427.09 1.54937 -3.86394 0
M  V30 4517 H 427.623 -0.145754 -3.97533 0
M  V30 4518 H 424.362 -2.17147 -6.18488 0
M  V30 4519 H 423.882 -0.471246 -5.97946 0
M  V30 4520 H 425.561 -0.881365 -6.40969 0
M  V30 4521 N 425.693 1.55336 -0.266172 0
M  V30 4522 C 426.942 1.98574 0.353749 0
M  V30 4523 C 427.255 1.15789 1.57646 0
M  V30 4524 O 428.461 1.49129 2.26876 0
M  V30 4525 C 426.917 3.53403 0.680747 0
M  V30 4526 C 426.525 4.44953 -0.52165 0
M  V30 4527 C 428.269 4.05251 1.26379 0
M  V30 4528 C 426.176 5.91156 -0.169736 0
M  V30 4529 H 425.106 0.741643 0.135949 0
M  V30 4530 H 427.757 1.79743 -0.369421 0
M  V30 4531 H 426.139 3.68001 1.46257 0
M  V30 4532 H 427.313 4.42121 -1.29869 0
M  V30 4533 H 425.628 4.03691 -1.02093 0
M  V30 4534 H 428.225 5.12021 1.54074 0
M  V30 4535 H 428.568 3.53749 2.19471 0
M  V30 4536 H 429.101 3.94057 0.544447 0
M  V30 4537 H 425.84 6.46736 -1.0683 0
M  V30 4538 H 425.36 5.97079 0.570717 0
M  V30 4539 H 427.039 6.4655 0.241245 0
M  V30 4540 N 427.171 -0.0066808 1.57599 0
M  V30 4541 C 428.42 -0.692078 1.89455 0
M  V30 4542 C 428.733 -1.75306 0.867586 0
M  V30 4543 O 429.939 -2.49262 1.07614 0
M  V30 4544 C 428.395 -1.2821 3.36289 0
M  V30 4545 C 428.003 -0.256291 4.47266 0
M  V30 4546 C 429.747 -1.94608 3.77264 0
M  V30 4547 C 427.654 -0.855927 5.85173 0
M  V30 4548 H 426.584 -0.262252 0.706923 0
M  V30 4549 H 429.235 0.052769 1.83424 0
M  V30 4550 H 427.617 -2.0774 3.37135 0
M  V30 4551 H 428.791 0.513923 4.57925 0
M  V30 4552 H 427.106 0.306862 4.15268 0
M  V30 4553 H 429.703 -2.40364 4.77629 0
M  V30 4554 H 430.046 -2.77382 3.10427 0
M  V30 4555 H 430.579 -1.21822 3.78688 0
M  V30 4556 H 427.318 -0.0671161 6.55466 0
M  V30 4557 H 426.838 -1.59546 5.78191 0
M  V30 4558 H 428.517 -1.35658 6.32618 0
M  V30 4559 N 428.649 -1.55105 -0.279332 0
M  V30 4560 C 429.559 -1.90638 -1.36727 0
M  V30 4561 C 430.575 -0.802899 -1.54368 0
M  V30 4562 O 431.751 -1.10138 -1.68616 0
M  V30 4563 C 428.816 -2.16547 -2.70755 0
M  V30 4564 C 427.877 -3.40146 -2.61915 0
M  V30 4565 C 427.11 -3.6481 -3.8955 0
M  V30 4566 O 427.333 -2.92095 -4.89935 0
M  V30 4567 O 426.267 -4.58343 -3.90135 0
M  V30 4568 H 430.093 -2.83237 -1.09591 0
M  V30 4569 H 427.678 -1.4157 -0.477306 0
M  V30 4570 H 429.56 -2.34665 -3.50014 0
M  V30 4571 H 428.235 -1.27131 -2.9769 0
M  V30 4572 H 427.142 -3.2737 -1.81052 0
M  V30 4573 H 428.475 -4.29761 -2.3993 0
M  V30 4574 N 430.127 0.543554 -1.4793 0
M  V30 4575 C 431.543 0.870806 -1.3375 0
M  V30 4576 C 431.743 1.9864 -0.338261 0
M  V30 4577 O 430.799 2.51305 0.245371 0
M  V30 4578 C 432.112 1.25114 -2.73435 0
M  V30 4579 C 433.66 1.3618 -2.81823 0
M  V30 4580 C 434.135 1.77563 -4.22179 0
M  V30 4581 N 435.626 1.8469 -4.24787 0
M  V30 4582 C 436.361 2.18067 -5.30315 0
M  V30 4583 N 435.857 2.49963 -6.46135 0
M  V30 4584 N 437.65 2.18958 -5.17701 0
M  V30 4585 H 429.801 -0.19275 -2.11524 0
M  V30 4586 H 432.064 -0.0235777 -0.947707 0
M  V30 4587 H 431.77 0.50514 -3.48053 0
M  V30 4588 H 431.644 2.20431 -3.06088 0
M  V30 4589 H 434.031 2.09859 -2.07468 0
M  V30 4590 H 434.112 0.390169 -2.52807 0
M  V30 4591 H 433.756 1.04449 -4.97044 0
M  V30 4592 H 433.686 2.75753 -4.48629 0
M  V30 4593 H 436.177 1.62372 -3.41239 0
M  V30 4594 H 436.49 2.74497 -7.22406 0
M  V30 4595 H 434.835 2.47513 -6.49432 0
M  V30 4596 H 438.026 1.93488 -4.2624 0
M  V30 4597 H 438.199 2.44639 -6.00047 0
M  V30 4598 N 431.605 1.3629 0.791371 0
M  V30 4599 C 432.83 1.33726 1.58531 0
M  V30 4600 C 433.255 -0.0794933 1.87932 0
M  V30 4601 O 432.613 -1.05087 1.47738 0
M  V30 4602 C 432.661 2.16425 2.88431 0
M  V30 4603 O 431.765 1.5554 3.81944 0
M  V30 4604 H 431.106 0.457793 0.480959 0
M  V30 4605 H 433.636 1.79547 0.981031 0
M  V30 4606 H 433.646 2.28933 3.37718 0
M  V30 4607 H 432.321 3.19415 2.66359 0
M  V30 4608 H 430.898 1.51961 3.40532 0
M  V30 4609 N 433.083 -1.0153 1.20538 0
M  V30 4610 C 434.031 -2.12215 0.952235 0
M  V30 4611 C 435.025 -1.69123 -0.0968735 0
M  V30 4612 O 436.231 -1.7992 0.0536006 0
M  V30 4613 H 432.606 -0.693576 0.290613 0
M  V30 4614 H 434.577 -2.3075 1.89201 0
M  V30 4615 C 433.326 -3.43755 0.522287 0
M  V30 4616 H 432.649 -3.7734 1.32115 0
M  V30 4617 H 434.089 -4.22254 0.384389 0
M  V30 4618 C 432.548 -3.28088 -0.765489 0
M  V30 4619 O 433.078 -3.57921 -1.8236 0
M  V30 4620 N 431.284 -2.81333 -0.728011 0
M  V30 4621 H 430.831 -2.57255 0.133332 0
M  V30 4622 H 430.789 -2.71232 -1.58999 0
M  V30 4623 N 434.561 -1.01147 -1.20859 0
M  V30 4624 C 435.789 -0.716911 -1.94082 0
M  V30 4625 C 436.204 0.721568 -1.74467 0
M  V30 4626 O 435.561 1.48889 -1.05539 0
M  V30 4627 C 435.612 -1.03662 -3.46318 0
M  V30 4628 O 435.333 -2.4186 -3.65288 0
M  V30 4629 C 436.834 -0.762386 -4.36695 0
M  V30 4630 H 434.054 -0.26367 -0.617024 0
M  V30 4631 H 436.598 -1.35127 -1.53496 0
M  V30 4632 H 434.753 -0.447757 -3.84804 0
M  V30 4633 H 435.167 -2.53224 -4.59323 0
M  V30 4634 H 436.641 -1.03621 -5.42187 0
M  V30 4635 H 437.118 0.303514 -4.3815 0
M  V30 4636 H 437.724 -1.33316 -4.03865 0
M  V30 4637 N 436.039 1.36541 -0.78704 0
M  V30 4638 C 437.455 1.52571 -0.46844 0
M  V30 4639 C 437.655 1.7415 1.01361 0
M  V30 4640 O 436.711 1.77163 1.79915 0
M  V30 4641 C 438.024 2.71299 -1.29682 0
M  V30 4642 C 439.572 2.85169 -1.29027 0
M  V30 4643 C 440.047 4.06898 -2.10233 0
M  V30 4644 N 441.538 4.1404 -2.07666 0
M  V30 4645 C 442.273 5.07301 -2.67271 0
M  V30 4646 N 441.769 6.06021 -3.35724 0
M  V30 4647 N 443.562 4.99898 -2.57018 0
M  V30 4648 H 435.713 1.20788 -1.74711 0
M  V30 4649 H 437.976 0.589364 -0.742532 0
M  V30 4650 H 437.682 2.61868 -2.34773 0
M  V30 4651 H 437.556 3.6539 -0.936479 0
M  V30 4652 H 439.943 2.94062 -0.247284 0
M  V30 4653 H 440.024 1.91992 -1.69035 0
M  V30 4654 H 439.668 3.98766 -3.1456 0
M  V30 4655 H 439.598 4.99218 -1.67597 0
M  V30 4656 H 442.089 3.43357 -1.57843 0
M  V30 4657 H 442.402 6.73741 -3.78541 0
M  V30 4658 H 440.747 6.06253 -3.39826 0
M  V30 4659 H 443.938 4.21724 -2.03142 0
M  V30 4660 H 444.111 5.72392 -3.03761 0
M  V30 4661 N 437.518 0.538854 1.48102 0
M  V30 4662 C 438.743 0.0102694 2.07397 0
M  V30 4663 C 439.168 -1.26562 1.39153 0
M  V30 4664 O 438.526 -1.75357 0.460387 0
M  V30 4665 C 438.574 -0.187602 3.60112 0
M  V30 4666 O 437.678 -1.25432 3.92862 0
M  V30 4667 H 437.019 0.0430975 0.6626 0
M  V30 4668 H 439.549 0.749301 1.90385 0
M  V30 4669 H 439.559 -0.407517 4.0596 0
M  V30 4670 H 438.234 0.744386 4.09184 0
M  V30 4671 H 436.811 -1.01636 3.58782 0
M  V30 4672 N 438.996 -1.55193 0.274407 0
M  V30 4673 C 440.221 -2.04446 -0.348824 0
M  V30 4674 C 440.646 -1.15149 -1.48735 0
M  V30 4675 O 440.004 -0.149952 -1.80679 0
M  V30 4676 C 440.052 -3.51431 -0.808009 0
M  V30 4677 O 439.156 -3.65225 -1.91531 0
M  V30 4678 H 438.497 -0.66006 -0.0722276 0
M  V30 4679 H 441.027 -2.00481 0.408498 0
M  V30 4680 H 441.037 -3.92781 -1.10395 0
M  V30 4681 H 439.712 -4.15892 0.0249865 0
M  V30 4682 H 438.289 -3.35778 -1.62196 0
M  V30 4683 N 440.474 -0.00167713 -1.576 0
M  V30 4684 C 441.404 0.988091 -2.11563 0
M  V30 4685 C 442.385 1.35736 -1.02517 0
M  V30 4686 O 443.57 1.44082 -1.30208 0
M  V30 4687 C 440.7 2.27941 -2.62031 0
M  V30 4688 C 439.654 2.0517 -3.75619 0
M  V30 4689 C 438.98 3.4033 -4.12407 0
M  V30 4690 C 440.28 1.41294 -5.02825 0
M  V30 4691 H 441.974 0.538771 -2.94513 0
M  V30 4692 H 439.52 0.257712 -1.41675 0
M  V30 4693 H 441.473 2.97539 -2.9841 0
M  V30 4694 H 440.197 2.74989 -1.76205 0
M  V30 4695 H 438.856 1.37998 -3.39635 0
M  V30 4696 H 438.504 3.85085 -3.23603 0
M  V30 4697 H 438.204 3.25909 -4.88935 0
M  V30 4698 H 439.728 4.1124 -4.51347 0
M  V30 4699 H 441.142 2.00851 -5.36965 0
M  V30 4700 H 439.539 1.37356 -5.84169 0
M  V30 4701 H 440.609 0.382362 -4.8339 0
M  V30 4702 N 441.952 1.55251 0.271103 0
M  V30 4703 C 442.915 1.87484 1.31842 0
M  V30 4704 C 443.915 0.749545 1.42262 0
M  V30 4705 O 445.105 1.01771 1.4138 0
M  V30 4706 C 442.237 2.0818 2.69951 0
M  V30 4707 H 443.43 2.81108 1.0449 0
M  V30 4708 H 440.983 1.47771 0.509258 0
M  V30 4709 H 441.718 1.16944 3.02481 0
M  V30 4710 H 441.503 2.90114 2.63774 0
M  V30 4711 H 442.993 2.34385 3.4562 0
M  V30 4712 N 443.43 -0.535701 1.48216 0
M  V30 4713 C 444.34 -1.66785 1.64985 0
M  V30 4714 C 445.356 -1.65654 0.532414 0
M  V30 4715 O 446.532 -1.8471 0.80275 0
M  V30 4716 C 443.597 -3.0326 1.68031 0
M  V30 4717 C 442.658 -3.1529 2.9136 0
M  V30 4718 C 441.891 -4.45255 2.94252 0
M  V30 4719 O 442.114 -5.32011 2.05719 0
M  V30 4720 O 441.048 -4.6153 3.86359 0
M  V30 4721 H 444.874 -1.55576 2.60825 0
M  V30 4722 H 442.459 -0.70815 1.31551 0
M  V30 4723 H 444.341 -3.84436 1.72589 0
M  V30 4724 H 443.016 -3.14805 0.753628 0
M  V30 4725 H 441.923 -2.3343 2.92337 0
M  V30 4726 H 443.256 -3.08658 3.83394 0
M  V30 4727 N 444.908 -1.36708 -0.784132 0
M  V30 4728 C 446.154 -1.31426 -1.54451 0
M  V30 4729 C 446.487 0.10476 -1.93917 0
M  V30 4730 O 445.762 1.05934 -1.6312 0
M  V30 4731 C 446.045 -2.24189 -2.818 0
M  V30 4732 C 445.898 -3.74813 -2.48667 0
M  V30 4733 C 447.217 -2.15626 -3.83658 0
M  V30 4734 H 444.336 -0.478739 -0.560337 0
M  V30 4735 H 446.978 -1.67305 -0.900498 0
M  V30 4736 H 445.128 -1.93722 -3.36755 0
M  V30 4737 H 446.8 -4.15823 -1.99722 0
M  V30 4738 H 445.043 -3.93989 -1.81535 0
M  V30 4739 H 445.714 -4.35138 -3.39646 0
M  V30 4740 H 448.19 -2.42456 -3.38163 0
M  V30 4741 H 447.066 -2.82694 -4.70506 0
M  V30 4742 H 447.327 -1.14522 -4.27009 0
M  V30 4743 N 446.386 1.0089 -1.21074 0
M  V30 4744 C 447.318 2.09737 -0.924291 0
M  V30 4745 C 448.331 1.62546 0.0909809 0
M  V30 4746 O 449.52 1.77942 -0.141021 0
M  V30 4747 C 446.62 3.36922 -0.36559 0
M  V30 4748 C 445.793 4.13216 -1.43426 0
M  V30 4749 C 444.852 5.18696 -0.885496 0
M  V30 4750 O 443.878 5.47176 -1.56801 0
M  V30 4751 N 445.08 5.79718 0.301227 0
M  V30 4752 H 447.845 2.34895 -1.8613 0
M  V30 4753 H 445.406 1.17341 -1.11546 0
M  V30 4754 H 447.398 4.04697 0.0158407 0
M  V30 4755 H 445.968 3.08952 0.476149 0
M  V30 4756 H 445.188 3.40301 -1.9897 0
M  V30 4757 H 446.476 4.60967 -2.15376 0
M  V30 4758 H 445.874 5.58926 0.872849 0
M  V30 4759 H 444.431 6.48804 0.624211 0
M  V30 4760 N 447.864 1.01787 1.20321 0
M  V30 4761 C 449.089 0.727009 1.9424 0
M  V30 4762 C 449.514 -0.706179 1.74341 0
M  V30 4763 O 448.872 -1.48609 1.03852 0
M  V30 4764 C 448.92 1.06958 3.44372 0
M  V30 4765 O 448.024 0.181983 4.11998 0
M  V30 4766 H 447.365 0.269626 0.606793 0
M  V30 4767 H 449.895 1.36158 1.52716 0
M  V30 4768 H 449.905 1.02182 3.94997 0
M  V30 4769 H 448.58 2.11378 3.58179 0
M  V30 4770 H 447.157 0.287378 3.71791 0
M  V30 4771 N 449.342 -1.36122 0.79427 0
M  V30 4772 C 450.252 -2.33769 0.197296 0
M  V30 4773 C 451.268 -1.61276 -0.653153 0
M  V30 4774 O 452.444 -1.9323 -0.5678 0
M  V30 4775 C 449.509 -3.40474 -0.654098 0
M  V30 4776 C 448.57 -4.28759 0.215411 0
M  V30 4777 C 447.803 -5.30368 -0.595443 0
M  V30 4778 O 448.026 -5.40211 -1.83107 0
M  V30 4779 O 446.96 -6.019 0.00721351 0
M  V30 4780 H 450.786 -2.86597 1.00478 0
M  V30 4781 H 448.371 -1.38676 0.555818 0
M  V30 4782 H 450.253 -4.05703 -1.13944 0
M  V30 4783 H 448.928 -2.89937 -1.43938 0
M  V30 4784 H 447.835 -3.66554 0.747615 0
M  V30 4785 H 449.168 -4.82661 0.964332 0
M  V30 4786 N 450.82 -0.546701 -1.47814 0
M  V30 4787 C 452.069 -0.0166497 -2.01693 0
M  V30 4788 C 452.382 1.33721 -1.42752 0
M  V30 4789 O 453.588 1.95658 -1.8823 0
M  V30 4790 C 452.044 0.0206769 -3.59894 0
M  V30 4791 C 451.652 -1.3293 -4.27824 0
M  V30 4792 C 453.396 0.498674 -4.21561 0
M  V30 4793 C 451.303 -1.25165 -5.78003 0
M  V30 4794 H 450.233 -0.0024541 -0.753996 0
M  V30 4795 H 452.884 -0.692984 -1.69912 0
M  V30 4796 H 451.266 0.76244 -3.88591 0
M  V30 4797 H 452.44 -2.08795 -4.10781 0
M  V30 4798 H 450.755 -1.74438 -3.78101 0
M  V30 4799 H 453.352 0.575 -5.31599 0
M  V30 4800 H 453.695 1.5083 -3.88016 0
M  V30 4801 H 454.228 -0.18791 -3.97356 0
M  V30 4802 H 450.967 -2.23695 -6.1615 0
M  V30 4803 H 450.487 -0.53464 -5.97412 0
M  V30 4804 H 452.166 -0.949299 -6.39998 0
M  V30 4805 N 452.299 1.55045 -0.282633 0
M  V30 4806 C 453.209 2.26491 0.61147 0
M  V30 4807 C 454.225 1.29348 1.16384 0
M  V30 4808 O 455.401 1.62298 1.19253 0
M  V30 4809 C 452.466 2.97779 1.77563 0
M  V30 4810 C 451.527 4.10418 1.25919 0
M  V30 4811 C 450.76 4.78297 2.36786 0
M  V30 4812 O 450.983 4.45426 3.56303 0
M  V30 4813 O 449.917 5.66089 2.04517 0
M  V30 4814 H 453.743 3.03683 0.0324615 0
M  V30 4815 H 451.328 1.49317 -0.0497576 0
M  V30 4816 H 453.21 3.42554 2.45427 0
M  V30 4817 H 451.885 2.23498 2.34159 0
M  V30 4818 H 450.792 3.70082 0.546797 0
M  V30 4819 H 452.125 4.86622 0.738887 0
M  V30 4820 N 453.777 0.010035 1.57597 0
M  V30 4821 C 455.193 -0.346164 1.55801 0
M  V30 4822 C 455.393 -1.74144 1.01371 0
M  V30 4823 O 454.449 -2.43938 0.651968 0
M  V30 4824 C 455.762 -0.212216 2.9995 0
M  V30 4825 C 457.31 -0.286409 3.11687 0
M  V30 4826 C 457.785 -0.18147 4.5764 0
M  V30 4827 N 459.276 -0.239056 4.62583 0
M  V30 4828 C 460.011 -0.181351 5.73113 0
M  V30 4829 N 459.507 -0.073661 6.92761 0
M  V30 4830 N 461.3 -0.233949 5.61613 0
M  V30 4831 H 453.451 0.922657 1.91313 0
M  V30 4832 H 455.714 0.354595 0.879185 0
M  V30 4833 H 455.42 0.748169 3.4365 0
M  V30 4834 H 455.294 -0.990224 3.6397 0
M  V30 4835 H 457.681 -1.23724 2.67911 0
M  V30 4836 H 457.762 0.521645 2.50425 0
M  V30 4837 H 457.406 0.765863 5.02093 0
M  V30 4838 H 457.336 -1.00814 5.1686 0
M  V30 4839 H 459.827 -0.32321 3.76515 0
M  V30 4840 H 460.14 -0.0358003 7.72792 0
M  V30 4841 H 458.485 -0.0391461 6.94989 0
M  V30 4842 H 461.676 -0.316347 4.6703 0
M  V30 4843 H 461.849 -0.185514 6.47734 0
M  V30 4844 N 455.255 -1.55392 -0.262866 0
M  V30 4845 C 456.504 -1.75679 -0.990943 0
M  V30 4846 C 456.817 -0.57097 -1.87081 0
M  V30 4847 O 458.023 -0.656486 -2.63444 0
M  V30 4848 C 456.479 -3.10964 -1.81188 0
M  V30 4849 C 456.087 -4.37146 -0.980188 0
M  V30 4850 C 457.831 -3.40597 -2.53365 0
M  V30 4851 C 455.738 -5.63466 -1.7961 0
M  V30 4852 H 454.668 -0.654868 -0.373716 0
M  V30 4853 H 457.319 -1.81841 -0.246203 0
M  V30 4854 H 455.701 -2.98867 -2.59797 0
M  V30 4855 H 456.875 -4.60187 -0.237558 0
M  V30 4856 H 455.19 -4.14731 -0.372497 0
M  V30 4857 H 457.787 -4.32186 -3.14833 0
M  V30 4858 H 458.13 -2.6119 -3.24169 0
M  V30 4859 H 458.663 -3.53838 -1.81779 0
M  V30 4860 H 455.402 -6.4565 -1.13209 0
M  V30 4861 H 454.922 -5.44552 -2.51443 0
M  V30 4862 H 456.601 -6.02139 -2.36723 0
M  V30 4863 N 456.733 0.527833 -1.48498 0
M  V30 4864 C 457.98 1.28354 -1.56625 0
M  V30 4865 C 458.308 1.93 -0.241096 0
M  V30 4866 O 457.563 1.79967 0.768798 0
M  V30 4867 C 457.862 2.39275 -2.65485 0
M  V30 4868 C 457.528 1.92268 -4.07853 0
M  V30 4869 C 456.19 1.79166 -4.46602 0
M  V30 4870 C 458.542 1.56771 -4.97064 0
M  V30 4871 C 455.87 1.28905 -5.72364 0
M  V30 4872 C 458.222 1.07972 -6.23318 0
M  V30 4873 C 456.886 0.934887 -6.60921 0
M  V30 4874 H 456.156 0.469682 -0.573131 0
M  V30 4875 H 458.803 0.588781 -1.82224 0
M  V30 4876 H 457.108 3.1443 -2.33754 0
M  V30 4877 H 458.805 2.974 -2.68988 0
M  V30 4878 H 455.395 2.03417 -3.77252 0
M  V30 4879 H 459.579 1.65753 -4.67803 0
M  V30 4880 H 454.835 1.16381 -6.00221 0
M  V30 4881 H 459.009 0.795775 -6.91838 0
M  V30 4882 H 456.636 0.543231 -7.58257 0
M  V30 4883 N 458.211 1.37122 0.776871 0
M  V30 4884 C 459.121 1.34651 1.9211 0
M  V30 4885 C 460.137 0.246824 1.7224 0
M  V30 4886 O 461.313 0.48134 1.95563 0
M  V30 4887 C 458.378 1.14748 3.2716 0
M  V30 4888 C 457.439 2.34308 3.5972 0
M  V30 4889 C 456.672 2.15345 4.88326 0
M  V30 4890 O 456.895 1.13507 5.58992 0
M  V30 4891 O 455.829 3.03414 5.1983 0
M  V30 4892 H 459.655 2.31013 1.97146 0
M  V30 4893 H 457.24 1.17799 0.918901 0
M  V30 4894 H 459.122 1.05616 4.0795 0
M  V30 4895 H 457.797 0.214562 3.22988 0
M  V30 4896 H 456.704 2.49011 2.79185 0
M  V30 4897 H 458.037 3.26149 3.68629 0
M  V30 4898 N 459.689 -1.00246 1.21608 0
M  V30 4899 C 460.619 -2.10921 1.00172 0
M  V30 4900 C 461.6 -1.69938 -0.0741587 0
M  V30 4901 O 462.785 -1.94009 0.0861753 0
M  V30 4902 C 459.915 -3.42618 0.568355 0
M  V30 4903 C 458.869 -3.97407 1.58909 0
M  V30 4904 C 458.195 -5.25038 1.01187 0
M  V30 4905 C 459.495 -4.2918 2.97661 0
M  V30 4906 H 461.189 -2.29112 1.92739 0
M  V30 4907 H 458.735 -1.10101 0.928102 0
M  V30 4908 H 460.688 -4.19444 0.405555 0
M  V30 4909 H 459.412 -3.24227 -0.392961 0
M  V30 4910 H 458.071 -3.22703 1.73949 0
M  V30 4911 H 457.719 -5.02982 0.0421965 0
M  V30 4912 H 457.419 -5.62661 1.6937 0
M  V30 4913 H 458.943 -6.04507 0.860448 0
M  V30 4914 H 460.357 -4.96839 2.86049 0
M  V30 4915 H 458.754 -4.77952 3.6288 0
M  V30 4916 H 459.824 -3.3735 3.48315 0
M  V30 4917 N 461.167 -1.02423 -1.1978 0
M  V30 4918 C 462.13 -0.605703 -2.21052 0
M  V30 4919 C 463.13 0.328209 -1.57415 0
M  V30 4920 O 464.32 0.115853 -1.73814 0
M  V30 4921 C 461.452 0.114366 -3.40708 0
M  V30 4922 H 462.645 -1.5017 -2.59594 0
M  V30 4923 H 460.198 -0.814888 -1.33376 0
M  V30 4924 H 460.933 1.02492 -3.07678 0
M  V30 4925 H 460.718 -0.556641 -3.88129 0
M  V30 4926 H 462.208 0.394272 -4.15735 0
M  V30 4927 N 462.645 1.35699 -0.801477 0
M  V30 4928 C 464.061 1.52065 -0.484596 0
M  V30 4929 C 464.261 1.75215 0.995084 0
M  V30 4930 O 463.317 1.79061 1.78026 0
M  V30 4931 C 464.63 2.69908 -1.32552 0
M  V30 4932 C 466.178 2.83784 -1.32044 0
M  V30 4933 C 466.653 4.04646 -2.14536 0
M  V30 4934 N 468.144 4.11814 -2.12046 0
M  V30 4935 C 468.879 5.04437 -2.72636 0
M  V30 4936 N 468.375 6.02426 -3.42133 0
M  V30 4937 N 470.168 4.97144 -2.62305 0
M  V30 4938 H 462.319 1.18928 -1.75983 0
M  V30 4939 H 464.582 0.581455 -0.748741 0
M  V30 4940 H 464.288 2.59363 -2.37537 0
M  V30 4941 H 464.162 3.64376 -0.975181 0
M  V30 4942 H 466.549 2.93783 -0.27846 0
M  V30 4943 H 466.63 1.90188 -1.71062 0
M  V30 4944 H 466.274 3.95407 -3.18772 0
M  V30 4945 H 466.204 4.97413 -1.72882 0
M  V30 4946 H 468.695 3.41664 -1.61476 0
M  V30 4947 H 469.008 6.69688 -3.85666 0
M  V30 4948 H 467.353 6.02615 -3.46237 0
M  V30 4949 H 470.544 4.19546 -2.07603 0
M  V30 4950 H 470.717 5.69138 -3.09815 0
M  V30 4951 N 464.123 0.554532 1.47522 0
M  V30 4952 C 465.351 0.034257 2.06872 0
M  V30 4953 C 465.766 -1.25826 1.40759 0
M  V30 4954 O 465.123 -1.75425 0.503217 0
M  V30 4955 C 465.174 -0.167827 3.6111 0
M  V30 4956 O 464.895 1.07351 4.24744 0
M  V30 4957 C 466.396 -0.72569 4.3732 0
M  V30 4958 H 463.616 0.0446275 0.669514 0
M  V30 4959 H 466.16 0.767181 1.89564 0
M  V30 4960 H 464.315 -0.850872 3.7794 0
M  V30 4961 H 464.729 0.869563 5.17242 0
M  V30 4962 H 466.203 -0.816394 5.45929 0
M  V30 4963 H 466.68 -1.73635 4.0342 0
M  V30 4964 H 467.286 -0.0784292 4.25228 0
M  V30 4965 N 465.601 -1.54893 0.290851 0
M  V30 4966 C 466.531 -2.26103 -0.583084 0
M  V30 4967 C 467.512 -1.25684 -1.14619 0
M  V30 4968 O 468.697 -1.54436 -1.17741 0
M  V30 4969 C 465.827 -2.99409 -1.75987 0
M  V30 4970 C 464.781 -4.0689 -1.32758 0
M  V30 4971 C 464.107 -4.67856 -2.58872 0
M  V30 4972 C 465.407 -5.20215 -0.46624 0
M  V30 4973 H 467.101 -2.99398 0.0108214 0
M  V30 4974 H 464.647 -1.43998 0.00664468 0
M  V30 4975 H 466.6 -3.47943 -2.37727 0
M  V30 4976 H 465.324 -2.23675 -2.37985 0
M  V30 4977 H 463.983 -3.59191 -0.733299 0
M  V30 4978 H 463.631 -3.88772 -3.19163 0
M  V30 4979 H 463.331 -5.40438 -2.30653 0
M  V30 4980 H 464.855 -5.19147 -3.21433 0
M  V30 4981 H 466.269 -5.64704 -0.989047 0
M  V30 4982 H 464.666 -5.99455 -0.27826 0
M  V30 4983 H 465.736 -4.82198 0.511173 0
M  V30 4984 N 467.08 -0.0183926 -1.57589 0
M  V30 4985 C 468.012 0.995557 -2.06449 0
M  V30 4986 C 469.025 1.29556 -0.985849 0
M  V30 4987 O 470.214 1.2621 -1.26227 0
M  V30 4988 C 467.314 2.32572 -2.46502 0
M  V30 4989 C 466.487 2.21245 -3.77319 0
M  V30 4990 C 465.546 3.37104 -4.04039 0
M  V30 4991 O 464.572 3.14468 -4.74445 0
M  V30 4992 N 465.774 4.60553 -3.53372 0
M  V30 4993 H 468.539 0.578746 -2.94059 0
M  V30 4994 H 466.1 0.168603 -1.6102 0
M  V30 4995 H 468.092 3.08887 -2.61478 0
M  V30 4996 H 466.662 2.65931 -1.64315 0
M  V30 4997 H 465.882 1.29723 -3.72244 0
M  V30 4998 H 467.17 2.10868 -4.63047 0
M  V30 4999 H 466.568 4.81839 -2.96391 0
M  V30 5000 H 465.125 5.34072 -3.73644 0
M  V30 5001 N 468.558 1.5553 0.254621 0
M  V30 5002 C 469.488 1.9268 1.31897 0
M  V30 5003 C 470.469 0.790797 1.506 0
M  V30 5004 O 471.654 1.05045 1.63337 0
M  V30 5005 C 468.784 2.21477 2.67517 0
M  V30 5006 C 467.738 3.37256 2.63519 0
M  V30 5007 C 467.064 3.51576 4.02862 0
M  V30 5008 C 468.364 4.73157 2.21179 0
M  V30 5009 H 470.058 2.81832 1.01051 0
M  V30 5010 H 467.604 1.35599 0.484662 0
M  V30 5011 H 469.557 2.46055 3.42104 0
M  V30 5012 H 468.281 1.29144 2.99982 0
M  V30 5013 H 466.94 3.12675 1.9139 0
M  V30 5014 H 466.588 2.56676 4.32581 0
M  V30 5015 H 466.288 4.2943 4.01078 0
M  V30 5016 H 467.812 3.78467 4.79161 0
M  V30 5017 H 469.226 4.97158 2.85494 0
M  V30 5018 H 467.623 5.54058 2.30521 0
M  V30 5019 H 468.693 4.70739 1.16332 0
M  V30 5020 N 470.036 -0.519951 1.48776 0
M  V30 5021 C 471.282 -1.27711 1.57536 0
M  V30 5022 C 471.615 -1.92547 0.252866 0
M  V30 5023 O 470.89 -1.7979 -0.742021 0
M  V30 5024 C 471.173 -2.35875 2.72094 0
M  V30 5025 C 471.026 -1.75664 4.1408 0
M  V30 5026 C 472.345 -3.37575 2.82367 0
M  V30 5027 H 469.464 -0.462971 0.573434 0
M  V30 5028 H 472.106 -0.578194 1.80989 0
M  V30 5029 H 470.256 -2.95488 2.52228 0
M  V30 5030 H 471.928 -1.20025 4.45412 0
M  V30 5031 H 470.171 -1.06154 4.20611 0
M  V30 5032 H 470.842 -2.54029 4.90075 0
M  V30 5033 H 473.318 -2.87929 3.00393 0
M  V30 5034 H 472.194 -4.1064 3.64233 0
M  V30 5035 H 472.455 -3.98743 1.90936 0
M  V30 5036 N 471.514 -1.37532 -0.769588 0
M  V30 5037 C 472.477 -1.33292 -1.86456 0
M  V30 5038 C 473.477 -0.236537 -1.59051 0
M  V30 5039 O 474.667 -0.492511 -1.67093 0
M  V30 5040 C 471.799 -1.07118 -3.23633 0
M  V30 5041 H 472.992 -2.30692 -1.91628 0
M  V30 5042 H 470.545 -1.22593 -0.969572 0
M  V30 5043 H 471.28 -0.102578 -3.24138 0
M  V30 5044 H 471.065 -1.86479 -3.44917 0
M  V30 5045 H 472.555 -1.06806 -4.03711 0
M  V30 5046 N 472.992 0.995999 -1.22138 0
M  V30 5047 C 473.922 2.10387 -1.01289 0
M  V30 5048 C 474.903 1.69975 0.0651454 0
M  V30 5049 O 476.088 1.9396 -0.0964628 0
M  V30 5050 C 473.218 3.42312 -0.586517 0
M  V30 5051 C 472.172 3.96558 -1.61014 0
M  V30 5052 C 471.498 5.24494 -1.0397 0
M  V30 5053 C 472.798 4.27595 -2.99933 0
M  V30 5054 H 474.492 2.28086 -1.93951 0
M  V30 5055 H 472.038 1.09607 -0.933928 0
M  V30 5056 H 473.991 4.19223 -0.427793 0
M  V30 5057 H 472.715 3.24431 0.375761 0
M  V30 5058 H 471.374 3.21776 -1.75658 0
M  V30 5059 H 471.022 5.02953 -0.0688703 0
M  V30 5060 H 470.722 5.61755 -1.72352 0
M  V30 5061 H 472.246 6.04042 -0.892494 0
M  V30 5062 H 473.66 4.95315 -2.8868 0
M  V30 5063 H 472.057 4.76021 -3.6541 0
M  V30 5064 H 473.127 3.35498 -3.50099 0
M  V30 5065 N 474.47 1.03057 1.19235 0
M  V30 5066 C 475.747 0.642608 1.84743 0
M  V30 5067 C 476.127 -0.878577 1.91948 0
M  V30 5068 O 475.475 -1.77597 1.43776 0
M  V30 5069 C 475.685 1.30665 3.23616 0
M  V30 5070 C 477.033 1.43098 3.9976 0
M  V30 5071 O 478.057 1.26396 3.3302 0
M  V30 5072 O 476.916 1.70223 5.19313 0
M  V30 5073 H 474.01 0.223573 0.796206 0
M  V30 5074 H 476.556 1.12883 1.26711 0
M  V30 5075 H 475.328 2.34544 3.13217 0
M  V30 5076 H 474.951 0.808405 3.89295 0
M  V30 5077 N 475.948 -1.35272 0.808662 0
M  V30 5078 C 476.911 -2.28082 0.226093 0
M  V30 5079 C 477.911 -1.49673 -0.587762 0
M  V30 5080 O 479.101 -1.69404 -0.405943 0
M  V30 5081 C 476.233 -3.33955 -0.684596 0
M  V30 5082 H 477.426 -2.81116 1.04469 0
M  V30 5083 H 474.979 -1.45162 0.579466 0
M  V30 5084 H 475.714 -2.86111 -1.5268 0
M  V30 5085 H 475.499 -3.91965 -0.102699 0
M  V30 5086 H 476.989 -4.03219 -1.08646 0
M  V30 5087 N 477.426 -0.562348 -1.47226 0
M  V30 5088 C 478.703 0.0256985 -1.95583 0
M  V30 5089 C 479.083 1.48032 -1.50498 0
M  V30 5090 O 478.431 2.15973 -0.746181 0
M  V30 5091 C 478.641 -0.125129 -3.48776 0
M  V30 5092 C 479.989 0.0175728 -4.24596 0
M  V30 5093 O 481.013 -0.0529341 -3.56161 0
M  V30 5094 O 479.872 0.170145 -5.46235 0
M  V30 5095 H 476.966 0.0612565 -0.824728 0
M  V30 5096 H 479.512 -0.629233 -1.57603 0
M  V30 5097 H 478.284 -1.13715 -3.74412 0
M  V30 5098 H 477.907 0.567178 -3.93534 0
M  V30 5099 N 478.904 1.54736 -0.299062 0
M  V30 5100 C 480.132 2.04512 0.313447 0
M  V30 5101 C 480.547 1.17643 1.47667 0
M  V30 5102 O 479.904 0.20164 1.81383 0
M  V30 5103 C 479.955 3.53171 0.771542 0
M  V30 5104 O 479.676 4.36736 -0.345379 0
M  V30 5105 C 481.177 4.18936 1.4494 0
M  V30 5106 H 478.397 0.667507 0.0683784 0
M  V30 5107 H 480.941 1.99752 -0.438129 0
M  V30 5108 H 479.096 3.58298 1.47314 0
M  V30 5109 H 479.51 5.24499 0.0109219 0
M  V30 5110 H 480.984 5.24482 1.72111 0
M  V30 5111 H 481.461 3.68554 2.38883 0
M  V30 5112 H 482.067 4.17879 0.791028 0
M  V30 5113 N 480.382 0.0267497 1.57577 0
M  V30 5114 C 481.631 -0.651736 1.9088 0
M  V30 5115 C 481.944 -1.73427 0.904576 0
M  V30 5116 O 483.15 -2.46923 1.12877 0
M  V30 5117 C 481.606 -1.21048 3.38933 0
M  V30 5118 C 481.214 -0.161362 4.47709 0
M  V30 5119 C 482.958 -1.86562 3.81307 0
M  V30 5120 C 480.865 -0.731611 5.86857 0
M  V30 5121 H 479.795 -0.247198 0.712326 0
M  V30 5122 H 482.446 0.0916641 1.83271 0
M  V30 5123 H 480.828 -2.00542 3.41466 0
M  V30 5124 H 482.002 0.61094 4.56732 0
M  V30 5125 H 480.317 0.394877 4.14523 0
M  V30 5126 H 482.914 -2.30178 4.8262 0
M  V30 5127 H 483.257 -2.70735 3.16241 0
M  V30 5128 H 483.79 -1.13762 3.81186 0
M  V30 5129 H 480.529 0.0719329 6.55461 0
M  V30 5130 H 480.049 -1.47245 5.81445 0
M  V30 5131 H 481.728 -1.22208 6.35354 0
M  V30 5132 N 481.861 -1.55662 -0.24637 0
M  V30 5133 C 482.809 -1.91186 -1.3248 0
M  V30 5134 C 483.803 -0.790996 -1.49799 0
M  V30 5135 O 485.009 -0.975617 -1.51267 0
M  V30 5136 H 481.384 -0.607207 -0.443626 0
M  V30 5137 H 483.355 -2.81221 -0.997853 0
M  V30 5138 C 482.104 -2.22349 -2.67313 0
M  V30 5139 H 481.427 -3.08097 -2.54786 0
M  V30 5140 H 482.867 -2.51107 -3.41645 0
M  V30 5141 C 481.326 -1.04001 -3.20446 0
M  V30 5142 O 481.856 -0.28828 -4.00664 0
M  V30 5143 N 480.062 -0.830494 -2.7848 0
M  V30 5144 H 479.609 -1.4435 -2.13356 0
M  V30 5145 H 479.567 -0.0403258 -3.14374 0
M  V30 5146 N 483.339 0.512053 -1.4905 0
M  V30 5147 C 484.289 1.61142 -1.61298 0
M  V30 5148 C 485.273 1.53908 -0.46916 0
M  V30 5149 O 486.465 1.61625 -0.721547 0
M  V30 5150 C 483.594 2.998 -1.67256 0
M  V30 5151 C 482.68 3.12072 -2.87179 0
M  V30 5152 N 483.071 2.94263 -4.11391 0
M  V30 5153 C 481.369 3.43156 -2.84886 0
M  V30 5154 C 482.07 3.10426 -4.91946 0
M  V30 5155 N 481.046 3.38808 -4.251 0
M  V30 5156 H 484.848 1.46011 -2.55065 0
M  V30 5157 H 482.362 0.717934 -1.45669 0
M  V30 5158 H 484.359 3.78794 -1.74128 0
M  V30 5159 H 483.019 3.1601 -0.746195 0
M  V30 5160 H 484.03 2.70661 -4.41546 0
M  V30 5161 H 480.707 3.65611 -2.01581 0
M  V30 5162 H 482.097 3.01243 -6.00585 0
M  V30 5163 N 484.817 1.37938 0.762283 0
M  V30 5164 C 486.228 1.30094 1.33912 0
M  V30 5165 C 486.579 -0.0472026 1.96143 0
M  V30 5166 O 485.704 -0.94917 1.94473 0
M  V30 5167 C 486.299 2.35592 2.43478 0
M  V30 5168 C 484.858 2.31353 2.96905 0
M  V30 5169 C 484.005 2.18919 1.70205 0
M  V30 5170 H 486.956 1.48423 0.561816 0
M  V30 5171 H 486.977 2.00806 3.23199 0
M  V30 5172 H 486.489 3.33701 1.98155 0
M  V30 5173 H 484.59 1.36799 3.46579 0
M  V30 5174 H 484.703 3.25147 3.51875 0
M  V30 5175 H 483.067 1.65624 1.93496 0
M  V30 5176 H 483.85 3.18956 1.26973 0
M  V30 5177 N 486.295 -0.989507 1.22664 0
M  V30 5178 C 487.258 -2.06183 1.00106 0
M  V30 5179 C 488.258 -1.60765 -0.0337726 0
M  V30 5180 O 489.448 -1.72989 0.205072 0
M  V30 5181 C 486.58 -3.37021 0.51279 0
M  V30 5182 H 487.773 -2.27629 1.95256 0
M  V30 5183 H 485.326 -1.16158 1.0458 0
M  V30 5184 H 486.061 -3.21261 -0.442917 0
M  V30 5185 H 485.846 -3.71323 1.25942 0
M  V30 5186 H 487.336 -4.1591 0.375315 0
M  V30 5187 N 487.773 -1.03688 -1.18687 0
M  V30 5188 C 488.705 -0.582696 -2.21669 0
M  V30 5189 C 489.718 0.345656 -1.59088 0
M  V30 5190 O 490.907 0.140776 -1.77944 0
M  V30 5191 C 488.007 0.169204 -3.38477 0
M  V30 5192 C 487.18 -0.766079 -4.30639 0
M  V30 5193 C 486.239 -0.0581541 -5.26168 0
M  V30 5194 O 485.265 -0.687346 -5.65035 0
M  V30 5195 N 486.467 1.20981 -5.67753 0
M  V30 5196 H 489.232 -1.46843 -2.61261 0
M  V30 5197 H 486.793 -0.916896 -1.33434 0
M  V30 5198 H 488.785 0.652543 -3.99405 0
M  V30 5199 H 487.355 0.956435 -2.97609 0
M  V30 5200 H 486.575 -1.42935 -3.67373 0
M  V30 5201 H 487.863 -1.40146 -4.89118 0
M  V30 5202 H 487.261 1.74159 -5.38224 0
M  V30 5203 H 485.818 1.6375 -6.30896 0
M  V30 5204 N 489.251 1.34841 -0.815825 0
M  V30 5205 C 490.181 2.32187 -0.247298 0
M  V30 5206 C 491.162 1.5791 0.632344 0
M  V30 5207 O 492.347 1.8593 0.560698 0
M  V30 5208 C 489.477 3.42122 0.597466 0
M  V30 5209 C 488.431 4.27602 -0.184446 0
M  V30 5210 C 487.757 5.28942 0.782609 0
M  V30 5211 C 489.057 5.03502 -1.38865 0
M  V30 5212 H 490.751 2.79985 -1.06061 0
M  V30 5213 H 488.297 1.34611 -0.511461 0
M  V30 5214 H 490.25 4.09232 1.00533 0
M  V30 5215 H 488.974 2.92956 1.44376 0
M  V30 5216 H 487.633 3.62085 -0.573592 0
M  V30 5217 H 487.281 4.7604 1.62466 0
M  V30 5218 H 486.981 5.87008 0.263695 0
M  V30 5219 H 488.505 5.98922 1.18848 0
M  V30 5220 H 489.919 5.63506 -1.05518 0
M  V30 5221 H 488.316 5.71108 -1.8427 0
M  V30 5222 H 489.386 4.33608 -2.17054 0
M  V30 5223 N 490.729 0.570148 1.46925 0
M  V30 5224 C 491.954 0.0542592 2.07329 0
M  V30 5225 C 492.379 -1.23582 1.41806 0
M  V30 5226 O 491.737 -1.74341 0.497479 0
M  V30 5227 C 491.785 -0.111175 3.60429 0
M  V30 5228 O 490.889 -1.17071 3.95434 0
M  V30 5229 H 490.23 0.0571425 0.661537 0
M  V30 5230 H 492.76 0.789516 1.88753 0
M  V30 5231 H 492.77 -0.321315 4.06733 0
M  V30 5232 H 491.445 0.831012 4.07513 0
M  V30 5233 H 490.022 -0.940029 3.60857 0
M  V30 5234 N 492.207 -1.54576 0.307264 0
M  V30 5235 C 493.154 -2.23751 -0.56604 0
M  V30 5236 C 494.124 -1.22235 -1.12462 0
M  V30 5237 O 495.309 -1.50873 -1.16799 0
M  V30 5238 C 492.449 -2.98661 -1.72903 0
M  V30 5239 C 491.562 -4.14963 -1.20124 0
M  V30 5240 C 490.697 -4.77441 -2.3286 0
M  V30 5241 C 489.736 -5.85875 -1.77247 0
M  V30 5242 N 488.873 -6.42282 -2.8358 0
M  V30 5243 H 493.713 -2.97984 0.0304578 0
M  V30 5244 H 491.25 -1.47076 0.0268015 0
M  V30 5245 H 493.208 -3.40329 -2.41313 0
M  V30 5246 H 491.838 -2.26793 -2.29706 0
M  V30 5247 H 490.89 -3.78193 -0.409198 0
M  V30 5248 H 492.202 -4.93066 -0.754171 0
M  V30 5249 H 491.356 -5.21993 -3.09205 0
M  V30 5250 H 490.095 -3.98684 -2.80896 0
M  V30 5251 H 489.1 -5.40741 -0.993926 0
M  V30 5252 H 490.325 -6.6652 -1.30107 0
M  V30 5253 H 488.271 -5.66406 -3.30939 0
M  V30 5254 H 488.188 -7.1575 -2.43388 0
M  V30 5255 H 489.456 -6.91492 -3.59804 0
M  V30 5256 N 493.685 -0.035106 -1.57561 0
M  V30 5257 C 494.913 0.652258 -1.9635 0
M  V30 5258 C 495.328 1.65317 -0.911897 0
M  V30 5259 O 494.685 1.82194 0.105657 0
M  V30 5260 C 494.736 1.35337 -3.35211 0
M  V30 5261 O 494.457 0.392548 -4.36338 0
M  V30 5262 C 495.958 2.13199 -3.88666 0
M  V30 5263 H 493.178 0.179444 -0.646561 0
M  V30 5264 H 495.722 -0.0966459 -2.04271 0
M  V30 5265 H 493.877 2.05362 -3.28489 0
M  V30 5266 H 494.291 0.891097 -5.16875 0
M  V30 5267 H 495.765 2.577 -4.88154 0
M  V30 5268 H 496.242 2.97353 -3.23231 0
M  V30 5269 H 496.848 1.48118 -3.98674 0
M  V30 5270 N 495.163 1.55791 0.238111 0
M  V30 5271 C 496.388 1.8244 0.986432 0
M  V30 5272 C 496.813 0.613314 1.7782 0
M  V30 5273 O 496.171 -0.437767 1.75935 0
M  V30 5274 C 496.219 3.06917 1.893 0
M  V30 5275 O 495.323 2.84449 2.98601 0
M  V30 5276 H 494.664 0.601975 0.280218 0
M  V30 5277 H 497.194 2.02987 0.256437 0
M  V30 5278 H 497.204 3.36583 2.30598 0
M  V30 5279 H 495.879 3.947 1.31091 0
M  V30 5280 H 494.456 2.65972 2.61368 0
M  V30 5281 N 496.642 -0.504142 1.49319 0
M  V30 5282 C 497.572 -1.61473 1.68667 0
M  V30 5283 C 498.553 -1.61455 0.535378 0
M  V30 5284 O 499.738 -1.78245 0.770868 0
M  V30 5285 C 496.868 -2.99971 1.75028 0
M  V30 5286 C 495.822 -3.14854 2.89916 0
M  V30 5287 C 495.148 -4.54671 2.81387 0
M  V30 5288 C 496.448 -2.95176 4.30893 0
M  V30 5289 H 498.142 -1.45535 2.61648 0
M  V30 5290 H 495.688 -0.698711 1.25913 0
M  V30 5291 H 497.641 -3.77562 1.8715 0
M  V30 5292 H 496.365 -3.1699 0.786441 0
M  V30 5293 H 495.024 -2.39687 2.77391 0
M  V30 5294 H 494.672 -4.68562 1.82917 0
M  V30 5295 H 494.372 -4.6557 3.58494 0
M  V30 5296 H 495.896 -5.34327 2.95512 0
M  V30 5297 H 497.31 -3.62538 4.44116 0
M  V30 5298 H 495.707 -3.17549 5.09198 0
M  V30 5299 H 496.777 -1.91332 4.45556 0
M  V30 5300 N 498.12 -1.38341 -0.754957 0
M  V30 5301 C 499.083 -1.35262 -1.85032 0
M  V30 5302 C 500.083 -0.253393 -1.58791 0
M  V30 5303 O 501.273 -0.510205 -1.66561 0
M  V30 5304 C 498.405 -1.10544 -3.22479 0
M  V30 5305 H 499.598 -2.32712 -1.8917 0
M  V30 5306 H 497.151 -1.23614 -0.956515 0
M  V30 5307 H 497.886 -0.136952 -3.24011 0
M  V30 5308 H 497.671 -1.90127 -3.4292 0
M  V30 5309 H 499.161 -1.11082 -4.02555 0
M  V30 5310 N 499.598 0.982988 -1.23187 0
M  V30 5311 C 501.009 1.53847 -1.05773 0
M  V30 5312 C 501.36 1.92568 0.375744 0
M  V30 5313 O 500.485 1.75783 1.26211 0
M  V30 5314 C 501.08 2.79567 -1.91384 0
M  V30 5315 C 499.639 3.31524 -1.78238 0
M  V30 5316 C 498.786 2.04534 -1.87246 0
M  V30 5317 H 501.737 0.802962 -1.36888 0
M  V30 5318 H 501.758 3.52317 -1.43711 0
M  V30 5319 H 501.27 2.51353 -2.95708 0
M  V30 5320 H 499.371 3.64623 -0.766875 0
M  V30 5321 H 499.484 4.01457 -2.61475 0
M  V30 5322 H 497.848 2.1855 -1.30797 0
M  V30 5323 H 498.631 1.78706 -2.9312 0
M  V30 5324 N 501.076 1.04316 1.18135 0
M  V30 5325 C 502.325 0.74319 1.87509 0
M  V30 5326 C 502.638 -0.732136 1.81381 0
M  V30 5327 O 503.844 -1.14572 2.46141 0
M  V30 5328 C 502.3 1.27913 3.36402 0
M  V30 5329 C 501.908 2.78326 3.51053 0
M  V30 5330 C 503.652 1.0558 4.11161 0
M  V30 5331 C 501.559 3.25266 4.93919 0
M  V30 5332 H 500.489 0.274313 0.702331 0
M  V30 5333 H 503.14 1.25931 1.33467 0
M  V30 5334 H 501.522 0.690853 3.89927 0
M  V30 5335 H 502.696 3.42933 3.07788 0
M  V30 5336 H 501.011 2.991 2.89704 0
M  V30 5337 H 503.608 1.38161 5.16542 0
M  V30 5338 H 503.951 -0.00684729 4.16299 0
M  V30 5339 H 504.484 1.60882 3.63816 0
M  V30 5340 H 501.223 4.30922 4.9395 0
M  V30 5341 H 500.743 2.65396 5.3789 0
M  V30 5342 H 502.422 3.19433 5.62647 0
M  V30 5343 N 502.554 -1.34406 0.822964 0
M  V30 5344 C 503.803 -1.97542 0.407458 0
M  V30 5345 C 504.116 -1.65973 -1.035 0
M  V30 5346 O 505.322 -2.22598 -1.55442 0
M  V30 5347 C 503.778 -3.53463 0.677623 0
M  V30 5348 C 503.386 -3.93925 2.1337 0
M  V30 5349 C 505.13 -4.23229 0.328284 0
M  V30 5350 C 503.037 -5.42759 2.34876 0
M  V30 5351 H 501.967 -0.739207 0.148623 0
M  V30 5352 H 504.618 -1.53248 1.00932 0
M  V30 5353 H 503 -3.96 0.00558965 0
M  V30 5354 H 504.174 -3.62494 2.8449 0
M  V30 5355 H 502.489 -3.37097 2.44448 0
M  V30 5356 H 505.086 -5.32659 0.466794 0
M  V30 5357 H 505.429 -4.09899 -0.727224 0
M  V30 5358 H 505.962 -3.86169 0.954896 0
M  V30 5359 H 502.701 -5.61075 3.38932 0
M  V30 5360 H 502.221 -5.75704 1.68299 0
M  V30 5361 H 503.9 -6.0944 2.17236 0
M  V30 5362 N 504.032 -0.577932 -1.46621 0
M  V30 5363 C 505.278 -0.0617793 -2.02706 0
M  V30 5364 C 505.611 1.29294 -1.44903 0
M  V30 5365 O 504.886 1.8461 -0.61232 0
M  V30 5366 C 505.169 0.00911824 -3.60099 0
M  V30 5367 C 505.022 -1.37416 -4.28295 0
M  V30 5368 C 506.341 0.712159 -4.343 0
M  V30 5369 H 503.46 -0.0239246 -0.736612 0
M  V30 5370 H 506.102 -0.744211 -1.74818 0
M  V30 5371 H 504.252 0.590292 -3.83989 0
M  V30 5372 H 505.924 -2.00013 -4.15683 0
M  V30 5373 H 504.167 -1.94319 -3.87843 0
M  V30 5374 H 504.838 -1.27707 -5.37024 0
M  V30 5375 H 507.314 0.218486 -4.15526 0
M  V30 5376 H 506.19 0.730782 -5.44014 0
M  V30 5377 H 506.451 1.77251 -4.05012 0
M  V30 5378 N 505.51 1.54411 -0.315457 0
M  V30 5379 C 506.74 2.04536 0.291315 0
M  V30 5380 C 507.148 1.19162 1.4696 0
M  V30 5381 O 506.491 0.213199 1.82459 0
M  V30 5382 C 506.553 3.5056 0.796725 0
M  V30 5383 C 506.217 4.5627 -0.258178 0
M  V30 5384 C 507.214 5.08312 -1.09153 0
M  V30 5385 C 504.899 5.00672 -0.404036 0
M  V30 5386 C 506.893 6.03312 -2.05655 0
M  V30 5387 C 504.58 5.95488 -1.37248 0
M  V30 5388 C 505.578 6.46693 -2.19721 0
M  V30 5389 O 505.266 7.39648 -3.14921 0
M  V30 5390 H 504.998 0.672856 0.0651165 0
M  V30 5391 H 507.552 2.00244 -0.457308 0
M  V30 5392 H 505.782 3.52223 1.59612 0
M  V30 5393 H 507.471 3.83804 1.32096 0
M  V30 5394 H 508.237 4.74793 -0.98979 0
M  V30 5395 H 504.116 4.60436 0.22799 0
M  V30 5396 H 507.66 6.43203 -2.70067 0
M  V30 5397 H 503.557 6.28424 -1.47489 0
M  V30 5398 H 504.325 7.57496 -3.10067 0
M  V30 5399 N 506.988 0.0434614 1.5754 0
M  V30 5400 C 508.237 -0.631454 1.91561 0
M  V30 5401 C 508.55 -1.72457 0.92292 0
M  V30 5402 O 509.756 -2.45712 1.15489 0
M  V30 5403 C 508.212 -1.17447 3.40197 0
M  V30 5404 C 507.82 -0.113867 4.47855 0
M  V30 5405 C 509.564 -1.82507 3.83264 0
M  V30 5406 C 507.471 -0.669326 5.876 0
M  V30 5407 H 506.401 -0.239629 0.714908 0
M  V30 5408 H 509.052 0.111097 1.83163 0
M  V30 5409 H 507.434 -1.96909 3.43574 0
M  V30 5410 H 508.608 0.659348 4.56058 0
M  V30 5411 H 506.923 0.438821 4.14081 0
M  V30 5412 H 509.52 -2.25047 4.85034 0
M  V30 5413 H 509.863 -2.67365 3.19095 0
M  V30 5414 H 510.396 -1.09712 3.82372 0
M  V30 5415 H 507.135 0.141449 6.55347 0
M  V30 5416 H 506.655 -1.4107 5.82974 0
M  V30 5417 H 508.334 -1.15463 6.36614 0
M  V30 5418 N 508.466 -1.55915 -0.229846 0
M  V30 5419 C 509.413 -1.91734 -1.28478 0
M  V30 5420 C 510.383 -0.773539 -1.46988 0
M  V30 5421 O 511.568 -1.02871 -1.60693 0
M  V30 5422 C 508.708 -2.23224 -2.63182 0
M  V30 5423 C 507.821 -3.50497 -2.52539 0
M  V30 5424 C 506.956 -3.71474 -3.79711 0
M  V30 5425 C 505.995 -4.92289 -3.63755 0
M  V30 5426 N 505.132 -5.09698 -4.82858 0
M  V30 5427 H 509.972 -2.81692 -0.972308 0
M  V30 5428 H 507.509 -1.39429 -0.468815 0
M  V30 5429 H 509.467 -2.3949 -3.41614 0
M  V30 5430 H 508.097 -1.36451 -2.92542 0
M  V30 5431 H 507.149 -3.4247 -1.65585 0
M  V30 5432 H 508.461 -4.39079 -2.36666 0
M  V30 5433 H 507.615 -3.87791 -4.66586 0
M  V30 5434 H 506.354 -2.81157 -3.985 0
M  V30 5435 H 505.359 -4.7593 -2.75264 0
M  V30 5436 H 506.584 -5.84083 -3.46445 0
M  V30 5437 H 504.53 -4.22322 -5.01976 0
M  V30 5438 H 504.447 -5.92399 -4.69681 0
M  V30 5439 H 505.715 -5.30443 -5.71183 0
M  V30 5440 N 509.944 0.496216 -1.49584 0
M  V30 5441 C 511.193 1.24668 -1.58558 0
M  V30 5442 C 511.506 1.9359 -0.279703 0
M  V30 5443 O 512.712 2.70365 -0.248048 0
M  V30 5444 C 511.168 2.26388 -2.79779 0
M  V30 5445 C 510.776 1.63384 -4.17145 0
M  V30 5446 C 512.52 3.02233 -2.98086 0
M  V30 5447 C 510.427 2.63243 -5.29582 0
M  V30 5448 H 509.357 0.468995 -0.590389 0
M  V30 5449 H 512.008 0.519985 -1.75978 0
M  V30 5450 H 510.39 3.02241 -2.55863 0
M  V30 5451 H 511.564 0.93491 -4.51216 0
M  V30 5452 H 509.879 0.999121 -4.04236 0
M  V30 5453 H 512.476 3.76919 -3.79257 0
M  V30 5454 H 512.819 3.60132 -2.08831 0
M  V30 5455 H 513.352 2.33495 -3.22063 0
M  V30 5456 H 510.091 2.10119 -6.20911 0
M  V30 5457 H 509.611 3.31363 -4.99959 0
M  V30 5458 H 511.29 3.25575 -5.59115 0
M  V30 5459 N 511.423 1.38739 0.74761 0
M  V30 5460 C 512.651 1.38521 1.53686 0
M  V30 5461 C 513.066 -0.0235129 1.88785 0
M  V30 5462 O 512.423 -0.991662 1.53207 0
M  V30 5463 C 512.474 2.24641 2.83229 0
M  V30 5464 O 512.195 3.60026 2.49625 0
M  V30 5465 C 513.696 2.32669 3.77333 0
M  V30 5466 H 510.916 0.473589 0.475347 0
M  V30 5467 H 513.46 1.82395 0.924786 0
M  V30 5468 H 511.615 1.84213 3.40799 0
M  V30 5469 H 512.029 4.05435 3.3275 0
M  V30 5470 H 513.503 2.97201 4.65162 0
M  V30 5471 H 513.98 1.3421 4.18192 0
M  V30 5472 H 514.586 2.73512 3.25685 0
M  V30 5473 N 512.901 -0.976442 1.23707 0
M  V30 5474 C 514.126 -1.75875 1.09922 0
M  V30 5475 C 514.551 -1.84911 -0.34489 0
M  V30 5476 O 513.909 -1.31363 -1.24954 0
M  V30 5477 C 513.957 -3.16179 1.73388 0
M  V30 5478 O 513.061 -4.00124 0.99871 0
M  V30 5479 H 512.402 -0.540954 0.385052 0
M  V30 5480 H 514.932 -1.22546 1.6384 0
M  V30 5481 H 514.942 -3.66741 1.78788 0
M  V30 5482 H 513.617 -3.08917 2.78466 0
M  V30 5483 H 512.194 -3.58624 1.02193 0
M  V30 5484 N 514.379 -1.04941 -1.1758 0
M  V30 5485 C 515.79 -0.784501 -1.69418 0
M  V30 5486 C 516.141 0.693625 -1.8353 0
M  V30 5487 O 515.266 1.53925 -1.52106 0
M  V30 5488 C 515.861 -1.41746 -3.07723 0
M  V30 5489 C 514.42 -1.20066 -3.56737 0
M  V30 5490 C 513.567 -1.5026 -2.33061 0
M  V30 5491 H 516.518 -1.21469 -1.02133 0
M  V30 5492 H 516.539 -0.825381 -3.7144 0
M  V30 5493 H 516.051 -2.49325 -2.9742 0
M  V30 5494 H 514.152 -0.144006 -3.72322 0
M  V30 5495 H 514.265 -1.90384 -4.39648 0
M  V30 5496 H 512.629 -0.922598 -2.37403 0
M  V30 5497 H 513.412 -2.58967 -2.25368 0
M  V30 5498 N 515.857 1.33968 -0.830081 0
M  V30 5499 C 516.804 2.29387 -0.255008 0
M  V30 5500 C 517.774 1.53923 0.624243 0
M  V30 5501 O 518.959 1.82262 0.564372 0
M  V30 5502 C 516.099 3.4034 0.571209 0
M  V30 5503 C 515.212 4.30729 -0.331083 0
M  V30 5504 C 514.347 5.2879 0.505389 0
M  V30 5505 C 513.386 6.10819 -0.395843 0
M  V30 5506 N 512.523 7.00948 0.401979 0
M  V30 5507 H 517.363 2.77972 -1.07404 0
M  V30 5508 H 514.9 1.36785 -0.541133 0
M  V30 5509 H 516.858 4.03361 1.06562 0
M  V30 5510 H 515.488 2.9297 1.35529 0
M  V30 5511 H 514.54 3.68507 -0.943759 0
M  V30 5512 H 515.852 4.88181 -1.02377 0
M  V30 5513 H 515.006 5.97297 1.06399 0
M  V30 5514 H 513.745 4.71894 1.23155 0
M  V30 5515 H 512.75 5.41238 -0.966529 0
M  V30 5516 H 513.975 6.69797 -1.12023 0
M  V30 5517 H 511.921 6.46512 1.11168 0
M  V30 5518 H 511.838 7.55643 -0.232167 0
M  V30 5519 H 513.106 7.73774 0.943102 0
M  V30 5520 N 517.335 0.585699 1.46312 0
M  V30 5521 C 518.581 0.0725284 2.0267 0
M  V30 5522 C 518.914 -1.28523 1.45586 0
M  V30 5523 O 518.189 -1.84283 0.622101 0
M  V30 5524 C 518.472 0.0099788 3.60099 0
M  V30 5525 C 518.325 1.39685 4.27561 0
M  V30 5526 C 519.644 -0.689117 4.34671 0
M  V30 5527 H 516.763 0.0278307 0.736474 0
M  V30 5528 H 519.405 0.753472 1.74421 0
M  V30 5529 H 517.555 -0.56992 3.84297 0
M  V30 5530 H 519.227 2.02215 4.14617 0
M  V30 5531 H 517.47 1.96374 3.86807 0
M  V30 5532 H 518.141 1.30553 5.36339 0
M  V30 5533 H 520.617 -0.196446 4.15636 0
M  V30 5534 H 519.493 -0.701921 5.44393 0
M  V30 5535 H 519.754 -1.75101 4.05946 0
M  V30 5536 N 518.813 -1.54241 0.323641 0
M  V30 5537 C 519.743 -2.27289 -0.534993 0
M  V30 5538 C 520.724 -1.28087 -1.11927 0
M  V30 5539 O 521.909 -1.56899 -1.14439 0
M  V30 5540 C 519.039 -3.03075 -1.69596 0
M  V30 5541 C 517.993 -4.09614 -1.24098 0
M  V30 5542 C 517.319 -4.73242 -2.4889 0
M  V30 5543 C 518.619 -5.21087 -0.355789 0
M  V30 5544 H 520.313 -2.99308 0.0743257 0
M  V30 5545 H 517.859 -1.43952 0.0371874 0
M  V30 5546 H 519.812 -3.52907 -2.30293 0
M  V30 5547 H 518.536 -2.28673 -2.33187 0
M  V30 5548 H 517.195 -3.60666 -0.656945 0
M  V30 5549 H 516.843 -3.95455 -3.10845 0
M  V30 5550 H 516.543 -5.45209 -2.19138 0
M  V30 5551 H 518.067 -5.25848 -3.10348 0
M  V30 5552 H 519.481 -5.66675 -0.869042 0
M  V30 5553 H 517.878 -5.9991 -0.151045 0
M  V30 5554 H 518.948 -4.81005 0.613339 0
M  V30 5555 N 520.291 -0.0518155 -1.57515 0
M  V30 5556 C 521.223 0.951542 -2.08515 0
M  V30 5557 C 522.236 1.27436 -1.01311 0
M  V30 5558 O 523.425 1.23504 -1.28876 0
M  V30 5559 C 520.525 2.27291 -2.5138 0
M  V30 5560 C 519.698 2.13191 -3.81927 0
M  V30 5561 C 518.757 3.28458 -4.11098 0
M  V30 5562 O 517.783 3.04334 -4.81009 0
M  V30 5563 N 518.985 4.52954 -3.63061 0
M  V30 5564 H 521.75 0.516242 -2.9522 0
M  V30 5565 H 519.311 0.13441 -1.61341 0
M  V30 5566 H 521.303 3.03272 -2.67971 0
M  V30 5567 H 519.873 2.62386 -1.69919 0
M  V30 5568 H 519.093 1.21798 -3.74912 0
M  V30 5569 H 520.381 2.00999 -4.67415 0
M  V30 5570 H 519.779 4.75444 -3.06545 0
M  V30 5571 H 518.336 5.26026 -3.84889 0
M  V30 5572 N 521.769 1.56035 0.221574 0
M  V30 5573 C 523.185 1.49026 0.571271 0
M  V30 5574 C 523.385 0.746912 1.87146 0
M  V30 5575 O 522.441 0.286566 2.50869 0
M  V30 5576 C 523.754 2.93579 0.650522 0
M  V30 5577 C 525.302 3.04099 0.741151 0
M  V30 5578 C 525.777 4.5001 0.851747 0
M  V30 5579 N 527.268 4.54053 0.915968 0
M  V30 5580 C 528.003 5.64232 1.02125 0
M  V30 5581 N 527.499 6.84164 1.09049 0
M  V30 5582 N 529.292 5.52084 1.05639 0
M  V30 5583 H 521.443 2.02791 -0.63162 0
M  V30 5584 H 523.706 0.921736 -0.221602 0
M  V30 5585 H 523.412 3.50912 -0.235253 0
M  V30 5586 H 523.286 3.45476 1.51413 0
M  V30 5587 H 525.673 2.4683 1.61737 0
M  V30 5588 H 525.754 2.55371 -0.148128 0
M  V30 5589 H 525.398 5.07896 -0.0200117 0
M  V30 5590 H 525.328 4.96444 1.75644 0
M  V30 5591 H 527.819 3.67683 0.872782 0
M  V30 5592 H 528.132 7.63883 1.1706 0
M  V30 5593 H 526.477 6.86875 1.05962 0
M  V30 5594 H 529.668 4.57317 0.998953 0
M  V30 5595 H 529.841 6.37983 1.13498 0
M  V30 5596 N 523.247 -0.488276 1.49845 0
M  V30 5597 C 524.177 -1.59675 1.70371 0
M  V30 5598 C 525.158 -1.60878 0.552473 0
M  V30 5599 O 526.343 -1.77417 0.78973 0
M  V30 5600 C 523.473 -2.98098 1.782 0
M  V30 5601 C 522.427 -3.11761 2.93239 0
M  V30 5602 C 521.753 -4.51661 2.86193 0
M  V30 5603 C 523.053 -2.90589 4.33999 0
M  V30 5604 H 524.747 -1.42752 2.63177 0
M  V30 5605 H 522.293 -0.685317 1.26647 0
M  V30 5606 H 524.246 -3.75555 1.91144 0
M  V30 5607 H 522.97 -3.16138 0.820018 0
M  V30 5608 H 521.629 -2.36732 2.79917 0
M  V30 5609 H 521.277 -4.66595 1.87877 0
M  V30 5610 H 520.977 -4.61742 3.63412 0
M  V30 5611 H 522.501 -5.31162 3.01163 0
M  V30 5612 H 523.915 -3.57807 4.47936 0
M  V30 5613 H 522.312 -3.1213 5.12538 0
M  V30 5614 H 523.382 -1.86595 4.4756 0
M  V30 5615 N 524.725 -1.39134 -0.740242 0
M  V30 5616 C 525.974 -1.35384 -1.49512 0
M  V30 5617 C 526.287 0.04919 -1.95538 0
M  V30 5618 O 527.493 0.209257 -2.70692 0
M  V30 5619 C 525.949 -2.37812 -2.70136 0
M  V30 5620 C 525.557 -3.83804 -2.31081 0
M  V30 5621 C 527.301 -2.4313 -3.47977 0
M  V30 5622 C 525.208 -4.77886 -3.48395 0
M  V30 5623 H 524.138 -0.503297 -0.561434 0
M  V30 5624 H 526.789 -1.64754 -0.807974 0
M  V30 5625 H 525.171 -2.01505 -3.40899 0
M  V30 5626 H 526.345 -4.29123 -1.67898 0
M  V30 5627 H 524.66 -3.81732 -1.66343 0
M  V30 5628 H 527.257 -3.10614 -4.35228 0
M  V30 5629 H 527.6 -1.45423 -3.90074 0
M  V30 5630 H 528.133 -2.78304 -2.84239 0
M  V30 5631 H 524.872 -5.76836 -3.11353 0
M  V30 5632 H 524.392 -4.3725 -4.10576 0
M  V30 5633 H 526.071 -4.96538 -4.148 0
M  V30 5634 N 526.204 0.969867 -1.24223 0
M  V30 5635 C 527.151 2.06407 -1.0327 0
M  V30 5636 C 528.121 1.66014 0.0533 0
M  V30 5637 O 529.306 1.90533 -0.100896 0
M  V30 5638 C 526.446 3.3909 -0.641262 0
M  V30 5639 C 525.559 3.9269 -1.80051 0
M  V30 5640 C 524.694 5.13631 -1.35486 0
M  V30 5641 C 523.733 5.59423 -2.48419 0
M  V30 5642 N 522.87 6.71586 -2.04737 0
M  V30 5643 H 527.71 2.23663 -1.96923 0
M  V30 5644 H 525.247 1.09624 -0.980862 0
M  V30 5645 H 527.205 4.15323 -0.395351 0
M  V30 5646 H 525.835 3.21765 0.258269 0
M  V30 5647 H 524.887 3.13116 -2.16014 0
M  V30 5648 H 526.199 4.22636 -2.64916 0
M  V30 5649 H 525.353 5.97231 -1.0677 0
M  V30 5650 H 524.092 4.85364 -0.476722 0
M  V30 5651 H 523.097 4.74398 -2.77897 0
M  V30 5652 H 524.322 5.89705 -3.36786 0
M  V30 5653 H 522.268 6.45058 -1.19318 0
M  V30 5654 H 522.185 7.0097 -2.83156 0
M  V30 5655 H 523.453 7.58633 -1.79154 0
M  V30 5656 N 527.682 1.05563 1.17022 0
M  V30 5657 C 528.907 0.788437 1.91829 0
M  V30 5658 C 529.332 -0.650356 1.76499 0
M  V30 5659 O 528.69 -1.45229 1.08527 0
M  V30 5660 C 528.738 1.1786 3.40795 0
M  V30 5661 O 527.842 0.312965 4.11211 0
M  V30 5662 H 527.183 0.288794 0.597908 0
M  V30 5663 H 529.713 1.40948 1.48307 0
M  V30 5664 H 529.723 1.14697 3.91546 0
M  V30 5665 H 528.398 2.22666 3.51273 0
M  V30 5666 H 526.975 0.405515 3.70689 0
M  V30 5667 N 529.16 -1.33526 0.837174 0
M  V30 5668 C 530.576 -1.50727 0.524743 0
M  V30 5669 C 530.776 -1.77792 -0.948279 0
M  V30 5670 O 529.832 -1.83719 -1.73216 0
M  V30 5671 C 531.145 -2.66299 1.39661 0
M  V30 5672 C 532.693 -2.80183 1.39521 0
M  V30 5673 C 533.168 -3.98815 2.25189 0
M  V30 5674 N 534.659 -4.06047 2.2289 0
M  V30 5675 C 535.394 -4.97032 2.85915 0
M  V30 5676 N 534.89 -5.93143 3.57985 0
M  V30 5677 N 536.683 -4.90015 2.75394 0
M  V30 5678 H 528.834 -1.1422 1.79074 0
M  V30 5679 H 531.097 -0.561399 0.763894 0
M  V30 5680 H 530.803 -2.52974 2.4433 0
M  V30 5681 H 530.677 -3.61663 1.07145 0
M  V30 5682 H 533.064 -2.92942 0.356253 0
M  V30 5683 H 533.145 -1.85586 1.76044 0
M  V30 5684 H 532.789 -3.86817 3.29143 0
M  V30 5685 H 532.719 -4.92654 1.86009 0
M  V30 5686 H 535.21 -3.37262 1.70478 0
M  V30 5687 H 535.523 -6.59227 4.03286 0
M  V30 5688 H 533.868 -5.93223 3.62093 0
M  V30 5689 H 537.059 -4.13894 2.18654 0
M  V30 5690 H 537.232 -5.60724 3.24796 0
M  V30 5691 N 530.638 -0.59345 -1.46 0
M  V30 5692 C 531.886 -0.082988 -2.0193 0
M  V30 5693 C 532.207 1.28569 -1.46612 0
M  V30 5694 O 531.477 1.84629 -0.654909 0
M  V30 5695 H 530.057 -0.0276882 -0.746487 0
M  V30 5696 H 532.719 -0.771657 -1.78973 0
M  V30 5697 H 531.815 -0.022079 -3.12092 0
M  V30 5698 N 532.116 1.54067 -0.331816 0
M  V30 5699 C 533.063 2.24623 0.530372 0
M  V30 5700 C 534.033 1.24009 1.10503 0
M  V30 5701 O 535.218 1.52712 1.14384 0
M  V30 5702 C 532.358 3.01374 1.68129 0
M  V30 5703 C 531.471 4.16821 1.13507 0
M  V30 5704 C 530.606 4.81085 2.25234 0
M  V30 5705 C 529.645 5.88621 1.67903 0
M  V30 5706 N 528.782 6.46713 2.73326 0
M  V30 5707 H 533.622 2.97898 -0.0778607 0
M  V30 5708 H 531.159 1.47014 -0.0501965 0
M  V30 5709 H 533.117 3.44125 2.35868 0
M  V30 5710 H 531.747 2.30419 2.26069 0
M  V30 5711 H 530.799 3.78796 0.348979 0
M  V30 5712 H 532.111 4.94203 0.675633 0
M  V30 5713 H 531.265 5.26846 3.00862 0
M  V30 5714 H 530.004 4.03102 2.74518 0
M  V30 5715 H 529.009 5.42254 0.907773 0
M  V30 5716 H 530.234 6.68506 1.19487 0
M  V30 5717 H 528.18 5.71599 3.21886 0
M  V30 5718 H 528.097 7.19532 2.3197 0
M  V30 5719 H 529.365 6.97129 3.48758 0
M  V30 5720 N 533.594 0.0601682 1.57485 0
M  V30 5721 C 534.819 -0.624416 1.97777 0
M  V30 5722 C 535.244 -1.63051 0.937867 0
M  V30 5723 O 534.602 -1.81036 -0.0978845 0
M  V30 5724 C 534.65 -1.27979 3.37126 0
M  V30 5725 O 533.754 -2.39556 3.35688 0
M  V30 5726 H 533.095 -0.161581 0.64404 0
M  V30 5727 H 535.625 0.131237 2.04179 0
M  V30 5728 H 535.635 -1.62937 3.74053 0
M  V30 5729 H 534.31 -0.542501 4.12347 0
M  V30 5730 H 532.887 -2.06478 3.10517 0
M  V30 5731 N 535.072 -1.5615 -0.213296 0
M  V30 5732 C 536.004 -1.89586 -1.28802 0
M  V30 5733 C 537.017 -0.784844 -1.42633 0
M  V30 5734 O 538.206 -1.06319 -1.43383 0
M  V30 5735 C 535.306 -2.09665 -2.66259 0
M  V30 5736 C 534.479 -3.40726 -2.7427 0
M  V30 5737 C 533.538 -3.50137 -3.92798 0
M  V30 5738 O 532.564 -4.23105 -3.8075 0
M  V30 5739 N 533.766 -2.81886 -5.07465 0
M  V30 5740 H 536.531 -2.82368 -1.00442 0
M  V30 5741 H 534.092 -1.56796 -0.403302 0
M  V30 5742 H 536.084 -2.13268 -3.43946 0
M  V30 5743 H 534.654 -1.23469 -2.87183 0
M  V30 5744 H 533.874 -3.4915 -1.82997 0
M  V30 5745 H 535.162 -4.27048 -2.76599 0
M  V30 5746 H 534.56 -2.22397 -5.2015 0
M  V30 5747 H 533.117 -2.91139 -5.83165 0
M  V30 5748 N 536.55 0.480323 -1.50102 0
M  V30 5749 C 537.775 1.26126 -1.64642 0
M  V30 5750 C 538.2 1.85257 -0.325823 0
M  V30 5751 O 537.558 1.66854 0.709194 0
M  V30 5752 C 537.606 2.35243 -2.73301 0
M  V30 5753 O 536.71 3.39646 -2.33911 0
M  V30 5754 H 536.051 0.371463 -0.550374 0
M  V30 5755 H 538.581 0.572696 -1.96421 0
M  V30 5756 H 538.591 2.80695 -2.96098 0
M  V30 5757 H 537.266 1.91574 -3.6915 0
M  V30 5758 H 535.843 2.99969 -2.21525 0
M  V30 5759 N 538.028 1.39524 0.732853 0
M  V30 5760 C 538.975 1.38416 1.84688 0
M  V30 5761 C 539.945 0.243539 1.64305 0
M  V30 5762 O 541.13 0.438979 1.85681 0
M  V30 5763 C 538.27 1.23555 3.22224 0
M  V30 5764 C 537.383 2.47179 3.54298 0
M  V30 5765 C 536.518 2.2489 4.81246 0
M  V30 5766 C 535.557 3.44178 5.0617 0
M  V30 5767 N 534.694 3.21192 6.24323 0
M  V30 5768 H 539.534 2.33645 1.84971 0
M  V30 5769 H 537.071 1.16059 0.903804 0
M  V30 5770 H 539.029 1.12949 4.0162 0
M  V30 5771 H 537.659 0.31954 3.21215 0
M  V30 5772 H 536.711 2.68379 2.69587 0
M  V30 5773 H 538.023 3.36022 3.68633 0
M  V30 5774 H 537.177 2.11538 5.68627 0
M  V30 5775 H 535.916 1.33443 4.69089 0
M  V30 5776 H 534.921 3.58025 4.17251 0
M  V30 5777 H 536.146 4.36528 5.20212 0
M  V30 5778 H 534.092 2.32413 6.1345 0
M  V30 5779 H 534.009 4.03594 6.39256 0
M  V30 5780 H 535.277 3.1154 7.14537 0
M  V30 5781 N 539.506 -0.963266 1.24736 0
M  V30 5782 C 540.456 -2.0438 1.01058 0
M  V30 5783 C 541.44 -1.60824 -0.0495354 0
M  V30 5784 O 542.632 -1.76232 0.164741 0
M  V30 5785 C 539.761 -3.37617 0.622067 0
M  V30 5786 C 538.847 -3.87722 1.7185 0
M  V30 5787 N 539.238 -4.10715 2.95207 0
M  V30 5788 C 537.536 -4.16426 1.59703 0
M  V30 5789 C 538.237 -4.51872 3.66315 0
M  V30 5790 N 537.213 -4.57302 2.93897 0
M  V30 5791 H 541.015 -2.20138 1.94721 0
M  V30 5792 H 538.529 -1.14741 1.14927 0
M  V30 5793 H 540.526 -4.14638 0.43366 0
M  V30 5794 H 539.186 -3.23242 -0.307327 0
M  V30 5795 H 540.197 -3.98037 3.31341 0
M  V30 5796 H 536.874 -4.10962 0.73598 0
M  V30 5797 H 538.264 -4.78037 4.72155 0
M  V30 5798 N 540.985 -1.06182 -1.16461 0
M  V30 5799 C 541.915 -0.692861 -2.22984 0
M  V30 5800 C 542.896 0.314122 -1.67174 0
M  V30 5801 O 544.081 0.189499 -1.93273 0
M  V30 5802 C 541.211 -0.07732 -3.47214 0
M  V30 5803 C 540.165 -1.01015 -4.15909 0
M  V30 5804 C 539.491 -0.257973 -5.34077 0
M  V30 5805 C 540.791 -2.33868 -4.67015 0
M  V30 5806 H 542.485 -1.58343 -2.54102 0
M  V30 5807 H 540.031 -0.76279 -1.22137 0
M  V30 5808 H 541.984 0.19266 -4.20959 0
M  V30 5809 H 540.708 0.848254 -3.15392 0
M  V30 5810 H 539.367 -1.26486 -3.44088 0
M  V30 5811 H 539.015 0.670684 -4.98509 0
M  V30 5812 H 538.715 -0.879638 -5.80979 0
M  V30 5813 H 540.239 0.00448788 -6.106 0
M  V30 5814 H 541.653 -2.1279 -5.32347 0
M  V30 5815 H 540.05 -2.91522 -5.24533 0
M  V30 5816 H 541.12 -2.97019 -3.83286 0
M  V30 5817 N 542.463 1.3308 -0.844243 0
M  V30 5818 C 543.411 2.31028 -0.269954 0
M  V30 5819 C 544.405 1.58381 0.600997 0
M  V30 5820 O 545.611 1.73203 0.48996 0
M  V30 5821 H 541.986 0.748866 -0.0685782 0
M  V30 5822 H 543.957 2.76967 -1.11049 0
M  V30 5823 C 542.706 3.43549 0.535676 0
M  V30 5824 H 542.029 3.99604 -0.125202 0
M  V30 5825 H 543.469 4.14267 0.903262 0
M  V30 5826 C 541.928 2.8988 1.71672 0
M  V30 5827 O 542.458 2.86511 2.81557 0
M  V30 5828 N 540.664 2.46416 1.54037 0
M  V30 5829 H 540.211 2.49356 0.64649 0
M  V30 5830 H 540.169 2.1086 2.33207 0
M  V30 5831 N 543.941 0.601185 1.45683 0
M  V30 5832 C 545.187 0.0940202 2.02582 0
M  V30 5833 C 545.52 -1.26972 1.46941 0
M  V30 5834 O 544.795 -1.83613 0.641612 0
M  V30 5835 C 545.078 0.0481715 3.60068 0
M  V30 5836 C 544.931 1.44212 4.26055 0
M  V30 5837 C 546.25 -0.642975 4.35378 0
M  V30 5838 H 543.369 0.0356404 0.736138 0
M  V30 5839 H 546.011 0.771929 1.73612 0
M  V30 5840 H 544.161 -0.529128 3.8488 0
M  V30 5841 H 545.833 2.06601 4.12449 0
M  V30 5842 H 544.076 2.00465 3.84703 0
M  V30 5843 H 544.747 1.36234 5.34925 0
M  V30 5844 H 547.223 -0.152351 4.15821 0
M  V30 5845 H 546.099 -0.644141 5.45107 0
M  V30 5846 H 546.36 -1.70785 4.0778 0
M  V30 5847 N 545.419 -1.53889 0.339982 0
M  V30 5848 C 546.351 -2.22435 -0.55275 0
M  V30 5849 C 547.364 -1.22975 -1.06681 0
M  V30 5850 O 548.553 -1.49351 -0.977575 0
M  V30 5851 C 545.653 -2.8882 -1.77302 0
M  V30 5852 C 544.826 -4.14563 -1.39486 0
M  V30 5853 C 543.885 -4.64391 -2.47442 0
M  V30 5854 O 542.911 -5.28687 -2.10899 0
M  V30 5855 N 544.113 -4.40015 -3.78639 0
M  V30 5856 H 546.878 -2.9968 0.0342669 0
M  V30 5857 H 544.439 -1.61068 0.16394 0
M  V30 5858 H 546.431 -3.19072 -2.48948 0
M  V30 5859 H 545.001 -2.15182 -2.26749 0
M  V30 5860 H 544.221 -3.90896 -0.509321 0
M  V30 5861 H 545.509 -4.96362 -1.11813 0
M  V30 5862 H 544.907 -3.88586 -4.11118 0
M  V30 5863 H 543.464 -4.74881 -4.46465 0
M  V30 5864 N 546.897 -0.0685191 -1.57451 0
M  V30 5865 C 548.146 0.600898 -1.92541 0
M  V30 5866 C 548.459 1.70967 -0.950239 0
M  V30 5867 O 549.665 2.43844 -1.19384 0
M  V30 5868 C 548.121 1.12019 -3.42023 0
M  V30 5869 C 547.729 0.0426028 -4.4798 0
M  V30 5870 C 549.473 1.76386 -3.86119 0
M  V30 5871 C 547.38 0.575759 -5.88591 0
M  V30 5872 H 546.31 0.228225 -0.71863 0
M  V30 5873 H 548.961 -0.140223 -1.82963 0
M  V30 5874 H 547.343 1.91418 -3.46663 0
M  V30 5875 H 548.517 -0.73182 -4.54952 0
M  V30 5876 H 546.832 -0.504642 -4.13331 0
M  V30 5877 H 549.429 2.17302 -4.88553 0
M  V30 5878 H 549.772 2.62255 -3.23308 0
M  V30 5879 H 550.305 1.03615 -3.84069 0
M  V30 5880 H 547.044 -0.245691 -6.55039 0
M  V30 5881 H 546.564 1.31778 -5.85145 0
M  V30 5882 H 548.243 1.0532 -6.3837 0
M  V30 5883 N 548.375 1.56261 0.205012 0
M  V30 5884 C 549.338 1.92908 1.23771 0
M  V30 5885 C 550.338 0.809208 1.38955 0
M  V30 5886 O 551.528 1.07676 1.36936 0
M  V30 5887 C 548.66 2.19442 2.60879 0
M  V30 5888 H 549.853 2.85287 0.924728 0
M  V30 5889 H 547.406 1.49798 0.446125 0
M  V30 5890 H 548.141 1.29668 2.97248 0
M  V30 5891 H 547.926 3.0104 2.51232 0
M  V30 5892 H 549.416 2.48833 3.35368 0
M  V30 5893 N 549.853 -0.472356 1.50355 0
M  V30 5894 C 550.816 -1.5529 1.68576 0
M  V30 5895 C 551.816 -1.50863 0.556511 0
M  V30 5896 O 553.006 -1.53505 0.823516 0
M  V30 5897 C 550.138 -2.94921 1.70981 0
M  V30 5898 H 551.331 -1.40451 2.64978 0
M  V30 5899 H 548.884 -0.698645 1.39816 0
M  V30 5900 H 549.619 -3.15204 0.762675 0
M  V30 5901 H 549.404 -2.99541 2.53017 0
M  V30 5902 H 550.894 -3.73372 1.87037 0
M  V30 5903 N 551.331 -1.39911 -0.725443 0
M  V30 5904 C 552.556 -1.41137 -1.5197 0
M  V30 5905 C 552.981 -0.010262 -1.88097 0
M  V30 5906 O 552.339 0.979184 -1.52583 0
M  V30 5907 C 552.387 -2.2994 -2.77777 0
M  V30 5908 O 551.491 -1.73586 -3.74088 0
M  V30 5909 H 550.832 -0.480219 -0.458569 0
M  V30 5910 H 553.362 -1.84023 -0.894249 0
M  V30 5911 H 553.372 -2.44785 -3.26411 0
M  V30 5912 H 552.047 -3.31759 -2.50816 0
M  V30 5913 H 550.624 -1.68035 -3.32894 0
M  V30 5914 N 552.809 0.956637 -1.25245 0
M  V30 5915 C 553.719 2.0868 -1.0719 0
M  V30 5916 C 554.735 1.73997 -0.00959074 0
M  V30 5917 O 555.911 2.00301 -0.210104 0
M  V30 5918 C 552.976 3.39754 -0.690526 0
M  V30 5919 C 552.037 3.88316 -1.83055 0
M  V30 5920 C 551.27 5.13134 -1.46728 0
M  V30 5921 O 551.493 5.6925 -0.362029 0
M  V30 5922 O 550.427 5.56356 -2.29677 0
M  V30 5923 H 554.253 2.26813 -2.01965 0
M  V30 5924 H 551.838 1.07098 -1.04165 0
M  V30 5925 H 553.72 4.18543 -0.489871 0
M  V30 5926 H 552.395 3.22896 0.227981 0
M  V30 5927 H 551.302 3.1054 -2.08604 0
M  V30 5928 H 552.635 4.09669 -2.72822 0
M  V30 5929 N 554.287 1.06798 1.15896 0
M  V30 5930 C 555.234 0.683314 2.20453 0
M  V30 5931 C 556.204 -0.32255 1.62938 0
M  V30 5932 O 557.389 -0.210276 1.89638 0
M  V30 5933 C 554.529 0.0813266 3.45004 0
M  V30 5934 C 553.642 1.13799 4.16742 0
M  V30 5935 C 552.777 0.501598 5.28826 0
M  V30 5936 C 551.816 1.54144 5.92373 0
M  V30 5937 N 550.953 0.928038 6.9594 0
M  V30 5938 H 555.793 1.57932 2.52708 0
M  V30 5939 H 553.33 0.789544 1.24115 0
M  V30 5940 H 555.288 -0.285274 4.16224 0
M  V30 5941 H 553.918 -0.77806 3.13283 0
M  V30 5942 H 552.97 1.62223 3.44075 0
M  V30 5943 H 554.282 1.92664 4.60089 0
M  V30 5944 H 553.436 0.0823162 6.06644 0
M  V30 5945 H 552.175 -0.318883 4.86656 0
M  V30 5946 H 551.18 1.97056 5.13273 0
M  V30 5947 H 552.405 2.3641 6.36621 0
M  V30 5948 H 550.351 0.12836 6.55874 0
M  V30 5949 H 550.268 1.65401 7.37685 0
M  V30 5950 H 551.536 0.534071 7.77668 0
M  V30 5951 N 555.766 -1.3263 0.851289 0
M  V30 5952 C 556.696 -2.31449 0.308771 0
M  V30 5953 C 557.677 -1.59531 -0.590255 0
M  V30 5954 O 558.862 -1.87351 -0.511205 0
M  V30 5955 C 555.992 -3.43586 -0.506548 0
M  V30 5956 C 554.946 -4.26963 0.297753 0
M  V30 5957 C 554.272 -5.30831 -0.642094 0
M  V30 5958 C 555.572 -4.99643 1.52166 0
M  V30 5959 H 557.266 -2.77074 1.13447 0
M  V30 5960 H 554.812 -1.33207 0.546971 0
M  V30 5961 H 556.765 -4.11754 -0.896474 0
M  V30 5962 H 555.489 -2.96681 -1.36558 0
M  V30 5963 H 554.148 -3.60437 0.669391 0
M  V30 5964 H 553.796 -4.8018 -1.49788 0
M  V30 5965 H 553.496 -5.87501 -0.107968 0
M  V30 5966 H 555.02 -6.01862 -1.02927 0
M  V30 5967 H 556.434 -5.6051 1.20421 0
M  V30 5968 H 554.831 -5.66022 1.99347 0
M  V30 5969 H 555.901 -4.27701 2.28474 0
M  V30 5970 N 557.244 -0.608902 -1.45362 0
M  V30 5971 C 558.207 0.0992563 -2.28985 0
M  V30 5972 C 559.207 0.793841 -1.39838 0
M  V30 5973 O 560.397 0.641804 -1.61946 0
M  V30 5974 C 557.529 1.15073 -3.20891 0
M  V30 5975 H 558.722 -0.635964 -2.93079 0
M  V30 5976 H 556.275 -0.368007 -1.51906 0
M  V30 5977 H 557.01 1.91667 -2.616 0
M  V30 5978 H 556.795 0.656867 -3.86559 0
M  V30 5979 H 558.285 1.64665 -3.83765 0
M  V30 5980 N 558.722 1.53707 -0.348139 0
M  V30 5981 C 559.654 2.22725 0.540946 0
M  V30 5982 C 560.667 1.2354 1.06027 0
M  V30 5983 O 561.856 1.49867 0.96964 0
M  V30 5984 C 558.956 2.89756 1.75768 0
M  V30 5985 C 558.129 4.15297 1.37285 0
M  V30 5986 C 557.188 4.65697 2.44976 0
M  V30 5987 O 556.214 5.29798 2.08092 0
M  V30 5988 N 557.416 4.42017 3.763 0
M  V30 5989 H 560.181 2.99658 -0.0501592 0
M  V30 5990 H 557.742 1.60979 -0.17248 0
M  V30 5991 H 559.734 3.20388 2.47252 0
M  V30 5992 H 558.304 2.16382 2.25605 0
M  V30 5993 H 557.524 3.9116 0.488584 0
M  V30 5994 H 558.812 4.96948 1.09179 0
M  V30 5995 H 558.21 3.9076 4.09051 0
M  V30 5996 H 556.767 4.77242 4.4394 0
M  V30 5997 N 560.2 0.0768682 1.57412 0
M  V30 5998 C 561.44 -0.594676 1.95558 0
M  V30 5999 C 561.804 -1.66469 0.956658 0
M  V30 6000 O 563.005 -2.39215 1.22595 0
M  V30 6001 C 561.276 -1.15206 3.38323 0
M  V30 6002 S 562.835 -1.83803 3.9845 0
M  V30 6003 H 559.653 -0.194579 0.683857 0
M  V30 6004 H 562.255 0.151933 1.94909 0
M  V30 6005 H 560.959 -0.36153 4.08805 0
M  V30 6006 H 560.49 -1.93491 3.42527 0
M  V30 6007 H 562.505 -3.12087 3.85767 0
M  V30 6008 N 561.678 -1.56367 -0.196722 0
M  V30 6009 C 563.089 -1.70462 -0.761545 0
M  V30 6010 C 563.44 -0.683161 -1.83922 0
M  V30 6011 O 562.565 0.160753 -2.15802 0
M  V30 6012 C 563.16 -3.09057 -1.38814 0
M  V30 6013 C 561.719 -3.24922 -1.90007 0
M  V30 6014 C 560.866 -2.66412 -0.769399 0
M  V30 6015 H 563.817 -1.58675 0.0283263 0
M  V30 6016 H 563.838 -3.06296 -2.2575 0
M  V30 6017 H 563.35 -3.83378 -0.603559 0
M  V30 6018 H 561.451 -2.55514 -2.71189 0
M  V30 6019 H 561.564 -4.3241 -2.06297 0
M  V30 6020 H 559.928 -2.25546 -1.18326 0
M  V30 6021 H 560.711 -3.433 0.00291773 0
M  V30 6022 N 563.156 0.464375 -1.50603 0
M  V30 6023 C 564.567 1.04507 -1.5471 0
M  V30 6024 C 564.918 1.9297 -0.354542 0
M  V30 6025 O 564.043 2.09763 0.531812 0
M  V30 6026 C 564.638 1.90207 -2.80369 0
M  V30 6027 C 563.197 2.43373 -2.87135 0
M  V30 6028 C 562.344 1.21886 -2.49076 0
M  V30 6029 H 565.295 0.246716 -1.56771 0
M  V30 6030 H 565.316 2.75353 -2.62604 0
M  V30 6031 H 564.828 1.25796 -3.67147 0
M  V30 6032 H 562.929 3.11318 -2.04724 0
M  V30 6033 H 563.042 2.7802 -3.90181 0
M  V30 6034 H 561.406 1.55575 -2.01664 0
M  V30 6035 H 562.189 0.591268 -3.3817 0
M  V30 6036 N 564.634 1.40294 0.718013 0
M  V30 6037 C 565.544 1.42678 1.86226 0
M  V30 6038 C 566.56 0.319655 1.71039 0
M  V30 6039 O 567.736 0.563852 1.93346 0
M  V30 6040 C 564.801 1.2852 3.21999 0
M  V30 6041 C 563.862 2.49354 3.49458 0
M  V30 6042 C 563.095 2.35863 4.78753 0
M  V30 6043 O 563.318 1.37114 5.53675 0
M  V30 6044 O 562.252 3.25189 5.06494 0
M  V30 6045 H 566.078 2.39167 1.87171 0
M  V30 6046 H 563.663 1.2159 0.868112 0
M  V30 6047 H 565.545 1.22824 4.03103 0
M  V30 6048 H 564.22 0.351359 3.21787 0
M  V30 6049 H 563.127 2.60628 2.68373 0
M  V30 6050 H 564.46 3.41491 3.54464 0
M  V30 6051 N 566.112 -0.949982 1.2575 0
M  V30 6052 C 567.045 -2.047 1.00862 0
M  V30 6053 C 568.023 -1.62475 -0.0636982 0
M  V30 6054 O 569.207 -1.88343 0.0769153 0
M  V30 6055 C 566.334 -3.34597 0.525613 0
M  V30 6056 C 565.38 -3.95788 1.58916 0
M  V30 6057 S 566.213 -4.31175 3.17567 0
M  V30 6058 C 567.369 -5.64183 2.71013 0
M  V30 6059 H 567.602 -2.25497 1.93749 0
M  V30 6060 H 565.135 -1.09022 1.09332 0
M  V30 6061 H 567.093 -4.09716 0.25359 0
M  V30 6062 H 565.754 -3.11758 -0.382828 0
M  V30 6063 H 564.947 -4.89457 1.20201 0
M  V30 6064 H 564.549 -3.27168 1.81211 0
M  V30 6065 H 566.841 -6.42504 2.14928 0
M  V30 6066 H 567.784 -6.07774 3.6334 0
M  V30 6067 H 568.192 -5.2364 2.1086 0
M  V30 6068 N 567.59 -1.07411 -1.15328 0
M  V30 6069 C 568.837 -0.797649 -1.86128 0
M  V30 6070 C 569.165 0.676298 -1.82364 0
M  V30 6071 O 568.42 1.51223 -1.24218 0
M  V30 6072 C 568.719 -1.25191 -3.34757 0
M  V30 6073 C 568.385 -2.73191 -3.58716 0
M  V30 6074 C 567.047 -3.13616 -3.64964 0
M  V30 6075 C 569.399 -3.68718 -3.6837 0
M  V30 6076 C 566.727 -4.48383 -3.78377 0
M  V30 6077 C 569.079 -5.03248 -3.83306 0
M  V30 6078 C 567.743 -5.43293 -3.878 0
M  V30 6079 H 567.013 -0.29188 -0.681092 0
M  V30 6080 H 569.66 -1.34524 -1.36292 0
M  V30 6081 H 567.965 -0.623712 -3.86804 0
M  V30 6082 H 569.662 -1.01489 -3.87945 0
M  V30 6083 H 566.252 -2.40898 -3.54494 0
M  V30 6084 H 570.436 -3.38614 -3.62842 0
M  V30 6085 H 565.692 -4.78877 -3.80114 0
M  V30 6086 H 569.866 -5.77142 -3.89718 0
M  V30 6087 H 567.493 -6.47721 -3.97946 0
M  V30 6088 N 569.068 1.32177 -0.85831 0
M  V30 6089 C 570.345 1.91781 -0.384624 0
M  V30 6090 C 570.725 1.78171 1.13217 0
M  V30 6091 O 570.073 1.18209 1.95548 0
M  V30 6092 C 570.283 3.38414 -0.853047 0
M  V30 6093 C 571.631 4.15542 -0.872359 0
M  V30 6094 O 572.655 3.47148 -0.797926 0
M  V30 6095 O 571.514 5.37678 -0.978009 0
M  V30 6096 H 568.608 0.819259 -0.112886 0
M  V30 6097 H 571.154 1.40923 -0.945453 0
M  V30 6098 H 569.926 3.4228 -1.89632 0
M  V30 6099 H 569.549 3.96683 -0.269874 0
M  V30 6100 N 570.547 0.616602 1.45037 0
M  V30 6101 C 571.796 0.112861 2.01384 0
M  V30 6102 C 572.109 -1.26758 1.48969 0
M  V30 6103 O 573.315 -1.86454 1.9735 0
M  V30 6104 C 571.771 0.151057 3.59583 0
M  V30 6105 C 571.379 1.53191 4.20995 0
M  V30 6106 C 573.123 -0.296974 4.2346 0
M  V30 6107 C 571.03 1.526 5.71373 0
M  V30 6108 H 569.96 0.0384254 0.75302 0
M  V30 6109 H 572.611 0.773262 1.66412 0
M  V30 6110 H 570.993 -0.57617 3.91786 0
M  V30 6111 H 572.167 2.28156 4.00352 0
M  V30 6112 H 570.482 1.92279 3.69348 0
M  V30 6113 H 573.079 -0.320712 5.33737 0
M  V30 6114 H 573.422 -1.32145 3.9477 0
M  V30 6115 H 573.955 0.377279 3.96007 0
M  V30 6116 H 570.694 2.52837 6.04776 0
M  V30 6117 H 570.214 0.819064 5.94181 0
M  V30 6118 H 571.893 1.25357 6.3474 0
M  V30 6119 N 572.025 -1.5352 0.356285 0
M  V30 6120 C 573.274 -2.00298 -0.237373 0
M  V30 6121 C 573.587 -1.24784 -1.50627 0
M  V30 6122 O 574.793 -1.62103 -2.17795 0
M  V30 6123 C 573.249 -3.56771 -0.473545 0
M  V30 6124 C 572.857 -4.41154 0.780183 0
M  V30 6125 C 574.601 -4.1193 -1.02537 0
M  V30 6126 C 572.508 -5.89161 0.514108 0
M  V30 6127 H 571.438 -0.748307 -0.092478 0
M  V30 6128 H 574.089 -1.77283 0.473588 0
M  V30 6129 H 572.471 -3.75902 -1.24553 0
M  V30 6130 H 573.645 -4.33797 1.55425 0
M  V30 6131 H 571.96 -3.97052 1.25455 0
M  V30 6132 H 574.557 -5.20133 -1.2396 0
M  V30 6133 H 574.9 -3.65943 -1.98473 0
M  V30 6134 H 575.433 -3.96561 -0.313775 0
M  V30 6135 H 572.172 -6.39408 1.44355 0
M  V30 6136 H 571.692 -5.9939 -0.221632 0
M  V30 6137 H 573.371 -6.46857 0.136122 0
M  V30 6138 N 573.503 -0.0852151 -1.57369 0
M  V30 6139 C 574.433 0.874556 -2.16503 0
M  V30 6140 C 575.414 1.30111 -1.09568 0
M  V30 6141 O 576.599 1.36977 -1.37662 0
M  V30 6142 C 573.729 2.13731 -2.73745 0
M  V30 6143 C 572.683 1.84971 -3.85966 0
M  V30 6144 C 572.009 3.17991 -4.29867 0
M  V30 6145 C 573.309 1.14442 -5.09608 0
M  V30 6146 H 575.003 0.381899 -2.96954 0
M  V30 6147 H 572.549 0.18225 -1.42842 0
M  V30 6148 H 574.502 2.81302 -3.13763 0
M  V30 6149 H 573.226 2.65263 -1.90534 0
M  V30 6150 H 571.885 1.19801 -3.46473 0
M  V30 6151 H 571.533 3.6739 -3.4356 0
M  V30 6152 H 571.233 2.99534 -5.05523 0
M  V30 6153 H 572.757 3.86737 -4.72511 0
M  V30 6154 H 574.171 1.72105 -5.46857 0
M  V30 6155 H 572.568 1.06197 -5.90629 0
M  V30 6156 H 573.638 0.12559 -4.84737 0
M  V30 6157 N 574.981 1.5647 0.188427 0
M  V30 6158 C 576.258 1.71857 0.934058 0
M  V30 6159 C 576.638 0.641867 2.01105 0
M  V30 6160 O 575.986 -0.346098 2.25864 0
M  V30 6161 C 576.196 3.14431 1.5144 0
M  V30 6162 C 577.544 3.74869 1.99396 0
M  V30 6163 O 578.568 3.17601 1.61269 0
M  V30 6164 O 577.427 4.75387 2.69573 0
M  V30 6165 H 574.521 0.701186 0.438483 0
M  V30 6166 H 577.067 1.68768 0.177599 0
M  V30 6167 H 575.839 3.8427 0.738416 0
M  V30 6168 H 575.462 3.21775 2.33552 0
M  V30 6169 N 576.459 -0.456382 1.50847 0
M  V30 6170 C 577.369 -1.57805 1.73594 0
M  V30 6171 C 578.385 -1.62599 0.619476 0
M  V30 6172 O 579.561 -1.80195 0.899532 0
M  V30 6173 C 576.626 -2.93926 1.8387 0
M  V30 6174 C 575.687 -2.99402 3.07663 0
M  V30 6175 C 574.92 -4.29031 3.1744 0
M  V30 6176 O 575.143 -5.20358 2.33631 0
M  V30 6177 O 574.077 -4.40401 4.10281 0
M  V30 6178 H 577.903 -1.41531 2.68705 0
M  V30 6179 H 575.488 -0.637422 1.3512 0
M  V30 6180 H 577.37 -3.74747 1.92725 0
M  V30 6181 H 576.045 -3.10368 0.91944 0
M  V30 6182 H 574.952 -2.17606 3.043 0
M  V30 6183 H 576.285 -2.87901 3.99216 0
M  V30 6184 N 577.937 -1.40673 -0.710563 0
M  V30 6185 C 578.885 -1.41517 -1.84596 0
M  V30 6186 C 579.879 -0.295043 -1.66811 0
M  V30 6187 O 581.085 -0.466331 -1.73854 0
M  V30 6188 H 577.46 -0.442467 -0.608052 0
M  V30 6189 H 579.431 -2.37238 -1.80999 0
M  V30 6190 C 578.18 -1.29957 -3.225 0
M  V30 6191 H 577.503 -2.15429 -3.36794 0
M  V30 6192 H 578.943 -1.34608 -4.02066 0
M  V30 6193 C 577.402 -0.0103164 -3.36898 0
M  V30 6194 O 577.932 0.950707 -3.90288 0
M  V30 6195 N 576.138 0.0608409 -2.90536 0
M  V30 6196 H 575.685 -0.721943 -2.47277 0
M  V30 6197 H 575.643 0.92292 -3.00549 0
M  V30 6198 N 579.415 0.9433 -1.26252 0
M  V30 6199 C 580.347 2.04542 -1.03417 0
M  V30 6200 C 581.36 1.62799 0.0046911 0
M  V30 6201 O 582.549 1.76944 -0.235146 0
M  V30 6202 C 579.649 3.34511 -0.543671 0
M  V30 6203 C 578.822 4.05033 -1.65128 0
M  V30 6204 C 577.881 5.13273 -1.1592 0
M  V30 6205 O 576.907 5.38095 -1.85586 0
M  V30 6206 N 578.109 5.805 -0.00649279 0
M  V30 6207 H 580.874 2.24699 -1.98319 0
M  V30 6208 H 578.435 1.11264 -1.1761 0
M  V30 6209 H 580.427 4.04212 -0.198703 0
M  V30 6210 H 578.997 3.11042 0.311711 0
M  V30 6211 H 578.217 3.29275 -2.16729 0
M  V30 6212 H 579.505 4.48903 -2.39508 0
M  V30 6213 H 578.903 5.62767 0.575347 0
M  V30 6214 H 577.46 6.51201 0.279416 0
M  V30 6215 N 580.893 1.08022 1.14757 0
M  V30 6216 C 581.823 0.728248 2.21853 0
M  V30 6217 C 582.804 -0.287486 1.67653 0
M  V30 6218 O 583.989 -0.158727 1.9355 0
M  V30 6219 C 581.119 0.132549 3.47047 0
M  V30 6220 C 580.073 1.07619 4.14249 0
M  V30 6221 C 579.399 0.342907 5.33599 0
M  V30 6222 C 580.699 2.41268 4.63235 0
M  V30 6223 H 582.393 1.62365 2.51551 0
M  V30 6224 H 579.939 0.782125 1.20908 0
M  V30 6225 H 581.892 -0.125665 4.21213 0
M  V30 6226 H 580.616 -0.797971 3.16702 0
M  V30 6227 H 579.275 1.31944 3.42033 0
M  V30 6228 H 578.923 -0.59129 4.99513 0
M  V30 6229 H 578.623 0.971955 5.79506 0
M  V30 6230 H 580.147 0.0926538 6.1053 0
M  V30 6231 H 581.561 2.21232 5.28894 0
M  V30 6232 H 579.958 2.9983 5.19829 0
M  V30 6233 H 581.028 3.03079 3.78512 0
M  V30 6234 N 582.371 -1.3172 0.865308 0
M  V30 6235 C 583.281 -2.32394 0.320935 0
M  V30 6236 C 584.297 -1.64511 -0.566746 0
M  V30 6237 O 585.473 -1.95969 -0.464575 0
M  V30 6238 C 582.538 -3.43462 -0.472701 0
M  V30 6239 C 581.599 -4.27015 0.442385 0
M  V30 6240 C 580.832 -5.32779 -0.313469 0
M  V30 6241 O 581.055 -5.49158 -1.54214 0
M  V30 6242 O 579.989 -6.01015 0.326257 0
M  V30 6243 H 583.815 -2.80868 1.15528 0
M  V30 6244 H 581.4 -1.35535 0.628545 0
M  V30 6245 H 583.282 -4.11172 -0.922781 0
M  V30 6246 H 581.957 -2.97159 -1.28367 0
M  V30 6247 H 580.864 -3.62075 0.940866 0
M  V30 6248 H 582.197 -4.76871 1.21882 0
M  V30 6249 N 583.85 -0.624285 -1.44708 0
M  V30 6250 C 585.127 -0.0572781 -1.95516 0
M  V30 6251 C 585.507 1.41516 -1.56641 0
M  V30 6252 O 584.855 2.12614 -0.837111 0
M  V30 6253 C 585.065 -0.272944 -3.47931 0
M  V30 6254 C 586.413 -0.162529 -4.24289 0
M  V30 6255 O 587.437 -0.203946 -3.55616 0
M  V30 6256 O 586.296 -0.0616847 -5.46465 0
M  V30 6257 H 583.389 0.0262219 -0.826584 0
M  V30 6258 H 585.936 -0.695512 -1.54793 0
M  V30 6259 H 584.707 -1.29492 -3.69253 0
M  V30 6260 H 584.331 0.399756 -3.95585 0
M  V30 6261 N 585.328 1.53329 -0.364422 0
M  V30 6262 C 586.291 2.24323 0.470292 0
M  V30 6263 C 587.291 1.25068 1.01067 0
M  V30 6264 O 588.481 1.49354 0.896605 0
M  V30 6265 C 585.613 2.97908 1.65722 0
M  V30 6266 H 586.806 2.9952 -0.150917 0
M  V30 6267 H 584.359 1.55868 -0.116092 0
M  V30 6268 H 585.094 2.2695 2.31655 0
M  V30 6269 H 584.879 3.70732 1.27671 0
M  V30 6270 H 586.369 3.5188 2.24878 0
M  V30 6271 N 586.806 0.0935595 1.57322 0
M  V30 6272 C 588.046 -0.573901 1.96178 0
M  V30 6273 C 588.41 -1.65445 0.97426 0
M  V30 6274 O 589.611 -2.37901 1.25126 0
M  V30 6275 C 587.882 -1.11612 3.39526 0
M  V30 6276 S 589.441 -1.79566 4.00377 0
M  V30 6277 H 586.259 -0.187315 0.685882 0
M  V30 6278 H 588.861 0.172597 1.94737 0
M  V30 6279 H 587.565 -0.31815 4.09165 0
M  V30 6280 H 587.096 -1.89848 3.4456 0
M  V30 6281 H 589.111 -3.07978 3.89056 0
M  V30 6282 N 588.284 -1.56567 -0.180126 0
M  V30 6283 C 589.194 -1.98947 -1.24327 0
M  V30 6284 C 590.21 -0.899446 -1.4895 0
M  V30 6285 O 591.386 -1.20639 -1.61271 0
M  V30 6286 C 588.451 -2.33328 -2.56435 0
M  V30 6287 C 587.512 -3.56114 -2.39752 0
M  V30 6288 C 586.745 -3.88845 -3.65561 0
M  V30 6289 O 586.968 -3.22662 -4.70368 0
M  V30 6290 O 585.902 -4.82226 -3.60197 0
M  V30 6291 H 589.728 -2.89634 -0.913565 0
M  V30 6292 H 587.313 -1.44319 -0.386306 0
M  V30 6293 H 589.195 -2.5645 -3.34382 0
M  V30 6294 H 587.87 -1.45806 -2.89002 0
M  V30 6295 H 586.777 -3.38221 -1.59866 0
M  V30 6296 H 588.11 -4.4415 -2.12113 0
M  V30 6297 N 589.762 0.448376 -1.51087 0
M  V30 6298 C 590.712 1.54156 -1.67988 0
M  V30 6299 C 591.696 1.5178 -0.534015 0
M  V30 6300 O 592.888 1.58419 -0.789448 0
M  V30 6301 C 590.017 2.92437 -1.79822 0
M  V30 6302 C 589.103 2.99611 -3.00157 0
M  V30 6303 N 589.494 2.7655 -4.23502 0
M  V30 6304 C 587.792 3.30764 -2.99184 0
M  V30 6305 C 588.493 2.89281 -5.0467 0
M  V30 6306 N 587.469 3.20473 -4.39088 0
M  V30 6307 H 591.271 1.35061 -2.61028 0
M  V30 6308 H 588.785 0.655504 -1.48583 0
M  V30 6309 H 590.782 3.71068 -1.90037 0
M  V30 6310 H 589.442 3.1256 -0.879554 0
M  V30 6311 H 590.453 2.5169 -4.52628 0
M  V30 6312 H 587.13 3.56732 -2.16907 0
M  V30 6313 H 588.52 2.75499 -6.12821 0
M  V30 6314 N 591.24 1.41047 0.703093 0
M  V30 6315 C 592.17 1.45067 1.82969 0
M  V30 6316 C 593.151 0.31016 1.67248 0
M  V30 6317 O 594.336 0.520548 1.87093 0
M  V30 6318 C 591.466 1.32478 3.2104 0
M  V30 6319 C 590.42 2.44262 3.51454 0
M  V30 6320 C 589.746 2.16742 4.88801 0
M  V30 6321 C 591.046 3.86606 3.51189 0
M  V30 6322 H 592.74 2.39353 1.79863 0
M  V30 6323 H 590.286 1.15206 0.863919 0
M  V30 6324 H 592.239 1.33904 3.99559 0
M  V30 6325 H 590.963 0.346735 3.24754 0
M  V30 6326 H 589.622 2.42107 2.75282 0
M  V30 6327 H 589.27 1.17299 4.89132 0
M  V30 6328 H 588.97 2.91643 5.10116 0
M  V30 6329 H 590.494 2.19872 5.69639 0
M  V30 6330 H 591.908 3.90517 4.19725 0
M  V30 6331 H 590.305 4.61128 3.84033 0
M  V30 6332 H 591.375 4.15296 2.50315 0
M  V30 6333 N 592.718 -0.936591 1.26751 0
M  V30 6334 C 593.681 -2.01752 1.08761 0
M  V30 6335 C 594.681 -1.60763 0.0344435 0
M  V30 6336 O 595.871 -1.71963 0.278258 0
M  V30 6337 C 593.003 -3.34543 0.655271 0
M  V30 6338 H 594.196 -2.19143 2.04735 0
M  V30 6339 H 591.749 -1.11618 1.09413 0
M  V30 6340 H 592.484 -3.22851 -0.30626 0
M  V30 6341 H 592.269 -3.65647 1.41578 0
M  V30 6342 H 593.759 -4.13944 0.551378 0
M  V30 6343 N 594.196 -1.08629 -1.14182 0
M  V30 6344 C 595.106 -0.730126 -2.22949 0
M  V30 6345 C 596.122 0.26436 -1.7198 0
M  V30 6346 O 597.298 0.107742 -2.01112 0
M  V30 6347 C 594.363 -0.147227 -3.46387 0
M  V30 6348 C 593.424 -1.19662 -4.12286 0
M  V30 6349 C 592.657 -0.641437 -5.29831 0
M  V30 6350 O 592.88 0.538351 -5.67854 0
M  V30 6351 O 591.814 -1.39257 -5.85569 0
M  V30 6352 H 595.64 -1.63753 -2.55771 0
M  V30 6353 H 593.225 -0.860118 -1.22157 0
M  V30 6354 H 595.107 0.174923 -4.21037 0
M  V30 6355 H 593.782 0.733304 -3.15285 0
M  V30 6356 H 592.689 -1.57133 -3.395 0
M  V30 6357 H 594.022 -2.0495 -4.475 0
M  V30 6358 N 595.674 1.31259 -0.872281 0
M  V30 6359 C 596.904 2.00504 -0.498183 0
M  V30 6360 C 597.312 1.65632 0.914479 0
M  V30 6361 O 596.655 0.882849 1.61095 0
M  V30 6362 C 596.717 3.5482 -0.578194 0
M  V30 6363 C 596.381 4.13172 -1.95289 0
M  V30 6364 C 597.378 4.30107 -2.92069 0
M  V30 6365 C 595.063 4.48846 -2.25483 0
M  V30 6366 C 597.057 4.81908 -4.17185 0
M  V30 6367 C 594.744 5.00349 -3.50847 0
M  V30 6368 C 595.742 5.16831 -4.46514 0
M  V30 6369 O 595.43 5.67228 -5.69656 0
M  V30 6370 H 595.162 0.648055 -0.192354 0
M  V30 6371 H 597.716 1.6841 -1.17589 0
M  V30 6372 H 595.946 3.86383 0.156438 0
M  V30 6373 H 597.635 4.05318 -0.217192 0
M  V30 6374 H 598.401 4.02862 -2.7005 0
M  V30 6375 H 594.28 4.35292 -1.51795 0
M  V30 6376 H 597.824 4.94688 -4.91863 0
M  V30 6377 H 593.721 5.27028 -3.72708 0
M  V30 6378 H 594.489 5.85592 -5.7186 0
M  V30 6379 N 597.152 0.631951 1.44375 0
M  V30 6380 C 598.082 -0.0593243 2.33425 0
M  V30 6381 C 599.063 -0.833964 1.48253 0
M  V30 6382 O 600.248 -0.799682 1.76971 0
M  V30 6383 C 597.378 -1.04096 3.31333 0
M  V30 6384 C 596.332 -0.377899 4.26328 0
M  V30 6385 C 595.658 -1.4695 5.14111 0
M  V30 6386 C 596.958 0.716371 5.17364 0
M  V30 6387 H 598.652 0.684287 2.91475 0
M  V30 6388 H 596.198 0.330518 1.40156 0
M  V30 6389 H 598.151 -1.53331 3.92514 0
M  V30 6390 H 596.875 -1.81547 2.71493 0
M  V30 6391 H 595.534 0.0938054 3.6648 0
M  V30 6392 H 595.182 -2.2349 4.50623 0
M  V30 6393 H 594.882 -1.03121 5.78481 0
M  V30 6394 H 596.406 -1.96363 5.78164 0
M  V30 6395 H 597.82 0.307089 5.72477 0
M  V30 6396 H 596.217 1.07784 5.90341 0
M  V30 6397 H 597.287 1.58316 4.58327 0
M  V30 6398 N 598.631 -1.53133 0.372548 0
M  V30 6399 C 599.541 -2.29671 -0.478379 0
M  V30 6400 C 600.557 -1.35913 -1.08644 0
M  V30 6401 O 601.733 -1.68975 -1.09588 0
M  V30 6402 C 598.798 -3.07625 -1.599 0
M  V30 6403 C 597.859 -4.17061 -1.01776 0
M  V30 6404 C 597.092 -4.91289 -2.08497 0
M  V30 6405 O 597.315 -4.65442 -3.29727 0
M  V30 6406 O 596.249 -5.7705 -1.71164 0
M  V30 6407 H 600.075 -3.03355 0.144649 0
M  V30 6408 H 597.66 -1.48773 0.136729 0
M  V30 6409 H 599.542 -3.56281 -2.25038 0
M  V30 6410 H 598.217 -2.3677 -2.2073 0
M  V30 6411 H 597.124 -3.72641 -0.330098 0
M  V30 6412 H 598.457 -4.90102 -0.453915 0
M  V30 6413 N 600.109 -0.101901 -1.5727 0
M  V30 6414 C 601.072 0.840129 -2.13247 0
M  V30 6415 C 602.072 1.20625 -1.06331 0
M  V30 6416 O 603.262 1.13456 -1.32186 0
M  V30 6417 C 600.394 2.13372 -2.65867 0
M  V30 6418 H 601.587 0.353945 -2.97804 0
M  V30 6419 H 599.14 0.147167 -1.55606 0
M  V30 6420 H 599.875 2.66461 -1.84849 0
M  V30 6421 H 599.66 1.88085 -3.44044 0
M  V30 6422 H 601.15 2.80748 -3.09145 0
M  V30 6423 N 601.587 1.56661 0.17182 0
M  V30 6424 C 602.817 1.85831 0.902804 0
M  V30 6425 C 603.225 0.685157 1.76358 0
M  V30 6426 O 602.568 -0.354947 1.80238 0
M  V30 6427 C 602.63 3.09406 1.83053 0
M  V30 6428 C 602.294 4.4231 1.1494 0
M  V30 6429 C 603.291 5.17342 0.515104 0
M  V30 6430 C 600.976 4.89045 1.14631 0
M  V30 6431 C 602.97 6.37299 -0.113194 0
M  V30 6432 C 600.657 6.08933 0.514184 0
M  V30 6433 C 601.655 6.82904 -0.114463 0
M  V30 6434 O 601.343 8.00518 -0.736622 0
M  V30 6435 H 601.075 0.620715 0.267748 0
M  V30 6436 H 603.629 2.04637 0.176918 0
M  V30 6437 H 601.859 2.86544 2.59672 0
M  V30 6438 H 603.548 3.25027 2.4313 0
M  V30 6439 H 604.314 4.82317 0.509474 0
M  V30 6440 H 600.193 4.31409 1.62502 0
M  V30 6441 H 603.737 6.94976 -0.604477 0
M  V30 6442 H 599.634 6.43423 0.517395 0
M  V30 6443 H 600.402 8.16027 -0.635822 0
M  V30 6444 N 603.065 -0.440357 1.51323 0
M  V30 6445 C 604.311 -1.18874 1.65047 0
M  V30 6446 C 604.666 -1.88988 0.360742 0
M  V30 6447 O 603.959 -1.80479 -0.643272 0
M  V30 6448 C 604.153 -2.2339 2.78984 0
M  V30 6449 C 603.982 -1.63534 4.18911 0
M  V30 6450 C 602.752 -1.42158 4.84891 0
M  V30 6451 C 604.95 -1.11324 5.02107 0
M  V30 6452 N 602.932 -0.778679 6.08942 0
M  V30 6453 C 604.303 -0.595421 6.17134 0
M  V30 6454 C 606.358 -1.00471 4.87658 0
M  V30 6455 C 605.061 0.0202557 7.19297 0
M  V30 6456 C 607.087 -0.402928 5.90026 0
M  V30 6457 C 606.449 0.10436 7.04323 0
M  V30 6458 H 602.548 -0.422771 0.657866 0
M  V30 6459 H 605.132 -0.485814 1.88542 0
M  V30 6460 H 603.303 -2.91074 2.57158 0
M  V30 6461 H 605.035 -2.90366 2.81904 0
M  V30 6462 H 601.79 -1.68247 4.42707 0
M  V30 6463 H 602.214 -0.474755 6.75333 0
M  V30 6464 H 606.856 -1.38278 3.99548 0
M  V30 6465 H 604.574 0.410468 8.07057 0
M  V30 6466 H 608.16 -0.320897 5.80914 0
M  V30 6467 H 607.04 0.562697 7.82179 0
M  V30 6468 N 604.543 -1.41418 -0.695603 0
M  V30 6469 C 605.49 -1.43264 -1.80954 0
M  V30 6470 C 606.46 -0.287016 -1.63601 0
M  V30 6471 O 607.645 -0.488054 -1.84452 0
M  V30 6472 C 604.785 -1.32054 -3.18835 0
M  V30 6473 C 603.898 -2.56485 -3.4762 0
M  V30 6474 C 603.033 -2.3757 -4.75115 0
M  V30 6475 C 602.072 -3.57477 -4.96867 0
M  V30 6476 N 601.209 -3.37632 -6.15588 0
M  V30 6477 H 606.049 -2.38467 -1.78711 0
M  V30 6478 H 603.586 -1.18415 -0.872715 0
M  V30 6479 H 605.544 -1.23558 -3.98484 0
M  V30 6480 H 604.174 -0.404592 -3.20254 0
M  V30 6481 H 603.226 -2.75432 -2.62376 0
M  V30 6482 H 604.538 -3.45678 -3.59594 0
M  V30 6483 H 603.692 -2.2654 -5.62818 0
M  V30 6484 H 602.431 -1.45834 -4.65386 0
M  V30 6485 H 601.436 -3.68961 -4.07612 0
M  V30 6486 H 602.661 -4.50167 -5.08455 0
M  V30 6487 H 600.607 -2.48596 -6.07072 0
M  V30 6488 H 600.524 -4.20401 -6.2833 0
M  V30 6489 H 601.792 -3.30375 -7.06026 0
M  V30 6490 N 606.021 0.929856 -1.27246 0
M  V30 6491 C 606.984 2.01172 -1.09829 0
M  V30 6492 C 607.984 1.60743 -0.0429687 0
M  V30 6493 O 609.174 1.71813 -0.287373 0
M  V30 6494 C 606.306 3.34191 -0.673003 0
M  V30 6495 H 607.499 2.18054 -2.05895 0
M  V30 6496 H 605.052 1.11036 -1.10003 0
M  V30 6497 H 605.787 3.23009 0.289134 0
M  V30 6498 H 605.572 3.64892 -1.43515 0
M  V30 6499 H 607.062 4.13646 -0.573323 0
M  V30 6500 N 607.499 1.09233 1.13605 0
M  V30 6501 C 608.727 0.848908 1.88683 0
M  V30 6502 C 609.142 -0.599667 1.79024 0
M  V30 6503 O 608.499 -1.41265 1.15544 0
M  V30 6504 C 608.55 1.27273 3.38355 0
M  V30 6505 O 608.271 2.66449 3.47759 0
M  V30 6506 C 609.772 1.0614 4.30406 0
M  V30 6507 H 606.992 0.305549 0.597395 0
M  V30 6508 H 609.536 1.4538 1.43823 0
M  V30 6509 H 607.691 0.711776 3.80805 0
M  V30 6510 H 608.105 2.84264 4.40788 0
M  V30 6511 H 609.579 1.40725 5.33761 0
M  V30 6512 H 610.056 -0.000960332 4.392 0
M  V30 6513 H 610.662 1.60821 3.93722 0
M  V30 6514 N 608.977 -1.30795 0.87923 0
M  V30 6515 C 609.927 -2.25838 0.313276 0
M  V30 6516 C 610.911 -1.51025 -0.55499 0
M  V30 6517 O 612.103 -1.72413 -0.400353 0
M  V30 6518 C 609.232 -3.39981 -0.476204 0
M  V30 6519 C 608.318 -4.22154 0.405826 0
M  V30 6520 N 608.709 -4.82934 1.50362 0
M  V30 6521 C 607.007 -4.45552 0.199909 0
M  V30 6522 C 607.708 -5.44444 2.0483 0
M  V30 6523 N 606.684 -5.26723 1.34403 0
M  V30 6524 H 610.486 -2.70374 1.15218 0
M  V30 6525 H 608 -1.45168 0.728003 0
M  V30 6526 H 609.997 -4.07108 -0.898251 0
M  V30 6527 H 608.657 -2.96986 -1.31261 0
M  V30 6528 H 609.668 -4.82319 1.8865 0
M  V30 6529 H 606.345 -4.13169 -0.599795 0
M  V30 6530 H 607.735 -6.02701 2.96986 0
M  V30 6531 N 610.455 -0.639598 -1.44038 0
M  V30 6532 C 611.866 -0.228866 -1.85292 0
M  V30 6533 C 612.217 1.22161 -1.53529 0
M  V30 6534 O 611.342 1.93064 -0.977518 0
M  V30 6535 C 611.937 -0.408592 -3.36327 0
M  V30 6536 C 610.496 -0.0522953 -3.76364 0
M  V30 6537 C 609.643 -0.717959 -2.67844 0
M  V30 6538 H 612.594 -0.844194 -1.34384 0
M  V30 6539 H 612.615 0.349968 -3.78887 0
M  V30 6540 H 612.127 -1.46435 -3.59414 0
M  V30 6541 H 610.228 1.0014 -3.58891 0
M  V30 6542 H 610.341 -0.468261 -4.76806 0
M  V30 6543 H 608.705 -0.152459 -2.54243 0
M  V30 6544 H 609.488 -1.77648 -2.93762 0
M  V30 6545 N 611.933 1.52934 -0.380664 0
M  V30 6546 C 613.344 1.86457 0.0952684 0
M  V30 6547 C 613.695 1.3007 1.46889 0
M  V30 6548 O 612.82 0.628636 2.07068 0
M  V30 6549 C 613.415 3.38323 0.179648 0
M  V30 6550 C 611.974 3.71589 0.599858 0
M  V30 6551 C 611.121 2.76228 -0.243572 0
M  V30 6552 H 614.072 1.46966 -0.59888 0
M  V30 6553 H 614.093 3.67113 1.00042 0
M  V30 6554 H 613.605 3.79333 -0.820228 0
M  V30 6555 H 611.706 3.36144 1.60742 0
M  V30 6556 H 611.819 4.77715 0.364003 0
M  V30 6557 H 610.183 2.53045 0.289855 0
M  V30 6558 H 610.966 3.20074 -1.24127 0
M  V30 6559 N 613.412 0.11024 1.57214 0
M  V30 6560 C 614.637 -0.561179 1.99664 0
M  V30 6561 C 615.062 -1.59985 0.989266 0
M  V30 6562 O 614.42 -1.81255 -0.0402399 0
M  V30 6563 C 614.468 -1.17189 3.41027 0
M  V30 6564 O 613.572 -2.28755 3.4314 0
M  V30 6565 H 612.913 -0.14101 0.648855 0
M  V30 6566 H 615.443 0.196128 2.03658 0
M  V30 6567 H 615.453 -1.50954 3.79047 0
M  V30 6568 H 614.128 -0.411041 4.13864 0
M  V30 6569 H 612.705 -1.96495 3.16929 0
M  V30 6570 N 614.89 -1.56749 -0.16351 0
M  V30 6571 C 616.115 -1.86938 -0.898264 0
M  V30 6572 C 616.54 -0.697456 -1.74692 0
M  V30 6573 O 615.898 0.353327 -1.77824 0
M  V30 6574 C 615.946 -3.15599 -1.74441 0
M  V30 6575 O 615.05 -2.98371 -2.8469 0
M  V30 6576 H 614.391 -0.614659 -0.251178 0
M  V30 6577 H 616.921 -2.03979 -0.159298 0
M  V30 6578 H 616.931 -3.47202 -2.14277 0
M  V30 6579 H 615.606 -4.00505 -1.1211 0
M  V30 6580 H 614.183 -2.7814 -2.4838 0
M  V30 6581 N 616.368 0.432326 -1.51554 0
M  V30 6582 C 617.596 1.20364 -1.68286 0
M  V30 6583 C 618.011 1.84888 -0.38233 0
M  V30 6584 O 617.368 1.70924 0.639627 0
M  V30 6585 C 617.419 2.28398 -2.80208 0
M  V30 6586 O 617.14 1.66512 -4.05223 0
M  V30 6587 C 618.641 3.18584 -3.08251 0
M  V30 6588 H 615.861 0.36259 -0.564596 0
M  V30 6589 H 618.405 0.511647 -1.97996 0
M  V30 6590 H 616.56 2.93305 -2.53083 0
M  V30 6591 H 616.974 2.37951 -4.67418 0
M  V30 6592 H 618.448 3.90511 -3.90135 0
M  V30 6593 H 618.925 3.79628 -2.2086 0
M  V30 6594 H 619.531 2.59372 -3.37055 0
M  V30 6595 N 617.846 1.41785 0.688094 0
M  V30 6596 C 619.257 1.3701 1.26828 0
M  V30 6597 C 619.608 0.056835 1.96118 0
M  V30 6598 O 618.733 -0.84475 1.99231 0
M  V30 6599 C 619.328 2.48168 2.30648 0
M  V30 6600 C 617.887 2.46766 2.84224 0
M  V30 6601 C 617.034 2.27633 1.58361 0
M  V30 6602 H 619.985 1.51192 0.482351 0
M  V30 6603 H 620.006 2.17655 3.121 0
M  V30 6604 H 619.518 3.43735 1.80188 0
M  V30 6605 H 617.619 1.54978 3.3884 0
M  V30 6606 H 617.732 3.43342 3.34145 0
M  V30 6607 H 616.096 1.75648 1.84445 0
M  V30 6608 H 616.879 3.25238 1.09887 0
M  V30 6609 N 619.324 -0.923095 1.27737 0
M  V30 6610 C 620.735 -1.48626 1.12993 0
M  V30 6611 C 621.086 -1.94142 -0.283439 0
M  V30 6612 O 620.211 -1.81605 -1.17681 0
M  V30 6613 C 620.806 -2.70117 2.04505 0
M  V30 6614 C 619.365 -3.22642 1.93853 0
M  V30 6615 C 618.512 -1.95368 1.96791 0
M  V30 6616 H 621.463 -0.736737 1.40563 0
M  V30 6617 H 621.484 -3.4506 1.60356 0
M  V30 6618 H 620.996 -2.36959 3.07363 0
M  V30 6619 H 619.097 -3.60549 0.939968 0
M  V30 6620 H 619.21 -3.88525 2.80331 0
M  V30 6621 H 617.574 -2.12061 1.41076 0
M  V30 6622 H 618.357 -1.64517 3.01312 0
M  V30 6623 N 620.802 -1.09834 -1.13024 0
M  V30 6624 C 621.75 -0.736283 -2.20639 0
M  V30 6625 C 622.744 0.264725 -1.67319 0
M  V30 6626 O 623.95 0.125745 -1.7956 0
M  V30 6627 H 620.325 -0.220136 -0.719058 0
M  V30 6628 H 622.296 -1.65295 -2.48436 0
M  V30 6629 C 621.045 -0.177544 -3.47246 0
M  V30 6630 H 620.368 -0.939009 -3.88616 0
M  V30 6631 H 621.808 0.0378007 -4.23983 0
M  V30 6632 C 620.267 1.08824 -3.1884 0
M  V30 6633 O 620.797 2.1708 -3.37993 0
M  V30 6634 N 619.003 1.00442 -2.7269 0
M  V30 6635 H 618.55 0.123383 -2.57304 0
M  V30 6636 H 618.508 1.85206 -2.5406 0
M  V30 6637 N 622.28 1.30327 -0.886154 0
M  V30 6638 C 623.691 1.78243 -0.555554 0
M  V30 6639 C 624.042 1.72849 0.928314 0
M  V30 6640 O 623.167 1.30607 1.72542 0
M  V30 6641 C 623.762 3.23654 -1.00168 0
M  V30 6642 C 622.321 3.69401 -0.722471 0
M  V30 6643 C 621.468 2.50753 -1.18399 0
M  V30 6644 H 624.419 1.1718 -1.07026 0
M  V30 6645 H 624.44 3.79056 -0.331152 0
M  V30 6646 H 623.952 3.27548 -2.08169 0
M  V30 6647 H 622.053 3.70995 0.345496 0
M  V30 6648 H 622.166 4.60818 -1.31085 0
M  V30 6649 H 620.53 2.47452 -0.603303 0
M  V30 6650 H 621.313 2.57383 -2.27176 0
M  V30 6651 N 623.758 0.647228 1.43697 0
M  V30 6652 C 624.688 -0.0345631 2.33474 0
M  V30 6653 C 625.669 -0.818193 1.4913 0
M  V30 6654 O 626.854 -0.780867 1.77809 0
M  V30 6655 C 623.984 -1.00576 3.32418 0
M  V30 6656 C 622.938 -0.33266 4.26705 0
M  V30 6657 C 622.264 -1.41489 5.1564 0
M  V30 6658 C 623.564 0.771204 5.16575 0
M  V30 6659 H 625.258 0.715163 2.90733 0
M  V30 6660 H 622.804 0.345364 1.39797 0
M  V30 6661 H 624.757 -1.49159 3.94119 0
M  V30 6662 H 623.481 -1.78657 2.73403 0
M  V30 6663 H 622.14 0.13267 3.6636 0
M  V30 6664 H 621.788 -2.18698 4.52968 0
M  V30 6665 H 621.488 -0.969799 5.79542 0
M  V30 6666 H 623.012 -1.9022 5.80214 0
M  V30 6667 H 624.426 0.36779 5.72119 0
M  V30 6668 H 622.823 1.1404 5.89165 0
M  V30 6669 H 623.893 1.63169 4.56622 0
M  V30 6670 N 625.236 -1.5273 0.388769 0
M  V30 6671 C 626.166 -2.29353 -0.438111 0
M  V30 6672 C 627.147 -1.32719 -1.06394 0
M  V30 6673 O 628.332 -1.61612 -1.07681 0
M  V30 6674 C 625.462 -3.09995 -1.56589 0
M  V30 6675 C 624.416 -4.14509 -1.06613 0
M  V30 6676 C 623.742 -4.83372 -2.28594 0
M  V30 6677 C 625.042 -5.22127 -0.134459 0
M  V30 6678 H 626.736 -2.98723 0.201206 0
M  V30 6679 H 624.282 -1.43665 0.0982089 0
M  V30 6680 H 626.235 -3.62357 -2.15118 0
M  V30 6681 H 624.959 -2.38357 -2.23279 0
M  V30 6682 H 623.618 -3.63128 -0.503383 0
M  V30 6683 H 623.266 -4.08283 -2.93792 0
M  V30 6684 H 622.966 -5.54012 -1.95817 0
M  V30 6685 H 624.49 -5.38538 -2.87766 0
M  V30 6686 H 625.904 -5.69851 -0.627914 0
M  V30 6687 H 624.301 -6.00011 0.103534 0
M  V30 6688 H 625.371 -4.77971 0.816798 0
M  V30 6689 N 626.714 -0.118576 -1.57153 0
M  V30 6690 C 627.662 0.849114 -2.16547 0
M  V30 6691 C 628.656 1.27567 -1.11458 0
M  V30 6692 O 629.862 1.24746 -1.29763 0
M  V30 6693 H 626.237 0.291935 -0.693021 0
M  V30 6694 H 628.208 0.323693 -2.96639 0
M  V30 6695 C 626.957 2.08951 -2.77912 0
M  V30 6696 H 626.28 1.77021 -3.58474 0
M  V30 6697 H 627.72 2.74666 -3.23008 0
M  V30 6698 C 626.179 2.87899 -1.74974 0
M  V30 6699 O 626.709 3.83268 -1.20285 0
M  V30 6700 N 624.915 2.51884 -1.44924 0
M  V30 6701 H 624.462 1.74397 -1.89587 0
M  V30 6702 H 624.42 3.05003 -0.762921 0
M  V30 6703 N 628.193 1.56834 0.155195 0
M  V30 6704 C 629.609 1.51315 0.50755 0
M  V30 6705 C 629.809 0.825614 1.83809 0
M  V30 6706 O 628.865 0.39271 2.49427 0
M  V30 6707 C 630.178 2.96074 0.52542 0
M  V30 6708 C 631.726 3.06968 0.611505 0
M  V30 6709 C 632.201 4.53218 0.660115 0
M  V30 6710 N 633.692 4.5753 0.722564 0
M  V30 6711 C 634.427 5.68056 0.781023 0
M  V30 6712 N 633.923 6.88173 0.799327 0
M  V30 6713 N 635.716 5.56068 0.821278 0
M  V30 6714 H 627.867 1.9993 -0.717063 0
M  V30 6715 H 630.13 0.911507 -0.260496 0
M  V30 6716 H 629.836 3.49599 -0.383875 0
M  V30 6717 H 629.71 3.51587 1.36624 0
M  V30 6718 H 632.097 2.53468 1.51122 0
M  V30 6719 H 632.178 2.54513 -0.256306 0
M  V30 6720 H 631.822 5.07354 -0.23541 0
M  V30 6721 H 631.752 5.03447 1.5443 0
M  V30 6722 H 634.243 3.71054 0.716049 0
M  V30 6723 H 634.556 7.6816 0.845553 0
M  V30 6724 H 632.901 6.90751 0.767337 0
M  V30 6725 H 636.092 4.61142 0.804091 0
M  V30 6726 H 636.265 6.42223 0.863372 0
M  V30 6727 N 629.671 -0.424282 1.51781 0
M  V30 6728 C 630.899 -1.1947 1.68921 0
M  V30 6729 C 631.314 -1.84683 0.39213 0
M  V30 6730 O 630.671 -1.71261 -0.630554 0
M  V30 6731 C 630.722 -2.26909 2.81416 0
M  V30 6732 O 630.443 -1.64361 4.061 0
M  V30 6733 C 631.944 -3.16945 3.09937 0
M  V30 6734 H 629.164 -0.359591 0.566511 0
M  V30 6735 H 631.708 -0.501139 1.98265 0
M  V30 6736 H 629.863 -2.91959 2.54635 0
M  V30 6737 H 630.277 -2.35468 4.68674 0
M  V30 6738 H 631.751 -3.88437 3.922 0
M  V30 6739 H 632.228 -3.78451 2.22871 0
M  V30 6740 H 632.834 -2.57581 3.38426 0
M  V30 6741 N 631.149 -1.42148 -0.680565 0
M  V30 6742 C 632.082 -1.39602 -1.80517 0
M  V30 6743 C 633.06 -0.261098 -1.6049 0
M  V30 6744 O 634.244 -0.450404 -1.8304 0
M  V30 6745 C 631.371 -1.18134 -3.1743 0
M  V30 6746 C 630.417 -2.34543 -3.56219 0
M  V30 6747 S 631.25 -3.97063 -3.59306 0
M  V30 6748 C 632.406 -3.77926 -4.98921 0
M  V30 6749 H 632.639 -2.3477 -1.82402 0
M  V30 6750 H 630.172 -1.28851 -0.850691 0
M  V30 6751 H 632.13 -1.06434 -3.96462 0
M  V30 6752 H 630.791 -0.245611 -3.13138 0
M  V30 6753 H 629.984 -2.15255 -4.55721 0
M  V30 6754 H 629.586 -2.42728 -2.84533 0
M  V30 6755 H 631.878 -3.3856 -5.86842 0
M  V30 6756 H 632.821 -4.77084 -5.23256 0
M  V30 6757 H 633.229 -3.10904 -4.71167 0
M  V30 6758 N 632.627 0.916307 -1.28225 0
M  V30 6759 C 633.59 1.99996 -1.11957 0
M  V30 6760 C 634.59 1.60688 -0.0600152 0
M  V30 6761 O 635.78 1.71499 -0.30558 0
M  V30 6762 C 632.912 3.33458 -0.708411 0
M  V30 6763 H 634.105 2.15858 -2.08196 0
M  V30 6764 H 631.658 1.09863 -1.11175 0
M  V30 6765 H 632.393 3.23297 0.254859 0
M  V30 6766 H 632.178 3.63349 -1.47377 0
M  V30 6767 H 633.668 4.13014 -0.617164 0
M  V30 6768 N 634.105 1.10431 1.1244 0
M  V30 6769 C 635.333 0.868872 1.87772 0
M  V30 6770 C 635.748 -0.580645 1.7965 0
M  V30 6771 O 635.105 -1.40031 1.17036 0
M  V30 6772 C 635.156 1.30855 3.36986 0
M  V30 6773 O 634.877 2.70123 3.44914 0
M  V30 6774 C 636.378 1.107 4.29256 0
M  V30 6775 H 633.598 0.311868 0.59412 0
M  V30 6776 H 636.142 1.46897 1.42273 0
M  V30 6777 H 634.297 0.752126 3.80029 0
M  V30 6778 H 634.711 2.88923 4.37748 0
M  V30 6779 H 636.185 1.46378 5.32238 0
M  V30 6780 H 636.662 0.0456228 4.39176 0
M  V30 6781 H 637.268 1.64988 3.91994 0
M  V30 6782 N 635.583 -1.29855 0.893053 0
M  V30 6783 C 636.546 -2.26183 0.370687 0
M  V30 6784 C 637.546 -1.53108 -0.491385 0
M  V30 6785 O 638.736 -1.71643 -0.297386 0
M  V30 6786 C 635.868 -3.37633 -0.470827 0
M  V30 6787 H 637.061 -2.73903 1.22135 0
M  V30 6788 H 634.614 -1.41183 0.67061 0
M  V30 6789 H 635.349 -2.95241 -1.34175 0
M  V30 6790 H 635.134 -3.91825 0.146784 0
M  V30 6791 H 636.624 -4.09313 -0.827825 0
M  V30 6792 N 637.061 -0.65484 -1.43351 0
M  V30 6793 C 638.024 0.0263562 -2.29185 0
M  V30 6794 C 639.024 0.748951 -1.42293 0
M  V30 6795 O 640.214 0.589957 -1.63906 0
M  V30 6796 C 637.346 1.04806 -3.2439 0
M  V30 6797 H 638.539 -0.728883 -2.90908 0
M  V30 6798 H 636.092 -0.416149 -1.50658 0
M  V30 6799 H 636.827 1.83247 -2.67565 0
M  V30 6800 H 636.612 0.533554 -3.88453 0
M  V30 6801 H 638.102 1.52372 -3.88809 0
M  V30 6802 N 638.539 1.52521 -0.396863 0
M  V30 6803 C 639.469 2.29582 0.425941 0
M  V30 6804 C 640.45 1.33281 1.05689 0
M  V30 6805 O 641.635 1.62181 1.06823 0
M  V30 6806 C 638.765 3.10821 1.54943 0
M  V30 6807 C 637.719 4.15069 1.04413 0
M  V30 6808 C 637.045 4.84578 2.26028 0
M  V30 6809 C 638.345 5.22191 0.106767 0
M  V30 6810 H 640.039 2.98612 -0.217045 0
M  V30 6811 H 637.585 1.43611 -0.105826 0
M  V30 6812 H 639.538 3.63492 2.13193 0
M  V30 6813 H 638.262 2.39538 2.22011 0
M  V30 6814 H 636.921 3.63389 0.484118 0
M  V30 6815 H 636.569 4.09835 2.91623 0
M  V30 6816 H 636.269 5.55043 1.92876 0
M  V30 6817 H 637.793 5.40056 2.84906 0
M  V30 6818 H 639.207 5.70176 0.597685 0
M  V30 6819 H 637.604 5.99947 -0.135352 0
M  V30 6820 H 638.674 4.77531 -0.842134 0
M  V30 6821 N 640.017 0.126909 1.57088 0
M  V30 6822 C 640.98 -0.806097 2.14557 0
M  V30 6823 C 641.98 -1.18918 1.08236 0
M  V30 6824 O 643.17 -1.11339 1.33975 0
M  V30 6825 C 640.302 -2.09116 2.69227 0
M  V30 6826 H 641.495 -0.306522 2.98329 0
M  V30 6827 H 639.048 -0.122393 1.5582 0
M  V30 6828 H 639.783 -2.63486 1.89065 0
M  V30 6829 H 639.568 -1.82588 3.46993 0
M  V30 6830 H 641.058 -2.75794 3.13572 0
M  V30 6831 N 641.495 -1.56914 -0.146875 0
M  V30 6832 C 642.458 -1.97368 -1.16526 0
M  V30 6833 C 643.458 -0.860223 -1.35856 0
M  V30 6834 O 644.648 -1.12684 -1.32846 0
M  V30 6835 C 641.78 -2.28974 -2.52555 0
M  V30 6836 H 642.973 -2.88523 -0.818209 0
M  V30 6837 H 640.526 -1.5135 -0.390221 0
M  V30 6838 H 641.261 -1.40611 -2.92231 0
M  V30 6839 H 641.046 -3.10157 -2.39886 0
M  V30 6840 H 642.536 -2.61109 -3.25902 0
M  V30 6841 N 642.974 0.416227 -1.52004 0
M  V30 6842 C 644.199 1.19029 -1.69843 0
M  V30 6843 C 644.624 1.83708 -0.404103 0
M  V30 6844 O 643.982 1.69711 0.637787 0
M  V30 6845 C 644.03 2.23439 -2.83032 0
M  V30 6846 O 643.134 3.29419 -2.48106 0
M  V30 6847 H 642.475 0.347785 -0.565634 0
M  V30 6848 H 645.005 0.488871 -1.98674 0
M  V30 6849 H 645.015 2.67884 -3.07737 0
M  V30 6850 H 643.69 1.75745 -3.76944 0
M  V30 6851 H 642.267 2.90303 -2.34048 0
M  V30 6852 N 644.452 1.42507 0.673017 0
M  V30 6853 C 645.863 1.38347 1.25367 0
M  V30 6854 C 646.214 0.0776327 1.96046 0
M  V30 6855 O 645.339 -0.823571 2.00116 0
M  V30 6856 C 645.934 2.506 2.28002 0
M  V30 6857 C 644.493 2.49767 2.81591 0
M  V30 6858 C 643.64 2.293 1.55938 0
M  V30 6859 H 646.591 1.51695 0.466288 0
M  V30 6860 H 646.612 2.20953 3.09774 0
M  V30 6861 H 646.124 3.45627 1.76532 0
M  V30 6862 H 644.225 1.58563 3.37177 0
M  V30 6863 H 644.338 3.46867 3.30485 0
M  V30 6864 H 642.702 1.77594 1.82572 0
M  V30 6865 H 643.485 3.26385 1.06431 0
M  V30 6866 N 645.93 -0.909495 1.28709 0
M  V30 6867 C 646.893 -1.99399 1.13016 0
M  V30 6868 C 647.893 -1.60654 0.068536 0
M  V30 6869 O 649.083 -1.71334 0.314671 0
M  V30 6870 C 646.215 -3.33078 0.726085 0
M  V30 6871 H 647.408 -2.14751 2.09338 0
M  V30 6872 H 644.961 -1.09272 1.11756 0
M  V30 6873 H 645.696 -3.23428 -0.23771 0
M  V30 6874 H 645.481 -3.62562 1.49302 0
M  V30 6875 H 646.971 -4.12681 0.639058 0
M  V30 6876 N 647.408 -1.11026 -1.11852 0
M  V30 6877 C 648.819 -0.873203 -1.65021 0
M  V30 6878 C 649.17 0.595364 -1.86949 0
M  V30 6879 O 648.295 1.45645 -1.60051 0
M  V30 6880 C 648.89 -1.57859 -2.99777 0
M  V30 6881 C 647.449 -1.38807 -3.49871 0
M  V30 6882 C 646.596 -1.62403 -2.24768 0
M  V30 6883 H 649.547 -1.26712 -0.955503 0
M  V30 6884 H 649.568 -1.02111 -3.66543 0
M  V30 6885 H 649.08 -2.6474 -2.83786 0
M  V30 6886 H 647.181 -0.341163 -3.71035 0
M  V30 6887 H 647.294 -2.13421 -4.28938 0
M  V30 6888 H 645.658 -1.04714 -2.32179 0
M  V30 6889 H 646.441 -2.70549 -2.11324 0
M  V30 6890 N 648.886 1.2938 -0.899927 0
M  V30 6891 C 650.132 1.9584 -0.526742 0
M  V30 6892 C 650.465 1.70774 0.924651 0
M  V30 6893 O 649.74 1.02084 1.65557 0
M  V30 6894 C 650.023 3.50638 -0.820062 0
M  V30 6895 C 649.876 3.85161 -2.32317 0
M  V30 6896 C 651.195 4.3903 -0.30671 0
M  V30 6897 H 648.314 0.711322 -0.192848 0
M  V30 6898 H 650.956 1.52992 -1.12665 0
M  V30 6899 H 649.106 3.87265 -0.309491 0
M  V30 6900 H 650.778 3.58477 -2.9033 0
M  V30 6901 H 649.021 3.32696 -2.78381 0
M  V30 6902 H 649.692 4.93204 -2.47898 0
M  V30 6903 H 652.168 4.09396 -0.743908 0
M  V30 6904 H 651.044 5.46226 -0.541144 0
M  V30 6905 H 651.305 4.34937 0.792588 0
M  V30 6906 N 650.364 0.662433 1.43002 0
M  V30 6907 C 651.589 0.186003 2.06564 0
M  V30 6908 C 652.014 -1.14314 1.49379 0
M  V30 6909 O 651.372 -1.70824 0.607346 0
M  V30 6910 C 651.42 0.118269 3.60406 0
M  V30 6911 O 650.524 -0.916859 4.02079 0
M  V30 6912 H 649.865 0.0990981 0.656563 0
M  V30 6913 H 652.395 0.907958 1.8335 0
M  V30 6914 H 652.405 -0.0619981 4.07953 0
M  V30 6915 H 651.08 1.08849 4.01403 0
M  V30 6916 H 649.657 -0.708635 3.66105 0
M  V30 6917 N 651.842 -1.52309 0.404946 0
M  V30 6918 C 652.79 -2.28452 -0.437321 0
M  V30 6919 C 653.784 -1.32975 -1.04948 0
M  V30 6920 O 654.99 -1.50451 -0.988159 0
M  V30 6921 H 651.365 -0.734824 -0.159805 0
M  V30 6922 H 653.336 -2.97542 0.22615 0
M  V30 6923 C 652.085 -3.11536 -1.54404 0
M  V30 6924 H 651.408 -3.84871 -1.08233 0
M  V30 6925 H 652.848 -3.67926 -2.10729 0
M  V30 6926 C 651.307 -2.24833 -2.50902 0
M  V30 6927 O 651.837 -1.88574 -3.54687 0
M  V30 6928 N 650.043 -1.88685 -2.21012 0
M  V30 6929 H 649.59 -2.18371 -1.36646 0
M  V30 6930 H 649.548 -1.30966 -2.85824 0
M  V30 6931 N 653.32 -0.135238 -1.57019 0
M  V30 6932 C 654.25 0.805235 -2.19176 0
M  V30 6933 C 655.231 1.2656 -1.13651 0
M  V30 6934 O 656.416 1.32528 -1.4195 0
M  V30 6935 C 653.546 2.04914 -2.80406 0
M  V30 6936 C 652.5 1.72598 -3.91655 0
M  V30 6937 C 651.826 3.04154 -4.39766 0
M  V30 6938 C 653.126 0.981709 -5.12991 0
M  V30 6939 H 654.82 0.287232 -2.98019 0
M  V30 6940 H 652.366 0.136714 -1.4335 0
M  V30 6941 H 654.319 2.71178 -3.22553 0
M  V30 6942 H 653.043 2.59067 -1.98877 0
M  V30 6943 H 651.702 1.08717 -3.50109 0
M  V30 6944 H 651.35 3.56274 -3.55075 0
M  V30 6945 H 651.05 2.83299 -5.14796 0
M  V30 6946 H 652.574 3.71509 -4.84576 0
M  V30 6947 H 653.988 1.5462 -5.52056 0
M  V30 6948 H 652.385 0.873533 -5.93708 0
M  V30 6949 H 653.455 -0.0286887 -4.84892 0
M  V30 6950 N 654.798 1.5699 0.138552 0
M  V30 6951 C 655.73 1.95515 1.1961 0
M  V30 6952 C 656.743 0.852002 1.38726 0
M  V30 6953 O 657.932 1.13038 1.38147 0
M  V30 6954 C 655.032 2.2213 2.55952 0
M  V30 6955 C 654.205 3.53424 2.57702 0
M  V30 6956 C 653.264 3.6848 3.75645 0
M  V30 6957 O 652.29 4.4079 3.60129 0
M  V30 6958 N 653.492 3.05777 4.93438 0
M  V30 6959 H 656.257 2.86838 0.868557 0
M  V30 6960 H 653.818 1.58542 0.328033 0
M  V30 6961 H 655.81 2.29435 3.33379 0
M  V30 6962 H 654.38 1.3703 2.80965 0
M  V30 6963 H 653.6 3.57484 1.6613 0
M  V30 6964 H 654.888 4.39759 2.55909 0
M  V30 6965 H 654.286 2.46961 5.08947 0
M  V30 6966 H 652.843 3.18631 5.6861 0
M  V30 6967 N 656.276 -0.40816 1.52223 0
M  V30 6968 C 657.524 -1.15274 1.66001 0
M  V30 6969 C 657.845 -1.91003 0.392803 0
M  V30 6970 O 657.115 -1.8673 -0.592336 0
M  V30 6971 H 655.695 -0.428526 0.611861 0
M  V30 6972 H 658.357 -0.46512 1.89269 0
M  V30 6973 H 657.453 -1.86628 2.50153 0
M  V30 6974 N 657.755 -1.42862 -0.66545 0
M  V30 6975 C 659.166 -1.3901 -1.24632 0
M  V30 6976 C 659.517 -0.0880285 -1.96002 0
M  V30 6977 O 658.642 0.812947 -2.0055 0
M  V30 6978 C 659.237 -2.51806 -2.2667 0
M  V30 6979 C 657.796 -2.51257 -2.80262 0
M  V30 6980 C 656.943 -2.30124 -1.5472 0
M  V30 6981 H 659.894 -1.5194 -0.458237 0
M  V30 6982 H 659.915 -2.22593 -3.08598 0
M  V30 6983 H 659.427 -3.46558 -1.74697 0
M  V30 6984 H 657.528 -1.60349 -3.36332 0
M  V30 6985 H 657.641 -3.48614 -3.28641 0
M  V30 6986 H 656.005 -1.7856 -1.81627 0
M  V30 6987 H 656.788 -3.26945 -1.04699 0
M  V30 6988 N 659.233 0.902656 -1.29189 0
M  V30 6989 C 660.463 1.68394 -1.19695 0
M  V30 6990 C 660.871 1.87602 0.245384 0
M  V30 6991 O 660.214 1.41084 1.17648 0
M  V30 6992 C 660.276 3.09094 -1.83578 0
M  V30 6993 C 659.94 3.1313 -3.32864 0
M  V30 6994 C 660.937 2.93497 -4.29134 0
M  V30 6995 C 658.622 3.3529 -3.74013 0
M  V30 6996 C 660.616 2.95953 -5.64527 0
M  V30 6997 C 658.303 3.37377 -5.09529 0
M  V30 6998 C 659.301 3.1773 -6.04596 0
M  V30 6999 O 658.989 3.196 -7.37639 0
M  V30 7000 H 658.721 0.532815 -0.416034 0
M  V30 7001 H 661.275 1.1374 -1.71033 0
M  V30 7002 H 659.505 3.65338 -1.26747 0
M  V30 7003 H 661.194 3.69297 -1.68447 0
M  V30 7004 H 661.96 2.76192 -3.98677 0
M  V30 7005 H 657.839 3.49623 -3.00474 0
M  V30 7006 H 661.383 2.80536 -6.38706 0
M  V30 7007 H 657.28 3.54213 -5.39633 0
M  V30 7008 H 658.048 3.35887 -7.46406 0
M  V30 7009 N 660.711 1.11618 1.11262 0
M  V30 7010 C 661.641 0.79846 2.19424 0
M  V30 7011 C 662.622 -0.234003 1.68483 0
M  V30 7012 O 663.807 -0.0970704 1.93957 0
M  V30 7013 C 660.937 0.242892 3.4645 0
M  V30 7014 C 659.891 1.20744 4.10615 0
M  V30 7015 C 659.217 0.512494 5.32238 0
M  V30 7016 C 660.517 2.55884 4.55325 0
M  V30 7017 H 662.211 1.70286 2.46258 0
M  V30 7018 H 659.757 0.820195 1.18359 0
M  V30 7019 H 661.71 0.00840447 4.21399 0
M  V30 7020 H 660.434 -0.696811 3.1908 0
M  V30 7021 H 659.093 1.42759 3.37662 0
M  V30 7022 H 658.741 -0.432075 5.01141 0
M  V30 7023 H 658.441 1.15583 5.7612 0
M  V30 7024 H 659.965 0.286842 6.09926 0
M  V30 7025 H 661.379 2.37946 5.21588 0
M  V30 7026 H 659.776 3.16216 5.10027 0
M  V30 7027 H 660.846 3.14968 3.68678 0
M  V30 7028 N 662.189 -1.289 0.906776 0
M  V30 7029 C 663.152 -2.25777 0.394656 0
M  V30 7030 C 664.152 -1.53621 -0.475119 0
M  V30 7031 O 665.342 -1.71949 -0.279165 0
M  V30 7032 C 662.474 -3.38113 -0.43499 0
M  V30 7033 H 663.667 -2.72592 1.25033 0
M  V30 7034 H 661.22 -1.40463 0.685547 0
M  V30 7035 H 661.955 -2.96648 -1.31036 0
M  V30 7036 H 661.74 -3.91647 0.188334 0
M  V30 7037 H 663.23 -4.10168 -0.784365 0
M  V30 7038 N 663.667 -0.670007 -1.42649 0
M  V30 7039 C 664.892 -0.196955 -2.06463 0
M  V30 7040 C 665.317 1.1352 -1.49983 0
M  V30 7041 O 664.675 1.705 -0.616397 0
M  V30 7042 C 664.723 -0.137381 -3.60338 0
M  V30 7043 O 663.827 0.895523 -4.02559 0
M  V30 7044 H 663.168 -0.102579 -0.656029 0
M  V30 7045 H 665.698 -0.917669 -1.82866 0
M  V30 7046 H 665.708 0.0403625 -4.0798 0
M  V30 7047 H 664.383 -1.10977 -4.0082 0
M  V30 7048 H 662.96 0.689209 -3.66476 0
M  V30 7049 N 665.145 1.52092 -0.413018 0
M  V30 7050 C 666.393 2.01456 0.161178 0
M  V30 7051 C 666.714 1.30034 1.45314 0
M  V30 7052 O 665.984 0.427435 1.9118 0
M  V30 7053 H 664.564 0.744376 0.0625526 0
M  V30 7054 H 667.226 1.86974 -0.550151 0
M  V30 7055 H 666.322 3.1008 0.354517 0
M  V30 7056 N 666.623 0.143563 1.56945 0
M  V30 7057 C 667.9 -0.553285 1.87612 0
M  V30 7058 C 668.28 -1.83195 1.04894 0
M  V30 7059 O 667.628 -2.28102 0.134773 0
M  V30 7060 C 667.838 -0.822055 3.3918 0
M  V30 7061 C 669.186 -1.16435 4.08324 0
M  V30 7062 O 670.21 -0.911522 3.4434 0
M  V30 7063 O 669.069 -1.63996 5.21313 0
M  V30 7064 H 666.163 -0.281851 0.777489 0
M  V30 7065 H 668.709 0.179916 1.68744 0
M  V30 7066 H 667.481 0.0830265 3.91212 0
M  V30 7067 H 667.104 -1.60956 3.63564 0
M  V30 7068 N 668.101 -1.57061 -0.130224 0
M  V30 7069 C 669.033 -1.96147 -1.18571 0
M  V30 7070 C 670.046 -0.859347 -1.38272 0
M  V30 7071 O 671.235 -1.13769 -1.37545 0
M  V30 7072 C 668.335 -2.23484 -2.54771 0
M  V30 7073 C 667.508 -3.54786 -2.55824 0
M  V30 7074 C 666.567 -3.70467 -3.73686 0
M  V30 7075 O 665.593 -4.42693 -3.57787 0
M  V30 7076 N 666.795 -3.08389 -4.91809 0
M  V30 7077 H 669.56 -2.87295 -0.853333 0
M  V30 7078 H 667.121 -1.58714 -0.319621 0
M  V30 7079 H 669.113 -2.312 -3.32158 0
M  V30 7080 H 667.683 -1.38518 -2.80235 0
M  V30 7081 H 666.903 -3.5836 -1.64232 0
M  V30 7082 H 668.191 -4.4111 -2.53573 0
M  V30 7083 H 667.589 -2.49656 -5.0763 0
M  V30 7084 H 666.146 -3.21642 -5.66912 0
M  V30 7085 N 669.579 0.400081 -1.52437 0
M  V30 7086 C 670.99 0.97851 -1.59003 0
M  V30 7087 C 671.341 1.91293 -0.436068 0
M  V30 7088 O 670.466 2.1183 0.442365 0
M  V30 7089 C 671.061 1.78145 -2.88184 0
M  V30 7090 C 669.62 2.30976 -2.97199 0
M  V30 7091 C 668.767 1.11212 -2.54022 0
M  V30 7092 H 671.718 0.180002 -1.57676 0
M  V30 7093 H 671.739 2.63968 -2.74046 0
M  V30 7094 H 671.251 1.1011 -3.72152 0
M  V30 7095 H 669.352 3.02355 -2.17744 0
M  V30 7096 H 669.465 2.61221 -4.01622 0
M  V30 7097 H 667.829 1.46882 -2.08081 0
M  V30 7098 H 668.612 0.447307 -3.40373 0
M  V30 7099 N 671.057 1.43213 0.657864 0
M  V30 7100 C 671.987 1.50815 1.78262 0
M  V30 7101 C 672.968 0.363211 1.66177 0
M  V30 7102 O 674.153 0.579806 1.85343 0
M  V30 7103 C 671.283 1.42625 3.16663 0
M  V30 7104 C 670.237 2.5532 3.43505 0
M  V30 7105 C 669.563 2.32184 4.81658 0
M  V30 7106 C 670.863 3.97583 3.38711 0
M  V30 7107 H 672.557 2.44954 1.72157 0
M  V30 7108 H 670.103 1.17896 0.82683 0
M  V30 7109 H 672.056 1.46548 3.95097 0
M  V30 7110 H 670.78 0.449877 3.23487 0
M  V30 7111 H 669.439 2.50742 2.6744 0
M  V30 7112 H 669.087 1.32801 4.85153 0
M  V30 7113 H 668.787 3.07724 5.00579 0
M  V30 7114 H 670.311 2.37883 5.62356 0
M  V30 7115 H 671.725 4.03673 4.07089 0
M  V30 7116 H 670.122 4.73112 3.69168 0
M  V30 7117 H 671.192 4.23049 2.36976 0
M  V30 7118 N 672.536 -0.895792 1.29666 0
M  V30 7119 C 673.446 -2.03329 1.17024 0
M  V30 7120 C 674.462 -1.73753 0.0925962 0
M  V30 7121 O 675.638 -1.99071 0.305431 0
M  V30 7122 C 672.703 -3.36072 0.851841 0
M  V30 7123 C 671.764 -3.7914 2.01373 0
M  V30 7124 C 670.997 -5.05549 1.71043 0
M  V30 7125 O 671.22 -5.66874 0.633213 0
M  V30 7126 O 670.154 -5.44764 2.5596 0
M  V30 7127 H 673.98 -2.16918 2.12556 0
M  V30 7128 H 671.565 -1.02007 1.09156 0
M  V30 7129 H 673.447 -4.15729 0.689006 0
M  V30 7130 H 672.122 -3.23616 -0.0736634 0
M  V30 7131 H 671.029 -3.00233 2.23183 0
M  V30 7132 H 672.362 -3.96186 2.92058 0
M  V30 7133 N 674.014 -1.12206 -1.10668 0
M  V30 7134 C 675.43 -0.857619 -1.346 0
M  V30 7135 C 675.63 0.513542 -1.94846 0
M  V30 7136 O 674.686 1.26273 -2.18658 0
M  V30 7137 C 675.999 -1.97212 -2.26998 0
M  V30 7138 C 677.547 -2.00272 -2.40542 0
M  V30 7139 C 678.022 -3.10948 -3.36267 0
M  V30 7140 N 679.513 -3.10375 -3.43834 0
M  V30 7141 C 680.248 -3.92651 -4.17867 0
M  V30 7142 N 679.744 -4.84911 -4.94807 0
M  V30 7143 N 681.537 -3.80798 -4.1346 0
M  V30 7144 H 673.688 -2.00558 -0.699306 0
M  V30 7145 H 675.951 -0.872612 -0.370477 0
M  V30 7146 H 675.657 -2.96002 -1.89936 0
M  V30 7147 H 675.531 -1.87521 -3.27286 0
M  V30 7148 H 677.918 -1.02103 -2.76874 0
M  V30 7149 H 677.999 -2.14037 -1.40077 0
M  V30 7150 H 677.643 -4.09348 -3.00661 0
M  V30 7151 H 677.573 -2.94421 -4.36605 0
M  V30 7152 H 680.064 -2.43536 -2.88961 0
M  V30 7153 H 680.377 -5.44207 -5.48688 0
M  V30 7154 H 678.722 -4.88926 -4.93939 0
M  V30 7155 H 681.913 -3.08058 -3.52445 0
M  V30 7156 H 682.086 -4.4515 -4.70898 0
M  V30 7157 N 675.492 1.28418 -0.913599 0
M  V30 7158 C 676.455 2.25564 -0.406624 0
M  V30 7159 C 677.455 1.5387 0.466965 0
M  V30 7160 O 678.645 1.72094 0.270042 0
M  V30 7161 C 675.777 3.38339 0.417053 0
M  V30 7162 H 676.97 2.71926 -1.26477 0
M  V30 7163 H 674.523 1.40098 -0.692986 0
M  V30 7164 H 675.258 2.97339 1.29461 0
M  V30 7165 H 675.043 3.91542 -0.209102 0
M  V30 7166 H 676.533 4.10578 0.762602 0
M  V30 7167 N 676.97 0.677563 1.42291 0
M  V30 7168 C 678.198 0.209459 2.05837 0
M  V30 7169 C 678.613 -1.13444 1.50917 0
M  V30 7170 O 677.97 -1.70529 0.65008 0
M  V30 7171 C 678.021 0.138819 3.61233 0
M  V30 7172 O 677.742 1.42962 4.14118 0
M  V30 7173 C 679.243 -0.352449 4.41897 0
M  V30 7174 H 676.463 0.101209 0.663323 0
M  V30 7175 H 679.007 0.925077 1.8238 0
M  V30 7176 H 677.162 -0.527505 3.83792 0
M  V30 7177 H 677.576 1.3048 5.08011 0
M  V30 7178 H 679.05 -0.350778 5.50884 0
M  V30 7179 H 679.527 -1.3882 4.16684 0
M  V30 7180 H 680.133 0.282236 4.24362 0
M  V30 7181 N 678.448 -1.51871 0.421078 0
M  V30 7182 C 679.696 -2.01539 -0.150492 0
M  V30 7183 C 680.017 -1.30803 -1.44623 0
M  V30 7184 O 679.287 -0.437568 -1.90951 0
M  V30 7185 H 677.867 -0.744698 -0.0586041 0
M  V30 7186 H 680.529 -1.8668 0.560059 0
M  V30 7187 H 679.625 -3.10264 -0.338068 0
M  V30 7188 N 679.926 -0.151884 -1.56866 0
M  V30 7189 C 680.836 0.798876 -2.20579 0
M  V30 7190 C 681.852 1.268 -1.19154 0
M  V30 7191 O 683.028 1.32418 -1.51748 0
M  V30 7192 C 680.093 2.01861 -2.81874 0
M  V30 7193 C 679.154 1.59825 -3.9844 0
M  V30 7194 C 678.387 2.75984 -4.56802 0
M  V30 7195 O 678.61 3.92331 -4.14044 0
M  V30 7196 O 677.544 2.51175 -5.46987 0
M  V30 7197 H 681.37 0.2865 -3.02346 0
M  V30 7198 H 678.955 0.0753806 -1.4921 0
M  V30 7199 H 680.837 2.73235 -3.20813 0
M  V30 7200 H 679.512 2.52042 -2.03117 0
M  V30 7201 H 678.419 0.854601 -3.64208 0
M  V30 7202 H 679.752 1.14355 -4.78731 0
M  V30 7203 N 681.404 1.57128 0.121893 0
M  V30 7204 C 682.354 1.96556 1.15541 0
M  V30 7205 C 683.338 0.840147 1.37224 0
M  V30 7206 O 684.53 1.10382 1.38365 0
M  V30 7207 C 681.659 2.37097 2.48274 0
M  V30 7208 C 680.745 3.56265 2.30078 0
M  V30 7209 N 681.136 4.72041 1.81688 0
M  V30 7210 C 679.434 3.61841 2.60744 0
M  V30 7211 C 680.135 5.54075 1.77132 0
M  V30 7212 N 679.111 4.96483 2.21371 0
M  V30 7213 H 682.913 2.83531 0.77378 0
M  V30 7214 H 680.427 1.59019 0.329672 0
M  V30 7215 H 682.424 2.6356 3.2302 0
M  V30 7216 H 681.084 1.51486 2.87197 0
M  V30 7217 H 682.095 4.95313 1.51278 0
M  V30 7218 H 678.772 2.8683 3.03373 0
M  V30 7219 H 680.162 6.56939 1.40998 0
M  V30 7220 N 682.882 -0.391992 1.52647 0
M  V30 7221 C 683.845 -1.46135 1.7657 0
M  V30 7222 C 684.845 -1.47701 0.635698 0
M  V30 7223 O 686.035 -1.48924 0.903728 0
M  V30 7224 C 683.167 -2.85443 1.86374 0
M  V30 7225 H 684.36 -1.26208 2.72051 0
M  V30 7226 H 681.913 -0.623549 1.43323 0
M  V30 7227 H 682.648 -3.10718 0.928685 0
M  V30 7228 H 682.433 -2.85708 2.68539 0
M  V30 7229 H 683.923 -3.62933 2.06566 0
M  V30 7230 N 684.36 -1.4356 -0.65026 0
M  V30 7231 C 685.585 -1.48995 -1.44275 0
M  V30 7232 C 686.01 -0.109954 -1.87778 0
M  V30 7233 O 685.368 0.896926 -1.57559 0
M  V30 7234 C 685.416 -2.44341 -2.65198 0
M  V30 7235 O 684.52 -1.93172 -3.6436 0
M  V30 7236 H 683.861 -0.503852 -0.432469 0
M  V30 7237 H 686.391 -1.88504 -0.795446 0
M  V30 7238 H 686.401 -2.61743 -3.12977 0
M  V30 7239 H 685.076 -3.44588 -2.32877 0
M  V30 7240 H 683.653 -1.85445 -3.23519 0
M  V30 7241 N 685.838 0.888903 -1.30139 0
M  V30 7242 C 686.771 1.99655 -1.10514 0
M  V30 7243 C 687.749 1.62594 -0.0138934 0
M  V30 7244 O 688.933 1.87762 -0.166689 0
M  V30 7245 C 686.06 3.31708 -0.684655 0
M  V30 7246 C 685.106 3.87755 -1.77619 0
M  V30 7247 S 685.939 4.15532 -3.37777 0
M  V30 7248 C 687.095 5.5061 -2.97622 0
M  V30 7249 H 687.328 2.15996 -2.04287 0
M  V30 7250 H 684.861 1.03682 -1.14409 0
M  V30 7251 H 686.819 4.08039 -0.448782 0
M  V30 7252 H 685.48 3.1323 0.233648 0
M  V30 7253 H 684.673 4.83164 -1.43417 0
M  V30 7254 H 684.275 3.18149 -1.96614 0
M  V30 7255 H 686.567 6.31518 -2.45338 0
M  V30 7256 H 687.51 5.89747 -3.91924 0
M  V30 7257 H 687.918 5.12983 -2.35603 0
M  V30 7258 N 687.317 1.12792 1.10072 0
M  V30 7259 C 688.267 0.768086 2.14673 0
M  V30 7260 C 689.251 -0.234716 1.59179 0
M  V30 7261 O 690.443 -0.039643 1.76956 0
M  V30 7262 C 687.572 0.228472 3.42539 0
M  V30 7263 C 686.658 1.25979 4.04957 0
M  V30 7264 N 687.049 2.4586 4.42025 0
M  V30 7265 C 685.347 1.10602 4.32069 0
M  V30 7266 C 686.048 3.11747 4.9111 0
M  V30 7267 N 685.024 2.39185 4.88151 0
M  V30 7268 H 688.826 1.68029 2.4113 0
M  V30 7269 H 686.34 1.00925 1.27232 0
M  V30 7270 H 688.337 -0.0475216 4.16873 0
M  V30 7271 H 686.997 -0.678136 3.1754 0
M  V30 7272 H 688.008 2.83215 4.33601 0
M  V30 7273 H 684.685 0.257021 4.16708 0
M  V30 7274 H 686.075 4.13862 5.29309 0
M  V30 7275 N 688.795 -1.27931 0.920396 0
M  V30 7276 C 689.705 -2.30824 0.419212 0
M  V30 7277 C 690.721 -1.66767 -0.496461 0
M  V30 7278 O 691.897 -1.97763 -0.38104 0
M  V30 7279 C 688.962 -3.45158 -0.326601 0
M  V30 7280 C 688.023 -4.24754 0.623098 0
M  V30 7281 C 687.256 -5.33629 -0.0872172 0
M  V30 7282 O 687.479 -5.55204 -1.30784 0
M  V30 7283 O 686.413 -5.99091 0.580875 0
M  V30 7284 H 690.239 -2.75716 1.27337 0
M  V30 7285 H 687.824 -1.32747 0.685465 0
M  V30 7286 H 689.706 -4.14716 -0.747559 0
M  V30 7287 H 688.381 -3.02336 -1.15648 0
M  V30 7288 H 687.288 -3.57759 1.09359 0
M  V30 7289 H 688.621 -4.71272 1.41998 0
M  V30 7290 N 690.273 -0.685099 -1.4193 0
M  V30 7291 C 691.503 -0.220052 -2.05425 0
M  V30 7292 C 691.911 1.13185 -1.51611 0
M  V30 7293 O 691.254 1.71631 -0.654875 0
M  V30 7294 C 691.316 -0.0888364 -3.5939 0
M  V30 7295 C 690.98 -1.37109 -4.35947 0
M  V30 7296 C 691.977 -2.30675 -4.65924 0
M  V30 7297 C 689.662 -1.62155 -4.75406 0
M  V30 7298 C 691.656 -3.47556 -5.34306 0
M  V30 7299 C 689.343 -2.79324 -5.43527 0
M  V30 7300 C 690.341 -3.71848 -5.72903 0
M  V30 7301 O 690.029 -4.86966 -6.39624 0
M  V30 7302 H 689.761 -0.102165 -0.668235 0
M  V30 7303 H 692.315 -0.935194 -1.82875 0
M  V30 7304 H 690.545 0.681981 -3.80639 0
M  V30 7305 H 692.234 0.337669 -4.04493 0
M  V30 7306 H 693 -2.12579 -4.3593 0
M  V30 7307 H 688.879 -0.910053 -4.51928 0
M  V30 7308 H 692.423 -4.19794 -5.57153 0
M  V30 7309 H 688.32 -2.97342 -5.72938 0
M  V30 7310 H 689.088 -4.86644 -6.58118 0
M  V30 7311 N 691.751 1.51645 -0.429126 0
M  V30 7312 C 693.162 1.86665 0.0359003 0
M  V30 7313 C 693.513 1.34677 1.42676 0
M  V30 7314 O 692.638 0.694195 2.04963 0
M  V30 7315 C 693.233 3.38724 0.0719221 0
M  V30 7316 C 691.792 3.7331 0.481336 0
M  V30 7317 C 690.939 2.75313 -0.331329 0
M  V30 7318 H 693.89 1.44987 -0.645333 0
M  V30 7319 H 693.911 3.7011 0.883118 0
M  V30 7320 H 693.423 3.76532 -0.940495 0
M  V30 7321 H 691.524 3.41088 1.49966 0
M  V30 7322 H 691.637 4.78631 0.211837 0
M  V30 7323 H 690.001 2.53839 0.209204 0
M  V30 7324 H 690.784 3.15963 -1.34247 0
M  V30 7325 N 693.229 0.160201 1.56784 0
M  V30 7326 C 694.477 -0.486625 1.96154 0
M  V30 7327 C 694.798 -1.64525 1.04673 0
M  V30 7328 O 694.068 -1.95586 0.110864 0
M  V30 7329 H 692.648 -0.182764 0.724297 0
M  V30 7330 H 695.31 0.238787 1.93432 0
M  V30 7331 H 694.406 -0.854025 3.00188 0
M  V30 7332 N 694.707 -1.5719 -0.113559 0
M  V30 7333 C 695.617 -2.04041 -1.15777 0
M  V30 7334 C 696.633 -0.961812 -1.45001 0
M  V30 7335 O 697.809 -1.2737 -1.56009 0
M  V30 7336 C 694.874 -2.43994 -2.46308 0
M  V30 7337 C 693.935 -3.65962 -2.24433 0
M  V30 7338 C 693.168 -4.04 -3.4874 0
M  V30 7339 O 693.391 -3.42321 -4.56259 0
M  V30 7340 O 692.325 -4.97069 -3.3942 0
M  V30 7341 H 696.151 -2.93248 -0.789899 0
M  V30 7342 H 693.736 -1.45828 -0.324748 0
M  V30 7343 H 695.618 -2.70401 -3.23204 0
M  V30 7344 H 694.293 -1.57932 -2.82558 0
M  V30 7345 H 693.2 -3.44697 -1.45377 0
M  V30 7346 H 694.533 -4.52746 -1.93084 0
M  V30 7347 N 696.185 0.383891 -1.52853 0
M  V30 7348 C 697.115 1.47559 -1.80965 0
M  V30 7349 C 698.096 1.5669 -0.661986 0
M  V30 7350 O 699.281 1.71556 -0.910072 0
M  V30 7351 C 696.411 2.85114 -1.98312 0
M  V30 7352 C 695.365 2.9082 -3.14019 0
M  V30 7353 C 694.691 4.30873 -3.16627 0
M  V30 7354 C 695.991 2.60001 -4.52986 0
M  V30 7355 H 697.685 1.24283 -2.72386 0
M  V30 7356 H 695.231 0.596445 -1.31067 0
M  V30 7357 H 697.184 3.61496 -2.16561 0
M  V30 7358 H 695.908 3.09738 -1.03585 0
M  V30 7359 H 694.567 2.16886 -2.9556 0
M  V30 7360 H 694.215 4.52545 -2.19573 0
M  V30 7361 H 693.915 4.3561 -3.94357 0
M  V30 7362 H 695.439 5.09154 -3.37038 0
M  V30 7363 H 696.853 3.261 -4.71521 0
M  V30 7364 H 695.25 2.76081 -5.32822 0
M  V30 7365 H 696.32 1.5532 -4.59351 0
M  V30 7366 N 697.663 1.43903 0.642637 0
M  V30 7367 C 698.911 1.45791 1.39962 0
M  V30 7368 C 699.232 0.0873144 1.94804 0
M  V30 7369 O 698.502 -0.878825 1.75081 0
M  V30 7370 H 697.082 0.536797 0.519479 0
M  V30 7371 H 699.744 1.7959 0.757189 0
M  V30 7372 H 698.84 2.17665 2.2367 0
M  V30 7373 N 699.141 -0.881989 1.30609 0
M  V30 7374 C 700.073 -1.99375 1.13058 0
M  V30 7375 C 701.086 -1.62636 0.0729879 0
M  V30 7376 O 702.275 -1.75621 0.319301 0
M  V30 7377 C 699.375 -3.31536 0.702651 0
M  V30 7378 C 698.548 -3.96693 1.84265 0
M  V30 7379 C 697.607 -5.07158 1.40277 0
M  V30 7380 O 696.633 -5.28628 2.11048 0
M  V30 7381 N 697.835 -5.79808 0.283449 0
M  V30 7382 H 700.6 -2.14981 2.08814 0
M  V30 7383 H 698.161 -1.05526 1.22784 0
M  V30 7384 H 700.153 -4.02804 0.391331 0
M  V30 7385 H 698.723 -3.12175 -0.162954 0
M  V30 7386 H 697.943 -3.1856 2.32192 0
M  V30 7387 H 699.231 -4.36964 2.60653 0
M  V30 7388 H 698.629 -5.64871 -0.306189 0
M  V30 7389 H 697.186 -6.51792 0.0315985 0
M  V30 7390 N 700.619 -1.13374 -1.09472 0
M  V30 7391 C 702.03 -0.90801 -1.63132 0
M  V30 7392 C 702.381 0.555576 -1.8817 0
M  V30 7393 O 701.506 1.42218 -1.63104 0
M  V30 7394 C 702.101 -1.64182 -2.96361 0
M  V30 7395 C 700.66 -1.46197 -3.46848 0
M  V30 7396 C 699.807 -1.67134 -2.21273 0
M  V30 7397 H 702.758 -1.2871 -0.928411 0
M  V30 7398 H 702.779 -1.09863 -3.64294 0
M  V30 7399 H 702.291 -2.707 -2.78106 0
M  V30 7400 H 700.392 -0.419788 -3.70228 0
M  V30 7401 H 700.505 -2.22472 -4.24315 0
M  V30 7402 H 698.869 -1.09616 -2.29905 0
M  V30 7403 H 699.652 -2.74971 -2.05538 0
M  V30 7404 N 702.098 1.27442 -0.927168 0
M  V30 7405 C 703.509 1.76385 -0.611979 0
M  V30 7406 C 703.86 1.75715 0.872853 0
M  V30 7407 O 702.985 1.3603 1.683 0
M  V30 7408 C 703.58 3.20303 -1.10414 0
M  V30 7409 C 702.139 3.66916 -0.839628 0
M  V30 7410 C 701.286 2.46859 -1.26317 0
M  V30 7411 H 704.237 1.13716 -1.107 0
M  V30 7412 H 704.258 3.77811 -0.451578 0
M  V30 7413 H 703.77 3.20759 -2.18484 0
M  V30 7414 H 701.871 3.71906 0.227292 0
M  V30 7415 H 701.984 4.56415 -1.45679 0
M  V30 7416 H 700.348 2.45407 -0.681723 0
M  V30 7417 H 701.131 2.50025 -2.3525 0
M  V30 7418 N 703.576 0.692616 1.41565 0
M  V30 7419 C 704.824 0.221896 2.00878 0
M  V30 7420 C 705.145 -1.18164 1.5512 0
M  V30 7421 O 704.415 -1.79679 0.78054 0
M  V30 7422 H 702.995 0.0790463 0.742806 0
M  V30 7423 H 705.657 0.893115 1.73232 0
M  V30 7424 H 704.753 0.23702 3.11199 0
M  V30 7425 N 705.054 -1.51416 0.437162 0
M  V30 7426 C 705.984 -2.30631 -0.364922 0
M  V30 7427 C 706.965 -1.36037 -1.02118 0
M  V30 7428 O 708.15 -1.64956 -1.02485 0
M  V30 7429 C 705.28 -3.1482 -1.46648 0
M  V30 7430 C 704.234 -4.17691 -0.933717 0
M  V30 7431 C 703.56 -4.904 -2.13101 0
M  V30 7432 C 704.86 -5.2229 0.0317201 0
M  V30 7433 H 706.554 -2.97932 0.29614 0
M  V30 7434 H 704.1 -1.4328 0.143865 0
M  V30 7435 H 706.053 -3.69017 -2.03481 0
M  V30 7436 H 704.777 -2.4534 -2.15583 0
M  V30 7437 H 703.436 -3.64545 -0.387602 0
M  V30 7438 H 703.084 -4.17423 -2.80654 0
M  V30 7439 H 702.784 -5.59962 -1.78092 0
M  V30 7440 H 704.308 -5.4742 -2.70487 0
M  V30 7441 H 705.722 -5.7156 -0.446302 0
M  V30 7442 H 704.119 -5.99378 0.29437 0
M  V30 7443 H 705.189 -4.75131 0.968447 0
M  V30 7444 N 706.532 -0.168513 -1.56696 0
M  V30 7445 C 707.762 0.482802 -2.0088 0
M  V30 7446 C 708.17 1.57537 -1.0478 0
M  V30 7447 O 707.513 1.83656 -0.0402746 0
M  V30 7448 C 707.575 1.1236 -3.4149 0
M  V30 7449 C 707.239 0.173027 -4.56672 0
M  V30 7450 C 708.236 -0.607565 -5.16338 0
M  V30 7451 C 705.921 0.0696691 -5.02252 0
M  V30 7452 C 707.915 -1.47874 -6.2001 0
M  V30 7453 C 705.602 -0.805096 -6.05773 0
M  V30 7454 C 706.6 -1.57789 -6.64524 0
M  V30 7455 O 706.288 -2.43804 -7.66038 0
M  V30 7456 H 706.02 0.128246 -0.663723 0
M  V30 7457 H 708.574 -0.266532 -2.03663 0
M  V30 7458 H 706.804 1.921 -3.35611 0
M  V30 7459 H 708.493 1.67683 -3.69645 0
M  V30 7460 H 709.259 -0.53787 -4.82008 0
M  V30 7461 H 705.138 0.660957 -4.56237 0
M  V30 7462 H 708.682 -2.0824 -6.65794 0
M  V30 7463 H 704.579 -0.876005 -6.39528 0
M  V30 7464 H 705.347 -2.37289 -7.83349 0
M  V30 7465 N 708.01 1.57248 0.105221 0
M  V30 7466 C 709.421 1.74612 0.660865 0
M  V30 7467 C 709.772 0.789231 1.79626 0
M  V30 7468 O 708.897 -0.0346611 2.16372 0
M  V30 7469 C 709.492 3.16624 1.20559 0
M  V30 7470 C 708.051 3.35447 1.7074 0
M  V30 7471 C 707.198 2.70445 0.612764 0
M  V30 7472 H 710.149 1.5824 -0.12079 0
M  V30 7473 H 710.17 3.18937 2.07508 0
M  V30 7474 H 709.682 3.86245 0.379012 0
M  V30 7475 H 707.783 2.7089 2.5583 0
M  V30 7476 H 707.896 4.43702 1.80736 0
M  V30 7477 H 706.26 2.32061 1.04975 0
M  V30 7478 H 707.043 3.42699 -0.203066 0
M  V30 7479 N 709.488 -0.375779 1.53054 0
M  V30 7480 C 710.713 -1.14484 1.7294 0
M  V30 7481 C 711.138 -1.82572 0.452668 0
M  V30 7482 O 710.496 -1.71343 -0.592567 0
M  V30 7483 C 710.544 -2.15857 2.88857 0
M  V30 7484 O 709.648 -3.22725 2.56753 0
M  V30 7485 H 708.989 -0.332666 0.574656 0
M  V30 7486 H 711.519 -0.436025 1.999 0
M  V30 7487 H 711.529 -2.59631 3.14731 0
M  V30 7488 H 710.204 -1.65689 3.81471 0
M  V30 7489 H 708.781 -2.83996 2.41663 0
M  V30 7490 N 710.966 -1.44241 -0.634997 0
M  V30 7491 C 712.191 -1.50516 -1.42687 0
M  V30 7492 C 712.616 -0.129864 -1.87651 0
M  V30 7493 O 711.974 0.880164 -1.58502 0
M  V30 7494 C 712.022 -2.4714 -2.62591 0
M  V30 7495 O 711.126 -1.97025 -3.62291 0
M  V30 7496 H 710.467 -0.50841 -0.427101 0
M  V30 7497 H 712.997 -1.89337 -0.775408 0
M  V30 7498 H 713.007 -2.65048 -3.10183 0
M  V30 7499 H 711.682 -3.47039 -2.29209 0
M  V30 7500 H 710.259 -1.88866 -3.21534 0
M  V30 7501 N 712.444 0.87505 -1.31075 0
M  V30 7502 C 713.394 1.96933 -1.14898 0
M  V30 7503 C 714.378 1.60783 -0.0613703 0
M  V30 7504 O 715.57 1.74678 -0.285751 0
M  V30 7505 C 712.699 3.3253 -0.853166 0
M  V30 7506 C 711.785 3.74963 -1.98151 0
M  V30 7507 N 712.176 3.89403 -3.22799 0
M  V30 7508 C 710.474 4.04436 -1.8801 0
M  V30 7509 C 711.175 4.25563 -3.96574 0
M  V30 7510 N 710.151 4.3597 -3.24701 0
M  V30 7511 H 713.953 2.06201 -2.09424 0
M  V30 7512 H 711.467 1.06551 -1.22558 0
M  V30 7513 H 713.464 4.10666 -0.718266 0
M  V30 7514 H 712.124 3.24592 0.0839218 0
M  V30 7515 H 713.135 3.74266 -3.57974 0
M  V30 7516 H 709.812 4.04915 -1.01733 0
M  V30 7517 H 711.202 4.44375 -5.03965 0
M  V30 7518 N 713.922 1.13953 1.08869 0
M  V30 7519 C 715.333 0.916649 1.62648 0
M  V30 7520 C 715.684 -0.545589 1.88462 0
M  V30 7521 O 714.809 -1.41351 1.63856 0
M  V30 7522 C 715.404 1.65751 2.95486 0
M  V30 7523 C 713.963 1.48034 3.46068 0
M  V30 7524 C 713.11 1.68305 2.20383 0
M  V30 7525 H 716.061 1.292 0.921572 0
M  V30 7526 H 716.082 1.11794 3.63707 0
M  V30 7527 H 715.594 2.72171 2.76667 0
M  V30 7528 H 713.695 0.439416 3.7 0
M  V30 7529 H 713.808 2.24719 4.23129 0
M  V30 7530 H 712.172 1.10833 2.29321 0
M  V30 7531 H 712.955 2.76057 2.04077 0
M  V30 7532 N 715.4 -1.26948 0.933913 0
M  V30 7533 C 716.811 -1.76058 0.621324 0
M  V30 7534 C 717.162 -1.76175 -0.863522 0
M  V30 7535 O 716.287 -1.36921 -1.67576 0
M  V30 7536 C 716.882 -3.19713 1.12111 0
M  V30 7537 C 715.441 -3.66465 0.859074 0
M  V30 7538 C 714.588 -2.46186 1.27624 0
M  V30 7539 H 717.539 -1.13127 1.11301 0
M  V30 7540 H 717.56 -3.77566 0.471608 0
M  V30 7541 H 717.072 -3.19596 2.20182 0
M  V30 7542 H 715.173 -3.72021 -0.207566 0
M  V30 7543 H 715.286 -4.55636 1.48098 0
M  V30 7544 H 713.65 -2.45042 0.694727 0
M  V30 7545 H 714.433 -2.48774 2.36572 0
M  V30 7546 N 716.879 -0.700114 -1.41195 0
M  V30 7547 C 718.127 -0.232546 -2.00758 0
M  V30 7548 C 718.448 1.1734 -1.55745 0
M  V30 7549 O 717.718 1.79262 -0.790058 0
M  V30 7550 H 716.298 -0.0829845 -0.742376 0
M  V30 7551 H 718.96 -0.902289 -1.72756 0
M  V30 7552 H 718.056 -0.253521 -3.11069 0
M  V30 7553 N 718.357 1.51182 -0.445186 0
M  V30 7554 C 719.773 1.59299 -0.0978954 0
M  V30 7555 C 719.973 1.4555 1.39346 0
M  V30 7556 O 719.029 1.30073 2.16419 0
M  V30 7557 C 720.342 2.94133 -0.625005 0
M  V30 7558 C 721.89 3.07463 -0.586137 0
M  V30 7559 C 722.365 4.44832 -1.09035 0
M  V30 7560 N 723.856 4.51173 -1.04867 0
M  V30 7561 C 724.591 5.55804 -1.40959 0
M  V30 7562 N 724.087 6.67816 -1.84375 0
M  V30 7563 N 725.88 5.46205 -1.32726 0
M  V30 7564 H 718.031 1.58363 -1.41544 0
M  V30 7565 H 720.294 0.746946 -0.58376 0
M  V30 7566 H 720 3.09589 -1.66876 0
M  V30 7567 H 719.874 3.77161 -0.0542262 0
M  V30 7568 H 722.261 2.9167 0.448646 0
M  V30 7569 H 722.342 2.26255 -1.19341 0
M  V30 7570 H 721.986 4.61372 -2.12364 0
M  V30 7571 H 721.916 5.24591 -0.459539 0
M  V30 7572 H 724.407 3.70783 -0.729932 0
M  V30 7573 H 724.72 7.43683 -2.10131 0
M  V30 7574 H 723.065 6.69003 -1.88308 0
M  V30 7575 H 726.256 4.57583 -0.986678 0
M  V30 7576 H 726.429 6.27634 -1.61182 0
M  V30 7577 N 719.835 0.176821 1.56605 0
M  V30 7578 C 720.798 -0.737429 2.17013 0
M  V30 7579 C 721.798 -1.15414 1.11965 0
M  V30 7580 O 722.988 -1.0702 1.37449 0
M  V30 7581 C 720.12 -2.00445 2.75744 0
M  V30 7582 H 721.313 -0.211455 2.99154 0
M  V30 7583 H 718.866 -0.0727582 1.56131 0
M  V30 7584 H 719.601 -2.57338 1.97352 0
M  V30 7585 H 719.386 -1.71456 3.52626 0
M  V30 7586 H 720.876 -2.65679 3.22187 0
M  V30 7587 N 721.313 -1.57302 -0.09688 0
M  V30 7588 C 722.561 -1.8563 -0.799117 0
M  V30 7589 C 722.882 -0.765263 -1.79356 0
M  V30 7590 O 722.152 0.208657 -1.94786 0
M  V30 7591 H 720.732 -0.684937 -0.298111 0
M  V30 7592 H 723.394 -1.9474 -0.0789341 0
M  V30 7593 H 722.49 -2.82305 -1.3308 0
M  V30 7594 N 722.791 0.367657 -1.53252 0
M  V30 7595 C 724.019 1.13119 -1.73239 0
M  V30 7596 C 724.434 1.831 -0.460404 0
M  V30 7597 O 723.791 1.73483 0.566557 0
M  V30 7598 C 723.842 2.16308 -2.89643 0
M  V30 7599 O 723.563 1.49175 -4.1192 0
M  V30 7600 C 725.064 3.05224 -3.21486 0
M  V30 7601 H 722.284 0.338318 -0.579467 0
M  V30 7602 H 724.828 0.42721 -1.99988 0
M  V30 7603 H 722.983 2.82307 -2.65295 0
M  V30 7604 H 723.397 2.17912 -4.7709 0
M  V30 7605 H 724.871 3.73613 -4.06346 0
M  V30 7606 H 725.348 3.69919 -2.36763 0
M  V30 7607 H 725.954 2.44843 -3.47753 0
M  V30 7608 N 724.269 1.44576 0.627338 0
M  V30 7609 C 725.199 1.54562 1.75022 0
M  V30 7610 C 726.18 0.398378 1.65369 0
M  V30 7611 O 727.365 0.61899 1.84071 0
M  V30 7612 C 724.495 1.49309 3.13567 0
M  V30 7613 C 723.449 2.62549 3.38012 0
M  V30 7614 C 722.775 2.42348 4.76625 0
M  V30 7615 C 724.075 4.04678 3.30202 0
M  V30 7616 H 725.769 2.4855 1.66922 0
M  V30 7617 H 723.315 1.19624 0.801636 0
M  V30 7618 H 725.268 1.54895 3.919 0
M  V30 7619 H 723.992 0.518392 3.2246 0
M  V30 7620 H 722.651 2.56358 2.62061 0
M  V30 7621 H 722.299 1.43062 4.82226 0
M  V30 7622 H 721.999 3.18273 4.93939 0
M  V30 7623 H 723.523 2.49758 5.57183 0
M  V30 7624 H 724.937 4.12217 3.98435 0
M  V30 7625 H 723.334 4.80836 3.5905 0
M  V30 7626 H 724.404 4.2798 2.27949 0
M  V30 7627 N 725.747 -0.868086 1.31537 0
M  V30 7628 C 727.163 -1.15414 1.10235 0
M  V30 7629 C 727.363 -2.01106 -0.125947 0
M  V30 7630 O 726.419 -2.38994 -0.814734 0
M  V30 7631 C 727.732 -1.84445 2.37488 0
M  V30 7632 C 729.28 -1.97139 2.43116 0
M  V30 7633 C 729.755 -2.69585 3.70254 0
M  V30 7634 N 731.246 -2.77119 3.71159 0
M  V30 7635 C 731.981 -3.33791 4.6623 0
M  V30 7636 N 731.477 -3.9138 5.71659 0
M  V30 7637 N 733.27 -3.31767 4.53747 0
M  V30 7638 H 725.421 -0.297109 2.10312 0
M  V30 7639 H 727.684 -0.194227 0.92789 0
M  V30 7640 H 727.39 -1.2893 3.27215 0
M  V30 7641 H 727.264 -2.84709 2.47428 0
M  V30 7642 H 729.651 -2.51818 1.53856 0
M  V30 7643 H 729.732 -0.95912 2.37138 0
M  V30 7644 H 729.376 -2.15572 4.59881 0
M  V30 7645 H 729.306 -3.71223 3.73499 0
M  V30 7646 H 731.797 -2.3625 2.94948 0
M  V30 7647 H 732.11 -4.3274 6.40278 0
M  V30 7648 H 730.455 -3.8975 5.7543 0
M  V30 7649 H 733.646 -2.86016 3.70557 0
M  V30 7650 H 733.819 -3.75636 5.28017 0
M  V30 7651 N 727.225 -1.14528 -1.08264 0
M  V30 7652 C 728.188 -0.83632 -2.13397 0
M  V30 7653 C 729.188 0.159715 -1.60005 0
M  V30 7654 O 730.378 -0.0688098 -1.74064 0
M  V30 7655 C 727.51 -0.246973 -3.40004 0
M  V30 7656 H 728.703 -1.76808 -2.42237 0
M  V30 7657 H 726.256 -0.951509 -1.24 0
M  V30 7658 H 726.991 0.693436 -3.168 0
M  V30 7659 H 726.776 -0.964412 -3.80055 0
M  V30 7660 H 728.266 -0.0480679 -4.17572 0
M  V30 7661 N 728.703 1.26451 -0.940633 0
M  V30 7662 C 729.633 2.28773 -0.467479 0
M  V30 7663 C 730.614 1.63218 0.478955 0
M  V30 7664 O 731.799 1.90427 0.380929 0
M  V30 7665 C 728.929 3.46259 0.268656 0
M  V30 7666 C 727.883 4.23898 -0.591171 0
M  V30 7667 C 727.209 5.33993 0.274891 0
M  V30 7668 C 728.509 4.87974 -1.86223 0
M  V30 7669 H 730.203 2.68601 -1.32265 0
M  V30 7670 H 727.749 1.29123 -0.637436 0
M  V30 7671 H 729.702 4.16951 0.610696 0
M  V30 7672 H 728.426 3.05383 1.15796 0
M  V30 7673 H 727.085 3.54969 -0.916098 0
M  V30 7674 H 726.733 4.89358 1.16353 0
M  V30 7675 H 726.433 5.86849 -0.297006 0
M  V30 7676 H 727.957 6.07523 0.612213 0
M  V30 7677 H 729.371 5.50883 -1.58747 0
M  V30 7678 H 727.768 5.50945 -2.37866 0
M  V30 7679 H 728.838 4.10945 -2.57394 0
M  V30 7680 N 730.181 0.707592 1.40822 0
M  V30 7681 C 731.406 0.251626 2.05868 0
M  V30 7682 C 731.831 -1.09503 1.5294 0
M  V30 7683 O 731.189 -1.68806 0.661385 0
M  V30 7684 C 731.237 0.23287 3.59847 0
M  V30 7685 O 730.341 -0.788477 4.04792 0
M  V30 7686 H 729.682 0.119936 0.653078 0
M  V30 7687 H 732.212 0.96583 1.80369 0
M  V30 7688 H 732.222 0.0678204 4.07944 0
M  V30 7689 H 730.897 1.21565 3.97737 0
M  V30 7690 H 729.474 -0.591802 3.68174 0
M  V30 7691 N 731.66 -1.50943 0.453197 0
M  V30 7692 C 733.076 -1.59245 0.106342 0
M  V30 7693 C 733.276 -1.46287 -1.38572 0
M  V30 7694 O 732.332 -1.31219 -2.15726 0
M  V30 7695 C 733.645 -2.93797 0.640595 0
M  V30 7696 C 735.193 -3.07148 0.602435 0
M  V30 7697 C 735.668 -4.44247 1.11393 0
M  V30 7698 N 737.159 -4.50611 1.07258 0
M  V30 7699 C 737.894 -5.55049 1.43905 0
M  V30 7700 N 737.39 -6.66828 1.87914 0
M  V30 7701 N 739.183 -5.45494 1.35621 0
M  V30 7702 H 731.334 -1.5761 1.42382 0
M  V30 7703 H 733.597 -0.74384 0.587713 0
M  V30 7704 H 733.303 -3.087 1.68515 0
M  V30 7705 H 733.177 -3.77127 0.0742272 0
M  V30 7706 H 735.564 -2.91903 -0.433171 0
M  V30 7707 H 735.645 -2.25619 1.20539 0
M  V30 7708 H 735.289 -4.60239 2.14808 0
M  V30 7709 H 735.219 -5.2434 0.487353 0
M  V30 7710 H 737.71 -3.70391 0.749585 0
M  V30 7711 H 738.023 -7.42558 2.14072 0
M  V30 7712 H 736.368 -6.67995 1.91853 0
M  V30 7713 H 739.559 -4.57053 1.01093 0
M  V30 7714 H 739.732 -6.2677 1.64508 0
M  V30 7715 N 733.138 -0.185124 -1.56509 0
M  V30 7716 C 734.07 0.771401 -2.15829 0
M  V30 7717 C 735.083 1.18392 -1.11747 0
M  V30 7718 O 736.272 1.12137 -1.38879 0
M  V30 7719 C 733.372 2.05169 -2.69739 0
M  V30 7720 C 732.545 1.80056 -3.98621 0
M  V30 7721 C 731.604 2.92435 -4.37456 0
M  V30 7722 O 730.63 2.62473 -5.05071 0
M  V30 7723 N 731.832 4.20554 -4.00143 0
M  V30 7724 H 734.597 0.264184 -2.98533 0
M  V30 7725 H 732.158 -0.00281069 -1.619 0
M  V30 7726 H 734.15 2.7947 -2.92709 0
M  V30 7727 H 732.72 2.47041 -1.91545 0
M  V30 7728 H 731.94 0.895862 -3.83885 0
M  V30 7729 H 733.228 1.60662 -4.82768 0
M  V30 7730 H 732.626 4.47753 -3.45736 0
M  V30 7731 H 731.183 4.91514 -4.28085 0
M  V30 7732 N 734.616 1.57351 0.0885366 0
M  V30 7733 C 735.893 1.77449 0.822873 0
M  V30 7734 C 736.273 0.768463 1.96616 0
M  V30 7735 O 735.621 -0.201757 2.27608 0
M  V30 7736 C 735.831 3.23425 1.31137 0
M  V30 7737 C 737.179 3.86791 1.75152 0
M  V30 7738 O 738.203 3.27215 1.40745 0
M  V30 7739 O 737.062 4.91568 2.38794 0
M  V30 7740 H 734.156 0.727653 0.393002 0
M  V30 7741 H 736.702 1.69556 0.0699095 0
M  V30 7742 H 735.474 3.88188 0.49254 0
M  V30 7743 H 735.097 3.35977 2.12615 0
M  V30 7744 N 736.094 -0.359525 1.53444 0
M  V30 7745 C 737.322 -1.12198 1.73837 0
M  V30 7746 C 737.737 -1.82854 0.470107 0
M  V30 7747 O 737.094 -1.73781 -0.557349 0
M  V30 7748 C 737.145 -2.14769 2.90786 0
M  V30 7749 O 736.866 -1.46989 4.12706 0
M  V30 7750 C 738.367 -3.03514 3.231 0
M  V30 7751 H 735.587 -0.33524 0.581253 0
M  V30 7752 H 738.131 -0.416598 2.00212 0
M  V30 7753 H 736.286 -2.80896 2.66788 0
M  V30 7754 H 736.7 -2.15378 4.78239 0
M  V30 7755 H 738.174 -3.71453 4.08322 0
M  V30 7756 H 738.651 -3.68658 2.38721 0
M  V30 7757 H 739.257 -2.42996 3.49046 0
M  V30 7758 N 737.572 -1.44907 -0.619662 0
M  V30 7759 C 738.819 -1.48292 -1.37898 0
M  V30 7760 C 739.147 -0.119933 -1.9413 0
M  V30 7761 O 738.402 0.879834 -1.74807 0
M  V30 7762 C 738.701 -2.50002 -2.55409 0
M  V30 7763 C 738.367 -3.95031 -2.17397 0
M  V30 7764 C 737.029 -4.34524 -2.06743 0
M  V30 7765 C 739.381 -4.86287 -1.87548 0
M  V30 7766 C 736.709 -5.63183 -1.64445 0
M  V30 7767 C 739.061 -6.15346 -1.4674 0
M  V30 7768 C 737.725 -6.53781 -1.34636 0
M  V30 7769 H 736.995 -0.542638 -0.504603 0
M  V30 7770 H 739.642 -1.78186 -0.701581 0
M  V30 7771 H 737.947 -2.13634 -3.28433 0
M  V30 7772 H 739.644 -2.49864 -3.13639 0
M  V30 7773 H 736.234 -3.63793 -2.26611 0
M  V30 7774 H 740.418 -4.56522 -1.94682 0
M  V30 7775 H 735.674 -5.91769 -1.53687 0
M  V30 7776 H 739.848 -6.85508 -1.22685 0
M  V30 7777 H 737.475 -7.53375 -1.01634 0
M  V30 7778 N 739.05 0.861098 -1.31996 0
M  V30 7779 C 740.327 1.59788 -1.12814 0
M  V30 7780 C 740.707 2.08753 0.313882 0
M  V30 7781 O 740.055 1.87258 1.30946 0
M  V30 7782 C 740.265 2.74901 -2.15012 0
M  V30 7783 C 741.613 3.44643 -2.48004 0
M  V30 7784 O 742.637 2.85119 -2.13508 0
M  V30 7785 O 741.496 4.52044 -3.07113 0
M  V30 7786 H 738.59 0.703408 -0.434909 0
M  V30 7787 H 741.136 0.905788 -1.43505 0
M  V30 7788 H 739.908 2.36198 -3.11971 0
M  V30 7789 H 739.531 3.51792 -1.85279 0
M  V30 7790 N 740.528 1.15101 1.07655 0
M  V30 7791 C 741.491 0.847625 2.12951 0
M  V30 7792 C 742.491 -0.151227 1.60087 0
M  V30 7793 O 743.681 0.0780399 1.74025 0
M  V30 7794 C 740.813 0.265 3.39868 0
M  V30 7795 H 742.006 1.7809 2.41296 0
M  V30 7796 H 739.559 0.958072 1.23494 0
M  V30 7797 H 740.294 -0.676625 3.17163 0
M  V30 7798 H 740.079 0.984554 3.79538 0
M  V30 7799 H 741.569 0.0702121 4.17541 0
M  V30 7800 N 742.006 -1.2595 0.947325 0
M  V30 7801 C 743.283 -1.88676 0.515824 0
M  V30 7802 C 743.663 -1.85547 -1.00675 0
M  V30 7803 O 743.011 -1.31399 -1.8694 0
M  V30 7804 C 743.221 -3.31734 1.08415 0
M  V30 7805 C 744.569 -4.08545 1.15654 0
M  V30 7806 O 745.593 -3.40826 1.03517 0
M  V30 7807 O 744.452 -5.29663 1.34608 0
M  V30 7808 H 741.546 -0.809537 0.169055 0
M  V30 7809 H 744.092 -1.34075 1.04029 0
M  V30 7810 H 742.864 -3.28404 2.1276 0
M  V30 7811 H 742.487 -3.93882 0.542499 0
M  V30 7812 N 743.484 -0.715051 -1.40445 0
M  V30 7813 C 744.712 -0.263959 -2.05209 0
M  V30 7814 C 745.127 1.09403 -1.53871 0
M  V30 7815 O 744.484 1.68746 -0.695064 0
M  V30 7816 C 744.535 -0.234545 -3.60738 0
M  V30 7817 O 744.256 -1.53891 -4.10182 0
M  V30 7818 C 745.757 0.235164 -4.42676 0
M  V30 7819 H 742.977 -0.11876 -0.660407 0
M  V30 7820 H 745.521 -0.973107 -1.79864 0
M  V30 7821 H 743.676 0.425563 -3.85055 0
M  V30 7822 H 744.09 -1.43903 -5.04373 0
M  V30 7823 H 745.564 0.204598 -5.51621 0
M  V30 7824 H 746.041 1.27724 -4.20218 0
M  V30 7825 H 746.647 -0.394649 -4.23465 0
M  V30 7826 N 744.962 1.50701 -0.461195 0
M  V30 7827 C 746.373 1.867 -0.00370227 0
M  V30 7828 C 746.724 1.37673 1.39787 0
M  V30 7829 O 745.849 0.737515 2.03445 0
M  V30 7830 C 746.444 3.388 5.75786e-05 0
M  V30 7831 C 745.003 3.74247 0.402044 0
M  V30 7832 C 744.15 2.74549 -0.389652 0
M  V30 7833 H 747.101 1.43585 -0.675942 0
M  V30 7834 H 747.122 3.719 0.804414 0
M  V30 7835 H 746.634 3.74452 -1.02015 0
M  V30 7836 H 744.735 3.44192 1.42697 0
M  V30 7837 H 744.848 4.78973 0.110265 0
M  V30 7838 H 743.212 2.54226 0.155314 0
M  V30 7839 H 743.995 3.13044 -1.40919 0
M  V30 7840 N 746.441 0.193421 1.56409 0
M  V30 7841 C 747.689 -0.444908 1.97142 0
M  V30 7842 C 748.01 -1.62268 1.08139 0
M  V30 7843 O 747.28 -1.95307 0.152326 0
M  V30 7844 H 745.86 -0.16736 0.728011 0
M  V30 7845 H 748.522 0.279763 1.92882 0
M  V30 7846 H 747.618 -0.790159 3.01932 0
M  V30 7847 N 747.919 -1.57396 -0.0801906 0
M  V30 7848 C 749.144 -1.91437 -0.797909 0
M  V30 7849 C 749.569 -0.789075 -1.70749 0
M  V30 7850 O 748.927 0.25857 -1.79447 0
M  V30 7851 C 748.975 -3.24402 -1.57467 0
M  V30 7852 O 748.079 -3.13043 -2.68473 0
M  V30 7853 H 747.42 -0.627109 -0.218243 0
M  V30 7854 H 749.95 -2.04537 -0.050949 0
M  V30 7855 H 749.96 -3.58072 -1.95571 0
M  V30 7856 H 748.635 -4.05884 -0.907229 0
M  V30 7857 H 747.212 -2.90915 -2.33287 0
M  V30 7858 N 749.397 0.351382 -1.53633 0
M  V30 7859 C 750.813 0.693987 -1.43722 0
M  V30 7860 C 751.013 1.9274 -0.587669 0
M  V30 7861 O 750.069 2.52387 -0.0756082 0
M  V30 7862 C 751.382 0.893937 -2.87105 0
M  V30 7863 C 752.93 0.993051 -2.96829 0
M  V30 7864 C 753.405 1.22537 -4.41303 0
M  V30 7865 N 754.896 1.29275 -4.44795 0
M  V30 7866 C 755.631 1.48988 -5.53706 0
M  V30 7867 N 755.127 1.65924 -6.72637 0
M  V30 7868 N 756.92 1.51472 -5.41306 0
M  V30 7869 H 749.071 -0.459688 -2.07366 0
M  V30 7870 H 751.334 -0.143684 -0.937048 0
M  V30 7871 H 751.04 0.0592517 -3.5165 0
M  V30 7872 H 750.914 1.79795 -3.31592 0
M  V30 7873 H 753.301 1.81827 -2.32429 0
M  V30 7874 H 753.382 0.0661119 -2.55715 0
M  V30 7875 H 753.026 0.405117 -5.06282 0
M  V30 7876 H 752.956 2.16575 -4.80003 0
M  V30 7877 H 755.447 1.17743 -3.59089 0
M  V30 7878 H 755.76 1.80578 -7.51406 0
M  V30 7879 H 754.105 1.63075 -6.75597 0
M  V30 7880 H 757.296 1.37818 -4.47352 0
M  V30 7881 H 757.469 1.66493 -6.26246 0
M  V30 7882 N 750.875 1.45233 0.611969 0
M  V30 7883 C 751.823 1.53898 1.74408 0
M  V30 7884 C 752.817 0.409254 1.64382 0
M  V30 7885 O 754.023 0.584988 1.70229 0
M  V30 7886 H 750.398 0.483303 0.576127 0
M  V30 7887 H 752.369 2.49143 1.64227 0
M  V30 7888 C 751.118 1.51865 3.12782 0
M  V30 7889 H 750.441 2.38118 3.21154 0
M  V30 7890 H 751.881 1.61986 3.91838 0
M  V30 7891 C 750.34 0.242374 3.36027 0
M  V30 7892 O 750.87 -0.679587 3.9591 0
M  V30 7893 N 749.076 0.139448 2.90265 0
M  V30 7894 H 748.623 0.890571 2.41716 0
M  V30 7895 H 748.581 -0.713686 3.06193 0
M  V30 7896 N 752.353 -0.854086 1.3245 0
M  V30 7897 C 753.578 -1.64597 1.26185 0
M  V30 7898 C 754.003 -1.87357 -0.167074 0
M  V30 7899 O 753.361 -1.42675 -1.11864 0
M  V30 7900 C 753.409 -2.98213 2.02734 0
M  V30 7901 O 752.513 -3.88784 1.37554 0
M  V30 7902 H 751.854 -0.50179 0.434859 0
M  V30 7903 H 754.384 -1.06372 1.74775 0
M  V30 7904 H 754.394 -3.4803 2.1293 0
M  V30 7905 H 753.069 -2.80969 3.06642 0
M  V30 7906 H 751.646 -3.4725 1.3591 0
M  V30 7907 N 753.831 -1.1567 -1.07043 0
M  V30 7908 C 754.794 -0.858906 -2.12498 0
M  V30 7909 C 755.794 0.142735 -1.60165 0
M  V30 7910 O 756.984 -0.0872678 -1.73981 0
M  V30 7911 C 754.116 -0.283021 -3.39723 0
M  V30 7912 H 755.309 -1.79368 -2.40348 0
M  V30 7913 H 752.862 -0.964608 -1.22984 0
M  V30 7914 H 753.597 0.659796 -3.17517 0
M  V30 7915 H 753.382 -1.00467 -3.7901 0
M  V30 7916 H 754.872 -0.0923543 -4.17498 0
M  V30 7917 N 755.309 1.25446 -0.953992 0
M  V30 7918 C 756.539 1.96929 -0.624688 0
M  V30 7919 C 756.947 1.71112 0.807292 0
M  V30 7920 O 756.29 0.983512 1.55154 0
M  V30 7921 C 756.352 3.50425 -0.802676 0
M  V30 7922 C 756.016 3.99916 -2.21169 0
M  V30 7923 C 757.013 4.10662 -3.18831 0
M  V30 7924 C 754.698 4.33598 -2.53571 0
M  V30 7925 C 756.692 4.54401 -4.46988 0
M  V30 7926 C 754.379 4.77024 -3.81958 0
M  V30 7927 C 755.377 4.87388 -4.78478 0
M  V30 7928 O 755.065 5.29851 -6.04577 0
M  V30 7929 H 754.797 0.634511 -0.233179 0
M  V30 7930 H 757.351 1.60591 -1.28061 0
M  V30 7931 H 755.581 3.86596 -0.0896044 0
M  V30 7932 H 757.27 4.03117 -0.47452 0
M  V30 7933 H 758.036 3.84872 -2.95124 0
M  V30 7934 H 753.915 4.24757 -1.79171 0
M  V30 7935 H 757.459 4.62406 -5.22328 0
M  V30 7936 H 753.356 5.02258 -4.05471 0
M  V30 7937 H 754.124 5.48039 -6.07944 0
M  V30 7938 N 756.787 0.722489 1.40064 0
M  V30 7939 C 758.015 0.274838 2.05066 0
M  V30 7940 C 758.43 -1.08586 1.54449 0
M  V30 7941 O 757.787 -1.68375 0.704003 0
M  V30 7942 C 757.838 0.253673 3.60609 0
M  V30 7943 O 757.559 1.56064 4.0936 0
M  V30 7944 C 759.06 -0.211684 4.42794 0
M  V30 7945 H 756.28 0.12226 0.659768 0
M  V30 7946 H 758.824 0.982632 1.79345 0
M  V30 7947 H 756.979 -0.405137 3.85276 0
M  V30 7948 H 757.393 1.46576 5.03603 0
M  V30 7949 H 758.867 -0.175341 5.51721 0
M  V30 7950 H 759.344 -1.25493 4.2089 0
M  V30 7951 H 759.95 0.4171 4.2325 0
M  V30 7952 N 758.265 -1.50454 0.469181 0
M  V30 7953 C 759.175 -2.32248 -0.331349 0
M  V30 7954 C 760.191 -1.42548 -0.997807 0
M  V30 7955 O 761.367 -1.75602 -0.9862 0
M  V30 7956 C 758.432 -3.17171 -1.40012 0
M  V30 7957 C 757.493 -4.2269 -0.750463 0
M  V30 7958 C 756.726 -5.03554 -1.76831 0
M  V30 7959 O 756.949 -4.85469 -2.99459 0
M  V30 7960 O 755.883 -5.86767 -1.3412 0
M  V30 7961 H 759.709 -3.01821 0.337279 0
M  V30 7962 H 757.294 -1.47602 0.231066 0
M  V30 7963 H 759.176 -3.69871 -2.01924 0
M  V30 7964 H 757.851 -2.50328 -2.05226 0
M  V30 7965 H 756.758 -3.73986 -0.0924446 0
M  V30 7966 H 758.091 -4.91997 -0.14131 0
M  V30 7967 N 759.743 -0.201713 -1.56304 0
M  V30 7968 C 760.673 0.71155 -2.22394 0
M  V30 7969 C 761.654 1.21625 -1.18917 0
M  V30 7970 O 762.839 1.26388 -1.47444 0
M  V30 7971 C 759.969 1.92837 -2.88845 0
M  V30 7972 C 758.923 1.55831 -3.98623 0
M  V30 7973 C 758.249 2.85228 -4.52271 0
M  V30 7974 C 759.549 0.763249 -5.16693 0
M  V30 7975 H 761.243 0.160573 -2.98969 0
M  V30 7976 H 758.789 0.0757916 -1.438 0
M  V30 7977 H 760.742 2.57253 -3.33764 0
M  V30 7978 H 759.466 2.50398 -2.09686 0
M  V30 7979 H 758.125 0.9377 -3.54405 0
M  V30 7980 H 757.773 3.40893 -3.69866 0
M  V30 7981 H 757.473 2.6121 -5.26349 0
M  V30 7982 H 758.997 3.50622 -4.99897 0
M  V30 7983 H 760.411 1.31066 -5.58117 0
M  V30 7984 H 758.808 0.620935 -5.96879 0
M  V30 7985 H 759.878 -0.234322 -4.84334 0
M  V30 7986 N 761.222 1.57436 0.0718424 0
M  V30 7987 C 762.47 1.86878 0.769484 0
M  V30 7988 C 762.791 0.7937 1.78116 0
M  V30 7989 O 762.061 -0.177642 1.95093 0
M  V30 7990 H 760.641 0.689593 0.287177 0
M  V30 7991 H 763.303 1.94841 0.0479427 0
M  V30 7992 H 762.399 2.84387 1.28572 0
M  V30 7993 N 762.7 -0.34323 1.53817 0
M  V30 7994 C 763.977 -1.10047 1.61706 0
M  V30 7995 C 764.357 -2.06495 0.438514 0
M  V30 7996 O 763.705 -2.21297 -0.569188 0
M  V30 7997 C 763.915 -1.81985 2.97796 0
M  V30 7998 C 765.263 -2.35717 3.53161 0
M  V30 7999 O 766.287 -1.9208 2.99973 0
M  V30 8000 O 765.146 -3.15551 4.46195 0
M  V30 8001 H 762.24 -0.506096 0.654061 0
M  V30 8002 H 764.786 -0.344697 1.66162 0
M  V30 8003 H 763.558 -1.11722 3.75012 0
M  V30 8004 H 763.181 -2.64419 2.96931 0
M  V30 8005 N 764.178 -1.45556 -0.604258 0
M  V30 8006 C 765.403 -1.53509 -1.39462 0
M  V30 8007 C 765.828 -0.169638 -1.87333 0
M  V30 8008 O 765.186 0.846346 -1.60333 0
M  V30 8009 C 765.234 -2.52654 -2.5729 0
M  V30 8010 O 764.338 -2.04666 -3.5803 0
M  V30 8011 H 763.679 -0.517355 -0.416221 0
M  V30 8012 H 766.209 -1.90939 -0.735072 0
M  V30 8013 H 766.219 -2.71568 -3.04491 0
M  V30 8014 H 764.894 -3.51823 -2.21797 0
M  V30 8015 H 763.471 -1.95643 -3.17456 0
M  V30 8016 N 765.656 0.84705 -1.32902 0
M  V30 8017 C 766.896 1.61554 -1.25218 0
M  V30 8018 C 767.26 1.91141 0.18143 0
M  V30 8019 O 768.461 2.6607 0.382106 0
M  V30 8020 C 766.732 2.89553 -2.09509 0
M  V30 8021 S 768.291 3.80283 -2.18931 0
M  V30 8022 H 765.109 0.554031 -0.445613 0
M  V30 8023 H 767.711 1.00251 -1.67839 0
M  V30 8024 H 766.415 2.65776 -3.12716 0
M  V30 8025 H 765.946 3.55868 -1.67694 0
M  V30 8026 H 767.961 4.77641 -1.34438 0
M  V30 8027 N 767.134 1.16236 1.06428 0
M  V30 8028 C 768.38 0.944431 1.79467 0
M  V30 8029 C 768.713 -0.526558 1.86925 0
M  V30 8030 O 767.988 -1.39061 1.35986 0
M  V30 8031 C 768.271 1.57092 3.24028 0
M  V30 8032 C 768.124 3.11315 3.24658 0
M  V30 8033 C 769.443 1.26447 4.21544 0
M  V30 8034 H 766.562 0.344521 0.651517 0
M  V30 8035 H 769.204 1.43545 1.24478 0
M  V30 8036 H 767.354 1.15337 3.70985 0
M  V30 8037 H 769.026 3.62042 2.85873 0
M  V30 8038 H 767.269 3.44716 2.6335 0
M  V30 8039 H 767.94 3.50269 4.26633 0
M  V30 8040 H 770.416 1.62581 3.83023 0
M  V30 8041 H 769.292 1.72885 5.20963 0
M  V30 8042 H 769.553 0.183068 4.41721 0
M  V30 8043 N 768.612 -1.24939 0.960631 0
M  V30 8044 C 769.889 -1.88118 0.535807 0
M  V30 8045 C 770.269 -1.86605 -0.987009 0
M  V30 8046 O 769.617 -1.33375 -1.85536 0
M  V30 8047 C 769.827 -3.30565 1.11927 0
M  V30 8048 C 771.175 -4.07296 1.19981 0
M  V30 8049 O 772.199 -3.39709 1.07126 0
M  V30 8050 O 771.058 -5.28206 1.40218 0
M  V30 8051 H 768.152 -0.807698 0.177631 0
M  V30 8052 H 770.698 -1.32964 1.05445 0
M  V30 8053 H 769.47 -3.26128 2.16231 0
M  V30 8054 H 769.093 -3.93284 0.584245 0
M  V30 8055 N 770.09 -0.729906 -1.39679 0
M  V30 8056 C 771.023 -0.0354454 -2.28172 0
M  V30 8057 C 772.001 0.752968 -1.44115 0
M  V30 8058 O 773.185 0.736599 -1.73512 0
M  V30 8059 C 770.312 0.957047 -3.24897 0
M  V30 8060 C 769.358 0.257734 -4.25721 0
M  V30 8061 S 770.191 -1.02466 -5.25605 0
M  V30 8062 C 771.347 -0.0346322 -6.2589 0
M  V30 8063 H 771.58 -0.785922 -2.86724 0
M  V30 8064 H 769.113 -0.521497 -1.45326 0
M  V30 8065 H 771.071 1.52441 -3.81146 0
M  V30 8066 H 769.732 1.68033 -2.65375 0
M  V30 8067 H 768.925 1.00854 -4.93806 0
M  V30 8068 H 768.527 -0.237454 -3.73245 0
M  V30 8069 H 770.819 0.807464 -6.72671 0
M  V30 8070 H 771.762 -0.682491 -7.04803 0
M  V30 8071 H 772.17 0.335492 -5.63502 0
M  V30 8072 N 771.568 1.50203 -0.477153 0
M  V30 8073 C 772.478 2.32421 0.319027 0
M  V30 8074 C 773.494 1.43075 0.990233 0
M  V30 8075 O 774.67 1.76123 0.976873 0
M  V30 8076 C 771.735 3.17909 1.38328 0
M  V30 8077 C 770.796 4.23082 0.728036 0
M  V30 8078 C 770.029 5.04484 1.74158 0
M  V30 8079 O 770.252 4.8705 2.96881 0
M  V30 8080 O 769.186 5.8747 1.31006 0
M  V30 8081 H 773.012 3.01638 -0.353281 0
M  V30 8082 H 770.597 1.47478 -0.238891 0
M  V30 8083 H 772.479 3.70937 1.9996 0
M  V30 8084 H 771.154 2.51413 2.03895 0
M  V30 8085 H 770.061 3.7403 0.07261 0
M  V30 8086 H 771.394 4.92065 0.115216 0
M  V30 8087 N 773.046 0.209999 1.56195 0
M  V30 8088 C 774.274 -0.429996 2.02382 0
M  V30 8089 C 774.689 -1.54159 1.08998 0
M  V30 8090 O 774.046 -1.82239 0.0974856 0
M  V30 8091 C 774.097 -0.972433 3.48175 0
M  V30 8092 O 773.818 0.0948231 4.37997 0
M  V30 8093 C 775.319 -1.68683 4.09952 0
M  V30 8094 H 772.539 -0.106475 0.662498 0
M  V30 8095 H 775.083 0.323072 2.01932 0
M  V30 8096 H 773.238 -1.67582 3.49278 0
M  V30 8097 H 773.652 -0.31113 5.23576 0
M  V30 8098 H 775.126 -2.01851 5.13771 0
M  V30 8099 H 775.603 -2.59587 3.54276 0
M  V30 8100 H 776.209 -1.02893 4.12666 0
M  V30 8101 N 774.524 -1.57472 -0.0634922 0
M  V30 8102 C 775.801 -1.78736 -0.794538 0
M  V30 8103 C 776.181 -0.799645 -1.95369 0
M  V30 8104 O 775.529 0.165521 -2.279 0
M  V30 8105 C 775.739 -3.25471 -1.25975 0
M  V30 8106 C 777.087 -3.89528 -1.68976 0
M  V30 8107 O 778.111 -3.29412 -1.35521 0
M  V30 8108 O 776.97 -4.95305 -2.30944 0
M  V30 8109 H 774.064 -0.733813 -0.381376 0
M  V30 8110 H 776.61 -1.69646 -0.0429258 0
M  V30 8111 H 775.382 -3.88922 -0.430721 0
M  V30 8112 H 775.005 -3.39317 -2.07243 0
M  V30 8113 N 776.003 0.335068 -1.53997 0
M  V30 8114 C 777.414 0.910191 -1.6301 0
M  V30 8115 C 777.765 1.89271 -0.516809 0
M  V30 8116 O 776.89 2.13516 0.352123 0
M  V30 8117 C 777.485 1.65761 -2.9548 0
M  V30 8118 C 776.044 2.18163 -3.06728 0
M  V30 8119 C 775.191 1.00338 -2.5851 0
M  V30 8120 H 778.142 0.112965 -1.58297 0
M  V30 8121 H 778.163 2.52107 -2.84995 0
M  V30 8122 H 777.675 0.94227 -3.76488 0
M  V30 8123 H 775.776 2.92847 -2.30372 0
M  V30 8124 H 775.889 2.43952 -4.1234 0
M  V30 8125 H 774.253 1.37925 -2.14124 0
M  V30 8126 H 775.036 0.30254 -3.41964 0
M  V30 8127 N 777.481 1.45874 0.596531 0
M  V30 8128 C 778.706 1.54247 1.38646 0
M  V30 8129 C 779.131 0.179571 1.87241 0
M  V30 8130 O 778.489 -0.837831 1.6078 0
M  V30 8131 C 778.537 2.54015 2.55946 0
M  V30 8132 O 777.641 2.06561 3.5694 0
M  V30 8133 H 776.982 0.519555 0.413471 0
M  V30 8134 H 779.512 1.91327 0.724936 0
M  V30 8135 H 779.522 2.73179 3.03047 0
M  V30 8136 H 778.197 3.52994 2.19928 0
M  V30 8137 H 776.774 1.97324 3.16414 0
M  V30 8138 N 778.959 -0.83999 1.33349 0
M  V30 8139 C 779.869 -1.98182 1.25543 0
M  V30 8140 C 780.885 -1.73204 0.166208 0
M  V30 8141 O 782.061 -1.97596 0.389589 0
M  V30 8142 C 779.126 -3.32157 0.993614 0
M  V30 8143 C 778.187 -3.70258 2.17273 0
M  V30 8144 C 777.42 -4.9784 1.92331 0
M  V30 8145 O 777.643 -5.63679 0.873074 0
M  V30 8146 O 776.577 -5.33418 2.78835 0
M  V30 8147 H 780.403 -2.07708 2.21565 0
M  V30 8148 H 777.988 -0.972852 1.13384 0
M  V30 8149 H 779.87 -4.12433 0.864711 0
M  V30 8150 H 778.545 -3.23637 0.0636596 0
M  V30 8151 H 777.452 -2.90497 2.35716 0
M  V30 8152 H 778.785 -3.83442 3.08598 0
M  V30 8153 N 780.437 -1.16799 -1.0581 0
M  V30 8154 C 781.685 -0.950642 -1.78346 0
M  V30 8155 C 782.006 0.522524 -1.87869 0
M  V30 8156 O 781.276 1.3795 -1.39092 0
M  V30 8157 H 779.856 -0.348736 -0.6606 0
M  V30 8158 H 782.518 -1.47158 -1.27791 0
M  V30 8159 H 781.614 -1.37359 -2.80248 0
M  V30 8160 N 781.915 1.24427 -0.967243 0
M  V30 8161 C 783.326 1.74349 -0.667785 0
M  V30 8162 C 783.677 1.78403 0.816509 0
M  V30 8163 O 782.802 1.41315 1.63887 0
M  V30 8164 C 783.397 3.16628 -1.20548 0
M  V30 8165 C 781.956 3.64059 -0.955934 0
M  V30 8166 C 781.103 2.42715 -1.34106 0
M  V30 8167 H 784.054 1.10136 -1.14262 0
M  V30 8168 H 784.075 3.76183 -0.571547 0
M  V30 8169 H 783.587 3.13646 -2.28578 0
M  V30 8170 H 781.688 3.72441 0.108858 0
M  V30 8171 H 781.801 4.51549 -1.60126 0
M  V30 8172 H 780.165 2.43114 -0.759452 0
M  V30 8173 H 780.948 2.42414 -2.43085 0
M  V30 8174 N 783.393 0.737304 1.3929 0
M  V30 8175 C 784.641 0.285691 2.00071 0
M  V30 8176 C 784.962 -1.13169 1.58801 0
M  V30 8177 O 784.232 -1.77104 0.837308 0
M  V30 8178 H 782.812 0.102638 0.739915 0
M  V30 8179 H 785.474 0.947775 1.70303 0
M  V30 8180 H 784.57 0.335906 3.10287 0
M  V30 8181 N 784.871 -1.49948 0.485112 0
M  V30 8182 C 785.801 -2.31675 -0.291364 0
M  V30 8183 C 786.782 -1.39216 -0.977383 0
M  V30 8184 O 787.967 -1.68133 -0.971855 0
M  V30 8185 C 785.097 -3.19326 -1.36558 0
M  V30 8186 C 784.051 -4.2045 -0.800359 0
M  V30 8187 C 783.377 -4.96931 -1.97391 0
M  V30 8188 C 784.677 -5.21925 0.197867 0
M  V30 8189 H 786.371 -2.96839 0.390775 0
M  V30 8190 H 783.917 -1.42749 0.189375 0
M  V30 8191 H 785.87 -3.75304 -1.91638 0
M  V30 8192 H 784.594 -2.52074 -2.07668 0
M  V30 8193 H 783.253 -3.65594 -0.271428 0
M  V30 8194 H 782.901 -4.26141 -2.67232 0
M  V30 8195 H 782.601 -5.65344 -1.60187 0
M  V30 8196 H 784.125 -5.55749 -2.52935 0
M  V30 8197 H 785.539 -5.72691 -0.264239 0
M  V30 8198 H 783.936 -5.98138 0.484908 0
M  V30 8199 H 785.006 -4.71809 1.11912 0
M  V30 8200 N 786.349 -0.21828 -1.56081 0
M  V30 8201 C 787.597 0.413488 -1.97825 0
M  V30 8202 C 787.918 1.60527 -1.10707 0
M  V30 8203 O 787.188 1.9504 -0.183378 0
M  V30 8204 H 785.768 0.155757 -0.730581 0
M  V30 8205 H 788.43 -0.310413 -1.92412 0
M  V30 8206 H 787.526 0.742024 -3.03151 0
M  V30 8207 N 787.827 1.57504 0.0551401 0
M  V30 8208 C 789.104 1.79155 0.785048 0
M  V30 8209 C 789.484 0.809995 1.94942 0
M  V30 8210 O 788.832 -0.153432 2.27984 0
M  V30 8211 C 789.042 3.26134 1.24247 0
M  V30 8212 C 790.39 3.90419 1.66908 0
M  V30 8213 O 791.414 3.30126 1.33772 0
M  V30 8214 O 790.273 4.96523 2.28314 0
M  V30 8215 H 787.367 0.735825 0.377479 0
M  V30 8216 H 789.913 1.69666 0.0339285 0
M  V30 8217 H 788.685 3.89145 0.410089 0
M  V30 8218 H 788.308 3.40411 2.05441 0
M  V30 8219 N 789.305 -0.326896 1.54172 0
M  V30 8220 C 790.716 -0.901533 1.63491 0
M  V30 8221 C 791.067 -1.88994 0.52684 0
M  V30 8222 O 790.192 -2.137 -0.340794 0
M  V30 8223 C 790.787 -1.64192 2.96355 0
M  V30 8224 C 789.346 -2.16533 3.07881 0
M  V30 8225 C 788.493 -0.98966 2.59039 0
M  V30 8226 H 791.444 -0.104568 1.58355 0
M  V30 8227 H 791.465 -2.50592 2.86328 0
M  V30 8228 H 790.977 -0.922291 3.76982 0
M  V30 8229 H 789.078 -2.91622 2.31922 0
M  V30 8230 H 789.191 -2.41762 4.13628 0
M  V30 8231 H 787.555 -1.36787 2.14852 0
M  V30 8232 H 788.338 -0.284401 3.4212 0
M  V30 8233 N 790.784 -1.46188 -0.588786 0
M  V30 8234 C 791.747 -1.55882 -1.68029 0
M  V30 8235 C 792.747 -0.436515 -1.54762 0
M  V30 8236 O 793.937 -0.700626 -1.59489 0
M  V30 8237 C 791.069 -1.47332 -3.07418 0
M  V30 8238 H 792.262 -2.5315 -1.60795 0
M  V30 8239 H 789.815 -1.33908 -0.806116 0
M  V30 8240 H 790.55 -0.513193 -3.20214 0
M  V30 8241 H 790.335 -2.28753 -3.18456 0
M  V30 8242 H 791.825 -1.57187 -3.86887 0
M  V30 8243 N 792.262 0.832906 -1.33792 0
M  V30 8244 C 793.51 1.58539 -1.25338 0
M  V30 8245 C 793.831 1.94175 0.179204 0
M  V30 8246 O 793.101 1.61458 1.10941 0
M  V30 8247 H 791.681 0.58784 -0.460926 0
M  V30 8248 H 794.343 0.995064 -1.67584 0
M  V30 8249 H 793.439 2.51268 -1.85123 0
M  V30 8250 N 793.74 1.17359 1.05189 0
M  V30 8251 C 794.988 0.960087 1.77839 0
M  V30 8252 C 795.309 -0.512554 1.88143 0
M  V30 8253 O 794.579 -1.3721 1.39822 0
M  V30 8254 H 793.159 0.352234 0.658741 0
M  V30 8255 H 795.821 1.47834 1.27008 0
M  V30 8256 H 794.917 1.38843 2.79516 0
M  V30 8257 N 795.218 -1.23913 0.973828 0
M  V30 8258 C 796.466 -1.91771 0.637817 0
M  V30 8259 C 796.787 -1.76434 -0.830435 0
M  V30 8260 O 796.057 -1.13965 -1.59339 0
M  V30 8261 H 794.637 -0.709761 0.232912 0
M  V30 8262 H 797.299 -1.50677 1.23622 0
M  V30 8263 H 796.395 -2.99327 0.883731 0
M  V30 8264 N 796.696 -0.74468 -1.38897 0
M  V30 8265 C 797.924 -0.307428 -2.04603 0
M  V30 8266 C 798.339 1.06115 -1.56157 0
M  V30 8267 O 797.696 1.67233 -0.730701 0
M  V30 8268 C 797.747 -0.31101 -3.6016 0
M  V30 8269 O 797.468 -1.62557 -4.06825 0
M  V30 8270 C 798.969 0.141213 -4.43075 0
M  V30 8271 H 796.189 -0.132741 -0.657739 0
M  V30 8272 H 798.733 -1.01104 -1.77759 0
M  V30 8273 H 796.888 0.343792 -3.85872 0
M  V30 8274 H 797.302 -1.54569 -5.01207 0
M  V30 8275 H 798.776 0.0875449 -5.51931 0
M  V30 8276 H 799.253 1.18782 -4.22833 0
M  V30 8277 H 799.859 -0.484383 -4.22533 0
M  V30 8278 N 798.174 1.49689 -0.493057 0
M  V30 8279 C 799.585 1.8665 -0.0433032 0
M  V30 8280 C 799.936 1.40607 1.36836 0
M  V30 8281 O 799.061 0.780503 2.01834 0
M  V30 8282 C 799.656 3.38724 -0.0718069 0
M  V30 8283 C 798.215 3.75015 0.32257 0
M  V30 8284 C 797.362 2.7366 -0.4478 0
M  V30 8285 H 800.313 1.42119 -0.706246 0
M  V30 8286 H 800.334 3.73522 0.725347 0
M  V30 8287 H 799.846 3.72204 -1.09935 0
M  V30 8288 H 797.947 3.47142 1.35364 0
M  V30 8289 H 798.06 4.79099 0.00864259 0
M  V30 8290 H 796.424 2.54498 0.101354 0
M  V30 8291 H 797.207 3.09985 -1.47527 0
M  V30 8292 N 799.652 0.226554 1.55963 0
M  V30 8293 C 801.063 -0.280381 1.84583 0
M  V30 8294 C 801.414 -1.59105 1.14804 0
M  V30 8295 O 800.539 -2.12297 0.419414 0
M  V30 8296 C 801.134 -0.515499 3.34855 0
M  V30 8297 C 799.693 -0.966733 3.63774 0
M  V30 8298 C 798.84 -0.0325753 2.77281 0
M  V30 8299 H 801.791 0.449626 1.52197 0
M  V30 8300 H 801.812 -1.36085 3.55332 0
M  V30 8301 H 801.324 0.438594 3.85614 0
M  V30 8302 H 799.425 -1.93401 3.18476 0
M  V30 8303 H 799.538 -0.837679 4.7172 0
M  V30 8304 H 797.902 -0.540279 2.48904 0
M  V30 8305 H 798.685 0.916524 3.30839 0
M  V30 8306 N 801.13 -1.57531 -0.0467866 0
M  V30 8307 C 802.093 -2.04379 -1.03738 0
M  V30 8308 C 803.093 -0.944881 -1.3011 0
M  V30 8309 O 804.283 -1.20904 -1.25411 0
M  V30 8310 C 801.415 -2.44572 -2.37482 0
M  V30 8311 H 802.608 -2.93142 -0.633063 0
M  V30 8312 H 800.161 -1.53526 -0.293177 0
M  V30 8313 H 800.896 -1.58911 -2.82697 0
M  V30 8314 H 800.681 -3.24785 -2.19675 0
M  V30 8315 H 802.171 -2.81307 -3.08636 0
M  V30 8316 N 802.608 0.318715 -1.54344 0
M  V30 8317 C 804.024 0.663345 -1.45162 0
M  V30 8318 C 804.224 1.9145 -0.62842 0
M  V30 8319 O 803.28 2.5217 -0.129126 0
M  V30 8320 C 804.593 0.832836 -2.88937 0
M  V30 8321 C 806.141 0.929866 -2.98869 0
M  V30 8322 C 806.616 1.13149 -4.43803 0
M  V30 8323 N 808.107 1.19811 -4.47437 0
M  V30 8324 C 808.842 1.37209 -5.56742 0
M  V30 8325 N 808.338 1.51619 -6.76006 0
M  V30 8326 N 810.131 1.39956 -5.44398 0
M  V30 8327 H 802.282 -0.50357 -2.06344 0
M  V30 8328 H 804.545 -0.163528 -0.933789 0
M  V30 8329 H 804.251 -0.0153519 -3.51697 0
M  V30 8330 H 804.125 1.72721 -3.35332 0
M  V30 8331 H 806.512 1.76855 -2.36233 0
M  V30 8332 H 806.593 0.0118561 -2.55797 0
M  V30 8333 H 806.237 0.297636 -5.07027 0
M  V30 8334 H 806.167 2.06345 -4.84489 0
M  V30 8335 H 808.658 1.101 -3.61506 0
M  V30 8336 H 808.971 1.64599 -7.55067 0
M  V30 8337 H 807.316 1.48708 -6.78904 0
M  V30 8338 H 810.507 1.28298 -4.50175 0
M  V30 8339 H 810.68 1.53172 -6.29637 0
M  V30 8340 N 804.086 1.46499 0.581025 0
M  V30 8341 C 805.018 1.53225 1.70455 0
M  V30 8342 C 806.031 0.420443 1.57277 0
M  V30 8343 O 807.22 0.688888 1.64671 0
M  V30 8344 C 804.32 1.39803 3.08721 0
M  V30 8345 C 803.493 2.65132 3.47884 0
M  V30 8346 C 802.552 2.45886 4.65217 0
M  V30 8347 O 801.578 3.19615 4.70993 0
M  V30 8348 N 802.78 1.5216 5.60203 0
M  V30 8349 H 805.545 2.50098 1.65139 0
M  V30 8350 H 803.106 1.42576 0.76705 0
M  V30 8351 H 805.098 1.24697 3.8501 0
M  V30 8352 H 803.668 0.51104 3.08394 0
M  V30 8353 H 802.888 2.95169 2.61284 0
M  V30 8354 H 804.176 3.48385 3.70817 0
M  V30 8355 H 803.574 0.913646 5.58273 0
M  V30 8356 H 802.131 1.43017 6.35916 0
M  V30 8357 N 805.565 -0.825799 1.34232 0
M  V30 8358 C 806.813 -1.57873 1.26177 0
M  V30 8359 C 807.134 -1.94267 -0.168904 0
M  V30 8360 O 806.404 -1.62045 -1.10084 0
M  V30 8361 H 804.984 -0.585388 0.464037 0
M  V30 8362 H 807.646 -0.986163 1.6811 0
M  V30 8363 H 806.742 -2.50283 1.86453 0
M  V30 8364 N 807.043 -1.17915 -1.04565 0
M  V30 8365 C 808.268 -0.996749 -1.81878 0
M  V30 8366 C 808.693 0.450169 -1.82634 0
M  V30 8367 O 808.051 1.32268 -1.23995 0
M  V30 8368 C 808.099 -1.55005 -3.25585 0
M  V30 8369 O 807.203 -0.76804 -4.05185 0
M  V30 8370 H 806.544 -0.353456 -0.562108 0
M  V30 8371 H 809.074 -1.56557 -1.31723 0
M  V30 8372 H 809.084 -1.57503 -3.76373 0
M  V30 8373 H 807.759 -2.60327 -3.2435 0
M  V30 8374 H 806.336 -0.81498 -3.63885 0
M  V30 8375 N 808.521 1.23394 -0.980386 0
M  V30 8376 C 809.767 1.924 -0.659848 0
M  V30 8377 C 810.122 1.75076 0.797883 0
M  V30 8378 O 809.415 1.10104 1.56805 0
M  V30 8379 C 809.609 3.43542 -0.985588 0
M  V30 8380 C 809.438 3.75568 -2.47343 0
M  V30 8381 C 808.208 3.96257 -3.13541 0
M  V30 8382 C 810.406 3.81045 -3.45412 0
M  V30 8383 N 808.388 4.15489 -4.51932 0
M  V30 8384 C 809.759 4.05269 -4.69209 0
M  V30 8385 C 811.814 3.63837 -3.39893 0
M  V30 8386 C 810.517 4.14071 -5.88164 0
M  V30 8387 C 812.543 3.73892 -4.58212 0
M  V30 8388 C 811.905 3.98553 -5.80805 0
M  V30 8389 H 808.004 0.725229 -0.292518 0
M  V30 8390 H 810.588 1.48615 -1.25784 0
M  V30 8391 H 808.759 3.86163 -0.416289 0
M  V30 8392 H 810.491 3.99887 -0.622324 0
M  V30 8393 H 807.246 3.93168 -2.64038 0
M  V30 8394 H 807.67 4.29058 -5.23677 0
M  V30 8395 H 812.312 3.43767 -2.46139 0
M  V30 8396 H 810.03 4.32949 -6.82335 0
M  V30 8397 H 813.616 3.61932 -4.55518 0
M  V30 8398 H 812.496 4.06148 -6.70831 0
M  V30 8399 N 809.999 0.752036 1.385 0
M  V30 8400 C 810.909 0.125318 2.34265 0
M  V30 8401 C 811.925 -0.702437 1.59191 0
M  V30 8402 O 813.101 -0.626951 1.91393 0
M  V30 8403 C 810.166 -0.758486 3.38301 0
M  V30 8404 C 809.227 0.0834636 4.29219 0
M  V30 8405 C 808.46 -0.758252 5.28286 0
M  V30 8406 O 808.683 -1.99632 5.34325 0
M  V30 8407 O 807.617 -0.177878 6.01637 0
M  V30 8408 H 811.443 0.91617 2.89551 0
M  V30 8409 H 809.028 0.512911 1.4032 0
M  V30 8410 H 810.91 -1.26365 4.02007 0
M  V30 8411 H 809.585 -1.52786 2.85374 0
M  V30 8412 H 808.492 0.634545 3.68679 0
M  V30 8413 H 809.825 0.815455 4.85398 0
M  V30 8414 N 811.477 -1.49425 0.500989 0
M  V30 8415 C 812.754 -1.9531 -0.106551 0
M  V30 8416 C 813.134 -1.44248 -1.54129 0
M  V30 8417 O 812.482 -0.656237 -2.18874 0
M  V30 8418 C 812.692 -3.48995 -0.0191972 0
M  V30 8419 C 814.04 -4.24161 -0.193129 0
M  V30 8420 O 815.064 -3.56075 -0.0943843 0
M  V30 8421 O 813.923 -5.45064 -0.395869 0
M  V30 8422 H 811.017 -0.82149 -0.0953068 0
M  V30 8423 H 813.563 -1.6007 0.563526 0
M  V30 8424 H 812.335 -3.78794 0.981353 0
M  V30 8425 H 811.958 -3.90852 -0.72942 0
M  V30 8426 N 812.955 -0.234822 -1.55841 0
M  V30 8427 C 813.865 0.680828 -2.24504 0
M  V30 8428 C 814.881 1.20306 -1.25708 0
M  V30 8429 O 816.057 1.24188 -1.58554 0
M  V30 8430 C 813.122 1.86636 -2.92178 0
M  V30 8431 C 812.183 1.3848 -4.06352 0
M  V30 8432 C 811.416 2.51382 -4.70789 0
M  V30 8433 O 811.639 3.69831 -4.34259 0
M  V30 8434 O 810.573 2.21828 -5.59532 0
M  V30 8435 H 814.399 0.12583 -3.03439 0
M  V30 8436 H 811.984 -0.00381817 -1.494 0
M  V30 8437 H 813.866 2.55845 -3.34845 0
M  V30 8438 H 812.541 2.40921 -2.16192 0
M  V30 8439 H 811.448 0.660341 -3.68226 0
M  V30 8440 H 812.781 0.888177 -4.8412 0
M  V30 8441 N 814.433 1.57553 0.0384317 0
M  V30 8442 C 815.343 2.09333 1.0591 0
M  V30 8443 C 816.359 1.0299 1.40247 0
M  V30 8444 O 817.535 1.34669 1.49754 0
M  V30 8445 C 814.6 2.55468 2.34386 0
M  V30 8446 C 813.661 3.76254 2.06716 0
M  V30 8447 C 812.894 4.20179 3.29067 0
M  V30 8448 O 813.117 3.637 4.39407 0
M  V30 8449 O 812.051 5.12697 3.15317 0
M  V30 8450 H 815.877 2.96683 0.649087 0
M  V30 8451 H 813.462 1.47211 0.254802 0
M  V30 8452 H 815.344 2.85514 3.09935 0
M  V30 8453 H 814.019 1.71234 2.74701 0
M  V30 8454 H 812.926 3.51241 1.28766 0
M  V30 8455 H 814.259 4.61443 1.71263 0
M  V30 8456 N 815.911 -0.310526 1.54511 0
M  V30 8457 C 816.821 -1.4054 1.87844 0
M  V30 8458 C 817.837 -1.55954 0.771635 0
M  V30 8459 O 819.013 -1.70801 1.06719 0
M  V30 8460 C 816.078 -2.75063 2.11048 0
M  V30 8461 C 815.139 -2.68715 3.348 0
M  V30 8462 C 814.372 -3.96821 3.56887 0
M  V30 8463 O 814.595 -4.95721 2.82165 0
M  V30 8464 O 813.529 -3.99291 4.50389 0
M  V30 8465 H 817.355 -1.15275 2.80972 0
M  V30 8466 H 814.94 -0.505732 1.4058 0
M  V30 8467 H 816.822 -3.54671 2.27566 0
M  V30 8468 H 815.497 -3.00191 1.21108 0
M  V30 8469 H 814.404 -1.87611 3.23655 0
M  V30 8470 H 815.737 -2.4854 4.2484 0
M  V30 8471 N 817.389 -1.46805 -0.573248 0
M  V30 8472 C 818.666 -1.43082 -1.33368 0
M  V30 8473 C 819.046 -0.119252 -2.10763 0
M  V30 8474 O 818.394 0.899239 -2.10062 0
M  V30 8475 C 818.604 -2.66643 -2.25172 0
M  V30 8476 C 819.952 -3.13188 -2.86702 0
M  V30 8477 O 820.976 -2.67258 -2.35482 0
M  V30 8478 O 819.835 -3.92994 -3.79761 0
M  V30 8479 H 816.929 -0.569451 -0.599712 0
M  V30 8480 H 819.475 -1.58984 -0.59348 0
M  V30 8481 H 818.247 -3.53649 -1.67475 0
M  V30 8482 H 817.87 -2.53247 -3.06516 0
M  V30 8483 N 818.867 0.818669 -1.34668 0
M  V30 8484 C 820.097 1.60441 -1.30162 0
M  V30 8485 C 820.505 1.88783 0.125579 0
M  V30 8486 O 819.848 1.48281 1.08437 0
M  V30 8487 C 819.91 2.96794 -2.02864 0
M  V30 8488 C 819.574 2.91327 -3.52105 0
M  V30 8489 C 820.571 2.65611 -4.4693 0
M  V30 8490 C 818.256 3.10825 -3.9458 0
M  V30 8491 C 820.25 2.59452 -5.82206 0
M  V30 8492 C 817.937 3.0429 -5.29954 0
M  V30 8493 C 818.935 2.78637 -6.23579 0
M  V30 8494 O 818.623 2.72042 -7.56471 0
M  V30 8495 H 818.355 0.505278 -0.449077 0
M  V30 8496 H 820.909 1.02632 -1.77921 0
M  V30 8497 H 819.139 3.56538 -1.49725 0
M  V30 8498 H 820.828 3.57837 -1.91592 0
M  V30 8499 H 821.594 2.50278 -4.15434 0
M  V30 8500 H 817.473 3.29807 -3.221 0
M  V30 8501 H 821.017 2.39349 -6.55254 0
M  V30 8502 H 816.914 3.19177 -5.61067 0
M  V30 8503 H 817.682 2.87738 -7.66257 0
M  V30 8504 N 820.346 1.18468 1.03938 0
M  V30 8505 C 821.256 0.927889 2.1547 0
M  V30 8506 C 822.272 -0.108447 1.73662 0
M  V30 8507 O 823.448 0.0737636 2.01265 0
M  V30 8508 C 820.513 0.458494 3.43655 0
M  V30 8509 C 819.574 1.56295 3.99838 0
M  V30 8510 C 818.807 1.11586 5.21904 0
M  V30 8511 O 819.03 -0.0249057 5.70395 0
M  V30 8512 O 817.964 1.91412 5.70653 0
M  V30 8513 H 821.79 1.86116 2.39989 0
M  V30 8514 H 819.375 0.966607 1.13917 0
M  V30 8515 H 821.257 0.204861 4.20902 0
M  V30 8516 H 819.932 -0.446464 3.20606 0
M  V30 8517 H 818.839 1.87061 3.23974 0
M  V30 8518 H 820.172 2.44408 4.2723 0
M  V30 8519 N 821.824 -1.22873 0.986916 0
M  V30 8520 C 822.734 -2.28277 0.540978 0
M  V30 8521 C 823.75 -1.69164 -0.407363 0
M  V30 8522 O 824.926 -1.99504 -0.275674 0
M  V30 8523 C 821.991 -3.46404 -0.143181 0
M  V30 8524 C 821.052 -4.20854 0.847375 0
M  V30 8525 C 820.285 -5.33341 0.19577 0
M  V30 8526 O 820.508 -5.61356 -1.0117 0
M  V30 8527 O 819.442 -5.95169 0.897623 0
M  V30 8528 H 823.268 -2.68578 1.41773 0
M  V30 8529 H 820.853 -1.28927 0.754867 0
M  V30 8530 H 822.735 -4.18096 -0.526676 0
M  V30 8531 H 821.41 -3.08041 -0.994593 0
M  V30 8532 H 820.317 -3.51459 1.28169 0
M  V30 8533 H 821.65 -4.63082 1.6678 0
M  V30 8534 N 823.302 -0.75937 -1.38099 0
M  V30 8535 C 824.212 -0.13774 -2.34195 0
M  V30 8536 C 825.228 0.693985 -1.59561 0
M  V30 8537 O 826.404 0.616792 -1.91723 0
M  V30 8538 C 823.469 0.740535 -3.38699 0
M  V30 8539 C 822.53 -0.106225 -4.29169 0
M  V30 8540 C 821.763 0.730225 -5.28681 0
M  V30 8541 O 821.986 1.96796 -5.35376 0
M  V30 8542 O 820.92 0.145969 -6.01723 0
M  V30 8543 H 824.746 -0.931512 -2.89061 0
M  V30 8544 H 822.331 -0.520345 -1.40046 0
M  V30 8545 H 824.213 1.24232 -4.02672 0
M  V30 8546 H 822.888 1.51271 -2.8618 0
M  V30 8547 H 821.795 -0.654088 -3.68337 0
M  V30 8548 H 823.128 -0.841186 -4.84959 0
M  V30 8549 N 824.78 1.49157 -0.508906 0
M  V30 8550 C 825.71 2.32109 0.254469 0
M  V30 8551 C 826.691 1.40754 0.955111 0
M  V30 8552 O 827.876 1.69658 0.944983 0
M  V30 8553 C 825.006 3.21458 1.3146 0
M  V30 8554 C 823.96 4.2167 0.733368 0
M  V30 8555 C 823.286 5.00009 1.8946 0
M  V30 8556 C 824.586 5.21544 -0.280875 0
M  V30 8557 H 826.28 2.9618 -0.43795 0
M  V30 8558 H 823.826 1.4243 -0.212062 0
M  V30 8559 H 825.779 3.78305 1.85643 0
M  V30 8560 H 824.503 2.55346 2.03632 0
M  V30 8561 H 823.162 3.65979 0.213231 0
M  V30 8562 H 822.81 4.30338 2.60419 0
M  V30 8563 H 822.51 5.67821 1.51173 0
M  V30 8564 H 824.034 5.59702 2.44061 0
M  V30 8565 H 825.448 5.73039 0.173095 0
M  V30 8566 H 823.845 5.97291 -0.580006 0
M  V30 8567 H 824.915 4.69969 -1.19404 0
M  V30 8568 N 826.258 0.243083 1.55714 0
M  V30 8569 C 827.486 -0.386971 2.03249 0
M  V30 8570 C 827.901 -1.51812 1.12243 0
M  V30 8571 O 827.258 -1.81992 0.136119 0
M  V30 8572 C 827.309 -0.898361 3.5016 0
M  V30 8573 O 827.03 0.187708 4.37698 0
M  V30 8574 C 828.531 -1.59949 4.13438 0
M  V30 8575 H 825.751 -0.0923981 0.664608 0
M  V30 8576 H 828.295 0.365832 2.01201 0
M  V30 8577 H 826.45 -1.60136 3.52754 0
M  V30 8578 H 826.864 -0.200001 5.24119 0
M  V30 8579 H 828.338 -1.90907 5.17937 0
M  V30 8580 H 828.815 -2.52014 3.59702 0
M  V30 8581 H 829.421 -0.941163 4.14756 0
M  V30 8582 N 827.736 -1.57571 -0.0300757 0
M  V30 8583 C 829.013 -1.80381 -0.756447 0
M  V30 8584 C 829.393 -0.840906 -1.93628 0
M  V30 8585 O 828.741 0.117143 -2.282 0
M  V30 8586 C 828.951 -3.2807 -1.19043 0
M  V30 8587 C 830.299 -3.93025 -1.60676 0
M  V30 8588 O 831.323 -3.32213 -1.28503 0
M  V30 8589 O 830.182 -5.00092 -2.20386 0
M  V30 8590 H 827.276 -0.741737 -0.365725 0
M  V30 8591 H 829.822 -1.69699 -0.00693177 0
M  V30 8592 H 828.594 -3.89748 -0.348128 0
M  V30 8593 H 828.217 -3.43637 -1.99999 0
M  V30 8594 N 829.214 0.302327 -1.54673 0
M  V30 8595 C 830.162 1.39286 -1.86285 0
M  V30 8596 C 831.156 1.52553 -0.736478 0
M  V30 8597 O 832.362 1.54686 -0.92045 0
M  V30 8598 H 828.737 0.465228 -0.590819 0
M  V30 8599 H 830.708 1.09859 -2.77441 0
M  V30 8600 C 829.457 2.75155 -2.12567 0
M  V30 8601 H 828.78 2.65728 -2.98712 0
M  V30 8602 H 830.22 3.50476 -2.38627 0
M  V30 8603 C 828.679 3.23987 -0.923813 0
M  V30 8604 O 829.209 4.01443 -0.143649 0
M  V30 8605 N 827.415 2.81293 -0.72956 0
M  V30 8606 H 826.962 2.18421 -1.36565 0
M  V30 8607 H 826.92 3.14315 0.0730351 0
M  V30 8608 N 830.692 1.47107 0.565454 0
M  V30 8609 C 832.108 1.32443 0.890566 0
M  V30 8610 C 832.308 0.308735 1.99121 0
M  V30 8611 O 831.364 -0.28265 2.50913 0
M  V30 8612 C 832.677 2.71548 1.2916 0
M  V30 8613 C 834.225 2.7977 1.40349 0
M  V30 8614 C 834.7 4.19497 1.83811 0
M  V30 8615 N 836.191 4.21998 1.90975 0
M  V30 8616 C 836.926 5.2702 2.25916 0
M  V30 8617 N 836.422 6.42353 2.59527 0
M  V30 8618 N 838.215 5.14393 2.26619 0
M  V30 8619 H 830.366 2.11786 -0.161328 0
M  V30 8620 H 832.629 0.947952 -0.00950631 0
M  V30 8621 H 832.335 3.47265 0.556753 0
M  V30 8622 H 832.209 3.02782 2.24951 0
M  V30 8623 H 834.596 2.0433 2.12916 0
M  V30 8624 H 834.677 2.522 0.427655 0
M  V30 8625 H 834.321 4.95439 1.11816 0
M  V30 8626 H 834.251 4.44486 2.82382 0
M  V30 8627 H 836.742 3.38791 1.6742 0
M  V30 8628 H 837.055 7.18252 2.85191 0
M  V30 8629 H 835.4 6.45687 2.57126 0
M  V30 8630 H 838.591 4.2332 1.99794 0
M  V30 8631 H 838.764 5.96349 2.5352 0
M  V30 8632 N 832.17 -0.811516 1.35101 0
M  V30 8633 C 833.118 -1.94449 1.27642 0
M  V30 8634 C 834.112 -1.68522 0.172287 0
M  V30 8635 O 835.318 -1.76799 0.337967 0
M  V30 8636 H 831.693 -0.638776 0.396824 0
M  V30 8637 H 833.664 -1.97861 2.23369 0
M  V30 8638 C 832.413 -3.31139 1.06029 0
M  V30 8639 H 831.736 -3.51644 1.90227 0
M  V30 8640 H 833.176 -4.10831 1.0485 0
M  V30 8641 C 831.635 -3.36072 -0.236039 0
M  V30 8642 O 832.165 -3.82292 -1.23353 0
M  V30 8643 N 830.371 -2.89314 -0.273107 0
M  V30 8644 H 829.918 -2.51893 0.539211 0
M  V30 8645 H 829.876 -2.92996 -1.1402 0
M  V30 8646 N 833.648 -1.19017 -1.03309 0
M  V30 8647 C 835.064 -0.941483 -1.28873 0
M  V30 8648 C 835.264 0.388587 -1.97718 0
M  V30 8649 O 834.32 1.12111 -2.26246 0
M  V30 8650 C 835.633 -2.11249 -2.13996 0
M  V30 8651 C 837.181 -2.15164 -2.27318 0
M  V30 8652 C 837.656 -3.31704 -3.15811 0
M  V30 8653 N 839.147 -3.31613 -3.23399 0
M  V30 8654 C 839.882 -4.18431 -3.9205 0
M  V30 8655 N 839.378 -5.15397 -4.62966 0
M  V30 8656 N 841.171 -4.06321 -3.88406 0
M  V30 8657 H 833.322 -2.04599 -0.570343 0
M  V30 8658 H 835.585 -0.894406 -0.314232 0
M  V30 8659 H 835.291 -3.07482 -1.70727 0
M  V30 8660 H 835.165 -2.07955 -3.14697 0
M  V30 8661 H 837.552 -1.19504 -2.6982 0
M  V30 8662 H 837.633 -2.22513 -1.26182 0
M  V30 8663 H 837.277 -4.2764 -2.74019 0
M  V30 8664 H 837.207 -3.21592 -4.16997 0
M  V30 8665 H 839.698 -2.6142 -2.72888 0
M  V30 8666 H 840.011 -5.78 -5.12968 0
M  V30 8667 H 838.356 -5.19349 -4.61846 0
M  V30 8668 H 841.547 -3.29849 -3.3214 0
M  V30 8669 H 841.72 -4.74196 -4.41635 0
M  V30 8670 N 835.127 1.22348 -0.993418 0
M  V30 8671 C 836.375 1.90733 -0.668246 0
M  V30 8672 C 836.696 1.77732 0.802261 0
M  V30 8673 O 835.966 1.16486 1.57505 0
M  V30 8674 H 834.546 0.705966 -0.244174 0
M  V30 8675 H 837.208 1.48691 -1.26004 0
M  V30 8676 H 836.304 2.97883 -0.931239 0
M  V30 8677 N 836.605 0.766683 1.37694 0
M  V30 8678 C 838.021 0.445739 1.53249 0
M  V30 8679 C 838.221 -1.03935 1.72626 0
M  V30 8680 O 837.277 -1.82525 1.74473 0
M  V30 8681 C 838.59 1.2564 2.73194 0
M  V30 8682 C 840.138 1.24779 2.87053 0
M  V30 8683 C 840.613 2.04169 4.09974 0
M  V30 8684 N 842.104 2.01497 4.17077 0
M  V30 8685 C 842.839 2.5971 5.11212 0
M  V30 8686 N 842.335 3.26691 6.10938 0
M  V30 8687 N 844.128 2.49568 5.03659 0
M  V30 8688 H 836.279 1.72899 1.23368 0
M  V30 8689 H 838.542 0.733701 0.600322 0
M  V30 8690 H 838.248 2.30859 2.65324 0
M  V30 8691 H 838.122 0.882133 3.6674 0
M  V30 8692 H 840.509 0.203603 2.94397 0
M  V30 8693 H 840.59 1.66166 1.9448 0
M  V30 8694 H 840.234 3.08606 4.03392 0
M  V30 8695 H 840.164 1.60167 5.01651 0
M  V30 8696 H 842.655 1.52728 3.45662 0
M  V30 8697 H 842.968 3.68497 6.79286 0
M  V30 8698 H 841.313 3.30789 6.11231 0
M  V30 8699 H 844.504 1.96859 4.24693 0
M  V30 8700 H 844.677 2.95231 5.76839 0
M  V30 8701 N 838.083 -1.48885 0.516809 0
M  V30 8702 C 839.031 -2.31066 -0.266656 0
M  V30 8703 C 840.025 -1.40393 -0.94795 0
M  V30 8704 O 841.231 -1.57366 -0.873836 0
M  V30 8705 H 837.606 -0.744654 -0.104858 0
M  V30 8706 H 839.577 -2.95045 0.446236 0
M  V30 8707 C 838.326 -3.22131 -1.3087 0
M  V30 8708 H 837.649 -3.91839 -0.793865 0
M  V30 8709 H 839.089 -3.82544 -1.82856 0
M  V30 8710 C 837.548 -2.42825 -2.33533 0
M  V30 8711 O 838.078 -2.14364 -3.39722 0
M  V30 8712 N 836.284 -2.04559 -2.06407 0
M  V30 8713 H 835.831 -2.27905 -1.20071 0
M  V30 8714 H 835.789 -1.51807 -2.75322 0
M  V30 8715 N 839.561 -0.251338 -1.55583 0
M  V30 8716 C 840.508 0.646337 -2.21565 0
M  V30 8717 C 841.478 1.16796 -1.18102 0
M  V30 8718 O 842.663 1.22162 -1.46564 0
M  V30 8719 C 839.803 1.83557 -2.92234 0
M  V30 8720 C 838.916 1.35006 -4.10363 0
M  V30 8721 C 838.051 2.4992 -4.68736 0
M  V30 8722 C 837.09 1.98253 -5.79105 0
M  V30 8723 N 836.227 3.06551 -6.31642 0
M  V30 8724 H 841.067 0.0769881 -2.97901 0
M  V30 8725 H 838.604 0.026238 -1.47077 0
M  V30 8726 H 840.562 2.53425 -3.31408 0
M  V30 8727 H 839.192 2.37733 -2.18364 0
M  V30 8728 H 838.244 0.545274 -3.76472 0
M  V30 8729 H 839.556 0.931435 -4.90026 0
M  V30 8730 H 838.71 3.27823 -5.10507 0
M  V30 8731 H 837.449 2.95086 -3.88298 0
M  V30 8732 H 836.454 1.18822 -5.36807 0
M  V30 8733 H 837.679 1.54051 -6.61396 0
M  V30 8734 H 835.625 3.51143 -5.54107 0
M  V30 8735 H 835.542 2.69033 -7.06511 0
M  V30 8736 H 836.81 3.84499 -6.78071 0
M  V30 8737 N 841.039 1.57585 0.0217189 0
M  V30 8738 C 842.002 2.06004 1.00474 0
M  V30 8739 C 843.002 0.965461 1.2859 0
M  V30 8740 O 844.192 1.22884 1.23471 0
M  V30 8741 C 841.324 2.48319 2.33561 0
M  V30 8742 H 842.517 2.94112 0.586346 0
M  V30 8743 H 840.07 1.53973 0.268716 0
M  V30 8744 H 840.805 1.63389 2.80133 0
M  V30 8745 H 840.59 3.28239 2.1448 0
M  V30 8746 H 842.08 2.86181 3.04122 0
M  V30 8747 N 842.517 -0.29412 1.54831 0
M  V30 8748 C 843.933 -0.640167 1.46199 0
M  V30 8749 C 844.133 -1.90426 0.658798 0
M  V30 8750 O 843.189 -2.51932 0.169228 0
M  V30 8751 C 844.502 -0.786763 2.90225 0
M  V30 8752 C 846.05 -0.882201 3.0031 0
M  V30 8753 C 846.525 -1.06074 4.45547 0
M  V30 8754 N 848.016 -1.12678 4.49286 0
M  V30 8755 C 848.751 -1.28334 5.58854 0
M  V30 8756 N 848.247 -1.40845 6.78332 0
M  V30 8757 N 850.04 -1.31277 5.46555 0
M  V30 8758 H 842.191 0.536334 2.05517 0
M  V30 8759 H 844.454 0.178363 0.93107 0
M  V30 8760 H 844.16 0.0713018 3.51628 0
M  V30 8761 H 844.034 -1.67364 3.38037 0
M  V30 8762 H 846.421 -1.73075 2.39017 0
M  V30 8763 H 846.502 0.0288405 2.55784 0
M  V30 8764 H 846.146 -0.216935 5.07437 0
M  V30 8765 H 846.076 -1.98611 4.8771 0
M  V30 8766 H 848.567 -1.04335 3.63212 0
M  V30 8767 H 848.88 -1.52566 7.57591 0
M  V30 8768 H 847.225 -1.37888 6.81184 0
M  V30 8769 H 850.416 -1.2112 4.52159 0
M  V30 8770 H 850.589 -1.43136 6.31994 0
M  V30 8771 N 843.995 -1.47404 -0.557645 0
M  V30 8772 C 845.225 -1.57393 -1.33832 0
M  V30 8773 C 845.633 -0.222978 -1.87881 0
M  V30 8774 O 844.976 0.793854 -1.65661 0
M  V30 8775 C 845.038 -2.53882 -2.54528 0
M  V30 8776 C 844.702 -3.99585 -2.21767 0
M  V30 8777 C 845.699 -4.88082 -1.79087 0
M  V30 8778 C 843.384 -4.44917 -2.3314 0
M  V30 8779 C 845.378 -6.1993 -1.48209 0
M  V30 8780 C 843.065 -5.76793 -2.01874 0
M  V30 8781 C 844.063 -6.64121 -1.59476 0
M  V30 8782 O 843.751 -7.93546 -1.28607 0
M  V30 8783 H 843.483 -0.534172 -0.41429 0
M  V30 8784 H 846.037 -1.93733 -0.682404 0
M  V30 8785 H 844.267 -2.12609 -3.23009 0
M  V30 8786 H 845.956 -2.54003 -3.16603 0
M  V30 8787 H 846.722 -4.54307 -1.69794 0
M  V30 8788 H 842.601 -3.77152 -2.65099 0
M  V30 8789 H 846.145 -6.88049 -1.15043 0
M  V30 8790 H 842.042 -6.1011 -2.10799 0
M  V30 8791 H 842.81 -8.06046 -1.42241 0
M  V30 8792 N 845.473 0.80434 -1.35529 0
M  V30 8793 C 846.713 1.57489 -1.30295 0
M  V30 8794 C 847.077 1.91621 0.120528 0
M  V30 8795 O 848.278 2.67151 0.297265 0
M  V30 8796 C 846.549 2.82741 -2.18615 0
M  V30 8797 S 848.108 3.73125 -2.30918 0
M  V30 8798 H 844.926 0.539573 -0.463014 0
M  V30 8799 H 847.528 0.948601 -1.70944 0
M  V30 8800 H 846.232 2.55692 -3.21014 0
M  V30 8801 H 845.763 3.50353 -1.78931 0
M  V30 8802 H 847.778 4.73122 -1.49566 0
M  V30 8803 N 846.951 1.19563 1.02676 0
M  V30 8804 C 847.914 0.937182 2.09164 0
M  V30 8805 C 848.914 -0.0831927 1.60585 0
M  V30 8806 O 850.104 0.15178 1.73538 0
M  V30 8807 C 847.236 0.408912 3.38439 0
M  V30 8808 H 848.429 1.88164 2.33526 0
M  V30 8809 H 845.982 1.00959 1.19319 0
M  V30 8810 H 846.717 -0.541497 3.19747 0
M  V30 8811 H 846.502 1.14464 3.7502 0
M  V30 8812 H 847.992 0.247242 4.16867 0
M  V30 8813 N 848.429 -1.21819 0.999893 0
M  V30 8814 C 849.339 -2.27691 0.565159 0
M  V30 8815 C 850.355 -1.69587 -0.389398 0
M  V30 8816 O 851.531 -1.99786 -0.254499 0
M  V30 8817 C 848.596 -3.46537 -0.106432 0
M  V30 8818 C 847.657 -4.19932 0.891964 0
M  V30 8819 C 846.89 -5.33103 0.252327 0
M  V30 8820 O 847.113 -5.62398 -0.952103 0
M  V30 8821 O 846.047 -5.94184 0.960698 0
M  V30 8822 H 849.873 -2.67059 1.44613 0
M  V30 8823 H 847.458 -1.28119 0.768499 0
M  V30 8824 H 849.34 -4.18631 -0.482301 0
M  V30 8825 H 848.015 -3.09079 -0.961865 0
M  V30 8826 H 846.922 -3.5008 1.3189 0
M  V30 8827 H 848.255 -4.61287 1.71682 0
M  V30 8828 N 849.908 -0.773975 -1.37286 0
M  V30 8829 C 851.156 -0.338636 -1.99243 0
M  V30 8830 C 851.477 1.08919 -1.61746 0
M  V30 8831 O 850.747 1.74822 -0.88397 0
M  V30 8832 H 849.327 -0.12222 -0.736934 0
M  V30 8833 H 851.989 -0.992595 -1.67731 0
M  V30 8834 H 851.085 -0.418055 -3.09287 0
M  V30 8835 N 851.386 1.48609 -0.524698 0
M  V30 8836 C 852.634 2.02097 0.0112991 0
M  V30 8837 C 852.955 1.40455 1.35268 0
M  V30 8838 O 852.225 0.56807 1.87483 0
M  V30 8839 H 850.805 0.746966 0.00716426 0
M  V30 8840 H 853.467 1.82378 -0.687329 0
M  V30 8841 H 852.563 3.11855 0.123531 0
M  V30 8842 N 852.864 0.259585 1.55447 0
M  V30 8843 C 854.112 -0.360893 1.98852 0
M  V30 8844 C 854.433 -1.57535 1.14924 0
M  V30 8845 O 853.703 -1.94485 0.235025 0
M  V30 8846 H 852.283 -0.136332 0.734454 0
M  V30 8847 H 854.945 0.361319 1.91522 0
M  V30 8848 H 854.041 -0.661388 3.05012 0
M  V30 8849 N 854.342 -1.57594 -0.0133615 0
M  V30 8850 C 855.753 -1.78168 -0.557937 0
M  V30 8851 C 856.104 -0.892616 -1.74719 0
M  V30 8852 O 855.229 -0.0915491 -2.16206 0
M  V30 8853 C 855.824 -3.23115 -1.01894 0
M  V30 8854 C 854.383 -3.44831 -1.50892 0
M  V30 8855 C 853.53 -2.73558 -0.454044 0
M  V30 8856 H 856.481 -1.57266 0.212843 0
M  V30 8857 H 856.502 -3.30493 -1.8856 0
M  V30 8858 H 856.014 -3.87798 -0.153175 0
M  V30 8859 H 854.115 -2.85345 -2.39602 0
M  V30 8860 H 854.228 -4.53485 -1.54559 0
M  V30 8861 H 852.592 -2.37787 -0.912666 0
M  V30 8862 H 853.375 -3.40932 0.402524 0
M  V30 8863 N 855.82 0.285905 -1.54985 0
M  V30 8864 C 857.066 1.02071 -1.75241 0
M  V30 8865 C 857.399 1.864 -0.544842 0
M  V30 8866 O 856.674 1.89034 0.457844 0
M  V30 8867 C 856.957 1.91409 -3.05016 0
M  V30 8868 C 856.81 1.10158 -4.36102 0
M  V30 8869 C 858.129 2.90335 -3.30747 0
M  V30 8870 H 855.248 0.369663 -0.637588 0
M  V30 8871 H 857.89 0.294114 -1.8771 0
M  V30 8872 H 856.04 2.53362 -2.94517 0
M  V30 8873 H 857.712 0.503756 -4.58541 0
M  V30 8874 H 855.955 0.404675 -4.31908 0
M  V30 8875 H 856.626 1.75956 -5.23205 0
M  V30 8876 H 859.102 2.38514 -3.40955 0
M  V30 8877 H 857.978 3.49997 -4.2284 0
M  V30 8878 H 858.239 3.64787 -2.49765 0
M  V30 8879 N 857.298 1.47698 0.54982 0
M  V30 8880 C 858.228 1.63622 1.66583 0
M  V30 8881 C 859.209 0.485477 1.63025 0
M  V30 8882 O 860.394 0.715692 1.80531 0
M  V30 8883 C 857.524 1.65721 3.05211 0
M  V30 8884 C 856.478 2.80097 3.2362 0
M  V30 8885 C 855.804 2.67272 4.63109 0
M  V30 8886 C 857.104 4.21612 3.08286 0
M  V30 8887 H 858.798 2.57049 1.53512 0
M  V30 8888 H 856.344 1.23705 0.737099 0
M  V30 8889 H 858.297 1.75451 3.83138 0
M  V30 8890 H 857.021 0.688593 3.19258 0
M  V30 8891 H 855.68 2.69889 2.48104 0
M  V30 8892 H 855.328 1.68422 4.73965 0
M  V30 8893 H 855.028 3.44008 4.76374 0
M  V30 8894 H 856.552 2.78942 5.43161 0
M  V30 8895 H 857.966 4.32758 3.76024 0
M  V30 8896 H 856.363 4.99193 3.33057 0
M  V30 8897 H 857.433 4.39462 2.04942 0
M  V30 8898 N 858.776 -0.797141 1.35954 0
M  V30 8899 C 860.024 -1.55161 1.29497 0
M  V30 8900 C 860.345 -1.94582 -0.127659 0
M  V30 8901 O 859.615 -1.64343 -1.06622 0
M  V30 8902 H 858.195 -0.575413 0.47635 0
M  V30 8903 H 860.857 -0.950282 1.70164 0
M  V30 8904 H 859.953 -2.46272 1.9172 0
M  V30 8905 N 860.254 -1.20106 -1.0204 0
M  V30 8906 C 861.67 -0.955099 -1.27867 0
M  V30 8907 C 861.87 0.367595 -1.98119 0
M  V30 8908 O 860.926 1.09705 -2.27423 0
M  V30 8909 C 862.239 -2.13507 -2.11744 0
M  V30 8910 C 863.787 -2.17563 -2.25023 0
M  V30 8911 C 864.262 -3.35035 -3.12275 0
M  V30 8912 N 865.753 -3.35024 -3.19864 0
M  V30 8913 C 866.488 -4.22566 -3.8759 0
M  V30 8914 N 865.984 -5.20278 -4.57474 0
M  V30 8915 N 867.777 -4.10418 -3.84075 0
M  V30 8916 H 859.928 -2.05193 -0.54861 0
M  V30 8917 H 862.191 -0.897689 -0.304728 0
M  V30 8918 H 861.897 -3.09275 -1.67456 0
M  V30 8919 H 861.771 -2.11281 -3.12474 0
M  V30 8920 H 864.158 -1.22359 -2.68537 0
M  V30 8921 H 864.239 -2.23838 -1.23815 0
M  V30 8922 H 863.883 -4.30522 -2.69468 0
M  V30 8923 H 863.813 -3.25996 -4.13563 0
M  V30 8924 H 866.304 -2.64299 -2.701 0
M  V30 8925 H 866.617 -5.83408 -5.06809 0
M  V30 8926 H 864.962 -5.24219 -4.56311 0
M  V30 8927 H 868.153 -3.33353 -3.28623 0
M  V30 8928 H 868.326 -4.78854 -4.36581 0
M  V30 8929 N 861.732 1.21287 -1.00634 0
M  V30 8930 C 862.68 2.25733 -0.561026 0
M  V30 8931 C 863.674 1.64728 0.395095 0
M  V30 8932 O 864.88 1.78022 0.266141 0
M  V30 8933 H 861.255 0.734104 -0.163081 0
M  V30 8934 H 863.226 2.60631 -1.45307 0
M  V30 8935 C 861.975 3.47569 0.0952587 0
M  V30 8936 H 861.298 3.94782 -0.631427 0
M  V30 8937 H 862.738 4.22382 0.370105 0
M  V30 8938 C 861.197 3.09326 1.33488 0
M  V30 8939 O 861.727 3.19933 2.42912 0
M  V30 8940 N 859.933 2.63976 1.21512 0
M  V30 8941 H 859.48 2.55545 0.324741 0
M  V30 8942 H 859.438 2.38757 2.04555 0
M  V30 8943 N 863.21 0.781244 1.36873 0
M  V30 8944 C 864.157 0.172146 2.30157 0
M  V30 8945 C 865.127 -0.679328 1.51573 0
M  V30 8946 O 866.312 -0.629713 1.80109 0
M  V30 8947 C 863.452 -0.693534 3.38059 0
M  V30 8948 C 862.565 0.175586 4.31643 0
M  V30 8949 C 861.7 -0.695695 5.26625 0
M  V30 8950 C 860.739 0.17538 6.11849 0
M  V30 8951 N 859.876 -0.654416 6.99043 0
M  V30 8952 H 864.716 0.973133 2.81663 0
M  V30 8953 H 862.253 0.491469 1.38647 0
M  V30 8954 H 864.211 -1.21035 3.99257 0
M  V30 8955 H 862.841 -1.46003 2.87894 0
M  V30 8956 H 861.893 0.810295 3.7167 0
M  V30 8957 H 863.205 0.847107 4.91554 0
M  V30 8958 H 862.359 -1.27863 5.93073 0
M  V30 8959 H 861.098 -1.40087 4.67148 0
M  V30 8960 H 860.103 0.77078 5.4437 0
M  V30 8961 H 861.328 0.87803 6.734 0
M  V30 8962 H 859.274 -1.34403 6.42084 0
M  V30 8963 H 859.191 -0.0403998 7.55989 0
M  V30 8964 H 860.459 -1.22144 7.69871 0
M  V30 8965 N 864.689 -1.48329 0.532571 0
M  V30 8966 C 865.637 -2.31336 -0.242133 0
M  V30 8967 C 866.631 -1.41391 -0.933006 0
M  V30 8968 O 867.837 -1.58284 -0.857096 0
M  V30 8969 H 864.212 -0.745724 -0.0969536 0
M  V30 8970 H 866.183 -2.94555 0.477504 0
M  V30 8971 C 864.932 -3.23501 -1.27446 0
M  V30 8972 H 864.255 -3.92659 -0.752261 0
M  V30 8973 H 865.695 -3.84461 -1.78789 0
M  V30 8974 C 864.154 -2.45288 -2.30944 0
M  V30 8975 O 864.684 -2.17955 -3.37429 0
M  V30 8976 N 862.89 -2.06737 -2.04226 0
M  V30 8977 H 862.437 -2.29166 -1.17647 0
M  V30 8978 H 862.395 -1.54719 -2.73696 0
M  V30 8979 N 866.167 -0.267825 -1.55308 0
M  V30 8980 C 867.077 0.633055 -2.25897 0
M  V30 8981 C 868.093 1.17613 -1.28231 0
M  V30 8982 O 869.269 1.20797 -1.61153 0
M  V30 8983 C 866.334 1.80397 -2.96071 0
M  V30 8984 C 865.395 1.29829 -4.09198 0
M  V30 8985 C 864.628 2.4134 -4.76016 0
M  V30 8986 O 864.851 3.60537 -4.42006 0
M  V30 8987 O 863.785 2.09909 -5.64111 0
M  V30 8988 H 867.611 0.0614381 -3.03638 0
M  V30 8989 H 865.196 -0.0355072 -1.49358 0
M  V30 8990 H 867.078 2.48685 -3.40197 0
M  V30 8991 H 865.753 2.36281 -2.21253 0
M  V30 8992 H 864.66 0.582086 -3.69544 0
M  V30 8993 H 865.993 0.785288 -4.85895 0
M  V30 8994 N 867.645 1.57599 0.00500368 0
M  V30 8995 C 868.575 2.11143 0.99705 0
M  V30 8996 C 869.556 1.0194 1.3617 0
M  V30 8997 O 870.741 1.29596 1.44632 0
M  V30 8998 C 867.871 2.61062 2.2905 0
M  V30 8999 C 866.825 3.74745 2.0676 0
M  V30 9000 C 866.151 4.10961 3.42075 0
M  V30 9001 C 867.451 5.02222 1.43424 0
M  V30 9002 H 869.145 2.94281 0.551251 0
M  V30 9003 H 866.691 1.41565 0.263715 0
M  V30 9004 H 868.644 2.97146 2.98801 0
M  V30 9005 H 867.368 1.75038 2.75734 0
M  V30 9006 H 866.027 3.39047 1.39436 0
M  V30 9007 H 865.675 3.21968 3.86453 0
M  V30 9008 H 865.375 4.87549 3.27979 0
M  V30 9009 H 866.899 4.49599 4.1315 0
M  V30 9010 H 868.313 5.36109 2.03125 0
M  V30 9011 H 866.71 5.83581 1.39831 0
M  V30 9012 H 867.78 4.83224 0.40285 0
M  V30 9013 N 869.123 -0.277682 1.55134 0
M  V30 9014 C 870.033 -1.36524 1.90783 0
M  V30 9015 C 871.049 -1.54283 0.804542 0
M  V30 9016 O 872.225 -1.68499 1.10318 0
M  V30 9017 C 869.29 -2.70524 2.16835 0
M  V30 9018 C 868.351 -2.61552 3.40424 0
M  V30 9019 C 867.584 -3.89162 3.65224 0
M  V30 9020 O 867.807 -4.89624 2.92616 0
M  V30 9021 O 866.741 -3.89647 4.58758 0
M  V30 9022 H 870.567 -1.0929 2.83354 0
M  V30 9023 H 868.152 -0.475799 1.41621 0
M  V30 9024 H 870.034 -3.49765 2.35038 0
M  V30 9025 H 868.709 -2.97555 1.27448 0
M  V30 9026 H 867.616 -1.80704 3.27562 0
M  V30 9027 H 868.949 -2.39472 4.30016 0
M  V30 9028 N 870.601 -1.47988 -0.541979 0
M  V30 9029 C 871.849 -1.55086 -1.29587 0
M  V30 9030 C 872.17 -0.221304 -1.9374 0
M  V30 9031 O 871.44 0.756128 -1.80719 0
M  V30 9032 H 870.02 -0.571307 -0.481266 0
M  V30 9033 H 872.682 -1.8438 -0.631675 0
M  V30 9034 H 871.778 -2.32556 -2.08144 0
M  V30 9035 N 872.079 0.78992 -1.36375 0
M  V30 9036 C 873.325 1.54939 -1.31778 0
M  V30 9037 C 873.68 1.92128 0.102327 0
M  V30 9038 O 872.973 1.59823 1.05675 0
M  V30 9039 C 873.167 2.83698 -2.17371 0
M  V30 9040 C 872.996 2.59093 -3.67561 0
M  V30 9041 C 871.766 2.5414 -4.36739 0
M  V30 9042 C 873.964 2.28325 -4.60838 0
M  V30 9043 N 871.946 2.21427 -5.72576 0
M  V30 9044 C 873.317 2.05596 -5.84919 0
M  V30 9045 C 875.372 2.14328 -4.49409 0
M  V30 9046 C 874.075 1.70285 -6.98853 0
M  V30 9047 C 876.101 1.80415 -5.63209 0
M  V30 9048 C 875.463 1.58533 -6.86328 0
M  V30 9049 H 871.562 0.568011 -0.537483 0
M  V30 9050 H 874.146 0.923183 -1.71422 0
M  V30 9051 H 872.317 3.44187 -1.79972 0
M  V30 9052 H 874.049 3.49425 -2.04167 0
M  V30 9053 H 870.804 2.69368 -3.89535 0
M  V30 9054 H 871.228 2.07818 -6.44314 0
M  V30 9055 H 875.87 2.29935 -3.54809 0
M  V30 9056 H 873.588 1.53415 -7.93404 0
M  V30 9057 H 877.174 1.70269 -5.56327 0
M  V30 9058 H 876.054 1.32677 -7.72895 0
M  V30 9059 N 873.557 1.20646 1.01402 0
M  V30 9060 C 874.805 1.01618 1.74695 0
M  V30 9061 C 875.126 -0.452438 1.89679 0
M  V30 9062 O 874.396 -1.32693 1.44116 0
M  V30 9063 H 872.976 0.373013 0.647202 0
M  V30 9064 H 875.638 1.518 1.22241 0
M  V30 9065 H 874.734 1.47666 2.74957 0
M  V30 9066 N 875.035 -1.20752 1.01276 0
M  V30 9067 C 876.451 -1.42084 0.726934 0
M  V30 9068 C 876.651 -1.89138 -0.694907 0
M  V30 9069 O 875.707 -2.05783 -1.4632 0
M  V30 9070 C 877.02 -2.44575 1.74938 0
M  V30 9071 C 878.568 -2.58347 1.76708 0
M  V30 9072 C 879.043 -3.64078 2.77869 0
M  V30 9073 N 880.534 -3.71558 2.76585 0
M  V30 9074 C 881.269 -4.53016 3.51517 0
M  V30 9075 N 880.765 -5.38309 4.36114 0
M  V30 9076 N 882.558 -4.47512 3.40132 0
M  V30 9077 H 874.709 -0.885228 1.93074 0
M  V30 9078 H 876.972 -0.451075 0.833808 0
M  V30 9079 H 876.678 -2.1699 2.76782 0
M  V30 9080 H 876.552 -3.43503 1.55838 0
M  V30 9081 H 878.939 -2.85265 0.755516 0
M  V30 9082 H 879.02 -1.59628 1.99882 0
M  V30 9083 H 878.664 -3.37905 3.79187 0
M  V30 9084 H 878.594 -4.62412 2.51958 0
M  V30 9085 H 881.085 -3.10629 2.15216 0
M  V30 9086 H 881.398 -5.9754 4.90068 0
M  V30 9087 H 879.743 -5.37824 4.40194 0
M  V30 9088 H 882.934 -3.79912 2.73467 0
M  V30 9089 H 883.107 -5.10759 3.98784 0
M  V30 9090 N 876.513 -0.788492 -1.36457 0
M  V30 9091 C 877.761 -0.359749 -1.98872 0
M  V30 9092 C 878.082 1.07197 -1.62892 0
M  V30 9093 O 877.352 1.73875 -0.902463 0
M  V30 9094 H 875.932 -0.130029 -0.735596 0
M  V30 9095 H 878.594 -1.01033 -1.66668 0
M  V30 9096 H 877.69 -0.450835 -3.08827 0
M  V30 9097 N 877.991 1.48044 -0.54043 0
M  V30 9098 C 879.237 2.02797 -0.0101718 0
M  V30 9099 C 879.57 1.41565 1.32939 0
M  V30 9100 O 878.845 0.565139 1.86109 0
M  V30 9101 C 879.128 3.59959 0.100758 0
M  V30 9102 C 878.981 4.31654 -1.26471 0
M  V30 9103 C 880.3 4.32347 0.822455 0
M  V30 9104 H 877.419 0.736982 -0.00517052 0
M  V30 9105 H 880.061 1.76656 -0.69948 0
M  V30 9106 H 878.211 3.82363 0.687824 0
M  V30 9107 H 879.883 4.20639 -1.89369 0
M  V30 9108 H 878.126 3.92663 -1.84386 0
M  V30 9109 H 878.797 5.401 -1.13998 0
M  V30 9110 H 881.273 4.14835 0.324164 0
M  V30 9111 H 880.149 5.41978 0.868993 0
M  V30 9112 H 880.41 4.00369 1.87501 0
M  V30 9113 N 879.47 0.276058 1.55163 0
M  V30 9114 C 880.7 -0.343274 2.03728 0
M  V30 9115 C 881.108 -1.49945 1.15383 0
M  V30 9116 O 880.451 -1.82942 0.166696 0
M  V30 9117 C 880.513 -0.885683 3.48419 0
M  V30 9118 C 880.177 0.141976 4.56779 0
M  V30 9119 C 881.174 0.961816 5.10926 0
M  V30 9120 C 878.859 0.276487 5.01538 0
M  V30 9121 C 880.853 1.90234 6.0835 0
M  V30 9122 C 878.54 1.22049 5.98788 0
M  V30 9123 C 879.538 2.03192 6.52075 0
M  V30 9124 O 879.226 2.95996 7.47423 0
M  V30 9125 H 878.958 -0.0822192 0.670981 0
M  V30 9126 H 881.512 0.406199 2.01343 0
M  V30 9127 H 879.742 -1.68524 3.48047 0
M  V30 9128 H 881.431 -1.4182 3.80318 0
M  V30 9129 H 882.197 0.868637 4.77158 0
M  V30 9130 H 878.076 -0.345095 4.59707 0
M  V30 9131 H 881.62 2.5361 6.49867 0
M  V30 9132 H 877.517 1.31448 6.31974 0
M  V30 9133 H 878.285 2.90688 7.65142 0
M  V30 9134 N 880.948 -1.576 0.00335426 0
M  V30 9135 C 882.197 -1.89892 -0.680001 0
M  V30 9136 C 882.51 -0.878731 -1.7475 0
M  V30 9137 O 883.716 -1.09199 -2.48572 0
M  V30 9138 C 882.172 -3.37098 -1.26066 0
M  V30 9139 C 881.78 -4.4742 -0.227807 0
M  V30 9140 C 883.524 -3.78495 -1.92202 0
M  V30 9141 C 881.431 -5.85706 -0.81865 0
M  V30 9142 H 880.361 -0.708578 -0.257746 0
M  V30 9143 H 883.012 -1.83387 0.0644472 0
M  V30 9144 H 881.394 -3.38451 -2.05589 0
M  V30 9145 H 882.568 -4.57589 0.54307 0
M  V30 9146 H 880.883 -4.15064 0.333297 0
M  V30 9147 H 883.48 -4.7915 -2.37318 0
M  V30 9148 H 883.823 -3.12187 -2.75399 0
M  V30 9149 H 884.356 -3.79456 -1.19408 0
M  V30 9150 H 881.095 -6.55495 -0.0253787 0
M  V30 9151 H 880.615 -5.79196 -1.55861 0
M  V30 9152 H 882.294 -6.33469 -1.31627 0
M  V30 9153 N 882.426 0.269451 -1.5528 0
M  V30 9154 C 883.842 0.616827 -1.47199 0
M  V30 9155 C 884.042 1.89354 -0.68901 0
M  V30 9156 O 883.098 2.51631 -0.209287 0
M  V30 9157 C 884.411 0.740492 -2.9144 0
M  V30 9158 C 885.959 0.834312 -3.01676 0
M  V30 9159 C 886.434 0.989725 -4.47178 0
M  V30 9160 N 887.925 1.05516 -4.51022 0
M  V30 9161 C 888.66 1.19427 -5.60825 0
M  V30 9162 N 888.156 1.30035 -6.80487 0
M  V30 9163 N 889.949 1.22566 -5.48575 0
M  V30 9164 H 882.1 -0.568962 -2.04638 0
M  V30 9165 H 884.363 -0.193153 -0.928114 0
M  V30 9166 H 884.069 -0.127234 -3.5147 0
M  V30 9167 H 883.943 1.61965 -3.40657 0
M  V30 9168 H 886.33 1.6925 -2.4174 0
M  V30 9169 H 886.411 -0.0695298 -2.55705 0
M  V30 9170 H 886.055 0.136179 -5.07717 0
M  V30 9171 H 885.985 1.90827 -4.90808 0
M  V30 9172 H 888.476 0.985434 -3.64825 0
M  V30 9173 H 888.789 1.40494 -7.59922 0
M  V30 9174 H 887.134 1.27033 -6.83292 0
M  V30 9175 H 890.325 1.13911 -4.54029 0
M  V30 9176 H 890.498 1.33063 -6.34191 0
M  V30 9177 O 883.943 1.56071 0.415215 0
M  V30 9178 H 884.634 1.61595 1.06803 0
M  V30 END ATOM
M  V30 BEGIN BOND
M  V30 END BOND
M  V30 END CTAB
M  END
$$$$
