drugbank_target|Q96Q83 Alpha-ketoglutarate-dependent dioxygenase alkB homolog 3 (DB00126)
 OpenBabel12092120073D

  0  0  0     0  0            999 V3000
M  V30 BEGIN CTAB
M  V30 COUNTS 4656 4727 0 0 0
M  V30 BEGIN ATOM
M  V30 1 H -0.908 1.98254 -0.117106 0
M  V30 2 N 0 1.576 0 0
M  V30 3 C 0.933 2.03868 1.02534 0
M  V30 4 C 1.911 0.928543 1.3348 0
M  V30 5 O 3.095 1.19667 1.45644 0
M  V30 6 C 0.222 2.43627 2.35294 0
M  V30 7 C -0.732 3.65373 2.2001 0
M  V30 8 S 0.101 5.13292 1.52614 0
M  V30 9 C 1.257 5.56322 2.86805 0
M  V30 10 H 1.49 2.90518 0.631377 0
M  V30 11 H -0.977 1.52953 0.210867 0
M  V30 12 H 0.981 2.67203 3.11629 0
M  V30 13 H -0.358 1.57376 2.7183 0
M  V30 14 H -1.165 3.90944 3.18086 0
M  V30 15 H -1.563 3.418 1.51819 0
M  V30 16 H 0.729 5.58782 3.83104 0
M  V30 17 H 1.672 6.56266 2.65933 0
M  V30 18 H 2.08 4.83886 2.90714 0
M  V30 19 N 1.4781 -0.272755 1.55222 0
M  V30 20 C 2.3881 -1.35918 1.91216 0
M  V30 21 C 3.4041 -1.54026 0.809436 0
M  V30 22 O 4.5801 -1.68148 1.10852 0
M  V30 23 C 1.6451 -2.69834 2.17693 0
M  V30 24 C 0.7061 -2.6047 3.41253 0
M  V30 25 C -0.0609 -3.88 3.66458 0
M  V30 26 O 0.1621 -4.88693 2.94169 0
M  V30 27 O -0.9039 -3.88189 4.59992 0
M  V30 28 H 2.9221 -1.0839 2.83699 0
M  V30 29 H 0.5071 -0.471301 1.41771 0
M  V30 30 H 2.3891 -3.49017 2.36147 0
M  V30 31 H 1.0641 -2.97148 1.28392 0
M  V30 32 H -0.0289 -1.79663 3.28134 0
M  V30 33 H 1.3041 -2.38106 4.30774 0
M  V30 34 N 2.9562 -1.48159 -0.537278 0
M  V30 35 C 3.8662 -1.64807 -1.6696 0
M  V30 36 C 4.8822 -0.530651 -1.65711 0
M  V30 37 O 6.0582 -0.800784 -1.84796 0
M  V30 38 C 3.1232 -1.67708 -3.03438 0
M  V30 39 C 2.1842 -2.91025 -3.156 0
M  V30 40 C 1.4172 -2.93778 -4.45567 0
M  V30 41 O 1.6402 -2.05153 -5.3223 0
M  V30 42 O 0.5742 -3.85868 -4.61941 0
M  V30 43 H 4.4002 -2.6066 -1.55853 0
M  V30 44 H 1.9852 -1.31475 -0.709549 0
M  V30 45 H 3.8672 -1.7218 -3.84619 0
M  V30 46 H 2.5422 -0.750278 -3.14885 0
M  V30 47 H 1.4492 -2.92089 -2.33741 0
M  V30 48 H 2.7822 -3.83065 -3.09066 0
M  V30 49 N 4.4343 0.785586 -1.36625 0
M  V30 50 C 5.3813 1.89838 -1.31264 0
M  V30 51 C 6.3513 1.65115 -0.180633 0
M  V30 52 O 7.5363 1.87222 -0.36777 0
M  V30 53 C 4.6763 3.26706 -1.11163 0
M  V30 54 C 3.7893 3.63476 -2.33472 0
M  V30 55 C 2.9243 4.89481 -2.06353 0
M  V30 56 C 1.9633 5.18941 -3.24602 0
M  V30 57 N 1.1003 6.36131 -2.97123 0
M  V30 58 H 5.9403 1.93756 -2.26413 0
M  V30 59 H 3.4773 0.947454 -1.12524 0
M  V30 60 H 5.4353 4.05639 -0.975337 0
M  V30 61 H 4.0653 3.222 -0.196674 0
M  V30 62 H 3.1173 2.79636 -2.57891 0
M  V30 63 H 4.4293 3.81193 -3.21704 0
M  V30 64 H 3.5833 5.76288 -1.89675 0
M  V30 65 H 2.3223 4.73841 -1.15437 0
M  V30 66 H 1.3273 4.30615 -3.41834 0
M  V30 67 H 2.5523 5.36498 -4.16349 0
M  V30 68 H 0.4983 6.21875 -2.08823 0
M  V30 69 H 0.4153 6.54198 -3.78894 0
M  V30 70 H 1.6833 7.2591 -2.84033 0
M  V30 71 N 5.9124 1.20967 1.01018 0
M  V30 72 C 7.3284 0.965905 1.27053 0
M  V30 73 C 7.5284 -0.350785 1.98423 0
M  V30 74 O 6.5844 -1.07773 2.28344 0
M  V30 75 C 7.8974 2.15294 2.09926 0
M  V30 76 C 9.4454 2.19463 2.23171 0
M  V30 77 C 9.9204 3.3767 3.09424 0
M  V30 78 N 11.4114 3.37724 3.17012 0
M  V30 79 C 12.1464 4.25837 3.83993 0
M  V30 80 N 11.6424 5.24138 4.53047 0
M  V30 81 N 13.4354 4.1366 3.80581 0
M  V30 82 H 5.5864 2.0565 0.531194 0
M  V30 83 H 7.8494 0.90024 0.297106 0
M  V30 84 H 7.5554 3.10684 1.64828 0
M  V30 85 H 7.4294 2.13923 3.10672 0
M  V30 86 H 9.8164 1.24632 2.6749 0
M  V30 87 H 9.8974 2.2488 1.21912 0
M  V30 88 H 9.5414 4.32791 2.65808 0
M  V30 89 H 9.4714 3.29491 4.10784 0
M  V30 90 H 11.9624 2.6658 2.6785 0
M  V30 91 H 12.2754 5.87684 5.01844 0
M  V30 92 H 10.6204 5.28068 4.5185 0
M  V30 93 H 13.8114 3.36127 3.25785 0
M  V30 94 H 13.9844 4.82538 4.32505 0
M  V30 95 N 7.3905 -1.2043 1.01659 0
M  V30 96 C 8.8065 -1.41852 0.731442 0
M  V30 97 C 9.0065 -1.89358 -0.688898 0
M  V30 98 O 8.0625 -2.06247 -1.45666 0
M  V30 99 C 9.3755 -2.44019 1.75714 0
M  V30 100 C 10.9235 -2.57785 1.77527 0
M  V30 101 C 11.3985 -3.63194 2.79023 0
M  V30 102 N 12.8895 -3.70678 2.77763 0
M  V30 103 C 13.6245 -4.51897 3.52954 0
M  V30 104 N 13.1205 -5.36921 4.37821 0
M  V30 105 N 14.9135 -4.4643 3.41551 0
M  V30 106 H 7.0645 -0.879093 1.93354 0
M  V30 107 H 9.3275 -0.448425 0.835236 0
M  V30 108 H 9.0335 -2.1611 2.77469 0
M  V30 109 H 8.9075 -3.43007 1.56927 0
M  V30 110 H 11.2945 -2.85023 0.764569 0
M  V30 111 H 11.3755 -1.58992 2.00387 0
M  V30 112 H 11.0195 -3.36699 3.80258 0
M  V30 113 H 10.9495 -4.61609 2.53425 0
M  V30 114 H 13.4405 -3.09944 2.16201 0
M  V30 115 H 13.7535 -5.95981 4.91962 0
M  V30 116 H 12.0985 -5.36424 4.41899 0
M  V30 117 H 15.2895 -3.79042 2.74672 0
M  V30 118 H 15.4625 -5.09491 4.00404 0
M  V30 119 N 8.8686 -0.792821 -1.36206 0
M  V30 120 C 10.2846 -0.474903 -1.52371 0
M  V30 121 C 10.4846 1.00622 -1.74578 0
M  V30 122 O 9.5406 1.79162 -1.77924 0
M  V30 123 C 10.8536 -1.3083 -2.70747 0
M  V30 124 C 12.4016 -1.30234 -2.84619 0
M  V30 125 C 12.8766 -2.11956 -4.06004 0
M  V30 126 N 14.3676 -2.09419 -4.13156 0
M  V30 127 C 15.1026 -2.69419 -5.06163 0
M  V30 128 N 14.5986 -3.3829 -6.04592 0
M  V30 129 N 16.3916 -2.59134 -4.98804 0
M  V30 130 H 8.5426 -1.75222 -1.20046 0
M  V30 131 H 10.8056 -0.745024 -0.586211 0
M  V30 132 H 10.5116 -2.35881 -2.6087 0
M  V30 133 H 10.3856 -0.95196 -3.6499 0
M  V30 134 H 12.7726 -0.259748 -2.93955 0
M  V30 135 H 12.8536 -1.69847 -1.91274 0
M  V30 136 H 12.4976 -3.16248 -3.97429 0
M  V30 137 H 12.4276 -1.69711 -4.98503 0
M  V30 138 H 14.9186 -1.59297 -3.42685 0
M  V30 139 H 15.2316 -3.81394 -6.7213 0
M  V30 140 H 13.5766 -3.42393 -6.04807 0
M  V30 141 H 16.7676 -2.04927 -4.20859 0
M  V30 142 H 16.9406 -3.06185 -5.711 0
M  V30 143 N 10.3467 1.47872 -0.545128 0
M  V30 144 C 11.3097 2.28337 0.198717 0
M  V30 145 C 12.3097 1.36255 0.853888 0
M  V30 146 O 13.4997 1.59003 0.711606 0
M  V30 147 C 10.6317 3.15585 1.28915 0
M  V30 148 H 11.8247 2.95567 -0.507941 0
M  V30 149 H 9.3777 1.53362 -0.301616 0
M  V30 150 H 10.1127 2.53019 2.02859 0
M  V30 151 H 9.8977 3.83337 0.824309 0
M  V30 152 H 11.3877 3.76243 1.81194 0
M  V30 153 N 11.8248 0.280983 1.55075 0
M  V30 154 C 13.2408 -0.0729964 1.59433 0
M  V30 155 C 13.4408 -1.5411 1.29817 0
M  V30 156 O 12.4968 -2.29086 1.06187 0
M  V30 157 C 13.8098 0.306921 2.9913 0
M  V30 158 C 15.3578 0.254023 3.11968 0
M  V30 159 C 15.8328 0.608467 4.5394 0
M  V30 160 N 17.3238 0.560241 4.59799 0
M  V30 161 C 18.0588 0.80722 5.6769 0
M  V30 162 N 17.5548 1.11912 6.83701 0
M  V30 163 N 19.3478 0.735623 5.57266 0
M  V30 164 H 11.4988 1.238 1.7259 0
M  V30 165 H 13.7618 0.500547 0.805082 0
M  V30 166 H 13.4678 1.32816 3.25657 0
M  V30 167 H 13.3418 -0.349363 3.75579 0
M  V30 168 H 15.7288 -0.75794 2.852 0
M  V30 169 H 15.8098 0.944649 2.37718 0
M  V30 170 H 15.4538 1.61814 4.81434 0
M  V30 171 H 15.3838 -0.104013 5.26497 0
M  V30 172 H 17.8748 0.329288 3.76463 0
M  V30 173 H 18.1878 1.29409 7.61888 0
M  V30 174 H 16.5328 1.15695 6.85303 0
M  V30 175 H 19.7238 0.491752 4.6551 0
M  V30 176 H 19.8968 0.931482 6.4127 0
M  V30 177 N 13.3029 -1.57598 0.00835791 0
M  V30 178 C 14.5489 -1.91211 -0.675732 0
M  V30 179 C 14.8819 -0.883139 -1.72958 0
M  V30 180 O 14.1569 0.097016 -1.94258 0
M  V30 181 C 14.4399 -3.35379 -1.31123 0
M  V30 182 C 14.2929 -4.48999 -0.268356 0
M  V30 183 C 15.6119 -3.7912 -2.23508 0
M  V30 184 H 12.7309 -0.695374 -0.244179 0
M  V30 185 H 15.3729 -1.89901 0.0613655 0
M  V30 186 H 13.5229 -3.36626 -1.93946 0
M  V30 187 H 15.1949 -4.59887 0.360844 0
M  V30 188 H 13.4379 -4.31873 0.408482 0
M  V30 189 H 14.1089 -5.46851 -0.752218 0
M  V30 190 H 16.5849 -3.79477 -1.70693 0
M  V30 191 H 15.4609 -4.80729 -2.64936 0
M  V30 192 H 15.7219 -3.13455 -3.11766 0
M  V30 193 N 14.781 0.264519 -1.55364 0
M  V30 194 C 15.713 1.34965 -1.85248 0
M  V30 195 C 16.726 1.45136 -0.737525 0
M  V30 196 O 17.915 1.46801 -1.01547 0
M  V30 197 C 15.015 2.73008 -2.00797 0
M  V30 198 C 14.188 2.85324 -3.31525 0
M  V30 199 C 13.247 4.04097 -3.37034 0
M  V30 200 O 12.273 3.94455 -4.10358 0
M  V30 201 N 13.475 5.16458 -2.65049 0
M  V30 202 H 16.24 1.09672 -2.78913 0
M  V30 203 H 13.801 0.454635 -1.55386 0
M  V30 204 H 15.793 3.50772 -2.01844 0
M  V30 205 H 14.363 2.91087 -1.1396 0
M  V30 206 H 13.583 1.94377 -3.42945 0
M  V30 207 H 14.871 2.9049 -4.17724 0
M  V30 208 H 14.269 5.27181 -2.05175 0
M  V30 209 H 12.826 5.92422 -2.71809 0
M  V30 210 N 16.2591 1.48442 0.529413 0
M  V30 211 C 17.5071 1.56179 1.28267 0
M  V30 212 C 17.8281 0.237721 1.93546 0
M  V30 213 O 17.0981 -0.740779 1.81354 0
M  V30 214 H 15.6781 0.575367 0.476405 0
M  V30 215 H 18.3401 1.84909 0.61602 0
M  V30 216 H 17.4361 2.34312 2.06165 0
M  V30 217 N 17.7372 -0.778329 1.37039 0
M  V30 218 C 18.7002 -1.87301 1.32102 0
M  V30 219 C 19.7002 -1.59198 0.226405 0
M  V30 220 O 20.8902 -1.67403 0.481861 0
M  V30 221 C 18.0222 -3.24309 1.05055 0
M  V30 222 H 19.2152 -1.93093 2.29467 0
M  V30 223 H 16.7682 -0.977358 1.21973 0
M  V30 224 H 17.5032 -3.24196 0.0819373 0
M  V30 225 H 17.2882 -3.46098 1.84279 0
M  V30 226 H 18.7782 -4.04382 1.04234 0
M  V30 227 N 19.2153 -1.21501 -1.00376 0
M  V30 228 C 20.4613 -1.04457 -1.74529 0
M  V30 229 C 20.8163 0.417386 -1.87818 0
M  V30 230 O 20.1093 1.30556 -1.40234 0
M  V30 231 C 20.3033 -1.67673 -3.15627 0
M  V30 232 C 20.1323 -3.19865 -3.16096 0
M  V30 233 C 18.9023 -3.88915 -3.22604 0
M  V30 234 C 21.1003 -4.16936 -3.01112 0
M  V30 235 N 19.0823 -5.28284 -3.12712 0
M  V30 236 C 20.4533 -5.43066 -2.99131 0
M  V30 237 C 22.5083 -4.07968 -2.85423 0
M  V30 238 C 21.2113 -6.6126 -2.83068 0
M  V30 239 C 23.2373 -5.258 -2.70718 0
M  V30 240 C 22.5993 -6.50842 -2.69414 0
M  V30 241 H 18.6983 -0.436584 -0.648782 0
M  V30 242 H 21.2823 -1.53875 -1.19293 0
M  V30 243 H 19.4533 -1.20822 -3.6913 0
M  V30 244 H 21.1853 -1.43824 -3.78281 0
M  V30 245 H 17.9403 -3.39847 -3.2985 0
M  V30 246 H 18.3643 -6.01284 -3.11105 0
M  V30 247 H 23.0063 -3.1209 -2.85236 0
M  V30 248 H 20.7243 -7.57298 -2.82002 0
M  V30 249 H 24.3103 -5.20683 -2.59577 0
M  V30 250 H 23.1903 -7.40485 -2.5817 0
M  V30 251 N 20.6934 1.19889 -1.02296 0
M  V30 252 C 21.6564 2.21116 -0.603351 0
M  V30 253 C 22.6564 1.5738 0.329884 0
M  V30 254 O 23.8464 1.73802 0.117702 0
M  V30 255 C 20.9784 3.40696 0.117992 0
M  V30 256 H 22.1714 2.59754 -1.49893 0
M  V30 257 H 19.7244 1.33463 -0.813468 0
M  V30 258 H 20.4594 3.07569 1.0282 0
M  V30 259 H 20.2444 3.88188 -0.552511 0
M  V30 260 H 21.7344 4.15692 0.398696 0
M  V30 261 N 22.1715 0.800033 1.35784 0
M  V30 262 C 23.1345 0.211565 2.28221 0
M  V30 263 C 24.1345 -0.59728 1.49296 0
M  V30 264 O 25.3245 -0.416721 1.69142 0
M  V30 265 C 22.4565 -0.705846 3.33513 0
M  V30 266 H 23.6495 1.02677 2.81776 0
M  V30 267 H 21.2025 0.570211 1.45528 0
M  V30 268 H 21.9375 -1.54498 2.85133 0
M  V30 269 H 21.7225 -0.127655 3.91892 0
M  V30 270 H 23.2125 -1.11211 4.02519 0
M  V30 271 N 23.6496 -1.47581 0.552962 0
M  V30 272 C 25.0606 -1.86324 0.118463 0
M  V30 273 C 25.4116 -1.46006 -1.3106 0
M  V30 274 O 24.5366 -0.861182 -1.98526 0
M  V30 275 C 25.1316 -3.3816 0.20821 0
M  V30 276 C 23.6906 -3.7601 -0.171226 0
M  V30 277 C 22.8376 -2.71634 0.557686 0
M  V30 278 H 25.7886 -1.39159 0.762928 0
M  V30 279 H 25.8096 -3.76141 -0.574278 0
M  V30 280 H 25.3216 -3.67473 1.24841 0
M  V30 281 H 23.4226 -3.52313 -1.21269 0
M  V30 282 H 23.5356 -4.78745 0.184379 0
M  V30 283 H 21.8996 -2.547 0.00125792 0
M  V30 284 H 22.6826 -3.0379 1.59896 0
M  V30 285 N 25.1277 -0.289203 -1.54924 0
M  V30 286 C 26.3737 0.323998 -2.00195 0
M  V30 287 C 26.7067 1.54441 -1.17735 0
M  V30 288 O 25.9817 1.92875 -0.250878 0
M  V30 289 C 26.2647 0.692276 -3.53383 0
M  V30 290 C 26.1177 -0.536457 -4.46589 0
M  V30 291 C 27.4367 1.52335 -4.12895 0
M  V30 292 H 24.5557 0.116289 -0.727768 0
M  V30 293 H 27.1977 -0.398954 -1.85764 0
M  V30 294 H 25.3477 1.30822 -3.65811 0
M  V30 295 H 27.0197 -1.17499 -4.46085 0
M  V30 296 H 25.2627 -1.17192 -4.1767 0
M  V30 297 H 25.9337 -0.234806 -5.515 0
M  V30 298 H 28.4097 1.00302 -4.0383 0
M  V30 299 H 27.2857 1.74982 -5.20262 0
M  V30 300 H 27.5467 2.50886 -3.64018 0
M  V30 301 N 26.6058 1.57591 -0.0167156 0
M  V30 302 C 27.5528 2.09462 0.969251 0
M  V30 303 C 28.5228 0.99381 1.33089 0
M  V30 304 O 29.7078 1.26726 1.42636 0
M  V30 305 C 26.8478 2.61622 2.25051 0
M  V30 306 C 25.9608 3.85666 1.94642 0
M  V30 307 C 25.0958 4.26266 3.16972 0
M  V30 308 C 24.1348 5.43101 2.82326 0
M  V30 309 N 23.2718 5.78915 3.97243 0
M  V30 310 H 28.1118 2.93428 0.519997 0
M  V30 311 H 25.6488 1.45044 0.245087 0
M  V30 312 H 27.6068 2.89949 2.99976 0
M  V30 313 H 26.2368 1.80505 2.67615 0
M  V30 314 H 25.2888 3.64145 1.10013 0
M  V30 315 H 26.6008 4.70678 1.65117 0
M  V30 316 H 25.7548 4.55963 4.00228 0
M  V30 317 H 24.4938 3.39996 3.49648 0
M  V30 318 H 23.4988 5.1311 1.97479 0
M  V30 319 H 24.7238 6.3106 2.50879 0
M  V30 320 H 22.6698 4.95602 4.29785 0
M  V30 321 H 22.5868 6.58539 3.71299 0
M  V30 322 H 23.8548 6.13212 4.81239 0
M  V30 323 N 28.0839 -0.256276 1.55502 0
M  V30 324 C 29.3089 -1.00766 1.81276 0
M  V30 325 C 29.7339 -1.78524 0.59252 0
M  V30 326 O 29.0919 -1.75413 -0.45827 0
M  V30 327 C 29.1399 -1.92869 3.04687 0
M  V30 328 O 28.2439 -3.019 2.80945 0
M  V30 329 H 27.5849 -0.287224 0.598664 0
M  V30 330 H 30.1149 -0.280109 2.02674 0
M  V30 331 H 30.1249 -2.34511 3.33869 0
M  V30 332 H 28.7999 -1.35689 3.93143 0
M  V30 333 H 27.3769 -2.64454 2.62904 0
M  V30 334 N 29.562 -1.4872 -0.521534 0
M  V30 335 C 30.494 -1.59968 -1.64143 0
M  V30 336 C 31.507 -0.483463 -1.55456 0
M  V30 337 O 32.696 -0.75467 -1.61762 0
M  V30 338 C 29.796 -1.52127 -3.02838 0
M  V30 339 C 28.969 -2.78932 -3.36921 0
M  V30 340 C 28.028 -2.64428 -4.54933 0
M  V30 341 O 27.054 -3.38331 -4.57735 0
M  V30 342 N 28.256 -1.74606 -5.53618 0
M  V30 343 H 31.021 -2.56548 -1.54929 0
M  V30 344 H 28.582 -1.45551 -0.708988 0
M  V30 345 H 30.574 -1.40106 -3.79674 0
M  V30 346 H 29.144 -0.634868 -3.06085 0
M  V30 347 H 28.364 -3.05455 -2.4918 0
M  V30 348 H 29.652 -3.63041 -3.56481 0
M  V30 349 H 29.05 -1.13782 -5.54139 0
M  V30 350 H 27.607 -1.6852 -6.29638 0
M  V30 351 N 31.0401 0.771051 -1.3745 0
M  V30 352 C 32.0031 1.86598 -1.33093 0
M  V30 353 C 33.0031 1.59076 -0.234845 0
M  V30 354 O 34.1931 1.67145 -0.490732 0
M  V30 355 C 31.3251 3.23747 -1.06773 0
M  V30 356 H 32.5181 1.91873 -2.30488 0
M  V30 357 H 30.0711 0.970876 -1.2249 0
M  V30 358 H 30.8061 3.24148 -0.099129 0
M  V30 359 H 30.5911 3.45115 -1.86112 0
M  V30 360 H 32.0811 4.03824 -1.06377 0
M  V30 361 N 32.5182 1.22032 0.997298 0
M  V30 362 C 33.7672 1.03637 1.73038 0
M  V30 363 C 34.0802 -0.429475 1.90827 0
M  V30 364 O 35.2862 -0.732995 2.61418 0
M  V30 365 C 33.7422 1.80582 3.11317 0
M  V30 366 C 33.3502 3.31387 3.01474 0
M  V30 367 C 35.0942 1.70621 3.88701 0
M  V30 368 C 33.0012 4.00791 4.3488 0
M  V30 369 H 31.9312 0.384179 0.648785 0
M  V30 370 H 34.5822 1.4584 1.11368 0
M  V30 371 H 32.9642 1.31175 3.73643 0
M  V30 372 H 34.1382 3.88155 2.4834 0
M  V30 373 H 32.4532 3.41976 2.37575 0
M  V30 374 H 35.0502 2.19799 4.87434 0
M  V30 375 H 35.3932 0.665823 4.10941 0
M  V30 376 H 35.9262 2.17547 3.33044 0
M  V30 377 H 32.6652 5.05064 4.1784 0
M  V30 378 H 32.1852 3.48811 4.87945 0
M  V30 379 H 33.8642 4.06139 5.03647 0
M  V30 380 N 33.9963 -1.19345 1.0293 0
M  V30 381 C 34.9593 -2.20793 0.615069 0
M  V30 382 C 35.9593 -1.57553 -0.321533 0
M  V30 383 O 37.1493 -1.73862 -0.108483 0
M  V30 384 C 34.2813 -3.40754 -0.0999222 0
M  V30 385 H 35.4743 -2.58955 1.51269 0
M  V30 386 H 33.0273 -1.3303 0.820534 0
M  V30 387 H 33.7623 -3.0811 -1.01187 0
M  V30 388 H 33.5473 -3.87889 0.57309 0
M  V30 389 H 35.0373 -4.15898 -0.376645 0
M  V30 390 N 35.4744 -0.807222 -1.35358 0
M  V30 391 C 36.4064 -0.175717 -2.28525 0
M  V30 392 C 37.4194 0.625354 -1.5031 0
M  V30 393 O 38.6084 0.457611 -1.72535 0
M  V30 394 C 35.7084 0.773471 -3.29956 0
M  V30 395 C 34.8814 0.0186296 -4.37396 0
M  V30 396 C 33.9404 0.886395 -5.18681 0
M  V30 397 O 32.9664 0.337106 -5.68201 0
M  V30 398 N 34.1684 2.20839 -5.36852 0
M  V30 399 H 36.9334 -0.976091 -2.83359 0
M  V30 400 H 34.4944 -0.662737 -1.47714 0
M  V30 401 H 36.4864 1.35824 -3.81227 0
M  V30 402 H 35.0564 1.47465 -2.75632 0
M  V30 403 H 34.2764 -0.747349 -3.87051 0
M  V30 404 H 35.5644 -0.501577 -5.06322 0
M  V30 405 H 34.9624 2.67858 -4.98265 0
M  V30 406 H 33.5194 2.74237 -5.91301 0
M  V30 407 N 36.9525 1.47285 -0.560781 0
M  V30 408 C 38.3635 1.86258 -0.128343 0
M  V30 409 C 38.7145 1.46699 1.30284 0
M  V30 410 O 37.8395 0.871698 1.98067 0
M  V30 411 C 38.4345 3.38044 -0.22614 0
M  V30 412 C 36.9935 3.76096 0.151283 0
M  V30 413 C 36.1405 2.71335 -0.572084 0
M  V30 414 H 39.0915 1.38752 -0.770297 0
M  V30 415 H 39.1125 3.76441 0.554322 0
M  V30 416 H 38.6245 3.66806 -1.26788 0
M  V30 417 H 36.7255 3.52951 1.19399 0
M  V30 418 H 36.8385 4.78641 -0.209765 0
M  V30 419 H 35.2025 2.54696 -0.0147653 0
M  V30 420 H 35.9855 3.02938 -1.61504 0
M  V30 421 N 38.4306 0.297415 1.54768 0
M  V30 422 C 39.3936 -0.567375 2.22066 0
M  V30 423 C 40.3936 -1.06409 1.20556 0
M  V30 424 O 41.5836 -0.960691 1.45315 0
M  V30 425 C 38.7156 -1.78517 2.90421 0
M  V30 426 H 39.9086 0.0205534 2.99893 0
M  V30 427 H 37.4616 0.0482163 1.56226 0
M  V30 428 H 38.1966 -2.41303 2.16664 0
M  V30 429 H 37.9816 -1.43669 3.64831 0
M  V30 430 H 39.4716 -2.39964 3.41771 0
M  V30 431 N 39.9087 -1.5758 0.0250728 0
M  V30 432 C 41.1367 -1.9593 -0.664747 0
M  V30 433 C 41.5517 -0.901352 -1.65895 0
M  V30 434 O 40.9087 0.117255 -1.82123 0
M  V30 435 C 40.9597 -3.34342 -1.37468 0
M  V30 436 O 40.6807 -4.36079 -0.420324 0
M  V30 437 C 42.1817 -3.873 -2.1567 0
M  V30 438 H 39.4017 -0.645405 -0.183557 0
M  V30 439 H 41.9457 -2.04329 0.0836372 0
M  V30 440 H 40.1007 -3.27175 -2.0745 0
M  V30 441 H 40.5147 -5.16297 -0.923991 0
M  V30 442 H 41.9887 -4.86504 -2.60803 0
M  V30 443 H 42.4657 -3.21331 -2.99405 0
M  V30 444 H 43.0717 -3.97723 -1.50654 0
M  V30 445 N 41.3868 0.248026 -1.55636 0
M  V30 446 C 42.6148 0.993808 -1.81469 0
M  V30 447 C 43.0298 1.78991 -0.60064 0
M  V30 448 O 42.3868 1.77345 0.430682 0
M  V30 449 C 42.4378 1.93258 -3.05506 0
M  V30 450 O 42.1588 1.16869 -4.22224 0
M  V30 451 C 43.6598 2.79444 -3.4413 0
M  V30 452 H 40.8798 0.292486 -0.603898 0
M  V30 453 H 43.4238 0.271253 -2.02693 0
M  V30 454 H 41.5788 2.60943 -2.86335 0
M  V30 455 H 41.9928 1.80359 -4.92515 0
M  V30 456 H 43.4668 3.41066 -4.34026 0
M  V30 457 H 43.9438 3.50499 -2.64665 0
M  V30 458 H 44.5498 2.17214 -3.65648 0
M  V30 459 N 42.8649 1.48995 0.513639 0
M  V30 460 C 43.8279 1.64229 1.59879 0
M  V30 461 C 44.8279 0.514696 1.5234 0
M  V30 462 O 46.0179 0.78087 1.55718 0
M  V30 463 C 43.1499 1.62783 2.99524 0
M  V30 464 H 44.3429 2.61004 1.47705 0
M  V30 465 H 41.8959 1.37837 0.736936 0
M  V30 466 H 42.6309 0.675461 3.17188 0
M  V30 467 H 42.4159 2.4466 3.06404 0
M  V30 468 H 43.9059 1.76669 3.78388 0
M  V30 469 N 44.343 -0.763751 1.37857 0
M  V30 470 C 45.29 -1.87726 1.34267 0
M  V30 471 C 46.26 -1.64807 0.206879 0
M  V30 472 O 47.445 -1.86613 0.397508 0
M  V30 473 C 44.585 -3.24896 1.16346 0
M  V30 474 C 43.698 -3.59716 2.39225 0
M  V30 475 C 42.833 -4.86137 2.14114 0
M  V30 476 C 41.872 -5.13711 3.32817 0
M  V30 477 N 41.009 -6.31323 3.07206 0
M  V30 478 H 45.849 -1.90129 2.29466 0
M  V30 479 H 43.386 -0.929433 1.14017 0
M  V30 480 H 45.344 -4.04036 1.03975 0
M  V30 481 H 43.974 -3.21847 0.247909 0
M  V30 482 H 43.026 -2.75498 2.62307 0
M  V30 483 H 44.338 -3.76027 3.27728 0
M  V30 484 H 43.492 -5.73198 1.9882 0
M  V30 485 H 42.231 -4.71945 1.22961 0
M  V30 486 H 41.236 -4.25123 3.48641 0
M  V30 487 H 42.461 -5.29807 4.24832 0
M  V30 488 H 40.407 -6.18474 2.1869 0
M  V30 489 H 40.324 -6.48087 3.89254 0
M  V30 490 H 41.592 -7.213 2.95546 0
M  V30 491 N 45.8211 -1.22559 -0.990812 0
M  V30 492 C 47.0461 -1.07862 -1.77145 0
M  V30 493 C 47.4711 0.366447 -1.84496 0
M  V30 494 O 46.8291 1.26478 -1.29896 0
M  V30 495 C 46.8771 -1.69686 -3.18181 0
M  V30 496 O 45.9811 -0.951946 -4.01263 0
M  V30 497 H 45.3221 -0.378712 -0.545411 0
M  V30 498 H 47.8521 -1.62399 -1.2445 0
M  V30 499 H 47.8621 -1.74496 -3.68802 0
M  V30 500 H 46.5371 -2.74841 -3.12146 0
M  V30 501 H 45.1141 -0.980011 -3.59792 0
M  V30 502 N 47.2992 1.18797 -1.03562 0
M  V30 503 C 48.2492 2.20161 -0.592724 0
M  V30 504 C 49.2332 1.56772 0.362133 0
M  V30 505 O 50.4252 1.76062 0.182009 0
M  V30 506 C 47.5542 3.43266 0.0481024 0
M  V30 507 C 46.6402 4.13786 -0.9296 0
M  V30 508 N 47.0312 4.60388 -2.09467 0
M  V30 509 C 45.3292 4.39572 -0.754499 0
M  V30 510 C 46.0302 5.14619 -2.71187 0
M  V30 511 N 45.0062 5.05826 -1.991 0
M  V30 512 H 48.8082 2.53877 -1.48066 0
M  V30 513 H 46.3222 1.34946 -0.903514 0
M  V30 514 H 48.3192 4.15136 0.383058 0
M  V30 515 H 46.9792 3.11048 0.931636 0
M  V30 516 H 47.9902 4.54999 -2.47379 0
M  V30 517 H 44.6672 4.17425 0.0793713 0
M  V30 518 H 46.0572 5.60917 -3.69895 0
M  V30 519 N 48.7773 0.814389 1.34928 0
M  V30 520 C 49.7073 0.244827 2.32213 0
M  V30 521 C 50.6883 -0.634024 1.57842 0
M  V30 522 O 51.8733 -0.562676 1.8587 0
M  V30 523 C 49.0033 -0.601106 3.42058 0
M  V30 524 C 47.9573 0.179896 4.27622 0
M  V30 525 C 47.2833 -0.788237 5.28858 0
M  V30 526 C 48.5833 1.38329 5.03649 0
M  V30 527 H 50.2773 1.05763 2.80097 0
M  V30 528 H 47.8233 0.510029 1.34665 0
M  V30 529 H 49.7763 -1.00968 4.09125 0
M  V30 530 H 48.5003 -1.44688 2.92802 0
M  V30 531 H 47.1593 0.569739 3.62146 0
M  V30 532 H 46.8073 -1.62973 4.75866 0
M  V30 533 H 46.5073 -0.269942 5.8698 0
M  V30 534 H 48.0313 -1.19485 5.98795 0
M  V30 535 H 49.4453 1.04918 5.63618 0
M  V30 536 H 47.8423 1.83662 5.71304 0
M  V30 537 H 48.9123 2.16592 4.33839 0
M  V30 538 N 50.2554 -1.46986 0.568584 0
M  V30 539 C 51.2054 -2.27179 -0.193339 0
M  V30 540 C 52.1894 -1.35035 -0.874895 0
M  V30 541 O 53.3814 -1.5931 -0.771322 0
M  V30 542 C 50.5104 -3.21063 -1.21546 0
M  V30 543 C 49.5964 -4.2069 -0.536738 0
M  V30 544 N 49.9874 -5.04218 0.399673 0
M  V30 545 C 48.2854 -4.38961 -0.789254 0
M  V30 546 C 48.9864 -5.76242 0.795017 0
M  V30 547 N 47.9624 -5.434 0.1473 0
M  V30 548 H 51.7644 -2.89146 0.526458 0
M  V30 549 H 49.2784 -1.57664 0.389342 0
M  V30 550 H 51.2754 -3.77209 -1.77536 0
M  V30 551 H 49.9354 -2.60654 -1.93623 0
M  V30 552 H 50.9464 -5.12077 0.774454 0
M  V30 553 H 47.6234 -3.89713 -1.49767 0
M  V30 554 H 49.0134 -6.53417 1.56513 0
M  V30 555 N 51.7335 -0.305618 -1.54608 0
M  V30 556 C 52.6655 0.602161 -2.21149 0
M  V30 557 C 53.6785 1.09394 -1.20569 0
M  V30 558 O 54.8675 1.0106 -1.47136 0
M  V30 559 C 51.9675 1.83692 -2.84799 0
M  V30 560 C 51.1405 1.48686 -4.11353 0
M  V30 561 C 50.1995 2.57725 -4.58764 0
M  V30 562 O 49.2255 2.22623 -5.23858 0
M  V30 563 N 50.4275 3.88346 -4.31471 0
M  V30 564 H 53.1925 0.0324966 -2.99682 0
M  V30 565 H 50.7535 -0.128021 -1.61393 0
M  V30 566 H 52.7455 2.55994 -3.13448 0
M  V30 567 H 51.3155 2.31486 -2.10078 0
M  V30 568 H 50.5355 0.596269 -3.89664 0
M  V30 569 H 51.8235 1.22842 -4.93748 0
M  V30 570 H 51.2215 4.19671 -3.79331 0
M  V30 571 H 49.7785 4.56932 -4.64818 0
M  V30 572 N 53.2116 1.57565 -0.0334293 0
M  V30 573 C 54.1586 2.10478 0.946981 0
M  V30 574 C 55.1286 1.00787 1.32027 0
M  V30 575 O 56.3136 1.28232 1.41284 0
M  V30 576 C 53.4536 2.63994 2.22263 0
M  V30 577 C 52.5666 3.87709 1.90541 0
M  V30 578 C 51.7016 4.29604 3.12433 0
M  V30 579 C 50.7406 5.46065 2.76549 0
M  V30 580 N 49.8776 5.83096 3.9108 0
M  V30 581 H 54.7176 2.93963 0.488846 0
M  V30 582 H 52.2546 1.45296 0.22969 0
M  V30 583 H 54.2126 2.93114 2.96884 0
M  V30 584 H 52.8426 1.83333 2.65685 0
M  V30 585 H 51.8946 3.65291 1.06144 0
M  V30 586 H 53.2066 4.72403 1.60116 0
M  V30 587 H 52.3606 4.60182 3.9537 0
M  V30 588 H 51.0996 3.43685 3.46023 0
M  V30 589 H 50.1046 5.15176 1.92026 0
M  V30 590 H 51.3296 6.33685 2.44171 0
M  V30 591 H 49.2756 5.00132 4.24504 0
M  V30 592 H 49.1926 6.6244 3.64293 0
M  V30 593 H 50.4606 6.18282 4.74708 0
M  V30 594 N 54.6897 -0.239769 1.55765 0
M  V30 595 C 56.1007 -0.808263 1.68297 0
M  V30 596 C 56.4517 -1.85736 0.632181 0
M  V30 597 O 55.5767 -2.15277 -0.220204 0
M  V30 598 C 56.1717 -1.47284 3.05111 0
M  V30 599 C 54.7307 -1.98895 3.19559 0
M  V30 600 C 53.8777 -0.842575 2.64189 0
M  V30 601 H 56.8287 -0.0154422 1.58692 0
M  V30 602 H 56.8497 -2.34111 2.99954 0
M  V30 603 H 56.3617 -0.709053 3.81568 0
M  V30 604 H 54.4627 -2.78132 2.47938 0
M  V30 605 H 54.5757 -2.18143 4.26556 0
M  V30 606 H 52.9397 -1.24501 2.22197 0
M  V30 607 H 53.7227 -0.0917552 3.43177 0
M  V30 608 N 56.1678 -1.49265 -0.50573 0
M  V30 609 C 57.4158 -1.582 -1.25766 0
M  V30 610 C 57.7368 -0.268482 -1.93143 0
M  V30 611 O 57.0068 0.711833 -1.8251 0
M  V30 612 H 55.5868 -0.582873 -0.467191 0
M  V30 613 H 58.2488 -1.85865 -0.586525 0
M  V30 614 H 57.3448 -2.37563 -2.02412 0
M  V30 615 N 57.6459 0.756429 -1.3826 0
M  V30 616 C 58.5779 1.87971 -1.31147 0
M  V30 617 C 59.5909 1.61248 -0.224239 0
M  V30 618 O 60.7799 1.71881 -0.481581 0
M  V30 619 C 57.8799 3.23545 -1.00857 0
M  V30 620 C 57.0529 3.77794 -2.20432 0
M  V30 621 C 56.1119 4.91877 -1.86931 0
M  V30 622 O 55.1379 5.06659 -2.59395 0
M  V30 623 N 56.3399 5.74643 -0.822568 0
M  V30 624 H 59.1049 1.94585 -2.2794 0
M  V30 625 H 56.6659 0.936234 -1.32084 0
M  V30 626 H 58.6579 3.97403 -0.765021 0
M  V30 627 H 57.2279 3.12335 -0.128687 0
M  V30 628 H 56.4479 2.95534 -2.6087 0
M  V30 629 H 57.7359 4.10771 -3.00241 0
M  V30 630 H 57.1339 5.65266 -0.221575 0
M  V30 631 H 55.6909 6.48661 -0.638899 0
M  V30 632 N 59.124 1.23083 0.984299 0
M  V30 633 C 60.352 1.08714 1.76037 0
M  V30 634 C 60.767 -0.361691 1.85303 0
M  V30 635 O 60.124 -1.25034 1.32939 0
M  V30 636 C 60.175 1.70206 3.18923 0
M  V30 637 O 59.896 3.09423 3.10144 0
M  V30 638 C 61.397 1.61227 4.12941 0
M  V30 639 H 58.617 0.380664 0.552572 0
M  V30 640 H 61.161 1.62853 1.23689 0
M  V30 641 H 59.316 1.20109 3.6831 0
M  V30 642 H 59.73 3.39188 4.00065 0
M  V30 643 H 61.204 2.08962 5.10919 0
M  V30 644 H 61.681 0.570375 4.35481 0
M  V30 645 H 62.287 2.10671 3.69456 0
M  V30 646 N 60.6021 -1.18246 1.0419 0
M  V30 647 C 61.8481 -1.88793 0.75689 0
M  V30 648 C 62.2031 -1.78909 -0.707767 0
M  V30 649 O 61.4961 -1.1794 -1.50999 0
M  V30 650 C 61.6901 -3.38082 1.15911 0
M  V30 651 C 61.5191 -3.62496 2.66133 0
M  V30 652 C 60.2891 -3.7979 3.33298 0
M  V30 653 C 62.4871 -3.62976 3.64353 0
M  V30 654 N 60.4691 -3.91955 4.72487 0
M  V30 655 C 61.8401 -3.80869 4.89222 0
M  V30 656 C 63.8951 -3.46071 3.57965 0
M  V30 657 C 62.5981 -3.83608 6.08471 0
M  V30 658 C 64.6241 -3.50093 4.76643 0
M  V30 659 C 63.9861 -3.68484 6.00332 0
M  V30 660 H 60.0851 -0.709406 0.32904 0
M  V30 661 H 62.6691 -1.42022 1.33183 0
M  V30 662 H 60.8401 -3.83544 0.612238 0
M  V30 663 H 62.5721 -3.96202 0.824989 0
M  V30 664 H 59.3271 -3.79224 2.83701 0
M  V30 665 H 59.7511 -4.01857 5.44831 0
M  V30 666 H 64.3931 -3.30797 2.63311 0
M  V30 667 H 62.1111 -3.97669 7.0348 0
M  V30 668 H 65.6971 -3.38285 4.73344 0
M  V30 669 H 64.5771 -3.71488 6.90627 0
M  V30 670 N 62.0802 -0.821533 -1.34494 0
M  V30 671 C 63.0272 -0.240397 -2.29545 0
M  V30 672 C 63.9972 0.634031 -1.53523 0
M  V30 673 O 65.1822 0.575966 -1.81899 0
M  V30 674 C 62.3222 0.592869 -3.39969 0
M  V30 675 C 61.4352 -0.30365 -4.30932 0
M  V30 676 C 60.5702 0.539049 -5.28458 0
M  V30 677 C 59.6092 -0.356942 -6.11058 0
M  V30 678 N 58.7462 0.446603 -7.00678 0
M  V30 679 H 63.5862 -1.05632 -2.7865 0
M  V30 680 H 61.1232 -0.532413 -1.37127 0
M  V30 681 H 63.0812 1.09129 -4.02675 0
M  V30 682 H 61.7112 1.37392 -2.92102 0
M  V30 683 H 60.7632 -0.920276 -3.691 0
M  V30 684 H 62.0752 -0.992661 -4.88823 0
M  V30 685 H 61.2292 1.102 -5.96608 0
M  V30 686 H 59.9682 1.26157 -4.71101 0
M  V30 687 H 58.9732 -0.932047 -5.41842 0
M  V30 688 H 60.1982 -1.07755 -6.70497 0
M  V30 689 H 58.1442 1.15282 -6.45791 0
M  V30 690 H 58.0612 -0.184048 -7.55776 0
M  V30 691 H 59.3292 0.992352 -7.73158 0
M  V30 692 N 63.5583 1.46682 -0.576371 0
M  V30 693 C 64.5063 2.31953 0.17335 0
M  V30 694 C 65.5003 1.44098 0.89062 0
M  V30 695 O 66.7063 1.60759 0.809728 0
M  V30 696 H 63.0813 0.748273 0.0747727 0
M  V30 697 H 65.0523 2.93007 -0.564738 0
M  V30 698 C 63.8013 3.27142 1.17786 0
M  V30 699 H 63.1243 3.94719 0.635361 0
M  V30 700 H 64.5643 3.896 1.67296 0
M  V30 701 C 63.0233 2.52036 2.23561 0
M  V30 702 O 63.5533 2.27877 3.3081 0
M  V30 703 N 61.7593 2.12709 1.97998 0
M  V30 704 H 61.3063 2.32557 1.10792 0
M  V30 705 H 61.2643 1.62776 2.68982 0
M  V30 706 N 65.0364 0.313813 1.54444 0
M  V30 707 C 65.9834 -0.55655 2.23989 0
M  V30 708 C 66.9534 -1.11943 1.22711 0
M  V30 709 O 68.1384 -1.16158 1.51367 0
M  V30 710 C 65.2784 -1.71635 2.99392 0
M  V30 711 C 64.3914 -1.18364 4.15468 0
M  V30 712 C 63.5264 -2.30834 4.78424 0
M  V30 713 C 62.5654 -1.74762 5.86622 0
M  V30 714 N 61.7024 -2.80855 6.43479 0
M  V30 715 H 66.5424 0.0430893 2.97969 0
M  V30 716 H 64.0794 0.0330359 1.47063 0
M  V30 717 H 66.0374 -2.39868 3.41349 0
M  V30 718 H 64.6674 -2.28742 2.27765 0
M  V30 719 H 63.7194 -0.393163 3.78363 0
M  V30 720 H 65.0314 -0.733262 4.93381 0
M  V30 721 H 64.1854 -3.0699 5.23299 0
M  V30 722 H 62.9244 -2.79204 3.99871 0
M  V30 723 H 61.9294 -0.970995 5.41158 0
M  V30 724 H 63.1544 -1.2728 6.67066 0
M  V30 725 H 61.1004 -3.28535 5.67804 0
M  V30 726 H 61.0174 -2.40351 7.16776 0
M  V30 727 H 62.2854 -3.5687 6.93011 0
M  V30 728 N 66.5145 -1.57545 0.0417849 0
M  V30 729 C 67.4245 -2.14451 -0.951213 0
M  V30 730 C 68.4405 -1.09992 -1.34825 0
M  V30 731 O 69.6165 -1.42114 -1.42708 0
M  V30 732 C 66.6815 -2.67063 -2.21084 0
M  V30 733 C 65.7425 -3.86284 -1.87304 0
M  V30 734 C 64.9755 -4.36378 -3.07261 0
M  V30 735 O 65.1985 -3.85587 -4.20332 0
M  V30 736 O 64.1325 -5.28077 -2.88822 0
M  V30 737 H 67.9585 -2.99601 -0.497287 0
M  V30 738 H 65.5435 -1.48317 -0.179567 0
M  V30 739 H 67.4255 -3.00914 -2.95006 0
M  V30 740 H 66.1005 -1.84989 -2.65633 0
M  V30 741 H 65.0075 -3.57338 -1.10727 0
M  V30 742 H 66.3405 -4.6956 -1.47562 0
M  V30 743 N 67.9926 0.231505 -1.5589 0
M  V30 744 C 68.9426 1.29007 -1.87993 0
M  V30 745 C 69.9266 1.42764 -0.742102 0
M  V30 746 O 71.1186 1.45747 -1.00433 0
M  V30 747 C 68.2476 2.6425 -2.1915 0
M  V30 748 C 67.3336 2.54435 -3.39299 0
M  V30 749 N 67.7246 2.14262 -4.58176 0
M  V30 750 C 66.0226 2.85416 -3.42715 0
M  V30 751 C 66.7236 2.15455 -5.40328 0
M  V30 752 N 65.6996 2.55558 -4.79783 0
M  V30 753 H 69.5016 0.970213 -2.77424 0
M  V30 754 H 67.0156 0.440097 -1.56323 0
M  V30 755 H 69.0126 3.40665 -2.40319 0
M  V30 756 H 67.6726 2.9709 -1.31025 0
M  V30 757 H 68.6836 1.85554 -4.83518 0
M  V30 758 H 65.3606 3.22693 -2.64906 0
M  V30 759 H 66.7506 1.86605 -6.45467 0
M  V30 760 N 69.4707 1.49531 0.497807 0
M  V30 761 C 70.4207 1.62829 1.59596 0
M  V30 762 C 71.4047 0.483824 1.53453 0
M  V30 763 O 72.5967 0.736937 1.60929 0
M  V30 764 C 69.7257 1.7011 2.98191 0
M  V30 765 C 68.8117 2.90144 3.09317 0
M  V30 766 N 69.2027 4.1418 2.90324 0
M  V30 767 C 67.5007 2.88148 3.40422 0
M  V30 768 C 68.2017 4.94886 3.05717 0
M  V30 769 N 67.1777 4.28314 3.34736 0
M  V30 770 H 70.9797 2.56446 1.4357 0
M  V30 771 H 68.4937 1.46347 0.704001 0
M  V30 772 H 70.4907 1.77735 3.77115 0
M  V30 773 H 69.1507 0.776315 3.15283 0
M  V30 774 H 70.1617 4.44109 2.66436 0
M  V30 775 H 66.8387 2.05061 3.63671 0
M  V30 776 H 68.2287 6.03432 2.95499 0
M  V30 777 N 70.9488 -0.749086 1.3866 0
M  V30 778 C 71.8788 -1.8764 1.38973 0
M  V30 779 C 72.8598 -1.68178 0.255004 0
M  V30 780 O 74.0448 -1.88704 0.458754 0
M  V30 781 C 71.1748 -3.25222 1.21851 0
M  V30 782 C 70.1288 -3.59295 2.32575 0
M  V30 783 C 69.4548 -4.95663 2.00555 0
M  V30 784 C 70.7548 -3.63709 3.7485 0
M  V30 785 H 72.4488 -1.87635 2.3331 0
M  V30 786 H 69.9948 -0.901329 1.12303 0
M  V30 787 H 71.9478 -4.03746 1.20695 0
M  V30 788 H 70.6718 -3.25719 0.239775 0
M  V30 789 H 69.3308 -2.83093 2.32925 0
M  V30 790 H 68.9788 -4.92724 1.01154 0
M  V30 791 H 68.6788 -5.19429 2.74714 0
M  V30 792 H 70.2028 -5.7656 2.01024 0
M  V30 793 H 71.6168 -4.32338 3.76506 0
M  V30 794 H 70.0138 -3.98986 4.48252 0
M  V30 795 H 71.0838 -2.63834 4.06841 0
M  V30 796 N 72.4269 -1.23603 -0.977757 0
M  V30 797 C 73.6519 -1.09735 -1.75991 0
M  V30 798 C 74.0769 0.346858 -1.84874 0
M  V30 799 O 73.4349 1.25093 -1.3123 0
M  V30 800 C 73.4829 -1.73051 -3.16363 0
M  V30 801 O 72.5869 -0.994452 -4.0023 0
M  V30 802 H 71.9279 -0.384476 -0.541364 0
M  V30 803 H 74.4579 -1.6371 -1.2272 0
M  V30 804 H 74.4679 -1.78398 -3.66931 0
M  V30 805 H 73.1429 -2.78137 -3.09213 0
M  V30 806 H 71.7199 -1.01812 -3.58732 0
M  V30 807 N 73.905 1.17692 -1.04816 0
M  V30 808 C 75.182 1.83768 -0.669963 0
M  V30 809 C 75.562 1.93232 0.849986 0
M  V30 810 O 74.91 1.46397 1.75443 0
M  V30 811 C 75.12 3.21641 -1.35455 0
M  V30 812 C 76.468 3.97592 -1.49017 0
M  V30 813 O 77.492 3.31107 -1.31326 0
M  V30 814 O 76.351 5.16729 -1.77914 0
M  V30 815 H 73.445 0.792799 -0.235368 0
M  V30 816 H 75.991 1.25021 -1.14751 0
M  V30 817 H 74.763 3.097 -2.39168 0
M  V30 818 H 74.386 3.88052 -0.866107 0
M  V30 819 N 75.3831 0.828654 1.34056 0
M  V30 820 C 76.7991 0.515135 1.51058 0
M  V30 821 C 76.9991 -0.959581 1.77184 0
M  V30 822 O 76.0551 -1.74382 1.82612 0
M  V30 823 C 77.3681 1.37963 2.67183 0
M  V30 824 C 78.9161 1.37735 2.81066 0
M  V30 825 C 79.3911 2.22645 4.00241 0
M  V30 826 N 80.8821 2.203 4.07458 0
M  V30 827 C 81.6171 2.82744 4.98842 0
M  V30 828 N 81.1131 3.54201 5.9541 0
M  V30 829 N 82.9061 2.72268 4.91759 0
M  V30 830 H 75.0571 1.78343 1.15358 0
M  V30 831 H 77.3201 0.760304 0.566252 0
M  V30 832 H 77.0261 2.42714 2.54525 0
M  V30 833 H 76.9001 1.0484 3.62338 0
M  V30 834 H 79.2871 0.337593 2.93163 0
M  V30 835 H 79.3681 1.74859 1.86703 0
M  V30 836 H 79.0121 3.26674 3.88905 0
M  V30 837 H 78.9421 1.82869 4.93829 0
M  V30 838 H 81.4331 1.68327 3.38341 0
M  V30 839 H 81.7461 3.9908 6.61782 0
M  V30 840 H 80.0911 3.58308 5.95517 0
M  V30 841 H 83.2821 2.16014 4.15278 0
M  V30 842 H 83.4551 3.21219 5.62781 0
M  V30 843 N 76.8612 -1.46375 0.584142 0
M  V30 844 C 77.7712 -2.34115 -0.150728 0
M  V30 845 C 78.7872 -1.49838 -0.884567 0
M  V30 846 O 79.9632 -1.82704 -0.847429 0
M  V30 847 C 77.0282 -3.2705 -1.15062 0
M  V30 848 C 76.0892 -4.27228 -0.421293 0
M  V30 849 C 75.3222 -5.15722 -1.37355 0
M  V30 850 O 75.5452 -5.07176 -2.61014 0
M  V30 851 O 74.4792 -5.95383 -0.883355 0
M  V30 852 H 78.3052 -2.98309 0.569708 0
M  V30 853 H 75.8902 -1.45373 0.344535 0
M  V30 854 H 77.7722 -3.84381 -1.72712 0
M  V30 855 H 76.4472 -2.65451 -1.8525 0
M  V30 856 H 75.3542 -3.7358 0.197085 0
M  V30 857 H 76.6872 -4.91616 0.239641 0
M  V30 858 N 78.3393 -0.321999 -1.54275 0
M  V30 859 C 79.5863 0.281044 -2.0054 0
M  V30 860 C 79.9143 1.52265 -1.21019 0
M  V30 861 O 79.1693 1.93687 -0.279982 0
M  V30 862 C 79.4683 0.661769 -3.5122 0
M  V30 863 C 79.1343 -0.480482 -4.48333 0
M  V30 864 C 77.7963 -0.794005 -4.74604 0
M  V30 865 C 80.1483 -1.24783 -5.06042 0
M  V30 866 C 77.4763 -1.87763 -5.55844 0
M  V30 867 C 79.8283 -2.32153 -5.88462 0
M  V30 868 C 78.4923 -2.64089 -6.13036 0
M  V30 869 H 77.7623 0.102841 -0.733829 0
M  V30 870 H 80.4093 -0.445453 -1.86247 0
M  V30 871 H 78.7143 1.46867 -3.63232 0
M  V30 872 H 80.4113 1.13989 -3.84457 0
M  V30 873 H 77.0013 -0.226039 -4.28004 0
M  V30 874 H 81.1853 -1.01887 -4.85729 0
M  V30 875 H 76.4413 -2.12954 -5.73115 0
M  V30 876 H 80.6153 -2.92057 -6.32199 0
M  V30 877 H 78.2423 -3.48185 -6.75775 0
M  V30 878 N 79.8174 1.5752 -0.0501392 0
M  V30 879 C 81.0634 1.92936 0.624798 0
M  V30 880 C 81.3964 0.928685 1.70555 0
M  V30 881 O 80.6714 -0.0454779 1.94447 0
M  V30 882 C 80.9544 3.38737 1.22185 0
M  V30 883 C 80.8074 4.49552 0.149218 0
M  V30 884 C 82.1264 3.84913 2.13378 0
M  V30 885 H 79.2454 0.701604 0.225657 0
M  V30 886 H 81.8874 1.89671 -0.111693 0
M  V30 887 H 80.0374 3.4165 1.84953 0
M  V30 888 H 81.7094 4.58768 -0.482648 0
M  V30 889 H 79.9524 4.30638 -0.522841 0
M  V30 890 H 80.6234 5.48653 0.606966 0
M  V30 891 H 83.0994 3.8387 1.60572 0
M  V30 892 H 81.9754 4.87584 2.52097 0
M  V30 893 H 82.2364 3.21611 3.03346 0
M  V30 894 N 81.2955 -0.223234 1.56011 0
M  V30 895 C 82.5425 -0.947875 1.78946 0
M  V30 896 C 82.8705 -1.844 0.618608 0
M  V30 897 O 82.1255 -1.91629 -0.397093 0
M  V30 898 C 82.4245 -1.81948 3.0762 0
M  V30 899 C 82.0905 -1.07672 4.37856 0
M  V30 900 C 80.7525 -0.871544 4.73242 0
M  V30 901 C 83.1045 -0.552081 5.18268 0
M  V30 902 C 80.4325 -0.129791 5.86556 0
M  V30 903 C 82.7845 0.17632 6.32354 0
M  V30 904 C 81.4485 0.39277 6.66343 0
M  V30 905 H 80.7185 -0.346852 0.654809 0
M  V30 906 H 83.3655 -0.216171 1.90276 0
M  V30 907 H 81.6705 -2.61899 2.91404 0
M  V30 908 H 83.3675 -2.38227 3.22566 0
M  V30 909 H 79.9575 -1.24662 4.1007 0
M  V30 910 H 84.1415 -0.698076 4.91366 0
M  V30 911 H 79.3975 0.048153 6.11381 0
M  V30 912 H 83.5715 0.590367 6.93893 0
M  V30 913 H 81.1985 0.969466 7.53993 0
M  V30 914 N 82.7736 -1.49793 -0.48987 0
M  V30 915 C 83.7206 -1.67281 -1.59014 0
M  V30 916 C 84.6906 -0.514177 -1.57941 0
M  V30 917 O 85.8756 -0.742533 -1.75759 0
M  V30 918 C 83.0156 -1.75569 -2.97102 0
M  V30 919 C 82.1286 -3.0281 -3.08107 0
M  V30 920 C 81.2636 -3.02008 -4.36995 0
M  V30 921 C 80.3026 -4.23782 -4.41673 0
M  V30 922 N 79.4396 -4.20826 -5.62005 0
M  V30 923 H 84.2796 -2.61224 -1.43409 0
M  V30 924 H 81.8166 -1.29508 -0.697565 0
M  V30 925 H 83.7746 -1.78354 -3.77155 0
M  V30 926 H 82.4046 -0.850827 -3.11385 0
M  V30 927 H 81.4566 -3.09584 -2.21047 0
M  V30 928 H 82.7686 -3.92801 -3.07423 0
M  V30 929 H 81.9226 -3.03418 -5.25378 0
M  V30 930 H 80.6616 -2.09815 -4.4026 0
M  V30 931 H 79.6666 -4.22604 -3.5169 0
M  V30 932 H 80.8916 -5.17181 -4.40115 0
M  V30 933 H 78.8376 -3.31476 -5.66091 0
M  V30 934 H 78.7546 -5.04564 -5.62984 0
M  V30 935 H 80.0226 -4.26355 -6.52565 0
M  V30 936 N 84.2517 0.741722 -1.39055 0
M  V30 937 C 85.1617 1.88621 -1.39496 0
M  V30 938 C 86.1777 1.71557 -0.290578 0
M  V30 939 O 87.3537 1.94275 -0.530954 0
M  V30 940 C 84.4187 3.24134 -1.23037 0
M  V30 941 C 83.4797 3.5364 -2.43387 0
M  V30 942 C 82.7127 4.82687 -2.27703 0
M  V30 943 O 82.9357 5.55922 -1.27696 0
M  V30 944 O 81.8697 5.1194 -3.16545 0
M  V30 945 H 85.6957 1.91203 -2.35956 0
M  V30 946 H 83.2807 0.888625 -1.20099 0
M  V30 947 H 85.1627 4.0513 -1.15964 0
M  V30 948 H 83.8377 3.22337 -0.296691 0
M  V30 949 H 82.7447 2.72758 -2.56035 0
M  V30 950 H 84.0777 3.60209 -3.35425 0
M  V30 951 N 85.7298 1.2412 0.971189 0
M  V30 952 C 87.1408 1.07236 1.52831 0
M  V30 953 C 87.4918 -0.357352 1.92918 0
M  V30 954 O 86.6168 -1.24528 1.76979 0
M  V30 955 C 87.2118 1.94043 2.77728 0
M  V30 956 C 85.7708 1.81394 3.29808 0
M  V30 957 C 84.9178 1.89189 2.02738 0
M  V30 958 H 87.8688 1.37648 0.789864 0
M  V30 959 H 87.8898 1.47066 3.5093 0
M  V30 960 H 87.4018 2.98093 2.4852 0
M  V30 961 H 85.5028 0.801634 3.63874 0
M  V30 962 H 85.6158 2.65294 3.98944 0
M  V30 963 H 83.9798 1.32877 2.17292 0
M  V30 964 H 84.7628 2.94812 1.759 0
M  V30 965 N 87.2079 -1.17134 1.05439 0
M  V30 966 C 88.1399 -2.2078 0.615539 0
M  V30 967 C 89.1529 -1.59584 -0.322001 0
M  V30 968 O 90.3419 -1.78133 -0.114344 0
M  V30 969 C 87.4419 -3.38691 -0.118938 0
M  V30 970 C 86.6149 -4.29454 0.829924 0
M  V30 971 C 85.6739 -5.26024 0.136258 0
M  V30 972 O 84.6999 -5.63952 0.77115 0
M  V30 973 N 85.9019 -5.69487 -1.1254 0
M  V30 974 H 88.6669 -2.59052 1.50705 0
M  V30 975 H 86.2279 -1.32058 0.936603 0
M  V30 976 H 88.2199 -4.00329 -0.593179 0
M  V30 977 H 86.7899 -2.98996 -0.91215 0
M  V30 978 H 86.0099 -3.65211 1.48373 0
M  V30 979 H 87.2979 -4.86984 1.47392 0
M  V30 980 H 86.6959 -5.4075 -1.6615 0
M  V30 981 H 85.2529 -6.33257 -1.54366 0
M  V30 982 N 88.686 -0.835752 -1.33615 0
M  V30 983 C 89.618 -0.224151 -2.28101 0
M  V30 984 C 90.631 0.593331 -1.51603 0
M  V30 985 O 91.82 0.420911 -1.73466 0
M  V30 986 C 88.92 0.703309 -3.31522 0
M  V30 987 C 88.093 -0.0741528 -4.37337 0
M  V30 988 C 87.152 0.776176 -5.20444 0
M  V30 989 O 86.178 0.216506 -5.68788 0
M  V30 990 N 87.38 2.09401 -5.41416 0
M  V30 991 H 90.145 -1.03598 -2.81225 0
M  V30 992 H 87.706 -0.69392 -1.46275 0
M  V30 993 H 89.698 1.27707 -3.84022 0
M  V30 994 H 88.268 1.41585 -2.78698 0
M  V30 995 H 87.488 -0.82928 -3.85378 0
M  V30 996 H 88.776 -0.608863 -5.05144 0
M  V30 997 H 88.174 2.57229 -5.03835 0
M  V30 998 H 86.731 2.61633 -5.96985 0
M  V30 999 N 90.1641 1.46063 -0.591896 0
M  V30 1000 C 91.4101 2.02638 -0.0811191 0
M  V30 1001 C 91.7431 1.4613 1.27905 0
M  V30 1002 O 91.0181 0.629908 1.84017 0
M  V30 1003 C 91.3011 3.60091 -0.0252436 0
M  V30 1004 C 91.1541 4.26965 -1.41496 0
M  V30 1005 C 92.4731 4.3496 0.670685 0
M  V30 1006 H 89.5921 0.73635 -0.0309524 0
M  V30 1007 H 92.2341 1.741 -0.760859 0
M  V30 1008 H 90.3841 3.84535 0.553624 0
M  V30 1009 H 92.0561 4.13756 -2.0397 0
M  V30 1010 H 90.2991 3.85971 -1.98011 0
M  V30 1011 H 90.9701 5.35781 -1.32825 0
M  V30 1012 H 93.4461 4.15716 0.178825 0
M  V30 1013 H 92.3221 5.44686 0.678837 0
M  V30 1014 H 92.5831 4.06685 1.73379 0
M  V30 1015 N 91.6422 0.330177 1.54103 0
M  V30 1016 C 92.8882 -0.270806 2.00984 0
M  V30 1017 C 93.2212 -1.51265 1.21789 0
M  V30 1018 O 92.4962 -1.92142 0.301927 0
M  V30 1019 C 92.7792 -0.598339 3.55094 0
M  V30 1020 C 92.6322 0.654674 4.4501 0
M  V30 1021 C 93.9512 -1.41334 4.16789 0
M  V30 1022 H 91.0702 -0.0969531 0.730595 0
M  V30 1023 H 93.7122 0.448066 1.84641 0
M  V30 1024 H 91.8622 -1.21078 3.69151 0
M  V30 1025 H 93.5342 1.29285 4.42813 0
M  V30 1026 H 91.7772 1.28224 4.14416 0
M  V30 1027 H 92.4482 0.380944 5.50684 0
M  V30 1028 H 94.9242 -0.895597 4.06347 0
M  V30 1029 H 93.8002 -1.61127 5.24718 0
M  V30 1030 H 94.0612 -2.41146 3.70541 0
M  V30 1031 N 93.1203 -1.57491 0.0584922 0
M  V30 1032 C 94.5363 -1.56792 -0.298091 0
M  V30 1033 C 94.7363 -1.06679 -1.70944 0
M  V30 1034 O 93.7923 -0.726672 -2.41818 0
M  V30 1035 C 95.1053 -3.00461 -0.119879 0
M  V30 1036 C 96.6533 -3.1242 -0.190428 0
M  V30 1037 C 97.1283 -4.57982 -0.0406567 0
M  V30 1038 N 98.6193 -4.63099 -0.0966958 0
M  V30 1039 C 99.3543 -5.734 -0.00502943 0
M  V30 1040 N 98.8503 -6.9266 0.139402 0
M  V30 1041 N 100.643 -5.62067 -0.0611391 0
M  V30 1042 H 92.7943 -1.88386 0.98105 0
M  V30 1043 H 95.0573 -0.867865 0.381463 0
M  V30 1044 H 94.7633 -3.41187 0.85349 0
M  V30 1045 H 94.6373 -3.66843 -0.877833 0
M  V30 1046 H 97.0243 -2.71589 -1.15427 0
M  V30 1047 H 97.1053 -2.48702 0.598405 0
M  V30 1048 H 96.7493 -4.995 0.919897 0
M  V30 1049 H 96.6793 -5.19715 -0.848727 0
M  V30 1050 H 99.1703 -3.77331 -0.207277 0
M  V30 1051 H 99.4833 -7.72536 0.201855 0
M  V30 1052 H 97.8283 -6.94781 0.174586 0
M  V30 1053 H 101.019 -4.67782 -0.172583 0
M  V30 1054 H 101.192 -6.47999 0.0137562 0
M  V30 1055 N 94.5984 0.214957 -1.56127 0
M  V30 1056 C 96.0144 0.564948 -1.49267 0
M  V30 1057 C 96.2144 1.86827 -0.754838 0
M  V30 1058 O 95.2704 2.50745 -0.297198 0
M  V30 1059 C 96.5834 0.638071 -2.93852 0
M  V30 1060 C 98.1314 0.728253 -3.0441 0
M  V30 1061 C 98.6064 0.832663 -4.50367 0
M  V30 1062 N 100.097 0.896712 -4.54437 0
M  V30 1063 C 100.832 0.997324 -5.6466 0
M  V30 1064 N 100.328 1.06147 -6.8462 0
M  V30 1065 N 102.121 1.03297 -5.52527 0
M  V30 1066 H 94.2724 -0.640211 -2.02522 0
M  V30 1067 H 96.5354 -0.225507 -0.920788 0
M  V30 1068 H 96.2414 -0.250126 -3.50809 0
M  V30 1069 H 96.1154 1.49947 -3.46115 0
M  V30 1070 H 98.5024 1.60689 -2.47514 0
M  V30 1071 H 98.5834 -0.158952 -2.55306 0
M  V30 1072 H 98.2274 -0.0415417 -5.07883 0
M  V30 1073 H 98.1574 1.73538 -4.97184 0
M  V30 1074 H 100.648 0.857188 -3.6805 0
M  V30 1075 H 100.961 1.1382 -7.64372 0
M  V30 1076 H 99.3064 1.03049 -6.87318 0
M  V30 1077 H 102.497 0.979558 -4.57736 0
M  V30 1078 H 102.67 1.10793 -6.38458 0
M  V30 1079 N 96.0765 1.50051 0.48192 0
M  V30 1080 C 97.0395 1.67584 1.5636 0
M  V30 1081 C 98.0395 0.546894 1.51214 0
M  V30 1082 O 99.2295 0.813725 1.54026 0
M  V30 1083 C 96.3615 1.691 2.96003 0
M  V30 1084 H 97.5545 2.64078 1.42136 0
M  V30 1085 H 95.1075 1.39369 0.707533 0
M  V30 1086 H 95.8425 0.742589 3.15684 0
M  V30 1087 H 95.6275 2.51105 3.01146 0
M  V30 1088 H 97.1175 1.84656 3.74556 0
M  V30 1089 N 97.5546 -0.734337 1.39446 0
M  V30 1090 C 98.9656 -1.31264 1.32766 0
M  V30 1091 C 99.3166 -1.96198 -0.00767497 0
M  V30 1092 O 98.4416 -1.96346 -0.909796 0
M  V30 1093 C 99.0366 -2.38682 2.4045 0
M  V30 1094 C 97.5956 -2.92184 2.37288 0
M  V30 1095 C 96.7426 -1.6576 2.22304 0
M  V30 1096 H 99.6936 -0.531799 1.49525 0
M  V30 1097 H 99.7146 -3.19087 2.07276 0
M  V30 1098 H 99.2266 -1.91392 3.37625 0
M  V30 1099 H 97.3276 -3.43752 1.43754 0
M  V30 1100 H 97.4406 -3.45253 3.3217 0
M  V30 1101 H 95.8046 -1.9012 1.69489 0
M  V30 1102 H 96.5876 -1.20521 3.21449 0
M  V30 1103 N 99.0327 -1.24633 -0.964593 0
M  V30 1104 C 99.9427 -1.05859 -2.09359 0
M  V30 1105 C 100.959 0.00148855 -1.74 0
M  V30 1106 O 102.135 -0.197346 -2.00431 0
M  V30 1107 C 99.1997 -0.668879 -3.40187 0
M  V30 1108 C 98.2607 -1.80578 -3.89474 0
M  V30 1109 C 97.4937 -1.43457 -5.14058 0
M  V30 1110 O 97.7167 -0.325775 -5.69469 0
M  V30 1111 O 96.6507 -2.2613 -5.57807 0
M  V30 1112 H 100.477 -2.00516 -2.28094 0
M  V30 1113 H 98.0617 -1.03481 -1.0776 0
M  V30 1114 H 99.9437 -0.463211 -4.18846 0
M  V30 1115 H 98.6187 0.248536 -3.22744 0
M  V30 1116 H 97.5257 -2.06623 -3.11862 0
M  V30 1117 H 98.8587 -2.70208 -4.11398 0
M  V30 1118 N 100.511 1.16574 -1.06058 0
M  V30 1119 C 101.922 1.68662 -0.800632 0
M  V30 1120 C 102.273 1.84184 0.67608 0
M  V30 1121 O 101.398 1.53568 1.52466 0
M  V30 1122 C 101.993 3.06356 -1.44676 0
M  V30 1123 C 100.552 3.55575 -1.23465 0
M  V30 1124 C 99.6988 2.31616 -1.52477 0
M  V30 1125 H 102.65 1.00969 -1.22438 0
M  V30 1126 H 102.671 3.70636 -0.860788 0
M  V30 1127 H 102.183 2.95027 -2.52152 0
M  V30 1128 H 100.284 3.72167 -0.179527 0
M  V30 1129 H 100.397 4.37812 -1.94571 0
M  V30 1130 H 98.7608 2.36512 -0.945209 0
M  V30 1131 H 99.5438 2.22887 -2.61106 0
M  V30 1132 N 101.989 0.842826 1.3317 0
M  V30 1133 C 103.405 0.531128 1.50503 0
M  V30 1134 C 103.605 -0.940734 1.78192 0
M  V30 1135 O 102.661 -1.72436 1.84451 0
M  V30 1136 C 103.974 1.40789 2.65705 0
M  V30 1137 C 105.522 1.40708 2.79589 0
M  V30 1138 C 105.997 2.26878 3.97857 0
M  V30 1139 N 107.488 2.24609 4.05099 0
M  V30 1140 C 108.223 2.88019 4.95815 0
M  V30 1141 N 107.719 3.60496 5.9162 0
M  V30 1142 N 109.512 2.77469 4.88843 0
M  V30 1143 H 101.663 1.79557 1.1346 0
M  V30 1144 H 103.926 0.766267 0.558156 0
M  V30 1145 H 103.632 2.454 2.51936 0
M  V30 1146 H 103.506 1.08677 3.61205 0
M  V30 1147 H 105.893 0.368668 2.92788 0
M  V30 1148 H 105.974 1.76829 1.84838 0
M  V30 1149 H 105.618 3.3078 3.85418 0
M  V30 1150 H 105.548 1.88096 4.91861 0
M  V30 1151 H 108.039 1.71906 3.36536 0
M  V30 1152 H 108.352 4.06076 6.57512 0
M  V30 1153 H 106.697 3.64604 5.91683 0
M  V30 1154 H 109.888 2.20406 4.12963 0
M  V30 1155 H 110.061 3.2717 5.59342 0
M  V30 1156 N 103.467 -1.45747 0.599634 0
M  V30 1157 C 104.713 -2.02592 0.0918643 0
M  V30 1158 C 105.046 -1.46806 -1.27128 0
M  V30 1159 O 104.321 -0.639658 -1.83681 0
M  V30 1160 C 104.604 -3.60073 0.0443398 0
M  V30 1161 C 104.457 -4.26208 1.43759 0
M  V30 1162 C 105.776 -4.35309 -0.647608 0
M  V30 1163 H 102.895 -0.736175 0.034857 0
M  V30 1164 H 105.537 -1.73694 0.770081 0
M  V30 1165 H 103.687 -3.84823 -0.533224 0
M  V30 1166 H 105.359 -4.12668 2.06162 0
M  V30 1167 H 103.602 -3.84916 2.00056 0
M  V30 1168 H 104.273 -5.35069 1.35665 0
M  V30 1169 H 106.749 -4.15805 -0.156776 0
M  V30 1170 H 105.625 -5.45038 -0.649942 0
M  V30 1171 H 105.886 -4.07598 -1.71219 0
M  V30 1172 N 104.945 -0.338344 -1.53925 0
M  V30 1173 C 106.194 0.260732 -2.00008 0
M  V30 1174 C 106.507 1.52073 -1.23017 0
M  V30 1175 O 107.713 2.19672 -1.5955 0
M  V30 1176 C 106.169 0.51515 -3.56194 0
M  V30 1177 C 105.777 -0.728645 -4.42035 0
M  V30 1178 C 107.521 1.07337 -4.10706 0
M  V30 1179 C 105.428 -0.445315 -5.89721 0
M  V30 1180 H 104.358 0.101205 -0.747177 0
M  V30 1181 H 107.009 -0.452866 -1.77824 0
M  V30 1182 H 105.391 1.28932 -3.74423 0
M  V30 1183 H 106.565 -1.50352 -4.35581 0
M  V30 1184 H 104.88 -1.20813 -3.98489 0
M  V30 1185 H 107.477 1.30022 -5.18651 0
M  V30 1186 H 107.82 2.0273 -3.63602 0
M  V30 1187 H 108.353 0.360034 -3.96167 0
M  V30 1188 H 105.092 -1.36883 -6.41049 0
M  V30 1189 H 104.612 0.291569 -5.99091 0
M  V30 1190 H 106.291 -0.0606218 -6.46972 0
M  V30 1191 N 106.423 1.57458 -0.0668435 0
M  V30 1192 C 107.7 1.8469 0.644132 0
M  V30 1193 C 108.08 0.958343 1.88093 0
M  V30 1194 O 107.428 0.0233579 2.28488 0
M  V30 1195 C 107.638 3.34767 0.986509 0
M  V30 1196 C 108.986 4.02159 1.36212 0
M  V30 1197 O 110.01 3.39484 1.07839 0
M  V30 1198 O 108.869 5.12694 1.89227 0
M  V30 1199 H 105.963 0.762816 0.319437 0
M  V30 1200 H 108.509 1.6942 -0.0973986 0
M  V30 1201 H 107.281 3.91151 0.107883 0
M  V30 1202 H 106.904 3.55281 1.78497 0
M  V30 1203 N 107.901 -0.206675 1.56239 0
M  V30 1204 C 109.317 -0.557025 1.49564 0
M  V30 1205 C 109.517 -1.86424 0.764735 0
M  V30 1206 O 108.573 -2.50584 0.310491 0
M  V30 1207 C 109.886 -0.622478 2.94186 0
M  V30 1208 C 111.434 -0.712099 3.04792 0
M  V30 1209 C 111.909 -0.808767 4.50803 0
M  V30 1210 N 113.4 -0.8726 4.54907 0
M  V30 1211 C 114.135 -0.967365 5.65181 0
M  V30 1212 N 113.631 -1.02515 6.85173 0
M  V30 1213 N 115.424 -1.00366 5.53067 0
M  V30 1214 H 107.575 0.650943 2.02179 0
M  V30 1215 H 109.838 0.230387 0.919579 0
M  V30 1216 H 109.544 0.268727 3.50672 0
M  V30 1217 H 109.418 -1.4811 3.46905 0
M  V30 1218 H 111.805 -1.59374 2.48363 0
M  V30 1219 H 111.886 0.172489 2.55218 0
M  V30 1220 H 111.53 0.0684754 5.07854 0
M  V30 1221 H 111.46 -1.70899 4.98098 0
M  V30 1222 H 113.951 -0.837657 3.68499 0
M  V30 1223 H 114.264 -1.09765 7.64965 0
M  V30 1224 H 112.609 -0.994026 6.87855 0
M  V30 1225 H 115.8 -0.95527 4.58249 0
M  V30 1226 H 115.973 -1.07405 6.39037 0
M  V30 1227 N 109.379 -1.50304 -0.473955 0
M  V30 1228 C 110.289 -1.7174 -1.5982 0
M  V30 1229 C 111.305 -0.600457 -1.63311 0
M  V30 1230 O 112.481 -0.878441 -1.81233 0
M  V30 1231 C 109.546 -1.80427 -2.96052 0
M  V30 1232 C 108.607 -3.04148 -3.02972 0
M  V30 1233 C 107.84 -3.12411 -4.32706 0
M  V30 1234 O 108.063 -2.27542 -5.23049 0
M  V30 1235 O 106.997 -4.05113 -4.45159 0
M  V30 1236 H 110.823 -2.67035 -1.44657 0
M  V30 1237 H 108.408 -1.34366 -0.653148 0
M  V30 1238 H 110.29 -1.88338 -3.7697 0
M  V30 1239 H 108.965 -0.883156 -3.11419 0
M  V30 1240 H 107.872 -3.0174 -2.21142 0
M  V30 1241 H 109.205 -3.95829 -2.92541 0
M  V30 1242 N 110.857 0.726932 -1.39834 0
M  V30 1243 C 112.105 1.4837 -1.37225 0
M  V30 1244 C 112.426 1.94979 0.0284857 0
M  V30 1245 O 111.696 1.69555 0.981213 0
M  V30 1246 H 110.276 0.55043 -0.505011 0
M  V30 1247 H 112.938 0.862468 -1.74778 0
M  V30 1248 H 112.034 2.36198 -2.04003 0
M  V30 1249 N 112.336 1.25143 0.95797 0
M  V30 1250 C 113.582 1.09855 1.70469 0
M  V30 1251 C 113.915 -0.360187 1.90831 0
M  V30 1252 O 113.19 -1.26568 1.47685 0
M  V30 1253 C 113.473 1.8497 3.08963 0
M  V30 1254 C 113.326 3.38652 2.96032 0
M  V30 1255 C 114.645 1.63016 4.08795 0
M  V30 1256 H 111.764 0.400465 0.618706 0
M  V30 1257 H 114.406 1.53933 1.11376 0
M  V30 1258 H 112.556 1.47505 3.59409 0
M  V30 1259 H 114.228 3.85772 2.52938 0
M  V30 1260 H 112.471 3.66534 2.32025 0
M  V30 1261 H 113.142 3.8642 3.94187 0
M  V30 1262 H 115.618 1.95625 3.67247 0
M  V30 1263 H 114.494 2.18015 5.03747 0
M  V30 1264 H 114.755 0.570692 4.38401 0
M  V30 1265 N 113.814 -1.1601 1.06675 0
M  V30 1266 C 115.044 -1.90251 0.805497 0
M  V30 1267 C 115.452 -1.77891 -0.64431 0
M  V30 1268 O 114.795 -1.12383 -1.45313 0
M  V30 1269 C 114.857 -3.41419 1.12576 0
M  V30 1270 C 114.521 -3.77564 2.57477 0
M  V30 1271 C 115.518 -3.79161 3.55715 0
M  V30 1272 C 113.203 -4.08079 2.92877 0
M  V30 1273 C 115.197 -4.10767 4.8739 0
M  V30 1274 C 112.884 -4.39351 4.24751 0
M  V30 1275 C 113.882 -4.40675 5.21818 0
M  V30 1276 O 113.57 -4.71202 6.51325 0
M  V30 1277 H 113.302 -0.610018 0.291297 0
M  V30 1278 H 115.856 -1.47958 1.4247 0
M  V30 1279 H 114.086 -3.84079 0.449503 0
M  V30 1280 H 115.775 -3.9694 0.84814 0
M  V30 1281 H 116.541 -3.55693 3.29708 0
M  V30 1282 H 112.42 -4.06211 2.17976 0
M  V30 1283 H 115.964 -4.11715 5.63148 0
M  V30 1284 H 111.861 -4.62285 4.50514 0
M  V30 1285 H 112.629 -4.88996 6.56373 0
M  V30 1286 N 115.292 -0.849877 -1.32721 0
M  V30 1287 C 116.202 -0.293791 -2.32753 0
M  V30 1288 C 117.218 0.585906 -1.63839 0
M  V30 1289 O 118.394 0.487413 -1.95413 0
M  V30 1290 C 115.459 0.512752 -3.42887 0
M  V30 1291 C 114.52 -0.39252 -4.27502 0
M  V30 1292 C 113.753 0.375625 -5.32377 0
M  V30 1293 O 113.976 1.60613 -5.4732 0
M  V30 1294 O 112.91 -0.256094 -6.01355 0
M  V30 1295 H 116.736 -1.12242 -2.82197 0
M  V30 1296 H 114.321 -0.612685 -1.36259 0
M  V30 1297 H 116.203 0.970704 -4.10067 0
M  V30 1298 H 114.878 1.31826 -2.95641 0
M  V30 1299 H 113.785 -0.898547 -3.63149 0
M  V30 1300 H 115.118 -1.16309 -4.7826 0
M  V30 1301 N 116.77 1.45427 -0.607355 0
M  V30 1302 C 118.019 2.01452 -0.100036 0
M  V30 1303 C 118.332 1.48159 1.27704 0
M  V30 1304 O 119.538 1.96159 1.87707 0
M  V30 1305 C 117.994 3.59672 -0.128158 0
M  V30 1306 C 117.602 4.21962 -1.50507 0
M  V30 1307 C 119.346 4.23262 0.323932 0
M  V30 1308 C 117.253 5.72333 -1.48959 0
M  V30 1309 H 116.183 0.75325 -0.0336299 0
M  V30 1310 H 118.834 1.66901 -0.76265 0
M  V30 1311 H 117.216 3.91411 0.601105 0
M  V30 1312 H 118.39 4.01796 -2.25602 0
M  V30 1313 H 116.705 3.70565 -1.89923 0
M  V30 1314 H 119.302 5.33522 0.354691 0
M  V30 1315 H 119.645 3.93921 1.34656 0
M  V30 1316 H 120.178 3.96239 -0.352056 0
M  V30 1317 H 116.917 6.06373 -2.48981 0
M  V30 1318 H 116.437 5.94691 -0.781214 0
M  V30 1319 H 118.116 6.35525 -1.21313 0
M  V30 1320 N 118.248 0.346503 1.53744 0
M  V30 1321 C 119.473 -0.253074 2.0585 0
M  V30 1322 C 119.898 -1.43202 1.21962 0
M  V30 1323 O 119.256 -1.79783 0.234073 0
M  V30 1324 C 119.304 -0.643193 3.54817 0
M  V30 1325 O 118.408 -1.74286 3.73762 0
M  V30 1326 H 117.749 -0.0413583 0.662711 0
M  V30 1327 H 120.279 0.501574 1.98357 0
M  V30 1328 H 120.289 -0.919526 3.97503 0
M  V30 1329 H 118.964 0.218966 4.15323 0
M  V30 1330 H 117.541 -1.46356 3.42979 0
M  V30 1331 N 119.726 -1.57421 0.075193 0
M  V30 1332 C 120.656 -2.15942 -0.888324 0
M  V30 1333 C 121.637 -1.08737 -1.30806 0
M  V30 1334 O 122.822 -1.36787 -1.37851 0
M  V30 1335 C 119.952 -2.72379 -2.1547 0
M  V30 1336 C 118.906 -3.8478 -1.87425 0
M  V30 1337 C 118.232 -4.27834 -3.20721 0
M  V30 1338 C 119.532 -5.08869 -1.17684 0
M  V30 1339 H 121.226 -2.96705 -0.400799 0
M  V30 1340 H 118.772 -1.42723 -0.191342 0
M  V30 1341 H 120.725 -3.11965 -2.83295 0
M  V30 1342 H 119.449 -1.88841 -2.6647 0
M  V30 1343 H 118.108 -3.45703 -1.22004 0
M  V30 1344 H 117.756 -3.41214 -3.6957 0
M  V30 1345 H 117.456 -5.03605 -3.02746 0
M  V30 1346 H 118.98 -4.70039 -3.89738 0
M  V30 1347 H 120.394 -5.4575 -1.75584 0
M  V30 1348 H 118.791 -5.8994 -1.09956 0
M  V30 1349 H 119.861 -4.84648 -0.156453 0
M  V30 1350 N 121.204 0.198386 -1.56346 0
M  V30 1351 C 122.429 0.939682 -1.84891 0
M  V30 1352 C 122.854 1.76202 -0.658369 0
M  V30 1353 O 122.212 1.76993 0.392851 0
M  V30 1354 C 122.26 1.81428 -3.11635 0
M  V30 1355 O 121.364 2.91265 -2.91956 0
M  V30 1356 H 120.705 0.264807 -0.608912 0
M  V30 1357 H 123.235 0.204695 -2.03573 0
M  V30 1358 H 123.245 2.21958 -3.42343 0
M  V30 1359 H 121.92 1.21004 -3.97908 0
M  V30 1360 H 120.497 2.54514 -2.72538 0
M  V30 1361 N 122.682 1.50554 0.465978 0
M  V30 1362 C 124.093 1.54599 1.04671 0
M  V30 1363 C 124.444 0.352488 1.93008 0
M  V30 1364 O 123.569 -0.534044 2.09707 0
M  V30 1365 C 124.164 2.80166 1.90505 0
M  V30 1366 C 122.723 2.86876 2.43678 0
M  V30 1367 C 121.87 2.48947 1.22151 0
M  V30 1368 H 124.821 1.56744 0.248384 0
M  V30 1369 H 124.842 2.62311 2.75633 0
M  V30 1370 H 124.354 3.67013 1.26186 0
M  V30 1371 H 122.455 2.04393 3.11536 0
M  V30 1372 H 122.568 3.89885 2.78436 0
M  V30 1373 H 120.932 2.01498 1.5579 0
M  V30 1374 H 121.715 3.38107 0.594866 0
M  V30 1375 N 124.16 -0.719506 1.40217 0
M  V30 1376 C 125.388 -1.50864 1.41589 0
M  V30 1377 C 125.803 -1.88794 0.0145275 0
M  V30 1378 O 125.16 -1.55174 -0.960594 0
M  V30 1379 C 125.211 -2.78646 2.30302 0
M  V30 1380 O 124.932 -2.42321 3.64983 0
M  V30 1381 C 126.433 -3.72569 2.40224 0
M  V30 1382 H 123.653 -0.465709 0.48307 0
M  V30 1383 H 126.197 -0.88785 1.84221 0
M  V30 1384 H 124.352 -3.37019 1.91042 0
M  V30 1385 H 124.766 -3.24514 4.12057 0
M  V30 1386 H 126.24 -4.5908 3.06512 0
M  V30 1387 H 126.717 -4.15403 1.42608 0
M  V30 1388 H 127.323 -3.20109 2.80019 0
M  V30 1389 N 125.638 -1.25649 -0.95132 0
M  V30 1390 C 126.886 -1.10375 -1.69298 0
M  V30 1391 C 127.207 0.355339 -1.91735 0
M  V30 1392 O 126.477 1.25188 -1.50681 0
M  V30 1393 H 125.057 -0.405461 -0.627384 0
M  V30 1394 H 127.719 -1.57823 -1.14358 0
M  V30 1395 H 126.815 -1.61465 -2.67087 0
M  V30 1396 N 127.117 1.15442 -1.07289 0
M  V30 1397 C 128.363 1.86489 -0.796846 0
M  V30 1398 C 128.696 1.82078 0.675371 0
M  V30 1399 O 127.971 1.24346 1.4956 0
M  V30 1400 C 128.254 3.35626 -1.30489 0
M  V30 1401 C 128.107 3.48673 -2.84161 0
M  V30 1402 C 129.426 4.30357 -0.920907 0
M  V30 1403 H 126.545 0.677144 -0.290939 0
M  V30 1404 H 129.187 1.35633 -1.33056 0
M  V30 1405 H 127.337 3.79068 -0.850883 0
M  V30 1406 H 129.009 3.14099 -3.37846 0
M  V30 1407 H 127.252 2.90253 -3.22391 0
M  V30 1408 H 127.923 4.53453 -3.14777 0
M  V30 1409 H 130.399 3.94871 -1.3121 0
M  V30 1410 H 129.275 5.33193 -1.30372 0
M  V30 1411 H 129.536 4.4176 0.173226 0
M  V30 1412 N 128.595 0.856903 1.32268 0
M  V30 1413 C 129.82 0.474569 2.01897 0
M  V30 1414 C 130.245 -0.921766 1.63967 0
M  V30 1415 O 129.603 -1.60589 0.84148 0
M  V30 1416 C 129.651 0.623799 3.55164 0
M  V30 1417 O 128.755 -0.342459 4.10976 0
M  V30 1418 H 128.096 0.190422 0.63611 0
M  V30 1419 H 130.626 1.15672 1.68764 0
M  V30 1420 H 130.636 0.512169 4.04773 0
M  V30 1421 H 129.311 1.64202 3.82113 0
M  V30 1422 H 127.888 -0.18688 3.72431 0
M  V30 1423 N 130.073 -1.45103 0.615059 0
M  V30 1424 C 131.489 -1.57137 0.279322 0
M  V30 1425 C 131.689 -1.60523 -1.21797 0
M  V30 1426 O 130.745 -1.53956 -2.00134 0
M  V30 1427 C 132.058 -2.85062 0.957083 0
M  V30 1428 C 133.606 -2.98749 0.933706 0
M  V30 1429 C 134.081 -4.29455 1.59162 0
M  V30 1430 N 135.572 -4.36231 1.55746 0
M  V30 1431 C 136.307 -5.36051 2.0356 0
M  V30 1432 N 135.803 -6.42367 2.59494 0
M  V30 1433 N 137.596 -5.27456 1.94284 0
M  V30 1434 H 129.747 -1.41148 1.58717 0
M  V30 1435 H 132.01 -0.675331 0.665306 0
M  V30 1436 H 131.716 -2.88488 2.01166 0
M  V30 1437 H 131.59 -3.7407 0.48494 0
M  V30 1438 H 133.977 -2.94886 -0.112347 0
M  V30 1439 H 134.058 -2.11132 1.44419 0
M  V30 1440 H 133.702 -4.34077 2.63704 0
M  V30 1441 H 133.632 -5.15901 1.0561 0
M  V30 1442 H 136.123 -3.60011 1.14893 0
M  V30 1443 H 136.436 -7.14793 2.93752 0
M  V30 1444 H 134.781 -6.43097 2.63537 0
M  V30 1445 H 137.972 -4.43308 1.5032 0
M  V30 1446 H 138.145 -6.05099 2.3186 0
M  V30 1447 N 131.551 -0.354651 -1.53558 0
M  V30 1448 C 132.797 0.238797 -2.01389 0
M  V30 1449 C 133.13 1.49309 -1.2418 0
M  V30 1450 O 132.405 1.91638 -0.332457 0
M  V30 1451 C 132.688 0.541771 -3.56001 0
M  V30 1452 C 132.541 -0.725388 -4.43912 0
M  V30 1453 C 133.86 1.34685 -4.18984 0
M  V30 1454 H 130.979 0.0853177 -0.732045 0
M  V30 1455 H 133.621 -0.477384 -1.83905 0
M  V30 1456 H 131.771 1.15189 -3.71031 0
M  V30 1457 H 133.443 -1.36313 -4.407 0
M  V30 1458 H 131.686 -1.34801 -4.12324 0
M  V30 1459 H 132.357 -0.468505 -5.50008 0
M  V30 1460 H 134.833 0.830837 -4.07721 0
M  V30 1461 H 133.709 1.52759 -5.27215 0
M  V30 1462 H 133.97 2.35221 -3.74331 0
M  V30 1463 N 133.029 1.57378 -0.0835403 0
M  V30 1464 C 134.269 1.95808 0.586381 0
M  V30 1465 C 134.633 0.963706 1.66062 0
M  V30 1466 O 135.834 1.23608 2.38693 0
M  V30 1467 C 134.105 3.38808 1.13771 0
M  V30 1468 S 135.664 3.99225 1.82112 0
M  V30 1469 H 132.482 0.684675 0.191679 0
M  V30 1470 H 135.084 1.94843 -0.160194 0
M  V30 1471 H 133.788 4.08954 0.344197 0
M  V30 1472 H 133.319 3.43344 1.92038 0
M  V30 1473 H 135.334 3.87087 3.10449 0
M  V30 1474 N 134.507 -0.190092 1.56449 0
M  V30 1475 C 135.437 -1.23816 1.97969 0
M  V30 1476 C 136.418 -1.47201 0.852395 0
M  V30 1477 O 137.603 -1.58854 1.1171 0
M  V30 1478 C 134.733 -2.5813 2.3235 0
M  V30 1479 C 133.687 -2.49348 3.47864 0
M  V30 1480 C 133.013 -3.8798 3.67934 0
M  V30 1481 C 134.313 -2.01424 4.81898 0
M  V30 1482 H 136.007 -0.89311 2.85769 0
M  V30 1483 H 133.553 -0.428177 1.37487 0
M  V30 1484 H 135.506 -3.31637 2.59991 0
M  V30 1485 H 134.23 -2.94386 1.41438 0
M  V30 1486 H 132.889 -1.78297 3.20321 0
M  V30 1487 H 132.537 -4.21597 2.74344 0
M  V30 1488 H 132.237 -3.82978 4.45648 0
M  V30 1489 H 133.761 -4.63101 3.97957 0
M  V30 1490 H 135.175 -2.64693 5.08538 0
M  V30 1491 H 133.572 -2.07413 5.63116 0
M  V30 1492 H 134.642 -0.967677 4.75146 0
M  V30 1493 N 135.985 -1.50799 -0.457987 0
M  V30 1494 C 137.215 -1.65977 -1.23025 0
M  V30 1495 C 137.623 -0.347918 -1.85974 0
M  V30 1496 O 136.966 0.68148 -1.70592 0
M  V30 1497 C 137.028 -2.70309 -2.3701 0
M  V30 1498 C 136.692 -4.135 -1.94594 0
M  V30 1499 C 137.689 -4.98949 -1.46101 0
M  V30 1500 C 135.374 -4.5949 -2.02915 0
M  V30 1501 C 137.368 -6.28442 -1.06489 0
M  V30 1502 C 135.055 -5.88984 -1.62914 0
M  V30 1503 C 136.053 -6.73286 -1.1478 0
M  V30 1504 O 135.741 -8.00362 -0.75339 0
M  V30 1505 H 135.473 -0.56064 -0.377702 0
M  V30 1506 H 138.027 -1.97857 -0.551537 0
M  V30 1507 H 136.257 -2.337 -3.08093 0
M  V30 1508 H 137.946 -2.74574 -2.98938 0
M  V30 1509 H 138.712 -4.6463 -1.39084 0
M  V30 1510 H 134.591 -3.94009 -2.39328 0
M  V30 1511 H 138.135 -6.94194 -0.688488 0
M  V30 1512 H 134.032 -6.22822 -1.69595 0
M  V30 1513 H 134.8 -8.13744 -0.88108 0
M  V30 1514 N 137.463 0.71206 -1.40597 0
M  V30 1515 C 138.874 1.29135 -1.34837 0
M  V30 1516 C 139.225 1.96186 -0.0235395 0
M  V30 1517 O 138.35 1.97768 0.878444 0
M  V30 1518 C 138.945 2.34827 -2.44217 0
M  V30 1519 C 137.504 2.88371 -2.41907 0
M  V30 1520 C 136.651 1.62202 -2.24913 0
M  V30 1521 H 139.602 0.507944 -1.50352 0
M  V30 1522 H 139.623 3.15749 -2.12327 0
M  V30 1523 H 139.135 1.85996 -3.40627 0
M  V30 1524 H 137.236 3.41422 -1.49204 0
M  V30 1525 H 137.349 3.39925 -3.37621 0
M  V30 1526 H 135.713 1.874 -1.72492 0
M  V30 1527 H 136.496 1.15391 -3.23326 0
M  V30 1528 N 138.941 1.26152 0.944643 0
M  V30 1529 C 140.189 1.11271 1.6871 0
M  V30 1530 C 140.51 -0.345166 1.91921 0
M  V30 1531 O 139.78 -1.24387 1.51343 0
M  V30 1532 H 138.36 0.408783 0.625224 0
M  V30 1533 H 141.022 1.58427 1.1352 0
M  V30 1534 H 140.118 1.62879 2.66227 0
M  V30 1535 N 140.419 -1.14872 1.07899 0
M  V30 1536 C 141.666 -1.85789 0.805532 0
M  V30 1537 C 141.994 -1.82649 -0.668561 0
M  V30 1538 O 141.249 -1.24858 -1.50695 0
M  V30 1539 C 141.548 -3.34223 1.26609 0
M  V30 1540 C 141.214 -3.57555 2.74709 0
M  V30 1541 C 139.876 -3.63631 3.1516 0
M  V30 1542 C 142.228 -3.66803 3.70277 0
M  V30 1543 C 139.556 -3.76473 4.49983 0
M  V30 1544 C 141.908 -3.8117 5.04869 0
M  V30 1545 C 140.572 -3.85494 5.44932 0
M  V30 1546 H 139.842 -0.679849 0.294765 0
M  V30 1547 H 142.489 -1.3572 1.35101 0
M  V30 1548 H 140.794 -3.86536 0.640103 0
M  V30 1549 H 142.491 -3.87511 1.03132 0
M  V30 1550 H 139.081 -3.5347 2.42398 0
M  V30 1551 H 143.265 -3.61404 3.40149 0
M  V30 1552 H 138.521 -3.7808 4.80484 0
M  V30 1553 H 142.695 -3.87268 5.78789 0
M  V30 1554 H 140.322 -3.95197 6.49403 0
M  V30 1555 N 141.898 -0.863906 -1.31812 0
M  V30 1556 C 143.144 -0.472535 -1.97218 0
M  V30 1557 C 143.477 0.971394 -1.68159 0
M  V30 1558 O 142.752 1.68309 -0.974798 0
M  V30 1559 C 143.035 -0.723054 -3.52766 0
M  V30 1560 C 142.888 -2.21608 -3.91421 0
M  V30 1561 C 144.207 -0.185522 -4.39709 0
M  V30 1562 H 141.326 -0.173158 -0.71637 0
M  V30 1563 H 143.968 -1.08403 -1.56041 0
M  V30 1564 H 142.118 -0.202577 -3.87971 0
M  V30 1565 H 143.79 -2.80334 -3.66347 0
M  V30 1566 H 142.033 -2.691 -3.40246 0
M  V30 1567 H 142.704 -2.34203 -4.99853 0
M  V30 1568 H 145.18 -0.630726 -4.11292 0
M  V30 1569 H 144.056 -0.390306 -5.47511 0
M  V30 1570 H 144.317 0.912229 -4.32586 0
M  V30 1571 N 143.376 1.44774 -0.622745 0
M  V30 1572 C 144.653 1.95522 -0.0551974 0
M  V30 1573 C 145.033 1.5649 1.41683 0
M  V30 1574 O 144.381 0.834848 2.12703 0
M  V30 1575 C 144.591 3.4796 -0.269242 0
M  V30 1576 C 145.939 4.24306 -0.158014 0
M  V30 1577 O 146.963 3.55637 -0.200162 0
M  V30 1578 O 145.822 5.46471 -0.0558693 0
M  V30 1579 H 142.916 0.826556 0.0271015 0
M  V30 1580 H 145.462 1.54866 -0.693864 0
M  V30 1581 H 144.234 3.6939 -1.29099 0
M  V30 1582 H 143.857 3.95543 0.403966 0
M  V30 1583 N 144.854 0.36279 1.53368 0
M  V30 1584 C 146.1 -0.228113 2.01513 0
M  V30 1585 C 146.433 -1.48648 1.2497 0
M  V30 1586 O 145.708 -1.91459 0.342616 0
M  V30 1587 C 145.991 -0.522884 3.56284 0
M  V30 1588 C 145.844 0.74892 4.43521 0
M  V30 1589 C 147.163 -1.32461 4.19693 0
M  V30 1590 H 144.282 -0.0814343 0.732487 0
M  V30 1591 H 146.924 0.48713 1.83649 0
M  V30 1592 H 145.074 -1.1322 3.71636 0
M  V30 1593 H 146.746 1.38648 4.39971 0
M  V30 1594 H 144.989 1.36986 4.11603 0
M  V30 1595 H 145.66 0.497667 5.49752 0
M  V30 1596 H 148.136 -0.809203 4.08156 0
M  V30 1597 H 147.012 -1.49961 5.28018 0
M  V30 1598 H 147.273 -2.33232 3.75573 0
M  V30 1599 N 146.332 -1.57332 0.0918853 0
M  V30 1600 C 147.279 -2.13847 -0.868211 0
M  V30 1601 C 148.249 -1.05618 -1.28196 0
M  V30 1602 O 149.434 -1.33387 -1.36427 0
M  V30 1603 C 146.574 -2.72062 -2.12312 0
M  V30 1604 C 145.687 -3.94514 -1.7602 0
M  V30 1605 C 144.822 -4.40903 -2.96273 0
M  V30 1606 C 143.861 -5.55953 -2.56092 0
M  V30 1607 N 142.998 -5.97209 -3.69169 0
M  V30 1608 H 147.838 -2.95575 -0.379406 0
M  V30 1609 H 145.375 -1.46048 -0.175606 0
M  V30 1610 H 147.333 -3.03931 -2.858 0
M  V30 1611 H 145.963 -1.93068 -2.58698 0
M  V30 1612 H 145.015 -3.68979 -0.925135 0
M  V30 1613 H 146.327 -4.7802 -1.42472 0
M  V30 1614 H 145.481 -4.74539 -3.78018 0
M  V30 1615 H 144.22 -3.56291 -3.33029 0
M  V30 1616 H 143.225 -5.21948 -1.72773 0
M  V30 1617 H 144.45 -6.42311 -2.20484 0
M  V30 1618 H 142.396 -5.15543 -4.05649 0
M  V30 1619 H 142.313 -6.75504 -3.39456 0
M  V30 1620 H 143.581 -6.35475 -4.51434 0
M  V30 1621 N 147.81 0.181792 -1.56548 0
M  V30 1622 C 148.72 1.24538 -1.98815 0
M  V30 1623 C 149.736 1.49045 -0.897861 0
M  V30 1624 O 150.912 1.61399 -1.20467 0
M  V30 1625 C 147.977 2.56683 -2.33055 0
M  V30 1626 C 147.038 2.40131 -3.55859 0
M  V30 1627 C 146.271 3.65975 -3.88456 0
M  V30 1628 O 146.494 4.70711 -3.22161 0
M  V30 1629 O 145.428 3.6071 -4.81842 0
M  V30 1630 H 149.254 0.916647 -2.89536 0
M  V30 1631 H 146.839 0.387842 -1.44278 0
M  V30 1632 H 148.721 3.34655 -2.56094 0
M  V30 1633 H 147.396 2.89157 -1.45498 0
M  V30 1634 H 146.303 1.60226 -3.38051 0
M  V30 1635 H 147.636 2.12585 -4.43924 0
M  V30 1636 N 149.288 1.51039 0.449983 0
M  V30 1637 C 150.251 1.70863 1.5277 0
M  V30 1638 C 151.251 0.578846 1.5002 0
M  V30 1639 O 152.441 0.846213 1.52266 0
M  V30 1640 C 149.573 1.75341 2.9235 0
M  V30 1641 H 150.766 2.67034 1.36502 0
M  V30 1642 H 148.319 1.40838 0.677812 0
M  V30 1643 H 149.054 0.809383 3.14037 0
M  V30 1644 H 148.839 2.57436 2.95752 0
M  V30 1645 H 150.329 1.92559 3.70555 0
M  V30 1646 N 150.766 -0.704594 1.40972 0
M  V30 1647 C 152.043 -1.45847 1.30338 0
M  V30 1648 C 152.423 -2.10973 -0.0732344 0
M  V30 1649 O 151.771 -2.00997 -1.08685 0
M  V30 1650 C 151.981 -2.48525 2.45023 0
M  V30 1651 C 153.329 -3.1404 2.8577 0
M  V30 1652 O 154.353 -2.58848 2.44696 0
M  V30 1653 O 153.212 -4.13981 3.56766 0
M  V30 1654 H 150.306 -0.649092 0.512454 0
M  V30 1655 H 152.852 -0.735836 1.52917 0
M  V30 1656 H 151.624 -1.98994 3.36923 0
M  V30 1657 H 151.247 -3.2831 2.24272 0
M  V30 1658 N 152.244 -1.26651 -0.937939 0
M  V30 1659 C 153.49 -1.13562 -1.68746 0
M  V30 1660 C 153.845 0.317241 -1.89767 0
M  V30 1661 O 153.138 1.22939 -1.46957 0
M  V30 1662 C 153.332 -1.84168 -3.06295 0
M  V30 1663 C 153.161 -3.36171 -2.98696 0
M  V30 1664 C 151.931 -4.05468 -3.01535 0
M  V30 1665 C 154.129 -4.32312 -2.78588 0
M  V30 1666 N 152.111 -5.44118 -2.84269 0
M  V30 1667 C 153.482 -5.58159 -2.69924 0
M  V30 1668 C 155.537 -4.22524 -2.63396 0
M  V30 1669 C 154.24 -6.75335 -2.47618 0
M  V30 1670 C 156.266 -5.39411 -2.42466 0
M  V30 1671 C 155.628 -6.64208 -2.34536 0
M  V30 1672 H 151.727 -0.470361 -0.624728 0
M  V30 1673 H 154.311 -1.59982 -1.10968 0
M  V30 1674 H 152.482 -1.40219 -3.62206 0
M  V30 1675 H 154.214 -1.63674 -3.70126 0
M  V30 1676 H 150.969 -3.56854 -3.11372 0
M  V30 1677 H 151.393 -6.1693 -2.78795 0
M  V30 1678 H 156.035 -3.26771 -2.68292 0
M  V30 1679 H 153.753 -7.71182 -2.41463 0
M  V30 1680 H 157.339 -5.33711 -2.31611 0
M  V30 1681 H 156.219 -7.53129 -2.18555 0
M  V30 1682 N 153.722 1.14298 -1.08507 0
M  V30 1683 C 154.971 1.84708 -0.810305 0
M  V30 1684 C 155.284 1.83903 0.666271 0
M  V30 1685 O 156.49 2.50112 1.05624 0
M  V30 1686 C 154.946 3.31572 -1.39957 0
M  V30 1687 C 154.554 3.40791 -2.90801 0
M  V30 1688 C 156.298 4.07087 -1.20334 0
M  V30 1689 C 154.205 4.81872 -3.4286 0
M  V30 1690 H 153.135 0.691985 -0.299454 0
M  V30 1691 H 155.786 1.28841 -1.30661 0
M  V30 1692 H 154.168 3.87183 -0.830976 0
M  V30 1693 H 155.342 2.95225 -3.53806 0
M  V30 1694 H 153.657 2.78732 -3.0935 0
M  V30 1695 H 156.254 5.11225 -1.56693 0
M  V30 1696 H 156.597 4.16054 -0.143237 0
M  V30 1697 H 157.13 3.57779 -1.73893 0
M  V30 1698 H 153.869 4.78094 -4.48449 0
M  V30 1699 H 153.389 5.27972 -2.84615 0
M  V30 1700 H 155.068 5.50765 -3.39509 0
M  V30 1701 N 155.201 0.870884 1.31352 0
M  V30 1702 C 156.131 0.343096 2.30966 0
M  V30 1703 C 157.112 -0.566507 1.60389 0
M  V30 1704 O 158.297 -0.483336 1.88089 0
M  V30 1705 C 155.427 -0.455487 3.443 0
M  V30 1706 C 154.381 0.361103 4.26474 0
M  V30 1707 C 153.707 -0.563221 5.31725 0
M  V30 1708 C 155.007 1.59566 4.97329 0
M  V30 1709 H 156.701 1.17548 2.75359 0
M  V30 1710 H 154.247 0.566686 1.32381 0
M  V30 1711 H 156.2 -0.83525 4.13039 0
M  V30 1712 H 154.924 -1.32139 2.98675 0
M  V30 1713 H 153.583 0.722825 3.59403 0
M  V30 1714 H 153.231 -1.42643 4.82351 0
M  V30 1715 H 152.931 -0.0207409 5.87596 0
M  V30 1716 H 154.455 -0.939808 6.03324 0
M  V30 1717 H 155.869 1.28728 5.58661 0
M  V30 1718 H 154.266 2.07728 5.63 0
M  V30 1719 H 155.336 2.34798 4.24262 0
M  V30 1720 N 156.679 -1.44442 0.630414 0
M  V30 1721 C 157.589 -2.34476 -0.0761693 0
M  V30 1722 C 158.605 -1.52576 -0.836449 0
M  V30 1723 O 159.781 -1.85307 -0.788874 0
M  V30 1724 C 156.846 -3.30545 -1.04599 0
M  V30 1725 C 155.907 -4.28352 -0.28516 0
M  V30 1726 C 155.14 -5.19831 -1.20878 0
M  V30 1727 O 155.363 -5.15223 -2.44747 0
M  V30 1728 O 154.297 -5.97892 -0.693491 0
M  V30 1729 H 158.123 -2.96345 0.664324 0
M  V30 1730 H 155.708 -1.44203 0.39061 0
M  V30 1731 H 157.59 -3.89681 -1.60396 0
M  V30 1732 H 156.265 -2.7121 -1.76711 0
M  V30 1733 H 155.172 -3.72764 0.315837 0
M  V30 1734 H 156.505 -4.90605 0.395924 0
M  V30 1735 N 158.157 -0.370918 -1.53173 0
M  V30 1736 C 159.089 0.507823 -2.23503 0
M  V30 1737 C 160.102 1.04182 -1.251 0
M  V30 1738 O 161.291 0.947286 -1.5129 0
M  V30 1739 C 158.391 1.71447 -2.92334 0
M  V30 1740 C 157.564 1.31105 -4.17289 0
M  V30 1741 C 156.623 2.38035 -4.69282 0
M  V30 1742 O 155.649 2.00204 -5.32829 0
M  V30 1743 N 156.851 3.69697 -4.47554 0
M  V30 1744 H 159.616 -0.0946382 -2.99551 0
M  V30 1745 H 157.177 -0.196358 -1.60705 0
M  V30 1746 H 159.169 2.42469 -3.24023 0
M  V30 1747 H 157.739 2.22368 -2.19707 0
M  V30 1748 H 156.959 0.430462 -3.91843 0
M  V30 1749 H 158.247 1.0179 -4.98514 0
M  V30 1750 H 157.645 4.03205 -3.9679 0
M  V30 1751 H 156.202 4.36807 -4.8378 0
M  V30 1752 N 159.635 1.57281 -0.100228 0
M  V30 1753 C 160.565 2.17328 0.853857 0
M  V30 1754 C 161.546 1.10804 1.2906 0
M  V30 1755 O 162.731 1.38963 1.35657 0
M  V30 1756 C 159.861 2.75772 2.11109 0
M  V30 1757 C 158.815 3.87713 1.81279 0
M  V30 1758 C 158.141 4.32882 3.13874 0
M  V30 1759 C 159.441 5.10677 1.09574 0
M  V30 1760 H 161.135 2.97305 0.353545 0
M  V30 1761 H 158.681 1.43009 0.168612 0
M  V30 1762 H 160.634 3.16433 2.78296 0
M  V30 1763 H 159.358 1.93057 2.63432 0
M  V30 1764 H 158.017 3.476 1.16489 0
M  V30 1765 H 157.665 3.47051 3.64095 0
M  V30 1766 H 157.365 5.08358 2.94696 0
M  V30 1767 H 158.889 4.7618 3.82211 0
M  V30 1768 H 160.303 5.48474 1.66879 0
M  V30 1769 H 158.7 5.91615 1.00557 0
M  V30 1770 H 159.77 4.84835 0.0793299 0
M  V30 1771 N 161.113 -0.173488 1.56642 0
M  V30 1772 C 162.353 -0.896984 1.83667 0
M  V30 1773 C 162.717 -1.79523 0.680842 0
M  V30 1774 O 163.918 -2.55616 0.831488 0
M  V30 1775 C 162.189 -1.67351 3.15798 0
M  V30 1776 S 163.748 -2.44607 3.64298 0
M  V30 1777 H 160.566 -0.300464 0.644393 0
M  V30 1778 H 163.168 -0.158775 1.94854 0
M  V30 1779 H 161.872 -1.00462 3.97914 0
M  V30 1780 H 161.403 -2.45313 3.07546 0
M  V30 1781 H 163.418 -3.69261 3.31452 0
M  V30 1782 N 162.591 -1.51276 -0.441967 0
M  V30 1783 C 163.523 -1.68444 -1.55433 0
M  V30 1784 C 164.536 -0.565187 -1.52674 0
M  V30 1785 O 165.725 -0.839356 -1.57534 0
M  V30 1786 C 162.825 -1.67966 -2.94348 0
M  V30 1787 C 161.998 -2.964 -3.21661 0
M  V30 1788 C 161.057 -2.88171 -4.40277 0
M  V30 1789 O 160.083 -3.62119 -4.39157 0
M  V30 1790 N 161.285 -2.03706 -5.43584 0
M  V30 1791 H 164.05 -2.644 -1.41112 0
M  V30 1792 H 161.611 -1.49104 -0.630838 0
M  V30 1793 H 163.603 -1.60035 -3.71713 0
M  V30 1794 H 162.173 -0.796225 -3.0229 0
M  V30 1795 H 161.393 -3.18234 -2.32638 0
M  V30 1796 H 162.681 -3.81427 -3.36736 0
M  V30 1797 H 162.079 -1.42995 -5.47329 0
M  V30 1798 H 160.636 -2.01658 -6.1982 0
M  V30 1799 N 164.069 0.697108 -1.41344 0
M  V30 1800 C 165.346 1.45154 -1.31109 0
M  V30 1801 C 165.726 2.11009 0.0620449 0
M  V30 1802 O 165.074 2.01571 1.07618 0
M  V30 1803 C 165.284 2.47223 -2.46337 0
M  V30 1804 C 166.632 3.1252 -2.87431 0
M  V30 1805 O 167.656 2.57547 -2.46065 0
M  V30 1806 O 166.515 4.12083 -3.58957 0
M  V30 1807 H 163.609 0.646365 -0.515889 0
M  V30 1808 H 166.155 0.727716 -1.53305 0
M  V30 1809 H 164.927 1.97204 -3.37974 0
M  V30 1810 H 164.55 3.27116 -2.2601 0
M  V30 1811 N 165.547 1.27147 0.931209 0
M  V30 1812 C 166.793 1.13446 1.68101 0
M  V30 1813 C 167.126 -0.319628 1.91552 0
M  V30 1814 O 166.401 -1.23407 1.50336 0
M  V30 1815 C 166.684 1.91482 3.0497 0
M  V30 1816 C 166.537 3.44855 2.88782 0
M  V30 1817 C 167.856 1.71651 4.05246 0
M  V30 1818 H 164.975 0.413498 0.610072 0
M  V30 1819 H 167.617 1.56261 1.08086 0
M  V30 1820 H 165.767 1.55095 3.56199 0
M  V30 1821 H 167.439 3.9105 2.44698 0
M  V30 1822 H 165.682 3.71373 2.24198 0
M  V30 1823 H 166.353 3.94694 3.85902 0
M  V30 1824 H 168.829 2.0337 3.63015 0
M  V30 1825 H 167.705 2.28651 4.99009 0
M  V30 1826 H 167.966 0.663555 4.37092 0
M  V30 1827 N 167.025 -1.13721 1.09112 0
M  V30 1828 C 168.436 -1.6648 0.845068 0
M  V30 1829 C 168.787 -1.85911 -0.62701 0
M  V30 1830 O 167.912 -1.57556 -1.48341 0
M  V30 1831 C 168.507 -3.02413 1.52748 0
M  V30 1832 C 167.066 -3.52176 1.32849 0
M  V30 1833 C 166.213 -2.27492 1.58564 0
M  V30 1834 H 169.164 -0.976872 1.25072 0
M  V30 1835 H 169.185 -3.68223 0.958752 0
M  V30 1836 H 168.697 -2.88238 2.59885 0
M  V30 1837 H 166.798 -3.7156 0.278137 0
M  V30 1838 H 166.911 -4.32499 2.0611 0
M  V30 1839 H 165.275 -2.33923 1.00758 0
M  V30 1840 H 166.058 -2.15886 2.66924 0
M  V30 1841 N 168.503 -0.877838 -1.30888 0
M  V30 1842 C 169.749 -0.502773 -1.97088 0
M  V30 1843 C 170.104 0.936274 -1.68082 0
M  V30 1844 O 169.397 1.65162 -0.971196 0
M  V30 1845 C 169.591 -0.705748 -3.50363 0
M  V30 1846 C 169.42 -2.16297 -3.94266 0
M  V30 1847 C 168.19 -2.80614 -4.20219 0
M  V30 1848 C 170.388 -3.13606 -4.07622 0
M  V30 1849 N 168.37 -4.17007 -4.50532 0
M  V30 1850 C 169.741 -4.35051 -4.41736 0
M  V30 1851 C 171.796 -3.09491 -3.90026 0
M  V30 1852 C 170.499 -5.52911 -4.60089 0
M  V30 1853 C 172.525 -4.26616 -4.09576 0
M  V30 1854 C 171.887 -5.46825 -4.44029 0
M  V30 1855 H 167.986 -0.233168 -0.746429 0
M  V30 1856 H 170.57 -1.13408 -1.58261 0
M  V30 1857 H 168.741 -0.103976 -3.88261 0
M  V30 1858 H 170.473 -0.298291 -4.03599 0
M  V30 1859 H 167.228 -2.3152 -4.13153 0
M  V30 1860 H 167.652 -4.87426 -4.69834 0
M  V30 1861 H 172.294 -2.17657 -3.62471 0
M  V30 1862 H 170.012 -6.45255 -4.86489 0
M  V30 1863 H 173.598 -4.24894 -3.97438 0
M  V30 1864 H 172.478 -6.35947 -4.58848 0
M  V30 1865 N 169.982 1.44106 -0.638065 0
M  V30 1866 C 170.929 2.30715 0.062701 0
M  V30 1867 C 171.899 1.43882 0.829883 0
M  V30 1868 O 173.084 1.72775 0.809532 0
M  V30 1869 C 170.224 3.29258 1.03358 0
M  V30 1870 C 169.337 4.31192 0.26409 0
M  V30 1871 C 168.472 5.16825 1.22741 0
M  V30 1872 C 167.511 6.10462 0.447475 0
M  V30 1873 N 166.648 6.8877 1.36161 0
M  V30 1874 H 171.488 2.90096 -0.681781 0
M  V30 1875 H 169.025 1.42925 -0.347988 0
M  V30 1876 H 170.983 3.84886 1.60992 0
M  V30 1877 H 169.613 2.71562 1.74511 0
M  V30 1878 H 168.665 3.77981 -0.428295 0
M  V30 1879 H 169.977 4.97619 -0.343052 0
M  V30 1880 H 169.131 5.77004 1.87487 0
M  V30 1881 H 167.87 4.50488 1.86847 0
M  V30 1882 H 166.875 5.49386 -0.213433 0
M  V30 1883 H 168.1 6.78837 -0.188968 0
M  V30 1884 H 166.046 6.25096 1.98975 0
M  V30 1885 H 165.963 7.51663 0.808656 0
M  V30 1886 H 167.231 7.53467 1.99769 0
M  V30 1887 N 171.46 0.379036 1.52974 0
M  V30 1888 C 172.392 -0.495963 2.2377 0
M  V30 1889 C 173.405 -1.03517 1.25651 0
M  V30 1890 O 174.594 -0.939249 1.51791 0
M  V30 1891 C 171.694 -1.69894 2.93239 0
M  V30 1892 C 170.867 -1.2889 4.17979 0
M  V30 1893 C 169.926 -2.35543 4.70538 0
M  V30 1894 O 168.952 -1.97375 5.33883 0
M  V30 1895 N 170.154 -3.67318 4.49508 0
M  V30 1896 H 172.919 0.110523 2.99496 0
M  V30 1897 H 170.48 0.204878 1.60598 0
M  V30 1898 H 172.472 -2.40747 3.25304 0
M  V30 1899 H 171.042 -2.212 2.20883 0
M  V30 1900 H 170.262 -0.409676 3.92065 0
M  V30 1901 H 171.55 -0.991443 4.99047 0
M  V30 1902 H 170.948 -4.01095 3.98923 0
M  V30 1903 H 169.505 -4.34235 4.8609 0
M  V30 1904 N 172.938 -1.57226 0.108567 0
M  V30 1905 C 174.354 -1.5766 -0.248058 0
M  V30 1906 C 174.554 -1.12063 -1.67464 0
M  V30 1907 O 173.61 -0.803236 -2.39383 0
M  V30 1908 C 174.923 -3.0069 -0.0242287 0
M  V30 1909 C 176.471 -3.12868 -0.0909372 0
M  V30 1910 C 176.946 -4.57879 0.105067 0
M  V30 1911 N 178.437 -4.63172 0.0506846 0
M  V30 1912 C 179.172 -5.73126 0.177396 0
M  V30 1913 N 178.668 -6.91866 0.359696 0
M  V30 1914 N 180.461 -5.61977 0.117709 0
M  V30 1915 H 172.612 -1.85169 1.04049 0
M  V30 1916 H 174.875 -0.85529 0.40888 0
M  V30 1917 H 174.581 -3.38299 0.961604 0
M  V30 1918 H 174.455 -3.6945 -0.76068 0
M  V30 1919 H 176.842 -2.75124 -1.06729 0
M  V30 1920 H 176.923 -2.46672 0.677225 0
M  V30 1921 H 176.567 -4.96321 1.07834 0
M  V30 1922 H 176.497 -5.22153 -0.682954 0
M  V30 1923 H 178.988 -3.778 -0.0871266 0
M  V30 1924 H 179.301 -7.71503 0.447529 0
M  V30 1925 H 177.646 -6.93874 0.395536 0
M  V30 1926 H 180.837 -4.68094 -0.0236741 0
M  V30 1927 H 181.01 -6.47627 0.219905 0
M  V30 1928 N 174.416 0.165178 -1.56732 0
M  V30 1929 C 175.644 0.896218 -1.86482 0
M  V30 1930 C 176.059 1.75555 -0.694675 0
M  V30 1931 O 175.416 1.79379 0.33607 0
M  V30 1932 C 175.467 1.76792 -3.1532 0
M  V30 1933 O 175.188 0.943239 -4.27825 0
M  V30 1934 C 176.689 2.6081 -3.58459 0
M  V30 1935 H 173.909 0.260064 -0.618553 0
M  V30 1936 H 176.453 0.163428 -2.03846 0
M  V30 1937 H 174.608 2.45398 -2.99764 0
M  V30 1938 H 175.022 1.53998 -5.01383 0
M  V30 1939 H 176.496 3.17579 -4.51495 0
M  V30 1940 H 176.973 3.35977 -2.82872 0
M  V30 1941 H 177.579 1.97526 -3.76648 0
M  V30 1942 N 175.894 1.51508 0.433938 0
M  V30 1943 C 177.142 1.6402 1.18075 0
M  V30 1944 C 177.463 0.360328 1.91642 0
M  V30 1945 O 176.733 -0.623945 1.85698 0
M  V30 1946 H 175.313 0.6045 0.43885 0
M  V30 1947 H 177.975 1.88452 0.497178 0
M  V30 1948 H 177.071 2.46949 1.90847 0
M  V30 1949 N 177.372 -0.689602 1.41712 0
M  V30 1950 C 178.621 -1.44534 1.40686 0
M  V30 1951 C 178.934 -1.95588 0.0213352 0
M  V30 1952 O 180.14 -2.71271 -0.111534 0
M  V30 1953 C 178.596 -2.61387 2.47396 0
M  V30 1954 C 178.204 -2.17094 3.91885 0
M  V30 1955 C 179.948 -3.38986 2.55517 0
M  V30 1956 C 177.855 -3.3094 4.90135 0
M  V30 1957 H 176.785 -0.542925 0.52321 0
M  V30 1958 H 179.436 -0.748054 1.6756 0
M  V30 1959 H 177.818 -3.33412 2.13664 0
M  V30 1960 H 178.992 -1.52318 4.34897 0
M  V30 1961 H 177.307 -1.52473 3.8748 0
M  V30 1962 H 179.904 -4.23747 3.26102 0
M  V30 1963 H 180.247 -3.84578 1.59391 0
M  V30 1964 H 180.78 -2.74021 2.8837 0
M  V30 1965 H 177.519 -2.90355 5.87685 0
M  V30 1966 H 177.039 -3.94546 4.51767 0
M  V30 1967 H 178.718 -3.9663 5.11169 0
M  V30 1968 N 178.85 -1.27639 -0.924453 0
M  V30 1969 C 180.266 -1.05113 -1.20097 0
M  V30 1970 C 180.466 0.213262 -2.00368 0
M  V30 1971 O 179.522 0.91787 -2.35226 0
M  V30 1972 C 180.835 -2.29244 -1.94596 0
M  V30 1973 C 182.383 -2.34315 -2.07522 0
M  V30 1974 C 182.858 -3.58183 -2.85427 0
M  V30 1975 N 184.349 -3.5876 -2.92994 0
M  V30 1976 C 185.084 -4.51277 -3.53746 0
M  V30 1977 N 184.58 -5.54102 -4.15863 0
M  V30 1978 N 186.373 -4.38894 -3.51181 0
M  V30 1979 H 178.524 -2.08821 -0.388264 0
M  V30 1980 H 180.787 -0.918568 -0.234385 0
M  V30 1981 H 180.493 -3.21301 -1.43034 0
M  V30 1982 H 180.367 -2.34816 -2.95197 0
M  V30 1983 H 182.754 -1.42762 -2.58269 0
M  V30 1984 H 182.835 -2.32744 -1.06131 0
M  V30 1985 H 182.479 -4.50074 -2.35363 0
M  V30 1986 H 182.409 -3.57006 -3.8711 0
M  V30 1987 H 184.9 -2.84398 -2.4885 0
M  V30 1988 H 185.213 -6.20859 -4.60168 0
M  V30 1989 H 183.558 -5.57941 -4.144 0
M  V30 1990 H 186.749 -3.57772 -3.01856 0
M  V30 1991 H 186.922 -5.11186 -3.98237 0
M  V30 1992 N 180.328 1.1314 -1.09713 0
M  V30 1993 C 181.238 2.22242 -0.751367 0
M  V30 1994 C 182.254 1.72224 0.247938 0
M  V30 1995 O 183.43 2.01205 0.0885463 0
M  V30 1996 C 180.495 3.46231 -0.180274 0
M  V30 1997 C 179.556 4.11125 -1.2359 0
M  V30 1998 C 178.789 5.29195 -0.691966 0
M  V30 1999 O 179.012 5.68342 0.48414 0
M  V30 2000 O 177.946 5.84214 -1.44838 0
M  V30 2001 H 181.772 2.54197 -1.66186 0
M  V30 2002 H 179.357 1.21331 -0.871735 0
M  V30 2003 H 181.239 4.21185 0.134739 0
M  V30 2004 H 179.914 3.1597 0.703185 0
M  V30 2005 H 178.821 3.37985 -1.60366 0
M  V30 2006 H 180.154 4.45524 -2.09211 0
M  V30 2007 N 181.806 0.884767 1.30421 0
M  V30 2008 C 183.083 0.423185 1.90967 0
M  V30 2009 C 183.463 -1.09605 1.80416 0
M  V30 2010 O 182.811 -1.93126 1.22125 0
M  V30 2011 C 183.021 0.921056 3.36627 0
M  V30 2012 C 184.369 0.955903 4.137 0
M  V30 2013 O 185.393 0.867706 3.4547 0
M  V30 2014 O 184.252 1.08614 5.35598 0
M  V30 2015 H 181.346 0.129369 0.816819 0
M  V30 2016 H 183.892 0.973653 1.3899 0
M  V30 2017 H 182.664 1.96489 3.3839 0
M  V30 2018 H 182.287 0.349741 3.96059 0
M  V30 2019 N 183.284 -1.43765 0.645699 0
M  V30 2020 C 184.533 -2.01116 0.153412 0
M  V30 2021 C 184.846 -1.51493 -1.23731 0
M  V30 2022 O 186.052 -2.01067 -1.8244 0
M  V30 2023 C 184.508 -3.59206 0.223473 0
M  V30 2024 C 184.116 -4.17823 1.61642 0
M  V30 2025 C 185.86 -4.23972 -0.211597 0
M  V30 2026 C 183.767 -5.68183 1.64081 0
M  V30 2027 H 182.697 -0.752093 0.0535891 0
M  V30 2028 H 185.348 -1.6482 0.806633 0
M  V30 2029 H 183.73 -3.92867 -0.497118 0
M  V30 2030 H 184.904 -3.95674 2.36176 0
M  V30 2031 H 183.219 -3.65399 1.99681 0
M  V30 2032 H 185.816 -5.34275 -0.213112 0
M  V30 2033 H 186.159 -3.97352 -1.24165 0
M  V30 2034 H 186.692 -3.95166 0.456988 0
M  V30 2035 H 183.431 -5.99559 2.64971 0
M  V30 2036 H 182.951 -5.9241 0.938611 0
M  V30 2037 H 184.63 -6.32085 1.3812 0
M  V30 2038 N 184.763 -0.387143 -1.52771 0
M  V30 2039 C 185.991 0.195869 -2.05971 0
M  V30 2040 C 186.406 1.40691 -1.25903 0
M  V30 2041 O 185.763 1.79931 -0.305134 0
M  V30 2042 C 185.814 0.56812 -3.57008 0
M  V30 2043 O 185.535 -0.594803 -4.34043 0
M  V30 2044 C 187.036 1.20723 -4.26545 0
M  V30 2045 H 184.256 0.0300578 -0.670326 0
M  V30 2046 H 186.8 -0.551749 -1.96916 0
M  V30 2047 H 184.955 1.26564 -3.66143 0
M  V30 2048 H 185.369 -0.289322 -5.23701 0
M  V30 2049 H 186.843 1.41807 -5.33474 0
M  V30 2050 H 187.32 2.17395 -3.81623 0
M  V30 2051 H 187.926 0.550535 -4.21722 0
M  V30 2052 N 186.241 1.57166 -0.116904 0
M  V30 2053 C 187.471 1.99184 0.548586 0
M  V30 2054 C 187.879 0.995436 1.60897 0
M  V30 2055 O 187.222 -0.0201293 1.83689 0
M  V30 2056 C 187.284 3.37611 1.23526 0
M  V30 2057 C 186.948 4.55857 0.323077 0
M  V30 2058 C 187.945 5.18056 -0.437476 0
M  V30 2059 C 185.63 5.01751 0.234761 0
M  V30 2060 C 187.624 6.24536 -1.2741 0
M  V30 2061 C 185.311 6.08093 -0.605496 0
M  V30 2062 C 186.309 6.69352 -1.35856 0
M  V30 2063 O 185.997 7.7364 -2.18487 0
M  V30 2064 H 185.729 0.659148 0.149999 0
M  V30 2065 H 188.283 2.0443 -0.199428 0
M  V30 2066 H 186.513 3.29113 2.0303 0
M  V30 2067 H 188.202 3.63932 1.79745 0
M  V30 2068 H 188.968 4.83516 -0.379105 0
M  V30 2069 H 184.847 4.53817 0.810601 0
M  V30 2070 H 188.391 6.72281 -1.86237 0
M  V30 2071 H 184.288 6.42063 -0.665268 0
M  V30 2072 H 185.056 7.90727 -2.11406 0
M  V30 2073 N 187.719 -0.156864 1.56817 0
M  V30 2074 C 188.651 -1.21883 1.94106 0
M  V30 2075 C 189.664 -1.3971 0.835754 0
M  V30 2076 O 190.853 -1.39457 1.11418 0
M  V30 2077 C 187.953 -2.58527 2.19127 0
M  V30 2078 C 187.126 -2.61809 3.50393 0
M  V30 2079 C 186.185 -3.7992 3.64071 0
M  V30 2080 O 185.211 -3.65249 4.36557 0
M  V30 2081 N 186.413 -4.96973 2.99997 0
M  V30 2082 H 189.178 -0.901974 2.85805 0
M  V30 2083 H 186.739 -0.346513 1.58148 0
M  V30 2084 H 188.731 -3.36034 2.25529 0
M  V30 2085 H 187.301 -2.82545 1.33742 0
M  V30 2086 H 186.521 -1.7029 3.5552 0
M  V30 2087 H 187.809 -2.61024 4.36742 0
M  V30 2088 H 187.207 -5.11794 2.41004 0
M  V30 2089 H 185.764 -5.7229 3.11974 0
M  V30 2090 N 189.197 -1.51736 -0.425897 0
M  V30 2091 C 190.129 -1.70083 -1.53638 0
M  V30 2092 C 191.142 -0.581349 -1.52066 0
M  V30 2093 O 192.331 -0.856017 -1.56635 0
M  V30 2094 C 189.431 -1.71078 -2.9255 0
M  V30 2095 C 188.604 -2.99795 -3.185 0
M  V30 2096 C 187.663 -2.92825 -4.37196 0
M  V30 2097 O 186.689 -3.66756 -4.35291 0
M  V30 2098 N 187.891 -2.0946 -5.41393 0
M  V30 2099 H 190.656 -2.65882 -1.383 0
M  V30 2100 H 188.217 -1.49765 -0.614988 0
M  V30 2101 H 190.209 -1.63969 -3.69995 0
M  V30 2102 H 188.779 -0.828242 -3.01428 0
M  V30 2103 H 187.999 -3.20684 -2.2925 0
M  V30 2104 H 189.287 -3.84977 -3.32671 0
M  V30 2105 H 188.685 -1.48792 -5.45781 0
M  V30 2106 H 187.242 -2.08221 -6.17647 0
M  V30 2107 N 190.675 0.682077 -1.42076 0
M  V30 2108 C 192.086 1.26246 -1.37546 0
M  V30 2109 C 192.437 1.96092 -0.0651481 0
M  V30 2110 O 191.562 1.99587 0.836297 0
M  V30 2111 C 192.157 2.29594 -2.49143 0
M  V30 2112 C 190.716 2.83175 -2.47969 0
M  V30 2113 C 189.863 1.57395 -2.28303 0
M  V30 2114 H 192.814 0.475937 -1.51395 0
M  V30 2115 H 192.835 3.11175 -2.18976 0
M  V30 2116 H 192.347 1.78729 -3.44496 0
M  V30 2117 H 190.448 3.3818 -1.56413 0
M  V30 2118 H 190.561 3.32687 -3.44755 0
M  V30 2119 H 188.925 1.83699 -1.76428 0
M  V30 2120 H 189.708 1.08507 -3.25701 0
M  V30 2121 N 192.153 1.28127 0.917671 0
M  V30 2122 C 193.569 1.05749 1.19538 0
M  V30 2123 C 193.769 -0.202633 2.00479 0
M  V30 2124 O 192.825 -0.905382 2.3571 0
M  V30 2125 C 194.138 2.30273 1.93378 0
M  V30 2126 C 195.686 2.35412 2.06277 0
M  V30 2127 C 196.161 3.59692 2.83524 0
M  V30 2128 N 197.652 3.60309 2.91087 0
M  V30 2129 C 198.387 4.53147 3.51348 0
M  V30 2130 N 197.883 5.563 4.12919 0
M  V30 2131 N 199.676 4.40751 3.48849 0
M  V30 2132 H 191.827 2.09024 0.377184 0
M  V30 2133 H 194.09 0.919798 0.22951 0
M  V30 2134 H 193.796 3.22055 1.41328 0
M  V30 2135 H 193.67 2.36378 2.93947 0
M  V30 2136 H 196.057 1.4413 2.57508 0
M  V30 2137 H 196.138 2.33304 1.04895 0
M  V30 2138 H 195.782 4.51316 2.32973 0
M  V30 2139 H 195.712 3.59054 3.85211 0
M  V30 2140 H 198.203 2.85714 2.47338 0
M  V30 2141 H 198.516 6.2329 4.56869 0
M  V30 2142 H 196.861 5.60131 4.11435 0
M  V30 2143 H 200.052 3.59367 2.99955 0
M  V30 2144 H 200.225 5.13291 3.9552 0
M  V30 2145 N 193.631 -1.12557 1.10312 0
M  V30 2146 C 194.561 -2.20341 0.772798 0
M  V30 2147 C 195.542 -1.68198 -0.25365 0
M  V30 2148 O 196.727 -1.93831 -0.119699 0
M  V30 2149 C 193.857 -3.46709 0.202443 0
M  V30 2150 C 192.811 -4.11996 1.15943 0
M  V30 2151 C 192.137 -5.328 0.450345 0
M  V30 2152 C 193.437 -4.5828 2.50552 0
M  V30 2153 H 195.131 -2.48229 1.674 0
M  V30 2154 H 192.677 -1.19308 0.806326 0
M  V30 2155 H 194.63 -4.2138 -0.0407752 0
M  V30 2156 H 193.354 -3.18245 -0.734001 0
M  V30 2157 H 192.013 -3.39305 1.38808 0
M  V30 2158 H 191.661 -5.00602 -0.490531 0
M  V30 2159 H 191.361 -5.7743 1.08851 0
M  V30 2160 H 192.885 -6.10219 0.215642 0
M  V30 2161 H 194.299 -5.2433 2.31843 0
M  V30 2162 H 192.696 -5.13683 3.10242 0
M  V30 2163 H 193.766 -3.72329 3.10643 0
M  V30 2164 N 195.109 -0.891671 -1.2995 0
M  V30 2165 C 196.337 -0.52866 -2.00032 0
M  V30 2166 C 196.752 0.884574 -1.66795 0
M  V30 2167 O 196.109 1.5827 -0.908669 0
M  V30 2168 C 196.16 -0.701814 -3.54622 0
M  V30 2169 O 195.881 -2.05942 -3.86678 0
M  V30 2170 C 197.382 -0.342683 -4.41973 0
M  V30 2171 H 194.602 -0.203659 -0.639347 0
M  V30 2172 H 197.146 -1.19881 -1.65677 0
M  V30 2173 H 195.301 -0.0789468 -3.8732 0
M  V30 2174 H 195.715 -2.08291 -4.81368 0
M  V30 2175 H 197.189 -0.514709 -5.49595 0
M  V30 2176 H 197.666 0.71975 -4.33262 0
M  V30 2177 H 198.272 -0.942154 -4.14733 0
M  V30 2178 N 196.587 1.43421 -0.653314 0
M  V30 2179 C 197.55 2.29182 0.0287951 0
M  V30 2180 C 198.55 1.42213 0.750465 0
M  V30 2181 O 199.74 1.63843 0.591701 0
M  V30 2182 C 196.872 3.24278 1.05151 0
M  V30 2183 H 198.065 2.90985 -0.725786 0
M  V30 2184 H 195.618 1.50702 -0.414545 0
M  V30 2185 H 196.353 2.6737 1.83532 0
M  V30 2186 H 196.138 3.88396 0.537687 0
M  V30 2187 H 197.628 3.88647 1.52786 0
M  V30 2188 N 198.065 0.39524 1.52563 0
M  V30 2189 C 199.311 -0.177763 2.02622 0
M  V30 2190 C 199.666 -1.43974 1.27629 0
M  V30 2191 O 198.959 -1.87995 0.36992 0
M  V30 2192 C 199.153 -0.493444 3.53977 0
M  V30 2193 C 198.982 0.736392 4.4363 0
M  V30 2194 C 197.752 1.25744 4.89404 0
M  V30 2195 C 199.95 1.61046 4.88435 0
M  V30 2196 N 197.932 2.44421 5.63145 0
M  V30 2197 C 199.303 2.64359 5.60816 0
M  V30 2198 C 201.358 1.62985 4.70468 0
M  V30 2199 C 200.061 3.69505 6.17137 0
M  V30 2200 C 202.087 2.67042 5.27677 0
M  V30 2201 C 201.449 3.69077 5.99968 0
M  V30 2202 H 197.548 -0.0269794 0.781534 0
M  V30 2203 H 200.132 0.546466 1.86874 0
M  V30 2204 H 198.303 -1.18672 3.69826 0
M  V30 2205 H 200.035 -1.05412 3.90731 0
M  V30 2206 H 196.79 0.817546 4.6649 0
M  V30 2207 H 197.214 3.04485 6.04663 0
M  V30 2208 H 201.856 0.854442 4.14076 0
M  V30 2209 H 199.574 4.4791 6.72608 0
M  V30 2210 H 203.16 2.69433 5.15652 0
M  V30 2211 H 202.04 4.48273 6.43444 0
M  V30 2212 N 199.544 -1.57102 0.125237 0
M  V30 2213 C 200.774 -1.99472 -0.538015 0
M  V30 2214 C 201.182 -1.00395 -1.60366 0
M  V30 2215 O 200.525 0.0103875 -1.83697 0
M  V30 2216 C 200.587 -3.38262 -1.21734 0
M  V30 2217 C 200.251 -4.56021 -0.298897 0
M  V30 2218 C 201.248 -5.17817 0.464943 0
M  V30 2219 C 198.933 -5.01869 -0.208149 0
M  V30 2220 C 200.927 -6.23852 1.3072 0
M  V30 2221 C 198.614 -6.07763 0.637736 0
M  V30 2222 C 199.612 -6.68622 1.39403 0
M  V30 2223 O 199.3 -7.7247 2.22586 0
M  V30 2224 H 199.032 -0.659934 -0.146501 0
M  V30 2225 H 201.586 -2.04321 0.210267 0
M  V30 2226 H 199.816 -3.30185 -2.01282 0
M  V30 2227 H 201.505 -3.6488 -1.77813 0
M  V30 2228 H 202.271 -4.83308 0.404741 0
M  V30 2229 H 198.15 -4.54241 -0.786522 0
M  V30 2230 H 201.694 -6.71284 1.898 0
M  V30 2231 H 197.591 -6.41701 0.699309 0
M  V30 2232 H 198.359 -7.89595 2.15596 0
M  V30 2233 N 201.022 0.148545 -1.56898 0
M  V30 2234 C 202.27 0.859717 -1.82902 0
M  V30 2235 C 202.591 1.81775 -0.70588 0
M  V30 2236 O 201.861 1.93994 0.272586 0
M  V30 2237 H 200.441 0.320469 -0.674766 0
M  V30 2238 H 203.103 0.142918 -1.94375 0
M  V30 2239 H 202.199 1.4229 -2.77777 0
M  V30 2240 N 202.5 1.5196 0.417844 0
M  V30 2241 C 203.41 1.77554 1.53336 0
M  V30 2242 C 204.426 0.660655 1.6097 0
M  V30 2243 O 205.602 0.945099 1.77848 0
M  V30 2244 C 202.667 1.91291 2.89152 0
M  V30 2245 C 201.728 3.15183 2.91475 0
M  V30 2246 C 200.961 3.28256 4.20813 0
M  V30 2247 O 201.184 2.46798 5.14244 0
M  V30 2248 O 200.118 4.21356 4.29817 0
M  V30 2249 H 203.944 2.7222 1.34647 0
M  V30 2250 H 201.529 1.36698 0.602828 0
M  V30 2251 H 203.411 2.02199 3.69721 0
M  V30 2252 H 202.086 0.998129 3.07927 0
M  V30 2253 H 200.993 3.09739 2.09791 0
M  V30 2254 H 202.326 4.06414 2.77648 0
M  V30 2255 N 203.978 -0.674533 1.42435 0
M  V30 2256 C 204.908 -1.80009 1.48724 0
M  V30 2257 C 205.889 -1.6659 0.343793 0
M  V30 2258 O 207.074 -1.86007 0.558137 0
M  V30 2259 C 204.204 -3.18306 1.38919 0
M  V30 2260 C 203.158 -3.46461 2.51294 0
M  V30 2261 C 202.484 -4.84335 2.26547 0
M  V30 2262 C 203.784 -3.43328 3.93603 0
M  V30 2263 H 205.478 -1.75004 2.42928 0
M  V30 2264 H 203.024 -0.840533 1.16923 0
M  V30 2265 H 204.977 -3.9678 1.41927 0
M  V30 2266 H 203.701 -3.2399 0.412094 0
M  V30 2267 H 202.36 -2.70348 2.47604 0
M  V30 2268 H 202.008 -4.86669 1.2713 0
M  V30 2269 H 201.708 -5.04136 3.01861 0
M  V30 2270 H 203.232 -5.65094 2.31304 0
M  V30 2271 H 204.646 -4.11772 3.98894 0
M  V30 2272 H 203.043 -3.74664 4.68771 0
M  V30 2273 H 204.113 -2.41897 4.20255 0
M  V30 2274 N 205.456 -1.28612 -0.910864 0
M  V30 2275 C 206.867 -1.14406 -1.47541 0
M  V30 2276 C 207.218 0.264901 -1.94403 0
M  V30 2277 O 206.343 1.15942 -1.82719 0
M  V30 2278 C 206.938 -2.07073 -2.68153 0
M  V30 2279 C 205.497 -1.96923 -3.20778 0
M  V30 2280 C 204.644 -1.98646 -1.93481 0
M  V30 2281 H 207.595 -1.41259 -0.723291 0
M  V30 2282 H 207.616 -1.63642 -3.43514 0
M  V30 2283 H 207.128 -3.09611 -2.34015 0
M  V30 2284 H 205.229 -0.97433 -3.59635 0
M  V30 2285 H 205.342 -2.84026 -3.85832 0
M  V30 2286 H 203.706 -1.43093 -2.10705 0
M  V30 2287 H 204.489 -3.02868 -1.61634 0
M  V30 2288 N 206.934 1.1197 -1.10907 0
M  V30 2289 C 208.164 1.8713 -0.875553 0
M  V30 2290 C 208.572 1.8016 0.577843 0
M  V30 2291 O 207.915 1.17699 1.41042 0
M  V30 2292 C 207.977 3.37005 -1.2517 0
M  V30 2293 C 207.641 3.67748 -2.71313 0
M  V30 2294 C 208.638 3.65698 -3.69542 0
M  V30 2295 C 206.323 3.96928 -3.07821 0
M  V30 2296 C 208.317 3.92395 -5.023 0
M  V30 2297 C 206.004 4.23284 -4.40765 0
M  V30 2298 C 207.002 4.21005 -5.37814 0
M  V30 2299 O 206.69 4.46704 -6.68364 0
M  V30 2300 H 206.422 0.598786 -0.313737 0
M  V30 2301 H 208.976 1.42568 -1.47863 0
M  V30 2302 H 207.206 3.82146 -0.591741 0
M  V30 2303 H 208.895 3.93519 -0.994877 0
M  V30 2304 H 209.661 3.43211 -3.42682 0
M  V30 2305 H 205.54 3.97841 -2.32902 0
M  V30 2306 H 209.084 3.90531 -5.78041 0
M  V30 2307 H 204.981 4.45246 -4.67361 0
M  V30 2308 H 205.749 4.64299 -6.74069 0
M  V30 2309 N 208.412 0.89855 1.29475 0
M  V30 2310 C 209.64 0.539261 1.99749 0
M  V30 2311 C 210.055 -0.875716 1.67262 0
M  V30 2312 O 209.412 -1.57786 0.917049 0
M  V30 2313 C 209.463 0.72061 3.54245 0
M  V30 2314 O 209.184 2.07989 3.8558 0
M  V30 2315 C 210.685 0.366118 4.41786 0
M  V30 2316 H 207.905 0.207047 0.638258 0
M  V30 2317 H 210.449 1.20758 1.65039 0
M  V30 2318 H 208.604 0.0994862 3.87272 0
M  V30 2319 H 209.018 2.10841 4.80257 0
M  V30 2320 H 210.492 0.543848 5.49314 0
M  V30 2321 H 210.969 -0.696763 4.33638 0
M  V30 2322 H 211.575 0.964135 4.14228 0
M  V30 2323 N 209.89 -1.43072 0.660911 0
M  V30 2324 C 211.12 -2.05769 0.185153 0
M  V30 2325 C 211.528 -1.49668 -1.15742 0
M  V30 2326 O 210.871 -0.625649 -1.72717 0
M  V30 2327 C 210.933 -3.59489 0.0278237 0
M  V30 2328 C 210.597 -4.38212 1.2969 0
M  V30 2329 C 211.594 -4.69772 2.22734 0
M  V30 2330 C 209.279 -4.7809 1.54063 0
M  V30 2331 C 211.273 -5.40129 3.38437 0
M  V30 2332 C 208.96 -5.4819 2.70058 0
M  V30 2333 C 209.958 -5.79132 3.62071 0
M  V30 2334 O 209.646 -6.47798 4.76039 0
M  V30 2335 H 209.378 -0.669873 0.0908086 0
M  V30 2336 H 211.932 -1.84436 0.90402 0
M  V30 2337 H 210.162 -3.79426 -0.746489 0
M  V30 2338 H 211.851 -4.03862 -0.406275 0
M  V30 2339 H 212.617 -4.39476 2.05149 0
M  V30 2340 H 208.496 -4.53408 0.833215 0
M  V30 2341 H 212.04 -5.64198 4.10277 0
M  V30 2342 H 207.937 -5.77902 2.87574 0
M  V30 2343 H 208.705 -6.66283 4.75404 0
M  V30 2344 N 211.368 -0.403325 -1.52352 0
M  V30 2345 C 212.593 0.176499 -2.06648 0
M  V30 2346 C 213.018 1.38577 -1.27193 0
M  V30 2347 O 212.376 1.7879 -0.300637 0
M  V30 2348 C 212.424 0.511061 -3.5696 0
M  V30 2349 O 211.528 1.60294 -3.79973 0
M  V30 2350 H 210.869 0.0167337 -0.663789 0
M  V30 2351 H 213.399 -0.574848 -1.96359 0
M  V30 2352 H 213.409 0.771362 -4.00642 0
M  V30 2353 H 212.084 -0.37296 -4.14224 0
M  V30 2354 H 210.661 1.33526 -3.48174 0
M  V30 2355 N 212.846 1.57033 -0.133567 0
M  V30 2356 C 214.262 1.58035 0.222944 0
M  V30 2357 C 214.462 1.14713 1.6566 0
M  V30 2358 O 213.518 0.841218 2.38075 0
M  V30 2359 C 214.831 3.00691 -0.0236116 0
M  V30 2360 C 216.379 3.12973 0.0411512 0
M  V30 2361 C 216.854 4.57654 -0.177899 0
M  V30 2362 N 218.345 4.63033 -0.124365 0
M  V30 2363 C 219.08 5.72771 -0.268553 0
M  V30 2364 N 218.576 6.91206 -0.46972 0
M  V30 2365 N 220.369 5.61718 -0.2071 0
M  V30 2366 H 212.52 1.8349 -1.06981 0
M  V30 2367 H 214.783 0.848677 -0.422436 0
M  V30 2368 H 214.489 3.36726 -1.0153 0
M  V30 2369 H 214.363 3.70614 0.701808 0
M  V30 2370 H 216.75 2.76787 1.02338 0
M  V30 2371 H 216.831 2.45564 -0.716383 0
M  V30 2372 H 216.475 4.94542 -1.15717 0
M  V30 2373 H 216.405 5.23173 0.599797 0
M  V30 2374 H 218.896 3.7789 0.027011 0
M  V30 2375 H 219.209 7.70693 -0.570212 0
M  V30 2376 H 217.554 6.93156 -0.505876 0
M  V30 2377 H 220.745 4.68072 -0.0507986 0
M  V30 2378 H 220.918 6.47195 -0.322909 0
M  V30 2379 N 214.325 -0.140222 1.56975 0
M  V30 2380 C 215.574 -0.850152 1.82908 0
M  V30 2381 C 215.887 -1.82028 0.715892 0
M  V30 2382 O 217.093 -2.57485 0.861016 0
M  V30 2383 C 215.549 -1.5625 3.24213 0
M  V30 2384 C 215.157 -0.63443 4.43485 0
M  V30 2385 C 216.901 -2.25881 3.59413 0
M  V30 2386 C 214.808 -1.34879 5.75814 0
M  V30 2387 H 213.738 -0.321221 0.682153 0
M  V30 2388 H 216.389 -0.102874 1.83211 0
M  V30 2389 H 214.771 -2.35565 3.18316 0
M  V30 2390 H 215.945 0.12398 4.60633 0
M  V30 2391 H 214.26 -0.0461836 4.16374 0
M  V30 2392 H 216.857 -2.79978 4.5554 0
M  V30 2393 H 217.2 -3.02693 2.85802 0
M  V30 2394 H 217.733 -1.53477 3.67001 0
M  V30 2395 H 214.472 -0.622385 6.52539 0
M  V30 2396 H 213.992 -2.07974 5.6259 0
M  V30 2397 H 215.671 -1.88784 6.18845 0
M  V30 2398 N 215.803 -1.52179 -0.40978 0
M  V30 2399 C 217.031 -1.70054 -1.17853 0
M  V30 2400 C 217.446 -0.409735 -1.843 0
M  V30 2401 O 216.803 0.614183 -1.71855 0
M  V30 2402 C 216.854 -2.83568 -2.24213 0
M  V30 2403 O 216.575 -4.0765 -1.60478 0
M  V30 2404 C 218.076 -3.12947 -3.13973 0
M  V30 2405 H 215.296 -0.569917 -0.354169 0
M  V30 2406 H 217.84 -1.98734 -0.482198 0
M  V30 2407 H 215.995 -2.57409 -2.89516 0
M  V30 2408 H 216.409 -4.70899 -2.30986 0
M  V30 2409 H 217.883 -3.95889 -3.84677 0
M  V30 2410 H 218.36 -2.26472 -3.76307 0
M  V30 2411 H 218.966 -3.40868 -2.5434 0
M  V30 2412 N 217.281 0.66697 -1.42791 0
M  V30 2413 C 218.214 1.79177 -1.41318 0
M  V30 2414 C 219.192 1.60234 -0.276401 0
M  V30 2415 O 220.376 1.82602 -0.46785 0
M  V30 2416 C 217.503 3.16289 -1.21157 0
M  V30 2417 C 216.549 3.53964 -2.37932 0
M  V30 2418 S 217.382 3.55501 -4.00474 0
M  V30 2419 C 218.538 4.95292 -3.8267 0
M  V30 2420 H 218.771 1.80153 -2.365 0
M  V30 2421 H 216.304 0.838357 -1.29657 0
M  V30 2422 H 218.262 3.95428 -1.10212 0
M  V30 2423 H 216.923 3.1289 -0.275481 0
M  V30 2424 H 216.116 4.53646 -2.19594 0
M  V30 2425 H 215.718 2.82204 -2.45432 0
M  V30 2426 H 218.01 5.83584 -3.44145 0
M  V30 2427 H 218.953 5.18679 -4.82055 0
M  V30 2428 H 219.361 4.68179 -3.15386 0
M  V30 2429 N 218.759 1.29093 0.90403 0
M  V30 2430 C 219.669 1.15727 2.0407 0
M  V30 2431 C 220.685 0.0815308 1.73809 0
M  V30 2432 O 221.861 0.292749 1.99261 0
M  V30 2433 C 218.926 0.830424 3.36608 0
M  V30 2434 C 217.987 1.98955 3.80415 0
M  V30 2435 C 217.22 1.6782 5.06628 0
M  V30 2436 O 217.443 0.597105 5.67266 0
M  V30 2437 O 216.377 2.52486 5.46383 0
M  V30 2438 H 220.203 2.11171 2.18267 0
M  V30 2439 H 217.788 1.08504 1.027 0
M  V30 2440 H 219.67 0.662521 4.16159 0
M  V30 2441 H 218.345 -0.0942678 3.23563 0
M  V30 2442 H 217.252 2.21267 3.01648 0
M  V30 2443 H 218.585 2.89529 3.98037 0
M  V30 2444 N 220.237 -1.11381 1.11499 0
M  V30 2445 C 221.648 -1.6465 0.880191 0
M  V30 2446 C 221.999 -1.87199 -0.587434 0
M  V30 2447 O 221.124 -1.60667 -1.44966 0
M  V30 2448 C 221.719 -2.99105 1.59128 0
M  V30 2449 C 220.278 -3.49279 1.40289 0
M  V30 2450 C 219.425 -2.24077 1.63354 0
M  V30 2451 H 222.376 -0.950123 1.27116 0
M  V30 2452 H 222.397 -3.66107 1.03664 0
M  V30 2453 H 221.909 -2.82661 2.65941 0
M  V30 2454 H 220.01 -3.70887 0.356888 0
M  V30 2455 H 220.123 -4.2803 2.15238 0
M  V30 2456 H 218.487 -2.31733 1.05698 0
M  V30 2457 H 219.27 -2.10175 2.71443 0
M  V30 2458 N 221.715 -0.905404 -1.28997 0
M  V30 2459 C 222.663 -0.377431 -2.29517 0
M  V30 2460 C 223.657 0.526461 -1.61012 0
M  V30 2461 O 224.863 0.40863 -1.753 0
M  V30 2462 H 221.238 -0.103437 -0.744852 0
M  V30 2463 H 223.209 -1.23848 -2.71485 0
M  V30 2464 C 221.958 0.374833 -3.45674 0
M  V30 2465 H 221.281 -0.311474 -3.98585 0
M  V30 2466 H 222.721 0.70903 -4.1803 0
M  V30 2467 C 221.18 1.57963 -2.97572 0
M  V30 2468 O 221.71 2.67886 -2.99333 0
M  V30 2469 N 219.916 1.42375 -2.53333 0
M  V30 2470 H 219.463 0.529466 -2.521 0
M  V30 2471 H 219.421 2.23117 -2.21509 0
M  V30 2472 N 223.193 1.4272 -0.668489 0
M  V30 2473 C 224.604 1.84793 -0.266151 0
M  V30 2474 C 224.955 1.55959 1.19043 0
M  V30 2475 O 224.08 1.01622 1.91055 0
M  V30 2476 C 224.675 3.35436 -0.476271 0
M  V30 2477 C 223.234 3.76182 -0.128113 0
M  V30 2478 C 222.381 2.66344 -0.771777 0
M  V30 2479 H 225.332 1.32656 -0.871098 0
M  V30 2480 H 225.353 3.79515 0.273561 0
M  V30 2481 H 224.865 3.5639 -1.53647 0
M  V30 2482 H 222.966 3.60836 0.928891 0
M  V30 2483 H 223.079 4.75766 -0.564231 0
M  V30 2484 H 221.443 2.53885 -0.203652 0
M  V30 2485 H 222.226 2.90123 -1.83531 0
M  V30 2486 N 224.671 0.411399 1.52136 0
M  V30 2487 C 225.621 -0.430376 2.23901 0
M  V30 2488 C 226.605 -1.0116 1.25121 0
M  V30 2489 O 227.797 -0.934044 1.50348 0
M  V30 2490 C 224.926 -1.54527 3.06556 0
M  V30 2491 C 224.012 -0.9747 4.12747 0
M  V30 2492 N 224.403 -0.130991 5.0563 0
M  V30 2493 C 222.701 -1.24497 4.28271 0
M  V30 2494 C 223.402 0.186689 5.814 0
M  V30 2495 N 222.378 -0.42304 5.41951 0
M  V30 2496 H 226.18 0.220509 2.93072 0
M  V30 2497 H 223.694 0.221952 1.60876 0
M  V30 2498 H 225.691 -2.16093 3.56524 0
M  V30 2499 H 224.351 -2.19875 2.38925 0
M  V30 2500 H 225.362 0.23349 5.17373 0
M  V30 2501 H 222.039 -1.89787 3.7187 0
M  V30 2502 H 223.429 0.871673 6.66222 0
M  V30 2503 N 226.149 -1.5696 0.141893 0
M  V30 2504 C 227.395 -1.97034 -0.504884 0
M  V30 2505 C 227.75 -1.02518 -1.62812 0
M  V30 2506 O 227.043 -0.0592943 -1.91508 0
M  V30 2507 C 227.237 -3.41242 -1.06249 0
M  V30 2508 C 227.066 -4.497 0.00519653 0
M  V30 2509 C 225.836 -5.03338 0.444873 0
M  V30 2510 C 228.034 -5.08122 0.794767 0
M  V30 2511 N 226.016 -5.95395 1.49593 0
M  V30 2512 C 227.387 -5.96339 1.69645 0
M  V30 2513 C 229.442 -4.9071 0.843122 0
M  V30 2514 C 228.145 -6.69009 2.64233 0
M  V30 2515 C 230.171 -5.64077 1.77681 0
M  V30 2516 C 229.533 -6.51999 2.66603 0
M  V30 2517 H 225.632 -0.766745 -0.153707 0
M  V30 2518 H 228.216 -1.93273 0.235313 0
M  V30 2519 H 226.387 -3.45606 -1.77231 0
M  V30 2520 H 228.119 -3.68389 -1.67546 0
M  V30 2521 H 224.874 -4.73576 0.0480959 0
M  V30 2522 H 225.298 -6.46128 2.02107 0
M  V30 2523 H 229.94 -4.22459 0.169732 0
M  V30 2524 H 227.658 -7.36492 3.32575 0
M  V30 2525 H 231.244 -5.52602 1.81996 0
M  V30 2526 H 230.124 -7.07775 3.37675 0
M  V30 2527 N 227.627 0.131896 -1.57047 0
M  V30 2528 C 228.577 1.1679 -1.95816 0
M  V30 2529 C 229.561 1.37756 -0.831393 0
M  V30 2530 O 230.753 1.39065 -1.09499 0
M  V30 2531 C 227.882 2.49778 -2.35512 0
M  V30 2532 C 226.968 2.32342 -3.54793 0
M  V30 2533 N 227.359 1.8469 -4.70875 0
M  V30 2534 C 225.657 2.63043 -3.60173 0
M  V30 2535 C 226.358 1.80656 -5.52936 0
M  V30 2536 N 225.334 2.24528 -4.95064 0
M  V30 2537 H 229.136 0.791818 -2.83033 0
M  V30 2538 H 226.65 0.339791 -1.58805 0
M  V30 2539 H 228.647 3.24692 -2.61498 0
M  V30 2540 H 227.307 2.88156 -1.49654 0
M  V30 2541 H 228.318 1.54429 -4.9434 0
M  V30 2542 H 224.995 3.05193 -2.84892 0
M  V30 2543 H 226.385 1.45178 -6.56028 0
M  V30 2544 N 229.106 1.52395 0.401703 0
M  V30 2545 C 230.517 1.58899 0.980202 0
M  V30 2546 C 230.868 0.434032 1.91339 0
M  V30 2547 O 229.993 -0.444619 2.11783 0
M  V30 2548 C 230.588 2.87994 1.78451 0
M  V30 2549 C 229.147 2.96953 2.31292 0
M  V30 2550 C 228.294 2.53903 1.11483 0
M  V30 2551 H 231.245 1.57657 0.18168 0
M  V30 2552 H 231.266 2.73765 2.64259 0
M  V30 2553 H 230.778 3.72035 1.10506 0
M  V30 2554 H 228.879 2.17422 3.02586 0
M  V30 2555 H 228.992 4.01344 2.61649 0
M  V30 2556 H 227.356 2.07925 1.47104 0
M  V30 2557 H 228.139 3.40326 0.450928 0
M  V30 2558 N 230.584 -0.659388 1.43143 0
M  V30 2559 C 231.83 -1.42145 1.44647 0
M  V30 2560 C 232.163 -1.9408 0.0681907 0
M  V30 2561 O 231.438 -1.71899 -0.910007 0
M  V30 2562 C 231.721 -2.60735 2.48373 0
M  V30 2563 C 231.574 -2.14332 3.95451 0
M  V30 2564 C 232.893 -3.62951 2.48906 0
M  V30 2565 H 230.012 -0.51552 0.526696 0
M  V30 2566 H 232.654 -0.748069 1.74654 0
M  V30 2567 H 230.804 -3.18184 2.22916 0
M  V30 2568 H 232.476 -1.61932 4.31944 0
M  V30 2569 H 230.719 -1.4576 4.08578 0
M  V30 2570 H 231.39 -2.99583 4.63631 0
M  V30 2571 H 233.866 -3.1525 2.71582 0
M  V30 2572 H 232.742 -4.43487 3.23435 0
M  V30 2573 H 233.003 -4.15126 1.52061 0
M  V30 2574 N 232.062 -1.29571 -0.897171 0
M  V30 2575 C 232.992 -1.17473 -2.01798 0
M  V30 2576 C 233.973 -0.068323 -1.69963 0
M  V30 2577 O 235.158 -0.248239 -1.92607 0
M  V30 2578 C 232.288 -0.853099 -3.36659 0
M  V30 2579 C 231.242 -1.9161 -3.82713 0
M  V30 2580 C 230.568 -1.44773 -5.14728 0
M  V30 2581 C 231.868 -3.32535 -4.02763 0
M  V30 2582 H 233.562 -2.11237 -2.12177 0
M  V30 2583 H 231.108 -1.01699 -1.01948 0
M  V30 2584 H 233.061 -0.755165 -4.14578 0
M  V30 2585 H 231.785 0.120236 -3.26379 0
M  V30 2586 H 230.444 -2.00346 -3.07013 0
M  V30 2587 H 230.092 -0.462995 -5.00865 0
M  V30 2588 H 229.792 -2.15865 -5.46513 0
M  V30 2589 H 231.316 -1.36334 -5.95185 0
M  V30 2590 H 232.73 -3.26626 -4.71156 0
M  V30 2591 H 231.127 -4.01607 -4.45905 0
M  V30 2592 H 232.197 -3.75326 -3.07016 0
M  V30 2593 N 233.54 1.10788 -1.12088 0
M  V30 2594 C 234.956 1.34691 -0.856186 0
M  V30 2595 C 235.156 1.94791 0.515615 0
M  V30 2596 O 234.212 2.18524 1.26505 0
M  V30 2597 C 235.525 2.27208 -1.9697 0
M  V30 2598 C 237.073 2.40755 -2.00016 0
M  V30 2599 C 237.548 3.36598 -3.1059 0
M  V30 2600 N 239.039 3.44164 -3.10008 0
M  V30 2601 C 239.774 4.18284 -3.92206 0
M  V30 2602 N 239.27 4.95322 -4.84384 0
M  V30 2603 N 241.063 4.13865 -3.80357 0
M  V30 2604 H 233.214 0.70144 -2.00483 0
M  V30 2605 H 235.477 0.371405 -0.872217 0
M  V30 2606 H 235.183 1.90251 -2.958 0
M  V30 2607 H 235.057 3.27485 -1.87172 0
M  V30 2608 H 237.444 2.76982 -1.01808 0
M  V30 2609 H 237.525 1.40305 -2.13888 0
M  V30 2610 H 237.169 3.01096 -4.09028 0
M  V30 2611 H 237.099 4.36918 -2.93956 0
M  V30 2612 H 239.59 2.8922 -2.43228 0
M  V30 2613 H 239.903 5.49267 -5.43623 0
M  V30 2614 H 238.248 4.94459 -4.884 0
M  V30 2615 H 241.439 3.52773 -3.07683 0
M  V30 2616 H 241.612 4.71372 -4.44649 0
M  V30 2617 N 235.018 0.912232 1.28515 0
M  V30 2618 C 236.246 0.560416 1.99166 0
M  V30 2619 C 236.661 -0.857927 1.68182 0
M  V30 2620 O 236.018 -1.56805 0.933733 0
M  V30 2621 C 236.069 0.758142 3.53461 0
M  V30 2622 O 235.79 2.12067 3.83352 0
M  V30 2623 C 237.291 0.412954 4.41372 0
M  V30 2624 H 234.511 0.213805 0.636026 0
M  V30 2625 H 237.055 1.22502 1.63749 0
M  V30 2626 H 235.21 0.140556 3.87145 0
M  V30 2627 H 235.624 2.15923 4.77993 0
M  V30 2628 H 237.098 0.60208 5.48707 0
M  V30 2629 H 237.575 -0.65073 4.34353 0
M  V30 2630 H 238.181 1.00802 4.13182 0
M  V30 2631 N 236.496 -1.42363 0.676048 0
M  V30 2632 C 237.426 -2.33497 0.0124832 0
M  V30 2633 C 238.407 -1.50748 -0.787981 0
M  V30 2634 O 239.592 -1.79346 -0.744884 0
M  V30 2635 C 236.722 -3.34377 -0.938582 0
M  V30 2636 C 235.676 -4.27289 -0.246622 0
M  V30 2637 C 235.002 -5.18386 -1.31071 0
M  V30 2638 C 236.302 -5.14916 0.875125 0
M  V30 2639 H 237.996 -2.89233 0.773593 0
M  V30 2640 H 235.542 -1.39073 0.37346 0
M  V30 2641 H 237.495 -3.97044 -1.41188 0
M  V30 2642 H 236.219 -2.76947 -1.73113 0
M  V30 2643 H 234.878 -3.66018 0.206456 0
M  V30 2644 H 234.526 -4.57282 -2.09528 0
M  V30 2645 H 234.226 -5.81378 -0.852839 0
M  V30 2646 H 235.75 -5.83929 -1.78492 0
M  V30 2647 H 237.164 -5.71262 0.482983 0
M  V30 2648 H 235.561 -5.86747 1.25887 0
M  V30 2649 H 236.631 -4.53242 1.72335 0
M  V30 2650 N 237.974 -0.419461 -1.51915 0
M  V30 2651 C 238.921 0.400927 -2.27291 0
M  V30 2652 C 239.891 1.03224 -1.30131 0
M  V30 2653 O 241.076 1.05455 -1.59009 0
M  V30 2654 C 238.216 1.50603 -3.10504 0
M  V30 2655 C 237.329 0.89462 -4.22635 0
M  V30 2656 C 236.464 1.97328 -4.93189 0
M  V30 2657 C 235.503 1.33935 -5.97267 0
M  V30 2658 N 234.64 2.3586 -6.61298 0
M  V30 2659 H 239.48 -0.248251 -2.96964 0
M  V30 2660 H 237.017 -0.134266 -1.46486 0
M  V30 2661 H 238.975 2.15783 -3.57062 0
M  V30 2662 H 237.605 2.12509 -2.42981 0
M  V30 2663 H 236.657 0.131583 -3.80172 0
M  V30 2664 H 237.969 0.391641 -4.9726 0
M  V30 2665 H 237.123 2.70211 -5.43204 0
M  V30 2666 H 235.862 2.50994 -4.18155 0
M  V30 2667 H 234.867 0.595896 -5.46561 0
M  V30 2668 H 236.092 0.810252 -6.74249 0
M  V30 2669 H 234.038 2.88639 -5.89087 0
M  V30 2670 H 233.955 1.90403 -7.3163 0
M  V30 2671 H 235.223 3.08282 -7.15949 0
M  V30 2672 N 239.452 1.56882 -0.150215 0
M  V30 2673 C 240.4 2.18214 0.805313 0
M  V30 2674 C 241.394 1.14006 1.25296 0
M  V30 2675 O 242.6 1.3225 1.22107 0
M  V30 2676 H 238.975 0.698762 0.277913 0
M  V30 2677 H 240.946 2.97231 0.263862 0
M  V30 2678 C 239.695 2.82065 2.03309 0
M  V30 2679 H 239.018 3.61968 1.69763 0
M  V30 2680 H 240.458 3.28477 2.68103 0
M  V30 2681 C 238.917 1.80739 2.84315 0
M  V30 2682 O 239.447 1.27983 3.80767 0
M  V30 2683 N 237.653 1.4997 2.48913 0
M  V30 2684 H 237.2 1.93062 1.70542 0
M  V30 2685 H 237.158 0.824217 3.03404 0
M  V30 2686 N 240.93 -0.123565 1.57115 0
M  V30 2687 C 242.346 -0.476961 1.52306 0
M  V30 2688 C 242.546 -1.82109 0.86248 0
M  V30 2689 O 241.602 -2.48586 0.442884 0
M  V30 2690 C 242.915 -0.465661 2.97073 0
M  V30 2691 C 244.463 -0.549534 3.08138 0
M  V30 2692 C 244.938 -0.568669 4.54456 0
M  V30 2693 N 246.429 -0.630237 4.58892 0
M  V30 2694 C 247.164 -0.666415 5.69514 0
M  V30 2695 N 246.66 -0.660514 6.89644 0
M  V30 2696 N 248.453 -0.709077 5.5761 0
M  V30 2697 H 240.604 0.757198 1.98445 0
M  V30 2698 H 242.867 0.278808 0.906074 0
M  V30 2699 H 242.573 0.454232 3.48754 0
M  V30 2700 H 242.447 -1.29513 3.54269 0
M  V30 2701 H 244.834 -1.45985 2.56461 0
M  V30 2702 H 244.915 0.307532 2.53945 0
M  V30 2703 H 244.559 0.337581 5.06777 0
M  V30 2704 H 244.489 -1.44256 5.06456 0
M  V30 2705 H 246.98 -0.641146 3.72421 0
M  V30 2706 H 247.293 -0.690616 7.69708 0
M  V30 2707 H 245.638 -0.628012 6.92157 0
M  V30 2708 H 248.829 -0.711019 4.62668 0
M  V30 2709 H 249.002 -0.733804 6.43832 0
M  V30 2710 N 242.408 -1.52605 -0.393616 0
M  V30 2711 C 243.657 -1.66649 -1.13627 0
M  V30 2712 C 243.97 -0.410364 -1.91247 0
M  V30 2713 O 245.176 -0.430854 -2.68059 0
M  V30 2714 C 243.632 -2.9449 -2.06891 0
M  V30 2715 C 243.24 -4.27266 -1.34714 0
M  V30 2716 C 244.984 -3.17899 -2.81319 0
M  V30 2717 C 242.891 -5.46217 -2.26717 0
M  V30 2718 H 241.821 -0.62084 -0.427871 0
M  V30 2719 H 244.472 -1.791 -0.399428 0
M  V30 2720 H 242.854 -2.75774 -2.84191 0
M  V30 2721 H 244.028 -4.56518 -0.626714 0
M  V30 2722 H 242.343 -4.10081 -0.722643 0
M  V30 2723 H 244.94 -4.03949 -3.50328 0
M  V30 2724 H 245.283 -2.32777 -3.45139 0
M  V30 2725 H 245.816 -3.37159 -2.11113 0
M  V30 2726 H 242.555 -6.33733 -1.67521 0
M  V30 2727 H 242.075 -5.21283 -2.96689 0
M  V30 2728 H 243.754 -5.7991 -2.86903 0
M  V30 2729 N 243.887 0.651787 -1.4349 0
M  V30 2730 C 244.797 1.79368 -1.5121 0
M  V30 2731 C 245.813 1.69361 -0.399093 0
M  V30 2732 O 246.989 1.90505 -0.653431 0
M  V30 2733 C 244.054 3.15653 -1.43401 0
M  V30 2734 C 243.115 3.37446 -2.65384 0
M  V30 2735 C 242.348 4.67229 -2.57939 0
M  V30 2736 O 242.571 5.46676 -1.62792 0
M  V30 2737 O 241.505 4.90773 -3.48462 0
M  V30 2738 H 245.331 1.7581 -2.47638 0
M  V30 2739 H 242.916 0.810447 -1.25507 0
M  V30 2740 H 244.798 3.96935 -1.41494 0
M  V30 2741 H 243.473 3.19798 -0.501085 0
M  V30 2742 H 242.38 2.55923 -2.72863 0
M  V30 2743 H 243.713 3.38148 -3.57654 0
M  V30 2744 N 245.365 1.30045 0.890287 0
M  V30 2745 C 246.275 1.17885 2.02831 0
M  V30 2746 C 247.291 0.0999609 1.73713 0
M  V30 2747 O 248.467 0.313867 1.98939 0
M  V30 2748 C 245.532 0.866079 3.35708 0
M  V30 2749 C 244.593 2.02979 3.78283 0
M  V30 2750 C 243.826 1.73184 5.0482 0
M  V30 2751 O 244.049 0.657237 5.66601 0
M  V30 2752 O 242.983 2.58267 5.43674 0
M  V30 2753 H 246.809 2.13474 2.16015 0
M  V30 2754 H 244.394 1.09587 1.01543 0
M  V30 2755 H 246.276 0.706623 4.15433 0
M  V30 2756 H 244.951 -0.0599443 3.23644 0
M  V30 2757 H 243.858 2.24454 2.99285 0
M  V30 2758 H 245.191 2.93734 3.94944 0
M  V30 2759 N 246.843 -1.10192 1.12674 0
M  V30 2760 C 247.791 -2.18694 0.792196 0
M  V30 2761 C 248.785 -1.67938 -0.222058 0
M  V30 2762 O 249.991 -1.79822 -0.0800074 0
M  V30 2763 H 246.366 -0.713223 0.238364 0
M  V30 2764 H 248.337 -2.44149 1.71564 0
M  V30 2765 C 247.086 -3.46682 0.265859 0
M  V30 2766 H 246.409 -3.86101 1.03761 0
M  V30 2767 H 247.849 -4.23942 0.0701128 0
M  V30 2768 C 246.308 -3.21506 -1.00675 0
M  V30 2769 O 246.838 -3.43408 -2.08408 0
M  V30 2770 N 245.044 -2.75158 -0.934692 0
M  V30 2771 H 244.591 -2.57535 -0.0578604 0
M  V30 2772 H 244.549 -2.58691 -1.7868 0
M  V30 2773 N 248.321 -0.919034 -1.28029 0
M  V30 2774 C 249.549 -0.570971 -1.98866 0
M  V30 2775 C 249.964 0.848996 -1.68634 0
M  V30 2776 O 249.321 1.56307 -0.942036 0
M  V30 2777 C 249.372 -0.776876 -3.53054 0
M  V30 2778 O 249.093 -2.14097 -3.82222 0
M  V30 2779 C 250.594 -0.436356 -4.41147 0
M  V30 2780 H 247.814 -0.217175 -0.634883 0
M  V30 2781 H 250.358 -1.23368 -1.63097 0
M  V30 2782 H 248.513 -0.161085 -3.87065 0
M  V30 2783 H 248.927 -2.18455 -4.76841 0
M  V30 2784 H 250.401 -0.63117 -5.4838 0
M  V30 2785 H 250.878 0.627686 -4.34692 0
M  V30 2786 H 251.484 -1.02991 -4.12641 0
M  V30 2787 N 249.799 1.42003 -0.683588 0
M  V30 2788 C 251.047 2.01015 -0.209101 0
M  V30 2789 C 251.368 1.54365 1.19149 0
M  V30 2790 O 250.638 0.769083 1.80172 0
M  V30 2791 H 249.218 0.743294 -0.074315 0
M  V30 2792 H 251.88 1.73798 -0.882066 0
M  V30 2793 H 250.976 3.11343 -0.2172 0
M  V30 2794 N 251.277 0.427512 1.51691 0
M  V30 2795 C 252.227 -0.406604 2.24345 0
M  V30 2796 C 253.211 -0.998276 1.26187 0
M  V30 2797 O 254.403 -0.918045 1.51331 0
M  V30 2798 C 251.532 -1.51266 3.08177 0
M  V30 2799 C 250.618 -0.930868 4.13758 0
M  V30 2800 N 251.009 -0.0773552 5.05741 0
M  V30 2801 C 249.307 -1.19948 4.29568 0
M  V30 2802 C 250.008 0.248344 5.8117 0
M  V30 2803 N 248.984 -0.365535 5.4237 0
M  V30 2804 H 252.786 0.251581 2.92821 0
M  V30 2805 H 250.3 0.239003 1.60632 0
M  V30 2806 H 252.297 -2.123 3.58796 0
M  V30 2807 H 250.957 -2.17328 2.41244 0
M  V30 2808 H 251.968 0.288351 5.17097 0
M  V30 2809 H 248.645 -1.85832 3.73862 0
M  V30 2810 H 250.035 0.942286 6.6526 0
M  V30 2811 N 252.755 -1.56801 0.158532 0
M  V30 2812 C 253.983 -2.00859 -0.496303 0
M  V30 2813 C 254.398 -1.03871 -1.57659 0
M  V30 2814 O 253.755 -0.0375165 -1.82461 0
M  V30 2815 C 253.806 -3.4479 -1.08638 0
M  V30 2816 O 253.527 -4.38072 -0.0492322 0
M  V30 2817 C 255.028 -4.04185 -1.8207 0
M  V30 2818 H 252.248 -0.65864 -0.128199 0
M  V30 2819 H 254.792 -2.02885 0.256506 0
M  V30 2820 H 252.947 -3.43579 -1.78975 0
M  V30 2821 H 253.361 -5.2227 -0.483102 0
M  V30 2822 H 254.835 -5.06857 -2.18633 0
M  V30 2823 H 255.312 -3.45549 -2.71095 0
M  V30 2824 H 255.918 -4.0906 -1.16405 0
M  V30 2825 N 254.233 0.115231 -1.57178 0
M  V30 2826 C 255.48 0.822351 -1.8505 0
M  V30 2827 C 255.808 1.79701 -0.744168 0
M  V30 2828 O 255.063 1.93909 0.26414 0
M  V30 2829 C 255.362 1.60324 -3.19423 0
M  V30 2830 C 255.028 0.772536 -4.44233 0
M  V30 2831 C 253.69 0.543468 -4.78121 0
M  V30 2832 C 256.042 0.193746 -5.2084 0
M  V30 2833 C 253.37 -0.274583 -5.86057 0
M  V30 2834 C 255.722 -0.611517 -6.29637 0
M  V30 2835 C 254.386 -0.850867 -6.62055 0
M  V30 2836 H 253.656 0.30092 -0.677147 0
M  V30 2837 H 256.303 0.0845802 -1.91313 0
M  V30 2838 H 254.608 2.41203 -3.08753 0
M  V30 2839 H 256.305 2.1544 -3.38211 0
M  V30 2840 H 252.895 0.96117 -4.17683 0
M  V30 2841 H 257.079 0.357926 -4.95008 0
M  V30 2842 H 252.335 -0.469206 -6.09597 0
M  V30 2843 H 256.509 -1.06697 -6.88178 0
M  V30 2844 H 254.136 -1.48657 -7.45523 0
M  V30 2845 N 255.711 1.52812 0.385517 0
M  V30 2846 C 256.659 1.78482 1.49155 0
M  V30 2847 C 257.653 0.652914 1.56312 0
M  V30 2848 O 258.859 0.835464 1.59436 0
M  V30 2849 H 255.234 0.5648 0.496493 0
M  V30 2850 H 257.205 2.71095 1.24699 0
M  V30 2851 C 255.954 1.97378 2.86247 0
M  V30 2852 H 255.277 2.83907 2.81491 0
M  V30 2853 H 256.717 2.19327 3.62866 0
M  V30 2854 C 255.176 0.74728 3.28508 0
M  V30 2855 O 255.706 -0.0736232 4.01633 0
M  V30 2856 N 253.912 0.576396 2.84826 0
M  V30 2857 H 253.459 1.24555 2.25486 0
M  V30 2858 H 253.417 -0.24288 3.1346 0
M  V30 2859 N 257.189 -0.644168 1.43834 0
M  V30 2860 C 258.414 -1.43642 1.49605 0
M  V30 2861 C 258.839 -1.8773 0.117913 0
M  V30 2862 O 258.197 -1.57938 -0.890239 0
M  V30 2863 C 258.245 -2.6416 2.45463 0
M  V30 2864 O 257.349 -3.63538 1.94714 0
M  V30 2865 H 256.69 -0.430329 0.50568 0
M  V30 2866 H 259.22 -0.787448 1.8884 0
M  V30 2867 H 259.23 -3.11864 2.63068 0
M  V30 2868 H 257.905 -2.31414 3.45572 0
M  V30 2869 H 256.482 -3.2273 1.86814 0
M  V30 2870 N 258.668 -1.30515 -0.883378 0
M  V30 2871 C 259.598 -1.19607 -2.00541 0
M  V30 2872 C 260.579 -0.086346 -1.69881 0
M  V30 2873 O 261.764 -0.268654 -1.92333 0
M  V30 2874 C 258.894 -0.888758 -3.35736 0
M  V30 2875 C 257.848 -1.95659 -3.8066 0
M  V30 2876 C 257.174 -1.50224 -5.13164 0
M  V30 2877 C 258.474 -3.36788 -3.99213 0
M  V30 2878 H 260.168 -2.13476 -2.09925 0
M  V30 2879 H 257.714 -1.02775 -1.00863 0
M  V30 2880 H 259.667 -0.799094 -4.13754 0
M  V30 2881 H 258.391 0.0856125 -3.26488 0
M  V30 2882 H 257.05 -2.03591 -3.04871 0
M  V30 2883 H 256.698 -0.516092 -5.00345 0
M  V30 2884 H 256.398 -2.2165 -5.44192 0
M  V30 2885 H 257.922 -1.42639 -5.93706 0
M  V30 2886 H 259.336 -3.31605 -4.67665 0
M  V30 2887 H 257.733 -4.06314 -4.41621 0
M  V30 2888 H 258.803 -3.78561 -3.03017 0
M  V30 2889 N 260.146 1.09593 -1.13257 0
M  V30 2890 C 261.076 2.18214 -0.830946 0
M  V30 2891 C 262.057 1.68812 0.208966 0
M  V30 2892 O 263.242 1.9408 0.0682666 0
M  V30 2893 C 260.372 3.46051 -0.294296 0
M  V30 2894 C 259.326 4.08778 -1.26826 0
M  V30 2895 C 258.652 5.31419 -0.591449 0
M  V30 2896 C 259.952 4.51476 -2.62615 0
M  V30 2897 H 261.646 2.43703 -1.73923 0
M  V30 2898 H 259.192 1.17128 -0.837675 0
M  V30 2899 H 261.145 4.2134 -0.0709606 0
M  V30 2900 H 259.869 3.20079 0.649366 0
M  V30 2901 H 258.528 3.35505 -1.47756 0
M  V30 2902 H 258.176 5.01727 0.357633 0
M  V30 2903 H 257.876 5.74341 -1.24123 0
M  V30 2904 H 259.4 6.09433 -0.377355 0
M  V30 2905 H 260.814 5.17999 -2.45663 0
M  V30 2906 H 259.211 5.05277 -3.23752 0
M  V30 2907 H 260.281 3.63962 -3.20406 0
M  V30 2908 N 261.624 0.925811 1.2754 0
M  V30 2909 C 262.864 0.572521 1.96218 0
M  V30 2910 C 263.228 -0.869719 1.71172 0
M  V30 2911 O 264.429 -1.33119 2.33523 0
M  V30 2912 C 262.7 0.887325 3.4621 0
M  V30 2913 S 264.259 0.642266 4.34074 0
M  V30 2914 H 261.077 0.211403 0.678845 0
M  V30 2915 H 263.679 1.19384 1.54815 0
M  V30 2916 H 262.383 1.93469 3.61936 0
M  V30 2917 H 261.914 0.255123 3.92572 0
M  V30 2918 H 263.929 -0.500822 4.93666 0
M  V30 2919 N 263.102 -1.41638 0.69111 0
M  V30 2920 C 264.05 -2.32597 0.0115199 0
M  V30 2921 C 265.044 -1.5072 -0.773296 0
M  V30 2922 O 266.25 -1.66685 -0.67942 0
M  V30 2923 H 262.625 -0.751849 -0.0150746 0
M  V30 2924 H 264.596 -2.87593 0.795791 0
M  V30 2925 C 263.345 -3.35467 -0.914172 0
M  V30 2926 H 262.668 -3.9852 -0.319687 0
M  V30 2927 H 264.108 -4.01662 -1.35808 0
M  V30 2928 C 262.567 -2.69004 -2.02826 0
M  V30 2929 O 263.097 -2.53444 -3.11655 0
M  V30 2930 N 261.303 -2.2777 -1.80469 0
M  V30 2931 H 260.85 -2.40626 -0.919615 0
M  V30 2932 H 260.808 -1.83635 -2.55197 0
M  V30 2933 N 264.58 -0.43555 -1.51462 0
M  V30 2934 C 265.51 0.367376 -2.30592 0
M  V30 2935 C 266.491 1.02263 -1.35928 0
M  V30 2936 O 267.676 1.02661 -1.64847 0
M  V30 2937 C 264.806 1.46983 -3.14664 0
M  V30 2938 C 263.76 0.938161 -4.17591 0
M  V30 2939 C 263.086 2.13622 -4.90173 0
M  V30 2940 C 264.386 -0.0261621 -5.22293 0
M  V30 2941 H 266.08 -0.292969 -2.97963 0
M  V30 2942 H 263.626 -0.14234 -1.43295 0
M  V30 2943 H 265.579 2.03873 -3.688 0
M  V30 2944 H 264.303 2.15843 -2.4511 0
M  V30 2945 H 262.962 0.391481 -3.64504 0
M  V30 2946 H 262.61 2.81098 -4.17124 0
M  V30 2947 H 262.31 1.78688 -5.59772 0
M  V30 2948 H 263.834 2.7107 -5.47132 0
M  V30 2949 H 265.248 0.452384 -5.71512 0
M  V30 2950 H 263.645 -0.287992 -5.99409 0
M  V30 2951 H 264.715 -0.963391 -4.75233 0
M  V30 2952 N 266.058 1.56714 -0.166846 0
M  V30 2953 C 267.288 2.00828 0.48494 0
M  V30 2954 C 267.696 1.04612 1.57648 0
M  V30 2955 O 267.039 0.0383201 1.8366 0
M  V30 2956 C 267.101 3.4137 1.12723 0
M  V30 2957 C 266.765 4.56654 0.177886 0
M  V30 2958 C 267.762 5.16402 -0.60207 0
M  V30 2959 C 265.447 5.02244 0.0750139 0
M  V30 2960 C 267.441 6.20167 -1.47215 0
M  V30 2961 C 265.128 6.05859 -0.798649 0
M  V30 2962 C 266.126 6.64691 -1.57082 0
M  V30 2963 O 265.814 7.66297 -2.42989 0
M  V30 2964 H 265.546 0.663587 0.128953 0
M  V30 2965 H 268.1 2.03692 -0.264365 0
M  V30 2966 H 266.33 3.35406 1.92457 0
M  V30 2967 H 268.019 3.69466 1.68076 0
M  V30 2968 H 268.785 4.82065 -0.53274 0
M  V30 2969 H 264.664 4.56167 0.665812 0
M  V30 2970 H 268.208 6.66016 -2.07531 0
M  V30 2971 H 264.105 6.39621 -0.869199 0
M  V30 2972 H 264.873 7.83601 -2.36455 0
M  V30 2973 N 267.536 -0.106894 1.57237 0
M  V30 2974 C 268.952 -0.46078 1.52804 0
M  V30 2975 C 269.152 -1.81184 0.881746 0
M  V30 2976 O 268.208 -2.48102 0.469224 0
M  V30 2977 C 269.521 -0.434127 2.9755 0
M  V30 2978 C 271.069 -0.516821 3.08704 0
M  V30 2979 C 271.544 -0.520436 4.55033 0
M  V30 2980 N 273.035 -0.58153 4.59535 0
M  V30 2981 C 273.77 -0.605973 5.70189 0
M  V30 2982 N 273.266 -0.587331 6.90306 0
M  V30 2983 N 275.059 -0.649895 5.5833 0
M  V30 2984 H 267.21 0.778203 1.9763 0
M  V30 2985 H 269.473 0.288403 0.903066 0
M  V30 2986 H 269.179 0.491197 3.48253 0
M  V30 2987 H 269.053 -1.25748 3.55622 0
M  V30 2988 H 271.44 -1.43256 2.57995 0
M  V30 2989 H 271.521 0.334449 2.53604 0
M  V30 2990 H 271.165 0.391313 5.0639 0
M  V30 2991 H 271.095 -1.38876 5.07958 0
M  V30 2992 H 273.586 -0.60161 3.73081 0
M  V30 2993 H 273.899 -0.60894 7.70397 0
M  V30 2994 H 272.244 -0.554564 6.92784 0
M  V30 2995 H 275.435 -0.661907 4.63397 0
M  V30 2996 H 275.608 -0.665476 6.44574 0
M  V30 2997 N 269.014 -1.53014 -0.377408 0
M  V30 2998 C 269.962 -1.7927 -1.48206 0
M  V30 2999 C 270.956 -0.661195 -1.55963 0
M  V30 3000 O 272.162 -0.843908 -1.58991 0
M  V30 3001 H 268.537 -0.567425 -0.493491 0
M  V30 3002 H 270.508 -2.71753 -1.2326 0
M  V30 3003 C 269.257 -1.98894 -2.85196 0
M  V30 3004 H 268.58 -2.85395 -2.79981 0
M  V30 3005 H 270.02 -2.21249 -3.61698 0
M  V30 3006 C 268.479 -0.764691 -3.28107 0
M  V30 3007 O 269.009 0.0523226 -4.01666 0
M  V30 3008 N 267.215 -0.591493 -2.84517 0
M  V30 3009 H 266.762 -1.25749 -2.24822 0
M  V30 3010 H 266.72 0.226253 -3.13585 0
M  V30 3011 N 270.492 0.636531 -1.44174 0
M  V30 3012 C 271.402 1.77754 -1.53103 0
M  V30 3013 C 272.418 1.68928 -0.417034 0
M  V30 3014 O 273.594 1.89801 -0.6736 0
M  V30 3015 C 270.659 3.14115 -1.46741 0
M  V30 3016 C 269.72 3.34612 -2.68948 0
M  V30 3017 C 268.953 4.64467 -2.6288 0
M  V30 3018 O 269.176 5.44919 -1.68581 0
M  V30 3019 O 268.11 4.87049 -3.53648 0
M  V30 3020 H 271.936 1.73174 -2.49489 0
M  V30 3021 H 269.521 0.79709 -1.2636 0
M  V30 3022 H 271.403 3.95412 -1.45696 0
M  V30 3023 H 270.078 3.19249 -0.534975 0
M  V30 3024 H 268.985 2.53014 -2.75562 0
M  V30 3025 H 270.318 3.34336 -3.61221 0
M  V30 3026 N 271.97 1.30982 0.876444 0
M  V30 3027 C 272.917 1.18085 1.98304 0
M  V30 3028 C 273.887 0.0682263 1.6596 0
M  V30 3029 O 275.072 0.239937 1.89285 0
M  V30 3030 C 272.212 0.887475 3.33493 0
M  V30 3031 C 271.325 2.08281 3.78475 0
M  V30 3032 C 270.46 1.72678 5.0235 0
M  V30 3033 C 269.499 2.88657 5.39762 0
M  V30 3034 N 268.636 2.53292 6.54819 0
M  V30 3035 H 273.476 2.1275 2.08666 0
M  V30 3036 H 271.013 1.05839 1.02159 0
M  V30 3037 H 272.971 0.697961 4.1132 0
M  V30 3038 H 271.601 -0.022315 3.22792 0
M  V30 3039 H 270.653 2.3833 2.96484 0
M  V30 3040 H 271.965 2.95108 4.02135 0
M  V30 3041 H 271.119 1.50151 5.87826 0
M  V30 3042 H 269.858 0.830327 4.8058 0
M  V30 3043 H 268.863 3.1184 4.52809 0
M  V30 3044 H 270.088 3.79002 5.63502 0
M  V30 3045 H 268.034 1.66163 6.34607 0
M  V30 3046 H 267.951 3.3365 6.7839 0
M  V30 3047 H 269.219 2.34143 7.43503 0
M  V30 3048 N 273.449 -1.08991 1.13837 0
M  V30 3049 C 274.726 -1.77863 0.813876 0
M  V30 3050 C 275.106 -1.99375 -0.693746 0
M  V30 3051 O 274.454 -1.59875 -1.63255 0
M  V30 3052 C 274.664 -3.0986 1.60586 0
M  V30 3053 C 276.012 -3.84493 1.8014 0
M  V30 3054 O 277.036 -3.19624 1.57222 0
M  V30 3055 O 275.895 -5.00957 2.18413 0
M  V30 3056 H 272.989 -0.771589 0.297624 0
M  V30 3057 H 275.535 -1.15507 1.24323 0
M  V30 3058 H 274.307 -2.89715 2.63022 0
M  V30 3059 H 273.93 -3.79942 1.17173 0
M  V30 3060 N 274.927 -0.932562 -1.27047 0
M  V30 3061 C 276.152 -0.591474 -1.98787 0
M  V30 3062 C 276.577 0.824601 -1.69062 0
M  V30 3063 O 275.935 1.5541 -0.933677 0
M  V30 3064 C 275.983 -0.829808 -3.50922 0
M  V30 3065 O 275.087 0.102266 -4.12273 0
M  V30 3066 H 274.428 -0.227185 -0.623926 0
M  V30 3067 H 276.958 -1.25314 -1.61733 0
M  V30 3068 H 276.968 -0.747292 -4.01098 0
M  V30 3069 H 275.643 -1.86201 -3.7189 0
M  V30 3070 H 274.22 -0.0305761 -3.72887 0
M  V30 3071 N 276.405 1.4127 -0.698611 0
M  V30 3072 C 277.651 2.01478 -0.231207 0
M  V30 3073 C 277.984 1.55215 1.16713 0
M  V30 3074 O 277.259 0.764672 1.78838 0
M  V30 3075 C 277.542 3.58912 -0.292281 0
M  V30 3076 C 277.395 4.15293 -1.72778 0
M  V30 3077 C 278.714 4.38736 0.346194 0
M  V30 3078 H 275.833 0.732025 -0.0854878 0
M  V30 3079 H 278.475 1.67977 -0.887906 0
M  V30 3080 H 276.625 3.87582 0.26686 0
M  V30 3081 H 278.297 3.97486 -2.341 0
M  V30 3082 H 276.54 3.7022 -2.26096 0
M  V30 3083 H 277.211 5.24452 -1.72202 0
M  V30 3084 H 279.687 4.15897 -0.130035 0
M  V30 3085 H 278.563 5.48221 0.272932 0
M  V30 3086 H 278.824 4.18425 1.42734 0
M  V30 3087 N 277.883 0.443576 1.51229 0
M  V30 3088 C 279.16 -0.181038 1.9476 0
M  V30 3089 C 279.54 -1.59523 1.38259 0
M  V30 3090 O 278.888 -2.2122 0.572198 0
M  V30 3091 C 279.098 -0.152422 3.48667 0
M  V30 3092 C 280.446 -0.354923 4.23114 0
M  V30 3093 O 281.47 -0.230257 3.55455 0
M  V30 3094 O 280.329 -0.603674 5.43156 0
M  V30 3095 H 277.423 -0.1266 0.817252 0
M  V30 3096 H 279.969 0.502004 1.62105 0
M  V30 3097 H 278.741 0.836022 3.82265 0
M  V30 3098 H 278.364 -0.878107 3.87782 0
M  V30 3099 N 279.361 -1.56624 0.175154 0
M  V30 3100 C 280.607 -1.98061 -0.462976 0
M  V30 3101 C 280.962 -1.05949 -1.60601 0
M  V30 3102 O 280.255 -0.0999027 -1.91339 0
M  V30 3103 C 280.449 -3.43419 -0.989864 0
M  V30 3104 C 280.278 -4.49587 0.100583 0
M  V30 3105 C 279.048 -5.02281 0.551539 0
M  V30 3106 C 281.246 -5.06322 0.902369 0
M  V30 3107 N 279.228 -5.92088 1.62189 0
M  V30 3108 C 280.599 -5.92607 1.82256 0
M  V30 3109 C 282.654 -4.88811 0.947019 0
M  V30 3110 C 281.357 -6.63254 2.78364 0
M  V30 3111 C 283.383 -5.60182 1.89606 0
M  V30 3112 C 282.745 -6.46197 2.80372 0
M  V30 3113 H 278.844 -0.769833 -0.137409 0
M  V30 3114 H 281.428 -1.9273 0.276256 0
M  V30 3115 H 279.599 -3.49288 -1.6986 0
M  V30 3116 H 281.331 -3.7186 -1.59694 0
M  V30 3117 H 278.086 -4.73367 0.148537 0
M  V30 3118 H 278.51 -6.41696 2.15767 0
M  V30 3119 H 283.152 -4.22004 0.259304 0
M  V30 3120 H 280.87 -7.29271 3.48122 0
M  V30 3121 H 284.456 -5.48617 1.93676 0
M  V30 3122 H 283.336 -7.00453 3.52612 0
M  V30 3123 N 280.839 0.0985539 -1.57292 0
M  V30 3124 C 281.789 1.1261 -1.9825 0
M  V30 3125 C 282.773 1.35961 -0.860426 0
M  V30 3126 O 283.965 1.36711 -1.12424 0
M  V30 3127 C 281.094 2.44727 -2.40757 0
M  V30 3128 C 280.18 2.24764 -3.59642 0
M  V30 3129 N 280.571 1.74661 -4.74687 0
M  V30 3130 C 278.869 2.55344 -3.65672 0
M  V30 3131 C 279.57 1.68887 -5.56644 0
M  V30 3132 N 278.546 2.13976 -4.99715 0
M  V30 3133 H 282.348 0.731604 -2.84648 0
M  V30 3134 H 279.862 0.306029 -1.59491 0
M  V30 3135 H 281.859 3.19072 -2.68326 0
M  V30 3136 H 280.519 2.84917 -1.55733 0
M  V30 3137 H 281.53 1.43908 -4.97505 0
M  V30 3138 H 278.207 2.99081 -2.91302 0
M  V30 3139 H 279.597 1.3123 -6.5896 0
M  V30 3140 N 282.317 1.53212 0.369288 0
M  V30 3141 C 283.542 1.73423 1.1375 0
M  V30 3142 C 283.967 0.460404 1.82378 0
M  V30 3143 O 283.325 -0.585298 1.71592 0
M  V30 3144 C 283.373 2.89769 2.1463 0
M  V30 3145 O 282.477 2.58119 3.21634 0
M  V30 3146 H 281.818 0.576061 0.330227 0
M  V30 3147 H 284.348 2.00083 0.427547 0
M  V30 3148 H 284.358 3.15829 2.58294 0
M  V30 3149 H 283.033 3.8217 1.64071 0
M  V30 3150 H 281.61 2.42864 2.82969 0
M  V30 3151 N 283.795 -0.628877 1.44509 0
M  V30 3152 C 285.072 -1.38733 1.37886 0
M  V30 3153 C 285.452 -2.11065 0.0387008 0
M  V30 3154 O 284.8 -2.06476 -0.97878 0
M  V30 3155 C 285.01 -2.35188 2.57852 0
M  V30 3156 C 286.358 -2.9845 3.02014 0
M  V30 3157 O 287.382 -2.45513 2.58073 0
M  V30 3158 O 286.241 -3.94487 3.78209 0
M  V30 3159 H 283.335 -0.621015 0.54614 0
M  V30 3160 H 285.881 -0.653744 1.56602 0
M  V30 3161 H 284.653 -1.80855 3.46998 0
M  V30 3162 H 284.276 -3.1596 2.4136 0
M  V30 3163 N 285.273 -1.31445 -0.869486 0
M  V30 3164 C 286.55 -1.11795 -1.60503 0
M  V30 3165 C 286.93 0.327168 -2.08549 0
M  V30 3166 O 286.278 1.32135 -1.8642 0
M  V30 3167 C 286.488 -2.13258 -2.76265 0
M  V30 3168 C 287.836 -2.45805 -3.46215 0
M  V30 3169 O 288.86 -2.11688 -2.86473 0
M  V30 3170 O 287.719 -3.04228 -4.5399 0
M  V30 3171 H 284.813 -0.430421 -0.706163 0
M  V30 3172 H 287.359 -1.42925 -0.914907 0
M  V30 3173 H 286.131 -3.10461 -2.3818 0
M  V30 3174 H 285.754 -1.83035 -3.52964 0
M  V30 3175 N 286.751 1.08385 -1.14413 0
M  V30 3176 C 287.661 2.18856 -0.844951 0
M  V30 3177 C 288.677 1.73121 0.174668 0
M  V30 3178 O 289.853 2.014 0.00312857 0
M  V30 3179 C 286.918 3.45155 -0.32696 0
M  V30 3180 C 285.979 4.05513 -1.40916 0
M  V30 3181 C 285.212 5.25784 -0.915793 0
M  V30 3182 O 285.435 5.69884 0.242651 0
M  V30 3183 O 284.369 5.77545 -1.69487 0
M  V30 3184 H 288.195 2.46919 -1.76818 0
M  V30 3185 H 285.78 1.17524 -0.922411 0
M  V30 3186 H 287.662 4.21377 -0.0440211 0
M  V30 3187 H 286.337 3.18668 0.568539 0
M  V30 3188 H 285.244 3.30879 -1.74556 0
M  V30 3189 H 286.577 4.3625 -2.27919 0
M  V30 3190 N 288.23 0.939286 1.26551 0
M  V30 3191 C 289.641 0.628782 1.75793 0
M  V30 3192 C 289.992 -0.856046 1.7654 0
M  V30 3193 O 289.117 -1.66994 1.3763 0
M  V30 3194 C 289.712 1.13465 3.19235 0
M  V30 3195 C 288.271 0.874601 3.66098 0
M  V30 3196 C 287.418 1.28667 2.45642 0
M  V30 3197 H 290.369 1.1178 1.12654 0
M  V30 3198 H 290.39 0.487609 3.77363 0
M  V30 3199 H 289.902 2.21535 3.1866 0
M  V30 3200 H 288.003 -0.191793 3.72106 0
M  V30 3201 H 288.116 1.50028 4.55004 0
M  V30 3202 H 286.48 0.705109 2.44745 0
M  V30 3203 H 287.263 2.37625 2.47769 0
M  V30 3204 N 289.708 -1.40897 0.706093 0
M  V30 3205 C 290.933 -2.05895 0.249435 0
M  V30 3206 C 291.358 -1.52823 -1.09666 0
M  V30 3207 O 290.716 -0.659589 -1.68876 0
M  V30 3208 C 290.764 -3.59872 0.22904 0
M  V30 3209 O 289.868 -4.04708 -0.792784 0
M  V30 3210 H 289.209 -0.653206 0.119241 0
M  V30 3211 H 291.739 -1.80471 0.96391 0
M  V30 3212 H 291.749 -4.07951 0.0634791 0
M  V30 3213 H 290.424 -3.97866 1.21141 0
M  V30 3214 H 289.001 -3.68111 -0.59572 0
M  V30 3215 N 291.186 -0.45159 -1.50991 0
M  V30 3216 C 292.116 0.342898 -2.30969 0
M  V30 3217 C 293.097 1.00815 -1.37005 0
M  V30 3218 O 294.282 1.00907 -1.65926 0
M  V30 3219 C 291.412 1.43637 -3.16205 0
M  V30 3220 C 290.366 0.893818 -4.18563 0
M  V30 3221 C 289.692 2.08411 -4.92411 0
M  V30 3222 C 290.992 -0.0815568 -5.22236 0
M  V30 3223 H 292.686 -0.324556 -2.97636 0
M  V30 3224 H 290.232 -0.157531 -1.43136 0
M  V30 3225 H 292.185 1.9995 -3.70942 0
M  V30 3226 H 290.909 2.13232 -2.47386 0
M  V30 3227 H 289.568 0.352798 -3.64898 0
M  V30 3228 H 289.216 2.76658 -4.20082 0
M  V30 3229 H 288.916 1.72741 -5.61636 0
M  V30 3230 H 290.44 2.65251 -5.49976 0
M  V30 3231 H 291.854 0.391742 -5.7196 0
M  V30 3232 H 290.251 -0.351551 -5.99069 0
M  V30 3233 H 291.321 -1.01374 -4.74185 0
M  V30 3234 N 292.664 1.56529 -0.183458 0
M  V30 3235 C 293.912 1.96855 0.457452 0
M  V30 3236 C 294.233 1.07104 1.62953 0
M  V30 3237 O 293.503 0.139887 1.954 0
M  V30 3238 H 292.083 0.72693 0.171992 0
M  V30 3239 H 294.745 1.93056 -0.267476 0
M  V30 3240 H 293.841 3.01423 0.809368 0
M  V30 3241 N 294.142 -0.090211 1.57342 0
M  V30 3242 C 295.558 -0.444547 1.53284 0
M  V30 3243 C 295.758 -1.80238 0.900914 0
M  V30 3244 O 294.814 -2.4759 0.495513 0
M  V30 3245 C 296.127 -0.402543 2.97993 0
M  V30 3246 C 297.675 -0.48405 3.09234 0
M  V30 3247 C 298.15 -0.472144 4.5556 0
M  V30 3248 N 299.641 -0.532757 4.60126 0
M  V30 3249 C 300.376 -0.545462 5.708 0
M  V30 3250 N 299.872 -0.514082 6.9089 0
M  V30 3251 N 301.665 -0.59064 5.58988 0
M  V30 3252 H 293.816 0.799121 1.96794 0
M  V30 3253 H 296.079 0.297965 0.899956 0
M  V30 3254 H 295.785 0.528106 3.47712 0
M  V30 3255 H 295.659 -1.21969 3.56936 0
M  V30 3256 H 298.046 -1.40512 2.595 0
M  V30 3257 H 298.127 0.361328 2.53235 0
M  V30 3258 H 297.771 0.445 5.05947 0
M  V30 3259 H 297.701 -1.3348 5.09402 0
M  V30 3260 H 300.192 -0.562006 3.73698 0
M  V30 3261 H 300.505 -0.527195 7.71 0
M  V30 3262 H 298.85 -0.481054 6.93333 0
M  V30 3263 H 302.041 -0.61272 4.64073 0
M  V30 3264 H 302.214 -0.597073 6.45243 0
M  V30 3265 N 295.62 -1.53406 -0.361157 0
M  V30 3266 C 296.86 -1.71507 -1.11197 0
M  V30 3267 C 297.224 -0.459337 -1.86425 0
M  V30 3268 O 298.425 -0.517102 -2.63779 0
M  V30 3269 C 296.696 -2.93307 -2.0422 0
M  V30 3270 S 298.255 -3.32135 -2.86761 0
M  V30 3271 H 295.073 -0.603448 -0.375995 0
M  V30 3272 H 297.675 -1.91516 -0.392642 0
M  V30 3273 H 296.379 -3.82891 -1.47724 0
M  V30 3274 H 295.91 -2.75712 -2.80618 0
M  V30 3275 H 297.925 -2.84493 -4.06544 0
M  V30 3276 N 297.098 0.621204 -1.44841 0
M  V30 3277 C 298.509 1.20298 -1.42777 0
M  V30 3278 C 298.86 1.95639 -0.148259 0
M  V30 3279 O 297.985 2.02955 0.750892 0
M  V30 3280 C 298.58 2.1882 -2.58657 0
M  V30 3281 C 297.139 2.72403 -2.59756 0
M  V30 3282 C 296.286 1.4757 -2.34773 0
M  V30 3283 H 299.237 0.411297 -1.53278 0
M  V30 3284 H 299.258 3.01607 -2.31977 0
M  V30 3285 H 298.77 1.63957 -3.51766 0
M  V30 3286 H 296.871 3.31242 -1.70615 0
M  V30 3287 H 296.984 3.17765 -3.58556 0
M  V30 3288 H 295.348 1.76051 -1.8406 0
M  V30 3289 H 296.131 0.945954 -3.3001 0
M  V30 3290 N 298.576 1.31904 0.862503 0
M  V30 3291 C 299.825 1.21373 1.61094 0
M  V30 3292 C 300.138 -0.22504 1.94301 0
M  V30 3293 O 301.344 -0.452121 2.67709 0
M  V30 3294 C 299.8 2.12525 2.9045 0
M  V30 3295 C 299.408 3.61441 2.64697 0
M  V30 3296 C 301.152 2.10813 3.68454 0
M  V30 3297 C 299.059 4.44578 3.90006 0
M  V30 3298 H 297.989 0.450705 0.604468 0
M  V30 3299 H 300.64 1.56811 0.953027 0
M  V30 3300 H 299.022 1.69994 3.57656 0
M  V30 3301 H 300.196 4.12264 2.05851 0
M  V30 3302 H 298.511 3.65205 2.00036 0
M  V30 3303 H 301.108 2.70167 4.61426 0
M  V30 3304 H 301.451 1.09713 4.01583 0
M  V30 3305 H 301.984 2.51583 3.08141 0
M  V30 3306 H 298.723 5.46461 3.62023 0
M  V30 3307 H 298.243 3.98508 4.48276 0
M  V30 3308 H 299.922 4.57176 4.5782 0
M  V30 3309 N 300.054 -1.07777 1.14986 0
M  V30 3310 C 301.303 -1.79669 0.916617 0
M  V30 3311 C 301.616 -1.87474 -0.557917 0
M  V30 3312 O 302.822 -2.55845 -0.908617 0
M  V30 3313 C 301.278 -3.22848 1.59051 0
M  V30 3314 C 300.886 -3.23257 3.10176 0
M  V30 3315 C 302.63 -3.99379 1.43864 0
M  V30 3316 C 300.537 -4.61063 3.70372 0
M  V30 3317 H 299.467 -0.673349 0.33929 0
M  V30 3318 H 302.118 -1.21003 1.37951 0
M  V30 3319 H 300.5 -3.8168 1.0553 0
M  V30 3320 H 301.674 -2.74095 3.70417 0
M  V30 3321 H 299.989 -2.60222 3.25074 0
M  V30 3322 H 302.586 -5.0122 1.86232 0
M  V30 3323 H 302.929 -4.14511 0.385564 0
M  V30 3324 H 303.462 -3.47032 1.94457 0
M  V30 3325 H 300.201 -4.51135 4.7556 0
M  V30 3326 H 299.721 -5.1048 3.14913 0
M  V30 3327 H 301.4 -5.30034 3.71043 0
M  V30 3328 N 301.532 -0.945985 -1.26051 0
M  V30 3329 C 302.495 -0.463897 -2.24456 0
M  V30 3330 C 303.495 0.427655 -1.55009 0
M  V30 3331 O 304.685 0.226157 -1.72726 0
M  V30 3332 C 301.817 0.330812 -3.39291 0
M  V30 3333 H 303.01 -1.33357 -2.68619 0
M  V30 3334 H 300.563 -0.728416 -1.38289 0
M  V30 3335 H 301.298 1.21852 -3.00537 0
M  V30 3336 H 301.083 -0.308679 -3.90883 0
M  V30 3337 H 302.573 0.657865 -4.12386 0
M  V30 3338 N 303.011 1.40521 -0.713556 0
M  V30 3339 C 304.236 2.05759 -0.26035 0
M  V30 3340 C 304.661 1.53403 1.08854 0
M  V30 3341 O 304.019 0.668535 1.68524 0
M  V30 3342 C 304.067 3.59745 -0.248122 0
M  V30 3343 O 303.171 4.05123 0.77131 0
M  V30 3344 H 302.512 0.652564 -0.122703 0
M  V30 3345 H 305.042 1.79958 -0.973467 0
M  V30 3346 H 305.052 4.07911 -0.0851129 0
M  V30 3347 H 303.727 3.97218 -1.2325 0
M  V30 3348 H 302.304 3.68422 0.57619 0
M  V30 3349 N 304.489 0.459591 1.5075 0
M  V30 3350 C 305.419 -0.330644 2.31147 0
M  V30 3351 C 306.4 -1.00087 1.37538 0
M  V30 3352 O 307.585 -1.00025 1.66459 0
M  V30 3353 C 304.715 -1.41958 3.16962 0
M  V30 3354 C 303.669 -0.871608 4.19031 0
M  V30 3355 C 302.995 -2.05797 4.9351 0
M  V30 3356 C 304.295 0.109251 5.22186 0
M  V30 3357 H 305.989 0.340336 2.97459 0
M  V30 3358 H 303.535 0.165119 1.4305 0
M  V30 3359 H 305.488 -1.9798 3.71997 0
M  V30 3360 H 304.212 -2.11917 2.48513 0
M  V30 3361 H 302.871 -0.333442 3.6508 0
M  V30 3362 H 302.519 -2.74427 4.21544 0
M  V30 3363 H 302.219 -1.6976 5.62544 0
M  V30 3364 H 303.743 -2.62331 5.51375 0
M  V30 3365 H 305.157 -0.361405 5.7216 0
M  V30 3366 H 303.554 0.383316 5.98875 0
M  V30 3367 H 304.624 1.03887 4.73641 0
M  V30 3368 N 305.967 -1.56429 0.191757 0
M  V30 3369 C 307.192 -2.02309 -0.456706 0
M  V30 3370 C 307.617 -1.07103 -1.5463 0
M  V30 3371 O 306.975 -0.0539677 -1.8122 0
M  V30 3372 C 307.023 -3.46654 -0.993159 0
M  V30 3373 O 306.127 -3.54559 -2.10622 0
M  V30 3374 H 305.468 -0.655303 -0.107114 0
M  V30 3375 H 307.998 -2.02364 0.301653 0
M  V30 3376 H 308.008 -3.86377 -1.31061 0
M  V30 3377 H 306.683 -4.1544 -0.195504 0
M  V30 3378 H 305.26 -3.26708 -1.79767 0
M  V30 3379 N 307.445 0.0818655 -1.57387 0
M  V30 3380 C 308.692 0.782914 -1.86753 0
M  V30 3381 C 309.02 1.78082 -0.782118 0
M  V30 3382 O 308.275 1.94426 0.22295 0
M  V30 3383 C 308.574 1.53513 -3.22752 0
M  V30 3384 C 308.24 0.678134 -4.45771 0
M  V30 3385 C 306.902 0.441929 -4.79166 0
M  V30 3386 C 309.254 0.0832243 -5.21134 0
M  V30 3387 C 306.582 -0.398833 -5.85343 0
M  V30 3388 C 308.934 -0.744935 -6.28199 0
M  V30 3389 C 307.598 -0.991107 -6.60101 0
M  V30 3390 H 306.868 0.286489 -0.683378 0
M  V30 3391 H 309.515 0.0439808 -1.91449 0
M  V30 3392 H 307.82 2.34599 -3.138 0
M  V30 3393 H 309.517 2.08218 -3.42705 0
M  V30 3394 H 306.107 0.872357 -4.19628 0
M  V30 3395 H 310.291 0.252847 -4.95655 0
M  V30 3396 H 305.547 -0.598405 -6.08465 0
M  V30 3397 H 309.721 -1.21271 -6.8576 0
M  V30 3398 H 307.348 -1.64437 -7.42202 0
M  V30 3399 N 308.923 1.53595 0.353017 0
M  V30 3400 C 310.171 1.70049 1.09215 0
M  V30 3401 C 310.492 0.461406 1.89463 0
M  V30 3402 O 309.762 -0.524633 1.88744 0
M  V30 3403 H 308.342 0.626912 0.40619 0
M  V30 3404 H 311.004 1.90822 0.396585 0
M  V30 3405 H 310.1 2.56718 1.77488 0
M  V30 3406 N 310.401 -0.613514 1.45168 0
M  V30 3407 C 311.364 -1.7065 1.53007 0
M  V30 3408 C 312.364 -1.5548 0.410184 0
M  V30 3409 O 313.554 -1.60656 0.673455 0
M  V30 3410 C 310.686 -3.09875 1.42093 0
M  V30 3411 H 311.879 -1.65068 2.50385 0
M  V30 3412 H 309.432 -0.828728 1.32521 0
M  V30 3413 H 310.167 -3.21039 0.458769 0
M  V30 3414 H 309.952 -3.22293 2.23315 0
M  V30 3415 H 311.442 -3.895 1.50598 0
M  V30 3416 N 311.879 -1.3236 -0.855495 0
M  V30 3417 C 313.107 -1.2587 -1.64208 0
M  V30 3418 C 313.522 0.173457 -1.88002 0
M  V30 3419 O 312.879 1.11027 -1.44842 0
M  V30 3420 C 312.93 -2.01424 -3.00184 0
M  V30 3421 O 312.651 -3.39051 -2.77445 0
M  V30 3422 C 314.152 -2.01948 -3.94629 0
M  V30 3423 H 311.372 -0.434318 -0.511477 0
M  V30 3424 H 313.916 -1.74469 -1.0668 0
M  V30 3425 H 312.071 -1.56549 -3.5436 0
M  V30 3426 H 312.485 -3.77711 -3.63916 0
M  V30 3427 H 313.959 -2.59297 -4.87308 0
M  V30 3428 H 314.436 -1.00554 -4.27534 0
M  V30 3429 H 315.042 -2.46767 -3.4639 0
M  V30 3430 N 313.357 1.07166 -1.15556 0
M  V30 3431 C 314.773 1.31899 -0.898603 0
M  V30 3432 C 314.973 1.96333 0.453383 0
M  V30 3433 O 314.029 2.22438 1.19489 0
M  V30 3434 C 315.342 2.20826 -2.04099 0
M  V30 3435 C 316.89 2.34269 -2.07574 0
M  V30 3436 C 317.365 3.26546 -3.21141 0
M  V30 3437 N 318.856 3.34127 -3.20801 0
M  V30 3438 C 319.591 4.05595 -4.05315 0
M  V30 3439 N 319.087 4.79661 -4.99897 0
M  V30 3440 N 320.88 4.01555 -3.93332 0
M  V30 3441 H 313.031 0.637302 -2.02613 0
M  V30 3442 H 315.294 0.343468 -0.883591 0
M  V30 3443 H 315 1.80744 -3.01703 0
M  V30 3444 H 314.874 3.21364 -1.97496 0
M  V30 3445 H 317.261 2.73603 -1.10568 0
M  V30 3446 H 317.342 1.33429 -2.18244 0
M  V30 3447 H 316.986 2.87931 -4.184 0
M  V30 3448 H 316.916 4.27345 -3.07708 0
M  V30 3449 H 319.407 2.81336 -2.52306 0
M  V30 3450 H 319.72 5.31694 -5.60822 0
M  V30 3451 H 318.065 4.78671 -5.03884 0
M  V30 3452 H 321.256 3.42806 -3.18751 0
M  V30 3453 H 321.429 4.56987 -4.5942 0
M  V30 3454 N 314.835 0.952656 1.25548 0
M  V30 3455 C 316.063 0.623496 1.97282 0
M  V30 3456 C 316.478 -0.803987 1.70826 0
M  V30 3457 O 315.835 -1.53755 0.983147 0
M  V30 3458 C 315.886 0.870209 3.5087 0
M  V30 3459 O 315.607 2.24156 3.76412 0
M  V30 3460 C 317.108 0.553164 4.39835 0
M  V30 3461 H 314.328 0.233931 0.628902 0
M  V30 3462 H 316.872 1.27649 1.59768 0
M  V30 3463 H 315.027 0.263652 3.86502 0
M  V30 3464 H 315.441 2.31021 4.70882 0
M  V30 3465 H 316.915 0.776342 5.46513 0
M  V30 3466 H 317.392 -0.512215 4.36203 0
M  V30 3467 H 317.998 1.13896 4.09766 0
M  V30 3468 N 316.313 -1.40141 0.720998 0
M  V30 3469 C 317.56 -2.00787 0.262842 0
M  V30 3470 C 317.888 -1.5718 -1.14563 0
M  V30 3471 O 317.143 -0.785391 -1.79249 0
M  V30 3472 C 317.442 -3.56165 0.296892 0
M  V30 3473 C 317.108 -4.19373 1.65641 0
M  V30 3474 C 315.77 -4.36352 2.02855 0
M  V30 3475 C 318.122 -4.54578 2.54968 0
M  V30 3476 C 315.45 -4.8582 3.28931 0
M  V30 3477 C 317.802 -5.05447 3.80402 0
M  V30 3478 C 316.466 -5.20635 4.17726 0
M  V30 3479 H 315.736 -0.734731 0.0961807 0
M  V30 3480 H 318.383 -1.67673 0.925093 0
M  V30 3481 H 316.688 -3.8922 -0.448932 0
M  V30 3482 H 318.385 -4.00929 -0.0755208 0
M  V30 3483 H 314.975 -4.06549 1.35704 0
M  V30 3484 H 319.159 -4.41091 2.27491 0
M  V30 3485 H 314.415 -4.95764 3.57811 0
M  V30 3486 H 318.589 -5.31663 4.49786 0
M  V30 3487 H 316.216 -5.58728 5.15487 0
M  V30 3488 N 317.792 -0.46758 -1.50504 0
M  V30 3489 C 318.702 0.33382 -2.32213 0
M  V30 3490 C 319.718 0.999323 -1.42441 0
M  V30 3491 O 320.894 0.988068 -1.75497 0
M  V30 3492 C 317.959 1.4035 -3.17022 0
M  V30 3493 C 317.02 0.754961 -4.2261 0
M  V30 3494 C 316.253 1.77367 -5.03365 0
M  V30 3495 O 316.476 2.99976 -4.8515 0
M  V30 3496 O 315.41 1.34744 -5.86624 0
M  V30 3497 H 319.236 -0.334067 -3.01857 0
M  V30 3498 H 316.821 -0.229496 -1.47627 0
M  V30 3499 H 318.703 2.02318 -3.69656 0
M  V30 3500 H 317.378 2.05492 -2.5011 0
M  V30 3501 H 316.285 0.0964244 -3.73976 0
M  V30 3502 H 317.618 0.146545 -4.91982 0
M  V30 3503 N 319.27 1.56325 -0.20005 0
M  V30 3504 C 320.203 2.15234 0.758267 0
M  V30 3505 C 321.181 1.09046 1.20614 0
M  V30 3506 O 322.365 1.37186 1.29276 0
M  V30 3507 C 319.492 2.71524 2.02466 0
M  V30 3508 C 318.538 3.90345 1.71852 0
M  V30 3509 S 319.371 5.28513 0.862249 0
M  V30 3510 C 320.527 5.88227 2.13868 0
M  V30 3511 H 320.76 2.96183 0.2575 0
M  V30 3512 H 318.293 1.54393 0.0150099 0
M  V30 3513 H 320.251 3.04598 2.75191 0
M  V30 3514 H 318.912 1.90607 2.49655 0
M  V30 3515 H 318.105 4.28158 2.65888 0
M  V30 3516 H 317.707 3.58306 1.07205 0
M  V30 3517 H 319.999 6.02891 3.09076 0
M  V30 3518 H 320.942 6.84714 1.80479 0
M  V30 3519 H 321.35 5.16874 2.2694 0
M  V30 3520 N 320.748 -0.0735177 1.57428 0
M  V30 3521 C 322.164 -0.428264 1.53747 0
M  V30 3522 C 322.364 -1.79272 0.91998 0
M  V30 3523 O 321.42 -2.47051 0.521745 0
M  V30 3524 C 322.733 -0.370914 2.98404 0
M  V30 3525 C 324.281 -0.451224 3.0973 0
M  V30 3526 C 324.756 -0.4238 4.56035 0
M  V30 3527 N 326.247 -0.483925 4.60665 0
M  V30 3528 C 326.982 -0.484891 5.71346 0
M  V30 3529 N 326.478 -0.440775 6.91396 0
M  V30 3530 N 328.271 -0.531319 5.59583 0
M  V30 3531 H 320.422 0.819949 1.95935 0
M  V30 3532 H 322.685 0.307493 0.896745 0
M  V30 3533 H 322.391 0.564956 3.47133 0
M  V30 3534 H 322.265 -1.18176 3.5821 0
M  V30 3535 H 324.652 -1.37752 2.60976 0
M  V30 3536 H 324.733 0.388167 2.52838 0
M  V30 3537 H 324.377 0.498638 5.05446 0
M  V30 3538 H 324.307 -1.2807 5.10789 0
M  V30 3539 H 326.798 -0.522338 3.74273 0
M  V30 3540 H 327.111 -0.44539 7.71515 0
M  V30 3541 H 325.456 -0.40749 6.93804 0
M  V30 3542 H 328.647 -0.563464 4.64696 0
M  V30 3543 H 328.82 -0.528603 6.4584 0
M  V30 3544 N 322.226 -1.5378 -0.344866 0
M  V30 3545 C 323.173 -1.81676 -1.42346 0
M  V30 3546 C 324.143 -0.662376 -1.52321 0
M  V30 3547 O 325.328 -0.906675 -1.67881 0
M  V30 3548 C 322.468 -2.03087 -2.79015 0
M  V30 3549 C 321.581 -3.30799 -2.77842 0
M  V30 3550 C 320.716 -3.42285 -4.0622 0
M  V30 3551 C 319.755 -4.6395 -3.9927 0
M  V30 3552 N 318.892 -4.72477 -5.19336 0
M  V30 3553 H 323.732 -2.73703 -1.17858 0
M  V30 3554 H 321.269 -1.35568 -0.570949 0
M  V30 3555 H 323.227 -2.1349 -3.58438 0
M  V30 3556 H 321.857 -1.14375 -3.01858 0
M  V30 3557 H 320.909 -3.29244 -1.90533 0
M  V30 3558 H 322.221 -4.20314 -2.68584 0
M  V30 3559 H 321.375 -3.52113 -4.94066 0
M  V30 3560 H 320.114 -2.50823 -4.18258 0
M  V30 3561 H 319.119 -4.54201 -3.09809 0
M  V30 3562 H 320.344 -5.56775 -3.88817 0
M  V30 3563 H 318.29 -3.83924 -5.3192 0
M  V30 3564 H 318.207 -5.55927 -5.12329 0
M  V30 3565 H 319.475 -4.86613 -6.08957 0
M  V30 3566 N 323.704 0.605807 -1.45491 0
M  V30 3567 C 324.651 1.7164 -1.54299 0
M  V30 3568 C 325.621 1.61486 -0.388761 0
M  V30 3569 O 326.806 1.81039 -0.602445 0
M  V30 3570 C 323.946 3.09953 -1.51734 0
M  V30 3571 C 323.059 3.309 -2.77721 0
M  V30 3572 C 322.194 4.59329 -2.66816 0
M  V30 3573 C 321.233 4.7354 -3.87848 0
M  V30 3574 N 320.37 5.9327 -3.75467 0
M  V30 3575 H 325.21 1.63449 -2.49176 0
M  V30 3576 H 322.747 0.796957 -1.23641 0
M  V30 3577 H 324.705 3.89977 -1.48235 0
M  V30 3578 H 323.335 3.17098 -0.604068 0
M  V30 3579 H 322.387 2.44639 -2.913 0
M  V30 3580 H 323.699 3.37274 -3.67488 0
M  V30 3581 H 322.853 5.4755 -2.61292 0
M  V30 3582 H 321.592 4.55355 -1.74651 0
M  V30 3583 H 320.597 3.83741 -3.93729 0
M  V30 3584 H 321.822 4.79309 -4.81082 0
M  V30 3585 H 319.768 5.90338 -2.86072 0
M  V30 3586 H 319.685 6.00811 -4.5887 0
M  V30 3587 H 320.953 6.83984 -3.73879 0
M  V30 3588 N 325.182 1.32811 0.848464 0
M  V30 3589 C 326.593 1.21315 1.41914 0
M  V30 3590 C 326.944 -0.171847 1.95446 0
M  V30 3591 O 326.069 -1.07093 1.88043 0
M  V30 3592 C 326.664 2.19631 2.57968 0
M  V30 3593 C 325.223 2.12003 3.11017 0
M  V30 3594 C 324.37 2.07651 1.83783 0
M  V30 3595 H 327.321 1.44549 0.655071 0
M  V30 3596 H 327.342 1.79845 3.35315 0
M  V30 3597 H 326.854 3.20423 2.18976 0
M  V30 3598 H 324.955 1.14481 3.54577 0
M  V30 3599 H 325.068 3.02111 3.71841 0
M  V30 3600 H 323.432 1.52983 2.03638 0
M  V30 3601 H 324.215 3.10235 1.47 0
M  V30 3602 N 326.66 -1.06551 1.16123 0
M  V30 3603 C 328.071 -1.60768 0.949232 0
M  V30 3604 C 328.422 -1.89523 -0.507508 0
M  V30 3605 O 327.547 -1.66671 -1.38021 0
M  V30 3606 C 328.142 -2.92086 1.71671 0
M  V30 3607 C 326.701 -3.43015 1.54977 0
M  V30 3608 C 325.848 -2.16947 1.72711 0
M  V30 3609 H 328.799 -0.895354 1.31031 0
M  V30 3610 H 328.82 -3.6138 1.19099 0
M  V30 3611 H 328.332 -2.71127 2.7769 0
M  V30 3612 H 326.433 -3.69039 0.513873 0
M  V30 3613 H 326.546 -4.18516 2.33198 0
M  V30 3614 H 324.91 -2.27041 1.15431 0
M  V30 3615 H 325.693 -1.98473 2.80113 0
M  V30 3616 N 328.138 -0.959301 -1.25041 0
M  V30 3617 C 329.549 -0.65667 -1.74771 0
M  V30 3618 C 329.9 0.827852 -1.77879 0
M  V30 3619 O 329.025 1.64783 -1.40269 0
M  V30 3620 C 329.62 -1.1853 -3.1739 0
M  V30 3621 C 328.179 -0.932734 -3.6466 0
M  V30 3622 C 327.326 -1.32558 -2.43564 0
M  V30 3623 H 330.277 -1.13558 -1.10862 0
M  V30 3624 H 330.298 -0.547582 -3.76539 0
M  V30 3625 H 329.81 -2.26576 -3.15095 0
M  V30 3626 H 327.911 0.13257 -3.72364 0
M  V30 3627 H 328.024 -1.57248 -4.52559 0
M  V30 3628 H 326.388 -0.743956 -2.43593 0
M  V30 3629 H 327.171 -2.41537 -2.43957 0
M  V30 3630 N 329.616 1.39756 -0.72842 0
M  V30 3631 C 330.526 2.34444 -0.0855374 0
M  V30 3632 C 331.542 1.57976 0.729356 0
M  V30 3633 O 332.718 1.90301 0.659346 0
M  V30 3634 C 329.783 3.36965 0.815798 0
M  V30 3635 C 328.844 4.29299 -0.0105996 0
M  V30 3636 C 328.077 5.26923 0.84781 0
M  V30 3637 O 328.3 5.30859 2.08673 0
M  V30 3638 O 327.234 6.01249 0.279969 0
M  V30 3639 H 331.06 2.91065 -0.866892 0
M  V30 3640 H 328.645 1.4117 -0.48902 0
M  V30 3641 H 330.527 3.99804 1.33171 0
M  V30 3642 H 329.202 2.82739 1.57608 0
M  V30 3643 H 328.109 3.69703 -0.571877 0
M  V30 3644 H 329.442 4.86712 -0.73295 0
M  V30 3645 N 331.094 0.475555 1.50254 0
M  V30 3646 C 332.004 -0.321501 2.32387 0
M  V30 3647 C 333.02 -0.991755 1.42969 0
M  V30 3648 O 334.196 -0.978747 1.76018 0
M  V30 3649 C 331.261 -1.38667 3.17762 0
M  V30 3650 C 330.322 -0.732538 4.23004 0
M  V30 3651 C 329.555 -1.74695 5.04299 0
M  V30 3652 O 329.778 -2.97399 4.86734 0
M  V30 3653 O 328.712 -1.31631 5.8733 0
M  V30 3654 H 332.538 0.350071 3.01676 0
M  V30 3655 H 330.123 0.237321 1.47503 0
M  V30 3656 H 332.005 -2.00354 3.70724 0
M  V30 3657 H 330.68 -2.04163 2.51196 0
M  V30 3658 H 329.587 -0.0765902 3.74022 0
M  V30 3659 H 330.92 -0.120452 4.92053 0
M  V30 3660 N 332.573 -1.56217 0.208337 0
M  V30 3661 C 333.521 -2.21053 -0.723769 0
M  V30 3662 C 334.515 -1.18578 -1.20978 0
M  V30 3663 O 335.721 -1.36691 -1.17114 0
M  V30 3664 H 332.096 -0.708595 -0.251788 0
M  V30 3665 H 334.067 -2.98006 -0.153365 0
M  V30 3666 C 332.816 -2.89417 -1.927 0
M  V30 3667 H 332.139 -3.68019 -1.56212 0
M  V30 3668 H 333.579 -3.38201 -2.55727 0
M  V30 3669 C 332.038 -1.91166 -2.77411 0
M  V30 3670 O 332.568 -1.42026 -3.75754 0
M  V30 3671 N 330.774 -1.59105 -2.43175 0
M  V30 3672 H 330.321 -1.99259 -1.63259 0
M  V30 3673 H 330.279 -0.936255 -3.00136 0
M  V30 3674 N 334.051 0.0651679 -1.57465 0
M  V30 3675 C 335.299 0.761555 -1.87202 0
M  V30 3676 C 335.62 1.77778 -0.801243 0
M  V30 3677 O 334.89 1.95166 0.16937 0
M  V30 3678 H 333.47 0.284251 -0.690804 0
M  V30 3679 H 336.132 0.0396827 -1.9486 0
M  V30 3680 H 335.228 1.27365 -2.84929 0
M  V30 3681 N 335.529 1.53961 0.336706 0
M  V30 3682 C 336.806 1.62171 1.09361 0
M  V30 3683 C 337.186 0.447263 2.06307 0
M  V30 3684 O 336.534 -0.559802 2.21537 0
M  V30 3685 C 336.744 2.98565 1.80721 0
M  V30 3686 C 338.092 3.54157 2.34218 0
M  V30 3687 O 339.116 3.00784 1.90807 0
M  V30 3688 O 337.975 4.47528 3.13657 0
M  V30 3689 H 335.069 0.6562 0.503319 0
M  V30 3690 H 337.615 1.66307 0.33765 0
M  V30 3691 H 336.387 3.75482 1.10132 0
M  V30 3692 H 336.01 2.9805 2.63158 0
M  V30 3693 N 337.007 -0.598083 1.45811 0
M  V30 3694 C 338.237 -1.38121 1.53643 0
M  V30 3695 C 338.645 -1.88425 0.171081 0
M  V30 3696 O 337.988 -1.63409 -0.839237 0
M  V30 3697 C 338.05 -2.61432 2.46766 0
M  V30 3698 C 337.714 -2.32702 3.93318 0
M  V30 3699 C 338.711 -1.92479 4.82957 0
M  V30 3700 C 336.396 -2.45321 4.38318 0
M  V30 3701 C 338.39 -1.65248 6.15607 0
M  V30 3702 C 336.077 -2.17703 5.71007 0
M  V30 3703 C 337.075 -1.7773 6.5947 0
M  V30 3704 O 336.763 -1.50441 7.89698 0
M  V30 3705 H 336.495 -0.428863 0.522544 0
M  V30 3706 H 339.049 -0.73557 1.91777 0
M  V30 3707 H 337.279 -3.28749 2.0362 0
M  V30 3708 H 338.968 -3.23487 2.45175 0
M  V30 3709 H 339.734 -1.82258 4.49452 0
M  V30 3710 H 335.613 -2.75399 3.69697 0
M  V30 3711 H 339.157 -1.33973 6.84614 0
M  V30 3712 H 335.054 -2.27544 6.04065 0
M  V30 3713 H 335.822 -1.64415 8.01817 0
M  V30 3714 N 338.485 -1.33259 -0.841409 0
M  V30 3715 C 339.713 -1.27605 -1.62864 0
M  V30 3716 C 340.128 0.153507 -1.88175 0
M  V30 3717 O 339.485 1.09485 -1.46011 0
M  V30 3718 C 339.536 -2.04596 -2.98031 0
M  V30 3719 O 339.257 -3.41975 -2.73834 0
M  V30 3720 C 340.758 -2.06122 -3.92465 0
M  V30 3721 H 337.978 -0.439718 -0.506842 0
M  V30 3722 H 340.522 -1.75591 -1.04824 0
M  V30 3723 H 338.677 -1.60299 -3.5268 0
M  V30 3724 H 339.091 -3.81549 -3.59889 0
M  V30 3725 H 340.565 -2.64451 -4.84531 0
M  V30 3726 H 341.042 -1.05083 -4.26444 0
M  V30 3727 H 341.648 -2.50427 -3.43753 0
M  V30 3728 N 339.963 1.05934 -1.16686 0
M  V30 3729 C 341.193 1.82226 -0.973515 0
M  V30 3730 C 341.601 1.8297 0.481532 0
M  V30 3731 O 340.944 1.25009 1.34604 0
M  V30 3732 C 341.006 3.29897 -1.42858 0
M  V30 3733 C 340.67 3.52849 -2.90425 0
M  V30 3734 C 341.667 3.45595 -3.88407 0
M  V30 3735 C 339.352 3.80053 -3.28428 0
M  V30 3736 C 341.346 3.65217 -5.22394 0
M  V30 3737 C 339.033 3.99325 -4.62583 0
M  V30 3738 C 340.031 3.91905 -5.59374 0
M  V30 3739 O 339.719 4.10647 -6.91104 0
M  V30 3740 H 339.451 0.581314 -0.345036 0
M  V30 3741 H 342.005 1.3453 -1.55212 0
M  V30 3742 H 340.235 3.78472 -0.793477 0
M  V30 3743 H 341.924 3.87692 -1.20207 0
M  V30 3744 H 342.69 3.24564 -3.60393 0
M  V30 3745 H 338.569 3.84936 -2.53664 0
M  V30 3746 H 342.113 3.59341 -5.9793 0
M  V30 3747 H 338.01 4.19846 -4.90306 0
M  V30 3748 H 338.778 4.27915 -6.97733 0
M  V30 3749 N 341.441 0.965919 1.2453 0
M  V30 3750 C 342.687 0.62776 1.92839 0
M  V30 3751 C 343.02 -0.834694 1.75347 0
M  V30 3752 O 342.295 -1.60031 1.10546 0
M  V30 3753 C 342.578 1.00109 3.45905 0
M  V30 3754 C 342.431 2.52011 3.72573 0
M  V30 3755 C 343.75 0.53435 4.36844 0
M  V30 3756 H 340.869 0.229537 0.700344 0
M  V30 3757 H 343.511 1.2046 1.46933 0
M  V30 3758 H 341.661 0.510238 3.85135 0
M  V30 3759 H 343.333 3.08559 3.42912 0
M  V30 3760 H 341.576 2.95287 3.17786 0
M  V30 3761 H 342.247 2.73183 4.79661 0
M  V30 3762 H 344.723 0.955565 4.04979 0
M  V30 3763 H 343.599 0.824152 5.42678 0
M  V30 3764 H 343.86 -0.565589 4.38467 0
M  V30 3765 N 342.919 -1.39368 0.735821 0
M  V30 3766 C 343.829 -2.34395 0.0979693 0
M  V30 3767 C 344.845 -1.58361 -0.720968 0
M  V30 3768 O 346.021 -1.90648 -0.649245 0
M  V30 3769 C 343.086 -3.37393 -0.797916 0
M  V30 3770 C 342.147 -4.29287 0.0333662 0
M  V30 3771 C 341.38 -5.27365 -0.819854 0
M  V30 3772 O 341.603 -5.31959 -2.05855 0
M  V30 3773 O 340.537 -6.01389 -0.248079 0
M  V30 3774 H 344.363 -2.90601 0.882315 0
M  V30 3775 H 341.948 -1.40909 0.4965 0
M  V30 3776 H 343.83 -4.00505 -1.31048 0
M  V30 3777 H 342.505 -2.83571 -1.56106 0
M  V30 3778 H 341.412 -3.69395 0.591475 0
M  V30 3779 H 342.745 -4.86317 0.758752 0
M  V30 3780 N 344.397 -0.483516 -1.5 0
M  V30 3781 C 345.813 -0.138404 -1.58999 0
M  V30 3782 C 346.013 1.35597 -1.4905 0
M  V30 3783 O 345.069 2.13039 -1.35539 0
M  V30 3784 C 346.382 -0.699658 -2.92447 0
M  V30 3785 C 347.93 -0.664195 -3.05872 0
M  V30 3786 C 348.405 -1.20321 -4.41913 0
M  V30 3787 N 349.896 -1.16315 -4.48358 0
M  V30 3788 C 350.631 -1.55058 -5.52037 0
M  V30 3789 N 350.127 -2.01311 -6.62907 0
M  V30 3790 N 351.92 -1.46584 -5.42651 0
M  V30 3791 H 344.071 -1.45529 -1.5471 0
M  V30 3792 H 346.334 -0.60258 -0.731848 0
M  V30 3793 H 346.04 -1.747 -3.05242 0
M  V30 3794 H 345.914 -0.150194 -3.76901 0
M  V30 3795 H 348.301 0.374272 -2.92717 0
M  V30 3796 H 348.382 -1.25061 -2.23144 0
M  V30 3797 H 348.026 -2.24037 -4.55818 0
M  V30 3798 H 347.956 -0.592896 -5.23252 0
M  V30 3799 H 350.447 -0.824058 -3.68806 0
M  V30 3800 H 350.76 -2.2899 -7.38095 0
M  V30 3801 H 349.105 -2.05273 -6.63994 0
M  V30 3802 H 352.296 -1.10281 -4.54924 0
M  V30 3803 H 352.469 -1.77103 -6.23329 0
M  V30 3804 N 345.875 1.56104 -0.216619 0
M  V30 3805 C 347.121 1.98466 0.417033 0
M  V30 3806 C 347.454 1.10403 1.59765 0
M  V30 3807 O 346.729 0.160632 1.93836 0
M  V30 3808 C 347.012 3.49769 0.85637 0
M  V30 3809 C 346.865 4.48606 -0.327546 0
M  V30 3810 C 348.184 4.05339 1.7143 0
M  V30 3811 H 345.303 0.721551 0.150112 0
M  V30 3812 H 347.945 1.87423 -0.311864 0
M  V30 3813 H 346.095 3.5931 1.47745 0
M  V30 3814 H 347.767 4.5108 -0.965618 0
M  V30 3815 H 346.01 4.22682 -0.975805 0
M  V30 3816 H 346.681 5.51995 0.0227149 0
M  V30 3817 H 349.157 3.98712 1.19031 0
M  V30 3818 H 348.033 5.11533 1.99061 0
M  V30 3819 H 348.294 3.51918 2.67593 0
M  V30 3820 N 347.353 -0.0568162 1.57498 0
M  V30 3821 C 348.3 -1.06591 2.04712 0
M  V30 3822 C 349.27 -1.3758 0.930644 0
M  V30 3823 O 350.455 -1.48392 1.19935 0
M  V30 3824 C 347.595 -2.3701 2.50839 0
M  V30 3825 C 346.708 -2.12421 3.76167 0
M  V30 3826 C 345.843 -3.36511 4.11015 0
M  V30 3827 C 344.882 -3.07353 5.2934 0
M  V30 3828 N 344.019 -4.23816 5.59754 0
M  V30 3829 H 348.859 -0.65631 2.90683 0
M  V30 3830 H 346.396 -0.312481 1.43743 0
M  V30 3831 H 348.354 -3.13175 2.7564 0
M  V30 3832 H 346.984 -2.75744 1.67825 0
M  V30 3833 H 346.036 -1.2688 3.58616 0
M  V30 3834 H 347.348 -1.86894 4.62463 0
M  V30 3835 H 346.502 -4.21062 4.36797 0
M  V30 3836 H 345.241 -3.65128 3.23315 0
M  V30 3837 H 344.246 -2.212 5.03339 0
M  V30 3838 H 345.471 -2.80043 6.1867 0
M  V30 3839 H 343.417 -4.52436 4.75014 0
M  V30 3840 H 343.334 -4.01614 6.40501 0
M  V30 3841 H 344.602 -5.0932 5.90096 0
M  V30 3842 N 348.832 -1.54138 -0.328536 0
M  V30 3843 C 350.081 -1.71318 -1.06456 0
M  V30 3844 C 350.394 -0.491109 -1.89334 0
M  V30 3845 O 351.6 -0.54416 -2.65991 0
M  V30 3846 C 350.056 -3.03 -1.94214 0
M  V30 3847 C 349.664 -4.32595 -1.16471 0
M  V30 3848 C 351.408 -3.29544 -2.67583 0
M  V30 3849 C 349.315 -5.55341 -2.03347 0
M  V30 3850 H 348.245 -0.638429 -0.401155 0
M  V30 3851 H 350.896 -1.80633 -0.323106 0
M  V30 3852 H 349.278 -2.87579 -2.72239 0
M  V30 3853 H 350.452 -4.58766 -0.432525 0
M  V30 3854 H 348.767 -4.12777 -0.548063 0
M  V30 3855 H 351.364 -4.18444 -3.3288 0
M  V30 3856 H 351.707 -2.47206 -3.34955 0
M  V30 3857 H 352.24 -3.45809 -1.96623 0
M  V30 3858 H 348.979 -6.40268 -1.40491 0
M  V30 3859 H 348.499 -5.33397 -2.74313 0
M  V30 3860 H 350.178 -5.91557 -2.62049 0
M  V30 3861 N 350.31 0.590341 -1.46126 0
M  V30 3862 C 351.721 1.17243 -1.45296 0
M  V30 3863 C 352.072 1.95281 -0.189723 0
M  V30 3864 O 351.197 2.04502 0.707674 0
M  V30 3865 C 351.792 2.13284 -2.6324 0
M  V30 3866 C 350.351 2.66832 -2.65476 0
M  V30 3867 C 349.498 1.42557 -2.3785 0
M  V30 3868 H 352.449 0.378692 -1.54116 0
M  V30 3869 H 352.47 2.96619 -2.38323 0
M  V30 3870 H 351.982 1.56459 -3.55165 0
M  V30 3871 H 350.083 3.27548 -1.77603 0
M  V30 3872 H 350.196 3.10088 -3.65215 0
M  V30 3873 H 348.56 1.72107 -1.87753 0
M  V30 3874 H 349.343 0.875741 -3.31942 0
M  V30 3875 N 351.788 1.33704 0.83433 0
M  V30 3876 C 352.718 1.26967 1.95963 0
M  V30 3877 C 353.699 0.149337 1.69443 0
M  V30 3878 O 354.884 0.339852 1.91203 0
M  V30 3879 C 352.014 1.01275 3.32206 0
M  V30 3880 C 350.968 2.09652 3.73136 0
M  V30 3881 C 350.294 1.69166 5.07235 0
M  V30 3882 C 351.594 3.51372 3.86439 0
M  V30 3883 H 353.288 2.2112 2.01857 0
M  V30 3884 H 350.834 1.06447 0.969793 0
M  V30 3885 H 352.787 0.952106 4.10503 0
M  V30 3886 H 351.511 0.0356203 3.26581 0
M  V30 3887 H 350.17 2.14766 2.97104 0
M  V30 3888 H 349.818 0.701437 4.98085 0
M  V30 3889 H 349.518 2.41694 5.35591 0
M  V30 3890 H 351.042 1.64576 5.88003 0
M  V30 3891 H 352.456 3.48734 4.55036 0
M  V30 3892 H 350.853 4.22425 4.26236 0
M  V30 3893 H 351.923 3.89546 2.88759 0
M  V30 3894 N 353.266 -1.05314 1.17247 0
M  V30 3895 C 354.543 -1.75184 0.87005 0
M  V30 3896 C 354.923 -2.01481 -0.629965 0
M  V30 3897 O 354.271 -1.64988 -1.58086 0
M  V30 3898 C 354.481 -3.04594 1.70363 0
M  V30 3899 C 355.829 -3.78567 1.92281 0
M  V30 3900 O 356.853 -3.14461 1.67311 0
M  V30 3901 O 355.712 -4.93755 2.3424 0
M  V30 3902 H 352.806 -0.761729 0.322021 0
M  V30 3903 H 355.352 -1.11493 1.27935 0
M  V30 3904 H 354.124 -2.81201 2.72106 0
M  V30 3905 H 353.747 -3.76022 1.29202 0
M  V30 3906 N 354.744 -0.972509 -1.24016 0
M  V30 3907 C 355.694 -0.477561 -2.22942 0
M  V30 3908 C 356.678 0.44308 -1.54679 0
M  V30 3909 O 357.87 0.273219 -1.74879 0
M  V30 3910 C 354.999 0.226348 -3.42553 0
M  V30 3911 C 354.085 -0.713403 -4.18057 0
M  V30 3912 N 354.476 -1.8527 -4.70647 0
M  V30 3913 C 352.774 -0.525145 -4.42898 0
M  V30 3914 C 353.475 -2.44089 -5.28011 0
M  V30 3915 N 352.451 -1.72556 -5.15486 0
M  V30 3916 H 356.253 -1.34678 -2.61226 0
M  V30 3917 H 353.767 -0.832196 -1.39457 0
M  V30 3918 H 355.764 0.598184 -4.12586 0
M  V30 3919 H 354.424 1.09195 -3.05788 0
M  V30 3920 H 355.435 -2.2341 -4.67235 0
M  V30 3921 H 352.112 0.296096 -4.16449 0
M  V30 3922 H 353.502 -3.40259 -5.79374 0
M  V30 3923 N 356.222 1.38976 -0.743202 0
M  V30 3924 C 357.47 1.99948 -0.29417 0
M  V30 3925 C 357.791 1.59279 1.12495 0
M  V30 3926 O 357.061 0.844808 1.76748 0
M  V30 3927 H 355.641 0.739473 -0.105774 0
M  V30 3928 H 358.303 1.699 -0.954986 0
M  V30 3929 H 357.399 3.10142 -0.349056 0
M  V30 3930 N 357.7 0.491464 1.49741 0
M  V30 3931 C 358.928 -0.0535151 2.06831 0
M  V30 3932 C 359.343 -1.31683 1.35296 0
M  V30 3933 O 358.7 -1.77402 0.42836 0
M  V30 3934 C 358.751 -0.320835 3.60073 0
M  V30 3935 O 358.472 0.892394 4.28915 0
M  V30 3936 C 359.973 -0.910519 4.33848 0
M  V30 3937 H 357.193 0.0161909 0.670805 0
M  V30 3938 H 359.737 0.68609 1.92647 0
M  V30 3939 H 357.892 -1.0104 3.73991 0
M  V30 3940 H 358.306 0.649401 5.20464 0
M  V30 3941 H 359.78 -1.04721 5.41976 0
M  V30 3942 H 360.257 -1.90589 3.95692 0
M  V30 3943 H 360.863 -0.258712 4.24512 0
M  V30 3944 N 359.178 -1.55987 0.224894 0
M  V30 3945 C 360.108 -2.23426 -0.678457 0
M  V30 3946 C 361.089 -1.20709 -1.19847 0
M  V30 3947 O 362.274 -1.49304 -1.24186 0
M  V30 3948 C 359.404 -2.91676 -1.88527 0
M  V30 3949 C 358.358 -4.00893 -1.49896 0
M  V30 3950 C 357.684 -4.56455 -2.78483 0
M  V30 3951 C 358.984 -5.17769 -0.686461 0
M  V30 3952 H 360.678 -2.99175 -0.116173 0
M  V30 3953 H 358.224 -1.43897 -0.054436 0
M  V30 3954 H 360.177 -3.37547 -2.5227 0
M  V30 3955 H 358.901 -2.1338 -2.47258 0
M  V30 3956 H 357.56 -3.55758 -0.884985 0
M  V30 3957 H 357.208 -3.74886 -3.35365 0
M  V30 3958 H 356.908 -5.30169 -2.53368 0
M  V30 3959 H 358.432 -5.05047 -3.43162 0
M  V30 3960 H 359.846 -5.60001 -1.22767 0
M  V30 3961 H 358.243 -5.97735 -0.532259 0
M  V30 3962 H 359.313 -4.83932 0.306196 0
M  V30 3963 N 360.656 0.0484629 -1.57525 0
M  V30 3964 C 361.586 1.0549 -2.08313 0
M  V30 3965 C 362.567 1.38929 -0.981463 0
M  V30 3966 O 363.752 1.48151 -1.25558 0
M  V30 3967 C 360.882 2.36162 -2.54646 0
M  V30 3968 C 359.836 2.17016 -3.68901 0
M  V30 3969 C 359.162 3.53278 -4.01371 0
M  V30 3970 C 360.462 1.57219 -4.98076 0
M  V30 3971 H 362.156 0.632195 -2.92649 0
M  V30 3972 H 359.702 0.302654 -1.40784 0
M  V30 3973 H 361.655 3.06882 -2.88793 0
M  V30 3974 H 360.379 2.80456 -1.67368 0
M  V30 3975 H 359.038 1.48733 -3.35073 0
M  V30 3976 H 358.686 3.95185 -3.11188 0
M  V30 3977 H 358.386 3.41299 -4.78318 0
M  V30 3978 H 359.91 4.25391 -4.38035 0
M  V30 3979 H 361.324 2.17832 -5.30304 0
M  V30 3980 H 359.721 1.55871 -5.79503 0
M  V30 3981 H 360.791 0.535956 -4.81929 0
M  V30 3982 N 362.134 1.5431 0.320358 0
M  V30 3983 C 363.383 1.7188 1.05546 0
M  V30 3984 C 363.696 0.501143 1.89071 0
M  V30 3985 O 364.902 0.558258 2.65699 0
M  V30 3986 C 363.358 3.04025 1.92605 0
M  V30 3987 C 362.966 4.33207 1.14176 0
M  V30 3988 C 364.71 3.30959 2.65832 0
M  V30 3989 C 362.617 5.56412 2.00399 0
M  V30 3990 H 361.547 0.640547 0.397763 0
M  V30 3991 H 364.198 1.80802 0.313522 0
M  V30 3992 H 362.58 2.89019 2.7071 0
M  V30 3993 H 363.754 4.58989 0.40819 0
M  V30 3994 H 362.069 4.13062 0.526165 0
M  V30 3995 H 364.666 4.20203 3.30656 0
M  V30 3996 H 365.009 2.48979 3.33639 0
M  V30 3997 H 365.542 3.46847 1.94787 0
M  V30 3998 H 362.281 6.41004 1.37094 0
M  V30 3999 H 361.801 5.34844 2.7148 0
M  V30 4000 H 363.48 5.92938 2.58908 0
M  V30 4001 N 363.613 -0.582584 1.46437 0
M  V30 4002 C 364.546 -1.70633 1.51524 0
M  V30 4003 C 365.524 -1.58349 0.369351 0
M  V30 4004 O 366.708 -1.79563 0.573516 0
M  V30 4005 C 363.835 -3.08687 1.39392 0
M  V30 4006 C 362.881 -3.3949 2.58164 0
M  V30 4007 S 363.714 -3.31548 4.20519 0
M  V30 4008 C 364.87 -4.72139 4.10896 0
M  V30 4009 H 365.103 -1.66058 2.46601 0
M  V30 4010 H 362.636 -0.761337 1.34324 0
M  V30 4011 H 364.594 -3.8833 1.33079 0
M  V30 4012 H 363.255 -3.10751 0.457436 0
M  V30 4013 H 362.448 -4.40071 2.45669 0
M  V30 4014 H 362.05 -2.67415 2.61468 0
M  V30 4015 H 364.342 -5.62527 3.77584 0
M  V30 4016 H 365.285 -4.89692 5.11476 0
M  V30 4017 H 365.693 -4.48995 3.42146 0
M  V30 4018 N 365.091 -1.34144 -0.827227 0
M  V30 4019 C 366.001 -1.27428 -1.96975 0
M  V30 4020 C 367.017 -0.182728 -1.73038 0
M  V30 4021 O 368.193 -0.408426 -1.97215 0
M  V30 4022 C 365.258 -1.02526 -3.31194 0
M  V30 4023 C 364.319 -2.20796 -3.68168 0
M  V30 4024 C 363.552 -1.97073 -4.95982 0
M  V30 4025 O 363.775 -0.926822 -5.6282 0
M  V30 4026 O 362.709 -2.83912 -5.30733 0
M  V30 4027 H 366.535 -2.23537 -2.05584 0
M  V30 4028 H 364.12 -1.14307 -0.961989 0
M  V30 4029 H 366.002 -0.904026 -4.11589 0
M  V30 4030 H 364.677 -0.0945389 -3.23562 0
M  V30 4031 H 363.584 -2.38477 -2.88235 0
M  V30 4032 H 364.917 -3.12243 -3.8048 0
M  V30 4033 N 366.569 1.04691 -1.17803 0
M  V30 4034 C 367.817 1.7743 -0.967617 0
M  V30 4035 C 368.138 1.88359 0.504574 0
M  V30 4036 O 367.408 1.40402 1.36617 0
M  V30 4037 H 365.988 0.657242 -0.355024 0
M  V30 4038 H 368.65 1.2638 -1.48371 0
M  V30 4039 H 367.746 2.78924 -1.40027 0
M  V30 4040 N 368.047 0.979072 1.23499 0
M  V30 4041 C 369.01 0.523244 2.23147 0
M  V30 4042 C 370.01 -0.386406 1.56088 0
M  V30 4043 O 371.2 -0.180283 1.73265 0
M  V30 4044 C 368.332 -0.240739 3.40049 0
M  V30 4045 H 369.525 1.40432 2.64989 0
M  V30 4046 H 367.078 0.764824 1.36309 0
M  V30 4047 H 367.813 -1.13841 3.03662 0
M  V30 4048 H 367.598 0.412207 3.89927 0
M  V30 4049 H 369.088 -0.548297 4.13985 0
M  V30 4050 N 369.525 -1.3858 0.750561 0
M  V30 4051 C 370.753 -2.04471 0.316098 0
M  V30 4052 C 371.168 -1.56606 -1.05452 0
M  V30 4053 O 370.525 -0.737784 -1.66922 0
M  V30 4054 C 370.576 -3.60025 0.326275 0
M  V30 4055 O 370.297 -4.06133 1.6428 0
M  V30 4056 C 371.798 -4.43131 -0.122429 0
M  V30 4057 H 369.018 -0.65717 0.135528 0
M  V30 4058 H 371.562 -1.77329 1.01857 0
M  V30 4059 H 369.717 -3.86014 -0.327431 0
M  V30 4060 H 370.131 -5.00547 1.56693 0
M  V30 4061 H 371.605 -5.51963 -0.0641473 0
M  V30 4062 H 372.082 -4.23333 -1.16988 0
M  V30 4063 H 372.688 -4.22323 0.50229 0
M  V30 4064 N 371.003 -0.499398 -1.49478 0
M  V30 4065 C 371.935 0.316575 -2.27003 0
M  V30 4066 C 372.948 0.932047 -1.33479 0
M  V30 4067 O 374.137 0.815658 -1.58774 0
M  V30 4068 C 371.237 1.46055 -3.05812 0
M  V30 4069 C 370.41 0.952679 -4.26899 0
M  V30 4070 C 369.469 1.97407 -4.87767 0
M  V30 4071 O 368.495 1.54326 -5.4788 0
M  V30 4072 N 369.697 3.30436 -4.77276 0
M  V30 4073 H 372.462 -0.348168 -2.97671 0
M  V30 4074 H 370.023 -0.33185 -1.58463 0
M  V30 4075 H 372.015 2.14135 -3.43407 0
M  V30 4076 H 370.585 2.02948 -2.37762 0
M  V30 4077 H 369.805 0.0968248 -3.94081 0
M  V30 4078 H 371.093 0.59174 -5.05347 0
M  V30 4079 H 370.491 3.68126 -4.29534 0
M  V30 4080 H 369.048 3.94235 -5.19059 0
M  V30 4081 N 372.481 1.55866 -0.233164 0
M  V30 4082 C 373.444 2.1953 0.658715 0
M  V30 4083 C 374.444 1.16053 1.11303 0
M  V30 4084 O 375.634 1.41218 1.01996 0
M  V30 4085 C 372.766 2.82791 1.90373 0
M  V30 4086 H 373.959 2.99721 0.10347 0
M  V30 4087 H 371.512 1.56291 0.0164245 0
M  V30 4088 H 372.247 2.06501 2.50056 0
M  V30 4089 H 372.032 3.58578 1.58632 0
M  V30 4090 H 373.522 3.31556 2.53891 0
M  V30 4091 N 373.959 -0.0401083 1.57549 0
M  V30 4092 C 375.236 -0.767917 1.79896 0
M  V30 4093 C 375.616 -1.9416 0.82856 0
M  V30 4094 O 374.964 -2.2812 -0.131671 0
M  V30 4095 C 375.174 -1.2113 3.27305 0
M  V30 4096 C 376.522 -1.63175 3.91994 0
M  V30 4097 O 377.546 -1.30616 3.31388 0
M  V30 4098 O 376.405 -2.23565 4.98679 0
M  V30 4099 H 373.499 -0.370441 0.739393 0
M  V30 4100 H 376.045 -0.017737 1.69691 0
M  V30 4101 H 374.817 -0.372937 3.89519 0
M  V30 4102 H 374.44 -2.02183 3.42356 0
M  V30 4103 N 375.437 -1.54477 -0.31217 0
M  V30 4104 C 376.683 -1.74417 -1.04644 0
M  V30 4105 C 377.038 -0.517641 -1.85306 0
M  V30 4106 O 376.331 0.489973 -1.85229 0
M  V30 4107 C 376.525 -2.967 -1.99258 0
M  V30 4108 C 376.354 -4.31128 -1.27901 0
M  V30 4109 C 375.124 -4.95087 -1.01079 0
M  V30 4110 C 377.322 -5.09662 -0.689119 0
M  V30 4111 N 375.304 -6.13322 -0.266323 0
M  V30 4112 C 376.675 -6.19952 -0.0768523 0
M  V30 4113 C 378.73 -4.94355 -0.593061 0
M  V30 4114 C 377.433 -7.16604 0.622165 0
M  V30 4115 C 379.459 -5.91328 0.0922792 0
M  V30 4116 C 378.821 -7.00978 0.693443 0
M  V30 4117 H 374.92 -0.69094 -0.366231 0
M  V30 4118 H 377.504 -1.91946 -0.326319 0
M  V30 4119 H 375.675 -2.80616 -2.68532 0
M  V30 4120 H 377.407 -3.05216 -2.65755 0
M  V30 4121 H 374.162 -4.55235 -1.30607 0
M  V30 4122 H 374.586 -6.76937 0.0920973 0
M  V30 4123 H 379.228 -4.09719 -1.04355 0
M  V30 4124 H 376.946 -8.0079 1.08445 0
M  V30 4125 H 380.532 -5.81562 0.166396 0
M  V30 4126 H 379.412 -7.74725 1.21533 0
M  V30 4127 N 376.915 0.57481 -1.46744 0
M  V30 4128 C 377.847 1.69804 -1.53946 0
M  V30 4129 C 378.86 1.57098 -0.427106 0
M  V30 4130 O 380.049 1.64378 -0.695863 0
M  V30 4131 C 377.149 3.08125 -1.4111 0
M  V30 4132 C 376.322 3.46757 -2.66605 0
M  V30 4133 C 375.381 4.6417 -2.47855 0
M  V30 4134 O 374.407 4.69634 -3.21609 0
M  V30 4135 N 375.609 5.59553 -1.54534 0
M  V30 4136 H 378.374 1.64077 -2.50796 0
M  V30 4137 H 375.935 0.761 -1.429 0
M  V30 4138 H 377.927 3.84478 -1.26328 0
M  V30 4139 H 376.497 3.08175 -0.524109 0
M  V30 4140 H 375.717 2.6003 -2.96274 0
M  V30 4141 H 377.005 3.69337 -3.49954 0
M  V30 4142 H 376.403 5.57881 -0.937304 0
M  V30 4143 H 374.96 6.35304 -1.45711 0
M  V30 4144 N 378.394 1.34581 0.820102 0
M  V30 4145 C 379.344 1.22943 1.92013 0
M  V30 4146 C 380.328 0.127802 1.60392 0
M  V30 4147 O 381.52 0.357737 1.73347 0
M  V30 4148 C 378.649 0.989938 3.28717 0
M  V30 4149 C 377.735 2.13486 3.66449 0
M  V30 4150 N 378.126 3.38625 3.75722 0
M  V30 4151 C 376.424 2.04573 3.96315 0
M  V30 4152 C 377.125 4.13832 4.08801 0
M  V30 4153 N 376.101 3.42451 4.22171 0
M  V30 4154 H 379.903 2.17771 1.97365 0
M  V30 4155 H 377.417 1.2686 1.01392 0
M  V30 4156 H 379.414 0.887462 4.07345 0
M  V30 4157 H 378.074 0.0503691 3.24661 0
M  V30 4158 H 379.085 3.73143 3.59144 0
M  V30 4159 H 375.762 1.1839 4.00362 0
M  V30 4160 H 377.152 5.21909 4.23156 0
M  V30 4161 N 379.872 -1.04064 1.18357 0
M  V30 4162 C 381.288 -1.2947 0.933258 0
M  V30 4163 C 381.488 -1.97466 -0.401169 0
M  V30 4164 O 380.544 -2.25528 -1.13549 0
M  V30 4165 C 381.857 -2.15337 2.09882 0
M  V30 4166 C 383.405 -2.28683 2.13712 0
M  V30 4167 C 383.88 -3.17917 3.29686 0
M  V30 4168 N 385.371 -3.25504 3.29547 0
M  V30 4169 C 386.106 -3.94706 4.15926 0
M  V30 4170 N 385.602 -4.66239 5.12439 0
M  V30 4171 N 387.395 -3.90986 4.0384 0
M  V30 4172 H 379.546 -0.583359 2.04232 0
M  V30 4173 H 381.809 -0.319921 0.892387 0
M  V30 4174 H 381.515 -1.72682 3.06389 0
M  V30 4175 H 381.389 -3.16015 2.05947 0
M  V30 4176 H 383.776 -2.70575 1.17784 0
M  V30 4177 H 383.857 -1.27596 2.21705 0
M  V30 4178 H 383.501 -2.76736 4.25887 0
M  V30 4179 H 383.431 -4.19036 3.1893 0
M  V30 4180 H 385.922 -2.74547 2.59677 0
M  V30 4181 H 386.235 -5.16638 5.74722 0
M  V30 4182 H 384.58 -4.65143 5.16398 0
M  V30 4183 H 387.771 -3.34234 3.27727 0
M  V30 4184 H 387.944 -4.44646 4.71375 0
M  V30 4185 N 381.35 -0.985608 -1.22978 0
M  V30 4186 C 382.596 -0.65836 -1.91816 0
M  V30 4187 C 382.929 0.806692 -1.76653 0
M  V30 4188 O 382.204 1.58252 -1.13078 0
M  V30 4189 C 382.487 -1.056 -3.44268 0
M  V30 4190 C 382.34 -2.57906 -3.68516 0
M  V30 4191 C 383.659 -0.603781 -4.35939 0
M  V30 4192 H 380.778 -0.24065 -0.696604 0
M  V30 4193 H 383.42 -1.22783 -1.44998 0
M  V30 4194 H 381.57 -0.571445 -3.84274 0
M  V30 4195 H 383.242 -3.13976 -3.3796 0
M  V30 4196 H 381.485 -3.00305 -3.13048 0
M  V30 4197 H 382.156 -2.80779 -4.75255 0
M  V30 4198 H 384.632 -1.01987 -4.03408 0
M  V30 4199 H 383.508 -0.910383 -5.41298 0
M  V30 4200 H 383.769 0.495761 -4.39312 0
M  V30 4201 N 382.828 1.3818 -0.7579 0
M  V30 4202 C 384.239 1.82726 -0.383134 0
M  V30 4203 C 384.59 1.63214 1.08884 0
M  V30 4204 O 383.715 1.13566 1.84205 0
M  V30 4205 C 384.31 3.31728 -0.688631 0
M  V30 4206 C 382.869 3.74606 -0.367091 0
M  V30 4207 C 382.016 2.60896 -0.939599 0
M  V30 4208 H 384.967 1.26847 -0.953699 0
M  V30 4209 H 384.988 3.80487 0.0316492 0
M  V30 4210 H 384.5 3.45898 -1.76001 0
M  V30 4211 H 382.601 3.66013 0.697532 0
M  V30 4212 H 382.714 4.71215 -0.865658 0
M  V30 4213 H 381.078 2.52075 -0.3647 0
M  V30 4214 H 381.861 2.77864 -2.0161 0
M  V30 4215 N 384.306 0.507319 1.49211 0
M  V30 4216 C 385.253 -0.267728 2.29242 0
M  V30 4217 C 386.223 -0.954609 1.35928 0
M  V30 4218 O 387.408 -0.960046 1.64887 0
M  V30 4219 C 384.548 -1.32243 3.18756 0
M  V30 4220 C 383.661 -0.64669 4.27132 0
M  V30 4221 C 382.796 -1.68238 5.03855 0
M  V30 4222 C 381.835 -0.98885 6.0406 0
M  V30 4223 N 380.972 -1.96903 6.73924 0
M  V30 4224 H 385.812 0.420968 2.95012 0
M  V30 4225 H 383.349 0.219443 1.45454 0
M  V30 4226 H 385.307 -1.94599 3.69036 0
M  V30 4227 H 383.937 -1.97981 2.54958 0
M  V30 4228 H 382.989 0.0902926 3.80293 0
M  V30 4229 H 384.301 -0.101058 4.98698 0
M  V30 4230 H 383.455 -2.38081 5.58034 0
M  V30 4231 H 382.194 -2.26187 4.32077 0
M  V30 4232 H 381.199 -0.276222 5.49106 0
M  V30 4233 H 382.424 -0.415767 6.77826 0
M  V30 4234 H 380.37 -2.53803 6.04913 0
M  V30 4235 H 380.287 -1.47423 7.41487 0
M  V30 4236 H 381.555 -2.66015 7.32705 0
M  V30 4237 N 385.784 -1.5574 0.241426 0
M  V30 4238 C 386.694 -2.2479 -0.671305 0
M  V30 4239 C 387.71 -1.26217 -1.19772 0
M  V30 4240 O 388.886 -1.59079 -1.23514 0
M  V30 4241 C 385.951 -2.92966 -1.85396 0
M  V30 4242 C 385.012 -4.06935 -1.36756 0
M  V30 4243 C 384.245 -4.71851 -2.49384 0
M  V30 4244 O 384.468 -4.35823 -3.67987 0
M  V30 4245 O 383.402 -5.60467 -2.19454 0
M  V30 4246 H 387.228 -3.0349 -0.112966 0
M  V30 4247 H 384.813 -1.49397 0.0101513 0
M  V30 4248 H 386.695 -3.35927 -2.54423 0
M  V30 4249 H 385.37 -2.17211 -2.40002 0
M  V30 4250 H 384.277 -3.68503 -0.644726 0
M  V30 4251 H 385.61 -4.84492 -0.867647 0
M  V30 4252 N 387.262 0.0317525 -1.57568 0
M  V30 4253 C 388.492 0.733884 -1.93126 0
M  V30 4254 C 388.9 1.69563 -0.839352 0
M  V30 4255 O 388.243 1.82681 0.193175 0
M  V30 4256 C 388.305 1.54798 -3.24465 0
M  V30 4257 C 387.969 0.751304 -4.50782 0
M  V30 4258 C 388.966 0.0527632 -5.19873 0
M  V30 4259 C 386.651 0.706639 -4.97305 0
M  V30 4260 C 388.645 -0.679774 -6.33765 0
M  V30 4261 C 386.332 -0.0296449 -6.11093 0
M  V30 4262 C 387.33 -0.721614 -6.79177 0
M  V30 4263 O 387.018 -1.44595 -7.90789 0
M  V30 4264 H 386.75 0.211459 -0.642076 0
M  V30 4265 H 389.304 -0.00585615 -2.05399 0
M  V30 4266 H 387.534 2.33147 -3.08512 0
M  V30 4267 H 389.223 2.13247 -3.4537 0
M  V30 4268 H 389.989 0.0783188 -4.84937 0
M  V30 4269 H 385.868 1.23474 -4.44157 0
M  V30 4270 H 389.412 -1.22042 -6.86842 0
M  V30 4271 H 385.309 -0.0571331 -6.45475 0
M  V30 4272 H 386.077 -1.35935 -8.07133 0
M  V30 4273 N 388.74 1.54641 0.303973 0
M  V30 4274 C 389.69 1.8177 1.37636 0
M  V30 4275 C 390.674 0.674697 1.46071 0
M  V30 4276 O 391.866 0.935251 1.50273 0
M  V30 4277 C 388.995 2.06584 2.74186 0
M  V30 4278 C 388.081 3.2706 2.69986 0
M  V30 4279 N 388.472 4.47682 2.35402 0
M  V30 4280 C 386.77 3.29028 3.01092 0
M  V30 4281 C 387.471 5.29689 2.40426 0
M  V30 4282 N 386.447 4.67339 2.7766 0
M  V30 4283 H 390.249 2.72596 1.09857 0
M  V30 4284 H 387.763 1.541 0.51254 0
M  V30 4285 H 389.76 2.24166 3.51504 0
M  V30 4286 H 388.42 1.17024 3.02879 0
M  V30 4287 H 389.431 4.74336 2.07908 0
M  V30 4288 H 386.108 2.49565 3.34699 0
M  V30 4289 H 387.498 6.3606 2.16512 0
M  V30 4290 N 390.218 -0.567019 1.47046 0
M  V30 4291 C 391.443 -1.3551 1.57009 0
M  V30 4292 C 391.868 -1.86841 0.217259 0
M  V30 4293 O 391.226 -1.62435 -0.805268 0
M  V30 4294 C 391.274 -2.50777 2.5912 0
M  V30 4295 O 390.378 -3.52706 2.13711 0
M  V30 4296 H 389.719 -0.402919 0.52778 0
M  V30 4297 H 392.249 -0.686241 1.92748 0
M  V30 4298 H 392.259 -2.97481 2.79229 0
M  V30 4299 H 390.934 -2.12771 3.57353 0
M  V30 4300 H 389.511 -3.12374 2.03659 0
M  V30 4301 N 391.696 -1.35014 -0.812953 0
M  V30 4302 C 393.112 -1.14914 -1.10757 0
M  V30 4303 C 393.312 0.0426818 -2.01455 0
M  V30 4304 O 392.368 0.715212 -2.42159 0
M  V30 4305 C 393.681 -2.44911 -1.74468 0
M  V30 4306 C 395.229 -2.5106 -1.86917 0
M  V30 4307 C 395.704 -3.81085 -2.54044 0
M  V30 4308 N 397.195 -3.82301 -2.61535 0
M  V30 4309 C 397.93 -4.79634 -3.14227 0
M  V30 4310 N 397.426 -5.87353 -3.67407 0
M  V30 4311 N 399.219 -4.67078 -3.12721 0
M  V30 4312 H 391.37 -2.1136 -0.20989 0
M  V30 4313 H 393.633 -0.935128 -0.155692 0
M  V30 4314 H 393.339 -3.32267 -1.15289 0
M  V30 4315 H 393.213 -2.58989 -2.74234 0
M  V30 4316 H 395.6 -1.64137 -2.45241 0
M  V30 4317 H 395.681 -2.40901 -0.860242 0
M  V30 4318 H 395.325 -4.68402 -1.96372 0
M  V30 4319 H 395.255 -3.88529 -3.55461 0
M  V30 4320 H 397.746 -3.04465 -2.23851 0
M  V30 4321 H 398.059 -6.57624 -4.05894 0
M  V30 4322 H 396.404 -5.91054 -3.65623 0
M  V30 4323 H 399.595 -3.82067 -2.70449 0
M  V30 4324 H 399.768 -5.43098 -3.53481 0
M  V30 4325 N 393.175 1.03435 -1.18907 0
M  V30 4326 C 394.085 2.15075 -0.937015 0
M  V30 4327 C 395.101 1.73706 0.101085 0
M  V30 4328 O 396.277 2.01232 -0.0822948 0
M  V30 4329 C 393.342 3.43458 -0.473057 0
M  V30 4330 C 392.403 3.99172 -1.57989 0
M  V30 4331 C 391.636 5.21427 -1.13797 0
M  V30 4332 O 391.859 5.704 0.000725941 0
M  V30 4333 O 390.793 5.69837 -1.9383 0
M  V30 4334 H 394.619 2.39198 -1.87131 0
M  V30 4335 H 392.204 1.13506 -0.971427 0
M  V30 4336 H 394.086 4.20811 -0.222702 0
M  V30 4337 H 392.761 3.20793 0.432869 0
M  V30 4338 H 391.668 3.23178 -1.88433 0
M  V30 4339 H 393.001 4.2619 -2.46217 0
M  V30 4340 N 394.653 0.992116 1.22453 0
M  V30 4341 C 396.064 0.702776 1.72968 0
M  V30 4342 C 396.415 -0.780399 1.80012 0
M  V30 4343 O 395.54 -1.61007 1.44589 0
M  V30 4344 C 396.135 1.26903 3.14135 0
M  V30 4345 C 394.694 1.02909 3.62059 0
M  V30 4346 C 393.841 1.38969 2.39964 0
M  V30 4347 H 396.792 1.16457 1.07812 0
M  V30 4348 H 396.813 0.647223 3.74955 0
M  V30 4349 H 396.325 2.34851 3.08977 0
M  V30 4350 H 394.426 -0.0337979 3.72585 0
M  V30 4351 H 394.539 1.69191 4.48231 0
M  V30 4352 H 392.903 0.808279 2.41535 0
M  V30 4353 H 393.686 2.4792 2.37467 0
M  V30 4354 N 396.131 -1.37776 0.765217 0
M  V30 4355 C 397.547 -1.53297 0.444108 0
M  V30 4356 C 397.747 -1.72515 -1.04119 0
M  V30 4357 O 396.803 -1.74278 -1.82711 0
M  V30 4358 C 398.116 -2.73328 1.25349 0
M  V30 4359 C 399.664 -2.87185 1.24473 0
M  V30 4360 C 400.139 -4.10191 2.03733 0
M  V30 4361 N 401.63 -4.17291 2.01053 0
M  V30 4362 C 402.365 -5.11488 2.59166 0
M  V30 4363 N 401.861 -6.11285 3.26041 0
M  V30 4364 N 403.654 -5.03924 2.49032 0
M  V30 4365 H 395.805 -1.23552 1.72768 0
M  V30 4366 H 398.068 -0.601103 0.733062 0
M  V30 4367 H 397.774 -2.6557 2.30577 0
M  V30 4368 H 397.648 -3.66834 0.87823 0
M  V30 4369 H 400.035 -2.94418 0.20047 0
M  V30 4370 H 400.116 -1.94657 1.65959 0
M  V30 4371 H 399.76 -4.0372 3.08176 0
M  V30 4372 H 399.69 -5.01821 1.59633 0
M  V30 4373 H 402.181 -3.45825 1.5236 0
M  V30 4374 H 402.494 -6.79678 3.67774 0
M  V30 4375 H 400.839 -6.11583 3.30138 0
M  V30 4376 H 404.03 -4.24902 1.96407 0
M  V30 4377 H 404.203 -5.77152 2.94617 0
M  V30 4378 N 397.609 -0.515225 -1.4894 0
M  V30 4379 C 398.855 0.0242508 -2.02785 0
M  V30 4380 C 399.188 1.35323 -1.39289 0
M  V30 4381 O 398.463 1.87041 -0.533469 0
M  V30 4382 C 398.746 0.16184 -3.59736 0
M  V30 4383 C 398.599 -1.19127 -4.33738 0
M  V30 4384 C 399.918 0.895719 -4.30888 0
M  V30 4385 H 397.037 0.00733914 -0.736963 0
M  V30 4386 H 399.679 -0.669395 -1.77818 0
M  V30 4387 H 397.829 0.752624 -3.8114 0
M  V30 4388 H 399.501 -1.82202 -4.23792 0
M  V30 4389 H 397.744 -1.77695 -3.95736 0
M  V30 4390 H 398.415 -1.04815 -5.41957 0
M  V30 4391 H 400.891 0.394528 -4.14225 0
M  V30 4392 H 399.767 0.960859 -5.40425 0
M  V30 4393 H 400.028 1.9427 -3.97129 0
M  V30 4394 N 399.087 1.5561 -0.249682 0
M  V30 4395 C 400.035 2.22894 0.664906 0
M  V30 4396 C 401.029 1.21743 1.17792 0
M  V30 4397 O 402.235 1.39748 1.13449 0
M  V30 4398 H 398.61 0.715022 0.232912 0
M  V30 4399 H 400.581 2.98307 0.0742998 0
M  V30 4400 C 399.33 2.94424 1.84959 0
M  V30 4401 H 398.653 3.72031 1.46399 0
M  V30 4402 H 400.093 3.44862 2.4667 0
M  V30 4403 C 398.552 1.98454 2.72245 0
M  V30 4404 O 399.082 1.51939 3.71857 0
M  V30 4405 N 397.288 1.65496 2.38871 0
M  V30 4406 H 396.835 2.03517 1.57919 0
M  V30 4407 H 396.793 1.0155 2.97548 0
M  V30 4408 N 400.565 -0.0233959 1.57583 0
M  V30 4409 C 401.495 -1.02162 2.09965 0
M  V30 4410 C 402.476 -1.3735 1.00344 0
M  V30 4411 O 403.661 -1.46135 1.27899 0
M  V30 4412 C 400.791 -2.32081 2.58371 0
M  V30 4413 C 399.745 -2.1112 3.72307 0
M  V30 4414 C 399.071 -3.46848 4.06941 0
M  V30 4415 C 400.371 -1.49276 5.00514 0
M  V30 4416 H 402.065 -0.585557 2.93618 0
M  V30 4417 H 399.611 -0.280218 1.41247 0
M  V30 4418 H 401.564 -3.02249 2.93639 0
M  V30 4419 H 400.288 -2.77758 1.71808 0
M  V30 4420 H 398.947 -1.43384 3.37397 0
M  V30 4421 H 398.595 -3.90184 3.17436 0
M  V30 4422 H 398.295 -3.33646 4.83688 0
M  V30 4423 H 399.819 -4.18369 4.44747 0
M  V30 4424 H 401.233 -2.09368 5.33702 0
M  V30 4425 H 399.63 -1.46632 5.8191 0
M  V30 4426 H 400.7 -0.459217 4.82721 0
M  V30 4427 N 402.043 -1.548 -0.295768 0
M  V30 4428 C 403.271 -1.78327 -1.04914 0
M  V30 4429 C 403.686 -0.545316 -1.80753 0
M  V30 4430 O 403.043 0.485013 -1.75937 0
M  V30 4431 C 403.094 -2.99418 -2.02561 0
M  V30 4432 O 402.815 -4.18431 -1.29798 0
M  V30 4433 C 404.316 -3.35375 -2.89895 0
M  V30 4434 H 401.536 -0.594618 -0.310918 0
M  V30 4435 H 404.08 -2.01763 -0.333454 0
M  V30 4436 H 402.235 -2.78175 -2.69624 0
M  V30 4437 H 402.649 -4.86736 -1.95419 0
M  V30 4438 H 404.123 -4.23332 -3.54251 0
M  V30 4439 H 404.6 -2.53761 -3.58472 0
M  V30 4440 H 405.206 -3.58796 -2.28355 0
M  V30 4441 N 403.521 0.559213 -1.47345 0
M  V30 4442 C 404.768 1.31648 -1.53867 0
M  V30 4443 C 405.096 1.93468 -0.200104 0
M  V30 4444 O 404.351 1.78295 0.806799 0
M  V30 4445 C 404.65 2.44853 -2.6035 0
M  V30 4446 C 404.316 2.00876 -4.03683 0
M  V30 4447 C 402.978 1.88599 -4.42701 0
M  V30 4448 C 405.33 1.67279 -4.93626 0
M  V30 4449 C 402.658 1.41017 -5.69501 0
M  V30 4450 C 405.01 1.21169 -6.20887 0
M  V30 4451 C 403.674 1.07487 -6.58789 0
M  V30 4452 H 402.944 0.481734 -0.56304 0
M  V30 4453 H 405.591 0.627301 -1.80934 0
M  V30 4454 H 403.896 3.19318 -2.27032 0
M  V30 4455 H 405.593 3.03039 -2.62619 0
M  V30 4456 H 402.183 2.11374 -3.72853 0
M  V30 4457 H 406.367 1.75638 -4.64182 0
M  V30 4458 H 401.623 1.29086 -5.97618 0
M  V30 4459 H 405.797 0.942345 -6.89995 0
M  V30 4460 H 403.424 0.703946 -7.56934 0
M  V30 4461 N 404.999 1.35443 0.805782 0
M  V30 4462 C 406.415 1.15499 1.10146 0
M  V30 4463 C 406.615 -0.0319975 2.01475 0
M  V30 4464 O 405.671 -0.70236 2.42535 0
M  V30 4465 C 406.984 2.45833 1.73166 0
M  V30 4466 C 408.532 2.52047 1.85583 0
M  V30 4467 C 409.007 3.82427 2.52019 0
M  V30 4468 N 410.498 3.83682 2.59504 0
M  V30 4469 C 411.233 4.81294 3.11679 0
M  V30 4470 N 410.729 5.89294 3.64287 0
M  V30 4471 N 412.522 4.6873 3.1024 0
M  V30 4472 H 404.673 2.11469 0.198678 0
M  V30 4473 H 406.936 0.93594 0.150731 0
M  V30 4474 H 406.642 3.32874 1.13526 0
M  V30 4475 H 406.516 2.6044 2.72857 0
M  V30 4476 H 408.903 1.65435 2.44367 0
M  V30 4477 H 408.984 2.41354 0.847455 0
M  V30 4478 H 408.628 4.69437 1.93885 0
M  V30 4479 H 408.558 3.90409 3.53395 0
M  V30 4480 H 411.049 3.05648 2.22234 0
M  V30 4481 H 411.362 6.59768 4.02401 0
M  V30 4482 H 409.707 5.92985 3.62483 0
M  V30 4483 H 412.898 3.83496 2.68419 0
M  V30 4484 H 413.071 5.44965 3.50596 0
M  V30 4485 N 406.477 -1.02803 1.19454 0
M  V30 4486 C 407.705 -1.79841 1.02297 0
M  V30 4487 C 408.12 -1.83879 -0.428259 0
M  V30 4488 O 407.477 -1.28345 -1.29745 0
M  V30 4489 C 407.528 -3.24852 1.58598 0
M  V30 4490 O 407.249 -3.21097 2.98041 0
M  V30 4491 C 408.75 -4.18485 1.46236 0
M  V30 4492 H 405.97 -0.565936 0.360496 0
M  V30 4493 H 408.514 -1.2948 1.58288 0
M  V30 4494 H 406.669 -3.72401 1.06753 0
M  V30 4495 H 407.083 -4.12033 3.24545 0
M  V30 4496 H 408.557 -5.18121 1.90407 0
M  V30 4497 H 409.034 -4.37254 0.41301 0
M  V30 4498 H 409.64 -3.76811 1.97215 0
M  V30 4499 N 407.956 -0.998596 -1.21925 0
M  V30 4500 C 409.202 -0.678667 -1.91107 0
M  V30 4501 C 409.535 0.78791 -1.77498 0
M  V30 4502 O 408.81 1.57043 -1.1475 0
M  V30 4503 C 409.093 -1.09245 -3.43129 0
M  V30 4504 C 408.946 -2.61801 -3.6576 0
M  V30 4505 C 410.265 -0.649984 -4.35274 0
M  V30 4506 H 407.384 -0.248025 -0.694012 0
M  V30 4507 H 410.026 -1.24314 -1.43688 0
M  V30 4508 H 408.176 -0.612171 -3.83647 0
M  V30 4509 H 409.848 -3.17543 -3.34611 0
M  V30 4510 H 408.091 -3.03609 -3.09845 0
M  V30 4511 H 408.762 -2.85804 -4.7225 0
M  V30 4512 H 411.238 -1.0626 -4.02303 0
M  V30 4513 H 410.114 -0.967743 -5.40302 0
M  V30 4514 H 410.375 0.449139 -4.39813 0
M  V30 4515 N 409.434 1.37368 -0.772513 0
M  V30 4516 C 410.664 2.03647 -0.348082 0
M  V30 4517 C 411.072 1.58392 1.03482 0
M  V30 4518 O 410.415 0.760921 1.672 0
M  V30 4519 C 410.477 3.58131 -0.313404 0
M  V30 4520 C 410.141 4.2652 -1.64102 0
M  V30 4521 C 411.138 4.50587 -2.5936 0
M  V30 4522 C 408.823 4.64335 -1.91567 0
M  V30 4523 C 410.817 5.11526 -3.80289 0
M  V30 4524 C 408.504 5.24996 -3.12766 0
M  V30 4525 C 409.502 5.48529 -4.06946 0
M  V30 4526 O 409.19 6.07921 -5.26011 0
M  V30 4527 H 408.922 0.660538 -0.143753 0
M  V30 4528 H 411.476 1.76669 -1.04772 0
M  V30 4529 H 409.706 3.84159 0.442617 0
M  V30 4530 H 411.395 4.05813 0.0840613 0
M  V30 4531 H 412.161 4.21784 -2.39423 0
M  V30 4532 H 408.04 4.45353 -1.19088 0
M  V30 4533 H 411.584 5.29811 -4.53813 0
M  V30 4534 H 407.481 5.53223 -3.32588 0
M  V30 4535 H 408.249 6.26398 -5.26847 0
M  V30 4536 N 410.912 0.523116 1.48665 0
M  V30 4537 C 412.323 0.0808997 1.86525 0
M  V30 4538 C 412.674 -1.33975 1.43336 0
M  V30 4539 O 411.799 -2.00221 0.821009 0
M  V30 4540 C 412.394 0.140037 3.3851 0
M  V30 4541 C 410.953 -0.246948 3.75589 0
M  V30 4542 C 410.1 0.502845 2.72703 0
M  V30 4543 H 413.051 0.734736 1.40667 0
M  V30 4544 H 413.072 -0.649945 3.74908 0
M  V30 4545 H 412.584 1.17412 3.69914 0
M  V30 4546 H 410.685 -1.28343 3.49798 0
M  V30 4547 H 410.798 0.0878859 4.79019 0
M  V30 4548 H 409.162 -0.0500581 2.54651 0
M  V30 4549 H 409.945 1.53743 3.0695 0
M  V30 4550 N 412.39 -1.55475 0.257931 0
M  V30 4551 C 413.667 -1.91155 -0.414629 0
M  V30 4552 C 414.047 -1.18008 -1.75035 0
M  V30 4553 O 413.395 -0.301193 -2.26506 0
M  V30 4554 C 413.605 -3.44283 -0.571859 0
M  V30 4555 C 414.953 -4.15744 -0.862678 0
M  V30 4556 O 415.977 -3.50083 -0.657314 0
M  V30 4557 O 414.836 -5.31909 -1.2544 0
M  V30 4558 H 411.93 -0.796016 -0.22425 0
M  V30 4559 H 414.476 -1.66976 0.302814 0
M  V30 4560 H 413.248 -3.89558 0.368844 0
M  V30 4561 H 412.871 -3.7436 -1.33943 0
M  V30 4562 N 413.868 0.0150385 -1.57593 0
M  V30 4563 C 415.279 0.559832 -1.78109 0
M  V30 4564 C 415.63 1.74814 -0.890756 0
M  V30 4565 O 414.755 2.16216 -0.0892482 0
M  V30 4566 C 415.35 1.02238 -3.23006 0
M  V30 4567 C 413.909 1.51258 -3.44671 0
M  V30 4568 C 413.056 0.456955 -2.73509 0
M  V30 4569 H 416.007 -0.211169 -1.57289 0
M  V30 4570 H 416.028 1.88912 -3.30292 0
M  V30 4571 H 415.54 0.157302 -3.87781 0
M  V30 4572 H 413.641 2.39905 -2.8509 0
M  V30 4573 H 413.754 1.55042 -4.5332 0
M  V30 4574 H 412.118 0.915196 -2.37689 0
M  V30 4575 H 412.901 -0.398896 -3.40975 0
M  V30 4576 N 415.346 1.54954 0.287554 0
M  V30 4577 C 416.762 1.46469 0.633964 0
M  V30 4578 C 416.962 0.666865 1.90145 0
M  V30 4579 O 416.018 0.179906 2.51858 0
M  V30 4580 C 417.331 2.90556 0.774454 0
M  V30 4581 C 418.879 3.00681 0.869462 0
M  V30 4582 C 419.354 4.45993 1.04184 0
M  V30 4583 N 420.845 4.4976 1.10772 0
M  V30 4584 C 421.58 5.59393 1.25964 0
M  V30 4585 N 421.076 6.78923 1.37968 0
M  V30 4586 N 422.869 5.47107 1.28959 0
M  V30 4587 H 415.02 2.05288 -0.545041 0
M  V30 4588 H 417.283 0.930305 -0.182308 0
M  V30 4589 H 416.989 3.51594 -0.086207 0
M  V30 4590 H 416.863 3.38743 1.6593 0
M  V30 4591 H 419.25 2.39749 1.7206 0
M  V30 4592 H 419.331 2.55769 -0.0396831 0
M  V30 4593 H 418.975 5.07524 0.195422 0
M  V30 4594 H 418.905 4.88548 1.96542 0
M  V30 4595 H 421.396 3.63651 1.02794 0
M  V30 4596 H 421.709 7.58231 1.49353 0
M  V30 4597 H 420.054 6.81763 1.34999 0
M  V30 4598 H 423.245 4.52668 1.19202 0
M  V30 4599 H 423.418 6.32595 1.40455 0
M  V30 4600 N 416.824 -0.551391 1.4764 0
M  V30 4601 C 418.072 -1.30572 1.54258 0
M  V30 4602 C 418.393 -1.93877 0.208963 0
M  V30 4603 O 417.663 -1.80234 -0.767619 0
M  V30 4604 H 416.243 -0.484894 0.568231 0
M  V30 4605 H 418.905 -0.643402 1.83974 0
M  V30 4606 H 418.001 -2.09621 2.31226 0
M  V30 4607 N 418.302 -1.35869 -0.798587 0
M  V30 4608 C 419.265 -1.29307 -1.89242 0
M  V30 4609 C 420.265 -0.202747 -1.59517 0
M  V30 4610 O 421.455 -0.456957 -1.681 0
M  V30 4611 C 418.587 -1.00229 -3.25833 0
M  V30 4612 H 419.78 -2.26576 -1.96478 0
M  V30 4613 H 417.333 -1.20509 -0.995358 0
M  V30 4614 H 418.068 -0.033801 -3.24282 0
M  V30 4615 H 417.853 -1.79121 -3.48795 0
M  V30 4616 H 419.343 -0.98219 -4.05885 0
M  V30 4617 N 419.78 1.02168 -1.19998 0
M  V30 4618 C 421.191 1.57135 -1.00825 0
M  V30 4619 C 421.542 1.91276 0.436818 0
M  V30 4620 O 420.667 1.71679 1.3174 0
M  V30 4621 C 421.262 2.85514 -1.82393 0
M  V30 4622 C 419.821 3.37027 -1.67601 0
M  V30 4623 C 418.968 2.10388 -1.80644 0
M  V30 4624 H 421.919 0.846106 -1.34264 0
M  V30 4625 H 421.94 3.56711 -1.32429 0
M  V30 4626 H 421.452 2.60634 -2.87561 0
M  V30 4627 H 419.553 3.66878 -0.650485 0
M  V30 4628 H 419.666 4.09572 -2.4857 0
M  V30 4629 H 418.03 2.22601 -1.23778 0
M  V30 4630 H 418.813 1.8794 -2.87286 0
M  V30 4631 N 421.258 1.00505 1.21394 0
M  V30 4632 C 422.504 0.698477 1.91031 0
M  V30 4633 C 422.859 -0.762448 1.76648 0
M  V30 4634 O 422.152 -1.54554 1.13241 0
M  V30 4635 C 422.346 1.0546 3.41486 0
M  V30 4636 C 422.175 2.5486 3.70508 0
M  V30 4637 C 420.945 3.21461 3.8986 0
M  V30 4638 C 423.143 3.53019 3.74008 0
M  V30 4639 N 421.125 4.60211 4.06299 0
M  V30 4640 C 422.496 4.77279 3.95733 0
M  V30 4641 C 424.551 3.47154 3.56915 0
M  V30 4642 C 423.254 5.96388 4.02137 0
M  V30 4643 C 425.28 4.65652 3.64585 0
M  V30 4644 C 424.642 5.88717 3.86771 0
M  V30 4645 H 420.741 0.30707 0.719189 0
M  V30 4646 H 423.325 1.28753 1.46051 0
M  V30 4647 H 421.496 0.494007 3.85246 0
M  V30 4648 H 423.228 0.702765 3.98552 0
M  V30 4649 H 419.983 2.71906 3.87768 0
M  V30 4650 H 420.407 5.32216 4.1842 0
M  V30 4651 H 425.049 2.53015 3.38738 0
M  V30 4652 H 422.767 6.90919 4.19114 0
M  V30 4653 H 426.353 4.62717 3.52681 0
M  V30 4654 H 425.233 6.78877 3.92549 0
M  V30 4655 O 422.775 -1.32987 0.916334 0
M  V30 4656 H 423.466 -1.86192 0.534057 0
M  V30 END ATOM
M  V30 BEGIN BOND
M  V30 END BOND
M  V30 END CTAB
M  END
$$$$
