drugbank_target|Q00537 Cyclin-dependent kinase 17 (DB12010)
 OpenBabel12092121183D

  0  0  0     0  0            999 V3000
M  V30 BEGIN CTAB
M  V30 COUNTS 8405 8495 0 0 0
M  V30 BEGIN ATOM
M  V30 1 H -0.908 1.98254 -0.117106 0
M  V30 2 N 0 1.576 0 0
M  V30 3 C 0.933 2.03868 1.02534 0
M  V30 4 C 1.911 0.928543 1.3348 0
M  V30 5 O 3.095 1.19667 1.45644 0
M  V30 6 C 0.222 2.43627 2.35294 0
M  V30 7 C -0.732 3.65373 2.2001 0
M  V30 8 S 0.101 5.13292 1.52614 0
M  V30 9 C 1.257 5.56322 2.86805 0
M  V30 10 H 1.49 2.90518 0.631377 0
M  V30 11 H -0.977 1.52953 0.210867 0
M  V30 12 H 0.981 2.67203 3.11629 0
M  V30 13 H -0.358 1.57376 2.7183 0
M  V30 14 H -1.165 3.90944 3.18086 0
M  V30 15 H -1.563 3.418 1.51819 0
M  V30 16 H 0.729 5.58782 3.83104 0
M  V30 17 H 1.672 6.56266 2.65933 0
M  V30 18 H 2.08 4.83886 2.90714 0
M  V30 19 N 1.4781 -0.272755 1.55222 0
M  V30 20 C 2.4251 -1.33716 1.88119 0
M  V30 21 C 3.3951 -1.49066 0.73271 0
M  V30 22 O 4.5801 -1.63469 0.984002 0
M  V30 23 C 1.7201 -2.69238 2.15882 0
M  V30 24 C 0.8331 -2.62108 3.43399 0
M  V30 25 C -0.0319 -3.89811 3.60861 0
M  V30 26 C -0.9929 -3.77193 4.8207 0
M  V30 27 N -1.8559 -4.9673 4.96189 0
M  V30 28 H 2.9841 -1.04962 2.78903 0
M  V30 29 H 0.5211 -0.507088 1.38083 0
M  V30 30 H 2.4791 -3.48089 2.29978 0
M  V30 31 H 1.1091 -2.96194 1.28331 0
M  V30 32 H 0.1611 -1.74967 3.37773 0
M  V30 33 H 1.4731 -2.48685 4.32386 0
M  V30 34 H 0.6271 -4.77103 3.74777 0
M  V30 35 H -0.6339 -4.06102 2.7006 0
M  V30 36 H -1.6289 -2.88284 4.68159 0
M  V30 37 H -0.4039 -3.62421 5.74307 0
M  V30 38 H -2.4579 -5.13431 4.08319 0
M  V30 39 H -2.5409 -4.85839 5.79221 0
M  V30 40 H -1.2729 -5.85594 5.1449 0
M  V30 41 N 2.9562 -1.48159 -0.537278 0
M  V30 42 C 3.9032 -1.62138 -1.64256 0
M  V30 43 C 4.8732 -0.463668 -1.59497 0
M  V30 44 O 6.0582 -0.686241 -1.78032 0
M  V30 45 C 3.1982 -1.66028 -3.02537 0
M  V30 46 C 2.3112 -2.92855 -3.17585 0
M  V30 47 C 1.4462 -2.87952 -4.46382 0
M  V30 48 C 0.4852 -4.09516 -4.54932 0
M  V30 49 N -0.3778 -4.02733 -5.75109 0
M  V30 50 H 4.4622 -2.56529 -1.51647 0
M  V30 51 H 1.9992 -1.27224 -0.738414 0
M  V30 52 H 3.9572 -1.66265 -3.82638 0
M  V30 53 H 2.5872 -0.751331 -3.13934 0
M  V30 54 H 1.6392 -3.02395 -2.30784 0
M  V30 55 H 2.9512 -3.82822 -3.19764 0
M  V30 56 H 2.1052 -2.8655 -5.34765 0
M  V30 57 H 0.8442 -1.95702 -4.46712 0
M  V30 58 H -0.1508 -4.11201 -3.64957 0
M  V30 59 H 1.0742 -5.02917 -4.56346 0
M  V30 60 H -0.9798 -3.13299 -5.76351 0
M  V30 61 H -1.0628 -4.86397 -5.78752 0
M  V30 62 H 0.2052 -4.05379 -6.65799 0
M  V30 63 N 4.4343 0.785586 -1.36625 0
M  V30 64 C 5.6813 1.54362 -1.31067 0
M  V30 65 C 6.0093 1.94195 0.10893 0
M  V30 66 O 5.2643 1.63262 1.07908 0
M  V30 67 C 5.5633 2.83007 -2.1827 0
M  V30 68 C 5.2293 2.62294 -3.6676 0
M  V30 69 C 3.8913 2.56353 -4.0723 0
M  V30 70 C 6.2433 2.43371 -4.6089 0
M  V30 71 C 3.5713 2.29461 -5.39967 0
M  V30 72 C 5.9233 2.18005 -5.93849 0
M  V30 73 C 4.5873 2.105 -6.3344 0
M  V30 74 H 3.8573 0.564851 -0.479609 0
M  V30 75 H 6.5043 0.906028 -1.68711 0
M  V30 76 H 4.8093 3.51253 -1.73576 0
M  V30 77 H 6.5063 3.40817 -2.11292 0
M  V30 78 H 3.0963 2.67774 -3.34656 0
M  V30 79 H 7.2803 2.46959 -4.30494 0
M  V30 80 H 2.5363 2.22135 -5.69619 0
M  V30 81 H 6.7103 2.02359 -6.66351 0
M  V30 82 H 4.3373 1.89425 -7.36222 0
M  V30 83 N 5.9124 1.20967 1.01018 0
M  V30 84 C 6.8594 0.964281 2.09691 0
M  V30 85 C 7.8294 -0.107853 1.65749 0
M  V30 86 O 9.0144 0.0381987 1.90762 0
M  V30 87 C 6.1544 0.52943 3.41015 0
M  V30 88 C 5.2674 1.67043 3.98398 0
M  V30 89 C 4.4024 1.18525 5.17808 0
M  V30 90 C 3.4414 2.29892 5.67288 0
M  V30 91 N 2.5784 1.82546 6.77954 0
M  V30 92 H 7.4184 1.89463 2.30017 0
M  V30 93 H 4.9554 0.944289 1.1279 0
M  V30 94 H 6.9134 0.258588 4.16398 0
M  V30 95 H 5.5434 -0.363919 3.20742 0
M  V30 96 H 4.5954 2.05603 3.20049 0
M  V30 97 H 5.9074 2.50877 4.31117 0
M  V30 98 H 5.0614 0.870762 6.00419 0
M  V30 99 H 3.8004 0.316887 4.86669 0
M  V30 100 H 2.8054 2.6215 4.83278 0
M  V30 101 H 4.0304 3.17216 6.00459 0
M  V30 102 H 1.9764 0.980454 6.48632 0
M  V30 103 H 1.8934 2.59956 7.09901 0
M  V30 104 H 3.1614 1.54115 7.64113 0
M  V30 105 N 7.3905 -1.2043 1.01659 0
M  V30 106 C 8.8065 -1.41852 0.731442 0
M  V30 107 C 9.0065 -1.89358 -0.688898 0
M  V30 108 O 8.0625 -2.06247 -1.45666 0
M  V30 109 C 9.3755 -2.44019 1.75714 0
M  V30 110 C 10.9235 -2.57785 1.77527 0
M  V30 111 C 11.3985 -3.63194 2.79023 0
M  V30 112 N 12.8895 -3.70678 2.77763 0
M  V30 113 C 13.6245 -4.51897 3.52954 0
M  V30 114 N 13.1205 -5.36921 4.37821 0
M  V30 115 N 14.9135 -4.4643 3.41551 0
M  V30 116 H 7.0645 -0.879093 1.93354 0
M  V30 117 H 9.3275 -0.448425 0.835236 0
M  V30 118 H 9.0335 -2.1611 2.77469 0
M  V30 119 H 8.9075 -3.43007 1.56927 0
M  V30 120 H 11.2945 -2.85023 0.764569 0
M  V30 121 H 11.3755 -1.58992 2.00387 0
M  V30 122 H 11.0195 -3.36699 3.80258 0
M  V30 123 H 10.9495 -4.61609 2.53425 0
M  V30 124 H 13.4405 -3.09944 2.16201 0
M  V30 125 H 13.7535 -5.95981 4.91962 0
M  V30 126 H 12.0985 -5.36424 4.41899 0
M  V30 127 H 15.2895 -3.79042 2.74672 0
M  V30 128 H 15.4625 -5.09491 4.00404 0
M  V30 129 N 8.8686 -0.792821 -1.36206 0
M  V30 130 C 10.2846 -0.474903 -1.52371 0
M  V30 131 C 10.4846 1.00622 -1.74578 0
M  V30 132 O 9.5406 1.79162 -1.77924 0
M  V30 133 C 10.8536 -1.3083 -2.70747 0
M  V30 134 C 12.4016 -1.30234 -2.84619 0
M  V30 135 C 12.8766 -2.11956 -4.06004 0
M  V30 136 N 14.3676 -2.09419 -4.13156 0
M  V30 137 C 15.1026 -2.69419 -5.06163 0
M  V30 138 N 14.5986 -3.3829 -6.04592 0
M  V30 139 N 16.3916 -2.59134 -4.98804 0
M  V30 140 H 8.5426 -1.75222 -1.20046 0
M  V30 141 H 10.8056 -0.745024 -0.586211 0
M  V30 142 H 10.5116 -2.35881 -2.6087 0
M  V30 143 H 10.3856 -0.95196 -3.6499 0
M  V30 144 H 12.7726 -0.259748 -2.93955 0
M  V30 145 H 12.8536 -1.69847 -1.91274 0
M  V30 146 H 12.4976 -3.16248 -3.97429 0
M  V30 147 H 12.4276 -1.69711 -4.98503 0
M  V30 148 H 14.9186 -1.59297 -3.42685 0
M  V30 149 H 15.2316 -3.81394 -6.7213 0
M  V30 150 H 13.5766 -3.42393 -6.04807 0
M  V30 151 H 16.7676 -2.04927 -4.20859 0
M  V30 152 H 16.9406 -3.06185 -5.711 0
M  V30 153 N 10.3467 1.47872 -0.545128 0
M  V30 154 C 11.2767 2.32661 0.197793 0
M  V30 155 C 12.2577 1.43041 0.920504 0
M  V30 156 O 13.4427 1.71912 0.90333 0
M  V30 157 C 10.5727 3.24569 1.23582 0
M  V30 158 C 9.5267 4.23333 0.630323 0
M  V30 159 C 8.8527 5.0448 1.77211 0
M  V30 160 C 10.1527 5.20704 -0.407974 0
M  V30 161 H 11.8467 2.95024 -0.510045 0
M  V30 162 H 9.3927 1.4187 -0.246731 0
M  V30 163 H 11.3457 3.8272 1.76362 0
M  V30 164 H 10.0697 2.60236 1.97344 0
M  V30 165 H 8.7287 3.6639 0.123922 0
M  V30 166 H 8.3767 4.36561 2.49847 0
M  V30 167 H 8.0767 5.71339 1.37281 0
M  V30 168 H 9.6007 5.65487 2.3034 0
M  V30 169 H 11.0147 5.7329 0.033305 0
M  V30 170 H 9.4117 5.95699 -0.725486 0
M  V30 171 H 10.4817 4.66917 -1.30828 0
M  V30 172 N 11.8248 0.280983 1.55075 0
M  V30 173 C 13.0498 -0.340154 2.04592 0
M  V30 174 C 13.4748 -1.48246 1.15779 0
M  V30 175 O 12.8328 -1.80614 0.15761 0
M  V30 176 C 12.8808 -0.793104 3.5177 0
M  V30 177 O 11.9848 -1.89981 3.66034 0
M  V30 178 H 11.3258 -0.0694289 0.66036 0
M  V30 179 H 13.8558 0.416993 2.00306 0
M  V30 180 H 13.8658 -1.08729 3.93245 0
M  V30 181 H 12.5408 0.0426163 4.15878 0
M  V30 182 H 11.1178 -1.60771 3.36463 0
M  V30 183 N 13.3029 -1.57598 0.00835791 0
M  V30 184 C 14.2329 -2.1198 -0.979113 0
M  V30 185 C 15.2139 -1.03091 -1.35301 0
M  V30 186 O 16.3989 -1.30818 -1.43528 0
M  V30 187 C 13.5289 -2.62995 -2.26828 0
M  V30 188 C 12.4829 -3.76485 -2.03576 0
M  V30 189 C 11.8089 -4.13846 -3.38579 0
M  V30 190 C 13.1089 -5.0342 -1.39161 0
M  V30 191 H 14.8029 -2.94738 -0.526281 0
M  V30 192 H 12.3489 -1.41783 -0.251704 0
M  V30 193 H 14.3019 -2.99669 -2.96271 0
M  V30 194 H 13.0259 -1.7737 -2.7424 0
M  V30 195 H 11.6849 -3.40217 -1.36557 0
M  V30 196 H 11.3329 -3.25232 -3.83709 0
M  V30 197 H 11.0329 -4.90312 -3.23834 0
M  V30 198 H 12.5569 -4.53086 -4.09323 0
M  V30 199 H 13.9709 -5.37812 -1.98573 0
M  V30 200 H 12.3679 -5.84746 -1.34878 0
M  V30 201 H 13.4379 -4.83548 -0.361868 0
M  V30 202 N 14.781 0.264519 -1.55364 0
M  V30 203 C 16.009 1.013 -1.80405 0
M  V30 204 C 16.424 1.79618 -0.581622 0
M  V30 205 O 15.781 1.76879 0.449468 0
M  V30 206 C 15.832 1.96487 -3.03439 0
M  V30 207 O 15.553 1.21341 -4.20961 0
M  V30 208 C 17.054 2.83079 -3.41147 0
M  V30 209 H 14.274 0.298875 -0.600762 0
M  V30 210 H 16.818 0.292736 -2.02394 0
M  V30 211 H 14.973 2.63965 -2.83551 0
M  V30 212 H 15.387 1.85573 -4.90574 0
M  V30 213 H 16.861 3.4565 -4.30384 0
M  V30 214 H 17.338 3.53286 -2.60932 0
M  V30 215 H 17.944 2.2108 -3.63323 0
M  V30 216 N 16.2591 1.48442 0.529413 0
M  V30 217 C 17.1891 1.65902 1.64313 0
M  V30 218 C 18.1701 0.507897 1.6234 0
M  V30 219 O 19.3551 0.740503 1.79528 0
M  V30 220 C 16.4851 1.69911 3.02898 0
M  V30 221 C 15.4391 2.8453 3.19729 0
M  V30 222 C 14.7651 2.73629 4.59381 0
M  V30 223 C 16.0651 4.25821 3.02447 0
M  V30 224 H 17.7591 2.5914 1.49955 0
M  V30 225 H 15.3051 1.24709 0.719982 0
M  V30 226 H 17.2581 1.80715 3.80684 0
M  V30 227 H 15.9821 0.732524 3.18279 0
M  V30 228 H 14.6411 2.73283 2.44361 0
M  V30 229 H 14.2891 1.74938 4.71599 0
M  V30 230 H 13.9891 3.50541 4.71588 0
M  V30 231 H 15.5131 2.86401 5.39265 0
M  V30 232 H 16.9271 4.37898 3.70024 0
M  V30 233 H 15.3241 5.03735 3.26146 0
M  V30 234 H 16.3941 4.42244 1.98867 0
M  V30 235 N 17.7372 -0.778329 1.37039 0
M  V30 236 C 19.1532 -1.07796 1.17695 0
M  V30 237 C 19.3532 -2.01498 0.00860115 0
M  V30 238 O 18.4092 -2.43901 -0.653352 0
M  V30 239 C 19.7222 -1.68178 2.49272 0
M  V30 240 C 21.2702 -1.80467 2.55735 0
M  V30 241 C 21.7452 -2.44263 3.87427 0
M  V30 242 N 23.2362 -2.51721 3.88833 0
M  V30 243 C 23.9712 -3.01919 4.87476 0
M  V30 244 N 23.4672 -3.5234 5.96513 0
M  V30 245 N 25.2602 -3.00733 4.74885 0
M  V30 246 H 17.4112 -0.156032 2.11826 0
M  V30 247 H 19.6742 -0.131844 0.938787 0
M  V30 248 H 19.3802 -1.06796 3.35093 0
M  V30 249 H 19.2542 -2.67554 2.65885 0
M  V30 250 H 21.6412 -2.40984 1.70325 0
M  V30 251 H 21.7222 -0.798656 2.43013 0
M  V30 252 H 21.3662 -1.84388 4.73248 0
M  V30 253 H 21.2962 -3.45458 3.9745 0
M  V30 254 H 23.7872 -2.1603 3.10063 0
M  V30 255 H 24.1002 -3.89027 6.67741 0
M  V30 256 H 22.4452 -3.50462 6.00168 0
M  V30 257 H 25.6362 -2.60638 3.88826 0
M  V30 258 H 25.8092 -3.39545 5.51918 0
M  V30 259 N 19.2153 -1.21501 -1.00376 0
M  V30 260 C 20.4633 -1.03095 -1.73827 0
M  V30 261 C 20.7843 0.436341 -1.90055 0
M  V30 262 O 20.0543 1.31466 -1.45236 0
M  V30 263 H 18.6343 -0.378487 -0.644016 0
M  V30 264 H 21.2963 -1.52831 -1.20949 0
M  V30 265 H 20.3923 -1.49991 -2.73695 0
M  V30 266 N 20.6934 1.19889 -1.02296 0
M  V30 267 C 21.9184 1.9393 -0.735237 0
M  V30 268 C 22.3434 1.74639 0.698782 0
M  V30 269 O 21.7014 1.04481 1.48167 0
M  V30 270 C 21.7494 3.43916 -1.08417 0
M  V30 271 O 20.8534 4.11917 -0.199446 0
M  V30 272 H 20.1944 0.605645 -0.272196 0
M  V30 273 H 22.7244 1.52137 -1.36804 0
M  V30 274 H 22.7344 3.9456 -1.03856 0
M  V30 275 H 21.4094 3.5728 -2.12894 0
M  V30 276 H 19.9864 3.71666 -0.303136 0
M  V30 277 N 22.1715 0.800033 1.35784 0
M  V30 278 C 23.1035 0.163596 2.28615 0
M  V30 279 C 24.1165 -0.633317 1.49976 0
M  V30 280 O 25.3055 -0.466754 1.72289 0
M  V30 281 C 22.4055 -0.790958 3.29541 0
M  V30 282 C 21.5785 -0.0418255 4.3738 0
M  V30 283 C 20.6375 -0.91389 5.18203 0
M  V30 284 O 19.6635 -0.367234 5.68014 0
M  V30 285 N 20.8655 -2.23682 5.35674 0
M  V30 286 H 23.6305 0.96105 2.83873 0
M  V30 287 H 21.1915 0.654894 1.48063 0
M  V30 288 H 23.1835 -1.37844 3.80501 0
M  V30 289 H 21.7535 -1.48925 2.74846 0
M  V30 290 H 20.9735 0.726813 3.87442 0
M  V30 291 H 22.2615 0.474719 5.06581 0
M  V30 292 H 21.6595 -2.70497 4.96838 0
M  V30 293 H 20.2165 -2.77369 5.89839 0
M  V30 294 N 23.6496 -1.47581 0.552962 0
M  V30 295 C 24.8776 -2.06875 0.0320556 0
M  V30 296 C 25.2926 -1.40625 -1.25976 0
M  V30 297 O 24.6496 -0.501349 -1.75479 0
M  V30 298 C 24.7006 -3.61092 -0.17167 0
M  V30 299 O 24.4216 -4.24858 1.06899 0
M  V30 300 C 25.9226 -4.37242 -0.730344 0
M  V30 301 H 23.1426 -0.669561 0.043915 0
M  V30 302 H 25.6866 -1.89646 0.765163 0
M  V30 303 H 23.8416 -3.7785 -0.854894 0
M  V30 304 H 24.2556 -5.17334 0.864059 0
M  V30 305 H 25.7296 -5.45842 -0.822203 0
M  V30 306 H 26.2066 -4.03235 -1.74064 0
M  V30 307 H 26.8126 -4.25219 -0.0829543 0
M  V30 308 N 25.1277 -0.289203 -1.54924 0
M  V30 309 C 26.3767 0.324231 -1.99077 0
M  V30 310 C 26.6897 1.5591 -1.18117 0
M  V30 311 O 27.8957 2.24637 -1.52481 0
M  V30 312 C 26.3517 0.628209 -3.54375 0
M  V30 313 C 25.9597 -0.587647 -4.44129 0
M  V30 314 C 27.7037 1.20349 -4.07083 0
M  V30 315 C 25.6107 -0.257475 -5.90839 0
M  V30 316 H 24.5407 0.124924 -0.743579 0
M  V30 317 H 27.1917 -0.396063 -1.79175 0
M  V30 318 H 25.5737 1.40778 -3.70132 0
M  V30 319 H 26.7477 -1.36418 -4.40144 0
M  V30 320 H 25.0627 -1.08074 -4.0213 0
M  V30 321 H 27.6597 1.46456 -5.14252 0
M  V30 322 H 28.0027 2.14195 -3.56968 0
M  V30 323 H 28.5357 0.485889 -3.94821 0
M  V30 324 H 25.2747 -1.16419 -6.45079 0
M  V30 325 H 24.7947 0.482018 -5.9786 0
M  V30 326 H 26.4737 0.145238 -6.46837 0
M  V30 327 N 26.6058 1.57591 -0.0167156 0
M  V30 328 C 27.8828 1.82547 0.702564 0
M  V30 329 C 28.2628 0.898018 1.91047 0
M  V30 330 O 27.6108 -0.0493456 2.28447 0
M  V30 331 C 27.8208 3.31459 1.09251 0
M  V30 332 C 29.1688 3.97622 1.48937 0
M  V30 333 O 30.1928 3.35881 1.18584 0
M  V30 334 O 29.0518 5.06415 2.05442 0
M  V30 335 H 26.1458 0.752268 0.343544 0
M  V30 336 H 28.6918 1.69644 -0.0434495 0
M  V30 337 H 27.4638 3.9061 0.23227 0
M  V30 338 H 27.0868 3.49422 1.89709 0
M  V30 339 N 28.0839 -0.256276 1.55502 0
M  V30 340 C 28.9939 -1.33882 1.92647 0
M  V30 341 C 30.0099 -1.53159 0.825727 0
M  V30 342 O 31.1859 -1.66963 1.12629 0
M  V30 343 C 28.2509 -2.6751 2.20543 0
M  V30 344 C 27.3119 -2.56836 3.43997 0
M  V30 345 C 26.5449 -3.84092 3.70553 0
M  V30 346 O 26.7679 -4.85545 2.99336 0
M  V30 347 O 25.7019 -3.83288 4.64084 0
M  V30 348 H 29.5279 -1.05374 2.84833 0
M  V30 349 H 27.1129 -0.456237 1.42263 0
M  V30 350 H 28.9949 -3.46492 2.39835 0
M  V30 351 H 27.6699 -2.9577 1.31536 0
M  V30 352 H 26.5769 -1.76172 3.30021 0
M  V30 353 H 27.9099 -2.33523 4.33275 0
M  V30 354 N 29.562 -1.4872 -0.521534 0
M  V30 355 C 30.787 -1.61101 -1.30618 0
M  V30 356 C 31.212 -0.274611 -1.86085 0
M  V30 357 O 30.57 0.754937 -1.64834 0
M  V30 358 C 30.618 -2.66709 -2.4269 0
M  V30 359 O 29.722 -2.24456 -3.45967 0
M  V30 360 H 29.063 -0.539921 -0.386499 0
M  V30 361 H 31.593 -1.94767 -0.626645 0
M  V30 362 H 31.603 -2.88245 -2.88754 0
M  V30 363 H 30.278 -3.63727 -2.01682 0
M  V30 364 H 28.855 -2.13168 -3.05964 0
M  V30 365 N 31.0401 0.771051 -1.3745 0
M  V30 366 C 31.9701 1.89827 -1.3597 0
M  V30 367 C 32.9511 1.68562 -0.228216 0
M  V30 368 O 34.1361 1.8941 -0.428675 0
M  V30 369 C 31.2661 3.2712 -1.16662 0
M  V30 370 C 30.2201 3.6295 -2.2683 0
M  V30 371 C 29.5461 4.98791 -1.92644 0
M  V30 372 C 30.8461 3.69627 -3.69017 0
M  V30 373 H 32.5401 1.91323 -2.30295 0
M  V30 374 H 30.0861 0.919082 -1.10855 0
M  V30 375 H 32.0391 4.05615 -1.14256 0
M  V30 376 H 30.7631 3.26059 -0.187926 0
M  V30 377 H 29.4221 2.86763 -2.28392 0
M  V30 378 H 29.0701 4.94271 -0.933021 0
M  V30 379 H 28.7701 5.23733 -2.66416 0
M  V30 380 H 30.2941 5.79685 -1.91826 0
M  V30 381 H 31.7081 4.38273 -3.69581 0
M  V30 382 H 30.1051 4.06067 -4.41848 0
M  V30 383 H 31.1751 2.70273 -4.02592 0
M  V30 384 N 32.5182 1.22032 0.997298 0
M  V30 385 C 33.7432 1.06921 1.77715 0
M  V30 386 C 34.1682 -0.376226 1.84299 0
M  V30 387 O 33.5262 -1.27165 1.29223 0
M  V30 388 C 33.5742 1.67996 3.19076 0
M  V30 389 O 32.6782 0.930653 4.01762 0
M  V30 390 H 32.0192 0.375814 0.547412 0
M  V30 391 H 34.5492 1.61737 1.25309 0
M  V30 392 H 34.5592 1.72538 3.69723 0
M  V30 393 H 33.2342 2.73182 3.13599 0
M  V30 394 H 31.8112 0.960917 3.60307 0
M  V30 395 N 33.9963 -1.19345 1.0293 0
M  V30 396 C 34.9063 -2.26245 0.620515 0
M  V30 397 C 35.9223 -1.70486 -0.347928 0
M  V30 398 O 37.0983 -2.00347 -0.205704 0
M  V30 399 C 34.1633 -3.46693 -0.0218957 0
M  V30 400 C 33.2243 -4.17632 0.994102 0
M  V30 401 C 32.4573 -5.32329 0.382253 0
M  V30 402 O 32.6803 -5.64552 -0.814676 0
M  V30 403 O 31.6143 -5.91664 1.10531 0
M  V30 404 H 35.4403 -2.63453 1.51083 0
M  V30 405 H 33.0253 -1.26207 0.799513 0
M  V30 406 H 34.9073 -4.19683 -0.380072 0
M  V30 407 H 33.5823 -3.11333 -0.886209 0
M  V30 408 H 32.4893 -3.4676 1.40387 0
M  V30 409 H 33.8223 -4.56964 1.8288 0
M  V30 410 N 35.4744 -0.807222 -1.35358 0
M  V30 411 C 36.4044 -0.232509 -2.3234 0
M  V30 412 C 37.3854 0.642386 -1.57504 0
M  V30 413 O 38.5704 0.572526 -1.85569 0
M  V30 414 C 35.7004 0.619238 -3.41735 0
M  V30 415 C 34.6544 -0.157215 -4.27711 0
M  V30 416 C 33.9804 0.816273 -5.28433 0
M  V30 417 C 35.2804 -1.35656 -5.04376 0
M  V30 418 H 36.9744 -1.04276 -2.80654 0
M  V30 419 H 34.5204 -0.50288 -1.34934 0
M  V30 420 H 36.4734 1.03137 -4.08584 0
M  V30 421 H 35.1974 1.46239 -2.92031 0
M  V30 422 H 33.8564 -0.550525 -3.62443 0
M  V30 423 H 33.5044 1.65494 -4.74996 0
M  V30 424 H 33.2044 0.301067 -5.86828 0
M  V30 425 H 34.7284 1.22659 -5.98153 0
M  V30 426 H 36.1424 -1.01927 -5.64166 0
M  V30 427 H 34.5394 -1.8063 -5.7227 0
M  V30 428 H 35.6094 -2.14288 -4.34981 0
M  V30 429 N 36.9525 1.47285 -0.560781 0
M  V30 430 C 37.9155 2.28535 0.174488 0
M  V30 431 C 38.9155 1.37153 0.839388 0
M  V30 432 O 40.1055 1.59748 0.694702 0
M  V30 433 C 37.2375 3.16934 1.25561 0
M  V30 434 H 38.4305 2.95012 -0.539262 0
M  V30 435 H 35.9835 1.53034 -0.317865 0
M  V30 436 H 36.7185 2.55157 2.00164 0
M  V30 437 H 36.5035 3.8419 0.783604 0
M  V30 438 H 37.9935 3.78143 1.77193 0
M  V30 439 N 38.4306 0.297415 1.54768 0
M  V30 440 C 39.3406 -0.58983 2.27064 0
M  V30 441 C 40.3566 -1.15144 1.30453 0
M  V30 442 O 41.5326 -1.17699 1.63428 0
M  V30 443 C 38.5976 -1.74714 2.9946 0
M  V30 444 C 37.6586 -1.21997 4.11601 0
M  V30 445 C 36.8916 -2.32212 4.80535 0
M  V30 446 O 37.1146 -3.52036 4.48806 0
M  V30 447 O 36.0486 -1.99106 5.68014 0
M  V30 448 H 39.8746 -0.00348199 3.037 0
M  V30 449 H 37.4596 0.0640035 1.49263 0
M  V30 450 H 39.3416 -2.42147 3.44881 0
M  V30 451 H 38.0166 -2.32016 2.25722 0
M  V30 452 H 36.9236 -0.511458 3.70587 0
M  V30 453 H 38.2566 -0.692419 4.87305 0
M  V30 454 N 39.9087 -1.5758 0.0250728 0
M  V30 455 C 40.8407 -2.06869 -0.986796 0
M  V30 456 C 41.8537 -0.991332 -1.29137 0
M  V30 457 O 43.0427 -1.26761 -1.25674 0
M  V30 458 C 40.1427 -2.47486 -2.31525 0
M  V30 459 C 39.3157 -3.78253 -2.19643 0
M  V30 460 C 38.3747 -4.05464 -3.35388 0
M  V30 461 O 37.4007 -4.75774 -3.12454 0
M  V30 462 N 38.6027 -3.55321 -4.59051 0
M  V30 463 H 41.3677 -2.94302 -0.566276 0
M  V30 464 H 38.9287 -1.6109 -0.161776 0
M  V30 465 H 40.9207 -2.62785 -3.07776 0
M  V30 466 H 39.4907 -1.65441 -2.65232 0
M  V30 467 H 38.7107 -3.7279 -1.28144 0
M  V30 468 H 39.9987 -4.63936 -2.08903 0
M  V30 469 H 39.3967 -2.98431 -4.80578 0
M  V30 470 H 37.9537 -3.75905 -5.32483 0
M  V30 471 N 41.3868 0.248026 -1.55636 0
M  V30 472 C 42.3198 1.3334 -1.85191 0
M  V30 473 C 43.2978 1.46429 -0.706906 0
M  V30 474 O 44.4818 1.62662 -0.952544 0
M  V30 475 C 41.6088 2.70703 -2.03562 0
M  V30 476 C 40.6548 2.7477 -3.26196 0
M  V30 477 S 41.4878 2.31493 -4.82878 0
M  V30 478 C 42.6438 3.70783 -5.04253 0
M  V30 479 H 42.8768 1.08072 -2.76962 0
M  V30 480 H 40.4098 0.448952 -1.47729 0
M  V30 481 H 42.3678 3.49798 -2.1483 0
M  V30 482 H 41.0288 2.9321 -1.12635 0
M  V30 483 H 40.2218 3.75648 -3.36013 0
M  V30 484 H 39.8238 2.03719 -3.13647 0
M  V30 485 H 42.1158 4.6627 -4.91527 0
M  V30 486 H 43.0588 3.65901 -6.06236 0
M  V30 487 H 43.4668 3.63244 -4.32105 0
M  V30 488 N 42.8649 1.48995 0.513639 0
M  V30 489 C 44.0929 1.61531 1.29288 0
M  V30 490 C 44.5079 0.281801 1.86685 0
M  V30 491 O 43.8649 -0.731111 1.67215 0
M  V30 492 C 43.9159 2.67449 2.43215 0
M  V30 493 O 43.6369 3.95626 1.88179 0
M  V30 494 C 45.1379 2.90575 3.34785 0
M  V30 495 H 42.3579 0.544165 0.392588 0
M  V30 496 H 44.9019 1.9494 0.617956 0
M  V30 497 H 43.0569 2.36853 3.0656 0
M  V30 498 H 43.4709 4.53868 2.62876 0
M  V30 499 H 44.9449 3.68449 4.11035 0
M  V30 500 H 45.4219 2.00011 3.91015 0
M  V30 501 H 46.0279 3.22538 2.77218 0
M  V30 502 N 44.343 -0.763751 1.37857 0
M  V30 503 C 45.592 -1.51789 1.32827 0
M  V30 504 C 45.905 -1.95426 -0.0823719 0
M  V30 505 O 47.111 -2.70298 -0.255172 0
M  V30 506 C 45.567 -2.74133 2.33193 0
M  V30 507 C 45.175 -2.37562 3.79827 0
M  V30 508 C 46.919 -3.52054 2.37188 0
M  V30 509 C 44.826 -3.56456 4.71904 0
M  V30 510 H 43.756 -0.569896 0.493695 0
M  V30 511 H 46.407 -0.835822 1.63359 0
M  V30 512 H 44.789 -3.4427 1.9569 0
M  V30 513 H 45.963 -1.75157 4.26212 0
M  V30 514 H 44.278 -1.72798 3.78853 0
M  V30 515 H 46.875 -4.40437 3.03182 0
M  V30 516 H 47.218 -3.92486 1.38782 0
M  V30 517 H 47.751 -2.88921 2.7344 0
M  V30 518 H 44.49 -3.21099 5.71468 0
M  V30 519 H 44.01 -4.17938 4.30218 0
M  V30 520 H 45.689 -4.23168 4.89426 0
M  V30 521 N 45.8211 -1.22559 -0.990812 0
M  V30 522 C 46.7311 -1.01394 -2.11557 0
M  V30 523 C 47.7471 0.0383962 -1.73958 0
M  V30 524 O 48.9231 -0.154787 -2.00804 0
M  V30 525 C 45.9881 -0.596569 -3.41529 0
M  V30 526 C 45.0491 -1.72276 -3.93217 0
M  V30 527 C 44.2821 -1.32521 -5.16985 0
M  V30 528 O 44.5051 -0.204909 -5.70032 0
M  V30 529 O 43.4391 -2.14247 -5.62478 0
M  V30 530 H 47.2651 -1.95633 -2.32296 0
M  V30 531 H 44.8501 -1.01172 -1.0993 0
M  V30 532 H 46.7321 -0.374263 -4.19735 0
M  V30 533 H 45.4071 0.316939 -3.22145 0
M  V30 534 H 44.3141 -1.99961 -3.16174 0
M  V30 535 H 45.6471 -2.61421 -4.17037 0
M  V30 536 N 47.2992 1.18797 -1.03562 0
M  V30 537 C 48.2092 2.25913 -0.632505 0
M  V30 538 C 49.2252 1.70668 0.338882 0
M  V30 539 O 50.4012 2.00453 0.195076 0
M  V30 540 C 47.4662 3.467 0.00350942 0
M  V30 541 C 46.5272 4.17098 -1.01624 0
M  V30 542 C 45.7602 5.32119 -0.410478 0
M  V30 543 O 45.9832 5.64976 0.784725 0
M  V30 544 O 44.9172 5.9107 -1.13667 0
M  V30 545 H 48.7432 2.62648 -1.52478 0
M  V30 546 H 46.3282 1.25781 -0.806195 0
M  V30 547 H 48.2102 4.19878 0.35781 0
M  V30 548 H 46.8852 3.11798 0.869686 0
M  V30 549 H 45.7922 3.4601 -1.42224 0
M  V30 550 H 47.1252 4.55987 -1.85301 0
M  V30 551 N 48.7773 0.814389 1.34928 0
M  V30 552 C 49.7253 0.218424 2.31572 0
M  V30 553 C 50.7193 -0.636128 1.57002 0
M  V30 554 O 51.9253 -0.52842 1.72069 0
M  V30 555 H 48.3003 0.0518799 0.750208 0
M  V30 556 H 50.2713 1.04852 2.79372 0
M  V30 557 C 49.0203 -0.61207 3.4227 0
M  V30 558 H 48.3433 0.0361578 3.99784 0
M  V30 559 H 49.7833 -0.995317 4.12152 0
M  V30 560 C 48.2423 -1.78087 2.85984 0
M  V30 561 O 48.7723 -2.8787 2.80168 0
M  V30 562 N 46.9783 -1.59488 2.42924 0
M  V30 563 H 46.5253 -0.701874 2.47854 0
M  V30 564 H 46.4833 -2.37846 2.05613 0
M  V30 565 N 50.2554 -1.46986 0.568584 0
M  V30 566 C 51.4804 -2.07335 0.0520528 0
M  V30 567 C 51.9054 -1.41675 -1.23733 0
M  V30 568 O 51.2634 -0.495623 -1.74394 0
M  V30 569 C 51.3114 -3.60417 -0.11501 0
M  V30 570 O 50.4154 -3.95309 -1.17492 0
M  V30 571 H 49.7564 -0.661597 0.0564385 0
M  V30 572 H 52.2864 -1.88837 0.787507 0
M  V30 573 H 52.2964 -4.06698 -0.325644 0
M  V30 574 H 50.9714 -4.07601 0.826675 0
M  V30 575 H 49.5484 -3.60757 -0.943869 0
M  V30 576 N 51.7335 -0.305618 -1.54608 0
M  V30 577 C 52.9585 0.307562 -2.05107 0
M  V30 578 C 53.3835 1.46385 -1.18123 0
M  V30 579 O 52.7415 1.8034 -0.186324 0
M  V30 580 C 52.7895 0.73704 -3.52987 0
M  V30 581 O 51.8935 1.84134 -3.6901 0
M  V30 582 H 51.2345 0.0589143 -0.661381 0
M  V30 583 H 53.7645 -0.448807 -1.99617 0
M  V30 584 H 53.7745 1.02459 -3.94925 0
M  V30 585 H 52.4495 -0.108773 -4.15758 0
M  V30 586 H 51.0265 1.55398 -3.38978 0
M  V30 587 N 53.2116 1.57565 -0.0334293 0
M  V30 588 C 54.1586 2.10478 0.946981 0
M  V30 589 C 55.1286 1.00787 1.32027 0
M  V30 590 O 56.3136 1.28232 1.41284 0
M  V30 591 C 53.4536 2.63994 2.22263 0
M  V30 592 C 52.5666 3.87709 1.90541 0
M  V30 593 C 51.7016 4.29604 3.12433 0
M  V30 594 C 50.7406 5.46065 2.76549 0
M  V30 595 N 49.8776 5.83096 3.9108 0
M  V30 596 H 54.7176 2.93963 0.488846 0
M  V30 597 H 52.2546 1.45296 0.22969 0
M  V30 598 H 54.2126 2.93114 2.96884 0
M  V30 599 H 52.8426 1.83333 2.65685 0
M  V30 600 H 51.8946 3.65291 1.06144 0
M  V30 601 H 53.2066 4.72403 1.60116 0
M  V30 602 H 52.3606 4.60182 3.9537 0
M  V30 603 H 51.0996 3.43685 3.46023 0
M  V30 604 H 50.1046 5.15176 1.92026 0
M  V30 605 H 51.3296 6.33685 2.44171 0
M  V30 606 H 49.2756 5.00132 4.24504 0
M  V30 607 H 49.1926 6.6244 3.64293 0
M  V30 608 H 50.4606 6.18282 4.74708 0
M  V30 609 N 54.6897 -0.239769 1.55765 0
M  V30 610 C 55.9667 -0.990056 1.68693 0
M  V30 611 C 56.3467 -2.03107 0.5754 0
M  V30 612 O 55.6947 -2.24604 -0.42017 0
M  V30 613 C 55.9047 -1.61696 3.09282 0
M  V30 614 C 57.2527 -2.11613 3.6811 0
M  V30 615 O 58.2767 -1.71624 3.12127 0
M  V30 616 O 57.1357 -2.85057 4.66267 0
M  V30 617 H 54.2297 -0.461299 0.686391 0
M  V30 618 H 56.7757 -0.232991 1.68093 0
M  V30 619 H 55.5477 -0.864357 3.81634 0
M  V30 620 H 55.1707 -2.44005 3.13923 0
M  V30 621 N 56.1678 -1.49265 -0.50573 0
M  V30 622 C 57.1158 -1.66065 -1.62866 0
M  V30 623 C 58.1098 -0.526636 -1.61006 0
M  V30 624 O 59.3158 -0.706126 -1.65571 0
M  V30 625 H 55.6908 -0.52356 -0.539805 0
M  V30 626 H 57.6618 -2.60329 -1.45848 0
M  V30 627 C 56.4108 -1.74008 -3.01026 0
M  V30 628 H 55.7338 -2.6064 -3.03161 0
M  V30 629 H 57.1738 -1.89798 -3.79147 0
M  V30 630 C 55.6328 -0.483868 -3.33407 0
M  V30 631 O 56.1628 0.392548 -3.99777 0
M  V30 632 N 54.3688 -0.348236 -2.88506 0
M  V30 633 H 53.9158 -1.06242 -2.34671 0
M  V30 634 H 53.8738 0.491204 -3.10539 0
M  V30 635 N 57.6459 0.756429 -1.3826 0
M  V30 636 C 58.5559 1.9009 -1.37488 0
M  V30 637 C 59.5719 1.71855 -0.272366 0
M  V30 638 O 60.7479 1.94827 -0.510318 0
M  V30 639 C 57.8129 3.25421 -1.19592 0
M  V30 640 C 56.8739 3.56202 -2.39622 0
M  V30 641 C 56.1069 4.85075 -2.2257 0
M  V30 642 O 56.3299 5.57246 -1.21793 0
M  V30 643 O 55.2639 5.15269 -3.11098 0
M  V30 644 H 59.0899 1.93695 -2.33914 0
M  V30 645 H 56.6749 0.901313 -1.1915 0
M  V30 646 H 58.5569 4.06337 -1.11661 0
M  V30 647 H 57.2319 3.22634 -0.262486 0
M  V30 648 H 56.1389 2.75458 -2.53128 0
M  V30 649 H 57.4719 3.63747 -3.31586 0
M  V30 650 N 59.124 1.23083 0.984299 0
M  V30 651 C 60.535 1.05609 1.5396 0
M  V30 652 C 60.886 -0.377793 1.92528 0
M  V30 653 O 60.011 -1.26398 1.75649 0
M  V30 654 C 60.606 1.91087 2.7977 0
M  V30 655 C 59.165 1.77885 3.31713 0
M  V30 656 C 58.312 1.87028 2.04733 0
M  V30 657 H 61.263 1.36802 0.804419 0
M  V30 658 H 61.284 1.43336 3.5247 0
M  V30 659 H 60.796 2.9544 2.51668 0
M  V30 660 H 58.897 0.762995 3.64704 0
M  V30 661 H 59.01 2.61047 4.01735 0
M  V30 662 H 57.374 1.30565 2.18689 0
M  V30 663 H 58.157 2.92929 1.79017 0
M  V30 664 N 60.6021 -1.18246 1.0419 0
M  V30 665 C 61.8511 -1.87588 0.741194 0
M  V30 666 C 62.1641 -1.81303 -0.734066 0
M  V30 667 O 63.3701 -2.46019 -1.14834 0
M  V30 668 C 61.8261 -3.36538 1.27555 0
M  V30 669 C 61.4341 -3.51349 2.77953 0
M  V30 670 C 63.1781 -4.11273 1.05143 0
M  V30 671 C 61.0851 -4.94265 3.2474 0
M  V30 672 H 60.0151 -0.702622 0.273565 0
M  V30 673 H 62.6661 -1.33601 1.25789 0
M  V30 674 H 61.0481 -3.9 0.686703 0
M  V30 675 H 62.2221 -3.08153 3.42605 0
M  V30 676 H 60.5371 -2.90022 2.98791 0
M  V30 677 H 63.1341 -5.16689 1.37611 0
M  V30 678 H 63.4771 -4.16298 -0.0112774 0
M  V30 679 H 64.0101 -3.63987 1.60495 0
M  V30 680 H 60.7491 -4.94408 4.30396 0
M  V30 681 H 60.2691 -5.38172 2.64823 0
M  V30 682 H 61.9481 -5.62987 3.18834 0
M  V30 683 N 62.0802 -0.821533 -1.34494 0
M  V30 684 C 63.3262 -0.409552 -1.98622 0
M  V30 685 C 63.6592 1.0244 -1.64984 0
M  V30 686 O 62.9342 1.71325 -0.920758 0
M  V30 687 C 63.2172 -0.610458 -3.54888 0
M  V30 688 C 63.0702 -2.09043 -3.98273 0
M  V30 689 C 64.3892 -0.0455379 -4.40076 0
M  V30 690 H 61.5082 -0.15028 -0.721516 0
M  V30 691 H 64.1502 -1.03384 -1.59411 0
M  V30 692 H 62.3002 -0.079044 -3.8842 0
M  V30 693 H 63.9722 -2.68537 -3.75081 0
M  V30 694 H 62.2152 -2.58139 -3.48635 0
M  V30 695 H 62.8862 -2.18182 -5.07051 0
M  V30 696 H 65.3622 -0.499557 -4.1309 0
M  V30 697 H 64.2382 -0.215922 -5.48475 0
M  V30 698 H 64.4992 1.04939 -4.29465 0
M  V30 699 N 63.5583 1.46682 -0.576371 0
M  V30 700 C 64.5053 2.30241 0.160499 0
M  V30 701 C 65.4753 1.40233 0.890162 0
M  V30 702 O 66.6603 1.69186 0.882084 0
M  V30 703 C 63.8003 3.24578 1.1723 0
M  V30 704 C 62.9133 4.29684 0.446736 0
M  V30 705 C 62.0483 5.11154 1.44551 0
M  V30 706 C 61.0873 6.08015 0.70599 0
M  V30 707 N 60.2243 6.82376 1.65251 0
M  V30 708 H 65.0643 2.92727 -0.558127 0
M  V30 709 H 62.6013 1.44272 -0.287056 0
M  V30 710 H 64.5593 3.77711 1.77172 0
M  V30 711 H 63.1893 2.63916 1.85872 0
M  V30 712 H 62.2413 3.79458 -0.267594 0
M  V30 713 H 63.5533 4.98626 -0.131686 0
M  V30 714 H 62.7073 5.68533 2.11791 0
M  V30 715 H 61.4463 4.42158 2.05786 0
M  V30 716 H 60.4513 5.49796 0.0197725 0
M  V30 717 H 61.6763 6.79028 0.09912 0
M  V30 718 H 59.6223 6.16094 2.25308 0
M  V30 719 H 59.5393 7.47556 1.12673 0
M  V30 720 H 60.8073 7.44316 2.31546 0
M  V30 721 N 65.0364 0.313813 1.54444 0
M  V30 722 C 65.9844 -0.572171 2.25453 0
M  V30 723 C 66.9784 -1.12657 1.2651 0
M  V30 724 O 68.1844 -1.07573 1.44319 0
M  V30 725 H 64.5594 -0.203146 0.724041 0
M  V30 726 H 66.5304 0.0491145 2.9836 0
M  V30 727 C 65.2794 -1.72626 3.0182 0
M  V30 728 H 64.6024 -1.30891 3.77767 0
M  V30 729 H 66.0424 -2.32199 3.54767 0
M  V30 730 C 64.5014 -2.63806 2.09542 0
M  V30 731 O 65.0314 -3.65256 1.67185 0
M  V30 732 N 63.2374 -2.31824 1.75232 0
M  V30 733 H 62.7844 -1.49368 2.09873 0
M  V30 734 H 62.7424 -2.93095 1.13767 0
M  V30 735 N 66.5145 -1.57545 0.0417849 0
M  V30 736 C 67.7625 -1.91937 -0.632829 0
M  V30 737 C 68.0835 -0.919978 -1.71934 0
M  V30 738 O 67.3535 0.0366064 -1.95866 0
M  V30 739 H 65.9335 -0.708493 -0.236742 0
M  V30 740 H 68.5955 -1.9468 0.0925745 0
M  V30 741 H 67.6915 -2.92912 -1.07746 0
M  V30 742 N 67.9926 0.231505 -1.5589 0
M  V30 743 C 69.4086 0.580748 -1.48659 0
M  V30 744 C 69.6086 1.87617 -0.73498 0
M  V30 745 O 68.6646 2.51046 -0.270586 0
M  V30 746 C 69.9776 0.669202 -2.93159 0
M  V30 747 C 71.5256 0.760499 -3.03621 0
M  V30 748 C 72.0006 0.880383 -4.49459 0
M  V30 749 N 73.4916 0.944861 -4.53461 0
M  V30 750 C 74.2266 1.05716 -5.63571 0
M  V30 751 N 73.7226 1.13403 -6.83456 0
M  V30 752 N 75.5156 1.09152 -5.514 0
M  V30 753 H 67.6666 -0.618695 -2.03189 0
M  V30 754 H 69.9296 -0.215728 -0.923128 0
M  V30 755 H 69.6356 -0.212904 -3.51055 0
M  V30 756 H 69.5096 1.5361 -3.44505 0
M  V30 757 H 71.8966 1.63305 -2.45796 0
M  V30 758 H 71.9776 -0.131864 -2.5546 0
M  V30 759 H 71.6216 0.0123284 -5.07899 0
M  V30 760 H 71.5516 1.78802 -4.95316 0
M  V30 761 H 74.0426 0.896176 -3.6712 0
M  V30 762 H 74.3556 1.21921 -7.63122 0
M  V30 763 H 72.7006 1.10333 -6.86186 0
M  V30 764 H 75.8916 1.02805 -4.56671 0
M  V30 765 H 76.0646 1.17558 -6.37247 0
M  V30 766 N 69.4707 1.49531 0.497807 0
M  V30 767 C 70.8817 1.52344 1.07927 0
M  V30 768 C 71.2327 0.311469 1.93712 0
M  V30 769 O 70.3577 -0.578405 2.08527 0
M  V30 770 C 70.9527 2.76062 1.96405 0
M  V30 771 C 69.5117 2.81643 2.49709 0
M  V30 772 C 68.6587 2.46299 1.27404 0
M  V30 773 H 71.6097 1.56182 0.281576 0
M  V30 774 H 71.6307 2.56405 2.81135 0
M  V30 775 H 71.1427 3.64254 1.33943 0
M  V30 776 H 69.2437 1.97739 3.15801 0
M  V30 777 H 69.3567 3.83891 2.86643 0
M  V30 778 H 67.7207 1.98148 1.60029 0
M  V30 779 H 68.5037 3.36769 0.66645 0
M  V30 780 N 70.9488 -0.749086 1.3866 0
M  V30 781 C 72.3598 -1.32664 1.31366 0
M  V30 782 C 72.7108 -1.96179 -0.028484 0
M  V30 783 O 71.8358 -1.9537 -0.93057 0
M  V30 784 C 72.4308 -2.41219 2.37905 0
M  V30 785 C 70.9898 -2.94684 2.34176 0
M  V30 786 C 70.1368 -1.68108 2.20533 0
M  V30 787 H 73.0878 -0.547628 1.48952 0
M  V30 788 H 73.1088 -3.21268 2.0388 0
M  V30 789 H 72.6208 -1.94962 3.35576 0
M  V30 790 H 70.7218 -3.45258 1.401 0
M  V30 791 H 70.8348 -3.48757 3.2849 0
M  V30 792 H 69.1988 -1.91907 1.67463 0
M  V30 793 H 69.9818 -1.23923 3.20153 0
M  V30 794 N 72.4269 -1.23603 -0.977757 0
M  V30 795 C 73.6549 -1.09646 -1.75458 0
M  V30 796 C 74.0699 0.351859 -1.85492 0
M  V30 797 O 73.4269 1.24327 -1.336 0
M  V30 798 C 73.4779 -1.71895 -3.18016 0
M  V30 799 O 73.1989 -3.11063 -3.08498 0
M  V30 800 C 74.6999 -1.63415 -4.12081 0
M  V30 801 H 71.9199 -0.38359 -0.550545 0
M  V30 802 H 74.4639 -1.63507 -1.22824 0
M  V30 803 H 72.6189 -1.22061 -3.67668 0
M  V30 804 H 73.0329 -3.41305 -3.9826 0
M  V30 805 H 74.5069 -2.11669 -5.09804 0
M  V30 806 H 74.9839 -0.593462 -4.35172 0
M  V30 807 H 75.5899 -2.12628 -3.68334 0
M  V30 808 N 73.905 1.17692 -1.04816 0
M  V30 809 C 75.13 1.92327 -0.776207 0
M  V30 810 C 75.555 1.76082 0.661581 0
M  V30 811 O 74.913 1.076 1.45917 0
M  V30 812 C 74.961 3.41539 -1.15687 0
M  V30 813 O 74.065 4.11402 -0.286775 0
M  V30 814 H 73.406 0.599735 -0.284981 0
M  V30 815 H 75.936 1.49201 -1.4 0
M  V30 816 H 75.946 3.92269 -1.12202 0
M  V30 817 H 74.621 3.52684 -2.20425 0
M  V30 818 H 73.198 3.70939 -0.381903 0
M  V30 819 N 75.3831 0.828654 1.34056 0
M  V30 820 C 76.3331 0.226828 2.26869 0
M  V30 821 C 77.3171 -0.612243 1.48796 0
M  V30 822 O 78.5091 -0.465884 1.70759 0
M  V30 823 C 75.6381 -0.605654 3.37915 0
M  V30 824 C 74.7241 0.244361 4.23395 0
M  V30 825 N 75.1151 1.31815 4.88322 0
M  V30 826 C 73.4131 0.0296616 4.4599 0
M  V30 827 C 74.1141 1.83895 5.51867 0
M  V30 828 N 73.0901 1.14196 5.3147 0
M  V30 829 H 76.8921 1.04811 2.74576 0
M  V30 830 H 74.4061 0.67205 1.47842 0
M  V30 831 H 76.4031 -1.05302 4.03382 0
M  V30 832 H 75.0631 -1.42504 2.91758 0
M  V30 833 H 76.0741 1.70099 4.8917 0
M  V30 834 H 72.7511 -0.757097 4.10578 0
M  V30 835 H 74.1411 2.7376 6.136 0
M  V30 836 N 76.8612 -1.46375 0.584142 0
M  V30 837 C 78.0862 -2.07268 0.0740405 0
M  V30 838 C 78.5112 -1.42979 -1.22223 0
M  V30 839 O 77.8692 -0.514092 -1.73859 0
M  V30 840 C 77.9172 -3.60518 -0.0767769 0
M  V30 841 O 77.0212 -3.96533 -1.13292 0
M  V30 842 H 76.3622 -0.660961 0.0634524 0
M  V30 843 H 78.8922 -1.87991 0.807492 0
M  V30 844 H 78.9022 -4.07021 -0.282489 0
M  V30 845 H 77.5772 -4.06702 0.86986 0
M  V30 846 H 76.1542 -3.61738 -0.905553 0
M  V30 847 N 78.3393 -0.321999 -1.54275 0
M  V30 848 C 79.2723 0.58718 -2.20516 0
M  V30 849 C 80.2503 1.11693 -1.18167 0
M  V30 850 O 81.4343 1.18122 -1.46899 0
M  V30 851 C 78.5613 1.80554 -2.86562 0
M  V30 852 C 77.6073 1.40718 -4.02617 0
M  V30 853 S 78.4403 0.445218 -5.33646 0
M  V30 854 C 79.5963 1.6709 -6.03185 0
M  V30 855 H 79.8293 0.0244875 -2.9729 0
M  V30 856 H 77.3623 -0.106087 -1.54035 0
M  V30 857 H 79.3203 2.50462 -3.25237 0
M  V30 858 H 77.9813 2.33942 -2.09595 0
M  V30 859 H 77.1743 2.31501 -4.47687 0
M  V30 860 H 76.7763 0.78782 -3.65608 0
M  V30 861 H 79.0683 2.60856 -6.25268 0
M  V30 862 H 80.0113 1.26239 -6.96756 0
M  V30 863 H 80.4193 1.85716 -5.33076 0
M  V30 864 N 79.8174 1.5752 -0.0501392 0
M  V30 865 C 80.7674 2.07981 0.934231 0
M  V30 866 C 81.7514 0.984745 1.27246 0
M  V30 867 O 82.9434 1.24809 1.25506 0
M  V30 868 C 80.0724 2.62751 2.20945 0
M  V30 869 C 79.1584 3.79225 1.89865 0
M  V30 870 N 79.5494 4.89036 1.29142 0
M  V30 871 C 77.8474 3.88111 2.19741 0
M  V30 872 C 78.5484 5.70084 1.15669 0
M  V30 873 N 77.5244 5.17659 1.65923 0
M  V30 874 H 81.3264 2.90277 0.460053 0
M  V30 875 H 78.8404 1.61665 0.15434 0
M  V30 876 H 80.8374 2.97205 2.9236 0
M  V30 877 H 79.4974 1.81894 2.6897 0
M  V30 878 H 80.5084 5.08854 0.963756 0
M  V30 879 H 77.1854 3.18194 2.70293 0
M  V30 880 H 78.5754 6.68395 0.685356 0
M  V30 881 N 81.2955 -0.223234 1.56011 0
M  V30 882 C 82.5205 -0.968978 1.83373 0
M  V30 883 C 82.9455 -1.77227 0.630254 0
M  V30 884 O 82.3035 -1.76345 -0.420959 0
M  V30 885 C 82.3515 -1.86363 3.08709 0
M  V30 886 O 81.4555 -2.95873 2.87285 0
M  V30 887 H 80.7965 -0.274461 0.604622 0
M  V30 888 H 83.3265 -0.237056 2.03222 0
M  V30 889 H 83.3365 -2.27376 3.38768 0
M  V30 890 H 82.0115 -1.27319 3.95933 0
M  V30 891 H 80.5885 -2.58818 2.68454 0
M  V30 892 N 82.7736 -1.49793 -0.48987 0
M  V30 893 C 84.0206 -1.59841 -1.24327 0
M  V30 894 C 84.3486 -0.290135 -1.92324 0
M  V30 895 O 83.6036 0.722749 -1.81865 0
M  V30 896 C 83.9026 -2.71488 -2.32441 0
M  V30 897 C 83.5686 -4.12614 -1.81826 0
M  V30 898 C 82.2306 -4.51017 -1.67742 0
M  V30 899 C 84.5826 -5.00892 -1.4407 0
M  V30 900 C 81.9106 -5.75459 -1.14297 0
M  V30 901 C 84.2626 -6.25863 -0.920742 0
M  V30 902 C 82.9266 -6.63086 -0.766383 0
M  V30 903 H 82.1966 -0.584899 -0.454944 0
M  V30 904 H 84.8436 -1.83663 -0.542215 0
M  V30 905 H 83.1486 -2.4168 -3.0838 0
M  V30 906 H 84.8456 -2.76469 -2.90458 0
M  V30 907 H 81.4356 -3.82307 -1.93751 0
M  V30 908 H 85.6196 -4.7187 -1.53794 0
M  V30 909 H 80.8756 -6.02989 -1.01068 0
M  V30 910 H 85.0496 -6.9364 -0.619448 0
M  V30 911 H 82.6766 -7.59393 -0.350083 0
M  V30 912 N 84.2517 0.741722 -1.39055 0
M  V30 913 C 85.1817 1.869 -1.39966 0
M  V30 914 C 86.1627 1.6804 -0.26392 0
M  V30 915 O 87.3477 1.88458 -0.468755 0
M  V30 916 C 84.4777 3.24572 -1.23574 0
M  V30 917 C 83.4317 3.58056 -2.34477 0
M  V30 918 C 82.7577 4.94593 -2.0318 0
M  V30 919 C 84.0577 3.61716 -3.76774 0
M  V30 920 H 85.7517 1.86395 -2.34302 0
M  V30 921 H 83.2977 0.895361 -1.1278 0
M  V30 922 H 85.2507 4.031 -1.22834 0
M  V30 923 H 83.9747 3.25587 -0.257045 0
M  V30 924 H 82.6337 2.81854 -2.34423 0
M  V30 925 H 82.2817 4.92181 -1.03765 0
M  V30 926 H 81.9817 5.17964 -2.77465 0
M  V30 927 H 83.5057 5.75486 -2.04079 0
M  V30 928 H 84.9197 4.30335 -3.78794 0
M  V30 929 H 83.3167 3.96603 -4.50362 0
M  V30 930 H 84.3867 2.61672 -4.08235 0
M  V30 931 N 85.7298 1.2412 0.971189 0
M  V30 932 C 86.6798 0.997551 2.05019 0
M  V30 933 C 87.6638 -0.0597747 1.60789 0
M  V30 934 O 88.8558 0.153516 1.76333 0
M  V30 935 C 85.9848 0.600557 3.38006 0
M  V30 936 C 85.0708 1.69377 3.88809 0
M  V30 937 N 85.4618 2.92586 4.12586 0
M  V30 938 C 83.7598 1.57048 4.17435 0
M  V30 939 C 84.4608 3.63431 4.54195 0
M  V30 940 N 83.4368 2.90979 4.59165 0
M  V30 941 H 87.2388 1.93316 2.21374 0
M  V30 942 H 84.7528 1.14194 1.1547 0
M  V30 943 H 86.7498 0.40725 4.14906 0
M  V30 944 H 85.4098 -0.327903 3.2304 0
M  V30 945 H 86.4208 3.288 4.00139 0
M  V30 946 H 83.0978 0.709798 4.11422 0
M  V30 947 H 84.4878 4.69102 4.81033 0
M  V30 948 N 87.2079 -1.17134 1.05439 0
M  V30 949 C 88.1399 -2.2078 0.615539 0
M  V30 950 C 89.1529 -1.59584 -0.322001 0
M  V30 951 O 90.3419 -1.78133 -0.114344 0
M  V30 952 C 87.4419 -3.38691 -0.118938 0
M  V30 953 C 86.6149 -4.29454 0.829924 0
M  V30 954 C 85.6739 -5.26024 0.136258 0
M  V30 955 O 84.6999 -5.63952 0.77115 0
M  V30 956 N 85.9019 -5.69487 -1.1254 0
M  V30 957 H 88.6669 -2.59052 1.50705 0
M  V30 958 H 86.2279 -1.32058 0.936603 0
M  V30 959 H 88.2199 -4.00329 -0.593179 0
M  V30 960 H 86.7899 -2.98996 -0.91215 0
M  V30 961 H 86.0099 -3.65211 1.48373 0
M  V30 962 H 87.2979 -4.86984 1.47392 0
M  V30 963 H 86.6959 -5.4075 -1.6615 0
M  V30 964 H 85.2529 -6.33257 -1.54366 0
M  V30 965 N 88.686 -0.835752 -1.33615 0
M  V30 966 C 89.916 -0.442701 -2.01801 0
M  V30 967 C 90.324 0.959807 -1.63047 0
M  V30 968 O 89.667 1.63468 -0.838088 0
M  V30 969 C 89.729 -0.480125 -3.56279 0
M  V30 970 C 89.393 -1.8382 -4.18401 0
M  V30 971 C 90.39 -2.80097 -4.37998 0
M  V30 972 C 88.075 -2.13019 -4.54894 0
M  V30 973 C 90.069 -4.03736 -4.9323 0
M  V30 974 C 87.756 -3.36916 -5.09834 0
M  V30 975 C 88.754 -4.32091 -5.28948 0
M  V30 976 O 88.442 -5.53797 -5.82721 0
M  V30 977 H 88.174 -0.17441 -0.653114 0
M  V30 978 H 90.728 -1.129 -1.71589 0
M  V30 979 H 88.958 0.262931 -3.85805 0
M  V30 980 H 90.647 -0.105335 -4.05763 0
M  V30 981 H 91.413 -2.58838 -4.10156 0
M  V30 982 H 87.292 -1.39733 -4.39313 0
M  V30 983 H 90.836 -4.78034 -5.08064 0
M  V30 984 H 86.733 -3.58033 -5.37106 0
M  V30 985 H 87.501 -5.55494 -6.0114 0
M  V30 986 N 90.1641 1.46063 -0.591896 0
M  V30 987 C 91.3921 2.06717 -0.0868936 0
M  V30 988 C 91.8071 1.43916 1.22203 0
M  V30 989 O 91.1641 0.547698 1.74088 0
M  V30 990 C 91.2151 3.6142 0.0758725 0
M  V30 991 O 90.9361 4.21874 -1.18126 0
M  V30 992 C 92.4371 4.39025 0.61416 0
M  V30 993 H 89.6571 0.668162 -0.0616518 0
M  V30 994 H 92.2011 1.8755 -0.815175 0
M  V30 995 H 90.3561 3.79983 0.754413 0
M  V30 996 H 90.7701 5.14861 -1.00092 0
M  V30 997 H 92.2441 5.4783 0.677193 0
M  V30 998 H 92.7211 4.07708 1.63312 0
M  V30 999 H 93.3271 4.2529 -0.0298142 0
M  V30 1000 N 91.6422 0.330177 1.54103 0
M  V30 1001 C 92.8902 -0.269871 2.0029 0
M  V30 1002 C 93.2112 -1.52133 1.21986 0
M  V30 1003 O 92.4812 -1.93212 0.323438 0
M  V30 1004 H 91.0612 -0.10271 0.739905 0
M  V30 1005 H 93.7232 0.448249 1.89675 0
M  V30 1006 H 92.8192 -0.52166 3.07709 0
M  V30 1007 N 93.1203 -1.57491 0.0584922 0
M  V30 1008 C 94.3453 -1.97711 -0.62652 0
M  V30 1009 C 94.7703 -0.936132 -1.63151 0
M  V30 1010 O 94.1283 0.099811 -1.81025 0
M  V30 1011 C 94.1763 -3.36989 -1.28338 0
M  V30 1012 O 93.2803 -3.35433 -2.39913 0
M  V30 1013 H 92.6213 -0.643868 -0.162266 0
M  V30 1014 H 95.1513 -2.04193 0.129064 0
M  V30 1015 H 95.1613 -3.73879 -1.63335 0
M  V30 1016 H 93.8363 -4.12289 -0.546889 0
M  V30 1017 H 92.4133 -3.10298 -2.06809 0
M  V30 1018 N 94.5984 0.214957 -1.56127 0
M  V30 1019 C 95.8454 0.938372 -1.79446 0
M  V30 1020 C 96.1734 1.8407 -0.628378 0
M  V30 1021 O 95.4284 1.91837 0.386925 0
M  V30 1022 C 95.7274 1.80314 -3.0858 0
M  V30 1023 C 95.3934 1.05349 -4.3842 0
M  V30 1024 C 94.0554 0.846435 -4.73697 0
M  V30 1025 C 96.4074 0.524588 -5.18553 0
M  V30 1026 C 93.7354 0.098683 -5.86617 0
M  V30 1027 C 96.0874 -0.209853 -6.32252 0
M  V30 1028 C 94.7514 -0.428102 -6.66126 0
M  V30 1029 H 94.0214 0.343375 -0.656639 0
M  V30 1030 H 96.6684 0.206077 -1.90388 0
M  V30 1031 H 94.9734 2.6035 -2.92789 0
M  V30 1032 H 96.6704 2.36513 -3.23825 0
M  V30 1033 H 93.2604 1.22486 -4.10725 0
M  V30 1034 H 97.4444 0.672008 -4.91729 0
M  V30 1035 H 92.7004 -0.0805753 -6.11347 0
M  V30 1036 H 96.8744 -0.627157 -6.9357 0
M  V30 1037 H 94.5014 -1.00944 -7.53468 0
M  V30 1038 N 96.0765 1.50051 0.48192 0
M  V30 1039 C 97.0235 1.68122 1.58125 0
M  V30 1040 C 97.9935 0.522545 1.57666 0
M  V30 1041 O 99.1785 0.751844 1.75362 0
M  V30 1042 C 96.3185 1.77142 2.96167 0
M  V30 1043 C 95.4315 3.0444 3.06497 0
M  V30 1044 C 94.5665 3.04321 4.35387 0
M  V30 1045 C 93.6055 4.26118 4.3942 0
M  V30 1046 N 92.7425 4.238 5.59766 0
M  V30 1047 H 97.5825 2.6198 1.42022 0
M  V30 1048 H 95.1195 1.29877 0.690687 0
M  V30 1049 H 97.0775 1.80352 3.76203 0
M  V30 1050 H 95.7075 0.867329 3.1093 0
M  V30 1051 H 94.7595 3.10752 2.19402 0
M  V30 1052 H 96.0715 3.94426 3.05336 0
M  V30 1053 H 95.2255 3.062 5.23762 0
M  V30 1054 H 93.9645 2.12147 4.39141 0
M  V30 1055 H 92.9695 4.24463 3.49444 0
M  V30 1056 H 94.1945 5.19507 4.37366 0
M  V30 1057 H 92.1405 3.34474 5.64326 0
M  V30 1058 H 92.0575 5.07542 5.60301 0
M  V30 1059 H 93.3255 4.2981 6.50295 0
M  V30 1060 N 97.5546 -0.734337 1.39446 0
M  V30 1061 C 98.5016 -1.84835 1.38219 0
M  V30 1062 C 99.4716 -1.64331 0.24179 0
M  V30 1063 O 100.657 -1.85728 0.437002 0
M  V30 1064 C 97.7966 -3.22355 1.23212 0
M  V30 1065 C 96.9096 -3.5456 2.46801 0
M  V30 1066 C 96.0446 -4.81485 2.24377 0
M  V30 1067 C 95.0836 -5.06536 3.43639 0
M  V30 1068 N 94.2206 -6.24665 3.20528 0
M  V30 1069 H 99.0606 -1.85219 2.33448 0
M  V30 1070 H 96.5976 -0.905039 1.15963 0
M  V30 1071 H 98.5556 -4.0174 1.12522 0
M  V30 1072 H 97.1856 -3.21248 0.316121 0
M  V30 1073 H 96.2376 -2.69872 2.68092 0
M  V30 1074 H 97.5496 -3.6899 3.3563 0
M  V30 1075 H 96.7036 -5.68852 2.10933 0
M  V30 1076 H 95.4426 -4.6923 1.32944 0
M  V30 1077 H 94.4476 -4.17632 3.5758 0
M  V30 1078 H 95.6726 -5.20676 4.35974 0
M  V30 1079 H 93.6186 -6.13696 2.3176 0
M  V30 1080 H 93.5356 -6.39685 4.02913 0
M  V30 1081 H 94.8036 -7.14868 3.10779 0
M  V30 1082 N 99.0327 -1.24633 -0.964593 0
M  V30 1083 C 100.444 -1.08045 -1.5226 0
M  V30 1084 C 100.795 0.347116 -1.93105 0
M  V30 1085 O 99.9197 1.23588 -1.77637 0
M  V30 1086 C 100.515 -1.95514 -2.76695 0
M  V30 1087 C 99.0737 -1.8314 -3.28841 0
M  V30 1088 C 98.2207 -1.90262 -2.01732 0
M  V30 1089 H 101.172 -1.38064 -0.782553 0
M  V30 1090 H 101.193 -1.48925 -3.50145 0
M  V30 1091 H 100.705 -2.99407 -2.46936 0
M  V30 1092 H 98.8057 -0.82092 -3.63444 0
M  V30 1093 H 98.9187 -2.67406 -3.97531 0
M  V30 1094 H 97.2827 -1.34027 -2.16584 0
M  V30 1095 H 98.0657 -2.9574 -1.74334 0
M  V30 1096 N 100.511 1.16574 -1.06058 0
M  V30 1097 C 101.922 1.68662 -0.800632 0
M  V30 1098 C 102.273 1.84184 0.67608 0
M  V30 1099 O 101.398 1.53568 1.52466 0
M  V30 1100 C 101.993 3.06356 -1.44676 0
M  V30 1101 C 100.552 3.55575 -1.23465 0
M  V30 1102 C 99.6988 2.31616 -1.52477 0
M  V30 1103 H 102.65 1.00969 -1.22438 0
M  V30 1104 H 102.671 3.70636 -0.860788 0
M  V30 1105 H 102.183 2.95027 -2.52152 0
M  V30 1106 H 100.284 3.72167 -0.179527 0
M  V30 1107 H 100.397 4.37812 -1.94571 0
M  V30 1108 H 98.7608 2.36512 -0.945209 0
M  V30 1109 H 99.5438 2.22887 -2.61106 0
M  V30 1110 N 101.989 0.842826 1.3317 0
M  V30 1111 C 102.919 0.294028 2.31641 0
M  V30 1112 C 103.9 -0.600401 1.59151 0
M  V30 1113 O 105.085 -0.523124 1.87022 0
M  V30 1114 C 102.215 -0.528416 3.43257 0
M  V30 1115 C 101.169 0.27056 4.27144 0
M  V30 1116 C 100.495 -0.675881 5.30411 0
M  V30 1117 C 101.795 1.48981 5.00602 0
M  V30 1118 H 103.489 1.11681 2.77791 0
M  V30 1119 H 101.035 0.538478 1.33553 0
M  V30 1120 H 102.988 -0.922674 4.11175 0
M  V30 1121 H 101.712 -1.38445 2.95805 0
M  V30 1122 H 100.371 0.646427 3.60856 0
M  V30 1123 H 100.019 -1.52842 4.79216 0
M  V30 1124 H 99.7189 -0.145374 5.8742 0
M  V30 1125 H 101.243 -1.06757 6.01195 0
M  V30 1126 H 102.657 1.16849 5.61266 0
M  V30 1127 H 101.054 1.95739 5.6728 0
M  V30 1128 H 102.124 2.25746 4.29147 0
M  V30 1129 N 103.467 -1.45747 0.599634 0
M  V30 1130 C 104.883 -1.57424 0.26264 0
M  V30 1131 C 105.083 -1.59222 -1.23493 0
M  V30 1132 O 104.139 -1.51825 -2.01756 0
M  V30 1133 C 105.452 -2.86061 0.926795 0
M  V30 1134 C 107 -2.99722 0.901967 0
M  V30 1135 C 107.475 -4.31119 1.54598 0
M  V30 1136 N 108.966 -4.37858 1.5111 0
M  V30 1137 C 109.701 -5.3818 1.97863 0
M  V30 1138 N 109.197 -6.45083 2.52666 0
M  V30 1139 N 110.99 -5.29487 1.88679 0
M  V30 1140 H 103.141 -1.42823 1.57211 0
M  V30 1141 H 105.404 -0.68235 0.658105 0
M  V30 1142 H 105.11 -2.90605 1.98095 0
M  V30 1143 H 104.984 -3.74563 0.445238 0
M  V30 1144 H 107.371 -2.9475 -0.143617 0
M  V30 1145 H 107.452 -2.12652 1.42171 0
M  V30 1146 H 107.096 -4.36849 2.59085 0
M  V30 1147 H 107.026 -5.16992 1.00132 0
M  V30 1148 H 109.517 -3.61209 1.11068 0
M  V30 1149 H 109.83 -7.17869 2.86155 0
M  V30 1150 H 108.175 -6.45856 2.56701 0
M  V30 1151 H 111.366 -4.44877 1.4561 0
M  V30 1152 H 111.539 -6.07524 2.25429 0
M  V30 1153 N 104.945 -0.338344 -1.53925 0
M  V30 1154 C 106.361 0.0137736 -1.59594 0
M  V30 1155 C 106.561 1.49186 -1.35447 0
M  V30 1156 O 105.617 2.24987 -1.14616 0
M  V30 1157 C 106.93 -0.41773 -2.97784 0
M  V30 1158 C 108.478 -0.369633 -3.1081 0
M  V30 1159 C 108.953 -0.776524 -4.51369 0
M  V30 1160 N 110.444 -0.730506 -4.57403 0
M  V30 1161 C 111.179 -1.01736 -5.64303 0
M  V30 1162 N 110.675 -1.3721 -6.79077 0
M  V30 1163 N 112.468 -0.941942 -5.54151 0
M  V30 1164 H 104.619 -1.3012 -1.67876 0
M  V30 1165 H 106.882 -0.530082 -0.78595 0
M  V30 1166 H 106.588 -1.44811 -3.20504 0
M  V30 1167 H 106.462 0.209729 -3.76616 0
M  V30 1168 H 108.849 0.651568 -2.87817 0
M  V30 1169 H 108.93 -1.03223 -2.34049 0
M  V30 1170 H 108.574 -1.79571 -4.75096 0
M  V30 1171 H 108.504 -0.0914649 -5.26521 0
M  V30 1172 H 110.995 -0.468783 -3.74981 0
M  V30 1173 H 111.308 -1.57597 -7.5656 0
M  V30 1174 H 109.653 -1.4105 -6.80536 0
M  V30 1175 H 112.844 -0.664184 -4.63364 0
M  V30 1176 H 113.017 -1.16884 -6.37371 0
M  V30 1177 N 106.423 1.57458 -0.0668435 0
M  V30 1178 C 107.834 1.80776 0.466558 0
M  V30 1179 C 108.185 0.980361 1.69951 0
M  V30 1180 O 107.31 0.201441 2.1546 0
M  V30 1181 C 107.905 3.27881 0.85321 0
M  V30 1182 C 106.464 3.52062 1.3315 0
M  V30 1183 C 105.611 2.75513 0.314264 0
M  V30 1184 H 108.562 1.5598 -0.292588 0
M  V30 1185 H 108.583 3.39659 1.715 0
M  V30 1186 H 108.095 3.88075 -0.0443439 0
M  V30 1187 H 106.196 2.97167 2.24772 0
M  V30 1188 H 106.309 4.60762 1.31285 0
M  V30 1189 H 104.673 2.42123 0.790492 0
M  V30 1190 H 105.456 3.38442 -0.575477 0
M  V30 1191 N 107.901 -0.206675 1.56239 0
M  V30 1192 C 108.851 -1.26 1.90021 0
M  V30 1193 C 109.835 -1.41566 0.764721 0
M  V30 1194 O 111.027 -1.44131 1.02739 0
M  V30 1195 C 108.156 -2.6073 2.23326 0
M  V30 1196 C 107.242 -2.49005 3.43304 0
M  V30 1197 N 107.633 -2.06946 4.61527 0
M  V30 1198 C 105.931 -2.79927 3.47213 0
M  V30 1199 C 106.632 -2.06832 5.43687 0
M  V30 1200 N 105.608 -2.47892 4.83788 0
M  V30 1201 H 109.41 -0.925955 2.78932 0
M  V30 1202 H 106.924 -0.415172 1.57003 0
M  V30 1203 H 108.921 -3.36798 2.45708 0
M  V30 1204 H 107.581 -2.94968 1.35735 0
M  V30 1205 H 108.592 -1.77839 4.86409 0
M  V30 1206 H 105.269 -3.18438 2.70006 0
M  V30 1207 H 106.659 -1.76312 6.48354 0
M  V30 1208 N 109.379 -1.50304 -0.473955 0
M  V30 1209 C 110.604 -1.65175 -1.25427 0
M  V30 1210 C 111.029 -0.333673 -1.85117 0
M  V30 1211 O 110.387 0.702114 -1.67153 0
M  V30 1212 C 110.435 -2.74295 -2.34082 0
M  V30 1213 O 109.539 -2.35349 -3.38651 0
M  V30 1214 H 108.88 -0.551944 -0.369126 0
M  V30 1215 H 111.41 -1.96662 -0.564364 0
M  V30 1216 H 111.42 -2.97285 -2.79438 0
M  V30 1217 H 110.095 -3.69959 -1.90008 0
M  V30 1218 H 108.672 -2.22794 -2.99027 0
M  V30 1219 N 110.857 0.726932 -1.39834 0
M  V30 1220 C 112.103 1.48884 -1.377 0
M  V30 1221 C 112.436 1.94185 0.0244852 0
M  V30 1222 O 111.711 1.67361 0.990986 0
M  V30 1223 C 111.994 2.72288 -2.3565 0
M  V30 1224 C 111.847 2.32956 -3.84775 0
M  V30 1225 C 113.166 3.74414 -2.31306 0
M  V30 1226 H 110.285 0.540062 -0.5015 0
M  V30 1227 H 112.927 0.830547 -1.70886 0
M  V30 1228 H 111.077 3.28457 -2.07481 0
M  V30 1229 H 112.749 1.82356 -4.23726 0
M  V30 1230 H 110.992 1.65088 -4.01159 0
M  V30 1231 H 111.663 3.21362 -4.4881 0
M  V30 1232 H 114.139 3.27849 -2.56231 0
M  V30 1233 H 113.015 4.58414 -3.01907 0
M  V30 1234 H 113.276 4.21909 -1.32081 0
M  V30 1235 N 112.336 1.25143 0.95797 0
M  V30 1236 C 113.585 1.0909 1.69654 0
M  V30 1237 C 113.898 -0.368548 1.92097 0
M  V30 1238 O 115.104 -0.649455 2.63618 0
M  V30 1239 C 113.56 1.90395 3.05414 0
M  V30 1240 C 113.168 3.4081 2.90779 0
M  V30 1241 C 114.912 1.82901 3.83076 0
M  V30 1242 C 112.819 4.14423 4.21909 0
M  V30 1243 H 111.749 0.404625 0.636235 0
M  V30 1244 H 114.4 1.4931 1.06672 0
M  V30 1245 H 112.782 1.42996 3.69281 0
M  V30 1246 H 113.956 3.95859 2.35865 0
M  V30 1247 H 112.271 3.49361 2.26575 0
M  V30 1248 H 114.868 2.35196 4.80195 0
M  V30 1249 H 115.211 0.796224 4.08615 0
M  V30 1250 H 115.744 2.28033 3.25954 0
M  V30 1251 H 112.483 5.18102 4.01561 0
M  V30 1252 H 112.003 3.64159 4.76601 0
M  V30 1253 H 113.682 4.21956 4.90471 0
M  V30 1254 N 113.814 -1.1601 1.06675 0
M  V30 1255 C 115.062 -1.86264 0.784229 0
M  V30 1256 C 115.383 -1.82328 -0.691488 0
M  V30 1257 O 114.653 -1.25947 -1.50047 0
M  V30 1258 H 113.233 -0.689621 0.28711 0
M  V30 1259 H 115.895 -1.40664 1.34906 0
M  V30 1260 H 114.991 -2.91595 1.11259 0
M  V30 1261 N 115.292 -0.849877 -1.32721 0
M  V30 1262 C 116.54 -0.450032 -1.97026 0
M  V30 1263 C 116.861 0.996604 -1.67609 0
M  V30 1264 O 116.131 1.6958 -0.980786 0
M  V30 1265 H 114.711 -0.163426 -0.728904 0
M  V30 1266 H 117.373 -1.08526 -1.6189 0
M  V30 1267 H 116.469 -0.591146 -3.0645 0
M  V30 1268 N 116.77 1.45427 -0.607355 0
M  V30 1269 C 117.995 2.07124 -0.107006 0
M  V30 1270 C 118.42 1.44906 1.19933 0
M  V30 1271 O 117.778 0.541687 1.73019 0
M  V30 1272 C 117.826 3.60595 0.0194119 0
M  V30 1273 O 116.93 3.98285 1.0697 0
M  V30 1274 H 116.271 0.659868 -0.0739597 0
M  V30 1275 H 118.801 1.86683 -0.837297 0
M  V30 1276 H 118.811 4.07419 0.2177 0
M  V30 1277 H 117.486 4.05266 -0.934453 0
M  V30 1278 H 116.063 3.63133 0.847889 0
M  V30 1279 N 118.248 0.346503 1.53744 0
M  V30 1280 C 119.178 -0.501193 2.28058 0
M  V30 1281 C 120.159 -1.10014 1.29734 0
M  V30 1282 O 121.344 -1.12097 1.58581 0
M  V30 1283 C 118.474 -1.65078 3.05559 0
M  V30 1284 C 117.428 -1.18003 4.11411 0
M  V30 1285 C 116.754 -2.41837 4.76884 0
M  V30 1286 C 118.054 -0.278394 5.21558 0
M  V30 1287 H 119.748 0.11875 2.99164 0
M  V30 1288 H 117.294 0.0585531 1.43881 0
M  V30 1289 H 119.247 -2.25028 3.56287 0
M  V30 1290 H 117.971 -2.29767 2.32109 0
M  V30 1291 H 116.63 -0.603331 3.61601 0
M  V30 1292 H 116.278 -3.0494 4.00026 0
M  V30 1293 H 115.978 -2.1102 5.48402 0
M  V30 1294 H 117.502 -3.02508 5.30397 0
M  V30 1295 H 118.916 -0.784823 5.67903 0
M  V30 1296 H 117.313 -0.0619707 6.00068 0
M  V30 1297 H 118.383 0.684677 4.80042 0
M  V30 1298 N 119.726 -1.57421 0.075193 0
M  V30 1299 C 120.974 -1.93236 -0.591974 0
M  V30 1300 C 121.295 -0.956241 -1.69944 0
M  V30 1301 O 120.565 -0.00494792 -1.95899 0
M  V30 1302 H 119.145 -0.713355 -0.22166 0
M  V30 1303 H 121.807 -1.9444 0.133848 0
M  V30 1304 H 120.903 -2.95131 -1.01509 0
M  V30 1305 N 121.204 0.198386 -1.56346 0
M  V30 1306 C 122.429 0.939682 -1.84891 0
M  V30 1307 C 122.854 1.76202 -0.658369 0
M  V30 1308 O 122.212 1.76993 0.392851 0
M  V30 1309 C 122.26 1.81428 -3.11635 0
M  V30 1310 O 121.364 2.91265 -2.91956 0
M  V30 1311 H 120.705 0.264807 -0.608912 0
M  V30 1312 H 123.235 0.204695 -2.03573 0
M  V30 1313 H 123.245 2.21958 -3.42343 0
M  V30 1314 H 121.92 1.21004 -3.97908 0
M  V30 1315 H 120.497 2.54514 -2.72538 0
M  V30 1316 N 122.682 1.50554 0.465978 0
M  V30 1317 C 123.929 1.61798 1.21768 0
M  V30 1318 C 124.257 0.320696 1.91838 0
M  V30 1319 O 123.512 -0.693724 1.82992 0
M  V30 1320 C 123.811 2.75152 2.28093 0
M  V30 1321 C 123.477 4.15454 1.75239 0
M  V30 1322 C 122.139 4.53628 1.60546 0
M  V30 1323 C 124.491 5.03121 1.36083 0
M  V30 1324 C 121.819 5.77204 1.05128 0
M  V30 1325 C 124.171 6.27249 0.821056 0
M  V30 1326 C 122.835 6.64221 0.660795 0
M  V30 1327 H 122.105 0.592063 0.445582 0
M  V30 1328 H 124.752 1.84503 0.512927 0
M  V30 1329 H 123.057 2.46556 3.04496 0
M  V30 1330 H 124.754 2.81055 2.86023 0
M  V30 1331 H 121.344 3.85341 1.87644 0
M  V30 1332 H 125.528 4.74257 1.46267 0
M  V30 1333 H 120.784 6.0452 0.91462 0
M  V30 1334 H 124.958 6.94537 0.509018 0
M  V30 1335 H 122.585 7.59854 0.229226 0
M  V30 1336 N 124.16 -0.719506 1.40217 0
M  V30 1337 C 125.093 -1.84298 1.34571 0
M  V30 1338 C 126.071 -1.61149 0.216741 0
M  V30 1339 O 127.255 -1.84212 0.399756 0
M  V30 1340 C 124.382 -3.20568 1.09335 0
M  V30 1341 C 123.428 -3.62551 2.24631 0
M  V30 1342 S 124.261 -3.7012 3.87004 0
M  V30 1343 C 125.417 -5.09154 3.64024 0
M  V30 1344 H 125.65 -1.88807 2.2965 0
M  V30 1345 H 123.183 -0.885901 1.26456 0
M  V30 1346 H 125.141 -3.99246 0.954602 0
M  V30 1347 H 123.802 -3.13696 0.159164 0
M  V30 1348 H 122.995 -4.61483 2.02606 0
M  V30 1349 H 122.597 -2.91119 2.34789 0
M  V30 1350 H 124.889 -5.95955 3.22248 0
M  V30 1351 H 125.832 -5.36213 4.62473 0
M  V30 1352 H 126.24 -4.79562 2.97793 0
M  V30 1353 N 125.638 -1.25649 -0.95132 0
M  V30 1354 C 126.601 -1.06399 -2.03007 0
M  V30 1355 C 127.601 -0.0156794 -1.60792 0
M  V30 1356 O 128.791 -0.25817 -1.72276 0
M  V30 1357 C 125.923 -0.616184 -3.35285 0
M  V30 1358 H 127.116 -2.02164 -2.21517 0
M  V30 1359 H 124.669 -1.08103 -1.12887 0
M  V30 1360 H 125.404 0.343917 -3.22471 0
M  V30 1361 H 125.189 -1.37301 -3.67275 0
M  V30 1362 H 126.679 -0.503032 -4.14559 0
M  V30 1363 N 127.117 1.15442 -1.07289 0
M  V30 1364 C 128.05 2.19135 -0.636798 0
M  V30 1365 C 129.028 1.58884 0.34562 0
M  V30 1366 O 130.212 1.86805 0.252195 0
M  V30 1367 C 127.339 3.38638 0.0650014 0
M  V30 1368 C 126.385 4.17412 -0.87576 0
M  V30 1369 S 127.218 4.79882 -2.37642 0
M  V30 1370 C 128.374 6.02753 -1.6864 0
M  V30 1371 H 128.607 2.55787 -1.51526 0
M  V30 1372 H 126.14 1.26394 -0.886793 0
M  V30 1373 H 128.098 4.07873 0.463664 0
M  V30 1374 H 126.759 3.00331 0.919801 0
M  V30 1375 H 125.952 5.02909 -0.33143 0
M  V30 1376 H 125.554 3.53722 -1.21478 0
M  V30 1377 H 127.846 6.70113 -0.997753 0
M  V30 1378 H 128.789 6.61754 -2.51967 0
M  V30 1379 H 129.197 5.52355 -1.16465 0
M  V30 1380 N 128.595 0.856903 1.32268 0
M  V30 1381 C 130.006 0.515711 1.79436 0
M  V30 1382 C 130.357 -0.966586 1.70738 0
M  V30 1383 O 129.482 -1.75409 1.26731 0
M  V30 1384 C 130.077 0.929335 3.25805 0
M  V30 1385 C 128.636 0.640006 3.70919 0
M  V30 1386 C 127.783 1.12784 2.53328 0
M  V30 1387 H 130.734 1.04389 1.19535 0
M  V30 1388 H 130.755 0.246633 3.797 0
M  V30 1389 H 130.267 2.00821 3.32103 0
M  V30 1390 H 128.368 -0.428051 3.70133 0
M  V30 1391 H 128.481 1.20788 4.63624 0
M  V30 1392 H 126.845 0.548033 2.48734 0
M  V30 1393 H 127.628 2.21387 2.62379 0
M  V30 1394 N 130.073 -1.45103 0.615059 0
M  V30 1395 C 131.489 -1.57137 0.279322 0
M  V30 1396 C 131.689 -1.60523 -1.21797 0
M  V30 1397 O 130.745 -1.53956 -2.00134 0
M  V30 1398 C 132.058 -2.85062 0.957083 0
M  V30 1399 C 133.606 -2.98749 0.933706 0
M  V30 1400 C 134.081 -4.29455 1.59162 0
M  V30 1401 N 135.572 -4.36231 1.55746 0
M  V30 1402 C 136.307 -5.36051 2.0356 0
M  V30 1403 N 135.803 -6.42367 2.59494 0
M  V30 1404 N 137.596 -5.27456 1.94284 0
M  V30 1405 H 129.747 -1.41148 1.58717 0
M  V30 1406 H 132.01 -0.675331 0.665306 0
M  V30 1407 H 131.716 -2.88488 2.01166 0
M  V30 1408 H 131.59 -3.7407 0.48494 0
M  V30 1409 H 133.977 -2.94886 -0.112347 0
M  V30 1410 H 134.058 -2.11132 1.44419 0
M  V30 1411 H 133.702 -4.34077 2.63704 0
M  V30 1412 H 133.632 -5.15901 1.0561 0
M  V30 1413 H 136.123 -3.60011 1.14893 0
M  V30 1414 H 136.436 -7.14793 2.93752 0
M  V30 1415 H 134.781 -6.43097 2.63537 0
M  V30 1416 H 137.972 -4.43308 1.5032 0
M  V30 1417 H 138.145 -6.05099 2.3186 0
M  V30 1418 N 131.551 -0.354651 -1.53558 0
M  V30 1419 C 132.499 0.512195 -2.26891 0
M  V30 1420 C 133.493 1.09263 -1.29452 0
M  V30 1421 O 134.699 1.03709 -1.47121 0
M  V30 1422 H 131.074 0.183878 -0.729173 0
M  V30 1423 H 133.045 -0.128202 -2.98124 0
M  V30 1424 C 131.794 1.64563 -3.06291 0
M  V30 1425 H 131.117 1.20829 -3.81104 0
M  V30 1426 H 132.557 2.22711 -3.60799 0
M  V30 1427 C 131.016 2.58158 -2.16462 0
M  V30 1428 O 131.546 3.60695 -1.76811 0
M  V30 1429 N 129.752 2.27096 -1.81317 0
M  V30 1430 H 129.299 1.43751 -2.1376 0
M  V30 1431 H 129.257 2.89975 -1.21498 0
M  V30 1432 N 133.029 1.57378 -0.0835403 0
M  V30 1433 C 134.277 1.93547 0.581718 0
M  V30 1434 C 134.598 0.96524 1.69435 0
M  V30 1435 O 133.868 0.0153369 1.95894 0
M  V30 1436 H 132.448 0.714521 0.217874 0
M  V30 1437 H 135.11 1.94366 -0.144158 0
M  V30 1438 H 134.206 2.95665 0.999423 0
M  V30 1439 N 134.507 -0.190092 1.56449 0
M  V30 1440 C 135.732 -0.929864 1.85387 0
M  V30 1441 C 136.157 -1.7585 0.667704 0
M  V30 1442 O 135.515 -1.77198 -0.383459 0
M  V30 1443 C 135.563 -1.79773 3.12593 0
M  V30 1444 O 134.667 -2.89713 2.93496 0
M  V30 1445 H 134.008 -0.261574 0.610307 0
M  V30 1446 H 136.538 -0.193896 2.03679 0
M  V30 1447 H 136.548 -2.20139 3.43515 0
M  V30 1448 H 135.223 -1.18892 3.98544 0
M  V30 1449 H 133.8 -2.53065 2.73884 0
M  V30 1450 N 135.985 -1.50799 -0.457987 0
M  V30 1451 C 137.401 -1.38515 -0.792819 0
M  V30 1452 C 137.601 -0.451409 -1.96379 0
M  V30 1453 O 136.657 0.10112 -2.52297 0
M  V30 1454 C 137.97 -2.80149 -1.09258 0
M  V30 1455 C 139.518 -2.89156 -1.19825 0
M  V30 1456 C 139.993 -4.31651 -1.53106 0
M  V30 1457 N 141.484 -4.34662 -1.60072 0
M  V30 1458 C 142.219 -5.41928 -1.87354 0
M  V30 1459 N 141.715 -6.59384 -2.12568 0
M  V30 1460 N 143.508 -5.29385 -1.88965 0
M  V30 1461 H 135.659 -2.10073 0.313511 0
M  V30 1462 H 137.922 -0.944803 0.0777862 0
M  V30 1463 H 137.628 -3.50374 -0.305084 0
M  V30 1464 H 137.502 -3.18204 -2.02549 0
M  V30 1465 H 139.889 -2.19141 -1.97639 0
M  V30 1466 H 139.97 -2.54626 -0.244821 0
M  V30 1467 H 139.614 -5.02208 -0.758266 0
M  V30 1468 H 139.544 -4.63678 -2.49621 0
M  V30 1469 H 142.035 -3.49973 -1.42573 0
M  V30 1470 H 142.348 -7.36934 -2.32696 0
M  V30 1471 H 140.693 -6.62535 -2.09933 0
M  V30 1472 H 143.884 -4.36616 -1.68772 0
M  V30 1473 H 144.057 -6.13066 -2.09891 0
M  V30 1474 N 137.463 0.71206 -1.40597 0
M  V30 1475 C 138.393 1.83889 -1.43899 0
M  V30 1476 C 139.374 1.67442 -0.299504 0
M  V30 1477 O 140.559 1.87421 -0.508624 0
M  V30 1478 C 137.689 3.21877 -1.30431 0
M  V30 1479 C 136.643 3.53002 -2.42019 0
M  V30 1480 C 135.969 4.90172 -2.13626 0
M  V30 1481 C 137.269 3.53643 -3.84362 0
M  V30 1482 H 138.963 1.81383 -2.38203 0
M  V30 1483 H 136.509 0.871237 -1.14654 0
M  V30 1484 H 138.462 4.00404 -1.31357 0
M  V30 1485 H 137.186 3.24968 -0.326049 0
M  V30 1486 H 135.845 2.76818 -2.40349 0
M  V30 1487 H 135.493 4.89869 -1.14182 0
M  V30 1488 H 135.193 5.11962 -2.88389 0
M  V30 1489 H 136.717 5.71028 -2.1624 0
M  V30 1490 H 138.131 4.22203 -3.87837 0
M  V30 1491 H 136.528 3.86961 -4.58673 0
M  V30 1492 H 137.598 2.52954 -4.13693 0
M  V30 1493 N 138.941 1.26152 0.944643 0
M  V30 1494 C 140.218 1.02247 1.66748 0
M  V30 1495 C 140.598 -0.448202 2.06287 0
M  V30 1496 O 139.946 -1.42779 1.78399 0
M  V30 1497 C 140.156 1.96788 2.88228 0
M  V30 1498 C 141.504 2.25201 3.59958 0
M  V30 1499 O 142.528 1.94626 2.98327 0
M  V30 1500 O 141.387 2.77242 4.70956 0
M  V30 1501 H 138.481 0.388517 0.730057 0
M  V30 1502 H 141.027 1.37348 0.99668 0
M  V30 1503 H 139.799 2.96047 2.55875 0
M  V30 1504 H 139.422 1.62145 3.63035 0
M  V30 1505 N 140.419 -1.14872 1.07899 0
M  V30 1506 C 141.668 -1.85135 0.800499 0
M  V30 1507 C 141.981 -1.83547 -0.676014 0
M  V30 1508 O 143.187 -2.49548 -1.06948 0
M  V30 1509 C 141.643 -3.3231 1.38197 0
M  V30 1510 C 141.251 -3.42329 2.8899 0
M  V30 1511 C 142.995 -4.0772 1.18174 0
M  V30 1512 C 140.902 -4.83684 3.403 0
M  V30 1513 H 139.832 -0.693563 0.29578 0
M  V30 1514 H 142.483 -1.29532 1.29976 0
M  V30 1515 H 140.865 -3.87618 0.810431 0
M  V30 1516 H 142.039 -2.97097 3.52236 0
M  V30 1517 H 140.354 -2.80369 3.07867 0
M  V30 1518 H 142.951 -5.12049 1.5398 0
M  V30 1519 H 143.294 -4.16124 0.12117 0
M  V30 1520 H 143.827 -3.58696 1.71994 0
M  V30 1521 H 140.566 -4.80465 4.45907 0
M  V30 1522 H 140.086 -5.29474 2.81811 0
M  V30 1523 H 141.765 -5.52558 3.36584 0
M  V30 1524 N 141.898 -0.863906 -1.31812 0
M  V30 1525 C 143.144 -0.472535 -1.97218 0
M  V30 1526 C 143.477 0.971394 -1.68159 0
M  V30 1527 O 142.752 1.68309 -0.974798 0
M  V30 1528 C 143.035 -0.723054 -3.52766 0
M  V30 1529 C 142.888 -2.21608 -3.91421 0
M  V30 1530 C 144.207 -0.185522 -4.39709 0
M  V30 1531 H 141.326 -0.173158 -0.71637 0
M  V30 1532 H 143.968 -1.08403 -1.56041 0
M  V30 1533 H 142.118 -0.202577 -3.87971 0
M  V30 1534 H 143.79 -2.80334 -3.66347 0
M  V30 1535 H 142.033 -2.691 -3.40246 0
M  V30 1536 H 142.704 -2.34203 -4.99853 0
M  V30 1537 H 145.18 -0.630726 -4.11292 0
M  V30 1538 H 144.056 -0.390306 -5.47511 0
M  V30 1539 H 144.317 0.912229 -4.32586 0
M  V30 1540 N 143.376 1.44774 -0.622745 0
M  V30 1541 C 144.326 2.2774 0.108889 0
M  V30 1542 C 145.31 1.38189 0.824175 0
M  V30 1543 O 146.502 1.62063 0.711664 0
M  V30 1544 C 143.631 3.25353 1.09546 0
M  V30 1545 C 142.717 4.22392 0.380232 0
M  V30 1546 N 143.108 5.02388 -0.586535 0
M  V30 1547 C 141.406 4.41588 0.625792 0
M  V30 1548 C 142.107 5.72894 -1.00834 0
M  V30 1549 N 141.083 5.42479 -0.348878 0
M  V30 1550 H 144.885 2.86993 -0.63341 0
M  V30 1551 H 142.399 1.5611 -0.447589 0
M  V30 1552 H 144.396 3.83538 1.63414 0
M  V30 1553 H 143.056 2.6766 1.83815 0
M  V30 1554 H 144.067 5.0885 -0.963975 0
M  V30 1555 H 140.744 3.95003 1.352 0
M  V30 1556 H 142.134 6.47158 -1.80656 0
M  V30 1557 N 144.854 0.36279 1.53368 0
M  V30 1558 C 145.764 -0.492994 2.29362 0
M  V30 1559 C 146.78 -1.09507 1.35219 0
M  V30 1560 O 147.956 -1.10662 1.68273 0
M  V30 1561 C 145.021 -1.61855 3.066 0
M  V30 1562 C 144.082 -1.04429 4.16405 0
M  V30 1563 C 143.315 -2.11621 4.89951 0
M  V30 1564 O 143.538 -3.32684 4.63333 0
M  V30 1565 O 142.472 -1.74835 5.75948 0
M  V30 1566 H 146.298 0.125331 3.03441 0
M  V30 1567 H 143.883 0.127253 1.48857 0
M  V30 1568 H 145.765 -2.27302 3.54841 0
M  V30 1569 H 144.44 -2.22233 2.3536 0
M  V30 1570 H 143.347 -0.353819 3.72423 0
M  V30 1571 H 144.68 -0.485113 4.89804 0
M  V30 1572 N 146.332 -1.57332 0.0918853 0
M  V30 1573 C 147.28 -2.15075 -0.885747 0
M  V30 1574 C 148.274 -1.09277 -1.29441 0
M  V30 1575 O 149.48 -1.27627 -1.26931 0
M  V30 1576 H 145.855 -0.687966 -0.303656 0
M  V30 1577 H 147.826 -2.96047 -0.373995 0
M  V30 1578 C 146.575 -2.74325 -2.13638 0
M  V30 1579 H 145.898 -3.55418 -1.8308 0
M  V30 1580 H 147.338 -3.183 -2.80109 0
M  V30 1581 C 145.797 -1.70062 -2.90827 0
M  V30 1582 O 146.327 -1.13763 -3.85254 0
M  V30 1583 N 144.533 -1.40628 -2.54307 0
M  V30 1584 H 144.08 -1.866 -1.7759 0
M  V30 1585 H 144.038 -0.711043 -3.06254 0
M  V30 1586 N 147.81 0.181792 -1.56548 0
M  V30 1587 C 148.74 1.22765 -1.98623 0
M  V30 1588 C 149.721 1.46747 -0.860189 0
M  V30 1589 O 150.906 1.58259 -1.12551 0
M  V30 1590 C 148.036 2.56894 -2.33715 0
M  V30 1591 C 146.99 2.475 -3.49182 0
M  V30 1592 C 146.316 3.86023 -3.69986 0
M  V30 1593 C 147.616 1.98866 -4.82959 0
M  V30 1594 H 149.31 0.877942 -2.86239 0
M  V30 1595 H 146.856 0.42088 -1.37712 0
M  V30 1596 H 148.809 3.30253 -2.61746 0
M  V30 1597 H 147.533 2.93632 -1.42997 0
M  V30 1598 H 146.192 1.76596 -3.21262 0
M  V30 1599 H 145.84 4.20136 -2.76576 0
M  V30 1600 H 145.54 3.80609 -4.47672 0
M  V30 1601 H 147.064 4.60984 -4.00407 0
M  V30 1602 H 148.478 2.61992 -5.09934 0
M  V30 1603 H 146.875 2.04424 -5.64208 0
M  V30 1604 H 147.945 0.942465 -4.75653 0
M  V30 1605 N 149.288 1.51039 0.449983 0
M  V30 1606 C 150.235 1.71439 1.54523 0
M  V30 1607 C 151.205 0.555871 1.56522 0
M  V30 1608 O 152.39 0.788871 1.73728 0
M  V30 1609 C 149.53 1.83384 2.92343 0
M  V30 1610 C 148.643 3.10873 2.9997 0
M  V30 1611 C 147.778 3.13488 4.28834 0
M  V30 1612 C 146.817 4.35343 4.30282 0
M  V30 1613 N 145.954 4.35579 5.5065 0
M  V30 1614 H 150.794 2.64934 1.36433 0
M  V30 1615 H 148.331 1.31312 0.662982 0
M  V30 1616 H 150.289 1.88291 3.72293 0
M  V30 1617 H 148.919 0.933086 3.0902 0
M  V30 1618 H 147.971 3.15336 2.12761 0
M  V30 1619 H 149.283 4.00814 2.96901 0
M  V30 1620 H 148.437 3.17241 5.17149 0
M  V30 1621 H 147.176 2.21414 4.34543 0
M  V30 1622 H 146.181 4.3178 3.40362 0
M  V30 1623 H 147.406 5.28668 4.26248 0
M  V30 1624 H 145.352 3.46369 5.57104 0
M  V30 1625 H 145.269 5.19313 5.49409 0
M  V30 1626 H 146.537 4.43507 6.41032 0
M  V30 1627 N 150.766 -0.704594 1.40972 0
M  V30 1628 C 151.699 -1.82861 1.36518 0
M  V30 1629 C 152.677 -1.6091 0.23382 0
M  V30 1630 O 153.861 -1.83778 0.419271 0
M  V30 1631 C 150.988 -3.1939 1.12729 0
M  V30 1632 C 150.034 -3.60148 2.28463 0
M  V30 1633 S 150.867 -3.65994 3.90907 0
M  V30 1634 C 152.023 -5.05264 3.69403 0
M  V30 1635 H 152.256 -1.86361 2.3164 0
M  V30 1636 H 149.789 -0.872439 1.27389 0
M  V30 1637 H 151.747 -3.98211 0.996893 0
M  V30 1638 H 150.408 -3.1351 0.192427 0
M  V30 1639 H 149.601 -4.59309 2.07489 0
M  V30 1640 H 149.203 -2.88612 2.37863 0
M  V30 1641 H 151.495 -5.92504 3.28551 0
M  V30 1642 H 152.438 -5.31278 4.68134 0
M  V30 1643 H 152.846 -4.76377 3.02862 0
M  V30 1644 N 152.244 -1.26651 -0.937939 0
M  V30 1645 C 153.492 -1.12165 -1.68118 0
M  V30 1646 C 153.813 0.334983 -1.92101 0
M  V30 1647 O 153.083 1.23583 -1.52 0
M  V30 1648 H 151.663 -0.412093 -0.623048 0
M  V30 1649 H 154.325 -1.59027 -1.12678 0
M  V30 1650 H 153.421 -1.64289 -2.6536 0
M  V30 1651 N 153.722 1.14298 -1.08507 0
M  V30 1652 C 154.947 1.8976 -0.837001 0
M  V30 1653 C 155.372 1.78097 0.605228 0
M  V30 1654 O 154.73 1.12188 1.4242 0
M  V30 1655 C 154.778 3.37685 -1.26495 0
M  V30 1656 O 153.882 4.10281 -0.417514 0
M  V30 1657 H 153.223 0.590365 -0.303917 0
M  V30 1658 H 155.753 1.44672 -1.44676 0
M  V30 1659 H 155.763 3.88501 -1.24625 0
M  V30 1660 H 154.438 3.45492 -2.31534 0
M  V30 1661 H 153.015 3.69536 -0.499722 0
M  V30 1662 N 155.201 0.870884 1.31352 0
M  V30 1663 C 156.478 0.402907 1.91405 0
M  V30 1664 C 156.858 -1.11512 1.79244 0
M  V30 1665 O 156.206 -1.94411 1.2007 0
M  V30 1666 C 156.416 0.885301 3.37585 0
M  V30 1667 C 157.764 0.911971 4.14691 0
M  V30 1668 O 158.788 0.831016 3.46371 0
M  V30 1669 O 157.647 1.02927 5.3672 0
M  V30 1670 H 154.741 0.120698 0.818145 0
M  V30 1671 H 157.287 0.958857 1.40014 0
M  V30 1672 H 156.059 1.92889 3.40455 0
M  V30 1673 H 155.682 0.307714 3.96407 0
M  V30 1674 N 156.679 -1.44442 0.630414 0
M  V30 1675 C 157.927 -2.01653 0.134351 0
M  V30 1676 C 158.248 -1.49836 -1.24796 0
M  V30 1677 O 157.518 -0.701684 -1.82902 0
M  V30 1678 H 156.098 -0.74554 0.0466769 0
M  V30 1679 H 158.76 -1.76952 0.816955 0
M  V30 1680 H 157.856 -3.11935 0.101498 0
M  V30 1681 N 158.157 -0.370918 -1.53173 0
M  V30 1682 C 159.067 0.480823 -2.2962 0
M  V30 1683 C 160.083 1.08789 -1.35798 0
M  V30 1684 O 161.259 1.09768 -1.68858 0
M  V30 1685 C 158.324 1.60227 -3.07454 0
M  V30 1686 C 157.385 1.0222 -4.16953 0
M  V30 1687 C 156.618 2.0902 -4.91066 0
M  V30 1688 O 156.841 3.30222 -4.65091 0
M  V30 1689 O 155.775 1.71778 -5.76867 0
M  V30 1690 H 159.601 -0.141421 -3.03371 0
M  V30 1691 H 157.186 -0.135146 -1.48787 0
M  V30 1692 H 159.068 2.25417 -3.56041 0
M  V30 1693 H 157.743 2.20982 -2.36535 0
M  V30 1694 H 156.65 0.334064 -3.72605 0
M  V30 1695 H 157.983 0.459131 -4.90054 0
M  V30 1696 N 159.635 1.57281 -0.100228 0
M  V30 1697 C 160.86 1.99302 0.573881 0
M  V30 1698 C 161.285 0.979059 1.60611 0
M  V30 1699 O 160.643 -0.0517803 1.81226 0
M  V30 1700 C 160.691 3.40274 1.19358 0
M  V30 1701 O 159.795 3.41676 2.30935 0
M  V30 1702 H 159.136 0.647944 0.145138 0
M  V30 1703 H 161.666 2.03779 -0.183156 0
M  V30 1704 H 161.676 3.78078 1.53365 0
M  V30 1705 H 160.351 4.13594 0.437385 0
M  V30 1706 H 158.928 3.15672 1.98509 0
M  V30 1707 N 161.113 -0.173488 1.56642 0
M  V30 1708 C 162.39 -0.917617 1.7274 0
M  V30 1709 C 162.77 -2.00484 0.661027 0
M  V30 1710 O 162.118 -2.26184 -0.32453 0
M  V30 1711 C 162.328 -1.48433 3.15862 0
M  V30 1712 C 163.676 -1.95809 3.76754 0
M  V30 1713 O 164.7 -1.58231 3.19126 0
M  V30 1714 O 163.559 -2.65024 4.77938 0
M  V30 1715 H 160.653 -0.431772 0.705338 0
M  V30 1716 H 163.199 -0.161487 1.6893 0
M  V30 1717 H 161.971 -0.701715 3.84957 0
M  V30 1718 H 161.594 -2.30471 3.23989 0
M  V30 1719 N 162.591 -1.51276 -0.441967 0
M  V30 1720 C 163.523 -1.68444 -1.55433 0
M  V30 1721 C 164.536 -0.565187 -1.52674 0
M  V30 1722 O 165.725 -0.839356 -1.57534 0
M  V30 1723 C 162.825 -1.67966 -2.94348 0
M  V30 1724 C 161.998 -2.964 -3.21661 0
M  V30 1725 C 161.057 -2.88171 -4.40277 0
M  V30 1726 O 160.083 -3.62119 -4.39157 0
M  V30 1727 N 161.285 -2.03706 -5.43584 0
M  V30 1728 H 164.05 -2.644 -1.41112 0
M  V30 1729 H 161.611 -1.49104 -0.630838 0
M  V30 1730 H 163.603 -1.60035 -3.71713 0
M  V30 1731 H 162.173 -0.796225 -3.0229 0
M  V30 1732 H 161.393 -3.18234 -2.32638 0
M  V30 1733 H 162.681 -3.81427 -3.36736 0
M  V30 1734 H 162.079 -1.42995 -5.47329 0
M  V30 1735 H 160.636 -2.01658 -6.1982 0
M  V30 1736 N 164.069 0.697108 -1.41344 0
M  V30 1737 C 165.032 1.79281 -1.42797 0
M  V30 1738 C 166.032 1.57607 -0.318837 0
M  V30 1739 O 167.222 1.64309 -0.578642 0
M  V30 1740 C 164.354 3.17632 -1.23785 0
M  V30 1741 H 165.547 1.79385 -2.40335 0
M  V30 1742 H 163.1 0.904582 -1.27464 0
M  V30 1743 H 163.835 3.23167 -0.270814 0
M  V30 1744 H 163.62 3.34765 -2.04144 0
M  V30 1745 H 165.11 3.97617 -1.27633 0
M  V30 1746 N 165.547 1.27147 0.931209 0
M  V30 1747 C 166.772 1.16191 1.71797 0
M  V30 1748 C 167.197 -0.278004 1.86034 0
M  V30 1749 O 166.555 -1.20137 1.35782 0
M  V30 1750 C 166.603 1.84673 3.09723 0
M  V30 1751 O 165.707 1.14231 3.96264 0
M  V30 1752 H 165.048 0.404303 0.526721 0
M  V30 1753 H 167.578 1.68152 1.1656 0
M  V30 1754 H 167.588 1.91893 3.60057 0
M  V30 1755 H 166.263 2.89421 2.98677 0
M  V30 1756 H 164.84 1.15056 3.54706 0
M  V30 1757 N 167.025 -1.13721 1.09112 0
M  V30 1758 C 168.273 -1.84559 0.823562 0
M  V30 1759 C 168.594 -1.83754 -0.652658 0
M  V30 1760 O 167.864 -1.29102 -1.47342 0
M  V30 1761 H 166.444 -0.683376 0.301673 0
M  V30 1762 H 169.106 -1.37771 1.37859 0
M  V30 1763 H 168.202 -2.8917 1.17419 0
M  V30 1764 N 168.503 -0.877838 -1.30888 0
M  V30 1765 C 169.731 -0.507414 -2.00581 0
M  V30 1766 C 170.146 0.902216 -1.65848 0
M  V30 1767 O 169.503 1.59225 -0.891831 0
M  V30 1768 C 169.554 -0.664162 -3.55347 0
M  V30 1769 O 169.275 -2.01829 -3.8884 0
M  V30 1770 C 170.776 -0.295787 -4.42312 0
M  V30 1771 H 167.996 -0.196866 -0.641471 0
M  V30 1772 H 170.54 -1.18117 -1.66939 0
M  V30 1773 H 168.695 -0.0378619 -3.87381 0
M  V30 1774 H 169.109 -2.03174 -4.8355 0
M  V30 1775 H 170.583 -0.456388 -5.5011 0
M  V30 1776 H 171.06 0.765663 -4.32475 0
M  V30 1777 H 171.666 -0.898113 -4.15709 0
M  V30 1778 N 169.982 1.44106 -0.638065 0
M  V30 1779 C 171.207 2.0685 -0.150916 0
M  V30 1780 C 171.632 1.47417 1.16833 0
M  V30 1781 O 170.99 0.578264 1.71831 0
M  V30 1782 C 171.038 3.60555 -0.05708 0
M  V30 1783 O 170.142 4.00465 0.984972 0
M  V30 1784 H 169.483 0.658151 -0.0879399 0
M  V30 1785 H 172.013 1.84865 -0.876707 0
M  V30 1786 H 172.023 4.07789 0.131232 0
M  V30 1787 H 170.698 4.03193 -1.02021 0
M  V30 1788 H 169.275 3.64849 0.770672 0
M  V30 1789 N 171.46 0.379036 1.52974 0
M  V30 1790 C 172.685 -0.209353 2.06341 0
M  V30 1791 C 173.11 -1.40583 1.24972 0
M  V30 1792 O 172.468 -1.79246 0.272155 0
M  V30 1793 C 172.516 -0.567786 3.56102 0
M  V30 1794 O 171.62 -1.66318 3.77375 0
M  V30 1795 H 170.961 -0.0272919 0.663439 0
M  V30 1796 H 173.491 0.543536 1.97248 0
M  V30 1797 H 173.501 -0.835003 3.99364 0
M  V30 1798 H 172.176 0.307013 4.14765 0
M  V30 1799 H 170.753 -1.39048 3.46006 0
M  V30 1800 N 172.938 -1.57226 0.108567 0
M  V30 1801 C 174.215 -1.86333 -0.594939 0
M  V30 1802 C 174.595 -1.00788 -1.85486 0
M  V30 1803 O 173.943 -0.0839293 -2.28346 0
M  V30 1804 C 174.153 -3.37265 -0.897405 0
M  V30 1805 C 175.501 -4.05629 -1.25501 0
M  V30 1806 O 176.525 -3.42224 -0.987998 0
M  V30 1807 O 175.384 -5.17531 -1.75567 0
M  V30 1808 H 172.478 -0.771018 -0.2991 0
M  V30 1809 H 175.024 -1.69102 0.142283 0
M  V30 1810 H 173.796 -3.913 -0.00413806 0
M  V30 1811 H 173.419 -3.59889 -1.69014 0
M  V30 1812 N 174.416 0.165178 -1.56732 0
M  V30 1813 C 175.326 1.22423 -2.00125 0
M  V30 1814 C 176.342 1.48084 -0.913619 0
M  V30 1815 O 177.518 1.60112 -1.22172 0
M  V30 1816 C 174.583 2.54197 -2.35764 0
M  V30 1817 C 173.644 2.36343 -3.58386 0
M  V30 1818 C 172.877 3.61834 -3.92316 0
M  V30 1819 O 173.1 4.67267 -3.27135 0
M  V30 1820 O 172.034 3.55579 -4.85641 0
M  V30 1821 H 175.86 0.885886 -2.90492 0
M  V30 1822 H 173.445 0.372518 -1.44681 0
M  V30 1823 H 175.327 3.3192 -2.59629 0
M  V30 1824 H 174.002 2.87598 -1.48557 0
M  V30 1825 H 172.909 1.56632 -3.39731 0
M  V30 1826 H 174.242 2.07865 -4.46154 0
M  V30 1827 N 175.894 1.51508 0.433938 0
M  V30 1828 C 177.14 1.64588 1.18484 0
M  V30 1829 C 177.473 0.362666 1.90784 0
M  V30 1830 O 176.748 -0.637892 1.83742 0
M  V30 1831 C 177.031 2.85149 2.19913 0
M  V30 1832 C 176.884 4.23456 1.51674 0
M  V30 1833 C 178.203 3.01227 3.20858 0
M  V30 1834 H 175.322 0.598994 0.429389 0
M  V30 1835 H 177.964 1.84002 0.473647 0
M  V30 1836 H 176.114 2.68729 2.80566 0
M  V30 1837 H 177.786 4.51552 0.943322 0
M  V30 1838 H 176.029 4.25998 0.819035 0
M  V30 1839 H 176.7 5.03812 2.2556 0
M  V30 1840 H 179.176 3.16382 2.70263 0
M  V30 1841 H 178.052 3.87141 3.89118 0
M  V30 1842 H 178.313 2.13447 3.8716 0
M  V30 1843 N 177.372 -0.689602 1.41712 0
M  V30 1844 C 178.304 -1.815 1.39966 0
M  V30 1845 C 179.317 -1.59995 0.300917 0
M  V30 1846 O 180.506 -1.69387 0.563039 0
M  V30 1847 C 177.606 -3.18364 1.16179 0
M  V30 1848 C 176.779 -3.66847 2.38206 0
M  V30 1849 C 175.838 -4.82398 2.10186 0
M  V30 1850 O 174.864 -4.93706 2.83272 0
M  V30 1851 N 176.066 -5.70064 1.0958 0
M  V30 1852 H 178.831 -1.83488 2.36965 0
M  V30 1853 H 176.392 -0.872149 1.36401 0
M  V30 1854 H 178.384 -3.93301 0.953756 0
M  V30 1855 H 176.954 -3.11365 0.27756 0
M  V30 1856 H 176.174 -2.82751 2.74673 0
M  V30 1857 H 177.462 -3.95978 3.19498 0
M  V30 1858 H 176.86 -5.63565 0.491019 0
M  V30 1859 H 175.417 -6.44874 0.947656 0
M  V30 1860 N 178.85 -1.27639 -0.924453 0
M  V30 1861 C 180.075 -1.17101 -1.71179 0
M  V30 1862 C 180.5 0.268134 -1.86179 0
M  V30 1863 O 179.858 1.19415 -1.36418 0
M  V30 1864 C 179.906 -1.86313 -3.08739 0
M  V30 1865 O 179.01 -1.16331 -3.95652 0
M  V30 1866 H 178.351 -0.407091 -0.524569 0
M  V30 1867 H 180.881 -1.68767 -1.15666 0
M  V30 1868 H 180.891 -1.938 -3.59034 0
M  V30 1869 H 179.566 -2.91001 -2.97138 0
M  V30 1870 H 178.143 -1.16935 -3.54091 0
M  V30 1871 N 180.328 1.1314 -1.09713 0
M  V30 1872 C 181.739 1.66029 -0.853885 0
M  V30 1873 C 182.09 1.86241 0.617142 0
M  V30 1874 O 181.215 1.5834 1.47503 0
M  V30 1875 C 181.81 3.01599 -1.5435 0
M  V30 1876 C 180.369 3.51467 -1.34714 0
M  V30 1877 C 179.516 2.26648 -1.59769 0
M  V30 1878 H 182.467 0.970226 -1.25588 0
M  V30 1879 H 182.488 3.67709 -0.978267 0
M  V30 1880 H 182 2.86856 -2.6141 0
M  V30 1881 H 180.101 3.71408 -0.297838 0
M  V30 1882 H 180.214 4.314 -2.08401 0
M  V30 1883 H 178.578 2.33385 -1.01998 0
M  V30 1884 H 179.361 2.14467 -2.68065 0
M  V30 1885 N 181.806 0.884767 1.30421 0
M  V30 1886 C 183.034 0.518044 2.0031 0
M  V30 1887 C 183.449 -0.893408 1.66324 0
M  V30 1888 O 182.806 -1.5875 0.900262 0
M  V30 1889 C 182.857 0.682997 3.54989 0
M  V30 1890 O 182.578 2.03888 3.87764 0
M  V30 1891 C 184.079 0.31924 4.42149 0
M  V30 1892 H 181.299 0.200265 0.640418 0
M  V30 1893 H 183.843 1.19001 1.6631 0
M  V30 1894 H 181.998 0.0584052 3.87356 0
M  V30 1895 H 182.412 2.05735 4.82466 0
M  V30 1896 H 183.886 0.485555 5.4986 0
M  V30 1897 H 184.363 -0.742717 4.32875 0
M  V30 1898 H 184.969 0.920147 4.15227 0
M  V30 1899 N 183.284 -1.43765 0.645699 0
M  V30 1900 C 184.532 -2.01499 0.155731 0
M  V30 1901 C 184.853 -1.51151 -1.232 0
M  V30 1902 O 184.123 -0.721044 -1.82148 0
M  V30 1903 H 182.703 -0.745003 0.0545817 0
M  V30 1904 H 185.365 -1.76075 0.835677 0
M  V30 1905 H 184.461 -3.1181 0.134577 0
M  V30 1906 N 184.763 -0.387143 -1.52771 0
M  V30 1907 C 186.009 0.196025 -2.0185 0
M  V30 1908 C 186.342 1.46641 -1.27319 0
M  V30 1909 O 185.617 1.90889 -0.373032 0
M  V30 1910 C 185.9 0.466136 -3.5707 0
M  V30 1911 C 185.753 -0.819385 -4.42274 0
M  V30 1912 C 187.072 1.25768 -4.21747 0
M  V30 1913 H 184.191 0.0697708 -0.73369 0
M  V30 1914 H 186.833 -0.516286 -1.82851 0
M  V30 1915 H 184.983 1.07293 -3.7339 0
M  V30 1916 H 186.655 -1.4563 -4.37709 0
M  V30 1917 H 184.898 -1.43517 -4.09372 0
M  V30 1918 H 185.569 -0.585065 -5.48891 0
M  V30 1919 H 188.045 0.744167 -4.09391 0
M  V30 1920 H 186.921 1.41541 -5.30337 0
M  V30 1921 H 187.182 2.27228 -3.79236 0
M  V30 1922 N 186.241 1.57166 -0.116904 0
M  V30 1923 C 187.481 1.97008 0.544715 0
M  V30 1924 C 187.845 0.998713 1.63981 0
M  V30 1925 O 189.046 1.28644 2.36018 0
M  V30 1926 C 187.317 3.41145 1.06559 0
M  V30 1927 S 188.876 4.02998 1.73603 0
M  V30 1928 H 185.694 0.688587 0.177112 0
M  V30 1929 H 188.296 1.94459 -0.201487 0
M  V30 1930 H 187 4.09592 0.257374 0
M  V30 1931 H 186.531 3.4734 1.84712 0
M  V30 1932 H 188.546 3.93585 3.02168 0
M  V30 1933 N 187.719 -0.156864 1.56817 0
M  V30 1934 C 188.649 -1.19589 2.00551 0
M  V30 1935 C 189.63 -1.4536 0.883426 0
M  V30 1936 O 190.815 -1.56449 1.15054 0
M  V30 1937 C 187.945 -2.53143 2.37773 0
M  V30 1938 C 186.899 -2.41913 3.53075 0
M  V30 1939 C 186.225 -3.80088 3.76081 0
M  V30 1940 C 187.525 -1.91157 4.86062 0
M  V30 1941 H 189.219 -0.832293 2.87599 0
M  V30 1942 H 186.765 -0.398918 1.38364 0
M  V30 1943 H 188.718 -3.26047 2.66967 0
M  V30 1944 H 187.442 -2.91319 1.4765 0
M  V30 1945 H 186.101 -1.71462 3.24031 0
M  V30 1946 H 185.749 -4.15683 2.83225 0
M  V30 1947 H 185.449 -3.73439 4.53671 0
M  V30 1948 H 186.973 -4.54556 4.0769 0
M  V30 1949 H 188.387 -2.53846 5.14038 0
M  V30 1950 H 186.784 -1.95422 5.67389 0
M  V30 1951 H 187.854 -0.866673 4.77092 0
M  V30 1952 N 189.197 -1.51736 -0.425897 0
M  V30 1953 C 190.613 -1.40166 -0.76326 0
M  V30 1954 C 190.813 -0.492962 -1.95377 0
M  V30 1955 O 189.869 0.0475815 -2.52455 0
M  V30 1956 C 191.182 -2.82403 -1.03291 0
M  V30 1957 C 192.73 -2.91632 -1.13665 0
M  V30 1958 C 193.205 -4.34801 -1.43916 0
M  V30 1959 N 194.696 -4.3796 -1.50816 0
M  V30 1960 C 195.431 -5.4578 -1.75817 0
M  V30 1961 N 194.927 -6.63744 -1.98534 0
M  V30 1962 N 196.72 -5.33274 -1.77694 0
M  V30 1963 H 188.871 -2.09361 0.358 0
M  V30 1964 H 191.134 -0.942941 0.0978094 0
M  V30 1965 H 190.84 -3.50943 -0.230696 0
M  V30 1966 H 190.714 -3.22428 -1.95754 0
M  V30 1967 H 193.101 -2.23284 -1.92947 0
M  V30 1968 H 193.182 -2.55088 -0.190756 0
M  V30 1969 H 192.826 -5.03703 -0.65157 0
M  V30 1970 H 192.756 -4.68868 -2.39729 0
M  V30 1971 H 195.247 -3.52919 -1.35118 0
M  V30 1972 H 195.56 -7.41704 -2.17013 0
M  V30 1973 H 193.905 -6.66839 -1.95832 0
M  V30 1974 H 197.096 -4.40098 -1.59473 0
M  V30 1975 H 197.269 -6.1738 -1.9684 0
M  V30 1976 N 190.675 0.682077 -1.42076 0
M  V30 1977 C 191.623 1.81707 -1.45208 0
M  V30 1978 C 192.617 1.66183 -0.328591 0
M  V30 1979 O 193.823 1.7288 -0.501264 0
M  V30 1980 H 190.198 0.599014 -0.454628 0
M  V30 1981 H 192.169 1.76183 -2.40836 0
M  V30 1982 C 190.918 3.19816 -1.36428 0
M  V30 1983 H 190.241 3.32385 -2.22171 0
M  V30 1984 H 191.681 3.99272 -1.42681 0
M  V30 1985 C 190.14 3.36809 -0.078191 0
M  V30 1986 O 190.67 3.92124 0.87188 0
M  V30 1987 N 188.876 2.906 0.00229266 0
M  V30 1988 H 188.423 2.45772 -0.771616 0
M  V30 1989 H 188.381 3.02347 0.862179 0
M  V30 1990 N 192.153 1.28127 0.917671 0
M  V30 1991 C 193.569 1.05749 1.19538 0
M  V30 1992 C 193.769 -0.202633 2.00479 0
M  V30 1993 O 192.825 -0.905382 2.3571 0
M  V30 1994 C 194.138 2.30273 1.93378 0
M  V30 1995 C 195.686 2.35412 2.06277 0
M  V30 1996 C 196.161 3.59692 2.83524 0
M  V30 1997 N 197.652 3.60309 2.91087 0
M  V30 1998 C 198.387 4.53147 3.51348 0
M  V30 1999 N 197.883 5.563 4.12919 0
M  V30 2000 N 199.676 4.40751 3.48849 0
M  V30 2001 H 191.827 2.09024 0.377184 0
M  V30 2002 H 194.09 0.919798 0.22951 0
M  V30 2003 H 193.796 3.22055 1.41328 0
M  V30 2004 H 193.67 2.36378 2.93947 0
M  V30 2005 H 196.057 1.4413 2.57508 0
M  V30 2006 H 196.138 2.33304 1.04895 0
M  V30 2007 H 195.782 4.51316 2.32973 0
M  V30 2008 H 195.712 3.59054 3.85211 0
M  V30 2009 H 198.203 2.85714 2.47338 0
M  V30 2010 H 198.516 6.2329 4.56869 0
M  V30 2011 H 196.861 5.60131 4.11435 0
M  V30 2012 H 200.052 3.59367 2.99955 0
M  V30 2013 H 200.225 5.13291 3.9552 0
M  V30 2014 N 193.631 -1.12557 1.10312 0
M  V30 2015 C 194.88 -1.83395 0.839588 0
M  V30 2016 C 195.193 -1.84939 -0.636929 0
M  V30 2017 O 196.399 -2.51761 -1.01631 0
M  V30 2018 C 194.855 -3.29303 1.45215 0
M  V30 2019 C 194.463 -3.36122 2.96186 0
M  V30 2020 C 196.207 -4.05121 1.26796 0
M  V30 2021 C 194.114 -4.76357 3.50483 0
M  V30 2022 H 193.044 -0.687133 0.310425 0
M  V30 2023 H 195.695 -1.26746 1.32694 0
M  V30 2024 H 194.077 -3.85812 0.892469 0
M  V30 2025 H 195.251 -2.89559 3.58458 0
M  V30 2026 H 193.566 -2.73776 3.13745 0
M  V30 2027 H 196.163 -5.08668 1.64806 0
M  V30 2028 H 196.506 -4.15773 0.209409 0
M  V30 2029 H 197.039 -3.54967 1.79563 0
M  V30 2030 H 193.778 -4.70899 4.55998 0
M  V30 2031 H 193.298 -5.23377 2.92978 0
M  V30 2032 H 194.977 -5.45294 3.48228 0
M  V30 2033 N 195.109 -0.891671 -1.2995 0
M  V30 2034 C 196.059 -0.334811 -2.25528 0
M  V30 2035 C 197.043 0.540553 -1.51548 0
M  V30 2036 O 198.235 0.383882 -1.72787 0
M  V30 2037 C 195.364 0.44374 -3.4042 0
M  V30 2038 C 194.45 -0.44609 -4.21747 0
M  V30 2039 N 194.841 -1.54963 -4.81477 0
M  V30 2040 C 193.139 -0.242415 -4.45341 0
M  V30 2041 C 193.84 -2.10015 -5.42465 0
M  V30 2042 N 192.816 -1.39423 -5.25416 0
M  V30 2043 H 196.618 -1.17792 -2.69262 0
M  V30 2044 H 194.132 -0.741822 -1.44467 0
M  V30 2045 H 196.129 0.859362 -4.07947 0
M  V30 2046 H 194.789 1.28421 -2.98225 0
M  V30 2047 H 195.8 -1.93244 -4.80497 0
M  V30 2048 H 192.477 0.560342 -4.13723 0
M  V30 2049 H 193.867 -3.02724 -5.9984 0
M  V30 2050 N 196.587 1.43421 -0.653314 0
M  V30 2051 C 198.003 1.56341 -0.320886 0
M  V30 2052 C 198.203 1.63696 1.17499 0
M  V30 2053 O 197.259 1.59208 1.95982 0
M  V30 2054 C 198.572 2.82424 -1.03233 0
M  V30 2055 C 200.12 2.96168 -1.01259 0
M  V30 2056 C 200.595 4.25084 -1.70492 0
M  V30 2057 N 202.086 4.31948 -1.67257 0
M  V30 2058 C 202.821 5.30466 -2.17701 0
M  V30 2059 N 202.317 6.35261 -2.76434 0
M  V30 2060 N 204.11 5.2212 -2.082 0
M  V30 2061 H 196.261 1.3689 -1.62403 0
M  V30 2062 H 198.524 0.657455 -0.682977 0
M  V30 2063 H 198.23 2.83053 -2.08744 0
M  V30 2064 H 198.104 3.72653 -0.583948 0
M  V30 2065 H 200.491 2.9508 0.0341235 0
M  V30 2066 H 200.572 2.07229 -1.49966 0
M  V30 2067 H 200.216 4.26932 -2.7512 0
M  V30 2068 H 200.146 5.1292 -1.19251 0
M  V30 2069 H 202.637 3.56838 -1.24398 0
M  V30 2070 H 202.95 7.06754 -3.12601 0
M  V30 2071 H 201.295 6.35884 -2.80495 0
M  V30 2072 H 204.486 4.39166 -1.62021 0
M  V30 2073 H 204.659 5.98739 -2.47822 0
M  V30 2074 N 198.065 0.39524 1.52563 0
M  V30 2075 C 199.481 0.0454682 1.59535 0
M  V30 2076 C 199.681 -1.44056 1.4089 0
M  V30 2077 O 198.737 -2.20579 1.22888 0
M  V30 2078 C 200.05 0.527963 2.96029 0
M  V30 2079 C 201.598 0.484733 3.09224 0
M  V30 2080 C 202.073 0.943512 4.48176 0
M  V30 2081 N 203.564 0.899765 4.54377 0
M  V30 2082 C 204.299 1.22609 5.60138 0
M  V30 2083 N 203.795 1.62319 6.73516 0
M  V30 2084 N 205.588 1.14696 5.50274 0
M  V30 2085 H 197.739 1.36261 1.62931 0
M  V30 2086 H 200.002 0.558887 0.765735 0
M  V30 2087 H 199.708 1.56607 3.14908 0
M  V30 2088 H 199.582 -0.0698056 3.77135 0
M  V30 2089 H 201.969 -0.544298 2.90037 0
M  V30 2090 H 202.05 1.11838 2.30056 0
M  V30 2091 H 201.694 1.9708 4.68104 0
M  V30 2092 H 201.624 0.286817 5.25818 0
M  V30 2093 H 204.115 0.607632 3.72983 0
M  V30 2094 H 204.428 1.85567 7.5019 0
M  V30 2095 H 202.773 1.66211 6.74833 0
M  V30 2096 H 205.964 0.835701 4.6058 0
M  V30 2097 H 206.137 1.40459 6.32594 0
M  V30 2098 N 199.544 -1.57102 0.125237 0
M  V30 2099 C 200.793 -1.94582 -0.531095 0
M  V30 2100 C 201.106 -1.01126 -1.6743 0
M  V30 2101 O 202.312 -1.28097 -2.39381 0
M  V30 2102 C 200.768 -3.45839 -0.996164 0
M  V30 2103 C 200.376 -4.47842 0.118926 0
M  V30 2104 C 202.12 -3.92227 -1.62352 0
M  V30 2105 C 200.027 -5.90284 -0.363192 0
M  V30 2106 H 198.957 -0.726391 -0.20217 0
M  V30 2107 H 201.608 -1.82339 0.206092 0
M  V30 2108 H 199.99 -3.53338 -1.78796 0
M  V30 2109 H 201.164 -4.52018 0.895358 0
M  V30 2110 H 199.479 -4.11243 0.653324 0
M  V30 2111 H 202.076 -4.96069 -1.99548 0
M  V30 2112 H 202.419 -3.32552 -2.50429 0
M  V30 2113 H 202.952 -3.87554 -0.897019 0
M  V30 2114 H 199.691 -6.53728 0.481679 0
M  V30 2115 H 199.211 -5.89515 -1.10597 0
M  V30 2116 H 200.89 -6.41752 -0.822377 0
M  V30 2117 N 201.022 0.148545 -1.56898 0
M  V30 2118 C 202.247 0.880385 -1.87787 0
M  V30 2119 C 202.672 1.74018 -0.714093 0
M  V30 2120 O 202.03 1.78153 0.336343 0
M  V30 2121 C 202.078 1.71422 -3.17249 0
M  V30 2122 O 201.182 2.8183 -3.01074 0
M  V30 2123 H 200.523 0.245301 -0.617028 0
M  V30 2124 H 203.053 0.139826 -2.04122 0
M  V30 2125 H 203.063 2.10954 -3.49231 0
M  V30 2126 H 201.738 1.08284 -4.01556 0
M  V30 2127 H 200.315 2.45715 -2.80497 0
M  V30 2128 N 202.5 1.5196 0.417844 0
M  V30 2129 C 203.433 1.69387 1.52916 0
M  V30 2130 C 204.411 0.541419 1.53321 0
M  V30 2131 O 205.595 0.767695 1.72159 0
M  V30 2132 C 202.722 1.72525 2.91467 0
M  V30 2133 C 201.768 2.93967 3.09008 0
M  V30 2134 S 202.601 4.54461 2.83242 0
M  V30 2135 C 203.757 4.60372 4.24038 0
M  V30 2136 H 203.99 2.63382 1.37903 0
M  V30 2137 H 201.523 1.41889 0.608845 0
M  V30 2138 H 203.481 1.75018 3.7132 0
M  V30 2139 H 202.142 0.796733 3.03827 0
M  V30 2140 H 201.335 2.92619 4.10353 0
M  V30 2141 H 200.937 2.89316 2.37007 0
M  V30 2142 H 203.229 4.37213 5.17544 0
M  V30 2143 H 204.172 5.62273 4.30412 0
M  V30 2144 H 204.58 3.89492 4.08602 0
M  V30 2145 N 203.978 -0.674533 1.42435 0
M  V30 2146 C 204.888 -1.81751 1.48337 0
M  V30 2147 C 205.904 -1.69975 0.372099 0
M  V30 2148 O 207.08 -1.91521 0.62304 0
M  V30 2149 C 204.145 -3.17895 1.38361 0
M  V30 2150 C 203.206 -3.41625 2.59982 0
M  V30 2151 C 202.439 -4.71274 2.50473 0
M  V30 2152 O 202.662 -5.49197 1.54075 0
M  V30 2153 O 201.596 -4.96254 3.4061 0
M  V30 2154 H 205.422 -1.79728 2.44809 0
M  V30 2155 H 203.007 -0.830312 1.24202 0
M  V30 2156 H 204.889 -3.99136 1.35161 0
M  V30 2157 H 203.564 -3.20555 0.450144 0
M  V30 2158 H 202.471 -2.60231 2.68757 0
M  V30 2159 H 203.804 -3.43796 3.52229 0
M  V30 2160 N 205.456 -1.28612 -0.910864 0
M  V30 2161 C 206.733 -1.06632 -1.63979 0
M  V30 2162 C 207.113 0.393351 -2.07403 0
M  V30 2163 O 206.461 1.37999 -1.82122 0
M  V30 2164 C 206.671 -2.0436 -2.8291 0
M  V30 2165 C 208.019 -2.34666 -3.5386 0
M  V30 2166 O 209.043 -2.02467 -2.93062 0
M  V30 2167 O 207.902 -2.89631 -4.63439 0
M  V30 2168 H 204.996 -0.407737 -0.7195 0
M  V30 2169 H 207.542 -1.39942 -0.959914 0
M  V30 2170 H 206.314 -3.02727 -2.47936 0
M  V30 2171 H 205.937 -1.71714 -3.58609 0
M  V30 2172 N 206.934 1.1197 -1.10907 0
M  V30 2173 C 207.864 2.19928 -0.784473 0
M  V30 2174 C 208.845 1.6833 0.244726 0
M  V30 2175 O 210.03 1.93892 0.109418 0
M  V30 2176 C 207.16 3.46597 -0.220827 0
M  V30 2177 C 206.114 4.11376 -1.18127 0
M  V30 2178 C 205.44 5.32554 -0.478594 0
M  V30 2179 C 206.74 4.56945 -2.52979 0
M  V30 2180 H 208.434 2.47337 -1.68715 0
M  V30 2181 H 205.98 1.18879 -0.812642 0
M  V30 2182 H 207.933 4.21396 0.0184278 0
M  V30 2183 H 206.657 3.1863 0.717113 0
M  V30 2184 H 205.316 3.38564 -1.40606 0
M  V30 2185 H 204.964 5.00856 0.463976 0
M  V30 2186 H 204.664 5.76844 -1.11912 0
M  V30 2187 H 206.188 6.10096 -0.248 0
M  V30 2188 H 207.602 5.23093 -2.3462 0
M  V30 2189 H 205.999 5.1203 -3.12962 0
M  V30 2190 H 207.069 3.70676 -3.12614 0
M  V30 2191 N 208.412 0.89855 1.29475 0
M  V30 2192 C 209.36 0.365253 2.29714 0
M  V30 2193 C 210.354 -0.534993 1.6073 0
M  V30 2194 O 211.56 -0.417921 1.75081 0
M  V30 2195 H 207.935 0.0994853 0.74539 0
M  V30 2196 H 209.906 1.22406 2.72138 0
M  V30 2197 C 208.655 -0.393159 3.4547 0
M  V30 2198 H 207.978 0.290332 3.98744 0
M  V30 2199 H 209.418 -0.731189 4.17648 0
M  V30 2200 C 207.877 -1.59539 2.9673 0
M  V30 2201 O 208.407 -2.69469 2.97908 0
M  V30 2202 N 206.613 -1.43716 2.52575 0
M  V30 2203 H 206.16 -0.542828 2.51816 0
M  V30 2204 H 206.118 -2.24288 2.20323 0
M  V30 2205 N 209.89 -1.43072 0.660911 0
M  V30 2206 C 210.837 -2.30785 -0.0259884 0
M  V30 2207 C 211.807 -1.45184 -0.806888 0
M  V30 2208 O 212.992 -1.74041 -0.781943 0
M  V30 2209 C 210.132 -3.30861 -0.981067 0
M  V30 2210 C 209.245 -4.31558 -0.195458 0
M  V30 2211 C 208.38 -5.18712 -1.14503 0
M  V30 2212 C 207.419 -6.11097 -0.350299 0
M  V30 2213 N 206.556 -6.90849 -1.25186 0
M  V30 2214 H 211.396 -2.88975 0.727846 0
M  V30 2215 H 208.933 -1.42353 0.370682 0
M  V30 2216 H 210.891 -3.87399 -1.54849 0
M  V30 2217 H 209.521 -2.74304 -1.70169 0
M  V30 2218 H 208.573 -3.77252 0.488374 0
M  V30 2219 H 209.885 -4.9701 0.422176 0
M  V30 2220 H 209.039 -5.79914 -1.78284 0
M  V30 2221 H 207.778 -4.53404 -1.79656 0
M  V30 2222 H 206.783 -5.48976 0.300808 0
M  V30 2223 H 208.008 -6.7845 0.296941 0
M  V30 2224 H 205.954 -6.28182 -1.89005 0
M  V30 2225 H 205.871 -7.52854 -0.688971 0
M  V30 2226 H 207.139 -7.5655 -1.87757 0
M  V30 2227 N 211.368 -0.403325 -1.52352 0
M  V30 2228 C 212.784 -0.0539281 -1.59509 0
M  V30 2229 C 212.984 1.43307 -1.41652 0
M  V30 2230 O 212.04 2.19924 -1.24056 0
M  V30 2231 C 213.353 -0.543654 -2.95745 0
M  V30 2232 C 214.901 -0.501125 -3.08962 0
M  V30 2233 C 215.376 -0.967267 -4.47669 0
M  V30 2234 N 216.867 -0.923849 -4.53893 0
M  V30 2235 C 217.602 -1.25578 -5.5948 0
M  V30 2236 N 217.098 -1.65889 -6.72646 0
M  V30 2237 N 218.891 -1.17613 -5.49658 0
M  V30 2238 H 211.042 -1.37123 -1.62206 0
M  V30 2239 H 213.305 -0.56294 -0.76276 0
M  V30 2240 H 213.011 -1.58275 -3.14073 0
M  V30 2241 H 212.885 0.0498042 -3.77167 0
M  V30 2242 H 215.272 0.528909 -2.90321 0
M  V30 2243 H 215.353 -1.13056 -2.2946 0
M  V30 2244 H 214.997 -1.9956 -4.67053 0
M  V30 2245 H 214.927 -0.314698 -5.25659 0
M  V30 2246 H 217.418 -0.627403 -3.72655 0
M  V30 2247 H 217.731 -1.89543 -7.49195 0
M  V30 2248 H 216.076 -1.69787 -6.73942 0
M  V30 2249 H 219.267 -0.860115 -4.6013 0
M  V30 2250 H 219.44 -1.43812 -6.3184 0
M  V30 2251 N 212.846 1.57033 -0.133567 0
M  V30 2252 C 213.776 2.1909 0.807567 0
M  V30 2253 C 214.757 1.13517 1.26681 0
M  V30 2254 O 215.942 1.41809 1.32679 0
M  V30 2255 C 213.072 2.80188 2.05212 0
M  V30 2256 C 212.026 3.91471 1.73015 0
M  V30 2257 C 211.352 4.39443 3.04622 0
M  V30 2258 C 212.652 5.12886 0.987168 0
M  V30 2259 H 214.346 2.97988 0.290403 0
M  V30 2260 H 211.892 1.43335 0.138239 0
M  V30 2261 H 213.845 3.22264 2.71521 0
M  V30 2262 H 212.569 1.98601 2.59278 0
M  V30 2263 H 211.228 3.49993 1.0909 0
M  V30 2264 H 210.876 3.54695 3.56651 0
M  V30 2265 H 210.576 5.14495 2.83847 0
M  V30 2266 H 212.1 4.8418 3.72024 0
M  V30 2267 H 213.514 5.51891 1.55208 0
M  V30 2268 H 211.911 5.93615 0.87985 0
M  V30 2269 H 212.981 4.84894 -0.0235286 0
M  V30 2270 N 214.325 -0.140222 1.56975 0
M  V30 2271 C 215.55 -0.870414 1.88251 0
M  V30 2272 C 215.975 -1.73637 0.723312 0
M  V30 2273 O 215.333 -1.78329 -0.32689 0
M  V30 2274 C 215.381 -1.69737 3.18154 0
M  V30 2275 O 214.485 -2.80229 3.02565 0
M  V30 2276 H 213.826 -0.242025 0.61832 0
M  V30 2277 H 216.356 -0.128999 2.04193 0
M  V30 2278 H 216.366 -2.09099 3.50345 0
M  V30 2279 H 215.041 -1.06152 4.02125 0
M  V30 2280 H 213.618 -2.44224 2.81796 0
M  V30 2281 N 215.803 -1.52179 -0.40978 0
M  V30 2282 C 216.733 -1.78435 -1.5061 0
M  V30 2283 C 217.714 -0.635295 -1.57791 0
M  V30 2284 O 218.899 -0.880823 -1.73076 0
M  V30 2285 C 216.029 -1.93444 -2.88439 0
M  V30 2286 C 214.983 -3.09038 -2.96108 0
M  V30 2287 C 214.309 -3.09268 -4.36185 0
M  V30 2288 C 215.609 -4.48508 -2.67652 0
M  V30 2289 H 217.303 -2.70237 -1.28889 0
M  V30 2290 H 214.849 -1.30036 -0.618605 0
M  V30 2291 H 216.802 -2.10394 -3.65119 0
M  V30 2292 H 215.526 -0.983129 -3.11452 0
M  V30 2293 H 214.185 -2.91837 -2.21872 0
M  V30 2294 H 213.833 -2.11861 -4.56206 0
M  V30 2295 H 213.533 -3.86907 -4.42241 0
M  V30 2296 H 215.057 -3.28348 -5.14801 0
M  V30 2297 H 216.471 -4.65918 -3.34056 0
M  V30 2298 H 214.868 -5.28059 -2.85085 0
M  V30 2299 H 215.938 -4.56649 -1.63095 0
M  V30 2300 N 217.281 0.66697 -1.42791 0
M  V30 2301 C 218.692 1.2478 -1.38877 0
M  V30 2302 C 219.043 1.96012 -0.0859426 0
M  V30 2303 O 218.168 2.00463 0.815081 0
M  V30 2304 C 218.763 2.26938 -2.51564 0
M  V30 2305 C 217.322 2.80529 -2.50959 0
M  V30 2306 C 216.469 1.54965 -2.29959 0
M  V30 2307 H 219.42 0.459853 -1.51892 0
M  V30 2308 H 219.441 3.08834 -2.22265 0
M  V30 2309 H 218.953 1.75065 -3.46372 0
M  V30 2310 H 217.054 3.36502 -1.59991 0
M  V30 2311 H 217.167 3.29012 -3.48265 0
M  V30 2312 H 215.531 1.81817 -1.78366 0
M  V30 2313 H 216.314 1.05047 -3.26833 0
M  V30 2314 N 218.759 1.29093 0.90403 0
M  V30 2315 C 219.722 1.1386 1.98919 0
M  V30 2316 C 220.722 0.0753457 1.60623 0
M  V30 2317 O 221.912 0.321931 1.71199 0
M  V30 2318 C 219.044 0.740198 3.32767 0
M  V30 2319 H 220.237 2.10246 2.13861 0
M  V30 2320 H 217.79 1.12218 1.08797 0
M  V30 2321 H 218.525 -0.223997 3.23525 0
M  V30 2322 H 218.31 1.50838 3.61926 0
M  V30 2323 H 219.8 0.656546 4.12407 0
M  V30 2324 N 220.237 -1.11381 1.11499 0
M  V30 2325 C 221.514 -1.7955 0.775965 0
M  V30 2326 C 221.894 -1.97859 -0.73588 0
M  V30 2327 O 221.242 -1.56376 -1.66609 0
M  V30 2328 C 221.452 -3.13196 1.53977 0
M  V30 2329 C 222.8 -3.88227 1.71944 0
M  V30 2330 O 223.824 -3.22887 1.50407 0
M  V30 2331 O 222.683 -5.05477 2.07738 0
M  V30 2332 H 219.777 -0.777728 0.28119 0
M  V30 2333 H 222.323 -1.18118 1.21845 0
M  V30 2334 H 221.095 -2.95229 2.56818 0
M  V30 2335 H 220.718 -3.82342 1.09088 0
M  V30 2336 N 221.715 -0.905404 -1.28997 0
M  V30 2337 C 222.964 -0.530191 -1.94607 0
M  V30 2338 C 223.277 0.929185 -1.72121 0
M  V30 2339 O 224.483 1.41218 -2.31883 0
M  V30 2340 C 222.939 -0.897333 -3.48534 0
M  V30 2341 C 222.547 -2.37587 -3.79811 0
M  V30 2342 C 224.291 -0.592304 -4.20347 0
M  V30 2343 C 222.198 -2.68357 -5.27009 0
M  V30 2344 H 221.128 -0.194558 -0.728466 0
M  V30 2345 H 223.779 -1.10318 -1.46636 0
M  V30 2346 H 222.161 -0.253214 -3.9519 0
M  V30 2347 H 223.335 -3.06602 -3.43994 0
M  V30 2348 H 221.65 -2.6505 -3.2115 0
M  V30 2349 H 224.247 -0.798975 -5.28697 0
M  V30 2350 H 224.59 0.469474 -4.13644 0
M  V30 2351 H 225.123 -1.19452 -3.79442 0
M  V30 2352 H 221.862 -3.73355 -5.38782 0
M  V30 2353 H 221.382 -2.03971 -5.64053 0
M  V30 2354 H 223.061 -2.54922 -5.94663 0
M  V30 2355 N 223.193 1.4272 -0.668489 0
M  V30 2356 C 224.609 1.55992 -0.33745 0
M  V30 2357 C 224.809 1.64933 1.15756 0
M  V30 2358 O 223.865 1.61278 1.94282 0
M  V30 2359 C 225.178 2.81314 -1.06222 0
M  V30 2360 C 226.726 2.95078 -1.04394 0
M  V30 2361 C 227.201 4.23252 -1.74991 0
M  V30 2362 N 228.692 4.3015 -1.71829 0
M  V30 2363 C 229.427 5.28127 -2.23315 0
M  V30 2364 N 228.923 6.32293 -2.83156 0
M  V30 2365 N 230.716 5.19882 -2.13726 0
M  V30 2366 H 222.867 1.3516 -1.63846 0
M  V30 2367 H 225.13 0.650174 -0.689912 0
M  V30 2368 H 224.836 2.80823 -2.11734 0
M  V30 2369 H 224.71 3.72012 -0.62344 0
M  V30 2370 H 227.097 2.951 0.0028244 0
M  V30 2371 H 227.178 2.05627 -1.52155 0
M  V30 2372 H 226.822 4.2399 -2.79633 0
M  V30 2373 H 226.752 5.11626 -1.24685 0
M  V30 2374 H 229.243 3.55499 -1.28175 0
M  V30 2375 H 229.556 7.03398 -3.20079 0
M  V30 2376 H 227.901 6.32873 -2.87223 0
M  V30 2377 H 231.092 4.37423 -1.66669 0
M  V30 2378 H 231.265 5.96077 -2.54158 0
M  V30 2379 N 224.671 0.411399 1.52136 0
M  V30 2380 C 225.92 -0.165009 2.01024 0
M  V30 2381 C 226.233 -1.4603 1.30133 0
M  V30 2382 O 227.439 -2.1181 1.69849 0
M  V30 2383 C 225.895 -0.344618 3.58246 0
M  V30 2384 C 225.503 0.938716 4.38055 0
M  V30 2385 C 227.247 -0.876195 4.15359 0
M  V30 2386 C 225.154 0.726172 5.86925 0
M  V30 2387 H 224.084 -0.0654407 0.751155 0
M  V30 2388 H 226.735 0.537192 1.75461 0
M  V30 2389 H 225.117 -1.10921 3.80148 0
M  V30 2390 H 226.291 1.70963 4.27912 0
M  V30 2391 H 224.606 1.39688 3.92271 0
M  V30 2392 H 227.203 -1.05128 5.24263 0
M  V30 2393 H 227.546 -1.85152 3.7286 0
M  V30 2394 H 228.079 -0.170607 3.97434 0
M  V30 2395 H 224.818 1.67312 6.33788 0
M  V30 2396 H 224.338 -0.00540283 5.998 0
M  V30 2397 H 226.017 0.369231 6.45946 0
M  V30 2398 N 226.149 -1.5696 0.141893 0
M  V30 2399 C 227.56 -1.82797 -0.379776 0
M  V30 2400 C 227.911 -1.06033 -1.6508 0
M  V30 2401 O 227.036 -0.304011 -2.14254 0
M  V30 2402 C 227.631 -3.31578 -0.695802 0
M  V30 2403 C 226.19 -3.58014 -1.16201 0
M  V30 2404 C 225.337 -2.76699 -0.182455 0
M  V30 2405 H 228.288 -1.54406 0.366675 0
M  V30 2406 H 228.309 -3.47454 -1.55099 0
M  V30 2407 H 227.821 -3.87421 0.229449 0
M  V30 2408 H 225.922 -3.07553 -2.10338 0
M  V30 2409 H 226.035 -4.66501 -1.09151 0
M  V30 2410 H 224.399 -2.45618 -0.674072 0
M  V30 2411 H 225.182 -3.35311 0.736297 0
M  V30 2412 N 227.627 0.131896 -1.57047 0
M  V30 2413 C 228.904 0.871495 -1.75112 0
M  V30 2414 C 229.284 1.9866 -0.713949 0
M  V30 2415 O 228.632 2.26965 0.264447 0
M  V30 2416 C 228.842 1.40007 -3.19686 0
M  V30 2417 C 230.19 1.85752 -3.81813 0
M  V30 2418 O 231.214 1.49715 -3.23209 0
M  V30 2419 O 230.073 2.5226 -4.84796 0
M  V30 2420 H 227.167 0.412919 -0.716538 0
M  V30 2421 H 229.713 0.116641 -1.69299 0
M  V30 2422 H 228.485 0.599404 -3.86682 0
M  V30 2423 H 228.108 2.218 -3.29986 0
M  V30 2424 N 229.106 1.52395 0.401703 0
M  V30 2425 C 230.354 1.66488 1.14569 0
M  V30 2426 C 230.675 0.400897 1.90835 0
M  V30 2427 O 229.945 -0.584415 1.8698 0
M  V30 2428 H 228.525 0.613672 0.425929 0
M  V30 2429 H 231.187 1.89464 0.457093 0
M  V30 2430 H 230.283 2.50942 1.85566 0
M  V30 2431 N 230.584 -0.659388 1.43143 0
M  V30 2432 C 231.814 -1.44513 1.47646 0
M  V30 2433 C 232.222 -1.88981 0.0910095 0
M  V30 2434 O 231.565 -1.59702 -0.907789 0
M  V30 2435 C 231.627 -2.71663 2.35456 0
M  V30 2436 C 231.291 -2.49175 3.83094 0
M  V30 2437 C 232.288 -2.1279 4.74359 0
M  V30 2438 C 229.973 -2.63691 4.27519 0
M  V30 2439 C 231.967 -1.9121 6.08044 0
M  V30 2440 C 229.654 -2.41726 5.61259 0
M  V30 2441 C 230.652 -2.0554 6.51339 0
M  V30 2442 O 230.34 -1.838 7.82606 0
M  V30 2443 H 230.072 -0.45064 0.503884 0
M  V30 2444 H 232.626 -0.816248 1.88485 0
M  V30 2445 H 230.856 -3.37089 1.89493 0
M  V30 2446 H 232.545 -3.33595 2.31235 0
M  V30 2447 H 233.311 -2.01157 4.41317 0
M  V30 2448 H 229.19 -2.90832 3.57684 0
M  V30 2449 H 232.734 -1.62889 6.78316 0
M  V30 2450 H 228.631 -2.52959 5.9387 0
M  V30 2451 H 229.399 -1.98275 7.94122 0
M  V30 2452 N 232.062 -1.29571 -0.897171 0
M  V30 2453 C 232.992 -1.17473 -2.01798 0
M  V30 2454 C 233.973 -0.068323 -1.69963 0
M  V30 2455 O 235.158 -0.248239 -1.92607 0
M  V30 2456 C 232.288 -0.853099 -3.36659 0
M  V30 2457 C 231.242 -1.9161 -3.82713 0
M  V30 2458 C 230.568 -1.44773 -5.14728 0
M  V30 2459 C 231.868 -3.32535 -4.02763 0
M  V30 2460 H 233.562 -2.11237 -2.12177 0
M  V30 2461 H 231.108 -1.01699 -1.01948 0
M  V30 2462 H 233.061 -0.755165 -4.14578 0
M  V30 2463 H 231.785 0.120236 -3.26379 0
M  V30 2464 H 230.444 -2.00346 -3.07013 0
M  V30 2465 H 230.092 -0.462995 -5.00865 0
M  V30 2466 H 229.792 -2.15865 -5.46513 0
M  V30 2467 H 231.316 -1.36334 -5.95185 0
M  V30 2468 H 232.73 -3.26626 -4.71156 0
M  V30 2469 H 231.127 -4.01607 -4.45905 0
M  V30 2470 H 232.197 -3.75326 -3.07016 0
M  V30 2471 N 233.54 1.10788 -1.12088 0
M  V30 2472 C 234.45 2.20599 -0.798338 0
M  V30 2473 C 235.466 1.72712 0.21135 0
M  V30 2474 O 236.642 2.01348 0.0458477 0
M  V30 2475 C 233.707 3.45771 -0.253674 0
M  V30 2476 C 232.768 4.08411 -1.32283 0
M  V30 2477 C 232.001 5.27608 -0.80406 0
M  V30 2478 O 232.224 5.69241 0.363478 0
M  V30 2479 O 231.158 5.8101 -1.57198 0
M  V30 2480 H 234.984 2.50614 -1.7154 0
M  V30 2481 H 232.569 1.19454 -0.897275 0
M  V30 2482 H 234.451 4.21376 0.0453691 0
M  V30 2483 H 233.126 3.1739 0.636005 0
M  V30 2484 H 232.033 3.34507 -1.67499 0
M  V30 2485 H 233.366 4.40986 -2.18614 0
M  V30 2486 N 235.018 0.912232 1.28515 0
M  V30 2487 C 235.965 0.397954 2.27343 0
M  V30 2488 C 236.935 -0.526766 1.57526 0
M  V30 2489 O 238.12 -0.449292 1.85435 0
M  V30 2490 C 235.26 -0.357263 3.43246 0
M  V30 2491 C 234.373 0.599788 4.27816 0
M  V30 2492 C 233.508 -0.173725 5.30916 0
M  V30 2493 C 232.547 0.777039 6.07148 0
M  V30 2494 N 231.684 0.0371398 7.0209 0
M  V30 2495 H 236.524 1.24577 2.70711 0
M  V30 2496 H 234.061 0.625612 1.33133 0
M  V30 2497 H 236.019 -0.8113 4.09236 0
M  V30 2498 H 234.649 -1.16943 3.00872 0
M  V30 2499 H 233.701 1.17235 3.61884 0
M  V30 2500 H 235.013 1.32704 4.80823 0
M  V30 2501 H 234.167 -0.688394 6.02782 0
M  V30 2502 H 232.906 -0.934041 4.78672 0
M  V30 2503 H 231.911 1.3031 5.34134 0
M  V30 2504 H 233.136 1.53689 6.61481 0
M  V30 2505 H 231.082 -0.705213 6.52198 0
M  V30 2506 H 230.999 0.704249 7.52713 0
M  V30 2507 H 232.267 -0.457383 7.78157 0
M  V30 2508 N 236.496 -1.42363 0.676048 0
M  V30 2509 C 237.426 -2.33497 0.0124832 0
M  V30 2510 C 238.407 -1.50748 -0.787981 0
M  V30 2511 O 239.592 -1.79346 -0.744884 0
M  V30 2512 C 236.722 -3.34377 -0.938582 0
M  V30 2513 C 235.676 -4.27289 -0.246622 0
M  V30 2514 C 235.002 -5.18386 -1.31071 0
M  V30 2515 C 236.302 -5.14916 0.875125 0
M  V30 2516 H 237.996 -2.89233 0.773593 0
M  V30 2517 H 235.542 -1.39073 0.37346 0
M  V30 2518 H 237.495 -3.97044 -1.41188 0
M  V30 2519 H 236.219 -2.76947 -1.73113 0
M  V30 2520 H 234.878 -3.66018 0.206456 0
M  V30 2521 H 234.526 -4.57282 -2.09528 0
M  V30 2522 H 234.226 -5.81378 -0.852839 0
M  V30 2523 H 235.75 -5.83929 -1.78492 0
M  V30 2524 H 237.164 -5.71262 0.482983 0
M  V30 2525 H 235.561 -5.86747 1.25887 0
M  V30 2526 H 236.631 -4.53242 1.72335 0
M  V30 2527 N 237.974 -0.419461 -1.51915 0
M  V30 2528 C 238.906 0.43646 -2.25006 0
M  V30 2529 C 239.919 1.00149 -1.28351 0
M  V30 2530 O 241.108 0.898674 -1.54227 0
M  V30 2531 C 238.208 1.6206 -2.9764 0
M  V30 2532 C 237.381 1.17763 -4.21249 0
M  V30 2533 C 236.44 2.22985 -4.76617 0
M  V30 2534 O 235.466 1.83151 -5.38929 0
M  V30 2535 N 236.668 3.55271 -4.59089 0
M  V30 2536 H 239.433 -0.18989 -2.99098 0
M  V30 2537 H 236.994 -0.247386 -1.59999 0
M  V30 2538 H 238.986 2.32038 -3.31573 0
M  V30 2539 H 237.556 2.15266 -2.2667 0
M  V30 2540 H 236.776 0.305582 -3.93014 0
M  V30 2541 H 238.064 0.858781 -5.015 0
M  V30 2542 H 237.462 3.90377 -4.09417 0
M  V30 2543 H 236.019 4.21195 -4.97432 0
M  V30 2544 N 239.452 1.56882 -0.150215 0
M  V30 2545 C 240.701 1.95403 0.500071 0
M  V30 2546 C 241.014 1.03777 1.658 0
M  V30 2547 O 242.22 1.31889 2.37313 0
M  V30 2548 C 240.676 3.4738 0.941018 0
M  V30 2549 C 240.284 4.47596 -0.190158 0
M  V30 2550 C 242.028 3.9476 1.56091 0
M  V30 2551 C 239.935 5.90787 0.269237 0
M  V30 2552 H 238.865 0.729515 0.190588 0
M  V30 2553 H 241.516 1.81988 -0.235074 0
M  V30 2554 H 239.898 3.56138 1.73152 0
M  V30 2555 H 241.072 4.50536 -0.967157 0
M  V30 2556 H 239.387 4.10151 -0.718666 0
M  V30 2557 H 241.984 4.99181 1.9163 0
M  V30 2558 H 242.327 3.36494 2.45107 0
M  V30 2559 H 242.86 3.88932 0.835249 0
M  V30 2560 H 239.599 6.52879 -0.585621 0
M  V30 2561 H 239.119 5.912 1.01204 0
M  V30 2562 H 240.798 6.42979 0.720176 0
M  V30 2563 N 240.93 -0.123565 1.57115 0
M  V30 2564 C 241.878 -1.17082 2.00984 0
M  V30 2565 C 242.872 -1.43136 0.906009 0
M  V30 2566 O 244.078 -1.43152 1.09121 0
M  V30 2567 H 240.453 -0.394653 0.64012 0
M  V30 2568 H 242.424 -0.774292 2.88179 0
M  V30 2569 C 241.173 -2.49057 2.42623 0
M  V30 2570 H 240.496 -2.29846 3.27125 0
M  V30 2571 H 241.936 -3.20906 2.7712 0
M  V30 2572 C 240.395 -3.11305 1.28805 0
M  V30 2573 O 240.925 -3.97171 0.60153 0
M  V30 2574 N 239.131 -2.71111 1.04628 0
M  V30 2575 H 238.678 -2.01382 1.60634 0
M  V30 2576 H 238.636 -3.1309 0.286685 0
M  V30 2577 N 242.408 -1.52605 -0.393616 0
M  V30 2578 C 243.633 -1.71592 -1.16495 0
M  V30 2579 C 244.058 -0.43133 -1.83088 0
M  V30 2580 O 243.416 0.612523 -1.7064 0
M  V30 2581 C 243.464 -2.86318 -2.19213 0
M  V30 2582 O 242.568 -2.52969 -3.257 0
M  V30 2583 H 241.909 -0.570734 -0.33935 0
M  V30 2584 H 244.439 -1.99377 -0.459324 0
M  V30 2585 H 244.449 -3.1168 -2.63286 0
M  V30 2586 H 243.124 -3.79511 -1.7013 0
M  V30 2587 H 241.701 -2.38332 -2.86797 0
M  V30 2588 N 243.887 0.651787 -1.4349 0
M  V30 2589 C 245.298 1.233 -1.40193 0
M  V30 2590 C 245.649 1.9591 -0.106727 0
M  V30 2591 O 244.774 2.01316 0.793773 0
M  V30 2592 C 245.369 2.24257 -2.53957 0
M  V30 2593 C 243.928 2.77852 -2.5392 0
M  V30 2594 C 243.075 1.52517 -2.3159 0
M  V30 2595 H 246.026 0.443717 -1.52371 0
M  V30 2596 H 246.047 3.0646 -2.25528 0
M  V30 2597 H 245.559 1.71382 -3.4821 0
M  V30 2598 H 243.66 3.34786 -1.63551 0
M  V30 2599 H 243.773 3.25299 -3.51735 0
M  V30 2600 H 242.137 1.79915 -1.80285 0
M  V30 2601 H 242.92 1.01574 -3.27929 0
M  V30 2602 N 245.365 1.30045 0.890287 0
M  V30 2603 C 246.776 1.16738 1.45702 0
M  V30 2604 C 247.127 -0.233939 1.948 0
M  V30 2605 O 246.252 -1.13021 1.84541 0
M  V30 2606 C 246.847 2.11313 2.64825 0
M  V30 2607 C 245.406 2.02001 3.17604 0
M  V30 2608 C 244.553 2.01699 1.90296 0
M  V30 2609 H 247.504 1.42392 0.700726 0
M  V30 2610 H 247.525 1.69086 3.40867 0
M  V30 2611 H 247.037 3.13294 2.2906 0
M  V30 2612 H 245.138 1.03142 3.5804 0
M  V30 2613 H 245.251 2.90128 3.81264 0
M  V30 2614 H 243.615 1.46427 2.08402 0
M  V30 2615 H 244.398 3.05402 1.56795 0
M  V30 2616 N 246.843 -1.10192 1.12674 0
M  V30 2617 C 248.09 -1.82205 0.883606 0
M  V30 2618 C 248.418 -1.8532 -0.590492 0
M  V30 2619 O 247.673 -1.31137 -1.45264 0
M  V30 2620 C 247.972 -3.28552 1.4067 0
M  V30 2621 C 247.638 -3.45582 2.89627 0
M  V30 2622 C 246.3 -3.49937 3.30299 0
M  V30 2623 C 248.652 -3.50768 3.85501 0
M  V30 2624 C 245.98 -3.57049 4.65546 0
M  V30 2625 C 248.332 -3.59414 5.20581 0
M  V30 2626 C 246.996 -3.62034 5.60792 0
M  V30 2627 H 246.266 -0.666735 0.323334 0
M  V30 2628 H 248.913 -1.29868 1.40736 0
M  V30 2629 H 247.218 -3.83473 0.80347 0
M  V30 2630 H 248.915 -3.82788 1.19475 0
M  V30 2631 H 245.505 -3.42871 2.57172 0
M  V30 2632 H 249.689 -3.46651 3.55171 0
M  V30 2633 H 244.945 -3.57361 4.96088 0
M  V30 2634 H 249.119 -3.62371 5.94693 0
M  V30 2635 H 246.746 -3.67298 6.6558 0
M  V30 2636 N 248.321 -0.919034 -1.28029 0
M  V30 2637 C 249.598 -0.473668 -1.89778 0
M  V30 2638 C 249.978 1.04783 -1.83259 0
M  V30 2639 O 249.326 1.8982 -1.27202 0
M  V30 2640 C 249.536 -1.00998 -3.34066 0
M  V30 2641 C 250.884 -1.06525 -4.1102 0
M  V30 2642 O 251.908 -0.958996 -3.43048 0
M  V30 2643 O 250.767 -1.22776 -5.3253 0
M  V30 2644 H 247.861 -0.15098 -0.813101 0
M  V30 2645 H 250.407 -1.01016 -1.36359 0
M  V30 2646 H 249.179 -2.05392 -3.33061 0
M  V30 2647 H 248.802 -0.454626 -3.94992 0
M  V30 2648 N 249.799 1.42003 -0.683588 0
M  V30 2649 C 250.731 2.29183 0.0283068 0
M  V30 2650 C 251.744 1.4415 0.756611 0
M  V30 2651 O 252.933 1.67779 0.609306 0
M  V30 2652 C 250.033 3.21765 1.06398 0
M  V30 2653 C 249.206 4.35496 0.407723 0
M  V30 2654 C 248.265 5.08737 1.34437 0
M  V30 2655 O 247.291 5.62948 0.841318 0
M  V30 2656 N 248.493 5.15075 2.67728 0
M  V30 2657 H 251.258 2.9092 -0.720105 0
M  V30 2658 H 248.819 1.53025 -0.528682 0
M  V30 2659 H 250.811 3.6763 1.69204 0
M  V30 2660 H 249.381 2.61418 1.71404 0
M  V30 2661 H 248.601 3.92165 -0.400012 0
M  V30 2662 H 249.889 5.08776 -0.0490956 0
M  V30 2663 H 249.287 4.72457 3.11129 0
M  V30 2664 H 247.844 5.64556 3.2576 0
M  V30 2665 N 251.277 0.427512 1.51691 0
M  V30 2666 C 252.688 -0.0378867 1.86662 0
M  V30 2667 C 253.039 -1.42819 1.34525 0
M  V30 2668 O 252.164 -2.05037 0.692014 0
M  V30 2669 C 252.759 -0.0755266 3.38716 0
M  V30 2670 C 251.318 -0.485309 3.73258 0
M  V30 2671 C 250.465 0.328399 2.75349 0
M  V30 2672 H 253.416 0.64379 1.45055 0
M  V30 2673 H 253.437 -0.887056 3.70016 0
M  V30 2674 H 252.949 0.936487 3.76632 0
M  V30 2675 H 251.05 -1.50329 3.40928 0
M  V30 2676 H 251.163 -0.21693 4.78609 0
M  V30 2677 H 249.527 -0.211905 2.53817 0
M  V30 2678 H 250.31 1.3391 3.16106 0
M  V30 2679 N 252.755 -1.56801 0.158532 0
M  V30 2680 C 253.688 -2.13148 -0.815065 0
M  V30 2681 C 254.666 -1.0581 -1.23462 0
M  V30 2682 O 255.85 -1.3371 -1.32868 0
M  V30 2683 C 252.977 -2.6606 -2.09594 0
M  V30 2684 C 252.023 -3.85651 -1.82141 0
M  V30 2685 S 252.856 -5.26041 -1.00207 0
M  V30 2686 C 254.012 -5.8235 -2.29389 0
M  V30 2687 H 254.245 -2.95396 -0.335937 0
M  V30 2688 H 251.778 -1.54299 -0.0559391 0
M  V30 2689 H 253.736 -2.97195 -2.8317 0
M  V30 2690 H 252.397 -1.83921 -2.54621 0
M  V30 2691 H 251.59 -4.20958 -2.77147 0
M  V30 2692 H 251.192 -3.55338 -1.16667 0
M  V30 2693 H 253.484 -5.94485 -3.24952 0
M  V30 2694 H 254.427 -6.79688 -1.9857 0
M  V30 2695 H 254.835 -5.10675 -2.40564 0
M  V30 2696 N 254.233 0.115231 -1.57178 0
M  V30 2697 C 255.458 0.840354 -1.89612 0
M  V30 2698 C 255.883 1.72464 -0.750845 0
M  V30 2699 O 255.241 1.78826 0.298478 0
M  V30 2700 C 255.289 1.64654 -3.20814 0
M  V30 2701 O 254.393 2.7538 -3.06985 0
M  V30 2702 H 253.734 0.232158 -0.622092 0
M  V30 2703 H 256.264 0.0964977 -2.04372 0
M  V30 2704 H 256.274 2.03499 -3.53627 0
M  V30 2705 H 254.949 0.997416 -4.03763 0
M  V30 2706 H 253.526 2.3971 -2.85646 0
M  V30 2707 N 255.711 1.52812 0.385517 0
M  V30 2708 C 257.127 1.4214 0.725829 0
M  V30 2709 C 257.327 0.544589 1.94001 0
M  V30 2710 O 256.383 0.0193693 2.52493 0
M  V30 2711 C 257.696 2.85042 0.957668 0
M  V30 2712 C 259.244 2.94543 1.05892 0
M  V30 2713 C 259.719 4.38464 1.32337 0
M  V30 2714 N 261.21 4.41804 1.39151 0
M  V30 2715 C 261.945 5.5025 1.61285 0
M  V30 2716 N 261.441 6.68775 1.80866 0
M  V30 2717 N 263.234 5.37798 1.63492 0
M  V30 2718 H 255.385 2.08338 -0.413383 0
M  V30 2719 H 257.648 0.940016 -0.122775 0
M  V30 2720 H 257.354 3.51431 0.137568 0
M  V30 2721 H 257.228 3.27505 1.87137 0
M  V30 2722 H 259.615 2.28321 1.86959 0
M  V30 2723 H 259.696 2.55504 0.123057 0
M  V30 2724 H 259.34 5.05254 0.517793 0
M  V30 2725 H 259.27 4.75059 2.27214 0
M  V30 2726 H 261.761 3.56377 1.25713 0
M  V30 2727 H 262.074 7.47197 1.97271 0
M  V30 2728 H 260.419 6.71797 1.78083 0
M  V30 2729 H 263.61 4.44171 1.47749 0
M  V30 2730 H 263.783 6.22382 1.80402 0
M  V30 2731 N 257.189 -0.644168 1.43834 0
M  V30 2732 C 258.605 -0.960875 1.27434 0
M  V30 2733 C 258.805 -2.00499 0.200618 0
M  V30 2734 O 257.861 -2.49018 -0.417906 0
M  V30 2735 C 259.174 -1.43653 2.64167 0
M  V30 2736 C 260.722 -1.55271 2.71772 0
M  V30 2737 C 261.197 -2.06224 4.08944 0
M  V30 2738 N 262.688 -2.13513 4.11055 0
M  V30 2739 C 263.423 -2.54081 5.14033 0
M  V30 2740 N 262.919 -2.9388 6.27381 0
M  V30 2741 N 264.712 -2.54101 5.01387 0
M  V30 2742 H 256.863 0.0465779 2.12349 0
M  V30 2743 H 259.126 -0.0417638 0.94708 0
M  V30 2744 H 258.832 -0.743706 3.43747 0
M  V30 2745 H 258.706 -2.40993 2.90176 0
M  V30 2746 H 261.093 -2.23653 1.92519 0
M  V30 2747 H 261.174 -0.563395 2.49519 0
M  V30 2748 H 260.818 -1.38441 4.88668 0
M  V30 2749 H 260.748 -3.06003 4.28567 0
M  V30 2750 H 263.239 -1.85493 3.29242 0
M  V30 2751 H 263.552 -3.2361 7.01781 0
M  V30 2752 H 261.897 -2.91663 6.30839 0
M  V30 2753 H 265.088 -2.22391 4.11898 0
M  V30 2754 H 265.261 -2.85394 5.81768 0
M  V30 2755 N 258.668 -1.30515 -0.883378 0
M  V30 2756 C 259.893 -1.22487 -1.67367 0
M  V30 2757 C 260.318 0.208767 -1.86938 0
M  V30 2758 O 259.676 1.15015 -1.40148 0
M  V30 2759 C 259.724 -1.96041 -3.02655 0
M  V30 2760 O 258.828 -1.28859 -3.91751 0
M  V30 2761 H 258.169 -0.423573 -0.511353 0
M  V30 2762 H 260.699 -1.72362 -1.10239 0
M  V30 2763 H 260.709 -2.05124 -3.52687 0
M  V30 2764 H 259.384 -3.00307 -2.8773 0
M  V30 2765 H 257.961 -1.28141 -3.50192 0
M  V30 2766 N 260.146 1.09593 -1.13257 0
M  V30 2767 C 261.562 1.33775 -0.870423 0
M  V30 2768 C 261.762 1.95327 0.494926 0
M  V30 2769 O 260.818 2.19853 1.2418 0
M  V30 2770 C 262.131 2.25106 -1.99369 0
M  V30 2771 C 263.679 2.3862 -2.02558 0
M  V30 2772 C 264.154 3.33285 -3.14142 0
M  V30 2773 N 265.645 3.40857 -3.13641 0
M  V30 2774 C 266.38 4.14101 -3.96621 0
M  V30 2775 N 265.876 4.90157 -4.8961 0
M  V30 2776 N 267.669 4.09808 -3.84726 0
M  V30 2777 H 259.82 0.680136 -2.01216 0
M  V30 2778 H 262.083 0.362133 -0.876107 0
M  V30 2779 H 261.789 1.87103 -2.97801 0
M  V30 2780 H 261.663 3.25481 -1.90635 0
M  V30 2781 H 264.05 2.75887 -1.0474 0
M  V30 2782 H 264.131 1.38028 -2.15364 0
M  V30 2783 H 263.775 2.96741 -4.12198 0
M  V30 2784 H 263.705 4.33776 -2.98574 0
M  V30 2785 H 266.196 2.86624 -2.46282 0
M  V30 2786 H 266.509 5.4347 -5.49418 0
M  V30 2787 H 264.854 4.89251 -4.93617 0
M  V30 2788 H 268.045 3.4949 -3.11408 0
M  V30 2789 H 268.218 4.66629 -4.49623 0
M  V30 2790 N 261.624 0.925811 1.2754 0
M  V30 2791 C 263.04 0.625767 1.46821 0
M  V30 2792 C 263.24 -0.825506 1.83814 0
M  V30 2793 O 262.296 -1.60356 1.95044 0
M  V30 2794 C 263.609 1.57402 2.56213 0
M  V30 2795 C 265.157 1.58204 2.70075 0
M  V30 2796 C 265.632 2.51721 3.82623 0
M  V30 2797 N 267.123 2.49917 3.89994 0
M  V30 2798 C 267.858 3.18968 4.76494 0
M  V30 2799 N 267.354 3.97391 5.67496 0
M  V30 2800 N 269.147 3.07996 4.70208 0
M  V30 2801 H 261.298 1.86409 1.01811 0
M  V30 2802 H 263.561 0.800213 0.508295 0
M  V30 2803 H 263.267 2.60925 2.35819 0
M  V30 2804 H 263.141 1.31428 3.53563 0
M  V30 2805 H 265.528 0.554124 2.89851 0
M  V30 2806 H 265.609 1.88226 1.73218 0
M  V30 2807 H 265.253 3.54622 3.63601 0
M  V30 2808 H 265.183 2.18996 4.78903 0
M  V30 2809 H 267.674 1.9296 3.24923 0
M  V30 2810 H 267.987 4.4707 6.30356 0
M  V30 2811 H 266.332 4.01495 5.67298 0
M  V30 2812 H 269.523 2.46223 3.9811 0
M  V30 2813 H 269.696 3.6208 5.37403 0
M  V30 2814 N 263.102 -1.41638 0.69111 0
M  V30 2815 C 264.065 -2.29178 0.0319786 0
M  V30 2816 C 265.065 -1.44153 -0.712496 0
M  V30 2817 O 266.255 -1.65354 -0.548053 0
M  V30 2818 C 263.387 -3.26952 -0.965161 0
M  V30 2819 H 264.58 -2.88959 0.802681 0
M  V30 2820 H 262.133 -1.4955 0.454356 0
M  V30 2821 H 262.868 -2.72142 -1.76378 0
M  V30 2822 H 262.653 -3.89685 -0.434522 0
M  V30 2823 H 264.143 -3.92561 -1.42428 0
M  V30 2824 N 264.58 -0.43555 -1.51462 0
M  V30 2825 C 265.805 0.132627 -2.06976 0
M  V30 2826 C 266.23 1.35848 -1.30104 0
M  V30 2827 O 265.588 1.78112 -0.338493 0
M  V30 2828 C 265.636 0.43523 -3.57964 0
M  V30 2829 O 264.74 1.52198 -3.83288 0
M  V30 2830 H 264.081 0.00265 -0.663995 0
M  V30 2831 H 266.611 -0.616369 -1.95095 0
M  V30 2832 H 266.621 0.686206 -4.02188 0
M  V30 2833 H 265.296 -0.460739 -4.1334 0
M  V30 2834 H 263.873 1.2611 -3.50928 0
M  V30 2835 N 266.058 1.56714 -0.166846 0
M  V30 2836 C 266.988 2.20754 0.760913 0
M  V30 2837 C 267.969 1.16178 1.24244 0
M  V30 2838 O 269.154 1.44592 1.29641 0
M  V30 2839 C 266.284 2.84478 1.99223 0
M  V30 2840 C 265.238 3.95053 1.64672 0
M  V30 2841 C 264.564 4.45805 2.95232 0
M  V30 2842 C 265.864 5.14865 0.878155 0
M  V30 2843 H 267.558 2.98537 0.22713 0
M  V30 2844 H 265.104 1.43596 0.107805 0
M  V30 2845 H 267.057 3.27951 2.64624 0
M  V30 2846 H 265.781 2.04056 2.55007 0
M  V30 2847 H 264.44 3.52228 1.01641 0
M  V30 2848 H 264.088 3.62181 3.49047 0
M  V30 2849 H 263.788 5.204 2.7287 0
M  V30 2850 H 265.312 4.91962 3.6167 0
M  V30 2851 H 266.726 5.55059 1.43466 0
M  V30 2852 H 265.123 5.95348 0.753738 0
M  V30 2853 H 266.193 4.84735 -0.126377 0
M  V30 2854 N 267.536 -0.106894 1.57237 0
M  V30 2855 C 268.761 -0.830287 1.90055 0
M  V30 2856 C 269.186 -1.72064 0.75998 0
M  V30 2857 O 268.544 -1.78982 -0.288991 0
M  V30 2858 C 268.592 -1.6295 3.21683 0
M  V30 2859 O 267.696 -2.73748 3.08441 0
M  V30 2860 H 267.037 -0.228855 0.623315 0
M  V30 2861 H 269.567 -0.085658 2.04421 0
M  V30 2862 H 269.577 -2.01621 3.54701 0
M  V30 2863 H 268.252 -0.975989 4.04286 0
M  V30 2864 H 266.829 -2.38192 2.86913 0
M  V30 2865 N 269.014 -1.53014 -0.377408 0
M  V30 2866 C 269.924 -1.81557 -1.48574 0
M  V30 2867 C 270.94 -0.703102 -1.59162 0
M  V30 2868 O 272.116 -0.99192 -1.75279 0
M  V30 2869 C 269.181 -1.9889 -2.83978 0
M  V30 2870 C 268.242 -3.22801 -2.83016 0
M  V30 2871 C 267.475 -3.39298 -4.11962 0
M  V30 2872 O 267.698 -2.60345 -5.0752 0
M  V30 2873 O 266.632 -4.32604 -4.18494 0
M  V30 2874 H 270.458 -2.75695 -1.27382 0
M  V30 2875 H 268.043 -1.38248 -0.566373 0
M  V30 2876 H 269.925 -2.11931 -3.6423 0
M  V30 2877 H 268.6 -1.07942 -3.05172 0
M  V30 2878 H 267.507 -3.15193 -2.01505 0
M  V30 2879 H 268.84 -4.13632 -2.66775 0
M  V30 2880 N 270.492 0.636531 -1.44174 0
M  V30 2881 C 271.741 1.39213 -1.45954 0
M  V30 2882 C 272.054 1.95374 -0.0939119 0
M  V30 2883 O 273.26 2.71498 0.0107767 0
M  V30 2884 C 271.716 2.52025 -2.56927 0
M  V30 2885 C 271.324 2.024 -3.99673 0
M  V30 2886 C 273.068 3.29269 -2.67922 0
M  V30 2887 C 270.975 3.12521 -5.0208 0
M  V30 2888 H 269.905 0.523132 -0.542999 0
M  V30 2889 H 272.556 0.685349 -1.70221 0
M  V30 2890 H 270.938 3.25253 -2.25891 0
M  V30 2891 H 272.112 1.36073 -4.40251 0
M  V30 2892 H 270.427 1.37987 -3.92872 0
M  V30 2893 H 273.024 4.11352 -3.41605 0
M  V30 2894 H 273.367 3.78397 -1.73555 0
M  V30 2895 H 273.9 2.63129 -2.98342 0
M  V30 2896 H 270.639 2.68343 -5.98057 0
M  V30 2897 H 270.159 3.77507 -4.66099 0
M  V30 2898 H 271.838 3.77385 -5.25538 0
M  V30 2899 N 271.97 1.30982 0.876444 0
M  V30 2900 C 273.218 1.20058 1.62575 0
M  V30 2901 C 273.539 -0.242947 1.93481 0
M  V30 2902 O 272.809 -1.1619 1.57724 0
M  V30 2903 H 271.389 0.44135 0.602677 0
M  V30 2904 H 274.051 1.64222 1.04962 0
M  V30 2905 H 273.147 1.76762 2.57219 0
M  V30 2906 N 273.449 -1.08991 1.13837 0
M  V30 2907 C 274.696 -1.81258 0.902882 0
M  V30 2908 C 275.024 -1.85936 -0.570803 0
M  V30 2909 O 274.279 -1.3267 -1.43865 0
M  V30 2910 C 274.578 -3.27042 1.44147 0
M  V30 2911 C 274.244 -3.4249 2.93276 0
M  V30 2912 C 272.906 -3.46414 3.33992 0
M  V30 2913 C 275.258 -3.4666 3.892 0
M  V30 2914 C 272.586 -3.52091 4.69307 0
M  V30 2915 C 274.938 -3.53872 5.24364 0
M  V30 2916 C 273.602 -3.56066 5.646 0
M  V30 2917 H 272.872 -0.663268 0.330388 0
M  V30 2918 H 275.519 -1.28368 1.42105 0
M  V30 2919 H 273.824 -3.82599 0.844097 0
M  V30 2920 H 275.521 -3.81499 1.23528 0
M  V30 2921 H 272.111 -3.40124 2.60794 0
M  V30 2922 H 276.295 -3.42865 3.58828 0
M  V30 2923 H 271.551 -3.52079 4.9985 0
M  V30 2924 H 275.725 -3.56043 5.98503 0
M  V30 2925 H 273.352 -3.60218 6.69438 0
M  V30 2926 N 274.927 -0.932562 -1.27047 0
M  V30 2927 C 276.175 -0.574422 -1.93765 0
M  V30 2928 C 276.496 0.887993 -1.73608 0
M  V30 2929 O 275.766 1.62999 -1.08665 0
M  V30 2930 H 274.346 -0.209451 -0.717035 0
M  V30 2931 H 277.008 -1.18601 -1.5466 0
M  V30 2932 H 276.104 -0.784841 -3.02071 0
M  V30 2933 N 276.405 1.4127 -0.698611 0
M  V30 2934 C 277.352 2.30773 -0.0352094 0
M  V30 2935 C 278.322 1.47273 0.768111 0
M  V30 2936 O 279.507 1.76053 0.735524 0
M  V30 2937 C 276.647 3.33346 0.893 0
M  V30 2938 C 275.76 4.31924 0.0809695 0
M  V30 2939 C 274.895 5.21566 1.0071 0
M  V30 2940 C 273.934 6.11811 0.188155 0
M  V30 2941 N 273.071 6.93926 1.06825 0
M  V30 2942 H 277.911 2.86943 -0.804207 0
M  V30 2943 H 275.448 1.4132 -0.408294 0
M  V30 2944 H 277.406 3.91368 1.44523 0
M  V30 2945 H 276.036 2.78719 1.62836 0
M  V30 2946 H 275.088 3.75825 -0.588224 0
M  V30 2947 H 276.4 4.95716 -0.553801 0
M  V30 2948 H 275.554 5.84437 1.62845 0
M  V30 2949 H 274.293 4.58008 1.67572 0
M  V30 2950 H 273.298 5.47986 -0.446254 0
M  V30 2951 H 274.523 6.77425 -0.476716 0
M  V30 2952 H 272.469 6.32973 1.72283 0
M  V30 2953 H 272.386 7.54416 0.489123 0
M  V30 2954 H 273.654 7.61262 1.67632 0
M  V30 2955 N 277.883 0.443576 1.51229 0
M  V30 2956 C 278.816 -0.410089 2.24485 0
M  V30 2957 C 279.794 -1.01949 1.26669 0
M  V30 2958 O 280.978 -1.06075 1.55821 0
M  V30 2959 C 278.105 -1.57211 3.00004 0
M  V30 2960 C 277.151 -1.08279 4.12526 0
M  V30 2961 S 277.984 -0.0197476 5.35496 0
M  V30 2962 C 279.14 -1.18629 6.14555 0
M  V30 2963 H 279.373 0.211832 2.96544 0
M  V30 2964 H 276.906 0.228156 1.52705 0
M  V30 2965 H 278.864 -2.23825 3.44111 0
M  V30 2966 H 277.525 -2.16547 2.27522 0
M  V30 2967 H 276.718 -1.95193 4.64667 0
M  V30 2968 H 276.32 -0.494797 3.70713 0
M  V30 2969 H 278.612 -2.10344 6.4402 0
M  V30 2970 H 279.555 -0.70472 7.04584 0
M  V30 2971 H 279.963 -1.42768 5.46148 0
M  V30 2972 N 279.361 -1.56624 0.175154 0
M  V30 2973 C 280.271 -2.21741 -0.766042 0
M  V30 2974 C 281.287 -1.21023 -1.25018 0
M  V30 2975 O 282.463 -1.53697 -1.3015 0
M  V30 2976 C 279.528 -2.84839 -1.97655 0
M  V30 2977 C 278.589 -4.00769 -1.53892 0
M  V30 2978 C 277.822 -4.60849 -2.69173 0
M  V30 2979 O 278.045 -4.19823 -3.86141 0
M  V30 2980 O 276.979 -5.50655 -2.43028 0
M  V30 2981 H 280.805 -3.02738 -0.241585 0
M  V30 2982 H 278.39 -1.49305 -0.053222 0
M  V30 2983 H 280.272 -3.24834 -2.68442 0
M  V30 2984 H 278.947 -2.06836 -2.48999 0
M  V30 2985 H 277.854 -3.65436 -0.80044 0
M  V30 2986 H 279.187 -4.80376 -1.07236 0
M  V30 2987 N 280.839 0.0985539 -1.57292 0
M  V30 2988 C 282.067 0.816318 -1.90115 0
M  V30 2989 C 282.482 1.72451 -0.768509 0
M  V30 2990 O 281.839 1.80643 0.259687 0
M  V30 2991 C 281.89 1.63259 -3.22535 0
M  V30 2992 O 281.611 0.760934 -4.31441 0
M  V30 2993 C 283.112 2.45372 -3.69199 0
M  V30 2994 H 280.332 0.233595 -0.629027 0
M  V30 2995 H 282.876 0.0768229 -2.04356 0
M  V30 2996 H 281.031 2.32463 -3.09903 0
M  V30 2997 H 281.445 1.32595 -5.07463 0
M  V30 2998 H 282.919 2.98144 -4.64558 0
M  V30 2999 H 283.396 3.23677 -2.96867 0
M  V30 3000 H 284.002 1.81373 -3.84687 0
M  V30 3001 N 282.317 1.53212 0.369288 0
M  V30 3002 C 283.547 1.72868 1.13139 0
M  V30 3003 C 283.955 0.455754 1.83629 0
M  V30 3004 O 283.298 -0.580861 1.74275 0
M  V30 3005 C 283.36 2.83667 2.20847 0
M  V30 3006 C 283.024 4.24142 1.70155 0
M  V30 3007 C 284.021 5.06619 1.16763 0
M  V30 3008 C 281.706 4.70539 1.7578 0
M  V30 3009 C 283.7 6.33581 0.696678 0
M  V30 3010 C 281.387 5.97481 1.28297 0
M  V30 3011 C 282.385 6.78833 0.753307 0
M  V30 3012 O 282.073 8.03393 0.285475 0
M  V30 3013 H 281.805 0.581707 0.344373 0
M  V30 3014 H 284.359 2.00736 0.435243 0
M  V30 3015 H 282.589 2.51265 2.93944 0
M  V30 3016 H 284.278 2.91536 2.82421 0
M  V30 3017 H 285.044 4.71948 1.11758 0
M  V30 3018 H 280.923 4.07293 2.15949 0
M  V30 3019 H 284.467 6.97027 0.282581 0
M  V30 3020 H 280.364 6.31651 1.32994 0
M  V30 3021 H 281.132 8.17497 0.405145 0
M  V30 3022 N 283.795 -0.628877 1.44509 0
M  V30 3023 C 285.044 -1.38437 1.4669 0
M  V30 3024 C 285.357 -1.95322 0.104272 0
M  V30 3025 O 286.563 -2.715 0.00362163 0
M  V30 3026 C 285.019 -2.50659 2.5826 0
M  V30 3027 C 284.627 -2.00277 4.0074 0
M  V30 3028 C 286.371 -3.27844 2.69664 0
M  V30 3029 C 284.278 -3.09854 5.0373 0
M  V30 3030 H 283.208 -0.520245 0.545766 0
M  V30 3031 H 285.859 -0.676313 1.70582 0
M  V30 3032 H 284.241 -3.2405 2.27612 0
M  V30 3033 H 285.415 -1.33736 4.40966 0
M  V30 3034 H 283.73 -1.35901 3.93599 0
M  V30 3035 H 286.327 -4.09534 3.43781 0
M  V30 3036 H 286.67 -3.77471 1.75559 0
M  V30 3037 H 287.203 -2.61543 2.99733 0
M  V30 3038 H 283.942 -2.65168 5.99472 0
M  V30 3039 H 283.462 -3.7503 4.68095 0
M  V30 3040 H 285.141 -3.74592 5.27532 0
M  V30 3041 N 285.273 -1.31445 -0.869486 0
M  V30 3042 C 286.22 -1.19135 -1.97675 0
M  V30 3043 C 287.19 -0.0770266 -1.65921 0
M  V30 3044 O 288.375 -0.249972 -1.89155 0
M  V30 3045 C 285.515 -0.905149 -3.33018 0
M  V30 3046 C 284.628 -2.10285 -3.77365 0
M  V30 3047 C 283.763 -1.75339 -5.01427 0
M  V30 3048 C 282.802 -2.91515 -5.38224 0
M  V30 3049 N 281.939 -2.56762 -6.53466 0
M  V30 3050 H 286.779 -2.13853 -2.07535 0
M  V30 3051 H 284.316 -1.06379 -1.01597 0
M  V30 3052 H 286.274 -0.719765 -4.10944 0
M  V30 3053 H 284.904 0.00519624 -3.228 0
M  V30 3054 H 283.956 -2.39899 -2.95216 0
M  V30 3055 H 285.268 -2.97237 -4.00564 0
M  V30 3056 H 284.422 -1.53266 -5.87022 0
M  V30 3057 H 283.161 -0.855801 -4.80133 0
M  V30 3058 H 282.166 -3.14237 -4.51149 0
M  V30 3059 H 283.391 -3.81985 -5.61484 0
M  V30 3060 H 281.337 -1.69526 -6.33717 0
M  V30 3061 H 281.254 -3.37243 -6.76612 0
M  V30 3062 H 282.522 -2.38083 -7.42251 0
M  V30 3063 N 286.751 1.08385 -1.14413 0
M  V30 3064 C 287.681 2.17321 -0.854044 0
M  V30 3065 C 288.662 1.69024 0.191049 0
M  V30 3066 O 289.847 1.94141 0.0476779 0
M  V30 3067 C 286.977 3.45719 -0.330983 0
M  V30 3068 C 285.931 4.07409 -1.31155 0
M  V30 3069 C 285.257 5.30762 -0.64778 0
M  V30 3070 C 286.557 4.48665 -2.67388 0
M  V30 3071 H 288.251 2.41845 -1.76498 0
M  V30 3072 H 285.797 1.16233 -0.850051 0
M  V30 3073 H 287.75 4.21241 -0.115645 0
M  V30 3074 H 286.474 3.2075 0.615381 0
M  V30 3075 H 285.133 3.33919 -1.51306 0
M  V30 3076 H 284.781 5.02078 0.304398 0
M  V30 3077 H 284.481 5.72992 -1.30207 0
M  V30 3078 H 286.005 6.08998 -0.441972 0
M  V30 3079 H 287.419 5.15364 -2.51143 0
M  V30 3080 H 285.816 5.01814 -3.29093 0
M  V30 3081 H 286.886 3.60543 -3.24248 0
M  V30 3082 N 288.23 0.939286 1.26551 0
M  V30 3083 C 289.14 0.453432 2.30176 0
M  V30 3084 C 290.156 -0.471649 1.67486 0
M  V30 3085 O 291.332 -0.35164 1.98306 0
M  V30 3086 C 288.397 -0.275326 3.45605 0
M  V30 3087 C 287.458 0.686084 4.23782 0
M  V30 3088 C 286.691 -0.00798994 5.33699 0
M  V30 3089 O 286.914 -1.22528 5.57085 0
M  V30 3090 O 285.848 0.669746 5.98162 0
M  V30 3091 H 289.674 1.31416 2.73795 0
M  V30 3092 H 287.259 0.705095 1.31715 0
M  V30 3093 H 289.141 -0.685911 4.1578 0
M  V30 3094 H 287.816 -1.11147 3.0402 0
M  V30 3095 H 286.723 1.14658 3.56096 0
M  V30 3096 H 288.056 1.48979 4.69112 0
M  V30 3097 N 289.708 -1.40897 0.706093 0
M  V30 3098 C 290.655 -2.30751 0.0474474 0
M  V30 3099 C 291.625 -1.47678 -0.76029 0
M  V30 3100 O 292.81 -1.76441 -0.726177 0
M  V30 3101 C 289.95 -3.33815 -0.875309 0
M  V30 3102 C 289.063 -4.31961 -0.0580623 0
M  V30 3103 C 288.198 -5.22093 -0.979425 0
M  V30 3104 C 287.237 -6.11902 -0.155706 0
M  V30 3105 N 286.374 -6.94482 -1.03144 0
M  V30 3106 H 291.214 -2.86513 0.819413 0
M  V30 3107 H 288.751 -1.41102 0.415783 0
M  V30 3108 H 290.709 -3.92129 -1.42446 0
M  V30 3109 H 289.339 -2.79579 -1.61356 0
M  V30 3110 H 288.391 -3.75507 0.608147 0
M  V30 3111 H 289.703 -4.95415 0.580082 0
M  V30 3112 H 288.857 -5.85292 -1.59744 0
M  V30 3113 H 287.596 -4.5889 -1.65141 0
M  V30 3114 H 286.601 -5.47742 0.475309 0
M  V30 3115 H 287.826 -6.77162 0.512635 0
M  V30 3116 H 285.772 -6.33877 -1.68924 0
M  V30 3117 H 285.689 -7.54665 -0.449108 0
M  V30 3118 H 286.957 -7.6214 -1.63593 0
M  V30 3119 N 291.186 -0.45159 -1.50991 0
M  V30 3120 C 292.116 0.342898 -2.30969 0
M  V30 3121 C 293.097 1.00815 -1.37005 0
M  V30 3122 O 294.282 1.00907 -1.65926 0
M  V30 3123 C 291.412 1.43637 -3.16205 0
M  V30 3124 C 290.366 0.893818 -4.18563 0
M  V30 3125 C 289.692 2.08411 -4.92411 0
M  V30 3126 C 290.992 -0.0815568 -5.22236 0
M  V30 3127 H 292.686 -0.324556 -2.97636 0
M  V30 3128 H 290.232 -0.157531 -1.43136 0
M  V30 3129 H 292.185 1.9995 -3.70942 0
M  V30 3130 H 290.909 2.13232 -2.47386 0
M  V30 3131 H 289.568 0.352798 -3.64898 0
M  V30 3132 H 289.216 2.76658 -4.20082 0
M  V30 3133 H 288.916 1.72741 -5.61636 0
M  V30 3134 H 290.44 2.65251 -5.49976 0
M  V30 3135 H 291.854 0.391742 -5.7196 0
M  V30 3136 H 290.251 -0.351551 -5.99069 0
M  V30 3137 H 291.321 -1.01374 -4.74185 0
M  V30 3138 N 292.664 1.56529 -0.183458 0
M  V30 3139 C 293.912 1.96855 0.457452 0
M  V30 3140 C 294.233 1.07104 1.62953 0
M  V30 3141 O 293.503 0.139887 1.954 0
M  V30 3142 H 292.083 0.72693 0.171992 0
M  V30 3143 H 294.745 1.93056 -0.267476 0
M  V30 3144 H 293.841 3.01423 0.809368 0
M  V30 3145 N 294.142 -0.090211 1.57342 0
M  V30 3146 C 295.052 -1.12735 2.05738 0
M  V30 3147 C 296.068 -1.43557 0.983231 0
M  V30 3148 O 297.244 -1.54101 1.29672 0
M  V30 3149 C 294.309 -2.42659 2.47624 0
M  V30 3150 C 293.37 -2.18975 3.69254 0
M  V30 3151 C 292.603 -3.42704 4.09133 0
M  V30 3152 O 292.826 -4.51127 3.49057 0
M  V30 3153 O 291.76 -3.32003 5.02053 0
M  V30 3154 H 295.586 -0.746279 2.94388 0
M  V30 3155 H 293.171 -0.303064 1.46294 0
M  V30 3156 H 295.053 -3.19155 2.7517 0
M  V30 3157 H 293.728 -2.80182 1.62109 0
M  V30 3158 H 292.635 -1.40244 3.46818 0
M  V30 3159 H 293.968 -1.86342 4.55563 0
M  V30 3160 N 295.62 -1.53406 -0.361157 0
M  V30 3161 C 296.868 -1.69467 -1.10115 0
M  V30 3162 C 297.189 -0.451352 -1.89705 0
M  V30 3163 O 296.459 0.534636 -1.88463 0
M  V30 3164 H 295.039 -0.624749 -0.409508 0
M  V30 3165 H 297.701 -1.90609 -0.406699 0
M  V30 3166 H 296.797 -2.55774 -1.78847 0
M  V30 3167 N 297.098 0.621204 -1.44841 0
M  V30 3168 C 298.326 1.40752 -1.51646 0
M  V30 3169 C 298.741 1.88246 -0.144549 0
M  V30 3170 O 298.098 1.61422 0.851416 0
M  V30 3171 C 298.149 2.62119 -2.4895 0
M  V30 3172 O 297.87 2.16602 -3.80808 0
M  V30 3173 C 299.371 3.55135 -2.65319 0
M  V30 3174 H 296.591 0.431325 -0.514004 0
M  V30 3175 H 299.135 0.758835 -1.899 0
M  V30 3176 H 297.29 3.23058 -2.13805 0
M  V30 3177 H 297.704 2.95358 -4.33433 0
M  V30 3178 H 299.178 4.36874 -3.37409 0
M  V30 3179 H 299.655 4.04592 -1.70886 0
M  V30 3180 H 300.261 3.00058 -3.01405 0
M  V30 3181 N 298.576 1.31904 0.862503 0
M  V30 3182 C 299.806 1.24817 1.64634 0
M  V30 3183 C 300.214 -0.187579 1.88268 0
M  V30 3184 O 299.557 -1.13253 1.44635 0
M  V30 3185 C 299.619 1.92996 3.03303 0
M  V30 3186 C 299.283 3.42336 3.02746 0
M  V30 3187 C 300.28 4.37956 2.80162 0
M  V30 3188 C 297.965 3.84147 3.2363 0
M  V30 3189 C 299.959 5.73361 2.78453 0
M  V30 3190 C 297.646 5.19663 3.21549 0
M  V30 3191 C 298.644 6.14081 2.98988 0
M  V30 3192 O 298.332 7.47118 2.96766 0
M  V30 3193 H 298.064 0.432222 0.519769 0
M  V30 3194 H 300.618 1.7445 1.08427 0
M  V30 3195 H 298.848 1.37922 3.61268 0
M  V30 3196 H 300.537 1.79723 3.63943 0
M  V30 3197 H 301.303 4.06981 2.63802 0
M  V30 3198 H 297.182 3.11083 3.40218 0
M  V30 3199 H 300.726 6.4703 2.60763 0
M  V30 3200 H 296.623 5.5027 3.37451 0
M  V30 3201 H 297.391 7.56382 3.12775 0
M  V30 3202 N 300.054 -1.07777 1.14986 0
M  V30 3203 C 301.017 -2.13041 0.845358 0
M  V30 3204 C 302.017 -1.60071 -0.152931 0
M  V30 3205 O 303.207 -1.74033 0.0761879 0
M  V30 3206 C 300.339 -3.39896 0.261383 0
M  V30 3207 H 301.532 -2.41485 1.77834 0
M  V30 3208 H 299.085 -1.23595 0.956757 0
M  V30 3209 H 299.82 -3.17091 -0.68 0
M  V30 3210 H 299.605 -3.79642 0.980514 0
M  V30 3211 H 301.095 -4.17548 0.0657687 0
M  V30 3212 N 301.532 -0.945985 -1.26051 0
M  V30 3213 C 302.76 -0.613025 -1.9761 0
M  V30 3214 C 303.175 0.813035 -1.70397 0
M  V30 3215 O 302.532 1.54274 -0.974979 0
M  V30 3216 C 302.583 -0.85159 -3.51326 0
M  V30 3217 O 302.304 -2.22157 -3.77595 0
M  V30 3218 C 303.805 -0.529831 -4.40122 0
M  V30 3219 H 301.025 -0.230593 -0.630133 0
M  V30 3220 H 303.569 -1.268 -1.60443 0
M  V30 3221 H 301.724 -0.243151 -3.86636 0
M  V30 3222 H 302.138 -2.2852 -4.721 0
M  V30 3223 H 303.612 -0.747348 -5.46917 0
M  V30 3224 H 304.089 0.535341 -4.35925 0
M  V30 3225 H 304.695 -1.11721 -4.10364 0
M  V30 3226 N 303.011 1.40521 -0.713556 0
M  V30 3227 C 304.257 2.01221 -0.252564 0
M  V30 3228 C 304.59 1.56444 1.1506 0
M  V30 3229 O 303.865 0.783597 1.78017 0
M  V30 3230 C 304.148 3.58582 -0.330332 0
M  V30 3231 C 304.001 4.13437 -1.77173 0
M  V30 3232 C 305.32 4.39079 0.299641 0
M  V30 3233 H 302.439 0.731077 -0.0932471 0
M  V30 3234 H 305.081 1.67026 -0.905673 0
M  V30 3235 H 303.231 3.87844 0.225737 0
M  V30 3236 H 304.903 3.9498 -2.38303 0
M  V30 3237 H 303.146 3.67801 -2.3001 0
M  V30 3238 H 303.817 5.22597 -1.77755 0
M  V30 3239 H 306.293 4.15735 -0.174139 0
M  V30 3240 H 305.169 5.4848 0.214771 0
M  V30 3241 H 305.43 4.19915 1.38288 0
M  V30 3242 N 304.489 0.459591 1.5075 0
M  V30 3243 C 305.719 -0.0972338 2.06371 0
M  V30 3244 C 306.127 -1.35074 1.32483 0
M  V30 3245 O 305.47 -1.79637 0.384226 0
M  V30 3246 C 305.532 -0.462759 3.56509 0
M  V30 3247 C 305.196 0.687084 4.51805 0
M  V30 3248 C 306.193 1.56578 4.95761 0
M  V30 3249 C 303.878 0.874144 4.94635 0
M  V30 3250 C 305.872 2.61604 5.81242 0
M  V30 3251 C 303.559 1.92765 5.79901 0
M  V30 3252 C 304.557 2.79697 6.23104 0
M  V30 3253 O 304.245 3.83235 7.06673 0
M  V30 3254 H 303.977 -0.00140687 0.675999 0
M  V30 3255 H 306.531 0.644011 1.95043 0
M  V30 3256 H 304.761 -1.25703 3.65699 0
M  V30 3257 H 306.45 -0.953323 3.94546 0
M  V30 3258 H 307.216 1.4329 4.6335 0
M  V30 3259 H 303.095 0.207006 4.60535 0
M  V30 3260 H 306.639 3.29489 6.14884 0
M  V30 3261 H 302.536 2.06064 6.11725 0
M  V30 3262 H 303.304 3.80084 7.24899 0
M  V30 3263 N 305.967 -1.56429 0.191757 0
M  V30 3264 C 306.914 -2.18936 -0.730454 0
M  V30 3265 C 307.884 -1.13557 -1.21219 0
M  V30 3266 O 309.069 -1.41794 -1.27668 0
M  V30 3267 C 306.209 -2.85013 -1.9458 0
M  V30 3268 C 305.322 -4.04909 -1.50574 0
M  V30 3269 C 304.457 -4.58853 -2.67634 0
M  V30 3270 C 303.496 -5.71114 -2.20217 0
M  V30 3271 N 302.633 -6.19478 -3.30442 0
M  V30 3272 H 307.473 -2.97389 -0.190664 0
M  V30 3273 H 305.01 -1.46869 -0.0823694 0
M  V30 3274 H 306.968 -3.21492 -2.65893 0
M  V30 3275 H 305.598 -2.09129 -2.45896 0
M  V30 3276 H 304.65 -3.74115 -0.688605 0
M  V30 3277 H 305.962 -4.86113 -1.11784 0
M  V30 3278 H 305.116 -4.97619 -3.47074 0
M  V30 3279 H 303.855 -3.76749 -3.09696 0
M  V30 3280 H 302.86 -5.31879 -1.3923 0
M  V30 3281 H 304.085 -6.55033 -1.79189 0
M  V30 3282 H 302.031 -5.40297 -3.72041 0
M  V30 3283 H 301.948 -6.95725 -2.9581 0
M  V30 3284 H 303.216 -6.62898 -4.10106 0
M  V30 3285 N 307.445 0.0818655 -1.57387 0
M  V30 3286 C 308.693 0.781368 -1.86384 0
M  V30 3287 C 309.014 1.78618 -0.782342 0
M  V30 3288 O 308.284 1.94976 0.190061 0
M  V30 3289 H 306.864 0.291562 -0.687751 0
M  V30 3290 H 309.526 0.060348 -1.94807 0
M  V30 3291 H 308.622 1.3038 -2.83562 0
M  V30 3292 N 308.923 1.53595 0.353017 0
M  V30 3293 C 310.339 1.43648 0.695516 0
M  V30 3294 C 310.539 0.585617 1.92802 0
M  V30 3295 O 309.595 0.0729223 2.52395 0
M  V30 3296 C 310.908 2.8701 0.896991 0
M  V30 3297 C 312.456 2.96723 0.996209 0
M  V30 3298 C 312.931 4.41173 1.23007 0
M  V30 3299 N 314.422 4.44657 1.29749 0
M  V30 3300 C 315.157 5.53547 1.49577 0
M  V30 3301 N 314.653 6.72461 1.66639 0
M  V30 3302 N 316.446 5.41145 1.52048 0
M  V30 3303 H 308.597 2.07415 -0.457481 0
M  V30 3304 H 310.86 0.9372 -0.142687 0
M  V30 3305 H 310.566 3.51644 0.0629938 0
M  V30 3306 H 310.44 3.31401 1.80148 0
M  V30 3307 H 312.827 2.32235 1.82074 0
M  V30 3308 H 312.908 2.55707 0.0688331 0
M  V30 3309 H 312.552 5.06238 0.410505 0
M  V30 3310 H 312.482 4.79772 2.17086 0
M  V30 3311 H 314.973 3.58963 1.18126 0
M  V30 3312 H 315.286 7.51214 1.81378 0
M  V30 3313 H 313.631 6.75423 1.63794 0
M  V30 3314 H 316.822 4.47205 1.38294 0
M  V30 3315 H 316.995 6.26068 1.67159 0
M  V30 3316 N 310.401 -0.613514 1.45168 0
M  V30 3317 C 311.626 -1.40437 1.52618 0
M  V30 3318 C 312.051 -1.87438 0.157707 0
M  V30 3319 O 311.409 -1.59791 -0.856537 0
M  V30 3320 C 311.457 -2.58894 2.51011 0
M  V30 3321 O 310.561 -3.59326 2.02382 0
M  V30 3322 H 309.902 -0.419506 0.514695 0
M  V30 3323 H 312.432 -0.747215 1.90467 0
M  V30 3324 H 312.442 -3.06214 2.69624 0
M  V30 3325 H 311.117 -2.24032 3.50403 0
M  V30 3326 H 309.694 -3.18695 1.93618 0
M  V30 3327 N 311.879 -1.3236 -0.855495 0
M  V30 3328 C 312.826 -1.21225 -1.964 0
M  V30 3329 C 313.796 -0.0946204 -1.6583 0
M  V30 3330 O 314.981 -0.27002 -1.8888 0
M  V30 3331 C 312.121 -0.940419 -3.32039 0
M  V30 3332 C 311.234 -2.14276 -3.75113 0
M  V30 3333 C 310.369 -1.80648 -4.9954 0
M  V30 3334 C 309.408 -2.97208 -5.35102 0
M  V30 3335 N 308.545 -2.63678 -6.50706 0
M  V30 3336 H 313.385 -2.16042 -2.05255 0
M  V30 3337 H 310.922 -1.07451 -1.00463 0
M  V30 3338 H 312.88 -0.763311 -4.10158 0
M  V30 3339 H 311.51 -0.0290413 -3.22787 0
M  V30 3340 H 310.562 -2.43017 -2.92655 0
M  V30 3341 H 311.874 -3.01468 -3.97389 0
M  V30 3342 H 311.028 -1.59484 -5.85363 0
M  V30 3343 H 309.767 -0.906678 -4.79198 0
M  V30 3344 H 308.772 -3.19004 -4.47791 0
M  V30 3345 H 309.997 -3.87918 -5.57401 0
M  V30 3346 H 307.943 -1.76238 -6.31883 0
M  V30 3347 H 307.86 -3.444 -6.72997 0
M  V30 3348 H 309.128 -2.45942 -7.39684 0
M  V30 3349 N 313.357 1.07166 -1.15556 0
M  V30 3350 C 314.287 2.16403 -0.877046 0
M  V30 3351 C 315.268 1.69217 0.173111 0
M  V30 3352 O 316.453 1.94181 0.027084 0
M  V30 3353 C 313.583 3.45349 -0.367632 0
M  V30 3354 C 312.537 4.05995 -1.35468 0
M  V30 3355 C 311.863 5.30045 -0.704038 0
M  V30 3356 C 313.163 4.45804 -2.72132 0
M  V30 3357 H 314.857 2.39959 -1.79053 0
M  V30 3358 H 312.403 1.15325 -0.862331 0
M  V30 3359 H 314.356 4.21095 -0.160317 0
M  V30 3360 H 313.08 3.21385 0.581326 0
M  V30 3361 H 311.739 3.32296 -1.54839 0
M  V30 3362 H 311.387 5.02373 0.251128 0
M  V30 3363 H 311.087 5.71579 -1.36277 0
M  V30 3364 H 312.611 6.08495 -0.50654 0
M  V30 3365 H 314.025 5.12671 -2.56595 0
M  V30 3366 H 312.422 4.98296 -3.34397 0
M  V30 3367 H 313.492 3.57083 -3.28054 0
M  V30 3368 N 314.835 0.952656 1.25548 0
M  V30 3369 C 316.063 0.623496 1.97282 0
M  V30 3370 C 316.478 -0.803987 1.70826 0
M  V30 3371 O 315.835 -1.53755 0.983147 0
M  V30 3372 C 315.886 0.870209 3.5087 0
M  V30 3373 O 315.607 2.24156 3.76412 0
M  V30 3374 C 317.108 0.553164 4.39835 0
M  V30 3375 H 314.328 0.233931 0.628902 0
M  V30 3376 H 316.872 1.27649 1.59768 0
M  V30 3377 H 315.027 0.263652 3.86502 0
M  V30 3378 H 315.441 2.31021 4.70882 0
M  V30 3379 H 316.915 0.776342 5.46513 0
M  V30 3380 H 317.392 -0.512215 4.36203 0
M  V30 3381 H 317.998 1.13896 4.09766 0
M  V30 3382 N 316.313 -1.40141 0.720998 0
M  V30 3383 C 317.223 -2.34486 0.0731031 0
M  V30 3384 C 318.239 -1.57587 -0.737723 0
M  V30 3385 O 319.415 -1.89949 -0.669429 0
M  V30 3386 C 316.48 -3.36528 -0.833656 0
M  V30 3387 C 315.541 -4.29298 -0.0121673 0
M  V30 3388 C 314.774 -5.26466 -0.875742 0
M  V30 3389 O 314.997 -5.29745 -2.11485 0
M  V30 3390 O 313.931 -6.01092 -0.31185 0
M  V30 3391 H 317.757 -2.9152 0.851444 0
M  V30 3392 H 315.342 -1.41427 0.481527 0
M  V30 3393 H 317.224 -3.99093 -1.35289 0
M  V30 3394 H 315.899 -2.81899 -1.59105 0
M  V30 3395 H 314.806 -3.70001 0.552262 0
M  V30 3396 H 316.139 -4.87094 0.707129 0
M  V30 3397 N 317.792 -0.46758 -1.50504 0
M  V30 3398 C 318.74 0.342482 -2.30065 0
M  V30 3399 C 319.734 0.993596 -1.37201 0
M  V30 3400 O 320.94 0.925102 -1.54408 0
M  V30 3401 H 317.315 0.129283 -0.740803 0
M  V30 3402 H 319.286 -0.34899 -2.96352 0
M  V30 3403 C 318.035 1.4139 -3.17654 0
M  V30 3404 H 317.358 0.922264 -3.89017 0
M  V30 3405 H 318.798 1.95335 -3.76325 0
M  V30 3406 C 317.257 2.4139 -2.35016 0
M  V30 3407 O 317.787 3.46586 -2.03079 0
M  V30 3408 N 315.993 2.13021 -1.97662 0
M  V30 3409 H 315.54 1.27499 -2.23834 0
M  V30 3410 H 315.498 2.80164 -1.42673 0
M  V30 3411 N 319.27 1.56325 -0.20005 0
M  V30 3412 C 320.2 2.22318 0.713916 0
M  V30 3413 C 321.181 1.18788 1.21752 0
M  V30 3414 O 322.366 1.47309 1.26545 0
M  V30 3415 C 319.496 2.88639 1.93144 0
M  V30 3416 C 318.45 3.98457 1.56255 0
M  V30 3417 C 317.776 4.51967 2.85709 0
M  V30 3418 C 319.076 5.16612 0.768747 0
M  V30 3419 H 320.77 2.98952 0.163755 0
M  V30 3420 H 318.316 1.43792 0.0773219 0
M  V30 3421 H 320.269 3.33491 2.57608 0
M  V30 3422 H 318.993 2.09419 2.50621 0
M  V30 3423 H 317.652 3.54305 0.941471 0
M  V30 3424 H 317.3 3.69503 3.41287 0
M  V30 3425 H 317 5.26071 2.6177 0
M  V30 3426 H 318.524 4.99523 3.51154 0
M  V30 3427 H 319.938 5.57977 1.3166 0
M  V30 3428 H 318.335 5.96812 0.627286 0
M  V30 3429 H 319.405 4.84358 -0.229168 0
M  V30 3430 N 320.748 -0.0735177 1.57428 0
M  V30 3431 C 321.994 -0.774145 1.87443 0
M  V30 3432 C 322.327 -1.77311 0.792103 0
M  V30 3433 O 321.602 -1.93492 -0.197793 0
M  V30 3434 C 321.885 -1.48367 3.28115 0
M  V30 3435 C 321.738 -0.501227 4.46999 0
M  V30 3436 C 323.057 -2.429 3.66998 0
M  V30 3437 H 320.176 -0.279971 0.681752 0
M  V30 3438 H 322.818 -0.0373616 1.89963 0
M  V30 3439 H 320.968 -2.11171 3.26097 0
M  V30 3440 H 322.64 0.121468 4.6114 0
M  V30 3441 H 320.883 0.183593 4.33411 0
M  V30 3442 H 321.554 -1.03526 5.42205 0
M  V30 3443 H 324.03 -1.90175 3.70098 0
M  V30 3444 H 322.906 -2.89549 4.66318 0
M  V30 3445 H 323.167 -3.27628 2.96837 0
M  V30 3446 N 322.226 -1.5378 -0.344866 0
M  V30 3447 C 323.189 -1.80981 -1.40637 0
M  V30 3448 C 324.189 -0.680816 -1.45676 0
M  V30 3449 O 325.379 -0.949095 -1.46075 0
M  V30 3450 C 322.511 -1.95063 -2.79577 0
M  V30 3451 H 323.704 -2.75803 -1.17783 0
M  V30 3452 H 321.257 -1.45173 -0.579181 0
M  V30 3453 H 321.992 -1.02379 -3.07716 0
M  V30 3454 H 321.777 -2.77198 -2.77315 0
M  V30 3455 H 323.267 -2.17629 -3.56409 0
M  V30 3456 N 323.704 0.605807 -1.45491 0
M  V30 3457 C 324.634 1.72709 -1.57143 0
M  V30 3458 C 325.615 1.6476 -0.422884 0
M  V30 3459 O 326.8 1.83132 -0.646247 0
M  V30 3460 C 323.93 3.11316 -1.53948 0
M  V30 3461 C 322.884 3.34077 -2.67537 0
M  V30 3462 C 322.21 4.72975 -2.49397 0
M  V30 3463 C 323.51 3.24158 -4.09535 0
M  V30 3464 H 325.204 1.63214 -2.51001 0
M  V30 3465 H 322.75 0.78379 -1.208 0
M  V30 3466 H 324.703 3.89557 -1.60696 0
M  V30 3467 H 323.427 3.21655 -0.566205 0
M  V30 3468 H 322.086 2.58227 -2.6022 0
M  V30 3469 H 321.734 4.8005 -1.50205 0
M  V30 3470 H 321.434 4.8916 -3.25571 0
M  V30 3471 H 322.958 5.53414 -2.58002 0
M  V30 3472 H 324.372 3.92271 -4.18086 0
M  V30 3473 H 322.769 3.51872 -4.86113 0
M  V30 3474 H 323.839 2.2157 -4.31317 0
M  V30 3475 N 325.182 1.32811 0.848464 0
M  V30 3476 C 326.129 1.22265 1.95755 0
M  V30 3477 C 327.099 0.103413 1.65778 0
M  V30 3478 O 328.284 0.280033 1.88734 0
M  V30 3479 C 325.424 0.958014 3.31536 0
M  V30 3480 C 324.537 2.16262 3.73971 0
M  V30 3481 C 323.672 1.83295 4.98575 0
M  V30 3482 C 322.711 3.00041 5.33518 0
M  V30 3483 N 321.848 2.67125 6.49299 0
M  V30 3484 H 326.688 2.17128 2.04107 0
M  V30 3485 H 324.225 1.07982 0.998913 0
M  V30 3486 H 326.183 0.785052 4.09747 0
M  V30 3487 H 324.813 0.046159 3.22767 0
M  V30 3488 H 323.865 2.44565 2.91362 0
M  V30 3489 H 325.177 3.03572 3.95785 0
M  V30 3490 H 324.331 1.62586 5.84509 0
M  V30 3491 H 323.07 0.932078 4.7871 0
M  V30 3492 H 322.075 3.21374 4.46093 0
M  V30 3493 H 323.3 3.90869 5.55336 0
M  V30 3494 H 321.246 1.79586 6.3094 0
M  V30 3495 H 321.163 3.47965 6.71161 0
M  V30 3496 H 322.431 2.49861 7.3837 0
M  V30 3497 N 326.66 -1.06551 1.16123 0
M  V30 3498 C 327.57 -2.17484 0.879662 0
M  V30 3499 C 328.586 -1.73377 -0.147104 0
M  V30 3500 O 329.762 -2.01379 0.0289128 0
M  V30 3501 C 326.827 -3.44591 0.381829 0
M  V30 3502 C 325.888 -4.0322 1.4735 0
M  V30 3503 C 325.121 -5.24261 0.999324 0
M  V30 3504 O 325.344 -5.70198 -0.151957 0
M  V30 3505 O 324.278 -5.74775 1.78653 0
M  V30 3506 H 328.104 -2.44075 1.80724 0
M  V30 3507 H 325.689 -1.16042 0.940992 0
M  V30 3508 H 327.571 -4.21254 0.111053 0
M  V30 3509 H 326.246 -3.19532 -0.51777 0
M  V30 3510 H 325.153 -3.2806 1.79798 0
M  V30 3511 H 326.486 -4.32568 2.34831 0
M  V30 3512 N 328.138 -0.959301 -1.25041 0
M  V30 3513 C 329.387 -0.612254 -1.92183 0
M  V30 3514 C 329.7 0.855347 -1.75907 0
M  V30 3515 O 330.906 1.31256 -2.37664 0
M  V30 3516 C 329.362 -1.04435 -3.44414 0
M  V30 3517 C 328.97 -2.53482 -3.69393 0
M  V30 3518 C 330.714 -0.770055 -4.17457 0
M  V30 3519 C 328.621 -2.90468 -5.15153 0
M  V30 3520 H 327.551 -0.225279 -0.719559 0
M  V30 3521 H 330.202 -1.16438 -1.41825 0
M  V30 3522 H 328.584 -0.4206 -3.9376 0
M  V30 3523 H 329.758 -3.20916 -3.30681 0
M  V30 3524 H 328.073 -2.78432 -3.0962 0
M  V30 3525 H 330.67 -1.02249 -5.24832 0
M  V30 3526 H 331.013 0.293611 -4.15263 0
M  V30 3527 H 331.546 -1.35437 -3.74034 0
M  V30 3528 H 328.285 -3.95871 -5.22462 0
M  V30 3529 H 327.805 -2.27711 -5.54894 0
M  V30 3530 H 329.484 -2.79914 -5.83315 0
M  V30 3531 N 329.616 1.39756 -0.72842 0
M  V30 3532 C 331.032 1.5442 -0.403308 0
M  V30 3533 C 331.232 1.69694 1.08656 0
M  V30 3534 O 330.288 1.69373 1.87267 0
M  V30 3535 C 331.601 2.76555 -1.18058 0
M  V30 3536 C 333.149 2.90384 -1.16815 0
M  V30 3537 C 333.624 4.15449 -1.92785 0
M  V30 3538 N 335.115 4.22475 -1.89918 0
M  V30 3539 C 335.85 5.1818 -2.45514 0
M  V30 3540 N 335.346 6.19714 -3.09719 0
M  V30 3541 N 337.139 5.1035 -2.35584 0
M  V30 3542 H 329.29 1.28089 -1.69431 0
M  V30 3543 H 331.553 0.620327 -0.716867 0
M  V30 3544 H 331.259 2.7159 -2.23455 0
M  V30 3545 H 331.133 3.69033 -0.780662 0
M  V30 3546 H 333.52 2.94846 -0.12234 0
M  V30 3547 H 333.601 1.98988 -1.6074 0
M  V30 3548 H 333.245 4.11749 -2.97364 0
M  V30 3549 H 333.175 5.05877 -1.46272 0
M  V30 3550 H 335.666 3.49743 -1.43138 0
M  V30 3551 H 335.979 6.8919 -3.49625 0
M  V30 3552 H 334.324 6.20121 -3.13807 0
M  V30 3553 H 337.515 4.2996 -1.85072 0
M  V30 3554 H 337.688 5.84761 -2.79211 0
M  V30 3555 N 331.094 0.475555 1.50254 0
M  V30 3556 C 332.024 -0.30611 2.31485 0
M  V30 3557 C 333.005 -0.986228 1.38591 0
M  V30 3558 O 334.19 -0.982541 1.67511 0
M  V30 3559 C 331.32 -1.38588 3.1845 0
M  V30 3560 C 330.274 -0.827115 4.19932 0
M  V30 3561 C 329.6 -2.00551 4.95665 0
M  V30 3562 C 330.9 0.16463 5.2204 0
M  V30 3563 H 332.594 0.371866 2.97082 0
M  V30 3564 H 330.14 0.180282 1.42867 0
M  V30 3565 H 332.093 -1.94023 3.74076 0
M  V30 3566 H 330.817 -2.09269 2.50747 0
M  V30 3567 H 329.476 -0.294702 3.65414 0
M  V30 3568 H 329.124 -2.6994 4.2443 0
M  V30 3569 H 328.824 -1.63784 5.64313 0
M  V30 3570 H 330.348 -2.56468 5.54127 0
M  V30 3571 H 331.762 -0.300699 5.72511 0
M  V30 3572 H 330.159 0.446813 5.98434 0
M  V30 3573 H 331.229 1.08905 4.72512 0
M  V30 3574 N 332.573 -1.56217 0.208337 0
M  V30 3575 C 333.483 -2.23316 -0.718836 0
M  V30 3576 C 334.499 -1.23648 -1.22422 0
M  V30 3577 O 335.675 -1.56423 -1.26861 0
M  V30 3578 C 332.74 -2.88968 -1.91568 0
M  V30 3579 C 331.801 -4.03943 -1.45357 0
M  V30 3580 C 331.034 -4.66455 -2.59337 0
M  V30 3581 O 331.257 -4.27919 -3.77149 0
M  V30 3582 O 330.191 -5.55686 -2.31293 0
M  V30 3583 H 334.017 -3.03182 -0.177315 0
M  V30 3584 H 331.602 -1.49384 -0.0215402 0
M  V30 3585 H 333.484 -3.30455 -2.61491 0
M  V30 3586 H 332.159 -2.12071 -2.44556 0
M  V30 3587 H 331.066 -3.67052 -0.722746 0
M  V30 3588 H 332.399 -4.82543 -0.970219 0
M  V30 3589 N 334.051 0.0651679 -1.57465 0
M  V30 3590 C 335.001 1.0838 -2.00594 0
M  V30 3591 C 335.985 1.34106 -0.889071 0
M  V30 3592 O 337.177 1.34295 -1.15299 0
M  V30 3593 C 334.306 2.39565 -2.45894 0
M  V30 3594 C 333.392 2.17085 -3.64328 0
M  V30 3595 N 333.783 1.64553 -4.78285 0
M  V30 3596 C 332.081 2.4753 -3.71006 0
M  V30 3597 C 332.782 1.57042 -5.60101 0
M  V30 3598 N 331.758 2.03328 -5.04141 0
M  V30 3599 H 335.56 0.671062 -2.86136 0
M  V30 3600 H 333.074 0.27213 -1.60104 0
M  V30 3601 H 335.071 3.13308 -2.75034 0
M  V30 3602 H 333.731 2.81549 -1.61741 0
M  V30 3603 H 334.742 1.33323 -5.00445 0
M  V30 3604 H 331.419 2.92835 -2.9758 0
M  V30 3605 H 332.809 1.17223 -6.61595 0
M  V30 3606 N 335.529 1.53961 0.336706 0
M  V30 3607 C 336.439 1.85432 1.43708 0
M  V30 3608 C 337.455 0.745053 1.57242 0
M  V30 3609 O 338.631 1.03804 1.72588 0
M  V30 3610 C 335.696 2.06349 2.78605 0
M  V30 3611 C 334.757 3.30191 2.74358 0
M  V30 3612 C 333.99 3.50101 4.02822 0
M  V30 3613 O 334.213 2.7371 5.00439 0
M  V30 3614 O 333.147 4.43547 4.06878 0
M  V30 3615 H 336.973 2.78975 1.20028 0
M  V30 3616 H 334.558 1.39701 0.52952 0
M  V30 3617 H 336.44 2.21513 3.58483 0
M  V30 3618 H 335.115 1.15995 3.02203 0
M  V30 3619 H 334.022 3.20425 1.93078 0
M  V30 3620 H 335.355 4.2056 2.55715 0
M  V30 3621 N 337.007 -0.598083 1.45811 0
M  V30 3622 C 337.917 -1.73632 1.57763 0
M  V30 3623 C 338.933 -1.67763 0.461676 0
M  V30 3624 O 340.109 -1.87949 0.723685 0
M  V30 3625 C 337.174 -3.10114 1.55018 0
M  V30 3626 C 336.235 -3.27364 2.77726 0
M  V30 3627 C 335.468 -4.57334 2.75102 0
M  V30 3628 O 335.691 -5.40258 1.8297 0
M  V30 3629 O 334.625 -4.77502 3.66437 0
M  V30 3630 H 338.451 -1.66498 2.53992 0
M  V30 3631 H 336.036 -0.763308 1.28429 0
M  V30 3632 H 337.918 -3.9141 1.56129 0
M  V30 3633 H 336.593 -3.17718 0.619431 0
M  V30 3634 H 335.5 -2.45619 2.82174 0
M  V30 3635 H 336.833 -3.24641 3.69958 0
M  V30 3636 N 338.485 -1.33259 -0.841409 0
M  V30 3637 C 339.733 -1.24326 -1.59334 0
M  V30 3638 C 340.054 0.191564 -1.94057 0
M  V30 3639 O 339.324 1.11967 -1.60749 0
M  V30 3640 H 337.904 -0.457174 -0.590763 0
M  V30 3641 H 340.566 -1.66947 -1.00571 0
M  V30 3642 H 339.662 -1.8352 -2.52442 0
M  V30 3643 N 339.963 1.05934 -1.16686 0
M  V30 3644 C 340.926 2.11669 -0.879144 0
M  V30 3645 C 341.926 1.60294 0.127445 0
M  V30 3646 O 343.116 1.7389 -0.103865 0
M  V30 3647 C 340.248 3.39438 -0.315425 0
M  V30 3648 H 341.441 2.38626 -1.81653 0
M  V30 3649 H 338.994 1.22058 -0.976299 0
M  V30 3650 H 339.729 3.18132 0.629468 0
M  V30 3651 H 339.514 3.78034 -1.04079 0
M  V30 3652 H 341.004 4.17391 -0.132189 0
M  V30 3653 N 341.441 0.965919 1.2453 0
M  V30 3654 C 342.852 0.665929 1.7442 0
M  V30 3655 C 343.203 -0.818407 1.78316 0
M  V30 3656 O 342.328 -1.64037 1.41141 0
M  V30 3657 C 342.923 1.20211 3.16757 0
M  V30 3658 C 341.482 0.952059 3.6416 0
M  V30 3659 C 340.629 1.33848 2.42858 0
M  V30 3660 H 343.58 1.14144 1.10258 0
M  V30 3661 H 343.601 0.567544 3.76244 0
M  V30 3662 H 343.113 2.28244 3.13889 0
M  V30 3663 H 341.214 -0.112821 3.72429 0
M  V30 3664 H 341.327 1.59645 4.51719 0
M  V30 3665 H 339.691 0.756864 2.43195 0
M  V30 3666 H 340.474 2.42827 2.42673 0
M  V30 3667 N 342.919 -1.39368 0.735821 0
M  V30 3668 C 344.159 -2.02349 0.288813 0
M  V30 3669 C 344.523 -1.57127 -1.10341 0
M  V30 3670 O 345.724 -2.12312 -1.64854 0
M  V30 3671 C 343.995 -3.55288 0.387986 0
M  V30 3672 S 345.554 -4.38795 0.0209408 0
M  V30 3673 H 342.372 -0.701944 0.113115 0
M  V30 3674 H 344.974 -1.70164 0.962518 0
M  V30 3675 H 343.678 -3.85691 1.40252 0
M  V30 3676 H 343.209 -3.92227 -0.303512 0
M  V30 3677 H 345.224 -4.81595 -1.19503 0
M  V30 3678 N 344.397 -0.483516 -1.5 0
M  V30 3679 C 345.625 0.0644831 -2.06799 0
M  V30 3680 C 346.04 1.32399 -1.34596 0
M  V30 3681 O 345.397 1.77626 -0.418946 0
M  V30 3682 C 345.448 0.339927 -3.59898 0
M  V30 3683 O 345.169 -0.869635 -4.29382 0
M  V30 3684 C 346.67 0.933515 -4.33359 0
M  V30 3685 H 343.89 -0.0126333 -0.670881 0
M  V30 3686 H 346.434 -0.675864 -1.93009 0
M  V30 3687 H 344.589 1.03022 -3.7345 0
M  V30 3688 H 345.003 -0.62179 -5.20801 0
M  V30 3689 H 346.477 1.07593 -5.41413 0
M  V30 3690 H 346.954 1.92685 -3.94676 0
M  V30 3691 H 347.56 0.281221 -4.24369 0
M  V30 3692 N 345.875 1.56104 -0.216619 0
M  V30 3693 C 346.838 2.18819 0.681962 0
M  V30 3694 C 347.838 1.14866 1.12528 0
M  V30 3695 O 349.028 1.40128 1.03488 0
M  V30 3696 C 346.16 2.80756 1.93362 0
M  V30 3697 H 347.353 2.99595 0.135254 0
M  V30 3698 H 344.906 1.56265 0.0330003 0
M  V30 3699 H 345.641 2.03837 2.52232 0
M  V30 3700 H 345.426 3.56876 1.62426 0
M  V30 3701 H 346.916 3.28844 2.57393 0
M  V30 3702 N 347.353 -0.0568162 1.57498 0
M  V30 3703 C 348.602 -0.752001 1.87157 0
M  V30 3704 C 348.915 -1.77978 0.811375 0
M  V30 3705 O 350.121 -2.52559 0.996293 0
M  V30 3706 C 348.577 -1.38844 3.3204 0
M  V30 3707 C 348.185 -0.398456 4.46225 0
M  V30 3708 C 349.929 -2.06512 3.70882 0
M  V30 3709 C 347.836 -1.04166 5.82154 0
M  V30 3710 H 346.766 -0.28461 0.698222 0
M  V30 3711 H 349.417 -0.00561272 1.83499 0
M  V30 3712 H 347.799 -2.1836 3.30356 0
M  V30 3713 H 348.973 0.367977 4.59328 0
M  V30 3714 H 347.288 0.174592 4.16034 0
M  V30 3715 H 349.885 -2.55437 4.6974 0
M  V30 3716 H 350.228 -2.87117 3.01445 0
M  V30 3717 H 350.761 -1.33808 3.7462 0
M  V30 3718 H 347.5 -0.275614 6.5492 0
M  V30 3719 H 347.02 -1.7786 5.72823 0
M  V30 3720 H 348.699 -1.55715 6.27982 0
M  V30 3721 N 348.832 -1.54138 -0.328536 0
M  V30 3722 C 350.248 -1.44736 -0.672574 0
M  V30 3723 C 350.448 -0.616217 -1.91846 0
M  V30 3724 O 349.504 -0.113067 -2.52247 0
M  V30 3725 C 350.817 -2.884 -0.851217 0
M  V30 3726 C 352.365 -2.98271 -0.948877 0
M  V30 3727 C 352.84 -4.43074 -1.15973 0
M  V30 3728 N 354.331 -4.46665 -1.22658 0
M  V30 3729 C 355.066 -5.55857 -1.40751 0
M  V30 3730 N 354.562 -6.75026 -1.5592 0
M  V30 3731 N 356.355 -5.43495 -1.4342 0
M  V30 3732 H 348.506 -2.06661 0.490421 0
M  V30 3733 H 350.769 -0.934812 0.157579 0
M  V30 3734 H 350.475 -3.51699 -0.00704236 0
M  V30 3735 H 350.349 -3.34225 -1.74853 0
M  V30 3736 H 352.736 -2.35102 -1.78356 0
M  V30 3737 H 352.817 -2.55785 -0.0281435 0
M  V30 3738 H 352.461 -5.06827 -0.329915 0
M  V30 3739 H 352.391 -4.83165 -2.09426 0
M  V30 3740 H 354.882 -3.60797 -1.124 0
M  V30 3741 H 355.195 -7.54004 -1.69404 0
M  V30 3742 H 353.54 -6.77944 -1.53027 0
M  V30 3743 H 356.731 -4.49349 -1.31162 0
M  V30 3744 H 356.904 -6.28649 -1.57178 0
M  V30 3745 N 350.31 0.590341 -1.46126 0
M  V30 3746 C 351.22 1.72793 -1.58681 0
M  V30 3747 C 352.236 1.67516 -0.470566 0
M  V30 3748 O 353.412 1.87562 -0.733642 0
M  V30 3749 C 350.477 3.09287 -1.5666 0
M  V30 3750 C 349.538 3.25886 -2.79458 0
M  V30 3751 C 348.771 4.55869 -2.77524 0
M  V30 3752 O 348.994 5.3928 -1.85832 0
M  V30 3753 O 347.928 4.75552 -3.68964 0
M  V30 3754 H 351.754 1.65149 -2.54872 0
M  V30 3755 H 349.339 0.756486 -1.28832 0
M  V30 3756 H 351.221 3.90577 -1.58202 0
M  V30 3757 H 349.896 3.17385 -0.636271 0
M  V30 3758 H 348.803 2.44119 -2.83472 0
M  V30 3759 H 350.136 3.22675 -3.71674 0
M  V30 3760 N 351.788 1.33704 0.83433 0
M  V30 3761 C 353.034 1.25603 1.59222 0
M  V30 3762 C 353.367 -0.176659 1.93395 0
M  V30 3763 O 352.642 -1.11915 1.59076 0
M  V30 3764 C 352.925 2.13576 2.89926 0
M  V30 3765 C 352.778 3.65326 2.62406 0
M  V30 3766 C 354.097 2.01238 3.91397 0
M  V30 3767 H 351.216 0.457613 0.577719 0
M  V30 3768 H 353.858 1.63848 0.961972 0
M  V30 3769 H 352.008 1.8109 3.43713 0
M  V30 3770 H 353.68 4.08124 2.15017 0
M  V30 3771 H 351.923 3.8698 1.96033 0
M  V30 3772 H 352.594 4.22232 3.55562 0
M  V30 3773 H 355.07 2.29738 3.46929 0
M  V30 3774 H 353.946 2.65036 4.80673 0
M  V30 3775 H 354.207 0.985951 4.30966 0
M  V30 3776 N 353.266 -1.05314 1.17247 0
M  V30 3777 C 354.491 -1.82509 0.985148 0
M  V30 3778 C 354.916 -1.82343 -0.461788 0
M  V30 3779 O 354.274 -1.23151 -1.33055 0
M  V30 3780 C 354.322 -3.26566 1.52929 0
M  V30 3781 O 353.426 -4.05666 0.742225 0
M  V30 3782 H 352.767 -0.564347 0.349869 0
M  V30 3783 H 355.297 -1.32718 1.55715 0
M  V30 3784 H 355.307 -3.77369 1.55103 0
M  V30 3785 H 353.982 -3.26001 2.58256 0
M  V30 3786 H 352.559 -3.64397 0.791794 0
M  V30 3787 N 354.744 -0.972509 -1.24016 0
M  V30 3788 C 355.674 -0.525548 -2.27509 0
M  V30 3789 C 356.655 0.437262 -1.64384 0
M  V30 3790 O 357.84 0.332343 -1.91335 0
M  V30 3791 C 354.97 0.180448 -3.46831 0
M  V30 3792 C 353.924 -0.698859 -4.22256 0
M  V30 3793 C 353.25 0.138903 -5.3452 0
M  V30 3794 C 354.55 -1.98582 -4.83076 0
M  V30 3795 H 356.244 -1.39058 -2.65148 0
M  V30 3796 H 353.79 -0.67009 -1.27459 0
M  V30 3797 H 355.743 0.504387 -4.18371 0
M  V30 3798 H 354.467 1.07987 -3.08231 0
M  V30 3799 H 353.126 -1.00614 -3.52523 0
M  V30 3800 H 352.774 1.03862 -4.9216 0
M  V30 3801 H 352.474 -0.446259 -5.85903 0
M  V30 3802 H 353.998 0.457404 -6.08884 0
M  V30 3803 H 355.412 -1.72715 -5.46665 0
M  V30 3804 H 353.809 -2.5181 -5.44713 0
M  V30 3805 H 354.879 -2.67769 -4.04262 0
M  V30 3806 N 356.222 1.38976 -0.743202 0
M  V30 3807 C 357.152 2.33171 -0.123873 0
M  V30 3808 C 358.133 1.54336 0.71516 0
M  V30 3809 O 359.318 1.82696 0.658467 0
M  V30 3810 C 356.448 3.38474 0.777978 0
M  V30 3811 C 355.402 4.27979 0.0424758 0
M  V30 3812 C 354.728 5.2405 1.06189 0
M  V30 3813 C 356.028 5.10155 -1.1198 0
M  V30 3814 H 357.722 2.85213 -0.910709 0
M  V30 3815 H 355.268 1.37133 -0.439388 0
M  V30 3816 H 357.221 4.03328 1.22084 0
M  V30 3817 H 355.945 2.84891 1.59702 0
M  V30 3818 H 354.604 3.64616 -0.380853 0
M  V30 3819 H 354.252 4.66758 1.87472 0
M  V30 3820 H 353.952 5.84785 0.574485 0
M  V30 3821 H 355.476 5.9178 1.50428 0
M  V30 3822 H 356.89 5.68307 -0.75499 0
M  V30 3823 H 355.287 5.80073 -1.53738 0
M  V30 3824 H 356.357 4.44504 -1.93764 0
M  V30 3825 N 357.7 0.491464 1.49741 0
M  V30 3826 C 358.647 -0.292027 2.28945 0
M  V30 3827 C 359.617 -0.968973 1.34908 0
M  V30 3828 O 360.802 -0.97748 1.6386 0
M  V30 3829 C 357.942 -1.35617 3.17336 0
M  V30 3830 C 357.055 -0.691957 4.26422 0
M  V30 3831 C 356.19 -1.73572 5.02042 0
M  V30 3832 C 355.229 -1.05286 6.02977 0
M  V30 3833 N 354.366 -2.0404 6.71798 0
M  V30 3834 H 359.206 0.389654 2.95442 0
M  V30 3835 H 356.743 0.204003 1.45679 0
M  V30 3836 H 358.701 -1.98502 3.66951 0
M  V30 3837 H 357.331 -2.00674 2.52844 0
M  V30 3838 H 356.383 0.0499523 3.80367 0
M  V30 3839 H 357.695 -0.153946 4.98562 0
M  V30 3840 H 356.849 -2.43987 5.55478 0
M  V30 3841 H 355.588 -2.30757 4.29654 0
M  V30 3842 H 354.593 -0.334446 5.48782 0
M  V30 3843 H 355.818 -0.487636 6.77347 0
M  V30 3844 H 353.764 -2.60205 6.02187 0
M  V30 3845 H 353.681 -1.55279 7.39881 0
M  V30 3846 H 354.949 -2.73772 7.29842 0
M  V30 3847 N 359.178 -1.55987 0.224894 0
M  V30 3848 C 360.455 -1.90232 -0.455083 0
M  V30 3849 C 360.835 -1.14269 -1.77499 0
M  V30 3850 O 360.183 -0.253079 -2.27094 0
M  V30 3851 C 360.393 -3.42993 -0.644758 0
M  V30 3852 C 361.741 -4.13821 -0.950669 0
M  V30 3853 O 362.765 -3.4861 -0.731423 0
M  V30 3854 O 361.624 -5.29128 -1.36695 0
M  V30 3855 H 358.718 -0.79108 -0.241084 0
M  V30 3856 H 361.264 -1.67581 0.267327 0
M  V30 3857 H 360.036 -3.90252 0.28613 0
M  V30 3858 H 359.659 -3.71434 -1.41853 0
M  V30 3859 N 360.656 0.0484629 -1.57525 0
M  V30 3860 C 361.586 1.0549 -2.08313 0
M  V30 3861 C 362.567 1.38929 -0.981463 0
M  V30 3862 O 363.752 1.48151 -1.25558 0
M  V30 3863 C 360.882 2.36162 -2.54646 0
M  V30 3864 C 359.836 2.17016 -3.68901 0
M  V30 3865 C 359.162 3.53278 -4.01371 0
M  V30 3866 C 360.462 1.57219 -4.98076 0
M  V30 3867 H 362.156 0.632195 -2.92649 0
M  V30 3868 H 359.702 0.302654 -1.40784 0
M  V30 3869 H 361.655 3.06882 -2.88793 0
M  V30 3870 H 360.379 2.80456 -1.67368 0
M  V30 3871 H 359.038 1.48733 -3.35073 0
M  V30 3872 H 358.686 3.95185 -3.11188 0
M  V30 3873 H 358.386 3.41299 -4.78318 0
M  V30 3874 H 359.91 4.25391 -4.38035 0
M  V30 3875 H 361.324 2.17832 -5.30304 0
M  V30 3876 H 359.721 1.55871 -5.79503 0
M  V30 3877 H 360.791 0.535956 -4.81929 0
M  V30 3878 N 362.134 1.5431 0.320358 0
M  V30 3879 C 363.081 1.83918 1.39438 0
M  V30 3880 C 364.051 0.686525 1.51248 0
M  V30 3881 O 365.236 0.933269 1.66417 0
M  V30 3882 C 362.376 2.075 2.75749 0
M  V30 3883 C 361.489 3.35177 2.72544 0
M  V30 3884 C 360.624 3.48704 4.00723 0
M  V30 3885 C 359.663 4.70244 3.91838 0
M  V30 3886 N 358.8 4.80679 5.11754 0
M  V30 3887 H 363.64 2.75544 1.13489 0
M  V30 3888 H 361.177 1.36459 0.549309 0
M  V30 3889 H 363.135 2.19166 3.54996 0
M  V30 3890 H 361.765 1.19163 3 0
M  V30 3891 H 360.817 3.32233 1.85271 0
M  V30 3892 H 362.129 4.24534 2.61863 0
M  V30 3893 H 361.283 3.59928 4.88402 0
M  V30 3894 H 360.022 2.57445 4.14214 0
M  V30 3895 H 359.027 4.59072 3.02544 0
M  V30 3896 H 360.252 5.6289 3.7991 0
M  V30 3897 H 358.198 3.92337 5.25745 0
M  V30 3898 H 358.115 5.64007 5.0342 0
M  V30 3899 H 359.383 4.96239 6.01138 0
M  V30 3900 N 363.613 -0.582584 1.46437 0
M  V30 3901 C 364.563 -1.68654 1.53426 0
M  V30 3902 C 365.547 -1.55971 0.395194 0
M  V30 3903 O 366.739 -1.64884 0.643612 0
M  V30 3904 C 363.868 -3.07439 1.52762 0
M  V30 3905 C 362.954 -3.25418 2.71963 0
M  V30 3906 N 363.345 -3.13556 3.96883 0
M  V30 3907 C 361.643 -3.56357 2.68189 0
M  V30 3908 C 362.344 -3.33543 4.76575 0
M  V30 3909 N 361.32 -3.58704 4.08451 0
M  V30 3910 H 365.122 -1.58014 2.47808 0
M  V30 3911 H 362.636 -0.786617 1.42078 0
M  V30 3912 H 364.633 -3.86671 1.55857 0
M  V30 3913 H 363.293 -3.1921 0.594573 0
M  V30 3914 H 364.304 -2.9142 4.28129 0
M  V30 3915 H 360.981 -3.74812 1.83908 0
M  V30 3916 H 362.371 -3.29555 5.85528 0
M  V30 3917 N 365.091 -1.34144 -0.827227 0
M  V30 3918 C 366.054 -1.25264 -1.91942 0
M  V30 3919 C 367.054 -0.168866 -1.59911 0
M  V30 3920 O 368.244 -0.421198 -1.69031 0
M  V30 3921 C 365.376 -0.932952 -3.27885 0
M  V30 3922 H 366.569 -2.22357 -2.0124 0
M  V30 3923 H 364.122 -1.1837 -1.0207 0
M  V30 3924 H 364.857 0.0349917 -3.24281 0
M  V30 3925 H 364.642 -1.71682 -3.52516 0
M  V30 3926 H 366.132 -0.895874 -4.07877 0
M  V30 3927 N 366.569 1.04691 -1.17803 0
M  V30 3928 C 367.517 2.14665 -0.895635 0
M  V30 3929 C 368.511 1.68806 0.141679 0
M  V30 3930 O 369.717 1.79999 -0.00587914 0
M  V30 3931 H 366.092 0.701038 -0.272121 0
M  V30 3932 H 368.063 2.35685 -1.83017 0
M  V30 3933 C 366.812 3.45019 -0.430962 0
M  V30 3934 H 366.135 3.8071 -1.22064 0
M  V30 3935 H 367.575 4.23125 -0.272301 0
M  V30 3936 C 366.034 3.25943 0.852207 0
M  V30 3937 O 366.564 3.5296 1.91786 0
M  V30 3938 N 364.77 2.79304 0.802346 0
M  V30 3939 H 364.317 2.57518 -0.0650788 0
M  V30 3940 H 364.275 2.66921 1.66134 0
M  V30 3941 N 368.047 0.979072 1.23499 0
M  V30 3942 C 369.296 0.642751 1.91185 0
M  V30 3943 C 369.609 -0.827253 1.77245 0
M  V30 3944 O 370.815 -1.27458 2.39722 0
M  V30 3945 C 369.271 1.09901 3.42709 0
M  V30 3946 C 368.879 2.59327 3.65313 0
M  V30 3947 C 370.623 0.836371 4.16179 0
M  V30 3948 C 368.53 2.98627 5.10467 0
M  V30 3949 H 367.46 0.236698 0.715884 0
M  V30 3950 H 370.111 1.1868 1.39955 0
M  V30 3951 H 368.493 0.48319 3.93041 0
M  V30 3952 H 369.667 3.26136 3.25533 0
M  V30 3953 H 367.982 2.83323 3.05151 0
M  V30 3954 H 370.579 1.10586 5.23139 0
M  V30 3955 H 370.922 -0.227509 4.15678 0
M  V30 3956 H 371.455 1.41371 3.71832 0
M  V30 3957 H 368.194 4.04133 5.16098 0
M  V30 3958 H 367.714 2.3651 5.51201 0
M  V30 3959 H 369.393 2.89159 5.78788 0
M  V30 3960 N 369.525 -1.3858 0.750561 0
M  V30 3961 C 370.771 -2.00481 0.305825 0
M  V30 3962 C 371.104 -1.5944 -1.10872 0
M  V30 3963 O 370.379 -0.83052 -1.75877 0
M  V30 3964 C 370.662 -3.5758 0.425287 0
M  V30 3965 C 370.515 -4.08594 1.88072 0
M  V30 3966 C 371.834 -4.39719 -0.183122 0
M  V30 3967 H 368.953 -0.728348 0.112598 0
M  V30 3968 H 371.595 -1.64566 0.949638 0
M  V30 3969 H 369.745 -3.88306 -0.122828 0
M  V30 3970 H 371.417 -3.88523 2.48691 0
M  V30 3971 H 369.66 -3.61574 2.39681 0
M  V30 3972 H 370.331 -5.177 1.91548 0
M  V30 3973 H 372.807 -4.15128 0.284303 0
M  V30 3974 H 371.683 -5.48856 -0.0692757 0
M  V30 3975 H 371.944 -4.23434 -1.27106 0
M  V30 3976 N 371.003 -0.499398 -1.49478 0
M  V30 3977 C 372.231 0.0425456 -2.06856 0
M  V30 3978 C 372.646 1.30964 -1.35992 0
M  V30 3979 O 372.003 1.77172 -0.437762 0
M  V30 3980 C 372.054 0.301735 -3.60239 0
M  V30 3981 O 371.775 -0.915127 -4.28436 0
M  V30 3982 C 373.276 0.887499 -4.34325 0
M  V30 3983 H 370.496 -0.0197482 -0.670709 0
M  V30 3984 H 373.04 -0.696297 -1.92281 0
M  V30 3985 H 371.195 0.990556 -3.74522 0
M  V30 3986 H 371.609 -0.676993 -5.20113 0
M  V30 3987 H 373.083 1.01845 -5.42523 0
M  V30 3988 H 373.56 1.88488 -3.96698 0
M  V30 3989 H 374.166 0.236196 -4.24644 0
M  V30 3990 N 372.481 1.55866 -0.233164 0
M  V30 3991 C 373.411 2.23783 0.666599 0
M  V30 3992 C 374.392 1.21343 1.19205 0
M  V30 3993 O 375.577 1.4996 1.23392 0
M  V30 3994 C 372.707 2.92671 1.86978 0
M  V30 3995 C 371.661 4.01682 1.47768 0
M  V30 3996 C 370.987 4.57926 2.76058 0
M  V30 3997 C 372.287 5.18126 0.658993 0
M  V30 3998 H 373.981 2.99232 0.100306 0
M  V30 3999 H 371.527 1.43924 0.046804 0
M  V30 4000 H 373.48 3.3888 2.50476 0
M  V30 4001 H 372.204 2.14688 2.46123 0
M  V30 4002 H 370.863 3.56222 0.866106 0
M  V30 4003 H 370.511 3.76659 3.33372 0
M  V30 4004 H 370.211 5.31505 2.50552 0
M  V30 4005 H 371.735 5.06859 3.40479 0
M  V30 4006 H 373.149 5.60644 1.19795 0
M  V30 4007 H 371.546 5.98009 0.500552 0
M  V30 4008 H 372.616 4.83763 -0.331856 0
M  V30 4009 N 373.959 -0.0401083 1.57549 0
M  V30 4010 C 374.909 -1.05175 2.02292 0
M  V30 4011 C 375.893 -1.32674 0.910294 0
M  V30 4012 O 377.085 -1.32444 1.17421 0
M  V30 4013 C 374.214 -2.35622 2.49674 0
M  V30 4014 C 373.3 -2.11261 3.67736 0
M  V30 4015 N 373.691 -1.56923 4.80842 0
M  V30 4016 C 371.989 -2.41596 3.74897 0
M  V30 4017 C 372.69 -1.48111 5.62528 0
M  V30 4018 N 371.666 -1.95282 5.07312 0
M  V30 4019 H 375.468 -0.625455 2.87168 0
M  V30 4020 H 372.982 -0.246624 1.60516 0
M  V30 4021 H 374.979 -3.08893 2.79983 0
M  V30 4022 H 373.639 -2.7894 1.662 0
M  V30 4023 H 374.65 -1.25345 5.02503 0
M  V30 4024 H 371.327 -2.88064 3.02201 0
M  V30 4025 H 372.717 -1.06683 6.63377 0
M  V30 4026 N 375.437 -1.54477 -0.31217 0
M  V30 4027 C 376.714 -1.63891 -1.06767 0
M  V30 4028 C 377.094 -0.480028 -2.0557 0
M  V30 4029 O 376.442 0.524487 -2.22399 0
M  V30 4030 C 376.652 -3.01402 -1.75948 0
M  V30 4031 C 378 -3.57838 -2.28554 0
M  V30 4032 O 379.024 -3.03782 -1.85998 0
M  V30 4033 O 377.883 -4.52462 -3.06497 0
M  V30 4034 H 374.977 -0.664125 -0.492816 0
M  V30 4035 H 377.523 -1.66823 -0.311149 0
M  V30 4036 H 376.295 -3.77187 -1.04144 0
M  V30 4037 H 375.918 -3.02199 -2.58383 0
M  V30 4038 N 376.915 0.57481 -1.46744 0
M  V30 4039 C 378.164 1.32898 -1.51727 0
M  V30 4040 C 378.477 1.948 -0.176692 0
M  V30 4041 O 379.683 2.71299 -0.104385 0
M  V30 4042 C 378.139 2.40901 -2.67385 0
M  V30 4043 C 377.747 1.85266 -4.07898 0
M  V30 4044 C 379.491 3.17609 -2.81646 0
M  V30 4045 C 377.398 2.90945 -5.14883 0
M  V30 4046 H 376.328 0.499631 -0.564699 0
M  V30 4047 H 378.979 0.612536 -1.72975 0
M  V30 4048 H 377.361 3.15379 -2.39483 0
M  V30 4049 H 378.535 1.17278 -4.45626 0
M  V30 4050 H 376.85 1.21199 -3.98371 0
M  V30 4051 H 379.447 3.96493 -3.58744 0
M  V30 4052 H 379.79 3.70696 -1.89448 0
M  V30 4053 H 380.323 2.50239 -3.09233 0
M  V30 4054 H 377.062 2.42736 -6.089 0
M  V30 4055 H 376.582 3.57398 -4.81691 0
M  V30 4056 H 378.261 3.54755 -5.41071 0
M  V30 4057 N 378.394 1.34581 0.820102 0
M  V30 4058 C 379.64 1.27285 1.57881 0
M  V30 4059 C 379.973 -0.156137 1.93571 0
M  V30 4060 O 379.248 -1.10222 1.60254 0
M  V30 4061 C 379.531 2.16639 2.87645 0
M  V30 4062 C 379.384 3.68088 2.58517 0
M  V30 4063 C 380.703 2.05378 3.8924 0
M  V30 4064 H 377.822 0.463714 0.572833 0
M  V30 4065 H 380.464 1.64859 0.944539 0
M  V30 4066 H 378.614 1.84725 3.41773 0
M  V30 4067 H 380.286 4.10382 2.10676 0
M  V30 4068 H 378.529 3.89038 1.91917 0
M  V30 4069 H 379.2 4.2598 3.51063 0
M  V30 4070 H 381.676 2.33404 3.44473 0
M  V30 4071 H 380.552 2.7012 4.77835 0
M  V30 4072 H 380.813 1.0316 4.29896 0
M  V30 4073 N 379.872 -1.04064 1.18357 0
M  V30 4074 C 380.822 -2.10393 0.878561 0
M  V30 4075 C 381.806 -1.60183 -0.151713 0
M  V30 4076 O 382.998 -1.76923 0.0523303 0
M  V30 4077 C 380.127 -3.4089 0.406096 0
M  V30 4078 C 379.213 -3.97866 1.46844 0
M  V30 4079 N 379.604 -4.28657 2.68489 0
M  V30 4080 C 377.902 -4.2574 1.32896 0
M  V30 4081 C 378.603 -4.74253 3.36836 0
M  V30 4082 N 377.579 -4.75068 2.64219 0
M  V30 4083 H 381.381 -2.32076 1.80327 0
M  V30 4084 H 378.895 -1.21818 1.07397 0
M  V30 4085 H 380.892 -4.16557 0.169088 0
M  V30 4086 H 379.552 -3.20633 -0.512275 0
M  V30 4087 H 380.563 -4.18304 3.05356 0
M  V30 4088 H 377.24 -4.1481 0.473134 0
M  V30 4089 H 378.63 -5.07096 4.40798 0
M  V30 4090 N 381.35 -0.985608 -1.22978 0
M  V30 4091 C 382.578 -0.675582 -1.95559 0
M  V30 4092 C 382.993 0.758413 -1.72897 0
M  V30 4093 O 382.35 1.51094 -1.02357 0
M  V30 4094 C 382.401 -0.96293 -3.48439 0
M  V30 4095 O 382.122 -2.34057 -3.70336 0
M  V30 4096 C 383.623 -0.669585 -4.38214 0
M  V30 4097 H 380.843 -0.250523 -0.622478 0
M  V30 4098 H 383.387 -1.3184 -1.56328 0
M  V30 4099 H 381.542 -0.366033 -3.85667 0
M  V30 4100 H 381.956 -2.43424 -4.64591 0
M  V30 4101 H 383.43 -0.920967 -5.44263 0
M  V30 4102 H 383.907 0.396383 -4.37408 0
M  V30 4103 H 384.513 -1.2472 -4.06602 0
M  V30 4104 N 382.828 1.3818 -0.7579 0
M  V30 4105 C 384.105 1.94106 -0.241306 0
M  V30 4106 C 384.485 1.69282 1.26122 0
M  V30 4107 O 383.833 1.03378 2.03777 0
M  V30 4108 C 384.043 3.43809 -0.59967 0
M  V30 4109 C 385.391 4.20868 -0.561717 0
M  V30 4110 O 386.415 3.5211 -0.538222 0
M  V30 4111 O 385.274 5.43451 -0.576478 0
M  V30 4112 H 382.368 0.825376 -0.0518042 0
M  V30 4113 H 384.914 1.47548 -0.838315 0
M  V30 4114 H 383.686 3.55403 -1.6372 0
M  V30 4115 H 383.309 3.97592 0.0251197 0
M  V30 4116 N 384.306 0.507319 1.49211 0
M  V30 4117 C 385.253 -0.267728 2.29242 0
M  V30 4118 C 386.223 -0.954609 1.35928 0
M  V30 4119 O 387.408 -0.960046 1.64887 0
M  V30 4120 C 384.548 -1.32243 3.18756 0
M  V30 4121 C 383.661 -0.64669 4.27132 0
M  V30 4122 C 382.796 -1.68238 5.03855 0
M  V30 4123 C 381.835 -0.98885 6.0406 0
M  V30 4124 N 380.972 -1.96903 6.73924 0
M  V30 4125 H 385.812 0.420968 2.95012 0
M  V30 4126 H 383.349 0.219443 1.45454 0
M  V30 4127 H 385.307 -1.94599 3.69036 0
M  V30 4128 H 383.937 -1.97981 2.54958 0
M  V30 4129 H 382.989 0.0902926 3.80293 0
M  V30 4130 H 384.301 -0.101058 4.98698 0
M  V30 4131 H 383.455 -2.38081 5.58034 0
M  V30 4132 H 382.194 -2.26187 4.32077 0
M  V30 4133 H 381.199 -0.276222 5.49106 0
M  V30 4134 H 382.424 -0.415767 6.77826 0
M  V30 4135 H 380.37 -2.53803 6.04913 0
M  V30 4136 H 380.287 -1.47423 7.41487 0
M  V30 4137 H 381.555 -2.66015 7.32705 0
M  V30 4138 N 385.784 -1.5574 0.241426 0
M  V30 4139 C 387.009 -2.0366 -0.392111 0
M  V30 4140 C 387.434 -1.11969 -1.51144 0
M  V30 4141 O 386.792 -0.111594 -1.80956 0
M  V30 4142 C 386.84 -3.49638 -0.882371 0
M  V30 4143 O 385.944 -3.6108 -1.99235 0
M  V30 4144 H 385.285 -0.658379 -0.0862122 0
M  V30 4145 H 387.815 -2.01302 0.365881 0
M  V30 4146 H 387.825 -3.90351 -1.18702 0
M  V30 4147 H 386.5 -4.15852 -0.0632361 0
M  V30 4148 H 385.077 -3.32262 -1.69282 0
M  V30 4149 N 387.262 0.0317525 -1.57568 0
M  V30 4150 C 388.192 1.03274 -2.0942 0
M  V30 4151 C 389.173 1.3788 -0.996143 0
M  V30 4152 O 390.358 1.46811 -1.27122 0
M  V30 4153 C 387.488 2.33448 -2.57137 0
M  V30 4154 C 386.442 2.13091 -3.71182 0
M  V30 4155 C 385.768 3.49001 -4.05095 0
M  V30 4156 C 387.068 1.51928 -4.99715 0
M  V30 4157 H 388.762 0.60112 -2.93303 0
M  V30 4158 H 386.308 0.287705 -1.41097 0
M  V30 4159 H 388.261 3.03802 -2.92032 0
M  V30 4160 H 386.985 2.78665 -1.70333 0
M  V30 4161 H 385.644 1.45171 -3.36632 0
M  V30 4162 H 385.292 3.91862 -3.15362 0
M  V30 4163 H 384.992 3.36207 -4.81911 0
M  V30 4164 H 386.516 4.20721 -4.42522 0
M  V30 4165 H 387.93 2.12196 -5.32584 0
M  V30 4166 H 386.327 1.49716 -5.81124 0
M  V30 4167 H 387.397 0.484811 -4.8247 0
M  V30 4168 N 388.74 1.54641 0.303973 0
M  V30 4169 C 389.968 1.77768 1.05858 0
M  V30 4170 C 390.383 0.535722 1.8104 0
M  V30 4171 O 389.74 -0.494337 1.75677 0
M  V30 4172 C 389.791 2.9834 2.04146 0
M  V30 4173 O 389.512 4.17736 1.32015 0
M  V30 4174 C 391.013 3.33832 2.91669 0
M  V30 4175 H 388.233 0.592961 0.314067 0
M  V30 4176 H 390.777 2.01583 0.344149 0
M  V30 4177 H 388.932 2.76742 2.71096 0
M  V30 4178 H 389.346 4.85693 1.97998 0
M  V30 4179 H 390.82 4.21448 3.56491 0
M  V30 4180 H 391.297 2.51857 3.59812 0
M  V30 4181 H 391.903 3.57579 2.30254 0
M  V30 4182 N 390.218 -0.567019 1.47046 0
M  V30 4183 C 391.148 -1.68482 1.61667 0
M  V30 4184 C 392.129 -1.6358 0.466418 0
M  V30 4185 O 393.314 -1.81354 0.694574 0
M  V30 4186 C 390.444 -3.07124 1.62148 0
M  V30 4187 C 389.398 -3.26867 2.76301 0
M  V30 4188 C 388.724 -4.66196 2.61849 0
M  V30 4189 C 390.024 -3.13186 4.17986 0
M  V30 4190 H 391.718 -1.56502 2.5524 0
M  V30 4191 H 389.264 -0.751486 1.22836 0
M  V30 4192 H 391.217 -3.8516 1.70968 0
M  V30 4193 H 389.941 -3.2004 0.651287 0
M  V30 4194 H 388.6 -2.51237 2.66975 0
M  V30 4195 H 388.248 -4.75898 1.62879 0
M  V30 4196 H 387.948 -4.80356 3.38425 0
M  V30 4197 H 389.472 -5.46379 2.72584 0
M  V30 4198 H 390.886 -3.81049 4.2834 0
M  V30 4199 H 389.283 -3.3886 4.95272 0
M  V30 4200 H 390.353 -2.10057 4.3704 0
M  V30 4201 N 391.696 -1.35014 -0.812953 0
M  V30 4202 C 392.942 -1.2812 -1.57204 0
M  V30 4203 C 393.275 0.145869 -1.93651 0
M  V30 4204 O 392.55 1.0937 -1.60836 0
M  V30 4205 C 392.833 -2.18162 -2.86492 0
M  V30 4206 C 392.686 -3.69454 -2.56561 0
M  V30 4207 C 394.005 -2.07439 -3.88145 0
M  V30 4208 H 391.124 -0.466746 -0.570366 0
M  V30 4209 H 393.766 -1.65357 -0.935783 0
M  V30 4210 H 391.916 -1.86535 -3.40789 0
M  V30 4211 H 393.588 -4.11493 -2.08497 0
M  V30 4212 H 391.831 -3.9005 -1.89851 0
M  V30 4213 H 392.502 -4.27835 -3.48799 0
M  V30 4214 H 394.978 -2.35228 -3.4323 0
M  V30 4215 H 393.854 -2.7265 -4.76396 0
M  V30 4216 H 394.115 -1.05439 -4.29343 0
M  V30 4217 N 393.175 1.03435 -1.18907 0
M  V30 4218 C 394.422 1.76743 -0.988334 0
M  V30 4219 C 394.75 1.88447 0.481441 0
M  V30 4220 O 394.005 1.39383 1.37371 0
M  V30 4221 C 394.304 3.19792 -1.59586 0
M  V30 4222 C 393.97 3.28108 -3.09283 0
M  V30 4223 C 392.632 3.30084 -3.5014 0
M  V30 4224 C 394.984 3.27696 -4.05296 0
M  V30 4225 C 392.312 3.29299 -4.85571 0
M  V30 4226 C 394.664 3.28451 -5.4065 0
M  V30 4227 C 393.328 3.28723 -5.80946 0
M  V30 4228 H 392.598 0.64675 -0.361657 0
M  V30 4229 H 395.245 1.21442 -1.48068 0
M  V30 4230 H 393.55 3.78136 -1.02568 0
M  V30 4231 H 395.247 3.75171 -1.41589 0
M  V30 4232 H 391.837 3.27294 -2.76725 0
M  V30 4233 H 396.021 3.25354 -3.74778 0
M  V30 4234 H 391.277 3.2783 -5.16079 0
M  V30 4235 H 395.451 3.27082 -6.14809 0
M  V30 4236 H 393.078 3.27868 -6.85862 0
M  V30 4237 N 394.653 0.992116 1.22453 0
M  V30 4238 C 395.563 0.55065 2.28046 0
M  V30 4239 C 396.579 -0.400189 1.69335 0
M  V30 4240 O 397.755 -0.267215 1.99619 0
M  V30 4241 C 394.82 -0.128496 3.46462 0
M  V30 4242 C 393.881 0.865208 4.20491 0
M  V30 4243 C 393.114 0.218377 5.33253 0
M  V30 4244 O 393.337 -0.987894 5.6178 0
M  V30 4245 O 392.271 0.922845 5.94783 0
M  V30 4246 H 396.097 1.4291 2.67975 0
M  V30 4247 H 393.682 0.760326 1.28606 0
M  V30 4248 H 395.564 -0.508947 4.18315 0
M  V30 4249 H 394.239 -0.981526 3.0846 0
M  V30 4250 H 393.146 1.29658 3.50913 0
M  V30 4251 H 394.479 1.68741 4.62371 0
M  V30 4252 N 396.131 -1.37776 0.765217 0
M  V30 4253 C 397.361 -2.03828 0.337277 0
M  V30 4254 C 397.769 -1.57841 -1.04321 0
M  V30 4255 O 397.112 -0.752043 -1.67601 0
M  V30 4256 C 397.174 -3.58292 0.294407 0
M  V30 4257 C 396.838 -4.27384 1.61838 0
M  V30 4258 C 397.835 -4.51956 2.56967 0
M  V30 4259 C 395.52 -4.65345 1.89102 0
M  V30 4260 C 397.514 -5.13536 3.77571 0
M  V30 4261 C 395.201 -5.26647 3.09978 0
M  V30 4262 C 396.199 -5.50679 4.04032 0
M  V30 4263 O 395.887 -6.10702 5.2278 0
M  V30 4264 H 395.619 -0.661292 0.140248 0
M  V30 4265 H 398.173 -1.77222 1.03834 0
M  V30 4266 H 396.403 -3.83918 -0.462983 0
M  V30 4267 H 398.092 -4.05763 -0.105581 0
M  V30 4268 H 398.858 -4.23048 2.37183 0
M  V30 4269 H 394.737 -4.45978 1.16725 0
M  V30 4270 H 398.281 -5.3221 4.50997 0
M  V30 4271 H 394.178 -5.54979 3.29649 0
M  V30 4272 H 394.946 -6.29183 5.23517 0
M  V30 4273 N 397.609 -0.515225 -1.4894 0
M  V30 4274 C 398.539 0.244628 -2.32215 0
M  V30 4275 C 399.52 0.949136 -1.41157 0
M  V30 4276 O 400.705 0.937783 -1.70057 0
M  V30 4277 C 397.835 1.30096 -3.22013 0
M  V30 4278 C 396.789 0.715486 -4.21977 0
M  V30 4279 C 396.115 1.87339 -5.00808 0
M  V30 4280 C 397.415 -0.302982 -5.2142 0
M  V30 4281 H 399.109 -0.450501 -2.95991 0
M  V30 4282 H 396.655 -0.218098 -1.42339 0
M  V30 4283 H 398.608 1.84037 -3.79089 0
M  V30 4284 H 397.332 2.02547 -2.56207 0
M  V30 4285 H 395.991 0.197715 -3.66066 0
M  V30 4286 H 395.639 2.58592 -4.31438 0
M  V30 4287 H 395.339 1.48764 -5.68457 0
M  V30 4288 H 396.863 2.41686 -5.60732 0
M  V30 4289 H 398.277 0.148802 -5.73107 0
M  V30 4290 H 396.674 -0.60532 -5.97039 0
M  V30 4291 H 397.744 -1.21395 -4.69459 0
M  V30 4292 N 399.087 1.5561 -0.249682 0
M  V30 4293 C 400.364 1.90932 0.424761 0
M  V30 4294 C 400.744 1.17078 1.75658 0
M  V30 4295 O 400.092 0.289176 2.26663 0
M  V30 4296 C 400.302 3.43975 0.590109 0
M  V30 4297 C 401.65 4.15281 0.884714 0
M  V30 4298 O 402.674 3.49729 0.67587 0
M  V30 4299 O 401.533 5.31236 1.28259 0
M  V30 4300 H 398.627 0.794815 0.228468 0
M  V30 4301 H 401.173 1.67135 -0.293954 0
M  V30 4302 H 399.945 3.89748 -0.34818 0
M  V30 4303 H 399.568 3.73644 1.35926 0
M  V30 4304 N 400.565 -0.0233959 1.57583 0
M  V30 4305 C 401.512 -1.02224 2.06927 0
M  V30 4306 C 402.482 -1.35575 0.959617 0
M  V30 4307 O 403.667 -1.45815 1.23055 0
M  V30 4308 C 400.807 -2.31636 2.5581 0
M  V30 4309 C 399.92 -2.04394 3.80588 0
M  V30 4310 C 399.055 -3.27717 4.18061 0
M  V30 4311 C 398.094 -2.96056 5.3574 0
M  V30 4312 N 397.231 -4.11847 5.68618 0
M  V30 4313 H 402.071 -0.594504 2.9201 0
M  V30 4314 H 399.608 -0.281921 1.44373 0
M  V30 4315 H 401.566 -3.07258 2.82221 0
M  V30 4316 H 400.196 -2.72122 1.73636 0
M  V30 4317 H 399.248 -1.19244 3.61227 0
M  V30 4318 H 400.56 -1.77042 4.66323 0
M  V30 4319 H 399.714 -4.11702 4.4563 0
M  V30 4320 H 398.453 -3.58188 3.30988 0
M  V30 4321 H 397.458 -2.10474 5.07918 0
M  V30 4322 H 398.683 -2.66857 6.24471 0
M  V30 4323 H 396.629 -4.42258 4.84504 0
M  V30 4324 H 396.546 -3.87938 6.48876 0
M  V30 4325 H 397.814 -4.96689 6.00766 0
M  V30 4326 N 402.043 -1.548 -0.295768 0
M  V30 4327 C 403.32 -1.65014 -1.05023 0
M  V30 4328 C 403.7 -0.501805 -2.05049 0
M  V30 4329 O 403.048 0.500869 -2.22943 0
M  V30 4330 C 403.258 -3.03252 -1.72741 0
M  V30 4331 C 404.606 -3.60242 -2.24746 0
M  V30 4332 O 405.63 -3.05737 -1.82765 0
M  V30 4333 O 404.489 -4.55687 -3.01681 0
M  V30 4334 H 401.583 -0.669314 -0.485744 0
M  V30 4335 H 404.129 -1.67144 -0.293438 0
M  V30 4336 H 402.901 -3.7827 -1.00138 0
M  V30 4337 H 402.524 -3.04922 -2.55163 0
M  V30 4338 N 403.521 0.559213 -1.47345 0
M  V30 4339 C 404.451 1.67622 -1.62558 0
M  V30 4340 C 405.432 1.63331 -0.475087 0
M  V30 4341 O 406.617 1.80983 -0.704182 0
M  V30 4342 C 403.747 3.0626 -1.63774 0
M  V30 4343 C 402.701 3.25397 -2.7803 0
M  V30 4344 C 402.027 4.64801 -2.64318 0
M  V30 4345 C 403.327 3.10965 -4.19641 0
M  V30 4346 H 405.021 1.55146 -2.56067 0
M  V30 4347 H 402.567 0.744961 -1.23233 0
M  V30 4348 H 404.52 3.84247 -1.73008 0
M  V30 4349 H 403.244 3.1969 -0.66825 0
M  V30 4350 H 401.903 2.49817 -2.68304 0
M  V30 4351 H 401.551 4.75028 -1.65401 0
M  V30 4352 H 401.251 4.78555 -3.40968 0
M  V30 4353 H 402.775 5.44926 -2.75478 0
M  V30 4354 H 404.189 3.78772 -4.30354 0
M  V30 4355 H 402.586 3.36229 -4.97062 0
M  V30 4356 H 403.656 2.07736 -4.38148 0
M  V30 4357 N 404.999 1.35443 0.805782 0
M  V30 4358 C 405.946 1.28431 1.91766 0
M  V30 4359 C 406.916 0.156102 1.65365 0
M  V30 4360 O 408.101 0.339936 1.87747 0
M  V30 4361 C 405.241 1.06301 3.2832 0
M  V30 4362 C 404.354 2.2805 3.66902 0
M  V30 4363 C 403.489 1.99064 4.92491 0
M  V30 4364 C 402.528 3.16863 5.23703 0
M  V30 4365 N 401.665 2.87647 6.40471 0
M  V30 4366 H 406.505 2.23511 1.97096 0
M  V30 4367 H 404.042 1.11105 0.964054 0
M  V30 4368 H 406 0.915012 4.07042 0
M  V30 4369 H 404.63 0.148822 3.22457 0
M  V30 4370 H 403.682 2.53711 2.83434 0
M  V30 4371 H 404.994 3.1601 3.85927 0
M  V30 4372 H 404.148 1.81099 5.7904 0
M  V30 4373 H 402.887 1.0839 4.75503 0
M  V30 4374 H 401.892 3.35404 4.35642 0
M  V30 4375 H 403.117 4.08339 5.4262 0
M  V30 4376 H 401.063 1.99568 6.24907 0
M  V30 4377 H 400.98 3.69141 6.59751 0
M  V30 4378 H 402.248 2.73226 7.30047 0
M  V30 4379 N 406.477 -1.02803 1.19454 0
M  V30 4380 C 407.409 -2.11181 0.890807 0
M  V30 4381 C 408.422 -1.6238 -0.116829 0
M  V30 4382 O 409.611 -1.78144 0.112694 0
M  V30 4383 C 406.711 -3.37461 0.311942 0
M  V30 4384 C 405.884 -4.15446 1.36834 0
M  V30 4385 C 404.943 -5.20039 0.802864 0
M  V30 4386 O 403.969 -5.49602 1.48077 0
M  V30 4387 N 405.171 -5.79165 -0.393417 0
M  V30 4388 H 407.936 -2.37827 1.82369 0
M  V30 4389 H 405.497 -1.19101 1.09666 0
M  V30 4390 H 407.489 -4.0462 -0.0802225 0
M  V30 4391 H 406.059 -3.08156 -0.52524 0
M  V30 4392 H 405.279 -3.43423 1.93531 0
M  V30 4393 H 406.567 -4.64335 2.08015 0
M  V30 4394 H 405.965 -5.57466 -0.961658 0
M  V30 4395 H 404.522 -6.47729 -0.727351 0
M  V30 4396 N 407.956 -0.998596 -1.21925 0
M  V30 4397 C 409.186 -0.695276 -1.94549 0
M  V30 4398 C 409.594 0.745079 -1.73911 0
M  V30 4399 O 408.937 1.51507 -1.03881 0
M  V30 4400 C 408.999 -0.928485 -3.47303 0
M  V30 4401 C 408.663 -2.35443 -3.91683 0
M  V30 4402 C 409.66 -3.33428 -3.98901 0
M  V30 4403 C 407.345 -2.69038 -4.24174 0
M  V30 4404 C 409.339 -4.63079 -4.37992 0
M  V30 4405 C 407.026 -3.98906 -4.62944 0
M  V30 4406 C 408.024 -4.95738 -4.69822 0
M  V30 4407 O 407.712 -6.23285 -5.07711 0
M  V30 4408 H 407.444 -0.255902 -0.625692 0
M  V30 4409 H 409.998 -1.33767 -1.5587 0
M  V30 4410 H 408.228 -0.228917 -3.86022 0
M  V30 4411 H 409.917 -0.619539 -4.01144 0
M  V30 4412 H 410.683 -3.08807 -3.73983 0
M  V30 4413 H 406.562 -1.94367 -4.18022 0
M  V30 4414 H 410.106 -5.38658 -4.43275 0
M  V30 4415 H 406.003 -4.23314 -4.87314 0
M  V30 4416 H 406.771 -6.27306 -5.25766 0
M  V30 4417 N 409.434 1.37368 -0.772513 0
M  V30 4418 C 410.367 2.27956 -0.105593 0
M  V30 4419 C 411.345 1.46362 0.708295 0
M  V30 4420 O 412.529 1.75695 0.682895 0
M  V30 4421 C 409.656 3.27687 0.856686 0
M  V30 4422 C 408.702 4.26312 0.1267 0
M  V30 4423 S 409.535 5.22206 -1.1858 0
M  V30 4424 C 410.691 6.25488 -0.227081 0
M  V30 4425 H 410.924 2.84171 -0.87372 0
M  V30 4426 H 408.457 1.43654 -0.565939 0
M  V30 4427 H 410.415 3.85653 1.40648 0
M  V30 4428 H 409.076 2.70417 1.59793 0
M  V30 4429 H 408.269 4.96674 0.856212 0
M  V30 4430 H 407.871 3.72339 -0.352117 0
M  V30 4431 H 410.163 6.74836 0.600231 0
M  V30 4432 H 411.106 7.02371 -0.898899 0
M  V30 4433 H 411.514 5.64267 0.162053 0
M  V30 4434 N 410.912 0.523116 1.48665 0
M  V30 4435 C 412.189 -0.0775449 1.95446 0
M  V30 4436 C 412.569 -1.5197 1.4652 0
M  V30 4437 O 411.917 -2.17876 0.688657 0
M  V30 4438 C 412.127 0.0326135 3.48985 0
M  V30 4439 C 413.475 -0.130141 4.24401 0
M  V30 4440 O 414.499 -0.0415142 3.56176 0
M  V30 4441 O 413.358 -0.31491 5.45592 0
M  V30 4442 H 410.452 -0.0831012 0.822814 0
M  V30 4443 H 412.998 0.587227 1.59216 0
M  V30 4444 H 411.77 1.03748 3.77296 0
M  V30 4445 H 411.393 -0.671317 3.91892 0
M  V30 4446 N 412.39 -1.55475 0.257931 0
M  V30 4447 C 413.667 -1.91155 -0.414629 0
M  V30 4448 C 414.047 -1.18008 -1.75035 0
M  V30 4449 O 413.395 -0.301193 -2.26506 0
M  V30 4450 C 413.605 -3.44283 -0.571859 0
M  V30 4451 C 414.953 -4.15744 -0.862678 0
M  V30 4452 O 415.977 -3.50083 -0.657314 0
M  V30 4453 O 414.836 -5.31909 -1.2544 0
M  V30 4454 H 411.93 -0.796016 -0.22425 0
M  V30 4455 H 414.476 -1.66976 0.302814 0
M  V30 4456 H 413.248 -3.89558 0.368844 0
M  V30 4457 H 412.871 -3.7436 -1.33943 0
M  V30 4458 N 413.868 0.0150385 -1.57593 0
M  V30 4459 C 415.108 0.70768 -1.91758 0
M  V30 4460 C 415.472 1.71764 -0.857974 0
M  V30 4461 O 416.673 2.45956 -1.0844 0
M  V30 4462 C 414.944 1.34736 -3.3103 0
M  V30 4463 S 416.503 2.06721 -3.87056 0
M  V30 4464 H 413.321 0.234119 -0.671349 0
M  V30 4465 H 415.923 -0.0380373 -1.95463 0
M  V30 4466 H 414.627 0.59926 -4.06001 0
M  V30 4467 H 414.158 2.13133 -3.30663 0
M  V30 4468 H 416.173 3.34047 -3.66915 0
M  V30 4469 N 415.346 1.54954 0.287554 0
M  V30 4470 C 416.594 1.74528 1.01904 0
M  V30 4471 C 416.915 0.541349 1.87335 0
M  V30 4472 O 416.185 -0.444108 1.908 0
M  V30 4473 H 414.765 0.643576 0.379235 0
M  V30 4474 H 417.427 1.92333 0.315294 0
M  V30 4475 H 416.523 2.64015 1.6644 0
M  V30 4476 N 416.824 -0.551391 1.4764 0
M  V30 4477 C 417.772 -1.67896 1.60978 0
M  V30 4478 C 418.766 -1.62549 0.476877 0
M  V30 4479 O 419.972 -1.67664 0.654878 0
M  V30 4480 H 416.347 -0.555649 0.506713 0
M  V30 4481 H 418.318 -1.53784 2.55721 0
M  V30 4482 C 417.067 -3.06234 1.64669 0
M  V30 4483 H 416.39 -3.11033 2.51194 0
M  V30 4484 H 417.83 -3.84804 1.7805 0
M  V30 4485 C 416.289 -3.34737 0.381115 0
M  V30 4486 O 416.819 -3.98381 -0.515297 0
M  V30 4487 N 415.025 -2.8944 0.259354 0
M  V30 4488 H 414.572 -2.37827 0.98976 0
M  V30 4489 H 414.53 -3.08882 -0.586464 0
M  V30 4490 N 418.302 -1.35869 -0.798587 0
M  V30 4491 C 419.551 -1.28921 -1.5512 0
M  V30 4492 C 419.864 0.13208 -1.95154 0
M  V30 4493 O 421.07 0.323879 -2.69561 0
M  V30 4494 C 419.526 -2.26141 -2.79979 0
M  V30 4495 C 419.134 -3.73658 -2.47151 0
M  V30 4496 C 420.878 -2.28152 -3.57976 0
M  V30 4497 C 418.785 -4.62679 -3.6835 0
M  V30 4498 H 417.715 -0.479031 -0.582276 0
M  V30 4499 H 420.366 -1.61179 -0.877125 0
M  V30 4500 H 418.748 -1.86865 -3.49138 0
M  V30 4501 H 419.922 -4.21616 -1.85947 0
M  V30 4502 H 418.237 -3.74333 -1.82383 0
M  V30 4503 H 420.834 -2.91875 -4.4801 0
M  V30 4504 H 421.177 -1.28748 -3.95891 0
M  V30 4505 H 421.71 -2.65998 -2.95787 0
M  V30 4506 H 418.449 -5.63111 -3.35538 0
M  V30 4507 H 417.969 -4.19442 -4.28752 0
M  V30 4508 H 419.648 -4.78498 -4.35487 0
M  V30 4509 N 419.78 1.02168 -1.19998 0
M  V30 4510 C 420.713 2.10232 -0.887558 0
M  V30 4511 C 421.691 1.61827 0.158317 0
M  V30 4512 O 422.875 1.88471 0.0330249 0
M  V30 4513 C 420.002 3.37092 -0.32964 0
M  V30 4514 C 419.048 4.0438 -1.3557 0
M  V30 4515 S 419.881 4.48956 -2.91888 0
M  V30 4516 C 421.037 5.79024 -2.37658 0
M  V30 4517 H 421.27 2.36409 -1.80272 0
M  V30 4518 H 418.803 1.15211 -1.0279 0
M  V30 4519 H 420.761 4.10498 -0.0142824 0
M  V30 4520 H 419.422 3.08996 0.563941 0
M  V30 4521 H 418.615 4.95632 -0.9146 0
M  V30 4522 H 418.217 3.37176 -1.61828 0
M  V30 4523 H 420.509 6.53942 -1.77103 0
M  V30 4524 H 421.452 6.27924 -3.27287 0
M  V30 4525 H 421.86 5.35043 -1.79971 0
M  V30 4526 N 421.258 1.00505 1.21394 0
M  V30 4527 C 422.483 0.706367 1.95001 0
M  V30 4528 C 422.908 -0.72463 1.73582 0
M  V30 4529 O 422.266 -1.49702 1.0227 0
M  V30 4530 C 422.314 1.03299 3.45487 0
M  V30 4531 O 421.418 0.138275 4.12168 0
M  V30 4532 H 420.759 0.263175 0.609619 0
M  V30 4533 H 423.289 1.34531 1.54151 0
M  V30 4534 H 423.299 0.979872 3.96059 0
M  V30 4535 H 421.974 2.07567 3.60401 0
M  V30 4536 H 420.551 0.247928 3.72075 0
M  V30 4537 N 422.737 -1.36956 0.779787 0
M  V30 4538 C 423.67 -2.27896 0.117681 0
M  V30 4539 C 424.648 -1.46736 -0.700523 0
M  V30 4540 O 425.832 -1.76055 -0.673568 0
M  V30 4541 C 422.959 -3.28136 -0.839296 0
M  V30 4542 C 422.005 -4.26373 -0.10409 0
M  V30 4543 S 422.838 -5.2157 1.21348 0
M  V30 4544 C 423.994 -6.25359 0.260249 0
M  V30 4545 H 424.227 -2.83704 0.888778 0
M  V30 4546 H 421.76 -1.43352 0.57355 0
M  V30 4547 H 423.718 -3.86394 -1.38601 0
M  V30 4548 H 422.379 -2.7126 -1.58356 0
M  V30 4549 H 421.572 -4.97121 -0.82986 0
M  V30 4550 H 421.174 -3.72147 0.371858 0
M  V30 4551 H 423.466 -6.75145 -0.564435 0
M  V30 4552 H 424.409 -7.01885 0.936135 0
M  V30 4553 H 424.817 -5.64345 -0.132127 0
M  V30 4554 N 424.215 -0.530993 -1.48385 0
M  V30 4555 C 425.165 0.251092 -2.26613 0
M  V30 4556 C 426.149 0.908977 -1.32765 0
M  V30 4557 O 427.341 0.811616 -1.57295 0
M  V30 4558 C 424.47 1.29677 -3.17866 0
M  V30 4559 C 423.556 0.643627 -4.19188 0
M  V30 4560 N 423.947 -0.271223 -5.05072 0
M  V30 4561 C 422.245 0.900711 -4.3681 0
M  V30 4562 C 422.946 -0.648109 -5.78078 0
M  V30 4563 N 421.922 -0.00895987 -5.43599 0
M  V30 4564 H 425.724 -0.452702 -2.90393 0
M  V30 4565 H 423.238 -0.349091 -1.58604 0
M  V30 4566 H 425.235 1.87079 -3.72568 0
M  V30 4567 H 423.895 2.00193 -2.55642 0
M  V30 4568 H 424.906 -0.643883 -5.13882 0
M  V30 4569 H 421.583 1.59636 -3.85775 0
M  V30 4570 H 422.973 -1.39833 -6.57188 0
M  V30 4571 N 425.693 1.55336 -0.266172 0
M  V30 4572 C 426.641 2.23587 0.641228 0
M  V30 4573 C 427.635 1.22986 1.16494 0
M  V30 4574 O 428.841 1.40943 1.1196 0
M  V30 4575 H 425.216 0.717452 0.225315 0
M  V30 4576 H 427.187 2.9837 0.0426561 0
M  V30 4577 C 425.936 2.96369 1.81826 0
M  V30 4578 H 425.259 3.73563 1.42445 0
M  V30 4579 H 426.699 3.47459 2.42998 0
M  V30 4580 C 425.158 2.0133 2.70125 0
M  V30 4581 O 425.688 1.55875 3.70224 0
M  V30 4582 N 423.894 1.6802 2.37102 0
M  V30 4583 H 423.441 2.05181 1.55751 0
M  V30 4584 H 423.399 1.047 2.96454 0
M  V30 4585 N 427.171 -0.0066808 1.57599 0
M  V30 4586 C 428.417 -0.693947 1.90558 0
M  V30 4587 C 428.75 -1.73792 0.866594 0
M  V30 4588 O 428.025 -1.94156 -0.115548 0
M  V30 4589 C 428.308 -1.34317 3.34112 0
M  V30 4590 C 428.161 -0.311189 4.48722 0
M  V30 4591 C 429.48 -2.27116 3.7697 0
M  V30 4592 H 426.599 -0.250803 0.693013 0
M  V30 4593 H 429.241 0.043242 1.89951 0
M  V30 4594 H 427.391 -1.9715 3.3476 0
M  V30 4595 H 429.063 0.316944 4.6021 0
M  V30 4596 H 427.306 0.367253 4.32243 0
M  V30 4597 H 427.977 -0.804366 5.46108 0
M  V30 4598 H 430.453 -1.74306 3.77831 0
M  V30 4599 H 429.329 -2.69511 4.78179 0
M  V30 4600 H 429.59 -3.14743 3.10466 0
M  V30 4601 N 428.649 -1.55105 -0.279332 0
M  V30 4602 C 429.596 -1.8755 -1.34513 0
M  V30 4603 C 430.566 -0.726384 -1.49375 0
M  V30 4604 O 431.751 -0.977063 -1.63884 0
M  V30 4605 C 428.891 -2.14738 -2.70151 0
M  V30 4606 C 428.004 -3.42285 -2.63562 0
M  V30 4607 C 427.139 -3.59206 -3.91337 0
M  V30 4608 C 426.178 -4.80467 -3.79233 0
M  V30 4609 N 425.315 -4.94079 -4.98829 0
M  V30 4610 H 430.155 -2.78456 -1.06143 0
M  V30 4611 H 427.692 -1.37867 -0.512936 0
M  V30 4612 H 429.65 -2.28501 -3.49061 0
M  V30 4613 H 428.28 -1.27075 -2.96735 0
M  V30 4614 H 427.332 -3.37029 -1.76397 0
M  V30 4615 H 428.644 -4.31328 -2.50515 0
M  V30 4616 H 427.798 -3.72751 -4.78687 0
M  V30 4617 H 426.537 -2.68337 -4.07243 0
M  V30 4618 H 425.542 -4.66932 -2.90266 0
M  V30 4619 H 426.767 -5.72765 -3.64852 0
M  V30 4620 H 424.713 -4.06139 -5.15158 0
M  V30 4621 H 424.63 -5.77156 -4.8829 0
M  V30 4622 H 425.898 -5.12003 -5.8777 0
M  V30 4623 N 430.127 0.543554 -1.4793 0
M  V30 4624 C 431.057 1.65888 -1.64327 0
M  V30 4625 C 432.038 1.62818 -0.492383 0
M  V30 4626 O 433.223 1.80226 -0.723338 0
M  V30 4627 C 430.353 3.04506 -1.67013 0
M  V30 4628 C 429.307 3.2243 -2.81466 0
M  V30 4629 C 428.633 4.61972 -2.69233 0
M  V30 4630 C 429.933 3.06496 -4.22915 0
M  V30 4631 H 431.627 1.52421 -2.57698 0
M  V30 4632 H 429.173 0.731849 -1.24016 0
M  V30 4633 H 431.126 3.82391 -1.77074 0
M  V30 4634 H 429.85 3.18964 -0.70212 0
M  V30 4635 H 428.509 2.46957 -2.70938 0
M  V30 4636 H 428.157 4.73247 -1.7043 0
M  V30 4637 H 427.857 4.74911 -3.46025 0
M  V30 4638 H 429.381 5.41974 -2.81242 0
M  V30 4639 H 430.795 3.74186 -4.34348 0
M  V30 4640 H 429.192 3.30938 -5.006 0
M  V30 4641 H 430.262 2.03077 -4.40327 0
M  V30 4642 N 431.605 1.3629 0.791371 0
M  V30 4643 C 432.852 1.30412 1.54916 0
M  V30 4644 C 433.18 -0.117162 1.94147 0
M  V30 4645 O 432.435 -1.08599 1.62803 0
M  V30 4646 C 432.734 2.17068 2.8393 0
M  V30 4647 C 432.4 3.65645 2.63846 0
M  V30 4648 C 431.062 4.0614 2.58077 0
M  V30 4649 C 433.414 4.59855 2.45322 0
M  V30 4650 C 430.742 5.3899 2.31748 0
M  V30 4651 C 433.094 5.9292 2.2052 0
M  V30 4652 C 431.758 6.32542 2.13183 0
M  V30 4653 H 431.028 0.47721 0.566879 0
M  V30 4654 H 433.675 1.68325 0.913172 0
M  V30 4655 H 431.98 1.72085 3.51986 0
M  V30 4656 H 433.677 2.09846 3.4171 0
M  V30 4657 H 430.267 3.33518 2.69191 0
M  V30 4658 H 434.451 4.29443 2.48782 0
M  V30 4659 H 429.707 5.68672 2.24548 0
M  V30 4660 H 433.881 6.65487 2.05182 0
M  V30 4661 H 431.508 7.35412 1.92544 0
M  V30 4662 N 433.083 -1.0153 1.20538 0
M  V30 4663 C 434.013 -2.11972 0.979295 0
M  V30 4664 C 434.994 -1.6985 -0.0921787 0
M  V30 4665 O 436.179 -1.94089 0.0655932 0
M  V30 4666 C 433.309 -3.43201 0.531984 0
M  V30 4667 C 432.263 -3.9907 1.54685 0
M  V30 4668 C 431.589 -5.26082 0.956127 0
M  V30 4669 C 432.889 -4.32313 2.93092 0
M  V30 4670 H 434.583 -2.31143 1.90298 0
M  V30 4671 H 432.129 -1.11079 0.916372 0
M  V30 4672 H 434.082 -4.1985 0.361044 0
M  V30 4673 H 432.806 -3.23792 -0.427327 0
M  V30 4674 H 431.465 -3.2453 1.70517 0
M  V30 4675 H 431.113 -5.02999 -0.0111538 0
M  V30 4676 H 430.813 -5.64426 1.63393 0
M  V30 4677 H 432.337 -6.05386 0.796284 0
M  V30 4678 H 433.751 -4.99845 2.80763 0
M  V30 4679 H 432.148 -4.81774 3.57791 0
M  V30 4680 H 433.218 -3.41025 3.44717 0
M  V30 4681 N 434.561 -1.01147 -1.20859 0
M  V30 4682 C 435.791 -0.715872 -1.93801 0
M  V30 4683 C 436.199 0.726592 -1.74692 0
M  V30 4684 O 435.542 1.50397 -1.05482 0
M  V30 4685 C 435.604 -0.965269 -3.46299 0
M  V30 4686 C 435.268 -2.39584 -3.89164 0
M  V30 4687 C 436.265 -3.3764 -3.95342 0
M  V30 4688 C 433.95 -2.73522 -4.21297 0
M  V30 4689 C 435.944 -4.67698 -4.33056 0
M  V30 4690 C 433.631 -4.03794 -4.58687 0
M  V30 4691 C 434.629 -5.00693 -4.64538 0
M  V30 4692 O 434.317 -6.28635 -5.01072 0
M  V30 4693 H 434.049 -0.262524 -0.622942 0
M  V30 4694 H 436.603 -1.35413 -1.54443 0
M  V30 4695 H 434.833 -0.269847 -3.85757 0
M  V30 4696 H 436.522 -0.662051 -4.00464 0
M  V30 4697 H 437.288 -3.12757 -3.70686 0
M  V30 4698 H 433.167 -1.9879 -4.15937 0
M  V30 4699 H 436.711 -5.4333 -4.37537 0
M  V30 4700 H 432.608 -4.28459 -4.82797 0
M  V30 4701 H 433.376 -6.32847 -5.19083 0
M  V30 4702 N 436.039 1.36541 -0.78704 0
M  V30 4703 C 436.971 2.28761 -0.141773 0
M  V30 4704 C 437.984 1.49365 0.647599 0
M  V30 4705 O 439.173 1.71836 0.483173 0
M  V30 4706 C 436.273 3.28771 0.822368 0
M  V30 4707 C 435.446 4.3732 0.0835594 0
M  V30 4708 C 434.505 5.17307 0.963296 0
M  V30 4709 O 433.531 5.67638 0.421419 0
M  V30 4710 N 434.733 5.33515 2.28784 0
M  V30 4711 H 437.498 2.84777 -0.933919 0
M  V30 4712 H 435.059 1.48682 -0.640735 0
M  V30 4713 H 437.051 3.79169 1.41468 0
M  V30 4714 H 435.621 2.73412 1.5154 0
M  V30 4715 H 434.841 3.88118 -0.689809 0
M  V30 4716 H 436.129 5.0701 -0.426358 0
M  V30 4717 H 435.527 4.94234 2.75226 0
M  V30 4718 H 434.084 5.87165 2.82985 0
M  V30 4719 N 437.518 0.538854 1.48102 0
M  V30 4720 C 438.767 0.0059532 2.01699 0
M  V30 4721 C 439.08 -1.34476 1.42041 0
M  V30 4722 O 440.286 -1.96653 1.87189 0
M  V30 4723 C 438.742 -0.0397627 3.59878 0
M  V30 4724 C 438.35 1.30659 4.28523 0
M  V30 4725 C 440.094 -0.521024 4.2129 0
M  V30 4726 C 438.001 1.22098 5.78659 0
M  V30 4727 H 436.931 -0.00154456 0.753998 0
M  V30 4728 H 439.582 0.683963 1.70277 0
M  V30 4729 H 437.964 -0.783037 3.88181 0
M  V30 4730 H 439.138 2.06613 4.11883 0
M  V30 4731 H 437.453 1.7243 3.79021 0
M  V30 4732 H 440.05 -0.603184 5.31287 0
M  V30 4733 H 440.393 -1.52885 3.8721 0
M  V30 4734 H 440.926 0.166834 3.9745 0
M  V30 4735 H 437.665 2.20424 6.17328 0
M  V30 4736 H 437.185 0.50295 5.97688 0
M  V30 4737 H 438.864 0.915345 6.40492 0
M  V30 4738 N 438.996 -1.55193 0.274407 0
M  V30 4739 C 439.926 -2.25471 -0.607032 0
M  V30 4740 C 440.907 -1.24461 -1.15946 0
M  V30 4741 O 442.092 -1.53179 -1.19373 0
M  V30 4742 C 439.222 -2.97526 -1.79153 0
M  V30 4743 C 438.176 -4.05459 -1.37067 0
M  V30 4744 C 437.502 -4.65084 -2.6382 0
M  V30 4745 C 438.802 -5.19691 -0.521389 0
M  V30 4746 H 440.496 -2.99393 -0.0209343 0
M  V30 4747 H 438.042 -1.43997 -0.00862866 0
M  V30 4748 H 439.995 -3.45402 -2.41404 0
M  V30 4749 H 438.719 -2.21138 -2.40344 0
M  V30 4750 H 437.378 -3.58393 -0.771355 0
M  V30 4751 H 437.026 -3.85365 -3.23268 0
M  V30 4752 H 436.726 -5.37961 -2.36372 0
M  V30 4753 H 438.25 -5.15708 -3.26921 0
M  V30 4754 H 439.664 -5.63623 -1.04889 0
M  V30 4755 H 438.061 -5.99126 -0.341825 0
M  V30 4756 H 439.131 -4.82713 0.46 0
M  V30 4757 N 440.474 -0.00167713 -1.576 0
M  V30 4758 C 441.89 0.354422 -1.55615 0
M  V30 4759 C 442.09 1.74679 -1.00447 0
M  V30 4760 O 441.146 2.4428 -0.639022 0
M  V30 4761 C 442.459 0.22812 -2.99833 0
M  V30 4762 C 444.007 0.302934 -3.11531 0
M  V30 4763 C 444.482 0.205737 -4.57538 0
M  V30 4764 N 445.973 0.263584 -4.62449 0
M  V30 4765 C 446.708 0.211742 -5.73009 0
M  V30 4766 N 446.204 0.110399 -6.92712 0
M  V30 4767 N 447.997 0.263729 -5.61481 0
M  V30 4768 H 440.148 -0.912498 -1.918 0
M  V30 4769 H 442.411 -0.349928 -0.881053 0
M  V30 4770 H 442.117 -0.729934 -3.44042 0
M  V30 4771 H 441.991 1.00951 -3.6344 0
M  V30 4772 H 444.378 1.25143 -2.67251 0
M  V30 4773 H 444.459 -0.508357 -2.50698 0
M  V30 4774 H 444.103 -0.739225 -5.02492 0
M  V30 4775 H 444.033 1.03554 -5.16318 0
M  V30 4776 H 446.524 0.343173 -3.76339 0
M  V30 4777 H 446.837 0.0767828 -7.72762 0
M  V30 4778 H 445.182 0.0760025 -6.94958 0
M  V30 4779 H 448.373 0.34111 -4.66855 0
M  V30 4780 H 448.546 0.219862 -6.47627 0
M  V30 4781 N 441.952 1.55251 0.271103 0
M  V30 4782 C 443.2 1.75599 1.00047 0
M  V30 4783 C 443.521 0.561188 1.8675 0
M  V30 4784 O 442.791 -0.423846 1.9126 0
M  V30 4785 H 441.371 0.647562 0.372387 0
M  V30 4786 H 444.033 1.92656 0.294876 0
M  V30 4787 H 443.129 2.65766 1.6363 0
M  V30 4788 N 443.43 -0.535701 1.48216 0
M  V30 4789 C 444.36 -1.65014 1.65204 0
M  V30 4790 C 445.341 -1.62554 0.501011 0
M  V30 4791 O 446.526 -1.7984 0.732886 0
M  V30 4792 C 443.656 -3.03616 1.68626 0
M  V30 4793 C 442.61 -3.20932 2.83172 0
M  V30 4794 C 441.936 -4.60537 2.71679 0
M  V30 4795 C 443.236 -3.04249 4.24535 0
M  V30 4796 H 444.93 -1.51053 2.58502 0
M  V30 4797 H 442.476 -0.725262 1.24402 0
M  V30 4798 H 444.429 -3.81446 1.79099 0
M  V30 4799 H 443.153 -3.18587 0.719026 0
M  V30 4800 H 441.812 -2.45517 2.72244 0
M  V30 4801 H 441.46 -4.72336 1.72937 0
M  V30 4802 H 441.16 -4.73069 3.48538 0
M  V30 4803 H 442.684 -5.40475 2.84112 0
M  V30 4804 H 444.098 -3.71877 4.36326 0
M  V30 4805 H 442.495 -3.28278 5.02348 0
M  V30 4806 H 443.565 -2.00739 4.41397 0
M  V30 4807 N 444.908 -1.36708 -0.784132 0
M  V30 4808 C 445.871 -1.31307 -1.87859 0
M  V30 4809 C 446.871 -0.219654 -1.59293 0
M  V30 4810 O 448.061 -0.47476 -1.67606 0
M  V30 4811 C 445.193 -1.03679 -3.24751 0
M  V30 4812 H 446.386 -2.28647 -1.94064 0
M  V30 4813 H 443.939 -1.21558 -0.98252 0
M  V30 4814 H 444.674 -0.0681936 -3.24228 0
M  V30 4815 H 444.459 -1.82811 -3.46876 0
M  V30 4816 H 445.949 -1.02518 -4.04821 0
M  V30 4817 N 446.386 1.0089 -1.21074 0
M  V30 4818 C 447.616 1.77933 -1.04993 0
M  V30 4819 C 448.024 1.84847 0.403495 0
M  V30 4820 O 447.367 1.30606 1.29181 0
M  V30 4821 C 447.429 3.23541 -1.56722 0
M  V30 4822 C 447.093 3.40214 -3.05129 0
M  V30 4823 C 448.09 3.2881 -4.02716 0
M  V30 4824 C 445.775 3.65781 -3.44252 0
M  V30 4825 C 447.769 3.42732 -5.37414 0
M  V30 4826 C 445.456 3.79346 -4.79103 0
M  V30 4827 C 446.454 3.67827 -5.75493 0
M  V30 4828 O 446.142 3.80965 -7.07899 0
M  V30 4829 H 445.874 0.566157 -0.369381 0
M  V30 4830 H 448.428 1.27826 -1.60779 0
M  V30 4831 H 446.658 3.74766 -0.953285 0
M  V30 4832 H 448.347 3.82245 -1.36543 0
M  V30 4833 H 449.113 3.08986 -3.73835 0
M  V30 4834 H 444.992 3.73831 -2.69762 0
M  V30 4835 H 448.536 3.33658 -6.12632 0
M  V30 4836 H 444.433 3.98672 -5.07672 0
M  V30 4837 H 445.201 3.97937 -7.15254 0
M  V30 4838 N 447.864 1.01787 1.20321 0
M  V30 4839 C 449.104 0.716493 1.91431 0
M  V30 4840 C 449.468 -0.740352 1.77152 0
M  V30 4841 O 450.669 -1.1543 2.42754 0
M  V30 4842 C 448.94 1.14169 3.38674 0
M  V30 4843 S 450.499 0.962482 4.28114 0
M  V30 4844 H 447.317 0.261175 0.661293 0
M  V30 4845 H 449.919 1.30539 1.45533 0
M  V30 4846 H 448.623 2.19784 3.46588 0
M  V30 4847 H 448.154 0.545621 3.89598 0
M  V30 4848 H 450.169 -0.133253 4.96021 0
M  V30 4849 N 449.342 -1.36122 0.79427 0
M  V30 4850 C 450.292 -2.27373 0.169017 0
M  V30 4851 C 451.276 -1.4719 -0.649913 0
M  V30 4852 O 452.468 -1.69518 -0.50919 0
M  V30 4853 C 449.597 -3.36264 -0.691455 0
M  V30 4854 C 448.683 -4.2388 0.13653 0
M  V30 4855 N 449.074 -4.91519 1.19345 0
M  V30 4856 C 447.372 -4.45921 -0.0838499 0
M  V30 4857 C 448.073 -5.56369 1.6979 0
M  V30 4858 N 447.049 -5.34204 1.00634 0
M  V30 4859 H 450.851 -2.77154 0.977897 0
M  V30 4860 H 448.365 -1.49504 0.634208 0
M  V30 4861 H 450.362 -4.00572 -1.15534 0
M  V30 4862 H 449.022 -2.88037 -1.49883 0
M  V30 4863 H 450.033 -4.9334 1.57594 0
M  V30 4864 H 446.71 -4.08518 -0.861341 0
M  V30 4865 H 448.1 -6.20368 2.58055 0
M  V30 4866 N 450.82 -0.546701 -1.47814 0
M  V30 4867 C 452.236 -0.205717 -1.58269 0
M  V30 4868 C 452.436 1.29153 -1.54667 0
M  V30 4869 O 451.492 2.07098 -1.44453 0
M  V30 4870 C 452.805 -0.823065 -2.89216 0
M  V30 4871 C 454.353 -0.793328 -3.02779 0
M  V30 4872 C 454.828 -1.38955 -4.36412 0
M  V30 4873 N 456.319 -1.35227 -4.43021 0
M  V30 4874 C 457.054 -1.78333 -5.44963 0
M  V30 4875 N 456.55 -2.29246 -6.53772 0
M  V30 4876 N 458.343 -1.69467 -5.35945 0
M  V30 4877 H 450.494 -1.5196 -1.48398 0
M  V30 4878 H 452.757 -0.633078 -0.705632 0
M  V30 4879 H 452.463 -1.8749 -2.97558 0
M  V30 4880 H 452.337 -0.309915 -3.75925 0
M  V30 4881 H 454.724 0.249784 -2.94041 0
M  V30 4882 H 454.805 -1.34412 -2.17639 0
M  V30 4883 H 454.449 -2.43168 -4.45906 0
M  V30 4884 H 454.379 -0.814291 -5.20266 0
M  V30 4885 H 456.87 -0.979739 -3.64979 0
M  V30 4886 H 457.183 -2.60089 -7.27718 0
M  V30 4887 H 455.528 -2.3325 -6.5469 0
M  V30 4888 H 458.719 -1.29477 -4.49837 0
M  V30 4889 H 458.892 -2.03381 -6.15256 0
M  V30 4890 N 452.299 1.55045 -0.282633 0
M  V30 4891 C 453.715 1.59441 0.0712997 0
M  V30 4892 C 453.915 1.2998 1.53972 0
M  V30 4893 O 452.971 1.06431 2.28973 0
M  V30 4894 C 454.284 2.99097 -0.310104 0
M  V30 4895 C 455.832 3.1194 -0.257343 0
M  V30 4896 C 456.307 4.53875 -0.613297 0
M  V30 4897 N 457.798 4.5974 -0.565134 0
M  V30 4898 C 458.533 5.67603 -0.81326 0
M  V30 4899 N 458.029 6.83582 -1.1264 0
M  V30 4900 N 459.822 5.57187 -0.741553 0
M  V30 4901 H 451.973 1.72458 -1.23984 0
M  V30 4902 H 454.236 0.804549 -0.501403 0
M  V30 4903 H 453.942 3.25516 -1.33163 0
M  V30 4904 H 453.816 3.75616 0.345366 0
M  V30 4905 H 456.203 2.85281 0.754905 0
M  V30 4906 H 456.284 2.37618 -0.947178 0
M  V30 4907 H 455.928 4.81261 -1.62327 0
M  V30 4908 H 455.858 5.26508 0.09841 0
M  V30 4909 H 458.349 3.76427 -0.333294 0
M  V30 4910 H 458.662 7.6175 -1.30219 0
M  V30 4911 H 457.007 6.85179 -1.16425 0
M  V30 4912 H 460.198 4.65457 -0.496705 0
M  V30 4913 H 460.371 6.41171 -0.938306 0
M  V30 4914 N 453.777 0.010035 1.57597 0
M  V30 4915 C 454.724 -0.978122 2.09049 0
M  V30 4916 C 455.694 -1.33509 0.988159 0
M  V30 4917 O 456.879 -1.43172 1.26121 0
M  V30 4918 C 454.019 -2.26158 2.60666 0
M  V30 4919 C 453.132 -1.96275 3.84838 0
M  V30 4920 C 452.267 -3.18776 4.24918 0
M  V30 4921 C 451.306 -2.84625 5.41899 0
M  V30 4922 N 450.443 -3.99693 5.77226 0
M  V30 4923 H 455.283 -0.532431 2.93205 0
M  V30 4924 H 452.82 -0.251234 1.44939 0
M  V30 4925 H 454.778 -3.01202 2.88675 0
M  V30 4926 H 453.408 -2.68378 1.79369 0
M  V30 4927 H 452.46 -1.11555 3.63675 0
M  V30 4928 H 453.772 -1.67111 4.69974 0
M  V30 4929 H 452.926 -4.02157 4.54262 0
M  V30 4930 H 451.665 -3.51087 3.38511 0
M  V30 4931 H 450.67 -1.99653 5.12268 0
M  V30 4932 H 451.895 -2.53551 6.29991 0
M  V30 4933 H 449.841 -4.31882 4.93776 0
M  V30 4934 H 449.758 -3.74087 6.56959 0
M  V30 4935 H 451.026 -4.83834 6.11167 0
M  V30 4936 N 455.255 -1.55392 -0.262866 0
M  V30 4937 C 456.501 -1.76737 -0.99458 0
M  V30 4938 C 456.834 -0.572453 -1.85571 0
M  V30 4939 O 456.109 0.429732 -1.89693 0
M  V30 4940 C 456.392 -3.07824 -1.8686 0
M  V30 4941 C 456.245 -4.3769 -1.03672 0
M  V30 4942 C 457.564 -3.35021 -2.85393 0
M  V30 4943 H 454.683 -0.643005 -0.360157 0
M  V30 4944 H 457.325 -1.88126 -0.266216 0
M  V30 4945 H 455.475 -2.98245 -2.48962 0
M  V30 4946 H 457.147 -4.59238 -0.43563 0
M  V30 4947 H 455.39 -4.32461 -0.340513 0
M  V30 4948 H 456.061 -5.25759 -1.6817 0
M  V30 4949 H 458.537 -3.44458 -2.33426 0
M  V30 4950 H 457.413 -4.27989 -3.43681 0
M  V30 4951 H 457.674 -2.55153 -3.61039 0
M  V30 4952 N 456.733 0.527833 -1.48498 0
M  V30 4953 C 457.663 1.64136 -1.66077 0
M  V30 4954 C 458.644 1.62286 -0.509625 0
M  V30 4955 O 459.829 1.79449 -0.742413 0
M  V30 4956 C 456.959 3.02717 -1.70234 0
M  V30 4957 C 455.913 3.19426 -2.8487 0
M  V30 4958 C 455.239 4.5909 -2.74118 0
M  V30 4959 C 456.539 3.01993 -4.26142 0
M  V30 4960 H 458.233 1.4968 -2.593 0
M  V30 4961 H 455.779 0.718654 -1.24785 0
M  V30 4962 H 457.732 3.80491 -1.8112 0
M  V30 4963 H 456.456 3.18201 -0.735911 0
M  V30 4964 H 455.115 2.4407 -2.73542 0
M  V30 4965 H 454.763 4.71413 -1.7544 0
M  V30 4966 H 454.463 4.71214 -3.51042 0
M  V30 4967 H 455.987 5.3896 -2.86974 0
M  V30 4968 H 457.401 3.69558 -4.38292 0
M  V30 4969 H 455.798 3.2561 -5.04082 0
M  V30 4970 H 456.868 1.98396 -4.42456 0
M  V30 4971 N 458.211 1.37122 0.776871 0
M  V30 4972 C 459.161 1.28989 1.88005 0
M  V30 4973 C 460.145 0.178765 1.59904 0
M  V30 4974 O 461.337 0.412705 1.72121 0
M  V30 4975 C 458.466 1.09402 3.25402 0
M  V30 4976 C 457.552 2.25036 3.59471 0
M  V30 4977 N 457.943 3.50407 3.64759 0
M  V30 4978 C 456.241 2.17078 3.89607 0
M  V30 4979 C 456.942 4.26628 3.95428 0
M  V30 4980 N 455.918 3.55709 4.11062 0
M  V30 4981 H 459.72 2.2394 1.90337 0
M  V30 4982 H 457.234 1.30021 0.973052 0
M  V30 4983 H 459.231 1.01661 4.04315 0
M  V30 4984 H 457.891 0.153632 3.24336 0
M  V30 4985 H 458.902 3.8438 3.47091 0
M  V30 4986 H 455.579 1.31067 3.96393 0
M  V30 4987 H 456.969 5.35107 4.06338 0
M  V30 4988 N 459.689 -1.00246 1.21608 0
M  V30 4989 C 461.105 -1.26435 0.973975 0
M  V30 4990 C 461.305 -1.98642 -0.338143 0
M  V30 4991 O 460.361 -2.29026 -1.06317 0
M  V30 4992 C 461.674 -2.08551 2.16626 0
M  V30 4993 C 463.222 -2.21769 2.20879 0
M  V30 4994 C 463.697 -3.07267 3.39633 0
M  V30 4995 N 465.188 -3.14855 3.39736 0
M  V30 4996 C 465.923 -3.81274 4.28273 0
M  V30 4997 N 465.419 -4.497 5.27012 0
M  V30 4998 N 467.212 -3.7794 4.16074 0
M  V30 4999 H 459.363 -0.518089 2.05984 0
M  V30 5000 H 461.626 -0.291368 0.902113 0
M  V30 5001 H 461.332 -1.62847 3.11727 0
M  V30 5002 H 461.206 -3.09303 2.15897 0
M  V30 5003 H 463.593 -2.66691 1.26332 0
M  V30 5004 H 463.674 -1.20478 2.25652 0
M  V30 5005 H 463.318 -2.63047 4.34475 0
M  V30 5006 H 463.248 -4.08678 3.321 0
M  V30 5007 H 465.739 -2.66147 2.6828 0
M  V30 5008 H 466.052 -4.98092 5.90867 0
M  V30 5009 H 464.397 -4.48479 5.30935 0
M  V30 5010 H 467.588 -3.23638 3.38195 0
M  V30 5011 H 467.761 -4.29424 4.85282 0
M  V30 5012 N 461.167 -1.02423 -1.1978 0
M  V30 5013 C 462.444 -0.632802 -1.85081 0
M  V30 5014 C 462.824 0.888745 -1.9148 0
M  V30 5015 O 462.172 1.78357 -1.42832 0
M  V30 5016 C 462.382 -1.28947 -3.24305 0
M  V30 5017 C 463.73 -1.40976 -4.00513 0
M  V30 5018 O 464.754 -1.24628 -3.33686 0
M  V30 5019 O 463.613 -1.67467 -5.20209 0
M  V30 5020 H 460.707 -0.219348 -0.79738 0
M  V30 5021 H 463.253 -1.12209 -1.27307 0
M  V30 5022 H 462.025 -2.3288 -3.14456 0
M  V30 5023 H 461.648 -0.787748 -3.89718 0
M  V30 5024 N 462.645 1.35699 -0.801477 0
M  V30 5025 C 463.575 2.32436 -0.222658 0
M  V30 5026 C 464.556 1.5723 0.649057 0
M  V30 5027 O 465.741 1.85324 0.580387 0
M  V30 5028 C 462.871 3.41469 0.633719 0
M  V30 5029 C 461.825 4.27774 -0.139083 0
M  V30 5030 C 461.151 5.28082 0.838666 0
M  V30 5031 C 462.451 5.04946 -1.33517 0
M  V30 5032 H 464.145 2.81094 -1.03086 0
M  V30 5033 H 461.691 1.35146 -0.497155 0
M  V30 5034 H 463.644 4.08143 1.04868 0
M  V30 5035 H 462.368 2.91408 1.47475 0
M  V30 5036 H 461.027 3.62673 -0.535156 0
M  V30 5037 H 460.675 4.7429 1.67506 0
M  V30 5038 H 460.375 5.86695 0.32594 0
M  V30 5039 H 461.899 5.97628 1.25194 0
M  V30 5040 H 463.313 5.64593 -0.995349 0
M  V30 5041 H 461.71 5.7303 -1.78202 0
M  V30 5042 H 462.78 4.35886 -2.12442 0
M  V30 5043 N 464.123 0.554532 1.47522 0
M  V30 5044 C 465.07 -0.19466 2.29978 0
M  V30 5045 C 466.04 -0.910882 1.38896 0
M  V30 5046 O 467.225 -0.907102 1.67858 0
M  V30 5047 C 464.365 -1.22035 3.22802 0
M  V30 5048 C 463.478 -0.510474 4.28973 0
M  V30 5049 C 462.613 -1.52123 5.08952 0
M  V30 5050 C 461.652 -0.796173 6.069 0
M  V30 5051 N 460.789 -1.75363 6.79847 0
M  V30 5052 H 465.629 0.51461 2.93523 0
M  V30 5053 H 463.166 0.265607 1.44682 0
M  V30 5054 H 465.124 -1.8276 3.7504 0
M  V30 5055 H 463.754 -1.89769 2.61127 0
M  V30 5056 H 462.806 0.211234 3.79813 0
M  V30 5057 H 464.118 0.0576503 4.98767 0
M  V30 5058 H 463.272 -2.20207 5.65326 0
M  V30 5059 H 462.011 -2.12327 4.39054 0
M  V30 5060 H 461.016 -0.101388 5.49707 0
M  V30 5061 H 462.241 -0.199911 6.78806 0
M  V30 5062 H 460.187 -2.3443 6.12682 0
M  V30 5063 H 460.104 -1.23759 7.45801 0
M  V30 5064 H 461.372 -2.4257 7.40797 0
M  V30 5065 N 465.601 -1.54893 0.290851 0
M  V30 5066 C 467.012 -1.85584 -0.203816 0
M  V30 5067 C 467.363 -1.21285 -1.54222 0
M  V30 5068 O 466.488 -0.506841 -2.10381 0
M  V30 5069 C 467.083 -3.367 -0.376595 0
M  V30 5070 C 465.642 -3.6746 -0.815485 0
M  V30 5071 C 464.789 -2.77178 0.0821087 0
M  V30 5072 H 467.74 -1.50208 0.512175 0
M  V30 5073 H 467.761 -3.60656 -1.21275 0
M  V30 5074 H 467.273 -3.8347 0.59767 0
M  V30 5075 H 465.374 -3.26201 -1.80066 0
M  V30 5076 H 465.487 -4.7478 -0.641905 0
M  V30 5077 H 463.851 -2.50925 -0.436895 0
M  V30 5078 H 464.634 -3.26767 1.05254 0
M  V30 5079 N 467.08 -0.0183926 -1.57589 0
M  V30 5080 C 468.012 0.995557 -2.06449 0
M  V30 5081 C 469.025 1.29556 -0.985849 0
M  V30 5082 O 470.214 1.2621 -1.26227 0
M  V30 5083 C 467.314 2.32572 -2.46502 0
M  V30 5084 C 466.487 2.21245 -3.77319 0
M  V30 5085 C 465.546 3.37104 -4.04039 0
M  V30 5086 O 464.572 3.14468 -4.74445 0
M  V30 5087 N 465.774 4.60553 -3.53372 0
M  V30 5088 H 468.539 0.578746 -2.94059 0
M  V30 5089 H 466.1 0.168603 -1.6102 0
M  V30 5090 H 468.092 3.08887 -2.61478 0
M  V30 5091 H 466.662 2.65931 -1.64315 0
M  V30 5092 H 465.882 1.29723 -3.72244 0
M  V30 5093 H 467.17 2.10868 -4.63047 0
M  V30 5094 H 466.568 4.81839 -2.96391 0
M  V30 5095 H 465.125 5.34072 -3.73644 0
M  V30 5096 N 468.558 1.5553 0.254621 0
M  V30 5097 C 469.506 1.9048 1.33492 0
M  V30 5098 C 470.5 0.78304 1.50216 0
M  V30 5099 O 471.706 0.967582 1.51782 0
M  V30 5100 H 468.081 0.604846 0.44684 0
M  V30 5101 H 470.052 2.80688 1.01275 0
M  V30 5102 C 468.801 2.20928 2.68489 0
M  V30 5103 H 468.124 3.06742 2.56417 0
M  V30 5104 H 469.564 2.49291 3.42972 0
M  V30 5105 C 468.023 1.023 3.20993 0
M  V30 5106 O 468.553 0.267027 4.00811 0
M  V30 5107 N 466.759 0.815714 2.78917 0
M  V30 5108 H 466.306 1.43217 2.14119 0
M  V30 5109 H 466.264 0.0236532 3.14391 0
M  V30 5110 N 470.036 -0.519951 1.48776 0
M  V30 5111 C 470.966 -1.63253 1.66945 0
M  V30 5112 C 471.947 -1.62014 0.518224 0
M  V30 5113 O 473.132 -1.79053 0.751919 0
M  V30 5114 C 470.262 -3.0181 1.71836 0
M  V30 5115 C 469.216 -3.17911 2.8656 0
M  V30 5116 C 468.542 -4.5763 2.76548 0
M  V30 5117 C 469.842 -2.99729 4.27738 0
M  V30 5118 H 471.536 -1.48302 2.6009 0
M  V30 5119 H 469.082 -0.712026 1.25165 0
M  V30 5120 H 471.035 -3.79525 1.83135 0
M  V30 5121 H 469.759 -3.17806 0.752775 0
M  V30 5122 H 468.418 -2.42616 2.74833 0
M  V30 5123 H 468.066 -4.70476 1.77937 0
M  V30 5124 H 467.766 -4.69346 3.53536 0
M  V30 5125 H 469.29 -5.37431 2.89828 0
M  V30 5126 H 470.704 -3.67228 4.40246 0
M  V30 5127 H 469.101 -3.22932 5.05801 0
M  V30 5128 H 470.171 -1.96047 4.43502 0
M  V30 5129 N 471.514 -1.37532 -0.769588 0
M  V30 5130 C 472.444 -1.36172 -1.89682 0
M  V30 5131 C 473.425 -0.23001 -1.68538 0
M  V30 5132 O 474.61 -0.43069 -1.89364 0
M  V30 5133 C 471.74 -1.1701 -3.26995 0
M  V30 5134 C 470.694 -2.27216 -3.62708 0
M  V30 5135 C 470.02 -1.93174 -4.98586 0
M  V30 5136 C 471.32 -3.6941 -3.69234 0
M  V30 5137 H 473.014 -2.30499 -1.91078 0
M  V30 5138 H 470.56 -1.10953 -0.917902 0
M  V30 5139 H 472.513 -1.14688 -4.05493 0
M  V30 5140 H 471.237 -0.191395 -3.26039 0
M  V30 5141 H 469.896 -2.28697 -2.86519 0
M  V30 5142 H 469.544 -0.938281 -4.94171 0
M  V30 5143 H 469.244 -2.66973 -5.23449 0
M  V30 5144 H 470.768 -1.92443 -5.79481 0
M  V30 5145 H 472.182 -3.70047 -4.37879 0
M  V30 5146 H 470.579 -4.4228 -4.05597 0
M  V30 5147 H 471.649 -4.0288 -2.69844 0
M  V30 5148 N 472.992 0.995999 -1.22138 0
M  V30 5149 C 474.241 1.72928 -1.03821 0
M  V30 5150 C 474.554 1.90872 0.427444 0
M  V30 5151 O 475.76 2.61496 0.730212 0
M  V30 5152 C 474.216 3.11124 -1.80913 0
M  V30 5153 C 473.824 3.01122 -3.31707 0
M  V30 5154 C 475.568 3.8852 -1.71035 0
M  V30 5155 C 473.475 4.34453 -4.01253 0
M  V30 5156 H 472.405 0.648376 -0.384869 0
M  V30 5157 H 475.056 1.11213 -1.45959 0
M  V30 5158 H 473.438 3.73503 -1.31573 0
M  V30 5159 H 474.612 2.47926 -3.88419 0
M  V30 5160 H 472.927 2.3721 -3.42228 0
M  V30 5161 H 475.524 4.872 -2.20318 0
M  V30 5162 H 475.867 4.1087 -0.670196 0
M  V30 5163 H 476.4 3.32812 -2.17902 0
M  V30 5164 H 473.139 4.17303 -5.05508 0
M  V30 5165 H 472.659 4.87574 -3.49331 0
M  V30 5166 H 474.338 5.03215 -4.06674 0
M  V30 5167 N 474.47 1.03057 1.19235 0
M  V30 5168 C 475.418 0.606391 2.24557 0
M  V30 5169 C 476.412 -0.361826 1.65491 0
M  V30 5170 O 477.618 -0.23022 1.78522 0
M  V30 5171 H 473.993 0.177838 0.730669 0
M  V30 5172 H 475.964 1.50529 2.5765 0
M  V30 5173 C 474.713 -0.0252127 3.47691 0
M  V30 5174 H 474.036 0.710838 3.9343 0
M  V30 5175 H 475.476 -0.284931 4.23042 0
M  V30 5176 C 473.935 -1.27229 3.11953 0
M  V30 5177 O 474.465 -2.36416 3.24762 0
M  V30 5178 N 472.671 -1.16169 2.6637 0
M  V30 5179 H 472.218 -0.273189 2.56147 0
M  V30 5180 H 472.176 -1.99703 2.42829 0
M  V30 5181 N 475.948 -1.35272 0.808662 0
M  V30 5182 C 476.858 -2.33546 0.222079 0
M  V30 5183 C 477.874 -1.6196 -0.636011 0
M  V30 5184 O 479.05 -1.93822 -0.547274 0
M  V30 5185 C 476.115 -3.41148 -0.61795 0
M  V30 5186 C 475.176 -4.28507 0.260875 0
M  V30 5187 C 474.409 -5.3097 -0.539156 0
M  V30 5188 O 474.632 -5.42123 -1.77367 0
M  V30 5189 O 473.566 -6.01858 0.0710526 0
M  V30 5190 H 477.392 -2.85515 1.03512 0
M  V30 5191 H 474.977 -1.38079 0.570495 0
M  V30 5192 H 476.859 -4.06889 -1.09634 0
M  V30 5193 H 475.534 -2.91447 -1.40855 0
M  V30 5194 H 474.441 -3.6574 0.786451 0
M  V30 5195 H 475.774 -4.81611 1.01547 0
M  V30 5196 N 477.426 -0.562348 -1.47226 0
M  V30 5197 C 478.373 0.182461 -2.30078 0
M  V30 5198 C 479.343 0.903503 -1.39377 0
M  V30 5199 O 480.528 0.898188 -1.68337 0
M  V30 5200 C 477.668 1.20322 -3.23445 0
M  V30 5201 C 476.781 0.487717 -4.29238 0
M  V30 5202 C 475.916 1.49422 -5.09752 0
M  V30 5203 C 474.955 0.763976 -6.07314 0
M  V30 5204 N 474.092 1.71755 -6.80768 0
M  V30 5205 H 478.932 -0.530169 -2.93246 0
M  V30 5206 H 476.469 -0.273276 -1.44539 0
M  V30 5207 H 478.427 1.80768 -3.76004 0
M  V30 5208 H 477.057 1.88382 -2.6213 0
M  V30 5209 H 476.109 -0.231374 -3.79696 0
M  V30 5210 H 477.421 -0.0841003 -4.98729 0
M  V30 5211 H 476.575 2.17206 -5.66486 0
M  V30 5212 H 475.314 2.09995 -4.40174 0
M  V30 5213 H 474.319 0.0722344 -5.49753 0
M  V30 5214 H 475.544 0.16391 -6.78902 0
M  V30 5215 H 473.49 2.31177 -6.13916 0
M  V30 5216 H 473.407 1.19802 -7.46447 0
M  V30 5217 H 474.675 2.38638 -7.42073 0
M  V30 5218 N 478.904 1.54736 -0.299062 0
M  V30 5219 C 480.152 1.99706 0.31017 0
M  V30 5220 C 480.473 1.18896 1.54559 0
M  V30 5221 O 479.743 0.284445 1.93824 0
M  V30 5222 H 478.323 0.737686 0.117596 0
M  V30 5223 H 480.985 1.9054 -0.409943 0
M  V30 5224 H 480.081 3.06596 0.58355 0
M  V30 5225 N 480.382 0.0267497 1.57577 0
M  V30 5226 C 481.292 -0.971633 2.13533 0
M  V30 5227 C 482.308 -1.35868 1.08701 0
M  V30 5228 O 483.484 -1.44058 1.40746 0
M  V30 5229 C 480.549 -2.23622 2.64941 0
M  V30 5230 C 479.61 -1.90982 3.8448 0
M  V30 5231 C 478.843 -3.11411 4.33427 0
M  V30 5232 O 479.066 -4.23992 3.81558 0
M  V30 5233 O 478 -2.93848 5.25297 0
M  V30 5234 H 481.826 -0.525853 2.99113 0
M  V30 5235 H 479.411 -0.193712 1.48139 0
M  V30 5236 H 481.293 -2.97864 2.98086 0
M  V30 5237 H 479.968 -2.67386 1.82446 0
M  V30 5238 H 478.875 -1.14132 3.56265 0
M  V30 5239 H 480.208 -1.52036 4.6813 0
M  V30 5240 N 481.861 -1.55662 -0.24637 0
M  V30 5241 C 482.791 -1.93377 -1.30873 0
M  V30 5242 C 483.772 -0.798773 -1.50179 0
M  V30 5243 O 484.957 -1.0591 -1.62778 0
M  V30 5244 C 482.087 -2.22893 -2.66338 0
M  V30 5245 C 481.041 -3.38649 -2.61727 0
M  V30 5246 C 480.367 -3.53708 -4.00992 0
M  V30 5247 C 481.667 -4.74323 -2.18666 0
M  V30 5248 H 483.361 -2.82363 -0.995552 0
M  V30 5249 H 480.907 -1.35854 -0.477464 0
M  V30 5250 H 482.86 -2.47866 -3.40794 0
M  V30 5251 H 481.584 -1.30733 -2.99293 0
M  V30 5252 H 480.243 -3.13685 -1.89729 0
M  V30 5253 H 479.891 -2.58967 -4.31214 0
M  V30 5254 H 479.591 -4.31551 -3.98795 0
M  V30 5255 H 481.115 -3.81003 -4.77147 0
M  V30 5256 H 482.529 -4.98665 -2.82854 0
M  V30 5257 H 480.926 -5.55273 -2.27579 0
M  V30 5258 H 481.996 -4.71349 -1.13834 0
M  V30 5259 N 483.339 0.512053 -1.4905 0
M  V30 5260 C 484.286 1.6148 -1.64902 0
M  V30 5261 C 485.256 1.58687 -0.490673 0
M  V30 5262 O 486.441 1.76842 -0.71636 0
M  V30 5263 C 483.581 2.99676 -1.71139 0
M  V30 5264 C 482.694 3.12568 -2.98203 0
M  V30 5265 C 481.829 4.4143 -2.95487 0
M  V30 5266 C 480.868 4.47916 -4.17179 0
M  V30 5267 N 480.005 5.68191 -4.12437 0
M  V30 5268 H 484.845 1.47271 -2.59066 0
M  V30 5269 H 482.382 0.716713 -1.28459 0
M  V30 5270 H 484.34 3.79761 -1.72736 0
M  V30 5271 H 482.97 3.12614 -0.804508 0
M  V30 5272 H 482.022 2.25618 -3.06269 0
M  V30 5273 H 483.334 3.1322 -3.88194 0
M  V30 5274 H 482.488 5.29825 -2.95585 0
M  V30 5275 H 481.227 4.43326 -2.03256 0
M  V30 5276 H 480.232 3.57925 -4.17337 0
M  V30 5277 H 481.457 4.47744 -5.1059 0
M  V30 5278 H 479.403 5.7095 -3.23036 0
M  V30 5279 H 479.32 5.70413 -4.96151 0
M  V30 5280 H 480.588 6.58823 -4.16621 0
M  V30 5281 N 484.817 1.37938 0.762283 0
M  V30 5282 C 485.747 1.37176 1.88958 0
M  V30 5283 C 486.728 0.238945 1.68413 0
M  V30 5284 O 487.913 0.440726 1.89133 0
M  V30 5285 C 485.043 1.18742 3.2637 0
M  V30 5286 C 483.997 2.29136 3.61498 0
M  V30 5287 C 483.323 1.95816 4.97554 0
M  V30 5288 C 484.623 3.71363 3.6727 0
M  V30 5289 H 486.317 2.31509 1.89853 0
M  V30 5290 H 483.863 1.11438 0.912005 0
M  V30 5291 H 485.816 1.16837 4.04879 0
M  V30 5292 H 484.54 0.208683 3.25933 0
M  V30 5293 H 483.199 2.30213 2.85303 0
M  V30 5294 H 482.847 0.964475 4.93667 0
M  V30 5295 H 482.547 2.69745 5.22026 0
M  V30 5296 H 484.071 1.95513 5.78452 0
M  V30 5297 H 485.485 3.72364 4.35911 0
M  V30 5298 H 483.882 4.44425 4.03245 0
M  V30 5299 H 484.952 4.04305 2.67704 0
M  V30 5300 N 486.295 -0.989507 1.22664 0
M  V30 5301 C 487.258 -2.06183 1.00106 0
M  V30 5302 C 488.258 -1.60765 -0.0337726 0
M  V30 5303 O 489.448 -1.72989 0.205072 0
M  V30 5304 C 486.58 -3.37021 0.51279 0
M  V30 5305 H 487.773 -2.27629 1.95256 0
M  V30 5306 H 485.326 -1.16158 1.0458 0
M  V30 5307 H 486.061 -3.21261 -0.442917 0
M  V30 5308 H 485.846 -3.71323 1.25942 0
M  V30 5309 H 487.336 -4.1591 0.375315 0
M  V30 5310 N 487.773 -1.03688 -1.18687 0
M  V30 5311 C 489.05 -0.652397 -1.84399 0
M  V30 5312 C 489.43 0.868386 -1.92412 0
M  V30 5313 O 488.778 1.76832 -1.44716 0
M  V30 5314 C 488.988 -1.3238 -3.22919 0
M  V30 5315 C 490.336 -1.45216 -3.98996 0
M  V30 5316 O 491.36 -1.2816 -3.32345 0
M  V30 5317 O 490.219 -1.72975 -5.18403 0
M  V30 5318 H 487.313 -0.227793 -0.795009 0
M  V30 5319 H 489.859 -1.13553 -1.2611 0
M  V30 5320 H 488.631 -2.36202 -3.11968 0
M  V30 5321 H 488.254 -0.829039 -3.88861 0
M  V30 5322 N 489.251 1.34841 -0.815825 0
M  V30 5323 C 490.498 1.98499 -0.400535 0
M  V30 5324 C 490.826 1.64699 1.03463 0
M  V30 5325 O 490.081 0.907006 1.73412 0
M  V30 5326 C 490.38 3.53273 -0.541541 0
M  V30 5327 C 490.046 4.06966 -1.94138 0
M  V30 5328 C 488.708 4.21341 -2.32433 0
M  V30 5329 C 491.06 4.35933 -2.85677 0
M  V30 5330 C 488.388 4.62007 -3.61617 0
M  V30 5331 C 490.74 4.78042 -4.14317 0
M  V30 5332 C 489.404 4.90622 -4.52599 0
M  V30 5333 H 488.674 0.72636 -0.146566 0
M  V30 5334 H 491.321 1.60902 -1.0384 0
M  V30 5335 H 489.626 3.91387 0.179741 0
M  V30 5336 H 491.323 4.00497 -0.20085 0
M  V30 5337 H 487.913 3.96235 -1.63388 0
M  V30 5338 H 492.097 4.24372 -2.57337 0
M  V30 5339 H 487.353 4.69937 -3.91113 0
M  V30 5340 H 491.527 4.99415 -4.85342 0
M  V30 5341 H 489.154 5.2189 -5.52752 0
M  V30 5342 N 490.729 0.570148 1.46925 0
M  V30 5343 C 491.977 0.0508523 2.02036 0
M  V30 5344 C 492.298 -1.30885 1.44548 0
M  V30 5345 O 491.568 -1.85647 0.625453 0
M  V30 5346 H 490.148 0.0158088 0.746833 0
M  V30 5347 H 492.81 0.743086 1.80178 0
M  V30 5348 H 491.906 -0.027575 3.12088 0
M  V30 5349 N 492.207 -1.54576 0.307264 0
M  V30 5350 C 493.137 -2.26708 -0.55907 0
M  V30 5351 C 494.118 -1.26893 -1.1328 0
M  V30 5352 O 495.303 -1.55677 -1.16097 0
M  V30 5353 C 492.433 -3.01259 -1.72801 0
M  V30 5354 C 491.387 -4.08275 -1.28435 0
M  V30 5355 C 490.713 -4.70575 -2.53895 0
M  V30 5356 C 492.013 -5.2068 -0.411038 0
M  V30 5357 H 493.707 -2.9937 0.042576 0
M  V30 5358 H 491.253 -1.43983 0.0219173 0
M  V30 5359 H 493.206 -3.50444 -2.34023 0
M  V30 5360 H 491.93 -2.26187 -2.356 0
M  V30 5361 H 490.589 -3.59949 -0.695161 0
M  V30 5362 H 490.237 -3.92136 -3.15021 0
M  V30 5363 H 489.937 -5.42854 -2.24908 0
M  V30 5364 H 491.461 -5.22527 -3.15908 0
M  V30 5365 H 492.875 -5.65721 -0.929097 0
M  V30 5366 H 491.272 -5.99716 -0.214664 0
M  V30 5367 H 492.342 -4.81629 0.562287 0
M  V30 5368 N 493.685 -0.035106 -1.57561 0
M  V30 5369 C 494.648 0.929819 -2.09492 0
M  V30 5370 C 495.648 1.25026 -1.01119 0
M  V30 5371 O 496.838 1.18961 -1.27255 0
M  V30 5372 C 493.97 2.24457 -2.56577 0
M  V30 5373 H 495.163 0.479935 -2.96035 0
M  V30 5374 H 492.716 0.213033 -1.54841 0
M  V30 5375 H 493.451 2.74061 -1.73382 0
M  V30 5376 H 493.236 2.02508 -3.35757 0
M  V30 5377 H 494.726 2.93607 -2.96959 0
M  V30 5378 N 495.163 1.55791 0.238111 0
M  V30 5379 C 496.579 1.48411 0.587045 0
M  V30 5380 C 496.779 0.72702 1.87927 0
M  V30 5381 O 495.835 0.259942 2.51158 0
M  V30 5382 C 497.148 2.92873 0.681623 0
M  V30 5383 C 498.696 3.03295 0.773363 0
M  V30 5384 C 499.171 4.49082 0.899428 0
M  V30 5385 N 500.662 4.53056 0.964075 0
M  V30 5386 C 501.397 5.63117 1.08104 0
M  V30 5387 N 500.893 6.82969 1.16299 0
M  V30 5388 N 502.686 5.50933 1.11488 0
M  V30 5389 H 494.837 2.0345 -0.610076 0
M  V30 5390 H 497.1 0.924034 -0.211813 0
M  V30 5391 H 496.806 3.51142 -0.19802 0
M  V30 5392 H 496.68 3.43851 1.55069 0
M  V30 5393 H 499.067 2.45101 1.64346 0
M  V30 5394 H 499.148 2.55513 -0.121034 0
M  V30 5395 H 498.792 5.07889 0.0338586 0
M  V30 5396 H 498.722 4.94553 1.809 0
M  V30 5397 H 501.213 3.66737 0.91173 0
M  V30 5398 H 501.526 7.62598 1.25155 0
M  V30 5399 H 499.871 6.85712 1.13241 0
M  V30 5400 H 503.062 4.56231 1.0474 0
M  V30 5401 H 503.235 6.36743 1.20259 0
M  V30 5402 N 496.642 -0.504142 1.49319 0
M  V30 5403 C 497.605 -1.5883 1.65244 0
M  V30 5404 C 498.605 -1.52009 0.524386 0
M  V30 5405 O 499.795 -1.55218 0.79077 0
M  V30 5406 C 496.927 -2.98481 1.64687 0
M  V30 5407 H 498.12 -1.4604 2.61939 0
M  V30 5408 H 495.673 -0.728144 1.38303 0
M  V30 5409 H 496.408 -3.16751 0.695644 0
M  V30 5410 H 496.193 -3.0484 2.46607 0
M  V30 5411 H 497.683 -3.77256 1.79075 0
M  V30 5412 N 498.12 -1.38341 -0.754957 0
M  V30 5413 C 499.067 -1.3546 -1.86867 0
M  V30 5414 C 500.037 -0.217369 -1.64672 0
M  V30 5415 O 501.222 -0.409383 -1.86356 0
M  V30 5416 C 498.362 -1.18413 -3.24149 0
M  V30 5417 C 497.475 -2.41511 -3.58185 0
M  V30 5418 C 496.61 -2.17205 -4.84763 0
M  V30 5419 C 495.649 -3.36081 -5.11582 0
M  V30 5420 N 494.786 -3.11219 -6.29354 0
M  V30 5421 H 499.626 -2.30672 -1.88664 0
M  V30 5422 H 497.163 -1.14607 -0.922154 0
M  V30 5423 H 499.121 -1.06545 -4.03366 0
M  V30 5424 H 497.751 -0.268397 -3.21682 0
M  V30 5425 H 496.803 -2.64056 -2.73822 0
M  V30 5426 H 498.115 -3.30115 -3.73932 0
M  V30 5427 H 497.269 -2.02465 -5.7192 0
M  V30 5428 H 496.008 -1.25964 -4.71152 0
M  V30 5429 H 495.013 -3.51341 -4.22894 0
M  V30 5430 H 496.238 -4.28196 -5.27091 0
M  V30 5431 H 494.184 -2.22624 -6.17069 0
M  V30 5432 H 494.101 -3.93373 -6.45596 0
M  V30 5433 H 495.369 -3.00132 -7.19403 0
M  V30 5434 N 499.598 0.982988 -1.23187 0
M  V30 5435 C 500.823 1.76455 -1.08988 0
M  V30 5436 C 501.248 1.84726 0.354691 0
M  V30 5437 O 500.606 1.30699 1.25649 0
M  V30 5438 C 500.654 3.17094 -1.71708 0
M  V30 5439 O 499.758 4.00648 -0.977477 0
M  V30 5440 H 499.099 0.542988 -0.382177 0
M  V30 5441 H 501.629 1.23413 -1.63188 0
M  V30 5442 H 501.639 3.67684 -1.76841 0
M  V30 5443 H 500.314 3.10389 -2.76823 0
M  V30 5444 H 498.891 3.59161 -1.0029 0
M  V30 5445 N 501.076 1.04316 1.18135 0
M  V30 5446 C 502.322 0.749128 1.88457 0
M  V30 5447 C 502.655 -0.72149 1.803 0
M  V30 5448 O 501.93 -1.52676 1.205 0
M  V30 5449 C 502.213 1.21905 3.38838 0
M  V30 5450 C 502.066 2.75195 3.55792 0
M  V30 5451 C 503.385 0.811085 4.32561 0
M  V30 5452 H 500.504 0.273611 0.684329 0
M  V30 5453 H 503.146 1.29561 1.38975 0
M  V30 5454 H 501.296 0.754137 3.8111 0
M  V30 5455 H 502.968 3.29743 3.22595 0
M  V30 5456 H 501.211 3.14899 2.98364 0
M  V30 5457 H 501.882 3.03135 4.61317 0
M  V30 5458 H 504.358 1.21118 3.98082 0
M  V30 5459 H 503.234 1.16761 5.36338 0
M  V30 5460 H 503.495 -0.285596 4.41177 0
M  V30 5461 N 502.554 -1.34406 0.822964 0
M  V30 5462 C 503.965 -1.8069 0.469879 0
M  V30 5463 C 504.316 -1.68223 -1.00972 0
M  V30 5464 O 503.441 -1.22226 -1.78577 0
M  V30 5465 C 504.036 -3.28064 0.846118 0
M  V30 5466 C 502.595 -3.72428 0.545402 0
M  V30 5467 C 501.742 -2.56116 1.06301 0
M  V30 5468 H 504.693 -1.22153 1.01313 0
M  V30 5469 H 504.714 -3.80205 0.149922 0
M  V30 5470 H 504.226 -3.37107 1.92304 0
M  V30 5471 H 502.327 -3.68924 -0.522109 0
M  V30 5472 H 502.44 -4.66548 1.0895 0
M  V30 5473 H 500.804 -2.50048 0.484554 0
M  V30 5474 H 501.587 -2.67928 2.14638 0
M  V30 5475 N 504.032 -0.577932 -1.46621 0
M  V30 5476 C 505.26 -0.0671642 -2.06791 0
M  V30 5477 C 505.675 1.23571 -1.42743 0
M  V30 5478 O 505.032 1.74602 -0.531062 0
M  V30 5479 C 505.083 0.110357 -3.61332 0
M  V30 5480 O 504.804 -1.14095 -4.22982 0
M  V30 5481 C 506.305 0.656025 -4.38419 0
M  V30 5482 H 503.525 -0.0552732 -0.66872 0
M  V30 5483 H 506.069 -0.797242 -1.8832 0
M  V30 5484 H 504.224 0.790637 -3.79246 0
M  V30 5485 H 504.638 -0.951742 -5.15793 0
M  V30 5486 H 506.112 0.729438 -5.47159 0
M  V30 5487 H 506.589 1.67195 -4.06131 0
M  V30 5488 H 507.195 0.0107692 -4.25299 0
M  V30 5489 N 505.51 1.54411 -0.315457 0
M  V30 5490 C 506.457 2.24048 0.554166 0
M  V30 5491 C 507.427 1.2283 1.11812 0
M  V30 5492 O 508.612 1.51491 1.15997 0
M  V30 5493 C 505.752 2.99574 1.71316 0
M  V30 5494 C 504.865 4.15594 1.17922 0
M  V30 5495 C 504 4.78669 2.30324 0
M  V30 5496 C 503.039 5.86807 1.74137 0
M  V30 5497 N 502.176 6.43777 2.8017 0
M  V30 5498 H 507.016 2.97964 -0.0462602 0
M  V30 5499 H 504.553 1.47059 -0.0346009 0
M  V30 5500 H 506.511 3.41604 2.39505 0
M  V30 5501 H 505.141 2.28008 2.285 0
M  V30 5502 H 504.193 3.78404 0.389136 0
M  V30 5503 H 505.505 4.93459 0.728012 0
M  V30 5504 H 504.659 5.23626 3.06433 0
M  V30 5505 H 503.398 4.00168 2.78778 0
M  V30 5506 H 502.403 5.41261 0.965236 0
M  V30 5507 H 503.628 6.67201 1.2657 0
M  V30 5508 H 501.574 5.68153 3.2793 0
M  V30 5509 H 501.491 7.17031 2.39588 0
M  V30 5510 H 502.759 6.9339 3.56132 0
M  V30 5511 N 506.988 0.0434614 1.5754 0
M  V30 5512 C 508.216 -0.641835 1.96693 0
M  V30 5513 C 508.631 -1.64832 0.920652 0
M  V30 5514 O 507.988 -1.82247 -0.095993 0
M  V30 5515 C 508.039 -1.33557 3.35924 0
M  V30 5516 O 507.76 -0.369403 4.3654 0
M  V30 5517 C 509.261 -2.11135 3.89791 0
M  V30 5518 H 506.481 -0.176013 0.647503 0
M  V30 5519 H 509.025 0.107478 2.04217 0
M  V30 5520 H 507.18 -2.03617 3.29574 0
M  V30 5521 H 507.594 -0.863674 5.1734 0
M  V30 5522 H 509.068 -2.55107 4.89514 0
M  V30 5523 H 509.545 -2.95634 3.24803 0
M  V30 5524 H 510.151 -1.46002 3.99454 0
M  V30 5525 N 508.466 -1.55915 -0.229846 0
M  V30 5526 C 509.696 -1.82352 -0.971152 0
M  V30 5527 C 510.104 -0.619231 -1.7878 0
M  V30 5528 O 509.447 0.421597 -1.78797 0
M  V30 5529 C 509.509 -3.02399 -1.9441 0
M  V30 5530 C 509.173 -4.37739 -1.31277 0
M  V30 5531 C 510.17 -5.15074 -0.706757 0
M  V30 5532 C 507.855 -4.84454 -1.32702 0
M  V30 5533 C 509.849 -6.37281 -0.123413 0
M  V30 5534 C 507.536 -6.06605 -0.739831 0
M  V30 5535 C 508.534 -6.82858 -0.139071 0
M  V30 5536 O 508.222 -8.027 0.439007 0
M  V30 5537 H 507.954 -0.61035 -0.290601 0
M  V30 5538 H 510.508 -2.03839 -0.252746 0
M  V30 5539 H 508.738 -2.76709 -2.70128 0
M  V30 5540 H 510.427 -3.15779 -2.55026 0
M  V30 5541 H 511.193 -4.80093 -0.688131 0
M  V30 5542 H 507.072 -4.25081 -1.78402 0
M  V30 5543 H 510.616 -6.96741 0.346124 0
M  V30 5544 H 506.513 -6.4106 -0.755841 0
M  V30 5545 H 507.281 -8.17824 0.332521 0
M  V30 5546 N 509.944 0.496216 -1.49584 0
M  V30 5547 C 511.169 1.27865 -1.63295 0
M  V30 5548 C 511.594 1.85592 -0.306156 0
M  V30 5549 O 510.952 1.66092 0.726851 0
M  V30 5550 C 511 2.38128 -2.7079 0
M  V30 5551 O 510.104 3.42108 -2.30296 0
M  V30 5552 H 509.445 0.377279 -0.546403 0
M  V30 5553 H 511.975 0.593497 -1.95803 0
M  V30 5554 H 511.985 2.8382 -2.93104 0
M  V30 5555 H 510.66 1.95479 -3.67098 0
M  V30 5556 H 509.237 3.02301 -2.18331 0
M  V30 5557 N 511.423 1.38739 0.74761 0
M  V30 5558 C 512.371 1.36573 1.88283 0
M  V30 5559 C 513.365 0.250712 1.67534 0
M  V30 5560 O 514.571 0.420073 1.7503 0
M  V30 5561 H 510.946 0.42619 0.619569 0
M  V30 5562 H 512.917 2.32356 1.87226 0
M  V30 5563 C 511.666 1.21361 3.25832 0
M  V30 5564 H 510.989 2.06424 3.42388 0
M  V30 5565 H 512.429 1.23901 4.05493 0
M  V30 5566 C 510.888 -0.0790099 3.36807 0
M  V30 5567 O 511.418 -1.05385 3.8763 0
M  V30 5568 N 509.624 -0.13785 2.90273 0
M  V30 5569 H 509.171 0.656128 2.49104 0
M  V30 5570 H 509.129 -1.00228 2.97996 0
M  V30 5571 N 512.901 -0.976442 1.23707 0
M  V30 5572 C 513.811 -2.10359 1.03856 0
M  V30 5573 C 514.827 -1.73991 -0.0180919 0
M  V30 5574 O 516.003 -2.0061 0.178211 0
M  V30 5575 C 513.068 -3.40809 0.636387 0
M  V30 5576 C 512.129 -3.91179 1.76854 0
M  V30 5577 C 511.362 -5.15404 1.38546 0
M  V30 5578 O 511.585 -5.69754 0.27142 0
M  V30 5579 O 510.519 -5.5994 2.20797 0
M  V30 5580 H 514.345 -2.29997 1.98331 0
M  V30 5581 H 511.93 -1.08742 1.02448 0
M  V30 5582 H 513.812 -4.19269 0.423223 0
M  V30 5583 H 512.487 -3.22493 -0.279322 0
M  V30 5584 H 511.394 -3.13819 2.03638 0
M  V30 5585 H 512.727 -4.13958 2.6627 0
M  V30 5586 N 514.379 -1.04941 -1.1758 0
M  V30 5587 C 515.625 -0.759112 -1.88057 0
M  V30 5588 C 515.958 0.711918 -1.8068 0
M  V30 5589 O 515.233 1.52035 -1.21308 0
M  V30 5590 C 515.516 -1.237 -3.38187 0
M  V30 5591 C 515.369 -2.77078 -3.54327 0
M  V30 5592 C 516.688 -0.834014 -4.32125 0
M  V30 5593 H 513.807 -0.277237 -0.682868 0
M  V30 5594 H 516.449 -1.30296 -1.38286 0
M  V30 5595 H 514.599 -0.774337 -3.80705 0
M  V30 5596 H 516.271 -3.31449 -3.20842 0
M  V30 5597 H 514.514 -3.16477 -2.96689 0
M  V30 5598 H 515.185 -3.05577 -4.59703 0
M  V30 5599 H 517.661 -1.23228 -3.97434 0
M  V30 5600 H 516.537 -1.19603 -5.35711 0
M  V30 5601 H 516.798 0.262195 -4.41322 0
M  V30 5602 N 515.857 1.33968 -0.830081 0
M  V30 5603 C 517.103 1.98357 -0.422191 0
M  V30 5604 C 517.436 1.65633 1.01387 0
M  V30 5605 O 516.711 0.931648 1.70735 0
M  V30 5606 C 516.994 3.54492 -0.633043 0
M  V30 5607 C 516.847 3.96934 -2.11574 0
M  V30 5608 C 518.166 4.40039 -0.0735584 0
M  V30 5609 H 515.285 0.720544 -0.154871 0
M  V30 5610 H 517.927 1.58749 -1.04397 0
M  V30 5611 H 516.077 3.88361 -0.103775 0
M  V30 5612 H 517.749 3.73363 -2.7092 0
M  V30 5613 H 515.992 3.46984 -2.60354 0
M  V30 5614 H 516.663 5.05651 -2.21406 0
M  V30 5615 H 519.139 4.12764 -0.52585 0
M  V30 5616 H 518.015 5.48327 -0.250841 0
M  V30 5617 H 518.276 4.30124 1.02202 0
M  V30 5618 N 517.335 0.585699 1.46312 0
M  V30 5619 C 518.563 0.0781299 2.06752 0
M  V30 5620 C 518.978 -1.22812 1.43396 0
M  V30 5621 O 518.335 -1.74318 0.540314 0
M  V30 5622 C 518.386 -0.0911927 3.61385 0
M  V30 5623 O 518.107 1.16336 4.22371 0
M  V30 5624 C 519.608 -0.632765 4.38761 0
M  V30 5625 H 516.828 0.0588188 0.668417 0
M  V30 5626 H 519.372 0.807218 1.87894 0
M  V30 5627 H 517.527 -0.770514 3.7966 0
M  V30 5628 H 517.941 0.979082 5.15281 0
M  V30 5629 H 519.415 -0.70041 5.47538 0
M  V30 5630 H 519.892 -1.65039 4.07012 0
M  V30 5631 H 520.498 0.0117856 4.25298 0
M  V30 5632 N 518.813 -1.54241 0.323641 0
M  V30 5633 C 519.743 -2.27289 -0.534993 0
M  V30 5634 C 520.724 -1.28087 -1.11927 0
M  V30 5635 O 521.909 -1.56899 -1.14439 0
M  V30 5636 C 519.039 -3.03075 -1.69596 0
M  V30 5637 C 517.993 -4.09614 -1.24098 0
M  V30 5638 C 517.319 -4.73242 -2.4889 0
M  V30 5639 C 518.619 -5.21087 -0.355789 0
M  V30 5640 H 520.313 -2.99308 0.0743257 0
M  V30 5641 H 517.859 -1.43952 0.0371874 0
M  V30 5642 H 519.812 -3.52907 -2.30293 0
M  V30 5643 H 518.536 -2.28673 -2.33187 0
M  V30 5644 H 517.195 -3.60666 -0.656945 0
M  V30 5645 H 516.843 -3.95455 -3.10845 0
M  V30 5646 H 516.543 -5.45209 -2.19138 0
M  V30 5647 H 518.067 -5.25848 -3.10348 0
M  V30 5648 H 519.481 -5.66675 -0.869042 0
M  V30 5649 H 517.878 -5.9991 -0.151045 0
M  V30 5650 H 518.948 -4.81005 0.613339 0
M  V30 5651 N 520.291 -0.0518155 -1.57515 0
M  V30 5652 C 521.537 0.616839 -1.93821 0
M  V30 5653 C 521.892 1.68413 -0.930307 0
M  V30 5654 O 521.185 1.91534 0.0504231 0
M  V30 5655 C 521.379 1.25607 -3.34601 0
M  V30 5656 C 521.208 0.252222 -4.48992 0
M  V30 5657 C 519.978 -0.156031 -5.05059 0
M  V30 5658 C 522.176 -0.502613 -5.11838 0
M  V30 5659 N 520.158 -1.15267 -6.02981 0
M  V30 5660 C 521.529 -1.35232 -6.05072 0
M  V30 5661 C 523.584 -0.560855 -4.94731 0
M  V30 5662 C 522.287 -2.25505 -6.83037 0
M  V30 5663 C 524.313 -1.45102 -5.73323 0
M  V30 5664 C 523.675 -2.28845 -6.6619 0
M  V30 5665 H 519.774 0.197344 -0.75669 0
M  V30 5666 H 522.358 -0.124297 -1.94303 0
M  V30 5667 H 520.529 1.96723 -3.34895 0
M  V30 5668 H 522.261 1.88358 -3.58195 0
M  V30 5669 H 519.016 0.22306 -4.73074 0
M  V30 5670 H 519.44 -1.64791 -6.56638 0
M  V30 5671 H 524.082 0.0723639 -4.22738 0
M  V30 5672 H 521.8 -2.89872 -7.54321 0
M  V30 5673 H 525.386 -1.50066 -5.62113 0
M  V30 5674 H 524.266 -2.96608 -7.25943 0
M  V30 5675 N 521.769 1.56035 0.221574 0
M  V30 5676 C 522.999 1.82864 0.961468 0
M  V30 5677 C 523.407 0.628703 1.78449 0
M  V30 5678 O 522.75 -0.412109 1.79018 0
M  V30 5679 C 522.812 3.03425 1.92804 0
M  V30 5680 C 522.476 4.38429 1.28954 0
M  V30 5681 C 523.473 5.15441 0.679431 0
M  V30 5682 C 521.158 4.85151 1.30131 0
M  V30 5683 C 523.152 6.37337 0.0896148 0
M  V30 5684 C 520.839 6.06989 0.707651 0
M  V30 5685 C 521.837 6.82923 0.102855 0
M  V30 5686 O 521.525 8.02456 -0.48157 0
M  V30 5687 H 521.257 0.611883 0.28736 0
M  V30 5688 H 523.811 2.0397 0.241932 0
M  V30 5689 H 522.041 2.78138 2.68656 0
M  V30 5690 H 523.73 3.17127 2.53348 0
M  V30 5691 H 524.496 4.80452 0.662661 0
M  V30 5692 H 520.375 4.26021 1.76145 0
M  V30 5693 H 523.919 6.96547 -0.383069 0
M  V30 5694 H 519.816 6.41451 0.721834 0
M  V30 5695 H 520.584 8.17636 -0.375887 0
M  V30 5696 N 523.247 -0.488276 1.49845 0
M  V30 5697 C 524.663 -0.820566 1.3689 0
M  V30 5698 C 524.863 -1.97248 0.411752 0
M  V30 5699 O 523.919 -2.52042 -0.151931 0
M  V30 5700 C 525.232 -1.1488 2.77891 0
M  V30 5701 C 526.78 -1.25626 2.86683 0
M  V30 5702 C 527.255 -1.61772 4.28479 0
M  V30 5703 N 528.746 -1.68797 4.31349 0
M  V30 5704 C 529.481 -1.98235 5.38043 0
M  V30 5705 N 528.977 -2.2581 6.54967 0
M  V30 5706 N 530.77 -1.99593 5.2547 0
M  V30 5707 H 522.921 0.271123 2.10662 0
M  V30 5708 H 525.184 0.058735 0.946179 0
M  V30 5709 H 524.89 -0.375614 3.49688 0
M  V30 5710 H 524.764 -2.08919 3.14058 0
M  V30 5711 H 527.151 -2.02014 2.15114 0
M  V30 5712 H 527.232 -0.296072 2.54081 0
M  V30 5713 H 526.876 -0.859295 5.00578 0
M  V30 5714 H 526.806 -2.58912 4.58554 0
M  V30 5715 H 529.297 -1.49595 3.4703 0
M  V30 5716 H 529.61 -2.47497 7.32096 0
M  V30 5717 H 527.955 -2.23239 6.58171 0
M  V30 5718 H 531.146 -1.77535 4.33127 0
M  V30 5719 H 531.319 -2.222 6.08713 0
M  V30 5720 N 524.725 -1.39134 -0.740242 0
M  V30 5721 C 526.136 -1.32208 -1.31825 0
M  V30 5722 C 526.487 0.0159919 -1.96193 0
M  V30 5723 O 525.612 0.918111 -1.95958 0
M  V30 5724 C 526.207 -2.39436 -2.39699 0
M  V30 5725 C 524.766 -2.36048 -2.93187 0
M  V30 5726 C 523.913 -2.21599 -1.66701 0
M  V30 5727 H 526.864 -1.49298 -0.538133 0
M  V30 5728 H 526.885 -2.05922 -3.19963 0
M  V30 5729 H 526.397 -3.36811 -1.92821 0
M  V30 5730 H 524.498 -1.42295 -3.44359 0
M  V30 5731 H 524.611 -3.30704 -3.46658 0
M  V30 5732 H 522.975 -1.68681 -1.90837 0
M  V30 5733 H 523.758 -3.20936 -1.21882 0
M  V30 5734 N 526.204 0.969867 -1.24223 0
M  V30 5735 C 527.615 1.52717 -1.07399 0
M  V30 5736 C 527.966 1.92956 0.355298 0
M  V30 5737 O 527.091 1.77112 1.2434 0
M  V30 5738 C 527.686 2.77521 -1.94339 0
M  V30 5739 C 526.245 3.29615 -1.81744 0
M  V30 5740 C 525.392 2.02537 -1.89405 0
M  V30 5741 H 528.343 0.788399 -1.37732 0
M  V30 5742 H 528.364 3.50773 -1.47439 0
M  V30 5743 H 527.876 2.48203 -2.98357 0
M  V30 5744 H 525.977 3.63789 -0.805505 0
M  V30 5745 H 526.09 3.98661 -2.65718 0
M  V30 5746 H 524.454 2.17151 -1.33108 0
M  V30 5747 H 525.237 1.75587 -2.94999 0
M  V30 5748 N 527.682 1.05563 1.17022 0
M  V30 5749 C 528.959 0.68165 1.83338 0
M  V30 5750 C 529.339 -0.837665 1.93769 0
M  V30 5751 O 528.687 -1.74507 1.47511 0
M  V30 5752 C 528.897 1.375 3.20772 0
M  V30 5753 C 530.245 1.51545 3.96635 0
M  V30 5754 O 531.269 1.33431 3.30264 0
M  V30 5755 O 530.128 1.812 5.15586 0
M  V30 5756 H 527.222 0.240412 0.791285 0
M  V30 5757 H 529.768 1.15545 1.24288 0
M  V30 5758 H 528.54 2.41135 3.08171 0
M  V30 5759 H 528.163 0.890798 3.87493 0
M  V30 5760 N 529.16 -1.33526 0.837174 0
M  V30 5761 C 530.406 -1.9813 0.432704 0
M  V30 5762 C 530.739 -1.66168 -1.00508 0
M  V30 5763 O 530.014 -0.94069 -1.70239 0
M  V30 5764 C 530.297 -3.54151 0.651834 0
M  V30 5765 C 530.15 -3.95806 2.13676 0
M  V30 5766 C 531.469 -4.39993 0.0968937 0
M  V30 5767 H 528.588 -0.719713 0.15869 0
M  V30 5768 H 531.23 -1.58193 1.05237 0
M  V30 5769 H 529.38 -3.88301 0.124369 0
M  V30 5770 H 531.052 -3.71921 2.72896 0
M  V30 5771 H 529.295 -3.45599 2.62191 0
M  V30 5772 H 529.966 -5.0447 2.24084 0
M  V30 5773 H 532.442 -4.12479 0.547733 0
M  V30 5774 H 531.318 -5.48186 0.279917 0
M  V30 5775 H 531.579 -4.3066 -0.9992 0
M  V30 5776 N 530.638 -0.59345 -1.46 0
M  V30 5777 C 531.568 0.121192 -2.33185 0
M  V30 5778 C 532.549 0.872977 -1.4599 0
M  V30 5779 O 533.734 0.846321 -1.74789 0
M  V30 5780 C 530.864 1.12844 -3.28456 0
M  V30 5781 C 529.818 0.4908 -4.25177 0
M  V30 5782 C 529.144 1.60529 -5.10034 0
M  V30 5783 C 530.444 -0.578949 -5.19081 0
M  V30 5784 H 532.138 -0.606767 -2.93187 0
M  V30 5785 H 529.684 -0.293242 -1.40983 0
M  V30 5786 H 531.637 1.63684 -3.88311 0
M  V30 5787 H 530.361 1.88681 -2.66584 0
M  V30 5788 H 529.02 0.00339328 -3.666 0
M  V30 5789 H 528.668 2.35359 -4.44539 0
M  V30 5790 H 528.368 1.18422 -5.75543 0
M  V30 5791 H 529.892 2.11623 -5.72755 0
M  V30 5792 H 531.306 -0.155199 -5.7309 0
M  V30 5793 H 529.703 -0.920947 -5.92991 0
M  V30 5794 H 530.773 -1.46109 -4.62364 0
M  V30 5795 N 532.116 1.54067 -0.331816 0
M  V30 5796 C 533.046 2.27569 0.522932 0
M  V30 5797 C 534.027 1.28679 1.11247 0
M  V30 5798 O 535.212 1.57504 1.13605 0
M  V30 5799 C 532.342 3.0397 1.67987 0
M  V30 5800 C 531.296 4.10267 1.21924 0
M  V30 5801 C 530.622 4.74555 2.46377 0
M  V30 5802 C 531.922 5.21268 0.32815 0
M  V30 5803 H 533.616 2.99264 -0.0901977 0
M  V30 5804 H 531.162 1.4393 -0.044821 0
M  V30 5805 H 533.115 3.54123 2.28418 0
M  V30 5806 H 531.839 2.29906 2.31971 0
M  V30 5807 H 530.498 3.61009 0.637809 0
M  V30 5808 H 530.146 3.97098 3.08743 0
M  V30 5809 H 529.846 5.46363 2.16243 0
M  V30 5810 H 531.37 5.27487 3.07555 0
M  V30 5811 H 532.784 5.67128 0.838978 0
M  V30 5812 H 531.181 5.99982 0.119228 0
M  V30 5813 H 532.251 4.80673 -0.638839 0
M  V30 5814 N 533.594 0.0601682 1.57485 0
M  V30 5815 C 534.842 -0.610386 1.92662 0
M  V30 5816 C 535.163 -1.70849 0.939981 0
M  V30 5817 O 534.433 -1.95895 -0.0137455 0
M  V30 5818 H 533.013 -0.228457 0.711208 0
M  V30 5819 H 535.675 0.115288 1.94559 0
M  V30 5820 H 534.771 -1.0432 2.94149 0
M  V30 5821 N 535.072 -1.5615 -0.213296 0
M  V30 5822 C 536.297 -1.83986 -0.957282 0
M  V30 5823 C 536.722 -0.641526 -1.76822 0
M  V30 5824 O 536.08 0.409722 -1.7661 0
M  V30 5825 C 536.128 -3.09889 -1.84393 0
M  V30 5826 O 535.232 -2.89163 -2.94038 0
M  V30 5827 H 534.573 -0.606357 -0.270605 0
M  V30 5828 H 537.103 -2.03369 -0.224111 0
M  V30 5829 H 537.113 -3.40209 -2.25215 0
M  V30 5830 H 535.788 -3.96735 -1.24795 0
M  V30 5831 H 534.365 -2.70097 -2.57103 0
M  V30 5832 N 536.55 0.480323 -1.50102 0
M  V30 5833 C 537.775 1.26126 -1.64642 0
M  V30 5834 C 538.2 1.85257 -0.325823 0
M  V30 5835 O 537.558 1.66854 0.709194 0
M  V30 5836 C 537.606 2.35243 -2.73301 0
M  V30 5837 O 536.71 3.39646 -2.33911 0
M  V30 5838 H 536.051 0.371463 -0.550374 0
M  V30 5839 H 538.581 0.572696 -1.96421 0
M  V30 5840 H 538.591 2.80695 -2.96098 0
M  V30 5841 H 537.266 1.91574 -3.6915 0
M  V30 5842 H 535.843 2.99969 -2.21525 0
M  V30 5843 N 538.028 1.39524 0.732853 0
M  V30 5844 C 538.938 1.40695 1.87729 0
M  V30 5845 C 539.954 0.301496 1.71368 0
M  V30 5846 O 541.13 0.543313 1.93933 0
M  V30 5847 C 538.195 1.25098 3.23344 0
M  V30 5848 C 537.256 2.45634 3.52083 0
M  V30 5849 C 536.489 2.30772 4.81228 0
M  V30 5850 O 536.712 1.31233 5.55098 0
M  V30 5851 O 535.646 3.19799 5.09914 0
M  V30 5852 H 539.472 2.37168 1.89697 0
M  V30 5853 H 537.057 1.20663 0.880959 0
M  V30 5854 H 538.939 1.18541 4.04383 0
M  V30 5855 H 537.614 0.317209 3.22142 0
M  V30 5856 H 536.521 2.57767 2.71122 0
M  V30 5857 H 537.854 3.37712 3.58066 0
M  V30 5858 N 539.506 -0.963266 1.24736 0
M  V30 5859 C 540.736 -1.73913 1.11524 0
M  V30 5860 C 541.144 -1.86218 -0.334612 0
M  V30 5861 O 540.487 -1.3531 -1.24245 0
M  V30 5862 C 540.549 -3.17501 1.68622 0
M  V30 5863 C 540.213 -3.28655 3.17546 0
M  V30 5864 C 541.21 -3.13637 4.14642 0
M  V30 5865 C 538.895 -3.52753 3.5759 0
M  V30 5866 C 540.889 -3.2255 5.49764 0
M  V30 5867 C 538.576 -3.61303 4.92852 0
M  V30 5868 C 539.574 -3.46214 5.88748 0
M  V30 5869 O 539.262 -3.5443 7.2155 0
M  V30 5870 H 538.994 -0.552057 0.390139 0
M  V30 5871 H 541.548 -1.2177 1.65412 0
M  V30 5872 H 539.778 -3.70969 1.09172 0
M  V30 5873 H 541.467 -3.76914 1.50635 0
M  V30 5874 H 542.233 -2.94899 3.85045 0
M  V30 5875 H 538.112 -3.63561 2.83451 0
M  V30 5876 H 541.656 -3.1069 6.24594 0
M  V30 5877 H 537.553 -3.79556 5.22118 0
M  V30 5878 H 538.321 -3.71116 7.29531 0
M  V30 5879 N 540.985 -1.06182 -1.16461 0
M  V30 5880 C 542.21 -0.798599 -1.91408 0
M  V30 5881 C 542.635 0.640987 -1.76842 0
M  V30 5882 O 541.993 1.44652 -1.09296 0
M  V30 5883 C 542.041 -1.19665 -3.40165 0
M  V30 5884 O 541.145 -0.334768 -4.11039 0
M  V30 5885 H 540.486 -0.291961 -0.596368 0
M  V30 5886 H 543.016 -1.41732 -1.47557 0
M  V30 5887 H 543.026 -1.16772 -3.90933 0
M  V30 5888 H 541.701 -2.24526 -3.50087 0
M  V30 5889 H 540.278 -0.425168 -3.70468 0
M  V30 5890 N 542.463 1.3308 -0.844243 0
M  V30 5891 C 543.691 2.01808 -0.456203 0
M  V30 5892 C 544.106 1.63498 0.944131 0
M  V30 5893 O 543.463 0.85102 1.61443 0
M  V30 5894 C 543.514 3.56922 -0.573513 0
M  V30 5895 O 543.235 3.93851 -1.91868 0
M  V30 5896 C 544.736 4.42922 -0.183125 0
M  V30 5897 H 541.956 0.646273 -0.180477 0
M  V30 5898 H 544.5 1.69891 -1.1383 0
M  V30 5899 H 542.655 3.87352 0.0607367 0
M  V30 5900 H 543.069 4.88564 -1.90802 0
M  V30 5901 H 544.543 5.51093 -0.316241 0
M  V30 5902 H 545.02 4.30386 0.875477 0
M  V30 5903 H 545.626 4.1786 -0.792027 0
M  V30 5904 N 543.941 0.601185 1.45683 0
M  V30 5905 C 544.873 -0.159446 2.28645 0
M  V30 5906 C 545.886 -0.837882 1.39583 0
M  V30 5907 O 547.075 -0.704344 1.64016 0
M  V30 5908 C 544.175 -1.24641 3.15147 0
M  V30 5909 C 543.348 -0.656334 4.32448 0
M  V30 5910 C 542.407 -1.63337 5.00208 0
M  V30 5911 O 541.433 -1.16217 5.57209 0
M  V30 5912 N 542.635 -2.96773 4.98905 0
M  V30 5913 H 545.4 0.5524 2.94565 0
M  V30 5914 H 542.961 0.440223 1.558 0
M  V30 5915 H 544.953 -1.8997 3.57342 0
M  V30 5916 H 543.523 -1.86087 2.51178 0
M  V30 5917 H 542.743 0.174879 3.93812 0
M  V30 5918 H 544.031 -0.242211 5.08223 0
M  V30 5919 H 543.429 -3.37662 4.53873 0
M  V30 5920 H 541.986 -3.57541 5.44984 0
M  V30 5921 N 545.419 -1.53889 0.339982 0
M  V30 5922 C 546.668 -2.00035 -0.258604 0
M  V30 5923 C 546.981 -1.23179 -1.51942 0
M  V30 5924 O 548.187 -1.59784 -2.19503 0
M  V30 5925 C 546.643 -3.56249 -0.511359 0
M  V30 5926 C 546.251 -4.41957 0.733349 0
M  V30 5927 C 547.995 -4.1082 -1.069 0
M  V30 5928 C 545.902 -5.89673 0.451591 0
M  V30 5929 H 544.832 -0.747284 -0.10041 0
M  V30 5930 H 547.483 -1.77776 0.454758 0
M  V30 5931 H 545.865 -3.7456 -1.28533 0
M  V30 5932 H 547.039 -4.35421 1.50815 0
M  V30 5933 H 545.354 -3.9836 1.21237 0
M  V30 5934 H 547.951 -5.18789 -1.2947 0
M  V30 5935 H 548.294 -3.63817 -2.02343 0
M  V30 5936 H 548.827 -3.96205 -0.355817 0
M  V30 5937 H 545.566 -6.40903 1.37565 0
M  V30 5938 H 545.086 -5.99122 -0.285193 0
M  V30 5939 H 546.765 -6.46965 0.0675067 0
M  V30 5940 N 546.897 -0.0685191 -1.57451 0
M  V30 5941 C 548.174 0.642167 -1.84758 0
M  V30 5942 C 548.554 1.87991 -0.960344 0
M  V30 5943 O 547.902 2.28485 -0.0257894 0
M  V30 5944 C 548.112 0.982946 -3.34872 0
M  V30 5945 C 549.46 1.35784 -4.02303 0
M  V30 5946 O 550.484 1.07477 -3.39598 0
M  V30 5947 O 549.343 1.88681 -5.12895 0
M  V30 5948 H 546.437 0.318625 -0.763156 0
M  V30 5949 H 548.983 -0.0992015 -1.6941 0
M  V30 5950 H 547.755 0.10372 -3.91163 0
M  V30 5951 H 547.378 1.78119 -3.55471 0
M  V30 5952 N 548.375 1.56261 0.205012 0
M  V30 5953 C 549.308 1.88797 1.28183 0
M  V30 5954 C 550.286 0.747018 1.44424 0
M  V30 5955 O 551.47 0.997039 1.59973 0
M  V30 5956 C 548.597 2.10949 2.64987 0
M  V30 5957 C 547.643 3.33649 2.6567 0
M  V30 5958 S 548.476 4.89078 2.18088 0
M  V30 5959 C 549.632 5.14286 3.56736 0
M  V30 5960 H 549.865 2.79837 1.00393 0
M  V30 5961 H 547.398 1.48911 0.408042 0
M  V30 5962 H 549.356 2.24395 3.4374 0
M  V30 5963 H 548.017 1.20678 2.89993 0
M  V30 5964 H 547.21 3.46245 3.66239 0
M  V30 5965 H 546.812 3.19146 1.94992 0
M  V30 5966 H 549.104 5.04198 4.52537 0
M  V30 5967 H 550.047 6.16096 3.49043 0
M  V30 5968 H 550.455 4.41957 3.51189 0
M  V30 5969 N 549.853 -0.472356 1.50355 0
M  V30 5970 C 551.099 -1.22348 1.62488 0
M  V30 5971 C 551.454 -1.89711 0.320574 0
M  V30 5972 O 550.747 -1.79074 -0.68141 0
M  V30 5973 C 550.941 -2.29257 2.74182 0
M  V30 5974 C 550.77 -1.72383 4.15348 0
M  V30 5975 C 549.54 -1.52411 4.81766 0
M  V30 5976 C 551.738 -1.21949 4.99633 0
M  V30 5977 N 549.72 -0.907669 6.07153 0
M  V30 5978 C 551.091 -0.726191 6.15732 0
M  V30 5979 C 553.146 -1.10792 4.85417 0
M  V30 5980 C 551.849 -0.132322 7.19178 0
M  V30 5981 C 553.875 -0.52799 5.89038 0
M  V30 5982 C 553.237 -0.0450604 7.04386 0
M  V30 5983 H 549.336 -0.436631 0.648751 0
M  V30 5984 H 551.92 -0.525698 1.87469 0
M  V30 5985 H 550.091 -2.96464 2.50926 0
M  V30 5986 H 551.823 -2.9628 2.75681 0
M  V30 5987 H 548.578 -1.776 4.39039 0
M  V30 5988 H 549.002 -0.617897 6.74174 0
M  V30 5989 H 553.644 -1.46722 3.96525 0
M  V30 5990 H 551.362 0.239187 8.07746 0
M  V30 5991 H 554.948 -0.444046 5.80103 0
M  V30 5992 H 553.828 0.396659 7.83196 0
M  V30 5993 N 551.331 -1.39911 -0.725443 0
M  V30 5994 C 552.579 -1.37382 -1.48224 0
M  V30 5995 C 552.9 0.0264107 -1.94982 0
M  V30 5996 O 552.17 0.979408 -1.6966 0
M  V30 5997 H 550.75 -0.505596 -0.549892 0
M  V30 5998 H 553.412 -1.7487 -0.860608 0
M  V30 5999 H 552.508 -2.04254 -2.3598 0
M  V30 6000 N 552.809 0.956637 -1.25245 0
M  V30 6001 C 554.055 1.70352 -1.10036 0
M  V30 6002 C 554.388 1.90869 0.358156 0
M  V30 6003 O 553.663 1.47819 1.26411 0
M  V30 6004 C 553.946 3.08766 -1.85298 0
M  V30 6005 C 553.799 2.95672 -3.38966 0
M  V30 6006 C 555.118 4.08622 -1.63451 0
M  V30 6007 H 552.237 0.618279 -0.401123 0
M  V30 6008 H 554.879 1.11212 -1.54051 0
M  V30 6009 H 553.029 3.59252 -1.47887 0
M  V30 6010 H 554.701 2.52527 -3.86041 0
M  V30 6011 H 552.944 2.31634 -3.6678 0
M  V30 6012 H 553.615 3.93776 -3.86839 0
M  V30 6013 H 556.091 3.67038 -1.96015 0
M  V30 6014 H 554.967 5.03514 -2.18551 0
M  V30 6015 H 555.228 4.3834 -0.575357 0
M  V30 6016 N 554.287 1.06798 1.15896 0
M  V30 6017 C 555.535 0.786211 1.8618 0
M  V30 6018 C 555.856 -0.689547 1.82401 0
M  V30 6019 O 555.126 -1.49913 1.26107 0
M  V30 6020 H 553.706 0.287843 0.689315 0
M  V30 6021 H 556.368 1.35055 1.40521 0
M  V30 6022 H 555.464 1.1157 2.91477 0
M  V30 6023 N 555.766 -1.3263 0.851289 0
M  V30 6024 C 557.006 -1.99174 0.459266 0
M  V30 6025 C 557.37 -1.65913 -0.966273 0
M  V30 6026 O 558.571 -2.2552 -1.46267 0
M  V30 6027 C 556.842 -3.50721 0.687698 0
M  V30 6028 S 558.401 -4.37039 0.392746 0
M  V30 6029 H 555.219 -0.689832 0.172199 0
M  V30 6030 H 557.821 -1.61395 1.10327 0
M  V30 6031 H 556.525 -3.72417 1.72435 0
M  V30 6032 H 556.056 -3.93389 0.0299949 0
M  V30 6033 H 558.071 -4.8999 -0.782578 0
M  V30 6034 N 557.244 -0.608902 -1.45362 0
M  V30 6035 C 558.493 -0.10218 -2.01441 0
M  V30 6036 C 558.806 1.27546 -1.48295 0
M  V30 6037 O 560.012 1.87498 -1.96359 0
M  V30 6038 C 558.468 -0.131985 -3.59658 0
M  V30 6039 C 558.076 -1.50956 -4.21801 0
M  V30 6040 C 559.82 0.319427 -4.23296 0
M  V30 6041 C 557.727 -1.49568 -5.72174 0
M  V30 6042 H 556.657 -0.0344314 -0.753213 0
M  V30 6043 H 559.308 -0.764426 -1.6682 0
M  V30 6044 H 557.69 0.596939 -3.91475 0
M  V30 6045 H 558.864 -2.26029 -4.01556 0
M  V30 6046 H 557.179 -1.90318 -3.70362 0
M  V30 6047 H 559.776 0.349013 -5.3356 0
M  V30 6048 H 560.119 1.34237 -3.94064 0
M  V30 6049 H 560.652 -0.356273 -3.96201 0
M  V30 6050 H 557.391 -2.49626 -6.06108 0
M  V30 6051 H 556.911 -0.787542 -5.94607 0
M  V30 6052 H 558.59 -1.21989 -6.35396 0
M  V30 6053 N 558.722 1.53707 -0.348139 0
M  V30 6054 C 559.969 2.00988 0.246966 0
M  V30 6055 C 560.297 1.23586 1.50189 0
M  V30 6056 O 559.552 0.312817 1.93184 0
M  V30 6057 C 559.851 3.52292 0.602061 0
M  V30 6058 C 559.517 4.47453 -0.556509 0
M  V30 6059 C 558.179 4.73188 -0.874446 0
M  V30 6060 C 560.531 5.03851 -1.33354 0
M  V30 6061 C 557.859 5.52577 -1.9717 0
M  V30 6062 C 560.211 5.84437 -2.42108 0
M  V30 6063 C 558.875 6.08465 -2.74456 0
M  V30 6064 H 558.145 0.735469 0.0903712 0
M  V30 6065 H 560.792 1.85464 -0.477001 0
M  V30 6066 H 559.097 3.65672 1.40681 0
M  V30 6067 H 560.794 3.86337 1.07447 0
M  V30 6068 H 557.384 4.27558 -0.298652 0
M  V30 6069 H 561.568 4.8393 -1.10117 0
M  V30 6070 H 556.824 5.69418 -2.22651 0
M  V30 6071 H 560.998 6.27151 -3.02745 0
M  V30 6072 H 558.625 6.69768 -3.59604 0
M  V30 6073 N 560.2 0.0768682 1.57412 0
M  V30 6074 C 561.447 -0.591085 1.93681 0
M  V30 6075 C 561.775 -1.69311 0.957286 0
M  V30 6076 O 561.03 -1.95682 -0.0262428 0
M  V30 6077 C 561.329 -1.20268 3.36557 0
M  V30 6078 C 560.995 -0.226286 4.50332 0
M  V30 6079 C 559.657 0.0423142 4.81181 0
M  V30 6080 C 562.009 0.441415 5.19327 0
M  V30 6081 C 559.337 0.985616 5.78362 0
M  V30 6082 C 561.689 1.37307 6.17519 0
M  V30 6083 C 560.353 1.65009 6.46783 0
M  V30 6084 H 559.623 -0.216293 0.70873 0
M  V30 6085 H 562.27 0.148824 1.90921 0
M  V30 6086 H 560.575 -2.01844 3.35807 0
M  V30 6087 H 562.272 -1.72688 3.61911 0
M  V30 6088 H 558.862 -0.445821 4.26275 0
M  V30 6089 H 563.046 0.247023 4.95685 0
M  V30 6090 H 558.302 1.20743 5.99359 0
M  V30 6091 H 562.476 1.89637 6.70083 0
M  V30 6092 H 560.103 2.38263 7.21897 0
M  V30 6093 N 561.678 -1.56367 -0.196722 0
M  V30 6094 C 562.588 -1.97617 -1.2643 0
M  V30 6095 C 563.604 -0.883598 -1.49895 0
M  V30 6096 O 564.78 -1.18921 -1.62541 0
M  V30 6097 C 561.845 -2.30595 -2.58895 0
M  V30 6098 C 560.906 -3.53551 -2.43516 0
M  V30 6099 C 560.139 -3.84946 -3.69665 0
M  V30 6100 O 560.362 -3.17655 -4.73763 0
M  V30 6101 O 559.296 -4.78379 -3.65291 0
M  V30 6102 H 563.122 -2.88648 -0.944233 0
M  V30 6103 H 560.707 -1.43901 -0.401592 0
M  V30 6104 H 562.589 -2.52889 -3.37083 0
M  V30 6105 H 561.264 -1.42732 -2.90533 0
M  V30 6106 H 560.171 -3.36507 -1.63445 0
M  V30 6107 H 561.504 -4.41875 -2.16812 0
M  V30 6108 N 563.156 0.464375 -1.50603 0
M  V30 6109 C 564.089 1.58052 -1.64605 0
M  V30 6110 C 565.067 1.54914 -0.494016 0
M  V30 6111 O 566.251 1.74438 -0.714393 0
M  V30 6112 C 563.378 2.96634 -1.63481 0
M  V30 6113 C 562.424 3.17901 -2.84325 0
M  V30 6114 S 563.257 2.97083 -4.45536 0
M  V30 6115 C 564.413 4.37994 -4.47115 0
M  V30 6116 H 564.646 1.45937 -2.59017 0
M  V30 6117 H 562.179 0.652189 -1.39949 0
M  V30 6118 H 564.137 3.76527 -1.63517 0
M  V30 6119 H 562.798 3.06134 -0.702928 0
M  V30 6120 H 561.991 4.19158 -2.79862 0
M  V30 6121 H 561.593 2.45792 -2.81891 0
M  V30 6122 H 563.885 5.30743 -4.21091 0
M  V30 6123 H 564.828 4.47499 -5.48772 0
M  V30 6124 H 565.236 4.20386 -3.76743 0
M  V30 6125 N 564.634 1.40294 0.718013 0
M  V30 6126 C 565.597 1.4012 1.81381 0
M  V30 6127 C 566.597 0.295405 1.58063 0
M  V30 6128 O 567.787 0.554187 1.6515 0
M  V30 6129 C 564.919 1.19056 3.19435 0
M  V30 6130 H 566.112 2.37645 1.82933 0
M  V30 6131 H 563.665 1.26107 0.923405 0
M  V30 6132 H 564.4 0.222809 3.23534 0
M  V30 6133 H 564.185 1.99152 3.37758 0
M  V30 6134 H 565.675 1.21716 3.99468 0
M  V30 6135 N 566.112 -0.949982 1.2575 0
M  V30 6136 C 567.337 -1.73503 1.13628 0
M  V30 6137 C 567.762 -1.85601 -0.30559 0
M  V30 6138 O 567.12 -1.33984 -1.22139 0
M  V30 6139 C 567.168 -3.1243 1.80055 0
M  V30 6140 O 566.272 -3.97916 1.08336 0
M  V30 6141 H 565.613 -0.532665 0.396439 0
M  V30 6142 H 568.143 -1.19043 1.66403 0
M  V30 6143 H 568.153 -3.62866 1.86527 0
M  V30 6144 H 566.828 -3.02941 2.84956 0
M  V30 6145 H 565.405 -3.56375 1.09777 0
M  V30 6146 N 567.59 -1.07411 -1.15328 0
M  V30 6147 C 568.838 -0.796073 -1.85761 0
M  V30 6148 C 569.159 0.679864 -1.82764 0
M  V30 6149 O 568.429 1.49242 -1.269 0
M  V30 6150 H 567.009 -0.291495 -0.687779 0
M  V30 6151 H 569.671 -1.35799 -1.39802 0
M  V30 6152 H 568.767 -1.13114 -2.90881 0
M  V30 6153 N 569.068 1.32177 -0.85831 0
M  V30 6154 C 570.484 1.49873 -0.548656 0
M  V30 6155 C 570.684 1.79278 0.919874 0
M  V30 6156 O 569.74 1.86451 1.70271 0
M  V30 6157 C 571.053 2.64043 -1.4388 0
M  V30 6158 C 572.601 2.77928 -1.43961 0
M  V30 6159 C 573.076 3.95182 -2.31506 0
M  V30 6160 N 574.567 4.0245 -2.29321 0
M  V30 6161 C 575.302 4.9242 -2.93786 0
M  V30 6162 N 574.798 5.87373 -3.67376 0
M  V30 6163 N 576.591 4.85572 -2.83155 0
M  V30 6164 H 568.742 1.11357 -1.80868 0
M  V30 6165 H 571.005 0.549175 -0.772729 0
M  V30 6166 H 570.711 2.49055 -2.48324 0
M  V30 6167 H 570.585 3.59912 -1.12885 0
M  V30 6168 H 572.972 2.92338 -0.402813 0
M  V30 6169 H 573.053 1.82762 -1.78974 0
M  V30 6170 H 572.697 3.81531 -3.35256 0
M  V30 6171 H 572.627 4.89633 -1.93823 0
M  V30 6172 H 575.118 3.34507 -1.75822 0
M  V30 6173 H 575.431 6.52728 -4.13722 0
M  V30 6174 H 573.776 5.87388 -3.71484 0
M  V30 6175 H 576.967 4.10363 -2.25211 0
M  V30 6176 H 577.14 5.55486 -3.33676 0
M  V30 6177 N 570.547 0.616602 1.45037 0
M  V30 6178 C 571.958 0.199359 1.85633 0
M  V30 6179 C 572.309 -1.24588 1.51566 0
M  V30 6180 O 571.434 -1.94594 0.94668 0
M  V30 6181 C 572.029 0.355033 3.36935 0
M  V30 6182 C 570.588 -0.00758748 3.76399 0
M  V30 6183 C 569.735 0.675256 2.68953 0
M  V30 6184 H 572.686 0.822708 1.3571 0
M  V30 6185 H 572.707 -0.410201 3.78282 0
M  V30 6186 H 572.219 1.40699 3.61698 0
M  V30 6187 H 570.32 -1.05837 3.57252 0
M  V30 6188 H 570.433 0.392346 4.77491 0
M  V30 6189 H 568.797 0.111992 2.54454 0
M  V30 6190 H 569.58 1.72952 2.96551 0
M  V30 6191 N 572.025 -1.5352 0.356285 0
M  V30 6192 C 572.955 -2.28372 -0.486661 0
M  V30 6193 C 573.936 -1.30432 -1.09185 0
M  V30 6194 O 575.121 -1.59291 -1.11085 0
M  V30 6195 C 572.251 -3.06604 -1.63129 0
M  V30 6196 C 571.205 -4.12154 -1.15381 0
M  V30 6197 C 570.531 -4.78415 -2.38796 0
M  V30 6198 C 571.831 -5.21724 -0.245179 0
M  V30 6199 H 573.525 -2.99083 0.137797 0
M  V30 6200 H 571.071 -1.43841 0.0677134 0
M  V30 6201 H 573.024 -3.57712 -2.22755 0
M  V30 6202 H 571.748 -2.33568 -2.28284 0
M  V30 6203 H 570.407 -3.61978 -0.580294 0
M  V30 6204 H 570.055 -4.01959 -3.02387 0
M  V30 6205 H 569.755 -5.49734 -2.07524 0
M  V30 6206 H 571.279 -5.32313 -2.99125 0
M  V30 6207 H 572.693 -5.68391 -0.748646 0
M  V30 6208 H 571.09 -6.00095 -0.0237608 0
M  V30 6209 H 572.16 -4.79596 0.715229 0
M  V30 6210 N 573.503 -0.0852151 -1.57369 0
M  V30 6211 C 574.75 0.580806 -1.93992 0
M  V30 6212 C 575.078 1.68801 -0.966252 0
M  V30 6213 O 574.333 1.95694 0.0158649 0
M  V30 6214 C 574.632 1.18482 -3.3719 0
M  V30 6215 C 574.298 0.2024 -4.50446 0
M  V30 6216 C 572.96 -0.0678318 -4.81152 0
M  V30 6217 C 575.312 -0.46895 -5.19086 0
M  V30 6218 C 572.64 -1.01627 -5.77831 0
M  V30 6219 C 574.992 -1.4058 -6.16782 0
M  V30 6220 C 573.656 -1.68436 -6.45899 0
M  V30 6221 H 572.926 0.212532 -0.709867 0
M  V30 6222 H 575.573 -0.158947 -1.90839 0
M  V30 6223 H 573.878 2.0006 -3.36873 0
M  V30 6224 H 575.575 1.70767 -3.62822 0
M  V30 6225 H 572.165 0.423208 -4.26505 0
M  V30 6226 H 576.349 -0.273307 -4.95547 0
M  V30 6227 H 571.605 -1.2392 -5.9871 0
M  V30 6228 H 575.779 -1.93188 -6.69068 0
M  V30 6229 H 573.406 -2.42088 -7.20623 0
M  V30 6230 N 574.981 1.5647 0.188427 0
M  V30 6231 C 576.392 1.70864 0.752494 0
M  V30 6232 C 576.743 0.692905 1.83557 0
M  V30 6233 O 575.868 -0.149307 2.15884 0
M  V30 6234 C 576.463 3.09789 1.37173 0
M  V30 6235 C 575.022 3.25925 1.88281 0
M  V30 6236 C 574.169 2.66817 0.755259 0
M  V30 6237 H 577.12 1.58657 -0.0367408 0
M  V30 6238 H 577.141 3.07489 2.24122 0
M  V30 6239 H 576.653 3.83693 0.583219 0
M  V30 6240 H 574.754 2.56948 2.6983 0
M  V30 6241 H 574.867 4.33498 2.04001 0
M  V30 6242 H 573.231 2.2617 1.17128 0
M  V30 6243 H 574.014 3.43294 -0.0211237 0
M  V30 6244 N 576.459 -0.456382 1.50847 0
M  V30 6245 C 577.707 -1.20497 1.62249 0
M  V30 6246 C 578.028 -1.92156 0.331839 0
M  V30 6247 O 577.298 -1.84751 -0.651443 0
M  V30 6248 H 575.878 -0.447775 0.597918 0
M  V30 6249 H 578.54 -0.525099 1.87693 0
M  V30 6250 H 577.636 -1.94492 2.44089 0
M  V30 6251 N 577.937 -1.40673 -0.710563 0
M  V30 6252 C 579.162 -1.42741 -1.50465 0
M  V30 6253 C 579.587 -0.0302116 -1.88076 0
M  V30 6254 O 578.945 0.962945 -1.53613 0
M  V30 6255 C 578.993 -2.32873 -2.75322 0
M  V30 6256 O 578.097 -1.77544 -3.72226 0
M  V30 6257 H 577.438 -0.485056 -0.45345 0
M  V30 6258 H 579.968 -1.84961 -0.874681 0
M  V30 6259 H 579.978 -2.48233 -3.23797 0
M  V30 6260 H 578.653 -3.34401 -2.47283 0
M  V30 6261 H 577.23 -1.71556 -3.31093 0
M  V30 6262 N 579.415 0.9433 -1.26252 0
M  V30 6263 C 580.643 1.72367 -1.14443 0
M  V30 6264 C 581.058 1.86392 0.300572 0
M  V30 6265 O 580.415 1.36978 1.20596 0
M  V30 6266 C 580.466 3.13155 -1.806 0
M  V30 6267 O 580.187 2.99803 -3.19452 0
M  V30 6268 C 581.688 4.07417 -1.74717 0
M  V30 6269 H 578.908 0.539758 -0.398626 0
M  V30 6270 H 581.452 1.18268 -1.66832 0
M  V30 6271 H 579.607 3.64162 -1.32154 0
M  V30 6272 H 580.021 3.88697 -3.52158 0
M  V30 6273 H 581.495 5.03773 -2.25647 0
M  V30 6274 H 581.972 4.3337 -0.713244 0
M  V30 6275 H 582.578 3.6233 -2.22704 0
M  V30 6276 N 580.893 1.08022 1.14757 0
M  V30 6277 C 582.139 0.808705 1.85978 0
M  V30 6278 C 582.472 -0.663764 1.82504 0
M  V30 6279 O 581.747 -1.48765 1.25296 0
M  V30 6280 C 582.03 1.32623 3.34788 0
M  V30 6281 C 581.883 2.86375 3.46856 0
M  V30 6282 C 583.202 0.948291 4.29762 0
M  V30 6283 H 580.321 0.295244 0.675278 0
M  V30 6284 H 582.963 1.33917 1.34783 0
M  V30 6285 H 581.113 0.875002 3.78518 0
M  V30 6286 H 582.785 3.39839 3.11941 0
M  V30 6287 H 581.028 3.24232 2.88194 0
M  V30 6288 H 581.699 3.17658 4.51439 0
M  V30 6289 H 584.175 1.33722 3.94028 0
M  V30 6290 H 583.051 1.33765 5.32352 0
M  V30 6291 H 583.312 -0.145094 4.41862 0
M  V30 6292 N 582.371 -1.3172 0.865308 0
M  V30 6293 C 583.281 -2.32394 0.320935 0
M  V30 6294 C 584.297 -1.64511 -0.566746 0
M  V30 6295 O 585.473 -1.95969 -0.464575 0
M  V30 6296 C 582.538 -3.43462 -0.472701 0
M  V30 6297 C 581.599 -4.27015 0.442385 0
M  V30 6298 C 580.832 -5.32779 -0.313469 0
M  V30 6299 O 581.055 -5.49158 -1.54214 0
M  V30 6300 O 579.989 -6.01015 0.326257 0
M  V30 6301 H 583.815 -2.80868 1.15528 0
M  V30 6302 H 581.4 -1.35535 0.628545 0
M  V30 6303 H 583.282 -4.11172 -0.922781 0
M  V30 6304 H 581.957 -2.97159 -1.28367 0
M  V30 6305 H 580.864 -3.62075 0.940866 0
M  V30 6306 H 582.197 -4.76871 1.21882 0
M  V30 6307 N 583.85 -0.624285 -1.44708 0
M  V30 6308 C 585.127 -0.0572781 -1.95516 0
M  V30 6309 C 585.507 1.41516 -1.56641 0
M  V30 6310 O 584.855 2.12614 -0.837111 0
M  V30 6311 C 585.065 -0.272944 -3.47931 0
M  V30 6312 C 586.413 -0.162529 -4.24289 0
M  V30 6313 O 587.437 -0.203946 -3.55616 0
M  V30 6314 O 586.296 -0.0616847 -5.46465 0
M  V30 6315 H 583.389 0.0262219 -0.826584 0
M  V30 6316 H 585.936 -0.695512 -1.54793 0
M  V30 6317 H 584.707 -1.29492 -3.69253 0
M  V30 6318 H 584.331 0.399756 -3.95585 0
M  V30 6319 N 585.328 1.53329 -0.364422 0
M  V30 6320 C 586.238 2.29414 0.490552 0
M  V30 6321 C 587.254 1.35335 1.09363 0
M  V30 6322 O 588.43 1.68391 1.10483 0
M  V30 6323 C 585.495 3.06772 1.61529 0
M  V30 6324 C 584.556 4.16516 1.03986 0
M  V30 6325 C 583.789 4.90176 2.111 0
M  V30 6326 O 584.012 4.63687 3.32191 0
M  V30 6327 O 582.946 5.76134 1.74222 0
M  V30 6328 H 586.772 3.03428 -0.12856 0
M  V30 6329 H 584.357 1.48843 -0.128837 0
M  V30 6330 H 586.239 3.55082 2.26924 0
M  V30 6331 H 584.914 2.35596 2.21983 0
M  V30 6332 H 583.821 3.7246 0.349856 0
M  V30 6333 H 585.154 4.89855 0.4799 0
M  V30 6334 N 586.806 0.0935595 1.57322 0
M  V30 6335 C 587.736 -0.863062 2.16964 0
M  V30 6336 C 588.717 -1.29528 1.10256 0
M  V30 6337 O 589.902 -1.36245 1.38387 0
M  V30 6338 C 587.032 -2.12276 2.74875 0
M  V30 6339 C 585.986 -1.82921 3.86942 0
M  V30 6340 C 585.312 -3.15707 4.31548 0
M  V30 6341 C 586.612 -1.11737 5.10208 0
M  V30 6342 H 588.306 -0.366145 2.97153 0
M  V30 6343 H 585.852 -0.174673 1.42937 0
M  V30 6344 H 587.805 -2.79634 3.1525 0
M  V30 6345 H 586.529 -2.64248 1.91938 0
M  V30 6346 H 585.188 -1.17961 3.47103 0
M  V30 6347 H 584.836 -3.65563 3.45504 0
M  V30 6348 H 584.536 -2.96849 5.07104 0
M  V30 6349 H 586.06 -3.84226 4.74555 0
M  V30 6350 H 587.474 -1.69203 5.47762 0
M  V30 6351 H 585.871 -1.03064 5.91183 0
M  V30 6352 H 586.941 -0.0998818 4.84797 0
M  V30 6353 N 588.284 -1.56567 -0.180126 0
M  V30 6354 C 589.234 -1.92132 -1.22756 0
M  V30 6355 C 590.218 -0.788639 -1.40247 0
M  V30 6356 O 591.41 -1.05171 -1.42366 0
M  V30 6357 C 588.539 -2.27719 -2.56902 0
M  V30 6358 C 587.625 -3.47481 -2.43142 0
M  V30 6359 N 588.016 -4.64973 -1.99082 0
M  V30 6360 C 586.314 -3.51914 -2.73994 0
M  V30 6361 C 587.015 -5.47119 -1.97574 0
M  V30 6362 N 585.991 -4.87925 -2.39645 0
M  V30 6363 H 589.793 -2.80464 -0.878478 0
M  V30 6364 H 587.307 -1.57686 -0.388463 0
M  V30 6365 H 589.304 -2.51389 -3.32579 0
M  V30 6366 H 587.964 -1.40722 -2.92621 0
M  V30 6367 H 588.975 -4.89358 -1.69557 0
M  V30 6368 H 585.652 -2.75372 -3.13809 0
M  V30 6369 H 587.042 -6.51254 -1.65282 0
M  V30 6370 N 589.762 0.448376 -1.51087 0
M  V30 6371 C 590.692 1.55102 -1.74544 0
M  V30 6372 C 591.673 1.59357 -0.594932 0
M  V30 6373 O 592.858 1.75261 -0.836491 0
M  V30 6374 C 589.988 2.93268 -1.86041 0
M  V30 6375 C 588.942 3.03877 -3.01402 0
M  V30 6376 C 588.268 4.43914 -2.98068 0
M  V30 6377 C 589.568 2.7898 -4.41551 0
M  V30 6378 H 591.262 1.35724 -2.66869 0
M  V30 6379 H 588.808 0.651498 -1.28419 0
M  V30 6380 H 590.761 3.70356 -2.01034 0
M  V30 6381 H 589.485 3.13853 -0.903548 0
M  V30 6382 H 588.144 2.29227 -2.86096 0
M  V30 6383 H 587.792 4.6145 -2.00182 0
M  V30 6384 H 587.492 4.51944 -3.75527 0
M  V30 6385 H 589.016 5.22991 -3.1514 0
M  V30 6386 H 590.43 3.45805 -4.57265 0
M  V30 6387 H 588.827 2.98431 -5.20633 0
M  V30 6388 H 589.897 1.74663 -4.5235 0
M  V30 6389 N 591.24 1.41047 0.703093 0
M  V30 6390 C 592.489 1.39301 1.4587 0
M  V30 6391 C 592.802 0.00267077 1.956 0
M  V30 6392 O 594.008 -0.137414 2.71152 0
M  V30 6393 C 592.464 2.44891 2.63735 0
M  V30 6394 C 592.072 3.89796 2.20824 0
M  V30 6395 C 593.816 2.5227 3.41409 0
M  V30 6396 C 591.723 4.86955 3.35602 0
M  V30 6397 H 590.653 0.518005 0.547893 0
M  V30 6398 H 593.304 1.66839 0.764009 0
M  V30 6399 H 591.686 2.10472 3.35436 0
M  V30 6400 H 592.86 4.33424 1.56461 0
M  V30 6401 H 591.175 3.86008 1.56163 0
M  V30 6402 H 593.772 3.22044 4.26839 0
M  V30 6403 H 594.115 1.55714 3.86081 0
M  V30 6404 H 594.648 2.85742 2.7676 0
M  V30 6405 H 591.387 5.84888 2.9595 0
M  V30 6406 H 590.907 4.47982 3.98839 0
M  V30 6407 H 592.586 5.07361 4.01489 0
M  V30 6408 N 592.718 -0.936591 1.26751 0
M  V30 6409 C 593.965 -1.68331 1.12566 0
M  V30 6410 C 594.293 -1.91677 -0.330168 0
M  V30 6411 O 593.548 -1.49859 -1.2586 0
M  V30 6412 C 593.847 -3.06099 1.84494 0
M  V30 6413 C 593.513 -3.02493 3.34378 0
M  V30 6414 C 592.175 -3.01217 3.75262 0
M  V30 6415 C 594.527 -2.94453 4.30055 0
M  V30 6416 C 591.855 -2.89672 5.10203 0
M  V30 6417 C 594.207 -2.84449 5.65041 0
M  V30 6418 C 592.871 -2.81518 6.0523 0
M  V30 6419 H 592.141 -0.615965 0.411907 0
M  V30 6420 H 594.788 -1.09292 1.5725 0
M  V30 6421 H 593.093 -3.6879 1.32292 0
M  V30 6422 H 594.79 -3.62733 1.70955 0
M  V30 6423 H 591.38 -3.04269 3.01858 0
M  V30 6424 H 595.564 -2.94544 3.99447 0
M  V30 6425 H 590.82 -2.85783 5.40498 0
M  V30 6426 H 594.994 -2.77192 6.38856 0
M  V30 6427 H 592.621 -2.72329 7.09747 0
M  V30 6428 N 594.196 -1.08629 -1.14182 0
M  V30 6429 C 595.612 -0.814363 -1.3726 0
M  V30 6430 C 595.812 0.575271 -1.93114 0
M  V30 6431 O 594.868 1.33165 -2.1453 0
M  V30 6432 C 596.181 -1.8989 -2.33157 0
M  V30 6433 C 597.729 -1.92518 -2.46791 0
M  V30 6434 C 598.204 -3.00092 -3.45989 0
M  V30 6435 N 599.695 -2.99279 -3.53534 0
M  V30 6436 C 600.43 -3.79158 -4.30147 0
M  V30 6437 N 599.926 -4.68923 -5.09983 0
M  V30 6438 N 601.719 -3.67451 -4.25366 0
M  V30 6439 H 593.87 -1.98232 -0.762758 0
M  V30 6440 H 596.133 -0.860383 -0.398051 0
M  V30 6441 H 595.839 -2.89809 -1.99257 0
M  V30 6442 H 595.713 -1.77013 -3.33086 0
M  V30 6443 H 598.1 -0.932425 -2.79982 0
M  V30 6444 H 598.181 -2.09473 -1.46816 0
M  V30 6445 H 597.825 -3.99575 -3.13532 0
M  V30 6446 H 597.755 -2.80382 -4.45751 0
M  V30 6447 H 600.246 -2.3422 -2.96563 0
M  V30 6448 H 600.559 -5.26475 -5.65724 0
M  V30 6449 H 598.904 -4.72964 -5.09244 0
M  V30 6450 H 602.095 -2.9669 -3.62067 0
M  V30 6451 H 602.268 -4.29944 -4.84822 0
M  V30 6452 N 595.674 1.31259 -0.872281 0
M  V30 6453 C 596.604 2.30929 -0.345554 0
M  V30 6454 C 597.585 1.60449 0.5648 0
M  V30 6455 O 598.77 1.8814 0.481335 0
M  V30 6456 C 595.9 3.44348 0.451823 0
M  V30 6457 C 594.854 4.26435 -0.365641 0
M  V30 6458 C 594.18 5.31785 0.557562 0
M  V30 6459 C 595.48 4.97159 -1.60095 0
M  V30 6460 H 597.174 2.75234 -1.17841 0
M  V30 6461 H 594.72 1.3232 -0.568094 0
M  V30 6462 H 596.673 4.13128 0.830854 0
M  V30 6463 H 595.397 2.98816 1.31821 0
M  V30 6464 H 594.056 3.59326 -0.726649 0
M  V30 6465 H 593.704 4.82502 1.4213 0
M  V30 6466 H 593.404 5.87598 0.0144878 0
M  V30 6467 H 594.928 6.03424 0.933387 0
M  V30 6468 H 596.342 5.58523 -1.29323 0
M  V30 6469 H 594.739 5.62779 -2.08327 0
M  V30 6470 H 595.809 4.24012 -2.35249 0
M  V30 6471 N 597.152 0.631951 1.44375 0
M  V30 6472 C 598.082 -0.0593243 2.33425 0
M  V30 6473 C 599.063 -0.833964 1.48253 0
M  V30 6474 O 600.248 -0.799682 1.76971 0
M  V30 6475 C 597.378 -1.04096 3.31333 0
M  V30 6476 C 596.332 -0.377899 4.26328 0
M  V30 6477 C 595.658 -1.4695 5.14111 0
M  V30 6478 C 596.958 0.716371 5.17364 0
M  V30 6479 H 598.652 0.684287 2.91475 0
M  V30 6480 H 596.198 0.330518 1.40156 0
M  V30 6481 H 598.151 -1.53331 3.92514 0
M  V30 6482 H 596.875 -1.81547 2.71493 0
M  V30 6483 H 595.534 0.0938054 3.6648 0
M  V30 6484 H 595.182 -2.2349 4.50623 0
M  V30 6485 H 594.882 -1.03121 5.78481 0
M  V30 6486 H 596.406 -1.96363 5.78164 0
M  V30 6487 H 597.82 0.307089 5.72477 0
M  V30 6488 H 596.217 1.07784 5.90341 0
M  V30 6489 H 597.287 1.58316 4.58327 0
M  V30 6490 N 598.631 -1.53133 0.372548 0
M  V30 6491 C 599.879 -2.00958 -0.214534 0
M  V30 6492 C 600.2 -1.26135 -1.48711 0
M  V30 6493 O 599.47 -0.376597 -1.92246 0
M  V30 6494 H 598.05 -0.742456 -0.0822664 0
M  V30 6495 H 600.712 -1.88367 0.500385 0
M  V30 6496 H 599.808 -3.09031 -0.436605 0
M  V30 6497 N 600.109 -0.101901 -1.5727 0
M  V30 6498 C 601.337 0.568392 -1.98939 0
M  V30 6499 C 601.752 1.61301 -0.981194 0
M  V30 6500 O 601.109 1.82478 0.0282869 0
M  V30 6501 C 601.16 1.20997 -3.40649 0
M  V30 6502 O 600.881 0.207129 -4.3761 0
M  V30 6503 C 602.382 1.96523 -3.97358 0
M  V30 6504 H 599.602 0.15186 -0.65359 0
M  V30 6505 H 602.146 -0.183198 -2.03678 0
M  V30 6506 H 600.301 1.91245 -3.36904 0
M  V30 6507 H 600.715 0.671071 -5.20189 0
M  V30 6508 H 602.189 2.36764 -4.98645 0
M  V30 6509 H 602.666 2.83376 -3.35552 0
M  V30 6510 H 603.272 1.31076 -4.04598 0
M  V30 6511 N 601.587 1.56661 0.17182 0
M  V30 6512 C 602.998 1.71652 0.734329 0
M  V30 6513 C 603.349 0.712335 1.82812 0
M  V30 6514 O 602.474 -0.126401 2.16031 0
M  V30 6515 C 603.069 3.11226 1.3388 0
M  V30 6516 C 601.628 3.27904 1.84813 0
M  V30 6517 C 600.775 2.67603 0.726917 0
M  V30 6518 H 603.726 1.5861 -0.0535665 0
M  V30 6519 H 603.747 3.09849 2.20849 0
M  V30 6520 H 603.259 3.8429 0.54249 0
M  V30 6521 H 601.36 2.59796 2.6709 0
M  V30 6522 H 601.473 4.35637 1.99392 0
M  V30 6523 H 599.837 2.274 1.14723 0
M  V30 6524 H 600.62 3.43252 -0.0575334 0
M  V30 6525 N 603.065 -0.440357 1.51323 0
M  V30 6526 C 604.29 -1.21716 1.67928 0
M  V30 6527 C 604.715 -1.84328 0.374826 0
M  V30 6528 O 604.073 -1.68675 -0.664706 0
M  V30 6529 C 604.121 -2.27914 2.79442 0
M  V30 6530 O 603.225 -3.33325 2.42834 0
M  V30 6531 H 602.566 -0.35674 0.560029 0
M  V30 6532 H 605.096 -0.520417 1.97871 0
M  V30 6533 H 605.106 -2.72746 3.03436 0
M  V30 6534 H 603.781 -1.8172 3.741 0
M  V30 6535 H 602.358 -2.9399 2.294 0
M  V30 6536 N 604.543 -1.41418 -0.695603 0
M  V30 6537 C 605.475 -1.39195 -1.82092 0
M  V30 6538 C 606.488 -0.294132 -1.60121 0
M  V30 6539 O 607.677 -0.555854 -1.69625 0
M  V30 6540 C 604.777 -1.14828 -3.18854 0
M  V30 6541 C 603.95 -2.36649 -3.67853 0
M  V30 6542 C 603.009 -2.08139 -4.83285 0
M  V30 6543 O 602.035 -2.81177 -4.94902 0
M  V30 6544 N 603.237 -1.07162 -5.70523 0
M  V30 6545 H 606.002 -2.36185 -1.84491 0
M  V30 6546 H 603.563 -1.3603 -0.877923 0
M  V30 6547 H 605.555 -0.937075 -3.93702 0
M  V30 6548 H 604.125 -0.264358 -3.1148 0
M  V30 6549 H 603.345 -2.73472 -2.83913 0
M  V30 6550 H 604.633 -3.17816 -3.97329 0
M  V30 6551 H 604.031 -0.467124 -5.63768 0
M  V30 6552 H 602.588 -0.920311 -6.4527 0
M  V30 6553 N 606.021 0.929856 -1.27246 0
M  V30 6554 C 606.931 2.0636 -1.11592 0
M  V30 6555 C 607.947 1.73938 -0.046496 0
M  V30 6556 O 609.123 1.9981 -0.252544 0
M  V30 6557 C 606.188 3.38213 -0.762437 0
M  V30 6558 C 605.249 3.84346 -1.9125 0
M  V30 6559 C 604.482 5.09906 -1.57579 0
M  V30 6560 O 604.705 5.68354 -0.482694 0
M  V30 6561 O 603.639 5.51359 -2.41426 0
M  V30 6562 H 607.465 2.22478 -2.0673 0
M  V30 6563 H 605.05 1.04865 -1.06413 0
M  V30 6564 H 606.932 4.1741 -0.57854 0
M  V30 6565 H 605.607 3.23307 0.159439 0
M  V30 6566 H 604.514 3.06045 -2.15144 0
M  V30 6567 H 605.847 4.0379 -2.81451 0
M  V30 6568 N 607.499 1.09233 1.13605 0
M  V30 6569 C 608.727 0.848908 1.88683 0
M  V30 6570 C 609.142 -0.599667 1.79024 0
M  V30 6571 O 608.499 -1.41265 1.15544 0
M  V30 6572 C 608.55 1.27273 3.38355 0
M  V30 6573 O 608.271 2.66449 3.47759 0
M  V30 6574 C 609.772 1.0614 4.30406 0
M  V30 6575 H 606.992 0.305549 0.597395 0
M  V30 6576 H 609.536 1.4538 1.43823 0
M  V30 6577 H 607.691 0.711776 3.80805 0
M  V30 6578 H 608.105 2.84264 4.40788 0
M  V30 6579 H 609.579 1.40725 5.33761 0
M  V30 6580 H 610.056 -0.000960332 4.392 0
M  V30 6581 H 610.662 1.60821 3.93722 0
M  V30 6582 N 608.977 -1.30795 0.87923 0
M  V30 6583 C 610.223 -1.97035 0.50487 0
M  V30 6584 C 610.578 -1.68182 -0.934484 0
M  V30 6585 O 609.871 -0.972953 -1.65058 0
M  V30 6586 C 610.065 -3.50287 0.709476 0
M  V30 6587 C 609.894 -3.94035 2.16717 0
M  V30 6588 C 608.664 -4.1992 2.81061 0
M  V30 6589 C 610.862 -4.07288 3.1404 0
M  V30 6590 N 608.844 -4.50088 4.17486 0
M  V30 6591 C 610.215 -4.41273 4.35521 0
M  V30 6592 C 612.27 -3.89696 3.09906 0
M  V30 6593 C 610.973 -4.59501 5.534 0
M  V30 6594 C 612.999 -4.09122 4.27052 0
M  V30 6595 C 612.361 -4.43447 5.47297 0
M  V30 6596 H 608.46 -0.746181 0.233962 0
M  V30 6597 H 611.044 -1.5814 1.13577 0
M  V30 6598 H 609.215 -3.8825 0.108108 0
M  V30 6599 H 610.947 -4.03567 0.302585 0
M  V30 6600 H 607.702 -4.12906 2.3196 0
M  V30 6601 H 608.126 -4.69316 4.87926 0
M  V30 6602 H 612.768 -3.62239 2.18043 0
M  V30 6603 H 610.486 -4.85802 6.45773 0
M  V30 6604 H 614.072 -3.96985 4.25316 0
M  V30 6605 H 612.952 -4.58171 6.36435 0
M  V30 6606 N 610.455 -0.639598 -1.44038 0
M  V30 6607 C 611.866 -0.228866 -1.85292 0
M  V30 6608 C 612.217 1.22161 -1.53529 0
M  V30 6609 O 611.342 1.93064 -0.977518 0
M  V30 6610 C 611.937 -0.408592 -3.36327 0
M  V30 6611 C 610.496 -0.0522953 -3.76364 0
M  V30 6612 C 609.643 -0.717959 -2.67844 0
M  V30 6613 H 612.594 -0.844194 -1.34384 0
M  V30 6614 H 612.615 0.349968 -3.78887 0
M  V30 6615 H 612.127 -1.46435 -3.59414 0
M  V30 6616 H 610.228 1.0014 -3.58891 0
M  V30 6617 H 610.341 -0.468261 -4.76806 0
M  V30 6618 H 608.705 -0.152459 -2.54243 0
M  V30 6619 H 609.488 -1.77648 -2.93762 0
M  V30 6620 N 611.933 1.52934 -0.380664 0
M  V30 6621 C 613.181 2.01069 0.203874 0
M  V30 6622 C 613.502 1.26922 1.4804 0
M  V30 6623 O 612.772 0.386787 1.92044 0
M  V30 6624 H 611.352 0.742882 0.0783279 0
M  V30 6625 H 614.014 1.88099 -0.510368 0
M  V30 6626 H 613.11 3.09258 0.42021 0
M  V30 6627 N 613.412 0.11024 1.57214 0
M  V30 6628 C 614.661 -0.549638 1.94067 0
M  V30 6629 C 614.974 -1.68388 0.995234 0
M  V30 6630 O 616.18 -2.40593 1.25807 0
M  V30 6631 C 614.636 -1.02912 3.44873 0
M  V30 6632 C 614.244 0.0761861 4.47935 0
M  V30 6633 C 615.988 -1.66087 3.9066 0
M  V30 6634 C 613.895 -0.419502 5.8991 0
M  V30 6635 H 612.825 -0.209092 0.724428 0
M  V30 6636 H 615.476 0.188683 1.82527 0
M  V30 6637 H 613.858 -1.82159 3.51616 0
M  V30 6638 H 615.032 0.852185 4.52851 0
M  V30 6639 H 613.347 0.614052 4.11847 0
M  V30 6640 H 615.944 -2.04272 4.94143 0
M  V30 6641 H 616.287 -2.53591 3.30148 0
M  V30 6642 H 616.82 -0.933959 3.86681 0
M  V30 6643 H 613.559 0.419277 6.54158 0
M  V30 6644 H 613.079 -1.16217 5.88433 0
M  V30 6645 H 614.758 -0.883577 6.40938 0
M  V30 6646 N 614.89 -1.56749 -0.16351 0
M  V30 6647 C 616.115 -1.86938 -0.898264 0
M  V30 6648 C 616.54 -0.697456 -1.74692 0
M  V30 6649 O 615.898 0.353327 -1.77824 0
M  V30 6650 C 615.946 -3.15599 -1.74441 0
M  V30 6651 O 615.05 -2.98371 -2.8469 0
M  V30 6652 H 614.391 -0.614659 -0.251178 0
M  V30 6653 H 616.921 -2.03979 -0.159298 0
M  V30 6654 H 616.931 -3.47202 -2.14277 0
M  V30 6655 H 615.606 -4.00505 -1.1211 0
M  V30 6656 H 614.183 -2.7814 -2.4838 0
M  V30 6657 N 616.368 0.432326 -1.51554 0
M  V30 6658 C 617.593 1.20824 -1.68571 0
M  V30 6659 C 618.018 1.84126 -0.384596 0
M  V30 6660 O 617.376 1.69025 0.655751 0
M  V30 6661 C 617.424 2.26429 -2.80646 0
M  V30 6662 O 616.528 3.32032 -2.44598 0
M  V30 6663 H 615.869 0.353765 -0.561913 0
M  V30 6664 H 618.399 0.509916 -1.98144 0
M  V30 6665 H 618.409 2.71133 -3.04878 0
M  V30 6666 H 617.084 1.79733 -3.75058 0
M  V30 6667 H 615.661 2.92769 -2.30956 0
M  V30 6668 N 617.846 1.41785 0.688094 0
M  V30 6669 C 618.794 1.44436 1.82321 0
M  V30 6670 C 619.788 0.321544 1.6632 0
M  V30 6671 O 620.994 0.493931 1.73091 0
M  V30 6672 H 617.369 0.452084 0.600936 0
M  V30 6673 H 619.34 2.40087 1.77202 0
M  V30 6674 C 618.089 1.35071 3.20392 0
M  V30 6675 H 617.412 2.2076 3.33324 0
M  V30 6676 H 618.852 1.40988 3.99873 0
M  V30 6677 C 617.311 0.0639127 3.36839 0
M  V30 6678 O 617.841 -0.888495 3.91751 0
M  V30 6679 N 616.047 -0.0146114 2.90596 0
M  V30 6680 H 615.594 0.761191 2.46097 0
M  V30 6681 H 615.552 -0.874988 3.01979 0
M  V30 6682 N 619.324 -0.923095 1.27737 0
M  V30 6683 C 620.234 -2.05765 1.12685 0
M  V30 6684 C 621.25 -1.73911 0.0557197 0
M  V30 6685 O 622.426 -1.99674 0.263137 0
M  V30 6686 C 619.491 -3.37804 0.780363 0
M  V30 6687 C 618.552 -3.83326 1.93286 0
M  V30 6688 C 617.785 -5.09064 1.60281 0
M  V30 6689 O 618.008 -5.6809 0.512828 0
M  V30 6690 O 616.942 -5.50071 2.44347 0
M  V30 6691 H 620.768 -2.21378 2.07907 0
M  V30 6692 H 618.353 -1.04299 1.06968 0
M  V30 6693 H 620.235 -4.17097 0.600668 0
M  V30 6694 H 618.91 -3.23387 -0.142291 0
M  V30 6695 H 617.817 -3.049 2.16764 0
M  V30 6696 H 619.15 -4.02292 2.83588 0
M  V30 6697 N 620.802 -1.09834 -1.13024 0
M  V30 6698 C 621.712 -0.753731 -2.22162 0
M  V30 6699 C 622.728 0.246105 -1.72251 0
M  V30 6700 O 623.904 0.0864051 -2.01215 0
M  V30 6701 C 620.969 -0.183958 -3.46212 0
M  V30 6702 C 620.03 -1.24028 -4.10993 0
M  V30 6703 C 619.263 -0.697597 -5.29121 0
M  V30 6704 O 619.486 0.478092 -5.68393 0
M  V30 6705 O 618.42 -1.4546 -5.84059 0
M  V30 6706 H 622.246 -1.66456 -2.5402 0
M  V30 6707 H 619.831 -0.873026 -1.21238 0
M  V30 6708 H 621.713 0.130257 -4.21199 0
M  V30 6709 H 620.388 0.699823 -3.16045 0
M  V30 6710 H 619.295 -1.60725 -3.37814 0
M  V30 6711 H 620.628 -2.09685 -4.45301 0
M  V30 6712 N 622.28 1.30327 -0.886154 0
M  V30 6713 C 623.527 1.96097 -0.505192 0
M  V30 6714 C 623.855 1.69952 0.945868 0
M  V30 6715 O 623.11 0.997653 1.68361 0
M  V30 6716 C 623.409 3.49906 -0.728042 0
M  V30 6717 C 623.075 3.96103 -2.15437 0
M  V30 6718 C 621.737 4.08428 -2.5444 0
M  V30 6719 C 624.089 4.20177 -3.08384 0
M  V30 6720 C 621.417 4.42189 -3.85598 0
M  V30 6721 C 623.769 4.55407 -4.39075 0
M  V30 6722 C 622.433 4.65941 -4.7797 0
M  V30 6723 H 621.703 0.71757 -0.184863 0
M  V30 6724 H 624.35 1.55171 -1.12223 0
M  V30 6725 H 622.655 3.9179 -0.027978 0
M  V30 6726 H 624.352 3.98869 -0.412862 0
M  V30 6727 H 620.942 3.87017 -1.84162 0
M  V30 6728 H 625.126 4.10134 -2.7947 0
M  V30 6729 H 620.382 4.48544 -4.15473 0
M  V30 6730 H 624.556 4.72986 -5.11133 0
M  V30 6731 H 622.183 4.91856 -5.79639 0
M  V30 6732 N 623.758 0.647228 1.43697 0
M  V30 6733 C 624.705 -0.0480092 2.3075 0
M  V30 6734 C 625.675 -0.820705 1.44408 0
M  V30 6735 O 626.86 -0.798515 1.73287 0
M  V30 6736 C 624 -1.01259 3.2991 0
M  V30 6737 C 623.113 -0.236629 4.31351 0
M  V30 6738 C 622.248 -1.19447 5.17596 0
M  V30 6739 C 621.287 -0.408595 6.10735 0
M  V30 6740 N 620.424 -1.31772 6.89623 0
M  V30 6741 H 625.264 0.700238 2.89656 0
M  V30 6742 H 622.801 0.357082 1.427 0
M  V30 6743 H 624.759 -1.58538 3.85903 0
M  V30 6744 H 623.389 -1.72778 2.72667 0
M  V30 6745 H 622.441 0.452353 3.77701 0
M  V30 6746 H 623.753 0.374731 4.9739 0
M  V30 6747 H 622.907 -1.83809 5.78186 0
M  V30 6748 H 621.646 -1.83975 4.51669 0
M  V30 6749 H 620.651 0.24841 5.49239 0
M  V30 6750 H 621.876 0.232188 6.78703 0
M  V30 6751 H 619.822 -1.94991 6.2635 0
M  V30 6752 H 619.739 -0.760779 7.52162 0
M  V30 6753 H 621.007 -1.94967 7.54724 0
M  V30 6754 N 625.236 -1.5273 0.388769 0
M  V30 6755 C 626.184 -2.27975 -0.461527 0
M  V30 6756 C 627.178 -1.31854 -1.06352 0
M  V30 6757 O 628.384 -1.49394 -1.00406 0
M  V30 6758 H 624.759 -0.733088 -0.16759 0
M  V30 6759 H 626.73 -2.97765 0.194579 0
M  V30 6760 C 625.479 -3.09881 -1.577 0
M  V30 6761 H 624.802 -3.83701 -1.12309 0
M  V30 6762 H 626.242 -3.6567 -2.14619 0
M  V30 6763 C 624.701 -2.22159 -2.53272 0
M  V30 6764 O 625.231 -1.84802 -3.56667 0
M  V30 6765 N 623.437 -1.8633 -2.23001 0
M  V30 6766 H 622.984 -2.16909 -1.38954 0
M  V30 6767 H 622.942 -1.27927 -2.87197 0
M  V30 6768 N 626.714 -0.118576 -1.57153 0
M  V30 6769 C 627.944 0.546466 -1.99242 0
M  V30 6770 C 628.352 1.60791 -0.997148 0
M  V30 6771 O 627.695 1.83691 0.0181745 0
M  V30 6772 C 627.757 1.23167 -3.37743 0
M  V30 6773 C 627.421 0.318226 -4.55891 0
M  V30 6774 C 628.418 -0.442988 -5.18009 0
M  V30 6775 C 626.103 0.229421 -5.01776 0
M  V30 6776 C 628.097 -1.28074 -6.244 0
M  V30 6777 C 625.784 -0.611966 -6.08028 0
M  V30 6778 C 626.782 -1.36568 -6.69207 0
M  V30 6779 O 626.47 -2.1931 -7.73407 0
M  V30 6780 H 626.202 0.149297 -0.659307 0
M  V30 6781 H 628.756 -0.201603 -2.04408 0
M  V30 6782 H 626.986 2.0268 -3.29329 0
M  V30 6783 H 628.675 1.79358 -3.64123 0
M  V30 6784 H 629.441 -0.38425 -4.83475 0
M  V30 6785 H 625.32 0.805771 -4.53903 0
M  V30 6786 H 628.864 -1.86952 -6.72082 0
M  V30 6787 H 624.761 -0.6721 -6.41991 0
M  V30 6788 H 625.529 -2.12247 -7.90502 0
M  V30 6789 N 628.193 1.56834 0.155195 0
M  V30 6790 C 629.141 1.98584 1.21107 0
M  V30 6791 C 630.135 0.876987 1.44932 0
M  V30 6792 O 631.341 1.06215 1.45322 0
M  V30 6793 H 627.716 0.632039 0.407469 0
M  V30 6794 H 629.687 2.86561 0.832195 0
M  V30 6795 C 628.436 2.37555 2.53895 0
M  V30 6796 H 627.759 3.22428 2.3639 0
M  V30 6797 H 629.199 2.70598 3.26424 0
M  V30 6798 C 627.658 1.22507 3.13837 0
M  V30 6799 O 628.188 0.521388 3.98302 0
M  V30 6800 N 626.394 0.991444 2.73164 0
M  V30 6801 H 625.941 1.56544 2.04577 0
M  V30 6802 H 625.899 0.223546 3.13604 0
M  V30 6803 N 629.671 -0.424282 1.51781 0
M  V30 6804 C 630.918 -1.1726 1.65095 0
M  V30 6805 C 631.246 -1.90881 0.373477 0
M  V30 6806 O 630.501 -1.84835 -0.642997 0
M  V30 6807 C 630.8 -2.20418 2.81337 0
M  V30 6808 C 630.466 -1.63715 4.20129 0
M  V30 6809 C 629.128 -1.47975 4.57883 0
M  V30 6810 C 631.48 -1.22157 5.06682 0
M  V30 6811 C 628.808 -0.891703 5.79884 0
M  V30 6812 C 631.16 -0.647767 6.29275 0
M  V30 6813 C 629.824 -0.477371 6.65791 0
M  V30 6814 H 629.094 -0.429085 0.604125 0
M  V30 6815 H 631.741 -0.461852 1.85847 0
M  V30 6816 H 630.046 -2.97581 2.54859 0
M  V30 6817 H 631.743 -2.78163 2.88836 0
M  V30 6818 H 628.333 -1.76946 3.90369 0
M  V30 6819 H 632.517 -1.33133 4.7811 0
M  V30 6820 H 627.773 -0.747563 6.06813 0
M  V30 6821 H 631.947 -0.317291 6.95677 0
M  V30 6822 H 629.574 -0.0195936 7.60197 0
M  V30 6823 N 631.149 -1.42148 -0.680565 0
M  V30 6824 C 632.56 -1.3768 -1.26099 0
M  V30 6825 C 632.911 -0.0672348 -1.96085 0
M  V30 6826 O 632.036 0.834172 -1.99676 0
M  V30 6827 C 632.631 -2.49387 -2.29328 0
M  V30 6828 C 631.19 -2.4827 -2.82911 0
M  V30 6829 C 630.337 -2.2847 -1.57152 0
M  V30 6830 H 633.288 -1.51446 -0.474326 0
M  V30 6831 H 633.309 -2.19307 -3.10941 0
M  V30 6832 H 632.821 -3.44686 -1.78363 0
M  V30 6833 H 630.922 -1.56773 -3.38013 0
M  V30 6834 H 631.035 -3.45109 -3.3232 0
M  V30 6835 H 629.399 -1.76623 -1.83511 0
M  V30 6836 H 630.182 -3.25816 -1.0816 0
M  V30 6837 N 632.627 0.916307 -1.28225 0
M  V30 6838 C 633.574 2.01841 -1.11932 0
M  V30 6839 C 634.544 1.66091 -0.0171604 0
M  V30 6840 O 635.729 1.89934 -0.181617 0
M  V30 6841 C 632.869 3.36065 -0.784504 0
M  V30 6842 C 631.982 3.847 -1.96544 0
M  V30 6843 C 631.117 5.07423 -1.57149 0
M  V30 6844 C 630.156 5.48384 -2.71922 0
M  V30 6845 N 629.293 6.62298 -2.33037 0
M  V30 6846 H 634.133 2.1511 -2.06232 0
M  V30 6847 H 631.67 1.05366 -1.02647 0
M  V30 6848 H 633.628 4.13272 -0.571148 0
M  V30 6849 H 632.258 3.22571 0.121565 0
M  V30 6850 H 631.31 3.03673 -2.291 0
M  V30 6851 H 632.622 4.1102 -2.82603 0
M  V30 6852 H 631.776 5.92165 -1.32004 0
M  V30 6853 H 630.515 4.82906 -0.682153 0
M  V30 6854 H 629.52 4.62184 -2.97768 0
M  V30 6855 H 630.745 5.7489 -3.61494 0
M  V30 6856 H 628.691 6.39416 -1.4657 0
M  V30 6857 H 628.608 6.8833 -3.12631 0
M  V30 6858 H 629.876 7.50352 -2.11169 0
M  V30 6859 N 634.105 1.10431 1.1244 0
M  V30 6860 C 635.335 0.867612 1.87499 0
M  V30 6861 C 635.743 -0.585475 1.79913 0
M  V30 6862 O 635.086 -1.41539 1.171 0
M  V30 6863 C 635.148 1.2374 3.37533 0
M  V30 6864 C 634.812 2.69751 3.68895 0
M  V30 6865 C 635.809 3.67988 3.67261 0
M  V30 6866 C 633.494 3.06135 3.98229 0
M  V30 6867 C 635.488 5.00632 3.9452 0
M  V30 6868 C 633.175 4.38967 4.25149 0
M  V30 6869 C 634.173 5.36025 4.23281 0
M  V30 6870 O 633.861 6.66465 4.49533 0
M  V30 6871 H 633.593 0.311196 0.600111 0
M  V30 6872 H 636.147 1.47257 1.43194 0
M  V30 6873 H 634.377 0.575537 3.82393 0
M  V30 6874 H 636.066 0.978187 3.93937 0
M  V30 6875 H 636.832 3.41224 3.44661 0
M  V30 6876 H 632.711 2.31214 3.98825 0
M  V30 6877 H 636.255 5.7638 3.92978 0
M  V30 6878 H 632.152 4.6547 4.47223 0
M  V30 6879 H 632.92 6.72095 4.67152 0
M  V30 6880 N 635.583 -1.29855 0.893053 0
M  V30 6881 C 636.53 -2.27909 0.364161 0
M  V30 6882 C 637.5 -1.56726 -0.550093 0
M  V30 6883 O 638.685 -1.84747 -0.47677 0
M  V30 6884 C 635.825 -3.42678 -0.408178 0
M  V30 6885 C 634.938 -4.28659 0.536212 0
M  V30 6886 C 634.073 -5.30599 -0.252521 0
M  V30 6887 C 633.112 -6.08234 0.686822 0
M  V30 6888 N 632.249 -7.02068 -0.0670902 0
M  V30 6889 H 637.089 -2.72531 1.20544 0
M  V30 6890 H 634.626 -1.34047 0.605779 0
M  V30 6891 H 636.584 -4.07986 -0.871962 0
M  V30 6892 H 635.214 -2.99103 -1.21397 0
M  V30 6893 H 634.266 -3.63584 1.1185 0
M  V30 6894 H 635.578 -4.8274 1.25552 0
M  V30 6895 H 634.732 -6.01694 -0.777801 0
M  V30 6896 H 633.471 -4.77233 -1.005 0
M  V30 6897 H 632.476 -5.3601 1.22366 0
M  V30 6898 H 633.701 -6.63689 1.43852 0
M  V30 6899 H 631.647 -6.5108 -0.801955 0
M  V30 6900 H 631.564 -7.53675 0.59243 0
M  V30 6901 H 632.832 -7.77392 -0.572851 0
M  V30 6902 N 637.061 -0.65484 -1.43351 0
M  V30 6903 C 638.472 -0.248506 -1.85039 0
M  V30 6904 C 638.823 1.20526 -1.54816 0
M  V30 6905 O 637.948 1.92016 -0.99794 0
M  V30 6906 C 638.543 -0.444241 -3.35875 0
M  V30 6907 C 637.102 -0.0922108 -3.76287 0
M  V30 6908 C 636.249 -0.746327 -2.67068 0
M  V30 6909 H 639.2 -0.8584 -1.33481 0
M  V30 6910 H 639.221 0.309762 -3.79237 0
M  V30 6911 H 638.733 -1.50239 -3.5784 0
M  V30 6912 H 636.834 0.96328 -3.59933 0
M  V30 6913 H 636.947 -0.518807 -4.76283 0
M  V30 6914 H 635.311 -0.179416 -2.54067 0
M  V30 6915 H 636.094 -1.80754 -2.91861 0
M  V30 6916 N 638.539 1.52521 -0.396863 0
M  V30 6917 C 639.471 2.24333 0.469814 0
M  V30 6918 C 640.484 1.2685 1.02043 0
M  V30 6919 O 641.673 1.52876 0.92147 0
M  V30 6920 C 638.773 2.95202 1.66461 0
M  V30 6921 C 637.946 4.19454 1.24003 0
M  V30 6922 C 637.005 4.73255 2.30036 0
M  V30 6923 O 636.031 5.36151 1.91131 0
M  V30 6924 N 637.233 4.53765 3.62047 0
M  V30 6925 H 639.998 2.99347 -0.145468 0
M  V30 6926 H 637.559 1.60348 -0.223606 0
M  V30 6927 H 639.551 3.28092 2.36934 0
M  V30 6928 H 638.121 2.2345 2.18607 0
M  V30 6929 H 637.341 3.92517 0.363892 0
M  V30 6930 H 638.629 5.0017 0.933135 0
M  V30 6931 H 638.027 4.03576 3.96412 0
M  V30 6932 H 636.584 4.91124 4.28533 0
M  V30 6933 N 640.017 0.126909 1.57088 0
M  V30 6934 C 641.428 -0.397201 1.82426 0
M  V30 6935 C 641.779 -1.66084 1.04453 0
M  V30 6936 O 640.904 -2.14534 0.283552 0
M  V30 6937 C 641.499 -0.727411 3.30899 0
M  V30 6938 C 640.058 -1.19612 3.56889 0
M  V30 6939 C 639.205 -0.20885 2.76512 0
M  V30 6940 H 642.156 0.351924 1.54749 0
M  V30 6941 H 642.177 -1.58407 3.45959 0
M  V30 6942 H 641.689 0.19247 3.87622 0
M  V30 6943 H 639.79 -2.13263 3.05532 0
M  V30 6944 H 639.903 -1.13598 4.65438 0
M  V30 6945 H 638.267 -0.697479 2.44964 0
M  V30 6946 H 639.05 0.704267 3.35998 0
M  V30 6947 N 641.495 -1.56914 -0.146875 0
M  V30 6948 C 642.425 -2.01308 -1.1831 0
M  V30 6949 C 643.406 -0.892664 -1.44795 0
M  V30 6950 O 644.591 -1.16048 -1.55713 0
M  V30 6951 C 641.721 -2.3938 -2.51624 0
M  V30 6952 C 640.675 -3.54608 -2.3966 0
M  V30 6953 C 640.001 -3.78493 -3.77686 0
M  V30 6954 C 641.301 -4.87269 -1.88058 0
M  V30 6955 H 642.995 -2.88123 -0.813964 0
M  V30 6956 H 640.541 -1.38615 -0.3901 0
M  V30 6957 H 642.494 -2.69037 -3.24341 0
M  V30 6958 H 641.218 -1.49502 -2.90373 0
M  V30 6959 H 639.877 -3.25116 -1.69396 0
M  V30 6960 H 639.525 -2.85866 -4.13871 0
M  V30 6961 H 639.225 -4.56039 -3.70543 0
M  V30 6962 H 640.749 -4.10576 -4.51951 0
M  V30 6963 H 642.163 -5.15644 -2.50568 0
M  V30 6964 H 640.56 -5.68622 -1.91805 0
M  V30 6965 H 641.63 -4.77634 -0.836277 0
M  V30 6966 N 642.974 0.416227 -1.52004 0
M  V30 6967 C 644.223 1.16088 -1.64944 0
M  V30 6968 C 644.536 1.91835 -0.381928 0
M  V30 6969 O 645.742 2.6867 -0.391013 0
M  V30 6970 C 644.198 2.1124 -2.91386 0
M  V30 6971 C 643.806 1.41042 -4.25219 0
M  V30 6972 C 645.55 2.86008 -3.13688 0
M  V30 6973 C 643.457 2.34801 -5.42791 0
M  V30 6974 H 642.387 0.437041 -0.61442 0
M  V30 6975 H 645.038 0.425971 -1.78487 0
M  V30 6976 H 643.42 2.88254 -2.71525 0
M  V30 6977 H 644.594 0.694416 -4.55538 0
M  V30 6978 H 642.909 0.78344 -4.08964 0
M  V30 6979 H 645.506 3.56286 -3.98703 0
M  V30 6980 H 645.849 3.48556 -2.27628 0
M  V30 6981 H 646.382 2.16095 -3.33988 0
M  V30 6982 H 643.121 1.7691 -6.31176 0
M  V30 6983 H 642.641 3.04395 -5.16821 0
M  V30 6984 H 644.32 2.9548 -5.75587 0
M  V30 6985 N 644.452 1.42507 0.673017 0
M  V30 6986 C 645.4 1.46362 1.80779 0
M  V30 6987 C 646.394 0.339166 1.6597 0
M  V30 6988 O 647.6 0.512262 1.72557 0
M  V30 6989 H 643.975 0.458433 0.596107 0
M  V30 6990 H 645.946 2.41953 1.74646 0
M  V30 6991 C 644.695 1.38462 3.18941 0
M  V30 6992 H 644.018 2.24283 3.30964 0
M  V30 6993 H 645.458 1.45221 3.98355 0
M  V30 6994 C 643.917 0.0996354 3.36753 0
M  V30 6995 O 644.447 -0.846894 3.92671 0
M  V30 6996 N 642.653 0.016211 2.90595 0
M  V30 6997 H 642.2 0.78725 2.45276 0
M  V30 6998 H 642.158 -0.84291 3.0289 0
M  V30 6999 N 645.93 -0.909495 1.28709 0
M  V30 7000 C 646.88 -1.9991 1.09636 0
M  V30 7001 C 647.864 -1.60889 0.01872 0
M  V30 7002 O 649.056 -1.75374 0.239338 0
M  V30 7003 C 646.185 -3.34675 0.764702 0
M  V30 7004 C 645.271 -3.80085 1.8814 0
M  V30 7005 N 645.662 -3.97824 3.12361 0
M  V30 7006 C 643.96 -4.09278 1.77221 0
M  V30 7007 C 644.661 -4.35928 3.85151 0
M  V30 7008 N 643.637 -4.44426 3.13028 0
M  V30 7009 H 647.439 -2.11681 2.03883 0
M  V30 7010 H 644.953 -1.09763 1.1969 0
M  V30 7011 H 646.95 -4.12426 0.609132 0
M  V30 7012 H 645.61 -3.24255 -0.169952 0
M  V30 7013 H 646.621 -3.83626 3.47925 0
M  V30 7014 H 643.298 -4.0747 0.909621 0
M  V30 7015 H 644.688 -4.57581 4.92006 0
M  V30 7016 N 647.408 -1.11026 -1.11852 0
M  V30 7017 C 648.371 -0.768006 -2.1595 0
M  V30 7018 C 649.371 0.210538 -1.59416 0
M  V30 7019 O 650.561 -0.0133978 -1.74195 0
M  V30 7020 C 647.693 -0.138678 -3.40618 0
M  V30 7021 H 648.886 -1.69012 -2.4774 0
M  V30 7022 H 646.439 -0.911578 -1.26964 0
M  V30 7023 H 647.174 0.793872 -3.14433 0
M  V30 7024 H 646.959 -0.843012 -3.8293 0
M  V30 7025 H 648.449 0.0848039 -4.17514 0
M  V30 7026 N 648.886 1.2938 -0.899927 0
M  V30 7027 C 650.297 1.77644 -0.574427 0
M  V30 7028 C 650.648 1.73824 0.909928 0
M  V30 7029 O 649.773 1.32429 1.71147 0
M  V30 7030 C 650.368 3.22573 -1.03595 0
M  V30 7031 C 648.927 3.68614 -0.76161 0
M  V30 7032 C 648.074 2.49483 -1.21052 0
M  V30 7033 H 651.025 1.16038 -1.08263 0
M  V30 7034 H 651.046 3.78684 -0.371337 0
M  V30 7035 H 650.558 3.25321 -2.11631 0
M  V30 7036 H 648.659 3.7134 0.306127 0
M  V30 7037 H 648.772 4.59402 -1.35965 0
M  V30 7038 H 647.136 2.46798 -0.629515 0
M  V30 7039 H 647.919 2.54959 -2.29893 0
M  V30 7040 N 650.364 0.662433 1.43002 0
M  V30 7041 C 651.78 0.330835 1.56133 0
M  V30 7042 C 651.98 -1.16454 1.64441 0
M  V30 7043 O 651.036 -1.94964 1.60453 0
M  V30 7044 C 652.349 1.05029 2.81761 0
M  V30 7045 C 653.897 1.03142 2.95518 0
M  V30 7046 C 654.372 1.73196 4.2399 0
M  V30 7047 N 655.863 1.70004 4.30875 0
M  V30 7048 C 656.598 2.21074 5.29069 0
M  V30 7049 N 656.094 2.80473 6.33488 0
M  V30 7050 N 657.887 2.1152 5.20784 0
M  V30 7051 H 650.038 1.63272 1.35853 0
M  V30 7052 H 652.301 0.687149 0.653092 0
M  V30 7053 H 652.007 2.10542 2.81718 0
M  V30 7054 H 651.881 0.607664 3.72273 0
M  V30 7055 H 654.268 -0.0153339 2.95096 0
M  V30 7056 H 654.349 1.51282 2.0627 0
M  V30 7057 H 653.993 2.77833 4.25172 0
M  V30 7058 H 653.923 1.22515 5.1215 0
M  V30 7059 H 656.414 1.26667 3.56039 0
M  V30 7060 H 656.727 3.17094 7.04749 0
M  V30 7061 H 655.072 2.84538 6.34085 0
M  V30 7062 H 658.263 1.64814 4.38126 0
M  V30 7063 H 658.436 2.51629 5.97149 0
M  V30 7064 N 651.842 -1.52309 0.404946 0
M  V30 7065 C 652.772 -2.29805 -0.41376 0
M  V30 7066 C 653.753 -1.3384 -1.0498 0
M  V30 7067 O 654.938 -1.62745 -1.05961 0
M  V30 7068 C 652.068 -3.11639 -1.53292 0
M  V30 7069 C 651.022 -4.15616 -1.02211 0
M  V30 7070 C 650.348 -4.8577 -2.23455 0
M  V30 7071 C 651.648 -5.2224 -0.0790725 0
M  V30 7072 H 653.342 -2.98493 0.232878 0
M  V30 7073 H 650.888 -1.43552 0.113441 0
M  V30 7074 H 652.841 -3.64618 -2.11262 0
M  V30 7075 H 651.565 -2.40712 -2.20738 0
M  V30 7076 H 650.224 -3.63641 -0.46484 0
M  V30 7077 H 649.872 -4.11376 -2.89445 0
M  V30 7078 H 649.572 -5.56058 -1.89929 0
M  V30 7079 H 651.096 -5.4156 -2.82038 0
M  V30 7080 H 652.51 -5.70485 -0.567438 0
M  V30 7081 H 650.907 -5.99867 0.167167 0
M  V30 7082 H 651.977 -4.77078 0.867447 0
M  V30 7083 N 653.32 -0.135238 -1.57019 0
M  V30 7084 C 654.597 0.563227 -1.87316 0
M  V30 7085 C 654.977 1.83749 -1.03921 0
M  V30 7086 O 654.325 2.2817 -0.122675 0
M  V30 7087 C 654.535 0.840031 -3.3874 0
M  V30 7088 C 655.883 1.18598 -4.077 0
M  V30 7089 O 656.907 0.92977 -3.43851 0
M  V30 7090 O 655.766 1.66758 -5.20436 0
M  V30 7091 H 652.86 0.285971 -0.775983 0
M  V30 7092 H 655.406 -0.170965 -1.68837 0
M  V30 7093 H 654.178 -0.0622785 -3.9125 0
M  V30 7094 H 653.801 1.62882 -3.62706 0
M  V30 7095 N 654.798 1.5699 0.138552 0
M  V30 7096 C 656.023 1.88344 0.86841 0
M  V30 7097 C 656.448 0.725159 1.7356 0
M  V30 7098 O 655.806 -0.324992 1.78363 0
M  V30 7099 C 655.854 3.18334 1.69398 0
M  V30 7100 O 654.958 3.02863 2.79907 0
M  V30 7101 H 654.299 0.618577 0.241367 0
M  V30 7102 H 656.829 2.04207 0.126826 0
M  V30 7103 H 656.839 3.50567 2.08726 0
M  V30 7104 H 655.514 4.02238 1.05725 0
M  V30 7105 H 654.091 2.82056 2.43924 0
M  V30 7106 N 656.276 -0.40816 1.52223 0
M  V30 7107 C 657.186 -1.52202 1.78526 0
M  V30 7108 C 658.202 -1.60546 0.670892 0
M  V30 7109 O 659.378 -1.77242 0.956404 0
M  V30 7110 C 656.443 -2.87928 1.93128 0
M  V30 7111 C 655.504 -2.89463 3.17033 0
M  V30 7112 C 654.737 -4.18715 3.30929 0
M  V30 7113 O 654.96 -5.12662 2.50067 0
M  V30 7114 O 653.894 -4.27125 4.24084 0
M  V30 7115 H 657.72 -1.32911 2.73072 0
M  V30 7116 H 655.305 -0.594112 1.37079 0
M  V30 7117 H 657.187 -3.68426 2.04549 0
M  V30 7118 H 655.862 -3.07285 1.01772 0
M  V30 7119 H 654.769 -2.07815 3.11069 0
M  V30 7120 H 656.102 -2.75055 4.08174 0
M  V30 7121 N 657.755 -1.42862 -0.66545 0
M  V30 7122 C 659.003 -1.43546 -1.42264 0
M  V30 7123 C 659.324 -0.0563116 -1.94919 0
M  V30 7124 O 658.594 0.906568 -1.73661 0
M  V30 7125 H 657.174 -0.528464 -0.527953 0
M  V30 7126 H 659.836 -1.78363 -0.785665 0
M  V30 7127 H 658.932 -2.14079 -2.27105 0
M  V30 7128 N 659.233 0.902656 -1.29189 0
M  V30 7129 C 660.482 1.6475 -1.16362 0
M  V30 7130 C 660.795 1.93517 0.284682 0
M  V30 7131 O 662.001 2.66192 0.534229 0
M  V30 7132 C 660.457 2.96848 -2.03493 0
M  V30 7133 C 660.065 2.75687 -3.5313 0
M  V30 7134 C 661.809 3.74762 -1.99383 0
M  V30 7135 C 659.716 4.03492 -4.32375 0
M  V30 7136 H 658.646 0.618041 -0.431904 0
M  V30 7137 H 661.297 1.0008 -1.53806 0
M  V30 7138 H 659.679 3.62715 -1.58916 0
M  V30 7139 H 660.853 2.18431 -4.05739 0
M  V30 7140 H 659.168 2.11171 -3.58881 0
M  V30 7141 H 661.765 4.69515 -2.5585 0
M  V30 7142 H 662.108 4.04767 -0.973123 0
M  V30 7143 H 662.641 3.15732 -2.41988 0
M  V30 7144 H 659.38 3.78656 -5.3507 0
M  V30 7145 H 658.9 4.60318 -3.84535 0
M  V30 7146 H 660.579 4.71662 -4.42881 0
M  V30 7147 N 660.711 1.11618 1.11262 0
M  V30 7148 C 661.621 0.78898 2.20935 0
M  V30 7149 C 662.637 -0.21867 1.7262 0
M  V30 7150 O 663.813 -0.0543826 2.01327 0
M  V30 7151 C 660.878 0.239014 3.45875 0
M  V30 7152 C 659.939 1.3055 4.08968 0
M  V30 7153 C 659.172 0.781687 5.27944 0
M  V30 7154 O 659.395 -0.387605 5.69082 0
M  V30 7155 O 658.329 1.54734 5.81671 0
M  V30 7156 H 662.155 1.70477 2.51339 0
M  V30 7157 H 659.74 0.892203 1.19834 0
M  V30 7158 H 661.622 -0.0632312 4.21353 0
M  V30 7159 H 660.297 -0.649454 3.17118 0
M  V30 7160 H 659.204 1.66079 3.35214 0
M  V30 7161 H 660.537 2.16743 4.41909 0
M  V30 7162 N 662.189 -1.289 0.906776 0
M  V30 7163 C 663.119 -2.29932 0.406659 0
M  V30 7164 C 664.1 -1.6189 -0.522061 0
M  V30 7165 O 665.285 -1.8935 -0.431283 0
M  V30 7166 C 662.415 -3.45425 -0.360366 0
M  V30 7167 C 661.369 -4.25316 0.478574 0
M  V30 7168 C 660.695 -5.33076 -0.416373 0
M  V30 7169 C 661.995 -4.92739 1.7322 0
M  V30 7170 H 663.689 -2.72013 1.25097 0
M  V30 7171 H 661.235 -1.30768 0.602977 0
M  V30 7172 H 663.188 -4.15186 -0.721029 0
M  V30 7173 H 661.912 -3.02206 -1.23852 0
M  V30 7174 H 660.571 -3.57273 0.821662 0
M  V30 7175 H 660.219 -4.86101 -1.29287 0
M  V30 7176 H 659.919 -5.8743 0.141309 0
M  V30 7177 H 661.443 -6.05686 -0.773072 0
M  V30 7178 H 662.857 -5.54898 1.44086 0
M  V30 7179 H 661.254 -5.57057 2.23175 0
M  V30 7180 H 662.324 -4.17625 2.46408 0
M  V30 7181 N 663.667 -0.670007 -1.42649 0
M  V30 7182 C 664.916 -0.187526 -2.00826 0
M  V30 7183 C 665.229 1.21142 -1.53571 0
M  V30 7184 O 666.435 1.79001 -2.04134 0
M  V30 7185 C 664.891 -0.284409 -3.58774 0
M  V30 7186 C 664.499 -1.6871 -4.15019 0
M  V30 7187 C 666.243 0.139605 -4.2427 0
M  V30 7188 C 664.15 -1.73701 -5.65316 0
M  V30 7189 H 663.08 -0.0663468 -0.751075 0
M  V30 7190 H 665.731 -0.834492 -1.63427 0
M  V30 7191 H 664.113 0.430364 -3.93655 0
M  V30 7192 H 665.287 -2.42857 -3.91608 0
M  V30 7193 H 663.602 -2.05855 -3.61957 0
M  V30 7194 H 666.199 0.122398 -5.3456 0
M  V30 7195 H 666.542 1.17403 -3.99402 0
M  V30 7196 H 667.075 -0.523995 -3.94334 0
M  V30 7197 H 663.814 -2.75109 -5.94975 0
M  V30 7198 H 663.334 -1.03903 -5.90732 0
M  V30 7199 H 665.013 -1.48829 -6.2965 0
M  V30 7200 N 665.145 1.52092 -0.413018 0
M  V30 7201 C 666.373 2.06274 0.160881 0
M  V30 7202 C 666.788 1.28273 1.38533 0
M  V30 7203 O 666.145 0.33563 1.79387 0
M  V30 7204 C 666.196 3.57921 0.507443 0
M  V30 7205 O 665.917 4.32971 -0.668388 0
M  V30 7206 C 667.418 4.28533 1.13465 0
M  V30 7207 H 664.638 0.67074 0.0186759 0
M  V30 7208 H 667.182 1.95951 -0.585092 0
M  V30 7209 H 665.337 3.68238 1.20331 0
M  V30 7210 H 665.751 5.23135 -0.378169 0
M  V30 7211 H 667.225 5.35804 1.32732 0
M  V30 7212 H 667.702 3.85258 2.10886 0
M  V30 7213 H 668.308 4.22595 0.478876 0
M  V30 7214 N 666.623 0.143563 1.56945 0
M  V30 7215 C 667.57 -0.797433 2.16586 0
M  V30 7216 C 668.54 -1.24654 1.09775 0
M  V30 7217 O 669.725 -1.31968 1.37801 0
M  V30 7218 C 666.865 -2.03253 2.78895 0
M  V30 7219 C 665.978 -1.62954 4.00087 0
M  V30 7220 C 665.113 -2.81617 4.50406 0
M  V30 7221 C 664.152 -2.37675 5.64072 0
M  V30 7222 N 663.289 -3.49335 6.09023 0
M  V30 7223 H 668.129 -0.282023 2.96662 0
M  V30 7224 H 665.666 -0.127494 1.46546 0
M  V30 7225 H 667.624 -2.75653 3.13163 0
M  V30 7226 H 666.254 -2.52211 2.01469 0
M  V30 7227 H 665.306 -0.803322 3.71821 0
M  V30 7228 H 666.618 -1.26679 4.82446 0
M  V30 7229 H 665.772 -3.62212 4.86711 0
M  V30 7230 H 664.511 -3.21134 3.67048 0
M  V30 7231 H 663.516 -1.55519 5.27346 0
M  V30 7232 H 664.741 -1.99247 6.49213 0
M  V30 7233 H 662.687 -3.8848 5.28601 0
M  V30 7234 H 662.604 -3.17064 6.86299 0
M  V30 7235 H 663.872 -4.30297 6.49973 0
M  V30 7236 N 668.101 -1.57061 -0.130224 0
M  V30 7237 C 669.348 -1.84257 -0.839972 0
M  V30 7238 C 669.676 -0.726986 -1.80403 0
M  V30 7239 O 668.931 0.282632 -1.93648 0
M  V30 7240 C 669.23 -3.17878 -1.63365 0
M  V30 7241 C 668.896 -4.43475 -0.814891 0
M  V30 7242 C 667.558 -4.77581 -0.589066 0
M  V30 7243 C 669.91 -5.20631 -0.243437 0
M  V30 7244 C 667.238 -5.86292 0.218648 0
M  V30 7245 C 669.59 -6.30192 0.551408 0
M  V30 7246 C 668.254 -6.62837 0.787653 0
M  V30 7247 H 667.524 -0.674245 -0.307367 0
M  V30 7248 H 670.171 -1.91224 -0.102832 0
M  V30 7249 H 668.476 -3.06437 -2.44138 0
M  V30 7250 H 670.173 -3.3614 -2.18658 0
M  V30 7251 H 666.763 -4.16747 -1.00098 0
M  V30 7252 H 670.947 -4.94644 -0.405145 0
M  V30 7253 H 666.203 -6.10017 0.411016 0
M  V30 7254 H 670.377 -6.89165 1.00126 0
M  V30 7255 H 668.004 -7.46908 1.41537 0
M  V30 7256 N 669.579 0.400081 -1.52437 0
M  V30 7257 C 670.509 1.4947 -1.7939 0
M  V30 7258 C 671.49 1.57383 -0.645329 0
M  V30 7259 O 672.675 1.72511 -0.891826 0
M  V30 7260 C 669.805 2.87201 -1.95276 0
M  V30 7261 C 668.759 2.94134 -3.10917 0
M  V30 7262 C 668.085 4.34207 -3.1204 0
M  V30 7263 C 669.385 2.64791 -4.50203 0
M  V30 7264 H 671.079 1.27165 -2.71052 0
M  V30 7265 H 668.625 0.610312 -1.30427 0
M  V30 7266 H 670.578 3.63772 -2.12715 0
M  V30 7267 H 669.302 3.10819 -1.00294 0
M  V30 7268 H 667.961 2.20009 -2.93243 0
M  V30 7269 H 667.609 4.54848 -2.14761 0
M  V30 7270 H 667.309 4.39768 -3.89715 0
M  V30 7271 H 668.833 5.127 -3.31619 0
M  V30 7272 H 670.247 3.31083 -4.68035 0
M  V30 7273 H 668.644 2.81717 -5.29864 0
M  V30 7274 H 669.714 1.60184 -4.57678 0
M  V30 7275 N 671.057 1.43213 0.657864 0
M  V30 7276 C 671.989 1.43974 1.78337 0
M  V30 7277 C 673.002 0.336482 1.59285 0
M  V30 7278 O 674.191 0.600631 1.68091 0
M  V30 7279 C 671.291 1.23242 3.15697 0
M  V30 7280 C 670.464 2.46319 3.61449 0
M  V30 7281 C 669.523 2.2088 4.77597 0
M  V30 7282 O 668.549 2.942 4.87273 0
M  V30 7283 N 669.751 1.22251 5.67481 0
M  V30 7284 H 672.516 2.40993 1.78164 0
M  V30 7285 H 670.077 1.3831 0.841549 0
M  V30 7286 H 672.069 1.04113 3.91079 0
M  V30 7287 H 670.639 0.346849 3.1067 0
M  V30 7288 H 669.859 2.80904 2.76563 0
M  V30 7289 H 671.147 3.28239 3.88763 0
M  V30 7290 H 670.545 0.616433 5.62331 0
M  V30 7291 H 669.102 1.09107 6.42603 0
M  V30 7292 N 672.536 -0.895792 1.29666 0
M  V30 7293 C 673.766 -1.67757 1.20586 0
M  V30 7294 C 674.174 -1.87729 -0.235432 0
M  V30 7295 O 673.517 -1.41706 -1.16898 0
M  V30 7296 C 673.579 -3.08117 1.85215 0
M  V30 7297 C 673.243 -3.1136 3.3452 0
M  V30 7298 C 674.24 -2.91217 4.30684 0
M  V30 7299 C 671.925 -3.33302 3.75786 0
M  V30 7300 C 673.919 -2.92955 5.66089 0
M  V30 7301 C 671.606 -3.3467 5.11311 0
M  V30 7302 C 672.604 -3.14519 6.06273 0
M  V30 7303 O 672.292 -3.15684 7.39323 0
M  V30 7304 H 672.024 -0.530601 0.418854 0
M  V30 7305 H 674.578 -1.12831 1.71634 0
M  V30 7306 H 672.808 -3.64661 1.28683 0
M  V30 7307 H 674.497 -3.68399 1.70403 0
M  V30 7308 H 675.263 -2.74074 4.00136 0
M  V30 7309 H 671.142 -3.48025 3.02324 0
M  V30 7310 H 674.686 -2.77145 6.40185 0
M  V30 7311 H 670.583 -3.51346 5.41504 0
M  V30 7312 H 671.351 -3.31924 7.48177 0
M  V30 7313 N 674.014 -1.12206 -1.10668 0
M  V30 7314 C 674.924 -0.800686 -2.20513 0
M  V30 7315 C 675.94 0.209512 -1.72734 0
M  V30 7316 O 677.116 0.043705 -2.01353 0
M  V30 7317 C 674.181 -0.257353 -3.45744 0
M  V30 7318 C 673.242 -1.32718 -4.0827 0
M  V30 7319 C 672.475 -0.809674 -5.27522 0
M  V30 7320 O 672.698 0.35742 -5.69279 0
M  V30 7321 O 671.632 -1.57816 -5.80842 0
M  V30 7322 H 675.458 -1.71807 -2.50432 0
M  V30 7323 H 673.043 -0.898546 -1.19359 0
M  V30 7324 H 674.925 0.0408849 -4.2138 0
M  V30 7325 H 673.6 0.632627 -3.17458 0
M  V30 7326 H 672.507 -1.67855 -3.34329 0
M  V30 7327 H 673.84 -2.19083 -4.40753 0
M  V30 7328 N 675.492 1.28418 -0.913599 0
M  V30 7329 C 676.717 1.99643 -0.561899 0
M  V30 7330 C 677.142 1.67819 0.849608 0
M  V30 7331 O 676.5 0.910503 1.56779 0
M  V30 7332 C 676.548 3.52116 -0.777622 0
M  V30 7333 O 675.652 4.12076 0.163457 0
M  V30 7334 H 674.993 0.627229 -0.217898 0
M  V30 7335 H 677.523 1.63575 -1.229 0
M  V30 7336 H 677.533 4.02163 -0.687666 0
M  V30 7337 H 676.208 3.74613 -1.8066 0
M  V30 7338 H 674.785 3.72892 0.0247827 0
M  V30 7339 N 676.97 0.677563 1.42291 0
M  V30 7340 C 677.917 0.000947061 2.308 0
M  V30 7341 C 678.887 -0.789889 1.46116 0
M  V30 7342 O 680.072 -0.761578 1.74942 0
M  V30 7343 C 677.212 -0.942387 3.31984 0
M  V30 7344 C 676.325 -0.14508 4.31756 0
M  V30 7345 C 675.46 -1.08442 5.20013 0
M  V30 7346 C 674.499 -0.278958 6.11464 0
M  V30 7347 N 673.636 -1.17115 6.92263 0
M  V30 7348 H 678.476 0.761521 2.88106 0
M  V30 7349 H 676.013 0.38727 1.41911 0
M  V30 7350 H 677.971 -1.50317 3.89179 0
M  V30 7351 H 676.601 -1.66956 2.76271 0
M  V30 7352 H 675.653 0.532368 3.76656 0
M  V30 7353 H 676.965 0.48015 4.96484 0
M  V30 7354 H 676.119 -1.71504 5.81955 0
M  V30 7355 H 674.858 -1.74353 4.55469 0
M  V30 7356 H 673.863 0.364856 5.48588 0
M  V30 7357 H 675.088 0.376099 6.78058 0
M  V30 7358 H 673.034 -1.81661 6.30345 0
M  V30 7359 H 672.951 -0.601063 7.53607 0
M  V30 7360 H 674.219 -1.78915 7.58689 0
M  V30 7361 N 678.448 -1.51871 0.421078 0
M  V30 7362 C 679.395 -2.27334 -0.398508 0
M  V30 7363 C 680.365 -1.30241 -1.03085 0
M  V30 7364 O 681.55 -1.59121 -1.05285 0
M  V30 7365 C 678.69 -3.10664 -1.50272 0
M  V30 7366 C 677.803 -4.2273 -0.890122 0
M  V30 7367 C 676.938 -4.93399 -1.96803 0
M  V30 7368 C 675.977 -5.97409 -1.333 0
M  V30 7369 N 675.114 -6.61548 -2.35156 0
M  V30 7370 H 679.954 -2.96938 0.251411 0
M  V30 7371 H 677.491 -1.46472 0.135825 0
M  V30 7372 H 679.449 -3.57292 -2.15403 0
M  V30 7373 H 678.079 -2.43207 -2.1225 0
M  V30 7374 H 677.131 -3.80186 -0.127537 0
M  V30 7375 H 678.443 -4.97302 -0.386349 0
M  V30 7376 H 677.597 -5.43491 -2.69633 0
M  V30 7377 H 676.336 -4.18421 -2.50549 0
M  V30 7378 H 675.341 -5.46624 -0.59008 0
M  V30 7379 H 676.566 -6.74335 -0.803076 0
M  V30 7380 H 674.512 -5.89394 -2.88012 0
M  V30 7381 H 674.429 -7.31832 -1.89624 0
M  V30 7382 H 675.697 -7.16276 -3.0752 0
M  V30 7383 N 679.926 -0.151884 -1.56866 0
M  V30 7384 C 681.342 0.204486 -1.58285 0
M  V30 7385 C 681.542 1.6431 -1.16639 0
M  V30 7386 O 680.598 2.37077 -0.868946 0
M  V30 7387 C 681.911 -0.0587019 -3.00643 0
M  V30 7388 C 683.459 0.00462303 -3.13 0
M  V30 7389 C 683.934 -0.231297 -4.57416 0
M  V30 7390 N 685.425 -0.178394 -4.62856 0
M  V30 7391 C 686.16 -0.335379 -5.72418 0
M  V30 7392 N 685.656 -0.550355 -6.90611 0
M  V30 7393 N 687.449 -0.272641 -5.61438 0
M  V30 7394 H 679.6 -1.09116 -1.82229 0
M  V30 7395 H 681.863 -0.432311 -0.843689 0
M  V30 7396 H 681.569 -1.05453 -3.35518 0
M  V30 7397 H 681.443 0.658508 -3.71407 0
M  V30 7398 H 683.83 0.991009 -2.77962 0
M  V30 7399 H 683.911 -0.744992 -2.44711 0
M  V30 7400 H 683.555 -1.2148 -4.93158 0
M  V30 7401 H 683.485 0.5387 -5.23837 0
M  V30 7402 H 685.976 -0.0170923 -3.77896 0
M  V30 7403 H 686.289 -0.660116 -7.69976 0
M  V30 7404 H 684.634 -0.586736 -6.92519 0
M  V30 7405 H 687.825 -0.105421 -4.67981 0
M  V30 7406 H 687.998 -0.398418 -6.46774 0
M  V30 7407 N 681.404 1.57128 0.121893 0
M  V30 7408 C 682.65 1.84974 0.831418 0
M  V30 7409 C 682.983 0.737204 1.79663 0
M  V30 7410 O 682.258 -0.257199 1.92792 0
M  V30 7411 C 682.541 3.23397 1.58386 0
M  V30 7412 C 682.394 4.45246 0.638445 0
M  V30 7413 C 683.713 3.59355 2.54071 0
M  V30 7414 H 680.832 0.67282 0.300803 0
M  V30 7415 H 683.474 1.89759 0.0957587 0
M  V30 7416 H 681.624 3.19449 2.21098 0
M  V30 7417 H 683.296 4.61295 0.0203925 0
M  V30 7418 H 681.539 4.33771 -0.05023 0
M  V30 7419 H 682.21 5.38765 1.20151 0
M  V30 7420 H 684.686 3.64075 2.01465 0
M  V30 7421 H 683.562 4.57193 3.03752 0
M  V30 7422 H 683.823 2.86622 3.36601 0
M  V30 7423 N 682.882 -0.391992 1.52647 0
M  V30 7424 C 684.107 -1.16312 1.71716 0
M  V30 7425 C 684.532 -1.83042 0.433279 0
M  V30 7426 O 683.89 -1.70705 -0.610707 0
M  V30 7427 C 683.938 -2.18908 2.86551 0
M  V30 7428 O 683.042 -3.2543 2.53316 0
M  V30 7429 H 682.383 -0.338743 0.571095 0
M  V30 7430 H 684.913 -0.457202 1.99426 0
M  V30 7431 H 684.923 -2.62954 3.1196 0
M  V30 7432 H 683.598 -1.69726 3.79692 0
M  V30 7433 H 682.175 -2.86543 2.38637 0
M  V30 7434 N 684.36 -1.4356 -0.65026 0
M  V30 7435 C 685.323 -1.48615 -1.74489 0
M  V30 7436 C 686.323 -0.370483 -1.56474 0
M  V30 7437 O 687.513 -0.632351 -1.62317 0
M  V30 7438 C 684.645 -1.34161 -3.13391 0
M  V30 7439 H 685.838 -2.46103 -1.71387 0
M  V30 7440 H 683.391 -1.30369 -0.862186 0
M  V30 7441 H 684.126 -0.376918 -3.22102 0
M  V30 7442 H 683.911 -2.1504 -3.27872 0
M  V30 7443 H 685.401 -1.40637 -3.93206 0
M  V30 7444 N 685.838 0.888903 -1.30139 0
M  V30 7445 C 686.748 2.02705 -1.18101 0
M  V30 7446 C 687.764 1.73702 -0.101809 0
M  V30 7447 O 688.94 1.98906 -0.315984 0
M  V30 7448 C 686.005 3.35616 -0.869651 0
M  V30 7449 C 685.066 3.78067 -2.03381 0
M  V30 7450 C 684.299 5.04635 -1.73721 0
M  V30 7451 O 684.522 5.66531 -0.663267 0
M  V30 7452 O 683.456 5.43399 -2.58845 0
M  V30 7453 H 687.282 2.15788 -2.13704 0
M  V30 7454 H 684.867 1.01426 -1.09695 0
M  V30 7455 H 686.749 4.15358 -0.711043 0
M  V30 7456 H 685.424 3.23651 0.0565002 0
M  V30 7457 H 684.331 2.99046 -2.24772 0
M  V30 7458 H 685.664 3.94631 -2.94155 0
M  V30 7459 N 687.317 1.12792 1.10072 0
M  V30 7460 C 688.227 0.812369 2.20086 0
M  V30 7461 C 689.243 -0.200349 1.72843 0
M  V30 7462 O 690.419 -0.0330262 2.01373 0
M  V30 7463 C 687.484 0.275685 3.45602 0
M  V30 7464 C 686.545 1.34881 4.07561 0
M  V30 7465 C 685.778 0.837639 5.27086 0
M  V30 7466 O 686.001 -0.327224 5.69461 0
M  V30 7467 O 684.935 1.60894 5.79997 0
M  V30 7468 H 688.761 1.73133 2.49517 0
M  V30 7469 H 686.346 0.904863 1.18881 0
M  V30 7470 H 688.228 -0.0185375 4.21396 0
M  V30 7471 H 686.903 -0.615783 3.17789 0
M  V30 7472 H 685.81 1.69625 3.33434 0
M  V30 7473 H 687.143 2.21418 4.39585 0
M  V30 7474 N 688.795 -1.27931 0.920396 0
M  V30 7475 C 689.758 -2.25345 0.41858 0
M  V30 7476 C 690.758 -1.54116 -0.458798 0
M  V30 7477 O 691.948 -1.72235 -0.260912 0
M  V30 7478 C 689.08 -3.38556 -0.399104 0
M  V30 7479 H 690.273 -2.71251 1.27918 0
M  V30 7480 H 687.826 -1.39728 0.700406 0
M  V30 7481 H 688.561 -2.98021 -1.27882 0
M  V30 7482 H 688.346 -3.91426 0.229863 0
M  V30 7483 H 689.836 -4.10976 -0.740817 0
M  V30 7484 N 690.273 -0.685099 -1.4193 0
M  V30 7485 C 691.206 0.0371639 -2.2817 0
M  V30 7486 C 692.184 0.798436 -1.41647 0
M  V30 7487 O 693.368 0.791428 -1.71081 0
M  V30 7488 C 690.495 1.05993 -3.21688 0
M  V30 7489 C 689.541 0.393043 -4.24685 0
M  V30 7490 S 690.374 -0.856921 -5.28599 0
M  V30 7491 C 691.53 0.164508 -6.25684 0
M  V30 7492 H 691.763 -0.694305 -2.89079 0
M  V30 7493 H 689.296 -0.474999 -1.46912 0
M  V30 7494 H 691.254 1.64489 -3.76103 0
M  V30 7495 H 689.915 1.7639 -2.59895 0
M  V30 7496 H 689.108 1.16513 -4.90348 0
M  V30 7497 H 688.71 -0.118589 -3.73812 0
M  V30 7498 H 691.002 1.02106 -6.69762 0
M  V30 7499 H 691.945 -0.457917 -7.06618 0
M  V30 7500 H 692.353 0.514596 -5.6215 0
M  V30 7501 N 691.751 1.51645 -0.429126 0
M  V30 7502 C 692.698 2.27542 0.386446 0
M  V30 7503 C 693.668 1.30786 1.02393 0
M  V30 7504 O 694.853 1.59678 1.0444 0
M  V30 7505 C 691.993 3.11457 1.48623 0
M  V30 7506 C 691.106 4.23196 0.867691 0
M  V30 7507 C 690.241 4.94435 1.94183 0
M  V30 7508 C 689.28 5.98108 1.30129 0
M  V30 7509 N 688.417 6.62786 2.31644 0
M  V30 7510 H 693.257 2.968 -0.267155 0
M  V30 7511 H 690.794 1.46397 -0.143591 0
M  V30 7512 H 692.752 3.58429 2.13506 0
M  V30 7513 H 691.382 2.44329 2.10957 0
M  V30 7514 H 690.434 3.80248 0.107373 0
M  V30 7515 H 691.746 4.97499 0.35997 0
M  V30 7516 H 690.9 5.44914 2.66747 0
M  V30 7517 H 689.639 4.19744 2.48326 0
M  V30 7518 H 688.644 5.4693 0.561082 0
M  V30 7519 H 689.869 6.74751 0.767303 0
M  V30 7520 H 687.815 5.90913 2.84883 0
M  V30 7521 H 687.732 7.32828 1.85741 0
M  V30 7522 H 689 7.17897 3.03717 0
M  V30 7523 N 693.229 0.160201 1.56784 0
M  V30 7524 C 694.179 -0.786461 2.14007 0
M  V30 7525 C 695.163 -1.20046 1.07134 0
M  V30 7526 O 696.355 -1.16468 1.33283 0
M  V30 7527 C 693.484 -2.02024 2.77563 0
M  V30 7528 C 692.57 -1.62874 3.91578 0
M  V30 7529 N 692.961 -0.946176 4.96871 0
M  V30 7530 C 691.259 -1.92054 4.02531 0
M  V30 7531 C 691.96 -0.755084 5.76778 0
M  V30 7532 N 690.936 -1.29307 5.27997 0
M  V30 7533 H 694.738 -0.255879 2.92784 0
M  V30 7534 H 692.252 -0.0408778 1.62349 0
M  V30 7535 H 694.249 -2.70855 3.16928 0
M  V30 7536 H 692.909 -2.55587 2.00263 0
M  V30 7537 H 693.92 -0.605455 5.14349 0
M  V30 7538 H 690.597 -2.47374 3.36322 0
M  V30 7539 H 691.987 -0.216138 6.71552 0
M  V30 7540 N 694.707 -1.5719 -0.113559 0
M  V30 7541 C 695.953 -1.85412 -0.821597 0
M  V30 7542 C 696.286 -0.746722 -1.7927 0
M  V30 7543 O 695.561 0.246971 -1.92926 0
M  V30 7544 C 695.844 -3.24233 -1.56669 0
M  V30 7545 C 695.697 -4.45578 -0.614823 0
M  V30 7546 C 697.016 -3.60697 -2.52161 0
M  V30 7547 H 694.135 -0.674406 -0.29723 0
M  V30 7548 H 696.777 -1.89807 -0.085694 0
M  V30 7549 H 694.927 -3.20617 -2.19401 0
M  V30 7550 H 696.599 -4.613 0.00407137 0
M  V30 7551 H 694.842 -4.33738 0.0732332 0
M  V30 7552 H 695.513 -5.39395 -1.17292 0
M  V30 7553 H 697.989 -3.65139 -1.99532 0
M  V30 7554 H 696.865 -4.58798 -3.01323 0
M  V30 7555 H 697.126 -2.88403 -3.35076 0
M  V30 7556 N 696.185 0.383891 -1.52853 0
M  V30 7557 C 697.415 1.14783 -1.7178 0
M  V30 7558 C 697.823 1.84055 -0.438211 0
M  V30 7559 O 697.166 1.73713 0.597465 0
M  V30 7560 C 697.228 2.23543 -2.81547 0
M  V30 7561 C 696.892 1.74195 -4.22499 0
M  V30 7562 C 697.889 1.21591 -5.05481 0
M  V30 7563 C 695.574 1.80262 -4.6884 0
M  V30 7564 C 697.568 0.757104 -6.32888 0
M  V30 7565 C 695.255 1.33993 -5.96229 0
M  V30 7566 C 696.253 0.818049 -6.78083 0
M  V30 7567 O 695.941 0.362123 -8.03084 0
M  V30 7568 H 695.673 0.349908 -0.578395 0
M  V30 7569 H 698.227 0.454377 -2.00311 0
M  V30 7570 H 696.457 2.96328 -2.48449 0
M  V30 7571 H 698.146 2.8519 -2.88828 0
M  V30 7572 H 698.912 1.16257 -4.7086 0
M  V30 7573 H 694.791 2.19825 -4.05213 0
M  V30 7574 H 698.335 0.34908 -6.96726 0
M  V30 7575 H 694.232 1.39015 -6.30353 0
M  V30 7576 H 695 0.483134 -8.17073 0
M  V30 7577 N 697.663 1.43903 0.642637 0
M  V30 7578 C 698.91 1.46079 1.40239 0
M  V30 7579 C 699.238 0.0890335 1.94296 0
M  V30 7580 O 698.493 -0.907533 1.73385 0
M  V30 7581 C 698.792 2.45907 2.59354 0
M  V30 7582 C 698.458 3.91522 2.23654 0
M  V30 7583 C 697.12 4.31179 2.1363 0
M  V30 7584 C 699.472 4.83242 1.95261 0
M  V30 7585 C 696.8 5.60495 1.73384 0
M  V30 7586 C 699.152 6.12933 1.56511 0
M  V30 7587 C 697.816 6.51556 1.4502 0
M  V30 7588 H 697.086 0.534542 0.513172 0
M  V30 7589 H 699.733 1.77047 0.72984 0
M  V30 7590 H 698.038 2.08381 3.3179 0
M  V30 7591 H 699.735 2.44842 3.17574 0
M  V30 7592 H 696.325 3.60142 2.32369 0
M  V30 7593 H 700.509 4.53367 2.0192 0
M  V30 7594 H 695.765 5.89249 1.63082 0
M  V30 7595 H 699.939 6.83469 1.33576 0
M  V30 7596 H 697.566 7.51663 1.13606 0
M  V30 7597 N 699.141 -0.881989 1.30609 0
M  V30 7598 C 700.557 -1.16576 1.09005 0
M  V30 7599 C 700.757 -2.00961 -0.14727 0
M  V30 7600 O 699.813 -2.38117 -0.840036 0
M  V30 7601 C 701.126 -1.86954 2.35518 0
M  V30 7602 C 702.674 -1.99706 2.41011 0
M  V30 7603 C 703.149 -2.73497 3.67374 0
M  V30 7604 N 704.64 -2.8104 3.68199 0
M  V30 7605 C 705.375 -3.38718 4.62664 0
M  V30 7606 N 704.871 -3.97421 5.67475 0
M  V30 7607 N 706.664 -3.36561 4.50203 0
M  V30 7608 H 698.815 -0.319398 2.09985 0
M  V30 7609 H 701.078 -0.204058 0.925778 0
M  V30 7610 H 700.784 -1.32393 3.2583 0
M  V30 7611 H 700.658 -2.87317 2.44395 0
M  V30 7612 H 703.045 -2.53436 1.51176 0
M  V30 7613 H 703.126 -0.984218 2.36108 0
M  V30 7614 H 702.77 -2.20438 4.57569 0
M  V30 7615 H 702.7 -3.75163 3.6954 0
M  V30 7616 H 705.191 -2.39365 2.92426 0
M  V30 7617 H 705.504 -4.39507 6.35652 0
M  V30 7618 H 703.849 -3.95832 5.71264 0
M  V30 7619 H 707.04 -2.8993 3.67503 0
M  V30 7620 H 707.213 -3.81215 5.24003 0
M  V30 7621 N 700.619 -1.13374 -1.09472 0
M  V30 7622 C 701.844 -0.918711 -1.85942 0
M  V30 7623 C 702.269 0.527225 -1.8056 0
M  V30 7624 O 701.627 1.37408 -1.18274 0
M  V30 7625 C 701.675 -1.41056 -3.31867 0
M  V30 7626 O 700.779 -0.595496 -4.08078 0
M  V30 7627 H 700.12 -0.329297 -0.576593 0
M  V30 7628 H 702.65 -1.50829 -1.38245 0
M  V30 7629 H 702.66 -1.41398 -3.82715 0
M  V30 7630 H 701.335 -2.46335 -3.35099 0
M  V30 7631 H 699.912 -0.659911 -3.67014 0
M  V30 7632 N 702.098 1.27442 -0.927168 0
M  V30 7633 C 703.028 2.29256 -0.443188 0
M  V30 7634 C 704.009 1.62701 0.49624 0
M  V30 7635 O 705.194 1.90013 0.401105 0
M  V30 7636 C 702.324 3.45955 0.305366 0
M  V30 7637 C 701.278 4.24501 -0.546178 0
M  V30 7638 C 700.604 5.33671 0.331512 0
M  V30 7639 C 701.904 4.89921 -1.81037 0
M  V30 7640 H 703.598 2.69988 -1.29409 0
M  V30 7641 H 701.144 1.29792 -0.623705 0
M  V30 7642 H 703.097 4.1628 0.654885 0
M  V30 7643 H 701.821 3.04138 1.19029 0
M  V30 7644 H 700.48 3.55921 -0.878398 0
M  V30 7645 H 700.128 4.88096 1.21537 0
M  V30 7646 H 699.828 5.87131 -0.234746 0
M  V30 7647 H 701.352 6.0684 0.676614 0
M  V30 7648 H 702.766 5.52536 -1.52895 0
M  V30 7649 H 701.163 5.53436 -2.32009 0
M  V30 7650 H 702.233 4.13652 -2.53021 0
M  V30 7651 N 703.576 0.692616 1.41565 0
M  V30 7652 C 704.824 0.221896 2.00878 0
M  V30 7653 C 705.145 -1.18164 1.5512 0
M  V30 7654 O 704.415 -1.79679 0.78054 0
M  V30 7655 H 702.995 0.0790463 0.742806 0
M  V30 7656 H 705.657 0.893115 1.73232 0
M  V30 7657 H 704.753 0.23702 3.11199 0
M  V30 7658 N 705.054 -1.51416 0.437162 0
M  V30 7659 C 706.465 -1.86682 -0.0260005 0
M  V30 7660 C 706.816 -1.35432 -1.4196 0
M  V30 7661 O 705.941 -0.705055 -2.04592 0
M  V30 7662 C 706.536 -3.38757 -0.0539577 0
M  V30 7663 C 705.095 -3.7356 -0.461532 0
M  V30 7664 C 704.242 -2.75134 0.345924 0
M  V30 7665 H 707.193 -1.44642 0.653013 0
M  V30 7666 H 707.214 -3.70573 -0.863478 0
M  V30 7667 H 706.726 -3.76028 0.96045 0
M  V30 7668 H 704.827 -3.41878 -1.48155 0
M  V30 7669 H 704.94 -4.78737 -0.186451 0
M  V30 7670 H 703.304 -2.53947 -0.195739 0
M  V30 7671 H 704.087 -3.15247 1.35921 0
M  V30 7672 N 706.532 -0.168513 -1.56696 0
M  V30 7673 C 707.948 0.187686 -1.58493 0
M  V30 7674 C 708.148 1.63063 -1.18375 0
M  V30 7675 O 707.204 2.36142 -0.894042 0
M  V30 7676 C 708.517 -0.0905858 -3.00564 0
M  V30 7677 C 710.065 -0.028575 -3.12987 0
M  V30 7678 C 710.54 -0.279799 -4.57145 0
M  V30 7679 N 712.031 -0.227476 -4.62641 0
M  V30 7680 C 712.766 -0.396073 -5.7203 0
M  V30 7681 N 712.262 -0.623572 -6.89988 0
M  V30 7682 N 714.055 -0.332173 -5.61118 0
M  V30 7683 H 706.206 -1.11042 -1.81062 0
M  V30 7684 H 708.469 -0.441235 -0.839056 0
M  V30 7685 H 708.175 -1.09006 -3.34381 0
M  V30 7686 H 708.049 0.619078 -3.72085 0
M  V30 7687 H 710.436 0.961471 -2.78998 0
M  V30 7688 H 710.517 -0.770905 -2.43907 0
M  V30 7689 H 710.161 -1.26704 -4.91842 0
M  V30 7690 H 710.091 0.48311 -5.24379 0
M  V30 7691 H 712.582 -0.0571723 -3.77857 0
M  V30 7692 H 712.895 -0.741745 -7.69232 0
M  V30 7693 H 711.24 -0.660153 -6.91858 0
M  V30 7694 H 714.431 -0.155051 -4.67843 0
M  V30 7695 H 714.604 -0.466994 -6.46315 0
M  V30 7696 N 708.01 1.57248 0.105221 0
M  V30 7697 C 709.259 1.84756 0.809198 0
M  V30 7698 C 709.572 0.756262 1.80389 0
M  V30 7699 O 710.778 0.918158 2.55504 0
M  V30 7700 C 709.234 3.27613 1.48989 0
M  V30 7701 C 708.842 4.44788 0.535484 0
M  V30 7702 C 710.586 3.64356 2.17819 0
M  V30 7703 C 708.493 5.78676 1.22019 0
M  V30 7704 H 707.423 0.689139 0.305946 0
M  V30 7705 H 710.074 1.83395 0.0620371 0
M  V30 7706 H 708.456 3.23485 2.28415 0
M  V30 7707 H 709.63 4.60243 -0.226557 0
M  V30 7708 H 707.945 4.16374 -0.0465769 0
M  V30 7709 H 710.542 4.61663 2.69761 0
M  V30 7710 H 710.885 2.92474 2.96251 0
M  V30 7711 H 711.418 3.70328 1.45264 0
M  V30 7712 H 708.157 6.53763 0.476875 0
M  V30 7713 H 707.677 5.67083 1.9539 0
M  V30 7714 H 709.356 6.22897 1.74952 0
M  V30 7715 N 709.488 -0.375779 1.53054 0
M  V30 7716 C 710.438 -1.45965 1.75152 0
M  V30 7717 C 711.422 -1.49059 0.605823 0
M  V30 7718 O 712.614 -1.54472 0.864133 0
M  V30 7719 C 709.743 -2.83524 1.93569 0
M  V30 7720 C 708.829 -2.84949 3.1411 0
M  V30 7721 N 709.22 -2.56029 4.36214 0
M  V30 7722 C 707.518 -3.16113 3.14625 0
M  V30 7723 C 708.219 -2.64873 5.17897 0
M  V30 7724 N 707.195 -2.99159 4.53878 0
M  V30 7725 H 710.997 -1.22454 2.67175 0
M  V30 7726 H 708.511 -0.583867 1.51541 0
M  V30 7727 H 710.508 -3.61578 2.07525 0
M  V30 7728 H 709.168 -3.08008 1.02768 0
M  V30 7729 H 710.179 -2.29808 4.64121 0
M  V30 7730 H 706.856 -3.45977 2.3368 0
M  V30 7731 H 708.246 -2.45947 6.25268 0
M  V30 7732 N 710.966 -1.44241 -0.634997 0
M  V30 7733 C 711.929 -1.50457 -1.72903 0
M  V30 7734 C 712.929 -0.387058 -1.56072 0
M  V30 7735 O 714.119 -0.649531 -1.61638 0
M  V30 7736 C 711.251 -1.37477 -3.1195 0
M  V30 7737 H 712.444 -2.47907 -1.68767 0
M  V30 7738 H 709.997 -1.31276 -0.84831 0
M  V30 7739 H 710.732 -0.41106 -3.21684 0
M  V30 7740 H 710.517 -2.18506 -3.25573 0
M  V30 7741 H 712.007 -1.44799 -3.91692 0
M  V30 7742 N 712.444 0.87505 -1.31075 0
M  V30 7743 C 713.374 1.99775 -1.20881 0
M  V30 7744 C 714.355 1.69822 -0.0971612 0
M  V30 7745 O 715.54 1.92158 -0.280895 0
M  V30 7746 C 712.67 3.35163 -0.910118 0
M  V30 7747 C 711.624 3.79406 -1.98078 0
M  V30 7748 C 710.95 5.12197 -1.53488 0
M  V30 7749 C 712.25 3.97061 -3.39323 0
M  V30 7750 H 713.944 2.08562 -2.14808 0
M  V30 7751 H 711.49 1.00207 -1.03415 0
M  V30 7752 H 713.443 4.13237 -0.825423 0
M  V30 7753 H 712.167 3.26536 0.064822 0
M  V30 7754 H 710.826 3.03568 -2.05528 0
M  V30 7755 H 710.474 5.00007 -0.547941 0
M  V30 7756 H 710.174 5.4277 -2.2511 0
M  V30 7757 H 711.698 5.92785 -1.46417 0
M  V30 7758 H 713.112 4.65545 -3.34576 0
M  V30 7759 H 711.509 4.39025 -4.09118 0
M  V30 7760 H 712.579 3.00601 -3.80483 0
M  V30 7761 N 713.922 1.13953 1.08869 0
M  V30 7762 C 715.333 0.916649 1.62648 0
M  V30 7763 C 715.684 -0.545589 1.88462 0
M  V30 7764 O 714.809 -1.41351 1.63856 0
M  V30 7765 C 715.404 1.65751 2.95486 0
M  V30 7766 C 713.963 1.48034 3.46068 0
M  V30 7767 C 713.11 1.68305 2.20383 0
M  V30 7768 H 716.061 1.292 0.921572 0
M  V30 7769 H 716.082 1.11794 3.63707 0
M  V30 7770 H 715.594 2.72171 2.76667 0
M  V30 7771 H 713.695 0.439416 3.7 0
M  V30 7772 H 713.808 2.24719 4.23129 0
M  V30 7773 H 712.172 1.10833 2.29321 0
M  V30 7774 H 712.955 2.76057 2.04077 0
M  V30 7775 N 715.4 -1.26948 0.933913 0
M  V30 7776 C 716.31 -2.30366 0.443671 0
M  V30 7777 C 717.326 -1.67284 -0.478745 0
M  V30 7778 O 718.502 -1.98156 -0.360043 0
M  V30 7779 C 715.567 -3.45485 -0.289974 0
M  V30 7780 C 714.628 -4.24069 0.668114 0
M  V30 7781 C 713.861 -5.33691 -0.0306138 0
M  V30 7782 O 714.084 -5.5656 -1.24888 0
M  V30 7783 O 713.018 -5.98441 0.644384 0
M  V30 7784 H 716.844 -2.74349 1.30254 0
M  V30 7785 H 714.429 -1.32012 0.699506 0
M  V30 7786 H 716.311 -4.15486 -0.70353 0
M  V30 7787 H 714.986 -3.03546 -1.12435 0
M  V30 7788 H 713.893 -3.56579 1.13147 0
M  V30 7789 H 715.226 -4.69739 1.46989 0
M  V30 7790 N 716.879 -0.700114 -1.41195 0
M  V30 7791 C 718.104 -0.240704 -2.05998 0
M  V30 7792 C 718.529 1.10313 -1.52357 0
M  V30 7793 O 717.887 1.69154 -0.652424 0
M  V30 7794 C 717.935 -0.213783 -3.59966 0
M  V30 7795 O 717.039 0.809933 -4.04368 0
M  V30 7796 H 716.38 -0.116471 -0.653705 0
M  V30 7797 H 718.91 -0.956251 -1.80878 0
M  V30 7798 H 718.92 -0.0461852 -4.07974 0
M  V30 7799 H 717.595 -1.19454 -3.98376 0
M  V30 7800 H 716.172 0.611319 -3.67855 0
M  V30 7801 N 718.357 1.51182 -0.445186 0
M  V30 7802 C 719.603 2.02452 0.11882 0
M  V30 7803 C 719.936 1.32824 1.41673 0
M  V30 7804 O 719.211 0.445637 1.89326 0
M  V30 7805 C 719.494 3.5859 0.329475 0
M  V30 7806 C 719.347 4.38823 -0.987638 0
M  V30 7807 C 720.666 4.26241 1.09575 0
M  V30 7808 H 717.785 0.735819 0.0417092 0
M  V30 7809 H 720.427 1.80747 -0.585718 0
M  V30 7810 H 718.577 3.77214 0.9296 0
M  V30 7811 H 720.249 4.3183 -1.62235 0
M  V30 7812 H 718.492 4.03594 -1.59041 0
M  V30 7813 H 719.163 5.46257 -0.794192 0
M  V30 7814 H 721.639 4.11934 0.587328 0
M  V30 7815 H 720.515 5.35354 1.21191 0
M  V30 7816 H 720.776 3.87635 2.12584 0
M  V30 7817 N 719.835 0.176821 1.56605 0
M  V30 7818 C 721.06 -0.47599 2.01864 0
M  V30 7819 C 721.485 -1.55645 1.05623 0
M  V30 7820 O 720.843 -1.81263 0.0366729 0
M  V30 7821 C 720.891 -1.02619 3.4569 0
M  V30 7822 O 719.995 -2.13996 3.52533 0
M  V30 7823 H 719.336 -0.113363 0.654251 0
M  V30 7824 H 721.866 0.28233 2.02643 0
M  V30 7825 H 721.876 -1.34742 3.85109 0
M  V30 7826 H 720.551 -0.235138 4.15235 0
M  V30 7827 H 719.128 -1.82876 3.24978 0
M  V30 7828 N 721.313 -1.57302 -0.09688 0
M  V30 7829 C 722.562 -1.85183 -0.799388 0
M  V30 7830 C 722.875 -0.765818 -1.79985 0
M  V30 7831 O 724.081 -0.931696 -2.55013 0
M  V30 7832 C 722.537 -3.28399 -1.47249 0
M  V30 7833 C 722.145 -4.45066 -0.511888 0
M  V30 7834 C 723.889 -3.65506 -2.15883 0
M  V30 7835 C 721.796 -5.79315 -1.18948 0
M  V30 7836 H 720.726 -0.690752 -0.302287 0
M  V30 7837 H 723.377 -1.83425 -0.0523104 0
M  V30 7838 H 721.759 -3.24692 -2.26697 0
M  V30 7839 H 722.933 -4.60116 0.250962 0
M  V30 7840 H 721.248 -4.16343 0.0686576 0
M  V30 7841 H 723.845 -4.63087 -2.67309 0
M  V30 7842 H 724.188 -2.94041 -2.94696 0
M  V30 7843 H 724.721 -3.71094 -1.43298 0
M  V30 7844 H 721.46 -6.54007 -0.442198 0
M  V30 7845 H 720.98 -5.68111 -1.9238 0
M  V30 7846 H 722.659 -6.23816 -1.71646 0
M  V30 7847 N 722.791 0.367657 -1.53252 0
M  V30 7848 C 724.038 1.11052 -1.69333 0
M  V30 7849 C 724.366 1.89363 -0.444064 0
M  V30 7850 O 723.621 1.87094 0.573953 0
M  V30 7851 C 723.92 2.09825 -2.89324 0
M  V30 7852 C 723.586 1.4801 -4.25915 0
M  V30 7853 C 722.248 1.30879 -4.6306 0
M  V30 7854 C 724.6 1.03268 -5.10867 0
M  V30 7855 C 721.928 0.675868 -5.82794 0
M  V30 7856 C 724.28 0.41377 -6.31245 0
M  V30 7857 C 722.944 0.229939 -6.67104 0
M  V30 7858 H 722.214 0.406367 -0.619634 0
M  V30 7859 H 724.861 0.392558 -1.87433 0
M  V30 7860 H 723.166 2.87917 -2.65728 0
M  V30 7861 H 724.863 2.67252 -2.98961 0
M  V30 7862 H 721.453 1.62336 -3.96667 0
M  V30 7863 H 725.637 1.15297 -4.82722 0
M  V30 7864 H 720.893 0.521833 -6.09169 0
M  V30 7865 H 725.067 0.0588768 -6.96375 0
M  V30 7866 H 722.694 -0.262562 -7.59746 0
M  V30 7867 N 724.269 1.44576 0.627338 0
M  V30 7868 C 725.494 1.51271 1.41887 0
M  V30 7869 C 725.919 0.139814 1.8758 0
M  V30 7870 O 725.277 -0.871746 1.58966 0
M  V30 7871 C 725.325 2.48529 2.61277 0
M  V30 7872 O 724.429 1.98944 3.61241 0
M  V30 7873 H 723.77 0.510668 0.424399 0
M  V30 7874 H 726.3 1.89746 0.765356 0
M  V30 7875 H 726.31 2.66689 3.08773 0
M  V30 7876 H 724.985 3.48249 2.27366 0
M  V30 7877 H 723.562 1.90568 3.20528 0
M  V30 7878 N 725.747 -0.868086 1.31537 0
M  V30 7879 C 726.677 -1.99131 1.21939 0
M  V30 7880 C 727.658 -1.69768 0.106166 0
M  V30 7881 O 728.843 -1.92006 0.291081 0
M  V30 7882 C 725.973 -3.34676 0.927879 0
M  V30 7883 C 724.927 -3.7835 2.00088 0
M  V30 7884 C 724.253 -5.11375 1.56203 0
M  V30 7885 C 725.553 -3.95256 3.41424 0
M  V30 7886 H 727.247 -2.07419 2.15911 0
M  V30 7887 H 724.793 -0.996569 1.03945 0
M  V30 7888 H 726.746 -4.12793 0.847327 0
M  V30 7889 H 725.47 -3.26565 -0.0475042 0
M  V30 7890 H 724.129 -3.02474 2.07135 0
M  V30 7891 H 723.777 -4.99709 0.57445 0
M  V30 7892 H 723.477 -5.41568 2.27985 0
M  V30 7893 H 725.001 -5.92001 1.49558 0
M  V30 7894 H 726.415 -4.63764 3.3704 0
M  V30 7895 H 724.812 -4.36849 4.1144 0
M  V30 7896 H 725.882 -2.98579 3.82072 0
M  V30 7897 N 727.225 -1.14528 -1.08264 0
M  V30 7898 C 728.172 -0.833556 -2.15222 0
M  V30 7899 C 729.142 0.209539 -1.64773 0
M  V30 7900 O 730.327 0.0791388 -1.90636 0
M  V30 7901 C 727.467 -0.318799 -3.43624 0
M  V30 7902 C 726.58 -1.42237 -4.07913 0
M  V30 7903 C 725.715 -0.864704 -5.24115 0
M  V30 7904 C 724.754 -1.94585 -5.80347 0
M  V30 7905 N 723.891 -1.40525 -6.87893 0
M  V30 7906 H 728.731 -1.74965 -2.41228 0
M  V30 7907 H 726.268 -0.873169 -1.18381 0
M  V30 7908 H 728.226 -0.00213088 -4.172 0
M  V30 7909 H 726.856 0.560397 -3.17898 0
M  V30 7910 H 725.908 -1.8554 -3.32083 0
M  V30 7911 H 727.22 -2.23901 -4.45724 0
M  V30 7912 H 726.374 -0.500025 -6.04636 0
M  V30 7913 H 725.113 -0.0171219 -4.87697 0
M  V30 7914 H 724.118 -2.31946 -4.98479 0
M  V30 7915 H 725.343 -2.79704 -6.18823 0
M  V30 7916 H 723.289 -0.579873 -6.53432 0
M  V30 7917 H 723.206 -2.15825 -7.24538 0
M  V30 7918 H 724.474 -1.06852 -7.72142 0
M  V30 7919 N 728.703 1.26451 -0.940633 0
M  V30 7920 C 729.613 2.30128 -0.455881 0
M  V30 7921 C 730.629 1.67536 0.469867 0
M  V30 7922 O 731.805 1.98344 0.349529 0
M  V30 7923 C 728.87 3.45634 0.271648 0
M  V30 7924 C 727.931 4.23709 -0.690594 0
M  V30 7925 C 727.164 5.337 0.00231047 0
M  V30 7926 O 727.387 5.57215 1.21935 0
M  V30 7927 O 726.321 5.98091 -0.676111 0
M  V30 7928 H 730.147 2.73655 -1.31707 0
M  V30 7929 H 727.732 1.3164 -0.706497 0
M  V30 7930 H 729.614 4.15853 0.681486 0
M  V30 7931 H 728.289 3.04138 1.10824 0
M  V30 7932 H 727.196 3.55974 -1.15037 0
M  V30 7933 H 728.529 4.68953 -1.49478 0
M  V30 7934 N 730.181 0.707592 1.40822 0
M  V30 7935 C 731.43 0.240705 2.00259 0
M  V30 7936 C 731.743 -1.17027 1.56729 0
M  V30 7937 O 732.949 -1.73526 2.08809 0
M  V30 7938 C 731.405 0.379432 3.57894 0
M  V30 7939 C 731.013 1.79654 4.104 0
M  V30 7940 C 732.757 -0.0270684 4.24491 0
M  V30 7941 C 730.664 1.88628 5.60512 0
M  V30 7942 H 729.594 0.0862369 0.749052 0
M  V30 7943 H 732.245 0.877528 1.61157 0
M  V30 7944 H 730.627 -0.325842 3.94657 0
M  V30 7945 H 731.801 2.53155 3.85032 0
M  V30 7946 H 730.116 2.15379 3.56372 0
M  V30 7947 H 732.713 0.0193743 5.34696 0
M  V30 7948 H 733.056 -1.06772 4.02375 0
M  V30 7949 H 733.589 0.628361 3.92806 0
M  V30 7950 H 730.328 2.90787 5.87472 0
M  V30 7951 H 729.848 1.19528 5.8777 0
M  V30 7952 H 731.527 1.6547 6.25483 0
M  V30 7953 N 731.66 -1.50943 0.453197 0
M  V30 7954 C 732.592 -2.25922 -0.38623 0
M  V30 7955 C 733.605 -1.3055 -0.972652 0
M  V30 7956 O 734.794 -1.56191 -0.864097 0
M  V30 7957 C 731.894 -3.01176 -1.5539 0
M  V30 7958 C 731.067 -4.23768 -1.0835 0
M  V30 7959 C 730.126 -4.81466 -2.12313 0
M  V30 7960 O 729.152 -5.42875 -1.71101 0
M  V30 7961 N 730.354 -4.66889 -3.44956 0
M  V30 7962 H 733.119 -2.98601 0.256468 0
M  V30 7963 H 730.68 -1.59408 0.282965 0
M  V30 7964 H 732.672 -3.36659 -2.24594 0
M  V30 7965 H 731.242 -2.31409 -2.10163 0
M  V30 7966 H 730.462 -3.93597 -0.217961 0
M  V30 7967 H 731.75 -5.03289 -0.746857 0
M  V30 7968 H 731.148 -4.18011 -3.81161 0
M  V30 7969 H 729.705 -5.06691 -4.1001 0
M  V30 7970 N 733.138 -0.185124 -1.56509 0
M  V30 7971 C 734.068 0.735098 -2.21627 0
M  V30 7972 C 735.049 1.2288 -1.1762 0
M  V30 7973 O 736.234 1.27945 -1.46095 0
M  V30 7974 C 733.364 1.95889 -2.86783 0
M  V30 7975 C 732.318 1.6005 -3.96948 0
M  V30 7976 C 731.644 2.90009 -4.4922 0
M  V30 7977 C 732.944 0.818008 -5.15855 0
M  V30 7978 H 734.638 0.192274 -2.98782 0
M  V30 7979 H 732.184 0.0910393 -1.43712 0
M  V30 7980 H 734.137 2.60779 -3.31017 0
M  V30 7981 H 732.861 2.52608 -2.07018 0
M  V30 7982 H 731.52 0.975237 -3.5339 0
M  V30 7983 H 731.168 3.44797 -3.6623 0
M  V30 7984 H 730.868 2.66778 -5.23549 0
M  V30 7985 H 732.392 3.55904 -4.9615 0
M  V30 7986 H 733.806 1.36979 -5.56695 0
M  V30 7987 H 732.203 0.684207 -5.96187 0
M  V30 7988 H 733.273 -0.182939 -4.84555 0
M  V30 7989 N 734.616 1.57351 0.0885366 0
M  V30 7990 C 735.548 1.99221 1.13329 0
M  V30 7991 C 736.561 0.895705 1.35945 0
M  V30 7992 O 737.75 1.17376 1.34481 0
M  V30 7993 C 734.85 2.3016 2.48756 0
M  V30 7994 C 734.023 3.61444 2.46327 0
M  V30 7995 C 733.082 3.80244 3.63732 0
M  V30 7996 O 732.108 4.52024 3.45924 0
M  V30 7997 N 733.31 3.2132 4.8346 0
M  V30 7998 H 736.075 2.89456 0.776862 0
M  V30 7999 H 733.636 1.59505 0.277428 0
M  V30 8000 H 735.628 2.39925 3.25911 0
M  V30 8001 H 734.198 1.459 2.76464 0
M  V30 8002 H 733.418 3.62588 1.54673 0
M  V30 8003 H 734.706 4.47678 2.41789 0
M  V30 8004 H 734.104 2.63028 5.00832 0
M  V30 8005 H 732.661 3.3656 5.58185 0
M  V30 8006 N 736.094 -0.359525 1.53444 0
M  V30 8007 C 737.041 -1.44073 1.8031 0
M  V30 8008 C 738.011 -1.52946 0.647811 0
M  V30 8009 O 739.196 -1.68739 0.890614 0
M  V30 8010 C 736.336 -2.80941 2.00416 0
M  V30 8011 C 735.449 -2.80986 3.28132 0
M  V30 8012 C 734.584 -4.09468 3.38393 0
M  V30 8013 C 733.623 -4.03679 4.60119 0
M  V30 8014 N 732.76 -5.23821 4.675 0
M  V30 8015 H 737.6 -1.20464 2.72566 0
M  V30 8016 H 735.137 -0.583859 1.35017 0
M  V30 8017 H 737.095 -3.60459 2.1006 0
M  V30 8018 H 735.725 -3.02936 1.11489 0
M  V30 8019 H 734.777 -1.93666 3.27411 0
M  V30 8020 H 736.089 -2.72583 4.17732 0
M  V30 8021 H 735.243 -4.97404 3.47382 0
M  V30 8022 H 733.982 -4.20632 2.4682 0
M  V30 8023 H 732.987 -3.14129 4.51224 0
M  V30 8024 H 734.212 -3.94112 5.5304 0
M  V30 8025 H 732.158 -5.35559 3.7883 0
M  V30 8026 H 732.075 -5.17611 5.51013 0
M  V30 8027 H 733.343 -6.13572 4.8078 0
M  V30 8028 N 737.572 -1.44907 -0.619662 0
M  V30 8029 C 738.849 -1.38766 -1.37852 0
M  V30 8030 C 739.229 -0.0521393 -2.11036 0
M  V30 8031 O 738.577 0.965613 -2.07095 0
M  V30 8032 C 738.787 -2.59344 -2.33541 0
M  V30 8033 C 740.135 -3.03909 -2.96521 0
M  V30 8034 O 741.159 -2.59631 -2.43865 0
M  V30 8035 O 740.018 -3.80713 -3.92071 0
M  V30 8036 H 737.112 -0.550083 -0.617525 0
M  V30 8037 H 739.658 -1.57015 -0.643759 0
M  V30 8038 H 738.43 -3.48142 -1.78642 0
M  V30 8039 H 738.053 -2.43367 -3.14417 0
M  V30 8040 N 739.05 0.861098 -1.31996 0
M  V30 8041 C 740.461 1.43065 -1.19955 0
M  V30 8042 C 740.812 1.95273 0.190489 0
M  V30 8043 O 739.937 1.87012 1.08882 0
M  V30 8044 C 740.532 2.60052 -2.1716 0
M  V30 8045 C 739.091 3.13026 -2.09026 0
M  V30 8046 C 738.238 1.85756 -2.05888 0
M  V30 8047 H 741.189 0.668834 -1.43918 0
M  V30 8048 H 741.21 3.37016 -1.76637 0
M  V30 8049 H 740.722 2.22024 -3.18319 0
M  V30 8050 H 738.823 3.55653 -1.11092 0
M  V30 8051 H 738.936 3.74707 -2.98549 0
M  V30 8052 H 737.3 2.05088 -1.51033 0
M  V30 8053 H 738.083 1.49954 -3.08818 0
M  V30 8054 N 740.528 1.15101 1.07655 0
M  V30 8055 C 741.776 0.922149 1.79836 0
M  V30 8056 C 742.097 -0.552346 1.87014 0
M  V30 8057 O 741.367 -1.40145 1.3688 0
M  V30 8058 H 739.947 0.338182 0.666064 0
M  V30 8059 H 742.609 1.45107 1.30115 0
M  V30 8060 H 741.705 1.32883 2.82398 0
M  V30 8061 N 742.006 -1.2595 0.947325 0
M  V30 8062 C 743.253 -1.93463 0.598178 0
M  V30 8063 C 743.581 -1.74271 -0.863705 0
M  V30 8064 O 742.836 -1.07684 -1.63409 0
M  V30 8065 C 743.135 -3.46034 0.894158 0
M  V30 8066 C 742.801 -3.85373 2.3409 0
M  V30 8067 C 741.463 -3.95823 2.73637 0
M  V30 8068 C 743.815 -4.04986 3.2808 0
M  V30 8069 C 741.143 -4.23288 4.06257 0
M  V30 8070 C 743.495 -4.3394 4.60303 0
M  V30 8071 C 742.159 -4.42606 4.99656 0
M  V30 8072 H 741.429 -0.707933 0.218889 0
M  V30 8073 H 744.076 -1.4964 1.19499 0
M  V30 8074 H 742.381 -3.9121 0.214874 0
M  V30 8075 H 744.078 -3.96445 0.602698 0
M  V30 8076 H 740.668 -3.7779 2.02417 0
M  V30 8077 H 744.852 -3.96333 2.9872 0
M  V30 8078 H 740.108 -4.28211 4.36401 0
M  V30 8079 H 744.282 -4.48061 5.33118 0
M  V30 8080 H 741.909 -4.63641 6.02446 0
M  V30 8081 N 743.484 -0.715051 -1.40445 0
M  V30 8082 C 744.9 -0.388555 -1.54798 0
M  V30 8083 C 745.1 1.10271 -1.68649 0
M  V30 8084 O 744.156 1.88875 -1.67578 0
M  V30 8085 C 745.469 -1.15414 -2.77669 0
M  V30 8086 C 747.017 -1.14039 -2.91486 0
M  V30 8087 C 747.492 -1.88812 -4.1727 0
M  V30 8088 N 748.983 -1.85878 -4.24268 0
M  V30 8089 C 749.718 -2.40558 -5.20499 0
M  V30 8090 N 749.214 -3.03791 -6.22642 0
M  V30 8091 N 751.007 -2.30703 -5.12574 0
M  V30 8092 H 743.158 -1.68201 -1.297 0
M  V30 8093 H 745.421 -0.710915 -0.627139 0
M  V30 8094 H 745.127 -2.20853 -2.7371 0
M  V30 8095 H 745.001 -0.745412 -3.69761 0
M  V30 8096 H 747.388 -0.0941996 -2.9495 0
M  V30 8097 H 747.469 -1.58834 -2.00513 0
M  V30 8098 H 747.113 -2.93422 -4.14568 0
M  V30 8099 H 747.043 -1.41438 -5.0725 0
M  V30 8100 H 749.534 -1.39794 -3.51093 0
M  V30 8101 H 749.847 -3.43032 -6.92495 0
M  V30 8102 H 748.192 -3.07875 -6.23087 0
M  V30 8103 H 751.383 -1.80961 -4.31707 0
M  V30 8104 H 751.556 -2.73618 -5.87398 0
M  V30 8105 N 744.962 1.50701 -0.461195 0
M  V30 8106 C 745.91 2.29918 0.352231 0
M  V30 8107 C 746.904 1.36778 0.999403 0
M  V30 8108 O 748.11 1.54015 0.931639 0
M  V30 8109 H 744.485 0.740249 0.132423 0
M  V30 8110 H 746.456 2.96497 -0.336424 0
M  V30 8111 C 745.205 3.17052 1.42736 0
M  V30 8112 H 744.528 3.88623 0.938747 0
M  V30 8113 H 745.968 3.75493 1.96928 0
M  V30 8114 C 744.427 2.3399 2.42384 0
M  V30 8115 O 744.957 2.01608 3.47444 0
M  V30 8116 N 743.163 1.96758 2.13857 0
M  V30 8117 H 742.71 2.23292 1.28447 0
M  V30 8118 H 742.668 1.41484 2.80766 0
M  V30 8119 N 746.441 0.193421 1.56409 0
M  V30 8120 C 747.666 -0.454552 2.02358 0
M  V30 8121 C 748.091 -1.54516 1.07268 0
M  V30 8122 O 747.449 -1.81214 0.0558962 0
M  V30 8123 C 747.497 -0.989469 3.46759 0
M  V30 8124 O 746.601 -2.10244 3.54783 0
M  V30 8125 H 745.942 -0.106417 0.655417 0
M  V30 8126 H 748.472 0.303807 2.02332 0
M  V30 8127 H 748.482 -1.30649 3.86516 0
M  V30 8128 H 747.157 -0.191083 4.15461 0
M  V30 8129 H 745.734 -1.79419 3.26899 0
M  V30 8130 N 747.919 -1.57396 -0.0801906 0
M  V30 8131 C 749.144 -1.91437 -0.797909 0
M  V30 8132 C 749.569 -0.789075 -1.70749 0
M  V30 8133 O 748.927 0.25857 -1.79447 0
M  V30 8134 C 748.975 -3.24402 -1.57467 0
M  V30 8135 O 748.079 -3.13043 -2.68473 0
M  V30 8136 H 747.42 -0.627109 -0.218243 0
M  V30 8137 H 749.95 -2.04537 -0.050949 0
M  V30 8138 H 749.96 -3.58072 -1.95571 0
M  V30 8139 H 748.635 -4.05884 -0.907229 0
M  V30 8140 H 747.212 -2.90915 -2.33287 0
M  V30 8141 N 749.397 0.351382 -1.53633 0
M  V30 8142 C 750.627 1.11113 -1.74176 0
M  V30 8143 C 751.035 1.83084 -0.477154 0
M  V30 8144 O 750.378 1.74941 0.560483 0
M  V30 8145 C 750.44 2.17521 -2.86225 0
M  V30 8146 C 750.104 1.65193 -4.26099 0
M  V30 8147 C 751.101 1.10842 -5.07947 0
M  V30 8148 C 748.786 1.70277 -4.72558 0
M  V30 8149 C 750.78 0.622689 -6.34351 0
M  V30 8150 C 748.467 1.21316 -5.98937 0
M  V30 8151 C 749.465 0.674033 -6.79666 0
M  V30 8152 O 749.153 0.191696 -8.03671 0
M  V30 8153 H 748.885 0.33756 -0.585687 0
M  V30 8154 H 751.439 0.411786 -2.0123 0
M  V30 8155 H 749.669 2.90991 -2.54678 0
M  V30 8156 H 751.358 2.78999 -2.94812 0
M  V30 8157 H 752.124 1.06243 -4.7322 0
M  V30 8158 H 748.003 2.11181 -4.09785 0
M  V30 8159 H 751.547 0.201216 -6.9731 0
M  V30 8160 H 747.444 1.25613 -6.3316 0
M  V30 8161 H 748.212 0.309712 -8.17914 0
M  V30 8162 N 750.875 1.45233 0.611969 0
M  V30 8163 C 752.286 1.4354 1.19387 0
M  V30 8164 C 752.637 0.160713 1.95541 0
M  V30 8165 O 751.762 -0.737954 2.03429 0
M  V30 8166 C 752.357 2.60045 2.17169 0
M  V30 8167 C 750.916 2.61486 2.70744 0
M  V30 8168 C 750.063 2.35708 1.46072 0
M  V30 8169 H 753.014 1.53536 0.401529 0
M  V30 8170 H 753.035 2.33893 3.00124 0
M  V30 8171 H 752.547 3.52803 1.61714 0
M  V30 8172 H 750.648 1.72721 3.30149 0
M  V30 8173 H 750.761 3.60572 3.15476 0
M  V30 8174 H 749.125 1.85178 1.74875 0
M  V30 8175 H 749.908 3.30606 0.924922 0
M  V30 8176 N 752.353 -0.854086 1.3245 0
M  V30 8177 C 753.263 -1.99503 1.23434 0
M  V30 8178 C 754.279 -1.73371 0.147828 0
M  V30 8179 O 755.455 -1.97998 0.368609 0
M  V30 8180 C 752.52 -3.33192 0.958328 0
M  V30 8181 C 751.581 -3.72542 2.13333 0
M  V30 8182 C 750.814 -4.99852 1.8704 0
M  V30 8183 O 751.037 -5.64573 0.813239 0
M  V30 8184 O 749.971 -5.36345 2.73161 0
M  V30 8185 H 753.797 -2.10046 2.1935 0
M  V30 8186 H 751.382 -0.984823 1.12346 0
M  V30 8187 H 753.264 -4.13327 0.820918 0
M  V30 8188 H 751.939 -3.23687 0.0293299 0
M  V30 8189 H 750.846 -2.92981 2.32622 0
M  V30 8190 H 752.179 -3.86694 3.04514 0
M  V30 8191 N 753.831 -1.1567 -1.07043 0
M  V30 8192 C 755.059 -0.957471 -1.83412 0
M  V30 8193 C 755.474 0.494271 -1.82215 0
M  V30 8194 O 754.831 1.34288 -1.23584 0
M  V30 8195 C 754.882 -1.46784 -3.30359 0
M  V30 8196 O 754.603 -2.86271 -3.31633 0
M  V30 8197 C 756.104 -1.31054 -4.23485 0
M  V30 8198 H 753.324 -0.33986 -0.578564 0
M  V30 8199 H 755.868 -1.53518 -1.35102 0
M  V30 8200 H 754.023 -0.932586 -3.76007 0
M  V30 8201 H 754.437 -3.0948 -4.23465 0
M  V30 8202 H 755.911 -1.71605 -5.24648 0
M  V30 8203 H 756.388 -0.255107 -4.38458 0
M  V30 8204 H 756.994 -1.83503 -3.83676 0
M  V30 8205 N 755.309 1.25446 -0.953992 0
M  V30 8206 C 756.557 1.92762 -0.607227 0
M  V30 8207 C 756.878 1.7509 0.858399 0
M  V30 8208 O 756.148 1.11416 1.61132 0
M  V30 8209 H 754.728 0.713377 -0.221591 0
M  V30 8210 H 757.39 1.52625 -1.21209 0
M  V30 8211 H 756.486 3.00695 -0.835998 0
M  V30 8212 N 756.787 0.722489 1.40064 0
M  V30 8213 C 757.737 0.0506801 2.27944 0
M  V30 8214 C 758.721 -0.725493 1.43615 0
M  V30 8215 O 759.913 -0.596559 1.66644 0
M  V30 8216 C 757.042 -0.865195 3.32219 0
M  V30 8217 C 756.128 -0.0838393 4.24017 0
M  V30 8218 N 756.519 0.936516 4.97054 0
M  V30 8219 C 754.817 -0.315371 4.44884 0
M  V30 8220 C 755.518 1.4066 5.64437 0
M  V30 8221 N 754.494 0.727485 5.3871 0
M  V30 8222 H 758.296 0.832609 2.8186 0
M  V30 8223 H 755.81 0.555691 1.52597 0
M  V30 8224 H 757.807 -1.36186 3.94029 0
M  V30 8225 H 756.467 -1.64642 2.79862 0
M  V30 8226 H 757.478 1.31755 5.0086 0
M  V30 8227 H 754.155 -1.07238 4.03492 0
M  V30 8228 H 755.545 2.25482 6.32936 0
M  V30 8229 N 758.265 -1.50454 0.469181 0
M  V30 8230 C 759.513 -2.01916 -0.0862982 0
M  V30 8231 C 759.834 -1.35337 -1.40388 0
M  V30 8232 O 759.104 -0.498096 -1.89462 0
M  V30 8233 H 757.684 -0.746185 -0.0348825 0
M  V30 8234 H 760.346 -1.84804 0.619167 0
M  V30 8235 H 759.442 -3.11182 -0.239189 0
M  V30 8236 N 759.743 -0.201713 -1.56304 0
M  V30 8237 C 760.69 0.716499 -2.19397 0
M  V30 8238 C 761.66 1.20494 -1.14326 0
M  V30 8239 O 762.845 1.26763 -1.42604 0
M  V30 8240 C 759.985 1.92762 -2.86246 0
M  V30 8241 C 759.098 1.47993 -4.0586 0
M  V30 8242 C 758.233 2.64706 -4.60547 0
M  V30 8243 C 757.272 2.16576 -5.72504 0
M  V30 8244 N 756.409 3.26491 -6.21569 0
M  V30 8245 H 761.249 0.171724 -2.97505 0
M  V30 8246 H 758.786 0.073016 -1.46919 0
M  V30 8247 H 760.744 2.6384 -3.23178 0
M  V30 8248 H 759.374 2.44559 -2.10691 0
M  V30 8249 H 758.426 0.66477 -3.74546 0
M  V30 8250 H 759.738 1.08686 -4.86815 0
M  V30 8251 H 758.892 3.43898 -4.99819 0
M  V30 8252 H 757.631 3.0729 -3.78713 0
M  V30 8253 H 756.636 1.3584 -5.32755 0
M  V30 8254 H 757.861 1.75015 -6.56161 0
M  V30 8255 H 755.807 3.68594 -5.42655 0
M  V30 8256 H 755.724 2.91374 -6.97594 0
M  V30 8257 H 756.992 4.05877 -6.65495 0
M  V30 8258 N 761.222 1.57436 0.0718424 0
M  V30 8259 C 762.17 2.04725 1.10411 0
M  V30 8260 C 763.164 0.952579 1.4008 0
M  V30 8261 O 764.37 1.13769 1.39487 0
M  V30 8262 H 760.745 0.652749 0.373393 0
M  V30 8263 H 762.716 2.90569 0.679126 0
M  V30 8264 C 761.465 2.5068 2.40946 0
M  V30 8265 H 760.788 3.34505 2.18967 0
M  V30 8266 H 762.228 2.87521 3.11621 0
M  V30 8267 C 760.687 1.38971 3.06902 0
M  V30 8268 O 761.217 0.731786 3.94978 0
M  V30 8269 N 759.423 1.13485 2.67525 0
M  V30 8270 H 758.97 1.67168 1.95991 0
M  V30 8271 H 758.928 0.389467 3.11978 0
M  V30 8272 N 762.7 -0.34323 1.53817 0
M  V30 8273 C 764.116 -0.686355 1.44088 0
M  V30 8274 C 764.316 -1.92426 0.597882 0
M  V30 8275 O 763.372 -2.52343 0.0889918 0
M  V30 8276 C 764.685 -0.878698 2.87575 0
M  V30 8277 C 766.233 -0.977296 2.97352 0
M  V30 8278 C 766.708 -1.20195 4.41947 0
M  V30 8279 N 768.199 -1.26915 4.45474 0
M  V30 8280 C 768.934 -1.46049 5.54488 0
M  V30 8281 N 768.43 -1.62354 6.73508 0
M  V30 8282 N 770.223 -1.48599 5.42102 0
M  V30 8283 H 762.374 0.470679 2.07119 0
M  V30 8284 H 764.637 0.148652 0.936273 0
M  V30 8285 H 764.343 -0.040602 3.51677 0
M  V30 8286 H 764.217 -1.78034 3.32541 0
M  V30 8287 H 766.604 -1.80591 2.3339 0
M  V30 8288 H 766.685 -0.0525498 2.55746 0
M  V30 8289 H 766.329 -0.378262 5.06489 0
M  V30 8290 H 766.259 -2.14027 4.81145 0
M  V30 8291 H 768.75 -1.15837 3.59708 0
M  V30 8292 H 769.063 -1.76591 7.52353 0
M  V30 8293 H 767.408 -1.5949 6.76453 0
M  V30 8294 H 770.599 -1.35443 4.48077 0
M  V30 8295 H 770.772 -1.6317 6.2712 0
M  V30 8296 N 764.178 -1.45556 -0.604258 0
M  V30 8297 C 765.594 -1.30035 -0.925368 0
M  V30 8298 C 765.794 -0.255833 -1.99869 0
M  V30 8299 O 764.85 0.349076 -2.50075 0
M  V30 8300 C 766.163 -2.68028 -1.36314 0
M  V30 8301 C 767.711 -2.75951 -1.47717 0
M  V30 8302 C 768.186 -4.14476 -1.94868 0
M  V30 8303 N 769.677 -4.16787 -2.02097 0
M  V30 8304 C 770.412 -5.20845 -2.39809 0
M  V30 8305 N 769.908 -6.35246 -2.76467 0
M  V30 8306 N 771.701 -5.08204 -2.40177 0
M  V30 8307 H 763.852 -2.1214 0.10512 0
M  V30 8308 H 766.115 -0.947871 -0.0156303 0
M  V30 8309 H 765.821 -3.45667 -0.648628 0
M  V30 8310 H 765.695 -2.96711 -2.329 0
M  V30 8311 H 768.082 -1.98613 -2.18258 0
M  V30 8312 H 768.163 -2.50977 -0.494371 0
M  V30 8313 H 767.807 -4.923 -1.24912 0
M  V30 8314 H 767.737 -4.36843 -2.94068 0
M  V30 8315 H 770.228 -3.34233 -1.76343 0
M  V30 8316 H 770.541 -7.10438 -3.04134 0
M  V30 8317 H 768.886 -6.38642 -2.74155 0
M  V30 8318 H 772.077 -4.17874 -2.10947 0
M  V30 8319 H 772.25 -5.89417 -2.69242 0
M  V30 8320 N 765.656 0.84705 -1.32902 0
M  V30 8321 C 766.588 1.96308 -1.18304 0
M  V30 8322 C 767.601 1.62386 -0.116082 0
M  V30 8323 O 768.79 1.74713 -0.365751 0
M  V30 8324 C 765.89 3.29556 -0.790305 0
M  V30 8325 C 765.063 3.91668 -1.94717 0
M  V30 8326 C 764.122 5.0326 -1.53674 0
M  V30 8327 O 763.148 5.22847 -2.24989 0
M  V30 8328 N 764.35 5.78852 -0.437075 0
M  V30 8329 H 767.115 2.09369 -2.14441 0
M  V30 8330 H 764.676 1.02233 -1.25539 0
M  V30 8331 H 766.668 4.01624 -0.49799 0
M  V30 8332 H 765.238 3.12497 0.0801286 0
M  V30 8333 H 764.458 3.12292 -2.40557 0
M  V30 8334 H 765.746 4.299 -2.72146 0
M  V30 8335 H 765.144 5.65484 0.156316 0
M  V30 8336 H 763.701 6.51479 -0.204399 0
M  V30 8337 N 767.134 1.16236 1.06428 0
M  V30 8338 C 768.359 0.967688 1.83441 0
M  V30 8339 C 768.784 -0.479167 1.81894 0
M  V30 8340 O 768.142 -1.34224 1.21875 0
M  V30 8341 C 768.19 1.49806 3.2801 0
M  V30 8342 O 767.294 0.703481 4.06356 0
M  V30 8343 H 766.635 0.344468 0.56766 0
M  V30 8344 H 769.165 1.54442 1.34197 0
M  V30 8345 H 769.175 1.51495 3.78831 0
M  V30 8346 H 767.85 2.55133 3.2845 0
M  V30 8347 H 766.427 0.756986 3.65136 0
M  V30 8348 N 768.612 -1.24939 0.960631 0
M  V30 8349 C 769.545 -2.24116 0.429804 0
M  V30 8350 C 770.523 -1.54972 -0.492188 0
M  V30 8351 O 771.707 -1.83642 -0.42519 0
M  V30 8352 C 768.834 -3.36558 -0.380312 0
M  V30 8353 C 767.88 -4.23757 0.482941 0
M  V30 8354 S 768.713 -4.9994 1.91885 0
M  V30 8355 C 769.869 -6.15846 1.11732 0
M  V30 8356 H 770.102 -2.68795 1.27029 0
M  V30 8357 H 767.635 -1.34108 0.765141 0
M  V30 8358 H 769.593 -4.01777 -0.841764 0
M  V30 8359 H 768.254 -2.90451 -1.19569 0
M  V30 8360 H 767.447 -5.03809 -0.138699 0
M  V30 8361 H 767.049 -3.63504 0.879839 0
M  V30 8362 H 769.341 -6.76495 0.368898 0
M  V30 8363 H 770.284 -6.82356 1.89198 0
M  V30 8364 H 770.692 -5.60805 0.644812 0
M  V30 8365 N 770.09 -0.729906 -1.39679 0
M  V30 8366 C 771.02 -0.101618 -2.33279 0
M  V30 8367 C 772.001 0.729854 -1.53646 0
M  V30 8368 O 773.186 0.67587 -1.82059 0
M  V30 8369 C 770.316 0.81024 -3.37716 0
M  V30 8370 C 769.27 0.0833126 -4.27919 0
M  V30 8371 C 768.596 1.11185 -5.23012 0
M  V30 8372 C 769.896 -1.07107 -5.112 0
M  V30 8373 H 771.59 -0.883452 -2.86069 0
M  V30 8374 H 769.136 -0.426283 -1.37546 0
M  V30 8375 H 771.089 1.25927 -4.02145 0
M  V30 8376 H 769.813 1.62413 -2.83354 0
M  V30 8377 H 768.472 -0.346043 -3.64963 0
M  V30 8378 H 768.12 1.91917 -4.64948 0
M  V30 8379 H 767.82 0.63026 -5.8421 0
M  V30 8380 H 769.344 1.56068 -5.90318 0
M  V30 8381 H 770.758 -0.700726 -5.69002 0
M  V30 8382 H 769.155 -1.48196 -5.81514 0
M  V30 8383 H 770.225 -1.89513 -4.46332 0
M  V30 8384 N 771.568 1.50203 -0.477153 0
M  V30 8385 C 772.815 2.02358 0.0757385 0
M  V30 8386 C 773.143 1.3587 1.39174 0
M  V30 8387 O 772.398 0.475415 1.89838 0
M  V30 8388 C 772.697 3.56127 0.301325 0
M  V30 8389 C 772.363 4.41126 -0.933725 0
M  V30 8390 C 771.025 4.64075 -1.27233 0
M  V30 8391 C 773.377 4.90737 -1.75576 0
M  V30 8392 C 770.705 5.33878 -2.43292 0
M  V30 8393 C 773.057 5.61816 -2.90768 0
M  V30 8394 C 771.721 5.83016 -3.25036 0
M  V30 8395 H 770.991 0.740482 0.0277147 0
M  V30 8396 H 773.638 1.80754 -0.632467 0
M  V30 8397 H 771.943 3.76279 1.09183 0
M  V30 8398 H 773.64 3.94053 0.743184 0
M  V30 8399 H 770.23 4.23489 -0.659935 0
M  V30 8400 H 774.414 4.72856 -1.50734 0
M  V30 8401 H 769.67 5.48499 -2.70109 0
M  V30 8402 H 773.844 5.99237 -3.54807 0
M  V30 8403 H 771.471 6.36881 -4.15074 0
M  V30 8404 O 773.085 0.351473 1.57629 0
M  V30 8405 H 773.776 -0.202268 1.92641 0
M  V30 END ATOM
M  V30 BEGIN BOND
M  V30 END BOND
M  V30 END CTAB
M  END
$$$$
