drugbank_target|O07347 Signal recognition particle protein (DB01942; DB04315)
 OpenBabel12092120003D

  0  0  0     0  0            999 V3000
M  V30 BEGIN CTAB
M  V30 COUNTS 6833 6869 0 0 0
M  V30 BEGIN ATOM
M  V30 1 H -0.908 1.98254 -0.117106 0
M  V30 2 N 0 1.576 0 0
M  V30 3 C 0.933 2.03868 1.02534 0
M  V30 4 C 1.911 0.928543 1.3348 0
M  V30 5 O 3.095 1.19667 1.45644 0
M  V30 6 C 0.222 2.43627 2.35294 0
M  V30 7 C -0.732 3.65373 2.2001 0
M  V30 8 S 0.101 5.13292 1.52614 0
M  V30 9 C 1.257 5.56322 2.86805 0
M  V30 10 H 1.49 2.90518 0.631377 0
M  V30 11 H -0.977 1.52953 0.210867 0
M  V30 12 H 0.981 2.67203 3.11629 0
M  V30 13 H -0.358 1.57376 2.7183 0
M  V30 14 H -1.165 3.90944 3.18086 0
M  V30 15 H -1.563 3.418 1.51819 0
M  V30 16 H 0.729 5.58782 3.83104 0
M  V30 17 H 1.672 6.56266 2.65933 0
M  V30 18 H 2.08 4.83886 2.90714 0
M  V30 19 N 1.4781 -0.272755 1.55222 0
M  V30 20 C 2.7251 -1.00433 1.7584 0
M  V30 21 C 3.0531 -1.86275 0.559629 0
M  V30 22 O 2.3081 -1.90269 -0.457857 0
M  V30 23 C 2.6071 -1.91642 3.01675 0
M  V30 24 C 2.2731 -1.21548 4.34208 0
M  V30 25 C 0.9351 -1.02166 4.70229 0
M  V30 26 C 3.2871 -0.716684 5.16249 0
M  V30 27 C 0.6151 -0.316334 5.85847 0
M  V30 28 C 2.9671 -0.0249476 6.32595 0
M  V30 29 C 1.6311 0.180579 6.67256 0
M  V30 30 H 0.9011 -0.367509 0.643443 0
M  V30 31 H 3.5481 -0.276596 1.89492 0
M  V30 32 H 1.8531 -2.71037 2.82924 0
M  V30 33 H 3.5501 -2.48369 3.14824 0
M  V30 34 H 0.1401 -1.37645 4.05896 0
M  V30 35 H 4.3241 -0.854047 4.88896 0
M  V30 36 H -0.4199 -0.146378 6.11225 0
M  V30 37 H 3.7541 0.369311 6.9542 0
M  V30 38 H 1.3811 0.729098 7.56696 0
M  V30 39 N 2.9562 -1.48159 -0.537278 0
M  V30 40 C 3.8882 -1.58218 -1.65831 0
M  V30 41 C 4.9012 -0.466948 -1.5596 0
M  V30 42 O 6.0902 -0.73747 -1.62553 0
M  V30 43 C 3.1902 -1.48906 -3.04434 0
M  V30 44 C 2.3632 -2.75343 -3.3986 0
M  V30 45 C 1.4222 -2.59588 -4.57712 0
M  V30 46 O 0.4482 -3.33457 -4.61297 0
M  V30 47 N 1.6502 -1.68724 -5.55439 0
M  V30 48 H 4.4152 -2.54891 -1.57641 0
M  V30 49 H 1.9762 -1.4479 -0.724386 0
M  V30 50 H 3.9682 -1.36072 -3.81139 0
M  V30 51 H 2.5382 -0.602368 -3.06741 0
M  V30 52 H 1.7582 -3.02795 -2.52406 0
M  V30 53 H 3.0462 -3.5924 -3.60311 0
M  V30 54 H 2.4442 -1.07898 -5.55315 0
M  V30 55 H 1.0012 -1.61832 -6.3139 0
M  V30 56 N 4.4343 0.785586 -1.36625 0
M  V30 57 C 5.3663 1.90711 -1.2713 0
M  V30 58 C 6.3793 1.61688 -0.189986 0
M  V30 59 O 7.5683 1.72864 -0.445014 0
M  V30 60 C 4.6683 3.25611 -0.939713 0
M  V30 61 C 3.8413 3.82385 -2.12369 0
M  V30 62 C 2.9003 4.95732 -1.76456 0
M  V30 63 O 1.9263 5.12047 -2.48589 0
M  V30 64 N 3.1283 5.76258 -0.700492 0
M  V30 65 H 5.8933 1.99376 -2.23762 0
M  V30 66 H 3.4543 0.964041 -1.30069 0
M  V30 67 H 5.4463 3.98937 -0.680554 0
M  V30 68 H 4.0163 3.12538 -0.0624074 0
M  V30 69 H 3.2363 3.01001 -2.54543 0
M  V30 70 H 4.5243 4.17047 -2.9146 0
M  V30 71 H 3.9223 5.65609 -0.101624 0
M  V30 72 H 2.4793 6.4987 -0.501165 0
M  V30 73 N 5.9124 1.20967 1.01018 0
M  V30 74 C 6.8424 0.988272 2.11555 0
M  V30 75 C 7.8234 -0.0849778 1.69888 0
M  V30 76 O 9.0084 0.0738202 1.9406 0
M  V30 77 C 6.1384 0.546528 3.42973 0
M  V30 78 C 5.0924 1.56375 3.9841 0
M  V30 79 C 4.4184 0.97842 5.25672 0
M  V30 80 C 5.7184 2.94922 4.31066 0
M  V30 81 H 7.4124 1.91276 2.30334 0
M  V30 82 H 4.9584 0.921073 1.1069 0
M  V30 83 H 6.9114 0.378839 4.19694 0
M  V30 84 H 5.6354 -0.413598 3.23971 0
M  V30 85 H 4.2944 1.71891 3.23804 0
M  V30 86 H 3.9424 0.0101688 5.02999 0
M  V30 87 H 3.6424 1.65784 5.63728 0
M  V30 88 H 5.1664 0.821939 6.05043 0
M  V30 89 H 6.5804 2.8288 4.9865 0
M  V30 90 H 4.9774 3.5983 4.80253 0
M  V30 91 H 6.0474 3.4616 3.39561 0
M  V30 92 N 7.3905 -1.2043 1.01659 0
M  V30 93 C 8.6155 -1.94318 0.724942 0
M  V30 94 C 9.0405 -1.74266 -0.708034 0
M  V30 95 O 8.3985 -1.03694 -1.48719 0
M  V30 96 C 8.4465 -3.44486 1.06591 0
M  V30 97 O 7.5505 -4.12017 0.177599 0
M  V30 98 H 6.8915 -0.60708 0.26898 0
M  V30 99 H 9.4215 -1.52861 1.35995 0
M  V30 100 H 9.4315 -3.95106 1.01762 0
M  V30 101 H 8.1065 -3.58404 2.10997 0
M  V30 102 H 6.6835 -3.71821 0.283421 0
M  V30 103 N 8.8686 -0.792821 -1.36206 0
M  V30 104 C 9.8316 -0.199459 -2.2833 0
M  V30 105 C 10.8316 0.605189 -1.48977 0
M  V30 106 O 12.0216 0.425685 -1.68919 0
M  V30 107 C 9.1536 0.723523 -3.33134 0
M  V30 108 H 10.3466 -1.01181 -2.82316 0
M  V30 109 H 7.8996 -0.562485 -1.45828 0
M  V30 110 H 8.6346 1.56008 -2.84309 0
M  V30 111 H 8.4196 0.148436 -3.91819 0
M  V30 112 H 9.9096 1.13344 -4.01924 0
M  V30 113 N 10.3467 1.47872 -0.545128 0
M  V30 114 C 11.7627 1.5829 -0.204032 0
M  V30 115 C 11.9627 1.54529 1.29317 0
M  V30 116 O 11.0187 1.44232 2.07252 0
M  V30 117 C 12.3317 2.89304 -0.819987 0
M  V30 118 C 13.8797 3.02864 -0.790105 0
M  V30 119 C 14.3547 4.3656 -1.38491 0
M  V30 120 N 15.8457 4.43165 -1.34755 0
M  V30 121 C 16.5807 5.45153 -1.77753 0
M  V30 122 N 16.0767 6.54016 -2.2855 0
M  V30 123 N 17.8697 5.36125 -1.68897 0
M  V30 124 H 10.0207 1.4856 -1.51802 0
M  V30 125 H 12.2837 0.706305 -0.632327 0
M  V30 126 H 11.9897 2.97757 -1.87173 0
M  V30 127 H 11.8637 3.75957 -0.305915 0
M  V30 128 H 14.2507 2.94014 0.252913 0
M  V30 129 H 14.3317 2.17782 -1.34181 0
M  V30 130 H 13.9757 4.46164 -2.42693 0
M  V30 131 H 13.9057 5.20353 -0.808754 0
M  V30 132 H 16.3967 3.65083 -0.975855 0
M  V30 133 H 16.7097 7.27994 -2.59314 0
M  V30 134 H 15.0547 6.54938 -2.32553 0
M  V30 135 H 18.2457 4.49975 -1.28998 0
M  V30 136 H 18.4187 6.15472 -2.02726 0
M  V30 137 N 11.8248 0.280983 1.55075 0
M  V30 138 C 12.7548 -0.597469 2.25727 0
M  V30 139 C 13.7358 -1.15417 1.24952 0
M  V30 140 O 14.9208 -1.18722 1.53684 0
M  V30 141 C 12.0508 -1.7789 2.98283 0
M  V30 142 C 11.0048 -1.35347 4.06036 0
M  V30 143 C 10.3308 -2.61846 4.66198 0
M  V30 144 C 11.6308 -0.499354 5.19907 0
M  V30 145 H 13.3248 -0.00824265 2.99399 0
M  V30 146 H 10.8708 -0.0025244 1.44 0
M  V30 147 H 12.8238 -2.39937 3.46422 0
M  V30 148 H 11.5478 -2.39405 2.22155 0
M  V30 149 H 10.2068 -0.756156 3.58717 0
M  V30 150 H 9.8548 -3.21632 3.86732 0
M  V30 151 H 9.5548 -2.3409 5.38958 0
M  V30 152 H 11.0788 -3.24732 5.1709 0
M  V30 153 H 12.4928 -1.02498 5.64063 0
M  V30 154 H 10.8898 -0.316424 5.99265 0
M  V30 155 H 11.9598 0.480459 4.82514 0
M  V30 156 N 13.3029 -1.57598 0.00835791 0
M  V30 157 C 14.2349 -2.05811 -1.00868 0
M  V30 158 C 15.2479 -0.977579 -1.30182 0
M  V30 159 O 16.4369 -1.25421 -1.27011 0
M  V30 160 C 13.5369 -2.45016 -2.34137 0
M  V30 161 C 12.7099 -3.75903 -2.23643 0
M  V30 162 C 11.7689 -4.01884 -3.3967 0
M  V30 163 O 10.7949 -4.72433 -3.17483 0
M  V30 164 N 11.9969 -3.50432 -4.62793 0
M  V30 165 H 14.7619 -2.93684 -0.597458 0
M  V30 166 H 12.3229 -1.60909 -0.178852 0
M  V30 167 H 14.3149 -2.59506 -3.10546 0
M  V30 168 H 12.8849 -1.62618 -2.66972 0
M  V30 169 H 12.1049 -3.7141 -1.32091 0
M  V30 170 H 13.3929 -4.61695 -2.13812 0
M  V30 171 H 12.7909 -2.93317 -4.83716 0
M  V30 172 H 11.3479 -3.70236 -5.3644 0
M  V30 173 N 14.781 0.264519 -1.55364 0
M  V30 174 C 15.691 1.34902 -1.91934 0
M  V30 175 C 16.707 1.53595 -0.817593 0
M  V30 176 O 17.883 1.67558 -1.11742 0
M  V30 177 C 14.948 2.68676 -2.19121 0
M  V30 178 C 14.009 2.58657 -3.4263 0
M  V30 179 C 13.242 3.86051 -3.68511 0
M  V30 180 O 13.465 4.87126 -2.96757 0
M  V30 181 O 12.399 3.85744 -4.62045 0
M  V30 182 H 16.225 1.06883 -2.8427 0
M  V30 183 H 13.81 0.463775 -1.42019 0
M  V30 184 H 15.692 3.47759 -2.37995 0
M  V30 185 H 14.367 2.96463 -1.29966 0
M  V30 186 H 13.274 1.7792 -3.29082 0
M  V30 187 H 14.607 2.35818 -4.32031 0
M  V30 188 N 16.2591 1.48442 0.529413 0
M  V30 189 C 17.2221 1.62524 1.61612 0
M  V30 190 C 18.2221 0.498509 1.52877 0
M  V30 191 O 19.4121 0.76431 1.56537 0
M  V30 192 C 16.5441 1.59597 3.01233 0
M  V30 193 H 17.7371 2.59423 1.50465 0
M  V30 194 H 15.2901 1.37047 0.751514 0
M  V30 195 H 16.0251 0.641781 3.17886 0
M  V30 196 H 15.8101 2.41397 3.08982 0
M  V30 197 H 17.3001 1.72646 3.80241 0
M  V30 198 N 17.7372 -0.778329 1.37039 0
M  V30 199 C 18.9862 -1.53189 1.3121 0
M  V30 200 C 19.2992 -1.95328 -0.103095 0
M  V30 201 O 20.5052 -2.70012 -0.283826 0
M  V30 202 C 18.9612 -2.76591 2.30272 0
M  V30 203 C 18.5692 -2.41577 3.77286 0
M  V30 204 C 20.3132 -3.5455 2.33441 0
M  V30 205 C 18.2202 -3.61441 4.68096 0
M  V30 206 H 17.1502 -0.5751 0.487622 0
M  V30 207 H 19.8012 -0.853101 1.62464 0
M  V30 208 H 18.1832 -3.46326 1.92027 0
M  V30 209 H 19.3572 -1.79668 4.2433 0
M  V30 210 H 17.6722 -1.76806 3.76999 0
M  V30 211 H 20.2692 -4.43628 2.98493 0
M  V30 212 H 20.6122 -3.93936 1.34611 0
M  V30 213 H 21.1452 -2.91805 2.7036 0
M  V30 214 H 17.8842 -3.27142 5.6803 0
M  V30 215 H 17.4042 -4.22478 4.25761 0
M  V30 216 H 19.0832 -4.28335 4.8491 0
M  V30 217 N 19.2153 -1.21501 -1.00376 0
M  V30 218 C 20.4633 -1.03095 -1.73827 0
M  V30 219 C 20.7843 0.436341 -1.90055 0
M  V30 220 O 20.0543 1.31466 -1.45236 0
M  V30 221 H 18.6343 -0.378487 -0.644016 0
M  V30 222 H 21.2963 -1.52831 -1.20949 0
M  V30 223 H 20.3923 -1.49991 -2.73695 0
M  V30 224 N 20.6934 1.19889 -1.02296 0
M  V30 225 C 22.1094 1.41462 -0.738954 0
M  V30 226 C 22.3094 1.89721 0.678846 0
M  V30 227 O 21.3654 2.07016 1.4457 0
M  V30 228 C 22.6784 2.43083 -1.77005 0
M  V30 229 C 24.2264 2.5684 -1.78892 0
M  V30 230 C 24.7014 3.61709 -2.80945 0
M  V30 231 N 26.1924 3.69199 -2.79725 0
M  V30 232 C 26.9274 4.50019 -3.55345 0
M  V30 233 N 26.4234 5.34592 -4.40662 0
M  V30 234 N 28.2164 4.44612 -3.43914 0
M  V30 235 H 20.3674 0.868827 -1.93817 0
M  V30 236 H 22.6304 0.44399 -0.837602 0
M  V30 237 H 22.3364 2.14636 -2.78612 0
M  V30 238 H 22.2104 3.4217 -1.58744 0
M  V30 239 H 24.5974 2.84614 -0.779674 0
M  V30 240 H 24.6784 1.57927 -2.01228 0
M  V30 241 H 24.3224 3.34678 -3.82038 0
M  V30 242 H 24.2524 4.60259 -2.5587 0
M  V30 243 H 26.7434 3.08794 -2.17842 0
M  V30 244 H 27.0564 5.93363 -4.95116 0
M  V30 245 H 25.4014 5.34073 -4.44737 0
M  V30 246 H 28.5924 3.7758 -2.76679 0
M  V30 247 H 28.7654 5.0736 -4.031 0
M  V30 248 N 22.1715 0.800033 1.35784 0
M  V30 249 C 23.1015 0.220184 2.3246 0
M  V30 250 C 24.0825 -0.65073 1.57161 0
M  V30 251 O 25.2675 -0.582359 1.85263 0
M  V30 252 C 22.3975 -0.637353 3.41402 0
M  V30 253 C 21.3515 0.134531 4.27789 0
M  V30 254 C 20.6775 -0.844285 5.27992 0
M  V30 255 C 21.9775 1.32979 5.05088 0
M  V30 256 H 23.6715 1.02787 2.81203 0
M  V30 257 H 21.2175 0.495717 1.35199 0
M  V30 258 H 23.1705 -1.05302 4.08031 0
M  V30 259 H 21.8945 -1.47785 2.91251 0
M  V30 260 H 20.5535 0.531296 3.6273 0
M  V30 261 H 20.2015 -1.68011 4.74111 0
M  V30 262 H 19.9015 -0.332184 5.8666 0
M  V30 263 H 21.4255 -1.2583 5.97494 0
M  V30 264 H 22.8395 0.98934 5.64699 0
M  V30 265 H 21.2365 1.77593 5.7322 0
M  V30 266 H 22.3065 2.11978 4.36111 0
M  V30 267 N 23.6496 -1.47581 0.552962 0
M  V30 268 C 25.0656 -1.5818 0.212424 0
M  V30 269 C 25.2656 -1.55213 -1.28496 0
M  V30 270 O 24.3216 -1.45329 -2.06484 0
M  V30 271 C 25.6346 -2.88865 0.835318 0
M  V30 272 C 27.1826 -3.0244 0.806156 0
M  V30 273 C 27.6576 -4.35819 1.40804 0
M  V30 274 N 29.1486 -4.42444 1.37103 0
M  V30 275 C 29.8836 -5.44202 1.80641 0
M  V30 276 N 29.3796 -6.52795 2.32015 0
M  V30 277 N 31.1726 -5.35222 1.71738 0
M  V30 278 H 23.3236 -1.47753 1.52587 0
M  V30 279 H 25.5866 -0.702941 0.636064 0
M  V30 280 H 25.2926 -2.9676 1.88749 0
M  V30 281 H 25.1666 -3.7579 0.325848 0
M  V30 282 H 27.5536 -2.94144 -0.237317 0
M  V30 283 H 27.6346 -2.17068 1.35334 0
M  V30 284 H 27.2786 -4.44871 2.45056 0
M  V30 285 H 27.2086 -5.19916 0.836338 0
M  V30 286 H 29.6996 -3.6456 0.995202 0
M  V30 287 H 30.0126 -7.26609 2.63171 0
M  V30 288 H 28.3576 -6.53696 2.36023 0
M  V30 289 H 31.5486 -4.49284 1.31382 0
M  V30 290 H 31.7216 -6.14389 2.05987 0
M  V30 291 N 25.1277 -0.289203 -1.54924 0
M  V30 292 C 26.3757 0.322879 -1.99504 0
M  V30 293 C 26.6967 1.55313 -1.1791 0
M  V30 294 O 25.9667 1.94001 -0.272097 0
M  V30 295 H 24.5467 0.122291 -0.736922 0
M  V30 296 H 27.2087 -0.397802 -1.90797 0
M  V30 297 H 26.3047 0.603061 -3.06218 0
M  V30 298 N 26.6058 1.57591 -0.0167156 0
M  V30 299 C 28.0218 1.55946 0.339557 0
M  V30 300 C 28.2218 1.02109 1.73713 0
M  V30 301 O 27.2778 0.662303 2.43659 0
M  V30 302 C 28.5908 3.00037 0.199499 0
M  V30 303 C 30.1388 3.11805 0.273193 0
M  V30 304 C 30.6138 4.57713 0.162068 0
M  V30 305 N 32.1048 4.6268 0.219444 0
M  V30 306 C 32.8398 5.73185 0.157054 0
M  V30 307 N 32.3358 6.92786 0.0442936 0
M  V30 308 N 34.1288 5.61707 0.21014 0
M  V30 309 H 26.2798 1.90921 -0.930758 0
M  V30 310 H 28.5428 0.877674 -0.358319 0
M  V30 311 H 28.2488 3.4333 -0.76273 0
M  V30 312 H 28.1228 3.64387 0.974786 0
M  V30 313 H 30.5098 2.68433 1.22587 0
M  V30 314 H 30.5908 2.50201 -0.532256 0
M  V30 315 H 30.2348 5.01763 -0.78714 0
M  V30 316 H 30.1648 5.17283 0.986222 0
M  V30 317 H 32.6558 3.76649 0.307246 0
M  V30 318 H 32.9688 7.728 0.00304069 0
M  V30 319 H 31.3138 6.94999 0.00968457 0
M  V30 320 H 34.5048 4.6716 0.296546 0
M  V30 321 H 34.6778 6.47807 0.158054 0
M  V30 322 N 28.0839 -0.256276 1.55502 0
M  V30 323 C 29.3319 -0.983672 1.76545 0
M  V30 324 C 29.6529 -1.86206 0.578982 0
M  V30 325 O 28.9229 -1.91656 -0.405577 0
M  V30 326 H 27.5029 -0.366191 0.651086 0
M  V30 327 H 30.1649 -0.276479 1.92929 0
M  V30 328 H 29.2609 -1.61087 2.67315 0
M  V30 329 N 29.562 -1.4872 -0.521534 0
M  V30 330 C 30.978 -1.35028 -0.850855 0
M  V30 331 C 31.178 -0.367712 -1.98116 0
M  V30 332 O 30.234 0.208037 -2.51642 0
M  V30 333 C 31.547 -2.75263 -1.21041 0
M  V30 334 C 33.095 -2.83813 -1.31981 0
M  V30 335 C 33.57 -4.24769 -1.71276 0
M  V30 336 N 35.061 -4.27482 -1.78363 0
M  V30 337 C 35.796 -5.33494 -2.1017 0
M  V30 338 N 35.292 -6.49775 -2.40343 0
M  V30 339 N 37.085 -5.20894 -2.11248 0
M  V30 340 H 29.236 -2.11214 0.22413 0
M  V30 341 H 31.499 -0.947252 0.0376439 0
M  V30 342 H 31.205 -3.48765 -0.453415 0
M  V30 343 H 31.079 -3.09327 -2.15863 0
M  V30 344 H 33.466 -2.10561 -2.06756 0
M  V30 345 H 33.547 -2.53358 -0.352596 0
M  V30 346 H 33.191 -4.9854 -0.970588 0
M  V30 347 H 33.121 -4.52673 -2.69062 0
M  V30 348 H 35.612 -3.43611 -1.57288 0
M  V30 349 H 35.925 -7.26402 -2.63743 0
M  V30 350 H 34.27 -6.53035 -2.37844 0
M  V30 351 H 37.461 -4.29065 -1.87139 0
M  V30 352 H 37.634 -6.03612 -2.35704 0
M  V30 353 N 31.0401 0.771051 -1.3745 0
M  V30 354 C 32.2891 1.52491 -1.3202 0
M  V30 355 C 32.6021 1.9538 0.0927347 0
M  V30 356 O 33.8081 2.70159 0.269503 0
M  V30 357 C 32.2641 2.75366 -2.31736 0
M  V30 358 C 31.8721 2.39573 -3.78562 0
M  V30 359 C 33.6161 3.53307 -2.35318 0
M  V30 360 C 31.5231 3.58954 -4.70007 0
M  V30 361 H 30.4531 0.572506 -0.490666 0
M  V30 362 H 33.1041 0.844474 -1.62914 0
M  V30 363 H 31.4861 3.45303 -1.93861 0
M  V30 364 H 32.6601 1.77415 -4.25277 0
M  V30 365 H 30.9751 1.74805 -3.77932 0
M  V30 366 H 33.5721 4.42039 -3.00842 0
M  V30 367 H 33.9151 3.93217 -1.36698 0
M  V30 368 H 34.4481 2.90367 -2.71904 0
M  V30 369 H 31.1871 3.24125 -5.69757 0
M  V30 370 H 30.7071 4.20214 -4.27996 0
M  V30 371 H 32.3861 4.25758 -4.87175 0
M  V30 372 N 32.5182 1.22032 0.997298 0
M  V30 373 C 33.7462 1.06841 1.7718 0
M  V30 374 C 34.1612 -0.381325 1.84909 0
M  V30 375 O 33.5182 -1.26437 1.31605 0
M  V30 376 C 33.5692 1.66814 3.20711 0
M  V30 377 O 33.2902 3.06116 3.13408 0
M  V30 378 C 34.7912 1.56838 4.14628 0
M  V30 379 H 32.0112 0.374782 0.556578 0
M  V30 380 H 34.5552 1.61532 1.2541 0
M  V30 381 H 32.7102 1.16196 3.69564 0
M  V30 382 H 33.1242 3.34926 4.0364 0
M  V30 383 H 34.5982 2.03532 5.13107 0
M  V30 384 H 35.0752 0.524155 4.36061 0
M  V30 385 H 35.6812 2.06741 3.7167 0
M  V30 386 N 33.9963 -1.19345 1.0293 0
M  V30 387 C 34.9063 -2.26245 0.620515 0
M  V30 388 C 35.9223 -1.70486 -0.347928 0
M  V30 389 O 37.0983 -2.00347 -0.205704 0
M  V30 390 C 34.1633 -3.46693 -0.0218957 0
M  V30 391 C 33.2243 -4.17632 0.994102 0
M  V30 392 C 32.4573 -5.32329 0.382253 0
M  V30 393 O 32.6803 -5.64552 -0.814676 0
M  V30 394 O 31.6143 -5.91664 1.10531 0
M  V30 395 H 35.4403 -2.63453 1.51083 0
M  V30 396 H 33.0253 -1.26207 0.799513 0
M  V30 397 H 34.9073 -4.19683 -0.380072 0
M  V30 398 H 33.5823 -3.11333 -0.886209 0
M  V30 399 H 32.4893 -3.4676 1.40387 0
M  V30 400 H 33.8223 -4.56964 1.8288 0
M  V30 401 N 35.4744 -0.807222 -1.35358 0
M  V30 402 C 36.3844 -0.219594 -2.3357 0
M  V30 403 C 37.4004 0.637734 -1.61892 0
M  V30 404 O 38.5764 0.549336 -1.93763 0
M  V30 405 C 35.6414 0.62158 -3.41083 0
M  V30 406 C 34.7024 -0.256315 -4.28534 0
M  V30 407 C 33.9354 0.544807 -5.30912 0
M  V30 408 O 34.1584 1.77944 -5.41934 0
M  V30 409 O 33.0924 -0.0646478 -6.01865 0
M  V30 410 H 36.9184 -1.03208 -2.85625 0
M  V30 411 H 34.5034 -0.569025 -1.38139 0
M  V30 412 H 36.3854 1.10067 -4.06772 0
M  V30 413 H 35.0604 1.41165 -2.91297 0
M  V30 414 H 33.9674 -0.782559 -3.65823 0
M  V30 415 H 35.3004 -1.01034 -4.81719 0
M  V30 416 N 36.9525 1.47285 -0.560781 0
M  V30 417 C 38.2295 1.9558 0.0277798 0
M  V30 418 C 38.6095 1.5034 1.48192 0
M  V30 419 O 37.9575 0.743882 2.16052 0
M  V30 420 C 38.1675 3.48789 -0.121418 0
M  V30 421 C 39.5155 4.24594 0.0220912 0
M  V30 422 O 40.5395 3.56166 -0.0491439 0
M  V30 423 O 39.3985 5.46217 0.175958 0
M  V30 424 H 36.4925 0.824663 0.0621342 0
M  V30 425 H 39.0385 1.5767 -0.627556 0
M  V30 426 H 37.8105 3.74533 -1.13316 0
M  V30 427 H 37.4335 3.93473 0.571366 0
M  V30 428 N 38.4306 0.297415 1.54768 0
M  V30 429 C 39.3606 -0.573494 2.26348 0
M  V30 430 C 40.3416 -1.14085 1.26169 0
M  V30 431 O 41.5266 -1.17086 1.54934 0
M  V30 432 C 38.6566 -1.74716 3.00153 0
M  V30 433 C 37.6106 -1.31032 4.07449 0
M  V30 434 C 36.9366 -2.56887 4.68949 0
M  V30 435 C 38.2366 -0.444183 5.20408 0
M  V30 436 H 39.9306 0.0235131 2.99391 0
M  V30 437 H 37.4766 0.0127488 1.43994 0
M  V30 438 H 39.4296 -2.3625 3.48947 0
M  V30 439 H 38.1536 -2.37035 2.24682 0
M  V30 440 H 36.8126 -0.718066 3.59499 0
M  V30 441 H 36.4606 -3.17512 3.90122 0
M  V30 442 H 36.1606 -2.2836 5.41411 0
M  V30 443 H 37.6846 -3.19229 5.20505 0
M  V30 444 H 39.0986 -0.9651 5.65118 0
M  V30 445 H 37.4956 -0.252846 5.99567 0
M  V30 446 H 38.5656 0.531609 4.81977 0
M  V30 447 N 39.9087 -1.5758 0.0250728 0
M  V30 448 C 40.8557 -2.09973 -0.958129 0
M  V30 449 C 41.8257 -1.00085 -1.3256 0
M  V30 450 O 43.0107 -1.27481 -1.41962 0
M  V30 451 C 40.1507 -2.62812 -2.2366 0
M  V30 452 C 39.2637 -3.86693 -1.92594 0
M  V30 453 C 38.3987 -4.27941 -3.14707 0
M  V30 454 C 37.4377 -5.44591 -2.79442 0
M  V30 455 N 36.5747 -5.81014 -3.94167 0
M  V30 456 H 41.4147 -2.937 -0.504428 0
M  V30 457 H 38.9517 -1.45172 -0.237392 0
M  V30 458 H 40.9097 -2.91536 -2.98434 0
M  V30 459 H 39.5397 -1.81922 -2.66654 0
M  V30 460 H 38.5917 -3.64723 -1.0808 0
M  V30 461 H 39.9037 -4.71547 -1.62619 0
M  V30 462 H 39.0577 -4.58079 -3.97804 0
M  V30 463 H 37.7967 -3.41845 -3.4784 0
M  V30 464 H 36.8017 -5.1415 -1.94755 0
M  V30 465 H 38.0267 -6.32382 -2.47528 0
M  V30 466 H 35.9727 -4.97874 -4.2715 0
M  V30 467 H 35.8897 -6.60498 -3.67801 0
M  V30 468 H 37.1577 -6.15756 -4.7798 0
M  V30 469 N 41.3868 0.248026 -1.55636 0
M  V30 470 C 42.3498 1.29044 -1.89421 0
M  V30 471 C 43.3498 1.41134 -0.770581 0
M  V30 472 O 44.5398 1.39854 -1.03858 0
M  V30 473 C 41.6718 2.66831 -2.12165 0
M  V30 474 H 42.8648 1.00305 -2.82629 0
M  V30 475 H 40.4178 0.487265 -1.48511 0
M  V30 476 H 41.1528 3.00711 -1.21422 0
M  V30 477 H 40.9378 2.59438 -2.93997 0
M  V30 478 H 42.4278 3.42103 -2.3949 0
M  V30 479 N 42.8649 1.48995 0.513639 0
M  V30 480 C 44.0929 1.61531 1.29288 0
M  V30 481 C 44.5079 0.281801 1.86685 0
M  V30 482 O 43.8649 -0.731111 1.67215 0
M  V30 483 C 43.9159 2.67449 2.43215 0
M  V30 484 O 43.6369 3.95626 1.88179 0
M  V30 485 C 45.1379 2.90575 3.34785 0
M  V30 486 H 42.3579 0.544165 0.392588 0
M  V30 487 H 44.9019 1.9494 0.617956 0
M  V30 488 H 43.0569 2.36853 3.0656 0
M  V30 489 H 43.4709 4.53868 2.62876 0
M  V30 490 H 44.9449 3.68449 4.11035 0
M  V30 491 H 45.4219 2.00011 3.91015 0
M  V30 492 H 46.0279 3.22538 2.77218 0
M  V30 493 N 44.343 -0.763751 1.37857 0
M  V30 494 C 45.273 -1.89103 1.36975 0
M  V30 495 C 46.254 -1.68439 0.237152 0
M  V30 496 O 47.439 -1.8918 0.438713 0
M  V30 497 C 44.569 -3.26496 1.18395 0
M  V30 498 C 43.523 -3.61741 2.28751 0
M  V30 499 C 42.849 -4.97762 1.95286 0
M  V30 500 C 44.149 -3.67665 3.70972 0
M  V30 501 H 45.843 -1.90099 2.31307 0
M  V30 502 H 43.389 -0.91319 1.11341 0
M  V30 503 H 45.342 -4.05003 1.16406 0
M  V30 504 H 44.066 -3.25955 0.205215 0
M  V30 505 H 42.725 -2.85547 2.29909 0
M  V30 506 H 42.373 -4.93769 0.959221 0
M  V30 507 H 42.073 -5.22313 2.69189 0
M  V30 508 H 43.597 -5.7866 1.94898 0
M  V30 509 H 45.011 -4.36307 3.719 0
M  V30 510 H 43.408 -4.03718 4.43995 0
M  V30 511 H 44.478 -2.68134 4.0402 0
M  V30 512 N 45.8211 -1.22559 -0.990812 0
M  V30 513 C 47.2371 -0.985996 -1.255 0
M  V30 514 C 47.4371 0.319173 -1.98956 0
M  V30 515 O 46.4931 1.04127 -2.3003 0
M  V30 516 C 47.8061 -2.18607 -2.06474 0
M  V30 517 C 49.3541 -2.22985 -2.19651 0
M  V30 518 C 49.8291 -3.4255 -3.04012 0
M  V30 519 N 51.3201 -3.42725 -3.11599 0
M  V30 520 C 52.0551 -4.31892 -3.7717 0
M  V30 521 N 51.5511 -5.31279 -4.44651 0
M  V30 522 N 53.3441 -4.19662 -3.73952 0
M  V30 523 H 45.4951 -2.06469 -0.49841 0
M  V30 524 H 47.7581 -0.904853 -0.282747 0
M  V30 525 H 47.4641 -3.13267 -1.59865 0
M  V30 526 H 47.3381 -2.18838 -3.07229 0
M  V30 527 H 49.7251 -1.28871 -2.65474 0
M  V30 528 H 49.8061 -2.26791 -1.18319 0
M  V30 529 H 49.4501 -4.36965 -2.58889 0
M  V30 530 H 49.3801 -3.35984 -4.0549 0
M  V30 531 H 51.8711 -2.70807 -2.63575 0
M  V30 532 H 52.1841 -5.95593 -4.92431 0
M  V30 533 H 50.5291 -5.3519 -4.43392 0
M  V30 534 H 53.7201 -3.41268 -3.20396 0
M  V30 535 H 53.8931 -4.89358 -4.24774 0
M  V30 536 N 47.2992 1.18797 -1.03562 0
M  V30 537 C 48.2092 2.25913 -0.632505 0
M  V30 538 C 49.2252 1.70668 0.338882 0
M  V30 539 O 50.4012 2.00453 0.195076 0
M  V30 540 C 47.4662 3.467 0.00350942 0
M  V30 541 C 46.5272 4.17098 -1.01624 0
M  V30 542 C 45.7602 5.32119 -0.410478 0
M  V30 543 O 45.9832 5.64976 0.784725 0
M  V30 544 O 44.9172 5.9107 -1.13667 0
M  V30 545 H 48.7432 2.62648 -1.52478 0
M  V30 546 H 46.3282 1.25781 -0.806195 0
M  V30 547 H 48.2102 4.19878 0.35781 0
M  V30 548 H 46.8852 3.11798 0.869686 0
M  V30 549 H 45.7922 3.4601 -1.42224 0
M  V30 550 H 47.1252 4.55987 -1.85301 0
M  V30 551 N 48.7773 0.814389 1.34928 0
M  V30 552 C 50.0263 0.394871 1.97797 0
M  V30 553 C 50.3393 -1.04555 1.65311 0
M  V30 554 O 51.5453 -1.56856 2.21604 0
M  V30 555 C 50.0013 0.655103 3.53888 0
M  V30 556 C 49.6093 2.10858 3.95276 0
M  V30 557 C 51.3533 0.301329 4.23429 0
M  V30 558 C 49.2603 2.31415 5.44244 0
M  V30 559 H 48.1903 0.143913 0.740139 0
M  V30 560 H 50.8413 0.999544 1.53888 0
M  V30 561 H 49.2233 -0.0196253 3.95995 0
M  V30 562 H 50.3973 2.82176 3.64298 0
M  V30 563 H 48.7123 2.42297 3.38646 0
M  V30 564 H 51.3093 0.432869 5.32945 0
M  V30 565 H 51.6523 -0.75331 4.09428 0
M  V30 566 H 52.1853 0.930288 3.86769 0
M  V30 567 H 48.9243 3.35353 5.63222 0
M  V30 568 H 48.4443 1.6463 5.76764 0
M  V30 569 H 50.1233 2.13352 6.10811 0
M  V30 570 N 50.2554 -1.46986 0.568584 0
M  V30 571 C 51.6714 -1.57946 0.229189 0
M  V30 572 C 51.8714 -1.56567 -1.26843 0
M  V30 573 O 50.9274 -1.47511 -2.04931 0
M  V30 574 C 52.2404 -2.87963 0.865909 0
M  V30 575 C 53.7884 -3.01568 0.838188 0
M  V30 576 C 54.2634 -4.34301 1.45419 0
M  V30 577 N 55.7544 -4.40965 1.41788 0
M  V30 578 C 56.4894 -5.42256 1.86403 0
M  V30 579 N 55.9854 -6.50297 2.38926 0
M  V30 580 N 57.7784 -5.3337 1.77405 0
M  V30 581 H 49.9294 -1.46126 1.54146 0
M  V30 582 H 52.1924 -0.696156 0.643484 0
M  V30 583 H 51.8984 -2.94742 1.91886 0
M  V30 584 H 51.7724 -3.75423 0.365687 0
M  V30 585 H 54.1594 -2.94379 -0.206106 0
M  V30 586 H 54.2404 -2.1562 1.37629 0
M  V30 587 H 53.8844 -4.42247 2.49761 0
M  V30 588 H 53.8144 -5.19 0.891435 0
M  V30 589 H 56.3054 -3.63484 1.03381 0
M  V30 590 H 56.6184 -7.23777 2.70863 0
M  V30 591 H 54.9634 -6.51155 2.42944 0
M  V30 592 H 58.1544 -4.47865 1.3614 0
M  V30 593 H 58.3274 -6.12169 2.12492 0
M  V30 594 N 51.7335 -0.305618 -1.54608 0
M  V30 595 C 53.1495 0.0476228 -1.59529 0
M  V30 596 C 53.3495 1.52025 -1.32252 0
M  V30 597 O 52.4055 2.27368 -1.09818 0
M  V30 598 C 53.7185 -0.354471 -2.98603 0
M  V30 599 C 55.2665 -0.303622 -3.11524 0
M  V30 600 C 55.7415 -0.680608 -4.52915 0
M  V30 601 N 57.2325 -0.63332 -4.5885 0
M  V30 602 C 57.9675 -0.897432 -5.66334 0
M  V30 603 N 57.4635 -1.22775 -6.81834 0
M  V30 604 N 59.2565 -0.824186 -5.56025 0
M  V30 605 H 51.4075 -1.2653 -1.70599 0
M  V30 606 H 53.6705 -0.513291 -0.797017 0
M  V30 607 H 53.3765 -1.3798 -3.23503 0
M  V30 608 H 53.2505 0.289568 -3.76087 0
M  V30 609 H 55.6375 0.712472 -2.8637 0
M  V30 610 H 55.7185 -0.982348 -2.36185 0
M  V30 611 H 55.3625 -1.69453 -4.78799 0
M  V30 612 H 55.2925 0.0202385 -5.26596 0
M  V30 613 H 57.7835 -0.389138 -3.75891 0
M  V30 614 H 58.0965 -1.41513 -7.59733 0
M  V30 615 H 56.4415 -1.26583 -6.83375 0
M  V30 616 H 59.6325 -0.565748 -4.64669 0
M  V30 617 H 59.8055 -1.03338 -6.39707 0
M  V30 618 N 53.2116 1.57565 -0.0334293 0
M  V30 619 C 54.1746 2.09393 0.932048 0
M  V30 620 C 55.1746 1.00986 1.25134 0
M  V30 621 O 56.3646 1.27129 1.19096 0
M  V30 622 C 53.4966 2.56338 2.2473 0
M  V30 623 H 54.6896 2.95984 0.483085 0
M  V30 624 H 52.2426 1.54819 0.21468 0
M  V30 625 H 52.9776 1.7309 2.74245 0
M  V30 626 H 52.7626 3.35542 2.02865 0
M  V30 627 H 54.2526 2.96646 2.93923 0
M  V30 628 N 54.6897 -0.239769 1.55765 0
M  V30 629 C 55.6197 -1.30052 1.9393 0
M  V30 630 C 56.6007 -1.49839 0.805132 0
M  V30 631 O 57.7857 -1.62328 1.06599 0
M  V30 632 C 54.9157 -2.65391 2.2402 0
M  V30 633 C 53.8697 -2.60289 3.39755 0
M  V30 634 C 53.1957 -3.99489 3.55405 0
M  V30 635 C 54.4957 -2.16654 4.75246 0
M  V30 636 H 56.1897 -0.983573 2.82783 0
M  V30 637 H 53.7357 -0.471701 1.36055 0
M  V30 638 H 55.6887 -3.3974 2.49308 0
M  V30 639 H 54.4127 -2.98736 1.32 0
M  V30 640 H 53.0717 -1.88398 3.14487 0
M  V30 641 H 52.7197 -4.30112 2.60793 0
M  V30 642 H 52.4197 -3.96962 4.33238 0
M  V30 643 H 53.9437 -4.75528 3.83022 0
M  V30 644 H 55.3577 -2.80737 4.99859 0
M  V30 645 H 53.7547 -2.25223 5.56232 0
M  V30 646 H 54.8247 -1.11835 4.71827 0
M  V30 647 N 56.1678 -1.49265 -0.50573 0
M  V30 648 C 57.1008 -1.60183 -1.62532 0
M  V30 649 C 58.0788 -0.451107 -1.56217 0
M  V30 650 O 59.2628 -0.666016 -1.76342 0
M  V30 651 C 56.3898 -1.55238 -3.01029 0
M  V30 652 C 55.4358 -2.7545 -3.25621 0
M  V30 653 S 56.2688 -4.37174 -3.09256 0
M  V30 654 C 57.4248 -4.34866 -4.50158 0
M  V30 655 H 57.6578 -2.54894 -1.53025 0
M  V30 656 H 55.1908 -1.38098 -0.690535 0
M  V30 657 H 57.1488 -1.53071 -3.80893 0
M  V30 658 H 55.8098 -0.618238 -3.07956 0
M  V30 659 H 55.0028 -2.68197 -4.26716 0
M  V30 660 H 54.6048 -2.75005 -2.53472 0
M  V30 661 H 56.8968 -4.06295 -5.42154 0
M  V30 662 H 57.8398 -5.36223 -4.62462 0
M  V30 663 H 58.2478 -3.65007 -4.30616 0
M  V30 664 N 57.6459 0.756429 -1.3826 0
M  V30 665 C 58.9229 1.50584 -1.24835 0
M  V30 666 C 59.3029 2.10556 0.151485 0
M  V30 667 O 58.6509 1.96825 1.1607 0
M  V30 668 C 58.8609 2.57448 -2.3563 0
M  V30 669 C 60.2089 3.24429 -2.73917 0
M  V30 670 O 61.2329 2.67751 -2.34921 0
M  V30 671 O 60.0919 4.26937 -3.41156 0
M  V30 672 H 57.1859 0.667664 -0.48801 0
M  V30 673 H 59.7319 0.792083 -1.5008 0
M  V30 674 H 58.5039 2.11362 -3.29305 0
M  V30 675 H 58.1269 3.36408 -2.11933 0
M  V30 676 N 59.124 1.23083 0.984299 0
M  V30 677 C 60.087 1.00979 2.05757 0
M  V30 678 C 61.087 -0.0269573 1.60777 0
M  V30 679 O 62.277 0.212403 1.729 0
M  V30 680 C 59.409 0.527072 3.36801 0
M  V30 681 H 60.602 1.9622 2.26799 0
M  V30 682 H 58.155 1.05072 1.15714 0
M  V30 683 H 58.89 -0.429294 3.21446 0
M  V30 684 H 58.675 1.27515 3.70786 0
M  V30 685 H 60.165 0.392942 4.15747 0
M  V30 686 N 60.6021 -1.18246 1.0419 0
M  V30 687 C 61.8791 -1.84121 0.660208 0
M  V30 688 C 62.2591 -1.92778 -0.860221 0
M  V30 689 O 61.6071 -1.45464 -1.76217 0
M  V30 690 C 61.8171 -3.22355 1.33747 0
M  V30 691 C 63.1651 -3.98376 1.46906 0
M  V30 692 O 64.1891 -3.31799 1.29568 0
M  V30 693 O 63.0481 -5.17665 1.75171 0
M  V30 694 H 60.1421 -0.794036 0.231161 0
M  V30 695 H 62.6881 -1.25628 1.14087 0
M  V30 696 H 61.4601 -3.10964 2.37522 0
M  V30 697 H 61.0831 -3.88506 0.845515 0
M  V30 698 N 62.0802 -0.821533 -1.34494 0
M  V30 699 C 63.3262 -0.409552 -1.98622 0
M  V30 700 C 63.6592 1.0244 -1.64984 0
M  V30 701 O 62.9342 1.71325 -0.920758 0
M  V30 702 C 63.2172 -0.610458 -3.54888 0
M  V30 703 C 63.0702 -2.09043 -3.98273 0
M  V30 704 C 64.3892 -0.0455379 -4.40076 0
M  V30 705 H 61.5082 -0.15028 -0.721516 0
M  V30 706 H 64.1502 -1.03384 -1.59411 0
M  V30 707 H 62.3002 -0.079044 -3.8842 0
M  V30 708 H 63.9722 -2.68537 -3.75081 0
M  V30 709 H 62.2152 -2.58139 -3.48635 0
M  V30 710 H 62.8862 -2.18182 -5.07051 0
M  V30 711 H 65.3622 -0.499557 -4.1309 0
M  V30 712 H 64.2382 -0.215922 -5.48475 0
M  V30 713 H 64.4992 1.04939 -4.29465 0
M  V30 714 N 63.5583 1.46682 -0.576371 0
M  V30 715 C 64.5063 2.31953 0.17335 0
M  V30 716 C 65.5003 1.44098 0.89062 0
M  V30 717 O 66.7063 1.60759 0.809728 0
M  V30 718 H 63.0813 0.748273 0.0747727 0
M  V30 719 H 65.0523 2.93007 -0.564738 0
M  V30 720 C 63.8013 3.27142 1.17786 0
M  V30 721 H 63.1243 3.94719 0.635361 0
M  V30 722 H 64.5643 3.896 1.67296 0
M  V30 723 C 63.0233 2.52036 2.23561 0
M  V30 724 O 63.5533 2.27877 3.3081 0
M  V30 725 N 61.7593 2.12709 1.97998 0
M  V30 726 H 61.3063 2.32557 1.10792 0
M  V30 727 H 61.2643 1.62776 2.68982 0
M  V30 728 N 65.0364 0.313813 1.54444 0
M  V30 729 C 65.9664 -0.549454 2.26943 0
M  V30 730 C 66.9474 -1.12741 1.27372 0
M  V30 731 O 68.1324 -1.15436 1.56167 0
M  V30 732 C 65.2624 -1.71523 3.01989 0
M  V30 733 C 64.2164 -1.26703 4.08816 0
M  V30 734 C 63.5424 -2.51898 4.71647 0
M  V30 735 C 64.8424 -0.388962 5.2085 0
M  V30 736 H 66.5364 0.0552661 2.99349 0
M  V30 737 H 64.0824 0.0280207 1.43973 0
M  V30 738 H 66.0354 -2.32535 3.51433 0
M  V30 739 H 64.7594 -2.34639 2.27183 0
M  V30 740 H 63.4184 -0.679896 3.6024 0
M  V30 741 H 63.0664 -3.13356 3.93468 0
M  V30 742 H 62.7664 -2.22605 5.43802 0
M  V30 743 H 64.2904 -3.1369 5.23861 0
M  V30 744 H 65.7044 -0.905107 5.6611 0
M  V30 745 H 64.1014 -0.18924 5.99802 0
M  V30 746 H 65.1714 0.582699 4.81386 0
M  V30 747 N 66.5145 -1.57545 0.0417849 0
M  V30 748 C 67.4245 -2.14451 -0.951213 0
M  V30 749 C 68.4405 -1.09992 -1.34825 0
M  V30 750 O 69.6165 -1.42114 -1.42708 0
M  V30 751 C 66.6815 -2.67063 -2.21084 0
M  V30 752 C 65.7425 -3.86284 -1.87304 0
M  V30 753 C 64.9755 -4.36378 -3.07261 0
M  V30 754 O 65.1985 -3.85587 -4.20332 0
M  V30 755 O 64.1325 -5.28077 -2.88822 0
M  V30 756 H 67.9585 -2.99601 -0.497287 0
M  V30 757 H 65.5435 -1.48317 -0.179567 0
M  V30 758 H 67.4255 -3.00914 -2.95006 0
M  V30 759 H 66.1005 -1.84989 -2.65633 0
M  V30 760 H 65.0075 -3.57338 -1.10727 0
M  V30 761 H 66.3405 -4.6956 -1.47562 0
M  V30 762 N 67.9926 0.231505 -1.5589 0
M  V30 763 C 69.2386 0.95877 -1.78705 0
M  V30 764 C 69.5716 1.8438 -0.609725 0
M  V30 765 O 68.8466 1.90521 0.391426 0
M  V30 766 C 69.1296 1.8062 -3.11526 0
M  V30 767 C 68.9826 0.948328 -4.39689 0
M  V30 768 C 70.3016 2.78585 -3.40703 0
M  V30 769 H 67.4206 0.347129 -0.650131 0
M  V30 770 H 70.0626 0.228259 -1.88624 0
M  V30 771 H 68.2126 2.42902 -3.03201 0
M  V30 772 H 69.8846 0.343016 -4.60023 0
M  V30 773 H 68.1276 0.253314 -4.3306 0
M  V30 774 H 68.7986 1.57543 -5.29041 0
M  V30 775 H 71.2746 2.26439 -3.49091 0
M  V30 776 H 70.1506 3.34988 -4.34826 0
M  V30 777 H 70.4116 3.55825 -2.62375 0
M  V30 778 N 69.4707 1.49531 0.497807 0
M  V30 779 C 70.4337 1.65916 1.58128 0
M  V30 780 C 71.4337 0.530825 1.51786 0
M  V30 781 O 72.6237 0.797342 1.54881 0
M  V30 782 C 69.7557 1.65951 2.9778 0
M  V30 783 H 70.9487 2.62556 1.44929 0
M  V30 784 H 68.5017 1.38611 0.722275 0
M  V30 785 H 69.2367 0.709065 3.16453 0
M  V30 786 H 69.0217 2.47897 3.03792 0
M  V30 787 H 70.5117 1.80673 3.76493 0
M  V30 788 N 70.9488 -0.749086 1.3866 0
M  V30 789 C 72.3648 -1.05276 1.19955 0
M  V30 790 C 72.5648 -2.01435 0.05134 0
M  V30 791 O 71.6208 -2.45232 -0.60147 0
M  V30 792 C 72.9338 -1.62853 2.52783 0
M  V30 793 C 74.4818 -1.75002 2.59506 0
M  V30 794 C 74.9568 -2.35991 3.92521 0
M  V30 795 N 76.4478 -2.43416 3.94085 0
M  V30 796 C 77.1828 -2.91511 4.9377 0
M  V30 797 N 76.6788 -3.39608 6.03853 0
M  V30 798 N 78.4718 -2.90592 4.81157 0
M  V30 799 H 70.6228 -0.111066 2.12109 0
M  V30 800 H 72.8858 -0.111901 0.941373 0
M  V30 801 H 72.5918 -0.99664 3.37283 0
M  V30 802 H 72.4658 -2.61854 2.715 0
M  V30 803 H 74.8528 -2.37317 1.75398 0
M  V30 804 H 74.9338 -0.74693 2.44652 0
M  V30 805 H 74.5778 -1.74308 4.77053 0
M  V30 806 H 74.5078 -3.3695 4.04688 0
M  V30 807 H 76.9988 -2.09405 3.14576 0
M  V30 808 H 77.3118 -3.74775 6.75843 0
M  V30 809 H 75.6568 -3.37653 6.07466 0
M  V30 810 H 78.8478 -2.52332 3.94267 0
M  V30 811 H 79.0208 -3.27762 5.58996 0
M  V30 812 N 72.4269 -1.23603 -0.977757 0
M  V30 813 C 73.7039 -0.977897 -1.69401 0
M  V30 814 C 74.0839 0.502738 -2.05026 0
M  V30 815 O 73.4319 1.47459 -1.74551 0
M  V30 816 C 73.6419 -1.89077 -2.93345 0
M  V30 817 C 74.9899 -2.15579 -3.65802 0
M  V30 818 O 76.0139 -1.86648 -3.03383 0
M  V30 819 O 74.8729 -2.64658 -4.78141 0
M  V30 820 H 71.9669 -0.369025 -0.740101 0
M  V30 821 H 74.5129 -1.34657 -1.03274 0
M  V30 822 H 73.2849 -2.89158 -2.63634 0
M  V30 823 H 72.9079 -1.52463 -3.67207 0
M  V30 824 N 73.905 1.17692 -1.04816 0
M  V30 825 C 75.152 1.87859 -0.75599 0
M  V30 826 C 75.48 1.80812 0.716752 0
M  V30 827 O 74.735 1.20819 1.53952 0
M  V30 828 C 75.034 3.37462 -1.17703 0
M  V30 829 C 74.7 3.64713 -2.65133 0
M  V30 830 C 73.362 3.71859 -3.05408 0
M  V30 831 C 75.714 3.76492 -3.60421 0
M  V30 832 C 73.042 3.88271 -4.39843 0
M  V30 833 C 75.394 3.94421 -4.94585 0
M  V30 834 C 74.058 3.99806 -5.3452 0
M  V30 835 H 73.328 0.687425 -0.276636 0
M  V30 836 H 75.975 1.39255 -1.31455 0
M  V30 837 H 74.28 3.88097 -0.537395 0
M  V30 838 H 75.977 3.90109 -0.928218 0
M  V30 839 H 72.567 3.59772 -2.32942 0
M  V30 840 H 76.751 3.70295 -3.30447 0
M  V30 841 H 72.007 3.90687 -4.70291 0
M  V30 842 H 76.181 4.02477 -5.68318 0
M  V30 843 H 73.808 4.12276 -6.38696 0
M  V30 844 N 75.3831 0.828654 1.34056 0
M  V30 845 C 76.6291 0.42008 1.98402 0
M  V30 846 C 76.9621 -1.01564 1.65525 0
M  V30 847 O 76.2371 -1.70834 0.929831 0
M  V30 848 C 76.5201 0.62927 3.54559 0
M  V30 849 C 76.3731 2.11152 3.97159 0
M  V30 850 C 77.6921 0.0688756 4.40046 0
M  V30 851 H 74.8111 0.154104 0.720709 0
M  V30 852 H 77.4531 1.04228 1.5886 0
M  V30 853 H 75.6031 0.0996418 3.88372 0
M  V30 854 H 77.2751 2.70522 3.73651 0
M  V30 855 H 75.5181 2.59985 3.47261 0
M  V30 856 H 76.1891 2.20868 5.05887 0
M  V30 857 H 78.6651 0.521458 4.1282 0
M  V30 858 H 77.5411 0.245006 5.48353 0
M  V30 859 H 77.8021 -1.0266 4.30015 0
M  V30 860 N 76.8612 -1.46375 0.584142 0
M  V30 861 C 77.7712 -2.34115 -0.150728 0
M  V30 862 C 78.7872 -1.49838 -0.884567 0
M  V30 863 O 79.9632 -1.82704 -0.847429 0
M  V30 864 C 77.0282 -3.2705 -1.15062 0
M  V30 865 C 76.0892 -4.27228 -0.421293 0
M  V30 866 C 75.3222 -5.15722 -1.37355 0
M  V30 867 O 75.5452 -5.07176 -2.61014 0
M  V30 868 O 74.4792 -5.95383 -0.883355 0
M  V30 869 H 78.3052 -2.98309 0.569708 0
M  V30 870 H 75.8902 -1.45373 0.344535 0
M  V30 871 H 77.7722 -3.84381 -1.72712 0
M  V30 872 H 76.4472 -2.65451 -1.8525 0
M  V30 873 H 75.3542 -3.7358 0.197085 0
M  V30 874 H 76.6872 -4.91616 0.239641 0
M  V30 875 N 78.3393 -0.321999 -1.54275 0
M  V30 876 C 79.7553 0.0306999 -1.5957 0
M  V30 877 C 79.9553 1.50614 -1.33857 0
M  V30 878 O 79.0113 2.2619 -1.12223 0
M  V30 879 C 80.3243 -0.386122 -2.98211 0
M  V30 880 C 81.8723 -0.336647 -3.11184 0
M  V30 881 C 82.3473 -0.728607 -4.52167 0
M  V30 882 N 83.8383 -0.681952 -4.58152 0
M  V30 883 C 84.5733 -0.957449 -5.6535 0
M  V30 884 N 84.0693 -1.3 -6.80494 0
M  V30 885 N 85.8623 -0.883113 -5.55119 0
M  V30 886 H 78.0133 -1.28332 -1.69247 0
M  V30 887 H 80.2763 -0.521716 -0.791528 0
M  V30 888 H 79.9823 -1.41404 -3.22022 0
M  V30 889 H 79.8563 0.249662 -3.76373 0
M  V30 890 H 82.2433 0.682058 -2.8711 0
M  V30 891 H 82.3243 -1.00734 -2.3513 0
M  V30 892 H 81.9683 -1.74522 -4.76974 0
M  V30 893 H 81.8983 -0.0356152 -5.26588 0
M  V30 894 H 84.3893 -0.428985 -3.75457 0
M  V30 895 H 84.7023 -1.49563 -7.58189 0
M  V30 896 H 83.0473 -1.33824 -6.81994 0
M  V30 897 H 86.2383 -0.615001 -4.64042 0
M  V30 898 H 86.4113 -1.10118 -6.38575 0
M  V30 899 N 79.8174 1.5752 -0.0501392 0
M  V30 900 C 81.0634 1.92936 0.624798 0
M  V30 901 C 81.3964 0.928685 1.70555 0
M  V30 902 O 80.6714 -0.0454779 1.94447 0
M  V30 903 C 80.9544 3.38737 1.22185 0
M  V30 904 C 80.8074 4.49552 0.149218 0
M  V30 905 C 82.1264 3.84913 2.13378 0
M  V30 906 H 79.2454 0.701604 0.225657 0
M  V30 907 H 81.8874 1.89671 -0.111693 0
M  V30 908 H 80.0374 3.4165 1.84953 0
M  V30 909 H 81.7094 4.58768 -0.482648 0
M  V30 910 H 79.9524 4.30638 -0.522841 0
M  V30 911 H 80.6234 5.48653 0.606966 0
M  V30 912 H 83.0994 3.8387 1.60572 0
M  V30 913 H 81.9754 4.87584 2.52097 0
M  V30 914 H 82.2364 3.21611 3.03346 0
M  V30 915 N 81.2955 -0.223234 1.56011 0
M  V30 916 C 82.7115 -0.572856 1.48965 0
M  V30 917 C 82.9115 -1.87225 0.74492 0
M  V30 918 O 81.9675 -2.50899 0.283896 0
M  V30 919 C 83.2805 -0.653646 2.9351 0
M  V30 920 C 84.8285 -0.744386 3.0402 0
M  V30 921 C 85.3035 -0.856535 4.49919 0
M  V30 922 N 86.7945 -0.9208 4.53955 0
M  V30 923 C 87.5295 -1.02726 5.64123 0
M  V30 924 N 87.0255 -1.09777 6.84047 0
M  V30 925 N 88.8185 -1.06226 5.51971 0
M  V30 926 H 80.9695 0.629462 2.02858 0
M  V30 927 H 83.2325 0.220621 0.921971 0
M  V30 928 H 82.9385 0.231518 3.50937 0
M  V30 929 H 82.8125 -1.51781 3.45315 0
M  V30 930 H 85.1995 -1.61999 2.46658 0
M  V30 931 H 85.2805 0.14541 2.55386 0
M  V30 932 H 84.9245 0.0146069 5.07898 0
M  V30 933 H 84.8545 -1.76172 4.96257 0
M  V30 934 H 87.3455 -0.876694 3.6759 0
M  V30 935 H 87.6585 -1.17872 7.63758 0
M  V30 936 H 86.0035 -1.06693 6.86762 0
M  V30 937 H 89.1945 -1.00382 4.5721 0
M  V30 938 H 89.3675 -1.14177 6.37862 0
M  V30 939 N 82.7736 -1.49793 -0.48987 0
M  V30 940 C 83.6836 -1.70036 -1.61632 0
M  V30 941 C 84.6996 -0.583102 -1.63939 0
M  V30 942 O 85.8756 -0.859169 -1.82154 0
M  V30 943 C 82.9406 -1.77277 -2.97949 0
M  V30 944 C 82.0016 -3.00918 -3.06181 0
M  V30 945 C 81.2346 -3.07804 -4.35996 0
M  V30 946 O 81.4576 -2.21982 -5.25433 0
M  V30 947 O 80.3916 -4.00369 -4.49431 0
M  V30 948 H 84.2176 -2.65486 -1.47482 0
M  V30 949 H 81.8026 -1.33666 -0.667362 0
M  V30 950 H 83.6846 -1.84329 -3.78947 0
M  V30 951 H 82.3596 -0.850076 -3.12339 0
M  V30 952 H 81.2666 -2.99377 -2.2433 0
M  V30 953 H 82.5996 -3.92704 -2.96723 0
M  V30 954 N 84.2517 0.741722 -1.39055 0
M  V30 955 C 85.1617 1.88621 -1.39496 0
M  V30 956 C 86.1777 1.71557 -0.290578 0
M  V30 957 O 87.3537 1.94275 -0.530954 0
M  V30 958 C 84.4187 3.24134 -1.23037 0
M  V30 959 C 83.4797 3.5364 -2.43387 0
M  V30 960 C 82.7127 4.82687 -2.27703 0
M  V30 961 O 82.9357 5.55922 -1.27696 0
M  V30 962 O 81.8697 5.1194 -3.16545 0
M  V30 963 H 85.6957 1.91203 -2.35956 0
M  V30 964 H 83.2807 0.888625 -1.20099 0
M  V30 965 H 85.1627 4.0513 -1.15964 0
M  V30 966 H 83.8377 3.22337 -0.296691 0
M  V30 967 H 82.7447 2.72758 -2.56035 0
M  V30 968 H 84.0777 3.60209 -3.35425 0
M  V30 969 N 85.7298 1.2412 0.971189 0
M  V30 970 C 86.6928 1.03156 2.04674 0
M  V30 971 C 87.6928 -0.00990322 1.60797 0
M  V30 972 O 88.8828 0.230729 1.72665 0
M  V30 973 C 86.0148 0.562765 3.36223 0
M  V30 974 H 87.2078 1.98614 2.24705 0
M  V30 975 H 84.7608 1.06293 1.14593 0
M  V30 976 H 85.4958 -0.395176 3.21883 0
M  V30 977 H 85.2808 1.31441 3.69413 0
M  V30 978 H 86.7708 0.437015 4.15307 0
M  V30 979 N 87.2079 -1.17134 1.05439 0
M  V30 980 C 88.1379 -2.2342 0.678649 0
M  V30 981 C 89.1189 -1.66971 -0.32476 0
M  V30 982 O 90.3039 -1.93149 -0.201802 0
M  V30 983 C 87.4339 -3.47256 0.0552099 0
M  V30 984 C 86.3879 -4.16543 0.98365 0
M  V30 985 C 85.7139 -5.34231 0.223961 0
M  V30 986 C 87.0139 -4.68495 2.3089 0
M  V30 987 H 88.7079 -2.55105 1.56722 0
M  V30 988 H 86.2539 -1.2262 0.754998 0
M  V30 989 H 88.2069 -4.20828 -0.21946 0
M  V30 990 H 86.9309 -3.14846 -0.868319 0
M  V30 991 H 85.5899 -3.44887 1.24293 0
M  V30 992 H 85.2379 -4.98071 -0.702412 0
M  V30 993 H 84.9379 -5.81527 0.842627 0
M  V30 994 H 86.4619 -6.10585 -0.0433671 0
M  V30 995 H 87.8759 -5.33691 2.09396 0
M  V30 996 H 86.2729 -5.26379 2.88176 0
M  V30 997 H 87.3429 -3.85169 2.94572 0
M  V30 998 N 88.686 -0.835752 -1.33615 0
M  V30 999 C 89.934 -0.429109 -1.97492 0
M  V30 1000 C 90.255 1.01433 -1.66543 0
M  V30 1001 O 89.525 1.70611 -0.962744 0
M  V30 1002 H 88.105 -0.155686 -0.730596 0
M  V30 1003 H 90.767 -1.06802 -1.63031 0
M  V30 1004 H 89.863 -0.55861 -3.0706 0
M  V30 1005 N 90.1641 1.46063 -0.591896 0
M  V30 1006 C 91.1111 2.30399 0.136069 0
M  V30 1007 C 92.0811 1.41169 0.875238 0
M  V30 1008 O 93.2661 1.70112 0.86409 0
M  V30 1009 C 90.4061 3.25804 1.13781 0
M  V30 1010 C 89.5191 4.30134 0.401137 0
M  V30 1011 C 88.6541 5.12659 1.39121 0
M  V30 1012 C 87.6931 6.0873 0.641462 0
M  V30 1013 N 86.8301 6.8409 1.58004 0
M  V30 1014 H 91.6701 2.92118 -0.589144 0
M  V30 1015 H 89.2071 1.43959 -0.302342 0
M  V30 1016 H 91.1651 3.79569 1.73156 0
M  V30 1017 H 89.7951 2.65872 1.83062 0
M  V30 1018 H 88.8471 3.79152 -0.307826 0
M  V30 1019 H 90.1591 4.98458 -0.184565 0
M  V30 1020 H 89.3131 5.70747 2.05749 0
M  V30 1021 H 88.0521 4.44316 2.01084 0
M  V30 1022 H 87.0571 5.49786 -0.0385419 0
M  V30 1023 H 88.2821 6.79095 0.0270945 0
M  V30 1024 H 86.2281 6.18449 2.18761 0
M  V30 1025 H 86.1451 7.48709 1.04738 0
M  V30 1026 H 87.4131 7.4673 2.23639 0
M  V30 1027 N 91.6422 0.330177 1.54103 0
M  V30 1028 C 92.5742 -0.566902 2.22079 0
M  V30 1029 C 93.5872 -1.07462 1.22294 0
M  V30 1030 O 94.7762 -0.987065 1.48726 0
M  V30 1031 C 91.8762 -1.79138 2.87685 0
M  V30 1032 C 91.0492 -1.42123 4.13666 0
M  V30 1033 C 90.1082 -2.50394 4.62806 0
M  V30 1034 O 89.1342 -2.14261 5.27334 0
M  V30 1035 N 90.3362 -3.81433 4.37595 0
M  V30 1036 H 93.1012 0.0151844 2.99696 0
M  V30 1037 H 90.6622 0.153681 1.61169 0
M  V30 1038 H 92.6542 -2.50975 3.1748 0
M  V30 1039 H 91.2242 -2.28115 2.13734 0
M  V30 1040 H 90.4442 -0.534201 3.90564 0
M  V30 1041 H 91.7322 -1.14971 4.9564 0
M  V30 1042 H 91.1302 -4.13584 3.8596 0
M  V30 1043 H 89.6872 -4.4948 4.72029 0
M  V30 1044 N 93.1203 -1.57491 0.0584922 0
M  V30 1045 C 94.3663 -1.93264 -0.614558 0
M  V30 1046 C 94.6993 -0.937717 -1.7006 0
M  V30 1047 O 93.9743 0.0351652 -1.94468 0
M  V30 1048 C 94.2573 -3.3938 -1.20386 0
M  V30 1049 C 94.1103 -4.49625 -0.125375 0
M  V30 1050 C 95.4293 -3.86039 -2.11334 0
M  V30 1051 H 92.5483 -0.702791 -0.221933 0
M  V30 1052 H 95.1903 -1.8961 0.12175 0
M  V30 1053 H 93.3403 -3.42626 -1.83139 0
M  V30 1054 H 95.0123 -4.58506 0.506971 0
M  V30 1055 H 93.2553 -4.30354 0.545672 0
M  V30 1056 H 93.9263 -5.48967 -0.577861 0
M  V30 1057 H 96.4023 -3.84716 -1.58534 0
M  V30 1058 H 95.2783 -4.88914 -2.49507 0
M  V30 1059 H 95.5393 -3.23215 -3.01636 0
M  V30 1060 N 94.5984 0.214957 -1.56127 0
M  V30 1061 C 95.5284 1.2695 -1.95974 0
M  V30 1062 C 96.5094 1.48539 -0.828868 0
M  V30 1063 O 97.6944 1.60611 -1.09168 0
M  V30 1064 C 94.8244 2.61794 -2.28214 0
M  V30 1065 C 93.7784 2.54851 -3.43853 0
M  V30 1066 C 93.1044 3.93785 -3.61715 0
M  V30 1067 C 94.4044 2.09065 -4.78632 0
M  V30 1068 H 96.0984 0.93846 -2.84312 0
M  V30 1069 H 93.6444 0.449996 -1.36788 0
M  V30 1070 H 95.5974 3.35731 -2.54682 0
M  V30 1071 H 94.3214 2.96599 -1.36736 0
M  V30 1072 H 92.9804 1.8337 -3.17444 0
M  V30 1073 H 92.6284 4.25908 -2.67602 0
M  V30 1074 H 92.3284 3.90019 -4.39498 0
M  V30 1075 H 93.8524 4.69374 -3.90539 0
M  V30 1076 H 95.2664 2.7275 -5.04262 0
M  V30 1077 H 93.6634 2.16346 -5.59745 0
M  V30 1078 H 94.7334 1.04315 -4.73547 0
M  V30 1079 N 96.0765 1.50051 0.48192 0
M  V30 1080 C 96.9865 1.7089 1.60728 0
M  V30 1081 C 98.0025 0.591788 1.63627 0
M  V30 1082 O 99.1785 0.868817 1.81696 0
M  V30 1083 C 96.2435 1.78855 2.97005 0
M  V30 1084 C 95.3045 3.02537 3.04581 0
M  V30 1085 C 94.5375 3.10112 4.34357 0
M  V30 1086 O 94.7605 2.24765 5.24249 0
M  V30 1087 O 93.6945 4.02747 4.47301 0
M  V30 1088 H 97.5205 2.66264 1.46072 0
M  V30 1089 H 95.1055 1.34018 0.660264 0
M  V30 1090 H 96.9875 1.86336 3.77964 0
M  V30 1091 H 95.6625 0.866628 3.11883 0
M  V30 1092 H 94.5695 3.00563 2.22739 0
M  V30 1093 H 95.9025 3.94272 2.94636 0
M  V30 1094 N 97.5546 -0.734337 1.39446 0
M  V30 1095 C 98.7796 -1.52866 1.40167 0
M  V30 1096 C 99.2046 -1.881 -0.00171513 0
M  V30 1097 O 98.5626 -1.51957 -0.988879 0
M  V30 1098 C 98.6106 -2.79235 2.28167 0
M  V30 1099 O 97.7146 -3.75185 1.71201 0
M  V30 1100 H 97.0556 -0.461618 0.477289 0
M  V30 1101 H 99.5856 -0.905949 1.8345 0
M  V30 1102 H 99.5956 -3.27963 2.42702 0
M  V30 1103 H 98.2706 -2.52923 3.30156 0
M  V30 1104 H 96.8476 -3.33958 1.65912 0
M  V30 1105 N 99.0327 -1.24633 -0.964593 0
M  V30 1106 C 99.9627 -1.06611 -2.07741 0
M  V30 1107 C 100.944 0.0218666 -1.70086 0
M  V30 1108 O 102.129 -0.145793 -1.93652 0
M  V30 1109 C 99.2587 -0.673444 -3.40708 0
M  V30 1110 C 98.2127 -1.71054 -3.92332 0
M  V30 1111 C 97.5387 -1.17285 -5.21678 0
M  V30 1112 C 98.8387 -3.10718 -4.19824 0
M  V30 1113 H 100.533 -1.99693 -2.23076 0
M  V30 1114 H 98.0787 -0.96152 -1.07195 0
M  V30 1115 H 100.032 -0.534345 -4.17998 0
M  V30 1116 H 98.7557 0.293073 -3.25282 0
M  V30 1117 H 97.4147 -1.83791 -3.17201 0
M  V30 1118 H 97.0627 -0.196847 -5.02615 0
M  V30 1119 H 96.7627 -1.86592 -5.57187 0
M  V30 1120 H 98.2867 -1.04593 -6.01575 0
M  V30 1121 H 99.7007 -3.01192 -4.87808 0
M  V30 1122 H 98.0977 -3.77406 -4.66567 0
M  V30 1123 H 99.1677 -3.58524 -3.26479 0
M  V30 1124 N 100.511 1.16574 -1.06058 0
M  V30 1125 C 101.739 1.90952 -0.796552 0
M  V30 1126 C 102.154 1.77302 0.648808 0
M  V30 1127 O 101.511 1.11605 1.44397 0
M  V30 1128 C 101.562 3.41736 -1.17894 0
M  V30 1129 O 101.283 3.54975 -2.56758 0
M  V30 1130 C 102.784 4.33169 -0.942308 0
M  V30 1131 H 100.004 0.605594 -0.288959 0
M  V30 1132 H 102.548 1.47777 -1.41358 0
M  V30 1133 H 100.703 3.82623 -0.606491 0
M  V30 1134 H 101.117 4.4846 -2.72 0
M  V30 1135 H 102.591 5.37439 -1.25952 0
M  V30 1136 H 103.068 4.3903 0.122078 0
M  V30 1137 H 103.674 3.98007 -1.49902 0
M  V30 1138 N 101.989 0.842826 1.3317 0
M  V30 1139 C 103.4 0.496651 1.79973 0
M  V30 1140 C 103.751 -0.984641 1.69703 0
M  V30 1141 O 102.876 -1.76743 1.24863 0
M  V30 1142 C 103.471 0.894727 3.26772 0
M  V30 1143 C 102.03 0.600629 3.71577 0
M  V30 1144 C 101.177 1.10091 2.5451 0
M  V30 1145 H 104.128 1.03116 1.20635 0
M  V30 1146 H 104.149 0.206347 3.7994 0
M  V30 1147 H 103.661 1.97287 3.34215 0
M  V30 1148 H 101.762 -0.467284 3.69658 0
M  V30 1149 H 101.875 1.15863 4.64879 0
M  V30 1150 H 100.239 0.52162 2.49301 0
M  V30 1151 H 101.022 2.18591 2.64713 0
M  V30 1152 N 103.467 -1.45747 0.599634 0
M  V30 1153 C 104.43 -2.28917 -0.113835 0
M  V30 1154 C 105.43 -1.3933 -0.802729 0
M  V30 1155 O 106.62 -1.61534 -0.652103 0
M  V30 1156 C 103.752 -3.20152 -1.17114 0
M  V30 1157 H 104.945 -2.93478 0.617289 0
M  V30 1158 H 102.498 -1.52137 0.358327 0
M  V30 1159 H 103.233 -2.60374 -1.93329 0
M  V30 1160 H 103.018 -3.86133 -0.681468 0
M  V30 1161 H 104.508 -3.82708 -1.67105 0
M  V30 1162 N 104.945 -0.338344 -1.53925 0
M  V30 1163 C 105.855 0.529421 -2.28548 0
M  V30 1164 C 106.871 1.11645 -1.3346 0
M  V30 1165 O 108.047 1.13325 -1.66492 0
M  V30 1166 C 105.112 1.66713 -3.03987 0
M  V30 1167 C 104.173 1.11041 -4.14691 0
M  V30 1168 C 103.406 2.19389 -4.86522 0
M  V30 1169 O 103.629 3.40013 -4.57982 0
M  V30 1170 O 102.563 1.83976 -5.73094 0
M  V30 1171 H 106.389 -0.0770399 -3.03602 0
M  V30 1172 H 103.974 -0.103555 -1.49041 0
M  V30 1173 H 105.856 2.32918 -3.5118 0
M  V30 1174 H 104.531 2.25949 -2.31794 0
M  V30 1175 H 103.438 0.413024 -3.71813 0
M  V30 1176 H 104.771 0.562975 -4.8897 0
M  V30 1177 N 106.423 1.57458 -0.0668435 0
M  V30 1178 C 107.669 1.93587 0.6043 0
M  V30 1179 C 108.002 0.946722 1.69561 0
M  V30 1180 O 107.277 -0.0248516 1.94484 0
M  V30 1181 C 107.56 3.40014 1.18585 0
M  V30 1182 C 107.413 4.49685 0.101529 0
M  V30 1183 C 108.732 3.87154 2.09284 0
M  V30 1184 H 105.851 0.703958 0.218202 0
M  V30 1185 H 108.493 1.89542 -0.131804 0
M  V30 1186 H 106.643 3.43592 1.81319 0
M  V30 1187 H 108.315 4.5823 -0.531279 0
M  V30 1188 H 106.558 4.30059 -0.568487 0
M  V30 1189 H 107.229 5.49266 0.54874 0
M  V30 1190 H 109.705 3.85551 1.56491 0
M  V30 1191 H 108.581 4.90231 2.46911 0
M  V30 1192 H 108.842 3.2481 2.99918 0
M  V30 1193 N 107.901 -0.206675 1.56239 0
M  V30 1194 C 109.15 -0.926964 1.79138 0
M  V30 1195 C 109.463 -1.84901 0.638043 0
M  V30 1196 O 110.669 -2.60906 0.751033 0
M  V30 1197 C 109.125 -1.6986 3.17294 0
M  V30 1198 C 108.733 -0.821956 4.40395 0
M  V30 1199 C 110.477 -2.40922 3.4951 0
M  V30 1200 C 108.384 -1.59179 5.69575 0
M  V30 1201 H 107.314 -0.349864 0.667915 0
M  V30 1202 H 109.965 -0.180487 1.8261 0
M  V30 1203 H 108.347 -2.48853 3.08039 0
M  V30 1204 H 109.521 -0.0715019 4.60745 0
M  V30 1205 H 107.836 -0.222741 4.15804 0
M  V30 1206 H 110.433 -2.99047 4.43255 0
M  V30 1207 H 110.776 -3.14542 2.72707 0
M  V30 1208 H 111.309 -1.68905 3.60161 0
M  V30 1209 H 108.048 -0.898589 6.49312 0
M  V30 1210 H 107.568 -2.31648 5.53262 0
M  V30 1211 H 109.247 -2.14862 6.10281 0
M  V30 1212 N 109.379 -1.50304 -0.473955 0
M  V30 1213 C 110.309 -1.71886 -1.58042 0
M  V30 1214 C 111.29 -0.567799 -1.60344 0
M  V30 1215 O 112.475 -0.806623 -1.76656 0
M  V30 1216 C 109.605 -1.81036 -2.96384 0
M  V30 1217 C 108.559 -2.962 -3.08949 0
M  V30 1218 C 107.885 -2.9049 -4.48909 0
M  V30 1219 C 109.185 -4.36752 -2.86434 0
M  V30 1220 H 110.879 -2.64527 -1.40234 0
M  V30 1221 H 108.425 -1.27295 -0.673201 0
M  V30 1222 H 110.378 -1.94719 -3.73714 0
M  V30 1223 H 109.102 -0.850147 -3.15341 0
M  V30 1224 H 107.761 -2.82164 -2.3405 0
M  V30 1225 H 107.409 -1.92321 -4.64781 0
M  V30 1226 H 107.109 -3.67802 -4.58253 0
M  V30 1227 H 108.633 -3.06218 -5.28264 0
M  V30 1228 H 110.047 -4.5133 -3.53517 0
M  V30 1229 H 108.444 -5.15493 -3.07225 0
M  V30 1230 H 109.514 -4.49321 -1.82316 0
M  V30 1231 N 110.857 0.726932 -1.39834 0
M  V30 1232 C 111.82 1.82269 -1.38962 0
M  V30 1233 C 112.82 1.58248 -0.285334 0
M  V30 1234 O 114.01 1.65499 -0.54366 0
M  V30 1235 C 111.142 3.20186 -1.17019 0
M  V30 1236 H 112.335 1.84443 -2.36476 0
M  V30 1237 H 109.888 0.931416 -1.25516 0
M  V30 1238 H 110.623 3.23669 -0.202204 0
M  V30 1239 H 110.408 3.3902 -1.96998 0
M  V30 1240 H 111.898 4.00235 -1.1917 0
M  V30 1241 N 112.336 1.25143 0.95797 0
M  V30 1242 C 113.564 1.12424 1.73691 0
M  V30 1243 C 113.979 -0.322304 1.86029 0
M  V30 1244 O 113.336 -1.22186 1.35561 0
M  V30 1245 C 113.387 1.76933 3.15241 0
M  V30 1246 O 113.108 3.15932 3.03511 0
M  V30 1247 C 114.609 1.6995 4.09429 0
M  V30 1248 H 111.829 0.3923 0.544373 0
M  V30 1249 H 114.373 1.6544 1.20207 0
M  V30 1250 H 112.528 1.27895 3.6568 0
M  V30 1251 H 112.942 3.47598 3.9278 0
M  V30 1252 H 114.416 2.19753 5.06372 0
M  V30 1253 H 114.893 0.662619 4.34173 0
M  V30 1254 H 115.499 2.18461 3.64904 0
M  V30 1255 N 113.814 -1.1601 1.06675 0
M  V30 1256 C 115.06 -1.86909 0.786945 0
M  V30 1257 C 115.393 -1.81717 -0.685018 0
M  V30 1258 O 114.668 -1.23551 -1.50218 0
M  V30 1259 C 114.951 -3.36313 1.28707 0
M  V30 1260 C 114.804 -3.50175 2.82308 0
M  V30 1261 C 116.123 -4.3084 0.898071 0
M  V30 1262 H 113.242 -0.678677 0.287343 0
M  V30 1263 H 115.884 -1.36336 1.32334 0
M  V30 1264 H 114.034 -3.79513 0.830768 0
M  V30 1265 H 115.706 -3.15886 3.36175 0
M  V30 1266 H 113.949 -2.91959 3.20847 0
M  V30 1267 H 114.62 -4.55116 3.12368 0
M  V30 1268 H 117.096 -3.95561 1.29114 0
M  V30 1269 H 115.972 -5.33876 1.27543 0
M  V30 1270 H 116.233 -4.41662 -0.196651 0
M  V30 1271 N 115.292 -0.849877 -1.32721 0
M  V30 1272 C 116.522 -0.46408 -2.0132 0
M  V30 1273 C 116.93 0.94246 -1.64056 0
M  V30 1274 O 116.273 1.6257 -0.855379 0
M  V30 1275 C 116.335 -0.517887 -3.5575 0
M  V30 1276 C 115.999 -1.88248 -4.16427 0
M  V30 1277 C 116.996 -2.84726 -4.35002 0
M  V30 1278 C 114.681 -2.17832 -4.52609 0
M  V30 1279 C 116.675 -4.08945 -4.8892 0
M  V30 1280 C 114.362 -3.42304 -5.06232 0
M  V30 1281 C 115.36 -4.37677 -5.24335 0
M  V30 1282 O 115.048 -5.59946 -5.76815 0
M  V30 1283 H 114.78 -0.181327 -0.651227 0
M  V30 1284 H 117.334 -1.14713 -1.70382 0
M  V30 1285 H 115.564 0.221997 -3.86062 0
M  V30 1286 H 117.253 -0.148366 -4.05629 0
M  V30 1287 H 118.019 -2.63174 -4.07388 0
M  V30 1288 H 113.898 -1.44385 -4.37806 0
M  V30 1289 H 117.442 -4.83396 -5.02966 0
M  V30 1290 H 113.339 -3.63709 -5.33278 0
M  V30 1291 H 114.107 -5.61838 -5.95214 0
M  V30 1292 N 116.77 1.45427 -0.607355 0
M  V30 1293 C 117.68 2.34325 0.113463 0
M  V30 1294 C 118.696 1.51226 0.860617 0
M  V30 1295 O 119.872 1.84029 0.818255 0
M  V30 1296 C 116.937 3.28839 1.09844 0
M  V30 1297 C 115.998 4.27844 0.353271 0
M  V30 1298 C 115.231 5.17842 1.29133 0
M  V30 1299 O 115.454 5.11264 2.52913 0
M  V30 1300 O 114.388 5.96713 0.788523 0
M  V30 1301 H 118.214 2.97364 -0.617094 0
M  V30 1302 H 115.799 1.44807 -0.367619 0
M  V30 1303 H 117.681 3.8708 1.66575 0
M  V30 1304 H 116.356 2.68365 1.81003 0
M  V30 1305 H 115.263 3.7322 -0.256494 0
M  V30 1306 H 116.596 4.91173 -0.317822 0
M  V30 1307 N 118.248 0.346503 1.53744 0
M  V30 1308 C 119.211 -0.496439 2.23759 0
M  V30 1309 C 120.211 -1.0252 1.2388 0
M  V30 1310 O 121.401 -0.913974 1.48297 0
M  V30 1311 C 118.533 -1.69187 2.95954 0
M  V30 1312 H 119.726 0.115952 2.99676 0
M  V30 1313 H 117.279 0.0978939 1.55993 0
M  V30 1314 H 118.014 -2.34288 2.24231 0
M  V30 1315 H 117.799 -1.31989 3.69217 0
M  V30 1316 H 119.289 -2.28969 3.49232 0
M  V30 1317 N 119.726 -1.57421 0.075193 0
M  V30 1318 C 120.656 -2.15942 -0.888324 0
M  V30 1319 C 121.637 -1.08737 -1.30806 0
M  V30 1320 O 122.822 -1.36787 -1.37851 0
M  V30 1321 C 119.952 -2.72379 -2.1547 0
M  V30 1322 C 118.906 -3.8478 -1.87425 0
M  V30 1323 C 118.232 -4.27834 -3.20721 0
M  V30 1324 C 119.532 -5.08869 -1.17684 0
M  V30 1325 H 121.226 -2.96705 -0.400799 0
M  V30 1326 H 118.772 -1.42723 -0.191342 0
M  V30 1327 H 120.725 -3.11965 -2.83295 0
M  V30 1328 H 119.449 -1.88841 -2.6647 0
M  V30 1329 H 118.108 -3.45703 -1.22004 0
M  V30 1330 H 117.756 -3.41214 -3.6957 0
M  V30 1331 H 117.456 -5.03605 -3.02746 0
M  V30 1332 H 118.98 -4.70039 -3.89738 0
M  V30 1333 H 120.394 -5.4575 -1.75584 0
M  V30 1334 H 118.791 -5.8994 -1.09956 0
M  V30 1335 H 119.861 -4.84648 -0.156453 0
M  V30 1336 N 121.204 0.198386 -1.56346 0
M  V30 1337 C 122.151 1.24589 -1.94284 0
M  V30 1338 C 123.121 1.454 -0.802997 0
M  V30 1339 O 124.306 1.58588 -1.06087 0
M  V30 1340 C 121.446 2.58631 -2.28482 0
M  V30 1341 C 120.559 2.45426 -3.55514 0
M  V30 1342 C 119.694 3.7215 -3.79049 0
M  V30 1343 C 118.733 3.53763 -4.99518 0
M  V30 1344 N 117.87 4.72491 -5.19323 0
M  V30 1345 H 122.71 0.915356 -2.83593 0
M  V30 1346 H 120.247 0.440629 -1.40346 0
M  V30 1347 H 122.205 3.3672 -2.46324 0
M  V30 1348 H 120.835 2.89734 -1.42317 0
M  V30 1349 H 119.887 1.58652 -3.45737 0
M  V30 1350 H 121.199 2.27772 -4.43758 0
M  V30 1351 H 120.353 4.58679 -3.97113 0
M  V30 1352 H 119.092 3.92754 -2.89129 0
M  V30 1353 H 118.097 2.65619 -4.8138 0
M  V30 1354 H 119.322 3.34607 -5.90944 0
M  V30 1355 H 117.268 4.93365 -4.3235 0
M  V30 1356 H 117.185 4.5765 -6.01741 0
M  V30 1357 H 118.453 5.6038 -5.41843 0
M  V30 1358 N 122.682 1.50554 0.465978 0
M  V30 1359 C 123.592 1.72585 1.58907 0
M  V30 1360 C 124.608 0.60911 1.6299 0
M  V30 1361 O 125.784 0.88804 1.80765 0
M  V30 1362 C 122.849 1.81995 2.95091 0
M  V30 1363 C 121.91 3.05751 3.01355 0
M  V30 1364 C 121.143 3.14702 4.31043 0
M  V30 1365 O 121.366 2.30313 5.21835 0
M  V30 1366 O 120.3 4.07468 4.43005 0
M  V30 1367 H 124.126 2.67799 1.43239 0
M  V30 1368 H 121.711 1.34711 0.646013 0
M  V30 1369 H 123.593 1.90335 3.75966 0
M  V30 1370 H 122.268 0.899659 3.10947 0
M  V30 1371 H 121.175 3.02908 2.19539 0
M  V30 1372 H 122.508 3.97375 2.90437 0
M  V30 1373 N 124.16 -0.719506 1.40217 0
M  V30 1374 C 125.123 -1.8153 1.39927 0
M  V30 1375 C 126.123 -1.58095 0.293723 0
M  V30 1376 O 127.313 -1.65209 0.552429 0
M  V30 1377 C 124.445 -3.19561 1.18716 0
M  V30 1378 H 125.638 -1.83186 2.37451 0
M  V30 1379 H 123.191 -0.924746 1.26008 0
M  V30 1380 H 123.926 -3.23557 0.219366 0
M  V30 1381 H 123.711 -3.3797 1.98793 0
M  V30 1382 H 125.201 -3.99598 1.21291 0
M  V30 1383 N 125.638 -1.25649 -0.95132 0
M  V30 1384 C 126.568 -1.08808 -2.06599 0
M  V30 1385 C 127.549 0.00382547 -1.701 0
M  V30 1386 O 128.734 -0.166325 -1.93486 0
M  V30 1387 C 125.864 -0.709542 -3.39975 0
M  V30 1388 C 124.818 -1.75206 -3.90496 0
M  V30 1389 C 124.144 -1.22811 -5.20405 0
M  V30 1390 C 125.444 -3.15153 -4.16504 0
M  V30 1391 H 127.138 -2.02048 -2.20946 0
M  V30 1392 H 124.684 -0.972835 -1.06169 0
M  V30 1393 H 126.637 -0.578649 -4.17408 0
M  V30 1394 H 125.361 0.258556 -3.25575 0
M  V30 1395 H 124.02 -1.87145 -3.15234 0
M  V30 1396 H 123.668 -0.250145 -5.02378 0
M  V30 1397 H 123.368 -1.92492 -5.55176 0
M  V30 1398 H 124.892 -1.10968 -6.00432 0
M  V30 1399 H 126.306 -3.06349 -4.84586 0
M  V30 1400 H 124.703 -3.82333 -4.62538 0
M  V30 1401 H 125.773 -3.61966 -3.22658 0
M  V30 1402 N 127.117 1.15442 -1.07289 0
M  V30 1403 C 128.365 1.85845 -0.794096 0
M  V30 1404 C 128.686 1.82692 0.681809 0
M  V30 1405 O 127.956 1.26741 1.49377 0
M  V30 1406 H 126.536 0.688089 -0.290763 0
M  V30 1407 H 129.198 1.39947 -1.3565 0
M  V30 1408 H 128.294 2.91001 -1.12804 0
M  V30 1409 N 128.595 0.856903 1.32268 0
M  V30 1410 C 129.843 0.460474 1.96784 0
M  V30 1411 C 130.164 -0.987701 1.68135 0
M  V30 1412 O 129.434 -1.69058 0.989765 0
M  V30 1413 H 128.014 0.167289 0.728027 0
M  V30 1414 H 130.676 1.09383 1.61312 0
M  V30 1415 H 129.772 0.60739 3.06133 0
M  V30 1416 N 130.073 -1.45103 0.615059 0
M  V30 1417 C 130.983 -2.34382 -0.101034 0
M  V30 1418 C 131.999 -1.51681 -0.852585 0
M  V30 1419 O 133.175 -1.8446 -0.808484 0
M  V30 1420 C 130.24 -3.29417 -1.08099 0
M  V30 1421 C 129.301 -4.28025 -0.330577 0
M  V30 1422 C 128.534 -5.1852 -1.26385 0
M  V30 1423 O 128.757 -5.12598 -2.50198 0
M  V30 1424 O 127.691 -5.97122 -0.756866 0
M  V30 1425 H 131.517 -2.97033 0.632855 0
M  V30 1426 H 129.102 -1.4461 0.375293 0
M  V30 1427 H 130.984 -3.87958 -1.6452 0
M  V30 1428 H 129.659 -2.69321 -1.79577 0
M  V30 1429 H 128.566 -3.73078 0.276283 0
M  V30 1430 H 129.899 -4.90997 0.343866 0
M  V30 1431 N 131.551 -0.354651 -1.53558 0
M  V30 1432 C 132.514 0.484566 -2.24019 0
M  V30 1433 C 133.514 1.01861 -1.24422 0
M  V30 1434 O 134.704 0.906097 -1.4878 0
M  V30 1435 C 131.836 1.67615 -2.96847 0
M  V30 1436 H 133.029 -0.131843 -2.9961 0
M  V30 1437 H 130.582 -0.106165 -1.55939 0
M  V30 1438 H 131.317 2.33095 -2.25471 0
M  V30 1439 H 131.102 1.30029 -3.69912 0
M  V30 1440 H 132.592 2.27114 -3.50441 0
M  V30 1441 N 133.029 1.57378 -0.0835403 0
M  V30 1442 C 134.445 1.57246 0.273109 0
M  V30 1443 C 134.645 1.09385 1.69225 0
M  V30 1444 O 133.701 0.765051 2.40631 0
M  V30 1445 C 135.014 3.00614 0.0720628 0
M  V30 1446 C 136.562 3.12684 0.1407 0
M  V30 1447 C 137.037 4.57989 -0.0322094 0
M  V30 1448 N 138.528 4.63194 0.0230085 0
M  V30 1449 C 139.263 5.73335 -0.0861941 0
M  V30 1450 N 138.759 6.9235 -0.24958 0
M  V30 1451 N 140.552 5.62093 -0.0282886 0
M  V30 1452 H 132.703 1.86801 -1.0109 0
M  V30 1453 H 134.966 0.861687 -0.395222 0
M  V30 1454 H 134.672 3.39786 -0.907662 0
M  V30 1455 H 134.546 3.68193 0.81936 0
M  V30 1456 H 136.933 2.73391 1.11092 0
M  V30 1457 H 137.014 2.47719 -0.637896 0
M  V30 1458 H 136.658 4.97973 -0.999247 0
M  V30 1459 H 136.588 5.21 0.765937 0
M  V30 1460 H 139.079 3.77613 0.14722 0
M  V30 1461 H 139.392 7.72117 -0.324733 0
M  V30 1462 H 137.737 6.94415 -0.285097 0
M  V30 1463 H 140.928 4.67997 0.0981408 0
M  V30 1464 H 141.101 6.47895 -0.116845 0
M  V30 1465 N 134.507 -0.190092 1.56449 0
M  V30 1466 C 135.437 -1.23816 1.97969 0
M  V30 1467 C 136.418 -1.47201 0.852395 0
M  V30 1468 O 137.603 -1.58854 1.1171 0
M  V30 1469 C 134.733 -2.5813 2.3235 0
M  V30 1470 C 133.687 -2.49348 3.47864 0
M  V30 1471 C 133.013 -3.8798 3.67934 0
M  V30 1472 C 134.313 -2.01424 4.81898 0
M  V30 1473 H 136.007 -0.89311 2.85769 0
M  V30 1474 H 133.553 -0.428177 1.37487 0
M  V30 1475 H 135.506 -3.31637 2.59991 0
M  V30 1476 H 134.23 -2.94386 1.41438 0
M  V30 1477 H 132.889 -1.78297 3.20321 0
M  V30 1478 H 132.537 -4.21597 2.74344 0
M  V30 1479 H 132.237 -3.82978 4.45648 0
M  V30 1480 H 133.761 -4.63101 3.97957 0
M  V30 1481 H 135.175 -2.64693 5.08538 0
M  V30 1482 H 133.572 -2.07413 5.63116 0
M  V30 1483 H 134.642 -0.967677 4.75146 0
M  V30 1484 N 135.985 -1.50799 -0.457987 0
M  V30 1485 C 137.396 -1.55152 -1.0385 0
M  V30 1486 C 137.747 -0.362719 -1.92818 0
M  V30 1487 O 136.872 0.522915 -2.09987 0
M  V30 1488 C 137.467 -2.81173 -1.89017 0
M  V30 1489 C 136.026 -2.88164 -2.42154 0
M  V30 1490 C 135.173 -2.49591 -1.20829 0
M  V30 1491 H 138.124 -1.56874 -0.240068 0
M  V30 1492 H 138.145 -2.63769 -2.74238 0
M  V30 1493 H 137.657 -3.67677 -1.24238 0
M  V30 1494 H 135.758 -2.06042 -3.10447 0
M  V30 1495 H 135.871 -3.91356 -2.76364 0
M  V30 1496 H 134.235 -2.02322 -1.54719 0
M  V30 1497 H 135.018 -3.38418 -0.576927 0
M  V30 1498 N 137.463 0.71206 -1.40597 0
M  V30 1499 C 138.709 1.47416 -1.39271 0
M  V30 1500 C 139.042 1.942 0.00388791 0
M  V30 1501 O 138.317 1.68403 0.973179 0
M  V30 1502 C 138.6 2.69774 -2.38525 0
M  V30 1503 C 138.453 2.28861 -3.87224 0
M  V30 1504 C 139.772 3.71939 -2.35264 0
M  V30 1505 H 136.891 0.534713 -0.5072 0
M  V30 1506 H 139.533 0.812375 -1.71757 0
M  V30 1507 H 137.683 3.26238 -2.10953 0
M  V30 1508 H 139.355 1.77852 -4.25636 0
M  V30 1509 H 137.598 1.60824 -4.02887 0
M  V30 1510 H 138.269 3.16584 -4.52193 0
M  V30 1511 H 140.745 3.25113 -2.59694 0
M  V30 1512 H 139.621 4.55186 -3.06753 0
M  V30 1513 H 139.882 4.20484 -1.36549 0
M  V30 1514 N 138.941 1.26152 0.944643 0
M  V30 1515 C 139.871 1.09902 2.06019 0
M  V30 1516 C 140.852 0.00519538 1.70099 0
M  V30 1517 O 142.037 0.176583 1.93396 0
M  V30 1518 C 139.167 0.727562 3.39594 0
M  V30 1519 C 138.121 1.77274 3.89561 0
M  V30 1520 C 137.447 1.25569 5.19747 0
M  V30 1521 C 138.747 3.17357 4.14827 0
M  V30 1522 H 140.441 2.03217 2.19871 0
M  V30 1523 H 137.987 0.978452 1.05652 0
M  V30 1524 H 139.94 0.600777 4.17095 0
M  V30 1525 H 138.664 -0.241287 3.25707 0
M  V30 1526 H 137.323 1.88814 3.14237 0
M  V30 1527 H 136.971 0.276783 5.02238 0
M  V30 1528 H 136.671 1.95433 5.54148 0
M  V30 1529 H 138.195 1.1415 5.99835 0
M  V30 1530 H 139.609 3.08914 4.82954 0
M  V30 1531 H 138.006 3.84781 4.60504 0
M  V30 1532 H 139.076 3.63673 3.20734 0
M  V30 1533 N 140.419 -1.14872 1.07899 0
M  V30 1534 C 141.366 -2.19791 0.704319 0
M  V30 1535 C 142.336 -1.63238 -0.306987 0
M  V30 1536 O 143.521 -1.8983 -0.192171 0
M  V30 1537 C 140.661 -3.44911 0.114244 0
M  V30 1538 C 139.774 -4.15637 1.1777 0
M  V30 1539 C 138.909 -5.28324 0.552037 0
M  V30 1540 C 137.948 -5.90875 1.59789 0
M  V30 1541 N 137.085 -6.95022 0.994404 0
M  V30 1542 H 141.925 -2.5119 1.60336 0
M  V30 1543 H 139.462 -1.23356 0.801352 0
M  V30 1544 H 141.42 -4.16477 -0.245544 0
M  V30 1545 H 140.05 -3.14011 -0.74813 0
M  V30 1546 H 139.102 -3.42512 1.65499 0
M  V30 1547 H 140.414 -4.5823 1.97046 0
M  V30 1548 H 139.568 -6.06538 0.1402 0
M  V30 1549 H 138.307 -4.86939 -0.272431 0
M  V30 1550 H 137.312 -5.11369 2.01945 0
M  V30 1551 H 138.537 -6.34337 2.42474 0
M  V30 1552 H 136.483 -6.55722 0.190939 0
M  V30 1553 H 136.4 -7.36073 1.72432 0
M  V30 1554 H 137.668 -7.77123 0.608253 0
M  V30 1555 N 141.898 -0.863906 -1.31812 0
M  V30 1556 C 143.175 -0.39275 -1.91616 0
M  V30 1557 C 143.555 1.12461 -1.7865 0
M  V30 1558 O 142.903 1.95045 -1.19037 0
M  V30 1559 C 143.113 -0.867385 -3.38049 0
M  V30 1560 C 144.461 -0.889966 -4.15168 0
M  V30 1561 O 145.485 -0.812635 -3.46806 0
M  V30 1562 O 144.344 -1.00079 -5.37258 0
M  V30 1563 H 141.438 -0.116358 -0.818773 0
M  V30 1564 H 143.984 -0.951418 -1.40521 0
M  V30 1565 H 142.756 -1.91081 -3.41473 0
M  V30 1566 H 142.379 -0.286687 -3.96565 0
M  V30 1567 N 143.376 1.44774 -0.622745 0
M  V30 1568 C 144.792 1.56986 -0.287652 0
M  V30 1569 C 144.992 1.61167 1.20944 0
M  V30 1570 O 144.048 1.55015 1.99315 0
M  V30 1571 C 145.361 2.84551 -0.972188 0
M  V30 1572 C 146.909 2.9825 -0.949536 0
M  V30 1573 C 147.384 4.28605 -1.61437 0
M  V30 1574 N 148.875 4.35399 -1.58057 0
M  V30 1575 C 149.61 5.34964 -2.064 0
M  V30 1576 N 149.106 6.40981 -2.62897 0
M  V30 1577 N 150.899 5.26419 -1.97078 0
M  V30 1578 H 143.05 1.40304 -1.59463 0
M  V30 1579 H 145.313 0.671794 -0.668878 0
M  V30 1580 H 145.019 2.87417 -2.02693 0
M  V30 1581 H 144.893 3.73807 -0.504771 0
M  V30 1582 H 147.28 2.94941 0.0967067 0
M  V30 1583 H 147.361 2.10364 -1.45536 0
M  V30 1584 H 147.005 4.32672 -2.66002 0
M  V30 1585 H 146.935 5.15334 -1.08344 0
M  V30 1586 H 149.426 3.59397 -1.16801 0
M  V30 1587 H 149.739 7.13225 -2.97539 0
M  V30 1588 H 148.084 6.4169 -2.66943 0
M  V30 1589 H 151.275 4.42504 -1.52669 0
M  V30 1590 H 151.448 6.03861 -2.35066 0
M  V30 1591 N 144.854 0.36279 1.53368 0
M  V30 1592 C 145.802 -0.500155 2.27159 0
M  V30 1593 C 146.796 -1.08575 1.3003 0
M  V30 1594 O 148.002 -1.02927 1.47668 0
M  V30 1595 H 144.377 -0.180009 0.730138 0
M  V30 1596 H 146.348 0.14401 2.98052 0
M  V30 1597 C 145.097 -1.62937 3.07159 0
M  V30 1598 H 144.42 -1.18806 3.8174 0
M  V30 1599 H 145.86 -2.20795 3.61975 0
M  V30 1600 C 144.319 -2.57007 2.17829 0
M  V30 1601 O 144.849 -3.59752 1.78721 0
M  V30 1602 N 143.055 -2.26131 1.82518 0
M  V30 1603 H 142.602 -1.42616 2.14519 0
M  V30 1604 H 142.56 -2.89327 1.23034 0
M  V30 1605 N 146.332 -1.57332 0.0918853 0
M  V30 1606 C 147.262 -2.16872 -0.865371 0
M  V30 1607 C 148.243 -1.10118 -1.29646 0
M  V30 1608 O 149.428 -1.38242 -1.36392 0
M  V30 1609 C 146.558 -2.74649 -2.12569 0
M  V30 1610 C 145.512 -3.86747 -1.83333 0
M  V30 1611 C 144.838 -4.31212 -3.16166 0
M  V30 1612 C 146.138 -5.10089 -1.1228 0
M  V30 1613 H 147.832 -2.97114 -0.369307 0
M  V30 1614 H 145.378 -1.42918 -0.176194 0
M  V30 1615 H 147.331 -3.14952 -2.7997 0
M  V30 1616 H 146.055 -1.91657 -2.64452 0
M  V30 1617 H 144.714 -3.46978 -1.18331 0
M  V30 1618 H 144.362 -3.45115 -3.6593 0
M  V30 1619 H 144.062 -5.06788 -2.97388 0
M  V30 1620 H 145.586 -4.74146 -3.84731 0
M  V30 1621 H 147 -5.47582 -1.69785 0
M  V30 1622 H 145.397 -5.91073 -1.03693 0
M  V30 1623 H 146.467 -4.84786 -0.105041 0
M  V30 1624 N 147.81 0.181792 -1.56548 0
M  V30 1625 C 149.056 0.896803 -1.82562 0
M  V30 1626 C 149.411 1.80324 -0.670908 0
M  V30 1627 O 148.704 1.8868 0.333235 0
M  V30 1628 C 148.898 1.73728 -3.12335 0
M  V30 1629 C 148.727 0.913714 -4.4032 0
M  V30 1630 C 147.497 0.592903 -5.01809 0
M  V30 1631 C 149.695 0.260164 -5.13642 0
M  V30 1632 N 147.677 -0.247901 -6.13399 0
M  V30 1633 C 149.048 -0.442256 -6.18421 0
M  V30 1634 C 151.103 0.177253 -4.97584 0
M  V30 1635 C 149.806 -1.21971 -7.08883 0
M  V30 1636 C 151.832 -0.586839 -5.88481 0
M  V30 1637 C 151.194 -1.27766 -6.92716 0
M  V30 1638 H 147.293 0.307122 -0.719166 0
M  V30 1639 H 149.877 0.164535 -1.94004 0
M  V30 1640 H 148.048 2.44105 -3.02105 0
M  V30 1641 H 149.78 2.39279 -3.26386 0
M  V30 1642 H 146.535 0.920502 -4.64568 0
M  V30 1643 H 146.959 -0.658304 -6.73792 0
M  V30 1644 H 151.601 0.696993 -4.17015 0
M  V30 1645 H 149.319 -1.75083 -7.88905 0
M  V30 1646 H 152.905 -0.652522 -5.78129 0
M  V30 1647 H 151.785 -1.85943 -7.61836 0
M  V30 1648 N 149.288 1.51039 0.449983 0
M  V30 1649 C 150.535 1.63081 1.20045 0
M  V30 1650 C 150.863 0.341024 1.91487 0
M  V30 1651 O 150.118 -0.674276 1.83717 0
M  V30 1652 C 150.417 2.77556 2.25161 0
M  V30 1653 C 150.083 4.17289 1.70823 0
M  V30 1654 C 148.745 4.55305 1.55725 0
M  V30 1655 C 151.097 5.04536 1.3074 0
M  V30 1656 C 148.425 5.78287 0.989999 0
M  V30 1657 C 150.777 6.28085 0.754482 0
M  V30 1658 C 149.441 6.64885 0.590308 0
M  V30 1659 H 148.711 0.596755 0.439277 0
M  V30 1660 H 151.358 1.85037 0.49333 0
M  V30 1661 H 149.663 2.49771 3.01863 0
M  V30 1662 H 151.36 2.84073 2.83026 0
M  V30 1663 H 147.95 3.8731 1.83546 0
M  V30 1664 H 152.134 4.75782 1.41229 0
M  V30 1665 H 147.39 6.05456 0.850451 0
M  V30 1666 H 151.564 6.95038 0.435324 0
M  V30 1667 H 149.191 7.60055 0.14862 0
M  V30 1668 N 150.766 -0.704594 1.40972 0
M  V30 1669 C 151.696 -1.83124 1.44872 0
M  V30 1670 C 152.677 -1.67281 0.30838 0
M  V30 1671 O 153.862 -1.87149 0.518556 0
M  V30 1672 C 150.992 -3.21181 1.32136 0
M  V30 1673 C 149.946 -3.51714 2.43888 0
M  V30 1674 C 149.272 -4.89032 2.16222 0
M  V30 1675 C 150.572 -3.516 3.86232 0
M  V30 1676 H 152.266 -1.80117 2.39161 0
M  V30 1677 H 149.812 -0.865145 1.15114 0
M  V30 1678 H 151.765 -3.99702 1.33479 0
M  V30 1679 H 150.489 -3.24791 0.343279 0
M  V30 1680 H 149.148 -2.75539 2.41813 0
M  V30 1681 H 148.796 -4.89256 1.16778 0
M  V30 1682 H 148.496 -5.10426 2.911 0
M  V30 1683 H 150.02 -5.69873 2.19265 0
M  V30 1684 H 151.434 -4.2014 3.9007 0
M  V30 1685 H 149.831 -3.84523 4.60719 0
M  V30 1686 H 150.901 -2.50757 4.15029 0
M  V30 1687 N 152.244 -1.26651 -0.937939 0
M  V30 1688 C 153.49 -1.12553 -1.687 0
M  V30 1689 C 153.823 0.329782 -1.91379 0
M  V30 1690 O 153.098 1.24202 -1.4968 0
M  V30 1691 C 153.381 -1.89862 -3.05981 0
M  V30 1692 C 153.234 -3.43318 -2.90607 0
M  V30 1693 C 154.553 -1.69499 -4.0615 0
M  V30 1694 H 151.672 -0.410257 -0.612257 0
M  V30 1695 H 154.314 -1.55685 -1.08913 0
M  V30 1696 H 152.464 -1.53204 -3.57017 0
M  V30 1697 H 154.136 -3.89747 -2.46769 0
M  V30 1698 H 152.379 -3.70179 -2.26164 0
M  V30 1699 H 153.05 -3.92642 -3.8799 0
M  V30 1700 H 155.526 -2.01442 -3.64088 0
M  V30 1701 H 154.402 -2.26002 -5.00214 0
M  V30 1702 H 154.663 -0.640365 -4.37438 0
M  V30 1703 N 153.722 1.14298 -1.08507 0
M  V30 1704 C 154.97 1.84993 -0.813763 0
M  V30 1705 C 155.291 1.83405 0.662393 0
M  V30 1706 O 154.561 1.28319 1.48024 0
M  V30 1707 H 153.141 0.684966 -0.298045 0
M  V30 1708 H 155.803 1.385 -1.37126 0
M  V30 1709 H 154.899 2.89788 -1.15884 0
M  V30 1710 N 155.201 0.870884 1.31352 0
M  V30 1711 C 156.131 0.343096 2.30966 0
M  V30 1712 C 157.112 -0.566507 1.60389 0
M  V30 1713 O 158.297 -0.483336 1.88089 0
M  V30 1714 C 155.427 -0.455487 3.443 0
M  V30 1715 C 154.381 0.361103 4.26474 0
M  V30 1716 C 153.707 -0.563221 5.31725 0
M  V30 1717 C 155.007 1.59566 4.97329 0
M  V30 1718 H 156.701 1.17548 2.75359 0
M  V30 1719 H 154.247 0.566686 1.32381 0
M  V30 1720 H 156.2 -0.83525 4.13039 0
M  V30 1721 H 154.924 -1.32139 2.98675 0
M  V30 1722 H 153.583 0.722825 3.59403 0
M  V30 1723 H 153.231 -1.42643 4.82351 0
M  V30 1724 H 152.931 -0.0207409 5.87596 0
M  V30 1725 H 154.455 -0.939808 6.03324 0
M  V30 1726 H 155.869 1.28728 5.58661 0
M  V30 1727 H 154.266 2.07728 5.63 0
M  V30 1728 H 155.336 2.34798 4.24262 0
M  V30 1729 N 156.679 -1.44442 0.630414 0
M  V30 1730 C 157.611 -2.2892 -0.113347 0
M  V30 1731 C 158.624 -1.41243 -0.80959 0
M  V30 1732 O 159.813 -1.65402 -0.671156 0
M  V30 1733 C 156.913 -3.17594 -1.18266 0
M  V30 1734 C 156.086 -4.33682 -0.569073 0
M  V30 1735 C 155.145 -5.03397 -1.53226 0
M  V30 1736 O 154.171 -5.59438 -1.04967 0
M  V30 1737 N 155.373 -5.04783 -2.86661 0
M  V30 1738 H 158.138 -2.93392 0.611636 0
M  V30 1739 H 155.699 -1.54881 0.471523 0
M  V30 1740 H 157.691 -3.61097 -1.82732 0
M  V30 1741 H 156.261 -2.54876 -1.80988 0
M  V30 1742 H 155.481 -3.9338 0.254187 0
M  V30 1743 H 156.769 -5.08608 -0.139767 0
M  V30 1744 H 156.167 -4.60584 -3.28449 0
M  V30 1745 H 154.724 -5.52077 -3.46489 0
M  V30 1746 N 158.157 -0.370918 -1.53173 0
M  V30 1747 C 159.405 0.216673 -2.00935 0
M  V30 1748 C 159.726 1.48845 -1.25977 0
M  V30 1749 O 158.996 1.92286 -0.374551 0
M  V30 1750 H 157.576 0.0830565 -0.742368 0
M  V30 1751 H 160.238 -0.49838 -1.8842 0
M  V30 1752 H 159.334 0.439893 -3.08984 0
M  V30 1753 N 159.635 1.57281 -0.100228 0
M  V30 1754 C 160.86 1.99302 0.573881 0
M  V30 1755 C 161.285 0.979059 1.60611 0
M  V30 1756 O 160.643 -0.0517803 1.81226 0
M  V30 1757 C 160.691 3.40274 1.19358 0
M  V30 1758 O 159.795 3.41676 2.30935 0
M  V30 1759 H 159.136 0.647944 0.145138 0
M  V30 1760 H 161.666 2.03779 -0.183156 0
M  V30 1761 H 161.676 3.78078 1.53365 0
M  V30 1762 H 160.351 4.13594 0.437385 0
M  V30 1763 H 158.928 3.15672 1.98509 0
M  V30 1764 N 161.113 -0.173488 1.56642 0
M  V30 1765 C 162.361 -0.888706 1.81512 0
M  V30 1766 C 162.682 -1.82875 0.676872 0
M  V30 1767 O 161.952 -1.93536 -0.303414 0
M  V30 1768 H 160.532 -0.331164 0.669582 0
M  V30 1769 H 163.194 -0.173823 1.94123 0
M  V30 1770 H 162.29 -1.46691 2.75478 0
M  V30 1771 N 162.591 -1.51276 -0.441967 0
M  V30 1772 C 163.538 -1.72256 -1.53612 0
M  V30 1773 C 164.508 -0.564164 -1.56225 0
M  V30 1774 O 165.693 -0.798074 -1.73307 0
M  V30 1775 C 162.833 -1.84932 -2.91366 0
M  V30 1776 C 161.946 -3.12459 -2.98317 0
M  V30 1777 C 161.081 -3.15758 -4.27166 0
M  V30 1778 C 160.12 -4.37619 -4.27967 0
M  V30 1779 N 159.257 -4.38493 -5.48333 0
M  V30 1780 H 164.097 -2.65654 -1.35026 0
M  V30 1781 H 161.634 -1.31662 -0.656009 0
M  V30 1782 H 163.592 -1.90263 -3.7129 0
M  V30 1783 H 162.222 -0.949461 -3.08521 0
M  V30 1784 H 161.274 -3.1646 -2.11086 0
M  V30 1785 H 162.586 -4.02382 -2.94771 0
M  V30 1786 H 161.74 -3.19979 -5.15459 0
M  V30 1787 H 160.479 -2.23715 -4.33362 0
M  V30 1788 H 159.484 -4.33579 -3.38067 0
M  V30 1789 H 160.709 -5.30921 -4.23438 0
M  V30 1790 H 158.655 -3.49318 -5.55259 0
M  V30 1791 H 158.572 -5.22219 -5.46647 0
M  V30 1792 H 159.84 -4.469 -6.38671 0
M  V30 1793 N 164.069 0.697108 -1.41344 0
M  V30 1794 C 165.297 1.48593 -1.43972 0
M  V30 1795 C 165.712 1.88747 -0.0445612 0
M  V30 1796 O 165.069 1.56682 0.935785 0
M  V30 1797 C 165.12 2.74946 -2.34706 0
M  V30 1798 O 164.841 2.36484 -3.68791 0
M  V30 1799 C 166.342 3.687 -2.46121 0
M  V30 1800 H 163.562 0.457964 -0.490418 0
M  V30 1801 H 166.106 0.858429 -1.8561 0
M  V30 1802 H 164.261 3.33937 -1.9638 0
M  V30 1803 H 164.675 3.17918 -4.17167 0
M  V30 1804 H 166.149 4.54145 -3.13777 0
M  V30 1805 H 166.626 4.13081 -1.49199 0
M  V30 1806 H 167.232 3.15613 -2.85076 0
M  V30 1807 N 165.547 1.27147 0.931209 0
M  V30 1808 C 166.775 1.16082 1.71267 0
M  V30 1809 C 167.19 -0.282772 1.8667 0
M  V30 1810 O 166.547 -1.19283 1.38122 0
M  V30 1811 C 166.598 1.8358 3.11417 0
M  V30 1812 O 166.319 3.22299 2.96741 0
M  V30 1813 C 167.82 1.78597 4.05732 0
M  V30 1814 H 165.04 0.403758 0.535929 0
M  V30 1815 H 167.584 1.67953 1.16671 0
M  V30 1816 H 165.739 1.35623 3.62885 0
M  V30 1817 H 166.153 3.55851 3.85319 0
M  V30 1818 H 167.627 2.30444 5.01597 0
M  V30 1819 H 168.104 0.754564 4.3267 0
M  V30 1820 H 168.71 2.26152 3.60188 0
M  V30 1821 N 167.025 -1.13721 1.09112 0
M  V30 1822 C 168.253 -1.88773 0.846899 0
M  V30 1823 C 168.668 -1.7896 -0.601572 0
M  V30 1824 O 168.025 -1.15394 -1.41388 0
M  V30 1825 C 168.076 -3.3849 1.26913 0
M  V30 1826 O 167.797 -3.48043 2.66079 0
M  V30 1827 C 169.298 -4.30518 1.05682 0
M  V30 1828 H 166.518 -0.59772 0.304914 0
M  V30 1829 H 169.062 -1.43977 1.45227 0
M  V30 1830 H 167.217 -3.80881 0.707723 0
M  V30 1831 H 167.631 -4.4109 2.83795 0
M  V30 1832 H 169.105 -5.3391 1.40156 0
M  V30 1833 H 169.582 -4.392 -0.00563416 0
M  V30 1834 H 170.188 -3.93893 1.60402 0
M  V30 1835 N 168.503 -0.877838 -1.30888 0
M  V30 1836 C 169.466 -0.344265 -2.266 0
M  V30 1837 C 170.466 0.50922 -1.52524 0
M  V30 1838 O 171.656 0.317398 -1.71284 0
M  V30 1839 C 168.788 0.510198 -3.37061 0
M  V30 1840 H 169.981 -1.1893 -2.7531 0
M  V30 1841 H 167.534 -0.654088 -1.41956 0
M  V30 1842 H 168.269 1.37612 -2.93655 0
M  V30 1843 H 168.054 -0.101047 -3.9197 0
M  V30 1844 H 169.544 0.875537 -4.08319 0
M  V30 1845 N 169.982 1.44106 -0.638065 0
M  V30 1846 C 170.945 2.29138 0.0531013 0
M  V30 1847 C 171.945 1.41409 0.765506 0
M  V30 1848 O 173.135 1.63206 0.609046 0
M  V30 1849 C 170.267 3.23144 1.08584 0
M  V30 1850 H 171.46 2.91739 -0.694883 0
M  V30 1851 H 169.013 1.51134 -0.398538 0
M  V30 1852 H 169.748 2.65408 1.86357 0
M  V30 1853 H 169.533 3.87804 0.578852 0
M  V30 1854 H 171.023 3.87004 1.56899 0
M  V30 1855 N 171.46 0.379036 1.52974 0
M  V30 1856 C 172.407 -0.461048 2.26148 0
M  V30 1857 C 173.377 -1.06637 1.27349 0
M  V30 1858 O 174.562 -1.09633 1.56157 0
M  V30 1859 C 171.702 -1.58782 3.06402 0
M  V30 1860 C 170.815 -1.00636 4.20115 0
M  V30 1861 C 169.95 -2.10334 4.87784 0
M  V30 1862 C 168.989 -1.49724 5.93506 0
M  V30 1863 N 168.126 -2.5331 6.54812 0
M  V30 1864 H 172.966 0.169429 2.97518 0
M  V30 1865 H 170.503 0.0953806 1.4679 0
M  V30 1866 H 172.461 -2.25174 3.51215 0
M  V30 1867 H 171.091 -2.18876 2.37261 0
M  V30 1868 H 170.143 -0.232332 3.7969 0
M  V30 1869 H 171.455 -0.523343 4.96047 0
M  V30 1870 H 170.609 -2.84519 5.35849 0
M  V30 1871 H 169.348 -2.61992 4.11353 0
M  V30 1872 H 168.353 -0.740598 5.44789 0
M  V30 1873 H 169.578 -0.988732 6.71864 0
M  V30 1874 H 167.524 -3.04156 5.81227 0
M  V30 1875 H 167.441 -2.09734 7.26325 0
M  V30 1876 H 168.709 -3.27155 7.07524 0
M  V30 1877 N 172.938 -1.57226 0.108567 0
M  V30 1878 C 173.868 -2.17778 -0.84232 0
M  V30 1879 C 174.849 -1.11487 -1.2847 0
M  V30 1880 O 176.034 -1.39681 -1.34918 0
M  V30 1881 C 173.164 -2.76888 -2.09644 0
M  V30 1882 C 172.118 -3.88669 -1.79221 0
M  V30 1883 C 171.444 -4.34541 -3.11574 0
M  V30 1884 C 172.744 -5.11251 -1.06864 0
M  V30 1885 H 174.438 -2.97489 -0.337774 0
M  V30 1886 H 171.984 -1.43097 -0.161025 0
M  V30 1887 H 173.937 -3.17904 -2.76614 0
M  V30 1888 H 172.661 -1.94451 -2.62405 0
M  V30 1889 H 171.32 -3.48213 -1.14644 0
M  V30 1890 H 170.968 -3.48977 -3.62249 0
M  V30 1891 H 170.668 -5.09914 -2.91996 0
M  V30 1892 H 172.192 -4.782 -3.7968 0
M  V30 1893 H 173.606 -5.49352 -1.63968 0
M  V30 1894 H 172.003 -5.9214 -0.974178 0
M  V30 1895 H 173.073 -4.8487 -0.0536168 0
M  V30 1896 N 174.416 0.165178 -1.56732 0
M  V30 1897 C 175.379 1.18822 -1.95995 0
M  V30 1898 C 176.379 1.3685 -0.84431 0
M  V30 1899 O 177.569 1.34152 -1.11126 0
M  V30 1900 C 174.701 2.5521 -2.26011 0
M  V30 1901 H 175.894 0.851825 -2.87548 0
M  V30 1902 H 173.447 0.407857 -1.50885 0
M  V30 1903 H 174.182 2.93852 -1.37191 0
M  V30 1904 H 173.967 2.43489 -3.07336 0
M  V30 1905 H 175.457 3.28927 -2.57288 0
M  V30 1906 N 175.894 1.51508 0.433938 0
M  V30 1907 C 176.824 1.76016 1.53429 0
M  V30 1908 C 177.805 0.610112 1.58782 0
M  V30 1909 O 178.99 0.853177 1.74455 0
M  V30 1910 C 176.12 1.88831 2.9148 0
M  V30 1911 C 175.074 3.04288 3.00987 0
M  V30 1912 C 174.4 3.0229 4.4105 0
M  V30 1913 C 175.7 4.44193 2.74754 0
M  V30 1914 H 177.394 2.68152 1.33171 0
M  V30 1915 H 174.94 1.29035 0.639214 0
M  V30 1916 H 176.893 2.04559 3.6842 0
M  V30 1917 H 175.617 0.933455 3.12976 0
M  V30 1918 H 174.276 2.8827 2.26486 0
M  V30 1919 H 173.924 2.04576 4.59519 0
M  V30 1920 H 173.624 3.79822 4.4834 0
M  V30 1921 H 175.148 3.20116 5.1996 0
M  V30 1922 H 176.562 4.60544 3.41426 0
M  V30 1923 H 174.959 5.23457 2.9345 0
M  V30 1924 H 176.029 4.53996 1.70339 0
M  V30 1925 N 177.372 -0.689602 1.41712 0
M  V30 1926 C 178.602 -1.47613 1.44548 0
M  V30 1927 C 179.01 -1.89132 0.0509034 0
M  V30 1928 O 178.353 -1.57741 -0.94146 0
M  V30 1929 C 178.415 -2.76596 2.2964 0
M  V30 1930 C 178.079 -2.57245 3.77722 0
M  V30 1931 C 179.076 -2.22804 4.69739 0
M  V30 1932 C 176.761 -2.727 4.2183 0
M  V30 1933 C 178.755 -2.04064 6.03851 0
M  V30 1934 C 176.442 -2.53576 5.56006 0
M  V30 1935 C 177.44 -2.1931 6.46832 0
M  V30 1936 O 177.128 -2.00359 7.78532 0
M  V30 1937 H 176.86 -0.461227 0.494212 0
M  V30 1938 H 179.414 -0.856045 1.86711 0
M  V30 1939 H 177.644 -3.41033 1.82301 0
M  V30 1940 H 179.333 -3.38424 2.24107 0
M  V30 1941 H 180.099 -2.10473 4.36951 0
M  V30 1942 H 175.978 -2.98353 3.51435 0
M  V30 1943 H 179.522 -1.77241 6.74708 0
M  V30 1944 H 175.419 -2.65499 5.88371 0
M  V30 1945 H 176.187 -2.15075 7.89737 0
M  V30 1946 N 178.85 -1.27639 -0.924453 0
M  V30 1947 C 180.08 -1.16819 -1.70402 0
M  V30 1948 C 180.488 0.277191 -1.87158 0
M  V30 1949 O 179.831 1.20025 -1.39067 0
M  V30 1950 C 179.893 -1.78305 -3.12166 0
M  V30 1951 C 179.557 -3.27502 -3.18734 0
M  V30 1952 C 180.554 -4.2409 -3.00738 0
M  V30 1953 C 178.239 -3.68269 -3.4159 0
M  V30 1954 C 180.233 -5.59422 -3.05492 0
M  V30 1955 C 177.92 -5.0373 -3.45977 0
M  V30 1956 C 178.918 -5.99116 -3.27946 0
M  V30 1957 O 178.606 -7.32108 -3.32074 0
M  V30 1958 H 178.338 -0.406931 -0.539799 0
M  V30 1959 H 180.892 -1.69078 -1.16626 0
M  V30 1960 H 179.122 -1.20528 -3.67437 0
M  V30 1961 H 180.811 -1.62154 -3.72103 0
M  V30 1962 H 181.577 -3.93931 -2.82919 0
M  V30 1963 H 177.456 -2.94496 -3.54673 0
M  V30 1964 H 181 -6.33852 -2.91337 0
M  V30 1965 H 176.897 -5.33543 -3.63321 0
M  V30 1966 H 177.665 -7.40598 -3.48507 0
M  V30 1967 N 180.328 1.1314 -1.09713 0
M  V30 1968 C 181.275 2.18642 -0.739196 0
M  V30 1969 C 182.245 1.63706 0.280978 0
M  V30 1970 O 183.43 1.90111 0.161946 0
M  V30 1971 C 180.57 3.44685 -0.169102 0
M  V30 1972 C 179.683 4.13711 -1.24367 0
M  V30 1973 C 178.818 5.27379 -0.636019 0
M  V30 1974 C 177.857 5.88259 -1.69169 0
M  V30 1975 N 176.994 6.93352 -1.10485 0
M  V30 1976 H 181.834 2.48607 -1.64312 0
M  V30 1977 H 179.371 1.22066 -0.820875 0
M  V30 1978 H 181.329 4.16815 0.179256 0
M  V30 1979 H 179.959 3.15161 0.698079 0
M  V30 1980 H 179.011 3.39835 -1.70927 0
M  V30 1981 H 180.323 4.55037 -2.04311 0
M  V30 1982 H 179.477 6.06238 -0.236677 0
M  V30 1983 H 178.216 4.8731 0.194928 0
M  V30 1984 H 177.221 5.08092 -2.10055 0
M  V30 1985 H 178.446 6.30399 -2.52536 0
M  V30 1986 H 176.392 6.55335 -0.295234 0
M  V30 1987 H 176.309 7.33236 -1.84121 0
M  V30 1988 H 177.577 7.76057 -0.73181 0
M  V30 1989 N 181.806 0.884767 1.30421 0
M  V30 1990 C 183.054 0.502112 1.95763 0
M  V30 1991 C 183.375 -0.951815 1.70192 0
M  V30 1992 O 182.645 -1.6692 1.0254 0
M  V30 1993 H 181.225 0.182694 0.724315 0
M  V30 1994 H 183.887 1.1278 1.58955 0
M  V30 1995 H 182.983 0.672188 3.04775 0
M  V30 1996 N 183.284 -1.43765 0.645699 0
M  V30 1997 C 184.231 -2.30745 -0.0504648 0
M  V30 1998 C 185.201 -1.4432 -0.822241 0
M  V30 1999 O 186.386 -1.73202 -0.800358 0
M  V30 2000 C 183.526 -3.29802 -1.0161 0
M  V30 2001 C 182.639 -4.31326 -0.241219 0
M  V30 2002 C 181.774 -5.17469 -1.19998 0
M  V30 2003 C 180.813 -6.10691 -0.415094 0
M  V30 2004 N 179.95 -6.89483 -1.32506 0
M  V30 2005 H 184.79 -2.8973 0.697155 0
M  V30 2006 H 182.327 -1.42738 0.355563 0
M  V30 2007 H 184.285 -3.85734 -1.58949 0
M  V30 2008 H 182.915 -2.72483 -1.73069 0
M  V30 2009 H 181.967 -3.77749 0.448334 0
M  V30 2010 H 183.279 -4.9743 0.369437 0
M  V30 2011 H 182.433 -5.7799 -1.84424 0
M  V30 2012 H 181.172 -4.51473 -1.84455 0
M  V30 2013 H 180.177 -5.49265 0.242565 0
M  V30 2014 H 181.402 -6.78727 0.224966 0
M  V30 2015 H 179.348 -6.26142 -1.95657 0
M  V30 2016 H 179.265 -7.52081 -0.768783 0
M  V30 2017 H 180.533 -7.54516 -1.9577 0
M  V30 2018 N 184.763 -0.387143 -1.52771 0
M  V30 2019 C 186.011 0.195349 -2.01154 0
M  V30 2020 C 186.332 1.475 -1.27549 0
M  V30 2021 O 185.602 1.91878 -0.394924 0
M  V30 2022 H 184.182 0.075178 -0.743207 0
M  V30 2023 H 186.844 -0.518337 -1.87881 0
M  V30 2024 H 185.94 0.407096 -3.09434 0
M  V30 2025 N 186.241 1.57166 -0.116904 0
M  V30 2026 C 187.657 1.5779 0.239693 0
M  V30 2027 C 187.857 1.1295 1.66867 0
M  V30 2028 O 186.913 0.81592 2.38954 0
M  V30 2029 C 188.226 3.00699 0.00828202 0
M  V30 2030 C 189.774 3.12912 0.0743438 0
M  V30 2031 C 190.249 4.57817 -0.129348 0
M  V30 2032 N 191.74 4.63139 -0.075247 0
M  V30 2033 C 192.475 5.73023 -0.207788 0
M  V30 2034 N 191.971 6.91665 -0.396382 0
M  V30 2035 N 193.764 5.61906 -0.14751 0
M  V30 2036 H 185.915 1.84615 -1.05029 0
M  V30 2037 H 188.178 0.85311 -0.41341 0
M  V30 2038 H 187.884 3.37784 -0.979531 0
M  V30 2039 H 187.758 3.69848 0.741077 0
M  V30 2040 H 190.145 2.75686 1.05268 0
M  V30 2041 H 190.226 2.4631 -0.690297 0
M  V30 2042 H 189.87 4.95742 -1.10465 0
M  V30 2043 H 189.8 5.22507 0.655253 0
M  V30 2044 H 192.291 3.7784 0.0670898 0
M  V30 2045 H 192.604 7.71255 -0.488437 0
M  V30 2046 H 190.949 6.93654 -0.432329 0
M  V30 2047 H 194.14 4.681 -0.00115036 0
M  V30 2048 H 194.313 6.47501 -0.254247 0
M  V30 2049 N 187.719 -0.156864 1.56817 0
M  V30 2050 C 189.135 -0.50916 1.5126 0
M  V30 2051 C 189.335 -1.83897 0.823658 0
M  V30 2052 O 188.391 -2.49469 0.390055 0
M  V30 2053 C 189.704 -0.52857 2.96018 0
M  V30 2054 C 191.252 -0.614771 3.06903 0
M  V30 2055 C 191.727 -0.664938 4.53147 0
M  V30 2056 N 193.218 -0.727433 4.57452 0
M  V30 2057 C 193.953 -0.787067 5.67973 0
M  V30 2058 N 193.449 -0.806649 6.88088 0
M  V30 2059 N 195.242 -0.827195 5.5598 0
M  V30 2060 H 187.393 0.714935 2.00006 0
M  V30 2061 H 189.656 0.259526 0.911784 0
M  V30 2062 H 189.362 0.380154 3.49639 0
M  V30 2063 H 189.236 -1.36998 3.51442 0
M  V30 2064 H 191.623 -1.51392 2.53307 0
M  V30 2065 H 191.704 0.253597 2.5454 0
M  V30 2066 H 191.348 0.230011 5.07379 0
M  V30 2067 H 191.278 -1.54966 5.03282 0
M  V30 2068 H 193.769 -0.719998 3.70978 0
M  V30 2069 H 194.082 -0.853727 7.6807 0
M  V30 2070 H 192.427 -0.774687 6.90669 0
M  V30 2071 H 195.618 -0.808998 4.61056 0
M  V30 2072 H 195.791 -0.870206 6.4213 0
M  V30 2073 N 189.197 -1.51736 -0.425897 0
M  V30 2074 C 190.608 -1.5732 -1.00536 0
M  V30 2075 C 190.959 -0.403537 -1.92005 0
M  V30 2076 O 190.084 0.478256 -2.11049 0
M  V30 2077 C 190.679 -2.85119 -1.8301 0
M  V30 2078 C 189.238 -2.93236 -2.35987 0
M  V30 2079 C 188.385 -2.52098 -1.15508 0
M  V30 2080 H 191.336 -1.57348 -0.206739 0
M  V30 2081 H 191.357 -2.69526 -2.68581 0
M  V30 2082 H 190.869 -3.7023 -1.16411 0
M  V30 2083 H 188.97 -2.12581 -3.06007 0
M  V30 2084 H 189.083 -3.9713 -2.68001 0
M  V30 2085 H 187.447 -2.05558 -1.50393 0
M  V30 2086 H 188.23 -3.39565 -0.505014 0
M  V30 2087 N 190.675 0.682077 -1.42076 0
M  V30 2088 C 191.605 1.80796 -1.47767 0
M  V30 2089 C 192.586 1.6677 -0.334954 0
M  V30 2090 O 193.771 1.863 -0.548264 0
M  V30 2091 C 190.901 3.19038 -1.37229 0
M  V30 2092 C 189.855 3.47789 -2.49453 0
M  V30 2093 C 189.181 4.8553 -2.23975 0
M  V30 2094 C 190.481 3.45411 -3.91776 0
M  V30 2095 H 192.175 1.7629 -2.41997 0
M  V30 2096 H 189.721 0.846721 -1.16476 0
M  V30 2097 H 191.674 3.97528 -1.39821 0
M  V30 2098 H 190.398 3.24204 -0.394907 0
M  V30 2099 H 189.057 2.71657 -2.46166 0
M  V30 2100 H 188.705 4.87337 -1.24547 0
M  V30 2101 H 188.405 5.0573 -2.99184 0
M  V30 2102 H 189.929 5.66312 -2.28304 0
M  V30 2103 H 191.343 4.13882 -3.96705 0
M  V30 2104 H 189.74 3.77145 -4.66778 0
M  V30 2105 H 190.81 2.44122 -4.18966 0
M  V30 2106 N 192.153 1.28127 0.917671 0
M  V30 2107 C 193.083 1.14248 2.03641 0
M  V30 2108 C 194.064 0.0412748 1.7005 0
M  V30 2109 O 195.249 0.217566 1.92977 0
M  V30 2110 C 192.379 0.799431 3.37974 0
M  V30 2111 C 191.333 1.85497 3.85713 0
M  V30 2112 C 190.659 1.36565 5.16966 0
M  V30 2113 C 191.959 3.26085 4.08002 0
M  V30 2114 H 193.653 2.07835 2.15511 0
M  V30 2115 H 191.199 1.00064 1.03553 0
M  V30 2116 H 193.152 0.689114 4.15727 0
M  V30 2117 H 191.876 -0.172145 3.26146 0
M  V30 2118 H 190.535 1.95437 3.10161 0
M  V30 2119 H 190.183 0.383253 5.01538 0
M  V30 2120 H 189.883 2.07143 5.49878 0
M  V30 2121 H 191.407 1.26848 5.97279 0
M  V30 2122 H 192.821 3.19089 4.76293 0
M  V30 2123 H 191.218 3.94462 4.52238 0
M  V30 2124 H 192.288 3.70394 3.12948 0
M  V30 2125 N 193.631 -1.12557 1.10312 0
M  V30 2126 C 194.877 -1.84311 0.846011 0
M  V30 2127 C 195.21 -1.83805 -0.626859 0
M  V30 2128 O 194.485 -1.28268 -1.46211 0
M  V30 2129 C 194.768 -3.32048 1.39341 0
M  V30 2130 C 194.621 -3.41016 2.93305 0
M  V30 2131 C 195.94 -4.27764 1.03468 0
M  V30 2132 H 193.059 -0.669192 0.30879 0
M  V30 2133 H 195.701 -1.32057 1.36605 0
M  V30 2134 H 193.851 -3.76678 0.951087 0
M  V30 2135 H 195.523 -3.05031 3.46055 0
M  V30 2136 H 193.766 -2.81603 3.29973 0
M  V30 2137 H 194.437 -4.44948 3.26689 0
M  V30 2138 H 196.913 -3.91253 1.41633 0
M  V30 2139 H 195.789 -5.29549 1.44463 0
M  V30 2140 H 196.05 -4.42064 -0.0560404 0
M  V30 2141 N 195.109 -0.891671 -1.2995 0
M  V30 2142 C 196.072 -0.36828 -2.26222 0
M  V30 2143 C 197.072 0.493014 -1.53056 0
M  V30 2144 O 198.262 0.299213 -1.71611 0
M  V30 2145 C 195.394 0.47442 -3.37583 0
M  V30 2146 H 196.587 -1.21844 -2.74033 0
M  V30 2147 H 194.14 -0.669107 -1.41254 0
M  V30 2148 H 194.875 1.34489 -2.95099 0
M  V30 2149 H 194.66 -0.142615 -3.91841 0
M  V30 2150 H 196.15 0.83218 -4.09224 0
M  V30 2151 N 196.587 1.43421 -0.653314 0
M  V30 2152 C 197.55 2.29182 0.0287951 0
M  V30 2153 C 198.55 1.42213 0.750465 0
M  V30 2154 O 199.74 1.63843 0.591701 0
M  V30 2155 C 196.872 3.24278 1.05151 0
M  V30 2156 H 198.065 2.90985 -0.725786 0
M  V30 2157 H 195.618 1.50702 -0.414545 0
M  V30 2158 H 196.353 2.6737 1.83532 0
M  V30 2159 H 196.138 3.88396 0.537687 0
M  V30 2160 H 197.628 3.88647 1.52786 0
M  V30 2161 N 198.065 0.39524 1.52563 0
M  V30 2162 C 199.342 -0.242908 1.94086 0
M  V30 2163 C 199.722 -1.63841 1.33114 0
M  V30 2164 O 199.07 -2.22928 0.501529 0
M  V30 2165 C 199.28 -0.26327 3.48006 0
M  V30 2166 C 200.628 -0.489354 4.21771 0
M  V30 2167 O 201.652 -0.343226 3.54543 0
M  V30 2168 O 200.511 -0.776169 5.4096 0
M  V30 2169 H 197.605 -0.152536 0.812811 0
M  V30 2170 H 200.151 0.450178 1.6362 0
M  V30 2171 H 198.923 0.713985 3.84731 0
M  V30 2172 H 198.546 -1.00103 3.84792 0
M  V30 2173 N 199.544 -1.57102 0.125237 0
M  V30 2174 C 200.772 -1.99761 -0.538797 0
M  V30 2175 C 201.187 -1.00503 -1.59827 0
M  V30 2176 O 200.544 0.00119474 -1.825 0
M  V30 2177 C 200.595 -3.42408 -1.15927 0
M  V30 2178 O 200.316 -4.37869 -0.142143 0
M  V30 2179 C 201.817 -4.00232 -1.90602 0
M  V30 2180 H 199.037 -0.655772 -0.14214 0
M  V30 2181 H 201.581 -2.03383 0.213413 0
M  V30 2182 H 199.736 -3.39706 -1.86223 0
M  V30 2183 H 200.15 -5.21128 -0.593775 0
M  V30 2184 H 201.624 -5.02105 -2.29335 0
M  V30 2185 H 202.101 -3.39721 -2.78363 0
M  V30 2186 H 202.707 -4.06499 -1.25055 0
M  V30 2187 N 201.022 0.148545 -1.56898 0
M  V30 2188 C 201.954 1.20852 -1.9475 0
M  V30 2189 C 202.967 1.39265 -0.843152 0
M  V30 2190 O 204.156 1.38864 -1.12156 0
M  V30 2191 C 201.256 2.57362 -2.20495 0
M  V30 2192 C 200.429 2.59947 -3.51776 0
M  V30 2193 C 199.488 3.77984 -3.6608 0
M  V30 2194 O 198.514 3.62929 -4.38487 0
M  V30 2195 N 199.716 4.95375 -3.02629 0
M  V30 2196 H 202.481 0.886804 -2.86279 0
M  V30 2197 H 200.042 0.338121 -1.5833 0
M  V30 2198 H 202.034 3.34833 -2.27307 0
M  V30 2199 H 200.604 2.81832 -1.35238 0
M  V30 2200 H 199.824 1.68403 -3.56419 0
M  V30 2201 H 201.112 2.58704 -4.38121 0
M  V30 2202 H 200.51 5.10509 -2.43715 0
M  V30 2203 H 199.067 5.70627 -3.15004 0
M  V30 2204 N 202.5 1.5196 0.417844 0
M  V30 2205 C 203.916 1.40569 0.755816 0
M  V30 2206 C 204.116 0.503316 1.95113 0
M  V30 2207 O 203.172 -0.0341925 2.52477 0
M  V30 2208 C 204.485 2.82947 1.01791 0
M  V30 2209 C 206.033 2.92231 1.12116 0
M  V30 2210 C 206.508 4.35559 1.41608 0
M  V30 2211 N 207.999 4.38753 1.48491 0
M  V30 2212 C 208.734 5.46705 1.7292 0
M  V30 2213 N 208.23 6.64788 1.95011 0
M  V30 2214 N 210.023 5.34209 1.74863 0
M  V30 2215 H 202.174 2.09168 -0.369098 0
M  V30 2216 H 204.437 0.942409 -0.102809 0
M  V30 2217 H 204.143 3.5106 0.212081 0
M  V30 2218 H 204.017 3.23462 1.94042 0
M  V30 2219 H 206.404 2.24304 1.9176 0
M  V30 2220 H 206.485 2.55185 0.177225 0
M  V30 2221 H 206.129 5.04042 0.624848 0
M  V30 2222 H 206.059 4.70133 2.37239 0
M  V30 2223 H 208.55 3.5363 1.33244 0
M  V30 2224 H 208.863 7.42845 2.13076 0
M  V30 2225 H 207.208 6.67869 1.92293 0
M  V30 2226 H 210.399 4.40937 1.57137 0
M  V30 2227 H 210.572 6.18415 1.93563 0
M  V30 2228 N 203.978 -0.674533 1.42435 0
M  V30 2229 C 205.389 -1.25514 1.38214 0
M  V30 2230 C 205.74 -1.96055 0.0755464 0
M  V30 2231 O 204.865 -2.00028 -0.8257 0
M  V30 2232 C 205.46 -2.28269 2.50357 0
M  V30 2233 C 204.019 -2.81856 2.49467 0
M  V30 2234 C 203.166 -1.56182 2.29134 0
M  V30 2235 H 206.117 -0.467902 1.51646 0
M  V30 2236 H 206.138 -3.10009 2.20624 0
M  V30 2237 H 205.65 -1.769 3.45439 0
M  V30 2238 H 203.751 -3.37346 1.58204 0
M  V30 2239 H 203.864 -3.30854 3.46515 0
M  V30 2240 H 202.228 -1.82761 1.774 0
M  V30 2241 H 203.011 -1.06778 3.26272 0
M  V30 2242 N 205.456 -1.28612 -0.910864 0
M  V30 2243 C 206.419 -1.12803 -1.9952 0
M  V30 2244 C 207.419 -0.0668264 -1.60661 0
M  V30 2245 O 208.609 -0.312847 -1.71368 0
M  V30 2246 C 205.741 -0.72254 -3.33155 0
M  V30 2247 H 206.934 -2.09109 -2.14973 0
M  V30 2248 H 204.487 -1.11639 -1.09391 0
M  V30 2249 H 205.222 0.241152 -3.23402 0
M  V30 2250 H 205.007 -1.48916 -3.62721 0
M  V30 2251 H 206.497 -0.634666 -4.12749 0
M  V30 2252 N 206.934 1.1197 -1.10907 0
M  V30 2253 C 207.897 2.16031 -0.765707 0
M  V30 2254 C 208.897 1.59393 0.212235 0
M  V30 2255 O 210.087 1.74196 -0.0115441 0
M  V30 2256 C 207.219 3.40632 -0.135053 0
M  V30 2257 H 208.412 2.47919 -1.68748 0
M  V30 2258 H 205.965 1.27061 -0.910226 0
M  V30 2259 H 206.7 3.14348 0.797218 0
M  V30 2260 H 206.485 3.8302 -0.838937 0
M  V30 2261 H 207.975 4.17505 0.0892469 0
M  V30 2262 N 208.412 0.89855 1.29475 0
M  V30 2263 C 209.828 0.594483 1.48115 0
M  V30 2264 C 210.028 -0.86431 1.82022 0
M  V30 2265 O 209.084 -1.64457 1.91599 0
M  V30 2266 C 210.397 1.51932 2.59494 0
M  V30 2267 C 211.945 1.5244 2.7337 0
M  V30 2268 C 212.42 2.43548 3.87877 0
M  V30 2269 N 213.911 2.41589 3.95208 0
M  V30 2270 C 214.646 3.08789 4.83153 0
M  V30 2271 N 214.142 3.85265 5.75798 0
M  V30 2272 N 215.935 2.97952 4.76635 0
M  V30 2273 H 208.086 1.84207 1.05742 0
M  V30 2274 H 210.349 0.789251 0.525154 0
M  V30 2275 H 210.055 2.55865 2.41301 0
M  V30 2276 H 209.929 1.23899 3.56271 0
M  V30 2277 H 212.316 0.492518 2.90961 0
M  V30 2278 H 212.397 1.8451 1.77172 0
M  V30 2279 H 212.041 3.46829 3.71041 0
M  V30 2280 H 211.971 2.08788 4.83441 0
M  V30 2281 H 214.462 1.86025 3.28943 0
M  V30 2282 H 214.775 4.33598 6.39697 0
M  V30 2283 H 213.12 3.89371 5.75687 0
M  V30 2284 H 216.311 2.37723 4.03244 0
M  V30 2285 H 216.484 3.50599 5.44962 0
M  V30 2286 N 209.89 -1.43072 0.660911 0
M  V30 2287 C 210.8 -2.34585 -0.0264163 0
M  V30 2288 C 211.816 -1.54316 -0.803898 0
M  V30 2289 O 212.992 -1.86939 -0.749391 0
M  V30 2290 C 210.057 -3.32689 -0.975639 0
M  V30 2291 C 209.118 -4.2886 -0.194236 0
M  V30 2292 C 208.351 -5.22278 -1.09825 0
M  V30 2293 O 208.574 -5.20299 -2.33763 0
M  V30 2294 O 207.508 -5.99228 -0.566513 0
M  V30 2295 H 211.334 -2.94869 0.727034 0
M  V30 2296 H 208.919 -1.43342 0.42111 0
M  V30 2297 H 210.801 -3.92995 -1.52094 0
M  V30 2298 H 209.476 -2.74898 -1.70918 0
M  V30 2299 H 208.383 -3.72011 0.394835 0
M  V30 2300 H 209.716 -4.89655 0.499899 0
M  V30 2301 N 211.368 -0.403325 -1.52352 0
M  V30 2302 C 212.3 0.4603 -2.2453 0
M  V30 2303 C 213.313 1.01505 -1.27282 0
M  V30 2304 O 214.502 0.914982 -1.53266 0
M  V30 2305 C 211.602 1.65208 -2.95905 0
M  V30 2306 C 210.775 1.22224 -4.19976 0
M  V30 2307 C 209.834 2.28028 -4.74226 0
M  V30 2308 O 208.86 1.88857 -5.36956 0
M  V30 2309 N 210.062 3.6012 -4.55295 0
M  V30 2310 H 212.827 -0.158156 -2.99282 0
M  V30 2311 H 210.388 -0.230402 -1.60252 0
M  V30 2312 H 212.38 2.35541 -3.29093 0
M  V30 2313 H 210.95 2.17658 -2.24374 0
M  V30 2314 H 210.17 0.34725 -3.92668 0
M  V30 2315 H 211.458 0.911924 -5.00561 0
M  V30 2316 H 210.856 3.94698 -4.05253 0
M  V30 2317 H 209.413 4.26447 -4.92936 0
M  V30 2318 N 212.846 1.57033 -0.133567 0
M  V30 2319 C 213.776 2.1909 0.807567 0
M  V30 2320 C 214.757 1.13517 1.26681 0
M  V30 2321 O 215.942 1.41809 1.32679 0
M  V30 2322 C 213.072 2.80188 2.05212 0
M  V30 2323 C 212.026 3.91471 1.73015 0
M  V30 2324 C 211.352 4.39443 3.04622 0
M  V30 2325 C 212.652 5.12886 0.987168 0
M  V30 2326 H 214.346 2.97988 0.290403 0
M  V30 2327 H 211.892 1.43335 0.138239 0
M  V30 2328 H 213.845 3.22264 2.71521 0
M  V30 2329 H 212.569 1.98601 2.59278 0
M  V30 2330 H 211.228 3.49993 1.0909 0
M  V30 2331 H 210.876 3.54695 3.56651 0
M  V30 2332 H 210.576 5.14495 2.83847 0
M  V30 2333 H 212.1 4.8418 3.72024 0
M  V30 2334 H 213.514 5.51891 1.55208 0
M  V30 2335 H 211.911 5.93615 0.87985 0
M  V30 2336 H 212.981 4.84894 -0.0235286 0
M  V30 2337 N 214.325 -0.140222 1.56975 0
M  V30 2338 C 215.741 -0.493088 1.51792 0
M  V30 2339 C 215.941 -1.83013 0.843116 0
M  V30 2340 O 214.997 -2.49041 0.416493 0
M  V30 2341 C 216.31 -0.497144 2.96562 0
M  V30 2342 C 217.858 -0.582186 3.07538 0
M  V30 2343 C 218.333 -0.616838 4.53827 0
M  V30 2344 N 219.824 -0.678873 4.58198 0
M  V30 2345 C 220.559 -0.726782 5.68775 0
M  V30 2346 N 220.055 -0.733623 6.88905 0
M  V30 2347 N 221.848 -0.768179 5.56826 0
M  V30 2348 H 213.999 0.736108 1.99237 0
M  V30 2349 H 216.262 0.269182 0.90898 0
M  V30 2350 H 215.968 0.417217 3.49217 0
M  V30 2351 H 215.842 -1.33263 3.52875 0
M  V30 2352 H 218.229 -1.48697 2.54899 0
M  V30 2353 H 218.31 0.280581 2.54257 0
M  V30 2354 H 217.954 0.283812 5.07106 0
M  V30 2355 H 217.884 -1.49619 5.04898 0
M  V30 2356 H 220.375 -0.68061 3.7172 0
M  V30 2357 H 220.688 -0.772215 7.68932 0
M  V30 2358 H 219.033 -0.701389 6.91452 0
M  V30 2359 H 222.224 -0.760051 4.61888 0
M  V30 2360 H 222.397 -0.80205 6.43017 0
M  V30 2361 N 215.803 -1.52179 -0.40978 0
M  V30 2362 C 216.733 -1.78435 -1.5061 0
M  V30 2363 C 217.714 -0.635295 -1.57791 0
M  V30 2364 O 218.899 -0.880823 -1.73076 0
M  V30 2365 C 216.029 -1.93444 -2.88439 0
M  V30 2366 C 214.983 -3.09038 -2.96108 0
M  V30 2367 C 214.309 -3.09268 -4.36185 0
M  V30 2368 C 215.609 -4.48508 -2.67652 0
M  V30 2369 H 217.303 -2.70237 -1.28889 0
M  V30 2370 H 214.849 -1.30036 -0.618605 0
M  V30 2371 H 216.802 -2.10394 -3.65119 0
M  V30 2372 H 215.526 -0.983129 -3.11452 0
M  V30 2373 H 214.185 -2.91837 -2.21872 0
M  V30 2374 H 213.833 -2.11861 -4.56206 0
M  V30 2375 H 213.533 -3.86907 -4.42241 0
M  V30 2376 H 215.057 -3.28348 -5.14801 0
M  V30 2377 H 216.471 -4.65918 -3.34056 0
M  V30 2378 H 214.868 -5.28059 -2.85085 0
M  V30 2379 H 215.938 -4.56649 -1.63095 0
M  V30 2380 N 217.281 0.66697 -1.42791 0
M  V30 2381 C 218.211 1.79218 -1.49677 0
M  V30 2382 C 219.192 1.66405 -0.352623 0
M  V30 2383 O 220.377 1.85708 -0.567993 0
M  V30 2384 C 217.507 3.17565 -1.40605 0
M  V30 2385 C 216.461 3.45124 -2.53127 0
M  V30 2386 C 215.787 4.83127 -2.29112 0
M  V30 2387 C 217.087 3.41236 -3.95418 0
M  V30 2388 H 218.781 1.73713 -2.43853 0
M  V30 2389 H 216.327 0.83432 -1.17367 0
M  V30 2390 H 218.28 3.96022 -1.44029 0
M  V30 2391 H 217.004 3.23767 -0.429271 0
M  V30 2392 H 215.663 2.69031 -2.49034 0
M  V30 2393 H 215.311 4.85988 -1.29709 0
M  V30 2394 H 215.011 5.02528 -3.04531 0
M  V30 2395 H 216.535 5.63859 -2.34297 0
M  V30 2396 H 217.949 4.09651 -4.01073 0
M  V30 2397 H 216.346 3.72173 -4.70752 0
M  V30 2398 H 217.416 2.39665 -4.21532 0
M  V30 2399 N 218.759 1.29093 0.90403 0
M  V30 2400 C 220.007 1.16583 1.65085 0
M  V30 2401 C 220.328 -0.283933 1.92922 0
M  V30 2402 O 219.598 -1.19509 1.55224 0
M  V30 2403 H 218.178 0.428467 0.611903 0
M  V30 2404 H 220.84 1.61959 1.08422 0
M  V30 2405 H 219.936 1.71266 2.6091 0
M  V30 2406 N 220.237 -1.11381 1.11499 0
M  V30 2407 C 221.147 -2.21019 0.786628 0
M  V30 2408 C 222.163 -1.72597 -0.220507 0
M  V30 2409 O 223.339 -2.01321 -0.0565251 0
M  V30 2410 C 220.404 -3.459 0.235333 0
M  V30 2411 C 219.465 -4.09107 1.30115 0
M  V30 2412 C 218.698 -5.28027 0.776068 0
M  V30 2413 O 218.921 -5.6904 -0.393661 0
M  V30 2414 O 217.855 -5.81835 1.54114 0
M  V30 2415 H 221.681 -2.51521 1.70209 0
M  V30 2416 H 219.266 -1.19928 0.890928 0
M  V30 2417 H 221.148 -4.21346 -0.067715 0
M  V30 2418 H 219.823 -3.17049 -0.652828 0
M  V30 2419 H 218.73 -3.35391 1.65722 0
M  V30 2420 H 220.063 -4.42139 2.16273 0
M  V30 2421 N 221.715 -0.905404 -1.28997 0
M  V30 2422 C 222.662 -0.385892 -2.27551 0
M  V30 2423 C 223.632 0.535113 -1.57244 0
M  V30 2424 O 224.817 0.459119 -1.85194 0
M  V30 2425 C 221.957 0.375461 -3.43051 0
M  V30 2426 C 221.07 -0.577092 -4.28128 0
M  V30 2427 C 220.205 0.201879 -5.30816 0
M  V30 2428 C 219.244 -0.744829 -6.07551 0
M  V30 2429 N 218.381 9.42587e-05 -7.021 0
M  V30 2430 H 223.221 -1.23139 -2.71368 0
M  V30 2431 H 220.758 -0.618542 -1.33463 0
M  V30 2432 H 222.716 0.832992 -4.088 0
M  V30 2433 H 221.346 1.18537 -3.00248 0
M  V30 2434 H 220.398 -1.15315 -3.62501 0
M  V30 2435 H 221.71 -1.30152 -4.8152 0
M  V30 2436 H 220.864 0.720351 -6.02408 0
M  V30 2437 H 219.603 0.959413 -4.7817 0
M  V30 2438 H 218.608 -1.27475 -5.34818 0
M  V30 2439 H 219.833 -1.50178 -6.62286 0
M  V30 2440 H 217.779 0.739791 -6.51815 0
M  V30 2441 H 217.696 -0.664321 -7.53076 0
M  V30 2442 H 218.964 0.498644 -7.77903 0
M  V30 2443 N 223.193 1.4272 -0.668489 0
M  V30 2444 C 224.439 2.01923 -0.188419 0
M  V30 2445 C 224.772 1.52704 1.19979 0
M  V30 2446 O 224.047 0.726566 1.8042 0
M  V30 2447 C 224.33 3.59451 -0.216085 0
M  V30 2448 C 224.183 4.18864 -1.6393 0
M  V30 2449 C 225.502 4.37903 0.439179 0
M  V30 2450 H 222.621 0.733674 -0.0699412 0
M  V30 2451 H 225.263 1.69822 -0.852076 0
M  V30 2452 H 223.413 3.86929 0.349012 0
M  V30 2453 H 225.085 4.02362 -2.25616 0
M  V30 2454 H 223.328 3.74933 -2.18193 0
M  V30 2455 H 223.999 5.27987 -1.61039 0
M  V30 2456 H 226.475 4.16079 -0.0417878 0
M  V30 2457 H 225.351 5.47519 0.389157 0
M  V30 2458 H 225.612 4.15303 1.51577 0
M  V30 2459 N 224.671 0.411399 1.52136 0
M  V30 2460 C 225.919 -0.163322 2.01439 0
M  V30 2461 C 226.24 -1.45453 1.29879 0
M  V30 2462 O 225.51 -1.91225 0.4254 0
M  V30 2463 H 224.09 -0.0633447 0.744309 0
M  V30 2464 H 226.752 0.548161 1.87033 0
M  V30 2465 H 225.848 -0.357817 3.10042 0
M  V30 2466 N 226.149 -1.5696 0.141893 0
M  V30 2467 C 227.395 -1.9625 -0.511248 0
M  V30 2468 C 227.728 -1.02654 -1.64851 0
M  V30 2469 O 227.003 -0.0679676 -1.94381 0
M  V30 2470 C 227.286 -3.45285 -1.02227 0
M  V30 2471 C 227.139 -4.49658 0.113138 0
M  V30 2472 C 228.458 -3.96698 -1.90574 0
M  V30 2473 H 225.577 -0.713567 -0.184367 0
M  V30 2474 H 228.219 -1.88698 0.222087 0
M  V30 2475 H 226.369 -3.51852 -1.64719 0
M  V30 2476 H 228.041 -4.55174 0.749302 0
M  V30 2477 H 226.284 -4.26857 0.773026 0
M  V30 2478 H 226.955 -5.51258 -0.286053 0
M  V30 2479 H 229.431 -3.92578 -1.37918 0
M  V30 2480 H 228.307 -5.01453 -2.2324 0
M  V30 2481 H 228.568 -3.3875 -2.84079 0
M  V30 2482 N 227.627 0.131896 -1.57047 0
M  V30 2483 C 229.038 0.690407 -1.73465 0
M  V30 2484 C 229.389 1.8094 -0.758629 0
M  V30 2485 O 228.514 2.16282 0.0713813 0
M  V30 2486 C 229.109 1.25916 -3.14532 0
M  V30 2487 C 227.668 1.76409 -3.32501 0
M  V30 2488 C 226.815 0.658579 -2.69366 0
M  V30 2489 H 229.766 -0.0939144 -1.58422 0
M  V30 2490 H 229.787 2.12892 -3.15369 0
M  V30 2491 H 229.299 0.444515 -3.85546 0
M  V30 2492 H 227.4 2.60391 -2.66509 0
M  V30 2493 H 227.513 1.88241 -4.4057 0
M  V30 2494 H 225.877 1.08899 -2.30246 0
M  V30 2495 H 226.66 -0.14487 -3.42994 0
M  V30 2496 N 229.106 1.52395 0.401703 0
M  V30 2497 C 230.352 1.67065 1.14966 0
M  V30 2498 C 230.685 0.403052 1.89971 0
M  V30 2499 O 229.96 -0.598774 1.85054 0
M  V30 2500 C 230.243 2.8975 2.13815 0
M  V30 2501 C 230.096 4.26578 1.42658 0
M  V30 2502 C 231.415 3.07965 3.14397 0
M  V30 2503 H 228.534 0.607968 0.416587 0
M  V30 2504 H 231.176 1.84965 0.434511 0
M  V30 2505 H 229.326 2.74619 2.74803 0
M  V30 2506 H 230.998 4.53451 0.847329 0
M  V30 2507 H 229.241 4.27639 0.72849 0
M  V30 2508 H 229.912 5.08483 2.14823 0
M  V30 2509 H 232.388 3.22043 2.63491 0
M  V30 2510 H 231.264 3.95308 3.80819 0
M  V30 2511 H 231.525 2.21611 3.82545 0
M  V30 2512 N 230.584 -0.659388 1.43143 0
M  V30 2513 C 231.514 -1.78422 1.50625 0
M  V30 2514 C 232.495 -1.66216 0.361443 0
M  V30 2515 O 233.68 -1.85404 0.577834 0
M  V30 2516 C 230.81 -3.16815 1.42287 0
M  V30 2517 C 229.764 -3.43777 2.54954 0
M  V30 2518 C 229.09 -4.81905 2.31671 0
M  V30 2519 C 230.39 -3.39134 3.97222 0
M  V30 2520 H 232.084 -1.72417 2.44771 0
M  V30 2521 H 229.63 -0.828084 1.17808 0
M  V30 2522 H 231.583 -3.95253 1.46127 0
M  V30 2523 H 230.307 -3.23534 0.446435 0
M  V30 2524 H 228.966 -2.67707 2.50457 0
M  V30 2525 H 228.614 -4.85294 1.32284 0
M  V30 2526 H 228.314 -5.00906 3.07192 0
M  V30 2527 H 229.838 -5.62609 2.37284 0
M  V30 2528 H 231.252 -4.07518 4.03239 0
M  V30 2529 H 229.649 -3.69671 4.72719 0
M  V30 2530 H 230.719 -2.37426 4.22797 0
M  V30 2531 N 232.062 -1.29571 -0.897171 0
M  V30 2532 C 232.972 -1.16808 -2.03453 0
M  V30 2533 C 233.988 -0.0907471 -1.73763 0
M  V30 2534 O 235.164 -0.303312 -1.99103 0
M  V30 2535 C 232.229 -0.848264 -3.36163 0
M  V30 2536 C 231.29 -2.0097 -3.79354 0
M  V30 2537 C 230.523 -1.70505 -5.05731 0
M  V30 2538 O 230.746 -0.62718 -5.66941 0
M  V30 2539 O 229.68 -2.5538 -5.45036 0
M  V30 2540 H 233.506 -2.12325 -2.17144 0
M  V30 2541 H 231.091 -1.09047 -1.02123 0
M  V30 2542 H 232.973 -0.684581 -4.15802 0
M  V30 2543 H 231.648 0.0771071 -3.23608 0
M  V30 2544 H 230.555 -2.22863 -3.00471 0
M  V30 2545 H 231.888 -2.91636 -3.96496 0
M  V30 2546 N 233.54 1.10788 -1.12088 0
M  V30 2547 C 234.786 1.82942 -0.875226 0
M  V30 2548 C 235.119 1.84779 0.597538 0
M  V30 2549 O 234.394 1.30578 1.44152 0
M  V30 2550 C 234.677 3.29789 -1.44606 0
M  V30 2551 C 234.53 3.36307 -2.98693 0
M  V30 2552 C 235.849 4.26064 -1.10261 0
M  V30 2553 H 232.968 0.664195 -0.319397 0
M  V30 2554 H 235.61 1.29867 -1.38689 0
M  V30 2555 H 233.76 3.75118 -1.01089 0
M  V30 2556 H 235.432 2.99487 -3.50864 0
M  V30 2557 H 233.675 2.76318 -3.34411 0
M  V30 2558 H 234.346 4.39694 -3.33726 0
M  V30 2559 H 236.822 3.88951 -1.4784 0
M  V30 2560 H 235.698 5.27183 -1.52869 0
M  V30 2561 H 235.959 4.42098 -0.0142953 0
M  V30 2562 N 235.018 0.912232 1.28515 0
M  V30 2563 C 235.951 0.343928 2.25593 0
M  V30 2564 C 236.929 -0.550994 1.5298 0
M  V30 2565 O 238.113 -0.494991 1.81885 0
M  V30 2566 C 235.24 -0.508525 3.34861 0
M  V30 2567 C 234.286 0.320808 4.25292 0
M  V30 2568 S 235.119 1.72658 5.06902 0
M  V30 2569 C 236.275 0.881394 6.19663 0
M  V30 2570 H 236.508 1.16674 2.73449 0
M  V30 2571 H 234.041 0.713384 1.36931 0
M  V30 2572 H 235.999 -0.994539 3.9827 0
M  V30 2573 H 234.66 -1.30571 2.85675 0
M  V30 2574 H 233.853 -0.330941 5.02912 0
M  V30 2575 H 233.455 0.74042 3.66598 0
M  V30 2576 H 235.747 0.110359 6.7741 0
M  V30 2577 H 236.69 1.63009 6.89082 0
M  V30 2578 H 237.098 0.430239 5.62858 0
M  V30 2579 N 236.496 -1.42363 0.676048 0
M  V30 2580 C 237.773 -1.95183 0.127726 0
M  V30 2581 C 238.153 -1.61641 -1.35777 0
M  V30 2582 O 237.501 -0.913216 -2.09458 0
M  V30 2583 C 237.711 -3.46721 0.398199 0
M  V30 2584 C 239.059 -4.23427 0.315383 0
M  V30 2585 O 240.083 -3.54649 0.332016 0
M  V30 2586 O 238.942 -5.45888 0.25865 0
M  V30 2587 H 236.036 -0.826992 0.00359427 0
M  V30 2588 H 238.582 -1.52184 0.750864 0
M  V30 2589 H 237.354 -3.64344 1.4272 0
M  V30 2590 H 236.977 -3.96769 -0.256885 0
M  V30 2591 N 237.974 -0.419461 -1.51915 0
M  V30 2592 C 239.222 0.152637 -2.01523 0
M  V30 2593 C 239.543 1.44762 -1.30649 0
M  V30 2594 O 238.813 1.90997 -0.435535 0
M  V30 2595 H 237.393 0.0593966 -0.744635 0
M  V30 2596 H 240.055 -0.558073 -1.86739 0
M  V30 2597 H 239.151 0.341369 -3.10227 0
M  V30 2598 N 239.452 1.56882 -0.150215 0
M  V30 2599 C 240.362 2.20494 0.801222 0
M  V30 2600 C 241.378 1.19019 1.26927 0
M  V30 2601 O 242.554 1.51607 1.32579 0
M  V30 2602 C 239.619 2.81659 2.02161 0
M  V30 2603 C 238.68 3.9827 1.60249 0
M  V30 2604 C 237.913 4.56508 2.7647 0
M  V30 2605 O 238.136 4.13627 3.92771 0
M  V30 2606 O 237.07 5.46719 2.51757 0
M  V30 2607 H 240.896 3.02315 0.289717 0
M  V30 2608 H 238.481 1.49202 0.0769684 0
M  V30 2609 H 240.363 3.20522 2.73576 0
M  V30 2610 H 239.038 2.02849 2.52258 0
M  V30 2611 H 237.945 3.64117 0.858477 0
M  V30 2612 H 239.278 4.78609 1.14864 0
M  V30 2613 N 240.93 -0.123565 1.57115 0
M  V30 2614 C 242.155 -0.850398 1.89164 0
M  V30 2615 C 242.58 -1.7286 0.741688 0
M  V30 2616 O 241.938 -1.78665 -0.307958 0
M  V30 2617 C 241.986 -1.66353 3.19936 0
M  V30 2618 O 241.09 -2.77004 3.0552 0
M  V30 2619 H 240.431 -0.235454 0.620852 0
M  V30 2620 H 242.961 -0.107335 2.04318 0
M  V30 2621 H 242.971 -2.05372 3.52543 0
M  V30 2622 H 241.646 -1.01881 4.03228 0
M  V30 2623 H 240.223 -2.41221 2.84371 0
M  V30 2624 N 242.408 -1.52605 -0.393616 0
M  V30 2625 C 243.819 -1.59417 -0.971761 0
M  V30 2626 C 244.17 -0.444173 -1.91106 0
M  V30 2627 O 243.295 0.433382 -2.12016 0
M  V30 2628 C 243.89 -2.88936 -1.76921 0
M  V30 2629 C 242.449 -2.98175 -2.29714 0
M  V30 2630 C 241.596 -2.54491 -1.10135 0
M  V30 2631 H 244.547 -1.57751 -0.173317 0
M  V30 2632 H 244.568 -2.75163 -2.62804 0
M  V30 2633 H 244.08 -3.72616 -1.08532 0
M  V30 2634 H 242.181 -2.19024 -3.01429 0
M  V30 2635 H 242.294 -4.02726 -2.59517 0
M  V30 2636 H 240.658 -2.08702 -1.45999 0
M  V30 2637 H 241.441 -3.4056 -0.432874 0
M  V30 2638 N 243.887 0.651787 -1.4349 0
M  V30 2639 C 244.797 1.79368 -1.5121 0
M  V30 2640 C 245.813 1.69361 -0.399093 0
M  V30 2641 O 246.989 1.90505 -0.653431 0
M  V30 2642 C 244.054 3.15653 -1.43401 0
M  V30 2643 C 243.115 3.37446 -2.65384 0
M  V30 2644 C 242.348 4.67229 -2.57939 0
M  V30 2645 O 242.571 5.46676 -1.62792 0
M  V30 2646 O 241.505 4.90773 -3.48462 0
M  V30 2647 H 245.331 1.7581 -2.47638 0
M  V30 2648 H 242.916 0.810447 -1.25507 0
M  V30 2649 H 244.798 3.96935 -1.41494 0
M  V30 2650 H 243.473 3.19798 -0.501085 0
M  V30 2651 H 242.38 2.55923 -2.72863 0
M  V30 2652 H 243.713 3.38148 -3.57654 0
M  V30 2653 N 245.365 1.30045 0.890287 0
M  V30 2654 C 246.59 1.21598 1.68014 0
M  V30 2655 C 247.015 -0.218678 1.86825 0
M  V30 2656 O 246.373 -1.15756 1.39536 0
M  V30 2657 C 246.421 1.94434 3.03691 0
M  V30 2658 O 245.525 1.2678 3.92429 0
M  V30 2659 H 244.866 0.420856 0.513592 0
M  V30 2660 H 247.396 1.71775 1.11151 0
M  V30 2661 H 247.406 2.03251 3.5377 0
M  V30 2662 H 246.081 2.98777 2.89318 0
M  V30 2663 H 244.658 1.26282 3.50866 0
M  V30 2664 N 246.843 -1.10192 1.12674 0
M  V30 2665 C 248.092 -1.81573 0.8783 0
M  V30 2666 C 248.405 -1.86249 -0.597557 0
M  V30 2667 O 249.611 -2.5386 -0.962681 0
M  V30 2668 C 248.067 -3.26149 1.52167 0
M  V30 2669 C 247.675 -3.29763 3.03249 0
M  V30 2670 C 249.419 -4.0234 1.3536 0
M  V30 2671 C 247.326 -4.68815 3.60508 0
M  V30 2672 H 246.256 -0.680394 0.324931 0
M  V30 2673 H 248.907 -1.23902 1.35353 0
M  V30 2674 H 247.289 -3.83832 0.974104 0
M  V30 2675 H 248.463 -2.8189 3.6452 0
M  V30 2676 H 246.778 -2.67059 3.19481 0
M  V30 2677 H 249.375 -5.05058 1.75559 0
M  V30 2678 H 249.718 -4.15235 0.297554 0
M  V30 2679 H 250.251 -3.51079 1.87052 0
M  V30 2680 H 246.99 -4.61121 4.65884 0
M  V30 2681 H 246.51 -5.17045 3.04014 0
M  V30 2682 H 248.189 -5.37785 3.59717 0
M  V30 2683 N 248.321 -0.919034 -1.28029 0
M  V30 2684 C 249.737 -0.617972 -1.4715 0
M  V30 2685 C 249.937 0.835242 -1.83374 0
M  V30 2686 O 248.993 1.61388 -1.94191 0
M  V30 2687 C 250.306 -1.56041 -2.57044 0
M  V30 2688 C 251.854 -1.56769 -2.7091 0
M  V30 2689 C 252.329 -2.49688 -3.83953 0
M  V30 2690 N 253.82 -2.47845 -3.91314 0
M  V30 2691 C 254.555 -3.16437 -4.78179 0
M  V30 2692 N 254.051 -3.94376 -5.69596 0
M  V30 2693 N 255.844 -3.05498 -4.71834 0
M  V30 2694 H 247.995 -1.85866 -1.02798 0
M  V30 2695 H 250.258 -0.797506 -0.512531 0
M  V30 2696 H 249.964 -2.59671 -2.372 0
M  V30 2697 H 249.838 -1.29551 -3.54255 0
M  V30 2698 H 252.225 -0.538745 -2.90141 0
M  V30 2699 H 252.306 -1.87305 -1.74214 0
M  V30 2700 H 251.95 -3.52688 -3.65477 0
M  V30 2701 H 251.88 -2.16453 -4.80058 0
M  V30 2702 H 254.371 -1.91234 -3.25941 0
M  V30 2703 H 254.684 -4.43721 -6.32718 0
M  V30 2704 H 253.029 -3.98481 -5.69419 0
M  V30 2705 H 256.22 -2.44108 -3.99411 0
M  V30 2706 H 256.393 -3.59225 -5.39316 0
M  V30 2707 N 249.799 1.42003 -0.683588 0
M  V30 2708 C 251.215 1.55625 -0.353976 0
M  V30 2709 C 251.415 1.66151 1.14 0
M  V30 2710 O 250.471 1.63329 1.92561 0
M  V30 2711 C 251.784 2.80171 -1.092 0
M  V30 2712 C 253.332 2.93954 -1.07518 0
M  V30 2713 C 253.807 4.21372 -1.79471 0
M  V30 2714 N 255.298 4.28303 -1.76381 0
M  V30 2715 C 256.033 5.25729 -2.28904 0
M  V30 2716 N 255.529 6.29254 -2.89846 0
M  V30 2717 N 257.322 5.17586 -2.19228 0
M  V30 2718 H 249.473 1.33415 -1.6527 0
M  V30 2719 H 251.736 0.64282 -0.696769 0
M  V30 2720 H 251.442 2.78561 -2.14701 0
M  V30 2721 H 251.316 3.7133 -0.662862 0
M  V30 2722 H 253.703 2.95086 -0.028475 0
M  V30 2723 H 253.784 2.04002 -1.54328 0
M  V30 2724 H 253.428 4.21001 -2.84114 0
M  V30 2725 H 253.358 5.10275 -1.30104 0
M  V30 2726 H 255.849 3.54119 -1.31939 0
M  V30 2727 H 256.162 6.99964 -3.27522 0
M  V30 2728 H 254.507 6.29791 -2.93919 0
M  V30 2729 H 257.698 4.35631 -1.71299 0
M  V30 2730 H 257.871 5.93348 -2.60466 0
M  V30 2731 N 251.277 0.427512 1.51691 0
M  V30 2732 C 252.693 0.0792977 1.59403 0
M  V30 2733 C 252.893 -1.41035 1.43914 0
M  V30 2734 O 251.949 -2.17922 1.27539 0
M  V30 2735 C 253.262 0.590636 2.94842 0
M  V30 2736 C 254.81 0.550215 3.08126 0
M  V30 2737 C 255.285 1.03836 4.46074 0
M  V30 2738 N 256.776 0.995943 4.52366 0
M  V30 2739 C 257.511 1.34463 5.57411 0
M  V30 2740 N 257.007 1.76569 6.69922 0
M  V30 2741 N 258.8 1.26343 5.47717 0
M  V30 2742 H 250.951 1.39687 1.60004 0
M  V30 2743 H 253.214 0.575003 0.753708 0
M  V30 2744 H 252.92 1.63251 3.11516 0
M  V30 2745 H 252.794 0.0102061 3.77199 0
M  V30 2746 H 255.181 -0.482654 2.91126 0
M  V30 2747 H 255.262 1.16693 2.27632 0
M  V30 2748 H 254.906 2.06965 4.63819 0
M  V30 2749 H 254.836 0.398286 5.25092 0
M  V30 2750 H 257.327 0.68661 3.7161 0
M  V30 2751 H 257.64 2.01438 7.46085 0
M  V30 2752 H 255.985 1.80488 6.71155 0
M  V30 2753 H 259.176 0.933209 4.58703 0
M  V30 2754 H 259.349 1.53846 6.29472 0
M  V30 2755 N 252.755 -1.56801 0.158532 0
M  V30 2756 C 254.001 -1.96781 -0.490405 0
M  V30 2757 C 254.334 -1.04397 -1.63753 0
M  V30 2758 O 253.609 -0.0885805 -1.94298 0
M  V30 2759 C 253.892 -3.4635 -0.985594 0
M  V30 2760 C 253.745 -4.49512 0.160824 0
M  V30 2761 C 255.064 -3.98697 -1.86355 0
M  V30 2762 H 252.183 -0.715482 -0.176788 0
M  V30 2763 H 254.825 -1.88451 0.242088 0
M  V30 2764 H 252.975 -3.53579 -1.60978 0
M  V30 2765 H 254.647 -4.54353 0.797537 0
M  V30 2766 H 252.89 -4.26013 0.818256 0
M  V30 2767 H 253.561 -5.51531 -0.227569 0
M  V30 2768 H 256.037 -3.94019 -1.33746 0
M  V30 2769 H 254.913 -5.03792 -2.17909 0
M  V30 2770 H 255.174 -3.41744 -2.8047 0
M  V30 2771 N 254.233 0.115231 -1.57178 0
M  V30 2772 C 255.143 1.15994 -2.03918 0
M  V30 2773 C 256.159 1.45103 -0.960268 0
M  V30 2774 O 257.335 1.56144 -1.27204 0
M  V30 2775 C 254.4 2.46568 -2.43732 0
M  V30 2776 C 253.461 2.24822 -3.65723 0
M  V30 2777 C 252.694 3.4917 -4.03629 0
M  V30 2778 O 252.917 4.56623 -3.41835 0
M  V30 2779 O 251.851 3.39949 -4.96708 0
M  V30 2780 H 255.677 0.793019 -2.93164 0
M  V30 2781 H 253.262 0.3263 -1.45793 0
M  V30 2782 H 255.144 3.23492 -2.70057 0
M  V30 2783 H 253.819 2.82726 -1.57631 0
M  V30 2784 H 252.726 1.45744 -3.44542 0
M  V30 2785 H 254.059 1.93566 -4.52541 0
M  V30 2786 N 255.711 1.52812 0.385517 0
M  V30 2787 C 256.621 1.80766 1.49535 0
M  V30 2788 C 257.637 0.694651 1.59532 0
M  V30 2789 O 258.813 0.982611 1.75803 0
M  V30 2790 C 255.878 1.97381 2.85029 0
M  V30 2791 C 254.939 3.21295 2.84724 0
M  V30 2792 C 254.172 3.37108 4.13756 0
M  V30 2793 O 254.395 2.5765 5.08893 0
M  V30 2794 O 253.329 4.30378 4.20783 0
M  V30 2795 H 257.155 2.75015 1.28842 0
M  V30 2796 H 254.74 1.37946 0.573697 0
M  V30 2797 H 256.622 2.09996 3.65349 0
M  V30 2798 H 255.297 1.06322 3.05741 0
M  V30 2799 H 254.204 3.1412 2.03174 0
M  V30 2800 H 255.537 4.12212 2.68965 0
M  V30 2801 N 257.189 -0.644168 1.43834 0
M  V30 2802 C 258.136 -1.75671 1.49694 0
M  V30 2803 C 259.106 -1.6246 0.345809 0
M  V30 2804 O 260.291 -1.82573 0.554234 0
M  V30 2805 C 257.431 -3.13867 1.43463 0
M  V30 2806 C 256.544 -3.38147 2.6885 0
M  V30 2807 C 255.679 -4.66241 2.54544 0
M  V30 2808 C 254.718 -4.83657 3.75157 0
M  V30 2809 N 253.855 -6.03016 3.59605 0
M  V30 2810 H 258.695 -1.69998 2.44754 0
M  V30 2811 H 256.232 -0.829458 1.21484 0
M  V30 2812 H 258.19 -3.9377 1.37843 0
M  V30 2813 H 256.82 -3.18588 0.519783 0
M  V30 2814 H 255.872 -2.52276 2.84712 0
M  V30 2815 H 257.184 -3.46899 3.58417 0
M  V30 2816 H 256.338 -5.54285 2.46683 0
M  V30 2817 H 255.077 -4.59826 1.62516 0
M  V30 2818 H 254.082 -3.94046 3.83416 0
M  V30 2819 H 255.307 -4.91896 4.68204 0
M  V30 2820 H 253.253 -5.97715 2.7032 0
M  V30 2821 H 253.17 -6.12766 4.42779 0
M  V30 2822 H 254.438 -6.93657 3.55613 0
M  V30 2823 N 258.668 -1.30515 -0.883378 0
M  V30 2824 C 259.631 -1.1701 -1.97082 0
M  V30 2825 C 260.631 -0.10089 -1.60483 0
M  V30 2826 O 261.821 -0.349127 -1.70666 0
M  V30 2827 C 258.953 -0.793045 -3.31547 0
M  V30 2828 H 260.146 -2.13622 -2.10489 0
M  V30 2829 H 257.699 -1.13935 -1.06998 0
M  V30 2830 H 258.434 0.172499 -3.23841 0
M  V30 2831 H 258.219 -1.56576 -3.5948 0
M  V30 2832 H 259.709 -0.722073 -4.1131 0
M  V30 2833 N 260.146 1.09593 -1.13257 0
M  V30 2834 C 261.562 1.33775 -0.870423 0
M  V30 2835 C 261.762 1.95327 0.494926 0
M  V30 2836 O 260.818 2.19853 1.2418 0
M  V30 2837 C 262.131 2.25106 -1.99369 0
M  V30 2838 C 263.679 2.3862 -2.02558 0
M  V30 2839 C 264.154 3.33285 -3.14142 0
M  V30 2840 N 265.645 3.40857 -3.13641 0
M  V30 2841 C 266.38 4.14101 -3.96621 0
M  V30 2842 N 265.876 4.90157 -4.8961 0
M  V30 2843 N 267.669 4.09808 -3.84726 0
M  V30 2844 H 259.82 0.680136 -2.01216 0
M  V30 2845 H 262.083 0.362133 -0.876107 0
M  V30 2846 H 261.789 1.87103 -2.97801 0
M  V30 2847 H 261.663 3.25481 -1.90635 0
M  V30 2848 H 264.05 2.75887 -1.0474 0
M  V30 2849 H 264.131 1.38028 -2.15364 0
M  V30 2850 H 263.775 2.96741 -4.12198 0
M  V30 2851 H 263.705 4.33776 -2.98574 0
M  V30 2852 H 266.196 2.86624 -2.46282 0
M  V30 2853 H 266.509 5.4347 -5.49418 0
M  V30 2854 H 264.854 4.89251 -4.93617 0
M  V30 2855 H 268.045 3.4949 -3.11408 0
M  V30 2856 H 268.218 4.66629 -4.49623 0
M  V30 2857 N 261.624 0.925811 1.2754 0
M  V30 2858 C 262.554 0.440748 2.29303 0
M  V30 2859 C 263.535 -0.497971 1.62648 0
M  V30 2860 O 264.72 -0.403126 1.8997 0
M  V30 2861 C 261.85 -0.309048 3.45922 0
M  V30 2862 C 260.804 0.54166 4.24559 0
M  V30 2863 C 260.13 -0.337191 5.33636 0
M  V30 2864 C 261.43 1.80516 4.90114 0
M  V30 2865 H 263.124 1.29121 2.70126 0
M  V30 2866 H 260.67 0.622323 1.29858 0
M  V30 2867 H 262.623 -0.659315 4.1621 0
M  V30 2868 H 261.347 -1.19352 3.04011 0
M  V30 2869 H 260.006 0.874609 3.56014 0
M  V30 2870 H 259.654 -1.22056 4.87966 0
M  V30 2871 H 259.354 0.228497 5.87156 0
M  V30 2872 H 260.878 -0.683072 6.06767 0
M  V30 2873 H 262.292 1.52307 5.52698 0
M  V30 2874 H 260.689 2.3142 5.53683 0
M  V30 2875 H 261.759 2.52581 4.13921 0
M  V30 2876 N 263.102 -1.41638 0.69111 0
M  V30 2877 C 264.012 -2.34588 0.0233487 0
M  V30 2878 C 265.028 -1.55987 -0.770984 0
M  V30 2879 O 266.204 -1.88486 -0.709569 0
M  V30 2880 C 263.269 -3.34684 -0.904851 0
M  V30 2881 C 262.33 -4.29176 -0.103225 0
M  V30 2882 C 261.563 -5.2449 -0.987216 0
M  V30 2883 O 261.786 -5.2514 -2.22674 0
M  V30 2884 O 260.72 -6.00295 -0.439281 0
M  V30 2885 H 264.546 -2.93261 0.789416 0
M  V30 2886 H 262.131 -1.42417 0.45142 0
M  V30 2887 H 264.013 -3.96133 -1.43724 0
M  V30 2888 H 262.688 -2.78461 -1.65049 0
M  V30 2889 H 261.595 -3.71089 0.473655 0
M  V30 2890 H 262.928 -4.88484 0.60365 0
M  V30 2891 N 264.58 -0.43555 -1.51462 0
M  V30 2892 C 265.543 0.365137 -2.26273 0
M  V30 2893 C 266.543 0.951227 -1.29647 0
M  V30 2894 O 267.733 0.825958 -1.53374 0
M  V30 2895 C 264.865 1.51645 -3.05314 0
M  V30 2896 H 266.058 -0.290474 -2.9849 0
M  V30 2897 H 263.611 -0.188676 -1.55157 0
M  V30 2898 H 264.346 2.20816 -2.3751 0
M  V30 2899 H 264.131 1.10238 -3.76284 0
M  V30 2900 H 265.621 2.08218 -3.61987 0
M  V30 2901 N 266.058 1.56714 -0.166846 0
M  V30 2902 C 267.474 1.58473 0.189372 0
M  V30 2903 C 267.674 1.18201 1.63189 0
M  V30 2904 O 266.73 0.891528 2.36237 0
M  V30 2905 C 268.043 3.00573 -0.0873872 0
M  V30 2906 C 269.591 3.1299 -0.0252443 0
M  V30 2907 C 270.066 4.57174 -0.274934 0
M  V30 2908 N 271.557 4.62665 -0.222553 0
M  V30 2909 C 272.292 5.72072 -0.389985 0
M  V30 2910 N 271.788 6.90054 -0.616229 0
M  V30 2911 N 273.581 5.61153 -0.326202 0
M  V30 2912 H 265.732 1.8118 -1.10849 0
M  V30 2913 H 267.995 0.839525 -0.440342 0
M  V30 2914 H 267.701 3.34497 -1.0865 0
M  V30 2915 H 267.575 3.72019 0.623037 0
M  V30 2916 H 269.962 2.78895 0.96444 0
M  V30 2917 H 270.043 2.43989 -0.768309 0
M  V30 2918 H 269.687 4.91976 -1.26181 0
M  V30 2919 H 269.617 5.24328 0.48869 0
M  V30 2920 H 272.108 3.77863 -0.0531512 0
M  V30 2921 H 272.421 7.69311 -0.733559 0
M  V30 2922 H 270.766 6.91927 -0.652791 0
M  V30 2923 H 273.957 4.67859 -0.150072 0
M  V30 2924 H 274.13 6.46364 -0.460116 0
M  V30 2925 N 267.536 -0.106894 1.57237 0
M  V30 2926 C 268.813 -0.843526 1.76477 0
M  V30 2927 C 269.193 -1.97499 0.745464 0
M  V30 2928 O 268.541 -2.27357 -0.228306 0
M  V30 2929 C 268.751 -1.34903 3.21873 0
M  V30 2930 C 270.099 -1.79654 3.8472 0
M  V30 2931 O 271.123 -1.44554 3.2555 0
M  V30 2932 O 269.982 -2.44515 4.88748 0
M  V30 2933 H 267.076 -0.401468 0.723016 0
M  V30 2934 H 269.622 -0.0896927 1.69463 0
M  V30 2935 H 268.394 -0.53781 3.87586 0
M  V30 2936 H 268.017 -2.16522 3.33473 0
M  V30 2937 N 269.014 -1.53014 -0.377408 0
M  V30 2938 C 269.944 -1.81589 -1.46791 0
M  V30 2939 C 270.925 -0.668622 -1.56408 0
M  V30 2940 O 272.11 -0.917337 -1.71168 0
M  V30 2941 C 269.24 -1.99519 -2.8427 0
M  V30 2942 C 268.194 -3.15249 -2.89486 0
M  V30 2943 C 267.52 -3.18451 -4.29527 0
M  V30 2944 C 268.82 -4.54084 -2.58079 0
M  V30 2945 H 270.514 -2.7291 -1.23127 0
M  V30 2946 H 268.06 -1.31319 -0.590883 0
M  V30 2947 H 270.013 -2.18092 -3.60575 0
M  V30 2948 H 268.737 -1.04897 -3.09296 0
M  V30 2949 H 267.396 -2.96477 -2.15631 0
M  V30 2950 H 267.044 -2.2149 -4.5161 0
M  V30 2951 H 266.744 -3.962 -4.33934 0
M  V30 2952 H 268.268 -3.39193 -5.07721 0
M  V30 2953 H 269.682 -4.72899 -3.24098 0
M  V30 2954 H 268.079 -5.33987 -2.7382 0
M  V30 2955 H 269.149 -4.60006 -1.53372 0
M  V30 2956 N 270.492 0.636531 -1.44174 0
M  V30 2957 C 271.741 1.39213 -1.45954 0
M  V30 2958 C 272.054 1.95374 -0.0939119 0
M  V30 2959 O 273.26 2.71498 0.0107767 0
M  V30 2960 C 271.716 2.52025 -2.56927 0
M  V30 2961 C 271.324 2.024 -3.99673 0
M  V30 2962 C 273.068 3.29269 -2.67922 0
M  V30 2963 C 270.975 3.12521 -5.0208 0
M  V30 2964 H 269.905 0.523132 -0.542999 0
M  V30 2965 H 272.556 0.685349 -1.70221 0
M  V30 2966 H 270.938 3.25253 -2.25891 0
M  V30 2967 H 272.112 1.36073 -4.40251 0
M  V30 2968 H 270.427 1.37987 -3.92872 0
M  V30 2969 H 273.024 4.11352 -3.41605 0
M  V30 2970 H 273.367 3.78397 -1.73555 0
M  V30 2971 H 273.9 2.63129 -2.98342 0
M  V30 2972 H 270.639 2.68343 -5.98057 0
M  V30 2973 H 270.159 3.77507 -4.66099 0
M  V30 2974 H 271.838 3.77385 -5.25538 0
M  V30 2975 N 271.97 1.30982 0.876444 0
M  V30 2976 C 272.9 1.20668 1.99903 0
M  V30 2977 C 273.881 0.095354 1.69833 0
M  V30 2978 O 275.066 0.27885 1.92188 0
M  V30 2979 C 272.196 0.90655 3.3526 0
M  V30 2980 C 271.15 1.97675 3.79617 0
M  V30 2981 C 270.476 1.52943 5.1236 0
M  V30 2982 C 271.776 3.389 3.97422 0
M  V30 2983 H 273.47 2.14586 2.0879 0
M  V30 2984 H 271.016 1.03308 1.00317 0
M  V30 2985 H 272.969 0.821025 4.13324 0
M  V30 2986 H 271.693 -0.0682969 3.26529 0
M  V30 2987 H 270.352 2.05205 3.03787 0
M  V30 2988 H 270 0.54262 5.00065 0
M  V30 2989 H 269.7 2.24532 5.43009 0
M  V30 2990 H 271.224 1.45786 5.92941 0
M  V30 2991 H 272.638 3.34081 4.659 0
M  V30 2992 H 271.035 4.0865 4.3946 0
M  V30 2993 H 272.105 3.80163 3.01006 0
M  V30 2994 N 273.449 -1.08991 1.13837 0
M  V30 2995 C 274.695 -1.81526 0.90422 0
M  V30 2996 C 275.028 -1.85706 -0.568066 0
M  V30 2997 O 274.303 -1.32855 -1.42056 0
M  V30 2998 C 274.586 -3.27447 1.49835 0
M  V30 2999 C 274.439 -3.31512 3.04006 0
M  V30 3000 C 275.758 -4.24256 1.17025 0
M  V30 3001 H 272.877 -0.659029 0.329923 0
M  V30 3002 H 275.519 -1.27644 1.40737 0
M  V30 3003 H 273.669 -3.73462 1.07044 0
M  V30 3004 H 275.341 -2.93867 3.55584 0
M  V30 3005 H 273.584 -2.70963 3.38765 0
M  V30 3006 H 274.255 -4.34329 3.40679 0
M  V30 3007 H 276.731 -3.86549 1.54009 0
M  V30 3008 H 275.607 -5.24684 1.61237 0
M  V30 3009 H 275.868 -4.42019 0.0846274 0
M  V30 3010 N 274.927 -0.932562 -1.27047 0
M  V30 3011 C 276.204 -0.49377 -1.89265 0
M  V30 3012 C 276.584 1.02833 -1.8436 0
M  V30 3013 O 275.932 1.88461 -1.29209 0
M  V30 3014 C 276.142 -1.04536 -3.32976 0
M  V30 3015 C 277.49 -1.10879 -4.09867 0
M  V30 3016 O 278.514 -0.995327 -3.42011 0
M  V30 3017 O 277.373 -1.28417 -5.31198 0
M  V30 3018 H 274.467 -0.159596 -0.811454 0
M  V30 3019 H 277.013 -1.02457 -1.3528 0
M  V30 3020 H 275.785 -2.08913 -3.30864 0
M  V30 3021 H 275.408 -0.496494 -3.94488 0
M  V30 3022 N 276.405 1.4127 -0.698611 0
M  V30 3023 C 277.633 2.05503 -0.239992 0
M  V30 3024 C 278.048 1.52584 1.11191 0
M  V30 3025 O 277.405 0.675323 1.69545 0
M  V30 3026 C 277.456 3.60987 -0.192429 0
M  V30 3027 O 277.177 4.1195 -1.49094 0
M  V30 3028 C 278.678 4.42371 0.28681 0
M  V30 3029 H 275.898 0.661748 -0.111045 0
M  V30 3030 H 278.442 1.80987 -0.95205 0
M  V30 3031 H 276.597 3.84533 0.470472 0
M  V30 3032 H 277.011 5.06018 -1.38007 0
M  V30 3033 H 278.485 5.51344 0.26896 0
M  V30 3034 H 278.962 4.18699 1.32619 0
M  V30 3035 H 279.568 4.23897 -0.345201 0
M  V30 3036 N 277.883 0.443576 1.51229 0
M  V30 3037 C 278.846 -0.353132 2.26463 0
M  V30 3038 C 279.846 -0.944338 1.3015 0
M  V30 3039 O 281.036 -0.817813 1.5381 0
M  V30 3040 C 278.168 -1.50023 3.06114 0
M  V30 3041 H 279.361 0.3063 2.98332 0
M  V30 3042 H 276.914 0.196902 1.55055 0
M  V30 3043 H 277.649 -2.19553 2.38677 0
M  V30 3044 H 277.434 -1.08241 3.76864 0
M  V30 3045 H 278.924 -2.06296 3.63087 0
M  V30 3046 N 279.361 -1.56624 0.175154 0
M  V30 3047 C 280.609 -1.96609 -0.467885 0
M  V30 3048 C 280.93 -1.06238 -1.63519 0
M  V30 3049 O 280.2 -0.129523 -1.95471 0
M  V30 3050 H 278.78 -0.726008 -0.175845 0
M  V30 3051 H 281.442 -1.93195 0.257234 0
M  V30 3052 H 280.538 -3.00989 -0.825342 0
M  V30 3053 N 280.839 0.0985539 -1.57292 0
M  V30 3054 C 282.255 0.45267 -1.53046 0
M  V30 3055 C 282.455 1.80713 -0.891342 0
M  V30 3056 O 281.511 2.4785 -0.482375 0
M  V30 3057 C 282.824 0.418341 -2.97776 0
M  V30 3058 C 284.372 0.500443 -3.08973 0
M  V30 3059 C 284.847 0.496297 -4.55303 0
M  V30 3060 N 286.338 0.557151 -4.59837 0
M  V30 3061 C 287.073 0.575726 -5.70502 0
M  V30 3062 N 286.569 0.550714 -6.90608 0
M  V30 3063 N 288.362 0.620277 -5.58667 0
M  V30 3064 H 280.513 -0.788673 -1.97215 0
M  V30 3065 H 282.776 -0.293188 -0.901524 0
M  V30 3066 H 282.482 -0.509659 -3.47988 0
M  V30 3067 H 282.356 1.2386 -3.56284 0
M  V30 3068 H 284.743 1.41886 -2.58751 0
M  V30 3069 H 284.824 -0.347894 -2.53423 0
M  V30 3070 H 284.468 -0.418162 -5.06176 0
M  V30 3071 H 284.398 1.3618 -5.08687 0
M  V30 3072 H 286.889 0.581816 -3.73394 0
M  V30 3073 H 287.202 0.568075 -7.70709 0
M  V30 3074 H 285.547 0.517816 -6.93068 0
M  V30 3075 H 288.738 0.637322 -4.63741 0
M  V30 3076 H 288.911 0.631283 -6.44918 0
M  V30 3077 N 282.317 1.53212 0.369288 0
M  V30 3078 C 283.247 1.82365 1.45826 0
M  V30 3079 C 284.228 0.676907 1.56051 0
M  V30 3080 O 285.413 0.926401 1.70679 0
M  V30 3081 C 282.543 2.01023 2.83208 0
M  V30 3082 C 281.497 3.1678 2.8781 0
M  V30 3083 C 280.823 3.20724 4.27832 0
M  V30 3084 C 282.123 4.55447 2.55667 0
M  V30 3085 H 283.817 2.73559 1.21678 0
M  V30 3086 H 281.363 1.3163 0.583911 0
M  V30 3087 H 283.316 2.20001 3.59413 0
M  V30 3088 H 282.04 1.06536 3.08736 0
M  V30 3089 H 280.699 2.97616 2.14056 0
M  V30 3090 H 280.347 2.23882 4.50429 0
M  V30 3091 H 280.047 3.98496 4.31827 0
M  V30 3092 H 281.571 3.41881 5.05915 0
M  V30 3093 H 282.985 4.74611 3.21586 0
M  V30 3094 H 281.382 5.35432 2.70984 0
M  V30 3095 H 282.452 4.60812 1.5093 0
M  V30 3096 N 283.795 -0.628877 1.44509 0
M  V30 3097 C 284.727 -1.754 1.47538 0
M  V30 3098 C 285.74 -1.58575 0.368506 0
M  V30 3099 O 286.929 -1.66847 0.634376 0
M  V30 3100 C 284.029 -3.1315 1.29577 0
M  V30 3101 C 283.202 -3.56413 2.53551 0
M  V30 3102 C 282.261 -4.7305 2.30457 0
M  V30 3103 O 281.287 -4.81247 3.03957 0
M  V30 3104 N 282.489 -5.64903 1.3366 0
M  V30 3105 H 285.254 -1.73272 2.44534 0
M  V30 3106 H 282.815 -0.813512 1.39977 0
M  V30 3107 H 284.807 -3.88902 1.11971 0
M  V30 3108 H 283.377 -3.09908 0.409371 0
M  V30 3109 H 282.597 -2.70847 2.86419 0
M  V30 3110 H 283.885 -3.82071 3.36005 0
M  V30 3111 H 283.283 -5.60975 0.729604 0
M  V30 3112 H 281.84 -6.40275 1.22032 0
M  V30 3113 N 285.273 -1.31445 -0.869486 0
M  V30 3114 C 286.522 -1.20517 -1.61736 0
M  V30 3115 C 286.835 0.235341 -1.94179 0
M  V30 3116 O 288.041 0.466312 -2.67465 0
M  V30 3117 C 286.497 -2.10982 -2.91573 0
M  V30 3118 C 286.105 -3.60032 -2.66611 0
M  V30 3119 C 287.849 -2.08856 -3.69567 0
M  V30 3120 C 285.756 -4.42503 -3.92358 0
M  V30 3121 H 284.686 -0.447493 -0.606849 0
M  V30 3122 H 287.337 -1.56303 -0.96133 0
M  V30 3123 H 285.719 -1.68095 -3.58553 0
M  V30 3124 H 286.893 -4.11167 -2.08035 0
M  V30 3125 H 285.208 -3.64139 -2.0197 0
M  V30 3126 H 287.805 -2.67716 -4.62852 0
M  V30 3127 H 288.148 -1.07582 -4.02159 0
M  V30 3128 H 288.681 -2.49945 -3.09471 0
M  V30 3129 H 285.42 -5.44533 -3.64916 0
M  V30 3130 H 284.94 -3.96125 -4.50383 0
M  V30 3131 H 286.619 -4.54741 -4.60238 0
M  V30 3132 N 286.751 1.08385 -1.14413 0
M  V30 3133 C 288.028 1.77429 -0.823297 0
M  V30 3134 C 288.408 1.9974 0.683163 0
M  V30 3135 O 287.756 1.60739 1.62405 0
M  V30 3136 C 287.966 3.09004 -1.62227 0
M  V30 3137 C 289.314 3.83532 -1.82177 0
M  V30 3138 O 290.338 3.18786 -1.58915 0
M  V30 3139 O 289.197 4.99792 -2.21067 0
M  V30 3140 H 286.291 0.769999 -0.301712 0
M  V30 3141 H 288.837 1.14846 -1.24934 0
M  V30 3142 H 287.609 2.88316 -2.64555 0
M  V30 3143 H 287.232 3.79316 -1.19187 0
M  V30 3144 N 288.23 0.939286 1.26551 0
M  V30 3145 C 289.14 0.453432 2.30176 0
M  V30 3146 C 290.156 -0.471649 1.67486 0
M  V30 3147 O 291.332 -0.35164 1.98306 0
M  V30 3148 C 288.397 -0.275326 3.45605 0
M  V30 3149 C 287.458 0.686084 4.23782 0
M  V30 3150 C 286.691 -0.00798994 5.33699 0
M  V30 3151 O 286.914 -1.22528 5.57085 0
M  V30 3152 O 285.848 0.669746 5.98162 0
M  V30 3153 H 289.674 1.31416 2.73795 0
M  V30 3154 H 287.259 0.705095 1.31715 0
M  V30 3155 H 289.141 -0.685911 4.1578 0
M  V30 3156 H 287.816 -1.11147 3.0402 0
M  V30 3157 H 286.723 1.14658 3.56096 0
M  V30 3158 H 288.056 1.48979 4.69112 0
M  V30 3159 N 289.708 -1.40897 0.706093 0
M  V30 3160 C 291.119 -1.84023 0.315052 0
M  V30 3161 C 291.47 -1.5906 -1.14866 0
M  V30 3162 O 290.595 -1.06651 -1.88293 0
M  V30 3163 C 291.19 -3.34055 0.565038 0
M  V30 3164 C 289.749 -3.7571 0.227806 0
M  V30 3165 C 288.896 -2.64204 0.842122 0
M  V30 3166 H 291.847 -1.303 0.905963 0
M  V30 3167 H 291.868 -3.80107 -0.172843 0
M  V30 3168 H 291.38 -3.52192 1.63042 0
M  V30 3169 H 289.481 -3.63172 -0.832895 0
M  V30 3170 H 289.594 -4.74103 0.690174 0
M  V30 3171 H 287.958 -2.53255 0.270893 0
M  V30 3172 H 288.741 -2.85155 1.91158 0
M  V30 3173 N 291.186 -0.45159 -1.50991 0
M  V30 3174 C 292.116 0.342898 -2.30969 0
M  V30 3175 C 293.097 1.00815 -1.37005 0
M  V30 3176 O 294.282 1.00907 -1.65926 0
M  V30 3177 C 291.412 1.43637 -3.16205 0
M  V30 3178 C 290.366 0.893818 -4.18563 0
M  V30 3179 C 289.692 2.08411 -4.92411 0
M  V30 3180 C 290.992 -0.0815568 -5.22236 0
M  V30 3181 H 292.686 -0.324556 -2.97636 0
M  V30 3182 H 290.232 -0.157531 -1.43136 0
M  V30 3183 H 292.185 1.9995 -3.70942 0
M  V30 3184 H 290.909 2.13232 -2.47386 0
M  V30 3185 H 289.568 0.352798 -3.64898 0
M  V30 3186 H 289.216 2.76658 -4.20082 0
M  V30 3187 H 288.916 1.72741 -5.61636 0
M  V30 3188 H 290.44 2.65251 -5.49976 0
M  V30 3189 H 291.854 0.391742 -5.7196 0
M  V30 3190 H 290.251 -0.351551 -5.99069 0
M  V30 3191 H 291.321 -1.01374 -4.74185 0
M  V30 3192 N 292.664 1.56529 -0.183458 0
M  V30 3193 C 293.597 2.14417 0.781052 0
M  V30 3194 C 294.575 1.07761 1.21763 0
M  V30 3195 O 295.759 1.35807 1.30724 0
M  V30 3196 C 292.886 2.69361 2.05335 0
M  V30 3197 C 291.932 3.885 1.75982 0
M  V30 3198 S 292.765 5.27568 0.918256 0
M  V30 3199 C 293.921 5.85926 2.20095 0
M  V30 3200 H 294.154 2.95893 0.2889 0
M  V30 3201 H 291.687 1.54368 0.0313844 0
M  V30 3202 H 293.645 3.01662 2.78406 0
M  V30 3203 H 292.306 1.87949 2.51663 0
M  V30 3204 H 291.499 4.25314 2.70415 0
M  V30 3205 H 291.101 3.57149 1.10999 0
M  V30 3206 H 293.393 5.99579 3.15453 0
M  V30 3207 H 294.336 6.82761 1.87731 0
M  V30 3208 H 294.744 5.14438 2.32409 0
M  V30 3209 N 294.142 -0.090211 1.57342 0
M  V30 3210 C 295.39 -0.791241 1.85967 0
M  V30 3211 C 295.711 -1.7903 0.772859 0
M  V30 3212 O 294.981 -1.94872 -0.200398 0
M  V30 3213 H 293.561 -0.295205 0.686195 0
M  V30 3214 H 296.223 -0.0706782 1.94772 0
M  V30 3215 H 295.319 -1.31882 2.82867 0
M  V30 3216 N 295.62 -1.53406 -0.361157 0
M  V30 3217 C 296.53 -1.83122 -1.4664 0
M  V30 3218 C 297.546 -0.719943 -1.58407 0
M  V30 3219 O 298.722 -1.01046 -1.74218 0
M  V30 3220 C 295.787 -2.01891 -2.81853 0
M  V30 3221 C 294.848 -3.25784 -2.79577 0
M  V30 3222 C 294.081 -3.43648 -4.0834 0
M  V30 3223 O 294.304 -2.65714 -5.0473 0
M  V30 3224 O 293.238 -4.37018 -4.13883 0
M  V30 3225 H 297.064 -2.7703 -1.24451 0
M  V30 3226 H 294.649 -1.38841 -0.551678 0
M  V30 3227 H 296.531 -2.15782 -3.61962 0
M  V30 3228 H 295.206 -1.11173 -3.0401 0
M  V30 3229 H 294.113 -3.17312 -1.98151 0
M  V30 3230 H 295.446 -4.16439 -2.62373 0
M  V30 3231 N 297.098 0.621204 -1.44841 0
M  V30 3232 C 298.028 1.74366 -1.55303 0
M  V30 3233 C 299.009 1.65199 -0.405385 0
M  V30 3234 O 300.194 1.83807 -0.626787 0
M  V30 3235 C 297.324 3.12931 -1.50637 0
M  V30 3236 C 296.278 3.36896 -2.63979 0
M  V30 3237 C 295.604 4.75594 -2.44366 0
M  V30 3238 C 296.904 3.28483 -4.06074 0
M  V30 3239 H 298.598 1.65867 -2.49256 0
M  V30 3240 H 296.144 0.796558 -1.19962 0
M  V30 3241 H 298.097 3.9124 -1.56555 0
M  V30 3242 H 296.821 3.22237 -0.532057 0
M  V30 3243 H 295.48 2.60972 -2.57467 0
M  V30 3244 H 295.128 4.81616 -1.45105 0
M  V30 3245 H 294.828 4.92586 -3.20364 0
M  V30 3246 H 296.352 5.5612 -2.52117 0
M  V30 3247 H 297.766 3.96684 -4.13902 0
M  V30 3248 H 296.163 3.57008 -4.82354 0
M  V30 3249 H 297.233 2.26133 -4.28943 0
M  V30 3250 N 298.576 1.31904 0.862503 0
M  V30 3251 C 299.539 1.20131 1.95195 0
M  V30 3252 C 300.539 0.126409 1.60302 0
M  V30 3253 O 301.729 0.376234 1.70089 0
M  V30 3254 C 298.861 0.845691 3.30244 0
M  V30 3255 H 300.054 2.16943 2.07064 0
M  V30 3256 H 297.607 1.15622 1.05172 0
M  V30 3257 H 298.342 -0.120957 3.24074 0
M  V30 3258 H 298.127 1.62276 3.56944 0
M  V30 3259 H 299.617 0.787418 4.10109 0
M  V30 3260 N 300.054 -1.07777 1.14986 0
M  V30 3261 C 301.47 -1.32373 0.891596 0
M  V30 3262 C 301.67 -1.9609 -0.463788 0
M  V30 3263 O 300.726 -2.21801 -1.20667 0
M  V30 3264 C 302.039 -2.21905 2.02925 0
M  V30 3265 C 303.587 -2.35367 2.06329 0
M  V30 3266 C 304.062 -3.28245 3.19405 0
M  V30 3267 N 305.553 -3.35824 3.19024 0
M  V30 3268 C 306.288 -4.07739 4.03158 0
M  V30 3269 N 305.784 -4.82306 4.97346 0
M  V30 3270 N 307.577 -4.03635 3.91197 0
M  V30 3271 H 299.728 -0.648039 2.02273 0
M  V30 3272 H 301.991 -0.348149 0.881757 0
M  V30 3273 H 301.697 -1.82342 3.0074 0
M  V30 3274 H 301.571 -3.22407 1.95789 0
M  V30 3275 H 303.958 -2.74186 1.09116 0
M  V30 3276 H 304.039 -1.34585 2.17533 0
M  V30 3277 H 303.683 -2.90146 4.16867 0
M  V30 3278 H 303.613 -4.28971 3.05437 0
M  V30 3279 H 306.104 -2.8267 2.50811 0
M  V30 3280 H 306.417 -5.34661 5.57994 0
M  V30 3281 H 304.762 -4.81337 5.01338 0
M  V30 3282 H 307.953 -3.44491 3.16928 0
M  V30 3283 H 308.126 -4.59417 4.5699 0
M  V30 3284 N 301.532 -0.945985 -1.26051 0
M  V30 3285 C 302.462 -0.477172 -2.28572 0
M  V30 3286 C 303.443 0.472032 -1.63419 0
M  V30 3287 O 304.628 0.372853 -1.90587 0
M  V30 3288 C 301.758 0.253975 -3.4637 0
M  V30 3289 C 300.712 -0.609135 -4.23643 0
M  V30 3290 C 300.038 0.252252 -5.34105 0
M  V30 3291 C 301.338 -1.8829 -4.8718 0
M  V30 3292 H 303.032 -1.33402 -2.68038 0
M  V30 3293 H 300.578 -0.642904 -1.28852 0
M  V30 3294 H 302.531 0.593016 -4.17207 0
M  V30 3295 H 301.255 1.145 -3.05871 0
M  V30 3296 H 299.914 -0.931138 -3.54578 0
M  V30 3297 H 299.562 1.14278 -4.89846 0
M  V30 3298 H 299.262 -0.32188 -5.86718 0
M  V30 3299 H 300.786 0.586454 -6.07777 0
M  V30 3300 H 302.2 -1.61081 -5.50205 0
M  V30 3301 H 300.597 -2.40199 -5.49931 0
M  V30 3302 H 301.667 -2.59134 -4.09851 0
M  V30 3303 N 303.011 1.40521 -0.713556 0
M  V30 3304 C 303.958 2.30723 -0.059684 0
M  V30 3305 C 304.928 1.48079 0.752448 0
M  V30 3306 O 306.113 1.76823 0.71681 0
M  V30 3307 C 303.253 3.34274 0.857594 0
M  V30 3308 C 302.366 4.31986 0.0351536 0
M  V30 3309 C 301.501 5.22605 0.951724 0
M  V30 3310 C 300.54 6.11976 0.123253 0
M  V30 3311 N 299.677 6.9502 0.99459 0
M  V30 3312 H 304.517 2.86074 -0.834596 0
M  V30 3313 H 302.054 1.40879 -0.42326 0
M  V30 3314 H 304.012 3.92879 1.40364 0
M  V30 3315 H 302.642 2.8043 1.59871 0
M  V30 3316 H 301.694 3.7518 -0.628052 0
M  V30 3317 H 303.006 4.95101 -0.606347 0
M  V30 3318 H 302.16 5.86131 1.56638 0
M  V30 3319 H 300.899 4.59759 1.62705 0
M  V30 3320 H 299.904 5.47482 -0.50435 0
M  V30 3321 H 301.129 6.76881 -0.548539 0
M  V30 3322 H 299.075 6.34764 1.6556 0
M  V30 3323 H 298.992 7.54892 0.40908 0
M  V30 3324 H 300.26 7.62997 1.59549 0
M  V30 3325 N 304.489 0.459591 1.5075 0
M  V30 3326 C 305.399 -0.34613 2.32033 0
M  V30 3327 C 306.415 -1.00686 1.41909 0
M  V30 3328 O 307.591 -0.997361 1.7497 0
M  V30 3329 C 304.656 -1.42029 3.16273 0
M  V30 3330 C 303.717 -0.777362 4.22203 0
M  V30 3331 C 302.95 -1.80034 5.02418 0
M  V30 3332 O 303.173 -3.02544 4.83553 0
M  V30 3333 O 302.107 -1.37853 5.85901 0
M  V30 3334 H 305.933 0.318054 3.0203 0
M  V30 3335 H 303.518 0.221663 1.47746 0
M  V30 3336 H 305.4 -2.04275 3.68578 0
M  V30 3337 H 304.075 -2.06815 2.49016 0
M  V30 3338 H 302.982 -0.116256 3.73919 0
M  V30 3339 H 304.315 -0.172634 4.91897 0
M  V30 3340 N 305.967 -1.56429 0.191757 0
M  V30 3341 C 307.213 -1.97777 -0.448554 0
M  V30 3342 C 307.546 -1.07847 -1.61501 0
M  V30 3343 O 306.821 -0.129774 -1.94067 0
M  V30 3344 C 307.104 -3.48362 -0.911906 0
M  V30 3345 C 306.957 -4.4907 0.256136 0
M  V30 3346 C 308.276 -4.02561 -1.77857 0
M  V30 3347 H 305.395 -0.719071 -0.161572 0
M  V30 3348 H 308.037 -1.87896 0.282007 0
M  V30 3349 H 306.187 -3.56914 -1.53442 0
M  V30 3350 H 307.859 -4.5256 0.893733 0
M  V30 3351 H 306.102 -4.24181 0.908436 0
M  V30 3352 H 306.773 -5.51889 -0.11053 0
M  V30 3353 H 309.249 -3.96767 -1.25359 0
M  V30 3354 H 308.125 -5.08301 -2.07174 0
M  V30 3355 H 308.386 -3.47616 -2.73158 0
M  V30 3356 N 307.445 0.0818655 -1.57387 0
M  V30 3357 C 308.375 1.09885 -2.06028 0
M  V30 3358 C 309.356 1.4098 -0.951774 0
M  V30 3359 O 310.541 1.50781 -1.22387 0
M  V30 3360 C 307.671 2.4151 -2.4958 0
M  V30 3361 C 306.625 2.24792 -3.64215 0
M  V30 3362 C 305.951 3.61712 -3.93787 0
M  V30 3363 C 307.251 1.67749 -4.94629 0
M  V30 3364 H 308.945 0.694128 -2.91243 0
M  V30 3365 H 306.491 0.332448 -1.4011 0
M  V30 3366 H 308.444 3.12939 -2.82219 0
M  V30 3367 H 307.168 2.83943 -1.61381 0
M  V30 3368 H 305.827 1.55807 -3.31843 0
M  V30 3369 H 305.475 4.01697 -3.02735 0
M  V30 3370 H 305.175 3.51368 -4.70971 0
M  V30 3371 H 306.699 4.34587 -4.28913 0
M  V30 3372 H 308.113 2.29032 -5.25564 0
M  V30 3373 H 306.51 1.68128 -5.76067 0
M  V30 3374 H 307.58 0.638059 -4.80684 0
M  V30 3375 N 308.923 1.53595 0.353017 0
M  V30 3376 C 310.171 1.70049 1.09215 0
M  V30 3377 C 310.492 0.461406 1.89463 0
M  V30 3378 O 309.762 -0.524633 1.88744 0
M  V30 3379 H 308.342 0.626912 0.40619 0
M  V30 3380 H 311.004 1.90822 0.396585 0
M  V30 3381 H 310.1 2.56718 1.77488 0
M  V30 3382 N 310.401 -0.613514 1.45168 0
M  V30 3383 C 311.812 -1.19539 1.43413 0
M  V30 3384 C 312.163 -1.95558 0.158632 0
M  V30 3385 O 311.288 -2.0335 -0.740119 0
M  V30 3386 C 311.883 -2.17445 2.59813 0
M  V30 3387 C 310.442 -2.71022 2.61197 0
M  V30 3388 C 309.589 -1.46323 2.35552 0
M  V30 3389 H 312.54 -0.403163 1.53494 0
M  V30 3390 H 312.561 -3.00373 2.33574 0
M  V30 3391 H 312.073 -1.62089 3.52631 0
M  V30 3392 H 310.174 -3.30332 1.7237 0
M  V30 3393 H 310.287 -3.15859 3.60236 0
M  V30 3394 H 308.651 -1.75072 1.84992 0
M  V30 3395 H 309.434 -0.92844 3.30507 0
M  V30 3396 N 311.879 -1.3236 -0.855495 0
M  V30 3397 C 313.156 -1.13491 -1.59309 0
M  V30 3398 C 313.536 0.30503 -2.08885 0
M  V30 3399 O 312.884 1.30151 -1.87811 0
M  V30 3400 C 313.094 -2.16176 -2.73987 0
M  V30 3401 C 314.442 -2.49463 -3.43589 0
M  V30 3402 O 315.466 -2.14715 -2.84211 0
M  V30 3403 O 314.325 -3.09027 -4.50738 0
M  V30 3404 H 311.419 -0.437887 -0.701559 0
M  V30 3405 H 313.965 -1.43887 -0.899696 0
M  V30 3406 H 312.737 -3.1297 -2.34873 0
M  V30 3407 H 312.36 -1.86769 -3.51003 0
M  V30 3408 N 313.357 1.07166 -1.15556 0
M  V30 3409 C 314.267 2.17947 -0.868116 0
M  V30 3410 C 315.283 1.73297 0.156297 0
M  V30 3411 O 316.459 2.01392 -0.0182327 0
M  V30 3412 C 313.524 3.44789 -0.36355 0
M  V30 3413 C 312.585 4.03996 -1.45209 0
M  V30 3414 C 311.818 5.24783 -0.971508 0
M  V30 3415 O 312.041 5.70109 0.182194 0
M  V30 3416 O 310.975 5.75715 -1.75603 0
M  V30 3417 H 314.801 2.4503 -1.79427 0
M  V30 3418 H 312.386 1.16539 -0.934824 0
M  V30 3419 H 314.268 4.21307 -0.0887113 0
M  V30 3420 H 312.943 3.19253 0.534708 0
M  V30 3421 H 311.85 3.29009 -1.78056 0
M  V30 3422 H 313.183 4.33808 -2.32533 0
M  V30 3423 N 314.835 0.952656 1.25548 0
M  V30 3424 C 316.081 0.607272 1.93494 0
M  V30 3425 C 316.414 -0.853245 1.74452 0
M  V30 3426 O 315.689 -1.61194 1.08843 0
M  V30 3427 C 315.972 0.96435 3.46947 0
M  V30 3428 C 315.825 2.48045 3.75225 0
M  V30 3429 C 317.144 0.487987 4.37386 0
M  V30 3430 H 314.263 0.222096 0.702739 0
M  V30 3431 H 316.905 1.18895 1.48203 0
M  V30 3432 H 315.055 0.469361 3.85654 0
M  V30 3433 H 316.727 3.04905 3.46166 0
M  V30 3434 H 314.97 2.919 3.209 0
M  V30 3435 H 315.641 2.6808 4.82532 0
M  V30 3436 H 318.117 0.912558 4.0597 0
M  V30 3437 H 316.993 0.766547 5.43521 0
M  V30 3438 H 317.254 -0.612063 4.37843 0
M  V30 3439 N 316.313 -1.40141 0.720998 0
M  V30 3440 C 317.243 -2.33339 0.0867621 0
M  V30 3441 C 318.224 -1.53178 -0.739622 0
M  V30 3442 O 319.409 -1.81625 -0.687449 0
M  V30 3443 C 316.539 -3.37194 -0.831728 0
M  V30 3444 C 315.493 -4.27857 -0.110558 0
M  V30 3445 C 314.819 -5.22294 -1.14513 0
M  V30 3446 C 316.119 -5.11872 1.0385 0
M  V30 3447 H 317.813 -2.86626 0.865219 0
M  V30 3448 H 315.359 -1.37814 0.417516 0
M  V30 3449 H 317.312 -4.01335 -1.28485 0
M  V30 3450 H 316.036 -2.82314 -1.64214 0
M  V30 3451 H 314.695 -3.65176 0.322797 0
M  V30 3452 H 314.343 -4.63717 -1.94874 0
M  V30 3453 H 314.043 -5.83797 -0.667446 0
M  V30 3454 H 315.567 -5.89312 -1.59824 0
M  V30 3455 H 316.981 -5.69436 0.664482 0
M  V30 3456 H 315.378 -5.82445 1.4449 0
M  V30 3457 H 316.448 -4.4753 1.86668 0
M  V30 3458 N 317.792 -0.46758 -1.50504 0
M  V30 3459 C 318.722 0.318381 -2.31319 0
M  V30 3460 C 319.703 0.993564 -1.38066 0
M  V30 3461 O 320.888 0.991411 -1.66987 0
M  V30 3462 C 318.018 1.40275 -3.17711 0
M  V30 3463 C 316.972 0.849373 -4.19487 0
M  V30 3464 C 316.298 2.03177 -4.94594 0
M  V30 3465 C 317.598 -0.136942 -5.2212 0
M  V30 3466 H 319.292 -0.356106 -2.97275 0
M  V30 3467 H 316.838 -0.172703 -1.42961 0
M  V30 3468 H 318.791 1.96004 -3.73042 0
M  V30 3469 H 317.515 2.10596 -2.49634 0
M  V30 3470 H 316.174 0.314076 -3.65252 0
M  V30 3471 H 315.822 2.72187 -4.22993 0
M  V30 3472 H 315.522 1.66774 -5.63436 0
M  V30 3473 H 317.046 2.59403 -5.52759 0
M  V30 3474 H 318.46 0.331056 -5.72343 0
M  V30 3475 H 316.857 -0.41507 -5.98663 0
M  V30 3476 H 317.927 -1.06398 -4.73083 0
M  V30 3477 N 319.27 1.56325 -0.20005 0
M  V30 3478 C 320.516 1.98012 0.438059 0
M  V30 3479 C 320.849 1.08702 1.60927 0
M  V30 3480 O 320.124 0.140064 1.93995 0
M  V30 3481 C 320.407 3.48841 0.893419 0
M  V30 3482 C 320.26 4.48928 -0.279947 0
M  V30 3483 C 321.579 4.03498 1.75719 0
M  V30 3484 H 318.698 0.719918 0.157757 0
M  V30 3485 H 321.34 1.87743 -0.291968 0
M  V30 3486 H 319.49 3.57723 1.51547 0
M  V30 3487 H 321.162 4.52079 -0.91772 0
M  V30 3488 H 319.405 4.23694 -0.930919 0
M  V30 3489 H 320.076 5.5194 0.0812601 0
M  V30 3490 H 322.552 3.97427 1.23253 0
M  V30 3491 H 321.428 5.09393 2.04476 0
M  V30 3492 H 321.689 3.4906 2.71311 0
M  V30 3493 N 320.748 -0.0735177 1.57428 0
M  V30 3494 C 321.678 -1.0879 2.06608 0
M  V30 3495 C 322.659 -1.40473 0.959237 0
M  V30 3496 O 323.844 -1.5013 1.23185 0
M  V30 3497 C 320.974 -2.40183 2.50857 0
M  V30 3498 C 319.928 -2.22858 3.65402 0
M  V30 3499 C 319.254 -3.59619 3.957 0
M  V30 3500 C 320.554 -1.65123 4.95511 0
M  V30 3501 H 322.248 -0.678673 2.91607 0
M  V30 3502 H 319.794 -0.325013 1.40284 0
M  V30 3503 H 321.747 -3.11437 2.83874 0
M  V30 3504 H 320.471 -2.83083 1.62885 0
M  V30 3505 H 319.13 -1.54045 3.32664 0
M  V30 3506 H 318.778 -4.00086 3.04861 0
M  V30 3507 H 318.478 -3.48866 4.72828 0
M  V30 3508 H 320.002 -4.32306 4.31212 0
M  V30 3509 H 321.416 -2.26241 5.26771 0
M  V30 3510 H 319.813 -1.65071 5.7695 0
M  V30 3511 H 320.883 -0.612559 4.81015 0
M  V30 3512 N 322.226 -1.5378 -0.344866 0
M  V30 3513 C 323.503 -1.61589 -1.10219 0
M  V30 3514 C 323.883 -0.436316 -2.06542 0
M  V30 3515 O 323.231 0.571543 -2.21237 0
M  V30 3516 C 323.441 -2.97602 -1.82301 0
M  V30 3517 C 324.789 -3.5291 -2.36093 0
M  V30 3518 O 325.813 -2.99768 -1.924 0
M  V30 3519 O 324.672 -4.45859 -3.16026 0
M  V30 3520 H 321.766 -0.653522 -0.506792 0
M  V30 3521 H 324.312 -1.66126 -0.346465 0
M  V30 3522 H 323.084 -3.74893 -1.12121 0
M  V30 3523 H 322.707 -2.9665 -2.64735 0
M  V30 3524 N 323.704 0.605807 -1.45491 0
M  V30 3525 C 324.667 1.69836 -1.5391 0
M  V30 3526 C 325.667 1.55261 -0.418424 0
M  V30 3527 O 326.857 1.60296 -0.681965 0
M  V30 3528 C 323.989 3.09117 -1.43734 0
M  V30 3529 H 325.182 1.63738 -2.51257 0
M  V30 3530 H 322.735 0.821689 -1.32959 0
M  V30 3531 H 323.47 3.20791 -0.475788 0
M  V30 3532 H 323.255 3.21104 -2.25021 0
M  V30 3533 H 324.745 3.88696 -1.52661 0
M  V30 3534 N 325.182 1.32811 0.848464 0
M  V30 3535 C 326.115 1.16601 1.96162 0
M  V30 3536 C 327.093 0.0638855 1.62474 0
M  V30 3537 O 328.277 0.224348 1.8716 0
M  V30 3538 C 325.404 0.786333 3.29446 0
M  V30 3539 C 324.45 1.89459 3.8211 0
M  V30 3540 S 325.283 3.50395 4.04949 0
M  V30 3541 C 326.439 3.14413 5.41198 0
M  V30 3542 H 326.672 2.10832 2.09612 0
M  V30 3543 H 324.205 1.17543 1.00115 0
M  V30 3544 H 326.163 0.574044 4.06466 0
M  V30 3545 H 324.824 -0.137218 3.138 0
M  V30 3546 H 324.017 1.58207 4.78526 0
M  V30 3547 H 323.619 2.06304 3.11953 0
M  V30 3548 H 325.911 2.64642 6.23675 0
M  V30 3549 H 326.854 4.09874 5.77416 0
M  V30 3550 H 327.262 2.51266 5.05495 0
M  V30 3551 N 326.66 -1.06551 1.16123 0
M  V30 3552 C 327.888 -1.83005 0.965237 0
M  V30 3553 C 328.303 -1.82423 -0.486542 0
M  V30 3554 O 327.66 -1.24152 -1.33763 0
M  V30 3555 C 327.711 -3.29733 1.48183 0
M  V30 3556 O 327.432 -3.30416 2.87674 0
M  V30 3557 C 328.933 -4.22926 1.32848 0
M  V30 3558 H 326.153 -0.577118 0.342309 0
M  V30 3559 H 328.697 -1.3445 1.54089 0
M  V30 3560 H 326.852 -3.75609 0.948517 0
M  V30 3561 H 327.266 -4.22149 3.11272 0
M  V30 3562 H 328.74 -5.23916 1.73827 0
M  V30 3563 H 329.217 -4.38346 0.273692 0
M  V30 3564 H 329.823 -3.82894 1.85127 0
M  V30 3565 N 328.138 -0.959301 -1.25041 0
M  V30 3566 C 329.386 -0.615393 -1.92503 0
M  V30 3567 C 329.707 0.850969 -1.75452 0
M  V30 3568 O 328.977 1.60658 -1.12098 0
M  V30 3569 H 327.557 -0.224613 -0.712431 0
M  V30 3570 H 330.219 -1.21855 -1.5211 0
M  V30 3571 H 329.315 -0.848738 -3.00338 0
M  V30 3572 N 329.616 1.39756 -0.72842 0
M  V30 3573 C 330.548 2.29157 -0.0446202 0
M  V30 3574 C 331.561 1.46484 0.710367 0
M  V30 3575 O 332.75 1.69632 0.55562 0
M  V30 3576 C 329.85 3.24987 0.961071 0
M  V30 3577 C 329.023 4.36572 0.268967 0
M  V30 3578 C 328.082 5.12756 1.18184 0
M  V30 3579 O 327.108 5.6534 0.661794 0
M  V30 3580 N 328.31 5.23331 2.51206 0
M  V30 3581 H 331.075 2.88482 -0.812295 0
M  V30 3582 H 328.636 1.51265 -0.577098 0
M  V30 3583 H 330.628 3.72827 1.57423 0
M  V30 3584 H 329.198 2.66739 1.63 0
M  V30 3585 H 328.418 3.90694 -0.524574 0
M  V30 3586 H 329.706 5.08363 -0.210934 0
M  V30 3587 H 329.104 4.82116 2.9594 0
M  V30 3588 H 327.661 5.74634 3.07634 0
M  V30 3589 N 331.094 0.475555 1.50254 0
M  V30 3590 C 332.004 -0.321501 2.32387 0
M  V30 3591 C 333.02 -0.991755 1.42969 0
M  V30 3592 O 334.196 -0.978747 1.76018 0
M  V30 3593 C 331.261 -1.38667 3.17762 0
M  V30 3594 C 330.322 -0.732538 4.23004 0
M  V30 3595 C 329.555 -1.74695 5.04299 0
M  V30 3596 O 329.778 -2.97399 4.86734 0
M  V30 3597 O 328.712 -1.31631 5.8733 0
M  V30 3598 H 332.538 0.350071 3.01676 0
M  V30 3599 H 330.123 0.237321 1.47503 0
M  V30 3600 H 332.005 -2.00354 3.70724 0
M  V30 3601 H 330.68 -2.04163 2.51196 0
M  V30 3602 H 329.587 -0.0765902 3.74022 0
M  V30 3603 H 330.92 -0.120452 4.92053 0
M  V30 3604 N 332.573 -1.56217 0.208337 0
M  V30 3605 C 333.536 -2.18455 -0.693557 0
M  V30 3606 C 334.536 -1.14268 -1.13135 0
M  V30 3607 O 335.726 -1.39577 -1.0423 0
M  V30 3608 C 332.858 -2.79727 -1.94848 0
M  V30 3609 H 334.051 -2.99519 -0.15114 0
M  V30 3610 H 331.604 -1.56245 -0.041287 0
M  V30 3611 H 332.339 -2.02497 -2.53309 0
M  V30 3612 H 332.124 -3.56009 -1.64316 0
M  V30 3613 H 333.614 -3.27475 -2.59133 0
M  V30 3614 N 334.051 0.0651679 -1.57465 0
M  V30 3615 C 334.981 1.07693 -2.07182 0
M  V30 3616 C 335.962 1.39962 -0.966673 0
M  V30 3617 O 337.147 1.49475 -1.2398 0
M  V30 3618 C 334.277 2.3885 -2.52127 0
M  V30 3619 C 333.231 2.20917 -3.66579 0
M  V30 3620 C 332.557 3.57515 -3.97601 0
M  V30 3621 C 333.857 1.62493 -4.9638 0
M  V30 3622 H 335.551 0.663199 -2.91962 0
M  V30 3623 H 333.097 0.317569 -1.40455 0
M  V30 3624 H 335.05 3.09928 -2.85522 0
M  V30 3625 H 333.774 2.82215 -1.64384 0
M  V30 3626 H 332.433 1.52279 -3.33477 0
M  V30 3627 H 332.081 3.98463 -3.06979 0
M  V30 3628 H 331.781 3.46353 -4.74672 0
M  V30 3629 H 333.305 4.30013 -4.33499 0
M  V30 3630 H 334.719 2.23445 -5.27963 0
M  V30 3631 H 333.116 1.62009 -5.77818 0
M  V30 3632 H 334.186 0.587041 -4.81333 0
M  V30 3633 N 335.529 1.53961 0.336706 0
M  V30 3634 C 336.754 1.75797 1.10046 0
M  V30 3635 C 337.179 0.498985 1.81361 0
M  V30 3636 O 336.537 -0.548769 1.72795 0
M  V30 3637 C 336.585 2.94257 2.08436 0
M  V30 3638 O 335.689 2.64883 3.16087 0
M  V30 3639 H 335.03 0.582936 0.317934 0
M  V30 3640 H 337.56 2.00945 0.38501 0
M  V30 3641 H 337.57 3.21237 2.51537 0
M  V30 3642 H 336.245 3.85564 1.55927 0
M  V30 3643 H 334.822 2.48812 2.77753 0
M  V30 3644 N 337.007 -0.598083 1.45811 0
M  V30 3645 C 338.253 -1.35882 1.50545 0
M  V30 3646 C 338.586 -1.93616 0.150445 0
M  V30 3647 O 337.861 -1.75604 -0.83628 0
M  V30 3648 C 338.144 -2.49966 2.59208 0
M  V30 3649 C 337.997 -1.97367 4.04186 0
M  V30 3650 C 339.316 -3.52068 2.64076 0
M  V30 3651 H 336.435 -0.492717 0.548087 0
M  V30 3652 H 339.077 -0.673319 1.77669 0
M  V30 3653 H 337.227 -3.08443 2.3621 0
M  V30 3654 H 338.899 -1.43466 4.38423 0
M  V30 3655 H 337.142 -1.283 4.14393 0
M  V30 3656 H 337.813 -2.79649 4.75921 0
M  V30 3657 H 340.289 -3.03448 2.84708 0
M  V30 3658 H 339.165 -4.2937 3.41954 0
M  V30 3659 H 339.426 -4.08304 1.69531 0
M  V30 3660 N 338.485 -1.33259 -0.841409 0
M  V30 3661 C 339.448 -1.23221 -1.9326 0
M  V30 3662 C 340.448 -0.151895 -1.60081 0
M  V30 3663 O 341.638 -0.403246 -1.69468 0
M  V30 3664 C 338.77 -0.898123 -3.28856 0
M  V30 3665 H 339.963 -2.2021 -2.03587 0
M  V30 3666 H 337.516 -1.17281 -1.03319 0
M  V30 3667 H 338.251 0.0693841 -3.24226 0
M  V30 3668 H 338.036 -1.67934 -3.54317 0
M  V30 3669 H 339.526 -0.852563 -4.08805 0
M  V30 3670 N 339.963 1.05934 -1.16686 0
M  V30 3671 C 341.379 1.30938 -0.912542 0
M  V30 3672 C 341.579 1.96803 0.432533 0
M  V30 3673 O 340.635 2.23693 1.17123 0
M  V30 3674 C 341.948 2.18649 -2.06429 0
M  V30 3675 C 343.496 2.32055 -2.10047 0
M  V30 3676 C 343.971 3.23122 -3.24586 0
M  V30 3677 N 345.462 3.30706 -3.24327 0
M  V30 3678 C 346.197 4.01273 -4.09594 0
M  V30 3679 N 345.693 4.74332 -5.04956 0
M  V30 3680 N 347.486 3.97361 -3.97569 0
M  V30 3681 H 339.637 0.615777 -2.03278 0
M  V30 3682 H 341.9 0.334077 -0.887185 0
M  V30 3683 H 341.606 1.77534 -3.03603 0
M  V30 3684 H 341.48 3.19252 -2.00894 0
M  V30 3685 H 343.867 2.72415 -1.13464 0
M  V30 3686 H 343.948 1.31107 -2.19647 0
M  V30 3687 H 343.592 2.83477 -4.2143 0
M  V30 3688 H 343.522 4.24057 -3.12223 0
M  V30 3689 H 346.013 2.78644 -2.55276 0
M  V30 3690 H 346.326 5.25716 -5.6643 0
M  V30 3691 H 344.671 4.733 -5.08933 0
M  V30 3692 H 347.862 3.39405 -3.22369 0
M  V30 3693 H 348.035 4.52089 -4.64241 0
M  V30 3694 N 341.441 0.965919 1.2453 0
M  V30 3695 C 342.404 0.499547 2.2369 0
M  V30 3696 C 343.404 -0.40294 1.5567 0
M  V30 3697 O 344.594 -0.19865 1.73064 0
M  V30 3698 C 341.726 -0.276792 3.39774 0
M  V30 3699 H 342.919 1.37613 2.66463 0
M  V30 3700 H 340.472 0.750324 1.37112 0
M  V30 3701 H 341.207 -1.17055 3.02438 0
M  V30 3702 H 340.992 0.370826 3.90343 0
M  V30 3703 H 342.482 -0.592175 4.1338 0
M  V30 3704 N 342.919 -1.39368 0.735821 0
M  V30 3705 C 344.166 -2.00497 0.284123 0
M  V30 3706 C 344.494 -1.58387 -1.12889 0
M  V30 3707 O 343.749 -0.804359 -1.78406 0
M  V30 3708 C 344.048 -3.5583 0.334651 0
M  V30 3709 C 343.714 -4.17593 1.7008 0
M  V30 3710 C 342.376 -4.34176 2.07472 0
M  V30 3711 C 344.728 -4.51848 2.59775 0
M  V30 3712 C 342.056 -4.82304 3.34065 0
M  V30 3713 C 344.408 -5.01384 3.85741 0
M  V30 3714 C 343.072 -5.16175 4.23225 0
M  V30 3715 H 342.342 -0.73367 0.103968 0
M  V30 3716 H 344.989 -1.66683 0.942825 0
M  V30 3717 H 343.294 -3.89674 -0.407625 0
M  V30 3718 H 344.991 -4.00986 -0.0329927 0
M  V30 3719 H 341.581 -4.05087 1.40008 0
M  V30 3720 H 345.765 -4.38653 2.32157 0
M  V30 3721 H 341.021 -4.91941 3.63049 0
M  V30 3722 H 345.195 -5.26863 4.55399 0
M  V30 3723 H 342.822 -5.5323 5.21384 0
M  V30 3724 N 344.397 -0.483516 -1.5 0
M  V30 3725 C 345.674 0.129337 -1.95172 0
M  V30 3726 C 346.054 1.55802 -1.4244 0
M  V30 3727 O 345.402 2.19625 -0.630649 0
M  V30 3728 C 345.612 0.0599251 -3.48949 0
M  V30 3729 C 346.96 0.242617 -4.23906 0
M  V30 3730 O 347.984 0.135933 -3.55941 0
M  V30 3731 O 346.843 0.459454 -5.44565 0
M  V30 3732 H 343.937 0.104887 -0.820322 0
M  V30 3733 H 346.483 -0.544807 -1.60717 0
M  V30 3734 H 345.255 -0.937079 -3.79914 0
M  V30 3735 H 344.878 0.774984 -3.89974 0
M  V30 3736 N 345.875 1.56104 -0.216619 0
M  V30 3737 C 346.785 2.23694 0.706982 0
M  V30 3738 C 347.801 1.24295 1.21765 0
M  V30 3739 O 348.977 1.57094 1.2603 0
M  V30 3740 C 346.042 2.8998 1.90033 0
M  V30 3741 C 345.103 4.04708 1.43213 0
M  V30 3742 C 344.336 4.67824 2.56859 0
M  V30 3743 O 344.559 4.29913 3.74874 0
M  V30 3744 O 343.493 5.56905 2.28343 0
M  V30 3745 H 347.319 3.03272 0.161235 0
M  V30 3746 H 344.904 1.49394 0.0136177 0
M  V30 3747 H 346.786 3.31837 2.59735 0
M  V30 3748 H 345.461 2.13365 2.43428 0
M  V30 3749 H 344.368 3.6743 0.70327 0
M  V30 3750 H 345.701 4.83051 0.944615 0
M  V30 3751 N 347.353 -0.0568162 1.57498 0
M  V30 3752 C 348.3 -1.06591 2.04712 0
M  V30 3753 C 349.27 -1.3758 0.930644 0
M  V30 3754 O 350.455 -1.48392 1.19935 0
M  V30 3755 C 347.595 -2.3701 2.50839 0
M  V30 3756 C 346.708 -2.12421 3.76167 0
M  V30 3757 C 345.843 -3.36511 4.11015 0
M  V30 3758 C 344.882 -3.07353 5.2934 0
M  V30 3759 N 344.019 -4.23816 5.59754 0
M  V30 3760 H 348.859 -0.65631 2.90683 0
M  V30 3761 H 346.396 -0.312481 1.43743 0
M  V30 3762 H 348.354 -3.13175 2.7564 0
M  V30 3763 H 346.984 -2.75744 1.67825 0
M  V30 3764 H 346.036 -1.2688 3.58616 0
M  V30 3765 H 347.348 -1.86894 4.62463 0
M  V30 3766 H 346.502 -4.21062 4.36797 0
M  V30 3767 H 345.241 -3.65128 3.23315 0
M  V30 3768 H 344.246 -2.212 5.03339 0
M  V30 3769 H 345.471 -2.80043 6.1867 0
M  V30 3770 H 343.417 -4.52436 4.75014 0
M  V30 3771 H 343.334 -4.01614 6.40501 0
M  V30 3772 H 344.602 -5.0932 5.90096 0
M  V30 3773 N 348.832 -1.54138 -0.328536 0
M  V30 3774 C 350.078 -1.7236 -1.06865 0
M  V30 3775 C 350.411 -0.493231 -1.87832 0
M  V30 3776 O 349.686 0.5098 -1.877 0
M  V30 3777 C 349.969 -2.99621 -1.99747 0
M  V30 3778 C 349.822 -4.32899 -1.22143 0
M  V30 3779 C 351.141 -3.22615 -2.99345 0
M  V30 3780 H 348.26 -0.627151 -0.387105 0
M  V30 3781 H 350.902 -1.86827 -0.345767 0
M  V30 3782 H 349.052 -2.87418 -2.61387 0
M  V30 3783 H 350.724 -4.56978 -0.630017 0
M  V30 3784 H 348.967 -4.30628 -0.523628 0
M  V30 3785 H 349.638 -5.18154 -1.90318 0
M  V30 3786 H 352.114 -3.34248 -2.47826 0
M  V30 3787 H 350.99 -4.13027 -3.61524 0
M  V30 3788 H 351.251 -2.3961 -3.71536 0
M  V30 3789 N 350.31 0.590341 -1.46126 0
M  V30 3790 C 351.558 1.34616 -1.50742 0
M  V30 3791 C 351.879 1.94363 -0.157486 0
M  V30 3792 O 351.149 1.78136 0.815136 0
M  V30 3793 H 349.729 0.499789 -0.555175 0
M  V30 3794 H 352.391 0.691953 -1.82203 0
M  V30 3795 H 351.487 2.15678 -2.25587 0
M  V30 3796 N 351.788 1.33704 0.83433 0
M  V30 3797 C 353.034 1.25603 1.59222 0
M  V30 3798 C 353.367 -0.176659 1.93395 0
M  V30 3799 O 352.642 -1.11915 1.59076 0
M  V30 3800 C 352.925 2.13576 2.89926 0
M  V30 3801 C 352.778 3.65326 2.62406 0
M  V30 3802 C 354.097 2.01238 3.91397 0
M  V30 3803 H 351.216 0.457613 0.577719 0
M  V30 3804 H 353.858 1.63848 0.961972 0
M  V30 3805 H 352.008 1.8109 3.43713 0
M  V30 3806 H 353.68 4.08124 2.15017 0
M  V30 3807 H 351.923 3.8698 1.96033 0
M  V30 3808 H 352.594 4.22232 3.55562 0
M  V30 3809 H 355.07 2.29738 3.46929 0
M  V30 3810 H 353.946 2.65036 4.80673 0
M  V30 3811 H 354.207 0.985951 4.30966 0
M  V30 3812 N 353.266 -1.05314 1.17247 0
M  V30 3813 C 354.494 -1.81971 0.984593 0
M  V30 3814 C 354.909 -1.82929 -0.467166 0
M  V30 3815 O 354.266 -1.25564 -1.32438 0
M  V30 3816 C 354.317 -3.28143 1.51672 0
M  V30 3817 O 354.038 -3.27347 2.91163 0
M  V30 3818 C 355.539 -4.21493 1.37326 0
M  V30 3819 H 352.759 -0.573455 0.348411 0
M  V30 3820 H 355.303 -1.32808 1.55506 0
M  V30 3821 H 353.458 -3.74582 0.988302 0
M  V30 3822 H 353.872 -4.18824 3.15732 0
M  V30 3823 H 355.346 -5.22043 1.79375 0
M  V30 3824 H 355.823 -4.38031 0.320169 0
M  V30 3825 H 356.429 -3.80909 1.89178 0
M  V30 3826 N 354.744 -0.972509 -1.24016 0
M  V30 3827 C 355.992 -0.635776 -1.91839 0
M  V30 3828 C 356.313 0.832312 -1.76345 0
M  V30 3829 O 355.583 1.5946 -1.13795 0
M  V30 3830 H 354.163 -0.232157 -0.710009 0
M  V30 3831 H 356.825 -1.23462 -1.50809 0
M  V30 3832 H 355.921 -0.880545 -2.99421 0
M  V30 3833 N 356.222 1.38976 -0.743202 0
M  V30 3834 C 357.152 2.33171 -0.123873 0
M  V30 3835 C 358.133 1.54336 0.71516 0
M  V30 3836 O 359.318 1.82696 0.658467 0
M  V30 3837 C 356.448 3.38474 0.777978 0
M  V30 3838 C 355.402 4.27979 0.0424758 0
M  V30 3839 C 354.728 5.2405 1.06189 0
M  V30 3840 C 356.028 5.10155 -1.1198 0
M  V30 3841 H 357.722 2.85213 -0.910709 0
M  V30 3842 H 355.268 1.37133 -0.439388 0
M  V30 3843 H 357.221 4.03328 1.22084 0
M  V30 3844 H 355.945 2.84891 1.59702 0
M  V30 3845 H 354.604 3.64616 -0.380853 0
M  V30 3846 H 354.252 4.66758 1.87472 0
M  V30 3847 H 353.952 5.84785 0.574485 0
M  V30 3848 H 355.476 5.9178 1.50428 0
M  V30 3849 H 356.89 5.68307 -0.75499 0
M  V30 3850 H 355.287 5.80073 -1.53738 0
M  V30 3851 H 356.357 4.44504 -1.93764 0
M  V30 3852 N 357.7 0.491464 1.49741 0
M  V30 3853 C 358.946 -0.0565092 2.02721 0
M  V30 3854 C 359.279 -1.37522 1.37118 0
M  V30 3855 O 358.554 -1.87866 0.503645 0
M  V30 3856 C 358.837 -0.219051 3.59433 0
M  V30 3857 C 358.69 1.12211 4.35579 0
M  V30 3858 C 360.009 -0.964157 4.29409 0
M  V30 3859 H 357.128 -0.0190627 0.736753 0
M  V30 3860 H 359.77 0.641021 1.7886 0
M  V30 3861 H 357.92 -0.813165 3.79895 0
M  V30 3862 H 359.592 1.75437 4.26637 0
M  V30 3863 H 357.835 1.71377 3.98513 0
M  V30 3864 H 358.506 0.961794 5.43556 0
M  V30 3865 H 360.982 -0.460378 4.13545 0
M  V30 3866 H 359.858 -1.04671 5.38828 0
M  V30 3867 H 360.119 -2.00563 3.93988 0
M  V30 3868 N 359.178 -1.55987 0.224894 0
M  V30 3869 C 360.108 -2.23426 -0.678457 0
M  V30 3870 C 361.089 -1.20709 -1.19847 0
M  V30 3871 O 362.274 -1.49304 -1.24186 0
M  V30 3872 C 359.404 -2.91676 -1.88527 0
M  V30 3873 C 358.358 -4.00893 -1.49896 0
M  V30 3874 C 357.684 -4.56455 -2.78483 0
M  V30 3875 C 358.984 -5.17769 -0.686461 0
M  V30 3876 H 360.678 -2.99175 -0.116173 0
M  V30 3877 H 358.224 -1.43897 -0.054436 0
M  V30 3878 H 360.177 -3.37547 -2.5227 0
M  V30 3879 H 358.901 -2.1338 -2.47258 0
M  V30 3880 H 357.56 -3.55758 -0.884985 0
M  V30 3881 H 357.208 -3.74886 -3.35365 0
M  V30 3882 H 356.908 -5.30169 -2.53368 0
M  V30 3883 H 358.432 -5.05047 -3.43162 0
M  V30 3884 H 359.846 -5.60001 -1.22767 0
M  V30 3885 H 358.243 -5.97735 -0.532259 0
M  V30 3886 H 359.313 -4.83932 0.306196 0
M  V30 3887 N 360.656 0.0484629 -1.57525 0
M  V30 3888 C 361.884 0.755421 -1.92616 0
M  V30 3889 C 362.299 1.69919 -0.822984 0
M  V30 3890 O 361.656 1.81378 0.202085 0
M  V30 3891 C 361.707 1.52915 -3.27566 0
M  V30 3892 O 361.428 0.62329 -4.33644 0
M  V30 3893 C 362.929 2.33502 -3.76818 0
M  V30 3894 H 360.149 0.213465 -0.63614 0
M  V30 3895 H 362.693 0.0117698 -2.04497 0
M  V30 3896 H 360.848 2.22486 -3.17142 0
M  V30 3897 H 361.262 1.16383 -5.11425 0
M  V30 3898 H 362.736 2.83214 -4.73808 0
M  V30 3899 H 363.213 3.14068 -3.07014 0
M  V30 3900 H 363.819 1.69043 -3.90262 0
M  V30 3901 N 362.134 1.5431 0.320358 0
M  V30 3902 C 363.081 1.83918 1.39438 0
M  V30 3903 C 364.051 0.686525 1.51248 0
M  V30 3904 O 365.236 0.933269 1.66417 0
M  V30 3905 C 362.376 2.075 2.75749 0
M  V30 3906 C 361.489 3.35177 2.72544 0
M  V30 3907 C 360.624 3.48704 4.00723 0
M  V30 3908 C 359.663 4.70244 3.91838 0
M  V30 3909 N 358.8 4.80679 5.11754 0
M  V30 3910 H 363.64 2.75544 1.13489 0
M  V30 3911 H 361.177 1.36459 0.549309 0
M  V30 3912 H 363.135 2.19166 3.54996 0
M  V30 3913 H 361.765 1.19163 3 0
M  V30 3914 H 360.817 3.32233 1.85271 0
M  V30 3915 H 362.129 4.24534 2.61863 0
M  V30 3916 H 361.283 3.59928 4.88402 0
M  V30 3917 H 360.022 2.57445 4.14214 0
M  V30 3918 H 359.027 4.59072 3.02544 0
M  V30 3919 H 360.252 5.6289 3.7991 0
M  V30 3920 H 358.198 3.92337 5.25745 0
M  V30 3921 H 358.115 5.64007 5.0342 0
M  V30 3922 H 359.383 4.96239 6.01138 0
M  V30 3923 N 363.613 -0.582584 1.46437 0
M  V30 3924 C 364.543 -1.70187 1.59871 0
M  V30 3925 C 365.524 -1.64066 0.449042 0
M  V30 3926 O 366.709 -1.82081 0.6753 0
M  V30 3927 C 363.839 -3.08827 1.58881 0
M  V30 3928 C 362.793 -3.29779 2.72819 0
M  V30 3929 C 362.119 -4.68947 2.5689 0
M  V30 3930 C 363.419 -3.17601 4.1464 0
M  V30 3931 H 365.113 -1.592 2.53566 0
M  V30 3932 H 362.659 -0.764472 1.22032 0
M  V30 3933 H 364.612 -3.86951 1.66873 0
M  V30 3934 H 363.336 -3.20713 0.617306 0
M  V30 3935 H 361.995 -2.54054 2.64296 0
M  V30 3936 H 361.643 -4.77599 1.57823 0
M  V30 3937 H 361.343 -4.83919 3.33312 0
M  V30 3938 H 362.867 -5.4924 2.66773 0
M  V30 3939 H 364.281 -3.8557 4.24274 0
M  V30 3940 H 362.678 -3.44094 4.9165 0
M  V30 3941 H 363.748 -2.14681 4.34788 0
M  V30 3942 N 365.091 -1.34144 -0.827227 0
M  V30 3943 C 366.368 -1.16844 -1.56865 0
M  V30 3944 C 366.748 0.260654 -2.09485 0
M  V30 3945 O 366.096 1.26138 -1.9053 0
M  V30 3946 C 366.306 -2.21939 -2.6934 0
M  V30 3947 C 367.654 -2.56695 -3.3822 0
M  V30 3948 O 368.678 -2.20695 -2.79593 0
M  V30 3949 O 367.537 -3.18518 -4.44082 0
M  V30 3950 H 364.631 -0.452669 -0.692112 0
M  V30 3951 H 367.177 -1.45763 -0.868973 0
M  V30 3952 H 365.949 -3.17882 -2.28182 0
M  V30 3953 H 365.572 -1.94172 -3.46962 0
M  V30 3954 N 366.569 1.04691 -1.17803 0
M  V30 3955 C 367.817 1.7743 -0.967617 0
M  V30 3956 C 368.138 1.88359 0.504574 0
M  V30 3957 O 367.408 1.40402 1.36617 0
M  V30 3958 H 365.988 0.657242 -0.355024 0
M  V30 3959 H 368.65 1.2638 -1.48371 0
M  V30 3960 H 367.746 2.78924 -1.40027 0
M  V30 3961 N 368.047 0.979072 1.23499 0
M  V30 3962 C 369.324 0.563674 1.87302 0
M  V30 3963 C 369.704 -0.959199 1.88049 0
M  V30 3964 O 369.052 -1.83535 1.36114 0
M  V30 3965 C 369.262 1.16822 3.28867 0
M  V30 3966 C 370.61 1.26014 4.0547 0
M  V30 3967 O 371.634 1.12158 3.38082 0
M  V30 3968 O 370.493 1.48044 5.26066 0
M  V30 3969 H 367.587 0.189602 0.804972 0
M  V30 3970 H 370.133 1.07407 1.31384 0
M  V30 3971 H 368.905 2.21049 3.22883 0
M  V30 3972 H 368.528 0.642564 3.92373 0
M  V30 3973 N 369.525 -1.3858 0.750561 0
M  V30 3974 C 370.488 -2.28836 0.129152 0
M  V30 3975 C 371.488 -1.47045 -0.650714 0
M  V30 3976 O 372.678 -1.6753 -0.477428 0
M  V30 3977 C 369.81 -3.30751 -0.825622 0
M  V30 3978 H 371.003 -2.85294 0.924516 0
M  V30 3979 H 368.556 -1.47489 0.517376 0
M  V30 3980 H 369.291 -2.79378 -1.64677 0
M  V30 3981 H 369.076 -3.91177 -0.268852 0
M  V30 3982 H 370.566 -3.98249 -1.2565 0
M  V30 3983 N 371.003 -0.499398 -1.49478 0
M  V30 3984 C 372.419 -0.155261 -1.58843 0
M  V30 3985 C 372.619 1.34008 -1.50479 0
M  V30 3986 O 371.675 2.11589 -1.37791 0
M  V30 3987 C 372.988 -0.730636 -2.91689 0
M  V30 3988 C 374.536 -0.696599 -3.0515 0
M  V30 3989 C 375.011 -1.25001 -4.40612 0
M  V30 3990 N 376.502 -1.21064 -4.47099 0
M  V30 3991 C 377.237 -1.60905 -5.50361 0
M  V30 3992 N 376.733 -2.08331 -6.60735 0
M  V30 3993 N 378.526 -1.52331 -5.41065 0
M  V30 3994 H 370.677 -1.47162 -1.53158 0
M  V30 3995 H 372.94 -0.610309 -0.725415 0
M  V30 3996 H 372.646 -1.77928 -3.03372 0
M  V30 3997 H 372.52 -0.190161 -3.7672 0
M  V30 3998 H 374.907 0.343204 -2.93097 0
M  V30 3999 H 374.988 -1.2742 -2.21806 0
M  V30 4000 H 374.632 -2.28859 -4.53416 0
M  V30 4001 H 374.562 -0.64836 -5.22593 0
M  V30 4002 H 377.053 -0.863128 -3.67911 0
M  V30 4003 H 377.366 -2.36805 -7.35624 0
M  V30 4004 H 375.711 -2.12304 -6.6178 0
M  V30 4005 H 378.902 -1.151 -4.53729 0
M  V30 4006 H 379.075 -1.83704 -6.21415 0
M  V30 4007 N 372.481 1.55866 -0.233164 0
M  V30 4008 C 373.729 1.9821 0.394593 0
M  V30 4009 C 374.05 1.12234 1.59463 0
M  V30 4010 O 373.32 0.201981 1.94856 0
M  V30 4011 H 371.9 0.732034 0.148778 0
M  V30 4012 H 374.562 1.92107 -0.32876 0
M  V30 4013 H 373.658 3.03845 0.713063 0
M  V30 4014 N 373.959 -0.0401083 1.57549 0
M  V30 4015 C 375.207 -0.731677 1.8839 0
M  V30 4016 C 375.528 -1.76481 0.829425 0
M  V30 4017 O 374.798 -1.95411 -0.1383 0
M  V30 4018 H 373.378 -0.273225 0.695239 0
M  V30 4019 H 376.04 -0.00867725 1.94898 0
M  V30 4020 H 375.136 -1.22816 2.86919 0
M  V30 4021 N 375.437 -1.54477 -0.31217 0
M  V30 4022 C 376.4 -1.83923 -1.36766 0
M  V30 4023 C 377.4 -0.711563 -1.44199 0
M  V30 4024 O 378.59 -0.979866 -1.44029 0
M  V30 4025 C 375.722 -2.0095 -2.75376 0
M  V30 4026 H 376.915 -2.78239 -1.11906 0
M  V30 4027 H 374.468 -1.46369 -0.548257 0
M  V30 4028 H 375.203 -1.08883 -3.05475 0
M  V30 4029 H 374.988 -2.83018 -2.71373 0
M  V30 4030 H 376.478 -2.2514 -3.51713 0
M  V30 4031 N 376.915 0.57481 -1.46744 0
M  V30 4032 C 377.878 1.66533 -1.57478 0
M  V30 4033 C 378.878 1.54338 -0.451263 0
M  V30 4034 O 380.068 1.58814 -0.715813 0
M  V30 4035 C 377.2 3.05999 -1.50259 0
M  V30 4036 H 378.393 1.58372 -2.54673 0
M  V30 4037 H 375.946 0.793301 -1.34672 0
M  V30 4038 H 376.681 3.19709 -0.543725 0
M  V30 4039 H 376.466 3.16259 -2.31781 0
M  V30 4040 H 377.956 3.8537 -1.60872 0
M  V30 4041 N 378.394 1.34581 0.820102 0
M  V30 4042 C 379.324 1.29038 1.94606 0
M  V30 4043 C 380.305 0.1673 1.69275 0
M  V30 4044 O 381.49 0.360112 1.90832 0
M  V30 4045 C 378.62 1.04793 3.31113 0
M  V30 4046 C 377.574 2.13597 3.70891 0
M  V30 4047 C 376.9 1.74537 5.05412 0
M  V30 4048 C 378.2 3.55451 3.8269 0
M  V30 4049 H 379.894 2.23248 1.99501 0
M  V30 4050 H 377.44 1.0747 0.958449 0
M  V30 4051 H 379.393 0.995592 4.0947 0
M  V30 4052 H 378.117 0.0702565 3.26524 0
M  V30 4053 H 376.776 2.17905 2.9481 0
M  V30 4054 H 376.424 0.754226 4.97313 0
M  V30 4055 H 376.124 2.47361 5.32997 0
M  V30 4056 H 377.648 1.70803 5.86224 0
M  V30 4057 H 379.062 3.5354 4.51312 0
M  V30 4058 H 377.459 4.26922 4.21732 0
M  V30 4059 H 378.529 3.92587 2.84611 0
M  V30 4060 N 379.872 -1.04064 1.18357 0
M  V30 4061 C 381.097 -1.81454 1.00445 0
M  V30 4062 C 381.522 -1.82823 -0.442423 0
M  V30 4063 O 380.88 -1.24555 -1.31741 0
M  V30 4064 C 380.928 -3.24925 1.56384 0
M  V30 4065 O 380.032 -4.04856 0.785209 0
M  V30 4066 H 379.373 -0.560604 0.355835 0
M  V30 4067 H 381.903 -1.31059 1.57114 0
M  V30 4068 H 381.913 -3.75702 1.59097 0
M  V30 4069 H 380.588 -3.23244 2.61699 0
M  V30 4070 H 379.165 -3.63537 0.830399 0
M  V30 4071 N 381.35 -0.985608 -1.22978 0
M  V30 4072 C 382.313 -0.535071 -2.22867 0
M  V30 4073 C 383.313 0.378123 -1.56291 0
M  V30 4074 O 384.503 0.171092 -1.73358 0
M  V30 4075 C 381.635 0.222702 -3.40172 0
M  V30 4076 H 382.828 -1.41835 -2.6424 0
M  V30 4077 H 380.381 -0.772042 -1.35901 0
M  V30 4078 H 381.116 1.12229 -3.04262 0
M  V30 4079 H 380.901 -0.43288 -3.89703 0
M  V30 4080 H 382.391 0.526335 -4.1427 0
M  V30 4081 N 382.828 1.3818 -0.7579 0
M  V30 4082 C 384.244 1.5353 -0.435972 0
M  V30 4083 C 384.444 1.71961 1.05032 0
M  V30 4084 O 383.5 1.73307 1.83633 0
M  V30 4085 C 384.813 2.73989 -1.23898 0
M  V30 4086 C 386.361 2.87841 -1.22949 0
M  V30 4087 C 386.836 4.11266 -2.01554 0
M  V30 4088 N 388.327 4.18352 -1.98837 0
M  V30 4089 C 389.062 5.12856 -2.5645 0
M  V30 4090 N 388.558 6.13005 -3.22794 0
M  V30 4091 N 390.351 5.05238 -2.46356 0
M  V30 4092 H 382.502 1.24467 -1.7211 0
M  V30 4093 H 384.765 0.604982 -0.729864 0
M  V30 4094 H 384.471 2.66789 -2.29165 0
M  V30 4095 H 384.345 3.67294 -0.858764 0
M  V30 4096 H 386.732 2.9452 -0.184854 0
M  V30 4097 H 386.813 1.95534 -1.64924 0
M  V30 4098 H 386.457 4.05349 -3.06031 0
M  V30 4099 H 386.387 5.02661 -1.5697 0
M  V30 4100 H 388.878 3.46628 -1.50524 0
M  V30 4101 H 389.191 6.81619 -3.64165 0
M  V30 4102 H 387.536 6.13325 -3.2689 0
M  V30 4103 H 390.727 4.25938 -1.9415 0
M  V30 4104 H 390.9 5.78707 -2.91552 0
M  V30 4105 N 384.306 0.507319 1.49211 0
M  V30 4106 C 385.256 -0.287112 2.26185 0
M  V30 4107 C 386.24 -0.929983 1.31302 0
M  V30 4108 O 387.432 -0.836538 1.55984 0
M  V30 4109 C 384.561 -1.34718 3.15763 0
M  V30 4110 C 383.647 -0.710235 4.18111 0
M  V30 4111 N 384.038 0.190836 5.0544 0
M  V30 4112 C 382.336 -0.97009 4.35322 0
M  V30 4113 C 383.037 0.55606 5.79036 0
M  V30 4114 N 382.013 -0.0775232 5.43545 0
M  V30 4115 H 385.815 0.406445 2.91076 0
M  V30 4116 H 383.329 0.323814 1.59139 0
M  V30 4117 H 385.326 -1.92982 3.69545 0
M  V30 4118 H 383.986 -2.04235 2.52424 0
M  V30 4119 H 384.997 0.562047 5.14841 0
M  V30 4120 H 381.674 -1.65753 3.83187 0
M  V30 4121 H 383.064 1.2936 6.5933 0
M  V30 4122 N 385.784 -1.5574 0.241426 0
M  V30 4123 C 387.03 -1.99104 -0.385406 0
M  V30 4124 C 387.363 -1.1293 -1.57988 0
M  V30 4125 O 386.638 -0.191449 -1.93555 0
M  V30 4126 C 386.921 -3.51087 -0.800616 0
M  V30 4127 C 386.774 -4.48028 0.398874 0
M  V30 4128 C 388.093 -4.08015 -1.64959 0
M  V30 4129 H 385.212 -0.723848 -0.138614 0
M  V30 4130 H 387.854 -1.86903 0.341642 0
M  V30 4131 H 386.004 -3.61615 -1.4201 0
M  V30 4132 H 387.676 -4.49487 1.03726 0
M  V30 4133 H 385.919 -4.21077 1.04293 0
M  V30 4134 H 386.59 -5.51962 0.0651056 0
M  V30 4135 H 389.066 -4.00555 -1.12672 0
M  V30 4136 H 387.942 -5.14635 -1.90898 0
M  V30 4137 H 388.203 -3.56131 -2.61961 0
M  V30 4138 N 387.262 0.0317525 -1.57568 0
M  V30 4139 C 388.49 0.734949 -1.93407 0
M  V30 4140 C 388.905 1.69036 -0.84096 0
M  V30 4141 O 388.262 1.81582 0.182836 0
M  V30 4142 C 388.313 1.49432 -3.29169 0
M  V30 4143 O 388.034 0.577261 -4.3428 0
M  V30 4144 C 389.535 2.29492 -3.79273 0
M  V30 4145 H 386.755 0.206706 -0.638368 0
M  V30 4146 H 389.299 -0.00992046 -2.04498 0
M  V30 4147 H 387.454 2.1911 -3.19483 0
M  V30 4148 H 387.868 1.10952 -5.1263 0
M  V30 4149 H 389.342 2.78172 -4.76785 0
M  V30 4150 H 389.819 3.10794 -3.10328 0
M  V30 4151 H 390.425 1.64894 -3.92033 0
M  V30 4152 N 388.74 1.54641 0.303973 0
M  V30 4153 C 389.988 1.73437 1.0375 0
M  V30 4154 C 390.309 0.521449 1.87899 0
M  V30 4155 O 389.579 -0.46432 1.90318 0
M  V30 4156 H 388.159 0.639518 0.386039 0
M  V30 4157 H 390.821 1.91988 0.335675 0
M  V30 4158 H 389.917 2.62235 1.69231 0
M  V30 4159 N 390.218 -0.567019 1.47046 0
M  V30 4160 C 391.165 -1.67489 1.58796 0
M  V30 4161 C 392.135 -1.60399 0.43144 0
M  V30 4162 O 393.32 -1.79378 0.650233 0
M  V30 4163 C 390.46 -3.05821 1.59899 0
M  V30 4164 C 389.573 -3.2342 2.86397 0
M  V30 4165 C 388.708 -4.52093 2.789 0
M  V30 4166 C 387.747 -4.6309 4.00267 0
M  V30 4167 N 386.884 -5.83106 3.91064 0
M  V30 4168 H 391.724 -1.56785 2.53422 0
M  V30 4169 H 389.261 -0.763896 1.2571 0
M  V30 4170 H 391.219 -3.8591 1.58522 0
M  V30 4171 H 389.849 -3.15384 0.687929 0
M  V30 4172 H 388.901 -2.3683 2.97684 0
M  V30 4173 H 390.213 -3.27412 3.76301 0
M  V30 4174 H 389.367 -5.4043 2.75718 0
M  V30 4175 H 388.106 -4.50565 1.86662 0
M  V30 4176 H 387.111 -3.73168 4.03765 0
M  V30 4177 H 388.336 -4.66386 4.93621 0
M  V30 4178 H 386.282 -5.82546 3.01623 0
M  V30 4179 H 386.199 -5.88434 4.74638 0
M  V30 4180 H 387.467 -6.73831 3.91882 0
M  V30 4181 N 391.696 -1.35014 -0.812953 0
M  V30 4182 C 393.107 -1.25035 -1.38648 0
M  V30 4183 C 393.458 0.119967 -1.95833 0
M  V30 4184 O 392.583 1.02069 -1.90816 0
M  V30 4185 C 393.178 -2.26394 -2.52054 0
M  V30 4186 C 391.737 -2.20175 -3.05287 0
M  V30 4187 C 390.884 -2.12451 -1.78213 0
M  V30 4188 H 393.835 -1.46235 -0.616516 0
M  V30 4189 H 393.856 -1.88672 -3.30429 0
M  V30 4190 H 393.368 -3.26116 -2.10404 0
M  V30 4191 H 391.469 -1.23841 -3.51417 0
M  V30 4192 H 391.582 -3.11863 -3.63701 0
M  V30 4193 H 389.946 -1.58328 -1.9951 0
M  V30 4194 H 390.729 -3.14024 -1.38723 0
M  V30 4195 N 393.175 1.03435 -1.18907 0
M  V30 4196 C 394.424 1.76143 -0.982669 0
M  V30 4197 C 394.737 1.89416 0.487953 0
M  V30 4198 O 395.943 2.59041 0.813036 0
M  V30 4199 C 394.399 3.16722 -1.70924 0
M  V30 4200 C 394.007 3.11522 -3.21959 0
M  V30 4201 C 395.751 3.93764 -1.58588 0
M  V30 4202 C 393.658 4.46999 -3.87228 0
M  V30 4203 H 392.588 0.660292 -0.364047 0
M  V30 4204 H 395.239 1.158 -1.42347 0
M  V30 4205 H 393.621 3.775 -1.19623 0
M  V30 4206 H 394.795 2.60158 -3.80335 0
M  V30 4207 H 393.11 2.47978 -3.34508 0
M  V30 4208 H 395.707 4.93963 -2.04707 0
M  V30 4209 H 396.05 4.12794 -0.539142 0
M  V30 4210 H 396.583 3.39576 -2.07203 0
M  V30 4211 H 393.322 4.33174 -4.91976 0
M  V30 4212 H 392.842 4.98441 -3.33642 0
M  V30 4213 H 394.521 5.15898 -3.90459 0
M  V30 4214 N 394.653 0.992116 1.22453 0
M  V30 4215 C 395.883 0.684949 1.94915 0
M  V30 4216 C 396.291 -0.754292 1.73514 0
M  V30 4217 O 395.634 -1.52056 1.03076 0
M  V30 4218 C 395.696 0.910054 3.47791 0
M  V30 4219 C 395.36 2.33363 3.92926 0
M  V30 4220 C 396.357 3.31308 4.00663 0
M  V30 4221 C 394.042 2.66785 4.25595 0
M  V30 4222 C 396.036 4.6075 4.40441 0
M  V30 4223 C 393.723 3.96446 4.65053 0
M  V30 4224 C 394.721 4.9324 4.72444 0
M  V30 4225 O 394.409 6.20584 5.1101 0
M  V30 4226 H 394.141 0.25258 0.62704 0
M  V30 4227 H 396.695 1.32939 1.56577 0
M  V30 4228 H 394.925 0.208443 3.86138 0
M  V30 4229 H 396.614 0.598257 4.01467 0
M  V30 4230 H 397.38 3.0682 3.75615 0
M  V30 4231 H 393.259 1.92148 4.19047 0
M  V30 4232 H 396.803 5.363 4.46126 0
M  V30 4233 H 392.7 4.20724 4.89552 0
M  V30 4234 H 393.468 6.24509 5.29085 0
M  V30 4235 N 396.131 -1.37776 0.765217 0
M  V30 4236 C 397.378 -1.99849 0.326588 0
M  V30 4237 C 397.706 -1.60746 -1.09504 0
M  V30 4238 O 396.961 -0.84202 -1.76659 0
M  V30 4239 C 397.26 -3.5504 0.410053 0
M  V30 4240 C 396.926 -4.13891 1.78899 0
M  V30 4241 C 395.588 -4.29678 2.16635 0
M  V30 4242 C 397.94 -4.46236 2.69301 0
M  V30 4243 C 395.268 -4.7511 3.44221 0
M  V30 4244 C 397.62 -4.93089 3.9629 0
M  V30 4245 C 396.284 -5.07082 4.34078 0
M  V30 4246 H 395.554 -0.7313 0.119507 0
M  V30 4247 H 398.201 -1.64645 0.977968 0
M  V30 4248 H 396.506 -3.90451 -0.324878 0
M  V30 4249 H 398.203 -4.00966 0.0520699 0
M  V30 4250 H 394.793 -4.02026 1.48569 0
M  V30 4251 H 398.977 -4.3363 2.41409 0
M  V30 4252 H 394.233 -4.84129 3.73402 0
M  V30 4253 H 398.407 -5.17084 4.66472 0
M  V30 4254 H 396.034 -5.42046 5.33001 0
M  V30 4255 N 397.609 -0.515225 -1.4894 0
M  V30 4256 C 398.572 0.244681 -2.2789 0
M  V30 4257 C 399.572 0.881166 -1.34507 0
M  V30 4258 O 400.762 0.743497 -1.57537 0
M  V30 4259 C 397.894 1.35247 -3.12923 0
M  V30 4260 H 399.087 -0.448289 -2.96531 0
M  V30 4261 H 396.64 -0.270656 -1.53939 0
M  V30 4262 H 397.375 2.07916 -2.48881 0
M  V30 4263 H 397.16 0.901374 -3.81599 0
M  V30 4264 H 398.65 1.88737 -3.72516 0
M  V30 4265 N 399.087 1.5561 -0.249682 0
M  V30 4266 C 400.335 1.98618 0.373548 0
M  V30 4267 C 400.656 1.13919 1.58264 0
M  V30 4268 O 399.926 0.222637 1.94631 0
M  V30 4269 H 398.506 0.733571 0.141006 0
M  V30 4270 H 401.168 1.91748 -0.349117 0
M  V30 4271 H 400.264 3.04584 0.680796 0
M  V30 4272 N 400.565 -0.0233959 1.57583 0
M  V30 4273 C 401.811 -0.714119 1.89811 0
M  V30 4274 C 402.144 -1.74702 0.848113 0
M  V30 4275 O 401.419 -1.94023 -0.136135 0
M  V30 4276 C 401.702 -1.37853 3.32669 0
M  V30 4277 C 401.555 -0.358764 4.48367 0
M  V30 4278 C 402.874 -2.31101 3.7454 0
M  V30 4279 H 399.993 -0.25814 0.690314 0
M  V30 4280 H 402.635 0.0230927 1.89986 0
M  V30 4281 H 400.785 -2.00689 3.3265 0
M  V30 4282 H 402.457 0.268115 4.6052 0
M  V30 4283 H 400.7 0.321387 4.32608 0
M  V30 4284 H 401.371 -0.862242 5.45224 0
M  V30 4285 H 403.847 -1.78304 3.75961 0
M  V30 4286 H 402.723 -2.74567 4.75294 0
M  V30 4287 H 402.984 -3.18018 3.0711 0
M  V30 4288 N 402.043 -1.548 -0.295768 0
M  V30 4289 C 403.268 -1.78653 -1.05346 0
M  V30 4290 C 403.693 -0.546894 -1.79974 0
M  V30 4291 O 403.051 0.502763 -1.7419 0
M  V30 4292 C 403.099 -2.99679 -2.00561 0
M  V30 4293 O 402.203 -2.7317 -3.08953 0
M  V30 4294 H 401.544 -0.59116 -0.302367 0
M  V30 4295 H 404.074 -2.01895 -0.331598 0
M  V30 4296 H 404.084 -3.27793 -2.42932 0
M  V30 4297 H 402.759 -3.89562 -1.4565 0
M  V30 4298 H 401.336 -2.56089 -2.71059 0
M  V30 4299 N 403.521 0.559213 -1.47345 0
M  V30 4300 C 404.431 1.69388 -1.62311 0
M  V30 4301 C 405.447 1.6648 -0.505993 0
M  V30 4302 O 406.623 1.85964 -0.773262 0
M  V30 4303 C 403.688 3.05894 -1.63185 0
M  V30 4304 C 402.749 3.19885 -2.86307 0
M  V30 4305 C 401.982 4.49879 -2.87131 0
M  V30 4306 O 402.205 5.35217 -1.97229 0
M  V30 4307 O 401.139 4.67618 -3.78968 0
M  V30 4308 H 404.965 1.59706 -2.58317 0
M  V30 4309 H 402.55 0.728989 -1.30407 0
M  V30 4310 H 404.432 3.87133 -1.66451 0
M  V30 4311 H 403.107 3.15964 -0.70345 0
M  V30 4312 H 402.014 2.38052 -2.88587 0
M  V30 4313 H 403.347 3.14718 -3.78435 0
M  V30 4314 N 404.999 1.35443 0.805782 0
M  V30 4315 C 405.946 1.28431 1.91766 0
M  V30 4316 C 406.916 0.156102 1.65365 0
M  V30 4317 O 408.101 0.339936 1.87747 0
M  V30 4318 C 405.241 1.06301 3.2832 0
M  V30 4319 C 404.354 2.2805 3.66902 0
M  V30 4320 C 403.489 1.99064 4.92491 0
M  V30 4321 C 402.528 3.16863 5.23703 0
M  V30 4322 N 401.665 2.87647 6.40471 0
M  V30 4323 H 406.505 2.23511 1.97096 0
M  V30 4324 H 404.042 1.11105 0.964054 0
M  V30 4325 H 406 0.915012 4.07042 0
M  V30 4326 H 404.63 0.148822 3.22457 0
M  V30 4327 H 403.682 2.53711 2.83434 0
M  V30 4328 H 404.994 3.1601 3.85927 0
M  V30 4329 H 404.148 1.81099 5.7904 0
M  V30 4330 H 402.887 1.0839 4.75503 0
M  V30 4331 H 401.892 3.35404 4.35642 0
M  V30 4332 H 403.117 4.08339 5.4262 0
M  V30 4333 H 401.063 1.99568 6.24907 0
M  V30 4334 H 400.98 3.69141 6.59751 0
M  V30 4335 H 402.248 2.73226 7.30047 0
M  V30 4336 N 406.477 -1.02803 1.19454 0
M  V30 4337 C 407.888 -1.57667 0.999899 0
M  V30 4338 C 408.239 -1.91041 -0.446956 0
M  V30 4339 O 407.364 -1.70978 -1.32648 0
M  V30 4340 C 407.959 -2.86477 1.80877 0
M  V30 4341 C 406.518 -3.37911 1.65811 0
M  V30 4342 C 405.665 -2.11343 1.79526 0
M  V30 4343 H 408.616 -0.853214 1.33813 0
M  V30 4344 H 408.637 -3.57408 1.30536 0
M  V30 4345 H 408.149 -2.62155 2.86175 0
M  V30 4346 H 406.25 -3.67218 0.63102 0
M  V30 4347 H 406.363 -4.10885 2.46395 0
M  V30 4348 H 404.727 -2.23254 1.22596 0
M  V30 4349 H 405.51 -1.89461 2.86285 0
M  V30 4350 N 407.956 -0.998596 -1.21925 0
M  V30 4351 C 408.866 -0.562736 -2.27751 0
M  V30 4352 C 409.882 0.391203 -1.69545 0
M  V30 4353 O 411.058 0.256625 -1.99758 0
M  V30 4354 C 408.123 0.11012 -3.46525 0
M  V30 4355 C 407.184 -0.887495 -4.20026 0
M  V30 4356 C 406.417 -0.246654 -5.3313 0
M  V30 4357 O 406.64 0.958088 -5.62296 0
M  V30 4358 O 405.574 -0.954374 -5.94286 0
M  V30 4359 H 409.4 -1.44329 -2.67213 0
M  V30 4360 H 406.985 -0.767135 -1.28201 0
M  V30 4361 H 408.867 0.486756 -4.18579 0
M  V30 4362 H 407.542 0.965154 -3.08976 0
M  V30 4363 H 406.449 -1.31517 -3.5022 0
M  V30 4364 H 407.782 -1.71191 -4.6147 0
M  V30 4365 N 409.434 1.37368 -0.772513 0
M  V30 4366 C 410.682 1.99279 -0.336516 0
M  V30 4367 C 411.003 1.6163 1.09091 0
M  V30 4368 O 410.273 0.882109 1.74916 0
M  V30 4369 H 408.853 0.737063 -0.121435 0
M  V30 4370 H 411.515 1.67836 -0.990809 0
M  V30 4371 H 410.611 3.09332 -0.414763 0
M  V30 4372 N 410.912 0.523116 1.48665 0
M  V30 4373 C 411.842 -0.23231 2.32342 0
M  V30 4374 C 412.823 -0.941637 1.41659 0
M  V30 4375 O 414.008 -0.928751 1.70552 0
M  V30 4376 C 411.138 -1.28387 3.22698 0
M  V30 4377 C 410.092 -0.693098 4.22351 0
M  V30 4378 C 409.418 -1.8468 5.01794 0
M  V30 4379 C 410.718 0.33063 5.21252 0
M  V30 4380 H 412.412 0.466192 2.95748 0
M  V30 4381 H 409.958 0.225643 1.42221 0
M  V30 4382 H 411.911 -1.82024 3.80059 0
M  V30 4383 H 410.635 -2.01186 2.57278 0
M  V30 4384 H 409.294 -0.178299 3.66166 0
M  V30 4385 H 408.942 -2.56301 4.32804 0
M  V30 4386 H 408.642 -1.45747 5.69238 0
M  V30 4387 H 410.166 -2.38709 5.62006 0
M  V30 4388 H 411.58 -0.118407 5.73178 0
M  V30 4389 H 409.977 0.636974 5.9671 0
M  V30 4390 H 411.047 1.23883 4.68808 0
M  V30 4391 N 412.39 -1.55475 0.257931 0
M  V30 4392 C 413.3 -2.2549 -0.647425 0
M  V30 4393 C 414.316 -1.2748 -1.18427 0
M  V30 4394 O 415.492 -1.6038 -1.2182 0
M  V30 4395 C 412.557 -2.94916 -1.82278 0
M  V30 4396 C 411.618 -4.08363 -1.32432 0
M  V30 4397 C 410.851 -4.74469 -2.44366 0
M  V30 4398 O 411.074 -4.39701 -3.63344 0
M  V30 4399 O 410.008 -5.62763 -2.13497 0
M  V30 4400 H 413.834 -3.03593 -0.0807707 0
M  V30 4401 H 411.419 -1.49377 0.0259962 0
M  V30 4402 H 413.301 -3.38606 -2.50846 0
M  V30 4403 H 411.976 -2.19744 -2.37685 0
M  V30 4404 H 410.883 -3.69166 -0.605605 0
M  V30 4405 H 412.216 -4.85385 -0.816211 0
M  V30 4406 N 413.868 0.0150385 -1.57593 0
M  V30 4407 C 415.279 0.559832 -1.78109 0
M  V30 4408 C 415.63 1.74814 -0.890756 0
M  V30 4409 O 414.755 2.16216 -0.0892482 0
M  V30 4410 C 415.35 1.02238 -3.23006 0
M  V30 4411 C 413.909 1.51258 -3.44671 0
M  V30 4412 C 413.056 0.456955 -2.73509 0
M  V30 4413 H 416.007 -0.211169 -1.57289 0
M  V30 4414 H 416.028 1.88912 -3.30292 0
M  V30 4415 H 415.54 0.157302 -3.87781 0
M  V30 4416 H 413.641 2.39905 -2.8509 0
M  V30 4417 H 413.754 1.55042 -4.5332 0
M  V30 4418 H 412.118 0.915196 -2.37689 0
M  V30 4419 H 412.901 -0.398896 -3.40975 0
M  V30 4420 N 415.346 1.54954 0.287554 0
M  V30 4421 C 416.593 1.74873 1.02106 0
M  V30 4422 C 416.921 0.541829 1.86801 0
M  V30 4423 O 416.176 -0.475992 1.89823 0
M  V30 4424 C 416.475 2.99833 1.94512 0
M  V30 4425 C 416.141 4.33029 1.25686 0
M  V30 4426 C 414.803 4.69233 1.06649 0
M  V30 4427 C 417.155 5.15542 0.765913 0
M  V30 4428 C 414.483 5.85518 0.372222 0
M  V30 4429 C 416.835 6.32542 0.0853101 0
M  V30 4430 C 415.499 6.67398 -0.1169 0
M  V30 4431 H 414.769 0.639906 0.373632 0
M  V30 4432 H 417.416 1.89219 0.294665 0
M  V30 4433 H 415.721 2.80325 2.73725 0
M  V30 4434 H 417.418 3.1244 2.51361 0
M  V30 4435 H 414.008 4.04564 1.41512 0
M  V30 4436 H 418.192 4.88059 0.90066 0
M  V30 4437 H 413.448 6.11057 0.204695 0
M  V30 4438 H 417.622 6.95741 -0.302936 0
M  V30 4439 H 415.249 7.57357 -0.656859 0
M  V30 4440 N 416.824 -0.551391 1.4764 0
M  V30 4441 C 418.054 -1.33163 1.57959 0
M  V30 4442 C 418.462 -1.87785 0.23094 0
M  V30 4443 O 417.805 -1.65996 -0.786825 0
M  V30 4444 C 417.867 -2.53449 2.54958 0
M  V30 4445 C 417.531 -2.20071 4.00522 0
M  V30 4446 C 418.528 -1.77017 4.88836 0
M  V30 4447 C 416.213 -2.31252 4.45901 0
M  V30 4448 C 418.207 -1.4558 6.20552 0
M  V30 4449 C 415.894 -1.99427 5.77644 0
M  V30 4450 C 416.892 -1.56659 6.64791 0
M  V30 4451 O 416.58 -1.25242 7.94084 0
M  V30 4452 H 416.312 -0.412022 0.535923 0
M  V30 4453 H 418.866 -0.674186 1.9402 0
M  V30 4454 H 417.096 -3.22104 2.13976 0
M  V30 4455 H 418.785 -3.15523 2.55343 0
M  V30 4456 H 419.551 -1.67867 4.55023 0
M  V30 4457 H 415.43 -2.63498 3.78272 0
M  V30 4458 H 418.974 -1.12125 6.8853 0
M  V30 4459 H 414.871 -2.08211 6.10998 0
M  V30 4460 H 415.639 -1.38822 8.06642 0
M  V30 4461 N 418.302 -1.35869 -0.798587 0
M  V30 4462 C 419.713 -1.26498 -1.37314 0
M  V30 4463 C 420.064 0.0991899 -1.95949 0
M  V30 4464 O 419.189 1.0004 -1.91888 0
M  V30 4465 C 419.784 -2.29054 -2.49639 0
M  V30 4466 C 418.343 -2.234 -3.02935 0
M  V30 4467 C 417.49 -2.14329 -1.75949 0
M  V30 4468 H 420.441 -1.46881 -0.600971 0
M  V30 4469 H 420.462 -1.92166 -3.28409 0
M  V30 4470 H 419.974 -3.2833 -2.06933 0
M  V30 4471 H 418.075 -1.27562 -3.50084 0
M  V30 4472 H 418.188 -3.15703 -3.60372 0
M  V30 4473 H 416.552 -1.60435 -1.9782 0
M  V30 4474 H 417.335 -3.15477 -1.35384 0
M  V30 4475 N 419.78 1.02168 -1.19998 0
M  V30 4476 C 420.69 2.14069 -0.959774 0
M  V30 4477 C 421.706 1.73804 0.082655 0
M  V30 4478 O 422.882 2.01133 -0.103633 0
M  V30 4479 C 419.947 3.42936 -0.509459 0
M  V30 4480 C 419.008 3.97474 -1.62213 0
M  V30 4481 C 418.241 5.2019 -1.19321 0
M  V30 4482 O 418.464 5.70369 -0.0597726 0
M  V30 4483 O 417.398 5.67749 -1.99863 0
M  V30 4484 H 421.224 2.37199 -1.89658 0
M  V30 4485 H 418.809 1.12469 -0.983411 0
M  V30 4486 H 420.691 4.20551 -0.267322 0
M  V30 4487 H 419.366 3.21234 0.398821 0
M  V30 4488 H 418.273 3.21161 -1.9185 0
M  V30 4489 H 419.606 4.23555 -2.50723 0
M  V30 4490 N 421.258 1.00505 1.21394 0
M  V30 4491 C 422.674 0.717873 1.42544 0
M  V30 4492 C 422.874 -0.706936 1.88692 0
M  V30 4493 O 421.93 -1.47627 2.04847 0
M  V30 4494 C 423.243 1.73377 2.45684 0
M  V30 4495 C 424.791 1.75059 2.59467 0
M  V30 4496 C 425.266 2.75545 3.6584 0
M  V30 4497 N 426.757 2.74213 3.73311 0
M  V30 4498 C 427.492 3.48626 4.55245 0
M  V30 4499 N 426.988 4.32678 5.41075 0
M  V30 4500 N 428.781 3.37276 4.49668 0
M  V30 4501 H 420.932 1.92506 0.897503 0
M  V30 4502 H 423.195 0.830919 0.456375 0
M  V30 4503 H 422.901 2.75395 2.18748 0
M  V30 4504 H 422.775 1.53647 3.44489 0
M  V30 4505 H 425.162 0.737337 2.8574 0
M  V30 4506 H 425.243 1.98861 1.60897 0
M  V30 4507 H 424.887 3.77028 3.40313 0
M  V30 4508 H 424.817 2.49009 4.64007 0
M  V30 4509 H 427.308 2.13234 3.11993 0
M  V30 4510 H 427.621 4.86253 6.00648 0
M  V30 4511 H 425.966 4.3676 5.40616 0
M  V30 4512 H 429.157 2.71043 3.81646 0
M  V30 4513 H 429.33 3.95524 5.13288 0
M  V30 4514 N 422.737 -1.36956 0.779787 0
M  V30 4515 C 423.667 -2.32761 0.185651 0
M  V30 4516 C 424.648 -1.56177 -0.673989 0
M  V30 4517 O 425.833 -1.84378 -0.609797 0
M  V30 4518 C 422.963 -3.40418 -0.687964 0
M  V30 4519 C 421.917 -4.27941 0.0710102 0
M  V30 4520 C 421.243 -5.26681 -0.922573 0
M  V30 4521 C 422.543 -5.07006 1.25467 0
M  V30 4522 H 424.237 -2.82698 0.986008 0
M  V30 4523 H 421.783 -1.3592 0.475592 0
M  V30 4524 H 423.736 -4.06423 -1.11348 0
M  V30 4525 H 422.46 -2.89025 -1.52093 0
M  V30 4526 H 421.119 -3.63478 0.47739 0
M  V30 4527 H 420.767 -4.71565 -1.7503 0
M  V30 4528 H 420.467 -5.86103 -0.419237 0
M  V30 4529 H 421.991 -5.9556 -1.34686 0
M  V30 4530 H 423.405 -5.66105 0.905401 0
M  V30 4531 H 421.802 -5.75793 1.69063 0
M  V30 4532 H 422.872 -4.3921 2.05481 0
M  V30 4533 N 424.215 -0.530993 -1.48385 0
M  V30 4534 C 425.178 0.220497 -2.28137 0
M  V30 4535 C 426.178 0.866851 -1.35434 0
M  V30 4536 O 427.368 0.726746 -1.58316 0
M  V30 4537 C 424.5 1.31921 -3.1434 0
M  V30 4538 H 425.693 -0.479714 -2.96038 0
M  V30 4539 H 423.246 -0.286968 -1.53643 0
M  V30 4540 H 423.981 2.05264 -2.51072 0
M  V30 4541 H 423.766 0.86085 -3.82533 0
M  V30 4542 H 425.256 1.84776 -3.74497 0
M  V30 4543 N 425.693 1.55336 -0.266172 0
M  V30 4544 C 426.941 1.99003 0.35246 0
M  V30 4545 C 427.262 1.15591 1.57047 0
M  V30 4546 O 426.532 0.243268 1.94384 0
M  V30 4547 H 425.112 0.735025 0.133217 0
M  V30 4548 H 427.774 1.91367 -0.369434 0
M  V30 4549 H 426.87 3.05289 0.648453 0
M  V30 4550 N 427.171 -0.0066808 1.57599 0
M  V30 4551 C 428.587 -0.36267 1.55425 0
M  V30 4552 C 428.787 -1.75209 0.995187 0
M  V30 4553 O 427.843 -2.44616 0.626058 0
M  V30 4554 C 429.156 -0.244017 2.99708 0
M  V30 4555 C 430.704 -0.319451 3.11366 0
M  V30 4556 C 431.179 -0.229998 4.57422 0
M  V30 4557 N 432.67 -0.288105 4.62303 0
M  V30 4558 C 433.405 -0.242127 5.72889 0
M  V30 4559 N 432.901 -0.147133 6.92644 0
M  V30 4560 N 434.694 -0.293502 5.61333 0
M  V30 4561 H 426.845 0.902314 1.92281 0
M  V30 4562 H 429.108 0.34525 0.882896 0
M  V30 4563 H 428.814 0.711678 3.44424 0
M  V30 4564 H 428.688 -1.02877 3.629 0
M  V30 4565 H 431.075 -1.26559 2.66584 0
M  V30 4566 H 431.156 0.495055 2.50964 0
M  V30 4567 H 430.8 0.712566 5.02877 0
M  V30 4568 H 430.73 -1.0629 5.15761 0
M  V30 4569 H 433.221 -0.363126 3.76151 0
M  V30 4570 H 433.534 -0.117763 7.7271 0
M  V30 4571 H 431.879 -0.112857 6.94908 0
M  V30 4572 H 435.07 -0.365864 4.66668 0
M  V30 4573 H 435.243 -0.254204 6.47501 0
M  V30 4574 N 428.649 -1.55105 -0.279332 0
M  V30 4575 C 429.898 -1.74618 -1.00952 0
M  V30 4576 C 430.211 -0.551096 -1.87676 0
M  V30 4577 O 431.417 -0.628507 -2.64125 0
M  V30 4578 C 429.873 -3.09025 -1.84476 0
M  V30 4579 C 429.481 -4.36081 -1.0265 0
M  V30 4580 C 431.225 -3.37891 -2.56963 0
M  V30 4581 C 429.132 -5.6153 -1.85576 0
M  V30 4582 H 428.062 -0.650868 -0.38064 0
M  V30 4583 H 430.713 -1.81569 -0.265475 0
M  V30 4584 H 429.095 -2.96095 -2.62952 0
M  V30 4585 H 430.269 -4.59909 -0.286354 0
M  V30 4586 H 428.584 -4.14312 -0.416464 0
M  V30 4587 H 431.181 -4.28822 -3.19399 0
M  V30 4588 H 431.524 -2.57737 -3.26921 0
M  V30 4589 H 432.057 -3.5189 -1.85522 0
M  V30 4590 H 428.796 -6.44413 -1.2005 0
M  V30 4591 H 428.316 -5.41854 -2.57204 0
M  V30 4592 H 429.995 -5.99594 -2.43096 0
M  V30 4593 N 430.127 0.543554 -1.4793 0
M  V30 4594 C 431.057 1.65888 -1.64327 0
M  V30 4595 C 432.038 1.62818 -0.492383 0
M  V30 4596 O 433.223 1.80226 -0.723338 0
M  V30 4597 C 430.353 3.04506 -1.67013 0
M  V30 4598 C 429.307 3.2243 -2.81466 0
M  V30 4599 C 428.633 4.61972 -2.69233 0
M  V30 4600 C 429.933 3.06496 -4.22915 0
M  V30 4601 H 431.627 1.52421 -2.57698 0
M  V30 4602 H 429.173 0.731849 -1.24016 0
M  V30 4603 H 431.126 3.82391 -1.77074 0
M  V30 4604 H 429.85 3.18964 -0.70212 0
M  V30 4605 H 428.509 2.46957 -2.70938 0
M  V30 4606 H 428.157 4.73247 -1.7043 0
M  V30 4607 H 427.857 4.74911 -3.46025 0
M  V30 4608 H 429.381 5.41974 -2.81242 0
M  V30 4609 H 430.795 3.74186 -4.34348 0
M  V30 4610 H 429.192 3.30938 -5.006 0
M  V30 4611 H 430.262 2.03077 -4.40327 0
M  V30 4612 N 431.605 1.3629 0.791371 0
M  V30 4613 C 432.853 1.30154 1.5461 0
M  V30 4614 C 433.174 -0.119409 1.94634 0
M  V30 4615 O 432.444 -1.05924 1.64794 0
M  V30 4616 H 431.024 0.478784 0.573389 0
M  V30 4617 H 433.686 1.70565 0.94306 0
M  V30 4618 H 432.782 1.92762 2.45457 0
M  V30 4619 N 433.083 -1.0153 1.20538 0
M  V30 4620 C 434.016 -2.09759 0.898695 0
M  V30 4621 C 434.994 -1.61909 -0.149733 0
M  V30 4622 O 436.178 -1.88486 -0.0230293 0
M  V30 4623 C 433.305 -3.36913 0.347512 0
M  V30 4624 C 432.351 -4.03655 1.37713 0
M  V30 4625 S 433.184 -4.47402 2.94265 0
M  V30 4626 C 434.34 -5.77756 2.40726 0
M  V30 4627 H 434.573 -2.3545 1.81523 0
M  V30 4628 H 432.106 -1.14665 1.03399 0
M  V30 4629 H 434.064 -4.10484 0.0360518 0
M  V30 4630 H 432.725 -3.09291 -0.547546 0
M  V30 4631 H 431.918 -4.9514 0.940872 0
M  V30 4632 H 431.52 -3.36313 1.63614 0
M  V30 4633 H 433.812 -6.52994 1.80569 0
M  V30 4634 H 434.755 -6.2618 3.30612 0
M  V30 4635 H 435.163 -5.34081 1.82806 0
M  V30 4636 N 434.561 -1.01147 -1.20859 0
M  V30 4637 C 435.809 -0.696486 -1.89719 0
M  V30 4638 C 436.13 0.775788 -1.78904 0
M  V30 4639 O 435.4 1.55759 -1.18811 0
M  V30 4640 H 433.98 -0.254628 -0.702263 0
M  V30 4641 H 436.642 -1.28197 -1.46804 0
M  V30 4642 H 435.738 -0.975357 -2.96468 0
M  V30 4643 N 436.039 1.36541 -0.78704 0
M  V30 4644 C 437.316 1.9355 -0.282424 0
M  V30 4645 C 437.696 1.71919 1.22503 0
M  V30 4646 O 437.044 1.07677 2.01539 0
M  V30 4647 C 437.254 3.4246 -0.672462 0
M  V30 4648 C 438.602 4.19582 -0.650863 0
M  V30 4649 O 439.626 3.50889 -0.612789 0
M  V30 4650 O 438.485 5.42106 -0.691623 0
M  V30 4651 H 435.579 0.824091 -0.0693 0
M  V30 4652 H 438.125 1.45736 -0.869423 0
M  V30 4653 H 436.897 3.51851 -1.71221 0
M  V30 4654 H 436.52 3.97556 -0.0592211 0
M  V30 4655 N 437.518 0.538854 1.48102 0
M  V30 4656 C 438.764 0.00801365 2.02798 0
M  V30 4657 C 439.097 -1.3309 1.41424 0
M  V30 4658 O 438.372 -1.86169 0.563158 0
M  V30 4659 C 438.655 -0.104589 3.59948 0
M  V30 4660 C 438.508 1.26012 4.31788 0
M  V30 4661 C 439.827 -0.827055 4.32259 0
M  V30 4662 H 436.946 0.00438624 0.736987 0
M  V30 4663 H 439.588 0.6976 1.7673 0
M  V30 4664 H 437.738 -0.691893 3.82289 0
M  V30 4665 H 439.41 1.88922 4.2084 0
M  V30 4666 H 437.653 1.83968 3.92859 0
M  V30 4667 H 438.324 1.13424 5.40221 0
M  V30 4668 H 440.8 -0.328578 4.14801 0
M  V30 4669 H 439.676 -0.87476 5.41885 0
M  V30 4670 H 439.937 -1.87927 4.0017 0
M  V30 4671 N 438.996 -1.55193 0.274407 0
M  V30 4672 C 439.959 -2.212 -0.600279 0
M  V30 4673 C 440.959 -1.18963 -1.08187 0
M  V30 4674 O 442.149 -1.43873 -0.982158 0
M  V30 4675 C 439.281 -2.87739 -1.82809 0
M  V30 4676 H 440.474 -2.9989 -0.0239682 0
M  V30 4677 H 438.027 -1.5628 0.0250192 0
M  V30 4678 H 438.762 -2.13058 -2.44493 0
M  V30 4679 H 438.547 -3.62658 -1.49069 0
M  V30 4680 H 440.037 -3.38171 -2.45011 0
M  V30 4681 N 440.474 -0.00167713 -1.576 0
M  V30 4682 C 441.699 0.69739 -1.95323 0
M  V30 4683 C 442.124 1.6642 -0.876706 0
M  V30 4684 O 441.482 1.80548 0.165007 0
M  V30 4685 C 441.53 1.40403 -3.32144 0
M  V30 4686 O 440.634 2.5185 -3.26566 0
M  V30 4687 H 439.975 0.185373 -0.637599 0
M  V30 4688 H 442.505 -0.0553665 -2.04525 0
M  V30 4689 H 442.515 1.76707 -3.67748 0
M  V30 4690 H 441.19 0.695167 -4.10049 0
M  V30 4691 H 439.767 2.17861 -3.0264 0
M  V30 4692 N 441.952 1.55251 0.271103 0
M  V30 4693 C 442.882 1.9127 1.33933 0
M  V30 4694 C 443.863 0.77478 1.5143 0
M  V30 4695 O 445.048 1.03307 1.64442 0
M  V30 4696 C 442.178 2.18627 2.69851 0
M  V30 4697 C 441.132 3.34442 2.67081 0
M  V30 4698 C 440.458 3.47284 4.06569 0
M  V30 4699 C 441.758 4.70784 2.26185 0
M  V30 4700 H 443.452 2.80744 1.04035 0
M  V30 4701 H 440.998 1.35077 0.499017 0
M  V30 4702 H 442.951 2.42413 3.44694 0
M  V30 4703 H 441.675 1.25955 3.01335 0
M  V30 4704 H 440.334 3.10627 1.94695 0
M  V30 4705 H 439.982 2.52074 4.35279 0
M  V30 4706 H 439.682 4.25152 4.0561 0
M  V30 4707 H 441.206 3.73363 4.83148 0
M  V30 4708 H 442.62 4.94102 2.90751 0
M  V30 4709 H 441.017 5.51582 2.36384 0
M  V30 4710 H 442.087 4.69478 1.21319 0
M  V30 4711 N 443.43 -0.535701 1.48216 0
M  V30 4712 C 444.393 -1.623 1.61838 0
M  V30 4713 C 445.393 -1.53087 0.492024 0
M  V30 4714 O 446.583 -1.5686 0.757668 0
M  V30 4715 C 443.715 -3.01907 1.58319 0
M  V30 4716 H 444.908 -1.51564 2.58783 0
M  V30 4717 H 442.461 -0.757317 1.36727 0
M  V30 4718 H 443.196 -3.18155 0.628299 0
M  V30 4719 H 442.981 -3.10003 2.40085 0
M  V30 4720 H 444.471 -3.80969 1.71033 0
M  V30 4721 N 444.908 -1.36708 -0.784132 0
M  V30 4722 C 445.818 -1.3363 -1.92822 0
M  V30 4723 C 446.834 -0.237686 -1.72369 0
M  V30 4724 O 448.01 -0.470962 -1.95816 0
M  V30 4725 C 445.075 -1.13011 -3.27764 0
M  V30 4726 C 444.136 -2.32397 -3.60957 0
M  V30 4727 C 443.369 -2.12752 -4.89461 0
M  V30 4728 O 443.592 -1.10541 -5.59586 0
M  V30 4729 O 442.526 -3.00653 -5.21432 0
M  V30 4730 H 446.352 -2.29964 -1.98369 0
M  V30 4731 H 443.937 -1.1731 -0.925136 0
M  V30 4732 H 445.819 -1.03451 -4.08504 0
M  V30 4733 H 444.494 -0.19743 -3.23097 0
M  V30 4734 H 443.401 -2.47527 -2.80502 0
M  V30 4735 H 444.734 -3.2419 -3.70354 0
M  V30 4736 N 446.386 1.0089 -1.21074 0
M  V30 4737 C 447.333 2.09588 -0.966512 0
M  V30 4738 C 448.303 1.65761 0.106089 0
M  V30 4739 O 449.488 1.90758 -0.0402287 0
M  V30 4740 C 446.628 3.40958 -0.533058 0
M  V30 4741 C 445.741 3.9822 -1.67467 0
M  V30 4742 C 444.876 5.17682 -1.19076 0
M  V30 4743 C 443.915 5.67043 -2.30496 0
M  V30 4744 N 443.052 6.77759 -1.83267 0
M  V30 4745 H 447.892 2.29815 -1.89708 0
M  V30 4746 H 445.429 1.12689 -0.945489 0
M  V30 4747 H 447.387 4.1637 -0.263019 0
M  V30 4748 H 446.017 3.20781 0.360505 0
M  V30 4749 H 445.069 3.1983 -2.05944 0
M  V30 4750 H 446.381 4.3085 -2.51336 0
M  V30 4751 H 445.535 6.00326 -0.877151 0
M  V30 4752 H 444.274 4.86635 -0.322066 0
M  V30 4753 H 443.279 4.82999 -2.62664 0
M  V30 4754 H 444.504 6.00121 -3.17855 0
M  V30 4755 H 442.45 6.48527 -0.987356 0
M  V30 4756 H 442.367 7.09624 -2.60711 0
M  V30 4757 H 443.635 7.63949 -1.54928 0
M  V30 4758 N 447.864 1.01787 1.20321 0
M  V30 4759 C 449.11 0.708985 1.90003 0
M  V30 4760 C 449.443 -0.759572 1.78729 0
M  V30 4761 O 448.718 -1.55198 1.17234 0
M  V30 4762 C 449.001 1.1469 3.41348 0
M  V30 4763 C 448.854 2.67586 3.61549 0
M  V30 4764 C 450.173 0.71915 4.34185 0
M  V30 4765 H 447.292 0.259034 0.689978 0
M  V30 4766 H 449.934 1.26584 1.41692 0
M  V30 4767 H 448.084 0.673128 3.82624 0
M  V30 4768 H 449.756 3.22826 3.29517 0
M  V30 4769 H 447.999 3.085 3.04976 0
M  V30 4770 H 448.67 2.93281 4.67643 0
M  V30 4771 H 451.146 1.12647 4.00562 0
M  V30 4772 H 450.022 1.05358 5.38694 0
M  V30 4773 H 450.283 -0.379111 4.40472 0
M  V30 4774 N 449.342 -1.36122 0.79427 0
M  V30 4775 C 450.758 -1.5232 0.476525 0
M  V30 4776 C 450.958 -1.74685 -1.00436 0
M  V30 4777 O 450.014 -1.78115 -1.78973 0
M  V30 4778 C 451.327 -2.70607 1.31119 0
M  V30 4779 C 452.875 -2.8448 1.30537 0
M  V30 4780 C 453.35 -4.05778 2.12387 0
M  V30 4781 N 454.841 -4.12933 2.09859 0
M  V30 4782 C 455.576 -5.05876 2.69957 0
M  V30 4783 N 455.072 -6.04232 3.38934 0
M  V30 4784 N 456.865 -4.98528 2.59665 0
M  V30 4785 H 449.016 -1.1986 1.75349 0
M  V30 4786 H 451.279 -0.585418 0.745647 0
M  V30 4787 H 450.985 -2.60619 2.36158 0
M  V30 4788 H 450.859 -3.64888 0.955843 0
M  V30 4789 H 453.246 -2.93927 0.262876 0
M  V30 4790 H 453.327 -1.91093 1.70051 0
M  V30 4791 H 452.971 -3.97092 3.1667 0
M  V30 4792 H 452.901 -4.98323 1.70242 0
M  V30 4793 H 455.392 -3.42515 1.59662 0
M  V30 4794 H 455.705 -6.71724 3.82109 0
M  V30 4795 H 454.05 -6.04443 3.43036 0
M  V30 4796 H 457.241 -4.20641 2.05375 0
M  V30 4797 H 457.414 -5.70773 3.06793 0
M  V30 4798 N 450.82 -0.546701 -1.47814 0
M  V30 4799 C 451.783 0.196287 -2.28358 0
M  V30 4800 C 452.783 0.852437 -1.36346 0
M  V30 4801 O 453.973 0.709913 -1.59078 0
M  V30 4802 C 451.105 1.28579 -3.15722 0
M  V30 4803 H 452.298 -0.511086 -2.95513 0
M  V30 4804 H 449.851 -0.303248 -1.5333 0
M  V30 4805 H 450.586 2.0259 -2.53235 0
M  V30 4806 H 450.371 0.820229 -3.83425 0
M  V30 4807 H 451.861 1.80793 -3.76435 0
M  V30 4808 N 452.299 1.55045 -0.282633 0
M  V30 4809 C 453.262 2.21515 0.588539 0
M  V30 4810 C 454.262 1.19535 1.07554 0
M  V30 4811 O 455.452 1.44391 0.974514 0
M  V30 4812 C 452.584 2.88704 1.8128 0
M  V30 4813 H 453.777 2.99899 0.00806397 0
M  V30 4814 H 451.33 1.56265 -0.0333067 0
M  V30 4815 H 452.065 2.14352 2.43359 0
M  V30 4816 H 451.85 3.63443 1.47144 0
M  V30 4817 H 453.34 3.39465 2.43214 0
M  V30 4818 N 453.777 0.010035 1.57597 0
M  V30 4819 C 455.025 -0.671371 1.90623 0
M  V30 4820 C 455.346 -1.73753 0.885151 0
M  V30 4821 O 454.616 -1.95752 -0.0760611 0
M  V30 4822 H 453.196 -0.250968 0.703579 0
M  V30 4823 H 455.858 0.0533325 1.94827 0
M  V30 4824 H 454.954 -1.13626 2.90681 0
M  V30 4825 N 455.255 -1.55392 -0.262866 0
M  V30 4826 C 456.185 -1.91978 -1.32917 0
M  V30 4827 C 457.166 -0.7828 -1.51017 0
M  V30 4828 O 458.351 -1.04178 -1.63892 0
M  V30 4829 C 455.481 -2.20055 -2.68687 0
M  V30 4830 C 454.435 -3.35854 -2.65304 0
M  V30 4831 C 453.761 -3.49435 -4.04721 0
M  V30 4832 C 455.061 -4.71977 -2.23685 0
M  V30 4833 H 456.755 -2.81292 -1.02544 0
M  V30 4834 H 454.301 -1.3534 -0.491846 0
M  V30 4835 H 456.254 -2.44237 -3.43404 0
M  V30 4836 H 454.978 -1.27551 -3.00663 0
M  V30 4837 H 453.637 -3.11655 -1.93045 0
M  V30 4838 H 453.285 -2.54379 -4.33936 0
M  V30 4839 H 452.985 -4.27297 -4.0335 0
M  V30 4840 H 454.509 -3.7592 -4.81161 0
M  V30 4841 H 455.923 -4.95637 -2.88127 0
M  V30 4842 H 454.32 -5.52828 -2.33456 0
M  V30 4843 H 455.39 -4.70115 -1.18827 0
M  V30 4844 N 456.733 0.527833 -1.48498 0
M  V30 4845 C 457.643 1.65907 -1.65867 0
M  V30 4846 C 458.659 1.6537 -0.541192 0
M  V30 4847 O 459.835 1.84282 -0.812534 0
M  V30 4848 C 456.9 3.02364 -1.69637 0
M  V30 4849 C 455.961 3.1374 -2.93028 0
M  V30 4850 C 455.194 4.43688 -2.96609 0
M  V30 4851 O 455.417 5.30913 -2.08538 0
M  V30 4852 O 454.351 4.59475 -3.88802 0
M  V30 4853 H 458.177 1.5419 -2.61647 0
M  V30 4854 H 455.762 0.701163 -1.31924 0
M  V30 4855 H 457.644 3.83515 -1.74625 0
M  V30 4856 H 456.319 3.14401 -0.770312 0
M  V30 4857 H 455.226 2.31877 -2.93571 0
M  V30 4858 H 456.559 3.06621 -3.85026 0
M  V30 4859 N 458.211 1.37122 0.776871 0
M  V30 4860 C 459.174 1.32301 1.8716 0
M  V30 4861 C 460.174 0.228099 1.59174 0
M  V30 4862 O 461.364 0.483642 1.67352 0
M  V30 4863 C 458.496 1.054 3.24197 0
M  V30 4864 H 459.689 2.29673 1.92848 0
M  V30 4865 H 457.242 1.22077 0.97606 0
M  V30 4866 H 457.977 0.0853872 3.24188 0
M  V30 4867 H 457.762 1.84648 3.45901 0
M  V30 4868 H 459.252 1.04664 4.04271 0
M  V30 4869 N 459.689 -1.00246 1.21608 0
M  V30 4870 C 460.599 -2.12515 0.993709 0
M  V30 4871 C 461.615 -1.73913 -0.0549939 0
M  V30 4872 O 462.791 -2.00943 0.135619 0
M  V30 4873 C 459.856 -3.42083 0.563953 0
M  V30 4874 C 458.917 -3.94843 1.68516 0
M  V30 4875 C 458.15 -5.18226 1.27582 0
M  V30 4876 O 458.373 -5.70201 0.150506 0
M  V30 4877 O 457.307 -5.64497 2.0887 0
M  V30 4878 H 461.133 -2.34152 1.93407 0
M  V30 4879 H 458.718 -1.10891 1.00118 0
M  V30 4880 H 460.6 -4.20073 0.334194 0
M  V30 4881 H 459.275 -3.21828 -0.347665 0
M  V30 4882 H 458.182 -3.18068 1.96935 0
M  V30 4883 H 459.515 -4.19512 2.5743 0
M  V30 4884 N 461.167 -1.02423 -1.1978 0
M  V30 4885 C 462.13 -0.605703 -2.21052 0
M  V30 4886 C 463.13 0.328209 -1.57415 0
M  V30 4887 O 464.32 0.115853 -1.73814 0
M  V30 4888 C 461.452 0.114366 -3.40708 0
M  V30 4889 H 462.645 -1.5017 -2.59594 0
M  V30 4890 H 460.198 -0.814888 -1.33376 0
M  V30 4891 H 460.933 1.02492 -3.07678 0
M  V30 4892 H 460.718 -0.556641 -3.88129 0
M  V30 4893 H 462.208 0.394272 -4.15735 0
M  V30 4894 N 462.645 1.35699 -0.801477 0
M  V30 4895 C 464.056 1.81415 -0.441073 0
M  V30 4896 C 464.407 1.66595 1.03636 0
M  V30 4897 O 463.532 1.19369 1.80499 0
M  V30 4898 C 464.127 3.29369 -0.793819 0
M  V30 4899 C 462.686 3.73248 -0.486083 0
M  V30 4900 C 461.833 2.57775 -1.02213 0
M  V30 4901 H 464.784 1.23749 -0.993572 0
M  V30 4902 H 464.805 3.80395 -0.0894158 0
M  V30 4903 H 464.317 3.40123 -1.86917 0
M  V30 4904 H 462.418 3.68046 0.580735 0
M  V30 4905 H 462.531 4.68222 -1.01513 0
M  V30 4906 H 460.895 2.50788 -0.444712 0
M  V30 4907 H 461.678 2.71309 -2.10348 0
M  V30 4908 N 464.123 0.554532 1.47522 0
M  V30 4909 C 465.07 -0.19466 2.29978 0
M  V30 4910 C 466.04 -0.910882 1.38896 0
M  V30 4911 O 467.225 -0.907102 1.67858 0
M  V30 4912 C 464.365 -1.22035 3.22802 0
M  V30 4913 C 463.478 -0.510474 4.28973 0
M  V30 4914 C 462.613 -1.52123 5.08952 0
M  V30 4915 C 461.652 -0.796173 6.069 0
M  V30 4916 N 460.789 -1.75363 6.79847 0
M  V30 4917 H 465.629 0.51461 2.93523 0
M  V30 4918 H 463.166 0.265607 1.44682 0
M  V30 4919 H 465.124 -1.8276 3.7504 0
M  V30 4920 H 463.754 -1.89769 2.61127 0
M  V30 4921 H 462.806 0.211234 3.79813 0
M  V30 4922 H 464.118 0.0576503 4.98767 0
M  V30 4923 H 463.272 -2.20207 5.65326 0
M  V30 4924 H 462.011 -2.12327 4.39054 0
M  V30 4925 H 461.016 -0.101388 5.49707 0
M  V30 4926 H 462.241 -0.199911 6.78806 0
M  V30 4927 H 460.187 -2.3443 6.12682 0
M  V30 4928 H 460.104 -1.23759 7.45801 0
M  V30 4929 H 461.372 -2.4257 7.40797 0
M  V30 4930 N 465.601 -1.54893 0.290851 0
M  V30 4931 C 466.826 -2.04804 -0.32712 0
M  V30 4932 C 467.251 -1.16721 -1.47506 0
M  V30 4933 O 466.609 -0.169107 -1.8051 0
M  V30 4934 C 466.657 -3.52268 -0.770689 0
M  V30 4935 O 465.761 -3.67236 -1.87647 0
M  V30 4936 H 465.102 -0.660789 -0.0652227 0
M  V30 4937 H 467.632 -2.00036 0.429739 0
M  V30 4938 H 467.642 -3.9393 -1.06223 0
M  V30 4939 H 466.317 -4.15843 0.069096 0
M  V30 4940 H 464.894 -3.37479 -1.58626 0
M  V30 4941 N 467.08 -0.0183926 -1.57589 0
M  V30 4942 C 468.043 0.951986 -2.08494 0
M  V30 4943 C 469.043 1.26092 -0.997874 0
M  V30 4944 O 470.233 1.20304 -1.25987 0
M  V30 4945 C 467.365 2.27165 -2.54182 0
M  V30 4946 H 468.558 0.511307 -2.95509 0
M  V30 4947 H 466.111 0.229444 -1.54607 0
M  V30 4948 H 466.846 2.75884 -1.70465 0
M  V30 4949 H 466.631 2.06057 -3.33591 0
M  V30 4950 H 468.121 2.9674 -2.93828 0
M  V30 4951 N 468.558 1.5553 0.254621 0
M  V30 4952 C 469.505 1.89666 1.31512 0
M  V30 4953 C 470.475 0.750057 1.482 0
M  V30 4954 O 471.66 1.00301 1.62309 0
M  V30 4955 C 468.8 2.19009 2.667 0
M  V30 4956 C 467.913 3.46435 2.58083 0
M  V30 4957 C 467.048 3.65386 3.85573 0
M  V30 4958 C 466.087 4.8644 3.71541 0
M  V30 4959 N 465.224 5.01952 4.90906 0
M  V30 4960 H 470.064 2.80109 1.017 0
M  V30 4961 H 467.601 1.38666 0.490938 0
M  V30 4962 H 469.559 2.34025 3.45381 0
M  V30 4963 H 468.189 1.31779 2.94676 0
M  V30 4964 H 467.241 3.39792 1.71013 0
M  V30 4965 H 468.553 4.35258 2.43622 0
M  V30 4966 H 467.707 3.80319 4.72697 0
M  V30 4967 H 466.446 2.74781 4.02922 0
M  V30 4968 H 465.451 4.71491 2.82801 0
M  V30 4969 H 466.676 5.78497 3.55694 0
M  V30 4970 H 464.622 4.14283 5.08631 0
M  V30 4971 H 464.539 5.84851 4.79046 0
M  V30 4972 H 465.807 5.21289 5.7955 0
M  V30 4973 N 470.036 -0.519951 1.48776 0
M  V30 4974 C 470.946 -1.65025 1.66745 0
M  V30 4975 C 471.962 -1.6508 0.549954 0
M  V30 4976 O 473.138 -1.83848 0.822295 0
M  V30 4977 C 470.203 -3.0146 1.71238 0
M  V30 4978 C 469.264 -3.12182 2.94688 0
M  V30 4979 C 468.497 -4.42109 2.98958 0
M  V30 4980 O 468.72 -5.29799 2.1135 0
M  V30 4981 O 467.654 -4.57406 3.91233 0
M  V30 4982 H 471.48 -1.52801 2.62461 0
M  V30 4983 H 469.065 -0.694157 1.32294 0
M  V30 4984 H 470.947 -3.82584 1.76657 0
M  V30 4985 H 469.622 -3.13988 0.786975 0
M  V30 4986 H 468.529 -2.30316 2.94797 0
M  V30 4987 H 469.862 -3.04574 3.86646 0
M  V30 4988 N 471.514 -1.37532 -0.769588 0
M  V30 4989 C 472.444 -1.36172 -1.89682 0
M  V30 4990 C 473.425 -0.23001 -1.68538 0
M  V30 4991 O 474.61 -0.43069 -1.89364 0
M  V30 4992 C 471.74 -1.1701 -3.26995 0
M  V30 4993 C 470.694 -2.27216 -3.62708 0
M  V30 4994 C 470.02 -1.93174 -4.98586 0
M  V30 4995 C 471.32 -3.6941 -3.69234 0
M  V30 4996 H 473.014 -2.30499 -1.91078 0
M  V30 4997 H 470.56 -1.10953 -0.917902 0
M  V30 4998 H 472.513 -1.14688 -4.05493 0
M  V30 4999 H 471.237 -0.191395 -3.26039 0
M  V30 5000 H 469.896 -2.28697 -2.86519 0
M  V30 5001 H 469.544 -0.938281 -4.94171 0
M  V30 5002 H 469.244 -2.66973 -5.23449 0
M  V30 5003 H 470.768 -1.92443 -5.79481 0
M  V30 5004 H 472.182 -3.70047 -4.37879 0
M  V30 5005 H 470.579 -4.4228 -4.05597 0
M  V30 5006 H 471.649 -4.0288 -2.69844 0
M  V30 5007 N 472.992 0.995999 -1.22138 0
M  V30 5008 C 474.217 1.77601 -1.0711 0
M  V30 5009 C 474.642 1.84339 0.374264 0
M  V30 5010 O 474 1.29359 1.27028 0
M  V30 5011 C 474.048 3.18897 -1.68336 0
M  V30 5012 O 473.152 4.01663 -0.934928 0
M  V30 5013 H 472.493 0.547011 -0.376397 0
M  V30 5014 H 475.023 1.25137 -1.6187 0
M  V30 5015 H 475.033 3.69539 -1.72931 0
M  V30 5016 H 473.708 3.13308 -2.73516 0
M  V30 5017 H 472.285 3.60204 -0.964751 0
M  V30 5018 N 474.47 1.03057 1.19235 0
M  V30 5019 C 475.4 0.633497 2.24742 0
M  V30 5020 C 476.381 -0.358335 1.66283 0
M  V30 5021 O 477.566 -0.240676 1.92703 0
M  V30 5022 C 474.696 -0.0147648 3.47297 0
M  V30 5023 C 473.65 0.899527 4.18441 0
M  V30 5024 C 472.976 0.116281 5.34574 0
M  V30 5025 C 474.276 2.21404 4.73051 0
M  V30 5026 H 475.97 1.5155 2.58211 0
M  V30 5027 H 473.516 0.73014 1.24117 0
M  V30 5028 H 475.469 -0.304202 4.20301 0
M  V30 5029 H 474.193 -0.931577 3.13032 0
M  V30 5030 H 472.852 1.17319 3.47321 0
M  V30 5031 H 472.5 -0.802619 4.96555 0
M  V30 5032 H 472.2 0.725293 5.83107 0
M  V30 5033 H 473.724 -0.166376 6.10373 0
M  V30 5034 H 475.138 1.98601 5.37802 0
M  V30 5035 H 473.535 2.77512 5.32078 0
M  V30 5036 H 474.605 2.86752 3.91026 0
M  V30 5037 N 475.948 -1.35272 0.808662 0
M  V30 5038 C 476.858 -2.33546 0.222079 0
M  V30 5039 C 477.874 -1.6196 -0.636011 0
M  V30 5040 O 479.05 -1.93822 -0.547274 0
M  V30 5041 C 476.115 -3.41148 -0.61795 0
M  V30 5042 C 475.176 -4.28507 0.260875 0
M  V30 5043 C 474.409 -5.3097 -0.539156 0
M  V30 5044 O 474.632 -5.42123 -1.77367 0
M  V30 5045 O 473.566 -6.01858 0.0710526 0
M  V30 5046 H 477.392 -2.85515 1.03512 0
M  V30 5047 H 474.977 -1.38079 0.570495 0
M  V30 5048 H 476.859 -4.06889 -1.09634 0
M  V30 5049 H 475.534 -2.91447 -1.40855 0
M  V30 5050 H 474.441 -3.6574 0.786451 0
M  V30 5051 H 475.774 -4.81611 1.01547 0
M  V30 5052 N 477.426 -0.562348 -1.47226 0
M  V30 5053 C 478.703 0.0256985 -1.95583 0
M  V30 5054 C 479.083 1.48032 -1.50498 0
M  V30 5055 O 478.431 2.15973 -0.746181 0
M  V30 5056 C 478.641 -0.125129 -3.48776 0
M  V30 5057 C 479.989 0.0175728 -4.24596 0
M  V30 5058 O 481.013 -0.0529341 -3.56161 0
M  V30 5059 O 479.872 0.170145 -5.46235 0
M  V30 5060 H 476.966 0.0612565 -0.824728 0
M  V30 5061 H 479.512 -0.629233 -1.57603 0
M  V30 5062 H 478.284 -1.13715 -3.74412 0
M  V30 5063 H 477.907 0.567178 -3.93534 0
M  V30 5064 N 478.904 1.54736 -0.299062 0
M  V30 5065 C 480.151 2.00101 0.310784 0
M  V30 5066 C 480.479 1.18746 1.54045 0
M  V30 5067 O 479.734 0.251198 1.94081 0
M  V30 5068 C 480.033 3.50199 0.713835 0
M  V30 5069 C 479.699 4.48997 -0.413873 0
M  V30 5070 C 478.361 4.7573 -0.723462 0
M  V30 5071 C 480.713 5.07839 -1.17257 0
M  V30 5072 C 478.041 5.5857 -1.79491 0
M  V30 5073 C 480.393 5.91844 -2.23392 0
M  V30 5074 C 479.057 6.16889 -2.54959 0
M  V30 5075 H 478.327 0.732221 0.113724 0
M  V30 5076 H 480.974 1.86888 -0.417756 0
M  V30 5077 H 479.279 3.61012 1.52243 0
M  V30 5078 H 480.976 3.82723 1.19684 0
M  V30 5079 H 477.566 4.28292 -0.162476 0
M  V30 5080 H 481.75 4.87188 -0.946651 0
M  V30 5081 H 477.006 5.76213 -2.04423 0
M  V30 5082 H 481.18 6.36465 -2.8264 0
M  V30 5083 H 478.807 6.80869 -3.38114 0
M  V30 5084 N 480.382 0.0267497 1.57577 0
M  V30 5085 C 481.312 -0.954308 2.13108 0
M  V30 5086 C 482.293 -1.34088 1.04663 0
M  V30 5087 O 483.478 -1.41992 1.32484 0
M  V30 5088 C 480.608 -2.23744 2.65624 0
M  V30 5089 C 479.562 -1.99168 3.78835 0
M  V30 5090 C 478.888 -3.33726 4.17769 0
M  V30 5091 C 480.188 -1.33277 5.0501 0
M  V30 5092 H 481.882 -0.491848 2.95332 0
M  V30 5093 H 479.428 -0.23514 1.42067 0
M  V30 5094 H 481.381 -2.92754 3.03106 0
M  V30 5095 H 480.105 -2.72151 1.80558 0
M  V30 5096 H 478.764 -1.32577 3.41788 0
M  V30 5097 H 478.412 -3.79888 3.29688 0
M  V30 5098 H 478.112 -3.18089 4.94058 0
M  V30 5099 H 479.636 -4.04008 4.57832 0
M  V30 5100 H 481.05 -1.92283 5.40093 0
M  V30 5101 H 479.447 -1.28045 5.8628 0
M  V30 5102 H 480.517 -0.305411 4.83937 0
M  V30 5103 N 481.861 -1.55662 -0.24637 0
M  V30 5104 C 482.808 -1.90361 -1.30504 0
M  V30 5105 C 483.778 -0.757905 -1.47801 0
M  V30 5106 O 484.963 -1.01161 -1.61775 0
M  V30 5107 C 482.103 -2.2042 -2.65535 0
M  V30 5108 C 481.216 -3.47799 -2.56242 0
M  V30 5109 C 480.351 -3.67426 -3.8363 0
M  V30 5110 C 479.39 -4.88403 -3.68956 0
M  V30 5111 N 478.527 -5.04548 -4.88237 0
M  V30 5112 H 483.367 -2.80645 -1.00213 0
M  V30 5113 H 480.904 -1.38924 -0.483577 0
M  V30 5114 H 482.862 -2.35853 -3.44135 0
M  V30 5115 H 481.492 -1.3334 -2.93973 0
M  V30 5116 H 480.544 -3.40694 -1.69208 0
M  V30 5117 H 481.856 -4.36544 -2.4131 0
M  V30 5118 H 481.01 -3.82821 -4.70673 0
M  V30 5119 H 479.749 -2.76914 -4.01459 0
M  V30 5120 H 478.754 -4.72984 -2.80296 0
M  V30 5121 H 479.979 -5.80375 -3.52621 0
M  V30 5122 H 477.925 -4.16974 -5.06427 0
M  V30 5123 H 477.842 -5.87384 -4.75937 0
M  V30 5124 H 479.11 -5.24355 -5.76777 0
M  V30 5125 N 483.339 0.512053 -1.4905 0
M  V30 5126 C 484.271 1.63121 -1.6101 0
M  V30 5127 C 485.284 1.55145 -0.493352 0
M  V30 5128 O 486.473 1.61278 -0.764955 0
M  V30 5129 C 483.573 3.01863 -1.54052 0
M  V30 5130 C 482.746 3.35138 -2.81072 0
M  V30 5131 C 481.805 4.5324 -2.67319 0
M  V30 5132 O 480.831 4.55571 -3.41238 0
M  V30 5133 N 482.033 5.52495 -1.78127 0
M  V30 5134 H 484.798 1.53292 -2.5753 0
M  V30 5135 H 482.359 0.699706 -1.45999 0
M  V30 5136 H 484.351 3.78774 -1.42521 0
M  V30 5137 H 482.921 3.05675 -0.654345 0
M  V30 5138 H 482.141 2.4723 -3.07036 0
M  V30 5139 H 483.429 3.54162 -3.65304 0
M  V30 5140 H 482.827 5.53403 -1.17308 0
M  V30 5141 H 481.384 6.28553 -1.72525 0
M  V30 5142 N 484.817 1.37938 0.762283 0
M  V30 5143 C 485.75 1.2884 1.88349 0
M  V30 5144 C 486.728 0.167084 1.61739 0
M  V30 5145 O 487.912 0.34292 1.85355 0
M  V30 5146 C 485.039 0.994257 3.23778 0
M  V30 5147 C 484.085 2.13376 3.69287 0
M  V30 5148 S 484.918 3.75439 3.81845 0
M  V30 5149 C 486.074 3.48195 5.20107 0
M  V30 5150 H 486.307 2.23736 1.95779 0
M  V30 5151 H 483.84 1.23672 0.924368 0
M  V30 5152 H 485.798 0.83138 4.01993 0
M  V30 5153 H 484.459 0.0626251 3.14038 0
M  V30 5154 H 483.652 1.88319 4.67495 0
M  V30 5155 H 483.254 2.25726 2.98201 0
M  V30 5156 H 485.546 3.0377 6.05583 0
M  V30 5157 H 486.489 4.45765 5.50181 0
M  V30 5158 H 486.897 2.82905 4.88493 0
M  V30 5159 N 486.295 -0.989507 1.22664 0
M  V30 5160 C 487.227 -2.0824 0.957542 0
M  V30 5161 C 488.24 -1.6267 -0.0651098 0
M  V30 5162 O 489.429 -1.77695 0.169312 0
M  V30 5163 C 486.529 -3.36298 0.419145 0
M  V30 5164 C 485.702 -4.10882 1.49982 0
M  V30 5165 C 484.761 -5.17221 0.967904 0
M  V30 5166 O 483.787 -5.44613 1.65487 0
M  V30 5167 N 484.989 -5.80124 -0.20896 0
M  V30 5168 H 487.754 -2.31904 1.89843 0
M  V30 5169 H 485.315 -1.15552 1.13399 0
M  V30 5170 H 487.307 -4.04671 0.0485451 0
M  V30 5171 H 485.877 -3.09671 -0.426937 0
M  V30 5172 H 485.097 -3.37092 2.04359 0
M  V30 5173 H 486.385 -4.57482 2.22682 0
M  V30 5174 H 485.783 -5.60244 -0.783818 0
M  V30 5175 H 484.34 -6.49715 -0.520913 0
M  V30 5176 N 487.773 -1.03688 -1.18687 0
M  V30 5177 C 488.721 -0.618292 -2.24232 0
M  V30 5178 C 489.715 0.353045 -1.6568 0
M  V30 5179 O 490.921 0.220749 -1.78641 0
M  V30 5180 H 487.296 -0.181711 -0.729716 0
M  V30 5181 H 489.267 -1.51893 -2.56848 0
M  V30 5182 C 488.016 0.00677342 -3.47699 0
M  V30 5183 H 487.339 -0.731692 -3.93047 0
M  V30 5184 H 488.779 0.262492 -4.23187 0
M  V30 5185 C 487.238 1.25572 -3.12623 0
M  V30 5186 O 487.768 2.34691 -3.26011 0
M  V30 5187 N 485.974 1.14755 -2.66982 0
M  V30 5188 H 485.521 0.259601 -2.56289 0
M  V30 5189 H 485.479 1.98412 -2.43885 0
M  V30 5190 N 489.251 1.34841 -0.815825 0
M  V30 5191 C 490.181 2.32187 -0.247298 0
M  V30 5192 C 491.162 1.5791 0.632344 0
M  V30 5193 O 492.347 1.8593 0.560698 0
M  V30 5194 C 489.477 3.42122 0.597466 0
M  V30 5195 C 488.431 4.27602 -0.184446 0
M  V30 5196 C 487.757 5.28942 0.782609 0
M  V30 5197 C 489.057 5.03502 -1.38865 0
M  V30 5198 H 490.751 2.79985 -1.06061 0
M  V30 5199 H 488.297 1.34611 -0.511461 0
M  V30 5200 H 490.25 4.09232 1.00533 0
M  V30 5201 H 488.974 2.92956 1.44376 0
M  V30 5202 H 487.633 3.62085 -0.573592 0
M  V30 5203 H 487.281 4.7604 1.62466 0
M  V30 5204 H 486.981 5.87008 0.263695 0
M  V30 5205 H 488.505 5.98922 1.18848 0
M  V30 5206 H 489.919 5.63506 -1.05518 0
M  V30 5207 H 488.316 5.71108 -1.8427 0
M  V30 5208 H 489.386 4.33608 -2.17054 0
M  V30 5209 N 490.729 0.570148 1.46925 0
M  V30 5210 C 491.676 -0.170257 2.30171 0
M  V30 5211 C 492.646 -0.896099 1.39855 0
M  V30 5212 O 493.831 -0.889248 1.68811 0
M  V30 5213 C 490.971 -1.18605 3.24079 0
M  V30 5214 C 490.084 -0.464947 4.29491 0
M  V30 5215 C 489.219 -1.46716 5.10537 0
M  V30 5216 C 488.258 -0.731758 6.0771 0
M  V30 5217 N 487.395 -1.68142 6.81669 0
M  V30 5218 H 492.235 0.545713 2.92961 0
M  V30 5219 H 489.772 0.280938 1.44392 0
M  V30 5220 H 491.73 -1.78771 3.76957 0
M  V30 5221 H 490.36 -1.86989 2.63125 0
M  V30 5222 H 489.412 0.251506 3.79568 0
M  V30 5223 H 490.724 0.110548 4.98677 0
M  V30 5224 H 489.878 -2.14199 5.6763 0
M  V30 5225 H 488.617 -2.07658 4.41282 0
M  V30 5226 H 487.622 -0.0430787 5.49783 0
M  V30 5227 H 488.847 -0.127904 6.7898 0
M  V30 5228 H 486.793 -2.27918 6.15134 0
M  V30 5229 H 486.71 -1.15841 7.47072 0
M  V30 5230 H 487.978 -2.347 7.43328 0
M  V30 5231 N 492.207 -1.54576 0.307264 0
M  V30 5232 C 493.623 -1.59534 -0.0459251 0
M  V30 5233 C 493.823 -1.32414 -1.51884 0
M  V30 5234 O 492.879 -1.1006 -2.27251 0
M  V30 5235 C 494.192 -2.98566 0.357649 0
M  V30 5236 C 495.74 -3.11491 0.306937 0
M  V30 5237 C 496.215 -4.52842 0.685427 0
M  V30 5238 N 497.706 -4.58782 0.638203 0
M  V30 5239 C 498.441 -5.66238 0.903458 0
M  V30 5240 N 497.937 -6.81703 1.23501 0
M  V30 5241 N 499.73 -5.55937 0.830102 0
M  V30 5242 H 491.881 -1.70464 1.26712 0
M  V30 5243 H 494.144 -0.79647 0.514139 0
M  V30 5244 H 493.85 -3.23356 1.38325 0
M  V30 5245 H 493.724 -3.76117 -0.285565 0
M  V30 5246 H 496.111 -2.86446 -0.709424 0
M  V30 5247 H 496.192 -2.36081 0.984861 0
M  V30 5248 H 495.836 -4.78618 1.69963 0
M  V30 5249 H 495.766 -5.26598 -0.0146346 0
M  V30 5250 H 498.257 -3.75849 0.393138 0
M  V30 5251 H 498.57 -7.59582 1.42322 0
M  V30 5252 H 496.915 -6.8324 1.27311 0
M  V30 5253 H 500.106 -4.64608 0.570693 0
M  V30 5254 H 500.279 -6.39597 1.04019 0
M  V30 5255 N 493.685 -0.035106 -1.57561 0
M  V30 5256 C 494.615 0.942993 -2.13612 0
M  V30 5257 C 495.596 1.33531 -1.05373 0
M  V30 5258 O 496.781 1.41287 -1.33235 0
M  V30 5259 C 493.911 2.22332 -2.66807 0
M  V30 5260 C 492.865 1.97156 -3.79886 0
M  V30 5261 C 492.191 3.31506 -4.19533 0
M  V30 5262 C 493.491 1.30596 -5.05709 0
M  V30 5263 H 495.185 0.476179 -2.95589 0
M  V30 5264 H 492.731 0.227602 -1.4219 0
M  V30 5265 H 494.684 2.91142 -3.04654 0
M  V30 5266 H 493.408 2.7119 -1.81999 0
M  V30 5267 H 492.067 1.30763 -3.42486 0
M  V30 5268 H 491.715 3.78134 -3.31698 0
M  V30 5269 H 491.415 3.15465 -4.95738 0
M  V30 5270 H 492.939 4.01574 -4.59968 0
M  V30 5271 H 494.353 1.89416 -5.41105 0
M  V30 5272 H 492.75 1.24934 -5.86951 0
M  V30 5273 H 493.82 0.279742 -4.84092 0
M  V30 5274 N 495.163 1.55791 0.238111 0
M  V30 5275 C 496.411 1.77681 0.963001 0
M  V30 5276 C 496.732 0.600674 1.85518 0
M  V30 5277 O 496.002 -0.383182 1.92116 0
M  V30 5278 H 494.582 0.655315 0.358568 0
M  V30 5279 H 497.244 1.93239 0.253945 0
M  V30 5280 H 496.34 2.69177 1.57956 0
M  V30 5281 N 496.642 -0.504142 1.49319 0
M  V30 5282 C 498.053 -1.08572 1.51885 0
M  V30 5283 C 498.404 -1.93842 0.303255 0
M  V30 5284 O 497.529 -2.0828 -0.58724 0
M  V30 5285 C 498.124 -1.97574 2.75227 0
M  V30 5286 C 496.683 -2.509 2.80581 0
M  V30 5287 C 495.83 -1.28447 2.45757 0
M  V30 5288 H 498.781 -0.288194 1.56061 0
M  V30 5289 H 498.802 -2.82219 2.55211 0
M  V30 5290 H 498.314 -1.35486 3.63683 0
M  V30 5291 H 496.415 -3.16636 1.96398 0
M  V30 5292 H 496.528 -2.88268 3.82673 0
M  V30 5293 H 494.892 -1.60868 1.97468 0
M  V30 5294 H 495.675 -0.68072 3.36483 0
M  V30 5295 N 498.12 -1.38341 -0.754957 0
M  V30 5296 C 499.367 -1.34473 -1.51404 0
M  V30 5297 C 499.695 0.0656458 -1.94389 0
M  V30 5298 O 498.95 1.04244 -1.65625 0
M  V30 5299 C 499.249 -2.2452 -2.78075 0
M  V30 5300 C 498.915 -3.72512 -2.54059 0
M  V30 5301 C 497.577 -4.1284 -2.47218 0
M  V30 5302 C 499.929 -4.66197 -2.33044 0
M  V30 5303 C 497.257 -5.44945 -2.17376 0
M  V30 5304 C 499.609 -5.98558 -2.04723 0
M  V30 5305 C 498.273 -6.37972 -1.96337 0
M  V30 5306 H 497.543 -0.492072 -0.554027 0
M  V30 5307 H 500.19 -1.70687 -0.868223 0
M  V30 5308 H 498.495 -1.81357 -3.473 0
M  V30 5309 H 500.192 -2.18832 -3.36026 0
M  V30 5310 H 496.782 -3.40538 -2.60253 0
M  V30 5311 H 500.966 -4.35888 -2.37309 0
M  V30 5312 H 496.222 -5.74426 -2.09391 0
M  V30 5313 H 500.396 -6.70693 -1.87465 0
M  V30 5314 H 498.023 -7.40258 -1.72978 0
M  V30 5315 N 499.598 0.982988 -1.23187 0
M  V30 5316 C 500.823 1.76455 -1.08988 0
M  V30 5317 C 501.248 1.84726 0.354691 0
M  V30 5318 O 500.606 1.30699 1.25649 0
M  V30 5319 C 500.654 3.17094 -1.71708 0
M  V30 5320 O 499.758 4.00648 -0.977477 0
M  V30 5321 H 499.099 0.542988 -0.382177 0
M  V30 5322 H 501.629 1.23413 -1.63188 0
M  V30 5323 H 501.639 3.67684 -1.76841 0
M  V30 5324 H 500.314 3.10389 -2.76823 0
M  V30 5325 H 498.891 3.59161 -1.0029 0
M  V30 5326 N 501.076 1.04316 1.18135 0
M  V30 5327 C 501.986 0.646876 2.25505 0
M  V30 5328 C 503.002 -0.328008 1.7088 0
M  V30 5329 O 504.178 -0.182309 2.00573 0
M  V30 5330 C 501.243 0.0185664 3.46695 0
M  V30 5331 C 500.304 1.04277 4.16443 0
M  V30 5332 C 499.537 0.444352 5.31847 0
M  V30 5333 O 499.76 -0.748735 5.65465 0
M  V30 5334 O 498.694 1.17428 5.90334 0
M  V30 5335 H 502.52 1.54147 2.61672 0
M  V30 5336 H 500.105 0.814188 1.25265 0
M  V30 5337 H 501.987 -0.331068 4.20097 0
M  V30 5338 H 500.662 -0.849814 3.12346 0
M  V30 5339 H 499.569 1.44425 3.45098 0
M  V30 5340 H 500.902 1.882 4.54798 0
M  V30 5341 N 502.554 -1.34406 0.822964 0
M  V30 5342 C 503.803 -1.97542 0.407458 0
M  V30 5343 C 504.116 -1.65973 -1.035 0
M  V30 5344 O 505.322 -2.22598 -1.55442 0
M  V30 5345 C 503.778 -3.53463 0.677623 0
M  V30 5346 C 503.386 -3.93925 2.1337 0
M  V30 5347 C 505.13 -4.23229 0.328284 0
M  V30 5348 C 503.037 -5.42759 2.34876 0
M  V30 5349 H 501.967 -0.739207 0.148623 0
M  V30 5350 H 504.618 -1.53248 1.00932 0
M  V30 5351 H 503 -3.96 0.00558965 0
M  V30 5352 H 504.174 -3.62494 2.8449 0
M  V30 5353 H 502.489 -3.37097 2.44448 0
M  V30 5354 H 505.086 -5.32659 0.466794 0
M  V30 5355 H 505.429 -4.09899 -0.727224 0
M  V30 5356 H 505.962 -3.86169 0.954896 0
M  V30 5357 H 502.701 -5.61075 3.38932 0
M  V30 5358 H 502.221 -5.75704 1.68299 0
M  V30 5359 H 503.9 -6.0944 2.17236 0
M  V30 5360 N 504.032 -0.577932 -1.46621 0
M  V30 5361 C 504.962 0.145917 -2.33044 0
M  V30 5362 C 505.943 0.888412 -1.45056 0
M  V30 5363 O 507.128 0.864812 -1.73881 0
M  V30 5364 C 504.258 1.16322 -3.27241 0
M  V30 5365 C 503.212 0.535868 -4.24632 0
M  V30 5366 C 502.538 1.65929 -5.08303 0
M  V30 5367 C 503.838 -0.523861 -5.19666 0
M  V30 5368 H 505.532 -0.575636 -2.93814 0
M  V30 5369 H 503.078 -0.278272 -1.41286 0
M  V30 5370 H 505.031 1.67793 -3.86553 0
M  V30 5371 H 503.755 1.91498 -2.64567 0
M  V30 5372 H 502.414 0.0422759 -3.66576 0
M  V30 5373 H 502.062 2.40061 -4.42018 0
M  V30 5374 H 501.762 1.2452 -5.74255 0
M  V30 5375 H 503.286 2.17686 -5.70478 0
M  V30 5376 H 504.7 -0.0944059 -5.73222 0
M  V30 5377 H 503.097 -0.858 -5.93935 0
M  V30 5378 H 504.167 -1.41197 -4.63887 0
M  V30 5379 N 505.51 1.54411 -0.315457 0
M  V30 5380 C 506.758 2.00023 0.288971 0
M  V30 5381 C 507.079 1.20529 1.5329 0
M  V30 5382 O 506.349 0.304986 1.93511 0
M  V30 5383 H 504.929 0.738891 0.109766 0
M  V30 5384 H 507.591 1.90094 -0.430129 0
M  V30 5385 H 506.687 3.07198 0.550999 0
M  V30 5386 N 506.988 0.0434614 1.5754 0
M  V30 5387 C 507.918 -0.931651 2.14109 0
M  V30 5388 C 508.899 -1.32971 1.06079 0
M  V30 5389 O 510.084 -1.40579 1.33982 0
M  V30 5390 C 507.214 -2.20914 2.67982 0
M  V30 5391 C 506.168 -1.95139 3.80926 0
M  V30 5392 C 505.494 -3.29276 4.21285 0
M  V30 5393 C 506.794 -1.27913 5.06395 0
M  V30 5394 H 508.488 -0.460497 2.95837 0
M  V30 5395 H 506.034 -0.220058 1.42309 0
M  V30 5396 H 507.987 -2.89522 3.06194 0
M  V30 5397 H 506.711 -2.70221 1.83434 0
M  V30 5398 H 505.37 -1.28945 3.43175 0
M  V30 5399 H 505.018 -3.76369 3.33699 0
M  V30 5400 H 504.718 -3.12831 4.97404 0
M  V30 5401 H 506.242 -3.99129 4.62091 0
M  V30 5402 H 507.656 -1.86544 5.42102 0
M  V30 5403 H 506.053 -1.2182 5.87605 0
M  V30 5404 H 507.123 -0.254066 4.84234 0
M  V30 5405 N 508.466 -1.55915 -0.229846 0
M  V30 5406 C 509.396 -1.94754 -1.28815 0
M  V30 5407 C 510.377 -0.814657 -1.49323 0
M  V30 5408 O 511.562 -1.07631 -1.61645 0
M  V30 5409 C 508.692 -2.25705 -2.63959 0
M  V30 5410 C 507.646 -3.41406 -2.5812 0
M  V30 5411 C 506.972 -3.57941 -3.97218 0
M  V30 5412 C 508.272 -4.76616 -2.13623 0
M  V30 5413 H 509.966 -2.83404 -0.965547 0
M  V30 5414 H 507.512 -1.36353 -0.463028 0
M  V30 5415 H 509.465 -2.51467 -3.38146 0
M  V30 5416 H 508.189 -1.339 -2.9789 0
M  V30 5417 H 506.848 -3.1568 -1.86391 0
M  V30 5418 H 506.496 -2.63526 -4.28443 0
M  V30 5419 H 506.196 -4.35757 -3.94195 0
M  V30 5420 H 507.72 -3.86042 -4.73079 0
M  V30 5421 H 509.134 -5.01637 -2.77549 0
M  V30 5422 H 507.531 -5.57655 -2.21677 0
M  V30 5423 H 508.601 -4.7253 -1.08829 0
M  V30 5424 N 509.944 0.496216 -1.49584 0
M  V30 5425 C 511.355 1.07765 -1.52459 0
M  V30 5426 C 511.706 1.93679 -0.31353 0
M  V30 5427 O 510.831 2.08588 0.576186 0
M  V30 5428 C 511.426 1.96111 -2.76271 0
M  V30 5429 C 509.985 2.49409 -2.81908 0
M  V30 5430 C 509.132 1.27142 -2.46435 0
M  V30 5431 H 512.083 0.279914 -1.56212 0
M  V30 5432 H 512.104 2.80862 -2.56704 0
M  V30 5433 H 511.616 1.33555 -3.64396 0
M  V30 5434 H 509.717 3.1559 -1.98074 0
M  V30 5435 H 509.83 2.86234 -3.84196 0
M  V30 5436 H 508.194 1.59818 -1.98319 0
M  V30 5437 H 508.977 0.662866 -3.3684 0
M  V30 5438 N 511.423 1.38739 0.74761 0
M  V30 5439 C 512.671 1.35007 1.50391 0
M  V30 5440 C 512.992 -0.0574274 1.94915 0
M  V30 5441 O 512.262 -1.00628 1.6808 0
M  V30 5442 H 510.842 0.496784 0.557866 0
M  V30 5443 H 513.504 1.73479 0.888319 0
M  V30 5444 H 512.6 2.00474 2.392 0
M  V30 5445 N 512.901 -0.976442 1.23707 0
M  V30 5446 C 514.147 -1.72081 1.07312 0
M  V30 5447 C 514.48 -1.90275 -0.388476 0
M  V30 5448 O 513.755 -1.4579 -1.28746 0
M  V30 5449 C 514.038 -3.11675 1.80363 0
M  V30 5450 C 513.891 -3.01027 3.3422 0
M  V30 5451 C 515.21 -4.1117 1.5693 0
M  V30 5452 H 512.329 -0.624583 0.391236 0
M  V30 5453 H 514.971 -1.13649 1.52263 0
M  V30 5454 H 513.121 -3.61559 1.42153 0
M  V30 5455 H 514.793 -2.58637 3.81975 0
M  V30 5456 H 513.036 -2.3744 3.63049 0
M  V30 5457 H 513.707 -3.9988 3.80525 0
M  V30 5458 H 516.183 -3.7011 1.90151 0
M  V30 5459 H 515.059 -5.06928 2.10513 0
M  V30 5460 H 515.32 -4.392 0.505548 0
M  V30 5461 N 514.379 -1.04941 -1.1758 0
M  V30 5462 C 515.79 -0.784501 -1.69418 0
M  V30 5463 C 516.141 0.693625 -1.8353 0
M  V30 5464 O 515.266 1.53925 -1.52106 0
M  V30 5465 C 515.861 -1.41746 -3.07723 0
M  V30 5466 C 514.42 -1.20066 -3.56737 0
M  V30 5467 C 513.567 -1.5026 -2.33061 0
M  V30 5468 H 516.518 -1.21469 -1.02133 0
M  V30 5469 H 516.539 -0.825381 -3.7144 0
M  V30 5470 H 516.051 -2.49325 -2.9742 0
M  V30 5471 H 514.152 -0.144006 -3.72322 0
M  V30 5472 H 514.265 -1.90384 -4.39648 0
M  V30 5473 H 512.629 -0.922598 -2.37403 0
M  V30 5474 H 513.412 -2.58967 -2.25368 0
M  V30 5475 N 515.857 1.33968 -0.830081 0
M  V30 5476 C 516.789 2.28194 -0.21448 0
M  V30 5477 C 517.802 1.5135 0.599752 0
M  V30 5478 O 518.991 1.73286 0.42826 0
M  V30 5479 C 516.091 3.31221 0.717356 0
M  V30 5480 C 515.264 4.37365 -0.055613 0
M  V30 5481 C 514.323 5.2011 0.798231 0
M  V30 5482 O 513.349 5.68691 0.240616 0
M  V30 5483 N 514.551 5.40523 2.11695 0
M  V30 5484 H 517.316 2.81662 -1.02405 0
M  V30 5485 H 514.877 1.46568 -0.687713 0
M  V30 5486 H 516.869 3.83477 1.29334 0
M  V30 5487 H 515.439 2.78095 1.42765 0
M  V30 5488 H 514.659 3.85727 -0.812936 0
M  V30 5489 H 515.947 5.05397 -0.587444 0
M  V30 5490 H 515.345 5.0274 2.59363 0
M  V30 5491 H 513.902 5.95871 2.64162 0
M  V30 5492 N 517.335 0.585699 1.46312 0
M  V30 5493 C 518.583 0.072278 2.01971 0
M  V30 5494 C 518.904 -1.29345 1.45928 0
M  V30 5495 O 518.174 -1.84973 0.645109 0
M  V30 5496 H 516.754 0.023729 0.746623 0
M  V30 5497 H 519.416 0.762155 1.7938 0
M  V30 5498 H 518.512 0.00552767 3.121 0
M  V30 5499 N 518.813 -1.54241 0.323641 0
M  V30 5500 C 519.743 -2.27289 -0.534993 0
M  V30 5501 C 520.724 -1.28087 -1.11927 0
M  V30 5502 O 521.909 -1.56899 -1.14439 0
M  V30 5503 C 519.039 -3.03075 -1.69596 0
M  V30 5504 C 517.993 -4.09614 -1.24098 0
M  V30 5505 C 517.319 -4.73242 -2.4889 0
M  V30 5506 C 518.619 -5.21087 -0.355789 0
M  V30 5507 H 520.313 -2.99308 0.0743257 0
M  V30 5508 H 517.859 -1.43952 0.0371874 0
M  V30 5509 H 519.812 -3.52907 -2.30293 0
M  V30 5510 H 518.536 -2.28673 -2.33187 0
M  V30 5511 H 517.195 -3.60666 -0.656945 0
M  V30 5512 H 516.843 -3.95455 -3.10845 0
M  V30 5513 H 516.543 -5.45209 -2.19138 0
M  V30 5514 H 518.067 -5.25848 -3.10348 0
M  V30 5515 H 519.481 -5.66675 -0.869042 0
M  V30 5516 H 517.878 -5.9991 -0.151045 0
M  V30 5517 H 518.948 -4.81005 0.613339 0
M  V30 5518 N 520.291 -0.0518155 -1.57515 0
M  V30 5519 C 521.238 0.922352 -2.11569 0
M  V30 5520 C 522.208 1.30842 -1.02321 0
M  V30 5521 O 523.393 1.39778 -1.29872 0
M  V30 5522 C 520.533 2.19167 -2.6657 0
M  V30 5523 C 519.646 1.86003 -3.89906 0
M  V30 5524 C 518.781 3.07398 -4.33221 0
M  V30 5525 C 517.82 2.70158 -5.49255 0
M  V30 5526 N 516.957 3.84248 -5.8762 0
M  V30 5527 H 521.797 0.454506 -2.94514 0
M  V30 5528 H 519.334 0.212718 -1.45554 0
M  V30 5529 H 521.292 2.93443 -2.96559 0
M  V30 5530 H 519.922 2.63528 -1.86421 0
M  V30 5531 H 518.974 1.01874 -3.66505 0
M  V30 5532 H 520.286 1.54592 -4.74239 0
M  V30 5533 H 519.44 3.89972 -4.64765 0
M  V30 5534 H 518.179 3.41988 -3.477 0
M  V30 5535 H 517.184 1.86001 -5.17382 0
M  V30 5536 H 518.409 2.36759 -6.36492 0
M  V30 5537 H 516.355 4.18638 -5.05053 0
M  V30 5538 H 516.272 3.56538 -6.66646 0
M  V30 5539 H 517.54 4.6746 -6.2378 0
M  V30 5540 N 521.769 1.56035 0.221574 0
M  V30 5541 C 523.015 1.79312 0.947372 0
M  V30 5542 C 523.348 0.621453 1.83988 0
M  V30 5543 O 522.623 -0.379287 1.90766 0
M  V30 5544 C 522.906 3.1267 1.78633 0
M  V30 5545 C 522.759 4.40284 0.920312 0
M  V30 5546 C 524.078 3.4247 2.7641 0
M  V30 5547 H 521.197 0.652328 0.342982 0
M  V30 5548 H 523.839 1.88765 0.216244 0
M  V30 5549 H 521.989 3.04741 2.40967 0
M  V30 5550 H 523.661 4.60232 0.313718 0
M  V30 5551 H 521.904 4.33212 0.225734 0
M  V30 5552 H 522.575 5.30033 1.54171 0
M  V30 5553 H 525.051 3.50526 2.24211 0
M  V30 5554 H 523.927 4.3695 3.32213 0
M  V30 5555 H 524.188 2.64635 3.54148 0
M  V30 5556 N 523.247 -0.488276 1.49845 0
M  V30 5557 C 524.524 -1.24959 1.50481 0
M  V30 5558 C 524.904 -2.09735 0.239698 0
M  V30 5559 O 524.252 -2.14865 -0.777524 0
M  V30 5560 C 524.462 -2.0954 2.79095 0
M  V30 5561 C 525.81 -2.68305 3.29086 0
M  V30 5562 O 526.834 -2.19797 2.80299 0
M  V30 5563 O 525.693 -3.56643 4.14087 0
M  V30 5564 H 522.787 -0.566133 0.602845 0
M  V30 5565 H 525.333 -0.501504 1.6212 0
M  V30 5566 H 524.105 -1.46958 3.62656 0
M  V30 5567 H 523.728 -2.91517 2.70377 0
M  V30 5568 N 524.725 -1.39134 -0.740242 0
M  V30 5569 C 525.635 -1.39697 -1.88473 0
M  V30 5570 C 526.651 -0.292403 -1.71526 0
M  V30 5571 O 527.827 -0.533021 -1.94219 0
M  V30 5572 C 524.892 -1.23382 -3.24003 0
M  V30 5573 C 523.953 -2.43763 -3.53381 0
M  V30 5574 C 523.186 -2.28216 -4.82445 0
M  V30 5575 O 523.409 -1.28288 -5.55786 0
M  V30 5576 O 522.343 -3.1709 -5.11603 0
M  V30 5577 H 526.169 -2.36159 -1.90952 0
M  V30 5578 H 523.754 -1.20194 -0.887346 0
M  V30 5579 H 525.636 -1.16395 -4.05006 0
M  V30 5580 H 524.311 -0.300121 -3.22306 0
M  V30 5581 H 523.218 -2.56325 -2.72485 0
M  V30 5582 H 524.551 -3.35808 -3.59852 0
M  V30 5583 N 526.204 0.969867 -1.24223 0
M  V30 5584 C 527.151 2.06407 -1.0327 0
M  V30 5585 C 528.121 1.66014 0.0533 0
M  V30 5586 O 529.306 1.90533 -0.100896 0
M  V30 5587 C 526.446 3.3909 -0.641262 0
M  V30 5588 C 525.559 3.9269 -1.80051 0
M  V30 5589 C 524.694 5.13631 -1.35486 0
M  V30 5590 C 523.733 5.59423 -2.48419 0
M  V30 5591 N 522.87 6.71586 -2.04737 0
M  V30 5592 H 527.71 2.23663 -1.96923 0
M  V30 5593 H 525.247 1.09624 -0.980862 0
M  V30 5594 H 527.205 4.15323 -0.395351 0
M  V30 5595 H 525.835 3.21765 0.258269 0
M  V30 5596 H 524.887 3.13116 -2.16014 0
M  V30 5597 H 526.199 4.22636 -2.64916 0
M  V30 5598 H 525.353 5.97231 -1.0677 0
M  V30 5599 H 524.092 4.85364 -0.476722 0
M  V30 5600 H 523.097 4.74398 -2.77897 0
M  V30 5601 H 524.322 5.89705 -3.36786 0
M  V30 5602 H 522.268 6.45058 -1.19318 0
M  V30 5603 H 522.185 7.0097 -2.83156 0
M  V30 5604 H 523.453 7.58633 -1.79154 0
M  V30 5605 N 527.682 1.05563 1.17022 0
M  V30 5606 C 528.645 0.664098 2.19368 0
M  V30 5607 C 529.645 -0.286358 1.5823 0
M  V30 5608 O 530.835 -0.069728 1.7406 0
M  V30 5609 C 527.967 -0.0239932 3.40892 0
M  V30 5610 H 529.16 1.57 2.55521 0
M  V30 5611 H 526.713 0.849964 1.31169 0
M  V30 5612 H 527.448 -0.942988 3.10287 0
M  V30 5613 H 527.233 0.659351 3.86516 0
M  V30 5614 H 528.723 -0.283909 4.16634 0
M  V30 5615 N 529.16 -1.33526 0.837174 0
M  V30 5616 C 530.409 -1.97098 0.428387 0
M  V30 5617 C 530.722 -1.67062 -1.01734 0
M  V30 5618 O 531.928 -2.24235 -1.53072 0
M  V30 5619 C 530.384 -3.52725 0.715075 0
M  V30 5620 C 529.992 -3.9164 2.17537 0
M  V30 5621 C 531.736 -4.22857 0.373154 0
M  V30 5622 C 529.643 -5.40237 2.40619 0
M  V30 5623 H 528.573 -0.737589 0.156455 0
M  V30 5624 H 531.224 -1.52169 1.02552 0
M  V30 5625 H 529.606 -3.95971 0.0475904 0
M  V30 5626 H 530.78 -3.59456 2.88319 0
M  V30 5627 H 529.095 -3.34485 2.4801 0
M  V30 5628 H 531.692 -5.32133 0.523264 0
M  V30 5629 H 532.035 -4.10647 -0.683708 0
M  V30 5630 H 532.568 -3.85135 0.995801 0
M  V30 5631 H 529.307 -5.57449 3.44864 0
M  V30 5632 H 528.827 -5.73887 1.74396 0
M  V30 5633 H 530.506 -6.07102 2.23688 0
M  V30 5634 N 530.638 -0.59345 -1.46 0
M  V30 5635 C 531.585 0.133618 -2.30413 0
M  V30 5636 C 532.555 0.873736 -1.41262 0
M  V30 5637 O 533.74 0.862279 -1.70204 0
M  V30 5638 C 530.88 1.13434 -3.25924 0
M  V30 5639 C 529.993 0.39656 -4.30176 0
M  V30 5640 C 529.128 1.38575 -5.12806 0
M  V30 5641 C 528.167 0.634984 -6.08797 0
M  V30 5642 N 527.304 1.57276 -6.84258 0
M  V30 5643 H 532.144 -0.592252 -2.92055 0
M  V30 5644 H 529.681 -0.303874 -1.43927 0
M  V30 5645 H 531.639 1.72752 -3.79753 0
M  V30 5646 H 530.269 1.82779 -2.66067 0
M  V30 5647 H 529.321 -0.311861 -3.79119 0
M  V30 5648 H 530.633 -0.189869 -4.98438 0
M  V30 5649 H 529.787 2.05141 -5.70966 0
M  V30 5650 H 528.526 2.00611 -4.44529 0
M  V30 5651 H 527.531 -0.0443925 -5.49782 0
M  V30 5652 H 528.756 0.0198678 -6.79097 0
M  V30 5653 H 526.702 2.18103 -6.18682 0
M  V30 5654 H 526.619 1.03941 -7.48821 0
M  V30 5655 H 527.887 2.22844 -7.46968 0
M  V30 5656 N 532.116 1.54067 -0.331816 0
M  V30 5657 C 533.532 1.59587 0.0205388 0
M  V30 5658 C 533.732 1.34813 1.49759 0
M  V30 5659 O 532.788 1.13661 2.25471 0
M  V30 5660 C 534.101 2.97959 -0.405103 0
M  V30 5661 C 535.649 3.10964 -0.356454 0
M  V30 5662 C 536.124 4.51694 -0.757384 0
M  V30 5663 N 537.615 4.57709 -0.71111 0
M  V30 5664 C 538.35 5.64729 -0.993427 0
M  V30 5665 N 537.846 6.79652 -1.3433 0
M  V30 5666 N 539.639 5.54546 -0.918442 0
M  V30 5667 H 531.79 1.68426 -1.29407 0
M  V30 5668 H 534.053 0.78819 -0.526745 0
M  V30 5669 H 533.759 3.21115 -1.43451 0
M  V30 5670 H 533.633 3.76524 0.225692 0
M  V30 5671 H 536.02 2.87538 0.663763 0
M  V30 5672 H 536.101 2.34484 -1.02229 0
M  V30 5673 H 535.745 4.75853 -1.77555 0
M  V30 5674 H 535.675 5.26555 -0.0691444 0
M  V30 5675 H 538.166 3.75176 -0.452883 0
M  V30 5676 H 538.479 7.57221 -1.54388 0
M  V30 5677 H 536.824 6.81128 -1.38164 0
M  V30 5678 H 540.015 4.63641 -0.644536 0
M  V30 5679 H 540.188 6.37861 -1.14181 0
M  V30 5680 N 533.594 0.0601682 1.57485 0
M  V30 5681 C 534.524 -0.90889 2.15085 0
M  V30 5682 C 535.505 -1.31838 1.07484 0
M  V30 5683 O 536.69 -1.3915 1.35466 0
M  V30 5684 C 533.82 -2.18059 2.7031 0
M  V30 5685 C 532.774 -1.91088 3.82974 0
M  V30 5686 C 532.1 -3.24789 4.24754 0
M  V30 5687 C 533.4 -1.22535 5.07723 0
M  V30 5688 H 535.094 -0.429093 2.96309 0
M  V30 5689 H 532.64 -0.204952 1.42534 0
M  V30 5690 H 534.593 -2.86258 3.09248 0
M  V30 5691 H 533.317 -2.6826 1.8629 0
M  V30 5692 H 531.976 -1.25297 3.44523 0
M  V30 5693 H 531.624 -3.72809 3.37672 0
M  V30 5694 H 531.324 -3.07538 5.00694 0
M  V30 5695 H 532.848 -3.94205 4.66299 0
M  V30 5696 H 534.262 -1.80783 5.4405 0
M  V30 5697 H 532.659 -1.1558 5.88864 0
M  V30 5698 H 533.729 -0.202692 4.84476 0
M  V30 5699 N 535.072 -1.5615 -0.213296 0
M  V30 5700 C 535.982 -1.96265 -1.28519 0
M  V30 5701 C 536.998 -0.86765 -1.50824 0
M  V30 5702 O 538.174 -1.17191 -1.63793 0
M  V30 5703 C 535.239 -2.27836 -2.61327 0
M  V30 5704 C 534.3 -3.50949 -2.47252 0
M  V30 5705 C 533.533 -3.81004 -3.73727 0
M  V30 5706 O 533.756 -3.12612 -4.77106 0
M  V30 5707 O 532.69 -4.74477 -3.70344 0
M  V30 5708 H 536.516 -2.87631 -0.974795 0
M  V30 5709 H 534.101 -1.43467 -0.416832 0
M  V30 5710 H 535.983 -2.49299 -3.39747 0
M  V30 5711 H 534.658 -1.39643 -2.9203 0
M  V30 5712 H 533.565 -3.34754 -1.67004 0
M  V30 5713 H 534.898 -4.39551 -2.21486 0
M  V30 5714 N 536.55 0.480323 -1.50102 0
M  V30 5715 C 537.513 1.56181 -1.6775 0
M  V30 5716 C 538.513 1.51156 -0.548503 0
M  V30 5717 O 539.703 1.5394 -0.815363 0
M  V30 5718 C 536.835 2.95823 -1.69415 0
M  V30 5719 H 538.028 1.41855 -2.6423 0
M  V30 5720 H 535.581 0.70605 -1.39444 0
M  V30 5721 H 536.316 3.15604 -0.745948 0
M  V30 5722 H 536.101 3.00878 -2.51425 0
M  V30 5723 H 537.591 3.74359 -1.85054 0
M  V30 5724 N 538.028 1.39524 0.732853 0
M  V30 5725 C 539.277 1.36175 1.48792 0
M  V30 5726 C 539.59 -0.0388195 1.95561 0
M  V30 5727 O 540.796 -0.194899 2.708 0
M  V30 5728 C 539.252 2.39242 2.68871 0
M  V30 5729 C 538.86 3.85024 2.29042 0
M  V30 5730 C 540.604 2.44972 3.46683 0
M  V30 5731 C 538.511 4.79727 3.45856 0
M  V30 5732 H 537.441 0.506267 0.558757 0
M  V30 5733 H 540.092 1.65181 0.799226 0
M  V30 5734 H 538.474 2.0331 3.39825 0
M  V30 5735 H 539.648 4.30008 1.6562 0
M  V30 5736 H 537.963 3.82609 1.64316 0
M  V30 5737 H 540.56 3.12918 4.33574 0
M  V30 5738 H 540.903 1.4749 3.89297 0
M  V30 5739 H 541.436 2.79808 2.82759 0
M  V30 5740 H 538.175 5.78479 3.08289 0
M  V30 5741 H 537.695 4.39421 4.08251 0
M  V30 5742 H 539.374 4.98731 4.12161 0
M  V30 5743 N 539.506 -0.963266 1.24736 0
M  V30 5744 C 540.752 -1.70933 1.09131 0
M  V30 5745 C 541.085 -1.90676 -0.368273 0
M  V30 5746 O 540.36 -1.47147 -1.27193 0
M  V30 5747 C 540.643 -3.09744 1.83658 0
M  V30 5748 C 540.496 -2.97465 3.37394 0
M  V30 5749 C 541.815 -4.09483 1.61282 0
M  V30 5750 H 538.934 -0.620398 0.397838 0
M  V30 5751 H 541.576 -1.12028 1.53459 0
M  V30 5752 H 539.726 -3.60031 1.4598 0
M  V30 5753 H 541.398 -2.54571 3.84696 0
M  V30 5754 H 539.641 -2.33576 3.65547 0
M  V30 5755 H 540.312 -3.95822 3.84745 0
M  V30 5756 H 542.788 -3.68073 1.94066 0
M  V30 5757 H 541.664 -5.04666 2.15878 0
M  V30 5758 H 541.925 -4.38639 0.552102 0
M  V30 5759 N 540.985 -1.06182 -1.16461 0
M  V30 5760 C 541.915 -0.692861 -2.22984 0
M  V30 5761 C 542.896 0.314122 -1.67174 0
M  V30 5762 O 544.081 0.189499 -1.93273 0
M  V30 5763 C 541.211 -0.07732 -3.47214 0
M  V30 5764 C 540.165 -1.01015 -4.15909 0
M  V30 5765 C 539.491 -0.257973 -5.34077 0
M  V30 5766 C 540.791 -2.33868 -4.67015 0
M  V30 5767 H 542.485 -1.58343 -2.54102 0
M  V30 5768 H 540.031 -0.76279 -1.22137 0
M  V30 5769 H 541.984 0.19266 -4.20959 0
M  V30 5770 H 540.708 0.848254 -3.15392 0
M  V30 5771 H 539.367 -1.26486 -3.44088 0
M  V30 5772 H 539.015 0.670684 -4.98509 0
M  V30 5773 H 538.715 -0.879638 -5.80979 0
M  V30 5774 H 540.239 0.00448788 -6.106 0
M  V30 5775 H 541.653 -2.1279 -5.32347 0
M  V30 5776 H 540.05 -2.91522 -5.24533 0
M  V30 5777 H 541.12 -2.97019 -3.83286 0
M  V30 5778 N 542.463 1.3308 -0.844243 0
M  V30 5779 C 543.688 2.02341 -0.455282 0
M  V30 5780 C 544.113 1.6308 0.93737 0
M  V30 5781 O 543.471 0.826118 1.61385 0
M  V30 5782 C 543.519 3.55743 -0.58988 0
M  V30 5783 O 542.623 4.1063 0.38166 0
M  V30 5784 H 541.964 0.637898 -0.184343 0
M  V30 5785 H 544.494 1.6986 -1.14056 0
M  V30 5786 H 544.504 4.05243 -0.473522 0
M  V30 5787 H 543.179 3.83662 -1.60549 0
M  V30 5788 H 541.756 3.72236 0.22241 0
M  V30 5789 N 543.941 0.601185 1.45683 0
M  V30 5790 C 544.874 -0.17013 2.27565 0
M  V30 5791 C 545.852 -0.879661 1.36751 0
M  V30 5792 O 547.036 -0.889827 1.66176 0
M  V30 5793 C 544.163 -1.24568 3.14961 0
M  V30 5794 C 543.209 -0.639978 4.21671 0
M  V30 5795 S 544.042 0.547275 5.32696 0
M  V30 5796 C 545.198 -0.529019 6.2366 0
M  V30 5797 H 545.431 0.524583 2.92635 0
M  V30 5798 H 542.964 0.388537 1.49431 0
M  V30 5799 H 544.922 -1.86138 3.65873 0
M  V30 5800 H 543.583 -1.91243 2.49169 0
M  V30 5801 H 542.776 -1.44903 4.8272 0
M  V30 5802 H 542.378 -0.0995558 3.73867 0
M  V30 5803 H 544.67 -1.40981 6.62669 0
M  V30 5804 H 545.613 0.0451599 7.08086 0
M  V30 5805 H 546.021 -0.84147 5.58193 0
M  V30 5806 N 545.419 -1.53889 0.339982 0
M  V30 5807 C 546.647 -2.05271 -0.259114 0
M  V30 5808 C 547.062 -1.21517 -1.44496 0
M  V30 5809 O 546.419 -0.24966 -1.80784 0
M  V30 5810 C 546.47 -3.55092 -0.677634 0
M  V30 5811 O 546.191 -4.35667 0.461051 0
M  V30 5812 C 547.692 -4.22631 -1.33782 0
M  V30 5813 H 544.912 -0.669085 -0.0506566 0
M  V30 5814 H 547.456 -1.9852 0.490935 0
M  V30 5815 H 545.611 -3.62077 -1.37763 0
M  V30 5816 H 546.025 -5.24343 0.128144 0
M  V30 5817 H 547.499 -5.28861 -1.58145 0
M  V30 5818 H 547.976 -3.74758 -2.29027 0
M  V30 5819 H 548.582 -4.19829 -0.679957 0
M  V30 5820 N 546.897 -0.0685191 -1.57451 0
M  V30 5821 C 548.308 0.464634 -1.80826 0
M  V30 5822 C 548.659 1.69847 -0.982169 0
M  V30 5823 O 547.784 2.15439 -0.203734 0
M  V30 5824 C 548.379 0.849721 -3.27971 0
M  V30 5825 C 546.938 1.32776 -3.52204 0
M  V30 5826 C 546.085 0.311332 -2.75547 0
M  V30 5827 H 549.036 -0.294248 -1.55948 0
M  V30 5828 H 549.057 1.71138 -3.39841 0
M  V30 5829 H 548.569 -0.0484736 -3.8807 0
M  V30 5830 H 546.67 2.24456 -2.97406 0
M  V30 5831 H 546.783 1.30794 -4.60901 0
M  V30 5832 H 545.147 0.787915 -2.42206 0
M  V30 5833 H 545.93 -0.579078 -3.38381 0
M  V30 5834 N 548.375 1.56261 0.205012 0
M  V30 5835 C 549.285 1.96944 1.27476 0
M  V30 5836 C 550.301 0.875636 1.50362 0
M  V30 5837 O 551.477 1.18058 1.6317 0
M  V30 5838 C 548.542 2.29219 2.60115 0
M  V30 5839 C 547.603 3.52255 2.45387 0
M  V30 5840 C 546.836 3.8298 3.71701 0
M  V30 5841 O 547.059 3.15138 4.75441 0
M  V30 5842 O 545.993 4.76435 3.67823 0
M  V30 5843 H 549.819 2.88144 0.959527 0
M  V30 5844 H 547.404 1.43686 0.409217 0
M  V30 5845 H 549.286 2.51098 3.3842 0
M  V30 5846 H 547.961 1.4119 2.91285 0
M  V30 5847 H 546.868 3.35635 1.65227 0
M  V30 5848 H 548.201 4.40719 2.19152 0
M  V30 5849 N 549.853 -0.472356 1.50355 0
M  V30 5850 C 550.763 -1.59637 1.7191 0
M  V30 5851 C 551.779 -1.63247 0.602195 0
M  V30 5852 O 552.955 -1.81139 0.880369 0
M  V30 5853 C 550.02 -2.9586 1.80742 0
M  V30 5854 C 549.081 -3.02649 3.04471 0
M  V30 5855 C 548.314 -4.32374 3.12872 0
M  V30 5856 O 548.537 -5.22807 2.28099 0
M  V30 5857 O 547.471 -4.44728 4.05587 0
M  V30 5858 H 551.297 -1.44373 2.67189 0
M  V30 5859 H 548.882 -0.651717 1.34436 0
M  V30 5860 H 550.764 -3.7677 1.88739 0
M  V30 5861 H 549.439 -3.11325 0.88647 0
M  V30 5862 H 548.346 -2.20821 3.01975 0
M  V30 5863 H 549.679 -2.92119 3.9614 0
M  V30 5864 N 551.331 -1.39911 -0.725443 0
M  V30 5865 C 552.747 -1.21725 -1.03224 0
M  V30 5866 C 552.947 -0.0855224 -2.01318 0
M  V30 5867 O 552.003 0.55976 -2.46217 0
M  V30 5868 C 553.316 -2.55511 -1.58539 0
M  V30 5869 C 554.864 -2.62439 -1.70572 0
M  V30 5870 C 555.339 -3.9647 -2.29294 0
M  V30 5871 N 556.83 -3.98159 -2.36692 0
M  V30 5872 C 557.565 -4.98647 -2.83088 0
M  V30 5873 N 557.061 -6.0953 -3.2931 0
M  V30 5874 N 558.854 -4.8602 -2.82384 0
M  V30 5875 H 551.005 -2.12267 -0.075048 0
M  V30 5876 H 553.268 -0.943136 -0.0959066 0
M  V30 5877 H 552.974 -3.38926 -0.939249 0
M  V30 5878 H 552.848 -2.75905 -2.57208 0
M  V30 5879 H 555.235 -1.79401 -2.34306 0
M  V30 5880 H 555.316 -2.45885 -0.705297 0
M  V30 5881 H 554.96 -4.79942 -1.66186 0
M  V30 5882 H 554.89 -4.10349 -3.30032 0
M  V30 5883 H 557.381 -3.18085 -2.04035 0
M  V30 5884 H 557.694 -6.82106 -3.6325 0
M  V30 5885 H 556.039 -6.1311 -3.27294 0
M  V30 5886 H 559.23 -3.98493 -2.45603 0
M  V30 5887 H 559.403 -5.64478 -3.18226 0
M  V30 5888 N 552.809 0.956637 -1.25245 0
M  V30 5889 C 553.756 2.053 -1.05454 0
M  V30 5890 C 554.726 1.66062 0.0356889 0
M  V30 5891 O 555.911 1.90415 -0.121099 0
M  V30 5892 C 553.051 3.38391 -0.677191 0
M  V30 5893 C 552.164 3.90758 -1.84206 0
M  V30 5894 C 551.299 5.12165 -1.40926 0
M  V30 5895 C 550.338 5.56757 -2.54338 0
M  V30 5896 N 549.475 6.69376 -2.11848 0
M  V30 5897 H 554.315 2.21562 -1.99284 0
M  V30 5898 H 551.852 1.08578 -0.992434 0
M  V30 5899 H 553.81 4.1488 -0.43938 0
M  V30 5900 H 552.44 3.22021 0.224127 0
M  V30 5901 H 551.492 3.10808 -2.19323 0
M  V30 5902 H 552.804 4.19802 -2.69383 0
M  V30 5903 H 551.958 5.96065 -1.13098 0
M  V30 5904 H 550.697 4.84832 -0.528175 0
M  V30 5905 H 549.702 4.71423 -2.82913 0
M  V30 5906 H 550.927 5.861 -3.43022 0
M  V30 5907 H 548.873 6.43756 -1.26153 0
M  V30 5908 H 548.79 6.97927 -2.90574 0
M  V30 5909 H 550.058 7.5669 -1.87191 0
M  V30 5910 N 554.287 1.06798 1.15896 0
M  V30 5911 C 555.564 0.701057 1.82605 0
M  V30 5912 C 555.944 -0.817066 1.94646 0
M  V30 5913 O 555.292 -1.72933 1.49353 0
M  V30 5914 C 555.502 1.40895 3.19296 0
M  V30 5915 C 556.85 1.55744 3.95005 0
M  V30 5916 O 557.874 1.36927 3.28831 0
M  V30 5917 O 556.733 1.86658 5.13635 0
M  V30 5918 H 553.827 0.248791 0.78869 0
M  V30 5919 H 556.373 1.16857 1.23055 0
M  V30 5920 H 555.145 2.4439 3.05596 0
M  V30 5921 H 554.768 0.931847 3.86526 0
M  V30 5922 N 555.766 -1.3263 0.851289 0
M  V30 5923 C 557.177 -1.79653 0.5081 0
M  V30 5924 C 557.528 -1.70327 -0.973815 0
M  V30 5925 O 556.653 -1.25986 -1.75944 0
M  V30 5926 C 557.248 -3.26196 0.915515 0
M  V30 5927 C 555.807 -3.71187 0.624277 0
M  V30 5928 C 554.954 -2.53804 1.11709 0
M  V30 5929 H 557.905 -1.19976 1.03882 0
M  V30 5930 H 557.926 -3.79801 0.230535 0
M  V30 5931 H 557.438 -3.32952 1.99411 0
M  V30 5932 H 555.539 -3.69948 -0.443737 0
M  V30 5933 H 555.652 -4.64132 1.18821 0
M  V30 5934 H 554.016 -2.48964 0.537484 0
M  V30 5935 H 554.799 -2.63315 2.20272 0
M  V30 5936 N 557.244 -0.608902 -1.45362 0
M  V30 5937 C 558.66 -0.272659 -1.57254 0
M  V30 5938 C 558.86 1.22477 -1.60005 0
M  V30 5939 O 557.916 2.00785 -1.53106 0
M  V30 5940 C 559.229 -0.944991 -2.85465 0
M  V30 5941 C 560.777 -0.921033 -2.99142 0
M  V30 5942 C 561.252 -1.5734 -4.30126 0
M  V30 5943 N 562.743 -1.53895 -4.36887 0
M  V30 5944 C 563.478 -2.01286 -5.36909 0
M  V30 5945 N 562.974 -2.56768 -6.43461 0
M  V30 5946 N 564.767 -1.92046 -5.28275 0
M  V30 5947 H 556.918 -1.58117 -1.4182 0
M  V30 5948 H 559.181 -0.662437 -0.678146 0
M  V30 5949 H 558.887 -1.99941 -2.89338 0
M  V30 5950 H 558.761 -0.469079 -3.74272 0
M  V30 5951 H 561.148 0.124846 -2.94836 0
M  V30 5952 H 561.229 -1.43522 -2.11743 0
M  V30 5953 H 560.873 -2.61862 -4.35191 0
M  V30 5954 H 560.803 -1.03422 -5.16344 0
M  V30 5955 H 563.294 -1.13366 -3.60495 0
M  V30 5956 H 563.607 -2.9072 -7.16032 0
M  V30 5957 H 561.952 -2.60808 -6.44208 0
M  V30 5958 H 565.143 -1.48439 -4.43941 0
M  V30 5959 H 565.316 -2.29293 -6.06077 0
M  V30 5960 N 558.722 1.53707 -0.348139 0
M  V30 5961 C 559.971 2.0017 0.247992 0
M  V30 5962 C 560.284 1.23983 1.51286 0
M  V30 5963 O 561.49 1.60946 2.18652 0
M  V30 5964 C 559.946 3.56515 0.492459 0
M  V30 5965 C 559.554 4.41562 -0.756777 0
M  V30 5966 C 561.298 4.11381 1.0472 0
M  V30 5967 C 559.205 5.89426 -0.482856 0
M  V30 5968 H 558.135 0.747806 0.0964452 0
M  V30 5969 H 560.786 1.77532 -0.464179 0
M  V30 5970 H 559.168 3.75236 1.26545 0
M  V30 5971 H 560.342 4.34615 -1.53122 0
M  V30 5972 H 558.657 3.97711 -1.23348 0
M  V30 5973 H 561.254 5.19468 1.26717 0
M  V30 5974 H 561.597 3.64885 2.00411 0
M  V30 5975 H 562.13 3.96389 0.334801 0
M  V30 5976 H 558.869 6.40164 -1.40962 0
M  V30 5977 H 558.389 5.99264 0.253416 0
M  V30 5978 H 560.068 6.4692 -0.101816 0
M  V30 5979 N 560.2 0.0768682 1.57412 0
M  V30 5980 C 561.13 -0.886026 2.16037 0
M  V30 5981 C 562.111 -1.30691 1.08876 0
M  V30 5982 O 563.296 -1.37705 1.36934 0
M  V30 5983 C 560.426 -2.1518 2.72608 0
M  V30 5984 C 559.38 -1.87015 3.8498 0
M  V30 5985 C 558.706 -3.20266 4.28175 0
M  V30 5986 C 560.006 -1.17143 5.08994 0
M  V30 5987 H 561.7 -0.397642 2.96748 0
M  V30 5988 H 559.246 -0.189823 1.42743 0
M  V30 5989 H 561.199 -2.82962 3.12266 0
M  V30 5990 H 559.923 -2.66269 1.89125 0
M  V30 5991 H 558.582 -1.21636 3.45833 0
M  V30 5992 H 558.23 -3.69207 3.41607 0
M  V30 5993 H 557.93 -3.0221 5.03927 0
M  V30 5994 H 559.454 -3.89237 4.70454 0
M  V30 5995 H 560.868 -1.75003 5.45937 0
M  V30 5996 H 559.265 -1.09328 5.90057 0
M  V30 5997 H 560.335 -0.151295 4.84664 0
M  V30 5998 N 561.678 -1.56367 -0.196722 0
M  V30 5999 C 562.626 -1.95304 -1.2633 0
M  V30 6000 C 563.62 -0.838252 -1.47206 0
M  V30 6001 O 564.826 -1.02325 -1.48087 0
M  V30 6002 H 561.201 -0.621013 -0.424083 0
M  V30 6003 H 563.172 -2.84254 -0.907879 0
M  V30 6004 C 561.921 -2.3074 -2.60104 0
M  V30 6005 H 561.244 -3.16047 -2.44856 0
M  V30 6006 H 562.684 -2.61849 -3.33484 0
M  V30 6007 C 561.143 -1.14143 -3.16975 0
M  V30 6008 O 561.673 -0.415602 -3.99544 0
M  V30 6009 N 559.879 -0.91867 -2.75697 0
M  V30 6010 H 559.426 -1.51065 -2.08656 0
M  V30 6011 H 559.384 -0.140321 -3.14087 0
M  V30 6012 N 563.156 0.464375 -1.50603 0
M  V30 6013 C 564.404 1.21356 -1.61608 0
M  V30 6014 C 564.725 1.92329 -0.321643 0
M  V30 6015 O 563.995 1.84403 0.661232 0
M  V30 6016 H 562.575 0.45094 -0.595535 0
M  V30 6017 H 565.237 0.535046 -1.87412 0
M  V30 6018 H 564.333 1.95783 -2.43054 0
M  V30 6019 N 564.634 1.40294 0.718013 0
M  V30 6020 C 565.859 1.41941 1.5122 0
M  V30 6021 C 566.284 0.0202371 1.88089 0
M  V30 6022 O 565.642 -0.971078 1.53101 0
M  V30 6023 C 565.69 2.3141 2.76554 0
M  V30 6024 O 564.794 1.75567 3.73162 0
M  V30 6025 H 564.135 0.482644 0.456016 0
M  V30 6026 H 566.665 1.84494 0.884478 0
M  V30 6027 H 566.675 2.46513 3.25108 0
M  V30 6028 H 565.35 3.33085 2.49053 0
M  V30 6029 H 563.927 1.69798 3.31999 0
M  V30 6030 N 566.112 -0.949982 1.2575 0
M  V30 6031 C 567.528 -1.22191 1.02672 0
M  V30 6032 C 567.728 -1.99898 -0.253588 0
M  V30 6033 O 566.784 -2.33329 -0.965076 0
M  V30 6034 C 568.097 -1.99175 2.25277 0
M  V30 6035 C 569.645 -2.12201 2.30087 0
M  V30 6036 C 570.12 -2.92586 3.5236 0
M  V30 6037 N 571.611 -3.00163 3.52784 0
M  V30 6038 C 572.346 -3.62766 4.44059 0
M  V30 6039 N 571.842 -4.26943 5.45611 0
M  V30 6040 N 573.635 -3.59953 4.3173 0
M  V30 6041 H 565.786 -0.430258 2.07996 0
M  V30 6042 H 568.049 -0.252844 0.91366 0
M  V30 6043 H 567.755 -1.49479 3.18354 0
M  V30 6044 H 567.629 -2.99868 2.28821 0
M  V30 6045 H 570.016 -2.61093 1.3753 0
M  V30 6046 H 570.097 -1.10799 2.30559 0
M  V30 6047 H 569.741 -2.44383 4.45241 0
M  V30 6048 H 569.671 -3.94224 3.49134 0
M  V30 6049 H 572.162 -2.54529 2.79327 0
M  V30 6050 H 572.475 -4.72583 6.11461 0
M  V30 6051 H 570.82 -4.25557 5.49478 0
M  V30 6052 H 574.011 -3.09003 3.51617 0
M  V30 6053 H 574.184 -4.08455 5.03059 0
M  V30 6054 N 567.59 -1.07411 -1.15328 0
M  V30 6055 C 569.006 -0.799759 -1.38116 0
M  V30 6056 C 569.206 0.59572 -1.92493 0
M  V30 6057 O 568.262 1.35433 -2.13106 0
M  V30 6058 C 569.575 -1.87407 -2.35158 0
M  V30 6059 C 571.123 -1.89889 -2.48819 0
M  V30 6060 C 571.598 -2.96406 -3.49153 0
M  V30 6061 N 573.089 -2.95512 -3.56689 0
M  V30 6062 C 573.824 -3.74575 -4.34144 0
M  V30 6063 N 573.32 -4.63488 -5.14928 0
M  V30 6064 N 575.113 -3.62919 -4.29239 0
M  V30 6065 H 567.264 -1.97411 -0.78374 0
M  V30 6066 H 569.527 -0.856113 -0.407154 0
M  V30 6067 H 569.233 -2.8768 -2.0232 0
M  V30 6068 H 569.107 -1.73471 -3.34944 0
M  V30 6069 H 571.494 -0.902677 -2.80955 0
M  V30 6070 H 571.575 -2.07904 -1.49029 0
M  V30 6071 H 571.219 -3.96227 -3.17752 0
M  V30 6072 H 571.149 -2.75638 -4.48699 0
M  V30 6073 H 573.64 -2.31061 -2.99031 0
M  V30 6074 H 573.953 -5.20445 -5.71276 0
M  V30 6075 H 572.298 -4.67537 -5.14232 0
M  V30 6076 H 575.489 -2.92833 -3.65194 0
M  V30 6077 H 575.662 -4.24777 -4.89355 0
M  V30 6078 N 569.068 1.32177 -0.85831 0
M  V30 6079 C 570.015 2.28794 -0.303607 0
M  V30 6080 C 570.985 1.55213 0.591453 0
M  V30 6081 O 572.17 1.83418 0.525585 0
M  V30 6082 C 569.31 3.41475 0.49889 0
M  V30 6083 C 568.423 4.2993 -0.422373 0
M  V30 6084 C 567.558 5.29743 0.393111 0
M  V30 6085 C 566.597 6.09842 -0.525317 0
M  V30 6086 N 565.734 7.01643 0.253208 0
M  V30 6087 H 570.574 2.75631 -1.13276 0
M  V30 6088 H 568.111 1.35606 -0.570026 0
M  V30 6089 H 570.069 4.05531 0.979826 0
M  V30 6090 H 568.699 2.95779 1.29284 0
M  V30 6091 H 567.751 3.66422 -1.02171 0
M  V30 6092 H 569.063 4.85899 -1.12709 0
M  V30 6093 H 568.217 5.9942 0.937056 0
M  V30 6094 H 566.956 4.744 1.13117 0
M  V30 6095 H 565.961 5.39066 -1.08112 0
M  V30 6096 H 567.186 6.6727 -1.26205 0
M  V30 6097 H 565.132 6.48725 0.974295 0
M  V30 6098 H 565.049 7.54981 -0.392398 0
M  V30 6099 H 566.317 7.756 0.778761 0
M  V30 6100 N 570.547 0.616602 1.45037 0
M  V30 6101 C 571.963 0.280994 1.57107 0
M  V30 6102 C 572.163 -1.21627 1.60653 0
M  V30 6103 O 571.219 -1.9997 1.54169 0
M  V30 6104 C 572.532 0.960116 2.8496 0
M  V30 6105 C 574.08 0.936884 2.98649 0
M  V30 6106 C 574.555 1.59619 4.29285 0
M  V30 6107 N 576.046 1.5621 4.36065 0
M  V30 6108 C 576.781 2.04131 5.35834 0
M  V30 6109 N 576.277 2.60177 6.4209 0
M  V30 6110 N 578.07 1.94845 5.27249 0
M  V30 6111 H 570.221 1.58867 1.40979 0
M  V30 6112 H 572.484 0.666024 0.674623 0
M  V30 6113 H 572.19 2.01473 2.88273 0
M  V30 6114 H 572.064 0.488921 3.74018 0
M  V30 6115 H 574.451 -0.109209 2.94898 0
M  V30 6116 H 574.532 1.44643 2.10979 0
M  V30 6117 H 574.176 2.64166 4.33796 0
M  V30 6118 H 574.106 1.06159 5.15789 0
M  V30 6119 H 576.597 1.15276 3.59889 0
M  V30 6120 H 576.91 2.94513 7.1448 0
M  V30 6121 H 575.255 2.64221 6.42816 0
M  V30 6122 H 578.446 1.50792 4.43147 0
M  V30 6123 H 578.619 2.32504 6.04852 0
M  V30 6124 N 572.025 -1.5352 0.356285 0
M  V30 6125 C 573.274 -2.00298 -0.237373 0
M  V30 6126 C 573.587 -1.24784 -1.50627 0
M  V30 6127 O 574.793 -1.62103 -2.17795 0
M  V30 6128 C 573.249 -3.56771 -0.473545 0
M  V30 6129 C 572.857 -4.41154 0.780183 0
M  V30 6130 C 574.601 -4.1193 -1.02537 0
M  V30 6131 C 572.508 -5.89161 0.514108 0
M  V30 6132 H 571.438 -0.748307 -0.092478 0
M  V30 6133 H 574.089 -1.77283 0.473588 0
M  V30 6134 H 572.471 -3.75902 -1.24553 0
M  V30 6135 H 573.645 -4.33797 1.55425 0
M  V30 6136 H 571.96 -3.97052 1.25455 0
M  V30 6137 H 574.557 -5.20133 -1.2396 0
M  V30 6138 H 574.9 -3.65943 -1.98473 0
M  V30 6139 H 575.433 -3.96561 -0.313775 0
M  V30 6140 H 572.172 -6.39408 1.44355 0
M  V30 6141 H 571.692 -5.9939 -0.221632 0
M  V30 6142 H 573.371 -6.46857 0.136122 0
M  V30 6143 N 573.503 -0.0852151 -1.57369 0
M  V30 6144 C 574.466 0.8627 -2.12344 0
M  V30 6145 C 575.466 1.21746 -1.05046 0
M  V30 6146 O 576.656 1.14852 -1.30976 0
M  V30 6147 C 573.788 2.1618 -2.63589 0
M  V30 6148 H 574.981 0.385511 -2.97412 0
M  V30 6149 H 572.534 0.163663 -1.55441 0
M  V30 6150 H 573.269 2.68406 -1.82013 0
M  V30 6151 H 573.054 1.91723 -3.4203 0
M  V30 6152 H 574.544 2.84011 -3.06149 0
M  V30 6153 N 574.981 1.5647 0.188427 0
M  V30 6154 C 575.928 1.95073 1.23349 0
M  V30 6155 C 576.898 0.812238 1.44886 0
M  V30 6156 O 578.083 1.07095 1.57909 0
M  V30 6157 C 575.223 2.30124 2.57171 0
M  V30 6158 C 574.336 3.57069 2.43157 0
M  V30 6159 C 573.471 3.81411 3.69729 0
M  V30 6160 C 572.51 5.0176 3.50575 0
M  V30 6161 N 571.647 5.22321 4.69175 0
M  V30 6162 H 576.487 2.84171 0.89728 0
M  V30 6163 H 574.024 1.40623 0.431683 0
M  V30 6164 H 575.982 2.48463 3.35145 0
M  V30 6165 H 574.612 1.44159 2.88822 0
M  V30 6166 H 573.664 3.4674 1.56447 0
M  V30 6167 H 574.976 4.452 2.24942 0
M  V30 6168 H 574.13 4.00026 4.56141 0
M  V30 6169 H 572.869 2.91624 3.90905 0
M  V30 6170 H 571.874 4.83061 2.62549 0
M  V30 6171 H 573.099 5.93063 3.30837 0
M  V30 6172 H 571.045 4.35483 4.90602 0
M  V30 6173 H 570.962 6.04643 4.53809 0
M  V30 6174 H 572.23 5.45401 5.56919 0
M  V30 6175 N 576.459 -0.456382 1.50847 0
M  V30 6176 C 577.707 -1.20497 1.62249 0
M  V30 6177 C 578.028 -1.92156 0.331839 0
M  V30 6178 O 577.298 -1.84751 -0.651443 0
M  V30 6179 H 575.878 -0.447775 0.597918 0
M  V30 6180 H 578.54 -0.525099 1.87693 0
M  V30 6181 H 577.636 -1.94492 2.44089 0
M  V30 6182 N 577.937 -1.40673 -0.710563 0
M  V30 6183 C 579.162 -1.42741 -1.50465 0
M  V30 6184 C 579.587 -0.0302116 -1.88076 0
M  V30 6185 O 578.945 0.962945 -1.53613 0
M  V30 6186 C 578.993 -2.32873 -2.75322 0
M  V30 6187 O 578.097 -1.77544 -3.72226 0
M  V30 6188 H 577.438 -0.485056 -0.45345 0
M  V30 6189 H 579.968 -1.84961 -0.874681 0
M  V30 6190 H 579.978 -2.48233 -3.23797 0
M  V30 6191 H 578.653 -3.34401 -2.47283 0
M  V30 6192 H 577.23 -1.71556 -3.31093 0
M  V30 6193 N 579.415 0.9433 -1.26252 0
M  V30 6194 C 580.663 1.68592 -1.11451 0
M  V30 6195 C 580.984 1.91957 0.343123 0
M  V30 6196 O 580.254 1.51475 1.24226 0
M  V30 6197 H 578.834 0.624789 -0.409448 0
M  V30 6198 H 581.496 1.13351 -1.58548 0
M  V30 6199 H 580.592 2.66054 -1.63162 0
M  V30 6200 N 580.893 1.08022 1.14757 0
M  V30 6201 C 582.121 0.828847 1.89572 0
M  V30 6202 C 582.536 -0.618621 1.78377 0
M  V30 6203 O 581.893 -1.42482 1.1404 0
M  V30 6204 C 581.944 1.23677 3.39685 0
M  V30 6205 O 581.665 2.62746 3.50566 0
M  V30 6206 C 583.166 1.01569 4.31507 0
M  V30 6207 H 580.386 0.299196 0.600602 0
M  V30 6208 H 582.93 1.43846 1.45357 0
M  V30 6209 H 581.085 0.671347 3.81539 0
M  V30 6210 H 581.499 2.79573 4.43778 0
M  V30 6211 H 582.973 1.35055 5.35223 0
M  V30 6212 H 583.45 -0.0475433 4.39174 0
M  V30 6213 H 584.056 1.56636 3.95405 0
M  V30 6214 N 582.371 -1.3172 0.865308 0
M  V30 6215 C 583.596 -2.01591 0.487415 0
M  V30 6216 C 584.021 -1.6455 -0.911307 0
M  V30 6217 O 583.379 -0.851689 -1.6005 0
M  V30 6218 C 583.427 -3.54759 0.646401 0
M  V30 6219 O 582.531 -4.11185 -0.316284 0
M  V30 6220 H 581.872 -0.634884 0.194468 0
M  V30 6221 H 584.402 -1.68024 1.16744 0
M  V30 6222 H 584.412 -4.04438 0.537932 0
M  V30 6223 H 583.087 -3.8106 1.66632 0
M  V30 6224 H 581.664 -3.72543 -0.163162 0
M  V30 6225 N 583.85 -0.624285 -1.44708 0
M  V30 6226 C 585.096 -0.126237 -2.02407 0
M  V30 6227 C 585.428 1.24618 -1.48943 0
M  V30 6228 O 584.704 1.82569 -0.670742 0
M  V30 6229 C 584.986 -0.105449 -3.59946 0
M  V30 6230 C 584.84 -1.50972 -4.23707 0
M  V30 6231 C 586.159 0.573629 -4.36346 0
M  V30 6232 H 583.278 -0.0473472 -0.735478 0
M  V30 6233 H 585.92 -0.799452 -1.72362 0
M  V30 6234 H 584.07 0.46783 -3.85673 0
M  V30 6235 H 585.742 -2.13136 -4.0911 0
M  V30 6236 H 583.985 -2.0656 -3.81465 0
M  V30 6237 H 584.656 -1.44727 -5.32689 0
M  V30 6238 H 587.132 0.0861787 -4.16011 0
M  V30 6239 H 586.008 0.557338 -5.46063 0
M  V30 6240 H 586.269 1.64276 -4.10446 0
M  V30 6241 N 585.328 1.53329 -0.364422 0
M  V30 6242 C 586.26 2.23286 0.517293 0
M  V30 6243 C 587.273 1.24657 1.04711 0
M  V30 6244 O 588.462 1.50887 0.95369 0
M  V30 6245 C 585.562 2.91604 1.72685 0
M  V30 6246 C 584.735 4.1673 1.32873 0
M  V30 6247 C 583.794 4.68269 2.40022 0
M  V30 6248 O 582.82 5.31976 2.02461 0
M  V30 6249 N 584.022 4.45983 3.7159 0
M  V30 6250 H 586.787 2.99588 -0.0819391 0
M  V30 6251 H 584.348 1.60787 -0.189544 0
M  V30 6252 H 586.34 3.22992 2.4384 0
M  V30 6253 H 584.91 2.18763 2.23297 0
M  V30 6254 H 584.13 3.91657 0.447069 0
M  V30 6255 H 585.418 4.98078 1.03902 0
M  V30 6256 H 584.816 3.95077 4.04883 0
M  V30 6257 H 583.373 4.81924 4.38854 0
M  V30 6258 N 586.806 0.0935595 1.57322 0
M  V30 6259 C 587.716 -0.880192 2.17462 0
M  V30 6260 C 588.732 -1.31135 1.14366 0
M  V30 6261 O 589.908 -1.37958 1.46729 0
M  V30 6262 C 586.973 -2.12184 2.74188 0
M  V30 6263 C 586.034 -1.74503 3.92234 0
M  V30 6264 C 585.267 -2.92748 4.46245 0
M  V30 6265 O 585.49 -4.07427 3.99198 0
M  V30 6266 O 584.424 -2.71303 5.37288 0
M  V30 6267 H 588.25 -0.398516 3.01074 0
M  V30 6268 H 585.835 -0.130707 1.48827 0
M  V30 6269 H 587.717 -2.84953 3.10451 0
M  V30 6270 H 586.392 -2.59407 1.93623 0
M  V30 6271 H 585.299 -0.989186 3.60785 0
M  V30 6272 H 586.632 -1.32044 4.74157 0
M  V30 6273 N 588.284 -1.56567 -0.180126 0
M  V30 6274 C 589.53 -1.81761 -0.899497 0
M  V30 6275 C 589.863 -0.670015 -1.82276 0
M  V30 6276 O 589.138 0.328575 -1.91705 0
M  V30 6277 C 589.421 -3.17296 -1.7028 0
M  V30 6278 C 589.274 -4.4257 -0.803255 0
M  V30 6279 C 590.593 -3.49678 -2.67233 0
M  V30 6280 H 587.712 -0.661192 -0.325567 0
M  V30 6281 H 590.354 -1.89272 -0.16612 0
M  V30 6282 H 588.504 -3.11023 -2.32802 0
M  V30 6283 H 590.176 -4.60902 -0.191585 0
M  V30 6284 H 588.419 -4.33658 -0.110796 0
M  V30 6285 H 589.09 -5.33935 -1.40064 0
M  V30 6286 H 591.566 -3.56347 -2.14839 0
M  V30 6287 H 590.442 -4.45605 -3.20511 0
M  V30 6288 H 590.703 -2.73932 -3.47007 0
M  V30 6289 N 589.762 0.448376 -1.51087 0
M  V30 6290 C 590.71 1.56407 -1.72161 0
M  V30 6291 C 591.704 1.58878 -0.587721 0
M  V30 6292 O 592.91 1.62755 -0.768822 0
M  V30 6293 H 589.285 0.519423 -0.543786 0
M  V30 6294 H 591.256 1.35803 -2.65707 0
M  V30 6295 C 590.005 2.94163 -1.85373 0
M  V30 6296 H 589.328 2.9299 -2.72024 0
M  V30 6297 H 590.768 3.71625 -2.04135 0
M  V30 6298 C 589.227 3.31317 -0.610803 0
M  V30 6299 O 589.757 4.00985 0.239636 0
M  V30 6300 N 587.963 2.86966 -0.458127 0
M  V30 6301 H 587.51 2.30443 -1.15124 0
M  V30 6302 H 587.468 3.12188 0.372289 0
M  V30 6303 N 591.24 1.41047 0.703093 0
M  V30 6304 C 592.656 1.23351 1.01275 0
M  V30 6305 C 592.856 0.11754 2.01157 0
M  V30 6306 O 591.912 -0.520518 2.47077 0
M  V30 6307 C 593.225 2.58001 1.54454 0
M  V30 6308 C 594.773 2.65119 1.66376 0
M  V30 6309 C 595.248 4.00067 2.22958 0
M  V30 6310 N 596.739 4.01875 2.30328 0
M  V30 6311 C 597.474 5.03087 2.75119 0
M  V30 6312 N 596.97 6.14692 3.19571 0
M  V30 6313 N 598.763 4.90451 2.74616 0
M  V30 6314 H 590.914 2.1236 0.0412686 0
M  V30 6315 H 593.177 0.944543 0.08089 0
M  V30 6316 H 592.883 3.40378 0.88521 0
M  V30 6317 H 592.757 2.79962 2.52786 0
M  V30 6318 H 595.144 1.83106 2.31422 0
M  V30 6319 H 595.225 2.46975 0.666089 0
M  V30 6320 H 594.869 4.82526 1.58529 0
M  V30 6321 H 594.799 4.15547 3.23462 0
M  V30 6322 H 597.29 3.21291 1.98949 0
M  V30 6323 H 597.603 6.87799 3.52352 0
M  V30 6324 H 595.948 6.18239 3.17498 0
M  V30 6325 H 599.139 4.0235 2.39233 0
M  V30 6326 H 599.312 5.6947 3.09206 0
M  V30 6327 N 592.718 -0.936591 1.26751 0
M  V30 6328 C 593.965 -1.68331 1.12566 0
M  V30 6329 C 594.293 -1.91677 -0.330168 0
M  V30 6330 O 593.548 -1.49859 -1.2586 0
M  V30 6331 C 593.847 -3.06099 1.84494 0
M  V30 6332 C 593.513 -3.02493 3.34378 0
M  V30 6333 C 592.175 -3.01217 3.75262 0
M  V30 6334 C 594.527 -2.94453 4.30055 0
M  V30 6335 C 591.855 -2.89672 5.10203 0
M  V30 6336 C 594.207 -2.84449 5.65041 0
M  V30 6337 C 592.871 -2.81518 6.0523 0
M  V30 6338 H 592.141 -0.615965 0.411907 0
M  V30 6339 H 594.788 -1.09292 1.5725 0
M  V30 6340 H 593.093 -3.6879 1.32292 0
M  V30 6341 H 594.79 -3.62733 1.70955 0
M  V30 6342 H 591.38 -3.04269 3.01858 0
M  V30 6343 H 595.564 -2.94544 3.99447 0
M  V30 6344 H 590.82 -2.85783 5.40498 0
M  V30 6345 H 594.994 -2.77192 6.38856 0
M  V30 6346 H 592.621 -2.72329 7.09747 0
M  V30 6347 N 594.196 -1.08629 -1.14182 0
M  V30 6348 C 595.445 -0.812271 -1.84621 0
M  V30 6349 C 595.758 0.664313 -1.83973 0
M  V30 6350 O 596.964 1.05357 -2.50224 0
M  V30 6351 C 595.42 -1.4031 -3.31423 0
M  V30 6352 C 595.028 -2.91164 -3.40481 0
M  V30 6353 C 596.772 -1.20767 -4.06959 0
M  V30 6354 C 594.679 -3.43373 -4.81507 0
M  V30 6355 H 593.609 -0.30019 -0.691666 0
M  V30 6356 H 596.26 -1.30798 -1.28701 0
M  V30 6357 H 594.642 -0.835096 -3.87094 0
M  V30 6358 H 595.816 -3.5412 -2.94848 0
M  V30 6359 H 594.131 -3.09646 -2.78403 0
M  V30 6360 H 596.728 -1.57237 -5.11058 0
M  V30 6361 H 597.071 -0.147664 -4.16038 0
M  V30 6362 H 597.604 -1.74274 -3.57594 0
M  V30 6363 H 594.343 -4.48958 -4.77616 0
M  V30 6364 H 593.863 -2.85176 -5.27669 0
M  V30 6365 H 595.542 -3.40095 -5.50404 0
M  V30 6366 N 595.674 1.31259 -0.872281 0
M  V30 6367 C 596.621 2.28459 -0.327857 0
M  V30 6368 C 597.591 1.55831 0.574957 0
M  V30 6369 O 598.776 1.83965 0.506101 0
M  V30 6370 C 595.916 3.41985 0.462644 0
M  V30 6371 C 595.029 4.29458 -0.467949 0
M  V30 6372 C 594.164 5.30131 0.336903 0
M  V30 6373 C 593.203 6.0925 -0.58997 0
M  V30 6374 N 592.34 7.01872 0.178775 0
M  V30 6375 H 597.18 2.74414 -1.16193 0
M  V30 6376 H 594.717 1.34994 -0.584376 0
M  V30 6377 H 596.675 4.06547 0.936759 0
M  V30 6378 H 595.305 2.97134 1.2614 0
M  V30 6379 H 594.357 3.65318 -1.06052 0
M  V30 6380 H 595.669 4.84677 -1.17856 0
M  V30 6381 H 594.823 6.0038 0.873427 0
M  V30 6382 H 593.562 4.75573 1.08079 0
M  V30 6383 H 592.567 5.37889 -1.13823 0
M  V30 6384 H 593.792 6.65894 -1.33275 0
M  V30 6385 H 591.738 6.49721 0.905435 0
M  V30 6386 H 591.655 7.54522 -0.472452 0
M  V30 6387 H 592.923 7.76382 0.696454 0
M  V30 6388 N 597.152 0.631951 1.44375 0
M  V30 6389 C 598.115 -0.0628142 2.29114 0
M  V30 6390 C 599.115 -0.771494 1.41084 0
M  V30 6391 O 600.305 -0.615959 1.62947 0
M  V30 6392 C 597.437 -1.09953 3.22681 0
M  V30 6393 H 598.63 0.682509 2.92031 0
M  V30 6394 H 596.183 0.392128 1.51301 0
M  V30 6395 H 596.918 -1.87481 2.64616 0
M  V30 6396 H 596.703 -0.595286 3.87555 0
M  V30 6397 H 598.193 -1.58538 3.86336 0
M  V30 6398 N 598.631 -1.53133 0.372548 0
M  V30 6399 C 599.878 -2.01356 -0.214959 0
M  V30 6400 C 600.206 -1.2596 -1.48204 0
M  V30 6401 O 599.461 -0.343511 -1.92662 0
M  V30 6402 C 599.76 -3.53206 -0.545938 0
M  V30 6403 C 599.426 -4.46511 0.627624 0
M  V30 6404 C 598.088 -4.71737 0.949615 0
M  V30 6405 C 600.44 -5.01666 1.41353 0
M  V30 6406 C 597.768 -5.4937 2.05936 0
M  V30 6407 C 600.12 -5.80511 2.51375 0
M  V30 6408 C 598.784 -6.04022 2.84101 0
M  V30 6409 H 598.054 -0.736813 -0.078659 0
M  V30 6410 H 600.701 -1.84682 0.506447 0
M  V30 6411 H 599.006 -3.67864 -1.34845 0
M  V30 6412 H 600.703 -3.87997 -1.01287 0
M  V30 6413 H 597.293 -4.27029 0.366635 0
M  V30 6414 H 601.477 -4.82117 1.17802 0
M  V30 6415 H 596.733 -5.65803 2.31682 0
M  V30 6416 H 600.907 -6.22255 3.12684 0
M  V30 6417 H 598.534 -6.63962 3.70214 0
M  V30 6418 N 600.109 -0.101901 -1.5727 0
M  V30 6419 C 601.019 0.868647 -2.17926 0
M  V30 6420 C 602.035 1.30527 -1.1506 0
M  V30 6421 O 603.211 1.37178 -1.47459 0
M  V30 6422 C 600.276 2.10727 -2.75309 0
M  V30 6423 C 599.337 1.7242 -3.93154 0
M  V30 6424 C 598.57 2.90377 -4.47791 0
M  V30 6425 O 598.793 4.05305 -4.01353 0
M  V30 6426 O 597.727 2.6845 -5.38719 0
M  V30 6427 H 601.553 0.382544 -3.01281 0
M  V30 6428 H 599.138 0.122812 -1.48894 0
M  V30 6429 H 601.02 2.83303 -3.11958 0
M  V30 6430 H 599.695 2.58376 -1.94996 0
M  V30 6431 H 598.602 0.970039 -3.61305 0
M  V30 6432 H 599.935 1.29528 -4.74851 0
M  V30 6433 N 601.587 1.56661 0.17182 0
M  V30 6434 C 602.497 1.99604 1.2327 0
M  V30 6435 C 603.513 0.907333 1.4847 0
M  V30 6436 O 604.689 1.21492 1.60629 0
M  V30 6437 C 601.754 2.34685 2.55194 0
M  V30 6438 C 600.815 3.57381 2.3786 0
M  V30 6439 C 600.048 3.90779 3.63494 0
M  V30 6440 O 600.271 3.25152 4.6865 0
M  V30 6441 O 599.205 4.84129 3.57634 0
M  V30 6442 H 603.031 2.90114 0.898192 0
M  V30 6443 H 600.616 1.44522 0.378647 0
M  V30 6444 H 602.498 2.5822 3.33017 0
M  V30 6445 H 601.173 1.47336 2.88225 0
M  V30 6446 H 600.08 3.39064 1.5807 0
M  V30 6447 H 601.413 4.45268 2.09754 0
M  V30 6448 N 603.065 -0.440357 1.51323 0
M  V30 6449 C 603.998 -1.55414 1.67098 0
M  V30 6450 C 604.976 -1.54108 0.518599 0
M  V30 6451 O 606.16 -1.7328 0.742054 0
M  V30 6452 C 603.287 -2.93996 1.68179 0
M  V30 6453 C 602.333 -3.13338 2.89347 0
M  V30 6454 S 603.166 -2.89957 4.50206 0
M  V30 6455 C 604.322 -4.30826 4.54027 0
M  V30 6456 H 604.555 -1.41798 2.61306 0
M  V30 6457 H 602.088 -0.629841 1.40969 0
M  V30 6458 H 604.046 -3.73878 1.69487 0
M  V30 6459 H 602.707 -3.04976 0.751542 0
M  V30 6460 H 601.9 -4.14652 2.86495 0
M  V30 6461 H 601.502 -2.41276 2.85766 0
M  V30 6462 H 603.794 -5.23977 4.29481 0
M  V30 6463 H 604.737 -4.38712 5.55822 0
M  V30 6464 H 605.145 -4.1434 3.83384 0
M  V30 6465 N 604.543 -1.41418 -0.695603 0
M  V30 6466 C 605.49 -1.43264 -1.80954 0
M  V30 6467 C 606.46 -0.287016 -1.63601 0
M  V30 6468 O 607.645 -0.488054 -1.84452 0
M  V30 6469 C 604.785 -1.32054 -3.18835 0
M  V30 6470 C 603.898 -2.56485 -3.4762 0
M  V30 6471 C 603.033 -2.3757 -4.75115 0
M  V30 6472 C 602.072 -3.57477 -4.96867 0
M  V30 6473 N 601.209 -3.37632 -6.15588 0
M  V30 6474 H 606.049 -2.38467 -1.78711 0
M  V30 6475 H 603.586 -1.18415 -0.872715 0
M  V30 6476 H 605.544 -1.23558 -3.98484 0
M  V30 6477 H 604.174 -0.404592 -3.20254 0
M  V30 6478 H 603.226 -2.75432 -2.62376 0
M  V30 6479 H 604.538 -3.45678 -3.59594 0
M  V30 6480 H 603.692 -2.2654 -5.62818 0
M  V30 6481 H 602.431 -1.45834 -4.65386 0
M  V30 6482 H 601.436 -3.68961 -4.07612 0
M  V30 6483 H 602.661 -4.50167 -5.08455 0
M  V30 6484 H 600.607 -2.48596 -6.07072 0
M  V30 6485 H 600.524 -4.20401 -6.2833 0
M  V30 6486 H 601.792 -3.30375 -7.06026 0
M  V30 6487 N 606.021 0.929856 -1.27246 0
M  V30 6488 C 606.984 2.01172 -1.09829 0
M  V30 6489 C 607.984 1.60743 -0.0429687 0
M  V30 6490 O 609.174 1.71813 -0.287373 0
M  V30 6491 C 606.306 3.34191 -0.673003 0
M  V30 6492 H 607.499 2.18054 -2.05895 0
M  V30 6493 H 605.052 1.11036 -1.10003 0
M  V30 6494 H 605.787 3.23009 0.289134 0
M  V30 6495 H 605.572 3.64892 -1.43515 0
M  V30 6496 H 607.062 4.13646 -0.573323 0
M  V30 6497 N 607.499 1.09233 1.13605 0
M  V30 6498 C 608.429 0.751738 2.21068 0
M  V30 6499 C 609.41 -0.269688 1.67948 0
M  V30 6500 O 610.595 -0.13819 1.93708 0
M  V30 6501 C 607.725 0.16935 3.46887 0
M  V30 6502 C 606.679 1.12007 4.13084 0
M  V30 6503 C 606.005 0.399483 5.33206 0
M  V30 6504 C 607.305 2.46168 4.6065 0
M  V30 6505 H 608.999 1.65024 2.49815 0
M  V30 6506 H 606.545 0.794905 1.20072 0
M  V30 6507 H 608.498 -0.0809824 4.21322 0
M  V30 6508 H 607.222 -0.764335 3.1753 0
M  V30 6509 H 605.881 1.35564 3.40614 0
M  V30 6510 H 605.529 -0.538277 5.00112 0
M  V30 6511 H 605.229 1.03337 5.78442 0
M  V30 6512 H 606.753 0.157403 6.10397 0
M  V30 6513 H 608.167 2.26829 5.26518 0
M  V30 6514 H 606.564 3.05326 5.1662 0
M  V30 6515 H 607.634 3.07076 3.75276 0
M  V30 6516 N 608.977 -1.30795 0.87923 0
M  V30 6517 C 609.91 -2.26396 0.286404 0
M  V30 6518 C 610.888 -1.51528 -0.589748 0
M  V30 6519 O 612.072 -1.80566 -0.541119 0
M  V30 6520 C 609.199 -3.33458 -0.593581 0
M  V30 6521 C 608.245 -4.2597 0.21247 0
M  V30 6522 S 609.078 -5.11132 1.59702 0
M  V30 6523 C 610.234 -6.21705 0.723408 0
M  V30 6524 H 610.467 -2.7633 1.09677 0
M  V30 6525 H 608 -1.38703 0.678305 0
M  V30 6526 H 609.958 -3.9561 -1.09557 0
M  V30 6527 H 608.619 -2.82259 -1.37799 0
M  V30 6528 H 607.812 -5.01907 -0.458822 0
M  V30 6529 H 607.414 -3.68363 0.646883 0
M  V30 6530 H 609.706 -6.77472 -0.0620739 0
M  V30 6531 H 610.649 -6.93007 1.4542 0
M  V30 6532 H 611.057 -5.63771 0.286855 0
M  V30 6533 N 610.455 -0.639598 -1.44038 0
M  V30 6534 C 611.402 0.0602458 -2.30721 0
M  V30 6535 C 612.372 0.828352 -1.43971 0
M  V30 6536 O 613.557 0.807693 -1.72861 0
M  V30 6537 C 610.697 1.03008 -3.29368 0
M  V30 6538 C 609.81 0.259502 -4.3122 0
M  V30 6539 C 608.945 1.22191 -5.16955 0
M  V30 6540 C 607.984 0.440978 -6.10509 0
M  V30 6541 N 607.121 1.35428 -6.88915 0
M  V30 6542 H 611.961 -0.684867 -2.90023 0
M  V30 6543 H 609.498 -0.349509 -1.42888 0
M  V30 6544 H 611.456 1.60583 -3.85057 0
M  V30 6545 H 610.086 1.74222 -2.71747 0
M  V30 6546 H 609.138 -0.432317 -3.77935 0
M  V30 6547 H 610.45 -0.348347 -4.97582 0
M  V30 6548 H 609.604 1.86873 -5.77203 0
M  V30 6549 H 608.343 1.86367 -4.50687 0
M  V30 6550 H 607.348 -0.219279 -5.49363 0
M  V30 6551 H 608.573 -0.196192 -6.78817 0
M  V30 6552 H 606.519 1.9831 -6.25307 0
M  V30 6553 H 606.436 0.800657 -7.51748 0
M  V30 6554 H 607.704 1.98967 -7.53679 0
M  V30 6555 N 611.933 1.52934 -0.380664 0
M  V30 6556 C 613.158 2.06363 0.207157 0
M  V30 6557 C 613.583 1.25122 1.4045 0
M  V30 6558 O 612.941 0.274062 1.79217 0
M  V30 6559 C 612.989 3.56162 0.563996 0
M  V30 6560 O 612.093 3.77552 1.65917 0
M  V30 6561 H 611.434 0.663468 0.0265859 0
M  V30 6562 H 613.964 1.9719 -0.545635 0
M  V30 6563 H 613.974 3.99453 0.830752 0
M  V30 6564 H 612.649 4.14732 -0.311427 0
M  V30 6565 H 611.226 3.46154 1.3868 0
M  V30 6566 N 613.412 0.11024 1.57214 0
M  V30 6567 C 614.342 -0.840002 2.17867 0
M  V30 6568 C 615.323 -1.28352 1.11624 0
M  V30 6569 O 616.508 -1.3477 1.39824 0
M  V30 6570 C 613.638 -2.09349 2.77111 0
M  V30 6571 C 612.592 -1.78807 3.8886 0
M  V30 6572 C 611.918 -3.11112 4.34872 0
M  V30 6573 C 613.218 -1.0632 5.11364 0
M  V30 6574 H 614.912 -0.334608 2.97524 0
M  V30 6575 H 612.458 -0.159502 1.43114 0
M  V30 6576 H 614.411 -2.76275 3.18198 0
M  V30 6577 H 613.135 -2.62198 1.9473 0
M  V30 6578 H 611.794 -1.14273 3.48335 0
M  V30 6579 H 611.442 -3.61877 3.49362 0
M  V30 6580 H 611.142 -2.91453 5.10224 0
M  V30 6581 H 612.666 -3.79171 4.78604 0
M  V30 6582 H 614.08 -1.63383 5.49526 0
M  V30 6583 H 612.477 -0.967876 5.92243 0
M  V30 6584 H 613.547 -0.0484569 4.84876 0
M  V30 6585 N 614.89 -1.56749 -0.16351 0
M  V30 6586 C 615.8 -2.00255 -1.2221 0
M  V30 6587 C 616.816 -0.915194 -1.47987 0
M  V30 6588 O 617.992 -1.22342 -1.59982 0
M  V30 6589 C 615.057 -2.36035 -2.53946 0
M  V30 6590 C 614.118 -3.58637 -2.35962 0
M  V30 6591 C 613.351 -3.92701 -3.61416 0
M  V30 6592 O 613.574 -3.27632 -4.66919 0
M  V30 6593 O 612.508 -4.86019 -3.55062 0
M  V30 6594 H 616.334 -2.90586 -0.882794 0
M  V30 6595 H 613.919 -1.44721 -0.370978 0
M  V30 6596 H 615.801 -2.59982 -3.31643 0
M  V30 6597 H 614.476 -1.48863 -2.8744 0
M  V30 6598 H 613.383 -3.39898 -1.5627 0
M  V30 6599 H 614.716 -4.46374 -2.0739 0
M  V30 6600 N 616.368 0.432326 -1.51554 0
M  V30 6601 C 617.315 1.52512 -1.7323 0
M  V30 6602 C 618.285 1.55863 -0.5741 0
M  V30 6603 O 619.47 1.72796 -0.809093 0
M  V30 6604 C 616.61 2.90183 -1.86783 0
M  V30 6605 C 615.723 2.96322 -3.14352 0
M  V30 6606 C 614.858 4.25147 -3.18471 0
M  V30 6607 C 613.897 4.25172 -4.40335 0
M  V30 6608 N 613.034 5.45529 -4.41975 0
M  V30 6609 H 617.874 1.33332 -2.66508 0
M  V30 6610 H 615.411 0.647613 -1.32077 0
M  V30 6611 H 617.369 3.70071 -1.92623 0
M  V30 6612 H 615.999 3.0791 -0.969087 0
M  V30 6613 H 615.051 2.09066 -3.17798 0
M  V30 6614 H 616.363 2.92203 -4.04251 0
M  V30 6615 H 615.517 5.13411 -3.23255 0
M  V30 6616 H 614.256 4.31929 -2.2647 0
M  V30 6617 H 613.261 3.353 -4.35723 0
M  V30 6618 H 614.486 4.20049 -5.33606 0
M  V30 6619 H 612.432 5.53024 -3.52847 0
M  V30 6620 H 612.349 5.43311 -5.25689 0
M  V30 6621 H 613.617 6.35812 -4.50958 0
M  V30 6622 N 617.846 1.41785 0.688094 0
M  V30 6623 C 618.793 1.44221 1.80191 0
M  V30 6624 C 619.763 0.295688 1.63447 0
M  V30 6625 O 620.948 0.49783 1.84191 0
M  V30 6626 C 618.088 1.33743 3.1813 0
M  V30 6627 C 617.201 2.58325 3.46254 0
M  V30 6628 C 616.336 2.40086 4.73848 0
M  V30 6629 C 615.375 3.60107 4.94964 0
M  V30 6630 N 614.512 3.40892 6.13789 0
M  V30 6631 H 619.352 2.39411 1.77444 0
M  V30 6632 H 616.889 1.18876 0.866423 0
M  V30 6633 H 618.847 1.25669 3.97823 0
M  V30 6634 H 617.477 0.42157 3.20035 0
M  V30 6635 H 616.529 2.7682 2.60912 0
M  V30 6636 H 617.841 3.4758 3.57756 0
M  V30 6637 H 616.995 2.29522 5.61609 0
M  V30 6638 H 615.734 1.483 4.64606 0
M  V30 6639 H 614.739 3.71118 4.05649 0
M  V30 6640 H 615.964 4.52857 5.06061 0
M  V30 6641 H 613.91 2.51812 6.05745 0
M  V30 6642 H 613.827 4.23727 6.26092 0
M  V30 6643 H 615.095 3.34114 7.04264 0
M  V30 6644 N 619.324 -0.923095 1.27737 0
M  V30 6645 C 620.271 -2.02432 1.1086 0
M  V30 6646 C 621.241 -1.66098 0.00835195 0
M  V30 6647 O 622.426 -1.90027 0.171542 0
M  V30 6648 C 619.566 -3.36476 0.766671 0
M  V30 6649 C 618.679 -3.85737 1.94501 0
M  V30 6650 C 617.814 -5.08249 1.54455 0
M  V30 6651 C 616.853 -5.49818 2.6901 0
M  V30 6652 N 615.99 -6.63524 2.29521 0
M  V30 6653 H 620.83 -2.16201 2.05089 0
M  V30 6654 H 618.367 -1.05909 1.02087 0
M  V30 6655 H 620.325 -4.13569 0.549223 0
M  V30 6656 H 618.955 -3.22502 -0.13867 0
M  V30 6657 H 618.007 -3.04883 2.27487 0
M  V30 6658 H 619.319 -4.12513 2.80419 0
M  V30 6659 H 618.473 -5.92857 1.28862 0
M  V30 6660 H 617.212 -4.83261 0.656534 0
M  V30 6661 H 616.217 -4.63757 2.95313 0
M  V30 6662 H 617.442 -5.76799 3.5844 0
M  V30 6663 H 615.388 -6.40185 1.43177 0
M  V30 6664 H 615.305 -6.89978 3.08977 0
M  V30 6665 H 616.573 -7.51461 2.07187 0
M  V30 6666 N 620.802 -1.09834 -1.13024 0
M  V30 6667 C 622.05 -0.835297 -1.8403 0
M  V30 6668 C 622.371 0.640944 -1.84165 0
M  V30 6669 O 621.641 1.46517 -1.30037 0
M  V30 6670 H 620.221 -0.306018 -0.681441 0
M  V30 6671 H 622.883 -1.38734 -1.36891 0
M  V30 6672 H 621.979 -1.19258 -2.88416 0
M  V30 6673 N 622.28 1.30327 -0.886154 0
M  V30 6674 C 623.696 1.48676 -0.580323 0
M  V30 6675 C 623.896 1.81189 0.881639 0
M  V30 6676 O 622.952 1.90021 1.66278 0
M  V30 6677 C 624.265 2.60932 -1.49449 0
M  V30 6678 C 625.813 2.74812 -1.49824 0
M  V30 6679 C 626.288 3.90183 -2.39836 0
M  V30 6680 N 627.779 3.97495 -2.37806 0
M  V30 6681 C 628.514 4.86078 -3.04165 0
M  V30 6682 N 628.01 5.79448 -3.79753 0
M  V30 6683 N 629.803 4.79456 -2.93391 0
M  V30 6684 H 621.954 1.07495 -1.8319 0
M  V30 6685 H 624.217 0.532661 -0.784204 0
M  V30 6686 H 623.923 2.43731 -2.5355 0
M  V30 6687 H 623.797 3.57437 -1.20494 0
M  V30 6688 H 626.184 2.91418 -0.464731 0
M  V30 6689 H 626.265 1.78924 -1.82811 0
M  V30 6690 H 625.909 3.74334 -3.43273 0
M  V30 6691 H 625.839 4.85411 -2.04166 0
M  V30 6692 H 628.33 3.30703 -1.82877 0
M  V30 6693 H 628.643 6.43805 -4.27475 0
M  V30 6694 H 626.988 5.79376 -3.8386 0
M  V30 6695 H 630.179 4.05494 -2.33864 0
M  V30 6696 H 630.352 5.48283 -3.45383 0
M  V30 6697 N 623.758 0.647228 1.43697 0
M  V30 6698 C 625.006 0.157876 2.01482 0
M  V30 6699 C 625.327 -1.23039 1.51282 0
M  V30 6700 O 624.597 -1.82071 0.722982 0
M  V30 6701 H 623.177 0.0553745 0.744945 0
M  V30 6702 H 625.839 0.83755 1.75986 0
M  V30 6703 H 624.935 0.137895 3.11795 0
M  V30 6704 N 625.236 -1.5273 0.388769 0
M  V30 6705 C 626.166 -2.29353 -0.438111 0
M  V30 6706 C 627.147 -1.32719 -1.06394 0
M  V30 6707 O 628.332 -1.61612 -1.07681 0
M  V30 6708 C 625.462 -3.09995 -1.56589 0
M  V30 6709 C 624.416 -4.14509 -1.06613 0
M  V30 6710 C 623.742 -4.83372 -2.28594 0
M  V30 6711 C 625.042 -5.22127 -0.134459 0
M  V30 6712 H 626.736 -2.98723 0.201206 0
M  V30 6713 H 624.282 -1.43665 0.0982089 0
M  V30 6714 H 626.235 -3.62357 -2.15118 0
M  V30 6715 H 624.959 -2.38357 -2.23279 0
M  V30 6716 H 623.618 -3.63128 -0.503383 0
M  V30 6717 H 623.266 -4.08283 -2.93792 0
M  V30 6718 H 622.966 -5.54012 -1.95817 0
M  V30 6719 H 624.49 -5.38538 -2.87766 0
M  V30 6720 H 625.904 -5.69851 -0.627914 0
M  V30 6721 H 624.301 -6.00011 0.103534 0
M  V30 6722 H 625.371 -4.77971 0.816798 0
M  V30 6723 N 626.714 -0.118576 -1.57153 0
M  V30 6724 C 627.647 0.869046 -2.11004 0
M  V30 6725 C 628.625 1.26115 -1.02634 0
M  V30 6726 O 629.809 1.36228 -1.30285 0
M  V30 6727 C 626.936 2.16297 -2.6064 0
M  V30 6728 C 625.982 1.91896 -3.80891 0
M  V30 6729 S 626.815 1.13562 -5.2332 0
M  V30 6730 C 627.971 2.44135 -5.76324 0
M  V30 6731 H 628.204 0.411005 -2.94445 0
M  V30 6732 H 625.737 0.0951891 -1.54106 0
M  V30 6733 H 627.695 2.90642 -2.89892 0
M  V30 6734 H 626.356 2.59219 -1.77382 0
M  V30 6735 H 625.549 2.8777 -4.13768 0
M  V30 6736 H 625.151 1.25672 -3.52253 0
M  V30 6737 H 627.443 3.39976 -5.86022 0
M  V30 6738 H 628.386 2.15803 -6.74414 0
M  V30 6739 H 628.794 2.53483 -5.04387 0
M  V30 6740 N 628.193 1.56834 0.155195 0
M  V30 6741 C 629.441 1.82536 0.867462 0
M  V30 6742 C 629.762 0.698168 1.82073 0
M  V30 6743 O 629.032 -0.280807 1.93877 0
M  V30 6744 H 627.612 0.673401 0.323327 0
M  V30 6745 H 630.274 1.94313 0.151156 0
M  V30 6746 H 629.37 2.77171 1.43466 0
M  V30 6747 N 629.671 -0.424282 1.51781 0
M  V30 6748 C 630.604 -1.53633 1.68737 0
M  V30 6749 C 631.582 -1.53549 0.534915 0
M  V30 6750 O 632.766 -1.72483 0.760391 0
M  V30 6751 C 629.893 -2.92195 1.71288 0
M  V30 6752 C 628.939 -3.10251 2.92654 0
M  V30 6753 S 629.772 -2.85166 4.53256 0
M  V30 6754 C 630.928 -4.25986 4.58571 0
M  V30 6755 H 631.161 -1.39018 2.62795 0
M  V30 6756 H 628.694 -0.614854 1.41629 0
M  V30 6757 H 630.652 -3.72059 1.73443 0
M  V30 6758 H 629.313 -3.04162 0.783847 0
M  V30 6759 H 628.506 -4.1159 2.90877 0
M  V30 6760 H 628.108 -2.38231 2.88308 0
M  V30 6761 H 630.4 -5.19392 4.35015 0
M  V30 6762 H 631.343 -4.32792 5.60444 0
M  V30 6763 H 631.751 -4.1025 3.87757 0
M  V30 6764 N 631.149 -1.42148 -0.680565 0
M  V30 6765 C 632.396 -1.4231 -1.44063 0
M  V30 6766 C 632.724 -0.037488 -1.94464 0
M  V30 6767 O 631.979 0.953184 -1.70918 0
M  V30 6768 C 632.278 -2.38945 -2.65782 0
M  V30 6769 C 631.944 -3.85455 -2.33956 0
M  V30 6770 C 630.606 -4.25364 -2.24987 0
M  V30 6771 C 632.958 -4.77895 -2.08004 0
M  V30 6772 C 630.286 -5.55701 -1.88184 0
M  V30 6773 C 632.638 -6.08568 -1.72706 0
M  V30 6774 C 631.302 -6.47482 -1.62244 0
M  V30 6775 H 630.572 -0.520748 -0.527164 0
M  V30 6776 H 633.219 -1.7505 -0.776524 0
M  V30 6777 H 631.524 -1.99511 -3.37198 0
M  V30 6778 H 633.221 -2.36336 -3.23954 0
M  V30 6779 H 629.811 -3.53855 -2.41836 0
M  V30 6780 H 633.995 -4.47854 -2.1387 0
M  V30 6781 H 629.251 -5.84718 -1.78648 0
M  V30 6782 H 633.425 -6.79688 -1.5165 0
M  V30 6783 H 631.052 -7.48387 -1.33496 0
M  V30 6784 N 632.627 0.916307 -1.28225 0
M  V30 6785 C 634.043 1.19425 -1.05876 0
M  V30 6786 C 634.243 2.005 0.2005 0
M  V30 6787 O 633.299 2.35806 0.902873 0
M  V30 6788 C 634.612 1.93133 -2.30478 0
M  V30 6789 C 636.16 2.06026 -2.35632 0
M  V30 6790 C 636.635 2.83141 -3.59994 0
M  V30 6791 N 638.126 2.90704 -3.60618 0
M  V30 6792 C 638.861 3.50865 -4.53521 0
M  V30 6793 N 638.357 4.12327 -5.56739 0
M  V30 6794 N 640.15 3.48379 -4.41122 0
M  V30 6795 H 632.301 0.37496 -2.09064 0
M  V30 6796 H 634.564 0.228531 -0.920042 0
M  V30 6797 H 634.27 1.40985 -3.22205 0
M  V30 6798 H 634.144 2.93696 -2.36691 0
M  V30 6799 H 636.531 2.57355 -1.44404 0
M  V30 6800 H 636.612 1.04647 -2.33415 0
M  V30 6801 H 636.256 2.32492 -4.51564 0
M  V30 6802 H 636.186 3.84829 -3.59464 0
M  V30 6803 H 638.677 2.47034 -2.85977 0
M  V30 6804 H 638.99 4.56205 -6.23776 0
M  V30 6805 H 637.335 4.10839 -5.60568 0
M  V30 6806 H 640.526 2.99572 -3.59686 0
M  V30 6807 H 640.699 3.94974 -5.13712 0
M  V30 6808 N 634.105 1.10431 1.1244 0
M  V30 6809 C 635.521 0.836096 1.35947 0
M  V30 6810 C 635.721 -0.544475 1.94004 0
M  V30 6811 O 634.777 -1.29735 2.16622 0
M  V30 6812 C 636.09 1.93575 2.30107 0
M  V30 6813 C 637.638 1.9642 2.43697 0
M  V30 6814 C 638.113 3.05559 3.41171 0
M  V30 6815 N 639.604 3.04865 3.48728 0
M  V30 6816 C 640.339 3.85954 4.24061 0
M  V30 6817 N 639.835 4.76977 5.02458 0
M  V30 6818 N 641.628 3.74172 4.19466 0
M  V30 6819 H 633.779 1.9942 0.731124 0
M  V30 6820 H 636.042 0.866607 0.384312 0
M  V30 6821 H 635.748 2.92943 1.94621 0
M  V30 6822 H 635.622 1.8229 3.30227 0
M  V30 6823 H 638.009 0.97685 2.78463 0
M  V30 6824 H 638.09 2.11782 1.43465 0
M  V30 6825 H 637.734 4.04513 3.07135 0
M  V30 6826 H 637.664 2.87438 4.41234 0
M  V30 6827 H 640.155 2.38908 2.92799 0
M  V30 6828 H 640.468 5.35409 5.57277 0
M  V30 6829 H 638.813 4.81006 5.01655 0
M  V30 6830 H 642.004 3.02412 3.57302 0
M  V30 6831 H 642.177 4.37602 4.77921 0
M  V30 6832 O 635.622 -1.24743 1.02574 0
M  V30 6833 H 636.313 -1.80996 0.689934 0
M  V30 END ATOM
M  V30 BEGIN BOND
M  V30 END BOND
M  V30 END CTAB
M  END
$$$$
