drugbank_target|P35462 D(3) dopamine receptor (DB00246; DB00248; DB00268; DB00334; DB00363; DB00391; DB00408; DB00409; DB00413; DB00477; DB00490; DB00502; DB00543; DB00589; DB00714; DB00988; DB01100; DB01184; DB01186; DB01200; DB01224; DB01235; DB01238; DB01239; DB01267; DB01392; DB01403; DB04946; DB05271; DB05766; DB06016; DB06148; DB06216; DB06288; DB06454; DB06477; DB09014; DB09207; DB09223; DB09286; DB09289; DB11274; DB12061; DB12478; DB13025; DB14185)
 OpenBabel12092119353D

  0  0  0     0  0            999 V3000
M  V30 BEGIN CTAB
M  V30 COUNTS 6283 6354 0 0 0
M  V30 BEGIN ATOM
M  V30 1 H -0.908 1.98254 -0.117106 0
M  V30 2 N 0 1.576 0 0
M  V30 3 C 0.933 2.03868 1.02534 0
M  V30 4 C 1.911 0.928543 1.3348 0
M  V30 5 O 3.095 1.19667 1.45644 0
M  V30 6 C 0.222 2.43627 2.35294 0
M  V30 7 C -0.732 3.65373 2.2001 0
M  V30 8 S 0.101 5.13292 1.52614 0
M  V30 9 C 1.257 5.56322 2.86805 0
M  V30 10 H 1.49 2.90518 0.631377 0
M  V30 11 H -0.977 1.52953 0.210867 0
M  V30 12 H 0.981 2.67203 3.11629 0
M  V30 13 H -0.358 1.57376 2.7183 0
M  V30 14 H -1.165 3.90944 3.18086 0
M  V30 15 H -1.563 3.418 1.51819 0
M  V30 16 H 0.729 5.58782 3.83104 0
M  V30 17 H 1.672 6.56266 2.65933 0
M  V30 18 H 2.08 4.83886 2.90714 0
M  V30 19 N 1.4781 -0.272755 1.55222 0
M  V30 20 C 2.4411 -1.32041 1.87344 0
M  V30 21 C 3.4411 -1.42342 0.74803 0
M  V30 22 O 4.6311 -1.41488 1.0162 0
M  V30 23 C 1.7631 -2.70173 2.07893 0
M  V30 24 H 2.9561 -1.04789 2.80997 0
M  V30 25 H 0.5091 -0.51083 1.47717 0
M  V30 26 H 1.2441 -3.02605 1.16622 0
M  V30 27 H 1.0291 -2.64082 2.89833 0
M  V30 28 H 2.5191 -3.45869 2.34017 0
M  V30 29 N 2.9562 -1.48159 -0.537278 0
M  V30 30 C 4.1812 -1.59707 -1.32319 0
M  V30 31 C 4.6062 -0.254859 -1.86365 0
M  V30 32 O 3.9642 0.772378 -1.64024 0
M  V30 33 C 4.0122 -2.6412 -2.45505 0
M  V30 34 O 3.1162 -2.20774 -3.48328 0
M  V30 35 H 2.4572 -0.535791 -0.392204 0
M  V30 36 H 4.9872 -1.94092 -0.647268 0
M  V30 37 H 4.9972 -2.85166 -2.91795 0
M  V30 38 H 3.6722 -3.61567 -2.05528 0
M  V30 39 H 2.2492 -2.09911 -3.08207 0
M  V30 40 N 4.4343 0.785586 -1.36625 0
M  V30 41 C 5.3643 1.91259 -1.33949 0
M  V30 42 C 6.3453 1.68795 -0.210325 0
M  V30 43 O 7.5303 1.89854 -0.408561 0
M  V30 44 C 4.6603 3.28339 -1.13186 0
M  V30 45 C 3.6143 3.65335 -2.22967 0
M  V30 46 C 2.9403 5.00806 -1.87342 0
M  V30 47 C 4.2403 3.7352 -3.65075 0
M  V30 48 H 5.9343 1.93755 -2.28253 0
M  V30 49 H 3.4803 0.930788 -1.09874 0
M  V30 50 H 5.4333 4.06804 -1.09948 0
M  V30 51 H 4.1573 3.2624 -0.153332 0
M  V30 52 H 2.8163 2.89169 -2.25337 0
M  V30 53 H 2.4643 4.95233 -0.880545 0
M  V30 54 H 2.1643 5.26529 -2.60846 0
M  V30 55 H 3.6883 5.81687 -1.85667 0
M  V30 56 H 5.1023 4.42168 -3.64911 0
M  V30 57 H 3.4993 4.10731 -4.37516 0
M  V30 58 H 4.5693 2.74527 -3.99703 0
M  V30 59 N 5.9124 1.20967 1.01018 0
M  V30 60 C 7.1374 1.0503 1.78839 0
M  V30 61 C 7.5624 -0.395752 1.8389 0
M  V30 62 O 6.9204 -1.28529 1.27867 0
M  V30 63 C 6.9684 1.64602 3.2084 0
M  V30 64 O 6.0724 0.887988 4.02726 0
M  V30 65 H 5.4134 0.369987 0.551367 0
M  V30 66 H 7.9434 1.60399 1.27018 0
M  V30 67 H 7.9534 1.68607 3.71532 0
M  V30 68 H 6.6284 2.69841 3.16479 0
M  V30 69 H 5.2054 0.922648 3.61305 0
M  V30 70 N 7.3905 -1.2043 1.01659 0
M  V30 71 C 8.3225 -2.22626 0.544988 0
M  V30 72 C 9.3355 -1.58479 -0.372609 0
M  V30 73 O 10.5245 -1.77679 -0.170958 0
M  V30 74 C 7.6245 -3.38141 -0.22663 0
M  V30 75 C 6.7975 -4.31877 0.692876 0
M  V30 76 C 5.8565 -5.26191 -0.0311616 0
M  V30 77 O 4.8825 -5.6612 0.591343 0
M  V30 78 N 6.0845 -5.65618 -1.30601 0
M  V30 79 H 8.8495 -2.63716 1.42388 0
M  V30 80 H 6.4105 -1.34971 0.894116 0
M  V30 81 H 8.4025 -3.98239 -0.72024 0
M  V30 82 H 6.9725 -2.95943 -1.00681 0
M  V30 83 H 6.1925 -3.69746 1.36679 0
M  V30 84 H 7.4805 -4.91426 1.31824 0
M  V30 85 H 6.8785 -5.3519 -1.83269 0
M  V30 86 H 5.4355 -6.28025 -1.74435 0
M  V30 87 N 8.8686 -0.792821 -1.36206 0
M  V30 88 C 9.7986 -0.207853 -2.32573 0
M  V30 89 C 10.7796 0.659055 -1.56813 0
M  V30 90 O 11.9646 0.592176 -1.84951 0
M  V30 91 C 9.0946 0.655449 -3.41059 0
M  V30 92 C 8.0486 -0.111842 -4.27854 0
M  V30 93 C 7.3746 0.872274 -5.27537 0
M  V30 94 C 8.6746 -1.30299 -5.05786 0
M  V30 95 H 10.3686 -1.01294 -2.81744 0
M  V30 96 H 7.9146 -0.48854 -1.3546 0
M  V30 97 H 9.8676 1.07464 -4.07467 0
M  V30 98 H 8.5916 1.49328 -2.90463 0
M  V30 99 H 7.2506 -0.512053 -3.63006 0
M  V30 100 H 6.8986 1.70523 -4.73214 0
M  V30 101 H 6.5986 0.363291 -5.86476 0
M  V30 102 H 8.1226 1.28996 -5.96818 0
M  V30 103 H 9.5366 -0.959379 -5.65216 0
M  V30 104 H 7.9336 -1.7455 -5.74154 0
M  V30 105 H 9.0036 -2.09663 -4.37229 0
M  V30 106 N 10.3467 1.47872 -0.545128 0
M  V30 107 C 11.5717 2.07391 -0.0190611 0
M  V30 108 C 11.9967 1.39688 1.25971 0
M  V30 109 O 11.3547 0.467816 1.7516 0
M  V30 110 C 11.4027 3.60188 0.172335 0
M  V30 111 O 10.5067 3.9339 1.23766 0
M  V30 112 H 9.8477 0.662411 -0.0459059 0
M  V30 113 H 12.3777 1.90066 -0.757365 0
M  V30 114 H 12.3877 4.06129 0.390305 0
M  V30 115 H 11.0627 4.08865 -0.761725 0
M  V30 116 H 9.6397 3.5921 1.00114 0
M  V30 117 N 11.8248 0.280983 1.55075 0
M  V30 118 C 13.0498 -0.340154 2.04592 0
M  V30 119 C 13.4748 -1.48246 1.15779 0
M  V30 120 O 12.8328 -1.80614 0.15761 0
M  V30 121 C 12.8808 -0.793104 3.5177 0
M  V30 122 O 11.9848 -1.89981 3.66034 0
M  V30 123 H 11.3258 -0.0694289 0.66036 0
M  V30 124 H 13.8558 0.416993 2.00306 0
M  V30 125 H 13.8658 -1.08729 3.93245 0
M  V30 126 H 12.5408 0.0426163 4.15878 0
M  V30 127 H 11.1178 -1.60771 3.36463 0
M  V30 128 N 13.3029 -1.57598 0.00835791 0
M  V30 129 C 14.2529 -2.05431 -0.989045 0
M  V30 130 C 15.2369 -0.950662 -1.29812 0
M  V30 131 O 16.4289 -1.21438 -1.28771 0
M  V30 132 C 13.5579 -2.56801 -2.27833 0
M  V30 133 C 12.6439 -3.74058 -1.99853 0
M  V30 134 N 13.0349 -4.8544 -1.42062 0
M  V30 135 C 11.3329 -3.82148 -2.29953 0
M  V30 136 C 12.0339 -5.66817 -1.30743 0
M  V30 137 N 11.0099 -5.13077 -1.7959 0
M  V30 138 H 14.8119 -2.88955 -0.536853 0
M  V30 139 H 12.3259 -1.61199 -0.197148 0
M  V30 140 H 14.3229 -2.89349 -3.00137 0
M  V30 141 H 12.9829 -1.74699 -2.73698 0
M  V30 142 H 13.9939 -5.0612 -1.09833 0
M  V30 143 H 10.6709 -3.10916 -2.78635 0
M  V30 144 H 12.0609 -6.66343 -0.862328 0
M  V30 145 N 14.781 0.264519 -1.55364 0
M  V30 146 C 15.711 1.33121 -1.91836 0
M  V30 147 C 16.692 1.51101 -0.781192 0
M  V30 148 O 17.877 1.64003 -1.04003 0
M  V30 149 C 15.007 2.68921 -2.19769 0
M  V30 150 C 13.961 2.65661 -3.35571 0
M  V30 151 C 13.287 4.05093 -3.49004 0
M  V30 152 C 14.587 2.24187 -4.71739 0
M  V30 153 H 16.281 1.02844 -2.81182 0
M  V30 154 H 13.827 0.493286 -1.35287 0
M  V30 155 H 15.78 3.43663 -2.43872 0
M  V30 156 H 14.504 3.00799 -1.27231 0
M  V30 157 H 13.163 1.93377 -3.1145 0
M  V30 158 H 12.811 4.34206 -2.53917 0
M  V30 159 H 12.511 4.03804 -4.26868 0
M  V30 160 H 14.035 4.81561 -3.75408 0
M  V30 161 H 15.449 2.88654 -4.9533 0
M  V30 162 H 13.846 2.34044 -5.52579 0
M  V30 163 H 14.916 1.19327 -4.69988 0
M  V30 164 N 16.2591 1.48442 0.529413 0
M  V30 165 C 17.2071 1.63452 1.65487 0
M  V30 166 C 18.2011 0.500955 1.61823 0
M  V30 167 O 19.4071 0.679695 1.66674 0
M  V30 168 H 15.7821 0.514905 0.548066 0
M  V30 169 H 17.7531 2.57975 1.49971 0
M  V30 170 C 16.5021 1.69196 3.03756 0
M  V30 171 H 15.8251 2.55784 3.07269 0
M  V30 172 H 17.2651 1.83743 3.82119 0
M  V30 173 C 15.7241 0.430765 3.34135 0
M  V30 174 O 16.2541 -0.4561 3.99102 0
M  V30 175 N 14.4601 0.302293 2.89023 0
M  V30 176 H 14.0071 1.02496 2.36331 0
M  V30 177 H 13.9651 -0.540546 3.09718 0
M  V30 178 N 17.7372 -0.778329 1.37039 0
M  V30 179 C 18.9672 -1.56507 1.34868 0
M  V30 180 C 19.3752 -1.89072 -0.0694802 0
M  V30 181 O 18.7182 -1.51434 -1.03987 0
M  V30 182 C 18.7802 -2.90641 2.11585 0
M  V30 183 C 18.4442 -2.80746 3.60598 0
M  V30 184 C 19.4412 -2.52226 4.54618 0
M  V30 185 C 17.1262 -2.98974 4.03633 0
M  V30 186 C 19.1202 -2.42054 5.89651 0
M  V30 187 C 16.8072 -2.88423 5.38754 0
M  V30 188 C 17.8052 -2.60002 6.31576 0
M  V30 189 O 17.4932 -2.49465 7.64214 0
M  V30 190 H 17.2252 -0.491723 0.463879 0
M  V30 191 H 19.7792 -0.973053 1.80889 0
M  V30 192 H 18.0092 -3.51936 1.60243 0
M  V30 193 H 19.6982 -3.51992 2.0213 0
M  V30 194 H 20.4642 -2.37835 4.22681 0
M  V30 195 H 16.3432 -3.20099 3.31749 0
M  V30 196 H 19.8872 -2.19791 6.62071 0
M  V30 197 H 15.7842 -3.0238 5.70295 0
M  V30 198 H 16.5522 -2.64864 7.74461 0
M  V30 199 N 19.2153 -1.21501 -1.00376 0
M  V30 200 C 20.4433 -1.059 -1.77744 0
M  V30 201 C 20.8583 0.391125 -1.84704 0
M  V30 202 O 20.2153 1.27133 -1.30933 0
M  V30 203 C 20.2663 -1.65111 -3.21591 0
M  V30 204 O 19.9873 -3.0445 -3.15027 0
M  V30 205 C 21.4883 -1.54637 -4.15454 0
M  V30 206 H 18.7083 -0.371825 -0.558558 0
M  V30 207 H 21.2523 -1.60865 -1.26264 0
M  V30 208 H 19.4073 -1.14235 -3.70175 0
M  V30 209 H 19.8213 -3.3278 -4.0541 0
M  V30 210 H 21.2953 -2.00808 -5.14179 0
M  V30 211 H 21.7723 -0.501022 -4.36333 0
M  V30 212 H 22.3783 -2.04767 -3.72761 0
M  V30 213 N 20.6934 1.19889 -1.02296 0
M  V30 214 C 21.9334 1.91125 -0.724602 0
M  V30 215 C 22.2974 1.77464 0.732835 0
M  V30 216 O 23.4984 2.43241 1.144 0
M  V30 217 C 21.7694 3.38187 -1.15604 0
M  V30 218 S 23.3284 4.27702 -0.980621 0
M  V30 219 H 20.1464 0.66018 -0.263976 0
M  V30 220 H 22.7484 1.44978 -1.31155 0
M  V30 221 H 21.4524 3.45653 -2.21251 0
M  V30 222 H 20.9834 3.89363 -0.562131 0
M  V30 223 H 22.9984 4.96073 0.112225 0
M  V30 224 N 22.1715 0.800033 1.35784 0
M  V30 225 C 23.4195 0.376597 1.9856 0
M  V30 226 C 23.7405 -1.05812 1.63795 0
M  V30 227 O 23.0105 -1.73103 0.917171 0
M  V30 228 H 21.5905 0.136261 0.734467 0
M  V30 229 H 24.2525 1.02442 1.65806 0
M  V30 230 H 23.3485 0.477002 3.08433 0
M  V30 231 N 23.6496 -1.47581 0.552962 0
M  V30 232 C 24.6126 -2.28439 -0.186605 0
M  V30 233 C 25.6126 -1.36706 -0.84665 0
M  V30 234 O 26.8026 -1.59378 -0.703164 0
M  V30 235 C 23.9346 -3.16264 -1.2724 0
M  V30 236 H 25.1276 -2.95294 0.523609 0
M  V30 237 H 22.6806 -1.532 0.309745 0
M  V30 238 H 23.4156 -2.54091 -2.01514 0
M  V30 239 H 23.2006 -3.83769 -0.803968 0
M  V30 240 H 24.6906 -3.77198 -1.79196 0
M  V30 241 N 25.1277 -0.289203 -1.54924 0
M  V30 242 C 26.0377 0.601863 -2.26748 0
M  V30 243 C 27.0537 1.15834 -1.2984 0
M  V30 244 O 28.2297 1.18564 -1.62802 0
M  V30 245 C 25.2947 1.76299 -2.98529 0
M  V30 246 C 24.3557 1.24178 -4.10948 0
M  V30 247 C 23.5887 2.34757 -4.79296 0
M  V30 248 O 23.8117 3.54411 -4.46933 0
M  V30 249 O 22.7457 2.02115 -5.66951 0
M  V30 250 H 26.5717 0.0195879 -3.03694 0
M  V30 251 H 24.1567 -0.0560868 -1.49295 0
M  V30 252 H 26.0387 2.43973 -3.43592 0
M  V30 253 H 24.7137 2.33209 -2.24488 0
M  V30 254 H 23.6207 0.531104 -3.70311 0
M  V30 255 H 24.9537 0.718252 -4.86931 0
M  V30 256 N 26.6058 1.57591 -0.0167156 0
M  V30 257 C 27.5538 2.10604 0.987353 0
M  V30 258 C 28.5478 1.02977 1.34507 0
M  V30 259 O 29.7538 1.21425 1.32875 0
M  V30 260 H 26.1288 0.672695 0.336134 0
M  V30 261 H 28.0998 2.93925 0.514817 0
M  V30 262 C 26.8488 2.6382 2.26483 0
M  V30 263 H 26.1718 3.46278 1.99829 0
M  V30 264 H 27.6118 3.04573 2.94977 0
M  V30 265 C 26.0708 1.55992 2.9861 0
M  V30 266 O 26.6008 0.952521 3.90243 0
M  V30 267 N 24.8068 1.28335 2.60727 0
M  V30 268 H 24.3538 1.77914 1.86291 0
M  V30 269 H 24.3118 0.564115 3.09298 0
M  V30 270 N 28.0839 -0.256276 1.55502 0
M  V30 271 C 29.3089 -1.00766 1.81276 0
M  V30 272 C 29.7339 -1.78524 0.59252 0
M  V30 273 O 29.0919 -1.75413 -0.45827 0
M  V30 274 C 29.1399 -1.92869 3.04687 0
M  V30 275 O 28.2439 -3.019 2.80945 0
M  V30 276 H 27.5849 -0.287224 0.598664 0
M  V30 277 H 30.1149 -0.280109 2.02674 0
M  V30 278 H 30.1249 -2.34511 3.33869 0
M  V30 279 H 28.7999 -1.35689 3.93143 0
M  V30 280 H 27.3769 -2.64454 2.62904 0
M  V30 281 N 29.562 -1.4872 -0.521534 0
M  V30 282 C 30.79 -1.60843 -1.30142 0
M  V30 283 C 31.205 -0.271897 -1.86832 0
M  V30 284 O 30.562 0.739969 -1.66825 0
M  V30 285 C 30.613 -2.66155 -2.4463 0
M  V30 286 O 30.334 -3.94623 -1.90275 0
M  V30 287 C 31.835 -2.88795 -3.36322 0
M  V30 288 H 29.055 -0.542075 -0.395468 0
M  V30 289 H 31.599 -1.94609 -0.628285 0
M  V30 290 H 29.754 -2.35224 -3.07812 0
M  V30 291 H 30.168 -4.52468 -2.65279 0
M  V30 292 H 31.642 -3.66264 -4.12983 0
M  V30 293 H 32.119 -1.97934 -3.9207 0
M  V30 294 H 32.725 -3.21063 -2.78924 0
M  V30 295 N 31.0401 0.771051 -1.3745 0
M  V30 296 C 32.2881 1.52661 -1.32435 0
M  V30 297 C 32.6091 1.9479 0.0905024 0
M  V30 298 O 31.8791 1.66348 1.03466 0
M  V30 299 H 30.4591 0.566218 -0.487244 0
M  V30 300 H 33.1211 0.917636 -1.71946 0
M  V30 301 H 32.2171 2.42568 -1.96385 0
M  V30 302 N 32.5182 1.22032 0.997298 0
M  V30 303 C 33.4812 0.987909 2.06816 0
M  V30 304 C 34.4812 -0.0440084 1.6074 0
M  V30 305 O 35.6712 0.194053 1.73116 0
M  V30 306 C 32.8032 0.49132 3.37341 0
M  V30 307 H 33.9962 1.93803 2.28868 0
M  V30 308 H 31.5492 1.03838 1.16822 0
M  V30 309 H 32.2842 -0.463364 3.20973 0
M  V30 310 H 32.0692 1.23575 3.72118 0
M  V30 311 H 33.5592 0.348824 4.16141 0
M  V30 312 N 33.9963 -1.19345 1.0293 0
M  V30 313 C 35.2213 -1.93538 0.745511 0
M  V30 314 C 35.6463 -1.75007 -0.689511 0
M  V30 315 O 35.0043 -1.05265 -1.47611 0
M  V30 316 C 35.0523 -3.43336 1.10239 0
M  V30 317 O 34.1563 -4.11806 0.221289 0
M  V30 318 H 33.4973 -0.604193 0.275404 0
M  V30 319 H 36.0273 -1.5141 1.37609 0
M  V30 320 H 36.0373 -3.94004 1.05947 0
M  V30 321 H 34.7123 -3.56146 2.14786 0
M  V30 322 H 33.2893 -3.715 0.322842 0
M  V30 323 N 35.4744 -0.807222 -1.35358 0
M  V30 324 C 36.4064 -0.175717 -2.28525 0
M  V30 325 C 37.4194 0.625354 -1.5031 0
M  V30 326 O 38.6084 0.457611 -1.72535 0
M  V30 327 C 35.7084 0.773471 -3.29956 0
M  V30 328 C 34.8814 0.0186296 -4.37396 0
M  V30 329 C 33.9404 0.886395 -5.18681 0
M  V30 330 O 32.9664 0.337106 -5.68201 0
M  V30 331 N 34.1684 2.20839 -5.36852 0
M  V30 332 H 36.9334 -0.976091 -2.83359 0
M  V30 333 H 34.4944 -0.662737 -1.47714 0
M  V30 334 H 36.4864 1.35824 -3.81227 0
M  V30 335 H 35.0564 1.47465 -2.75632 0
M  V30 336 H 34.2764 -0.747349 -3.87051 0
M  V30 337 H 35.5644 -0.501577 -5.06322 0
M  V30 338 H 34.9624 2.67858 -4.98265 0
M  V30 339 H 33.5194 2.74237 -5.91301 0
M  V30 340 N 36.9525 1.47285 -0.560781 0
M  V30 341 C 37.9155 2.28535 0.174488 0
M  V30 342 C 38.9155 1.37153 0.839388 0
M  V30 343 O 40.1055 1.59748 0.694702 0
M  V30 344 C 37.2375 3.16934 1.25561 0
M  V30 345 H 38.4305 2.95012 -0.539262 0
M  V30 346 H 35.9835 1.53034 -0.317865 0
M  V30 347 H 36.7185 2.55157 2.00164 0
M  V30 348 H 36.5035 3.8419 0.783604 0
M  V30 349 H 37.9935 3.78143 1.77193 0
M  V30 350 N 38.4306 0.297415 1.54768 0
M  V30 351 C 39.8466 -0.0560823 1.59501 0
M  V30 352 C 40.0466 -1.52725 1.31444 0
M  V30 353 O 39.1026 -2.27947 1.08611 0
M  V30 354 C 40.4156 0.338631 2.98787 0
M  V30 355 C 41.9636 0.287097 3.11681 0
M  V30 356 C 42.4386 0.656579 4.53269 0
M  V30 357 N 43.9296 0.608977 4.59179 0
M  V30 358 C 44.6646 0.867385 5.66802 0
M  V30 359 N 44.1606 1.19157 6.82476 0
M  V30 360 N 45.9536 0.794687 5.56454 0
M  V30 361 H 38.1046 1.25624 1.71267 0
M  V30 362 H 40.3676 0.509057 0.799728 0
M  V30 363 H 40.0736 1.36263 3.2423 0
M  V30 364 H 39.9476 -0.309508 3.75928 0
M  V30 365 H 42.3346 -0.727649 2.85988 0
M  V30 366 H 42.4156 0.969809 2.36703 0
M  V30 367 H 42.0596 1.66912 4.7969 0
M  V30 368 H 41.9896 -0.0481649 5.26578 0
M  V30 369 H 44.4806 0.369198 3.76092 0
M  V30 370 H 44.7936 1.37482 7.60473 0
M  V30 371 H 43.1386 1.22958 6.84037 0
M  V30 372 H 46.3296 0.541098 4.64962 0
M  V30 373 H 46.5026 0.999445 6.40246 0
M  V30 374 N 39.9087 -1.5758 0.0250728 0
M  V30 375 C 41.3197 -1.79476 -0.514323 0
M  V30 376 C 41.6707 -0.934956 -1.72491 0
M  V30 377 O 40.7957 -0.144245 -2.15919 0
M  V30 378 C 41.3907 -3.25503 -0.939842 0
M  V30 379 C 39.9497 -3.48408 -1.42438 0
M  V30 380 C 39.0967 -2.74583 -0.387201 0
M  V30 381 H 42.0477 -1.567 0.25113 0
M  V30 382 H 42.0687 -3.34992 -1.80445 0
M  V30 383 H 41.5807 -3.88056 -0.0585628 0
M  V30 384 H 39.6817 -2.91103 -2.32572 0
M  V30 385 H 39.7947 -4.57119 -1.43455 0
M  V30 386 H 38.1587 -2.39942 -0.854409 0
M  V30 387 H 38.9417 -3.39849 0.485543 0
M  V30 388 N 41.3868 0.248026 -1.55636 0
M  V30 389 C 42.3368 1.30994 -1.86614 0
M  V30 390 C 43.3208 1.43543 -0.726918 0
M  V30 391 O 44.5128 1.46804 -0.988818 0
M  V30 392 C 41.6418 2.6656 -2.16335 0
M  V30 393 C 40.7278 2.58019 -3.36581 0
M  V30 394 N 41.1188 2.1911 -4.55878 0
M  V30 395 C 39.4168 2.89035 -3.39669 0
M  V30 396 C 40.1178 2.21174 -5.38012 0
M  V30 397 N 39.0938 2.60632 -4.77045 0
M  V30 398 H 42.8958 0.999583 -2.76379 0
M  V30 399 H 40.4098 0.456652 -1.55848 0
M  V30 400 H 42.4068 3.43194 -2.36692 0
M  V30 401 H 41.0668 2.98463 -1.27867 0
M  V30 402 H 42.0778 1.90672 -4.81523 0
M  V30 403 H 38.7548 3.25485 -2.61469 0
M  V30 404 H 40.1448 1.9344 -6.43452 0
M  V30 405 N 42.8649 1.48995 0.513639 0
M  V30 406 C 43.8279 1.64229 1.59879 0
M  V30 407 C 44.8279 0.514696 1.5234 0
M  V30 408 O 46.0179 0.78087 1.55718 0
M  V30 409 C 43.1499 1.62783 2.99524 0
M  V30 410 H 44.3429 2.61004 1.47705 0
M  V30 411 H 41.8959 1.37837 0.736936 0
M  V30 412 H 42.6309 0.675461 3.17188 0
M  V30 413 H 42.4159 2.4466 3.06404 0
M  V30 414 H 43.9059 1.76669 3.78388 0
M  V30 415 N 44.343 -0.763751 1.37857 0
M  V30 416 C 45.573 -1.55067 1.3652 0
M  V30 417 C 45.981 -1.89135 -0.0494227 0
M  V30 418 O 45.324 -1.52529 -1.02375 0
M  V30 419 C 45.386 -2.8838 2.14656 0
M  V30 420 C 45.05 -2.76905 3.63555 0
M  V30 421 C 46.047 -2.4739 4.57268 0
M  V30 422 C 43.732 -2.94676 4.06781 0
M  V30 423 C 45.726 -2.35786 5.92186 0
M  V30 424 C 43.413 -2.82692 5.41782 0
M  V30 425 C 44.411 -2.53289 6.34298 0
M  V30 426 O 44.099 -2.41345 7.66817 0
M  V30 427 H 43.831 -0.486776 0.469069 0
M  V30 428 H 46.385 -0.953812 1.81911 0
M  V30 429 H 44.615 -3.50217 1.63967 0
M  V30 430 H 46.304 -3.49828 2.05852 0
M  V30 431 H 47.07 -2.33339 4.2518 0
M  V30 432 H 42.949 -3.16563 3.35126 0
M  V30 433 H 46.493 -2.12757 6.64365 0
M  V30 434 H 42.39 -2.96314 5.7347 0
M  V30 435 H 43.158 -2.56634 7.77226 0
M  V30 436 N 45.8211 -1.22559 -0.990812 0
M  V30 437 C 47.0511 -1.07623 -1.76355 0
M  V30 438 C 47.4591 0.37601 -1.85426 0
M  V30 439 O 46.8021 1.27228 -1.32509 0
M  V30 440 C 46.8641 -1.61507 -3.21179 0
M  V30 441 C 46.5281 -3.10146 -3.35646 0
M  V30 442 C 47.5251 -4.07553 -3.22796 0
M  V30 443 C 45.2101 -3.49644 -3.60631 0
M  V30 444 C 47.2041 -5.42442 -3.34716 0
M  V30 445 C 44.8911 -4.84682 -3.72192 0
M  V30 446 C 45.8891 -5.8089 -3.59243 0
M  V30 447 O 45.5771 -7.13476 -3.70415 0
M  V30 448 H 45.3091 -0.377745 -0.560611 0
M  V30 449 H 47.8631 -1.62658 -1.25425 0
M  V30 450 H 46.0931 -1.00881 -3.73309 0
M  V30 451 H 47.7821 -1.42202 -3.80175 0
M  V30 452 H 48.5481 -3.78381 -3.03403 0
M  V30 453 H 44.4271 -2.75282 -3.69785 0
M  V30 454 H 47.9711 -6.17518 -3.24526 0
M  V30 455 H 43.8681 -5.13534 -3.91092 0
M  V30 456 H 44.6361 -7.21083 -3.87275 0
M  V30 457 N 47.2992 1.18797 -1.03562 0
M  V30 458 C 48.2622 2.20464 -0.626769 0
M  V30 459 C 49.2622 1.57721 0.313173 0
M  V30 460 O 50.4522 1.73917 0.0992615 0
M  V30 461 C 47.5842 3.40802 0.0818498 0
M  V30 462 H 48.7772 2.58149 -1.5264 0
M  V30 463 H 46.3302 1.32593 -0.827578 0
M  V30 464 H 47.0652 3.08642 0.995518 0
M  V30 465 H 46.8502 3.8758 -0.593652 0
M  V30 466 H 48.3402 4.16092 0.354584 0
M  V30 467 N 48.7773 0.814389 1.34928 0
M  V30 468 C 49.7073 0.244827 2.32213 0
M  V30 469 C 50.6883 -0.634024 1.57842 0
M  V30 470 O 51.8733 -0.562676 1.8587 0
M  V30 471 C 49.0033 -0.601106 3.42058 0
M  V30 472 C 47.9573 0.179896 4.27622 0
M  V30 473 C 47.2833 -0.788237 5.28858 0
M  V30 474 C 48.5833 1.38329 5.03649 0
M  V30 475 H 50.2773 1.05763 2.80097 0
M  V30 476 H 47.8233 0.510029 1.34665 0
M  V30 477 H 49.7763 -1.00968 4.09125 0
M  V30 478 H 48.5003 -1.44688 2.92802 0
M  V30 479 H 47.1593 0.569739 3.62146 0
M  V30 480 H 46.8073 -1.62973 4.75866 0
M  V30 481 H 46.5073 -0.269942 5.8698 0
M  V30 482 H 48.0313 -1.19485 5.98795 0
M  V30 483 H 49.4453 1.04918 5.63618 0
M  V30 484 H 47.8423 1.83662 5.71304 0
M  V30 485 H 48.9123 2.16592 4.33839 0
M  V30 486 N 50.2554 -1.46986 0.568584 0
M  V30 487 C 51.4804 -2.07335 0.0520528 0
M  V30 488 C 51.9054 -1.41675 -1.23733 0
M  V30 489 O 51.2634 -0.495623 -1.74394 0
M  V30 490 C 51.3114 -3.60417 -0.11501 0
M  V30 491 O 50.4154 -3.95309 -1.17492 0
M  V30 492 H 49.7564 -0.661597 0.0564385 0
M  V30 493 H 52.2864 -1.88837 0.787507 0
M  V30 494 H 52.2964 -4.06698 -0.325644 0
M  V30 495 H 50.9714 -4.07601 0.826675 0
M  V30 496 H 49.5484 -3.60757 -0.943869 0
M  V30 497 N 51.7335 -0.305618 -1.54608 0
M  V30 498 C 52.9635 0.304333 -2.04346 0
M  V30 499 C 53.3715 1.47715 -1.18224 0
M  V30 500 O 52.7145 1.82591 -0.201577 0
M  V30 501 C 52.7765 0.819031 -3.50046 0
M  V30 502 C 52.4405 -0.22912 -4.56425 0
M  V30 503 C 53.4375 -1.05914 -5.08997 0
M  V30 504 C 51.1225 -0.372148 -5.0092 0
M  V30 505 C 53.1165 -2.01809 -6.04609 0
M  V30 506 C 50.8035 -1.33454 -5.9635 0
M  V30 507 C 51.8015 -2.15599 -6.48079 0
M  V30 508 O 51.4895 -3.10205 -7.41639 0
M  V30 509 H 51.2215 0.0693996 -0.672428 0
M  V30 510 H 53.7755 -0.444548 -2.00532 0
M  V30 511 H 52.0055 1.61852 -3.51199 0
M  V30 512 H 53.6945 1.34537 -3.82955 0
M  V30 513 H 54.4605 -0.959538 -4.75413 0
M  V30 514 H 50.3395 0.257304 -4.60281 0
M  V30 515 H 53.8835 -2.65966 -6.44909 0
M  V30 516 H 49.7805 -1.43485 -6.29351 0
M  V30 517 H 50.5485 -3.05237 -7.59455 0
M  V30 518 N 53.2116 1.57565 -0.0334293 0
M  V30 519 C 54.4516 1.93844 0.648379 0
M  V30 520 C 54.8156 0.910387 1.69044 0
M  V30 521 O 56.0166 1.15952 2.42505 0
M  V30 522 C 54.2876 3.35017 1.24492 0
M  V30 523 S 55.8466 3.93229 1.94721 0
M  V30 524 H 52.6646 0.678231 0.213364 0
M  V30 525 H 55.2666 1.95254 -0.0981253 0
M  V30 526 H 53.9706 4.07652 0.474128 0
M  V30 527 H 53.5016 3.37061 2.02864 0
M  V30 528 H 55.5166 3.77014 3.22606 0
M  V30 529 N 54.6897 -0.239769 1.55765 0
M  V30 530 C 55.6527 -1.28038 1.90103 0
M  V30 531 C 56.6527 -1.40723 0.778055 0
M  V30 532 O 57.8427 -1.39301 1.04599 0
M  V30 533 C 54.9747 -2.65702 2.13577 0
M  V30 534 H 56.1677 -0.988048 2.83157 0
M  V30 535 H 53.7207 -0.479382 1.48767 0
M  V30 536 H 54.4557 -3.00063 1.23015 0
M  V30 537 H 54.2407 -2.57875 2.95369 0
M  V30 538 H 55.7307 -3.40828 2.41301 0
M  V30 539 N 56.1678 -1.49265 -0.50573 0
M  V30 540 C 57.0978 -1.68495 -1.61653 0
M  V30 541 C 58.0788 -0.53366 -1.61512 0
M  V30 542 O 59.2638 -0.76897 -1.78327 0
M  V30 543 C 56.3938 -1.74709 -3.00157 0
M  V30 544 C 55.3478 -2.89581 -3.15162 0
M  V30 545 C 54.6738 -2.80903 -4.5497 0
M  V30 546 C 55.9738 -4.30578 -2.95634 0
M  V30 547 H 57.6678 -2.61493 -1.45814 0
M  V30 548 H 55.2138 -1.25838 -0.70005 0
M  V30 549 H 57.1668 -1.86748 -3.77761 0
M  V30 550 H 55.8908 -0.783067 -3.17074 0
M  V30 551 H 54.5498 -2.77136 -2.39982 0
M  V30 552 H 54.1978 -1.82419 -4.68756 0
M  V30 553 H 53.8978 -3.57999 -4.65951 0
M  V30 554 H 55.4218 -2.94944 -5.34641 0
M  V30 555 H 56.8358 -4.4373 -3.63011 0
M  V30 556 H 55.2328 -5.0886 -3.18091 0
M  V30 557 H 56.3028 -4.45352 -1.91806 0
M  V30 558 N 57.6459 0.756429 -1.3826 0
M  V30 559 C 58.8949 1.51082 -1.3363 0
M  V30 560 C 59.2079 1.95467 0.0720068 0
M  V30 561 O 60.4139 2.7043 0.240834 0
M  V30 562 C 58.8699 2.72893 -2.34644 0
M  V30 563 C 58.4779 2.35544 -3.81081 0
M  V30 564 C 60.2219 3.50791 -2.39052 0
M  V30 565 C 58.1289 3.53948 -4.73787 0
M  V30 566 H 57.0589 0.56727 -0.49671 0
M  V30 567 H 59.7099 0.827147 -1.638 0
M  V30 568 H 58.0919 3.43227 -1.97513 0
M  V30 569 H 59.2659 1.72894 -4.27135 0
M  V30 570 H 57.5809 1.70786 -3.79764 0
M  V30 571 H 60.1779 4.38823 -3.05513 0
M  V30 572 H 60.5209 3.91745 -1.40861 0
M  V30 573 H 61.0539 2.87467 -2.74968 0
M  V30 574 H 57.7929 3.18064 -5.73163 0
M  V30 575 H 57.3129 4.15651 -4.32428 0
M  V30 576 H 58.9919 4.20566 -4.91663 0
M  V30 577 N 59.124 1.23083 0.984299 0
M  V30 578 C 60.054 1.03292 2.09411 0
M  V30 579 C 61.035 -0.048923 1.7003 0
M  V30 580 O 62.22 0.114967 1.93859 0
M  V30 581 C 59.35 0.619155 3.41736 0
M  V30 582 C 58.304 1.64791 3.95004 0
M  V30 583 C 57.63 1.0897 5.23478 0
M  V30 584 C 58.93 3.03999 4.24714 0
M  V30 585 H 60.624 1.96119 2.26225 0
M  V30 586 H 58.17 0.944344 1.08711 0
M  V30 587 H 60.123 0.467777 4.18796 0
M  V30 588 H 58.847 -0.344786 3.24775 0
M  V30 589 H 57.506 1.78721 3.20085 0
M  V30 590 H 57.154 0.11686 5.02864 0
M  V30 591 H 56.854 1.77704 5.60085 0
M  V30 592 H 58.378 0.950093 6.03163 0
M  V30 593 H 59.792 2.93393 4.92538 0
M  V30 594 H 58.189 3.69936 4.72512 0
M  V30 595 H 59.259 3.53285 3.32142 0
M  V30 596 N 60.6021 -1.18246 1.0419 0
M  V30 597 C 61.5651 -2.20128 0.638452 0
M  V30 598 C 62.5651 -1.57885 -0.304805 0
M  V30 599 O 63.7551 -1.73967 -0.0900369 0
M  V30 600 C 60.8871 -3.4084 -0.0637751 0
M  V30 601 H 62.0801 -2.57336 1.54007 0
M  V30 602 H 59.6331 -1.32152 0.834598 0
M  V30 603 H 60.3681 -3.09166 -0.979136 0
M  V30 604 H 60.1531 -3.8726 0.614198 0
M  V30 605 H 61.6431 -4.16274 -0.332512 0
M  V30 606 N 62.0802 -0.821533 -1.34494 0
M  V30 607 C 63.3292 -0.405355 -1.97585 0
M  V30 608 C 63.6422 1.03677 -1.65863 0
M  V30 609 O 64.8482 1.55679 -2.22433 0
M  V30 610 C 63.3042 -0.673861 -3.53535 0
M  V30 611 C 62.9122 -2.12951 -3.94152 0
M  V30 612 C 64.6562 -0.32378 -4.23263 0
M  V30 613 C 62.5632 -2.34298 -5.43009 0
M  V30 614 H 61.4932 -0.147836 -0.739365 0
M  V30 615 H 64.1442 -1.00769 -1.53355 0
M  V30 616 H 62.5262 -0.00137554 -3.96 0
M  V30 617 H 63.7002 -2.84104 -3.62797 0
M  V30 618 H 62.0152 -2.44089 -3.37356 0
M  V30 619 H 64.6122 -0.461126 -5.32708 0
M  V30 620 H 64.9552 0.731586 -4.09821 0
M  V30 621 H 65.4882 -0.950786 -3.8627 0
M  V30 622 H 62.2272 -3.38335 -5.61435 0
M  V30 623 H 61.7472 -1.67687 -5.75883 0
M  V30 624 H 63.4262 -2.16588 -6.09671 0
M  V30 625 N 63.5583 1.46682 -0.576371 0
M  V30 626 C 64.8043 2.02712 -0.0596221 0
M  V30 627 C 65.1373 1.44765 1.29448 0
M  V30 628 O 64.4123 0.610355 1.84675 0
M  V30 629 C 64.6953 3.60098 0.0129503 0
M  V30 630 C 64.5483 4.28441 -1.3696 0
M  V30 631 C 65.8673 4.34224 0.71678 0
M  V30 632 H 62.9863 0.736637 -0.0231407 0
M  V30 633 H 65.6283 1.74898 -0.742351 0
M  V30 634 H 63.7783 3.83926 0.594378 0
M  V30 635 H 65.4503 4.15896 -1.9957 0
M  V30 636 H 63.6933 3.8805 -1.93907 0
M  V30 637 H 64.3643 5.3716 -1.27135 0
M  V30 638 H 66.8403 4.15503 0.222908 0
M  V30 639 H 65.7163 5.43936 0.73657 0
M  V30 640 H 65.9773 4.04823 1.77682 0
M  V30 641 N 65.0364 0.313813 1.54444 0
M  V30 642 C 66.2834 -0.291675 2.00388 0
M  V30 643 C 66.6114 -1.52904 1.2021 0
M  V30 644 O 65.8664 -1.93833 0.269707 0
M  V30 645 C 66.1654 -0.680386 3.50864 0
M  V30 646 C 65.8314 0.456699 4.48581 0
M  V30 647 C 64.4934 0.768824 4.75018 0
M  V30 648 C 66.8454 1.22098 5.06697 0
M  V30 649 C 64.1734 1.84812 5.56831 0
M  V30 650 C 66.5254 2.29029 5.89685 0
M  V30 651 C 65.1894 2.60834 6.14428 0
M  V30 652 H 64.4594 -0.106732 0.733273 0
M  V30 653 H 67.1064 0.43557 1.86481 0
M  V30 654 H 65.4114 -1.48791 3.62448 0
M  V30 655 H 67.1084 -1.16026 3.83847 0
M  V30 656 H 63.6984 0.203337 4.28117 0
M  V30 657 H 67.8824 0.993096 4.86263 0
M  V30 658 H 63.1384 2.09912 5.74236 0
M  V30 659 H 67.3124 2.887 6.33739 0
M  V30 660 H 64.9394 3.44596 6.77612 0
M  V30 661 N 66.5145 -1.57545 0.0417849 0
M  V30 662 C 67.7625 -1.91937 -0.632829 0
M  V30 663 C 68.0835 -0.919978 -1.71934 0
M  V30 664 O 67.3535 0.0366064 -1.95866 0
M  V30 665 H 65.9335 -0.708493 -0.236742 0
M  V30 666 H 68.5955 -1.9468 0.0925745 0
M  V30 667 H 67.6915 -2.92912 -1.07746 0
M  V30 668 N 67.9926 0.231505 -1.5589 0
M  V30 669 C 68.9406 1.30649 -1.92441 0
M  V30 670 C 69.9346 1.49037 -0.805254 0
M  V30 671 O 71.1406 1.50329 -0.990007 0
M  V30 672 H 67.5156 0.437812 -0.611412 0
M  V30 673 H 69.4866 0.970973 -2.82161 0
M  V30 674 C 68.2356 2.65179 -2.24889 0
M  V30 675 H 67.5586 2.51835 -3.10514 0
M  V30 676 H 68.9986 3.39234 -2.54355 0
M  V30 677 C 67.4576 3.19439 -1.07054 0
M  V30 678 O 67.9876 4.00371 -0.326499 0
M  V30 679 N 66.1936 2.77675 -0.85703 0
M  V30 680 H 65.7406 2.11969 -1.46379 0
M  V30 681 H 65.6986 3.14321 -0.0703223 0
M  V30 682 N 69.4707 1.49531 0.497807 0
M  V30 683 C 70.7187 1.58865 1.24926 0
M  V30 684 C 71.0397 0.278721 1.92998 0
M  V30 685 O 70.3097 -0.702144 1.82885 0
M  V30 686 H 68.8897 0.585343 0.464094 0
M  V30 687 H 71.5517 1.86174 0.57666 0
M  V30 688 H 70.6477 2.38633 2.01149 0
M  V30 689 N 70.9488 -0.749086 1.3866 0
M  V30 690 C 71.8788 -1.8764 1.38973 0
M  V30 691 C 72.8598 -1.68178 0.255004 0
M  V30 692 O 74.0448 -1.88704 0.458754 0
M  V30 693 C 71.1748 -3.25222 1.21851 0
M  V30 694 C 70.1288 -3.59295 2.32575 0
M  V30 695 C 69.4548 -4.95663 2.00555 0
M  V30 696 C 70.7548 -3.63709 3.7485 0
M  V30 697 H 72.4488 -1.87635 2.3331 0
M  V30 698 H 69.9948 -0.901329 1.12303 0
M  V30 699 H 71.9478 -4.03746 1.20695 0
M  V30 700 H 70.6718 -3.25719 0.239775 0
M  V30 701 H 69.3308 -2.83093 2.32925 0
M  V30 702 H 68.9788 -4.92724 1.01154 0
M  V30 703 H 68.6788 -5.19429 2.74714 0
M  V30 704 H 70.2028 -5.7656 2.01024 0
M  V30 705 H 71.6168 -4.32338 3.76506 0
M  V30 706 H 70.0138 -3.98986 4.48252 0
M  V30 707 H 71.0838 -2.63834 4.06841 0
M  V30 708 N 72.4269 -1.23603 -0.977757 0
M  V30 709 C 73.6729 -1.07129 -1.72195 0
M  V30 710 C 74.0059 0.390501 -1.90233 0
M  V30 711 O 73.2809 1.28902 -1.45653 0
M  V30 712 C 73.5639 -1.80031 -3.11867 0
M  V30 713 C 73.4169 -3.33899 -3.01383 0
M  V30 714 C 74.7359 -1.56492 -4.11337 0
M  V30 715 H 71.8549 -0.390571 -0.624999 0
M  V30 716 H 74.4969 -1.52142 -1.13811 0
M  V30 717 H 72.6469 -1.41768 -3.6171 0
M  V30 718 H 74.3189 -3.81699 -2.59043 0
M  V30 719 H 72.5619 -3.62796 -2.37827 0
M  V30 720 H 73.2329 -3.801 -4.00285 0
M  V30 721 H 75.7089 -1.89757 -3.70313 0
M  V30 722 H 74.5849 -2.09973 -5.07151 0
M  V30 723 H 74.8459 -0.500874 -4.39254 0
M  V30 724 N 73.905 1.17692 -1.04816 0
M  V30 725 C 75.145 1.89545 -0.764979 0
M  V30 726 C 75.509 1.78979 0.695028 0
M  V30 727 O 76.71 2.45613 1.09215 0
M  V30 728 C 74.981 3.35659 -1.22751 0
M  V30 729 S 76.54 4.25526 -1.07112 0
M  V30 730 H 73.358 0.654432 -0.27792 0
M  V30 731 H 75.96 1.42163 -1.34201 0
M  V30 732 H 74.664 3.40882 -2.28533 0
M  V30 733 H 74.195 3.88083 -0.644594 0
M  V30 734 H 76.21 4.962 0.00697508 0
M  V30 735 N 75.3831 0.828654 1.34056 0
M  V30 736 C 76.3161 0.199763 2.27324 0
M  V30 737 C 77.2941 -0.647168 1.49166 0
M  V30 738 O 78.4781 -0.609661 1.78369 0
M  V30 739 C 75.6051 -0.720455 3.30949 0
M  V30 740 C 74.6511 0.0496888 4.26471 0
M  V30 741 S 75.4841 1.40072 5.16856 0
M  V30 742 C 76.6401 0.485527 6.24014 0
M  V30 743 H 76.8731 0.990478 2.80316 0
M  V30 744 H 74.4061 0.624857 1.41191 0
M  V30 745 H 76.3641 -1.24581 3.91139 0
M  V30 746 H 75.0251 -1.48474 2.76793 0
M  V30 747 H 74.2181 -0.650104 4.9979 0
M  V30 748 H 73.8201 0.505779 3.70564 0
M  V30 749 H 76.1121 -0.320672 6.76741 0
M  V30 750 H 77.0551 1.18856 6.98054 0
M  V30 751 H 77.4631 0.0714109 5.64455 0
M  V30 752 N 76.8612 -1.46375 0.584142 0
M  V30 753 C 77.8242 -2.28784 -0.138108 0
M  V30 754 C 78.8242 -1.38471 -0.817462 0
M  V30 755 O 80.0142 -1.60833 -0.669199 0
M  V30 756 C 77.1462 -3.18892 -1.20503 0
M  V30 757 H 78.3392 -2.94117 0.586127 0
M  V30 758 H 75.8922 -1.52509 0.342171 0
M  V30 759 H 76.6272 -2.58309 -1.96079 0
M  V30 760 H 76.4122 -3.85388 -0.722384 0
M  V30 761 H 77.9022 -3.80914 -1.71155 0
M  V30 762 N 78.3393 -0.321999 -1.54275 0
M  V30 763 C 79.5853 0.281461 -2.00837 0
M  V30 764 C 79.9183 1.51909 -1.20985 0
M  V30 765 O 79.1933 1.923 -0.291733 0
M  V30 766 C 79.4763 0.617162 -3.54772 0
M  V30 767 C 79.3293 -0.631064 -4.45351 0
M  V30 768 C 80.6483 1.43542 -4.16033 0
M  V30 769 H 77.7673 0.100826 -0.730071 0
M  V30 770 H 80.4093 -0.438268 -1.84876 0
M  V30 771 H 78.5593 1.23034 -3.68504 0
M  V30 772 H 80.2313 -1.26934 -4.43492 0
M  V30 773 H 78.4743 -1.26025 -4.15091 0
M  V30 774 H 79.1453 -0.351735 -5.50878 0
M  V30 775 H 81.6213 0.917134 -4.05867 0
M  V30 776 H 80.4973 1.63907 -5.23856 0
M  V30 777 H 80.7583 2.43108 -3.69257 0
M  V30 778 N 79.8174 1.5752 -0.0501392 0
M  V30 779 C 80.7474 2.14502 0.922566 0
M  V30 780 C 81.7284 1.06642 1.3252 0
M  V30 781 O 82.9134 1.34577 1.4001 0
M  V30 782 C 80.0434 2.68916 2.19776 0
M  V30 783 C 78.9974 3.8175 1.93523 0
M  V30 784 C 78.3234 4.22677 3.27487 0
M  V30 785 C 79.6234 5.06932 1.25765 0
M  V30 786 H 81.3174 2.9603 0.447952 0
M  V30 787 H 78.8634 1.42401 0.214024 0
M  V30 788 H 80.8164 3.07419 2.88222 0
M  V30 789 H 79.5404 1.84578 2.69441 0
M  V30 790 H 78.1994 3.43718 1.27489 0
M  V30 791 H 77.8474 3.35291 3.74952 0
M  V30 792 H 77.5474 4.98725 3.1072 0
M  V30 793 H 79.0714 4.63779 3.97166 0
M  V30 794 H 80.4854 5.42888 1.84244 0
M  V30 795 H 78.8824 5.88116 1.19328 0
M  V30 796 H 79.9524 4.84337 0.233536 0
M  V30 797 N 81.2955 -0.223234 1.56011 0
M  V30 798 C 82.2425 -1.27664 1.92277 0
M  V30 799 C 83.2125 -1.46659 0.779763 0
M  V30 800 O 84.3975 -1.60256 1.03551 0
M  V30 801 C 81.5375 -2.62234 2.24338 0
M  V30 802 C 80.6505 -2.51051 3.51564 0
M  V30 803 C 79.7855 -3.78133 3.7308 0
M  V30 804 C 78.8245 -3.61665 4.93827 0
M  V30 805 N 77.9615 -4.80693 5.11741 0
M  V30 806 H 82.8015 -0.960358 2.82101 0
M  V30 807 H 80.3385 -0.462901 1.39627 0
M  V30 808 H 82.2965 -3.40596 2.40936 0
M  V30 809 H 80.9265 -2.91961 1.3769 0
M  V30 810 H 79.9785 -1.64132 3.43169 0
M  V30 811 H 81.2905 -2.34803 4.40079 0
M  V30 812 H 80.4445 -4.64938 3.89766 0
M  V30 813 H 79.1835 -3.97304 2.82844 0
M  V30 814 H 78.1885 -2.73244 4.77093 0
M  V30 815 H 79.4135 -3.43966 5.85546 0
M  V30 816 H 77.3595 -5.00181 4.24446 0
M  V30 817 H 77.2765 -4.67165 5.94384 0
M  V30 818 H 78.5445 -5.6893 5.3286 0
M  V30 819 N 82.7736 -1.49793 -0.48987 0
M  V30 820 C 83.6836 -1.70036 -1.61632 0
M  V30 821 C 84.6996 -0.583102 -1.63939 0
M  V30 822 O 85.8756 -0.859169 -1.82154 0
M  V30 823 C 82.9406 -1.77277 -2.97949 0
M  V30 824 C 82.0016 -3.00918 -3.06181 0
M  V30 825 C 81.2346 -3.07804 -4.35996 0
M  V30 826 O 81.4576 -2.21982 -5.25433 0
M  V30 827 O 80.3916 -4.00369 -4.49431 0
M  V30 828 H 84.2176 -2.65486 -1.47482 0
M  V30 829 H 81.8026 -1.33666 -0.667362 0
M  V30 830 H 83.6846 -1.84329 -3.78947 0
M  V30 831 H 82.3596 -0.850076 -3.12339 0
M  V30 832 H 81.2666 -2.99377 -2.2433 0
M  V30 833 H 82.5996 -3.92704 -2.96723 0
M  V30 834 N 84.2517 0.741722 -1.39055 0
M  V30 835 C 85.6677 1.04638 -1.20512 0
M  V30 836 C 85.8677 2.01405 -0.0620218 0
M  V30 837 O 84.9237 2.45547 0.588457 0
M  V30 838 C 86.2367 1.6151 -2.53643 0
M  V30 839 C 87.7847 1.73623 -2.6043 0
M  V30 840 C 88.2597 2.33906 -3.93767 0
M  V30 841 N 89.7507 2.41323 -3.9537 0
M  V30 842 C 90.4857 2.88888 -4.95309 0
M  V30 843 N 89.9817 3.36401 -6.05645 0
M  V30 844 N 91.7747 2.88037 -4.82692 0
M  V30 845 H 83.9257 0.0998155 -2.12165 0
M  V30 846 H 86.1887 0.106907 -0.941953 0
M  V30 847 H 85.8947 0.978739 -3.37807 0
M  V30 848 H 85.7687 2.60411 -2.72885 0
M  V30 849 H 88.1557 2.36384 -1.76655 0
M  V30 850 H 88.2367 0.733945 -2.45045 0
M  V30 851 H 87.8807 1.71776 -4.7797 0
M  V30 852 H 87.8107 3.34799 -4.06469 0
M  V30 853 H 90.3017 2.07734 -3.15682 0
M  V30 854 H 90.6147 3.71186 -6.77821 0
M  V30 855 H 88.9597 3.34427 -6.09248 0
M  V30 856 H 92.1507 2.50237 -3.95599 0
M  V30 857 H 92.3237 3.24792 -5.60726 0
M  V30 858 N 85.7298 1.2412 0.971189 0
M  V30 859 C 86.6928 1.03156 2.04674 0
M  V30 860 C 87.6928 -0.00990322 1.60797 0
M  V30 861 O 88.8828 0.230729 1.72665 0
M  V30 862 C 86.0148 0.562765 3.36223 0
M  V30 863 H 87.2078 1.98614 2.24705 0
M  V30 864 H 84.7608 1.06293 1.14593 0
M  V30 865 H 85.4958 -0.395176 3.21883 0
M  V30 866 H 85.2808 1.31441 3.69413 0
M  V30 867 H 86.7708 0.437015 4.15307 0
M  V30 868 N 87.2079 -1.17134 1.05439 0
M  V30 869 C 88.1379 -2.2342 0.678649 0
M  V30 870 C 89.1189 -1.66971 -0.32476 0
M  V30 871 O 90.3039 -1.93149 -0.201802 0
M  V30 872 C 87.4339 -3.47256 0.0552099 0
M  V30 873 C 86.3879 -4.16543 0.98365 0
M  V30 874 C 85.7139 -5.34231 0.223961 0
M  V30 875 C 87.0139 -4.68495 2.3089 0
M  V30 876 H 88.7079 -2.55105 1.56722 0
M  V30 877 H 86.2539 -1.2262 0.754998 0
M  V30 878 H 88.2069 -4.20828 -0.21946 0
M  V30 879 H 86.9309 -3.14846 -0.868319 0
M  V30 880 H 85.5899 -3.44887 1.24293 0
M  V30 881 H 85.2379 -4.98071 -0.702412 0
M  V30 882 H 84.9379 -5.81527 0.842627 0
M  V30 883 H 86.4619 -6.10585 -0.0433671 0
M  V30 884 H 87.8759 -5.33691 2.09396 0
M  V30 885 H 86.2729 -5.26379 2.88176 0
M  V30 886 H 87.3429 -3.85169 2.94572 0
M  V30 887 N 88.686 -0.835752 -1.33615 0
M  V30 888 C 89.618 -0.224151 -2.28101 0
M  V30 889 C 90.631 0.593331 -1.51603 0
M  V30 890 O 91.82 0.420911 -1.73466 0
M  V30 891 C 88.92 0.703309 -3.31522 0
M  V30 892 C 88.093 -0.0741528 -4.37337 0
M  V30 893 C 87.152 0.776176 -5.20444 0
M  V30 894 O 86.178 0.216506 -5.68788 0
M  V30 895 N 87.38 2.09401 -5.41416 0
M  V30 896 H 90.145 -1.03598 -2.81225 0
M  V30 897 H 87.706 -0.69392 -1.46275 0
M  V30 898 H 89.698 1.27707 -3.84022 0
M  V30 899 H 88.268 1.41585 -2.78698 0
M  V30 900 H 87.488 -0.82928 -3.85378 0
M  V30 901 H 88.776 -0.608863 -5.05144 0
M  V30 902 H 88.174 2.57229 -5.03835 0
M  V30 903 H 86.731 2.61633 -5.96985 0
M  V30 904 N 90.1641 1.46063 -0.591896 0
M  V30 905 C 91.3921 2.06717 -0.0868936 0
M  V30 906 C 91.8071 1.43916 1.22203 0
M  V30 907 O 91.1641 0.547698 1.74088 0
M  V30 908 C 91.2151 3.6142 0.0758725 0
M  V30 909 O 90.9361 4.21874 -1.18126 0
M  V30 910 C 92.4371 4.39025 0.61416 0
M  V30 911 H 89.6571 0.668162 -0.0616518 0
M  V30 912 H 92.2011 1.8755 -0.815175 0
M  V30 913 H 90.3561 3.79983 0.754413 0
M  V30 914 H 90.7701 5.14861 -1.00092 0
M  V30 915 H 92.2441 5.4783 0.677193 0
M  V30 916 H 92.7211 4.07708 1.63312 0
M  V30 917 H 93.3271 4.2529 -0.0298142 0
M  V30 918 N 91.6422 0.330177 1.54103 0
M  V30 919 C 92.8702 -0.272179 2.05102 0
M  V30 920 C 93.2852 -1.45267 1.20595 0
M  V30 921 O 92.6422 -1.8094 0.238144 0
M  V30 922 C 92.6932 -0.70023 3.54653 0
M  V30 923 O 92.4142 0.433301 4.35952 0
M  V30 924 C 93.9152 -1.3647 4.21771 0
M  V30 925 H 91.1352 -0.0549159 0.668749 0
M  V30 926 H 93.6792 0.478285 1.98828 0
M  V30 927 H 91.8342 -1.40066 3.61193 0
M  V30 928 H 92.2482 0.0947539 5.24414 0
M  V30 929 H 93.7222 -1.61509 5.27843 0
M  V30 930 H 94.1992 -2.31409 3.73292 0
M  V30 931 H 94.8052 -0.706675 4.19388 0
M  V30 932 N 93.1203 -1.57491 0.0584922 0
M  V30 933 C 94.3483 -1.97296 -0.623037 0
M  V30 934 C 94.7633 -0.936338 -1.63946 0
M  V30 935 O 94.1203 0.0785981 -1.82331 0
M  V30 936 C 94.1713 -3.37183 -1.30345 0
M  V30 937 O 93.8923 -4.36872 -0.32773 0
M  V30 938 C 95.3933 -3.91788 -2.07406 0
M  V30 939 H 92.6133 -0.649153 -0.169826 0
M  V30 940 H 95.1573 -2.04106 0.12696 0
M  V30 941 H 93.3123 -3.31502 -2.00463 0
M  V30 942 H 93.7263 -5.18141 -0.814269 0
M  V30 943 H 95.2003 -4.91926 -2.50425 0
M  V30 944 H 95.6773 -3.27609 -2.92521 0
M  V30 945 H 96.2833 -4.00829 -1.42184 0
M  V30 946 N 94.5984 0.214957 -1.56127 0
M  V30 947 C 95.5464 1.28601 -1.93816 0
M  V30 948 C 96.5404 1.48175 -0.821016 0
M  V30 949 O 97.7464 1.49271 -1.0059 0
M  V30 950 H 94.1214 0.431302 -0.616022 0
M  V30 951 H 96.0924 0.940991 -2.83175 0
M  V30 952 C 94.8414 2.62779 -2.27689 0
M  V30 953 H 94.1644 2.48527 -3.13168 0
M  V30 954 H 95.6044 3.36517 -2.57939 0
M  V30 955 C 94.0634 3.18285 -1.10436 0
M  V30 956 O 94.5934 4.00002 -0.368945 0
M  V30 957 N 92.7994 2.7675 -0.886433 0
M  V30 958 H 92.3464 2.10404 -1.48619 0
M  V30 959 H 92.3044 3.14229 -0.103656 0
M  V30 960 N 96.0765 1.50051 0.48192 0
M  V30 961 C 97.3065 1.63999 1.2565 0
M  V30 962 C 97.7145 0.318288 1.86504 0
M  V30 963 O 97.0575 -0.708534 1.69486 0
M  V30 964 C 97.1195 2.66504 2.4128 0
M  V30 965 C 96.7835 4.10352 2.01148 0
M  V30 966 C 97.7805 4.96562 1.54021 0
M  V30 967 C 95.4655 4.56203 2.10199 0
M  V30 968 C 97.4595 6.26668 1.16473 0
M  V30 969 C 95.1465 5.86318 1.72264 0
M  V30 970 C 96.1445 6.71375 1.25477 0
M  V30 971 O 95.8325 7.99062 0.880626 0
M  V30 972 H 95.5645 0.55456 0.386574 0
M  V30 973 H 98.1185 1.96954 0.582944 0
M  V30 974 H 96.3485 2.28769 3.11772 0
M  V30 975 H 98.0375 2.69783 3.03268 0
M  V30 976 H 98.8035 4.62358 1.46458 0
M  V30 977 H 94.6825 3.90152 2.45566 0
M  V30 978 H 98.2265 6.93011 0.798841 0
M  V30 979 H 94.1235 6.20046 1.79482 0
M  V30 980 H 94.8915 8.12239 1.01043 0
M  V30 981 N 97.5546 -0.734337 1.39446 0
M  V30 982 C 98.4846 -1.86155 1.40955 0
M  V30 983 C 99.4656 -1.67898 0.272827 0
M  V30 984 O 100.651 -1.88207 0.478743 0
M  V30 985 C 97.7806 -3.23912 1.25294 0
M  V30 986 C 96.7346 -3.56808 2.36373 0
M  V30 987 C 96.0606 -4.93508 2.058 0
M  V30 988 C 97.3606 -3.59713 3.78687 0
M  V30 989 H 99.0546 -1.8515 2.35287 0
M  V30 990 H 96.6006 -0.889367 1.13253 0
M  V30 991 H 98.5536 -4.02443 1.2497 0
M  V30 992 H 97.2776 -3.25446 0.274308 0
M  V30 993 H 95.9366 -2.80606 2.35914 0
M  V30 994 H 95.5846 -4.91623 1.06374 0
M  V30 995 H 95.2846 -5.16486 2.80208 0
M  V30 996 H 96.8086 -5.74396 2.07128 0
M  V30 997 H 98.2226 -4.2832 3.81071 0
M  V30 998 H 96.6196 -3.94209 4.52459 0
M  V30 999 H 97.6896 -2.59504 4.09617 0
M  V30 1000 N 99.0327 -1.24633 -0.964593 0
M  V30 1001 C 100.279 -1.08949 -1.71049 0
M  V30 1002 C 100.612 0.370302 -1.90637 0
M  V30 1003 O 99.8867 1.27349 -1.47011 0
M  V30 1004 C 100.17 -1.83329 -3.0994 0
M  V30 1005 C 100.023 -3.37077 -2.97824 0
M  V30 1006 C 101.342 -1.60846 -4.09654 0
M  V30 1007 H 98.4607 -0.397178 -0.620821 0
M  V30 1008 H 101.103 -1.5334 -1.12191 0
M  V30 1009 H 99.2527 -1.45597 -3.60186 0
M  V30 1010 H 100.925 -3.84425 -2.5498 0
M  V30 1011 H 99.1677 -3.65298 -2.33965 0
M  V30 1012 H 99.8387 -3.84324 -3.96231 0
M  V30 1013 H 102.315 -1.93674 -3.68279 0
M  V30 1014 H 101.191 -2.1534 -5.04896 0
M  V30 1015 H 101.452 -0.547434 -4.38698 0
M  V30 1016 N 100.511 1.16574 -1.06058 0
M  V30 1017 C 101.757 1.87324 -0.777022 0
M  V30 1018 C 102.09 1.81351 0.694645 0
M  V30 1019 O 101.365 1.22753 1.50871 0
M  V30 1020 C 101.648 3.36991 -1.26922 0
M  V30 1021 C 101.501 3.51667 -2.80447 0
M  V30 1022 C 102.82 4.3131 -0.87521 0
M  V30 1023 H 99.9388 0.680191 -0.28374 0
M  V30 1024 H 102.581 1.37036 -1.3161 0
M  V30 1025 H 100.731 3.79949 -0.81063 0
M  V30 1026 H 102.403 3.17664 -3.34495 0
M  V30 1027 H 100.646 2.93656 -3.19294 0
M  V30 1028 H 101.317 4.56766 -3.0995 0
M  V30 1029 H 103.793 3.9624 -1.27014 0
M  V30 1030 H 102.669 5.34545 -1.2471 0
M  V30 1031 H 102.93 4.41552 0.220071 0
M  V30 1032 N 101.989 0.842826 1.3317 0
M  V30 1033 C 103.214 0.453129 2.02389 0
M  V30 1034 C 103.639 -0.939105 1.6298 0
M  V30 1035 O 102.997 -1.61472 0.8244 0
M  V30 1036 C 103.045 0.586094 3.55805 0
M  V30 1037 O 102.149 -0.386029 4.10589 0
M  V30 1038 H 101.49 0.183664 0.638094 0
M  V30 1039 H 104.02 1.13875 1.69981 0
M  V30 1040 H 104.03 0.469209 4.05293 0
M  V30 1041 H 102.705 1.6014 3.83833 0
M  V30 1042 H 101.282 -0.226371 3.72212 0
M  V30 1043 N 103.467 -1.45747 0.599634 0
M  V30 1044 C 104.397 -2.33235 -0.111306 0
M  V30 1045 C 105.378 -1.46359 -0.866781 0
M  V30 1046 O 106.563 -1.75146 -0.838904 0
M  V30 1047 C 103.693 -3.28932 -1.11451 0
M  V30 1048 C 102.647 -4.25381 -0.472772 0
M  V30 1049 C 101.973 -5.1071 -1.58365 0
M  V30 1050 C 103.273 -5.18831 0.600948 0
M  V30 1051 H 104.967 -2.92927 0.61919 0
M  V30 1052 H 102.513 -1.40857 0.299215 0
M  V30 1053 H 104.466 -3.89002 -1.62036 0
M  V30 1054 H 103.19 -2.67381 -1.8755 0
M  V30 1055 H 101.849 -3.66598 0.0121472 0
M  V30 1056 H 101.497 -4.45533 -2.33473 0
M  V30 1057 H 101.197 -5.7604 -1.15982 0
M  V30 1058 H 102.721 -5.73647 -2.09194 0
M  V30 1059 H 104.135 -5.73019 0.179491 0
M  V30 1060 H 102.532 -5.92595 0.946076 0
M  V30 1061 H 103.602 -4.6174 1.48068 0
M  V30 1062 N 104.945 -0.338344 -1.53925 0
M  V30 1063 C 105.908 0.508299 -2.23493 0
M  V30 1064 C 106.908 1.03175 -1.23335 0
M  V30 1065 O 108.098 0.921826 -1.47811 0
M  V30 1066 C 105.23 1.70754 -2.95052 0
M  V30 1067 H 106.423 -0.100058 -2.99733 0
M  V30 1068 H 103.976 -0.0896198 -1.56043 0
M  V30 1069 H 104.711 2.35474 -2.22986 0
M  V30 1070 H 104.496 1.33946 -3.68512 0
M  V30 1071 H 105.986 2.30818 -3.48013 0
M  V30 1072 N 106.423 1.57458 -0.0668435 0
M  V30 1073 C 107.669 1.93587 0.6043 0
M  V30 1074 C 108.002 0.946722 1.69561 0
M  V30 1075 O 107.277 -0.0248516 1.94484 0
M  V30 1076 C 107.56 3.40014 1.18585 0
M  V30 1077 C 107.413 4.49685 0.101529 0
M  V30 1078 C 108.732 3.87154 2.09284 0
M  V30 1079 H 105.851 0.703958 0.218202 0
M  V30 1080 H 108.493 1.89542 -0.131804 0
M  V30 1081 H 106.643 3.43592 1.81319 0
M  V30 1082 H 108.315 4.5823 -0.531279 0
M  V30 1083 H 106.558 4.30059 -0.568487 0
M  V30 1084 H 107.229 5.49266 0.54874 0
M  V30 1085 H 109.705 3.85551 1.56491 0
M  V30 1086 H 108.581 4.90231 2.46911 0
M  V30 1087 H 108.842 3.2481 2.99918 0
M  V30 1088 N 107.901 -0.206675 1.56239 0
M  V30 1089 C 108.864 -1.23976 1.92776 0
M  V30 1090 C 109.864 -1.39041 0.807729 0
M  V30 1091 O 111.054 -1.37051 1.0753 0
M  V30 1092 C 108.186 -2.61112 2.19165 0
M  V30 1093 H 109.379 -0.927764 2.85189 0
M  V30 1094 H 106.932 -0.447718 1.4975 0
M  V30 1095 H 107.667 -2.97386 1.29352 0
M  V30 1096 H 107.452 -2.51552 3.00772 0
M  V30 1097 H 108.942 -3.35633 2.48476 0
M  V30 1098 N 109.379 -1.50304 -0.473955 0
M  V30 1099 C 110.656 -1.51667 -1.23518 0
M  V30 1100 C 111.036 -0.259701 -2.09496 0
M  V30 1101 O 110.384 0.756986 -2.15597 0
M  V30 1102 C 110.594 -2.81082 -2.06868 0
M  V30 1103 C 111.942 -3.31631 -2.65153 0
M  V30 1104 O 112.966 -2.82384 -2.17113 0
M  V30 1105 O 111.825 -4.17471 -3.52675 0
M  V30 1106 H 108.919 -0.60822 -0.560355 0
M  V30 1107 H 111.465 -1.62592 -0.486011 0
M  V30 1108 H 110.237 -3.64041 -1.4349 0
M  V30 1109 H 109.86 -2.73146 -2.88924 0
M  V30 1110 N 110.857 0.726932 -1.39834 0
M  V30 1111 C 111.787 1.85405 -1.41941 0
M  V30 1112 C 112.768 1.67751 -0.281728 0
M  V30 1113 O 113.953 1.8795 -0.488717 0
M  V30 1114 C 111.083 3.23243 -1.2701 0
M  V30 1115 C 110.037 3.55549 -2.38262 0
M  V30 1116 C 109.363 4.9241 -2.08415 0
M  V30 1117 C 110.663 3.577 -3.80589 0
M  V30 1118 H 112.357 1.83899 -2.36266 0
M  V30 1119 H 109.903 0.883349 -1.13723 0
M  V30 1120 H 111.856 4.01775 -1.27103 0
M  V30 1121 H 110.58 3.25296 -0.291564 0
M  V30 1122 H 109.239 2.79351 -2.37399 0
M  V30 1123 H 108.887 4.91052 -1.0898 0
M  V30 1124 H 108.587 5.14992 -2.82943 0
M  V30 1125 H 110.111 5.73289 -2.10171 0
M  V30 1126 H 111.525 4.26293 -3.83337 0
M  V30 1127 H 109.922 3.91804 -4.54543 0
M  V30 1128 H 110.992 2.57328 -4.10987 0
M  V30 1129 N 112.336 1.25143 0.95797 0
M  V30 1130 C 113.266 1.07711 2.07173 0
M  V30 1131 C 114.247 -0.0128462 1.70095 0
M  V30 1132 O 115.432 0.156061 1.93572 0
M  V30 1133 C 112.562 0.691503 3.40346 0
M  V30 1134 C 111.516 1.73132 3.9142 0
M  V30 1135 C 110.842 1.20049 5.21049 0
M  V30 1136 C 112.142 3.1294 4.1817 0
M  V30 1137 H 113.836 2.00873 2.22014 0
M  V30 1138 H 111.382 0.967191 1.06684 0
M  V30 1139 H 113.335 0.556505 4.17709 0
M  V30 1140 H 112.059 -0.275819 3.25433 0
M  V30 1141 H 110.718 1.8547 3.16222 0
M  V30 1142 H 110.366 0.223499 5.02503 0
M  V30 1143 H 110.066 1.89545 5.56189 0
M  V30 1144 H 111.59 1.07782 6.01012 0
M  V30 1145 H 113.004 3.03775 4.86203 0
M  V30 1146 H 111.401 3.79875 4.64559 0
M  V30 1147 H 112.471 3.6025 3.24573 0
M  V30 1148 N 113.814 -1.1601 1.06675 0
M  V30 1149 C 115.06 -1.86909 0.786945 0
M  V30 1150 C 115.393 -1.81717 -0.685018 0
M  V30 1151 O 114.668 -1.23551 -1.50218 0
M  V30 1152 C 114.951 -3.36313 1.28707 0
M  V30 1153 C 114.804 -3.50175 2.82308 0
M  V30 1154 C 116.123 -4.3084 0.898071 0
M  V30 1155 H 113.242 -0.678677 0.287343 0
M  V30 1156 H 115.884 -1.36336 1.32334 0
M  V30 1157 H 114.034 -3.79513 0.830768 0
M  V30 1158 H 115.706 -3.15886 3.36175 0
M  V30 1159 H 113.949 -2.91959 3.20847 0
M  V30 1160 H 114.62 -4.55116 3.12368 0
M  V30 1161 H 117.096 -3.95561 1.29114 0
M  V30 1162 H 115.972 -5.33876 1.27543 0
M  V30 1163 H 116.233 -4.41662 -0.196651 0
M  V30 1164 N 115.292 -0.849877 -1.32721 0
M  V30 1165 C 116.255 -0.296122 -2.27279 0
M  V30 1166 C 117.255 0.541458 -1.5141 0
M  V30 1167 O 118.445 0.353658 -1.70572 0
M  V30 1168 C 115.577 0.581579 -3.35902 0
M  V30 1169 H 116.77 -1.13064 -2.77771 0
M  V30 1170 H 114.323 -0.62383 -1.43311 0
M  V30 1171 H 115.058 1.43809 -2.9067 0
M  V30 1172 H 114.843 -0.0178814 -3.92096 0
M  V30 1173 H 116.333 0.961951 -4.0637 0
M  V30 1174 N 116.77 1.45427 -0.607355 0
M  V30 1175 C 117.998 2.06614 -0.108814 0
M  V30 1176 C 118.413 1.45204 1.2067 0
M  V30 1177 O 117.77 0.566132 1.73497 0
M  V30 1178 C 117.821 3.61481 0.0375347 0
M  V30 1179 O 117.542 4.20598 -1.22593 0
M  V30 1180 C 119.043 4.39652 0.567561 0
M  V30 1181 H 116.263 0.66747 -0.0687351 0
M  V30 1182 H 118.807 1.86675 -0.835022 0
M  V30 1183 H 116.962 3.80762 0.714068 0
M  V30 1184 H 117.376 5.1377 -1.05547 0
M  V30 1185 H 118.85 5.48518 0.61905 0
M  V30 1186 H 119.327 4.09417 1.58978 0
M  V30 1187 H 119.933 4.25234 -0.0749202 0
M  V30 1188 N 118.248 0.346503 1.53744 0
M  V30 1189 C 119.178 -0.501193 2.28058 0
M  V30 1190 C 120.159 -1.10014 1.29734 0
M  V30 1191 O 121.344 -1.12097 1.58581 0
M  V30 1192 C 118.474 -1.65078 3.05559 0
M  V30 1193 C 117.428 -1.18003 4.11411 0
M  V30 1194 C 116.754 -2.41837 4.76884 0
M  V30 1195 C 118.054 -0.278394 5.21558 0
M  V30 1196 H 119.748 0.11875 2.99164 0
M  V30 1197 H 117.294 0.0585531 1.43881 0
M  V30 1198 H 119.247 -2.25028 3.56287 0
M  V30 1199 H 117.971 -2.29767 2.32109 0
M  V30 1200 H 116.63 -0.603331 3.61601 0
M  V30 1201 H 116.278 -3.0494 4.00026 0
M  V30 1202 H 115.978 -2.1102 5.48402 0
M  V30 1203 H 117.502 -3.02508 5.30397 0
M  V30 1204 H 118.916 -0.784823 5.67903 0
M  V30 1205 H 117.313 -0.0619707 6.00068 0
M  V30 1206 H 118.383 0.684677 4.80042 0
M  V30 1207 N 119.726 -1.57421 0.075193 0
M  V30 1208 C 120.972 -1.93905 -0.594025 0
M  V30 1209 C 121.305 -0.955701 -1.69056 0
M  V30 1210 O 120.58 0.0145373 -1.94495 0
M  V30 1211 C 120.863 -3.40638 -1.1678 0
M  V30 1212 C 120.716 -4.49733 -0.0776792 0
M  V30 1213 C 122.035 -3.88259 -2.07228 0
M  V30 1214 H 119.154 -0.705105 -0.214466 0
M  V30 1215 H 121.796 -1.8947 0.141854 0
M  V30 1216 H 119.946 -3.44549 -1.79494 0
M  V30 1217 H 121.618 -4.57942 0.555573 0
M  V30 1218 H 119.861 -4.29751 0.591286 0
M  V30 1219 H 120.532 -5.49549 -0.519603 0
M  V30 1220 H 123.008 -3.86376 -1.54445 0
M  V30 1221 H 121.884 -4.91533 -2.44308 0
M  V30 1222 H 122.145 -3.26396 -2.98191 0
M  V30 1223 N 121.204 0.198386 -1.56346 0
M  V30 1224 C 122.137 1.27381 -1.89339 0
M  V30 1225 C 123.115 1.44106 -0.753134 0
M  V30 1226 O 124.299 1.59549 -1.00381 0
M  V30 1227 C 121.426 2.6409 -2.12071 0
M  V30 1228 C 120.472 2.64253 -3.34772 0
M  V30 1229 S 121.305 2.16013 -4.89999 0
M  V30 1230 C 122.461 3.54553 -5.15794 0
M  V30 1231 H 122.694 0.992058 -2.8026 0
M  V30 1232 H 120.227 0.401726 -1.49082 0
M  V30 1233 H 122.185 3.42786 -2.2585 0
M  V30 1234 H 120.846 2.89478 -1.21906 0
M  V30 1235 H 120.039 3.64768 -3.47794 0
M  V30 1236 H 119.641 1.93637 -3.1997 0
M  V30 1237 H 121.933 4.50396 -5.06112 0
M  V30 1238 H 122.876 3.46428 -6.1757 0
M  V30 1239 H 123.284 3.49313 -4.43442 0
M  V30 1240 N 122.682 1.50554 0.465978 0
M  V30 1241 C 124.093 1.54599 1.04671 0
M  V30 1242 C 124.444 0.352488 1.93008 0
M  V30 1243 O 123.569 -0.534044 2.09707 0
M  V30 1244 C 124.164 2.80166 1.90505 0
M  V30 1245 C 122.723 2.86876 2.43678 0
M  V30 1246 C 121.87 2.48947 1.22151 0
M  V30 1247 H 124.821 1.56744 0.248384 0
M  V30 1248 H 124.842 2.62311 2.75633 0
M  V30 1249 H 124.354 3.67013 1.26186 0
M  V30 1250 H 122.455 2.04393 3.11536 0
M  V30 1251 H 122.568 3.89885 2.78436 0
M  V30 1252 H 120.932 2.01498 1.5579 0
M  V30 1253 H 121.715 3.38107 0.594866 0
M  V30 1254 N 124.16 -0.719506 1.40217 0
M  V30 1255 C 125.406 -1.48034 1.39491 0
M  V30 1256 C 125.761 -1.92399 -0.00443536 0
M  V30 1257 O 125.054 -1.64993 -0.974061 0
M  V30 1258 C 125.248 -2.72271 2.31524 0
M  V30 1259 C 125.077 -2.40055 3.80268 0
M  V30 1260 C 123.847 -2.31588 4.49105 0
M  V30 1261 C 126.045 -2.04581 4.71859 0
M  V30 1262 N 124.027 -1.92006 5.83101 0
M  V30 1263 C 125.398 -1.75568 5.94623 0
M  V30 1264 C 127.453 -1.91183 4.59732 0
M  V30 1265 C 126.156 -1.34505 7.06612 0
M  V30 1266 C 128.182 -1.51524 5.71659 0
M  V30 1267 C 127.544 -1.23406 6.93506 0
M  V30 1268 H 123.643 -0.539927 0.565688 0
M  V30 1269 H 126.227 -0.834764 1.75897 0
M  V30 1270 H 124.398 -3.34584 1.97251 0
M  V30 1271 H 126.13 -3.38584 2.21682 0
M  V30 1272 H 122.885 -2.49199 4.02737 0
M  V30 1273 H 123.309 -1.74764 6.54054 0
M  V30 1274 H 127.951 -2.11584 3.66049 0
M  V30 1275 H 125.669 -1.12846 8.00182 0
M  V30 1276 H 129.255 -1.41741 5.6427 0
M  V30 1277 H 128.135 -0.931788 7.78645 0
M  V30 1278 N 125.638 -1.25649 -0.95132 0
M  V30 1279 C 126.884 -1.10757 -1.69884 0
M  V30 1280 C 127.217 0.350061 -1.91019 0
M  V30 1281 O 126.492 1.25783 -1.48354 0
M  V30 1282 C 126.775 -1.86606 -3.07978 0
M  V30 1283 C 126.628 -3.40217 -2.94232 0
M  V30 1284 C 127.947 -1.65182 -4.07925 0
M  V30 1285 H 125.066 -0.40374 -0.616574 0
M  V30 1286 H 127.708 -1.54521 -1.10558 0
M  V30 1287 H 125.858 -1.49409 -3.58621 0
M  V30 1288 H 127.53 -3.87108 -2.50889 0
M  V30 1289 H 125.773 -3.67759 -2.30078 0
M  V30 1290 H 126.444 -3.88505 -3.92133 0
M  V30 1291 H 128.92 -1.9757 -3.66204 0
M  V30 1292 H 127.796 -2.20683 -5.02583 0
M  V30 1293 H 128.057 -0.593933 -4.38092 0
M  V30 1294 N 127.117 1.15442 -1.07289 0
M  V30 1295 C 128.363 1.86489 -0.796846 0
M  V30 1296 C 128.696 1.82078 0.675371 0
M  V30 1297 O 127.971 1.24346 1.4956 0
M  V30 1298 C 128.254 3.35626 -1.30489 0
M  V30 1299 C 128.107 3.48673 -2.84161 0
M  V30 1300 C 129.426 4.30357 -0.920907 0
M  V30 1301 H 126.545 0.677144 -0.290939 0
M  V30 1302 H 129.187 1.35633 -1.33056 0
M  V30 1303 H 127.337 3.79068 -0.850883 0
M  V30 1304 H 129.009 3.14099 -3.37846 0
M  V30 1305 H 127.252 2.90253 -3.22391 0
M  V30 1306 H 127.923 4.53453 -3.14777 0
M  V30 1307 H 130.399 3.94871 -1.3121 0
M  V30 1308 H 129.275 5.33193 -1.30372 0
M  V30 1309 H 129.536 4.4176 0.173226 0
M  V30 1310 N 128.595 0.856903 1.32268 0
M  V30 1311 C 129.825 0.47475 2.01071 0
M  V30 1312 C 130.233 -0.933746 1.64553 0
M  V30 1313 O 129.576 -1.62114 0.863989 0
M  V30 1314 C 129.638 0.536746 3.55471 0
M  V30 1315 C 129.302 1.90453 4.15423 0
M  V30 1316 C 130.299 2.87029 4.33486 0
M  V30 1317 C 127.984 2.20229 4.51447 0
M  V30 1318 C 129.978 4.11532 4.86744 0
M  V30 1319 C 127.665 3.44984 5.0441 0
M  V30 1320 C 128.663 4.40452 5.22007 0
M  V30 1321 O 128.351 5.62998 5.73837 0
M  V30 1322 H 128.083 0.184778 0.650256 0
M  V30 1323 H 130.637 1.15615 1.69771 0
M  V30 1324 H 128.867 -0.20152 3.86175 0
M  V30 1325 H 130.556 0.169875 4.05544 0
M  V30 1326 H 131.322 2.6533 4.05986 0
M  V30 1327 H 127.201 1.46705 4.37034 0
M  V30 1328 H 130.745 4.86056 5.00395 0
M  V30 1329 H 126.642 3.66532 5.31342 0
M  V30 1330 H 127.41 5.64987 5.92226 0
M  V30 1331 N 130.073 -1.45103 0.615059 0
M  V30 1332 C 131.003 -2.33339 -0.0865619 0
M  V30 1333 C 131.984 -1.4727 -0.851209 0
M  V30 1334 O 133.169 -1.76026 -0.820281 0
M  V30 1335 C 130.299 -3.30095 -1.07956 0
M  V30 1336 C 129.253 -4.25858 -0.427628 0
M  V30 1337 C 128.579 -5.12361 -1.5294 0
M  V30 1338 C 129.879 -5.18165 0.655944 0
M  V30 1339 H 131.573 -2.92254 0.650224 0
M  V30 1340 H 129.119 -1.40532 0.314138 0
M  V30 1341 H 131.072 -3.90698 -1.57901 0
M  V30 1342 H 129.796 -2.69355 -1.84703 0
M  V30 1343 H 128.455 -3.66564 0.0510292 0
M  V30 1344 H 128.103 -4.47984 -2.28734 0
M  V30 1345 H 127.803 -5.77238 -1.09865 0
M  V30 1346 H 129.327 -5.75833 -2.03098 0
M  V30 1347 H 130.741 -5.72796 0.240257 0
M  V30 1348 H 129.138 -5.91559 1.00888 0
M  V30 1349 H 130.208 -4.60144 1.52957 0
M  V30 1350 N 131.551 -0.354651 -1.53558 0
M  V30 1351 C 132.461 0.50515 -2.29097 0
M  V30 1352 C 133.477 1.10223 -1.34636 0
M  V30 1353 O 134.653 1.11553 -1.67684 0
M  V30 1354 C 131.718 1.63479 -3.05738 0
M  V30 1355 C 130.779 1.06636 -4.15845 0
M  V30 1356 C 130.012 2.14217 -4.88822 0
M  V30 1357 O 130.235 3.35137 -4.61562 0
M  V30 1358 O 129.169 1.77887 -5.75013 0
M  V30 1359 H 132.995 -0.109237 -3.03503 0
M  V30 1360 H 130.58 -0.119357 -1.48922 0
M  V30 1361 H 132.462 2.2918 -3.5363 0
M  V30 1362 H 131.137 2.23478 -2.34178 0
M  V30 1363 H 130.044 0.373565 -3.7223 0
M  V30 1364 H 131.377 0.511081 -4.89539 0
M  V30 1365 N 133.029 1.57378 -0.0835403 0
M  V30 1366 C 134.275 1.94217 0.583733 0
M  V30 1367 C 134.608 0.964653 1.68547 0
M  V30 1368 O 133.883 -0.00422258 1.945 0
M  V30 1369 C 134.166 3.41253 1.14972 0
M  V30 1370 C 134.019 4.49768 0.0538277 0
M  V30 1371 C 135.338 3.89352 2.05166 0
M  V30 1372 H 132.457 0.706233 0.210724 0
M  V30 1373 H 135.099 1.89392 -0.1519 0
M  V30 1374 H 133.249 3.45496 1.77665 0
M  V30 1375 H 134.921 4.57641 -0.579851 0
M  V30 1376 H 133.164 4.29432 -0.614068 0
M  V30 1377 H 133.835 5.49817 0.490452 0
M  V30 1378 H 136.311 3.87189 1.52393 0
M  V30 1379 H 135.187 4.92822 2.41698 0
M  V30 1380 H 135.448 3.27973 2.96456 0
M  V30 1381 N 134.507 -0.190092 1.56449 0
M  V30 1382 C 135.735 -0.925772 1.85033 0
M  V30 1383 C 136.15 -1.76638 0.666658 0
M  V30 1384 O 135.507 -1.78822 -0.364565 0
M  V30 1385 C 135.558 -1.81786 3.12468 0
M  V30 1386 O 135.279 -1.01118 4.26271 0
M  V30 1387 C 136.78 -2.6648 3.54265 0
M  V30 1388 H 134 -0.269872 0.614337 0
M  V30 1389 H 136.544 -0.195837 2.0356 0
M  V30 1390 H 134.699 -2.50136 2.95822 0
M  V30 1391 H 135.113 -1.61956 4.98869 0
M  V30 1392 H 136.587 -3.24722 4.46385 0
M  V30 1393 H 137.064 -3.40434 2.77491 0
M  V30 1394 H 137.67 -2.03493 3.73458 0
M  V30 1395 N 135.985 -1.50799 -0.457987 0
M  V30 1396 C 137.233 -1.62121 -1.2067 0
M  V30 1397 C 137.554 -0.329793 -1.92191 0
M  V30 1398 O 136.824 0.653409 -1.84682 0
M  V30 1399 H 135.404 -0.597441 -0.448411 0
M  V30 1400 H 138.066 -1.87637 -0.527096 0
M  V30 1401 H 137.162 -2.43882 -1.94751 0
M  V30 1402 N 137.463 0.71206 -1.40597 0
M  V30 1403 C 138.711 1.46907 -1.38791 0
M  V30 1404 C 139.032 1.94998 0.00780391 0
M  V30 1405 O 138.302 1.70587 0.963174 0
M  V30 1406 H 136.882 0.545043 -0.51082 0
M  V30 1407 H 139.544 0.843882 -1.75683 0
M  V30 1408 H 138.64 2.34021 -2.06496 0
M  V30 1409 N 138.941 1.26152 0.944643 0
M  V30 1410 C 140.187 1.11657 1.69294 0
M  V30 1411 C 140.52 -0.339926 1.91202 0
M  V30 1412 O 139.795 -1.24994 1.49019 0
M  V30 1413 C 140.078 1.88236 3.06984 0
M  V30 1414 C 139.931 3.41772 2.92424 0
M  V30 1415 C 141.25 1.67343 4.07043 0
M  V30 1416 H 138.369 0.407004 0.614424 0
M  V30 1417 H 141.011 1.55106 1.09737 0
M  V30 1418 H 139.161 1.51308 3.57824 0
M  V30 1419 H 140.833 3.88433 2.48832 0
M  V30 1420 H 139.076 3.68974 2.28124 0
M  V30 1421 H 139.747 3.90579 3.90067 0
M  V30 1422 H 142.223 1.99509 3.65151 0
M  V30 1423 H 141.099 2.23346 5.01406 0
M  V30 1424 H 141.36 0.617158 4.37771 0
M  V30 1425 N 140.419 -1.14872 1.07899 0
M  V30 1426 C 141.665 -1.86289 0.81657 0
M  V30 1427 C 142.02 -1.8107 -0.65049 0
M  V30 1428 O 141.313 -1.22684 -1.47171 0
M  V30 1429 C 141.507 -3.34223 1.26609 0
M  V30 1430 C 141.336 -3.53846 2.77531 0
M  V30 1431 C 140.106 -3.68995 3.45212 0
M  V30 1432 C 142.304 -3.51201 3.75716 0
M  V30 1433 N 140.286 -3.76725 4.84718 0
M  V30 1434 C 141.657 -3.65112 5.01092 0
M  V30 1435 C 143.712 -3.34507 3.68794 0
M  V30 1436 C 142.415 -3.64056 6.20368 0
M  V30 1437 C 144.441 -3.34752 4.8754 0
M  V30 1438 C 143.803 -3.49199 6.11751 0
M  V30 1439 H 139.902 -0.698579 0.351443 0
M  V30 1440 H 142.486 -1.37713 1.37634 0
M  V30 1441 H 140.657 -3.81402 0.73395 0
M  V30 1442 H 142.389 -3.93377 0.95062 0
M  V30 1443 H 139.144 -3.70006 2.95622 0
M  V30 1444 H 139.568 -3.8432 5.5734 0
M  V30 1445 H 144.21 -3.22253 2.73702 0
M  V30 1446 H 141.928 -3.75087 7.15776 0
M  V30 1447 H 145.514 -3.23055 4.83866 0
M  V30 1448 H 144.394 -3.49328 7.02097 0
M  V30 1449 N 141.898 -0.863906 -1.31812 0
M  V30 1450 C 142.846 -0.30422 -2.30602 0
M  V30 1451 C 143.84 0.577419 -1.59255 0
M  V30 1452 O 145.046 0.464194 -1.73912 0
M  V30 1453 H 141.421 -0.0796877 -0.747766 0
M  V30 1454 H 143.392 -1.15148 -2.75288 0
M  V30 1455 C 142.141 0.484617 -3.44306 0
M  V30 1456 H 141.464 -0.18451 -3.99374 0
M  V30 1457 H 142.904 0.841664 -4.15562 0
M  V30 1458 C 141.363 1.6735 -2.92396 0
M  V30 1459 O 141.893 2.77273 -2.90659 0
M  V30 1460 N 140.099 1.50362 -2.48676 0
M  V30 1461 H 139.646 0.609402 -2.50288 0
M  V30 1462 H 139.604 2.30051 -2.14299 0
M  V30 1463 N 143.376 1.44774 -0.622745 0
M  V30 1464 C 144.623 2.02121 -0.1239 0
M  V30 1465 C 144.951 1.48915 1.25118 0
M  V30 1466 O 144.206 0.660045 1.84233 0
M  V30 1467 C 144.505 3.57364 -0.0508323 0
M  V30 1468 C 144.171 4.29787 -1.36358 0
M  V30 1469 C 142.833 4.4929 -1.72314 0
M  V30 1470 C 145.185 4.71062 -2.23048 0
M  V30 1471 C 142.513 5.07325 -2.94682 0
M  V30 1472 C 144.865 5.30452 -3.44679 0
M  V30 1473 C 143.529 5.48175 -3.80868 0
M  V30 1474 H 142.799 0.739612 -0.0453381 0
M  V30 1475 H 145.446 1.73648 -0.807389 0
M  V30 1476 H 143.751 3.85202 0.715991 0
M  V30 1477 H 145.448 3.99456 0.351533 0
M  V30 1478 H 142.038 4.14932 -1.07375 0
M  V30 1479 H 146.222 4.55715 -1.96565 0
M  V30 1480 H 141.478 5.19235 -3.22809 0
M  V30 1481 H 145.652 5.61385 -4.12092 0
M  V30 1482 H 143.279 5.92912 -4.75773 0
M  V30 1483 N 144.854 0.36279 1.53368 0
M  V30 1484 C 146.079 -0.231226 2.06107 0
M  V30 1485 C 146.504 -1.419 1.23474 0
M  V30 1486 O 145.862 -1.79524 0.253128 0
M  V30 1487 C 145.91 -0.605523 3.5548 0
M  V30 1488 O 145.014 -1.70312 3.7559 0
M  V30 1489 H 144.355 -0.034327 0.663112 0
M  V30 1490 H 146.885 0.522584 1.97814 0
M  V30 1491 H 146.895 -0.877314 3.98456 0
M  V30 1492 H 145.57 0.263004 4.15068 0
M  V30 1493 H 144.147 -1.4271 3.44512 0
M  V30 1494 N 146.332 -1.57332 0.0918853 0
M  V30 1495 C 147.748 -1.57389 -0.264766 0
M  V30 1496 C 147.948 -1.10281 -1.68643 0
M  V30 1497 O 147.004 -0.777801 -2.40222 0
M  V30 1498 C 148.317 -3.00648 -0.0561195 0
M  V30 1499 C 149.865 -3.12754 -0.124116 0
M  V30 1500 C 150.34 -4.57965 0.0564972 0
M  V30 1501 N 151.831 -4.632 0.00155611 0
M  V30 1502 C 152.566 -5.73281 0.116598 0
M  V30 1503 N 152.062 -6.92208 0.286294 0
M  V30 1504 N 153.855 -5.6207 0.0580973 0
M  V30 1505 H 146.006 -1.86262 1.02079 0
M  V30 1506 H 148.269 -0.859579 0.399786 0
M  V30 1507 H 147.975 -3.393 0.925669 0
M  V30 1508 H 147.849 -3.68623 -0.799823 0
M  V30 1509 H 150.236 -2.73976 -1.09641 0
M  V30 1510 H 150.317 -2.47377 0.651024 0
M  V30 1511 H 149.961 -4.97436 1.02564 0
M  V30 1512 H 149.891 -5.21399 -0.738297 0
M  V30 1513 H 152.382 -3.77686 -0.127192 0
M  V30 1514 H 152.695 -7.71934 0.365676 0
M  V30 1515 H 151.04 -6.94254 0.32192 0
M  V30 1516 H 154.231 -4.68043 -0.0733204 0
M  V30 1517 H 154.404 -6.47824 0.151203 0
M  V30 1518 N 147.81 0.181792 -1.56548 0
M  V30 1519 C 149.059 0.898348 -1.8059 0
M  V30 1520 C 149.372 1.83862 -0.667379 0
M  V30 1521 O 150.578 2.59678 -0.792446 0
M  V30 1522 C 149.034 1.64791 -3.19956 0
M  V30 1523 C 148.642 0.751789 -4.41647 0
M  V30 1524 C 150.386 2.35331 -3.53298 0
M  V30 1525 C 148.293 1.50098 -5.72035 0
M  V30 1526 H 147.223 0.339194 -0.673397 0
M  V30 1527 H 149.874 0.151413 -1.82874 0
M  V30 1528 H 148.256 2.43921 -3.11959 0
M  V30 1529 H 149.43 -0.0018076 -4.608 0
M  V30 1530 H 147.745 0.156562 -4.16106 0
M  V30 1531 H 150.342 2.91958 -4.47956 0
M  V30 1532 H 150.685 3.10164 -2.77676 0
M  V30 1533 H 151.218 1.63154 -3.62803 0
M  V30 1534 H 147.957 0.795175 -6.50659 0
M  V30 1535 H 147.477 2.22817 -5.56878 0
M  V30 1536 H 149.156 2.05125 -6.13622 0
M  V30 1537 N 149.288 1.51039 0.449983 0
M  V30 1538 C 150.528 1.64732 1.21007 0
M  V30 1539 C 150.892 0.349865 1.88785 0
M  V30 1540 O 152.093 0.362431 2.66345 0
M  V30 1541 C 150.364 2.80902 2.20973 0
M  V30 1542 S 151.923 3.14851 3.05638 0
M  V30 1543 H 148.741 0.5805 0.410538 0
M  V30 1544 H 151.343 1.88901 0.503634 0
M  V30 1545 H 150.047 3.73627 1.69796 0
M  V30 1546 H 149.578 2.58882 2.96215 0
M  V30 1547 H 151.593 2.60306 4.22439 0
M  V30 1548 N 150.766 -0.704594 1.40972 0
M  V30 1549 C 152.006 -1.47691 1.41304 0
M  V30 1550 C 152.37 -1.91992 0.0178582 0
M  V30 1551 O 153.571 -2.68599 -0.103996 0
M  V30 1552 C 151.842 -2.66254 2.38419 0
M  V30 1553 S 153.401 -3.55516 2.57204 0
M  V30 1554 H 150.219 -0.504808 0.500689 0
M  V30 1555 H 152.821 -0.822962 1.77335 0
M  V30 1556 H 151.525 -2.31897 3.38603 0
M  V30 1557 H 151.056 -3.3655 2.03711 0
M  V30 1558 H 153.071 -4.61115 1.83268 0
M  V30 1559 N 152.244 -1.26651 -0.937939 0
M  V30 1560 C 153.521 -1.0313 -1.66204 0
M  V30 1561 C 153.901 0.437256 -2.06522 0
M  V30 1562 O 153.249 1.41831 -1.79154 0
M  V30 1563 C 153.459 -1.98314 -2.87181 0
M  V30 1564 C 154.807 -2.27107 -3.58758 0
M  V30 1565 O 155.831 -1.96205 -2.97291 0
M  V30 1566 O 154.69 -2.79736 -4.69479 0
M  V30 1567 H 151.784 -0.392384 -0.727986 0
M  V30 1568 H 154.33 -1.37874 -0.989382 0
M  V30 1569 H 153.102 -2.97399 -2.54302 0
M  V30 1570 H 152.725 -1.64068 -3.6217 0
M  V30 1571 N 153.722 1.14298 -1.08507 0
M  V30 1572 C 154.968 1.85633 -0.816581 0
M  V30 1573 C 155.301 1.82784 0.656021 0
M  V30 1574 O 154.576 1.25926 1.48233 0
M  V30 1575 C 154.859 3.34223 -1.34041 0
M  V30 1576 C 154.712 3.45639 -2.87843 0
M  V30 1577 C 156.031 4.29356 -0.9665 0
M  V30 1578 H 153.15 0.67402 -0.298104 0
M  V30 1579 H 155.792 1.34214 -1.34487 0
M  V30 1580 H 153.942 3.78144 -0.89104 0
M  V30 1581 H 155.614 3.10498 -3.41158 0
M  V30 1582 H 153.857 2.86817 -3.25451 0
M  V30 1583 H 154.528 4.50089 -3.19569 0
M  V30 1584 H 157.004 3.93457 -1.35391 0
M  V30 1585 H 155.88 5.3178 -1.3602 0
M  V30 1586 H 156.141 4.41919 0.126362 0
M  V30 1587 N 155.201 0.870884 1.31352 0
M  V30 1588 C 156.448 0.482273 1.96673 0
M  V30 1589 C 156.776 -0.965638 1.68836 0
M  V30 1590 O 156.031 -1.69514 0.977937 0
M  V30 1591 C 156.33 0.687157 3.50732 0
M  V30 1592 C 155.996 2.108 3.9859 0
M  V30 1593 C 154.658 2.49656 4.1137 0
M  V30 1594 C 157.01 3.03459 4.23748 0
M  V30 1595 C 154.338 3.80412 4.46659 0
M  V30 1596 C 156.69 4.3373 4.60501 0
M  V30 1597 C 155.354 4.725 4.71487 0
M  V30 1598 H 154.624 0.176476 0.719679 0
M  V30 1599 H 157.271 1.10405 1.56471 0
M  V30 1600 H 155.576 -0.0177476 3.91796 0
M  V30 1601 H 157.273 0.366284 3.99324 0
M  V30 1602 H 153.863 1.79633 3.8914 0
M  V30 1603 H 158.047 2.74665 4.13368 0
M  V30 1604 H 153.303 4.1021 4.53362 0
M  V30 1605 H 157.477 5.05578 4.78919 0
M  V30 1606 H 155.104 5.73859 4.98588 0
M  V30 1607 N 156.679 -1.44442 0.630414 0
M  V30 1608 C 157.925 -2.02351 0.134816 0
M  V30 1609 C 158.258 -1.4947 -1.23986 0
M  V30 1610 O 157.533 -0.678475 -1.82283 0
M  V30 1611 C 157.816 -3.59898 0.120707 0
M  V30 1612 C 157.669 -4.23063 1.52767 0
M  V30 1613 C 158.988 -4.36585 -0.555127 0
M  V30 1614 H 156.107 -0.73527 0.0504646 0
M  V30 1615 H 158.749 -1.72022 0.806751 0
M  V30 1616 H 156.899 -3.85868 -0.451477 0
M  V30 1617 H 158.571 -4.08202 2.14869 0
M  V30 1618 H 156.814 -3.80586 2.08175 0
M  V30 1619 H 157.485 -5.32071 1.46984 0
M  V30 1620 H 159.961 -4.16044 -0.0685429 0
M  V30 1621 H 158.837 -5.46294 -0.534185 0
M  V30 1622 H 159.098 -4.11138 -1.62535 0
M  V30 1623 N 158.157 -0.370918 -1.53173 0
M  V30 1624 C 159.385 0.217704 -2.05751 0
M  V30 1625 C 159.8 1.42018 -1.24404 0
M  V30 1626 O 159.157 1.80245 -0.286033 0
M  V30 1627 C 159.208 0.605954 -3.56385 0
M  V30 1628 O 158.929 -0.548734 -4.3465 0
M  V30 1629 C 160.43 1.2524 -4.25241 0
M  V30 1630 H 157.65 0.0371659 -0.66997 0
M  V30 1631 H 160.194 -0.530832 -1.9749 0
M  V30 1632 H 158.349 1.3044 -3.6478 0
M  V30 1633 H 158.763 -0.23376 -5.23979 0
M  V30 1634 H 160.237 1.47458 -5.3194 0
M  V30 1635 H 160.714 2.2143 -3.79296 0
M  V30 1636 H 161.32 0.595233 -4.21114 0
M  V30 1637 N 159.635 1.57281 -0.100228 0
M  V30 1638 C 160.565 2.17328 0.853857 0
M  V30 1639 C 161.546 1.10804 1.2906 0
M  V30 1640 O 162.731 1.38963 1.35657 0
M  V30 1641 C 159.861 2.75772 2.11109 0
M  V30 1642 C 158.815 3.87713 1.81279 0
M  V30 1643 C 158.141 4.32882 3.13874 0
M  V30 1644 C 159.441 5.10677 1.09574 0
M  V30 1645 H 161.135 2.97305 0.353545 0
M  V30 1646 H 158.681 1.43009 0.168612 0
M  V30 1647 H 160.634 3.16433 2.78296 0
M  V30 1648 H 159.358 1.93057 2.63432 0
M  V30 1649 H 158.017 3.476 1.16489 0
M  V30 1650 H 157.665 3.47051 3.64095 0
M  V30 1651 H 157.365 5.08358 2.94696 0
M  V30 1652 H 158.889 4.7618 3.82211 0
M  V30 1653 H 160.303 5.48474 1.66879 0
M  V30 1654 H 158.7 5.91615 1.00557 0
M  V30 1655 H 159.77 4.84835 0.0793299 0
M  V30 1656 N 161.113 -0.173488 1.56642 0
M  V30 1657 C 162.39 -0.917617 1.7274 0
M  V30 1658 C 162.77 -2.00484 0.661027 0
M  V30 1659 O 162.118 -2.26184 -0.32453 0
M  V30 1660 C 162.328 -1.48433 3.15862 0
M  V30 1661 C 163.676 -1.95809 3.76754 0
M  V30 1662 O 164.7 -1.58231 3.19126 0
M  V30 1663 O 163.559 -2.65024 4.77938 0
M  V30 1664 H 160.653 -0.431772 0.705338 0
M  V30 1665 H 163.199 -0.161487 1.6893 0
M  V30 1666 H 161.971 -0.701715 3.84957 0
M  V30 1667 H 161.594 -2.30471 3.23989 0
M  V30 1668 N 162.591 -1.51276 -0.441967 0
M  V30 1669 C 163.837 -1.63958 -1.19355 0
M  V30 1670 C 164.17 -0.352543 -1.90973 0
M  V30 1671 O 163.445 0.647627 -1.83401 0
M  V30 1672 C 163.728 -2.83979 -2.21422 0
M  V30 1673 C 163.581 -4.22646 -1.53918 0
M  V30 1674 C 164.9 -2.99521 -3.22451 0
M  V30 1675 H 162.019 -0.596709 -0.432559 0
M  V30 1676 H 164.661 -1.83748 -0.483398 0
M  V30 1677 H 162.811 -2.67237 -2.81987 0
M  V30 1678 H 164.483 -4.51045 -0.967256 0
M  V30 1679 H 162.726 -4.25558 -0.841615 0
M  V30 1680 H 163.397 -5.02609 -2.28229 0
M  V30 1681 H 165.873 -3.14944 -2.71937 0
M  V30 1682 H 164.749 -3.85072 -3.91166 0
M  V30 1683 H 165.01 -2.11391 -3.88287 0
M  V30 1684 N 164.069 0.697108 -1.41344 0
M  V30 1685 C 165.002 1.82134 -1.37486 0
M  V30 1686 C 165.98 1.60784 -0.242351 0
M  V30 1687 O 167.164 1.83553 -0.429012 0
M  V30 1688 C 164.291 3.18788 -1.14421 0
M  V30 1689 C 163.337 3.58932 -2.3037 0
M  V30 1690 S 164.17 3.63916 -3.92843 0
M  V30 1691 C 165.326 5.03298 -3.72078 0
M  V30 1692 H 165.559 1.85129 -2.32625 0
M  V30 1693 H 163.092 0.865671 -1.2785 0
M  V30 1694 H 165.05 3.97677 -1.018 0
M  V30 1695 H 163.711 3.13404 -0.20905 0
M  V30 1696 H 162.904 4.58202 -2.09922 0
M  V30 1697 H 162.506 2.87347 -2.39391 0
M  V30 1698 H 164.798 5.90753 -3.31688 0
M  V30 1699 H 165.741 5.28788 -4.70945 0
M  V30 1700 H 166.149 4.74764 -3.05384 0
M  V30 1701 N 165.547 1.27147 0.931209 0
M  V30 1702 C 166.48 1.0389 2.0318 0
M  V30 1703 C 167.458 -0.0395716 1.62552 0
M  V30 1704 O 168.642 0.104867 1.88208 0
M  V30 1705 C 165.769 0.575227 3.3378 0
M  V30 1706 C 164.815 1.64774 3.93385 0
M  V30 1707 S 165.648 3.23933 4.26413 0
M  V30 1708 C 166.804 2.79358 5.60098 0
M  V30 1709 H 167.037 1.97075 2.22596 0
M  V30 1710 H 164.57 1.10938 1.07387 0
M  V30 1711 H 166.528 0.314385 4.09294 0
M  V30 1712 H 165.189 -0.336505 3.12292 0
M  V30 1713 H 164.382 1.27454 4.87618 0
M  V30 1714 H 163.984 1.86048 3.24441 0
M  V30 1715 H 166.276 2.24443 6.39243 0
M  V30 1716 H 167.219 3.72322 6.02314 0
M  V30 1717 H 167.627 2.1861 5.20452 0
M  V30 1718 N 167.025 -1.13721 1.09112 0
M  V30 1719 C 168.265 -1.86576 0.834801 0
M  V30 1720 C 168.629 -1.81435 -0.628122 0
M  V30 1721 O 169.83 -2.49497 -1.00024 0
M  V30 1722 C 168.101 -3.30872 1.35124 0
M  V30 1723 S 169.66 -4.21257 1.22832 0
M  V30 1724 H 166.478 -0.643666 0.302017 0
M  V30 1725 H 169.08 -1.37085 1.39385 0
M  V30 1726 H 167.784 -3.32166 2.41027 0
M  V30 1727 H 167.315 -3.85423 0.788185 0
M  V30 1728 H 169.33 -4.95884 0.177191 0
M  V30 1729 N 168.503 -0.877838 -1.30888 0
M  V30 1730 C 169.731 -0.507414 -2.00581 0
M  V30 1731 C 170.146 0.902216 -1.65848 0
M  V30 1732 O 169.503 1.59225 -0.891831 0
M  V30 1733 C 169.554 -0.664162 -3.55347 0
M  V30 1734 O 169.275 -2.01829 -3.8884 0
M  V30 1735 C 170.776 -0.295787 -4.42312 0
M  V30 1736 H 167.996 -0.196866 -0.641471 0
M  V30 1737 H 170.54 -1.18117 -1.66939 0
M  V30 1738 H 168.695 -0.0378619 -3.87381 0
M  V30 1739 H 169.109 -2.03174 -4.8355 0
M  V30 1740 H 170.583 -0.456388 -5.5011 0
M  V30 1741 H 171.06 0.765663 -4.32475 0
M  V30 1742 H 171.666 -0.898113 -4.15709 0
M  V30 1743 N 169.982 1.44106 -0.638065 0
M  V30 1744 C 170.945 2.29138 0.0531013 0
M  V30 1745 C 171.945 1.41409 0.765506 0
M  V30 1746 O 173.135 1.63206 0.609046 0
M  V30 1747 C 170.267 3.23144 1.08584 0
M  V30 1748 H 171.46 2.91739 -0.694883 0
M  V30 1749 H 169.013 1.51134 -0.398538 0
M  V30 1750 H 169.748 2.65408 1.86357 0
M  V30 1751 H 169.533 3.87804 0.578852 0
M  V30 1752 H 171.023 3.87004 1.56899 0
M  V30 1753 N 171.46 0.379036 1.52974 0
M  V30 1754 C 172.685 -0.209353 2.06341 0
M  V30 1755 C 173.11 -1.40583 1.24972 0
M  V30 1756 O 172.468 -1.79246 0.272155 0
M  V30 1757 C 172.516 -0.567786 3.56102 0
M  V30 1758 O 171.62 -1.66318 3.77375 0
M  V30 1759 H 170.961 -0.0272919 0.663439 0
M  V30 1760 H 173.491 0.543536 1.97248 0
M  V30 1761 H 173.501 -0.835003 3.99364 0
M  V30 1762 H 172.176 0.307013 4.14765 0
M  V30 1763 H 170.753 -1.39048 3.46006 0
M  V30 1764 N 172.938 -1.57226 0.108567 0
M  V30 1765 C 174.187 -1.94008 -0.551703 0
M  V30 1766 C 174.5 -0.993442 -1.68494 0
M  V30 1767 O 175.706 -1.25551 -2.40726 0
M  V30 1768 C 174.162 -3.44763 -1.03279 0
M  V30 1769 C 173.77 -4.47943 0.0714193 0
M  V30 1770 C 175.514 -3.90483 -1.66503 0
M  V30 1771 C 173.421 -5.89865 -0.425779 0
M  V30 1772 H 172.351 -0.724206 -0.209863 0
M  V30 1773 H 175.002 -1.82547 0.186741 0
M  V30 1774 H 173.384 -3.51422 -1.82533 0
M  V30 1775 H 174.558 -4.52942 0.847365 0
M  V30 1776 H 172.873 -4.11913 0.609669 0
M  V30 1777 H 175.47 -4.93925 -2.04798 0
M  V30 1778 H 175.813 -3.29877 -2.53942 0
M  V30 1779 H 176.346 -3.86581 -0.938074 0
M  V30 1780 H 173.085 -6.54202 0.412316 0
M  V30 1781 H 172.605 -5.88309 -1.16843 0
M  V30 1782 H 174.284 -6.40844 -0.890397 0
M  V30 1783 N 174.416 0.165178 -1.56732 0
M  V30 1784 C 175.346 1.20651 -1.99914 0
M  V30 1785 C 176.327 1.45827 -0.875705 0
M  V30 1786 O 177.512 1.57057 -1.14223 0
M  V30 1787 C 174.642 2.54401 -2.36427 0
M  V30 1788 C 173.596 2.43782 -3.51787 0
M  V30 1789 C 172.922 3.82078 -3.7406 0
M  V30 1790 C 174.222 1.93732 -4.85041 0
M  V30 1791 H 175.916 0.847534 -2.87154 0
M  V30 1792 H 173.462 0.40625 -1.38151 0
M  V30 1793 H 175.415 3.27458 -2.65234 0
M  V30 1794 H 174.139 2.92098 -1.46103 0
M  V30 1795 H 172.798 1.73178 -3.23117 0
M  V30 1796 H 172.446 4.17179 -2.81017 0
M  V30 1797 H 172.146 3.7584 -4.51684 0
M  V30 1798 H 173.67 4.56712 -4.05274 0
M  V30 1799 H 175.084 2.56569 -5.12684 0
M  V30 1800 H 173.481 1.98428 -5.66345 0
M  V30 1801 H 174.551 0.891962 -4.76626 0
M  V30 1802 N 175.894 1.51508 0.433938 0
M  V30 1803 C 176.842 1.73646 1.54757 0
M  V30 1804 C 177.836 0.602854 1.5831 0
M  V30 1805 O 179.042 0.784318 1.62014 0
M  V30 1806 H 175.417 0.548718 0.51421 0
M  V30 1807 H 177.388 2.66991 1.33261 0
M  V30 1808 C 176.137 1.88172 2.92381 0
M  V30 1809 H 175.46 2.74808 2.90381 0
M  V30 1810 H 176.9 2.07672 3.6966 0
M  V30 1811 C 175.359 0.64239 3.30719 0
M  V30 1812 O 175.889 -0.201362 4.01195 0
M  V30 1813 N 174.095 0.485489 2.86516 0
M  V30 1814 H 173.642 1.17318 2.29334 0
M  V30 1815 H 173.6 -0.342482 3.12529 0
M  V30 1816 N 177.372 -0.689602 1.41712 0
M  V30 1817 C 178.302 -1.81577 1.46806 0
M  V30 1818 C 179.283 -1.66945 0.326105 0
M  V30 1819 O 180.468 -1.86588 0.538377 0
M  V30 1820 C 177.598 -3.19762 1.35535 0
M  V30 1821 C 176.552 -3.49107 2.47605 0
M  V30 1822 C 175.878 -4.86711 2.21397 0
M  V30 1823 C 177.178 -3.47483 3.89939 0
M  V30 1824 H 178.872 -1.7757 2.41058 0
M  V30 1825 H 176.418 -0.852887 1.16025 0
M  V30 1826 H 178.371 -3.98263 1.3771 0
M  V30 1827 H 177.095 -3.24409 0.377708 0
M  V30 1828 H 175.754 -2.72959 2.44722 0
M  V30 1829 H 175.402 -4.8799 1.21961 0
M  V30 1830 H 175.102 -5.0731 2.96497 0
M  V30 1831 H 176.626 -5.67515 2.25297 0
M  V30 1832 H 178.04 -4.1598 3.94505 0
M  V30 1833 H 176.437 -3.79615 4.64771 0
M  V30 1834 H 177.507 -2.46341 4.17665 0
M  V30 1835 N 178.85 -1.27639 -0.924453 0
M  V30 1836 C 180.09 -1.15407 -1.68703 0
M  V30 1837 C 180.454 0.294581 -1.89727 0
M  V30 1838 O 181.655 0.539385 -2.63333 0
M  V30 1839 C 179.926 -1.9195 -3.0148 0
M  V30 1840 S 181.485 -1.95969 -3.92609 0
M  V30 1841 H 178.303 -0.411937 -0.579507 0
M  V30 1842 H 180.905 -1.61592 -1.10038 0
M  V30 1843 H 179.609 -2.96387 -2.83871 0
M  V30 1844 H 179.14 -1.46272 -3.65196 0
M  V30 1845 H 181.155 -1.05846 -4.84779 0
M  V30 1846 N 180.328 1.1314 -1.09713 0
M  V30 1847 C 181.291 2.16831 -0.742751 0
M  V30 1848 C 182.291 1.59159 0.229129 0
M  V30 1849 O 183.481 1.74199 0.00693237 0
M  V30 1850 C 180.613 3.40756 -0.0989168 0
M  V30 1851 H 181.806 2.49695 -1.66109 0
M  V30 1852 H 179.359 1.2802 -0.896699 0
M  V30 1853 H 180.094 3.13485 0.830514 0
M  V30 1854 H 179.879 3.83888 -0.798265 0
M  V30 1855 H 181.369 4.17386 0.133524 0
M  V30 1856 N 181.806 0.884767 1.30421 0
M  V30 1857 C 183.055 0.499164 1.95426 0
M  V30 1858 C 183.368 -0.95645 1.70621 0
M  V30 1859 O 184.574 -1.44889 2.29607 0
M  V30 1860 C 183.03 0.84177 3.49917 0
M  V30 1861 C 182.638 2.31514 3.83543 0
M  V30 1862 C 184.382 0.525355 4.21237 0
M  V30 1863 C 182.289 2.59939 5.31212 0
M  V30 1864 H 181.219 0.182944 0.73147 0
M  V30 1865 H 183.87 1.07971 1.48373 0
M  V30 1866 H 182.252 0.190311 3.95542 0
M  V30 1867 H 183.426 3.0109 3.48829 0
M  V30 1868 H 181.741 2.59907 3.25326 0
M  V30 1869 H 184.338 0.714762 5.29901 0
M  V30 1870 H 184.681 -0.535222 4.12845 0
M  V30 1871 H 185.214 1.134 3.81294 0
M  V30 1872 H 181.953 3.64736 5.44654 0
M  V30 1873 H 181.473 1.94972 5.67227 0
M  V30 1874 H 183.152 2.45429 5.98643 0
M  V30 1875 N 183.284 -1.43765 0.645699 0
M  V30 1876 C 184.509 -2.06767 0.161883 0
M  V30 1877 C 184.934 -1.48034 -1.16049 0
M  V30 1878 O 184.292 -0.587369 -1.71522 0
M  V30 1879 C 184.34 -3.60519 0.0762003 0
M  V30 1880 O 183.444 -4.00982 -0.963721 0
M  V30 1881 H 182.785 -0.657675 0.091429 0
M  V30 1882 H 185.315 -1.84397 0.886499 0
M  V30 1883 H 185.325 -4.07853 -0.109604 0
M  V30 1884 H 184 -4.02646 1.04157 0
M  V30 1885 H 182.577 -3.65253 -0.751312 0
M  V30 1886 N 184.763 -0.387143 -1.52771 0
M  V30 1887 C 186.012 0.19697 -2.00736 0
M  V30 1888 C 186.325 1.48082 -1.27793 0
M  V30 1889 O 187.531 2.14485 -1.66458 0
M  V30 1890 C 185.987 0.401568 -3.57653 0
M  V30 1891 C 185.595 -0.868907 -4.39493 0
M  V30 1892 C 187.339 0.942164 -4.13912 0
M  V30 1893 C 185.246 -0.632705 -5.88006 0
M  V30 1894 H 184.176 0.0773827 -0.750019 0
M  V30 1895 H 186.827 -0.50921 -1.76293 0
M  V30 1896 H 185.209 1.16954 -3.78335 0
M  V30 1897 H 186.383 -1.64133 -4.30577 0
M  V30 1898 H 184.698 -1.33429 -3.94443 0
M  V30 1899 H 187.295 1.13455 -5.22525 0
M  V30 1900 H 187.638 1.9106 -3.69867 0
M  V30 1901 H 188.171 0.233814 -3.97112 0
M  V30 1902 H 184.91 -1.57208 -6.36369 0
M  V30 1903 H 184.43 0.100825 -5.99715 0
M  V30 1904 H 186.109 -0.26642 -6.46451 0
M  V30 1905 N 186.241 1.57166 -0.116904 0
M  V30 1906 C 187.518 1.86645 0.585049 0
M  V30 1907 C 187.898 1.0177 1.84949 0
M  V30 1908 O 187.246 0.0960379 2.28298 0
M  V30 1909 C 187.456 3.37736 0.879507 0
M  V30 1910 C 188.804 4.06289 1.23348 0
M  V30 1911 O 189.828 3.42743 0.969836 0
M  V30 1912 O 188.687 5.18455 1.7282 0
M  V30 1913 H 185.781 0.772593 0.295007 0
M  V30 1914 H 188.327 1.69025 -0.151249 0
M  V30 1915 H 187.099 3.91296 -0.0166136 0
M  V30 1916 H 186.722 3.6078 1.67103 0
M  V30 1917 N 187.719 -0.156864 1.56817 0
M  V30 1918 C 189.135 -0.50916 1.5126 0
M  V30 1919 C 189.335 -1.83897 0.823658 0
M  V30 1920 O 188.391 -2.49469 0.390055 0
M  V30 1921 C 189.704 -0.52857 2.96018 0
M  V30 1922 C 191.252 -0.614771 3.06903 0
M  V30 1923 C 191.727 -0.664938 4.53147 0
M  V30 1924 N 193.218 -0.727433 4.57452 0
M  V30 1925 C 193.953 -0.787067 5.67973 0
M  V30 1926 N 193.449 -0.806649 6.88088 0
M  V30 1927 N 195.242 -0.827195 5.5598 0
M  V30 1928 H 187.393 0.714935 2.00006 0
M  V30 1929 H 189.656 0.259526 0.911784 0
M  V30 1930 H 189.362 0.380154 3.49639 0
M  V30 1931 H 189.236 -1.36998 3.51442 0
M  V30 1932 H 191.623 -1.51392 2.53307 0
M  V30 1933 H 191.704 0.253597 2.5454 0
M  V30 1934 H 191.348 0.230011 5.07379 0
M  V30 1935 H 191.278 -1.54966 5.03282 0
M  V30 1936 H 193.769 -0.719998 3.70978 0
M  V30 1937 H 194.082 -0.853727 7.6807 0
M  V30 1938 H 192.427 -0.774687 6.90669 0
M  V30 1939 H 195.618 -0.808998 4.61056 0
M  V30 1940 H 195.791 -0.870206 6.4213 0
M  V30 1941 N 189.197 -1.51736 -0.425897 0
M  V30 1942 C 190.427 -1.68549 -1.19476 0
M  V30 1943 C 190.835 -0.387288 -1.85194 0
M  V30 1944 O 190.178 0.645142 -1.71999 0
M  V30 1945 C 190.24 -2.75275 -2.31223 0
M  V30 1946 C 189.904 -4.17534 -1.8578 0
M  V30 1947 C 190.901 -5.01936 -1.35485 0
M  V30 1948 C 188.586 -4.6369 -1.93123 0
M  V30 1949 C 190.58 -6.30559 -0.931347 0
M  V30 1950 C 188.267 -5.92307 -1.50384 0
M  V30 1951 C 189.265 -6.75569 -1.00473 0
M  V30 1952 O 188.953 -8.0178 -0.583452 0
M  V30 1953 H 188.685 -0.568525 -0.365725 0
M  V30 1954 H 191.239 -1.98982 -0.509444 0
M  V30 1955 H 189.469 -2.40182 -3.03067 0
M  V30 1956 H 191.158 -2.80853 -2.93047 0
M  V30 1957 H 191.924 -4.67475 -1.29197 0
M  V30 1958 H 187.803 -3.98997 -2.30916 0
M  V30 1959 H 191.347 -6.95498 -0.541084 0
M  V30 1960 H 187.244 -6.2628 -1.56346 0
M  V30 1961 H 188.012 -8.1543 -0.708275 0
M  V30 1962 N 190.675 0.682077 -1.42076 0
M  V30 1963 C 191.903 1.47057 -1.4554 0
M  V30 1964 C 192.318 1.8869 -0.0645779 0
M  V30 1965 O 191.675 1.57666 0.919115 0
M  V30 1966 C 191.726 2.72442 -2.37609 0
M  V30 1967 O 191.447 2.32559 -3.71279 0
M  V30 1968 C 192.948 3.66069 -2.50017 0
M  V30 1969 H 190.168 0.452737 -0.495248 0
M  V30 1970 H 192.712 0.838695 -1.8651 0
M  V30 1971 H 190.867 3.31835 -1.9991 0
M  V30 1972 H 191.281 3.13475 -4.20516 0
M  V30 1973 H 192.755 4.50792 -3.18576 0
M  V30 1974 H 193.232 4.11476 -1.53572 0
M  V30 1975 H 193.838 3.12572 -2.88407 0
M  V30 1976 N 192.153 1.28127 0.917671 0
M  V30 1977 C 193.116 1.11744 2.00115 0
M  V30 1978 C 194.116 0.0583052 1.60694 0
M  V30 1979 O 195.306 0.303755 1.71531 0
M  V30 1980 C 192.438 0.704862 3.33533 0
M  V30 1981 H 193.631 2.07966 2.16079 0
M  V30 1982 H 191.184 1.11058 1.09981 0
M  V30 1983 H 191.919 -0.258299 3.2327 0
M  V30 1984 H 191.704 1.4699 3.63505 0
M  V30 1985 H 193.194 0.612768 4.1308 0
M  V30 1986 N 193.631 -1.12557 1.10312 0
M  V30 1987 C 194.877 -1.84311 0.846011 0
M  V30 1988 C 195.21 -1.83805 -0.626859 0
M  V30 1989 O 194.485 -1.28268 -1.46211 0
M  V30 1990 C 194.768 -3.32048 1.39341 0
M  V30 1991 C 194.621 -3.41016 2.93305 0
M  V30 1992 C 195.94 -4.27764 1.03468 0
M  V30 1993 H 193.059 -0.669192 0.30879 0
M  V30 1994 H 195.701 -1.32057 1.36605 0
M  V30 1995 H 193.851 -3.76678 0.951087 0
M  V30 1996 H 195.523 -3.05031 3.46055 0
M  V30 1997 H 193.766 -2.81603 3.29973 0
M  V30 1998 H 194.437 -4.44948 3.26689 0
M  V30 1999 H 196.913 -3.91253 1.41633 0
M  V30 2000 H 195.789 -5.29549 1.44463 0
M  V30 2001 H 196.05 -4.42064 -0.0560404 0
M  V30 2002 N 195.109 -0.891671 -1.2995 0
M  V30 2003 C 196.355 -0.514261 -1.96171 0
M  V30 2004 C 196.688 0.935506 -1.70182 0
M  V30 2005 O 195.963 1.66204 -1.01028 0
M  V30 2006 C 196.246 -0.797719 -3.51153 0
M  V30 2007 C 196.099 -2.2986 -3.86632 0
M  V30 2008 C 197.418 -0.278749 -4.39216 0
M  V30 2009 H 194.537 -0.188314 -0.712535 0
M  V30 2010 H 197.179 -1.11689 -1.53706 0
M  V30 2011 H 195.329 -0.284826 -3.87455 0
M  V30 2012 H 197.001 -2.88042 -3.60319 0
M  V30 2013 H 195.244 -2.76257 -3.34462 0
M  V30 2014 H 195.915 -2.44753 -4.94773 0
M  V30 2015 H 198.391 -0.717825 -4.09862 0
M  V30 2016 H 197.267 -0.506353 -5.46559 0
M  V30 2017 H 197.528 0.820266 -4.34424 0
M  V30 2018 N 196.587 1.43421 -0.653314 0
M  V30 2019 C 197.52 2.2803 0.0879804 0
M  V30 2020 C 198.498 1.39833 0.82979 0
M  V30 2021 O 199.682 1.69275 0.829341 0
M  V30 2022 C 196.809 3.19247 1.13132 0
M  V30 2023 C 195.855 4.23704 0.487546 0
M  V30 2024 S 196.688 5.30377 -0.738961 0
M  V30 2025 C 197.844 6.25162 0.30384 0
M  V30 2026 H 198.077 2.90554 -0.629739 0
M  V30 2027 H 195.61 1.47934 -0.442156 0
M  V30 2028 H 197.568 3.72346 1.72827 0
M  V30 2029 H 196.229 2.55901 1.82136 0
M  V30 2030 H 195.422 4.87631 1.27407 0
M  V30 2031 H 195.024 3.73983 -0.0352915 0
M  V30 2032 H 197.316 6.67321 1.17 0
M  V30 2033 H 198.259 7.07463 -0.300402 0
M  V30 2034 H 198.667 5.60864 0.63969 0
M  V30 2035 N 198.065 0.39524 1.52563 0
M  V30 2036 C 199.476 -0.0774719 1.86539 0
M  V30 2037 C 199.827 -1.45641 1.31466 0
M  V30 2038 O 198.952 -2.06459 0.648367 0
M  V30 2039 C 199.547 -0.147356 3.38479 0
M  V30 2040 C 198.106 -0.564373 3.72145 0
M  V30 2041 C 197.253 0.269919 2.75983 0
M  V30 2042 H 200.204 0.612876 1.46388 0
M  V30 2043 H 200.225 -0.965343 3.68051 0
M  V30 2044 H 199.737 0.856387 3.78534 0
M  V30 2045 H 197.838 -1.57527 3.37663 0
M  V30 2046 H 197.951 -0.318402 4.78041 0
M  V30 2047 H 196.315 -0.265696 2.5331 0
M  V30 2048 H 197.098 1.27175 3.18875 0
M  V30 2049 N 199.544 -1.57102 0.125237 0
M  V30 2050 C 200.79 -1.95697 -0.532035 0
M  V30 2051 C 201.123 -1.009 -1.6593 0
M  V30 2052 O 200.398 -0.047347 -1.94442 0
M  V30 2053 C 200.681 -3.44181 -1.05884 0
M  V30 2054 C 200.534 -4.49752 0.0654392 0
M  V30 2055 C 201.853 -3.94655 -1.9477 0
M  V30 2056 H 198.972 -0.711571 -0.191925 0
M  V30 2057 H 201.614 -1.88923 0.20206 0
M  V30 2058 H 199.764 -3.50085 -1.68442 0
M  V30 2059 H 201.436 -4.55943 0.700982 0
M  V30 2060 H 199.679 -4.27653 0.727709 0
M  V30 2061 H 200.35 -5.50924 -0.344505 0
M  V30 2062 H 202.826 -3.91094 -1.42074 0
M  V30 2063 H 201.702 -4.99057 -2.28546 0
M  V30 2064 H 201.963 -3.35718 -2.87656 0
M  V30 2065 N 201.022 0.148545 -1.56898 0
M  V30 2066 C 201.972 1.1886 -1.94567 0
M  V30 2067 C 202.956 1.3863 -0.816735 0
M  V30 2068 O 204.148 1.40218 -1.08018 0
M  V30 2069 C 201.277 2.52262 -2.32849 0
M  V30 2070 C 200.363 2.36092 -3.52309 0
M  V30 2071 N 200.754 1.89674 -4.6889 0
M  V30 2072 C 199.052 2.66848 -3.57363 0
M  V30 2073 C 199.753 1.86511 -5.50989 0
M  V30 2074 N 198.729 2.29766 -4.92655 0
M  V30 2075 H 202.531 0.821793 -2.82177 0
M  V30 2076 H 200.045 0.356615 -1.58436 0
M  V30 2077 H 202.042 3.27447 -2.58039 0
M  V30 2078 H 200.702 2.89727 -1.46589 0
M  V30 2079 H 201.713 1.59663 -4.92674 0
M  V30 2080 H 198.39 3.08198 -2.81639 0
M  V30 2081 H 199.78 1.52128 -6.54452 0
M  V30 2082 N 202.5 1.5196 0.417844 0
M  V30 2083 C 203.73 1.69181 1.18581 0
M  V30 2084 C 204.138 0.397104 1.84986 0
M  V30 2085 O 203.481 -0.636011 1.72339 0
M  V30 2086 C 203.543 2.76497 2.29759 0
M  V30 2087 C 203.207 4.18514 1.83563 0
M  V30 2088 C 204.204 5.02648 1.32821 0
M  V30 2089 C 201.889 4.64708 1.90661 0
M  V30 2090 C 203.883 6.31044 0.897894 0
M  V30 2091 C 201.57 5.93096 1.47241 0
M  V30 2092 C 202.568 6.76093 0.968891 0
M  V30 2093 O 202.256 8.02078 0.540924 0
M  V30 2094 H 201.988 0.570457 0.362705 0
M  V30 2095 H 204.542 1.99249 0.498885 0
M  V30 2096 H 202.772 2.41786 3.01789 0
M  V30 2097 H 204.461 2.82403 2.91553 0
M  V30 2098 H 205.227 4.68154 1.26716 0
M  V30 2099 H 201.106 4.00216 2.28797 0
M  V30 2100 H 204.65 6.95776 0.504192 0
M  V30 2101 H 200.547 6.271 1.53022 0
M  V30 2102 H 201.315 8.15794 0.66502 0
M  V30 2103 N 203.978 -0.674533 1.42435 0
M  V30 2104 C 204.91 -1.80005 1.41883 0
M  V30 2105 C 205.923 -1.59667 0.31787 0
M  V30 2106 O 207.112 -1.68781 0.580973 0
M  V30 2107 C 204.212 -3.17114 1.19549 0
M  V30 2108 C 203.385 -3.64299 2.42084 0
M  V30 2109 C 202.444 -4.80142 2.15291 0
M  V30 2110 O 201.47 -4.90673 2.88493 0
M  V30 2111 N 202.672 -5.68869 1.1562 0
M  V30 2112 H 205.437 -1.80964 2.38898 0
M  V30 2113 H 202.998 -0.857633 1.37318 0
M  V30 2114 H 204.99 -3.92267 0.995417 0
M  V30 2115 H 203.56 -3.11053 0.310569 0
M  V30 2116 H 202.78 -2.79822 2.77657 0
M  V30 2117 H 204.068 -3.92567 3.23679 0
M  V30 2118 H 203.466 -5.63012 0.550765 0
M  V30 2119 H 202.023 -6.43833 1.016 0
M  V30 2120 N 205.456 -1.28612 -0.910864 0
M  V30 2121 C 206.406 -1.09423 -2.00026 0
M  V30 2122 C 207.39 -0.0170079 -1.60891 0
M  V30 2123 O 208.582 -0.237472 -1.754 0
M  V30 2124 C 205.711 -0.76114 -3.34756 0
M  V30 2125 C 204.797 -1.87735 -3.80285 0
M  V30 2126 N 205.188 -3.11938 -3.98156 0
M  V30 2127 C 203.486 -1.76786 -4.09467 0
M  V30 2128 C 204.187 -3.84687 -4.36338 0
M  V30 2129 N 203.163 -3.12555 -4.44759 0
M  V30 2130 H 206.965 -2.03658 -2.11898 0
M  V30 2131 H 204.479 -1.19573 -1.09891 0
M  V30 2132 H 206.476 -0.604743 -4.12491 0
M  V30 2133 H 205.136 0.173403 -3.24237 0
M  V30 2134 H 206.147 -3.47516 -3.83996 0
M  V30 2135 H 202.824 -0.905284 -4.07567 0
M  V30 2136 H 204.214 -4.91518 -4.58104 0
M  V30 2137 N 206.934 1.1197 -1.10907 0
M  V30 2138 C 208.182 1.83225 -0.852819 0
M  V30 2139 C 208.503 1.84769 0.623341 0
M  V30 2140 O 207.773 1.3143 1.45269 0
M  V30 2141 H 206.353 0.67849 -0.312507 0
M  V30 2142 H 209.015 1.3556 -1.40033 0
M  V30 2143 H 208.111 2.87265 -1.22005 0
M  V30 2144 N 208.412 0.89855 1.29475 0
M  V30 2145 C 209.64 0.539261 1.99749 0
M  V30 2146 C 210.055 -0.875716 1.67262 0
M  V30 2147 O 209.412 -1.57786 0.917049 0
M  V30 2148 C 209.463 0.72061 3.54245 0
M  V30 2149 O 209.184 2.07989 3.8558 0
M  V30 2150 C 210.685 0.366118 4.41786 0
M  V30 2151 H 207.905 0.207047 0.638258 0
M  V30 2152 H 210.449 1.20758 1.65039 0
M  V30 2153 H 208.604 0.0994862 3.87272 0
M  V30 2154 H 209.018 2.10841 4.80257 0
M  V30 2155 H 210.492 0.543848 5.49314 0
M  V30 2156 H 210.969 -0.696763 4.33638 0
M  V30 2157 H 211.575 0.964135 4.14228 0
M  V30 2158 N 209.89 -1.43072 0.660911 0
M  V30 2159 C 211.138 -2.01323 0.177094 0
M  V30 2160 C 211.459 -1.5245 -1.2159 0
M  V30 2161 O 210.729 -0.740322 -1.81373 0
M  V30 2162 H 209.309 -0.744382 0.0624804 0
M  V30 2163 H 211.971 -1.75179 0.854305 0
M  V30 2164 H 211.067 -3.11649 0.167641 0
M  V30 2165 N 211.368 -0.403325 -1.52352 0
M  V30 2166 C 212.3 0.4603 -2.2453 0
M  V30 2167 C 213.313 1.01505 -1.27282 0
M  V30 2168 O 214.502 0.914982 -1.53266 0
M  V30 2169 C 211.602 1.65208 -2.95905 0
M  V30 2170 C 210.775 1.22224 -4.19976 0
M  V30 2171 C 209.834 2.28028 -4.74226 0
M  V30 2172 O 208.86 1.88857 -5.36956 0
M  V30 2173 N 210.062 3.6012 -4.55295 0
M  V30 2174 H 212.827 -0.158156 -2.99282 0
M  V30 2175 H 210.388 -0.230402 -1.60252 0
M  V30 2176 H 212.38 2.35541 -3.29093 0
M  V30 2177 H 210.95 2.17658 -2.24374 0
M  V30 2178 H 210.17 0.34725 -3.92668 0
M  V30 2179 H 211.458 0.911924 -5.00561 0
M  V30 2180 H 210.856 3.94698 -4.05253 0
M  V30 2181 H 209.413 4.26447 -4.92936 0
M  V30 2182 N 212.846 1.57033 -0.133567 0
M  V30 2183 C 214.071 2.00475 0.531477 0
M  V30 2184 C 214.496 1.01291 1.58499 0
M  V30 2185 O 213.854 -0.0133279 1.81295 0
M  V30 2186 C 213.902 3.42729 1.12113 0
M  V30 2187 O 213.006 3.46498 2.23636 0
M  V30 2188 H 212.347 0.650876 0.131362 0
M  V30 2189 H 214.877 2.03344 -0.22634 0
M  V30 2190 H 214.887 3.81246 1.4531 0
M  V30 2191 H 213.562 4.14428 0.349557 0
M  V30 2192 H 212.139 3.19811 1.91769 0
M  V30 2193 N 214.325 -0.140222 1.56975 0
M  V30 2194 C 215.55 -0.870414 1.88251 0
M  V30 2195 C 215.975 -1.73637 0.723312 0
M  V30 2196 O 215.333 -1.78329 -0.32689 0
M  V30 2197 C 215.381 -1.69737 3.18154 0
M  V30 2198 O 214.485 -2.80229 3.02565 0
M  V30 2199 H 213.826 -0.242025 0.61832 0
M  V30 2200 H 216.356 -0.128999 2.04193 0
M  V30 2201 H 216.366 -2.09099 3.50345 0
M  V30 2202 H 215.041 -1.06152 4.02125 0
M  V30 2203 H 213.618 -2.44224 2.81796 0
M  V30 2204 N 215.803 -1.52179 -0.40978 0
M  V30 2205 C 217.043 -1.67882 -1.16597 0
M  V30 2206 C 217.407 -0.399795 -1.87791 0
M  V30 2207 O 218.608 -0.43292 -2.65291 0
M  V30 2208 C 216.879 -2.86662 -2.13448 0
M  V30 2209 S 218.438 -3.22843 -2.97183 0
M  V30 2210 H 215.256 -0.59118 -0.395002 0
M  V30 2211 H 217.858 -1.9017 -0.453373 0
M  V30 2212 H 216.562 -3.77998 -1.59831 0
M  V30 2213 H 216.093 -2.66645 -2.89247 0
M  V30 2214 H 218.108 -2.71415 -4.15389 0
M  V30 2215 N 217.281 0.66697 -1.42791 0
M  V30 2216 C 218.697 0.981027 -1.25889 0
M  V30 2217 C 218.897 2.00793 -0.168695 0
M  V30 2218 O 217.953 2.48321 0.45747 0
M  V30 2219 C 219.266 1.47838 -2.61848 0
M  V30 2220 C 220.814 1.59575 -2.69267 0
M  V30 2221 C 221.289 2.12704 -4.05612 0
M  V30 2222 N 222.78 2.20026 -4.07606 0
M  V30 2223 C 223.515 2.62227 -5.09926 0
M  V30 2224 N 223.011 3.03824 -6.22626 0
M  V30 2225 N 224.804 2.62045 -4.97281 0
M  V30 2226 H 216.955 -0.0127891 -2.12396 0
M  V30 2227 H 219.218 0.0568258 -0.946295 0
M  V30 2228 H 218.924 0.798299 -3.4252 0
M  V30 2229 H 218.798 2.45579 -2.86305 0
M  V30 2230 H 221.185 2.26687 -1.88936 0
M  V30 2231 H 221.266 0.60302 -2.48591 0
M  V30 2232 H 220.91 1.46198 -4.86404 0
M  V30 2233 H 220.84 3.12782 -4.23645 0
M  V30 2234 H 223.331 1.90708 -3.2625 0
M  V30 2235 H 223.644 3.34734 -6.96544 0
M  V30 2236 H 221.989 3.01662 -6.26119 0
M  V30 2237 H 225.18 2.28916 -4.08308 0
M  V30 2238 H 225.353 2.94613 -5.77154 0
M  V30 2239 N 218.759 1.29093 0.90403 0
M  V30 2240 C 220.175 1.07011 1.1841 0
M  V30 2241 C 220.375 -0.181358 2.00682 0
M  V30 2242 O 219.431 -0.880331 2.36657 0
M  V30 2243 C 220.744 2.32311 1.90924 0
M  V30 2244 C 222.292 2.37587 2.03768 0
M  V30 2245 C 222.767 3.62679 2.79693 0
M  V30 2246 N 224.258 3.63376 2.87249 0
M  V30 2247 C 224.993 4.56848 3.46522 0
M  V30 2248 N 224.489 5.60648 4.06996 0
M  V30 2249 N 226.282 4.44426 3.44154 0
M  V30 2250 H 218.433 2.09412 0.354993 0
M  V30 2251 H 220.696 0.922181 0.219742 0
M  V30 2252 H 220.402 3.23536 1.37905 0
M  V30 2253 H 220.276 2.39483 2.91424 0
M  V30 2254 H 222.663 1.46853 2.55965 0
M  V30 2255 H 222.744 2.34403 1.02415 0
M  V30 2256 H 222.388 4.53762 2.28173 0
M  V30 2257 H 222.318 3.63119 3.81381 0
M  V30 2258 H 224.809 2.88321 2.44293 0
M  V30 2259 H 225.122 6.28101 4.50232 0
M  V30 2260 H 223.467 5.64463 4.05471 0
M  V30 2261 H 226.658 3.62529 2.96126 0
M  V30 2262 H 226.831 5.17457 3.90054 0
M  V30 2263 N 220.237 -1.11381 1.11499 0
M  V30 2264 C 221.483 -1.83403 0.865512 0
M  V30 2265 C 221.816 -1.84459 -0.607329 0
M  V30 2266 O 221.091 -1.29811 -1.44842 0
M  V30 2267 C 221.374 -3.30552 1.42855 0
M  V30 2268 C 221.227 -3.37886 2.96906 0
M  V30 2269 C 222.546 -4.26643 1.08 0
M  V30 2270 H 219.665 -0.665879 0.31587 0
M  V30 2271 H 222.307 -1.30601 1.37998 0
M  V30 2272 H 220.457 -3.75648 0.990985 0
M  V30 2273 H 222.129 -3.01343 3.49271 0
M  V30 2274 H 220.372 -2.78088 3.32941 0
M  V30 2275 H 221.043 -4.41458 3.31389 0
M  V30 2276 H 223.519 -3.89729 1.45775 0
M  V30 2277 H 222.395 -5.27986 1.50072 0
M  V30 2278 H 222.656 -4.42099 -0.00915037 0
M  V30 2279 N 221.715 -0.905404 -1.28997 0
M  V30 2280 C 222.678 -0.392253 -2.25819 0
M  V30 2281 C 223.678 0.476753 -1.5357 0
M  V30 2282 O 224.868 0.280994 -1.71919 0
M  V30 2283 C 222 0.438588 -3.38067 0
M  V30 2284 H 223.193 -1.24743 -2.72725 0
M  V30 2285 H 220.746 -0.684051 -1.40536 0
M  V30 2286 H 221.481 1.31352 -2.96508 0
M  V30 2287 H 221.266 -0.184167 -3.91667 0
M  V30 2288 H 222.756 0.78873 -4.10084 0
M  V30 2289 N 223.193 1.4272 -0.668489 0
M  V30 2290 C 224.123 2.335 -0.000100175 0
M  V30 2291 C 225.104 1.50328 0.795964 0
M  V30 2292 O 226.289 1.78949 0.754385 0
M  V30 2293 C 223.419 3.33874 0.956302 0
M  V30 2294 C 222.373 4.27152 0.269278 0
M  V30 2295 C 221.699 5.17684 1.33818 0
M  V30 2296 C 222.999 5.15373 -0.847805 0
M  V30 2297 H 224.693 2.89639 -0.758244 0
M  V30 2298 H 222.239 1.39269 -0.366079 0
M  V30 2299 H 224.192 3.9629 1.43292 0
M  V30 2300 H 222.916 2.76025 1.74579 0
M  V30 2301 H 221.575 3.66123 -0.187042 0
M  V30 2302 H 221.223 4.56165 2.1195 0
M  V30 2303 H 220.923 5.80918 0.883659 0
M  V30 2304 H 222.447 5.82974 1.81586 0
M  V30 2305 H 223.861 5.7151 -0.452681 0
M  V30 2306 H 222.258 5.87407 -1.22773 0
M  V30 2307 H 223.328 4.5415 -1.69929 0
M  V30 2308 N 224.671 0.411399 1.52136 0
M  V30 2309 C 225.604 -0.457614 2.23565 0
M  V30 2310 C 226.582 -1.04613 1.24478 0
M  V30 2311 O 227.766 -1.09356 1.53536 0
M  V30 2312 C 224.893 -1.6354 2.96602 0
M  V30 2313 C 223.939 -1.17005 4.10137 0
M  V30 2314 S 224.772 -0.13333 5.35334 0
M  V30 2315 C 225.928 -1.31638 6.119 0
M  V30 2316 H 226.161 0.148883 2.96927 0
M  V30 2317 H 223.694 0.195713 1.53155 0
M  V30 2318 H 225.652 -2.31074 3.39286 0
M  V30 2319 H 224.313 -2.21324 2.22878 0
M  V30 2320 H 223.506 -2.05005 4.60422 0
M  V30 2321 H 223.108 -0.573319 3.6958 0
M  V30 2322 H 225.4 -2.23957 6.39413 0
M  V30 2323 H 226.343 -0.854014 7.02931 0
M  V30 2324 H 226.751 -1.54321 5.42997 0
M  V30 2325 N 226.149 -1.5696 0.141893 0
M  V30 2326 C 227.398 -1.95135 -0.510427 0
M  V30 2327 C 227.711 -1.02896 -1.66348 0
M  V30 2328 O 228.917 -1.30629 -2.38009 0
M  V30 2329 C 227.373 -3.46876 -0.959427 0
M  V30 2330 C 226.981 -4.47691 0.166419 0
M  V30 2331 C 228.725 -3.93927 -1.58183 0
M  V30 2332 C 226.632 -5.90636 -0.300565 0
M  V30 2333 H 225.562 -0.728494 -0.194454 0
M  V30 2334 H 228.213 -1.8211 0.22542 0
M  V30 2335 H 226.595 -3.55215 -1.75038 0
M  V30 2336 H 227.769 -4.51043 0.94325 0
M  V30 2337 H 226.084 -4.10527 0.696905 0
M  V30 2338 H 228.681 -4.98158 -1.94275 0
M  V30 2339 H 229.024 -3.3519 -2.46888 0
M  V30 2340 H 229.557 -3.88484 -0.855863 0
M  V30 2341 H 226.296 -6.5318 0.550989 0
M  V30 2342 H 225.816 -5.90655 -1.04338 0
M  V30 2343 H 227.495 -6.42588 -0.754265 0
M  V30 2344 N 227.627 0.131896 -1.57047 0
M  V30 2345 C 228.855 0.856461 -1.88341 0
M  V30 2346 C 229.27 1.74042 -0.731757 0
M  V30 2347 O 228.627 1.80051 0.297945 0
M  V30 2348 C 228.678 1.70064 -3.18999 0
M  V30 2349 O 228.399 0.852278 -4.2973 0
M  V30 2350 C 229.9 2.53148 -3.63911 0
M  V30 2351 H 227.12 0.246885 -0.62393 0
M  V30 2352 H 229.664 0.120152 -2.04147 0
M  V30 2353 H 227.819 2.38984 -3.04902 0
M  V30 2354 H 228.233 1.43329 -5.04537 0
M  V30 2355 H 229.707 3.07931 -4.58129 0
M  V30 2356 H 230.184 3.29901 -2.89935 0
M  V30 2357 H 230.79 1.89492 -3.80753 0
M  V30 2358 N 229.106 1.52395 0.401703 0
M  V30 2359 C 230.069 1.75636 1.47257 0
M  V30 2360 C 231.069 0.62628 1.48103 0
M  V30 2361 O 232.259 0.894227 1.49497 0
M  V30 2362 C 229.391 1.84553 2.86624 0
M  V30 2363 H 230.584 2.71241 1.27938 0
M  V30 2364 H 228.137 1.42923 0.632662 0
M  V30 2365 H 228.872 0.908882 3.11303 0
M  V30 2366 H 228.657 2.66715 2.87412 0
M  V30 2367 H 230.147 2.04251 3.64241 0
M  V30 2368 N 230.584 -0.659388 1.43143 0
M  V30 2369 C 231.83 -1.42145 1.44647 0
M  V30 2370 C 232.163 -1.9408 0.0681907 0
M  V30 2371 O 231.438 -1.71899 -0.910007 0
M  V30 2372 C 231.721 -2.60735 2.48373 0
M  V30 2373 C 231.574 -2.14332 3.95451 0
M  V30 2374 C 232.893 -3.62951 2.48906 0
M  V30 2375 H 230.012 -0.51552 0.526696 0
M  V30 2376 H 232.654 -0.748069 1.74654 0
M  V30 2377 H 230.804 -3.18184 2.22916 0
M  V30 2378 H 232.476 -1.61932 4.31944 0
M  V30 2379 H 230.719 -1.4576 4.08578 0
M  V30 2380 H 231.39 -2.99583 4.63631 0
M  V30 2381 H 233.866 -3.1525 2.71582 0
M  V30 2382 H 232.742 -4.43487 3.23435 0
M  V30 2383 H 233.003 -4.15126 1.52061 0
M  V30 2384 N 232.062 -1.29571 -0.897171 0
M  V30 2385 C 233.308 -1.18873 -1.65048 0
M  V30 2386 C 233.663 0.256707 -1.9068 0
M  V30 2387 O 232.956 1.18202 -1.50794 0
M  V30 2388 C 233.15 -1.9382 -3.00281 0
M  V30 2389 C 232.979 -3.45503 -2.8785 0
M  V30 2390 C 231.749 -4.14856 -2.88483 0
M  V30 2391 C 233.947 -4.40956 -2.64693 0
M  V30 2392 N 231.929 -5.52886 -2.66815 0
M  V30 2393 C 233.3 -5.66464 -2.5203 0
M  V30 2394 C 235.355 -4.3069 -2.49821 0
M  V30 2395 C 234.058 -6.82871 -2.26008 0
M  V30 2396 C 236.084 -5.46852 -2.25182 0
M  V30 2397 C 235.446 -6.71333 -2.13286 0
M  V30 2398 H 231.545 -0.489998 -0.609447 0
M  V30 2399 H 234.129 -1.63431 -1.05822 0
M  V30 2400 H 232.3 -1.51671 -3.57562 0
M  V30 2401 H 234.032 -1.75366 -3.64731 0
M  V30 2402 H 230.787 -3.66579 -2.99861 0
M  V30 2403 H 231.211 -6.25487 -2.59027 0
M  V30 2404 H 235.853 -3.35141 -2.5776 0
M  V30 2405 H 233.571 -7.78473 -2.16806 0
M  V30 2406 H 237.157 -5.40809 -2.14515 0
M  V30 2407 H 236.037 -7.59701 -1.94485 0
M  V30 2408 N 233.54 1.10788 -1.12088 0
M  V30 2409 C 234.786 1.82942 -0.875226 0
M  V30 2410 C 235.119 1.84779 0.597538 0
M  V30 2411 O 234.394 1.30578 1.44152 0
M  V30 2412 C 234.677 3.29789 -1.44606 0
M  V30 2413 C 234.53 3.36307 -2.98693 0
M  V30 2414 C 235.849 4.26064 -1.10261 0
M  V30 2415 H 232.968 0.664195 -0.319397 0
M  V30 2416 H 235.61 1.29867 -1.38689 0
M  V30 2417 H 233.76 3.75118 -1.01089 0
M  V30 2418 H 235.432 2.99487 -3.50864 0
M  V30 2419 H 233.675 2.76318 -3.34411 0
M  V30 2420 H 234.346 4.39694 -3.33726 0
M  V30 2421 H 236.822 3.88951 -1.4784 0
M  V30 2422 H 235.698 5.27183 -1.52869 0
M  V30 2423 H 235.959 4.42098 -0.0142953 0
M  V30 2424 N 235.018 0.912232 1.28515 0
M  V30 2425 C 235.948 0.416403 2.29757 0
M  V30 2426 C 236.929 -0.515194 1.6211 0
M  V30 2427 O 238.114 -0.423253 1.89532 0
M  V30 2428 C 235.244 -0.34572 3.45575 0
M  V30 2429 C 234.198 0.496599 4.25109 0
M  V30 2430 C 233.524 -0.393771 5.33248 0
M  V30 2431 C 234.824 1.75307 4.92001 0
M  V30 2432 H 236.518 1.26249 2.7148 0
M  V30 2433 H 234.064 0.608515 1.30511 0
M  V30 2434 H 236.017 -0.703422 4.15488 0
M  V30 2435 H 234.741 -1.2257 3.02728 0
M  V30 2436 H 233.4 0.8368 3.56922 0
M  V30 2437 H 233.048 -1.27225 4.86644 0
M  V30 2438 H 232.748 0.166209 5.87365 0
M  V30 2439 H 234.272 -0.747389 6.06009 0
M  V30 2440 H 235.686 1.46437 5.54283 0
M  V30 2441 H 234.083 2.25534 5.56106 0
M  V30 2442 H 235.153 2.48176 4.16577 0
M  V30 2443 N 236.496 -1.42363 0.676048 0
M  V30 2444 C 237.459 -2.29199 0.00766941 0
M  V30 2445 C 238.459 -1.43389 -0.727745 0
M  V30 2446 O 239.649 -1.64764 -0.56556 0
M  V30 2447 C 236.781 -3.2591 -0.999785 0
M  V30 2448 H 237.974 -2.89794 0.771988 0
M  V30 2449 H 235.527 -1.50024 0.438468 0
M  V30 2450 H 236.262 -2.70256 -1.79255 0
M  V30 2451 H 236.047 -3.89202 -0.475829 0
M  V30 2452 H 237.537 -3.91028 -1.46583 0
M  V30 2453 N 237.974 -0.419461 -1.51915 0
M  V30 2454 C 239.221 0.152939 -2.01922 0
M  V30 2455 C 239.549 1.4426 -1.30458 0
M  V30 2456 O 238.804 1.91514 -0.402593 0
M  V30 2457 C 239.103 0.437067 -3.54717 0
M  V30 2458 C 238.769 -0.764632 -4.44369 0
M  V30 2459 C 237.431 -1.09423 -4.68594 0
M  V30 2460 C 239.783 -1.56713 -4.97082 0
M  V30 2461 C 237.111 -2.22732 -5.42777 0
M  V30 2462 C 239.463 -2.69107 -5.72507 0
M  V30 2463 C 238.127 -3.02541 -5.95 0
M  V30 2464 H 237.397 0.0559644 -0.738884 0
M  V30 2465 H 240.044 -0.562998 -1.83037 0
M  V30 2466 H 238.349 1.23469 -3.71837 0
M  V30 2467 H 240.046 0.893083 -3.90928 0
M  V30 2468 H 236.636 -0.497775 -4.257 0
M  V30 2469 H 240.82 -1.32571 -4.78266 0
M  V30 2470 H 236.076 -2.48971 -5.58411 0
M  V30 2471 H 240.25 -3.31671 -6.12346 0
M  V30 2472 H 237.877 -3.90457 -6.52264 0
M  V30 2473 N 239.452 1.56882 -0.150215 0
M  V30 2474 C 240.415 2.1573 0.774157 0
M  V30 2475 C 241.415 1.0999 1.17298 0
M  V30 2476 O 242.605 1.35613 1.09338 0
M  V30 2477 C 239.737 2.72302 2.05096 0
M  V30 2478 H 240.93 2.98752 0.262201 0
M  V30 2479 H 238.483 1.55985 0.099248 0
M  V30 2480 H 239.218 1.92956 2.6065 0
M  V30 2481 H 239.003 3.49665 1.77416 0
M  V30 2482 H 240.493 3.17632 2.71109 0
M  V30 2483 N 240.93 -0.123565 1.57115 0
M  V30 2484 C 242.176 -0.833386 1.84885 0
M  V30 2485 C 242.509 -1.79742 0.735292 0
M  V30 2486 O 241.784 -1.92764 -0.25925 0
M  V30 2487 C 242.067 -1.5873 3.23228 0
M  V30 2488 C 241.92 -0.643183 4.45178 0
M  V30 2489 C 243.239 -2.54453 3.59085 0
M  V30 2490 H 240.358 -0.301518 0.6725 0
M  V30 2491 H 243 -0.097778 1.89748 0
M  V30 2492 H 241.15 -2.21438 3.19214 0
M  V30 2493 H 242.822 -0.0253015 4.61293 0
M  V30 2494 H 241.065 0.0456139 4.33776 0
M  V30 2495 H 241.736 -1.20724 5.38637 0
M  V30 2496 H 244.212 -2.01853 3.63861 0
M  V30 2497 H 243.088 -3.04238 4.5687 0
M  V30 2498 H 243.349 -3.36906 2.86264 0
M  V30 2499 N 242.408 -1.52605 -0.393616 0
M  V30 2500 C 243.633 -1.71592 -1.16495 0
M  V30 2501 C 244.058 -0.43133 -1.83088 0
M  V30 2502 O 243.416 0.612523 -1.7064 0
M  V30 2503 C 243.464 -2.86318 -2.19213 0
M  V30 2504 O 242.568 -2.52969 -3.257 0
M  V30 2505 H 241.909 -0.570734 -0.33935 0
M  V30 2506 H 244.439 -1.99377 -0.459324 0
M  V30 2507 H 244.449 -3.1168 -2.63286 0
M  V30 2508 H 243.124 -3.79511 -1.7013 0
M  V30 2509 H 241.701 -2.38332 -2.86797 0
M  V30 2510 N 243.887 0.651787 -1.4349 0
M  V30 2511 C 245.127 1.42345 -1.46688 0
M  V30 2512 C 245.491 1.91793 -0.0891023 0
M  V30 2513 O 246.692 2.688 0.00423594 0
M  V30 2514 C 244.963 2.57221 -2.48137 0
M  V30 2515 S 246.522 3.45725 -2.70221 0
M  V30 2516 H 243.34 0.485878 -0.51908 0
M  V30 2517 H 245.942 0.756578 -1.80267 0
M  V30 2518 H 244.646 2.1917 -3.46976 0
M  V30 2519 H 244.177 3.28757 -2.16061 0
M  V30 2520 H 246.192 4.53996 -2.00255 0
M  V30 2521 N 245.365 1.30045 0.890287 0
M  V30 2522 C 246.776 1.16738 1.45702 0
M  V30 2523 C 247.127 -0.233939 1.948 0
M  V30 2524 O 246.252 -1.13021 1.84541 0
M  V30 2525 C 246.847 2.11313 2.64825 0
M  V30 2526 C 245.406 2.02001 3.17604 0
M  V30 2527 C 244.553 2.01699 1.90296 0
M  V30 2528 H 247.504 1.42392 0.700726 0
M  V30 2529 H 247.525 1.69086 3.40867 0
M  V30 2530 H 247.037 3.13294 2.2906 0
M  V30 2531 H 245.138 1.03142 3.5804 0
M  V30 2532 H 245.251 2.90128 3.81264 0
M  V30 2533 H 243.615 1.46427 2.08402 0
M  V30 2534 H 244.398 3.05402 1.56795 0
M  V30 2535 N 246.843 -1.10192 1.12674 0
M  V30 2536 C 247.773 -2.18652 0.819362 0
M  V30 2537 C 248.754 -1.68698 -0.217915 0
M  V30 2538 O 249.939 -1.94041 -0.0785581 0
M  V30 2539 C 247.069 -3.46202 0.27594 0
M  V30 2540 C 246.023 -4.09444 1.24656 0
M  V30 2541 C 245.349 -5.31725 0.563258 0
M  V30 2542 C 246.649 -4.52863 2.60217 0
M  V30 2543 H 248.343 -2.44622 1.72628 0
M  V30 2544 H 245.889 -1.17571 0.831451 0
M  V30 2545 H 247.842 -4.21372 0.0486149 0
M  V30 2546 H 246.566 -3.1973 -0.666331 0
M  V30 2547 H 245.225 -3.36284 1.45974 0
M  V30 2548 H 244.873 -5.0153 -0.384235 0
M  V30 2549 H 244.573 -5.74991 1.21075 0
M  V30 2550 H 246.097 -6.09624 0.34503 0
M  V30 2551 H 247.511 -5.19294 2.42913 0
M  V30 2552 H 245.908 -5.06986 3.21068 0
M  V30 2553 H 246.978 -3.65656 3.18471 0
M  V30 2554 N 248.321 -0.919034 -1.28029 0
M  V30 2555 C 249.251 -0.428581 -2.29533 0
M  V30 2556 C 250.232 0.50659 -1.62381 0
M  V30 2557 O 251.417 0.413195 -1.89753 0
M  V30 2558 C 248.547 0.327388 -3.45753 0
M  V30 2559 C 247.501 -0.519137 -4.2484 0
M  V30 2560 C 246.827 0.365486 -5.33449 0
M  V30 2561 C 248.127 -1.77914 -4.91064 0
M  V30 2562 H 249.821 -1.27687 -2.70807 0
M  V30 2563 H 247.367 -0.615428 -1.30186 0
M  V30 2564 H 249.32 0.681378 -4.15855 0
M  V30 2565 H 248.044 1.20963 -3.03374 0
M  V30 2566 H 246.703 -0.855717 -3.56473 0
M  V30 2567 H 246.351 1.24642 -4.87312 0
M  V30 2568 H 246.051 -0.197356 -5.87268 0
M  V30 2569 H 247.575 0.715241 -6.06396 0
M  V30 2570 H 248.989 -1.49374 -5.53498 0
M  V30 2571 H 247.386 -2.2848 -5.54903 0
M  V30 2572 H 248.456 -2.50382 -4.15255 0
M  V30 2573 N 249.799 1.42003 -0.683588 0
M  V30 2574 C 251.046 2.01413 -0.209514 0
M  V30 2575 C 251.374 1.54088 1.1869 0
M  V30 2576 O 250.629 0.737591 1.81268 0
M  V30 2577 C 250.928 3.56827 -0.202357 0
M  V30 2578 C 250.594 4.23617 -1.54464 0
M  V30 2579 C 249.256 4.41577 -1.91215 0
M  V30 2580 C 251.608 4.61178 -2.42826 0
M  V30 2581 C 248.936 4.9437 -3.15935 0
M  V30 2582 C 251.288 5.15355 -3.66867 0
M  V30 2583 C 249.952 5.31528 -4.03776 0
M  V30 2584 H 249.222 0.737023 -0.0766668 0
M  V30 2585 H 251.869 1.70067 -0.880312 0
M  V30 2586 H 250.174 3.87892 0.551969 0
M  V30 2587 H 251.871 4.00588 0.181793 0
M  V30 2588 H 248.461 4.10004 -1.24877 0
M  V30 2589 H 252.645 4.46968 -2.15717 0
M  V30 2590 H 247.901 5.05076 -3.44541 0
M  V30 2591 H 252.075 5.43402 -4.35531 0
M  V30 2592 H 249.702 5.72199 -5.00492 0
M  V30 2593 N 251.277 0.427512 1.51691 0
M  V30 2594 C 252.525 -0.141948 2.01601 0
M  V30 2595 C 252.846 -1.44067 1.31414 0
M  V30 2596 O 252.116 -1.90763 0.445658 0
M  V30 2597 H 250.696 -0.0554468 0.744939 0
M  V30 2598 H 253.358 0.567968 1.86441 0
M  V30 2599 H 252.454 -0.324913 3.10404 0
M  V30 2600 N 252.755 -1.56801 0.158532 0
M  V30 2601 C 254.002 -1.9649 -0.489679 0
M  V30 2602 C 254.33 -1.04394 -1.6411 0
M  V30 2603 O 253.585 -0.0754401 -1.95555 0
M  V30 2604 C 253.884 -3.4235 -1.02623 0
M  V30 2605 C 253.55 -4.50899 0.00794526 0
M  V30 2606 C 252.212 -4.80312 0.292207 0
M  V30 2607 C 254.564 -5.16333 0.710584 0
M  V30 2608 C 251.892 -5.72461 1.28472 0
M  V30 2609 C 254.244 -6.09553 1.69199 0
M  V30 2610 C 252.908 -6.37339 1.98383 0
M  V30 2611 H 252.178 -0.719009 -0.179186 0
M  V30 2612 H 254.825 -1.8989 0.247798 0
M  V30 2613 H 253.13 -3.45838 -1.84128 0
M  V30 2614 H 254.827 -3.70393 -1.53656 0
M  V30 2615 H 251.417 -4.28015 -0.22379 0
M  V30 2616 H 255.601 -4.93732 0.504174 0
M  V30 2617 H 250.857 -5.92278 1.51714 0
M  V30 2618 H 255.031 -6.59327 2.24189 0
M  V30 2619 H 252.658 -7.08546 2.7544 0
M  V30 2620 N 254.233 0.115231 -1.57178 0
M  V30 2621 C 255.181 1.16014 -2.01602 0
M  V30 2622 C 256.175 1.42653 -0.913587 0
M  V30 2623 O 257.381 1.42571 -1.09879 0
M  V30 2624 H 253.756 0.391252 -0.642204 0
M  V30 2625 H 255.727 0.758998 -2.88586 0
M  V30 2626 C 254.476 2.47767 -2.4394 0
M  V30 2627 H 253.799 2.28108 -3.28339 0
M  V30 2628 H 255.239 3.19432 -2.78818 0
M  V30 2629 C 253.698 3.10617 -1.30455 0
M  V30 2630 O 254.228 3.96846 -0.622585 0
M  V30 2631 N 252.434 2.70553 -1.06064 0
M  V30 2632 H 251.981 2.00527 -1.61699 0
M  V30 2633 H 251.939 3.12934 -0.303284 0
M  V30 2634 N 255.711 1.52812 0.385517 0
M  V30 2635 C 256.939 1.71907 1.15133 0
M  V30 2636 C 257.354 0.439004 1.83625 0
M  V30 2637 O 256.711 -0.586765 1.7281 0
M  V30 2638 C 256.762 2.87099 2.19673 0
M  V30 2639 O 256.483 4.10151 1.53973 0
M  V30 2640 C 257.984 3.17902 3.08955 0
M  V30 2641 H 255.204 0.575479 0.345057 0
M  V30 2642 H 257.748 1.99476 0.45052 0
M  V30 2643 H 255.903 2.61982 2.85384 0
M  V30 2644 H 256.317 4.74514 2.23465 0
M  V30 2645 H 257.791 4.01959 3.7833 0
M  V30 2646 H 258.268 2.3243 3.72657 0
M  V30 2647 H 258.874 3.44871 2.48885 0
M  V30 2648 N 257.189 -0.644168 1.43834 0
M  V30 2649 C 258.417 -1.43147 1.49387 0
M  V30 2650 C 258.832 -1.88452 0.114583 0
M  V30 2651 O 258.189 -1.60047 -0.876989 0
M  V30 2652 C 258.24 -2.66046 2.44748 0
M  V30 2653 O 257.961 -2.22633 3.77314 0
M  V30 2654 C 259.462 -3.59311 2.59635 0
M  V30 2655 H 256.682 -0.439447 0.507077 0
M  V30 2656 H 259.226 -0.78895 1.88669 0
M  V30 2657 H 257.381 -3.26418 2.08638 0
M  V30 2658 H 257.795 -3.02216 4.28679 0
M  V30 2659 H 259.269 -4.42187 3.30416 0
M  V30 2660 H 259.746 -4.07259 1.64427 0
M  V30 2661 H 260.352 -3.04816 2.96593 0
M  V30 2662 N 258.668 -1.30515 -0.883378 0
M  V30 2663 C 259.916 -1.19194 -1.63209 0
M  V30 2664 C 260.237 0.253205 -1.93349 0
M  V30 2665 O 259.507 1.17025 -1.57105 0
M  V30 2666 H 258.087 -0.438148 -0.605009 0
M  V30 2667 H 260.749 -1.63663 -1.05832 0
M  V30 2668 H 259.845 -1.75396 -2.58153 0
M  V30 2669 N 260.146 1.09593 -1.13257 0
M  V30 2670 C 261.423 1.78293 -0.804432 0
M  V30 2671 C 261.803 1.99004 0.70431 0
M  V30 2672 O 261.151 1.59007 1.641 0
M  V30 2673 C 261.361 3.10707 -1.5894 0
M  V30 2674 C 262.709 3.85443 -1.78099 0
M  V30 2675 O 263.733 3.20454 -1.55525 0
M  V30 2676 O 262.592 5.02108 -2.15753 0
M  V30 2677 H 259.686 0.773156 -0.293528 0
M  V30 2678 H 262.232 1.16164 -1.23709 0
M  V30 2679 H 261.004 2.91106 -2.61482 0
M  V30 2680 H 260.627 3.80558 -1.15157 0
M  V30 2681 N 261.624 0.925811 1.2754 0
M  V30 2682 C 263.035 0.610102 1.7645 0
M  V30 2683 C 263.386 -0.874723 1.75622 0
M  V30 2684 O 262.511 -1.68444 1.35851 0
M  V30 2685 C 263.106 1.10073 3.20421 0
M  V30 2686 C 261.665 0.835723 3.67005 0
M  V30 2687 C 260.812 1.26054 2.46993 0
M  V30 2688 H 263.763 1.10579 1.13833 0
M  V30 2689 H 263.784 0.447557 3.77859 0
M  V30 2690 H 263.296 2.18143 3.20991 0
M  V30 2691 H 261.397 -0.231249 3.71882 0
M  V30 2692 H 261.51 1.45193 4.56569 0
M  V30 2693 H 259.874 0.679111 2.45479 0
M  V30 2694 H 260.657 2.34984 2.50275 0
M  V30 2695 N 263.102 -1.41638 0.69111 0
M  V30 2696 C 264.33 -2.05628 0.22909 0
M  V30 2697 C 264.745 -1.51992 -1.11999 0
M  V30 2698 O 264.102 -0.666322 -1.69901 0
M  V30 2699 C 264.153 -3.61084 0.173283 0
M  V30 2700 O 263.874 -4.12735 1.46907 0
M  V30 2701 C 265.375 -4.42213 -0.310266 0
M  V30 2702 H 262.595 -0.662327 0.107534 0
M  V30 2703 H 265.139 -1.81489 0.942438 0
M  V30 2704 H 263.294 -3.84278 -0.490858 0
M  V30 2705 H 263.708 -5.06743 1.35322 0
M  V30 2706 H 265.182 -5.51194 -0.298196 0
M  V30 2707 H 265.659 -4.1799 -1.34838 0
M  V30 2708 H 266.265 -4.24074 0.322716 0
M  V30 2709 N 264.58 -0.43555 -1.51462 0
M  V30 2710 C 265.826 0.131709 -2.02372 0
M  V30 2711 C 266.159 1.42516 -1.3192 0
M  V30 2712 O 265.434 1.89606 -0.433573 0
M  V30 2713 C 265.717 0.352301 -3.58373 0
M  V30 2714 C 265.57 -0.959676 -4.39443 0
M  V30 2715 C 266.889 1.12286 -4.25535 0
M  V30 2716 H 264.008 0.0463936 -0.735538 0
M  V30 2717 H 266.65 -0.574197 -1.81116 0
M  V30 2718 H 264.8 0.9536 -3.76615 0
M  V30 2719 H 266.472 -1.59482 -4.32855 0
M  V30 2720 H 264.715 -1.56468 -4.04599 0
M  V30 2721 H 265.386 -0.759394 -5.46752 0
M  V30 2722 H 267.862 0.613545 -4.11552 0
M  V30 2723 H 266.738 1.24598 -5.34571 0
M  V30 2724 H 266.999 2.15048 -3.86273 0
M  V30 2725 N 266.058 1.56714 -0.166846 0
M  V30 2726 C 267.298 1.98641 0.481763 0
M  V30 2727 C 267.662 1.05038 1.6072 0
M  V30 2728 O 268.863 1.36087 2.31805 0
M  V30 2729 C 267.134 3.44362 0.956517 0
M  V30 2730 S 268.693 4.08317 1.60694 0
M  V30 2731 H 265.511 0.693873 0.155116 0
M  V30 2732 H 268.113 1.93719 -0.263251 0
M  V30 2733 H 266.817 4.10204 0.126936 0
M  V30 2734 H 266.348 3.53041 1.73568 0
M  V30 2735 H 268.363 4.02999 2.89494 0
M  V30 2736 N 267.536 -0.106894 1.57237 0
M  V30 2737 C 268.761 -0.830287 1.90055 0
M  V30 2738 C 269.186 -1.72064 0.75998 0
M  V30 2739 O 268.544 -1.78982 -0.288991 0
M  V30 2740 C 268.592 -1.6295 3.21683 0
M  V30 2741 O 267.696 -2.73748 3.08441 0
M  V30 2742 H 267.037 -0.228855 0.623315 0
M  V30 2743 H 269.567 -0.085658 2.04421 0
M  V30 2744 H 269.577 -2.01621 3.54701 0
M  V30 2745 H 268.252 -0.975989 4.04286 0
M  V30 2746 H 266.829 -2.38192 2.86913 0
M  V30 2747 N 269.014 -1.53014 -0.377408 0
M  V30 2748 C 270.263 -1.67845 -1.11853 0
M  V30 2749 C 270.576 -0.430625 -1.90801 0
M  V30 2750 O 271.782 -0.459261 -2.67587 0
M  V30 2751 C 270.238 -2.96668 -2.03756 0
M  V30 2752 C 269.846 -4.28671 -1.30175 0
M  V30 2753 C 271.59 -3.20865 -2.77932 0
M  V30 2754 C 269.497 -5.48591 -2.20911 0
M  V30 2755 H 268.427 -0.625343 -0.421263 0
M  V30 2756 H 271.078 -1.79514 -0.380409 0
M  V30 2757 H 269.46 -2.78773 -2.8125 0
M  V30 2758 H 270.634 -4.57157 -0.578259 0
M  V30 2759 H 268.949 -4.10825 -0.679108 0
M  V30 2760 H 271.546 -4.07642 -3.46024 0
M  V30 2761 H 271.889 -2.36424 -3.4265 0
M  V30 2762 H 272.422 -3.39379 -2.07525 0
M  V30 2763 H 269.161 -6.35474 -1.6079 0
M  V30 2764 H 268.681 -5.244 -2.91144 0
M  V30 2765 H 270.36 -5.8292 -2.80736 0
M  V30 2766 N 270.492 0.636531 -1.44174 0
M  V30 2767 C 271.717 1.42847 -1.50364 0
M  V30 2768 C 272.142 1.87665 -0.127867 0
M  V30 2769 O 271.5 1.58408 0.88185 0
M  V30 2770 C 271.548 2.62854 -2.4686 0
M  V30 2771 O 270.652 3.62501 -1.9664 0
M  V30 2772 H 269.993 0.427642 -0.507955 0
M  V30 2773 H 272.523 0.777422 -1.89255 0
M  V30 2774 H 272.533 3.10465 -2.64718 0
M  V30 2775 H 271.208 2.29578 -3.46795 0
M  V30 2776 H 269.785 3.21735 -1.88523 0
M  V30 2777 N 271.97 1.30982 0.876444 0
M  V30 2778 C 272.918 1.18006 2.00443 0
M  V30 2779 C 273.912 0.0898871 1.69161 0
M  V30 2780 O 275.118 0.251333 1.78237 0
M  V30 2781 H 271.493 0.365196 0.65737 0
M  V30 2782 H 273.464 2.13453 2.0852 0
M  V30 2783 C 272.213 0.897521 3.35916 0
M  V30 2784 H 271.536 1.7285 3.60504 0
M  V30 2785 H 272.976 0.846874 4.15456 0
M  V30 2786 C 271.435 -0.399674 3.34521 0
M  V30 2787 O 271.965 -1.41852 3.7582 0
M  V30 2788 N 270.171 -0.413893 2.87637 0
M  V30 2789 H 269.718 0.41571 2.54224 0
M  V30 2790 H 269.676 -1.28175 2.87086 0
M  V30 2791 N 273.449 -1.08991 1.13837 0
M  V30 2792 C 274.86 -1.62746 0.914917 0
M  V30 2793 C 275.211 -1.88403 -0.547594 0
M  V30 2794 O 274.336 -1.63706 -1.41525 0
M  V30 2795 C 274.931 -2.95662 1.65437 0
M  V30 2796 C 273.49 -3.46225 1.47666 0
M  V30 2797 C 272.637 -2.20562 1.6807 0
M  V30 2798 H 275.588 -0.922946 1.29102 0
M  V30 2799 H 275.609 -3.63825 1.11407 0
M  V30 2800 H 275.121 -2.76956 2.71877 0
M  V30 2801 H 273.222 -3.70046 0.435478 0
M  V30 2802 H 273.335 -4.23368 2.24268 0
M  V30 2803 H 271.699 -2.29439 1.10589 0
M  V30 2804 H 272.482 -2.0437 2.7584 0
M  V30 2805 N 274.927 -0.932562 -1.27047 0
M  V30 2806 C 276.204 -0.49377 -1.89265 0
M  V30 2807 C 276.584 1.02833 -1.8436 0
M  V30 2808 O 275.932 1.88461 -1.29209 0
M  V30 2809 C 276.142 -1.04536 -3.32976 0
M  V30 2810 C 277.49 -1.10879 -4.09867 0
M  V30 2811 O 278.514 -0.995327 -3.42011 0
M  V30 2812 O 277.373 -1.28417 -5.31198 0
M  V30 2813 H 274.467 -0.159596 -0.811454 0
M  V30 2814 H 277.013 -1.02457 -1.3528 0
M  V30 2815 H 275.785 -2.08913 -3.30864 0
M  V30 2816 H 275.408 -0.496494 -3.94488 0
M  V30 2817 N 276.405 1.4127 -0.698611 0
M  V30 2818 C 277.652 2.0118 -0.230865 0
M  V30 2819 C 277.98 1.55338 1.17049 0
M  V30 2820 O 277.235 0.756775 1.80475 0
M  V30 2821 C 277.534 3.56592 -0.240192 0
M  V30 2822 C 277.2 4.21955 -1.58948 0
M  V30 2823 C 275.862 4.39524 -1.95887 0
M  V30 2824 C 278.214 4.58576 -2.47704 0
M  V30 2825 C 275.542 4.90992 -3.2116 0
M  V30 2826 C 277.894 5.11435 -3.72313 0
M  V30 2827 C 276.558 5.27215 -4.0939 0
M  V30 2828 H 275.828 0.736169 -0.0844796 0
M  V30 2829 H 278.475 1.69124 -0.8983 0
M  V30 2830 H 276.78 3.88456 0.510797 0
M  V30 2831 H 278.477 4.00758 0.139296 0
M  V30 2832 H 275.067 4.08657 -1.29219 0
M  V30 2833 H 279.251 4.44654 -2.20445 0
M  V30 2834 H 274.507 5.01393 -3.49878 0
M  V30 2835 H 278.681 5.38752 -4.4127 0
M  V30 2836 H 276.308 5.66859 -5.06533 0
M  V30 2837 N 277.883 0.443576 1.51229 0
M  V30 2838 C 279.129 -0.120975 2.02439 0
M  V30 2839 C 279.462 -1.41815 1.32674 0
M  V30 2840 O 278.737 -1.89373 0.443622 0
M  V30 2841 C 279.02 -0.333291 3.58554 0
M  V30 2842 C 278.873 0.982968 4.38928 0
M  V30 2843 C 280.192 -1.10028 4.26124 0
M  V30 2844 H 277.311 -0.0424923 0.735774 0
M  V30 2845 H 279.953 0.583794 1.80809 0
M  V30 2846 H 278.103 -0.933614 3.77115 0
M  V30 2847 H 279.775 1.61775 4.32003 0
M  V30 2848 H 278.018 1.58611 4.03763 0
M  V30 2849 H 278.689 0.788379 5.46341 0
M  V30 2850 H 281.165 -0.591711 4.11871 0
M  V30 2851 H 280.041 -1.21761 5.35225 0
M  V30 2852 H 280.302 -2.12996 3.87408 0
M  V30 2853 N 279.361 -1.56624 0.175154 0
M  V30 2854 C 280.61 -1.96173 -0.468921 0
M  V30 2855 C 280.923 -1.06401 -1.64128 0
M  V30 2856 O 282.129 -1.35648 -2.35185 0
M  V30 2857 C 280.585 -3.48833 -0.885633 0
M  V30 2858 C 280.193 -4.47237 0.261343 0
M  V30 2859 C 281.937 -3.97194 -1.49791 0
M  V30 2860 C 279.844 -5.9114 -0.175214 0
M  V30 2861 H 278.774 -0.732455 -0.178958 0
M  V30 2862 H 281.425 -1.81591 0.263997 0
M  V30 2863 H 279.807 -3.58848 -1.67464 0
M  V30 2864 H 280.981 -4.4894 1.03871 0
M  V30 2865 H 279.296 -4.08956 0.783827 0
M  V30 2866 H 281.893 -5.02167 -1.83665 0
M  V30 2867 H 282.236 -3.40351 -2.39722 0
M  V30 2868 H 282.769 -3.90212 -0.773267 0
M  V30 2869 H 279.508 -6.51865 0.689414 0
M  V30 2870 H 279.028 -5.92735 -0.91786 0
M  V30 2871 H 280.707 -6.44044 -0.617792 0
M  V30 2872 N 280.839 0.0985539 -1.57292 0
M  V30 2873 C 282.069 0.815135 -1.8984 0
M  V30 2874 C 282.477 1.7297 -0.766679 0
M  V30 2875 O 281.82 1.81698 0.270483 0
M  V30 2876 C 281.882 1.6842 -3.17608 0
M  V30 2877 C 281.546 0.94182 -4.4719 0
M  V30 2878 C 282.543 0.273212 -5.19182 0
M  V30 2879 C 280.228 0.916927 -4.9386 0
M  V30 2880 C 282.222 -0.410361 -6.36078 0
M  V30 2881 C 279.909 0.229567 -6.10669 0
M  V30 2882 C 280.907 -0.432902 -6.81627 0
M  V30 2883 O 280.595 -1.10925 -7.9621 0
M  V30 2884 H 280.327 0.238501 -0.632529 0
M  V30 2885 H 282.881 0.0812659 -2.05239 0
M  V30 2886 H 281.111 2.46022 -2.98345 0
M  V30 2887 H 282.8 2.27704 -3.36015 0
M  V30 2888 H 283.566 0.283927 -4.84168 0
M  V30 2889 H 279.445 1.42201 -4.3852 0
M  V30 2890 H 282.989 -0.928013 -6.914 0
M  V30 2891 H 278.886 0.216686 -6.45136 0
M  V30 2892 H 279.654 -1.01579 -8.12172 0
M  V30 2893 N 282.317 1.53212 0.369288 0
M  V30 2894 C 283.542 1.73423 1.1375 0
M  V30 2895 C 283.967 0.460404 1.82378 0
M  V30 2896 O 283.325 -0.585298 1.71592 0
M  V30 2897 C 283.373 2.89769 2.1463 0
M  V30 2898 O 282.477 2.58119 3.21634 0
M  V30 2899 H 281.818 0.576061 0.330227 0
M  V30 2900 H 284.348 2.00083 0.427547 0
M  V30 2901 H 284.358 3.15829 2.58294 0
M  V30 2902 H 283.033 3.8217 1.64071 0
M  V30 2903 H 281.61 2.42864 2.82969 0
M  V30 2904 N 283.795 -0.628877 1.44509 0
M  V30 2905 C 285.02 -1.42048 1.5112 0
M  V30 2906 C 285.445 -1.87594 0.137818 0
M  V30 2907 O 284.803 -1.58873 -0.873437 0
M  V30 2908 C 284.851 -2.61541 2.48251 0
M  V30 2909 O 283.955 -3.61453 1.98559 0
M  V30 2910 H 283.296 -0.424942 0.510216 0
M  V30 2911 H 285.826 -0.767374 1.89664 0
M  V30 2912 H 285.836 -3.09057 2.66361 0
M  V30 2913 H 284.511 -2.27736 3.48007 0
M  V30 2914 H 283.088 -3.20731 1.90227 0
M  V30 2915 N 285.273 -1.31445 -0.869486 0
M  V30 2916 C 286.519 -1.21337 -1.62496 0
M  V30 2917 C 286.852 0.227872 -1.92858 0
M  V30 2918 O 286.127 1.16094 -1.56053 0
M  V30 2919 C 286.41 -2.05814 -2.95487 0
M  V30 2920 C 286.263 -3.5824 -2.72 0
M  V30 2921 C 287.582 -1.9079 -3.96594 0
M  V30 2922 H 284.701 -0.442135 -0.589649 0
M  V30 2923 H 287.343 -1.6124 -1.00507 0
M  V30 2924 H 285.493 -1.71913 -3.48394 0
M  V30 2925 H 287.165 -4.0228 -2.25762 0
M  V30 2926 H 285.408 -3.81647 -2.06224 0
M  V30 2927 H 286.079 -4.12657 -3.66631 0
M  V30 2928 H 288.555 -2.20459 -3.52898 0
M  V30 2929 H 287.431 -2.52199 -4.87531 0
M  V30 2930 H 287.692 -0.871341 -4.33428 0
M  V30 2931 N 286.751 1.08385 -1.14413 0
M  V30 2932 C 287.997 1.81044 -0.913834 0
M  V30 2933 C 288.33 1.86004 0.558209 0
M  V30 2934 O 287.605 1.33606 1.4135 0
M  V30 2935 C 287.888 3.26648 -1.51569 0
M  V30 2936 C 287.741 3.29895 -3.0576 0
M  V30 2937 C 289.06 4.23629 -1.19273 0
M  V30 2938 H 286.179 0.65727 -0.333414 0
M  V30 2939 H 288.821 1.26896 -1.41412 0
M  V30 2940 H 286.971 3.72889 -1.09023 0
M  V30 2941 H 288.643 2.91977 -3.57137 0
M  V30 2942 H 286.886 2.69163 -3.40197 0
M  V30 2943 H 287.557 4.32516 -3.42977 0
M  V30 2944 H 290.033 3.85727 -1.56057 0
M  V30 2945 H 288.909 5.23822 -1.64017 0
M  V30 2946 H 289.17 4.41968 -0.108068 0
M  V30 2947 N 288.23 0.939286 1.26551 0
M  V30 2948 C 289.455 0.602008 1.98471 0
M  V30 2949 C 289.88 -0.815624 1.69497 0
M  V30 2950 O 289.238 -1.54912 0.941905 0
M  V30 2951 C 289.286 0.848407 3.50477 0
M  V30 2952 O 288.39 -0.0804009 4.12322 0
M  V30 2953 H 287.731 0.23049 0.622712 0
M  V30 2954 H 290.261 1.2617 1.61066 0
M  V30 2955 H 290.271 0.768553 4.00696 0
M  V30 2956 H 288.946 1.88171 3.70897 0
M  V30 2957 H 287.523 0.0503508 3.72866 0
M  V30 2958 N 289.708 -1.40897 0.706093 0
M  V30 2959 C 290.955 -2.01054 0.241531 0
M  V30 2960 C 291.283 -1.55956 -1.16223 0
M  V30 2961 O 290.538 -0.766336 -1.80072 0
M  V30 2962 C 290.837 -3.5646 0.259099 0
M  V30 2963 C 290.503 -4.21106 1.61184 0
M  V30 2964 C 289.165 -4.38479 1.98216 0
M  V30 2965 C 291.517 -4.57256 2.50132 0
M  V30 2966 C 288.845 -4.89282 3.2376 0
M  V30 2967 C 291.197 -5.09454 3.7502 0
M  V30 2968 C 289.861 -5.25037 4.12181 0
M  V30 2969 H 289.131 -0.73571 0.0883825 0
M  V30 2970 H 291.778 -1.68645 0.907257 0
M  V30 2971 H 290.083 -3.88721 -0.490189 0
M  V30 2972 H 291.78 -4.00826 -0.11804 0
M  V30 2973 H 288.37 -4.07966 1.31384 0
M  V30 2974 H 292.554 -4.43479 2.228 0
M  V30 2975 H 287.81 -4.99531 3.52532 0
M  V30 2976 H 291.984 -5.36404 4.44121 0
M  V30 2977 H 289.611 -5.64164 5.09532 0
M  V30 2978 N 291.186 -0.45159 -1.50991 0
M  V30 2979 C 292.416 0.108177 -2.06317 0
M  V30 2980 C 292.824 1.35774 -1.31765 0
M  V30 2981 O 292.167 1.79838 -0.374694 0
M  V30 2982 C 292.229 0.481659 -3.56259 0
M  V30 2983 C 291.893 -0.663114 -4.52163 0
M  V30 2984 C 292.89 -1.53947 -4.96585 0
M  V30 2985 C 290.575 -0.8479 -4.95092 0
M  V30 2986 C 292.569 -2.58518 -5.82621 0
M  V30 2987 C 290.256 -1.89686 -5.80915 0
M  V30 2988 C 291.254 -2.76388 -6.24579 0
M  V30 2989 O 290.942 -3.79482 -7.08695 0
M  V30 2990 H 290.674 0.00499183 -0.675982 0
M  V30 2991 H 293.228 -0.633659 -1.95381 0
M  V30 2992 H 291.458 1.27641 -3.65027 0
M  V30 2993 H 293.147 0.974233 -3.94035 0
M  V30 2994 H 293.913 -1.4083 -4.64103 0
M  V30 2995 H 289.792 -0.18258 -4.60638 0
M  V30 2996 H 293.336 -3.26224 -6.16623 0
M  V30 2997 H 289.233 -2.02817 -6.12809 0
M  V30 2998 H 290.001 -3.76234 -7.26905 0
M  V30 2999 N 292.664 1.56529 -0.183458 0
M  V30 3000 C 293.594 2.21549 0.737456 0
M  V30 3001 C 294.575 1.17489 1.23005 0
M  V30 3002 O 295.76 1.45959 1.281 0
M  V30 3003 C 292.89 2.86575 1.96194 0
M  V30 3004 C 291.844 3.96778 1.60473 0
M  V30 3005 C 291.17 4.48911 2.90487 0
M  V30 3006 C 292.47 5.15767 0.823497 0
M  V30 3007 H 294.164 2.98761 0.195453 0
M  V30 3008 H 291.71 1.43702 0.0925686 0
M  V30 3009 H 293.663 3.30739 2.61131 0
M  V30 3010 H 292.387 2.06749 2.52828 0
M  V30 3011 H 291.046 3.53286 0.978997 0
M  V30 3012 H 290.694 3.65862 3.45186 0
M  V30 3013 H 290.394 5.23265 2.67335 0
M  V30 3014 H 291.918 4.95771 3.56432 0
M  V30 3015 H 293.332 5.56549 1.37571 0
M  V30 3016 H 291.729 5.96114 0.690551 0
M  V30 3017 H 292.799 4.84574 -0.177782 0
M  V30 3018 N 294.142 -0.090211 1.57342 0
M  V30 3019 C 295.553 -0.644173 1.75235 0
M  V30 3020 C 295.904 -1.78865 0.806335 0
M  V30 3021 O 295.029 -2.16395 -0.0140128 0
M  V30 3022 C 295.624 -1.17532 3.1776 0
M  V30 3023 C 294.183 -1.67531 3.37061 0
M  V30 3024 C 293.33 -0.58693 2.71017 0
M  V30 3025 H 296.281 0.135884 1.58117 0
M  V30 3026 H 296.302 -2.04455 3.20902 0
M  V30 3027 H 295.814 -0.342138 3.86589 0
M  V30 3028 H 293.915 -2.53234 2.73319 0
M  V30 3029 H 294.028 -1.76493 4.45406 0
M  V30 3030 H 292.392 -1.02756 2.33052 0
M  V30 3031 H 293.175 0.235758 3.4249 0
M  V30 3032 N 295.62 -1.53406 -0.361157 0
M  V30 3033 C 296.867 -1.69802 -1.10333 0
M  V30 3034 C 297.195 -0.452087 -1.89173 0
M  V30 3035 O 296.45 0.566017 -1.87336 0
M  V30 3036 C 296.749 -2.90211 -2.08596 0
M  V30 3037 C 296.415 -4.26539 -1.46203 0
M  V30 3038 C 295.077 -4.6361 -1.28915 0
M  V30 3039 C 297.429 -5.113 -1.01101 0
M  V30 3040 C 294.757 -5.83075 -0.651157 0
M  V30 3041 C 297.109 -6.31415 -0.387007 0
M  V30 3042 C 295.773 -6.67195 -0.201657 0
M  V30 3043 H 295.043 -0.621351 -0.403737 0
M  V30 3044 H 297.69 -1.87598 -0.384609 0
M  V30 3045 H 295.995 -2.66946 -2.86788 0
M  V30 3046 H 297.692 -3.00091 -2.65982 0
M  V30 3047 H 294.282 -3.97352 -1.60653 0
M  V30 3048 H 298.466 -4.83206 -1.13249 0
M  V30 3049 H 293.722 -6.09385 -0.496006 0
M  V30 3050 H 297.896 -6.96394 -0.0293563 0
M  V30 3051 H 295.523 -7.59628 0.294766 0
M  V30 3052 N 297.098 0.621204 -1.44841 0
M  V30 3053 C 298.346 1.37783 -1.47852 0
M  V30 3054 C 298.667 1.94653 -0.116224 0
M  V30 3055 O 297.937 1.76367 0.852737 0
M  V30 3056 H 296.517 0.511453 -0.544449 0
M  V30 3057 H 299.179 0.730446 -1.80694 0
M  V30 3058 H 298.275 2.20414 -2.20961 0
M  V30 3059 N 298.576 1.31904 0.862503 0
M  V30 3060 C 299.822 1.22197 1.61851 0
M  V30 3061 C 300.155 -0.217641 1.92977 0
M  V30 3062 O 299.43 -1.15264 1.56666 0
M  V30 3063 C 299.713 2.07378 2.94391 0
M  V30 3064 C 299.566 3.59678 2.70096 0
M  V30 3065 C 300.885 1.92891 3.95577 0
M  V30 3066 H 298.004 0.445255 0.587296 0
M  V30 3067 H 300.646 1.6177 0.99651 0
M  V30 3068 H 298.796 1.73758 3.47477 0
M  V30 3069 H 300.468 4.03472 2.23625 0
M  V30 3070 H 298.711 3.82735 2.04197 0
M  V30 3071 H 299.382 4.14595 3.64438 0
M  V30 3072 H 301.858 2.22327 3.51724 0
M  V30 3073 H 300.734 2.54781 4.86187 0
M  V30 3074 H 300.995 0.894315 4.3296 0
M  V30 3075 N 300.054 -1.07777 1.14986 0
M  V30 3076 C 301.282 -1.84018 0.945773 0
M  V30 3077 C 301.697 -1.81897 -0.505863 0
M  V30 3078 O 301.054 -1.22726 -1.35072 0
M  V30 3079 C 301.105 -3.31287 1.44677 0
M  V30 3080 O 300.826 -3.33449 2.84154 0
M  V30 3081 C 302.327 -4.24311 1.28355 0
M  V30 3082 H 299.547 -0.580716 0.336169 0
M  V30 3083 H 302.091 -1.36077 1.52654 0
M  V30 3084 H 300.246 -3.76594 0.908625 0
M  V30 3085 H 300.66 -4.25427 3.06777 0
M  V30 3086 H 302.134 -5.2573 1.68261 0
M  V30 3087 H 302.611 -4.38612 0.227184 0
M  V30 3088 H 303.217 -3.84836 1.81056 0
M  V30 3089 N 301.532 -0.945985 -1.26051 0
M  V30 3090 C 302.778 -0.597002 -1.93814 0
M  V30 3091 C 303.111 0.862484 -1.73997 0
M  V30 3092 O 302.386 1.61769 -1.07986 0
M  V30 3093 C 302.669 -0.945937 -3.47454 0
M  V30 3094 C 302.522 -2.46052 -3.76535 0
M  V30 3095 C 303.841 -0.464785 -4.37639 0
M  V30 3096 H 300.96 -0.218366 -0.703907 0
M  V30 3097 H 303.602 -1.18107 -1.48831 0
M  V30 3098 H 301.752 -0.448902 -3.85898 0
M  V30 3099 H 303.424 -3.03065 -3.47778 0
M  V30 3100 H 301.667 -2.90194 -3.22444 0
M  V30 3101 H 302.338 -2.65517 -4.83947 0
M  V30 3102 H 304.814 -0.891016 -4.06448 0
M  V30 3103 H 303.69 -0.737712 -5.4392 0
M  V30 3104 H 303.951 0.635274 -4.37512 0
M  V30 3105 N 303.011 1.40521 -0.713556 0
M  V30 3106 C 303.941 2.33381 -0.0743864 0
M  V30 3107 C 304.922 1.52784 0.747735 0
M  V30 3108 O 306.107 1.81258 0.697071 0
M  V30 3109 C 303.237 3.36748 0.849598 0
M  V30 3110 C 302.191 4.27793 0.133247 0
M  V30 3111 C 301.517 5.21679 1.17281 0
M  V30 3112 C 302.817 5.12415 -1.01134 0
M  V30 3113 H 304.511 2.87081 -0.850007 0
M  V30 3114 H 302.057 1.38034 -0.410201 0
M  V30 3115 H 304.01 4.00648 1.30612 0
M  V30 3116 H 302.734 2.81439 1.65709 0
M  V30 3117 H 301.393 3.65342 -0.303426 0
M  V30 3118 H 301.041 4.62677 1.9733 0
M  V30 3119 H 300.741 5.83435 0.698397 0
M  V30 3120 H 302.265 5.88456 1.62947 0
M  V30 3121 H 303.679 5.69781 -0.634274 0
M  V30 3122 H 302.076 5.83203 -1.41399 0
M  V30 3123 H 303.146 4.48514 -1.84292 0
M  V30 3124 N 304.489 0.459591 1.5075 0
M  V30 3125 C 305.735 -0.0994966 2.02556 0
M  V30 3126 C 306.068 -1.40399 1.3417 0
M  V30 3127 O 305.343 -1.88892 0.463683 0
M  V30 3128 C 305.626 -0.295242 3.58888 0
M  V30 3129 C 305.479 1.02947 4.37861 0
M  V30 3130 C 306.798 -1.05502 4.27267 0
M  V30 3131 H 303.917 -0.034686 0.736183 0
M  V30 3132 H 306.559 0.602938 1.8018 0
M  V30 3133 H 304.709 -0.893563 3.78084 0
M  V30 3134 H 306.381 1.66348 4.30263 0
M  V30 3135 H 304.624 1.62885 4.02058 0
M  V30 3136 H 305.295 0.846281 5.45474 0
M  V30 3137 H 307.771 -0.547993 4.12476 0
M  V30 3138 H 306.647 -1.16077 5.36486 0
M  V30 3139 H 306.908 -2.08875 3.89645 0
M  V30 3140 N 305.967 -1.56429 0.191757 0
M  V30 3141 C 307.197 -2.01574 -0.452928 0
M  V30 3142 C 307.605 -1.07107 -1.55964 0
M  V30 3143 O 306.948 -0.067534 -1.83576 0
M  V30 3144 C 307.01 -3.43121 -1.07278 0
M  V30 3145 C 306.674 -4.56879 -0.105214 0
M  V30 3146 C 307.671 -5.15379 0.684149 0
M  V30 3147 C 305.356 -5.023 0.00489824 0
M  V30 3148 C 307.35 -6.17746 1.57062 0
M  V30 3149 C 305.037 -6.04511 0.894935 0
M  V30 3150 C 306.035 -6.62108 1.67637 0
M  V30 3151 O 305.723 -7.62335 2.55149 0
M  V30 3152 H 305.455 -0.665554 -0.118379 0
M  V30 3153 H 308.009 -2.03245 0.296737 0
M  V30 3154 H 306.239 -3.38425 -1.87097 0
M  V30 3155 H 307.928 -3.72093 -1.62177 0
M  V30 3156 H 308.694 -4.81157 0.609365 0
M  V30 3157 H 304.573 -4.57168 -0.593156 0
M  V30 3158 H 308.117 -6.6263 2.181 0
M  V30 3159 H 304.014 -6.38157 0.970847 0
M  V30 3160 H 304.782 -7.79741 2.48892 0
M  V30 3161 N 307.445 0.0818655 -1.57387 0
M  V30 3162 C 308.408 1.08265 -2.02018 0
M  V30 3163 C 309.408 1.32183 -0.915664 0
M  V30 3164 O 310.598 1.28073 -1.18081 0
M  V30 3165 C 307.73 2.42871 -2.39221 0
M  V30 3166 H 308.923 0.698204 -2.91659 0
M  V30 3167 H 306.476 0.327303 -1.52835 0
M  V30 3168 H 307.211 2.86167 -1.52575 0
M  V30 3169 H 306.996 2.26855 -3.19811 0
M  V30 3170 H 308.486 3.14826 -2.74362 0
M  V30 3171 N 308.923 1.53595 0.353017 0
M  V30 3172 C 310.339 1.43648 0.695516 0
M  V30 3173 C 310.539 0.585617 1.92802 0
M  V30 3174 O 309.595 0.0729223 2.52395 0
M  V30 3175 C 310.908 2.8701 0.896991 0
M  V30 3176 C 312.456 2.96723 0.996209 0
M  V30 3177 C 312.931 4.41173 1.23007 0
M  V30 3178 N 314.422 4.44657 1.29749 0
M  V30 3179 C 315.157 5.53547 1.49577 0
M  V30 3180 N 314.653 6.72461 1.66639 0
M  V30 3181 N 316.446 5.41145 1.52048 0
M  V30 3182 H 308.597 2.07415 -0.457481 0
M  V30 3183 H 310.86 0.9372 -0.142687 0
M  V30 3184 H 310.566 3.51644 0.0629938 0
M  V30 3185 H 310.44 3.31401 1.80148 0
M  V30 3186 H 312.827 2.32235 1.82074 0
M  V30 3187 H 312.908 2.55707 0.0688331 0
M  V30 3188 H 312.552 5.06238 0.410505 0
M  V30 3189 H 312.482 4.79772 2.17086 0
M  V30 3190 H 314.973 3.58963 1.18126 0
M  V30 3191 H 315.286 7.51214 1.81378 0
M  V30 3192 H 313.631 6.75423 1.63794 0
M  V30 3193 H 316.822 4.47205 1.38294 0
M  V30 3194 H 316.995 6.26068 1.67159 0
M  V30 3195 N 310.401 -0.613514 1.45168 0
M  V30 3196 C 311.65 -1.36874 1.4815 0
M  V30 3197 C 311.963 -1.952 0.124982 0
M  V30 3198 O 313.169 -2.71481 0.0324176 0
M  V30 3199 C 311.625 -2.47905 2.60904 0
M  V30 3200 C 311.233 -1.96016 4.02842 0
M  V30 3201 C 312.977 -3.24965 2.73126 0
M  V30 3202 C 310.884 -3.04494 5.06988 0
M  V30 3203 H 309.814 -0.514428 0.551253 0
M  V30 3204 H 312.465 -0.658182 1.7129 0
M  V30 3205 H 310.847 -3.21618 2.31037 0
M  V30 3206 H 312.021 -1.29051 4.4236 0
M  V30 3207 H 310.336 -1.31719 3.95018 0
M  V30 3208 H 312.933 -4.05865 3.48106 0
M  V30 3209 H 313.276 -3.75588 1.79553 0
M  V30 3210 H 313.809 -2.5835 3.0249 0
M  V30 3211 H 310.548 -2.58795 6.0225 0
M  V30 3212 H 310.068 -3.70044 4.72046 0
M  V30 3213 H 311.747 -3.68976 5.31475 0
M  V30 3214 N 311.879 -1.3236 -0.855495 0
M  V30 3215 C 313.109 -1.25688 -1.6397 0
M  V30 3216 C 313.517 0.177592 -1.88365 0
M  V30 3217 O 312.86 1.12485 -1.45234 0
M  V30 3218 C 312.922 -1.94602 -3.02275 0
M  V30 3219 C 312.586 -3.43937 -3.00926 0
M  V30 3220 C 313.583 -4.39435 -2.77835 0
M  V30 3221 C 311.268 -3.85858 -3.21588 0
M  V30 3222 C 313.262 -5.74829 -2.75409 0
M  V30 3223 C 310.949 -5.21361 -3.18789 0
M  V30 3224 C 311.947 -6.15658 -2.95727 0
M  V30 3225 O 311.635 -7.48681 -2.928 0
M  V30 3226 H 311.367 -0.434972 -0.51747 0
M  V30 3227 H 313.921 -1.75023 -1.075 0
M  V30 3228 H 312.151 -1.39836 -3.60531 0
M  V30 3229 H 313.84 -1.81651 -3.62985 0
M  V30 3230 H 314.606 -4.08374 -2.6164 0
M  V30 3231 H 310.485 -3.12883 -3.38564 0
M  V30 3232 H 314.029 -6.48404 -2.57328 0
M  V30 3233 H 309.926 -5.52052 -3.34528 0
M  V30 3234 H 310.694 -7.5803 -3.0876 0
M  V30 3235 N 313.357 1.07166 -1.15556 0
M  V30 3236 C 314.603 1.80065 -0.932984 0
M  V30 3237 C 314.936 1.86586 0.53845 0
M  V30 3238 O 314.211 1.35098 1.39924 0
M  V30 3239 C 314.494 3.25022 -1.55025 0
M  V30 3240 C 314.347 3.26634 -3.09242 0
M  V30 3241 C 315.666 4.22341 -1.2376 0
M  V30 3242 H 312.785 0.653697 -0.340366 0
M  V30 3243 H 315.427 1.25389 -1.4275 0
M  V30 3244 H 313.577 3.71712 -1.12972 0
M  V30 3245 H 315.249 2.88173 -3.60214 0
M  V30 3246 H 313.492 2.65539 -3.43033 0
M  V30 3247 H 314.163 4.28854 -3.47546 0
M  V30 3248 H 316.639 3.8405 -1.60139 0
M  V30 3249 H 315.515 5.22053 -1.69564 0
M  V30 3250 H 315.776 4.41828 -0.154938 0
M  V30 3251 N 314.835 0.952656 1.25548 0
M  V30 3252 C 316.081 0.607272 1.93494 0
M  V30 3253 C 316.414 -0.853245 1.74452 0
M  V30 3254 O 315.689 -1.61194 1.08843 0
M  V30 3255 C 315.972 0.96435 3.46947 0
M  V30 3256 C 315.825 2.48045 3.75225 0
M  V30 3257 C 317.144 0.487987 4.37386 0
M  V30 3258 H 314.263 0.222096 0.702739 0
M  V30 3259 H 316.905 1.18895 1.48203 0
M  V30 3260 H 315.055 0.469361 3.85654 0
M  V30 3261 H 316.727 3.04905 3.46166 0
M  V30 3262 H 314.97 2.919 3.209 0
M  V30 3263 H 315.641 2.6808 4.82532 0
M  V30 3264 H 318.117 0.912558 4.0597 0
M  V30 3265 H 316.993 0.766547 5.43521 0
M  V30 3266 H 317.254 -0.612063 4.37843 0
M  V30 3267 N 316.313 -1.40141 0.720998 0
M  V30 3268 C 317.243 -2.33339 0.0867621 0
M  V30 3269 C 318.224 -1.53178 -0.739622 0
M  V30 3270 O 319.409 -1.81625 -0.687449 0
M  V30 3271 C 316.539 -3.37194 -0.831728 0
M  V30 3272 C 315.493 -4.27857 -0.110558 0
M  V30 3273 C 314.819 -5.22294 -1.14513 0
M  V30 3274 C 316.119 -5.11872 1.0385 0
M  V30 3275 H 317.813 -2.86626 0.865219 0
M  V30 3276 H 315.359 -1.37814 0.417516 0
M  V30 3277 H 317.312 -4.01335 -1.28485 0
M  V30 3278 H 316.036 -2.82314 -1.64214 0
M  V30 3279 H 314.695 -3.65176 0.322797 0
M  V30 3280 H 314.343 -4.63717 -1.94874 0
M  V30 3281 H 314.043 -5.83797 -0.667446 0
M  V30 3282 H 315.567 -5.89312 -1.59824 0
M  V30 3283 H 316.981 -5.69436 0.664482 0
M  V30 3284 H 315.378 -5.82445 1.4449 0
M  V30 3285 H 316.448 -4.4753 1.86668 0
M  V30 3286 N 317.792 -0.46758 -1.50504 0
M  V30 3287 C 318.739 0.328413 -2.28452 0
M  V30 3288 C 319.709 0.990313 -1.33349 0
M  V30 3289 O 320.894 1.00343 -1.62284 0
M  V30 3290 C 318.034 1.40648 -3.15138 0
M  V30 3291 C 317.147 0.759709 -4.25267 0
M  V30 3292 C 316.282 1.81537 -4.99217 0
M  V30 3293 C 315.321 1.14866 -6.01226 0
M  V30 3294 N 314.458 2.14702 -6.68467 0
M  V30 3295 H 319.298 -0.342603 -2.96024 0
M  V30 3296 H 316.835 -0.180801 -1.45985 0
M  V30 3297 H 318.793 2.04315 -3.63746 0
M  V30 3298 H 317.423 2.04671 -2.49619 0
M  V30 3299 H 316.475 0.0105671 -3.80399 0
M  V30 3300 H 317.787 0.233243 -4.98254 0
M  V30 3301 H 316.941 2.52793 -5.51526 0
M  V30 3302 H 315.68 2.37564 -4.25928 0
M  V30 3303 H 314.685 0.42171 -5.4818 0
M  V30 3304 H 315.91 0.595334 -6.76485 0
M  V30 3305 H 313.856 2.69752 -5.97972 0
M  V30 3306 H 313.773 1.6703 -7.37317 0
M  V30 3307 H 315.041 2.85348 -7.25394 0
M  V30 3308 N 319.27 1.56325 -0.20005 0
M  V30 3309 C 320.202 2.16555 0.750771 0
M  V30 3310 C 321.215 1.12871 1.1732 0
M  V30 3311 O 322.404 1.39943 1.10807 0
M  V30 3312 C 319.504 2.71684 2.02586 0
M  V30 3313 C 318.677 4.00321 1.76244 0
M  V30 3314 C 317.736 4.40227 2.88248 0
M  V30 3315 O 316.762 5.07552 2.57642 0
M  V30 3316 N 317.964 4.04138 4.16717 0
M  V30 3317 H 320.729 2.98772 0.235685 0
M  V30 3318 H 318.29 1.6189 -0.0182594 0
M  V30 3319 H 320.282 2.95363 2.76664 0
M  V30 3320 H 318.852 1.93893 2.45202 0
M  V30 3321 H 318.072 3.84723 0.85919 0
M  V30 3322 H 319.36 4.84279 1.56048 0
M  V30 3323 H 318.758 3.49993 4.44434 0
M  V30 3324 H 317.315 4.32756 4.87407 0
M  V30 3325 N 320.748 -0.0735177 1.57428 0
M  V30 3326 C 322.164 -0.428264 1.53747 0
M  V30 3327 C 322.364 -1.79272 0.91998 0
M  V30 3328 O 321.42 -2.47051 0.521745 0
M  V30 3329 C 322.733 -0.370914 2.98404 0
M  V30 3330 C 324.281 -0.451224 3.0973 0
M  V30 3331 C 324.756 -0.4238 4.56035 0
M  V30 3332 N 326.247 -0.483925 4.60665 0
M  V30 3333 C 326.982 -0.484891 5.71346 0
M  V30 3334 N 326.478 -0.440775 6.91396 0
M  V30 3335 N 328.271 -0.531319 5.59583 0
M  V30 3336 H 320.422 0.819949 1.95935 0
M  V30 3337 H 322.685 0.307493 0.896745 0
M  V30 3338 H 322.391 0.564956 3.47133 0
M  V30 3339 H 322.265 -1.18176 3.5821 0
M  V30 3340 H 324.652 -1.37752 2.60976 0
M  V30 3341 H 324.733 0.388167 2.52838 0
M  V30 3342 H 324.377 0.498638 5.05446 0
M  V30 3343 H 324.307 -1.2807 5.10789 0
M  V30 3344 H 326.798 -0.522338 3.74273 0
M  V30 3345 H 327.111 -0.44539 7.71515 0
M  V30 3346 H 325.456 -0.40749 6.93804 0
M  V30 3347 H 328.647 -0.563464 4.64696 0
M  V30 3348 H 328.82 -0.528603 6.4584 0
M  V30 3349 N 322.226 -1.5378 -0.344866 0
M  V30 3350 C 323.642 -1.44015 -0.687888 0
M  V30 3351 C 323.842 -0.595834 -1.92489 0
M  V30 3352 O 322.898 -0.0863064 -2.52352 0
M  V30 3353 C 324.211 -2.87481 -0.881758 0
M  V30 3354 C 325.759 -2.97247 -0.980459 0
M  V30 3355 C 326.234 -4.41819 -1.20665 0
M  V30 3356 N 327.725 -4.45339 -1.27389 0
M  V30 3357 C 328.46 -5.54333 -1.46639 0
M  V30 3358 N 327.956 -6.73335 -1.63071 0
M  V30 3359 N 329.749 -5.41944 -1.49176 0
M  V30 3360 H 321.9 -2.07169 0.468475 0
M  V30 3361 H 324.163 -0.93643 0.147655 0
M  V30 3362 H 323.869 -3.51672 -0.0443444 0
M  V30 3363 H 323.743 -3.32352 -1.78388 0
M  V30 3364 H 326.13 -2.33197 -1.8084 0
M  V30 3365 H 326.211 -2.5574 -0.0552713 0
M  V30 3366 H 325.855 -5.06449 -0.383652 0
M  V30 3367 H 325.785 -4.80917 -2.14539 0
M  V30 3368 H 328.276 -3.59585 -1.1622 0
M  V30 3369 H 328.589 -7.52165 -1.77391 0
M  V30 3370 H 326.934 -6.76282 -1.60209 0
M  V30 3371 H 330.125 -4.47932 -1.3592 0
M  V30 3372 H 330.298 -6.26946 -1.63837 0
M  V30 3373 N 323.704 0.605807 -1.45491 0
M  V30 3374 C 325.12 0.926751 -1.29936 0
M  V30 3375 C 325.32 1.99896 -0.253706 0
M  V30 3376 O 324.376 2.50038 0.351737 0
M  V30 3377 C 325.689 1.36599 -2.67883 0
M  V30 3378 C 327.237 1.4801 -2.75793 0
M  V30 3379 C 327.712 1.95309 -4.14268 0
M  V30 3380 N 329.203 2.0254 -4.16571 0
M  V30 3381 C 329.938 2.40363 -5.20589 0
M  V30 3382 N 329.434 2.77143 -6.34952 0
M  V30 3383 N 331.227 2.40718 -5.07948 0
M  V30 3384 H 323.378 -0.102862 -2.12151 0
M  V30 3385 H 325.641 0.016639 -0.947854 0
M  V30 3386 H 325.347 0.652306 -3.45598 0
M  V30 3387 H 325.221 2.33215 -2.96463 0
M  V30 3388 H 327.608 2.1847 -1.98381 0
M  V30 3389 H 327.689 0.497041 -2.50925 0
M  V30 3390 H 327.333 1.25436 -4.92167 0
M  V30 3391 H 327.263 2.94532 -4.3653 0
M  V30 3392 H 329.754 1.76699 -3.34045 0
M  V30 3393 H 330.067 3.0489 -7.10114 0
M  V30 3394 H 328.412 2.74834 -6.3835 0
M  V30 3395 H 331.603 2.11392 -4.1765 0
M  V30 3396 H 331.776 2.69869 -5.89131 0
M  V30 3397 N 325.182 1.32811 0.848464 0
M  V30 3398 C 326.129 1.22265 1.95755 0
M  V30 3399 C 327.099 0.103413 1.65778 0
M  V30 3400 O 328.284 0.280033 1.88734 0
M  V30 3401 C 325.424 0.958014 3.31536 0
M  V30 3402 C 324.537 2.16262 3.73971 0
M  V30 3403 C 323.672 1.83295 4.98575 0
M  V30 3404 C 322.711 3.00041 5.33518 0
M  V30 3405 N 321.848 2.67125 6.49299 0
M  V30 3406 H 326.688 2.17128 2.04107 0
M  V30 3407 H 324.225 1.07982 0.998913 0
M  V30 3408 H 326.183 0.785052 4.09747 0
M  V30 3409 H 324.813 0.046159 3.22767 0
M  V30 3410 H 323.865 2.44565 2.91362 0
M  V30 3411 H 325.177 3.03572 3.95785 0
M  V30 3412 H 324.331 1.62586 5.84509 0
M  V30 3413 H 323.07 0.932078 4.7871 0
M  V30 3414 H 322.075 3.21374 4.46093 0
M  V30 3415 H 323.3 3.90869 5.55336 0
M  V30 3416 H 321.246 1.79586 6.3094 0
M  V30 3417 H 321.163 3.47965 6.71161 0
M  V30 3418 H 322.431 2.49861 7.3837 0
M  V30 3419 N 326.66 -1.06551 1.16123 0
M  V30 3420 C 328.076 -1.3142 0.905585 0
M  V30 3421 C 328.276 -1.96571 -0.442964 0
M  V30 3422 O 327.332 -2.23068 -1.18308 0
M  V30 3423 C 328.645 -2.19741 2.05267 0
M  V30 3424 C 330.193 -2.33165 2.08813 0
M  V30 3425 C 330.668 -3.24838 3.22868 0
M  V30 3426 N 332.159 -3.32421 3.22568 0
M  V30 3427 C 332.894 -4.0344 4.0746 0
M  V30 3428 N 332.39 -4.77003 5.02434 0
M  V30 3429 N 334.183 -3.99464 3.95456 0
M  V30 3430 H 326.334 -0.626548 2.02949 0
M  V30 3431 H 328.597 -0.338777 0.8854 0
M  V30 3432 H 328.303 -1.79142 3.02657 0
M  V30 3433 H 328.177 -3.20313 1.99198 0
M  V30 3434 H 330.564 -2.73013 1.12018 0
M  V30 3435 H 330.645 -1.3227 2.18948 0
M  V30 3436 H 330.289 -2.85708 4.19921 0
M  V30 3437 H 330.219 -4.25707 3.0997 0
M  V30 3438 H 332.71 -2.79994 2.53795 0
M  V30 3439 H 333.023 -5.28712 5.63634 0
M  V30 3440 H 331.368 -4.75992 5.06415 0
M  V30 3441 H 334.559 -3.4111 3.20564 0
M  V30 3442 H 334.732 -4.54544 4.61837 0
M  V30 3443 N 328.138 -0.959301 -1.25041 0
M  V30 3444 C 329.387 -0.612254 -1.92183 0
M  V30 3445 C 329.7 0.855347 -1.75907 0
M  V30 3446 O 330.906 1.31256 -2.37664 0
M  V30 3447 C 329.362 -1.04435 -3.44414 0
M  V30 3448 C 328.97 -2.53482 -3.69393 0
M  V30 3449 C 330.714 -0.770055 -4.17457 0
M  V30 3450 C 328.621 -2.90468 -5.15153 0
M  V30 3451 H 327.551 -0.225279 -0.719559 0
M  V30 3452 H 330.202 -1.16438 -1.41825 0
M  V30 3453 H 328.584 -0.4206 -3.9376 0
M  V30 3454 H 329.758 -3.20916 -3.30681 0
M  V30 3455 H 328.073 -2.78432 -3.0962 0
M  V30 3456 H 330.67 -1.02249 -5.24832 0
M  V30 3457 H 331.013 0.293611 -4.15263 0
M  V30 3458 H 331.546 -1.35437 -3.74034 0
M  V30 3459 H 328.285 -3.95871 -5.22462 0
M  V30 3460 H 327.805 -2.27711 -5.54894 0
M  V30 3461 H 329.484 -2.79914 -5.83315 0
M  V30 3462 N 329.616 1.39756 -0.72842 0
M  V30 3463 C 330.546 2.33289 -0.0991354 0
M  V30 3464 C 331.527 1.53568 0.731489 0
M  V30 3465 O 332.712 1.81987 0.677807 0
M  V30 3466 C 329.842 3.3763 0.813834 0
M  V30 3467 C 328.796 4.2791 0.0878663 0
M  V30 3468 C 328.122 5.22894 1.11741 0
M  V30 3469 C 329.422 5.11314 -1.06563 0
M  V30 3470 H 331.116 2.86163 -0.880408 0
M  V30 3471 H 328.662 1.37591 -0.424819 0
M  V30 3472 H 330.615 4.0201 1.26355 0
M  V30 3473 H 329.339 2.83181 1.62715 0
M  V30 3474 H 327.998 3.65 -0.342159 0
M  V30 3475 H 327.646 4.64744 1.92412 0
M  V30 3476 H 327.346 5.84143 0.636477 0
M  V30 3477 H 328.87 5.90151 1.56697 0
M  V30 3478 H 330.284 5.69076 -0.694671 0
M  V30 3479 H 328.681 5.81671 -1.47577 0
M  V30 3480 H 329.751 4.46534 -1.89038 0
M  V30 3481 N 331.094 0.475555 1.50254 0
M  V30 3482 C 332.322 -0.0754493 2.06762 0
M  V30 3483 C 332.737 -1.33111 1.33891 0
M  V30 3484 O 332.094 -1.77846 0.40952 0
M  V30 3485 C 332.145 -0.359008 3.59713 0
M  V30 3486 O 331.866 0.846851 4.29837 0
M  V30 3487 C 333.367 -0.956484 4.32858 0
M  V30 3488 H 330.587 0.00907525 0.670939 0
M  V30 3489 H 333.131 0.665618 1.93364 0
M  V30 3490 H 331.286 -1.05001 3.72899 0
M  V30 3491 H 331.7 0.594162 5.21124 0
M  V30 3492 H 333.174 -1.10463 5.40834 0
M  V30 3493 H 333.651 -1.94775 3.93649 0
M  V30 3494 H 334.257 -0.303723 4.24214 0
M  V30 3495 N 332.573 -1.56217 0.208337 0
M  V30 3496 C 333.989 -1.58919 -0.14729 0
M  V30 3497 C 334.189 -1.22486 -1.59998 0
M  V30 3498 O 333.245 -0.953849 -2.3379 0
M  V30 3499 C 334.558 -3.00236 0.167048 0
M  V30 3500 C 336.106 -3.12813 0.108219 0
M  V30 3501 C 336.581 -4.56284 0.396049 0
M  V30 3502 N 338.072 -4.61912 0.345142 0
M  V30 3503 C 338.807 -5.70837 0.541523 0
M  V30 3504 N 338.303 -6.88178 0.798968 0
M  V30 3505 N 340.096 -5.60091 0.474867 0
M  V30 3506 H 332.247 -1.78177 1.15614 0
M  V30 3507 H 334.51 -0.827555 0.462446 0
M  V30 3508 H 334.216 -3.31499 1.1748 0
M  V30 3509 H 334.09 -3.7354 -0.524184 0
M  V30 3510 H 336.477 -2.81354 -0.890157 0
M  V30 3511 H 336.558 -2.41866 0.832729 0
M  V30 3512 H 336.202 -4.88458 1.3918 0
M  V30 3513 H 336.132 -5.25439 -0.349502 0
M  V30 3514 H 338.623 -3.77589 0.153316 0
M  V30 3515 H 338.936 -7.67095 0.93727 0
M  V30 3516 H 337.281 -6.89953 0.836013 0
M  V30 3517 H 340.472 -4.67297 0.274064 0
M  V30 3518 H 340.645 -6.44917 0.631326 0
M  V30 3519 N 334.051 0.0651679 -1.57465 0
M  V30 3520 C 334.983 1.10359 -2.00882 0
M  V30 3521 C 335.996 1.346 -0.915788 0
M  V30 3522 O 337.185 1.32723 -1.1936 0
M  V30 3523 C 334.285 2.45312 -2.33828 0
M  V30 3524 C 333.458 2.40934 -3.65061 0
M  V30 3525 C 332.517 3.58047 -3.85602 0
M  V30 3526 O 331.543 3.39175 -4.57109 0
M  V30 3527 N 332.745 4.78637 -3.28462 0
M  V30 3528 H 335.51 0.733807 -2.90578 0
M  V30 3529 H 333.071 0.253719 -1.599 0
M  V30 3530 H 335.063 3.22314 -2.44737 0
M  V30 3531 H 333.633 2.74267 -1.49988 0
M  V30 3532 H 332.853 1.49273 -3.64844 0
M  V30 3533 H 334.141 2.35117 -4.51218 0
M  V30 3534 H 333.539 4.96872 -2.70433 0
M  V30 3535 H 332.096 5.53127 -3.44809 0
M  V30 3536 N 335.529 1.53961 0.336706 0
M  V30 3537 C 336.477 1.83136 1.43401 0
M  V30 3538 C 337.471 0.702313 1.54156 0
M  V30 3539 O 338.677 0.885765 1.56698 0
M  V30 3540 H 335.052 0.580309 0.478273 0
M  V30 3541 H 337.023 2.74925 1.16012 0
M  V30 3542 C 335.772 2.06385 2.79822 0
M  V30 3543 H 335.095 2.92718 2.72316 0
M  V30 3544 H 336.535 2.30761 3.55704 0
M  V30 3545 C 334.994 0.851414 3.25964 0
M  V30 3546 O 335.524 0.0541904 4.01663 0
M  V30 3547 N 333.73 0.66672 2.82848 0
M  V30 3548 H 333.277 1.31665 2.21409 0
M  V30 3549 H 333.235 -0.143032 3.14074 0
M  V30 3550 N 337.007 -0.598083 1.45811 0
M  V30 3551 C 338.232 -1.3881 1.54099 0
M  V30 3552 C 338.657 -1.8726 0.177578 0
M  V30 3553 O 338.015 -1.6069 -0.839541 0
M  V30 3554 C 338.063 -2.56217 2.53743 0
M  V30 3555 O 337.167 -3.5716 2.06182 0
M  V30 3556 H 336.508 -0.414024 0.519115 0
M  V30 3557 H 339.038 -0.726971 1.91249 0
M  V30 3558 H 339.048 -3.03337 2.72856 0
M  V30 3559 H 337.723 -2.20303 3.5276 0
M  V30 3560 H 336.3 -3.16624 1.96987 0
M  V30 3561 N 338.485 -1.33259 -0.841409 0
M  V30 3562 C 339.417 -1.19136 -1.95804 0
M  V30 3563 C 340.43 -0.122965 -1.62335 0
M  V30 3564 O 341.619 -0.373154 -1.74556 0
M  V30 3565 C 338.719 -0.804268 -3.29218 0
M  V30 3566 C 337.892 -1.96376 -3.90839 0
M  V30 3567 C 336.951 -1.55806 -5.02604 0
M  V30 3568 O 335.977 -2.27203 -5.21888 0
M  V30 3569 N 337.179 -0.461609 -5.78662 0
M  V30 3570 H 339.944 -2.15326 -2.08458 0
M  V30 3571 H 337.505 -1.25971 -1.017 0
M  V30 3572 H 339.497 -0.51501 -4.0141 0
M  V30 3573 H 338.067 0.0668809 -3.12528 0
M  V30 3574 H 337.287 -2.41879 -3.11269 0
M  V30 3575 H 338.575 -2.73966 -4.28742 0
M  V30 3576 H 337.973 0.132343 -5.65545 0
M  V30 3577 H 336.53 -0.232013 -6.51387 0
M  V30 3578 N 339.963 1.05934 -1.16686 0
M  V30 3579 C 341.203 1.80382 -0.961345 0
M  V30 3580 C 341.567 1.85331 0.501643 0
M  V30 3581 O 342.768 2.55795 0.825986 0
M  V30 3582 C 341.039 3.20777 -1.57596 0
M  V30 3583 S 342.598 4.11795 -1.51559 0
M  V30 3584 H 339.416 0.621332 -0.345641 0
M  V30 3585 H 342.018 1.27157 -1.48497 0
M  V30 3586 H 340.722 3.14773 -2.63337 0
M  V30 3587 H 340.253 3.79078 -1.05182 0
M  V30 3588 H 342.268 4.93485 -0.518374 0
M  V30 3589 N 341.441 0.965919 1.2453 0
M  V30 3590 C 342.389 0.486506 2.27455 0
M  V30 3591 C 343.383 -0.449041 1.6334 0
M  V30 3592 O 344.589 -0.324527 1.7705 0
M  V30 3593 H 340.964 0.138857 0.739069 0
M  V30 3594 H 342.935 1.3666 2.65267 0
M  V30 3595 C 341.684 -0.209481 3.47068 0
M  V30 3596 H 341.007 0.50129 3.96645 0
M  V30 3597 H 342.447 -0.508775 4.20936 0
M  V30 3598 C 340.906 -1.43586 3.0477 0
M  V30 3599 O 341.436 -2.53299 3.11773 0
M  V30 3600 N 339.642 -1.30126 2.59838 0
M  V30 3601 H 339.189 -0.408583 2.54339 0
M  V30 3602 H 339.147 -2.12294 2.31902 0
M  V30 3603 N 342.919 -1.39368 0.735821 0
M  V30 3604 C 344.144 -2.05319 0.293052 0
M  V30 3605 C 344.569 -1.55115 -1.064 0
M  V30 3606 O 343.927 -0.695261 -1.67439 0
M  V30 3607 C 343.975 -3.59305 0.305323 0
M  V30 3608 O 343.079 -4.06299 -0.706761 0
M  V30 3609 H 342.42 -0.650529 0.13307 0
M  V30 3610 H 344.95 -1.78386 1.00197 0
M  V30 3611 H 344.96 -4.07724 0.149997 0
M  V30 3612 H 343.635 -3.95207 1.29553 0
M  V30 3613 H 342.212 -3.69292 -0.517504 0
M  V30 3614 N 344.397 -0.483516 -1.5 0
M  V30 3615 C 345.643 0.0672592 -2.02688 0
M  V30 3616 C 345.976 1.38247 -1.36387 0
M  V30 3617 O 345.251 1.88131 -0.493675 0
M  V30 3618 C 345.534 0.238109 -3.59312 0
M  V30 3619 C 345.387 -1.099 -4.36168 0
M  V30 3620 C 346.706 0.986916 -4.28892 0
M  V30 3621 H 343.825 0.0229696 -0.736642 0
M  V30 3622 H 346.467 -0.631527 -1.79197 0
M  V30 3623 H 344.617 0.8333 -3.79458 0
M  V30 3624 H 346.289 -1.73172 -4.27562 0
M  V30 3625 H 344.532 -1.69261 -3.99416 0
M  V30 3626 H 345.203 -0.932954 -5.44059 0
M  V30 3627 H 347.679 0.482302 -4.13295 0
M  V30 3628 H 346.555 1.07527 -5.38265 0
M  V30 3629 H 346.816 2.0265 -3.92919 0
M  V30 3630 N 345.875 1.56104 -0.216619 0
M  V30 3631 C 347.291 1.58995 0.13886 0
M  V30 3632 C 347.491 1.23333 1.59346 0
M  V30 3633 O 346.547 0.966234 2.33281 0
M  V30 3634 C 347.86 3.00143 -0.182968 0
M  V30 3635 C 349.408 3.12751 -0.124807 0
M  V30 3636 C 349.883 4.56068 -0.420241 0
M  V30 3637 N 351.374 4.61723 -0.369634 0
M  V30 3638 C 352.109 5.70542 -0.571789 0
M  V30 3639 N 351.605 6.87744 -0.835453 0
M  V30 3640 N 353.398 5.59831 -0.504563 0
M  V30 3641 H 345.549 1.77562 -1.16557 0
M  V30 3642 H 347.812 0.825091 -0.466828 0
M  V30 3643 H 347.518 3.30871 -1.19237 0
M  V30 3644 H 347.392 3.73813 0.504367 0
M  V30 3645 H 349.779 2.81822 0.875223 0
M  V30 3646 H 349.86 2.41421 -0.845544 0
M  V30 3647 H 349.504 4.87713 -1.41769 0
M  V30 3648 H 349.434 5.25617 0.321631 0
M  V30 3649 H 351.925 3.77502 -0.173338 0
M  V30 3650 H 352.238 7.66587 -0.977938 0
M  V30 3651 H 350.583 6.895 -0.872592 0
M  V30 3652 H 353.774 4.67145 -0.298842 0
M  V30 3653 H 353.947 6.44573 -0.665519 0
M  V30 3654 N 347.353 -0.0568162 1.57498 0
M  V30 3655 C 348.764 -0.606858 1.76562 0
M  V30 3656 C 349.115 -1.77114 0.844094 0
M  V30 3657 O 348.24 -2.16376 0.0318911 0
M  V30 3658 C 348.835 -1.10766 3.20182 0
M  V30 3659 C 347.394 -1.60344 3.40539 0
M  V30 3660 C 346.541 -0.529311 2.72201 0
M  V30 3661 H 349.492 0.169393 1.57793 0
M  V30 3662 H 349.513 -1.97602 3.25167 0
M  V30 3663 H 349.025 -0.26006 3.87228 0
M  V30 3664 H 347.126 -2.47379 2.78629 0
M  V30 3665 H 347.239 -1.67006 4.4905 0
M  V30 3666 H 345.603 -0.977893 2.35179 0
M  V30 3667 H 346.386 0.308352 3.41912 0
M  V30 3668 N 348.832 -1.54138 -0.328536 0
M  V30 3669 C 350.08 -1.71765 -1.06496 0
M  V30 3670 C 350.401 -0.49149 -1.88704 0
M  V30 3671 O 349.671 0.494539 -1.89555 0
M  V30 3672 H 348.251 -0.633295 -0.396164 0
M  V30 3673 H 350.913 -1.91429 -0.366176 0
M  V30 3674 H 350.009 -2.5951 -1.73381 0
M  V30 3675 N 350.31 0.590341 -1.46126 0
M  V30 3676 C 351.557 1.34882 -1.5104 0
M  V30 3677 C 351.885 1.93849 -0.159021 0
M  V30 3678 O 351.14 1.76544 0.844436 0
M  V30 3679 C 351.439 2.5032 -2.55097 0
M  V30 3680 C 351.105 2.09394 -3.99331 0
M  V30 3681 C 349.767 1.97947 -4.38601 0
M  V30 3682 C 352.119 1.77712 -4.89967 0
M  V30 3683 C 349.447 1.53065 -5.66381 0
M  V30 3684 C 351.799 1.34312 -6.18177 0
M  V30 3685 C 350.463 1.21436 -6.56361 0
M  V30 3686 H 349.733 0.493568 -0.552695 0
M  V30 3687 H 352.38 0.665539 -1.79563 0
M  V30 3688 H 350.685 3.24062 -2.20207 0
M  V30 3689 H 352.382 3.08541 -2.56132 0
M  V30 3690 H 348.972 2.19235 -3.68285 0
M  V30 3691 H 353.156 1.85445 -4.60352 0
M  V30 3692 H 348.412 1.41733 -5.94745 0
M  V30 3693 H 352.586 1.08849 -6.87841 0
M  V30 3694 H 350.213 0.864345 -7.5527 0
M  V30 3695 N 351.788 1.33704 0.83433 0
M  V30 3696 C 353.199 1.22813 1.4062 0
M  V30 3697 C 353.55 -0.151107 1.95617 0
M  V30 3698 O 352.675 -1.05092 1.89168 0
M  V30 3699 C 353.27 2.22355 2.55624 0
M  V30 3700 C 351.829 2.1529 3.08751 0
M  V30 3701 C 350.976 2.09589 1.8157 0
M  V30 3702 H 353.927 1.45236 0.639702 0
M  V30 3703 H 353.948 1.83391 3.33389 0
M  V30 3704 H 353.46 3.22728 2.15566 0
M  V30 3705 H 351.561 1.18235 3.53343 0
M  V30 3706 H 351.674 3.06038 3.68616 0
M  V30 3707 H 350.038 1.55134 2.02004 0
M  V30 3708 H 350.821 3.11777 1.43701 0
M  V30 3709 N 353.266 -1.05314 1.17247 0
M  V30 3710 C 354.198 -2.13023 0.845812 0
M  V30 3711 C 355.211 -1.62096 -0.151246 0
M  V30 3712 O 356.4 -1.78343 0.0748818 0
M  V30 3713 C 353.5 -3.38047 0.240292 0
M  V30 3714 C 352.673 -4.18255 1.27991 0
M  V30 3715 C 351.732 -5.21625 0.692375 0
M  V30 3716 O 350.758 -5.52619 1.36385 0
M  V30 3717 N 351.96 -5.78201 -0.516178 0
M  V30 3718 H 354.725 -2.41642 1.77283 0
M  V30 3719 H 352.286 -1.21401 1.07115 0
M  V30 3720 H 354.278 -4.04359 -0.16603 0
M  V30 3721 H 352.848 -3.06972 -0.590487 0
M  V30 3722 H 352.068 -3.47451 1.86203 0
M  V30 3723 H 353.356 -4.68643 1.98119 0
M  V30 3724 H 352.754 -5.55301 -1.07969 0
M  V30 3725 H 351.311 -6.4604 -0.86458 0
M  V30 3726 N 354.744 -0.972509 -1.24016 0
M  V30 3727 C 355.676 -0.464375 -2.24446 0
M  V30 3728 C 356.689 0.4295 -1.57032 0
M  V30 3729 O 357.878 0.234902 -1.76948 0
M  V30 3730 C 354.978 0.348385 -3.37105 0
M  V30 3731 C 354.151 -0.53673 -4.34094 0
M  V30 3732 C 353.21 0.220838 -5.25736 0
M  V30 3733 O 352.236 -0.386867 -5.67884 0
M  V30 3734 N 353.438 1.50907 -5.60542 0
M  V30 3735 H 356.203 -1.32788 -2.68677 0
M  V30 3736 H 353.764 -0.844877 -1.38107 0
M  V30 3737 H 355.756 0.863341 -3.95384 0
M  V30 3738 H 354.326 1.11285 -2.92121 0
M  V30 3739 H 353.546 -1.23261 -3.74433 0
M  V30 3740 H 354.834 -1.14022 -4.95859 0
M  V30 3741 H 354.232 2.02444 -5.28236 0
M  V30 3742 H 352.789 1.96962 -6.21329 0
M  V30 3743 N 356.222 1.38976 -0.743202 0
M  V30 3744 C 357.45 2.04636 -0.30525 0
M  V30 3745 C 357.865 1.56044 1.06281 0
M  V30 3746 O 357.222 0.728921 1.67311 0
M  V30 3747 C 357.273 3.60193 -0.307177 0
M  V30 3748 O 356.994 4.06998 -1.62124 0
M  V30 3749 C 358.495 4.4306 0.145928 0
M  V30 3750 H 355.715 0.65788 -0.132041 0
M  V30 3751 H 358.259 1.77866 -1.00915 0
M  V30 3752 H 356.414 3.85835 0.347898 0
M  V30 3753 H 356.828 5.01371 -1.54036 0
M  V30 3754 H 358.302 5.51921 0.0934183 0
M  V30 3755 H 358.779 4.22706 1.19231 0
M  V30 3756 H 359.385 4.22584 -0.479886 0
M  V30 3757 N 357.7 0.491464 1.49741 0
M  V30 3758 C 358.63 -0.28154 2.31796 0
M  V30 3759 C 359.611 -0.971473 1.3963 0
M  V30 3760 O 360.796 -0.964719 1.68543 0
M  V30 3761 C 357.926 -1.35203 3.19902 0
M  V30 3762 C 356.88 -0.782529 4.20786 0
M  V30 3763 C 356.206 -1.95283 4.97764 0
M  V30 3764 C 357.506 0.21999 5.21837 0
M  V30 3765 H 359.2 0.403355 2.96671 0
M  V30 3766 H 356.746 0.195425 1.42668 0
M  V30 3767 H 358.699 -1.90045 3.76113 0
M  V30 3768 H 357.423 -2.06598 2.52953 0
M  V30 3769 H 356.082 -0.255928 3.65706 0
M  V30 3770 H 355.73 -2.65423 4.2727 0
M  V30 3771 H 355.43 -1.57789 5.66018 0
M  V30 3772 H 356.954 -2.50577 5.56816 0
M  V30 3773 H 358.368 -0.23996 5.72798 0
M  V30 3774 H 356.765 0.51026 5.97927 0
M  V30 3775 H 357.835 1.13911 4.7133 0
M  V30 3776 N 359.178 -1.55987 0.224894 0
M  V30 3777 C 360.403 -2.03232 -0.41369 0
M  V30 3778 C 360.828 -1.10359 -1.52323 0
M  V30 3779 O 360.186 -0.092395 -1.81064 0
M  V30 3780 C 360.234 -3.48682 -0.919405 0
M  V30 3781 O 359.338 -3.58947 -2.03054 0
M  V30 3782 H 358.679 -0.657428 -0.0931903 0
M  V30 3783 H 361.209 -2.01679 0.34451 0
M  V30 3784 H 361.219 -3.8907 -1.22835 0
M  V30 3785 H 359.894 -4.15761 -0.107339 0
M  V30 3786 H 358.471 -3.30448 -1.72796 0
M  V30 3787 N 360.656 0.0484629 -1.57525 0
M  V30 3788 C 362.067 0.597486 -1.76881 0
M  V30 3789 C 362.418 1.76664 -0.853475 0
M  V30 3790 O 361.543 2.16357 -0.0433656 0
M  V30 3791 C 362.138 1.09066 -3.20765 0
M  V30 3792 C 360.697 1.58535 -3.41385 0
M  V30 3793 C 359.844 0.514868 -2.72478 0
M  V30 3794 H 362.795 -0.177758 -1.57701 0
M  V30 3795 H 362.816 1.95875 -3.2621 0
M  V30 3796 H 362.328 0.239521 -3.8736 0
M  V30 3797 H 360.429 2.45898 -2.79937 0
M  V30 3798 H 360.542 1.64622 -4.49929 0
M  V30 3799 H 358.906 0.965407 -2.35695 0
M  V30 3800 H 359.689 -0.32648 -3.41744 0
M  V30 3801 N 362.134 1.5431 0.320358 0
M  V30 3802 C 363.411 1.63322 1.07635 0
M  V30 3803 C 363.791 0.46912 2.05821 0
M  V30 3804 O 363.139 -0.536274 2.22118 0
M  V30 3805 C 363.349 3.00465 1.77544 0
M  V30 3806 C 364.697 3.56621 2.30449 0
M  V30 3807 O 365.721 3.02791 1.87606 0
M  V30 3808 O 364.58 4.5083 3.08892 0
M  V30 3809 H 361.674 0.661502 0.496331 0
M  V30 3810 H 364.22 1.66656 0.319992 0
M  V30 3811 H 362.992 3.76629 1.06143 0
M  V30 3812 H 362.615 3.00824 2.59982 0
M  V30 3813 N 363.613 -0.582584 1.46437 0
M  V30 3814 C 365.024 -1.1647 1.45916 0
M  V30 3815 C 365.375 -1.95177 0.200077 0
M  V30 3816 O 364.5 -2.04874 -0.696819 0
M  V30 3817 C 365.095 -2.11885 2.64367 0
M  V30 3818 C 363.654 -2.65421 2.66887 0
M  V30 3819 C 362.801 -1.41294 2.38603 0
M  V30 3820 H 365.752 -0.370514 1.54314 0
M  V30 3821 H 365.773 -2.9535 2.39892 0
M  V30 3822 H 365.285 -1.54573 3.5599 0
M  V30 3823 H 363.386 -3.26602 1.79338 0
M  V30 3824 H 363.499 -3.08147 3.66854 0
M  V30 3825 H 361.863 -1.71109 1.88663 0
M  V30 3826 H 362.646 -0.858125 3.32402 0
M  V30 3827 N 365.091 -1.34144 -0.827227 0
M  V30 3828 C 366.054 -1.25264 -1.91942 0
M  V30 3829 C 367.054 -0.168866 -1.59911 0
M  V30 3830 O 368.244 -0.421198 -1.69031 0
M  V30 3831 C 365.376 -0.932952 -3.27885 0
M  V30 3832 H 366.569 -2.22357 -2.0124 0
M  V30 3833 H 364.122 -1.1837 -1.0207 0
M  V30 3834 H 364.857 0.0349917 -3.24281 0
M  V30 3835 H 364.642 -1.71682 -3.52516 0
M  V30 3836 H 366.132 -0.895874 -4.07877 0
M  V30 3837 N 366.569 1.04691 -1.17803 0
M  V30 3838 C 367.519 2.10856 -0.867391 0
M  V30 3839 C 368.503 1.601 0.160206 0
M  V30 3840 O 369.695 1.76948 -0.042947 0
M  V30 3841 C 366.824 3.411 -0.388012 0
M  V30 3842 C 365.91 3.9864 -1.44732 0
M  V30 3843 N 366.301 4.30075 -2.66212 0
M  V30 3844 C 364.599 4.26439 -1.30637 0
M  V30 3845 C 365.3 4.76033 -3.34317 0
M  V30 3846 N 364.276 4.76462 -2.61696 0
M  V30 3847 H 368.078 2.33029 -1.79094 0
M  V30 3848 H 365.592 1.22386 -1.0675 0
M  V30 3849 H 367.589 4.16641 -0.146994 0
M  V30 3850 H 366.249 3.20357 0.529271 0
M  V30 3851 H 367.26 4.19917 -3.03134 0
M  V30 3852 H 363.937 4.15056 -0.451129 0
M  V30 3853 H 365.327 5.09427 -4.38103 0
M  V30 3854 N 368.047 0.979072 1.23499 0
M  V30 3855 C 368.977 0.537606 2.27227 0
M  V30 3856 C 369.958 -0.428539 1.64613 0
M  V30 3857 O 371.143 -0.322191 1.91509 0
M  V30 3858 C 368.273 -0.162052 3.46922 0
M  V30 3859 C 367.227 0.721242 4.21879 0
M  V30 3860 C 366.553 -0.110555 5.34586 0
M  V30 3861 C 367.853 2.01141 4.82016 0
M  V30 3862 H 369.547 1.40462 2.64406 0
M  V30 3863 H 367.093 0.67684 1.27102 0
M  V30 3864 H 369.046 -0.482192 4.18632 0
M  V30 3865 H 367.77 -1.06351 3.08799 0
M  V30 3866 H 366.429 1.02482 3.51984 0
M  V30 3867 H 366.077 -1.0125 4.92704 0
M  V30 3868 H 365.777 0.477325 5.85658 0
M  V30 3869 H 367.301 -0.425107 6.09118 0
M  V30 3870 H 368.715 1.75612 5.45741 0
M  V30 3871 H 367.112 2.54695 5.43369 0
M  V30 3872 H 368.182 2.69909 4.02836 0
M  V30 3873 N 369.525 -1.3858 0.750561 0
M  V30 3874 C 370.435 -2.34278 0.122825 0
M  V30 3875 C 371.451 -1.59116 -0.704131 0
M  V30 3876 O 372.627 -1.91326 -0.628987 0
M  V30 3877 C 369.692 -3.38221 -0.762086 0
M  V30 3878 C 368.753 -4.29227 0.078896 0
M  V30 3879 C 367.986 -5.28205 -0.763874 0
M  V30 3880 O 368.209 -5.34112 -2.00201 0
M  V30 3881 O 367.143 -6.01618 -0.18428 0
M  V30 3882 H 370.969 -2.89649 0.913088 0
M  V30 3883 H 368.554 -1.40374 0.511417 0
M  V30 3884 H 370.436 -4.01872 -1.26793 0
M  V30 3885 H 369.111 -2.85211 -1.5309 0
M  V30 3886 H 368.018 -3.68747 0.630621 0
M  V30 3887 H 369.351 -4.85484 0.810289 0
M  V30 3888 N 371.003 -0.499398 -1.49478 0
M  V30 3889 C 371.933 0.269244 -2.31943 0
M  V30 3890 C 372.914 0.964054 -1.40143 0
M  V30 3891 O 374.099 0.955767 -1.69052 0
M  V30 3892 C 371.229 1.33504 -3.20615 0
M  V30 3893 C 370.183 0.760202 -4.21195 0
M  V30 3894 C 369.509 1.9264 -4.98792 0
M  V30 3895 C 370.809 -0.247661 -5.21712 0
M  V30 3896 H 372.503 -0.419082 -2.96452 0
M  V30 3897 H 370.049 -0.202988 -1.42562 0
M  V30 3898 H 372.002 1.88048 -3.77115 0
M  V30 3899 H 370.726 2.05253 -2.54045 0
M  V30 3900 H 369.385 0.23653 -3.65836 0
M  V30 3901 H 369.033 2.63154 -4.28671 0
M  V30 3902 H 368.733 1.54785 -5.66847 0
M  V30 3903 H 370.257 2.4762 -5.58137 0
M  V30 3904 H 371.671 0.209579 -5.72917 0
M  V30 3905 H 370.068 -0.541962 -5.97648 0
M  V30 3906 H 371.138 -1.16409 -4.7072 0
M  V30 3907 N 372.481 1.55866 -0.233164 0
M  V30 3908 C 373.428 2.20796 0.67215 0
M  V30 3909 C 374.398 1.16731 1.18166 0
M  V30 3910 O 375.583 1.45129 1.23864 0
M  V30 3911 C 372.723 2.90072 1.86955 0
M  V30 3912 C 371.836 4.08759 1.39786 0
M  V30 3913 C 370.971 4.65787 2.55374 0
M  V30 3914 C 370.01 5.76752 2.04998 0
M  V30 3915 N 369.147 6.28021 3.13901 0
M  V30 3916 H 373.987 2.9779 0.111749 0
M  V30 3917 H 371.524 1.47036 0.0434007 0
M  V30 3918 H 373.482 3.28428 2.57276 0
M  V30 3919 H 372.112 2.15575 2.40265 0
M  V30 3920 H 371.164 3.7581 0.589173 0
M  V30 3921 H 372.476 4.88906 0.98856 0
M  V30 3922 H 371.63 5.06646 3.33758 0
M  V30 3923 H 370.369 3.84828 2.99598 0
M  V30 3924 H 369.374 5.35383 1.25079 0
M  V30 3925 H 370.599 6.59553 1.61759 0
M  V30 3926 H 368.545 5.49971 3.57586 0
M  V30 3927 H 368.462 7.03323 2.7726 0
M  V30 3928 H 369.73 6.73538 3.92386 0
M  V30 3929 N 373.959 -0.0401083 1.57549 0
M  V30 3930 C 375.375 -0.395556 1.54621 0
M  V30 3931 C 375.575 -1.77281 0.957799 0
M  V30 3932 O 374.631 -2.45888 0.574031 0
M  V30 3933 C 375.944 -0.307535 2.99123 0
M  V30 3934 C 377.492 -0.385425 3.10618 0
M  V30 3935 C 377.967 -0.326973 4.56831 0
M  V30 3936 N 379.458 -0.386102 4.61588 0
M  V30 3937 C 380.193 -0.363591 5.72246 0
M  V30 3938 N 379.689 -0.29402 6.92176 0
M  V30 3939 N 381.482 -0.412503 5.60584 0
M  V30 3940 H 373.633 0.861325 1.94152 0
M  V30 3941 H 375.896 0.326445 0.890021 0
M  V30 3942 H 375.602 0.638461 3.45856 0
M  V30 3943 H 375.476 -1.10552 3.60636 0
M  V30 3944 H 377.863 -1.32185 2.63839 0
M  V30 3945 H 377.944 0.44171 2.51957 0
M  V30 3946 H 377.588 0.605738 5.04275 0
M  V30 3947 H 377.518 -1.17207 5.13391 0
M  V30 3948 H 380.009 -0.442832 3.75296 0
M  V30 3949 H 380.322 -0.28164 7.72287 0
M  V30 3950 H 378.667 -0.260232 6.94513 0
M  V30 3951 H 381.858 -0.464769 4.65787 0
M  V30 3952 H 382.031 -0.391492 6.46816 0
M  V30 3953 N 375.437 -1.54477 -0.31217 0
M  V30 3954 C 376.667 -1.76948 -1.06645 0
M  V30 3955 C 377.075 -0.523593 -1.81811 0
M  V30 3956 O 376.418 0.51578 -1.76311 0
M  V30 3957 C 376.48 -2.91668 -2.10166 0
M  V30 3958 C 376.144 -4.30165 -1.54296 0
M  V30 3959 C 377.141 -5.10603 -0.978793 0
M  V30 3960 C 374.826 -4.76738 -1.58196 0
M  V30 3961 C 376.82 -6.3573 -0.461048 0
M  V30 3962 C 374.507 -6.01831 -1.06034 0
M  V30 3963 C 375.505 -6.81161 -0.500844 0
M  V30 3964 O 375.193 -8.03899 0.0128958 0
M  V30 3965 H 374.925 -0.594088 -0.322546 0
M  V30 3966 H 377.479 -2.02213 -0.360441 0
M  V30 3967 H 375.709 -2.62001 -2.84416 0
M  V30 3968 H 377.398 -3.01817 -2.71406 0
M  V30 3969 H 378.164 -4.75771 -0.941651 0
M  V30 3970 H 374.043 -4.15027 -2.00683 0
M  V30 3971 H 377.587 -6.97596 -0.0236894 0
M  V30 3972 H 373.484 -6.36152 -1.09459 0
M  V30 3973 H 374.252 -8.18437 -0.101457 0
M  V30 3974 N 376.915 0.57481 -1.46744 0
M  V30 3975 C 378.145 1.35659 -1.55821 0
M  V30 3976 C 378.553 1.88129 -0.201036 0
M  V30 3977 O 377.896 1.64723 0.813134 0
M  V30 3978 C 377.958 2.57473 -2.50894 0
M  V30 3979 C 377.622 2.26415 -3.9697 0
M  V30 3980 C 378.619 1.84771 -4.85958 0
M  V30 3981 C 376.304 2.38316 -4.42166 0
M  V30 3982 C 378.298 1.55434 -6.18158 0
M  V30 3983 C 375.985 2.08591 -5.74398 0
M  V30 3984 C 376.983 1.67216 -6.62214 0
M  V30 3985 O 376.671 1.37859 -7.91991 0
M  V30 3986 H 376.403 0.420496 -0.529301 0
M  V30 3987 H 378.957 0.704967 -1.92923 0
M  V30 3988 H 377.187 3.25468 -2.08824 0
M  V30 3989 H 378.876 3.19546 -2.50291 0
M  V30 3990 H 379.642 1.75085 -4.52295 0
M  V30 3991 H 375.521 2.69483 -3.74032 0
M  V30 3992 H 379.065 1.23065 -6.86659 0
M  V30 3993 H 374.962 2.17905 -6.07608 0
M  V30 3994 H 375.73 1.51638 -8.04331 0
M  V30 3995 N 378.394 1.34581 0.820102 0
M  V30 3996 C 379.619 1.30333 1.61332 0
M  V30 3997 C 380.044 -0.119339 1.87721 0
M  V30 3998 O 379.402 -1.08197 1.45475 0
M  V30 3999 C 379.45 2.10258 2.92957 0
M  V30 4000 O 378.554 1.47404 3.85157 0
M  V30 4001 H 377.895 0.447488 0.490561 0
M  V30 4002 H 380.425 1.77425 1.01889 0
M  V30 4003 H 380.435 2.21718 3.42498 0
M  V30 4004 H 379.11 3.13693 2.73074 0
M  V30 4005 H 377.687 1.44703 3.43679 0
M  V30 4006 N 379.872 -1.04064 1.18357 0
M  V30 4007 C 381.121 -1.76662 0.973313 0
M  V30 4008 C 381.434 -1.89154 -0.497991 0
M  V30 4009 O 382.64 -2.58606 -0.826762 0
M  V30 4010 C 381.096 -3.17624 1.69242 0
M  V30 4011 C 380.704 -3.13225 3.20303 0
M  V30 4012 C 382.448 -3.946 1.56497 0
M  V30 4013 C 380.355 -4.49046 3.84853 0
M  V30 4014 H 379.285 -0.662214 0.36054 0
M  V30 4015 H 381.936 -1.16553 1.41731 0
M  V30 4016 H 380.318 -3.78129 1.1762 0
M  V30 4017 H 381.492 -2.62172 3.78949 0
M  V30 4018 H 379.807 -2.49749 3.33189 0
M  V30 4019 H 382.404 -4.95042 2.02084 0
M  V30 4020 H 382.747 -4.13074 0.517243 0
M  V30 4021 H 383.28 -3.4067 2.05399 0
M  V30 4022 H 380.019 -4.35777 4.89672 0
M  V30 4023 H 379.539 -5.00203 3.30994 0
M  V30 4024 H 381.218 -5.17961 3.87718 0
M  V30 4025 N 381.35 -0.985608 -1.22978 0
M  V30 4026 C 382.59 -0.665487 -1.93263 0
M  V30 4027 C 382.954 0.78706 -1.75127 0
M  V30 4028 O 384.155 1.21826 -2.39608 0
M  V30 4029 C 382.426 -1.0515 -3.41582 0
M  V30 4030 S 383.985 -0.848637 -4.30516 0
M  V30 4031 H 380.803 -0.24355 -0.667985 0
M  V30 4032 H 383.405 -1.26635 -1.48942 0
M  V30 4033 H 382.109 -2.10517 -3.52293 0
M  V30 4034 H 381.64 -0.442134 -3.90908 0
M  V30 4035 H 383.655 0.264717 -4.95493 0
M  V30 4036 N 382.828 1.3818 -0.7579 0
M  V30 4037 C 383.76 2.2901 -0.0932177 0
M  V30 4038 C 384.773 1.47958 0.679136 0
M  V30 4039 O 385.962 1.70773 0.519514 0
M  V30 4040 C 383.062 3.26953 0.89192 0
M  V30 4041 C 382.235 4.37045 0.176303 0
M  V30 4042 C 381.294 5.15148 1.07281 0
M  V30 4043 O 380.32 5.66616 0.541728 0
M  V30 4044 N 381.522 5.28542 2.40049 0
M  V30 4045 H 384.287 2.86694 -0.873303 0
M  V30 4046 H 381.848 1.50007 -0.609054 0
M  V30 4047 H 383.84 3.76083 1.49479 0
M  V30 4048 H 382.41 2.70136 1.57306 0
M  V30 4049 H 381.63 3.89493 -0.607328 0
M  V30 4050 H 382.918 5.07801 -0.318718 0
M  V30 4051 H 382.316 4.88285 2.85647 0
M  V30 4052 H 380.873 5.8103 2.95376 0
M  V30 4053 N 384.306 0.507319 1.49211 0
M  V30 4054 C 385.583 -0.0982702 1.95353 0
M  V30 4055 C 385.963 -1.53516 1.449 0
M  V30 4056 O 385.311 -2.18594 0.66551 0
M  V30 4057 C 385.521 -0.00440283 3.49 0
M  V30 4058 C 386.869 -0.175147 4.24239 0
M  V30 4059 O 387.893 -0.0792891 3.56112 0
M  V30 4060 O 386.752 -0.37276 5.45227 0
M  V30 4061 H 383.846 -0.0918236 0.821887 0
M  V30 4062 H 386.392 0.570307 1.5983 0
M  V30 4063 H 385.164 0.997402 3.78375 0
M  V30 4064 H 384.787 -0.712845 3.91158 0
M  V30 4065 N 385.784 -1.5574 0.241426 0
M  V30 4066 C 387.012 -2.03208 -0.389134 0
M  V30 4067 C 387.427 -1.12082 -1.51931 0
M  V30 4068 O 386.784 -0.134183 -1.82006 0
M  V30 4069 C 386.835 -3.50064 -0.902087 0
M  V30 4070 O 386.556 -4.37717 0.18305 0
M  V30 4071 C 388.057 -4.13268 -1.60389 0
M  V30 4072 H 385.277 -0.664509 -0.0931053 0
M  V30 4073 H 387.821 -2.0124 0.36369 0
M  V30 4074 H 385.976 -3.52583 -1.60511 0
M  V30 4075 H 386.39 -5.24097 -0.205579 0
M  V30 4076 H 387.864 -5.17733 -1.91458 0
M  V30 4077 H 388.341 -3.59434 -2.52397 0
M  V30 4078 H 388.947 -4.14655 -0.945576 0
M  V30 4079 N 387.262 0.0317525 -1.57568 0
M  V30 4080 C 388.225 1.01783 -2.0536 0
M  V30 4081 C 389.225 1.29203 -0.957253 0
M  V30 4082 O 390.415 1.24251 -1.22095 0
M  V30 4083 C 387.547 2.35137 -2.46827 0
M  V30 4084 H 388.74 0.605062 -2.93733 0
M  V30 4085 H 386.293 0.278514 -1.53799 0
M  V30 4086 H 387.028 2.81168 -1.61602 0
M  V30 4087 H 386.813 2.16566 -3.26866 0
M  V30 4088 H 388.303 3.05938 -2.84239 0
M  V30 4089 N 388.74 1.54641 0.303973 0
M  V30 4090 C 389.67 1.88386 1.3796 0
M  V30 4091 C 390.651 0.742485 1.5304 0
M  V30 4092 O 391.836 0.997959 1.66597 0
M  V30 4093 C 388.966 2.12854 2.74427 0
M  V30 4094 C 387.92 3.28702 2.74115 0
M  V30 4095 C 387.246 3.38582 4.13844 0
M  V30 4096 C 388.546 4.65881 2.3612 0
M  V30 4097 H 390.24 2.78474 1.09966 0
M  V30 4098 H 387.786 1.33988 0.527556 0
M  V30 4099 H 389.739 2.35047 3.49758 0
M  V30 4100 H 388.463 1.19535 3.03939 0
M  V30 4101 H 387.122 3.06428 2.0124 0
M  V30 4102 H 386.77 2.42784 4.40528 0
M  V30 4103 H 386.47 4.16453 4.14537 0
M  V30 4104 H 387.994 3.63031 4.90959 0
M  V30 4105 H 389.408 4.87823 3.01167 0
M  V30 4106 H 387.805 5.46444 2.48031 0
M  V30 4107 H 388.875 4.66799 1.3125 0
M  V30 4108 N 390.218 -0.567019 1.47046 0
M  V30 4109 C 391.466 -1.322 1.52864 0
M  V30 4110 C 391.787 -1.94088 0.188388 0
M  V30 4111 O 391.057 -1.7941 -0.786693 0
M  V30 4112 H 389.637 -0.490894 0.563056 0
M  V30 4113 H 392.299 -0.662879 1.83281 0
M  V30 4114 H 391.395 -2.12062 2.2899 0
M  V30 4115 N 391.696 -1.35014 -0.812953 0
M  V30 4116 C 392.944 -1.27678 -1.56661 0
M  V30 4117 C 393.265 0.150359 -1.94419 0
M  V30 4118 O 392.535 1.08532 -1.63088 0
M  V30 4119 H 391.115 -0.469602 -0.580933 0
M  V30 4120 H 393.777 -1.69043 -0.970076 0
M  V30 4121 H 392.873 -1.88833 -2.48492 0
M  V30 4122 N 393.175 1.03435 -1.18907 0
M  V30 4123 C 394.586 1.58195 -0.991523 0
M  V30 4124 C 394.937 1.90801 0.457081 0
M  V30 4125 O 394.062 1.70272 1.33553 0
M  V30 4126 C 394.657 2.87432 -1.79355 0
M  V30 4127 C 393.216 3.38785 -1.64017 0
M  V30 4128 C 392.363 2.12292 -1.78402 0
M  V30 4129 H 395.314 0.860299 -1.33359 0
M  V30 4130 H 395.335 3.58096 -1.28638 0
M  V30 4131 H 394.847 2.63669 -2.84781 0
M  V30 4132 H 392.948 3.67547 -0.611536 0
M  V30 4133 H 393.061 4.12186 -2.44212 0
M  V30 4134 H 391.425 2.23901 -1.2141 0
M  V30 4135 H 392.208 1.90977 -2.85277 0
M  V30 4136 N 394.653 0.992116 1.22453 0
M  V30 4137 C 395.901 0.666215 1.90804 0
M  V30 4138 C 396.222 -0.804152 1.77647 0
M  V30 4139 O 395.492 -1.57629 1.16318 0
M  V30 4140 H 394.072 0.243423 0.706225 0
M  V30 4141 H 396.734 1.25845 1.48825 0
M  V30 4142 H 395.83 0.928069 2.97982 0
M  V30 4143 N 396.131 -1.37776 0.765217 0
M  V30 4144 C 397.378 -1.99849 0.326588 0
M  V30 4145 C 397.706 -1.60746 -1.09504 0
M  V30 4146 O 396.961 -0.84202 -1.76659 0
M  V30 4147 C 397.26 -3.5504 0.410053 0
M  V30 4148 C 396.926 -4.13891 1.78899 0
M  V30 4149 C 395.588 -4.29678 2.16635 0
M  V30 4150 C 397.94 -4.46236 2.69301 0
M  V30 4151 C 395.268 -4.7511 3.44221 0
M  V30 4152 C 397.62 -4.93089 3.9629 0
M  V30 4153 C 396.284 -5.07082 4.34078 0
M  V30 4154 H 395.554 -0.7313 0.119507 0
M  V30 4155 H 398.201 -1.64645 0.977968 0
M  V30 4156 H 396.506 -3.90451 -0.324878 0
M  V30 4157 H 398.203 -4.00966 0.0520699 0
M  V30 4158 H 394.793 -4.02026 1.48569 0
M  V30 4159 H 398.977 -4.3363 2.41409 0
M  V30 4160 H 394.233 -4.84129 3.73402 0
M  V30 4161 H 398.407 -5.17084 4.66472 0
M  V30 4162 H 396.034 -5.42046 5.33001 0
M  V30 4163 N 397.609 -0.515225 -1.4894 0
M  V30 4164 C 398.541 0.292481 -2.27326 0
M  V30 4165 C 399.554 0.917838 -1.3446 0
M  V30 4166 O 400.743 0.798772 -1.5963 0
M  V30 4167 C 397.843 1.42803 -3.07344 0
M  V30 4168 C 397.016 0.907347 -4.27885 0
M  V30 4169 C 396.075 1.92222 -4.89834 0
M  V30 4170 O 395.101 1.48506 -5.49486 0
M  V30 4171 N 396.303 3.25355 -4.80754 0
M  V30 4172 H 399.068 -0.379721 -2.97285 0
M  V30 4173 H 396.629 -0.348638 -1.58102 0
M  V30 4174 H 398.621 2.10481 -3.45658 0
M  V30 4175 H 397.191 2.00414 -2.39902 0
M  V30 4176 H 396.411 0.0550218 -3.94162 0
M  V30 4177 H 397.699 0.538108 -5.05946 0
M  V30 4178 H 397.097 3.6355 -4.33414 0
M  V30 4179 H 395.654 3.88707 -5.23211 0
M  V30 4180 N 399.087 1.5561 -0.249682 0
M  V30 4181 C 399.997 2.25143 0.659375 0
M  V30 4182 C 401.013 1.2685 1.19101 0
M  V30 4183 O 402.189 1.59732 1.22669 0
M  V30 4184 C 399.254 2.93945 1.8384 0
M  V30 4185 C 398.315 4.07655 1.34596 0
M  V30 4186 C 397.548 4.73167 2.46878 0
M  V30 4187 O 397.771 4.37768 3.65671 0
M  V30 4188 O 396.705 5.61623 2.16478 0
M  V30 4189 H 400.531 3.03545 0.0968698 0
M  V30 4190 H 398.116 1.49389 -0.018074 0
M  V30 4191 H 399.998 3.37271 2.52638 0
M  V30 4192 H 398.673 2.18481 2.38847 0
M  V30 4193 H 397.58 3.68839 0.625174 0
M  V30 4194 H 398.913 4.84946 0.841941 0
M  V30 4195 N 400.565 -0.0233959 1.57583 0
M  V30 4196 C 401.981 -0.379134 1.55031 0
M  V30 4197 C 402.181 -1.76255 0.976548 0
M  V30 4198 O 401.237 -2.45266 0.600078 0
M  V30 4199 C 402.55 -0.275792 2.99433 0
M  V30 4200 C 404.098 -0.352458 3.11009 0
M  V30 4201 C 404.573 -0.278501 4.57152 0
M  V30 4202 N 406.064 -0.337123 4.61972 0
M  V30 4203 C 406.799 -0.302876 5.726 0
M  V30 4204 N 406.295 -0.220589 6.92449 0
M  V30 4205 N 408.088 -0.353023 5.6099 0
M  V30 4206 H 400.239 0.881869 1.93227 0
M  V30 4207 H 402.502 0.335867 0.886509 0
M  V30 4208 H 402.208 0.675108 3.4516 0
M  V30 4209 H 402.082 -1.06721 3.61788 0
M  V30 4210 H 404.469 -1.29379 2.65226 0
M  V30 4211 H 404.55 0.468409 2.51475 0
M  V30 4212 H 404.194 0.659189 5.03604 0
M  V30 4213 H 404.124 -1.11755 5.14605 0
M  V30 4214 H 406.615 -0.403002 3.75745 0
M  V30 4215 H 406.928 -0.199713 7.72542 0
M  V30 4216 H 405.273 -0.186555 6.9475 0
M  V30 4217 H 408.464 -0.415339 4.66254 0
M  V30 4218 H 408.637 -0.322866 6.47195 0
M  V30 4219 N 402.043 -1.548 -0.295768 0
M  V30 4220 C 403.291 -1.73985 -1.02828 0
M  V30 4221 C 403.612 -0.531406 -1.87619 0
M  V30 4222 O 402.882 0.454221 -1.90561 0
M  V30 4223 H 401.462 -0.641556 -0.382642 0
M  V30 4224 H 404.124 -1.92163 -0.325489 0
M  V30 4225 H 403.22 -2.63129 -1.67838 0
M  V30 4226 N 403.521 0.559213 -1.47345 0
M  V30 4227 C 404.769 1.31388 -1.53563 0
M  V30 4228 C 405.09 1.93985 -0.198678 0
M  V30 4229 O 404.36 1.79825 0.777167 0
M  V30 4230 H 402.94 0.487901 -0.565652 0
M  V30 4231 H 405.602 0.65315 -1.8363 0
M  V30 4232 H 404.698 2.10844 -2.30111 0
M  V30 4233 N 404.999 1.35443 0.805782 0
M  V30 4234 C 405.909 1.30546 1.94923 0
M  V30 4235 C 406.925 0.210233 1.72725 0
M  V30 4236 O 408.101 0.43975 1.9654 0
M  V30 4237 C 405.166 1.07782 3.29521 0
M  V30 4238 C 404.227 2.26625 3.64609 0
M  V30 4239 C 403.46 2.04938 4.92784 0
M  V30 4240 O 403.683 1.01624 5.61274 0
M  V30 4241 O 402.617 2.9232 5.26149 0
M  V30 4242 H 406.443 2.26779 2.02002 0
M  V30 4243 H 404.028 1.15823 0.943682 0
M  V30 4244 H 405.91 0.969392 4.10098 0
M  V30 4245 H 404.585 0.146003 3.23371 0
M  V30 4246 H 403.492 2.43033 2.84404 0
M  V30 4247 H 404.825 3.18257 3.75464 0
M  V30 4248 N 406.477 -1.02803 1.19454 0
M  V30 4249 C 407.407 -2.12999 0.956758 0
M  V30 4250 C 408.388 -1.69743 -0.110188 0
M  V30 4251 O 409.573 -1.94148 0.0450038 0
M  V30 4252 C 406.703 -3.43746 0.495553 0
M  V30 4253 C 405.657 -4.00688 1.50443 0
M  V30 4254 C 404.983 -5.27067 0.900275 0
M  V30 4255 C 406.283 -4.35397 2.8849 0
M  V30 4256 H 407.977 -2.33148 1.87836 0
M  V30 4257 H 405.523 -1.12045 0.904539 0
M  V30 4258 H 407.476 -4.2021 0.316493 0
M  V30 4259 H 406.2 -3.23321 -0.461646 0
M  V30 4260 H 404.859 -3.2632 1.67065 0
M  V30 4261 H 404.507 -5.02959 -0.064503 0
M  V30 4262 H 404.207 -5.66127 1.57397 0
M  V30 4263 H 405.731 -6.06196 0.73203 0
M  V30 4264 H 407.145 -5.02795 2.75446 0
M  V30 4265 H 405.542 -4.85541 3.52661 0
M  V30 4266 H 406.612 -3.44662 3.41081 0
M  V30 4267 N 407.956 -0.998596 -1.21925 0
M  V30 4268 C 408.903 -0.553621 -2.24062 0
M  V30 4269 C 409.873 0.416999 -1.6078 0
M  V30 4270 O 411.058 0.320482 -1.88089 0
M  V30 4271 C 408.198 0.119959 -3.44891 0
M  V30 4272 C 407.311 -0.893077 -4.22668 0
M  V30 4273 C 406.446 -0.192424 -5.30851 0
M  V30 4274 C 405.485 -1.19344 -6.00353 0
M  V30 4275 N 404.622 -0.520707 -7.00166 0
M  V30 4276 H 409.462 -1.4293 -2.61486 0
M  V30 4277 H 406.999 -0.715838 -1.28507 0
M  V30 4278 H 408.957 0.527459 -4.13852 0
M  V30 4279 H 407.587 0.959389 -3.08214 0
M  V30 4280 H 406.639 -1.41886 -3.52948 0
M  V30 4281 H 407.951 -1.65512 -4.70539 0
M  V30 4282 H 407.105 0.271515 -6.06092 0
M  V30 4283 H 405.844 0.602075 -4.83969 0
M  V30 4284 H 404.849 -1.66795 -5.23889 0
M  V30 4285 H 406.074 -1.98891 -6.49322 0
M  V30 4286 H 404.02 0.254252 -6.55507 0
M  V30 4287 H 403.937 -1.2211 -7.46073 0
M  V30 4288 H 405.205 -0.0797596 -7.79459 0
M  V30 4289 N 409.434 1.37368 -0.772513 0
M  V30 4290 C 410.85 1.53059 -0.452231 0
M  V30 4291 C 411.05 1.73065 1.03203 0
M  V30 4292 O 410.106 1.75245 1.81784 0
M  V30 4293 C 411.419 2.72659 -1.26797 0
M  V30 4294 C 412.967 2.86521 -1.25995 0
M  V30 4295 C 413.442 4.09105 -2.05905 0
M  V30 4296 N 414.933 4.16219 -2.03263 0
M  V30 4297 C 415.668 5.10107 -2.61875 0
M  V30 4298 N 415.164 6.09547 -3.29278 0
M  V30 4299 N 416.957 5.02596 -2.51701 0
M  V30 4300 H 409.108 1.22634 -1.7342 0
M  V30 4301 H 411.371 0.597206 -0.736239 0
M  V30 4302 H 411.077 2.64343 -2.31982 0
M  V30 4303 H 410.951 3.66363 -0.897672 0
M  V30 4304 H 413.338 2.94308 -0.216081 0
M  V30 4305 H 413.419 1.93774 -1.66989 0
M  V30 4306 H 413.063 4.0208 -3.10313 0
M  V30 4307 H 412.993 5.00968 -1.62292 0
M  V30 4308 H 415.484 3.45012 -1.54192 0
M  V30 4309 H 415.797 6.77718 -3.71374 0
M  V30 4310 H 414.142 6.09824 -3.33377 0
M  V30 4311 H 417.333 4.23855 -1.98657 0
M  V30 4312 H 417.506 5.75582 -2.97673 0
M  V30 4313 N 410.912 0.523116 1.48665 0
M  V30 4314 C 411.822 -0.247406 2.33292 0
M  V30 4315 C 412.838 -0.945769 1.46052 0
M  V30 4316 O 414.014 -0.922253 1.79043 0
M  V30 4317 C 411.079 -1.28487 3.22012 0
M  V30 4318 C 410.14 -0.597592 4.2512 0
M  V30 4319 C 409.373 -1.58563 5.09601 0
M  V30 4320 O 409.596 -2.81763 4.95949 0
M  V30 4321 O 408.53 -1.12879 5.91221 0
M  V30 4322 H 412.356 0.445869 3.00409 0
M  V30 4323 H 409.941 0.284128 1.46673 0
M  V30 4324 H 411.823 -1.88459 3.7691 0
M  V30 4325 H 410.498 -1.96068 2.57564 0
M  V30 4326 H 409.405 0.0424407 3.74076 0
M  V30 4327 H 410.738 0.0361517 4.92187 0
M  V30 4328 N 412.39 -1.55475 0.257931 0
M  V30 4329 C 413.3 -2.2549 -0.647425 0
M  V30 4330 C 414.316 -1.2748 -1.18427 0
M  V30 4331 O 415.492 -1.6038 -1.2182 0
M  V30 4332 C 412.557 -2.94916 -1.82278 0
M  V30 4333 C 411.618 -4.08363 -1.32432 0
M  V30 4334 C 410.851 -4.74469 -2.44366 0
M  V30 4335 O 411.074 -4.39701 -3.63344 0
M  V30 4336 O 410.008 -5.62763 -2.13497 0
M  V30 4337 H 413.834 -3.03593 -0.0807707 0
M  V30 4338 H 411.419 -1.49377 0.0259962 0
M  V30 4339 H 413.301 -3.38606 -2.50846 0
M  V30 4340 H 411.976 -2.19744 -2.37685 0
M  V30 4341 H 410.883 -3.69166 -0.605605 0
M  V30 4342 H 412.216 -4.85385 -0.816211 0
M  V30 4343 N 413.868 0.0150385 -1.57593 0
M  V30 4344 C 414.815 1.01126 -2.07466 0
M  V30 4345 C 415.785 1.35064 -0.966794 0
M  V30 4346 O 416.97 1.4516 -1.23827 0
M  V30 4347 C 414.11 2.30276 -2.57035 0
M  V30 4348 C 413.223 2.02373 -3.81666 0
M  V30 4349 C 412.358 3.25496 -4.19793 0
M  V30 4350 C 411.397 2.93211 -5.37303 0
M  V30 4351 N 410.534 4.08826 -5.70794 0
M  V30 4352 H 415.374 0.57901 -2.92321 0
M  V30 4353 H 412.911 0.27426 -1.44521 0
M  V30 4354 H 414.869 3.05757 -2.83846 0
M  V30 4355 H 413.499 2.71197 -1.75077 0
M  V30 4356 H 412.551 1.17327 -3.61854 0
M  V30 4357 H 413.863 1.74567 -4.67256 0
M  V30 4358 H 413.017 4.09333 -4.47807 0
M  V30 4359 H 411.756 3.56428 -3.32882 0
M  V30 4360 H 410.761 2.07777 -5.09027 0
M  V30 4361 H 411.986 2.63542 -6.25877 0
M  V30 4362 H 409.932 4.39682 -4.86842 0
M  V30 4363 H 409.849 3.84491 -6.50924 0
M  V30 4364 H 411.117 4.93496 -6.03392 0
M  V30 4365 N 415.346 1.54954 0.287554 0
M  V30 4366 C 416.574 1.78881 1.03967 0
M  V30 4367 C 416.989 0.554894 1.80462 0
M  V30 4368 O 416.346 -0.475676 1.76192 0
M  V30 4369 C 416.397 3.00488 2.0097 0
M  V30 4370 O 416.118 4.19113 1.27577 0
M  V30 4371 C 417.619 3.36907 2.88112 0
M  V30 4372 H 414.839 0.596259 0.307761 0
M  V30 4373 H 417.383 2.01937 0.322749 0
M  V30 4374 H 415.538 2.79601 2.68145 0
M  V30 4375 H 415.952 4.87765 1.92835 0
M  V30 4376 H 417.426 4.25205 3.52001 0
M  V30 4377 H 417.903 2.55659 3.57121 0
M  V30 4378 H 418.509 3.60001 2.26449 0
M  V30 4379 N 416.824 -0.551391 1.4764 0
M  V30 4380 C 418.24 -0.877887 1.33287 0
M  V30 4381 C 418.44 -1.98817 0.327721 0
M  V30 4382 O 417.496 -2.51171 -0.258695 0
M  V30 4383 C 418.809 -1.26563 2.72768 0
M  V30 4384 C 420.357 -1.37673 2.81097 0
M  V30 4385 C 420.832 -1.79799 4.21232 0
M  V30 4386 N 422.323 -1.8694 4.23802 0
M  V30 4387 C 423.058 -2.20876 5.29151 0
M  V30 4388 N 422.554 -2.53386 6.448 0
M  V30 4389 N 424.347 -2.217 5.16532 0
M  V30 4390 H 416.498 0.18153 2.11623 0
M  V30 4391 H 418.761 0.0185514 0.947818 0
M  V30 4392 H 418.467 -0.523591 3.47781 0
M  V30 4393 H 418.341 -2.22052 3.04915 0
M  V30 4394 H 420.728 -2.10956 2.06353 0
M  V30 4395 H 420.809 -0.40357 2.52596 0
M  V30 4396 H 420.453 -1.07083 4.96483 0
M  V30 4397 H 420.383 -2.78128 4.4716 0
M  V30 4398 H 422.874 -1.64179 3.40373 0
M  V30 4399 H 423.187 -2.78325 7.20941 0
M  V30 4400 H 421.532 -2.50953 6.48111 0
M  V30 4401 H 424.723 -1.95745 4.25207 0
M  V30 4402 H 424.896 -2.47818 5.98741 0
M  V30 4403 N 418.302 -1.35869 -0.798587 0
M  V30 4404 C 419.25 -1.29491 -1.93222 0
M  V30 4405 C 420.244 -0.18836 -1.6835 0
M  V30 4406 O 421.45 -0.354822 -1.76468 0
M  V30 4407 H 417.825 -0.402901 -0.63496 0
M  V30 4408 H 419.796 -2.25247 -1.9572 0
M  V30 4409 C 418.545 -1.09184 -3.30112 0
M  V30 4410 H 417.868 -1.93574 -3.49813 0
M  V30 4411 H 419.308 -1.08766 -4.09812 0
M  V30 4412 C 417.767 0.203959 -3.36282 0
M  V30 4413 O 418.297 1.19699 -3.83451 0
M  V30 4414 N 416.503 0.245488 -2.89561 0
M  V30 4415 H 416.05 -0.563223 -2.51367 0
M  V30 4416 H 416.008 1.11219 -2.94071 0
M  V30 4417 N 419.78 1.02168 -1.19998 0
M  V30 4418 C 421.005 1.79833 -1.03319 0
M  V30 4419 C 421.43 1.83504 0.413281 0
M  V30 4420 O 420.788 1.26635 1.29743 0
M  V30 4421 C 420.836 3.22396 -1.61533 0
M  V30 4422 O 419.94 4.03555 -0.849519 0
M  V30 4423 H 419.281 0.554872 -0.364709 0
M  V30 4424 H 421.811 1.28542 -1.59179 0
M  V30 4425 H 421.821 3.73124 -1.65054 0
M  V30 4426 H 420.496 3.19039 -2.66809 0
M  V30 4427 H 419.073 3.62169 -0.888129 0
M  V30 4428 N 421.258 1.00505 1.21394 0
M  V30 4429 C 422.188 0.585684 2.26035 0
M  V30 4430 C 423.169 -0.393525 1.65485 0
M  V30 4431 O 424.354 -0.281497 1.92149 0
M  V30 4432 C 421.484 -0.0884283 3.47187 0
M  V30 4433 C 420.438 0.810567 4.20254 0
M  V30 4434 C 419.764 0.00286382 5.347 0
M  V30 4435 C 421.064 2.1132 4.77641 0
M  V30 4436 H 422.758 1.46039 2.61368 0
M  V30 4437 H 420.304 0.703648 1.25638 0
M  V30 4438 H 422.257 -0.393286 4.19561 0
M  V30 4439 H 420.981 -0.997766 3.10986 0
M  V30 4440 H 419.64 1.09925 3.49731 0
M  V30 4441 H 419.288 -0.907765 4.94741 0
M  V30 4442 H 418.988 0.601444 5.84514 0
M  V30 4443 H 420.512 -0.295808 6.09883 0
M  V30 4444 H 421.926 1.87148 5.41893 0
M  V30 4445 H 420.323 2.66164 5.37845 0
M  V30 4446 H 421.393 2.78393 3.9702 0
M  V30 4447 N 422.737 -1.36956 0.779787 0
M  V30 4448 C 423.962 -2.04283 0.358224 0
M  V30 4449 C 424.387 -1.58422 -1.01411 0
M  V30 4450 O 423.745 -0.748179 -1.65142 0
M  V30 4451 C 423.793 -3.58152 0.419479 0
M  V30 4452 O 422.897 -4.08342 -0.577142 0
M  V30 4453 H 422.238 -0.645967 0.153698 0
M  V30 4454 H 424.768 -1.75108 1.05822 0
M  V30 4455 H 424.778 -4.07041 0.279636 0
M  V30 4456 H 423.453 -3.90886 1.42061 0
M  V30 4457 H 422.03 -3.70751 -0.399755 0
M  V30 4458 N 424.215 -0.530993 -1.48385 0
M  V30 4459 C 425.626 -0.0907905 -1.86479 0
M  V30 4460 C 425.977 1.33213 -1.44044 0
M  V30 4461 O 425.102 1.99783 -0.831615 0
M  V30 4462 C 425.697 -0.157987 -3.38431 0
M  V30 4463 C 424.256 0.227026 -3.75715 0
M  V30 4464 C 423.403 -0.5173 -2.72432 0
M  V30 4465 H 426.354 -0.742186 -1.40276 0
M  V30 4466 H 426.375 0.630053 -3.75247 0
M  V30 4467 H 425.887 -1.19372 -3.69286 0
M  V30 4468 H 423.988 1.26486 -3.50474 0
M  V30 4469 H 424.101 -0.113288 -4.78966 0
M  V30 4470 H 422.465 0.0365527 -2.54674 0
M  V30 4471 H 423.248 -1.55368 -3.0613 0
M  V30 4472 N 425.693 1.55336 -0.266172 0
M  V30 4473 C 426.921 2.03801 0.356756 0
M  V30 4474 C 427.336 1.14485 1.50129 0
M  V30 4475 O 426.693 0.163121 1.8177 0
M  V30 4476 C 426.744 3.51455 0.846281 0
M  V30 4477 O 426.465 4.37371 -0.252663 0
M  V30 4478 C 427.966 4.15767 1.53794 0
M  V30 4479 H 425.186 0.665906 0.0825218 0
M  V30 4480 H 427.73 2.00636 -0.39566 0
M  V30 4481 H 425.885 3.55092 1.54881 0
M  V30 4482 H 426.299 5.24358 0.122173 0
M  V30 4483 H 427.773 5.20714 1.83198 0
M  V30 4484 H 428.25 3.63404 2.46646 0
M  V30 4485 H 428.856 4.16107 0.879488 0
M  V30 4486 N 427.171 -0.0066808 1.57599 0
M  V30 4487 C 428.42 -0.692078 1.89455 0
M  V30 4488 C 428.733 -1.75306 0.867586 0
M  V30 4489 O 429.939 -2.49262 1.07614 0
M  V30 4490 C 428.395 -1.2821 3.36289 0
M  V30 4491 C 428.003 -0.256291 4.47266 0
M  V30 4492 C 429.747 -1.94608 3.77264 0
M  V30 4493 C 427.654 -0.855927 5.85173 0
M  V30 4494 H 426.584 -0.262252 0.706923 0
M  V30 4495 H 429.235 0.052769 1.83424 0
M  V30 4496 H 427.617 -2.0774 3.37135 0
M  V30 4497 H 428.791 0.513923 4.57925 0
M  V30 4498 H 427.106 0.306862 4.15268 0
M  V30 4499 H 429.703 -2.40364 4.77629 0
M  V30 4500 H 430.046 -2.77382 3.10427 0
M  V30 4501 H 430.579 -1.21822 3.78688 0
M  V30 4502 H 427.318 -0.0671161 6.55466 0
M  V30 4503 H 426.838 -1.59546 5.78191 0
M  V30 4504 H 428.517 -1.35658 6.32618 0
M  V30 4505 N 428.649 -1.55105 -0.279332 0
M  V30 4506 C 429.612 -1.86783 -1.32834 0
M  V30 4507 C 430.612 -0.74199 -1.42657 0
M  V30 4508 O 431.802 -1.0102 -1.41918 0
M  V30 4509 C 428.934 -2.06746 -2.71052 0
M  V30 4510 H 430.127 -2.8055 -1.05979 0
M  V30 4511 H 427.68 -1.47499 -0.517087 0
M  V30 4512 H 428.415 -1.15339 -3.03097 0
M  V30 4513 H 428.2 -2.88711 -2.65309 0
M  V30 4514 H 429.69 -2.32549 -3.46858 0
M  V30 4515 N 430.127 0.543554 -1.4793 0
M  V30 4516 C 431.538 1.12561 -1.48953 0
M  V30 4517 C 431.889 1.94578 -0.251754 0
M  V30 4518 O 431.014 2.0665 0.642255 0
M  V30 4519 C 431.609 2.04801 -2.69892 0
M  V30 4520 C 430.168 2.58251 -2.73831 0
M  V30 4521 C 429.315 1.34918 -2.42265 0
M  V30 4522 H 432.266 0.32947 -1.55242 0
M  V30 4523 H 432.287 2.88886 -2.47639 0
M  V30 4524 H 431.799 1.4508 -3.59963 0
M  V30 4525 H 429.9 3.21732 -1.87934 0
M  V30 4526 H 430.013 2.98312 -3.74895 0
M  V30 4527 H 428.377 1.66046 -1.93134 0
M  V30 4528 H 429.16 0.769693 -3.3456 0
M  V30 4529 N 431.605 1.3629 0.791371 0
M  V30 4530 C 432.552 1.30458 1.90393 0
M  V30 4531 C 433.522 0.173632 1.6519 0
M  V30 4532 O 434.707 0.35983 1.87376 0
M  V30 4533 C 431.847 1.09777 3.27174 0
M  V30 4534 C 430.96 2.31929 3.64462 0
M  V30 4535 C 430.095 2.04276 4.90352 0
M  V30 4536 C 429.134 3.224 5.20312 0
M  V30 4537 N 428.271 2.94424 6.37385 0
M  V30 4538 H 433.111 2.25589 1.94714 0
M  V30 4539 H 430.648 1.12122 0.952216 0
M  V30 4540 H 432.606 0.958133 4.06049 0
M  V30 4541 H 431.236 0.183014 3.22281 0
M  V30 4542 H 430.288 2.56703 2.80727 0
M  V30 4543 H 431.6 3.20085 3.82553 0
M  V30 4544 H 430.754 1.87231 5.77087 0
M  V30 4545 H 429.493 1.13428 4.74326 0
M  V30 4546 H 428.498 3.40005 4.32061 0
M  V30 4547 H 429.723 4.14071 5.38258 0
M  V30 4548 H 427.669 2.06185 6.22755 0
M  V30 4549 H 427.586 3.76118 6.55798 0
M  V30 4550 H 428.854 2.80953 7.27108 0
M  V30 4551 N 433.083 -1.0153 1.20538 0
M  V30 4552 C 434.013 -2.11972 0.979295 0
M  V30 4553 C 434.994 -1.6985 -0.0921787 0
M  V30 4554 O 436.179 -1.94089 0.0655932 0
M  V30 4555 C 433.309 -3.43201 0.531984 0
M  V30 4556 C 432.263 -3.9907 1.54685 0
M  V30 4557 C 431.589 -5.26082 0.956127 0
M  V30 4558 C 432.889 -4.32313 2.93092 0
M  V30 4559 H 434.583 -2.31143 1.90298 0
M  V30 4560 H 432.129 -1.11079 0.916372 0
M  V30 4561 H 434.082 -4.1985 0.361044 0
M  V30 4562 H 432.806 -3.23792 -0.427327 0
M  V30 4563 H 431.465 -3.2453 1.70517 0
M  V30 4564 H 431.113 -5.02999 -0.0111538 0
M  V30 4565 H 430.813 -5.64426 1.63393 0
M  V30 4566 H 432.337 -6.05386 0.796284 0
M  V30 4567 H 433.751 -4.99845 2.80763 0
M  V30 4568 H 432.148 -4.81774 3.57791 0
M  V30 4569 H 433.218 -3.41025 3.44717 0
M  V30 4570 N 434.561 -1.01147 -1.20859 0
M  V30 4571 C 435.786 -0.716698 -1.94623 0
M  V30 4572 C 436.211 0.715415 -1.73964 0
M  V30 4573 O 435.569 1.49157 -1.03062 0
M  V30 4574 C 435.617 -1.0513 -3.44935 0
M  V30 4575 O 434.721 -0.160131 -4.12089 0
M  V30 4576 H 434.062 -0.266404 -0.608214 0
M  V30 4577 H 436.592 -1.35346 -1.53436 0
M  V30 4578 H 436.602 -1.00086 -3.95533 0
M  V30 4579 H 435.277 -2.09475 -3.59295 0
M  V30 4580 H 433.854 -0.267657 -3.71938 0
M  V30 4581 N 436.039 1.36541 -0.78704 0
M  V30 4582 C 436.969 2.32659 -0.197992 0
M  V30 4583 C 437.95 1.56533 0.665697 0
M  V30 4584 O 439.135 1.84698 0.60001 0
M  V30 4585 C 436.265 3.40778 0.669901 0
M  V30 4586 C 435.219 4.27897 -0.0937039 0
M  V30 4587 C 434.545 5.27163 0.894629 0
M  V30 4588 C 435.845 5.06334 -1.28154 0
M  V30 4589 H 437.539 2.82171 -1.00099 0
M  V30 4590 H 435.085 1.35665 -0.482793 0
M  V30 4591 H 437.038 4.07008 1.09191 0
M  V30 4592 H 435.762 2.89827 1.50558 0
M  V30 4593 H 434.421 3.6322 -0.49666 0
M  V30 4594 H 434.069 4.72486 1.72527 0
M  V30 4595 H 433.769 5.86317 0.388149 0
M  V30 4596 H 435.293 5.96266 1.31525 0
M  V30 4597 H 436.707 5.65617 -0.93541 0
M  V30 4598 H 435.104 5.74888 -1.72115 0
M  V30 4599 H 436.174 4.38114 -2.07807 0
M  V30 4600 N 437.518 0.538854 1.48102 0
M  V30 4601 C 438.428 -0.222648 2.33541 0
M  V30 4602 C 439.444 -0.930225 1.47047 0
M  V30 4603 O 440.62 -0.903211 1.80011 0
M  V30 4604 C 437.685 -1.25064 3.23357 0
M  V30 4605 C 436.746 -0.552469 4.2573 0
M  V30 4606 C 435.979 -1.53149 5.11254 0
M  V30 4607 O 436.202 -2.76487 4.9891 0
M  V30 4608 O 435.136 -1.06602 5.92385 0
M  V30 4609 H 438.962 0.477707 2.99919 0
M  V30 4610 H 436.547 0.299669 1.46364 0
M  V30 4611 H 438.429 -1.8445 3.78888 0
M  V30 4612 H 437.104 -1.93325 2.59629 0
M  V30 4613 H 436.011 0.082114 3.7401 0
M  V30 4614 H 437.344 0.0883526 4.92121 0
M  V30 4615 N 438.996 -1.55193 0.274407 0
M  V30 4616 C 440.242 -1.99877 -0.343086 0
M  V30 4617 C 440.575 -1.16256 -1.55558 0
M  V30 4618 O 439.85 -0.232462 -1.93106 0
M  V30 4619 C 440.133 -3.52706 -0.725965 0
M  V30 4620 C 439.986 -4.47081 0.493818 0
M  V30 4621 C 441.305 -4.11422 -1.56268 0
M  V30 4622 H 438.424 -0.726625 -0.123229 0
M  V30 4623 H 441.066 -1.86136 0.38121 0
M  V30 4624 H 439.216 -3.64546 -1.34307 0
M  V30 4625 H 440.888 -4.47186 1.13237 0
M  V30 4626 H 439.131 -4.1877 1.13201 0
M  V30 4627 H 439.802 -5.51699 0.18217 0
M  V30 4628 H 442.278 -4.02855 -1.04151 0
M  V30 4629 H 441.154 -5.18568 -1.79939 0
M  V30 4630 H 441.415 -3.61607 -2.54348 0
M  V30 4631 N 440.474 -0.00167713 -1.576 0
M  V30 4632 C 441.89 0.354422 -1.55615 0
M  V30 4633 C 442.09 1.74679 -1.00447 0
M  V30 4634 O 441.146 2.4428 -0.639022 0
M  V30 4635 C 442.459 0.22812 -2.99833 0
M  V30 4636 C 444.007 0.302934 -3.11531 0
M  V30 4637 C 444.482 0.205737 -4.57538 0
M  V30 4638 N 445.973 0.263584 -4.62449 0
M  V30 4639 C 446.708 0.211742 -5.73009 0
M  V30 4640 N 446.204 0.110399 -6.92712 0
M  V30 4641 N 447.997 0.263729 -5.61481 0
M  V30 4642 H 440.148 -0.912498 -1.918 0
M  V30 4643 H 442.411 -0.349928 -0.881053 0
M  V30 4644 H 442.117 -0.729934 -3.44042 0
M  V30 4645 H 441.991 1.00951 -3.6344 0
M  V30 4646 H 444.378 1.25143 -2.67251 0
M  V30 4647 H 444.459 -0.508357 -2.50698 0
M  V30 4648 H 444.103 -0.739225 -5.02492 0
M  V30 4649 H 444.033 1.03554 -5.16318 0
M  V30 4650 H 446.524 0.343173 -3.76339 0
M  V30 4651 H 446.837 0.0767828 -7.72762 0
M  V30 4652 H 445.182 0.0760025 -6.94958 0
M  V30 4653 H 448.373 0.34111 -4.66855 0
M  V30 4654 H 448.546 0.219862 -6.47627 0
M  V30 4655 N 441.952 1.55251 0.271103 0
M  V30 4656 C 442.899 1.88261 1.33516 0
M  V30 4657 C 443.869 0.734296 1.48988 0
M  V30 4658 O 445.054 0.985741 1.63364 0
M  V30 4659 C 442.194 2.16168 2.69008 0
M  V30 4660 C 441.307 3.43678 2.61743 0
M  V30 4661 C 440.442 3.61276 3.89427 0
M  V30 4662 C 439.481 4.82472 3.7668 0
M  V30 4663 N 438.618 4.96717 4.96202 0
M  V30 4664 H 443.458 2.79015 1.04665 0
M  V30 4665 H 440.995 1.38137 0.505618 0
M  V30 4666 H 442.953 2.30349 3.47844 0
M  V30 4667 H 441.583 1.28646 2.96057 0
M  V30 4668 H 440.635 3.37959 1.74607 0
M  V30 4669 H 441.947 4.3265 2.48224 0
M  V30 4670 H 441.101 3.75284 4.76704 0
M  V30 4671 H 439.84 2.70492 4.05814 0
M  V30 4672 H 438.845 4.68465 2.87786 0
M  V30 4673 H 440.07 5.74692 3.61809 0
M  V30 4674 H 438.016 4.08865 5.12997 0
M  V30 4675 H 437.933 5.79738 4.85222 0
M  V30 4676 H 439.201 5.15113 5.85046 0
M  V30 4677 N 443.43 -0.535701 1.48216 0
M  V30 4678 C 444.36 -1.65014 1.65204 0
M  V30 4679 C 445.341 -1.62554 0.501011 0
M  V30 4680 O 446.526 -1.7984 0.732886 0
M  V30 4681 C 443.656 -3.03616 1.68626 0
M  V30 4682 C 442.61 -3.20932 2.83172 0
M  V30 4683 C 441.936 -4.60537 2.71679 0
M  V30 4684 C 443.236 -3.04249 4.24535 0
M  V30 4685 H 444.93 -1.51053 2.58502 0
M  V30 4686 H 442.476 -0.725262 1.24402 0
M  V30 4687 H 444.429 -3.81446 1.79099 0
M  V30 4688 H 443.153 -3.18587 0.719026 0
M  V30 4689 H 441.812 -2.45517 2.72244 0
M  V30 4690 H 441.46 -4.72336 1.72937 0
M  V30 4691 H 441.16 -4.73069 3.48538 0
M  V30 4692 H 442.684 -5.40475 2.84112 0
M  V30 4693 H 444.098 -3.71877 4.36326 0
M  V30 4694 H 442.495 -3.28278 5.02348 0
M  V30 4695 H 443.565 -2.00739 4.41397 0
M  V30 4696 N 444.908 -1.36708 -0.784132 0
M  V30 4697 C 446.133 -1.34565 -1.5782 0
M  V30 4698 C 446.558 0.0695257 -1.87971 0
M  V30 4699 O 445.916 1.04302 -1.48293 0
M  V30 4700 C 445.964 -2.17952 -2.87279 0
M  V30 4701 O 445.068 -1.57563 -3.81114 0
M  V30 4702 H 444.409 -0.460337 -0.478524 0
M  V30 4703 H 446.939 -1.80064 -0.971495 0
M  V30 4704 H 446.949 -2.30721 -3.365 0
M  V30 4705 H 445.624 -3.20823 -2.64661 0
M  V30 4706 H 444.201 -1.53764 -3.39722 0
M  V30 4707 N 446.386 1.0089 -1.21074 0
M  V30 4708 C 447.334 2.11707 -0.963476 0
M  V30 4709 C 448.328 1.69172 0.0879032 0
M  V30 4710 O 449.534 1.79889 -0.0631415 0
M  V30 4711 H 445.909 0.692026 -0.294287 0
M  V30 4712 H 447.88 2.29743 -1.90422 0
M  V30 4713 C 446.629 3.43473 -0.540509 0
M  V30 4714 H 445.952 3.76634 -1.34114 0
M  V30 4715 H 447.392 4.22044 -0.406777 0
M  V30 4716 C 445.851 3.2849 0.748079 0
M  V30 4717 O 446.381 3.58883 1.8046 0
M  V30 4718 N 444.587 2.81715 0.713081 0
M  V30 4719 H 444.134 2.5718 -0.146973 0
M  V30 4720 H 444.092 2.72071 1.57558 0
M  V30 4721 N 447.864 1.01787 1.20321 0
M  V30 4722 C 449.112 0.706538 1.89347 0
M  V30 4723 C 449.433 -0.766289 1.79313 0
M  V30 4724 O 448.703 -1.55126 1.19635 0
M  V30 4725 H 447.283 0.258348 0.700903 0
M  V30 4726 H 449.945 1.28974 1.46122 0
M  V30 4727 H 449.041 0.991066 2.95946 0
M  V30 4728 N 449.342 -1.36122 0.79427 0
M  V30 4729 C 450.758 -1.5232 0.476525 0
M  V30 4730 C 450.958 -1.74685 -1.00436 0
M  V30 4731 O 450.014 -1.78115 -1.78973 0
M  V30 4732 C 451.327 -2.70607 1.31119 0
M  V30 4733 C 452.875 -2.8448 1.30537 0
M  V30 4734 C 453.35 -4.05778 2.12387 0
M  V30 4735 N 454.841 -4.12933 2.09859 0
M  V30 4736 C 455.576 -5.05876 2.69957 0
M  V30 4737 N 455.072 -6.04232 3.38934 0
M  V30 4738 N 456.865 -4.98528 2.59665 0
M  V30 4739 H 449.016 -1.1986 1.75349 0
M  V30 4740 H 451.279 -0.585418 0.745647 0
M  V30 4741 H 450.985 -2.60619 2.36158 0
M  V30 4742 H 450.859 -3.64888 0.955843 0
M  V30 4743 H 453.246 -2.93927 0.262876 0
M  V30 4744 H 453.327 -1.91093 1.70051 0
M  V30 4745 H 452.971 -3.97092 3.1667 0
M  V30 4746 H 452.901 -4.98323 1.70242 0
M  V30 4747 H 455.392 -3.42515 1.59662 0
M  V30 4748 H 455.705 -6.71724 3.82109 0
M  V30 4749 H 454.05 -6.04443 3.43036 0
M  V30 4750 H 457.241 -4.20641 2.05375 0
M  V30 4751 H 457.414 -5.70773 3.06793 0
M  V30 4752 N 450.82 -0.546701 -1.47814 0
M  V30 4753 C 451.75 0.195317 -2.32682 0
M  V30 4754 C 452.731 0.918981 -1.43139 0
M  V30 4755 O 453.916 0.901501 -1.72008 0
M  V30 4756 C 451.046 1.23237 -3.247 0
M  V30 4757 C 450 0.625818 -4.234 0
M  V30 4758 C 449.326 1.76674 -5.04669 0
M  V30 4759 C 450.626 -0.413515 -5.2066 0
M  V30 4760 H 452.32 -0.513184 -2.94969 0
M  V30 4761 H 449.866 -0.248241 -1.41844 0
M  V30 4762 H 451.819 1.75955 -3.82907 0
M  V30 4763 H 450.543 1.97067 -2.60446 0
M  V30 4764 H 449.202 0.120023 -3.66403 0
M  V30 4765 H 448.85 2.49383 -4.36826 0
M  V30 4766 H 448.55 1.36673 -5.71484 0
M  V30 4767 H 450.074 2.29738 -5.65732 0
M  V30 4768 H 451.488 0.0272042 -5.73294 0
M  V30 4769 H 449.885 -0.731825 -5.95621 0
M  V30 4770 H 450.955 -1.31325 -4.66778 0
M  V30 4771 N 452.299 1.55045 -0.282633 0
M  V30 4772 C 453.524 2.04628 0.337977 0
M  V30 4773 C 453.949 1.15937 1.48123 0
M  V30 4774 O 453.307 0.159532 1.80597 0
M  V30 4775 C 453.355 3.51854 0.78936 0
M  V30 4776 O 452.459 3.66236 1.89592 0
M  V30 4777 H 451.8 0.660434 0.0687261 0
M  V30 4778 H 454.33 2.00261 -0.419124 0
M  V30 4779 H 454.34 3.93361 1.08311 0
M  V30 4780 H 453.015 4.15873 -0.0470419 0
M  V30 4781 H 451.592 3.36633 1.60413 0
M  V30 4782 N 453.777 0.010035 1.57597 0
M  V30 4783 C 455.005 -0.683413 1.95287 0
M  V30 4784 C 455.42 -1.66747 0.885481 0
M  V30 4785 O 454.777 -1.82003 -0.134629 0
M  V30 4786 C 454.828 -1.40652 3.33015 0
M  V30 4787 O 454.549 -0.461916 4.35658 0
M  V30 4788 C 456.05 -2.19356 3.85225 0
M  V30 4789 H 453.27 -0.189708 0.643624 0
M  V30 4790 H 455.814 0.0641359 2.04399 0
M  V30 4791 H 453.969 -2.10562 3.2518 0
M  V30 4792 H 454.383 -0.973215 5.15392 0
M  V30 4793 H 455.857 -2.65433 4.83993 0
M  V30 4794 H 456.334 -3.02457 3.18459 0
M  V30 4795 H 456.94 -1.54442 3.96267 0
M  V30 4796 N 455.255 -1.55392 -0.262866 0
M  V30 4797 C 456.48 -1.80847 -1.01533 0
M  V30 4798 C 456.905 -0.584946 -1.78774 0
M  V30 4799 O 456.263 0.465701 -1.75217 0
M  V30 4800 C 456.311 -3.03866 -1.94159 0
M  V30 4801 O 455.415 -2.79662 -3.03089 0
M  V30 4802 H 454.756 -0.597441 -0.289759 0
M  V30 4803 H 457.286 -2.02553 -0.288698 0
M  V30 4804 H 457.296 -3.32872 -2.35924 0
M  V30 4805 H 455.971 -3.92564 -1.37354 0
M  V30 4806 H 454.548 -2.61781 -2.65566 0
M  V30 4807 N 456.733 0.527833 -1.48498 0
M  V30 4808 C 457.663 1.64136 -1.66077 0
M  V30 4809 C 458.644 1.62286 -0.509625 0
M  V30 4810 O 459.829 1.79449 -0.742413 0
M  V30 4811 C 456.959 3.02717 -1.70234 0
M  V30 4812 C 455.913 3.19426 -2.8487 0
M  V30 4813 C 455.239 4.5909 -2.74118 0
M  V30 4814 C 456.539 3.01993 -4.26142 0
M  V30 4815 H 458.233 1.4968 -2.593 0
M  V30 4816 H 455.779 0.718654 -1.24785 0
M  V30 4817 H 457.732 3.80491 -1.8112 0
M  V30 4818 H 456.456 3.18201 -0.735911 0
M  V30 4819 H 455.115 2.4407 -2.73542 0
M  V30 4820 H 454.763 4.71413 -1.7544 0
M  V30 4821 H 454.463 4.71214 -3.51042 0
M  V30 4822 H 455.987 5.3896 -2.86974 0
M  V30 4823 H 457.401 3.69558 -4.38292 0
M  V30 4824 H 455.798 3.2561 -5.04082 0
M  V30 4825 H 456.868 1.98396 -4.42456 0
M  V30 4826 N 458.211 1.37122 0.776871 0
M  V30 4827 C 459.158 1.3247 1.88998 0
M  V30 4828 C 460.128 0.191143 1.64997 0
M  V30 4829 O 461.313 0.379683 1.86984 0
M  V30 4830 C 458.453 1.13241 3.25992 0
M  V30 4831 C 457.566 2.35782 3.61982 0
M  V30 4832 C 456.701 2.09465 4.88158 0
M  V30 4833 C 455.74 3.279 5.16864 0
M  V30 4834 N 454.877 3.01167 6.34226 0
M  V30 4835 H 459.717 2.27642 1.9231 0
M  V30 4836 H 457.254 1.13125 0.94027 0
M  V30 4837 H 459.212 1.00115 4.0501 0
M  V30 4838 H 457.842 0.217186 3.22069 0
M  V30 4839 H 456.894 2.59666 2.77989 0
M  V30 4840 H 458.206 3.24125 3.79137 0
M  V30 4841 H 457.36 1.93341 5.75069 0
M  V30 4842 H 456.099 1.18452 4.73097 0
M  V30 4843 H 455.104 3.44569 4.2843 0
M  V30 4844 H 456.329 4.19757 5.33836 0
M  V30 4845 H 454.275 2.12779 6.20533 0
M  V30 4846 H 454.192 3.83052 6.51772 0
M  V30 4847 H 455.46 2.88649 7.24087 0
M  V30 4848 N 459.689 -1.00246 1.21608 0
M  V30 4849 C 460.619 -2.10921 1.00172 0
M  V30 4850 C 461.6 -1.69938 -0.0741587 0
M  V30 4851 O 462.785 -1.94009 0.0861753 0
M  V30 4852 C 459.915 -3.42618 0.568355 0
M  V30 4853 C 458.869 -3.97407 1.58909 0
M  V30 4854 C 458.195 -5.25038 1.01187 0
M  V30 4855 C 459.495 -4.2918 2.97661 0
M  V30 4856 H 461.189 -2.29112 1.92739 0
M  V30 4857 H 458.735 -1.10101 0.928102 0
M  V30 4858 H 460.688 -4.19444 0.405555 0
M  V30 4859 H 459.412 -3.24227 -0.392961 0
M  V30 4860 H 458.071 -3.22703 1.73949 0
M  V30 4861 H 457.719 -5.02982 0.0421965 0
M  V30 4862 H 457.419 -5.62661 1.6937 0
M  V30 4863 H 458.943 -6.04507 0.860448 0
M  V30 4864 H 460.357 -4.96839 2.86049 0
M  V30 4865 H 458.754 -4.77952 3.6288 0
M  V30 4866 H 459.824 -3.3735 3.48315 0
M  V30 4867 N 461.167 -1.02423 -1.1978 0
M  V30 4868 C 462.415 -0.716569 -1.8897 0
M  V30 4869 C 462.736 0.756769 -1.79716 0
M  V30 4870 O 462.006 1.5449 -1.20456 0
M  V30 4871 H 460.586 -0.262062 -0.699523 0
M  V30 4872 H 463.248 -1.29747 -1.45436 0
M  V30 4873 H 462.344 -1.00675 -2.95417 0
M  V30 4874 N 462.645 1.35699 -0.801477 0
M  V30 4875 C 464.056 1.81415 -0.441073 0
M  V30 4876 C 464.407 1.66595 1.03636 0
M  V30 4877 O 463.532 1.19369 1.80499 0
M  V30 4878 C 464.127 3.29369 -0.793819 0
M  V30 4879 C 462.686 3.73248 -0.486083 0
M  V30 4880 C 461.833 2.57775 -1.02213 0
M  V30 4881 H 464.784 1.23749 -0.993572 0
M  V30 4882 H 464.805 3.80395 -0.0894158 0
M  V30 4883 H 464.317 3.40123 -1.86917 0
M  V30 4884 H 462.418 3.68046 0.580735 0
M  V30 4885 H 462.531 4.68222 -1.01513 0
M  V30 4886 H 460.895 2.50788 -0.444712 0
M  V30 4887 H 461.678 2.71309 -2.10348 0
M  V30 4888 N 464.123 0.554532 1.47522 0
M  V30 4889 C 465.053 -0.182974 2.32782 0
M  V30 4890 C 466.034 -0.911377 1.43624 0
M  V30 4891 O 467.219 -0.892366 1.72483 0
M  V30 4892 C 464.349 -1.21513 3.25349 0
M  V30 4893 C 463.303 -0.603355 4.23726 0
M  V30 4894 C 462.629 -1.73995 5.05598 0
M  V30 4895 C 463.929 0.441121 5.20434 0
M  V30 4896 H 465.623 0.52882 2.94693 0
M  V30 4897 H 463.169 0.255759 1.41711 0
M  V30 4898 H 465.122 -1.73922 3.83835 0
M  V30 4899 H 463.846 -1.95683 2.61487 0
M  V30 4900 H 462.505 -0.10059 3.66462 0
M  V30 4901 H 462.153 -2.47063 4.38143 0
M  V30 4902 H 461.853 -1.3364 5.72201 0
M  V30 4903 H 463.377 -2.26735 5.66942 0
M  V30 4904 H 464.791 0.00319931 5.733 0
M  V30 4905 H 463.188 0.763402 5.95224 0
M  V30 4906 H 464.258 1.33799 4.66075 0
M  V30 4907 N 465.601 -1.54893 0.290851 0
M  V30 4908 C 466.533 -2.20564 -0.623236 0
M  V30 4909 C 467.546 -1.19519 -1.1054 0
M  V30 4910 O 468.735 -1.46165 -1.02459 0
M  V30 4911 C 465.835 -2.83033 -1.86401 0
M  V30 4912 C 465.008 -4.09916 -1.52604 0
M  V30 4913 C 464.067 -4.56284 -2.62091 0
M  V30 4914 O 463.093 -5.2171 -2.27612 0
M  V30 4915 N 464.295 -4.27746 -3.92446 0
M  V30 4916 H 467.06 -2.99638 -0.0610915 0
M  V30 4917 H 464.621 -1.61508 0.112615 0
M  V30 4918 H 466.613 -3.1099 -2.58973 0
M  V30 4919 H 465.183 -2.0786 -2.33481 0
M  V30 4920 H 464.403 -3.89078 -0.633424 0
M  V30 4921 H 465.691 -4.92554 -1.27547 0
M  V30 4922 H 465.089 -3.7531 -4.23272 0
M  V30 4923 H 463.646 -4.60437 -4.61347 0
M  V30 4924 N 467.08 -0.0183926 -1.57589 0
M  V30 4925 C 468.491 0.521927 -1.79256 0
M  V30 4926 C 468.842 1.72885 -0.927636 0
M  V30 4927 O 467.967 2.15978 -0.135091 0
M  V30 4928 C 468.562 0.953632 -3.25102 0
M  V30 4929 C 467.121 1.43913 -3.47801 0
M  V30 4930 C 466.268 0.398837 -2.74417 0
M  V30 4931 H 469.219 -0.244485 -1.56805 0
M  V30 4932 H 469.24 1.81863 -3.34224 0
M  V30 4933 H 468.752 0.0750123 -3.88028 0
M  V30 4934 H 466.853 2.33804 -2.90115 0
M  V30 4935 H 466.966 1.45391 -4.56507 0
M  V30 4936 H 465.33 0.864572 -2.39577 0
M  V30 4937 H 466.113 -0.471132 -3.40052 0
M  V30 4938 N 468.558 1.5553 0.254621 0
M  V30 4939 C 469.974 1.4778 0.602753 0
M  V30 4940 C 470.174 0.707047 1.88688 0
M  V30 4941 O 469.23 0.233288 2.5142 0
M  V30 4942 C 470.543 2.92133 0.712648 0
M  V30 4943 C 472.091 3.02458 0.805488 0
M  V30 4944 C 472.566 4.48102 0.947009 0
M  V30 4945 N 474.057 4.52008 1.01207 0
M  V30 4946 C 474.792 5.61939 1.1407 0
M  V30 4947 N 474.288 6.81697 1.23536 0
M  V30 4948 N 476.081 5.49719 1.17325 0
M  V30 4949 H 468.232 2.04085 -0.588463 0
M  V30 4950 H 470.495 0.926229 -0.202001 0
M  V30 4951 H 470.201 3.51332 -0.160766 0
M  V30 4952 H 470.075 3.42187 1.58707 0
M  V30 4953 H 472.462 2.43344 1.66936 0
M  V30 4954 H 472.543 2.55627 -0.0939266 0
M  V30 4955 H 472.187 5.07824 0.087725 0
M  V30 4956 H 472.117 4.92607 1.86135 0
M  V30 4957 H 474.608 3.65749 0.950577 0
M  V30 4958 H 474.921 7.61228 1.33236 0
M  V30 4959 H 473.266 6.84473 1.20508 0
M  V30 4960 H 476.457 4.55095 1.09573 0
M  V30 4961 H 476.63 6.35432 1.27005 0
M  V30 4962 N 470.036 -0.519951 1.48776 0
M  V30 4963 C 471.284 -1.2727 1.56993 0
M  V30 4964 C 471.605 -1.9339 0.25004 0
M  V30 4965 O 470.875 -1.81822 -0.729216 0
M  V30 4966 H 469.455 -0.472732 0.578389 0
M  V30 4967 H 472.117 -0.604234 1.85297 0
M  V30 4968 H 471.213 -2.04669 2.3562 0
M  V30 4969 N 471.514 -1.37532 -0.769588 0
M  V30 4970 C 472.76 -1.33057 -1.53048 0
M  V30 4971 C 473.093 0.0841865 -1.94017 0
M  V30 4972 O 472.368 1.04198 -1.64235 0
M  V30 4973 C 472.651 -2.27166 -2.79406 0
M  V30 4974 C 472.504 -3.77429 -2.44677 0
M  V30 4975 C 473.823 -2.19683 -3.81349 0
M  V30 4976 H 470.942 -0.484655 -0.555228 0
M  V30 4977 H 473.584 -1.68251 -0.882702 0
M  V30 4978 H 471.734 -1.97283 -3.34682 0
M  V30 4979 H 473.406 -4.17918 -1.953 0
M  V30 4980 H 471.649 -3.95892 -1.77346 0
M  V30 4981 H 472.32 -4.38716 -3.35011 0
M  V30 4982 H 474.796 -2.46029 -3.35573 0
M  V30 4983 H 473.672 -2.87668 -4.67481 0
M  V30 4984 H 473.933 -1.19045 -4.25771 0
M  V30 4985 N 472.992 0.995999 -1.22138 0
M  V30 4986 C 474.403 1.54961 -1.04135 0
M  V30 4987 C 474.754 1.92159 0.396147 0
M  V30 4988 O 473.879 1.74435 1.28069 0
M  V30 4989 C 474.474 2.81581 -1.88408 0
M  V30 4990 C 473.033 3.33396 -1.74712 0
M  V30 4991 C 472.18 2.06509 -1.85066 0
M  V30 4992 H 475.131 0.817436 -1.36028 0
M  V30 4993 H 475.152 3.53822 -1.39966 0
M  V30 4994 H 474.664 2.54476 -2.93025 0
M  V30 4995 H 472.765 3.65416 -0.728159 0
M  V30 4996 H 472.878 4.04208 -2.57202 0
M  V30 4997 H 471.242 2.19925 -1.28472 0
M  V30 4998 H 472.025 1.81804 -2.91208 0
M  V30 4999 N 474.47 1.03057 1.19235 0
M  V30 5000 C 475.4 0.633497 2.24742 0
M  V30 5001 C 476.381 -0.358335 1.66283 0
M  V30 5002 O 477.566 -0.240676 1.92703 0
M  V30 5003 C 474.696 -0.0147648 3.47297 0
M  V30 5004 C 473.65 0.899527 4.18441 0
M  V30 5005 C 472.976 0.116281 5.34574 0
M  V30 5006 C 474.276 2.21404 4.73051 0
M  V30 5007 H 475.97 1.5155 2.58211 0
M  V30 5008 H 473.516 0.73014 1.24117 0
M  V30 5009 H 475.469 -0.304202 4.20301 0
M  V30 5010 H 474.193 -0.931577 3.13032 0
M  V30 5011 H 472.852 1.17319 3.47321 0
M  V30 5012 H 472.5 -0.802619 4.96555 0
M  V30 5013 H 472.2 0.725293 5.83107 0
M  V30 5014 H 473.724 -0.166376 6.10373 0
M  V30 5015 H 475.138 1.98601 5.37802 0
M  V30 5016 H 473.535 2.77512 5.32078 0
M  V30 5017 H 474.605 2.86752 3.91026 0
M  V30 5018 N 475.948 -1.35272 0.808662 0
M  V30 5019 C 477.364 -1.51806 0.492653 0
M  V30 5020 C 477.564 -1.7574 -0.985778 0
M  V30 5021 O 476.62 -1.80003 -1.77074 0
M  V30 5022 C 477.933 -2.69202 1.33981 0
M  V30 5023 C 479.481 -2.8308 1.33547 0
M  V30 5024 C 479.956 -4.03502 2.16679 0
M  V30 5025 N 481.447 -4.10684 2.14227 0
M  V30 5026 C 482.182 -5.02984 2.75308 0
M  V30 5027 N 481.678 -6.00603 3.45323 0
M  V30 5028 N 483.471 -4.95746 2.64938 0
M  V30 5029 H 475.622 -1.17993 1.76611 0
M  V30 5030 H 477.885 -0.577476 0.751814 0
M  V30 5031 H 477.591 -2.581 2.38909 0
M  V30 5032 H 477.465 -3.63854 0.994491 0
M  V30 5033 H 479.852 -2.93631 0.294036 0
M  V30 5034 H 479.933 -1.89278 1.72068 0
M  V30 5035 H 479.577 -3.93711 3.20864 0
M  V30 5036 H 479.507 -4.96489 1.75517 0
M  V30 5037 H 481.998 -3.40802 1.63285 0
M  V30 5038 H 482.311 -6.67633 3.89212 0
M  V30 5039 H 480.656 -6.0077 3.49428 0
M  V30 5040 H 483.847 -4.18439 2.09825 0
M  V30 5041 H 484.02 -5.67487 3.12829 0
M  V30 5042 N 477.426 -0.562348 -1.47226 0
M  V30 5043 C 478.336 0.185466 -2.33866 0
M  V30 5044 C 479.352 0.906713 -1.48508 0
M  V30 5045 O 480.528 0.874458 -1.81425 0
M  V30 5046 C 477.593 1.19904 -3.25306 0
M  V30 5047 C 476.654 0.484669 -4.26555 0
M  V30 5048 C 475.887 1.44996 -5.13626 0
M  V30 5049 O 476.11 2.68515 -5.03245 0
M  V30 5050 O 475.044 0.971642 -5.94006 0
M  V30 5051 H 478.87 -0.525361 -2.99121 0
M  V30 5052 H 476.455 -0.322916 -1.45868 0
M  V30 5053 H 478.337 1.78399 -3.81774 0
M  V30 5054 H 477.012 1.8917 -2.62672 0
M  V30 5055 H 475.919 -0.141605 -3.73832 0
M  V30 5056 H 477.252 -0.166634 -4.91918 0
M  V30 5057 N 478.904 1.54736 -0.299062 0
M  V30 5058 C 479.851 2.23448 0.577899 0
M  V30 5059 C 480.821 1.21637 1.13109 0
M  V30 5060 O 482.006 1.50252 1.17597 0
M  V30 5061 C 479.146 2.9774 1.74484 0
M  V30 5062 C 478.259 4.1432 1.22323 0
M  V30 5063 C 477.394 4.76199 2.35388 0
M  V30 5064 C 476.433 5.84927 1.80351 0
M  V30 5065 N 475.57 6.4077 2.86982 0
M  V30 5066 H 480.41 2.97996 -0.0146545 0
M  V30 5067 H 477.947 1.47088 -0.0190013 0
M  V30 5068 H 479.905 3.39045 2.43114 0
M  V30 5069 H 478.535 2.25572 2.30905 0
M  V30 5070 H 477.587 3.7797 0.429249 0
M  V30 5071 H 478.899 4.92659 0.780309 0
M  V30 5072 H 478.053 5.20346 3.11969 0
M  V30 5073 H 476.792 3.97188 2.83006 0
M  V30 5074 H 475.797 5.40207 1.02259 0
M  V30 5075 H 477.022 6.65821 1.3364 0
M  V30 5076 H 474.968 5.64643 3.33938 0
M  V30 5077 H 474.885 7.1445 2.4718 0
M  V30 5078 H 476.153 6.89574 3.63466 0
M  V30 5079 N 480.382 0.0267497 1.57577 0
M  V30 5080 C 481.329 -0.955894 2.10075 0
M  V30 5081 C 482.299 -1.32453 1.00226 0
M  V30 5082 O 483.484 -1.41826 1.27632 0
M  V30 5083 C 480.624 -2.2338 2.6305 0
M  V30 5084 C 479.737 -1.92183 3.86898 0
M  V30 5085 C 478.872 -3.14251 4.28275 0
M  V30 5086 C 477.911 -2.78862 5.44888 0
M  V30 5087 N 477.048 -3.93548 5.81433 0
M  V30 5088 H 481.888 -0.501303 2.93753 0
M  V30 5089 H 479.425 -0.235847 1.45197 0
M  V30 5090 H 481.383 -2.98124 2.91853 0
M  V30 5091 H 480.013 -2.6646 1.82205 0
M  V30 5092 H 479.065 -1.07692 3.64838 0
M  V30 5093 H 480.377 -1.62117 4.7172 0
M  V30 5094 H 479.531 -3.97317 4.58502 0
M  V30 5095 H 478.27 -3.47476 3.42215 0
M  V30 5096 H 477.275 -1.94208 5.14357 0
M  V30 5097 H 478.5 -2.46855 6.32645 0
M  V30 5098 H 476.446 -4.2662 4.98328 0
M  V30 5099 H 476.363 -3.67098 6.6089 0
M  V30 5100 H 477.631 -4.77325 6.16264 0
M  V30 5101 N 481.861 -1.55662 -0.24637 0
M  V30 5102 C 482.824 -1.89558 -1.28842 0
M  V30 5103 C 483.824 -0.772082 -1.41052 0
M  V30 5104 O 485.014 -1.04007 -1.39743 0
M  V30 5105 C 482.146 -2.12449 -2.66605 0
M  V30 5106 H 483.339 -2.82735 -1.00004 0
M  V30 5107 H 480.892 -1.48562 -0.485684 0
M  V30 5108 H 481.627 -1.21742 -3.00582 0
M  V30 5109 H 481.412 -2.94273 -2.59125 0
M  V30 5110 H 482.902 -2.39854 -3.41847 0
M  V30 5111 N 483.339 0.512053 -1.4905 0
M  V30 5112 C 484.567 1.29116 -1.61669 0
M  V30 5113 C 484.982 1.86655 -0.283787 0
M  V30 5114 O 484.339 1.67293 0.729331 0
M  V30 5115 C 484.39 2.4293 -2.67707 0
M  V30 5116 O 484.111 1.87758 -3.95826 0
M  V30 5117 C 485.612 3.34476 -2.90931 0
M  V30 5118 H 482.832 0.392009 -0.544583 0
M  V30 5119 H 485.376 0.615881 -1.95006 0
M  V30 5120 H 483.531 3.06308 -2.37179 0
M  V30 5121 H 483.945 2.62393 -4.54148 0
M  V30 5122 H 485.419 4.10642 -3.68886 0
M  V30 5123 H 485.896 3.90801 -2.00427 0
M  V30 5124 H 486.502 2.76874 -3.22832 0
M  V30 5125 N 484.817 1.37938 0.762283 0
M  V30 5126 C 485.749 1.30349 1.88525 0
M  V30 5127 C 486.762 0.217402 1.61342 0
M  V30 5128 O 487.951 0.474291 1.72084 0
M  V30 5129 C 485.051 0.994844 3.23969 0
M  V30 5130 C 484.224 2.18829 3.78725 0
M  V30 5131 C 483.283 1.84844 4.92665 0
M  V30 5132 O 482.309 2.57244 5.07754 0
M  V30 5133 N 483.511 0.798201 5.74986 0
M  V30 5134 H 486.276 2.27114 1.95549 0
M  V30 5135 H 483.837 1.31686 0.941825 0
M  V30 5136 H 485.829 0.748168 3.97724 0
M  V30 5137 H 484.399 0.115446 3.12387 0
M  V30 5138 H 483.619 2.59615 2.96637 0
M  V30 5139 H 484.907 2.98497 4.1204 0
M  V30 5140 H 484.305 0.197611 5.65355 0
M  V30 5141 H 482.862 0.611396 6.48926 0
M  V30 5142 N 486.295 -0.989507 1.22664 0
M  V30 5143 C 487.228 -2.07805 0.942985 0
M  V30 5144 C 488.206 -1.6219 -0.115356 0
M  V30 5145 O 489.39 -1.88492 0.0169565 0
M  V30 5146 C 486.517 -3.361 0.418898 0
M  V30 5147 C 485.563 -4.00643 1.46244 0
M  V30 5148 S 486.396 -4.41059 3.03689 0
M  V30 5149 C 487.552 -5.7252 2.52927 0
M  V30 5150 H 487.785 -2.31547 1.86476 0
M  V30 5151 H 485.318 -1.12446 1.05808 0
M  V30 5152 H 487.276 -4.10315 0.123114 0
M  V30 5153 H 485.937 -3.10383 -0.481818 0
M  V30 5154 H 485.13 -4.93033 1.04569 0
M  V30 5155 H 484.732 -3.32767 1.7071 0
M  V30 5156 H 487.024 -6.49017 1.94379 0
M  V30 5157 H 487.967 -6.19026 3.4382 0
M  V30 5158 H 488.375 -5.30083 1.94094 0
M  V30 5159 N 487.773 -1.03688 -1.18687 0
M  V30 5160 C 489.019 -0.739123 -1.88851 0
M  V30 5161 C 489.352 0.731042 -1.79915 0
M  V30 5162 O 488.627 1.53313 -1.19688 0
M  V30 5163 C 488.91 -1.20106 -3.3948 0
M  V30 5164 C 488.763 -2.73304 -3.57246 0
M  V30 5165 C 490.082 -0.788134 -4.32986 0
M  V30 5166 H 487.201 -0.269978 -0.68577 0
M  V30 5167 H 489.843 -1.28822 -1.3966 0
M  V30 5168 H 487.993 -0.733915 -3.81505 0
M  V30 5169 H 489.665 -3.28027 -3.24339 0
M  V30 5170 H 487.908 -3.13313 -3.00029 0
M  V30 5171 H 488.579 -3.00684 -4.62918 0
M  V30 5172 H 491.055 -1.19005 -3.98719 0
M  V30 5173 H 489.931 -1.13915 -5.36949 0
M  V30 5174 H 490.192 0.308988 -4.41019 0
M  V30 5175 N 489.251 1.34841 -0.815825 0
M  V30 5176 C 490.214 2.27959 -0.238185 0
M  V30 5177 C 491.214 1.49983 0.579816 0
M  V30 5178 O 492.404 1.69617 0.396953 0
M  V30 5179 C 489.536 3.34314 0.666876 0
M  V30 5180 H 490.729 2.80558 -1.05958 0
M  V30 5181 H 488.282 1.44852 -0.587156 0
M  V30 5182 H 489.017 2.86916 1.5116 0
M  V30 5183 H 488.802 3.92014 0.0819106 0
M  V30 5184 H 490.292 4.0379 1.06506 0
M  V30 5185 N 490.729 0.570148 1.46925 0
M  V30 5186 C 491.978 0.0487352 2.01641 0
M  V30 5187 C 492.291 -1.31433 1.44861 0
M  V30 5188 O 493.497 -1.92638 1.91318 0
M  V30 5189 C 491.953 0.0365817 3.59881 0
M  V30 5190 C 491.561 1.39719 4.25655 0
M  V30 5191 C 493.305 -0.431545 4.22301 0
M  V30 5192 C 491.212 1.34345 5.75939 0
M  V30 5193 H 490.142 0.0144492 0.753862 0
M  V30 5194 H 492.793 0.719928 1.68788 0
M  V30 5195 H 491.175 -0.700522 3.89755 0
M  V30 5196 H 492.349 2.15303 4.07408 0
M  V30 5197 H 490.664 1.80431 3.75278 0
M  V30 5198 H 493.261 -0.490354 5.32447 0
M  V30 5199 H 493.604 -1.44638 3.90366 0
M  V30 5200 H 494.137 0.251102 3.97007 0
M  V30 5201 H 490.876 2.33469 6.12513 0
M  V30 5202 H 490.396 0.629615 5.96486 0
M  V30 5203 H 492.075 1.051 6.38407 0
M  V30 5204 N 492.207 -1.54576 0.307264 0
M  V30 5205 C 493.453 -2.0056 -0.300612 0
M  V30 5206 C 493.786 -1.1953 -1.53057 0
M  V30 5207 O 493.061 -0.27337 -1.92569 0
M  V30 5208 C 493.344 -3.54167 -0.650987 0
M  V30 5209 C 493.197 -4.45933 0.588539 0
M  V30 5210 C 494.516 -4.14645 -1.47506 0
M  V30 5211 H 491.635 -0.729075 -0.107788 0
M  V30 5212 H 494.277 -1.85286 0.420606 0
M  V30 5213 H 492.427 -3.67313 -1.26544 0
M  V30 5214 H 494.099 -4.44683 1.22697 0
M  V30 5215 H 492.342 -4.16274 1.22058 0
M  V30 5216 H 493.013 -5.51189 0.299153 0
M  V30 5217 H 495.489 -4.04973 -0.955821 0
M  V30 5218 H 494.365 -5.22269 -1.68899 0
M  V30 5219 H 494.626 -3.66921 -2.4662 0
M  V30 5220 N 493.685 -0.035106 -1.57561 0
M  V30 5221 C 494.615 0.942993 -2.13612 0
M  V30 5222 C 495.596 1.33531 -1.05373 0
M  V30 5223 O 496.781 1.41287 -1.33235 0
M  V30 5224 C 493.911 2.22332 -2.66807 0
M  V30 5225 C 492.865 1.97156 -3.79886 0
M  V30 5226 C 492.191 3.31506 -4.19533 0
M  V30 5227 C 493.491 1.30596 -5.05709 0
M  V30 5228 H 495.185 0.476179 -2.95589 0
M  V30 5229 H 492.731 0.227602 -1.4219 0
M  V30 5230 H 494.684 2.91142 -3.04654 0
M  V30 5231 H 493.408 2.7119 -1.81999 0
M  V30 5232 H 492.067 1.30763 -3.42486 0
M  V30 5233 H 491.715 3.78134 -3.31698 0
M  V30 5234 H 491.415 3.15465 -4.95738 0
M  V30 5235 H 492.939 4.01574 -4.59968 0
M  V30 5236 H 494.353 1.89416 -5.41105 0
M  V30 5237 H 492.75 1.24934 -5.86951 0
M  V30 5238 H 493.82 0.279742 -4.84092 0
M  V30 5239 N 495.163 1.55791 0.238111 0
M  V30 5240 C 496.411 1.77681 0.963001 0
M  V30 5241 C 496.732 0.600674 1.85518 0
M  V30 5242 O 496.002 -0.383182 1.92116 0
M  V30 5243 H 494.582 0.655315 0.358568 0
M  V30 5244 H 497.244 1.93239 0.253945 0
M  V30 5245 H 496.34 2.69177 1.57956 0
M  V30 5246 N 496.642 -0.504142 1.49319 0
M  V30 5247 C 497.605 -1.5883 1.65244 0
M  V30 5248 C 498.605 -1.52009 0.524386 0
M  V30 5249 O 499.795 -1.55218 0.79077 0
M  V30 5250 C 496.927 -2.98481 1.64687 0
M  V30 5251 H 498.12 -1.4604 2.61939 0
M  V30 5252 H 495.673 -0.728144 1.38303 0
M  V30 5253 H 496.408 -3.16751 0.695644 0
M  V30 5254 H 496.193 -3.0484 2.46607 0
M  V30 5255 H 497.683 -3.77256 1.79075 0
M  V30 5256 N 498.12 -1.38341 -0.754957 0
M  V30 5257 C 499.367 -1.34473 -1.51404 0
M  V30 5258 C 499.695 0.0656458 -1.94389 0
M  V30 5259 O 498.95 1.04244 -1.65625 0
M  V30 5260 C 499.249 -2.2452 -2.78075 0
M  V30 5261 C 498.915 -3.72512 -2.54059 0
M  V30 5262 C 497.577 -4.1284 -2.47218 0
M  V30 5263 C 499.929 -4.66197 -2.33044 0
M  V30 5264 C 497.257 -5.44945 -2.17376 0
M  V30 5265 C 499.609 -5.98558 -2.04723 0
M  V30 5266 C 498.273 -6.37972 -1.96337 0
M  V30 5267 H 497.543 -0.492072 -0.554027 0
M  V30 5268 H 500.19 -1.70687 -0.868223 0
M  V30 5269 H 498.495 -1.81357 -3.473 0
M  V30 5270 H 500.192 -2.18832 -3.36026 0
M  V30 5271 H 496.782 -3.40538 -2.60253 0
M  V30 5272 H 500.966 -4.35888 -2.37309 0
M  V30 5273 H 496.222 -5.74426 -2.09391 0
M  V30 5274 H 500.396 -6.70693 -1.87465 0
M  V30 5275 H 498.023 -7.40258 -1.72978 0
M  V30 5276 N 499.598 0.982988 -1.23187 0
M  V30 5277 C 500.847 1.71817 -1.05649 0
M  V30 5278 C 501.16 1.91315 0.407176 0
M  V30 5279 O 502.366 2.62256 0.702436 0
M  V30 5280 C 500.822 3.09188 -1.84203 0
M  V30 5281 C 500.43 2.97586 -3.34882 0
M  V30 5282 C 502.174 3.86684 -1.75146 0
M  V30 5283 C 500.081 4.30173 -4.05839 0
M  V30 5284 H 499.011 0.644258 -0.391724 0
M  V30 5285 H 501.662 1.09659 -1.4713 0
M  V30 5286 H 500.044 3.72087 -1.35527 0
M  V30 5287 H 501.218 2.43793 -3.91026 0
M  V30 5288 H 499.533 2.33567 -3.44725 0
M  V30 5289 H 502.13 4.84836 -2.25473 0
M  V30 5290 H 502.473 4.10136 -0.713737 0
M  V30 5291 H 503.006 3.30482 -2.21419 0
M  V30 5292 H 499.745 4.11918 -5.09906 0
M  V30 5293 H 499.265 4.83841 -3.54482 0
M  V30 5294 H 500.944 4.98873 -4.11989 0
M  V30 5295 N 501.076 1.04316 1.18135 0
M  V30 5296 C 502.322 0.749128 1.88457 0
M  V30 5297 C 502.655 -0.72149 1.803 0
M  V30 5298 O 501.93 -1.52676 1.205 0
M  V30 5299 C 502.213 1.21905 3.38838 0
M  V30 5300 C 502.066 2.75195 3.55792 0
M  V30 5301 C 503.385 0.811085 4.32561 0
M  V30 5302 H 500.504 0.273611 0.684329 0
M  V30 5303 H 503.146 1.29561 1.38975 0
M  V30 5304 H 501.296 0.754137 3.8111 0
M  V30 5305 H 502.968 3.29743 3.22595 0
M  V30 5306 H 501.211 3.14899 2.98364 0
M  V30 5307 H 501.882 3.03135 4.61317 0
M  V30 5308 H 504.358 1.21118 3.98082 0
M  V30 5309 H 503.234 1.16761 5.36338 0
M  V30 5310 H 503.495 -0.285596 4.41177 0
M  V30 5311 N 502.554 -1.34406 0.822964 0
M  V30 5312 C 503.794 -2.00103 0.416915 0
M  V30 5313 C 504.158 -1.63826 -1.00125 0
M  V30 5314 O 505.359 -2.22367 -1.51018 0
M  V30 5315 C 503.63 -3.52101 0.613151 0
M  V30 5316 S 505.189 -4.37774 0.299956 0
M  V30 5317 H 502.007 -0.69333 0.157527 0
M  V30 5318 H 504.609 -1.63698 1.06879 0
M  V30 5319 H 503.313 -3.75991 1.64496 0
M  V30 5320 H 502.844 -3.93364 -0.0534554 0
M  V30 5321 H 504.859 -4.8822 -0.886336 0
M  V30 5322 N 504.032 -0.577932 -1.46621 0
M  V30 5323 C 505.278 -0.0700937 -2.03279 0
M  V30 5324 C 505.633 1.27376 -1.44198 0
M  V30 5325 O 504.926 1.82097 -0.595911 0
M  V30 5326 C 505.12 0.0590832 -3.57351 0
M  V30 5327 C 504.949 -1.2707 -4.31374 0
M  V30 5328 C 503.719 -1.84357 -4.70469 0
M  V30 5329 C 505.917 -2.19278 -4.65211 0
M  V30 5330 N 503.899 -3.11124 -5.29221 0
M  V30 5331 C 505.27 -3.30631 -5.24484 0
M  V30 5332 C 507.325 -2.19018 -4.47142 0
M  V30 5333 C 506.028 -4.41849 -5.67593 0
M  V30 5334 C 508.054 -3.29262 -4.91264 0
M  V30 5335 C 507.416 -4.39335 -5.50604 0
M  V30 5336 H 503.515 -0.0683127 -0.779011 0
M  V30 5337 H 506.099 -0.76978 -1.78836 0
M  V30 5338 H 504.27 0.727929 -3.81518 0
M  V30 5339 H 506.002 0.57087 -4.00653 0
M  V30 5340 H 502.757 -1.37906 -4.53077 0
M  V30 5341 H 503.181 -3.75794 -5.63123 0
M  V30 5342 H 507.823 -1.35191 -4.00604 0
M  V30 5343 H 505.541 -5.26421 -6.13112 0
M  V30 5344 H 509.127 -3.30172 -4.79038 0
M  V30 5345 H 508.007 -5.23233 -5.84121 0
M  V30 5346 N 505.51 1.54411 -0.315457 0
M  V30 5347 C 506.44 2.27002 0.547039 0
M  V30 5348 C 507.421 1.27492 1.12605 0
M  V30 5349 O 508.606 1.5629 1.15269 0
M  V30 5350 C 505.736 3.02171 1.71201 0
M  V30 5351 C 504.69 4.0895 1.26268 0
M  V30 5352 C 504.016 4.71915 2.51396 0
M  V30 5353 C 505.316 5.20891 0.383419 0
M  V30 5354 H 507.01 2.99343 -0.0584517 0
M  V30 5355 H 504.556 1.4397 -0.0295527 0
M  V30 5356 H 506.509 3.51681 2.32161 0
M  V30 5357 H 505.233 2.27433 2.34397 0
M  V30 5358 H 503.892 3.60312 0.676062 0
M  V30 5359 H 503.54 3.93801 3.12937 0
M  V30 5360 H 503.24 5.44039 2.22026 0
M  V30 5361 H 504.764 5.24195 3.13133 0
M  V30 5362 H 506.178 5.66206 0.899082 0
M  V30 5363 H 504.575 5.99821 0.182857 0
M  V30 5364 H 505.645 4.81324 -0.587821 0
M  V30 5365 N 506.988 0.0434614 1.5754 0
M  V30 5366 C 508.399 -0.493343 1.80064 0
M  V30 5367 C 508.75 -1.71388 0.955023 0
M  V30 5368 O 507.875 -2.15736 0.169434 0
M  V30 5369 C 508.47 -0.90179 3.26578 0
M  V30 5370 C 507.029 -1.38362 3.50047 0
M  V30 5371 C 506.176 -0.355129 2.75017 0
M  V30 5372 H 509.127 0.2694 1.56397 0
M  V30 5373 H 509.148 -1.76523 3.37075 0
M  V30 5374 H 508.66 -0.013271 3.88098 0
M  V30 5375 H 506.761 -2.29159 2.93798 0
M  V30 5376 H 506.874 -1.3811 4.58762 0
M  V30 5377 H 505.238 -0.826348 2.40922 0
M  V30 5378 H 506.021 0.525172 3.39259 0
M  V30 5379 N 508.466 -1.55915 -0.229846 0
M  V30 5380 C 509.713 -1.78542 -0.955452 0
M  V30 5381 C 510.041 -0.610785 -1.84661 0
M  V30 5382 O 509.296 0.405213 -1.91459 0
M  V30 5383 C 509.595 -3.06845 -1.8325 0
M  V30 5384 C 509.261 -4.37395 -1.09528 0
M  V30 5385 C 507.923 -4.72868 -0.891598 0
M  V30 5386 C 510.275 -5.18029 -0.574046 0
M  V30 5387 C 507.603 -5.86496 -0.154655 0
M  V30 5388 C 509.955 -6.32423 0.149513 0
M  V30 5389 C 508.619 -6.66504 0.364519 0
M  V30 5390 H 507.889 -0.653333 -0.349625 0
M  V30 5391 H 510.536 -1.90183 -0.224235 0
M  V30 5392 H 508.841 -2.90291 -2.63132 0
M  V30 5393 H 510.538 -3.21553 -2.39592 0
M  V30 5394 H 507.128 -4.09538 -1.26399 0
M  V30 5395 H 511.312 -4.91066 -0.718899 0
M  V30 5396 H 506.568 -6.11396 0.0222356 0
M  V30 5397 H 510.742 -6.94137 0.560947 0
M  V30 5398 H 508.369 -7.54397 0.937495 0
M  V30 5399 N 509.944 0.496216 -1.49584 0
M  V30 5400 C 511.191 1.25003 -1.59312 0
M  V30 5401 C 511.519 1.92445 -0.28198 0
M  V30 5402 O 510.774 1.81557 0.730452 0
M  V30 5403 C 511.073 2.3359 -2.705 0
M  V30 5404 C 510.739 1.83574 -4.11839 0
M  V30 5405 C 509.401 1.69653 -4.50302 0
M  V30 5406 C 511.753 1.46193 -5.00277 0
M  V30 5407 C 509.081 1.16736 -5.74969 0
M  V30 5408 C 511.433 0.947265 -6.25468 0
M  V30 5409 C 510.097 0.794485 -6.62755 0
M  V30 5410 H 509.367 0.45742 -0.582965 0
M  V30 5411 H 512.014 0.549996 -1.83432 0
M  V30 5412 H 510.319 3.09401 -2.40371 0
M  V30 5413 H 512.016 2.91627 -2.75235 0
M  V30 5414 H 508.606 1.9537 -3.81482 0
M  V30 5415 H 512.79 1.55793 -4.71214 0
M  V30 5416 H 508.046 1.03623 -6.02555 0
M  V30 5417 H 512.22 0.648846 -6.93371 0
M  V30 5418 H 509.847 0.382271 -7.59238 0
M  V30 5419 N 511.423 1.38739 0.74761 0
M  V30 5420 C 512.353 1.39173 1.87492 0
M  V30 5421 C 513.334 0.256794 1.6815 0
M  V30 5422 O 514.519 0.460762 1.88655 0
M  V30 5423 C 511.649 1.22197 3.25093 0
M  V30 5424 C 510.603 2.32957 3.59047 0
M  V30 5425 C 509.929 2.01082 4.95449 0
M  V30 5426 C 511.229 3.75237 3.6331 0
M  V30 5427 H 512.923 2.3351 1.87386 0
M  V30 5428 H 510.469 1.12399 0.900134 0
M  V30 5429 H 512.422 1.21124 4.03617 0
M  V30 5430 H 511.146 0.243241 3.25693 0
M  V30 5431 H 509.805 2.33226 2.82845 0
M  V30 5432 H 509.453 1.01678 4.92616 0
M  V30 5433 H 509.153 2.75267 5.19136 0
M  V30 5434 H 510.677 2.01638 5.76346 0
M  V30 5435 H 512.091 3.76966 4.31937 0
M  V30 5436 H 510.488 4.48677 3.98509 0
M  V30 5437 H 511.558 4.07122 2.634 0
M  V30 5438 N 512.901 -0.976442 1.23707 0
M  V30 5439 C 514.129 -1.75341 1.09833 0
M  V30 5440 C 514.544 -1.8553 -0.349885 0
M  V30 5441 O 513.901 -1.33732 -1.24185 0
M  V30 5442 C 513.952 -3.17833 1.72233 0
M  V30 5443 O 513.673 -3.08167 3.11391 0
M  V30 5444 C 515.174 -4.11906 1.63853 0
M  V30 5445 H 512.394 -0.550137 0.384175 0
M  V30 5446 H 514.938 -1.2265 1.63638 0
M  V30 5447 H 513.093 -3.67538 1.22452 0
M  V30 5448 H 513.507 -3.97897 3.41729 0
M  V30 5449 H 514.981 -5.09579 2.12211 0
M  V30 5450 H 515.458 -4.35109 0.598092 0
M  V30 5451 H 516.064 -3.68107 2.13019 0
M  V30 5452 N 514.379 -1.04941 -1.1758 0
M  V30 5453 C 515.329 -0.618378 -2.19454 0
M  V30 5454 C 516.313 0.343813 -1.57184 0
M  V30 5455 O 517.505 0.16145 -1.76262 0
M  V30 5456 C 514.634 0.00803847 -3.43299 0
M  V30 5457 C 513.72 -0.977827 -4.12673 0
M  V30 5458 N 514.111 -2.14826 -4.57912 0
M  V30 5459 C 512.409 -0.805748 -4.38661 0
M  V30 5460 C 513.11 -2.77174 -5.11419 0
M  V30 5461 N 512.086 -2.04989 -5.03468 0
M  V30 5462 H 515.888 -1.51018 -2.52132 0
M  V30 5463 H 513.402 -0.919201 -1.33882 0
M  V30 5464 H 515.399 0.334584 -4.15555 0
M  V30 5465 H 514.059 0.895272 -3.12114 0
M  V30 5466 H 515.07 -2.52673 -4.52081 0
M  V30 5467 H 511.747 0.0306506 -4.17489 0
M  V30 5468 H 513.137 -3.76416 -5.56562 0
M  V30 5469 N 515.857 1.33968 -0.830081 0
M  V30 5470 C 517.103 1.98357 -0.422191 0
M  V30 5471 C 517.436 1.65633 1.01387 0
M  V30 5472 O 516.711 0.931648 1.70735 0
M  V30 5473 C 516.994 3.54492 -0.633043 0
M  V30 5474 C 516.847 3.96934 -2.11574 0
M  V30 5475 C 518.166 4.40039 -0.0735584 0
M  V30 5476 H 515.285 0.720544 -0.154871 0
M  V30 5477 H 517.927 1.58749 -1.04397 0
M  V30 5478 H 516.077 3.88361 -0.103775 0
M  V30 5479 H 517.749 3.73363 -2.7092 0
M  V30 5480 H 515.992 3.46984 -2.60354 0
M  V30 5481 H 516.663 5.05651 -2.21406 0
M  V30 5482 H 519.139 4.12764 -0.52585 0
M  V30 5483 H 518.015 5.48327 -0.250841 0
M  V30 5484 H 518.276 4.30124 1.02202 0
M  V30 5485 N 517.335 0.585699 1.46312 0
M  V30 5486 C 518.265 -0.133556 2.33118 0
M  V30 5487 C 519.246 -0.880707 1.45525 0
M  V30 5488 O 520.431 -0.855579 1.74337 0
M  V30 5489 C 517.561 -1.14585 3.27853 0
M  V30 5490 C 516.515 -0.513341 4.2491 0
M  V30 5491 C 515.841 -1.63231 5.09175 0
M  V30 5492 C 517.141 0.551413 5.19381 0
M  V30 5493 H 518.835 0.59121 2.93505 0
M  V30 5494 H 516.381 0.285761 1.41136 0
M  V30 5495 H 518.334 -1.65741 3.87438 0
M  V30 5496 H 517.058 -1.90093 2.65579 0
M  V30 5497 H 515.717 -0.0228349 3.66593 0
M  V30 5498 H 515.365 -2.37713 4.43285 0
M  V30 5499 H 515.065 -1.21473 5.74907 0
M  V30 5500 H 516.589 -2.14658 5.71624 0
M  V30 5501 H 518.003 0.124804 5.73164 0
M  V30 5502 H 516.4 0.889486 5.93471 0
M  V30 5503 H 517.47 1.43655 4.63132 0
M  V30 5504 N 518.813 -1.54241 0.323641 0
M  V30 5505 C 519.761 -2.25813 -0.557804 0
M  V30 5506 C 520.755 -1.27225 -1.11849 0
M  V30 5507 O 521.961 -1.45001 -1.06652 0
M  V30 5508 H 518.336 -0.72532 -0.198532 0
M  V30 5509 H 520.307 -2.98322 0.0681112 0
M  V30 5510 C 519.056 -3.02913 -1.70701 0
M  V30 5511 H 518.379 -3.78593 -1.28482 0
M  V30 5512 H 519.819 -3.56238 -2.29935 0
M  V30 5513 C 518.278 -2.11217 -2.62467 0
M  V30 5514 O 518.808 -1.69508 -3.64184 0
M  V30 5515 N 517.014 -1.76704 -2.30703 0
M  V30 5516 H 516.561 -2.1082 -1.48029 0
M  V30 5517 H 516.519 -1.15631 -2.92364 0
M  V30 5518 N 520.291 -0.0518155 -1.57515 0
M  V30 5519 C 521.519 0.631395 -1.9703 0
M  V30 5520 C 521.934 1.64341 -0.92938 0
M  V30 5521 O 521.291 1.82296 0.0863266 0
M  V30 5522 C 521.342 1.31774 -3.36627 0
M  V30 5523 O 521.063 0.346247 -4.3673 0
M  V30 5524 C 522.564 2.09065 -3.90905 0
M  V30 5525 H 519.784 0.172576 -0.648428 0
M  V30 5526 H 522.328 -0.118306 -2.04158 0
M  V30 5527 H 520.483 2.01867 -3.30649 0
M  V30 5528 H 520.897 0.836226 -5.17791 0
M  V30 5529 H 522.371 2.52508 -4.9086 0
M  V30 5530 H 522.848 2.93908 -3.26366 0
M  V30 5531 H 523.454 1.43882 -4.00223 0
M  V30 5532 N 521.769 1.56035 0.221574 0
M  V30 5533 C 522.719 1.8881 1.27807 0
M  V30 5534 C 523.703 0.751177 1.42289 0
M  V30 5535 O 524.895 1.01359 1.45104 0
M  V30 5536 C 522.024 2.20828 2.6285 0
M  V30 5537 C 521.11 3.40912 2.52269 0
M  V30 5538 N 521.501 4.59531 2.1134 0
M  V30 5539 C 519.799 3.44526 2.83228 0
M  V30 5540 C 520.5 5.41689 2.1201 0
M  V30 5541 N 519.476 4.814 2.52497 0
M  V30 5542 H 523.278 2.78036 0.952529 0
M  V30 5543 H 520.792 1.566 0.430134 0
M  V30 5544 H 522.789 2.42483 3.39127 0
M  V30 5545 H 521.449 1.32914 2.9625 0
M  V30 5546 H 522.46 4.8469 1.82472 0
M  V30 5547 H 519.137 2.66956 3.21 0
M  V30 5548 H 520.527 6.46643 1.82491 0
M  V30 5549 N 523.247 -0.488276 1.49845 0
M  V30 5550 C 524.487 -1.2516 1.61599 0
M  V30 5551 C 524.851 -1.89615 0.301706 0
M  V30 5552 O 526.052 -2.67182 0.29453 0
M  V30 5553 C 524.323 -2.2805 2.75187 0
M  V30 5554 S 525.882 -3.13552 3.0697 0
M  V30 5555 H 522.7 -0.425178 0.569864 0
M  V30 5556 H 525.302 -0.551545 1.87559 0
M  V30 5557 H 524.006 -1.7925 3.69185 0
M  V30 5558 H 523.537 -3.02708 2.5126 0
M  V30 5559 H 525.552 -4.28927 2.49471 0
M  V30 5560 N 524.725 -1.39134 -0.740242 0
M  V30 5561 C 525.657 -1.33332 -1.86428 0
M  V30 5562 C 526.67 -0.243042 -1.60976 0
M  V30 5563 O 527.859 -0.501608 -1.71307 0
M  V30 5564 C 524.959 -1.04626 -3.22346 0
M  V30 5565 C 524.132 -2.24826 -3.75196 0
M  V30 5566 C 523.191 -1.92659 -4.89662 0
M  V30 5567 O 522.217 -2.6529 -5.03597 0
M  V30 5568 N 523.419 -0.889575 -5.73643 0
M  V30 5569 H 526.184 -2.30196 -1.91911 0
M  V30 5570 H 523.745 -1.33168 -0.920756 0
M  V30 5571 H 525.737 -0.811347 -3.96484 0
M  V30 5572 H 524.307 -0.165129 -3.12164 0
M  V30 5573 H 523.527 -2.64301 -2.9247 0
M  V30 5574 H 524.815 -3.05015 -4.07239 0
M  V30 5575 H 524.213 -0.287529 -5.64969 0
M  V30 5576 H 522.77 -0.714557 -6.47871 0
M  V30 5577 N 526.204 0.969867 -1.24223 0
M  V30 5578 C 527.432 1.74756 -1.10761 0
M  V30 5579 C 527.847 1.85713 0.340041 0
M  V30 5580 O 527.204 1.34389 1.23474 0
M  V30 5581 C 527.255 3.16915 -1.73917 0
M  V30 5582 O 526.976 3.06511 -3.13021 0
M  V30 5583 C 528.477 4.11032 -1.66036 0
M  V30 5584 H 525.697 0.548092 -0.387087 0
M  V30 5585 H 528.241 1.2178 -1.64286 0
M  V30 5586 H 526.396 3.66884 -1.244 0
M  V30 5587 H 526.81 3.96079 -3.43834 0
M  V30 5588 H 528.284 5.08446 -2.14911 0
M  V30 5589 H 528.761 4.34785 -0.621159 0
M  V30 5590 H 529.367 3.66972 -2.14969 0
M  V30 5591 N 527.682 1.05563 1.17022 0
M  V30 5592 C 528.922 0.777033 1.89054 0
M  V30 5593 C 529.286 -0.683617 1.79418 0
M  V30 5594 O 530.487 -1.07648 2.46303 0
M  V30 5595 C 528.758 1.24886 3.34871 0
M  V30 5596 S 530.317 1.0982 4.24835 0
M  V30 5597 H 527.135 0.282082 0.652649 0
M  V30 5598 H 529.737 1.35103 1.41306 0
M  V30 5599 H 528.441 2.30699 3.3942 0
M  V30 5600 H 527.972 0.669292 3.87665 0
M  V30 5601 H 529.987 0.02462 4.96194 0
M  V30 5602 N 529.16 -1.33526 0.837174 0
M  V30 5603 C 530.11 -2.2672 0.241269 0
M  V30 5604 C 531.094 -1.49183 -0.602756 0
M  V30 5605 O 532.286 -1.71052 -0.455002 0
M  V30 5606 C 529.415 -3.38294 -0.584125 0
M  V30 5607 C 528.501 -4.23231 0.271315 0
M  V30 5608 N 528.892 -4.87473 1.34922 0
M  V30 5609 C 527.19 -4.45962 0.0580589 0
M  V30 5610 C 527.891 -5.50685 1.87405 0
M  V30 5611 N 526.867 -5.30732 1.17578 0
M  V30 5612 H 530.669 -2.73903 1.06558 0
M  V30 5613 H 528.183 -1.47411 0.68145 0
M  V30 5614 H 530.18 -4.04044 -1.02731 0
M  V30 5615 H 528.84 -2.9266 -1.40643 0
M  V30 5616 H 529.851 -4.88077 1.7321 0
M  V30 5617 H 526.528 -4.11052 -0.730938 0
M  V30 5618 H 527.918 -6.11845 2.77661 0
M  V30 5619 N 530.638 -0.59345 -1.46 0
M  V30 5620 C 531.884 -0.0832754 -2.02629 0
M  V30 5621 C 532.217 1.27749 -1.46266 0
M  V30 5622 O 531.492 1.8395 -0.631866 0
M  V30 5623 C 531.775 -0.0290756 -3.60088 0
M  V30 5624 C 531.628 -1.41951 -4.26814 0
M  V30 5625 C 532.947 0.666055 -4.35031 0
M  V30 5626 H 530.066 -0.031736 -0.736316 0
M  V30 5627 H 532.708 -0.762711 -1.74019 0
M  V30 5628 H 530.858 0.549532 -3.84594 0
M  V30 5629 H 532.53 -2.04411 -4.13538 0
M  V30 5630 H 530.773 -1.98422 -3.8576 0
M  V30 5631 H 531.444 -1.33395 -5.3564 0
M  V30 5632 H 533.92 0.174401 -4.15734 0
M  V30 5633 H 532.796 0.673041 -5.44758 0
M  V30 5634 H 533.057 1.72946 -4.06869 0
M  V30 5635 N 532.116 1.54067 -0.331816 0
M  V30 5636 C 533.341 2.05599 0.272705 0
M  V30 5637 C 533.766 1.2059 1.44359 0
M  V30 5638 O 533.124 0.216907 1.79998 0
M  V30 5639 C 533.172 3.54188 0.677021 0
M  V30 5640 O 532.276 3.72082 1.77844 0
M  V30 5641 H 531.617 0.662286 0.0476801 0
M  V30 5642 H 534.147 1.98826 -0.482624 0
M  V30 5643 H 534.157 3.96608 0.957415 0
M  V30 5644 H 532.832 4.15513 -0.179325 0
M  V30 5645 H 531.409 3.41566 1.49622 0
M  V30 5646 N 533.594 0.0601682 1.57485 0
M  V30 5647 C 535.005 -0.474217 1.80577 0
M  V30 5648 C 535.356 -1.70365 0.973147 0
M  V30 5649 O 534.481 -2.15544 0.192306 0
M  V30 5650 C 535.076 -0.867102 3.27516 0
M  V30 5651 C 533.635 -1.34642 3.51495 0
M  V30 5652 C 532.782 -0.32594 2.75378 0
M  V30 5653 H 535.733 0.285973 1.56102 0
M  V30 5654 H 535.754 -1.72938 3.38929 0
M  V30 5655 H 535.266 0.0278927 3.8809 0
M  V30 5656 H 533.367 -2.2603 2.96212 0
M  V30 5657 H 533.48 -1.33237 4.60201 0
M  V30 5658 H 531.844 -0.800749 2.41785 0
M  V30 5659 H 532.627 0.561125 3.38683 0
M  V30 5660 N 535.072 -1.5615 -0.213296 0
M  V30 5661 C 535.982 -1.96265 -1.28519 0
M  V30 5662 C 536.998 -0.86765 -1.50824 0
M  V30 5663 O 538.174 -1.17191 -1.63793 0
M  V30 5664 C 535.239 -2.27836 -2.61327 0
M  V30 5665 C 534.3 -3.50949 -2.47252 0
M  V30 5666 C 533.533 -3.81004 -3.73727 0
M  V30 5667 O 533.756 -3.12612 -4.77106 0
M  V30 5668 O 532.69 -4.74477 -3.70344 0
M  V30 5669 H 536.516 -2.87631 -0.974795 0
M  V30 5670 H 534.101 -1.43467 -0.416832 0
M  V30 5671 H 535.983 -2.49299 -3.39747 0
M  V30 5672 H 534.658 -1.39643 -2.9203 0
M  V30 5673 H 533.565 -3.34754 -1.67004 0
M  V30 5674 H 534.898 -4.39551 -2.21486 0
M  V30 5675 N 536.55 0.480323 -1.50102 0
M  V30 5676 C 537.48 1.58769 -1.71215 0
M  V30 5677 C 538.461 1.60583 -0.560997 0
M  V30 5678 O 539.646 1.76996 -0.799127 0
M  V30 5679 C 536.776 2.97148 -1.79778 0
M  V30 5680 C 535.73 3.10201 -2.94888 0
M  V30 5681 C 535.056 4.50137 -2.88584 0
M  V30 5682 C 536.356 2.88283 -4.35534 0
M  V30 5683 H 538.05 1.41354 -2.6393 0
M  V30 5684 H 535.596 0.678591 -1.27008 0
M  V30 5685 H 537.549 3.74536 -1.93133 0
M  V30 5686 H 536.273 3.15699 -0.836772 0
M  V30 5687 H 534.932 2.35244 -2.81169 0
M  V30 5688 H 534.58 4.65593 -1.90349 0
M  V30 5689 H 534.28 4.59808 -3.65856 0
M  V30 5690 H 535.804 5.29558 -3.03976 0
M  V30 5691 H 537.218 3.55427 -4.49827 0
M  V30 5692 H 535.615 3.09408 -5.14186 0
M  V30 5693 H 536.685 1.84219 -4.48544 0
M  V30 5694 N 538.028 1.39524 0.732853 0
M  V30 5695 C 539.258 1.3994 1.51988 0
M  V30 5696 C 539.666 -0.00727973 1.89199 0
M  V30 5697 O 539.009 -0.989521 1.54771 0
M  V30 5698 C 539.071 2.21026 2.83527 0
M  V30 5699 C 538.735 3.69633 2.68738 0
M  V30 5700 C 539.732 4.62665 2.37143 0
M  V30 5701 C 537.417 4.13244 2.85542 0
M  V30 5702 C 539.411 5.97291 2.22536 0
M  V30 5703 C 537.098 5.47945 2.70554 0
M  V30 5704 C 538.096 6.39783 2.39097 0
M  V30 5705 O 537.784 7.72002 2.24204 0
M  V30 5706 H 537.516 0.479795 0.476206 0
M  V30 5707 H 540.07 1.8399 0.913054 0
M  V30 5708 H 538.3 1.71728 3.46477 0
M  V30 5709 H 539.989 2.13594 3.45156 0
M  V30 5710 H 540.755 4.30272 2.2381 0
M  V30 5711 H 536.634 3.42094 3.09019 0
M  V30 5712 H 540.178 6.68939 1.97905 0
M  V30 5713 H 536.075 5.79928 2.83466 0
M  V30 5714 H 536.843 7.8275 2.39258 0
M  V30 5715 N 539.506 -0.963266 1.24736 0
M  V30 5716 C 540.731 -1.74699 1.11781 0
M  V30 5717 C 541.156 -1.85267 -0.325258 0
M  V30 5718 O 540.514 -1.32681 -1.23553 0
M  V30 5719 C 540.562 -3.14322 1.76731 0
M  V30 5720 O 539.666 -3.99043 1.04109 0
M  V30 5721 H 539.007 -0.53684 0.390767 0
M  V30 5722 H 541.537 -1.20801 1.65131 0
M  V30 5723 H 541.547 -3.64824 1.82668 0
M  V30 5724 H 540.222 -3.05946 2.81726 0
M  V30 5725 H 538.799 -3.5752 1.05991 0
M  V30 5726 N 540.985 -1.06182 -1.16461 0
M  V30 5727 C 541.948 -0.675723 -2.19013 0
M  V30 5728 C 542.948 0.277963 -1.58379 0
M  V30 5729 O 544.138 0.0604962 -1.74095 0
M  V30 5730 C 541.27 0.00591459 -3.40899 0
M  V30 5731 H 542.463 -1.58353 -2.54685 0
M  V30 5732 H 540.016 -0.856908 -1.30716 0
M  V30 5733 H 540.751 0.92652 -3.10783 0
M  V30 5734 H 540.536 -0.67984 -3.86161 0
M  V30 5735 H 542.026 0.26181 -4.16778 0
M  V30 5736 N 542.463 1.3308 -0.844243 0
M  V30 5737 C 543.691 2.01808 -0.456203 0
M  V30 5738 C 544.106 1.63498 0.944131 0
M  V30 5739 O 543.463 0.85102 1.61443 0
M  V30 5740 C 543.514 3.56922 -0.573513 0
M  V30 5741 O 543.235 3.93851 -1.91868 0
M  V30 5742 C 544.736 4.42922 -0.183125 0
M  V30 5743 H 541.956 0.646273 -0.180477 0
M  V30 5744 H 544.5 1.69891 -1.1383 0
M  V30 5745 H 542.655 3.87352 0.0607367 0
M  V30 5746 H 543.069 4.88564 -1.90802 0
M  V30 5747 H 544.543 5.51093 -0.316241 0
M  V30 5748 H 545.02 4.30386 0.875477 0
M  V30 5749 H 545.626 4.1786 -0.792027 0
M  V30 5750 N 543.941 0.601185 1.45683 0
M  V30 5751 C 545.169 0.100054 2.06658 0
M  V30 5752 C 545.584 -1.21285 1.44691 0
M  V30 5753 O 544.941 -1.73735 0.558772 0
M  V30 5754 C 544.992 -0.0528579 3.61461 0
M  V30 5755 O 544.713 1.20809 4.21114 0
M  V30 5756 C 546.214 -0.586193 4.39407 0
M  V30 5757 H 543.434 0.065905 0.667756 0
M  V30 5758 H 545.978 0.827101 1.87028 0
M  V30 5759 H 544.133 -0.730203 3.80456 0
M  V30 5760 H 544.547 1.03368 5.14213 0
M  V30 5761 H 546.021 -0.642297 5.4825 0
M  V30 5762 H 546.498 -1.60713 4.0874 0
M  V30 5763 H 547.104 0.0568935 4.25262 0
M  V30 5764 N 545.419 -1.53889 0.339982 0
M  V30 5765 C 546.665 -2.01849 -0.250694 0
M  V30 5766 C 547.02 -1.22356 -1.48482 0
M  V30 5767 O 546.313 -0.301906 -1.89206 0
M  V30 5768 C 546.507 -3.51968 -0.620735 0
M  V30 5769 C 546.336 -4.45996 0.575981 0
M  V30 5770 C 545.106 -4.93619 1.08019 0
M  V30 5771 C 547.304 -4.93923 1.43332 0
M  V30 5772 N 545.286 -5.7159 2.2396 0
M  V30 5773 C 546.657 -5.69982 2.43969 0
M  V30 5774 C 548.712 -4.76038 1.45918 0
M  V30 5775 C 547.415 -6.30057 3.47016 0
M  V30 5776 C 549.441 -5.36961 2.47845 0
M  V30 5777 C 548.803 -6.12884 3.47208 0
M  V30 5778 H 544.902 -0.780054 -0.0551368 0
M  V30 5779 H 547.486 -1.88722 0.478741 0
M  V30 5780 H 545.657 -3.65308 -1.31928 0
M  V30 5781 H 547.389 -3.86677 -1.19429 0
M  V30 5782 H 544.144 -4.69134 0.64884 0
M  V30 5783 H 544.568 -6.15247 2.82489 0
M  V30 5784 H 549.21 -4.16887 0.704608 0
M  V30 5785 H 546.928 -6.88319 4.23371 0
M  V30 5786 H 550.514 -5.2503 2.50668 0
M  V30 5787 H 549.394 -6.59187 4.24785 0
M  V30 5788 N 546.897 -0.0685191 -1.57451 0
M  V30 5789 C 547.827 0.89747 -2.15564 0
M  V30 5790 C 548.808 1.31266 -1.08181 0
M  V30 5791 O 549.993 1.38429 -1.36202 0
M  V30 5792 C 547.123 2.16623 -2.71463 0
M  V30 5793 C 546.077 1.89054 -3.83982 0
M  V30 5794 C 545.403 3.22532 -4.26471 0
M  V30 5795 C 546.703 1.1984 -5.08366 0
M  V30 5796 H 548.397 0.413373 -2.96533 0
M  V30 5797 H 545.943 0.197391 -1.42641 0
M  V30 5798 H 547.896 2.84614 -3.10761 0
M  V30 5799 H 546.62 2.67269 -1.8771 0
M  V30 5800 H 545.279 1.23469 -3.45183 0
M  V30 5801 H 544.927 3.71013 -3.39644 0
M  V30 5802 H 544.627 3.04879 -5.02317 0
M  V30 5803 H 546.151 3.91727 -4.68383 0
M  V30 5804 H 547.565 1.77896 -5.45001 0
M  V30 5805 H 545.962 1.12456 -5.89469 0
M  V30 5806 H 547.032 0.176996 -4.84577 0
M  V30 5807 N 548.375 1.56261 0.205012 0
M  V30 5808 C 549.623 1.79684 0.925096 0
M  V30 5809 C 549.944 0.63989 1.84202 0
M  V30 5810 O 549.214 -0.342345 1.92885 0
M  V30 5811 H 547.794 0.662774 0.344587 0
M  V30 5812 H 550.456 1.93734 0.212899 0
M  V30 5813 H 549.552 2.72467 1.52211 0
M  V30 5814 N 549.853 -0.472356 1.50355 0
M  V30 5815 C 551.083 -1.24603 1.64796 0
M  V30 5816 C 551.491 -1.86297 0.330156 0
M  V30 5817 O 550.834 -1.69934 -0.697728 0
M  V30 5818 C 550.896 -2.39578 2.68035 0
M  V30 5819 C 550.56 -1.98531 4.11624 0
M  V30 5820 C 551.557 -1.50856 4.97532 0
M  V30 5821 C 549.242 -2.0729 4.57532 0
M  V30 5822 C 551.236 -1.12481 6.27397 0
M  V30 5823 C 548.923 -1.68527 5.87403 0
M  V30 5824 C 549.921 -1.212 6.7216 0
M  V30 5825 O 549.609 -0.829728 7.99607 0
M  V30 5826 H 549.341 -0.383035 0.55701 0
M  V30 5827 H 551.895 -0.570392 1.97321 0
M  V30 5828 H 550.125 -3.10309 2.30749 0
M  V30 5829 H 551.814 -3.01544 2.71709 0
M  V30 5830 H 552.58 -1.43511 4.63281 0
M  V30 5831 H 548.459 -2.43076 3.91708 0
M  V30 5832 H 552.003 -0.754698 6.93506 0
M  V30 5833 H 547.9 -1.7553 6.21176 0
M  V30 5834 H 548.668 -0.958689 8.12866 0
M  V30 5835 N 551.331 -1.39911 -0.725443 0
M  V30 5836 C 552.577 -1.37858 -1.48738 0
M  V30 5837 C 552.91 0.0224187 -1.94187 0
M  V30 5838 O 552.185 0.989204 -1.67466 0
M  V30 5839 C 552.468 -2.3594 -2.72038 0
M  V30 5840 C 552.321 -3.85023 -2.32546 0
M  V30 5841 C 553.64 -2.31704 -3.74167 0
M  V30 5842 H 550.759 -0.502074 -0.539528 0
M  V30 5843 H 553.401 -1.70974 -0.828728 0
M  V30 5844 H 551.551 -2.0783 -3.28236 0
M  V30 5845 H 553.223 -4.2392 -1.81905 0
M  V30 5846 H 551.466 -4.01334 -1.64661 0
M  V30 5847 H 552.137 -4.49152 -3.20884 0
M  V30 5848 H 554.613 -2.5658 -3.27576 0
M  V30 5849 H 553.489 -3.02395 -4.58092 0
M  V30 5850 H 553.75 -1.3253 -4.21768 0
M  V30 5851 N 552.809 0.956637 -1.25245 0
M  V30 5852 C 553.757 2.0743 -1.0524 0
M  V30 5853 C 554.751 1.69392 0.0160725 0
M  V30 5854 O 555.957 1.7946 -0.139382 0
M  V30 5855 H 552.332 0.678921 -0.323373 0
M  V30 5856 H 554.303 2.2146 -1.99995 0
M  V30 5857 C 553.052 3.40872 -0.685702 0
M  V30 5858 H 552.375 3.70607 -1.49968 0
M  V30 5859 H 553.815 4.19939 -0.585415 0
M  V30 5860 C 552.274 3.31367 0.608082 0
M  V30 5861 O 552.804 3.66214 1.65076 0
M  V30 5862 N 551.01 2.84486 0.592955 0
M  V30 5863 H 550.557 2.56326 -0.25592 0
M  V30 5864 H 550.515 2.78509 1.45877 0
M  V30 5865 N 554.287 1.06798 1.15896 0
M  V30 5866 C 555.512 0.808739 1.90982 0
M  V30 5867 C 555.937 -0.6316 1.77179 0
M  V30 5868 O 555.295 -1.4407 1.10061 0
M  V30 5869 C 555.343 1.21468 3.39526 0
M  V30 5870 O 554.447 0.356562 4.10856 0
M  V30 5871 H 553.788 0.29512 0.594811 0
M  V30 5872 H 556.318 1.42513 1.46804 0
M  V30 5873 H 556.328 1.18844 3.90308 0
M  V30 5874 H 555.003 2.26379 3.48891 0
M  V30 5875 H 553.58 0.444808 3.70238 0
M  V30 5876 N 555.766 -1.3263 0.851289 0
M  V30 5877 C 556.729 -2.27247 0.298541 0
M  V30 5878 C 557.729 -1.51467 -0.539847 0
M  V30 5879 O 558.919 -1.7061 -0.351843 0
M  V30 5880 C 556.051 -3.35964 -0.578004 0
M  V30 5881 H 557.244 -2.7765 1.13359 0
M  V30 5882 H 554.797 -1.43245 0.625354 0
M  V30 5883 H 555.532 -2.90823 -1.435 0
M  V30 5884 H 555.317 -3.92094 0.0220539 0
M  V30 5885 H 556.807 -4.06472 -0.957626 0
M  V30 5886 N 557.244 -0.608902 -1.45362 0
M  V30 5887 C 558.174 0.0964526 -2.33301 0
M  V30 5888 C 559.155 0.857444 -1.46908 0
M  V30 5889 O 560.34 0.827735 -1.75676 0
M  V30 5890 C 557.47 1.09354 -3.29635 0
M  V30 5891 C 556.424 0.445676 -4.25673 0
M  V30 5892 C 555.75 1.5511 -5.11708 0
M  V30 5893 C 557.05 -0.633972 -5.18438 0
M  V30 5894 H 558.744 -0.637829 -2.92527 0
M  V30 5895 H 556.29 -0.308178 -1.40664 0
M  V30 5896 H 558.243 1.59556 -3.90025 0
M  V30 5897 H 556.967 1.85843 -2.6857 0
M  V30 5898 H 555.626 -0.0354897 -3.66583 0
M  V30 5899 H 555.274 2.30631 -4.4701 0
M  V30 5900 H 554.974 1.12311 -5.76767 0
M  V30 5901 H 556.498 2.05537 -5.74967 0
M  V30 5902 H 557.912 -0.215974 -5.72893 0
M  V30 5903 H 556.309 -0.983789 -5.91981 0
M  V30 5904 H 557.379 -1.51005 -4.60788 0
M  V30 5905 N 558.722 1.53707 -0.348139 0
M  V30 5906 C 559.67 2.26671 0.521808 0
M  V30 5907 C 560.664 1.28988 1.09811 0
M  V30 5908 O 561.87 1.4668 1.04332 0
M  V30 5909 H 558.245 0.728387 0.186968 0
M  V30 5910 H 560.216 2.98176 -0.115563 0
M  V30 5911 C 558.965 3.05591 1.6586 0
M  V30 5912 H 558.288 3.80589 1.22443 0
M  V30 5913 H 559.728 3.59851 2.24239 0
M  V30 5914 C 558.187 2.15366 2.59073 0
M  V30 5915 O 558.717 1.7528 3.61441 0
M  V30 5916 N 556.923 1.80352 2.27863 0
M  V30 5917 H 556.47 2.13149 1.44656 0
M  V30 5918 H 556.428 1.20268 2.90488 0
M  V30 5919 N 560.2 0.0768682 1.57412 0
M  V30 5920 C 561.611 -0.455037 1.8107 0
M  V30 5921 C 561.962 -1.69323 0.991162 0
M  V30 5922 O 561.087 -2.15328 0.215156 0
M  V30 5923 C 561.682 -0.832316 3.28417 0
M  V30 5924 C 560.241 -1.30906 3.52903 0
M  V30 5925 C 559.388 -0.296714 2.75708 0
M  V30 5926 H 562.339 0.302514 1.5579 0
M  V30 5927 H 562.36 -1.69333 3.40744 0
M  V30 5928 H 561.872 0.0690532 3.88039 0
M  V30 5929 H 559.973 -2.22875 2.98592 0
M  V30 5930 H 560.086 -1.28348 4.61588 0
M  V30 5931 H 558.45 -0.775059 2.42621 0
M  V30 5932 H 559.233 0.597015 3.38069 0
M  V30 5933 N 561.678 -1.56367 -0.196722 0
M  V30 5934 C 562.924 -1.80796 -0.918725 0
M  V30 5935 C 563.257 -0.650645 -1.82976 0
M  V30 5936 O 562.532 0.348889 -1.91345 0
M  V30 5937 C 562.815 -3.15472 -1.73636 0
M  V30 5938 C 562.668 -4.41693 -0.85015 0
M  V30 5939 C 563.987 -3.46824 -2.70927 0
M  V30 5940 H 561.106 -0.657702 -0.332561 0
M  V30 5941 H 563.748 -1.89086 -0.186186 0
M  V30 5942 H 561.898 -3.08536 -2.36088 0
M  V30 5943 H 563.57 -4.60673 -0.240459 0
M  V30 5944 H 561.813 -4.33517 -0.156785 0
M  V30 5945 H 562.484 -5.32419 -1.45719 0
M  V30 5946 H 564.96 -3.54049 -2.18607 0
M  V30 5947 H 563.836 -4.4218 -3.25219 0
M  V30 5948 H 564.097 -2.70236 -3.49893 0
M  V30 5949 N 563.156 0.464375 -1.50603 0
M  V30 5950 C 564.405 1.21277 -1.61167 0
M  V30 5951 C 564.718 1.92953 -0.320704 0
M  V30 5952 O 565.924 2.69778 -0.30534 0
M  V30 5953 C 564.38 2.20403 -2.84518 0
M  V30 5954 C 563.988 1.54499 -4.20516 0
M  V30 5955 C 565.732 2.95843 -3.0443 0
M  V30 5956 C 563.639 2.51951 -5.35047 0
M  V30 5957 H 562.569 0.456367 -0.600204 0
M  V30 5958 H 565.22 0.48254 -1.77042 0
M  V30 5959 H 563.602 2.96746 -2.62217 0
M  V30 5960 H 564.776 0.83899 -4.53098 0
M  V30 5961 H 563.091 0.913152 -4.06264 0
M  V30 5962 H 565.688 3.6879 -3.87167 0
M  V30 5963 H 566.031 3.55622 -2.16423 0
M  V30 5964 H 566.564 2.26611 -3.26944 0
M  V30 5965 H 563.303 1.96901 -6.25228 0
M  V30 5966 H 562.823 3.20683 -5.06875 0
M  V30 5967 H 564.502 3.13643 -5.65895 0
M  V30 5968 N 564.634 1.40294 0.718013 0
M  V30 5969 C 565.864 1.41544 1.50495 0
M  V30 5970 C 566.272 0.0127877 1.89196 0
M  V30 5971 O 565.615 -0.97305 1.55812 0
M  V30 5972 C 565.677 2.24021 2.81167 0
M  V30 5973 C 565.341 3.72463 2.64803 0
M  V30 5974 C 566.338 4.65154 2.32223 0
M  V30 5975 C 564.023 4.1625 2.81143 0
M  V30 5976 C 566.017 5.99618 2.16189 0
M  V30 5977 C 563.704 5.50784 2.64727 0
M  V30 5978 C 564.702 6.42283 2.32297 0
M  V30 5979 O 564.39 7.74337 2.16004 0
M  V30 5980 H 564.122 0.484819 0.471091 0
M  V30 5981 H 566.676 1.84948 0.893488 0
M  V30 5982 H 564.906 1.75393 3.44636 0
M  V30 5983 H 566.595 2.17243 3.42871 0
M  V30 5984 H 567.361 4.32622 2.19234 0
M  V30 5985 H 563.24 3.45352 3.05373 0
M  V30 5986 H 566.784 6.71 1.90799 0
M  V30 5987 H 562.681 5.82902 2.773 0
M  V30 5988 H 563.449 7.85244 2.30942 0
M  V30 5989 N 566.112 -0.949982 1.2575 0
M  V30 5990 C 567.34 -1.72972 1.13527 0
M  V30 5991 C 567.755 -1.8623 -0.310453 0
M  V30 5992 O 567.112 -1.36336 -1.2132 0
M  V30 5993 C 567.163 -3.14108 1.78936 0
M  V30 5994 O 566.884 -3.01493 3.17858 0
M  V30 5995 C 568.385 -4.08338 1.72554 0
M  V30 5996 H 565.605 -0.541864 0.395758 0
M  V30 5997 H 568.149 -1.19151 1.66202 0
M  V30 5998 H 566.304 -3.64858 1.30221 0
M  V30 5999 H 566.718 -3.90559 3.50092 0
M  V30 6000 H 568.192 -5.04963 2.22973 0
M  V30 6001 H 568.669 -4.33742 0.690251 0
M  V30 6002 H 569.275 -3.63506 2.2078 0
M  V30 6003 N 567.59 -1.07411 -1.15328 0
M  V30 6004 C 568.818 -0.818782 -1.90009 0
M  V30 6005 C 569.233 0.628072 -1.78047 0
M  V30 6006 O 568.59 1.43085 -1.13282 0
M  V30 6007 C 568.641 -1.21874 -3.40337 0
M  V30 6008 O 568.362 -2.60883 -3.51954 0
M  V30 6009 C 569.863 -0.992796 -4.3204 0
M  V30 6010 H 567.083 -0.296007 -0.60218 0
M  V30 6011 H 569.627 -1.43073 -1.46117 0
M  V30 6012 H 567.782 -0.651103 -3.81889 0
M  V30 6013 H 568.196 -2.77216 -4.45255 0
M  V30 6014 H 569.67 -1.32215 -5.35932 0
M  V30 6015 H 570.147 0.0708331 -4.39143 0
M  V30 6016 H 570.753 -1.54537 -3.9623 0
M  V30 6017 N 569.068 1.32177 -0.85831 0
M  V30 6018 C 570.315 1.97125 -0.463484 0
M  V30 6019 C 570.643 1.67907 0.981705 0
M  V30 6020 O 569.898 0.961717 1.70439 0
M  V30 6021 C 570.197 3.51372 -0.653658 0
M  V30 6022 C 569.863 4.00584 -2.06987 0
M  V30 6023 C 568.525 4.13733 -2.4572 0
M  V30 6024 C 570.877 4.26624 -2.99402 0
M  V30 6025 C 568.205 4.50268 -3.76132 0
M  V30 6026 C 570.557 4.64618 -4.29316 0
M  V30 6027 C 569.221 4.75975 -4.67979 0
M  V30 6028 H 568.491 0.72133 -0.169601 0
M  V30 6029 H 571.138 1.57517 -1.08907 0
M  V30 6030 H 569.443 3.91761 0.0551328 0
M  V30 6031 H 571.14 3.99655 -0.328163 0
M  V30 6032 H 567.73 3.90837 -1.75911 0
M  V30 6033 H 571.914 4.1597 -2.70708 0
M  V30 6034 H 567.17 4.57256 -4.05865 0
M  V30 6035 H 571.344 4.83722 -5.00985 0
M  V30 6036 H 568.971 5.04041 -5.69076 0
M  V30 6037 N 570.547 0.616602 1.45037 0
M  V30 6038 C 571.495 -0.109318 2.32343 0
M  V30 6039 C 572.489 -0.850543 1.465 0
M  V30 6040 O 573.695 -0.765088 1.62931 0
M  V30 6041 H 570.07 -0.0541091 0.750051 0
M  V30 6042 H 572.041 0.645326 2.91338 0
M  V30 6043 C 570.79 -1.0872 3.30266 0
M  V30 6044 H 570.113 -0.526267 3.96321 0
M  V30 6045 H 571.553 -1.56489 3.94065 0
M  V30 6046 C 570.012 -2.16525 2.58105 0
M  V30 6047 O 570.542 -3.244 2.36913 0
M  V30 6048 N 568.748 -1.92057 2.18088 0
M  V30 6049 H 568.295 -1.04337 2.35524 0
M  V30 6050 H 568.253 -2.64391 1.70131 0
M  V30 6051 N 572.025 -1.5352 0.356285 0
M  V30 6052 C 573.274 -2.00298 -0.237373 0
M  V30 6053 C 573.587 -1.24784 -1.50627 0
M  V30 6054 O 574.793 -1.62103 -2.17795 0
M  V30 6055 C 573.249 -3.56771 -0.473545 0
M  V30 6056 C 572.857 -4.41154 0.780183 0
M  V30 6057 C 574.601 -4.1193 -1.02537 0
M  V30 6058 C 572.508 -5.89161 0.514108 0
M  V30 6059 H 571.438 -0.748307 -0.092478 0
M  V30 6060 H 574.089 -1.77283 0.473588 0
M  V30 6061 H 572.471 -3.75902 -1.24553 0
M  V30 6062 H 573.645 -4.33797 1.55425 0
M  V30 6063 H 571.96 -3.97052 1.25455 0
M  V30 6064 H 574.557 -5.20133 -1.2396 0
M  V30 6065 H 574.9 -3.65943 -1.98473 0
M  V30 6066 H 575.433 -3.96561 -0.313775 0
M  V30 6067 H 572.172 -6.39408 1.44355 0
M  V30 6068 H 571.692 -5.9939 -0.221632 0
M  V30 6069 H 573.371 -6.46857 0.136122 0
M  V30 6070 N 573.503 -0.0852151 -1.57369 0
M  V30 6071 C 574.413 0.891712 -2.16992 0
M  V30 6072 C 575.429 1.3174 -1.13669 0
M  V30 6073 O 576.605 1.38735 -1.45995 0
M  V30 6074 C 573.67 2.13635 -2.73059 0
M  V30 6075 C 572.731 1.7658 -3.91303 0
M  V30 6076 C 571.964 2.95111 -4.44686 0
M  V30 6077 O 572.187 4.09539 -3.97032 0
M  V30 6078 O 571.121 2.74149 -5.35841 0
M  V30 6079 H 574.947 0.414477 -3.00858 0
M  V30 6080 H 572.532 0.138598 -1.48756 0
M  V30 6081 H 574.414 2.86595 -3.08935 0
M  V30 6082 H 573.089 2.6043 -1.92244 0
M  V30 6083 H 571.996 1.00831 -3.60255 0
M  V30 6084 H 573.329 1.34557 -4.7345 0
M  V30 6085 N 574.981 1.5647 0.188427 0
M  V30 6086 C 576.228 1.81013 0.907779 0
M  V30 6087 C 576.556 0.65953 1.82977 0
M  V30 6088 O 575.811 -0.354308 1.92466 0
M  V30 6089 C 576.11 3.11596 1.7505 0
M  V30 6090 C 575.776 4.40145 0.978922 0
M  V30 6091 C 574.438 4.75066 0.765912 0
M  V30 6092 C 576.79 5.19369 0.436498 0
M  V30 6093 C 574.118 5.867 -0.00089868 0
M  V30 6094 C 576.47 6.31805 -0.317136 0
M  V30 6095 C 575.134 6.65303 -0.541103 0
M  V30 6096 H 574.404 0.662373 0.33218 0
M  V30 6097 H 577.051 1.9071 0.173732 0
M  V30 6098 H 575.356 2.97165 2.55343 0
M  V30 6099 H 577.053 3.27793 2.30983 0
M  V30 6100 H 573.643 4.12745 1.15497 0
M  V30 6101 H 577.827 4.92799 0.588449 0
M  V30 6102 H 573.083 6.11122 -0.184329 0
M  V30 6103 H 577.257 6.92406 -0.744788 0
M  V30 6104 H 574.884 7.51646 -1.13718 0
M  V30 6105 N 576.459 -0.456382 1.50847 0
M  V30 6106 C 577.875 -0.791345 1.386 0
M  V30 6107 C 578.075 -1.9633 0.453498 0
M  V30 6108 O 577.131 -2.52308 -0.0984353 0
M  V30 6109 C 578.444 -1.08959 2.80265 0
M  V30 6110 C 579.992 -1.19517 2.89283 0
M  V30 6111 C 580.467 -1.52647 4.31814 0
M  V30 6112 N 581.958 -1.59609 4.34832 0
M  V30 6113 C 582.693 -1.86777 5.42127 0
M  V30 6114 N 582.189 -2.11866 6.59609 0
M  V30 6115 N 583.982 -1.88402 5.29586 0
M  V30 6116 H 576.133 0.315746 2.1004 0
M  V30 6117 H 578.396 0.0787916 0.94472 0
M  V30 6118 H 578.102 -0.301355 3.50407 0
M  V30 6119 H 577.976 -2.02211 3.18419 0
M  V30 6120 H 580.363 -1.97406 2.19351 0
M  V30 6121 H 580.444 -0.242111 2.54652 0
M  V30 6122 H 580.088 -0.752922 5.02288 0
M  V30 6123 H 580.018 -2.49127 4.63943 0
M  V30 6124 H 582.509 -1.42201 3.50125 0
M  V30 6125 H 582.822 -2.31912 7.37182 0
M  V30 6126 H 581.167 -2.09228 6.62758 0
M  V30 6127 H 584.358 -1.68307 4.36795 0
M  V30 6128 H 584.531 -2.09238 6.13289 0
M  V30 6129 N 577.937 -1.40673 -0.710563 0
M  V30 6130 C 578.884 -1.41336 -1.82463 0
M  V30 6131 C 579.854 -0.269648 -1.63897 0
M  V30 6132 O 581.039 -0.468463 -1.8496 0
M  V30 6133 C 578.179 -1.28665 -3.20218 0
M  V30 6134 C 577.292 -2.52784 -3.5032 0
M  V30 6135 C 576.427 -2.32517 -4.77608 0
M  V30 6136 C 575.466 -3.52187 -5.0063 0
M  V30 6137 N 574.603 -3.31084 -6.19135 0
M  V30 6138 H 579.443 -2.36558 -1.8123 0
M  V30 6139 H 576.98 -1.17483 -0.885226 0
M  V30 6140 H 578.938 -1.19324 -3.99772 0
M  V30 6141 H 577.568 -0.370602 -3.20666 0
M  V30 6142 H 576.62 -2.72634 -2.65283 0
M  V30 6143 H 577.932 -3.41845 -3.63241 0
M  V30 6144 H 577.086 -2.20558 -5.65189 0
M  V30 6145 H 575.825 -1.40889 -4.66906 0
M  V30 6146 H 574.83 -3.64617 -4.11502 0
M  V30 6147 H 576.055 -4.44749 -5.13201 0
M  V30 6148 H 574.001 -2.42143 -6.09674 0
M  V30 6149 H 573.918 -4.13713 -6.32754 0
M  V30 6150 H 575.186 -3.22868 -7.0949 0
M  V30 6151 N 579.415 0.9433 -1.26252 0
M  V30 6152 C 580.378 2.02326 -1.07689 0
M  V30 6153 C 581.378 1.60779 -0.0259174 0
M  V30 6154 O 582.568 1.72108 -0.269134 0
M  V30 6155 C 579.7 3.34886 -0.63752 0
M  V30 6156 H 580.893 2.20225 -2.0357 0
M  V30 6157 H 578.446 1.12197 -1.08819 0
M  V30 6158 H 579.181 3.22684 0.323377 0
M  V30 6159 H 578.966 3.66393 -1.39637 0
M  V30 6160 H 580.456 4.14231 -0.529418 0
M  V30 6161 N 580.893 1.08022 1.14757 0
M  V30 6162 C 582.14 0.807509 1.85703 0
M  V30 6163 C 582.468 -0.666617 1.8272 0
M  V30 6164 O 581.723 -1.50562 1.25018 0
M  V30 6165 C 582.022 1.26964 3.34088 0
M  V30 6166 C 581.688 2.7509 3.57262 0
M  V30 6167 C 580.35 3.15547 3.63296 0
M  V30 6168 C 582.702 3.70667 3.66409 0
M  V30 6169 C 580.03 4.50384 3.75994 0
M  V30 6170 C 582.382 5.05274 3.80632 0
M  V30 6171 C 581.046 5.45342 3.84913 0
M  V30 6172 H 580.316 0.295488 0.679535 0
M  V30 6173 H 582.963 1.35245 1.35577 0
M  V30 6174 H 581.268 0.644216 3.86467 0
M  V30 6175 H 582.965 1.03544 3.87401 0
M  V30 6176 H 579.555 2.42775 3.53212 0
M  V30 6177 H 583.739 3.40533 3.61041 0
M  V30 6178 H 578.995 4.80886 3.77569 0
M  V30 6179 H 583.169 5.79201 3.86652 0
M  V30 6180 H 580.796 6.49823 3.94505 0
M  V30 6181 N 582.371 -1.3172 0.865308 0
M  V30 6182 C 583.301 -2.31109 0.333302 0
M  V30 6183 C 584.282 -1.60148 -0.573301 0
M  V30 6184 O 585.467 -1.87882 -0.491305 0
M  V30 6185 C 582.597 -3.44104 -0.470078 0
M  V30 6186 C 581.551 -4.26623 0.343021 0
M  V30 6187 C 580.877 -5.31482 -0.585756 0
M  V30 6188 C 582.177 -4.98001 1.57456 0
M  V30 6189 H 583.871 -2.75855 1.1638 0
M  V30 6190 H 581.417 -1.3262 0.561069 0
M  V30 6191 H 583.37 -4.12682 -0.852752 0
M  V30 6192 H 582.094 -2.98112 -1.33404 0
M  V30 6193 H 580.753 -3.59707 0.707583 0
M  V30 6194 H 580.401 -4.81741 -1.44686 0
M  V30 6195 H 580.101 -5.87582 -0.0456494 0
M  V30 6196 H 581.625 -6.0292 -0.965375 0
M  V30 6197 H 583.039 -5.59201 1.26359 0
M  V30 6198 H 581.436 -5.63876 2.05339 0
M  V30 6199 H 582.506 -4.25253 2.32997 0
M  V30 6200 N 583.85 -0.624285 -1.44708 0
M  V30 6201 C 584.797 0.0847135 -2.30644 0
M  V30 6202 C 585.767 0.843575 -1.43084 0
M  V30 6203 O 586.952 0.825982 -1.71995 0
M  V30 6204 C 584.091 1.06495 -3.28257 0
M  V30 6205 C 583.205 0.305224 -4.3092 0
M  V30 6206 C 582.34 1.27667 -5.1563 0
M  V30 6207 C 581.379 0.505706 -6.10007 0
M  V30 6208 N 580.516 1.42727 -6.8744 0
M  V30 6209 H 585.356 -0.654068 -2.90733 0
M  V30 6210 H 582.893 -0.334334 -1.4325 0
M  V30 6211 H 584.851 1.64658 -3.83332 0
M  V30 6212 H 583.481 1.77094 -2.69884 0
M  V30 6213 H 582.533 -0.392207 -3.78373 0
M  V30 6214 H 583.845 -0.295553 -4.97924 0
M  V30 6215 H 582.999 1.92984 -5.75189 0
M  V30 6216 H 581.738 1.91137 -4.48685 0
M  V30 6217 H 580.743 -0.160999 -5.49564 0
M  V30 6218 H 581.968 -0.124183 -6.78986 0
M  V30 6219 H 579.913 2.04931 -6.23169 0
M  V30 6220 H 579.831 0.880345 -7.50857 0
M  V30 6221 H 581.099 2.0695 -7.51526 0
M  V30 6222 N 585.328 1.53329 -0.364422 0
M  V30 6223 C 586.577 2.00421 0.226747 0
M  V30 6224 C 586.89 1.25581 1.49963 0
M  V30 6225 O 588.096 1.63256 2.16933 0
M  V30 6226 C 586.552 3.57017 0.454618 0
M  V30 6227 C 586.16 4.40734 -0.803568 0
M  V30 6228 C 587.904 4.12468 1.00351 0
M  V30 6229 C 585.811 5.8888 -0.545345 0
M  V30 6230 H 584.741 0.748787 0.0885082 0
M  V30 6231 H 587.392 1.7703 -0.482983 0
M  V30 6232 H 585.774 3.76558 1.22558 0
M  V30 6233 H 586.948 4.32967 -1.57723 0
M  V30 6234 H 585.263 3.96381 -1.27559 0
M  V30 6235 H 587.86 5.20783 1.212 0
M  V30 6236 H 588.203 3.6699 1.9653 0
M  V30 6237 H 588.736 3.96721 0.29274 0
M  V30 6238 H 585.475 6.38633 -1.47743 0
M  V30 6239 H 584.995 5.99499 0.189842 0
M  V30 6240 H 586.674 6.46776 -0.170425 0
M  V30 6241 N 586.806 0.0935595 1.57322 0
M  V30 6242 C 587.736 -0.863062 2.16964 0
M  V30 6243 C 588.717 -1.29528 1.10256 0
M  V30 6244 O 589.902 -1.36245 1.38387 0
M  V30 6245 C 587.032 -2.12276 2.74875 0
M  V30 6246 C 585.986 -1.82921 3.86942 0
M  V30 6247 C 585.312 -3.15707 4.31548 0
M  V30 6248 C 586.612 -1.11737 5.10208 0
M  V30 6249 H 588.306 -0.366145 2.97153 0
M  V30 6250 H 585.852 -0.174673 1.42937 0
M  V30 6251 H 587.805 -2.79634 3.1525 0
M  V30 6252 H 586.529 -2.64248 1.91938 0
M  V30 6253 H 585.188 -1.17961 3.47103 0
M  V30 6254 H 584.836 -3.65563 3.45504 0
M  V30 6255 H 584.536 -2.96849 5.07104 0
M  V30 6256 H 586.06 -3.84226 4.74555 0
M  V30 6257 H 587.474 -1.69203 5.47762 0
M  V30 6258 H 585.871 -1.03064 5.91183 0
M  V30 6259 H 586.941 -0.0998818 4.84797 0
M  V30 6260 N 588.284 -1.56567 -0.180126 0
M  V30 6261 C 589.509 -1.85975 -0.918041 0
M  V30 6262 C 589.934 -0.678888 -1.75422 0
M  V30 6263 O 589.292 0.372168 -1.77439 0
M  V30 6264 C 589.34 -3.13731 -1.77779 0
M  V30 6265 O 588.444 -2.95335 -2.87838 0
M  V30 6266 H 587.785 -0.61196 -0.257683 0
M  V30 6267 H 590.315 -2.03798 -0.180923 0
M  V30 6268 H 590.325 -3.4491 -2.17948 0
M  V30 6269 H 589 -3.99293 -1.16352 0
M  V30 6270 H 587.577 -2.7549 -2.51316 0
M  V30 6271 N 589.762 0.448376 -1.51087 0
M  V30 6272 C 591.002 1.20832 -1.64861 0
M  V30 6273 C 591.366 1.88748 -0.351873 0
M  V30 6274 O 592.567 2.66307 -0.365265 0
M  V30 6275 C 590.838 2.20674 -2.81137 0
M  V30 6276 S 592.397 3.05303 -3.15176 0
M  V30 6277 H 589.215 0.40992 -0.580936 0
M  V30 6278 H 591.817 0.501624 -1.88955 0
M  V30 6279 H 590.521 1.69399 -3.73808 0
M  V30 6280 H 590.052 2.9594 -2.59198 0
M  V30 6281 H 592.067 4.22162 -2.60756 0
M  V30 6282 O 591.279 1.50177 0.59407 0
M  V30 6283 H 591.97 1.48064 1.24887 0
M  V30 END ATOM
M  V30 BEGIN BOND
M  V30 END BOND
M  V30 END CTAB
M  END
$$$$
