drugbank_target|P12070 Xylose isomerase (DB02172; DB03206; DB11195)
 OpenBabel12092119503D

  0  0  0     0  0            999 V3000
M  V30 BEGIN CTAB
M  V30 COUNTS 5989 6063 0 0 0
M  V30 BEGIN ATOM
M  V30 1 H -0.908 1.98254 -0.117106 0
M  V30 2 N 0 1.576 0 0
M  V30 3 C 0.933 2.03868 1.02534 0
M  V30 4 C 1.911 0.928543 1.3348 0
M  V30 5 O 3.095 1.19667 1.45644 0
M  V30 6 C 0.222 2.43627 2.35294 0
M  V30 7 C -0.732 3.65373 2.2001 0
M  V30 8 S 0.101 5.13292 1.52614 0
M  V30 9 C 1.257 5.56322 2.86805 0
M  V30 10 H 1.49 2.90518 0.631377 0
M  V30 11 H -0.977 1.52953 0.210867 0
M  V30 12 H 0.981 2.67203 3.11629 0
M  V30 13 H -0.358 1.57376 2.7183 0
M  V30 14 H -1.165 3.90944 3.18086 0
M  V30 15 H -1.563 3.418 1.51819 0
M  V30 16 H 0.729 5.58782 3.83104 0
M  V30 17 H 1.672 6.56266 2.65933 0
M  V30 18 H 2.08 4.83886 2.90714 0
M  V30 19 N 1.4781 -0.272755 1.55222 0
M  V30 20 C 2.7031 -1.02683 1.80197 0
M  V30 21 C 3.1281 -1.79142 0.573551 0
M  V30 22 O 2.4861 -1.74917 -0.476849 0
M  V30 23 C 2.5341 -1.9609 3.02624 0
M  V30 24 O 1.6381 -3.04863 2.77727 0
M  V30 25 H 0.9791 -0.293557 0.595584 0
M  V30 26 H 3.5091 -0.30159 2.02365 0
M  V30 27 H 3.5191 -2.38039 3.31363 0
M  V30 28 H 2.1941 -1.39851 3.91682 0
M  V30 29 H 0.7711 -2.67228 2.60084 0
M  V30 30 N 2.9562 -1.48159 -0.537278 0
M  V30 31 C 4.2022 -1.56035 -1.29541 0
M  V30 32 C 4.5352 -0.230377 -1.92829 0
M  V30 33 O 3.8102 0.762952 -1.78911 0
M  V30 34 C 4.0932 -2.69323 -2.39034 0
M  V30 35 C 3.9462 -4.12002 -1.80485 0
M  V30 36 C 5.2652 -2.78408 -3.40847 0
M  V30 37 H 2.3842 -0.567992 -0.469632 0
M  V30 38 H 5.0262 -1.80302 -0.599277 0
M  V30 39 H 3.1762 -2.48763 -2.98412 0
M  V30 40 H 4.8482 -4.43981 -1.25215 0
M  V30 41 H 3.0912 -4.19344 -1.11055 0
M  V30 42 H 3.7622 -4.87077 -2.59731 0
M  V30 43 H 6.2382 -2.97012 -2.91416 0
M  V30 44 H 5.1142 -3.59416 -4.14863 0
M  V30 45 H 5.3752 -1.86269 -4.00944 0
M  V30 46 N 4.4343 0.785586 -1.36625 0
M  V30 47 C 5.3663 1.90711 -1.2713 0
M  V30 48 C 6.3793 1.61688 -0.189986 0
M  V30 49 O 7.5683 1.72864 -0.445014 0
M  V30 50 C 4.6683 3.25611 -0.939713 0
M  V30 51 C 3.8413 3.82385 -2.12369 0
M  V30 52 C 2.9003 4.95732 -1.76456 0
M  V30 53 O 1.9263 5.12047 -2.48589 0
M  V30 54 N 3.1283 5.76258 -0.700492 0
M  V30 55 H 5.8933 1.99376 -2.23762 0
M  V30 56 H 3.4543 0.964041 -1.30069 0
M  V30 57 H 5.4463 3.98937 -0.680554 0
M  V30 58 H 4.0163 3.12538 -0.0624074 0
M  V30 59 H 3.2363 3.01001 -2.54543 0
M  V30 60 H 4.5243 4.17047 -2.9146 0
M  V30 61 H 3.9223 5.65609 -0.101624 0
M  V30 62 H 2.4793 6.4987 -0.501165 0
M  V30 63 N 5.9124 1.20967 1.01018 0
M  V30 64 C 7.3234 1.02319 1.56165 0
M  V30 65 C 7.6744 -0.418546 1.91684 0
M  V30 66 O 6.7994 -1.30096 1.72928 0
M  V30 67 C 7.3944 1.85109 2.8376 0
M  V30 68 C 5.9534 1.70809 3.35412 0
M  V30 69 C 5.1004 1.82643 2.08655 0
M  V30 70 H 8.0514 1.35065 0.833255 0
M  V30 71 H 8.0724 1.35827 3.55431 0
M  V30 72 H 7.5844 2.90035 2.57878 0
M  V30 73 H 5.6854 0.685464 3.66241 0
M  V30 74 H 5.7984 2.52467 4.07182 0
M  V30 75 H 4.1624 1.25896 2.21409 0
M  V30 76 H 4.9454 2.89066 1.85191 0
M  V30 77 N 7.3905 -1.2043 1.01659 0
M  V30 78 C 8.6185 -1.93777 0.725132 0
M  V30 79 C 9.0335 -1.74772 -0.714166 0
M  V30 80 O 8.3905 -1.06169 -1.4844 0
M  V30 81 C 8.4415 -3.45876 1.05129 0
M  V30 82 O 8.1625 -3.6426 2.43406 0
M  V30 83 C 9.6635 -4.36368 0.780891 0
M  V30 84 H 6.8835 -0.615901 0.266284 0
M  V30 85 H 9.4275 -1.52922 1.35776 0
M  V30 86 H 7.5825 -3.8461 0.464065 0
M  V30 87 H 7.9965 -4.58246 2.55169 0
M  V30 88 H 9.4705 -5.41743 1.05918 0
M  V30 89 H 9.9475 -4.38275 -0.284937 0
M  V30 90 H 10.5535 -4.03296 1.35027 0
M  V30 91 N 8.8686 -0.792821 -1.36206 0
M  V30 92 C 10.2796 -0.429513 -1.81692 0
M  V30 93 C 10.6306 1.04695 -1.65932 0
M  V30 94 O 9.7556 1.81256 -1.18218 0
M  V30 95 C 10.3506 -0.772831 -3.29868 0
M  V30 96 C 8.9096 -0.462307 -3.7355 0
M  V30 97 C 8.0566 -1.00569 -2.5842 0
M  V30 98 H 11.0076 -0.985672 -1.24379 0
M  V30 99 H 11.0286 -0.0651928 -3.80444 0
M  V30 100 H 10.5406 -1.84747 -3.41307 0
M  V30 101 H 8.6416 0.604158 -3.67669 0
M  V30 102 H 8.7546 -0.985299 -4.68859 0
M  V30 103 H 7.1186 -0.428734 -2.51066 0
M  V30 104 H 7.9016 -2.08616 -2.72643 0
M  V30 105 N 10.3467 1.47872 -0.545128 0
M  V30 106 C 11.3097 2.28337 0.198717 0
M  V30 107 C 12.3097 1.36255 0.853888 0
M  V30 108 O 13.4997 1.59003 0.711606 0
M  V30 109 C 10.6317 3.15585 1.28915 0
M  V30 110 H 11.8247 2.95567 -0.507941 0
M  V30 111 H 9.3777 1.53362 -0.301616 0
M  V30 112 H 10.1127 2.53019 2.02859 0
M  V30 113 H 9.8977 3.83337 0.824309 0
M  V30 114 H 11.3877 3.76243 1.81194 0
M  V30 115 N 11.8248 0.280983 1.55075 0
M  V30 116 C 13.1018 -0.386207 1.91749 0
M  V30 117 C 13.4818 -1.73264 1.20594 0
M  V30 118 O 12.8298 -2.26034 0.334784 0
M  V30 119 C 13.0398 -0.520687 3.45094 0
M  V30 120 C 14.3878 -0.800865 4.16979 0
M  V30 121 O 15.4118 -0.605271 3.5102 0
M  V30 122 O 14.2708 -1.1753 5.33712 0
M  V30 123 H 11.3648 -0.212408 0.799257 0
M  V30 124 H 13.9108 0.327568 1.66509 0
M  V30 125 H 12.6828 0.426633 3.88967 0
M  V30 126 H 12.3058 -1.2837 3.76307 0
M  V30 127 N 13.3029 -1.57598 0.00835791 0
M  V30 128 C 14.2529 -2.05431 -0.989045 0
M  V30 129 C 15.2369 -0.950662 -1.29812 0
M  V30 130 O 16.4289 -1.21438 -1.28771 0
M  V30 131 C 13.5579 -2.56801 -2.27833 0
M  V30 132 C 12.6439 -3.74058 -1.99853 0
M  V30 133 N 13.0349 -4.8544 -1.42062 0
M  V30 134 C 11.3329 -3.82148 -2.29953 0
M  V30 135 C 12.0339 -5.66817 -1.30743 0
M  V30 136 N 11.0099 -5.13077 -1.7959 0
M  V30 137 H 14.8119 -2.88955 -0.536853 0
M  V30 138 H 12.3259 -1.61199 -0.197148 0
M  V30 139 H 14.3229 -2.89349 -3.00137 0
M  V30 140 H 12.9829 -1.74699 -2.73698 0
M  V30 141 H 13.9939 -5.0612 -1.09833 0
M  V30 142 H 10.6709 -3.10916 -2.78635 0
M  V30 143 H 12.0609 -6.66343 -0.862328 0
M  V30 144 N 14.781 0.264519 -1.55364 0
M  V30 145 C 16.028 0.994986 -1.7637 0
M  V30 146 C 16.356 1.85976 -0.5695 0
M  V30 147 O 15.611 1.90509 0.44776 0
M  V30 148 C 15.91 1.9004 -3.02687 0
M  V30 149 C 15.576 1.19243 -4.34847 0
M  V30 150 C 14.238 0.996709 -4.70764 0
M  V30 151 C 16.59 0.689296 -5.16622 0
M  V30 152 C 13.918 0.285261 -5.86006 0
M  V30 153 C 16.27 -0.00860079 -6.32599 0
M  V30 154 C 14.934 -0.215963 -6.67151 0
M  V30 155 H 14.204 0.364091 -0.645383 0
M  V30 156 H 16.851 0.266543 -1.89636 0
M  V30 157 H 15.156 2.69533 -2.84357 0
M  V30 158 H 16.853 2.46695 -3.16137 0
M  V30 159 H 13.443 1.3549 -4.06621 0
M  V30 160 H 17.627 0.828108 -4.89342 0
M  V30 161 H 12.883 0.113961 -6.11294 0
M  V30 162 H 17.057 -0.406186 -6.95214 0
M  V30 163 H 14.684 -0.769217 -7.56298 0
M  V30 164 N 16.2591 1.48442 0.529413 0
M  V30 165 C 17.4871 1.60151 1.30994 0
M  V30 166 C 17.9021 0.261985 1.86973 0
M  V30 167 O 17.2591 -0.748805 1.66431 0
M  V30 168 C 17.3101 2.64854 2.46038 0
M  V30 169 O 17.0311 3.93608 1.92365 0
M  V30 170 C 18.5321 2.87007 3.37849 0
M  V30 171 H 15.7521 0.539971 0.398338 0
M  V30 172 H 18.2961 1.94273 0.638597 0
M  V30 173 H 16.4511 2.33589 3.09055 0
M  V30 174 H 16.8651 4.51055 2.67675 0
M  V30 175 H 18.3391 3.64068 4.14919 0
M  V30 176 H 18.8161 1.95852 3.93114 0
M  V30 177 H 19.4221 3.19579 2.80623 0
M  V30 178 N 17.7372 -0.778329 1.37039 0
M  V30 179 C 18.9842 -1.53665 1.31884 0
M  V30 180 C 19.3122 -1.9425 -0.0986303 0
M  V30 181 O 18.5672 -1.63832 -1.07041 0
M  V30 182 C 18.8662 -2.81845 2.19768 0
M  V30 183 C 18.5322 -2.60345 3.68146 0
M  V30 184 C 17.1942 -2.5419 4.08584 0
M  V30 185 C 19.5462 -2.40923 4.62175 0
M  V30 186 C 16.8742 -2.26594 5.41177 0
M  V30 187 C 19.2262 -2.14852 5.94997 0
M  V30 188 C 17.8902 -2.07137 6.34547 0
M  V30 189 H 17.1602 -0.562299 0.482598 0
M  V30 190 H 19.8072 -0.897069 1.69189 0
M  V30 191 H 18.1122 -3.50328 1.75436 0
M  V30 192 H 19.8092 -3.39692 2.13097 0
M  V30 193 H 16.3992 -2.65996 3.36072 0
M  V30 194 H 20.5832 -2.44673 4.31797 0
M  V30 195 H 15.8392 -2.19111 5.70789 0
M  V30 196 H 20.0132 -1.98822 6.67415 0
M  V30 197 H 17.6402 -1.85518 7.37216 0
M  V30 198 N 19.2153 -1.21501 -1.00376 0
M  V30 199 C 20.4633 -1.03095 -1.73827 0
M  V30 200 C 20.7843 0.436341 -1.90055 0
M  V30 201 O 20.0543 1.31466 -1.45236 0
M  V30 202 H 18.6343 -0.378487 -0.644016 0
M  V30 203 H 21.2963 -1.52831 -1.20949 0
M  V30 204 H 20.3923 -1.49991 -2.73695 0
M  V30 205 N 20.6934 1.19889 -1.02296 0
M  V30 206 C 21.6234 2.25141 -0.619174 0
M  V30 207 C 22.6044 1.66051 0.368915 0
M  V30 208 O 23.7894 1.92546 0.252941 0
M  V30 209 C 20.9194 3.4728 0.0368783 0
M  V30 210 C 19.8734 4.19005 -0.872865 0
M  V30 211 C 19.1994 5.34637 -0.0822402 0
M  V30 212 C 20.4994 4.74452 -2.18387 0
M  V30 213 H 22.1934 2.59171 -1.49903 0
M  V30 214 H 19.7394 1.24579 -0.722222 0
M  V30 215 H 21.6924 4.20098 0.330958 0
M  V30 216 H 20.4164 3.12433 0.95149 0
M  V30 217 H 19.0754 3.48061 -1.15105 0
M  V30 218 H 18.7234 4.96034 0.83422 0
M  V30 219 H 18.4234 5.83557 -0.688149 0
M  V30 220 H 19.9474 6.10255 0.205238 0
M  V30 221 H 21.3614 5.39055 -1.95172 0
M  V30 222 H 19.7584 5.33834 -2.74119 0
M  V30 223 H 20.8284 3.92844 -2.84257 0
M  V30 224 N 22.1715 0.800033 1.35784 0
M  V30 225 C 23.4175 0.38701 1.99684 0
M  V30 226 C 23.7725 -1.03268 1.62338 0
M  V30 227 O 23.0655 -1.70543 0.87325 0
M  V30 228 C 23.2595 0.500276 3.53881 0
M  V30 229 C 23.0885 1.92942 4.06206 0
M  V30 230 C 21.8585 2.55637 4.35865 0
M  V30 231 C 24.0565 2.89307 4.25213 0
M  V30 232 N 22.0385 3.9003 4.74078 0
M  V30 233 C 23.4095 4.08556 4.66349 0
M  V30 234 C 25.4645 2.86225 4.07406 0
M  V30 235 C 24.1675 5.25146 4.91543 0
M  V30 236 C 26.1935 4.02011 4.33752 0
M  V30 237 C 25.5555 5.20007 4.75155 0
M  V30 238 H 21.6545 0.189252 0.758754 0
M  V30 239 H 24.2385 1.03988 1.64604 0
M  V30 240 H 22.4095 -0.122568 3.88207 0
M  V30 241 H 24.1415 0.0624733 4.04652 0
M  V30 242 H 20.8965 2.07039 4.25948 0
M  V30 243 H 21.3205 4.59205 4.97454 0
M  V30 244 H 25.9625 1.96154 3.74544 0
M  V30 245 H 23.6805 6.15794 5.23281 0
M  V30 246 H 27.2665 4.00999 4.21534 0
M  V30 247 H 26.1465 6.08113 4.95145 0
M  V30 248 N 23.6496 -1.47581 0.552962 0
M  V30 249 C 24.8776 -2.06875 0.0320556 0
M  V30 250 C 25.2926 -1.40625 -1.25976 0
M  V30 251 O 24.6496 -0.501349 -1.75479 0
M  V30 252 C 24.7006 -3.61092 -0.17167 0
M  V30 253 O 24.4216 -4.24858 1.06899 0
M  V30 254 C 25.9226 -4.37242 -0.730344 0
M  V30 255 H 23.1426 -0.669561 0.043915 0
M  V30 256 H 25.6866 -1.89646 0.765163 0
M  V30 257 H 23.8416 -3.7785 -0.854894 0
M  V30 258 H 24.2556 -5.17334 0.864059 0
M  V30 259 H 25.7296 -5.45842 -0.822203 0
M  V30 260 H 26.2066 -4.03235 -1.74064 0
M  V30 261 H 26.8126 -4.25219 -0.0829543 0
M  V30 262 N 25.1277 -0.289203 -1.54924 0
M  V30 263 C 26.3737 0.323998 -2.00195 0
M  V30 264 C 26.7067 1.54441 -1.17735 0
M  V30 265 O 25.9817 1.92875 -0.250878 0
M  V30 266 C 26.2647 0.692276 -3.53383 0
M  V30 267 C 26.1177 -0.536457 -4.46589 0
M  V30 268 C 27.4367 1.52335 -4.12895 0
M  V30 269 H 24.5557 0.116289 -0.727768 0
M  V30 270 H 27.1977 -0.398954 -1.85764 0
M  V30 271 H 25.3477 1.30822 -3.65811 0
M  V30 272 H 27.0197 -1.17499 -4.46085 0
M  V30 273 H 25.2627 -1.17192 -4.1767 0
M  V30 274 H 25.9337 -0.234806 -5.515 0
M  V30 275 H 28.4097 1.00302 -4.0383 0
M  V30 276 H 27.2857 1.74982 -5.20262 0
M  V30 277 H 27.5467 2.50886 -3.64018 0
M  V30 278 N 26.6058 1.57591 -0.0167156 0
M  V30 279 C 27.8538 1.90906 0.663285 0
M  V30 280 C 28.1748 0.892509 1.73376 0
M  V30 281 O 27.4448 -0.0677623 1.95783 0
M  V30 282 H 26.0248 0.704637 0.247983 0
M  V30 283 H 28.6868 1.94803 -0.0615909 0
M  V30 284 H 27.7828 2.9116 1.12393 0
M  V30 285 N 28.0839 -0.256276 1.55502 0
M  V30 286 C 29.3299 -0.982884 1.78076 0
M  V30 287 C 29.6849 -1.83319 0.584109 0
M  V30 288 O 28.9779 -1.86875 -0.422877 0
M  V30 289 C 29.1719 -1.88432 3.03691 0
M  V30 290 C 29.0009 -1.12276 4.35459 0
M  V30 291 C 27.7709 -0.831647 4.98409 0
M  V30 292 C 29.9689 -0.504933 5.11815 0
M  V30 293 N 27.9509 -0.0450423 6.13883 0
M  V30 294 C 29.3219 0.146696 6.19826 0
M  V30 295 C 31.3769 -0.414455 4.96172 0
M  V30 296 C 30.0799 0.880103 7.13895 0
M  V30 297 C 32.1059 0.305398 5.90611 0
M  V30 298 C 31.4679 0.945701 6.98023 0
M  V30 299 H 27.5669 -0.341084 0.703694 0
M  V30 300 H 30.1509 -0.256909 1.92998 0
M  V30 301 H 28.3219 -2.58241 2.90114 0
M  V30 302 H 30.0539 -2.54579 3.14598 0
M  V30 303 H 26.8089 -1.14111 4.59647 0
M  V30 304 H 27.2329 0.336079 6.76165 0
M  V30 305 H 31.8749 -0.895163 4.13215 0
M  V30 306 H 29.5929 1.37244 7.9636 0
M  V30 307 H 33.1789 0.375946 5.80584 0
M  V30 308 H 32.0589 1.49383 7.6984 0
M  V30 309 N 29.562 -1.4872 -0.521534 0
M  V30 310 C 30.79 -1.60843 -1.30142 0
M  V30 311 C 31.205 -0.271897 -1.86832 0
M  V30 312 O 30.562 0.739969 -1.66825 0
M  V30 313 C 30.613 -2.66155 -2.4463 0
M  V30 314 O 30.334 -3.94623 -1.90275 0
M  V30 315 C 31.835 -2.88795 -3.36322 0
M  V30 316 H 29.055 -0.542075 -0.395468 0
M  V30 317 H 31.599 -1.94609 -0.628285 0
M  V30 318 H 29.754 -2.35224 -3.07812 0
M  V30 319 H 30.168 -4.52468 -2.65279 0
M  V30 320 H 31.642 -3.66264 -4.12983 0
M  V30 321 H 32.119 -1.97934 -3.9207 0
M  V30 322 H 32.725 -3.21063 -2.78924 0
M  V30 323 N 31.0401 0.771051 -1.3745 0
M  V30 324 C 32.2881 1.52661 -1.32435 0
M  V30 325 C 32.6091 1.9479 0.0905024 0
M  V30 326 O 31.8791 1.66348 1.03466 0
M  V30 327 H 30.4591 0.566218 -0.487244 0
M  V30 328 H 33.1211 0.917636 -1.71946 0
M  V30 329 H 32.2171 2.42568 -1.96385 0
M  V30 330 N 32.5182 1.22032 0.997298 0
M  V30 331 C 33.4812 0.987909 2.06816 0
M  V30 332 C 34.4812 -0.0440084 1.6074 0
M  V30 333 O 35.6712 0.194053 1.73116 0
M  V30 334 C 32.8032 0.49132 3.37341 0
M  V30 335 H 33.9962 1.93803 2.28868 0
M  V30 336 H 31.5492 1.03838 1.16822 0
M  V30 337 H 32.2842 -0.463364 3.20973 0
M  V30 338 H 32.0692 1.23575 3.72118 0
M  V30 339 H 33.5592 0.348824 4.16141 0
M  V30 340 N 33.9963 -1.19345 1.0293 0
M  V30 341 C 35.2733 -1.84811 0.640642 0
M  V30 342 C 35.6533 -1.91855 -0.88062 0
M  V30 343 O 35.0013 -1.43587 -1.7775 0
M  V30 344 C 35.2113 -3.23755 1.30321 0
M  V30 345 C 36.5593 -3.99912 1.42673 0
M  V30 346 O 37.5833 -3.33155 1.26041 0
M  V30 347 O 36.4423 -5.19494 1.6967 0
M  V30 348 H 33.5363 -0.796443 0.222726 0
M  V30 349 H 36.0823 -1.26831 1.12748 0
M  V30 350 H 34.8543 -3.13466 2.34211 0
M  V30 351 H 34.4773 -3.89381 0.804261 0
M  V30 352 N 35.4744 -0.807222 -1.35358 0
M  V30 353 C 36.8854 -0.44876 -1.81226 0
M  V30 354 C 37.2364 1.02929 -1.67033 0
M  V30 355 O 36.3614 1.79991 -1.20133 0
M  V30 356 C 36.9564 -0.807774 -3.2903 0
M  V30 357 C 35.5154 -0.501901 -3.73039 0
M  V30 358 C 34.6624 -1.03304 -2.57339 0
M  V30 359 H 37.6134 -0.998808 -1.23327 0
M  V30 360 H 37.6344 -0.10554 -3.80354 0
M  V30 361 H 37.1464 -1.88357 -3.39328 0
M  V30 362 H 35.2474 0.565128 -3.68289 0
M  V30 363 H 35.3604 -1.03497 -4.67787 0
M  V30 364 H 33.7244 -0.455339 -2.50597 0
M  V30 365 H 34.5074 -2.11496 -2.70415 0
M  V30 366 N 36.9525 1.47285 -0.560781 0
M  V30 367 C 38.1995 2.02464 -0.038062 0
M  V30 368 C 38.5275 1.43474 1.31322 0
M  V30 369 O 37.7825 0.581311 1.86867 0
M  V30 370 C 38.0815 3.57258 0.100784 0
M  V30 371 C 37.7475 4.35184 -1.18007 0
M  V30 372 C 36.4095 4.56194 -1.53103 0
M  V30 373 C 38.7615 4.80098 -2.02867 0
M  V30 374 C 36.0895 5.19367 -2.729 0
M  V30 375 C 38.4415 5.44593 -3.21871 0
M  V30 376 C 37.1055 5.63835 -3.57276 0
M  V30 377 H 36.3755 0.740869 -0.0139279 0
M  V30 378 H 39.0225 1.76916 -0.733012 0
M  V30 379 H 37.3275 3.81819 0.878724 0
M  V30 380 H 39.0245 3.97606 0.520639 0
M  V30 381 H 35.6145 4.19113 -0.8968 0
M  V30 382 H 39.7985 4.63642 -1.7706 0
M  V30 383 H 35.0545 5.32459 -3.00496 0
M  V30 384 H 39.2285 5.78358 -3.87911 0
M  V30 385 H 36.8555 6.12557 -4.50197 0
M  V30 386 N 38.4306 0.297415 1.54768 0
M  V30 387 C 39.6786 -0.312295 1.99673 0
M  V30 388 C 39.9996 -1.54686 1.18732 0
M  V30 389 O 39.2696 -1.93854 0.282382 0
M  V30 390 H 37.8496 -0.118381 0.73756 0
M  V30 391 H 40.5116 0.407915 1.90583 0
M  V30 392 H 39.6076 -0.586813 3.06534 0
M  V30 393 N 39.9087 -1.5758 0.0250728 0
M  V30 394 C 41.1547 -1.91917 -0.655413 0
M  V30 395 C 41.4877 -0.901433 -1.72011 0
M  V30 396 O 40.7627 0.0764069 -1.9435 0
M  V30 397 C 41.0457 -3.36751 -1.27558 0
M  V30 398 C 40.8987 -4.49258 -0.220719 0
M  V30 399 C 42.2177 -3.81469 -2.19475 0
M  V30 400 H 39.3367 -0.697925 -0.23679 0
M  V30 401 H 41.9787 -1.89825 0.0815036 0
M  V30 402 H 40.1287 -3.38664 -1.90365 0
M  V30 403 H 41.8007 -4.59478 0.409601 0
M  V30 404 H 40.0437 -4.31415 0.454264 0
M  V30 405 H 40.7147 -5.47618 -0.694175 0
M  V30 406 H 43.1907 -3.81266 -1.66659 0
M  V30 407 H 42.0667 -4.83512 -2.59822 0
M  V30 408 H 42.3277 -3.16744 -3.08424 0
M  V30 409 N 41.3868 0.248026 -1.55636 0
M  V30 410 C 42.3498 1.29044 -1.89421 0
M  V30 411 C 43.3498 1.41134 -0.770581 0
M  V30 412 O 44.5398 1.39854 -1.03858 0
M  V30 413 C 41.6718 2.66831 -2.12165 0
M  V30 414 H 42.8648 1.00305 -2.82629 0
M  V30 415 H 40.4178 0.487265 -1.48511 0
M  V30 416 H 41.1528 3.00711 -1.21422 0
M  V30 417 H 40.9378 2.59438 -2.93997 0
M  V30 418 H 42.4278 3.42103 -2.3949 0
M  V30 419 N 42.8649 1.48995 0.513639 0
M  V30 420 C 44.0929 1.61531 1.29288 0
M  V30 421 C 44.5079 0.281801 1.86685 0
M  V30 422 O 43.8649 -0.731111 1.67215 0
M  V30 423 C 43.9159 2.67449 2.43215 0
M  V30 424 O 43.6369 3.95626 1.88179 0
M  V30 425 C 45.1379 2.90575 3.34785 0
M  V30 426 H 42.3579 0.544165 0.392588 0
M  V30 427 H 44.9019 1.9494 0.617956 0
M  V30 428 H 43.0569 2.36853 3.0656 0
M  V30 429 H 43.4709 4.53868 2.62876 0
M  V30 430 H 44.9449 3.68449 4.11035 0
M  V30 431 H 45.4219 2.00011 3.91015 0
M  V30 432 H 46.0279 3.22538 2.77218 0
M  V30 433 N 44.343 -0.763751 1.37857 0
M  V30 434 C 45.759 -1.06542 1.18832 0
M  V30 435 C 45.959 -2.01478 0.0299722 0
M  V30 436 O 45.015 -2.4458 -0.627447 0
M  V30 437 C 46.328 -1.65525 2.51042 0
M  V30 438 C 47.876 -1.77745 2.57635 0
M  V30 439 C 48.351 -2.4014 3.89996 0
M  V30 440 N 49.842 -2.47582 3.91481 0
M  V30 441 C 50.577 -2.96732 4.9065 0
M  V30 442 N 50.073 -3.45993 6.00217 0
M  V30 443 N 51.866 -2.95679 4.78048 0
M  V30 444 H 44.017 -0.133556 2.1198 0
M  V30 445 H 46.28 -0.121879 0.940133 0
M  V30 446 H 45.986 -1.03236 3.36207 0
M  V30 447 H 45.86 -2.64719 2.68707 0
M  V30 448 H 48.247 -2.39164 1.72872 0
M  V30 449 H 48.328 -0.772836 2.43846 0
M  V30 450 H 47.972 -1.79358 4.75177 0
M  V30 451 H 47.902 -3.41223 4.01092 0
M  V30 452 H 50.393 -2.1273 3.12337 0
M  V30 453 H 50.706 -3.81922 6.7183 0
M  V30 454 H 49.051 -3.44077 6.03851 0
M  V30 455 H 52.242 -2.56499 3.91568 0
M  V30 456 H 52.415 -3.33672 5.55488 0
M  V30 457 N 45.8211 -1.22559 -0.990812 0
M  V30 458 C 46.7681 -0.997519 -2.0813 0
M  V30 459 C 47.7381 0.0814702 -1.659 0
M  V30 460 O 48.9231 -0.0685424 -1.90677 0
M  V30 461 C 46.0631 -0.583615 -3.40129 0
M  V30 462 C 45.1761 -1.7336 -3.9569 0
M  V30 463 C 44.3111 -1.26748 -5.15857 0
M  V30 464 C 43.3501 -2.38888 -5.63559 0
M  V30 465 N 42.4871 -1.93308 -6.74964 0
M  V30 466 H 47.3271 -1.93099 -2.26973 0
M  V30 467 H 44.8641 -0.962114 -1.11273 0
M  V30 468 H 46.8221 -0.324801 -4.15934 0
M  V30 469 H 45.4521 0.312845 -3.2128 0
M  V30 470 H 44.5041 -2.10669 -3.16738 0
M  V30 471 H 45.8161 -2.57704 -4.27071 0
M  V30 472 H 44.9701 -0.966173 -5.98957 0
M  V30 473 H 43.7091 -0.394272 -4.86104 0
M  V30 474 H 42.7141 -2.69805 -4.79046 0
M  V30 475 H 43.9391 -3.26728 -5.95336 0
M  V30 476 H 41.8851 -1.08352 -6.4699 0
M  V30 477 H 41.8021 -2.71217 -7.05675 0
M  V30 478 H 43.0701 -1.66252 -7.61564 0
M  V30 479 N 47.2992 1.18797 -1.03562 0
M  V30 480 C 48.2472 2.24297 -0.615905 0
M  V30 481 C 49.2412 1.65643 0.354808 0
M  V30 482 O 50.4472 1.78618 0.22265 0
M  V30 483 H 46.8222 0.729909 -0.180934 0
M  V30 484 H 48.7932 2.5701 -1.5162 0
M  V30 485 C 47.5422 3.47698 0.0104735 0
M  V30 486 H 46.8652 3.93125 -0.727509 0
M  V30 487 H 48.3052 4.23159 0.266995 0
M  V30 488 C 46.7642 3.12489 1.25905 0
M  V30 489 O 47.2942 3.25761 2.35038 0
M  V30 490 N 45.5002 2.6686 1.15039 0
M  V30 491 H 45.0472 2.56261 0.262328 0
M  V30 492 H 45.0052 2.43674 1.98672 0
M  V30 493 N 48.7773 0.814389 1.34928 0
M  V30 494 C 49.7073 0.244827 2.32213 0
M  V30 495 C 50.6883 -0.634024 1.57842 0
M  V30 496 O 51.8733 -0.562676 1.8587 0
M  V30 497 C 49.0033 -0.601106 3.42058 0
M  V30 498 C 47.9573 0.179896 4.27622 0
M  V30 499 C 47.2833 -0.788237 5.28858 0
M  V30 500 C 48.5833 1.38329 5.03649 0
M  V30 501 H 50.2773 1.05763 2.80097 0
M  V30 502 H 47.8233 0.510029 1.34665 0
M  V30 503 H 49.7763 -1.00968 4.09125 0
M  V30 504 H 48.5003 -1.44688 2.92802 0
M  V30 505 H 47.1593 0.569739 3.62146 0
M  V30 506 H 46.8073 -1.62973 4.75866 0
M  V30 507 H 46.5073 -0.269942 5.8698 0
M  V30 508 H 48.0313 -1.19485 5.98795 0
M  V30 509 H 49.4453 1.04918 5.63618 0
M  V30 510 H 47.8423 1.83662 5.71304 0
M  V30 511 H 48.9123 2.16592 4.33839 0
M  V30 512 N 50.2554 -1.46986 0.568584 0
M  V30 513 C 51.5324 -1.95592 -0.0174074 0
M  V30 514 C 51.9124 -1.51124 -1.47393 0
M  V30 515 O 51.2604 -0.755329 -2.15655 0
M  V30 516 C 51.4704 -3.48719 0.139913 0
M  V30 517 C 52.8184 -4.246 0.000426376 0
M  V30 518 O 53.8424 -3.56135 0.0680316 0
M  V30 519 O 52.7014 -5.46302 -0.146988 0
M  V30 520 H 49.7954 -0.82498 -0.0577599 0
M  V30 521 H 52.3414 -1.57335 0.635909 0
M  V30 522 H 51.1134 -3.73927 1.15301 0
M  V30 523 H 50.7364 -3.93771 -0.550491 0
M  V30 524 N 51.7335 -0.305618 -1.54608 0
M  V30 525 C 53.1445 0.186098 -1.8577 0
M  V30 526 C 53.4955 1.53058 -1.22751 0
M  V30 527 O 52.6205 2.09888 -0.526893 0
M  V30 528 C 53.2155 0.344449 -3.37044 0
M  V30 529 C 51.7745 0.780384 -3.68221 0
M  V30 530 C 50.9215 -0.108554 -2.77087 0
M  V30 531 H 53.8725 -0.526485 -1.49712 0
M  V30 532 H 53.8935 1.17828 -3.61796 0
M  V30 533 H 53.4055 -0.634235 -3.82883 0
M  V30 534 H 51.5065 1.76945 -3.27904 0
M  V30 535 H 51.6195 0.596572 -4.75371 0
M  V30 536 H 49.9835 0.412931 -2.5133 0
M  V30 537 H 50.7665 -1.08368 -3.25747 0
M  V30 538 N 53.2116 1.57565 -0.0334293 0
M  V30 539 C 54.4576 1.92262 0.645226 0
M  V30 540 C 54.7906 0.910543 1.71531 0
M  V30 541 O 54.0656 -0.066099 1.94388 0
M  V30 542 C 54.3486 3.37422 1.2577 0
M  V30 543 C 54.2016 4.49369 0.196891 0
M  V30 544 C 55.5206 3.82628 2.17449 0
M  V30 545 H 52.6396 0.699171 0.233085 0
M  V30 546 H 55.2816 1.89779 -0.0915694 0
M  V30 547 H 53.4316 3.39669 1.88566 0
M  V30 548 H 55.1036 4.59254 -0.433962 0
M  V30 549 H 53.3466 4.31168 -0.477137 0
M  V30 550 H 54.0176 5.47978 0.665124 0
M  V30 551 H 56.4936 3.82145 1.64634 0
M  V30 552 H 55.3696 4.84883 2.57254 0
M  V30 553 H 55.6306 3.18376 3.0674 0
M  V30 554 N 54.6897 -0.239769 1.55765 0
M  V30 555 C 55.5997 -1.31831 1.94056 0
M  V30 556 C 56.6157 -1.52275 0.841925 0
M  V30 557 O 57.7917 -1.65759 1.14394 0
M  V30 558 C 54.8567 -2.65156 2.23368 0
M  V30 559 C 53.9177 -2.53173 3.46701 0
M  V30 560 C 53.1507 -3.8014 3.74606 0
M  V30 561 O 53.3737 -4.82343 3.04469 0
M  V30 562 O 52.3077 -3.78344 4.68123 0
M  V30 563 H 56.1337 -1.02347 2.85935 0
M  V30 564 H 53.7187 -0.441123 1.42739 0
M  V30 565 H 55.6007 -3.43929 2.43497 0
M  V30 566 H 54.2757 -2.94358 1.34666 0
M  V30 567 H 53.1827 -1.72662 3.31871 0
M  V30 568 H 54.5157 -2.28915 4.35728 0
M  V30 569 N 56.1678 -1.49265 -0.50573 0
M  V30 570 C 57.1308 -1.65075 -1.59006 0
M  V30 571 C 58.1308 -0.522768 -1.52065 0
M  V30 572 O 59.3208 -0.789117 -1.55302 0
M  V30 573 C 56.4528 -1.64369 -2.98656 0
M  V30 574 H 57.6458 -2.61784 -1.46319 0
M  V30 575 H 55.1988 -1.38226 -0.729616 0
M  V30 576 H 55.9338 -0.692272 -3.16825 0
M  V30 577 H 55.7188 -2.46282 -3.05103 0
M  V30 578 H 57.2088 -1.78674 -3.77446 0
M  V30 579 N 57.6459 0.756429 -1.3826 0
M  V30 580 C 58.8919 1.51772 -1.34511 0
M  V30 581 C 59.2249 1.94089 0.0656691 0
M  V30 582 O 58.4999 1.65221 1.02626 0
M  V30 583 C 58.7829 2.77226 -2.29821 0
M  V30 584 C 58.6359 2.41065 -3.79747 0
M  V30 585 C 59.9549 3.79236 -2.23312 0
M  V30 586 H 57.0739 0.550578 -0.489931 0
M  V30 587 H 59.7159 0.866607 -1.69086 0
M  V30 588 H 57.8659 3.32784 -2.00467 0
M  V30 589 H 59.5379 1.91303 -4.19763 0
M  V30 590 H 57.7809 1.7356 -3.97567 0
M  V30 591 H 58.4519 3.3081 -4.41892 0
M  V30 592 H 60.9279 3.3321 -2.49219 0
M  V30 593 H 59.8039 4.64714 -2.92116 0
M  V30 594 H 60.0649 4.24615 -1.23102 0
M  V30 595 N 59.124 1.23083 0.984299 0
M  V30 596 C 60.074 0.975749 2.06066 0
M  V30 597 C 61.058 -0.0768251 1.60716 0
M  V30 598 O 62.25 0.134805 1.76486 0
M  V30 599 C 59.379 0.564673 3.38624 0
M  V30 600 C 58.465 1.65244 3.90583 0
M  V30 601 N 58.856 2.88193 4.15666 0
M  V30 602 C 57.154 1.52612 4.19077 0
M  V30 603 C 57.855 3.58593 4.58024 0
M  V30 604 N 56.831 2.86093 4.62225 0
M  V30 605 H 60.633 1.90957 2.23411 0
M  V30 606 H 58.147 1.12963 1.16675 0
M  V30 607 H 60.144 0.36322 4.15315 0
M  V30 608 H 58.804 -0.362147 3.22674 0
M  V30 609 H 59.815 3.24537 4.03604 0
M  V30 610 H 56.492 0.666121 4.12152 0
M  V30 611 H 57.882 4.63974 4.85982 0
M  V30 612 N 60.6021 -1.18246 1.0419 0
M  V30 613 C 61.5491 -2.2192 0.634037 0
M  V30 614 C 62.5191 -1.62179 -0.358765 0
M  V30 615 O 63.7041 -1.89122 -0.252466 0
M  V30 616 C 60.8441 -3.451 0.00445535 0
M  V30 617 C 59.9571 -4.19174 1.04487 0
M  V30 618 C 59.0921 -5.29813 0.383676 0
M  V30 619 C 58.1311 -5.9566 1.4091 0
M  V30 620 N 57.2681 -6.97834 0.772784 0
M  V30 621 H 62.1081 -2.56164 1.52263 0
M  V30 622 H 59.6451 -1.25843 0.761701 0
M  V30 623 H 61.6031 -4.15485 -0.377919 0
M  V30 624 H 60.2331 -3.11472 -0.847652 0
M  V30 625 H 59.2851 -3.47604 1.54518 0
M  V30 626 H 60.5971 -4.64267 1.82368 0
M  V30 627 H 59.7511 -6.06677 -0.0528366 0
M  V30 628 H 58.4901 -4.85825 -0.427208 0
M  V30 629 H 57.4951 -5.17535 1.85574 0
M  V30 630 H 58.7201 -6.4173 2.22171 0
M  V30 631 H 56.6661 -6.55998 -0.0177708 0
M  V30 632 H 56.5831 -7.41186 1.48928 0
M  V30 633 H 57.8511 -7.78665 0.36071 0
M  V30 634 N 62.0802 -0.821533 -1.34494 0
M  V30 635 C 63.0102 -0.257138 -2.3208 0
M  V30 636 C 63.9912 0.625645 -1.58176 0
M  V30 637 O 65.1762 0.552811 -1.86166 0
M  V30 638 C 62.3062 0.582958 -3.42372 0
M  V30 639 C 61.2602 -0.202571 -4.2752 0
M  V30 640 C 60.5862 0.760179 -5.29269 0
M  V30 641 C 61.8862 -1.40998 -5.02908 0
M  V30 642 H 63.5802 -1.07247 -2.79532 0
M  V30 643 H 61.1262 -0.517163 -1.34393 0
M  V30 644 H 63.0792 0.987972 -4.09655 0
M  V30 645 H 61.8032 1.43133 -2.93565 0
M  V30 646 H 60.4622 -0.588936 -3.61838 0
M  V30 647 H 60.1102 1.60447 -4.76724 0
M  V30 648 H 59.8102 0.238809 -5.87115 0
M  V30 649 H 61.3342 1.16308 -5.9942 0
M  V30 650 H 62.7482 -1.07905 -5.63054 0
M  V30 651 H 61.1452 -1.86689 -5.70322 0
M  V30 652 H 62.2152 -2.1889 -4.32684 0
M  V30 653 N 63.5583 1.46682 -0.576371 0
M  V30 654 C 64.5213 2.28707 0.150239 0
M  V30 655 C 65.5213 1.38035 0.824794 0
M  V30 656 O 66.7113 1.60476 0.677719 0
M  V30 657 C 63.8433 3.18248 1.22192 0
M  V30 658 H 65.0363 2.94423 -0.570521 0
M  V30 659 H 62.5893 1.52688 -0.334078 0
M  V30 660 H 63.3243 2.57265 1.97447 0
M  V30 661 H 63.1093 3.85 0.742812 0
M  V30 662 H 64.5993 3.80001 1.73172 0
M  V30 663 N 65.0364 0.313813 1.54444 0
M  V30 664 C 65.9464 -0.565714 2.27677 0
M  V30 665 C 66.9624 -1.13754 1.31666 0
M  V30 666 O 68.1384 -1.15959 1.64668 0
M  V30 667 C 65.2034 -1.71528 3.01296 0
M  V30 668 C 64.2644 -1.17624 4.12872 0
M  V30 669 C 63.4974 -2.27102 4.8297 0
M  V30 670 O 63.7204 -3.47256 4.52514 0
M  V30 671 O 62.6544 -1.9307 5.70094 0
M  V30 672 H 66.4804 0.0287296 3.03686 0
M  V30 673 H 64.0654 0.0798312 1.49187 0
M  V30 674 H 65.9474 -2.38476 3.4743 0
M  V30 675 H 64.6224 -2.29608 2.2817 0
M  V30 676 H 63.5294 -0.472124 3.71109 0
M  V30 677 H 64.8624 -0.640695 4.88012 0
M  V30 678 N 66.5145 -1.57545 0.0417849 0
M  V30 679 C 67.4445 -2.14009 -0.933929 0
M  V30 680 C 68.4255 -1.05938 -1.33083 0
M  V30 681 O 69.6105 -1.33833 -1.40721 0
M  V30 682 C 66.7405 -2.67747 -2.21199 0
M  V30 683 C 65.6945 -3.80718 -1.95544 0
M  V30 684 C 65.0205 -4.20935 -3.29724 0
M  V30 685 C 66.3205 -5.06258 -1.28452 0
M  V30 686 H 68.0145 -2.95788 -0.463645 0
M  V30 687 H 65.5605 -1.42285 -0.221573 0
M  V30 688 H 67.5135 -3.05886 -2.89848 0
M  V30 689 H 66.2375 -1.83147 -2.70416 0
M  V30 690 H 64.8965 -3.43037 -1.2931 0
M  V30 691 H 64.5445 -3.33298 -3.76724 0
M  V30 692 H 64.2445 -4.9707 -3.13361 0
M  V30 693 H 65.7685 -4.61666 -3.9962 0
M  V30 694 H 67.1825 -5.41903 -1.8712 0
M  V30 695 H 65.5795 -5.87475 -1.22445 0
M  V30 696 H 66.6495 -4.84207 -0.259219 0
M  V30 697 N 67.9926 0.231505 -1.5589 0
M  V30 698 C 69.2406 0.955461 -1.78088 0
M  V30 699 C 69.5616 1.85262 -0.608533 0
M  V30 700 O 68.8316 1.92277 0.375035 0
M  V30 701 H 67.4116 0.355787 -0.656829 0
M  V30 702 H 70.0736 0.245751 -1.93344 0
M  V30 703 H 69.1696 1.56814 -2.69844 0
M  V30 704 N 69.4707 1.49531 0.497807 0
M  V30 705 C 70.4337 1.65916 1.58128 0
M  V30 706 C 71.4337 0.530825 1.51786 0
M  V30 707 O 72.6237 0.797342 1.54881 0
M  V30 708 C 69.7557 1.65951 2.9778 0
M  V30 709 H 70.9487 2.62556 1.44929 0
M  V30 710 H 68.5017 1.38611 0.722275 0
M  V30 711 H 69.2367 0.709065 3.16453 0
M  V30 712 H 69.0217 2.47897 3.03792 0
M  V30 713 H 70.5117 1.80673 3.76493 0
M  V30 714 N 70.9488 -0.749086 1.3866 0
M  V30 715 C 72.1788 -1.53611 1.38157 0
M  V30 716 C 72.5868 -1.89177 -0.0293595 0
M  V30 717 O 71.9298 -1.53606 -1.00752 0
M  V30 718 C 71.9918 -2.86087 2.17702 0
M  V30 719 C 71.6558 -2.73034 3.66472 0
M  V30 720 C 72.6528 -2.42526 4.59866 0
M  V30 721 C 70.3378 -2.90345 4.09884 0
M  V30 722 C 72.3318 -2.29492 5.94653 0
M  V30 723 C 70.0188 -2.7693 5.4475 0
M  V30 724 C 71.0168 -2.46547 6.36949 0
M  V30 725 O 70.7048 -2.33199 7.69333 0
M  V30 726 H 70.4368 -0.481773 0.474205 0
M  V30 727 H 72.9908 -0.934465 1.82912 0
M  V30 728 H 71.2208 -3.48458 1.67672 0
M  V30 729 H 72.9098 -3.47625 2.09551 0
M  V30 730 H 73.6758 -2.28816 4.27631 0
M  V30 731 H 69.5548 -3.1299 3.38464 0
M  V30 732 H 73.0988 -2.05698 6.66584 0
M  V30 733 H 68.9958 -2.90215 5.76581 0
M  V30 734 H 69.7638 -2.48376 7.79905 0
M  V30 735 N 72.4269 -1.23603 -0.977757 0
M  V30 736 C 73.6749 -1.06759 -1.71601 0
M  V30 737 C 73.9959 0.395929 -1.90938 0
M  V30 738 O 73.2659 1.28356 -1.47992 0
M  V30 739 H 71.8459 -0.392062 -0.635843 0
M  V30 740 H 74.5079 -1.55362 -1.1768 0
M  V30 741 H 73.6039 -1.55763 -2.70452 0
M  V30 742 N 73.905 1.17692 -1.04816 0
M  V30 743 C 75.154 1.87192 -0.751132 0
M  V30 744 C 75.467 1.8169 0.724441 0
M  V30 745 O 76.673 2.46625 1.13527 0
M  V30 746 C 75.129 3.35857 -1.29338 0
M  V30 747 C 74.737 3.4987 -2.79812 0
M  V30 748 C 76.481 4.10709 -1.07322 0
M  V30 749 C 74.388 4.92536 -3.27356 0
M  V30 750 H 73.318 0.701162 -0.277288 0
M  V30 751 H 75.969 1.32932 -1.26496 0
M  V30 752 H 74.351 3.89631 -0.707376 0
M  V30 753 H 75.525 3.06332 -3.44235 0
M  V30 754 H 73.84 2.88433 -3.00325 0
M  V30 755 H 76.437 5.15952 -1.4035 0
M  V30 756 H 76.78 4.16299 -0.0108001 0
M  V30 757 H 77.313 3.6313 -1.62423 0
M  V30 758 H 74.052 4.92119 -4.33012 0
M  V30 759 H 73.572 5.3676 -2.67673 0
M  V30 760 H 75.251 5.61288 -3.21815 0
M  V30 761 N 75.3831 0.828654 1.34056 0
M  V30 762 C 76.6111 0.43262 2.02326 0
M  V30 763 C 77.0261 -0.963147 1.62385 0
M  V30 764 O 76.3831 -1.62425 0.832121 0
M  V30 765 C 76.4341 0.53182 3.57567 0
M  V30 766 O 76.1551 1.87258 3.96063 0
M  V30 767 C 77.6561 0.131422 4.43105 0
M  V30 768 H 74.8761 0.172923 0.648335 0
M  V30 769 H 77.4201 1.1184 1.71208 0
M  V30 770 H 75.5751 -0.105938 3.87255 0
M  V30 771 H 75.9891 1.85087 4.90758 0
M  V30 772 H 77.4631 0.251904 5.51425 0
M  V30 773 H 77.9401 -0.925645 4.29335 0
M  V30 774 H 78.5461 0.743207 4.18756 0
M  V30 775 N 76.8612 -1.46375 0.584142 0
M  V30 776 C 78.1082 -2.02378 0.0702675 0
M  V30 777 C 78.4362 -1.45545 -1.29023 0
M  V30 778 O 77.6912 -0.610967 -1.85918 0
M  V30 779 C 77.9902 -3.57373 -0.0439342 0
M  V30 780 C 77.6562 -4.33252 1.24915 0
M  V30 781 C 76.3182 -4.53701 1.60341 0
M  V30 782 C 78.6702 -4.7681 2.1048 0
M  V30 783 C 75.9982 -5.1496 2.81128 0
M  V30 784 C 78.3502 -5.39404 3.30494 0
M  V30 785 C 77.0142 -5.5808 3.66201 0
M  V30 786 H 76.2842 -0.740554 0.0257127 0
M  V30 787 H 78.9312 -1.75727 0.761065 0
M  V30 788 H 77.2362 -3.83169 -0.817869 0
M  V30 789 H 78.9332 -3.98384 -0.457318 0
M  V30 790 H 75.5232 -4.17633 0.963364 0
M  V30 791 H 79.7072 -4.60766 1.84414 0
M  V30 792 H 74.9632 -5.27611 3.08928 0
M  V30 793 H 79.1372 -5.72114 3.97063 0
M  V30 794 H 76.7642 -6.05318 4.59885 0
M  V30 795 N 78.3393 -0.321999 -1.54275 0
M  V30 796 C 79.2893 0.560185 -2.21011 0
M  V30 797 C 80.2733 1.08283 -1.19011 0
M  V30 798 O 81.4653 1.02011 -1.44647 0
M  V30 799 C 78.5943 1.72137 -2.97025 0
M  V30 800 C 77.6803 1.21369 -4.06363 0
M  V30 801 N 78.0713 0.425566 -5.04007 0
M  V30 802 C 76.3693 1.49255 -4.20284 0
M  V30 803 C 77.0703 0.152601 -5.815 0
M  V30 804 N 76.0463 0.738294 -5.38563 0
M  V30 805 H 79.8483 -0.049265 -2.93859 0
M  V30 806 H 77.3623 -0.127779 -1.61897 0
M  V30 807 H 79.3593 2.36512 -3.43319 0
M  V30 808 H 78.0193 2.33431 -2.25699 0
M  V30 809 H 79.0303 0.068551 -5.17855 0
M  V30 810 H 75.7073 2.11145 -3.60172 0
M  V30 811 H 77.0973 -0.481764 -6.70171 0
M  V30 812 N 79.8174 1.5752 -0.0501392 0
M  V30 813 C 81.0944 1.83996 0.663685 0
M  V30 814 C 81.4744 0.938339 1.89099 0
M  V30 815 O 80.8224 -0.00087759 2.285 0
M  V30 816 C 81.0324 3.33702 1.02196 0
M  V30 817 C 82.3804 4.00691 1.40469 0
M  V30 818 O 83.4044 3.38321 1.11433 0
M  V30 819 O 82.2634 5.10658 1.94654 0
M  V30 820 H 79.3574 0.759385 0.32751 0
M  V30 821 H 81.9034 1.69514 -0.0794238 0
M  V30 822 H 80.6754 3.91015 0.149364 0
M  V30 823 H 80.2984 3.53368 1.82255 0
M  V30 824 N 81.2955 -0.223234 1.56011 0
M  V30 825 C 82.2435 -1.29627 1.93131 0
M  V30 826 C 83.2375 -1.48608 0.813146 0
M  V30 827 O 84.4435 -1.49802 0.997966 0
M  V30 828 H 80.8185 -0.434563 0.613726 0
M  V30 829 H 82.7895 -0.955995 2.82672 0
M  V30 830 C 81.5385 -2.63983 2.26292 0
M  V30 831 H 80.8615 -2.50185 3.11846 0
M  V30 832 H 82.3015 -3.3788 2.56151 0
M  V30 833 C 80.7605 -3.18866 1.08747 0
M  V30 834 O 81.2905 -4.00192 0.347727 0
M  V30 835 N 79.4965 -2.77217 0.871743 0
M  V30 836 H 79.0435 -2.1119 1.47501 0
M  V30 837 H 79.0015 -3.1428 0.0869905 0
M  V30 838 N 82.7736 -1.49793 -0.48987 0
M  V30 839 C 84.0506 -1.50348 -1.25119 0
M  V30 840 C 84.4306 -0.237466 -2.0976 0
M  V30 841 O 83.7786 0.77981 -2.14782 0
M  V30 842 C 83.9886 -2.78872 -2.09837 0
M  V30 843 C 85.3366 -3.288 -2.68655 0
M  V30 844 O 86.3606 -2.80065 -2.20096 0
M  V30 845 O 85.2196 -4.13707 -3.57083 0
M  V30 846 H 82.3136 -0.602242 -0.566775 0
M  V30 847 H 84.8596 -1.62067 -0.503229 0
M  V30 848 H 83.6316 -3.62499 -1.47343 0
M  V30 849 H 83.2546 -2.70066 -2.91805 0
M  V30 850 N 84.2517 0.741722 -1.39055 0
M  V30 851 C 85.1817 1.869 -1.39966 0
M  V30 852 C 86.1627 1.6804 -0.26392 0
M  V30 853 O 87.3477 1.88458 -0.468755 0
M  V30 854 C 84.4777 3.24572 -1.23574 0
M  V30 855 C 83.4317 3.58056 -2.34477 0
M  V30 856 C 82.7577 4.94593 -2.0318 0
M  V30 857 C 84.0577 3.61716 -3.76774 0
M  V30 858 H 85.7517 1.86395 -2.34302 0
M  V30 859 H 83.2977 0.895361 -1.1278 0
M  V30 860 H 85.2507 4.031 -1.22834 0
M  V30 861 H 83.9747 3.25587 -0.257045 0
M  V30 862 H 82.6337 2.81854 -2.34423 0
M  V30 863 H 82.2817 4.92181 -1.03765 0
M  V30 864 H 81.9817 5.17964 -2.77465 0
M  V30 865 H 83.5057 5.75486 -2.04079 0
M  V30 866 H 84.9197 4.30335 -3.78794 0
M  V30 867 H 83.3167 3.96603 -4.50362 0
M  V30 868 H 84.3867 2.61672 -4.08235 0
M  V30 869 N 85.7298 1.2412 0.971189 0
M  V30 870 C 86.9788 1.07284 1.70801 0
M  V30 871 C 87.2918 -0.388902 1.91695 0
M  V30 872 O 88.4978 -0.677379 2.62914 0
M  V30 873 C 86.9538 1.87145 3.07416 0
M  V30 874 C 86.5618 3.37707 2.94377 0
M  V30 875 C 88.3058 1.78828 3.84995 0
M  V30 876 C 86.2128 4.09925 4.26281 0
M  V30 877 H 85.1428 0.397854 0.64049 0
M  V30 878 H 87.7938 1.4817 1.0825 0
M  V30 879 H 86.1758 1.39071 3.70777 0
M  V30 880 H 87.3498 3.93335 2.4005 0
M  V30 881 H 85.6648 3.46938 2.30267 0
M  V30 882 H 88.2618 2.30089 4.82662 0
M  V30 883 H 88.6048 0.75284 4.09436 0
M  V30 884 H 89.1378 2.24563 3.28354 0
M  V30 885 H 85.8768 5.13813 4.07033 0
M  V30 886 H 85.3968 3.59083 4.80437 0
M  V30 887 H 87.0758 4.1673 4.94919 0
M  V30 888 N 87.2079 -1.17134 1.05439 0
M  V30 889 C 88.6189 -1.69084 0.791676 0
M  V30 890 C 88.9699 -1.83822 -0.685839 0
M  V30 891 O 88.0949 -1.52757 -1.53278 0
M  V30 892 C 88.6899 -3.07119 1.4305 0
M  V30 893 C 87.2489 -3.56225 1.21577 0
M  V30 894 C 86.3959 -2.32421 1.51247 0
M  V30 895 H 89.3469 -1.01617 1.219 0
M  V30 896 H 89.3679 -3.71087 0.84112 0
M  V30 897 H 88.8799 -2.9636 2.50584 0
M  V30 898 H 86.9809 -3.72257 0.159787 0
M  V30 899 H 87.0939 -4.38837 1.92246 0
M  V30 900 H 85.4579 -2.3701 0.932653 0
M  V30 901 H 86.2409 -2.24268 2.5992 0
M  V30 902 N 88.686 -0.835752 -1.33615 0
M  V30 903 C 89.933 -0.429959 -1.97883 0
M  V30 904 C 90.261 1.01006 -1.66217 0
M  V30 905 O 89.516 1.72047 -0.93265 0
M  V30 906 C 89.815 -0.593925 -3.52431 0
M  V30 907 C 89.481 -2.00158 -4.04039 0
M  V30 908 C 88.143 -2.38662 -4.17844 0
M  V30 909 C 90.495 -2.92117 -4.31644 0
M  V30 910 C 87.823 -3.68435 -4.56588 0
M  V30 911 C 90.175 -4.21368 -4.71838 0
M  V30 912 C 88.839 -4.59833 -4.83849 0
M  V30 913 H 88.109 -0.157333 -0.724104 0
M  V30 914 H 90.756 -1.06217 -1.59343 0
M  V30 915 H 89.061 0.121619 -3.91611 0
M  V30 916 H 90.758 -0.260282 -4.00154 0
M  V30 917 H 87.348 -1.69252 -3.93766 0
M  V30 918 H 91.532 -2.63608 -4.20505 0
M  V30 919 H 86.788 -3.98046 -4.64079 0
M  V30 920 H 90.962 -4.92703 -4.92155 0
M  V30 921 H 88.589 -5.60438 -5.13627 0
M  V30 922 N 90.1641 1.46063 -0.591896 0
M  V30 923 C 91.4411 1.95595 -0.0137119 0
M  V30 924 C 91.8211 1.5345 1.4497 0
M  V30 925 O 91.1691 0.789543 2.14426 0
M  V30 926 C 91.3791 3.48453 -0.195373 0
M  V30 927 C 92.7271 4.24546 -0.0679765 0
M  V30 928 O 93.7511 3.55982 -0.124681 0
M  V30 929 O 92.6101 5.46467 0.0600579 0
M  V30 930 H 89.7041 0.825795 0.0446279 0
M  V30 931 H 92.2501 1.56303 -0.660859 0
M  V30 932 H 91.0221 3.72045 -1.21235 0
M  V30 933 H 90.6451 3.94597 0.487775 0
M  V30 934 N 91.6422 0.330177 1.54103 0
M  V30 935 C 92.6052 -0.520144 2.2322 0
M  V30 936 C 93.6052 -1.03828 1.22786 0
M  V30 937 O 94.7952 -0.929652 1.4732 0
M  V30 938 C 91.9272 -1.72317 2.94142 0
M  V30 939 H 93.1202 0.0841605 2.99782 0
M  V30 940 H 90.6732 0.0813433 1.56088 0
M  V30 941 H 91.4082 -2.36653 2.21734 0
M  V30 942 H 91.1932 -1.35898 3.67796 0
M  V30 943 H 92.6832 -2.3266 3.46784 0
M  V30 944 N 93.1203 -1.57491 0.0584922 0
M  V30 945 C 94.3483 -1.97296 -0.623037 0
M  V30 946 C 94.7633 -0.936338 -1.63946 0
M  V30 947 O 94.1203 0.0785981 -1.82331 0
M  V30 948 C 94.1713 -3.37183 -1.30345 0
M  V30 949 O 93.8923 -4.36872 -0.32773 0
M  V30 950 C 95.3933 -3.91788 -2.07406 0
M  V30 951 H 92.6133 -0.649153 -0.169826 0
M  V30 952 H 95.1573 -2.04106 0.12696 0
M  V30 953 H 93.3123 -3.31502 -2.00463 0
M  V30 954 H 93.7263 -5.18141 -0.814269 0
M  V30 955 H 95.2003 -4.91926 -2.50425 0
M  V30 956 H 95.6773 -3.27609 -2.92521 0
M  V30 957 H 96.2833 -4.00829 -1.42184 0
M  V30 958 N 94.5984 0.214957 -1.56127 0
M  V30 959 C 95.5084 1.28727 -1.96129 0
M  V30 960 C 96.5244 1.50916 -0.866044 0
M  V30 961 O 97.7004 1.63918 -1.17016 0
M  V30 962 C 94.7654 2.61569 -2.27558 0
M  V30 963 C 93.8264 2.47625 -3.50685 0
M  V30 964 C 93.0594 3.74132 -3.80606 0
M  V30 965 O 93.2824 4.77438 -3.12104 0
M  V30 966 O 92.2164 3.70849 -4.74083 0
M  V30 967 H 96.0424 0.977855 -2.87527 0
M  V30 968 H 93.6274 0.418358 -1.43423 0
M  V30 969 H 95.5094 3.40012 -2.48938 0
M  V30 970 H 94.1844 2.92178 -1.39332 0
M  V30 971 H 93.0914 1.67361 -3.34576 0
M  V30 972 H 94.4244 2.21954 -4.39315 0
M  V30 973 N 96.0765 1.50051 0.48192 0
M  V30 974 C 97.0395 1.67584 1.5636 0
M  V30 975 C 98.0395 0.546894 1.51214 0
M  V30 976 O 99.2295 0.813725 1.54026 0
M  V30 977 C 96.3615 1.691 2.96003 0
M  V30 978 H 97.5545 2.64078 1.42136 0
M  V30 979 H 95.1075 1.39369 0.707533 0
M  V30 980 H 95.8425 0.742589 3.15684 0
M  V30 981 H 95.6275 2.51105 3.01146 0
M  V30 982 H 97.1175 1.84656 3.74556 0
M  V30 983 N 97.5546 -0.734337 1.39446 0
M  V30 984 C 98.4646 -1.87879 1.40495 0
M  V30 985 C 99.4806 -1.714 0.299672 0
M  V30 986 O 100.657 -1.93991 0.541249 0
M  V30 987 C 97.7216 -3.23477 1.24754 0
M  V30 988 C 96.7826 -3.52344 2.45259 0
M  V30 989 C 96.0156 -4.81473 2.30259 0
M  V30 990 O 96.2386 -5.55237 1.30643 0
M  V30 991 O 95.1726 -5.10254 3.19256 0
M  V30 992 H 98.9986 -1.89949 2.36966 0
M  V30 993 H 96.5836 -0.882243 1.20569 0
M  V30 994 H 98.4656 -4.04509 1.18111 0
M  V30 995 H 97.1406 -3.22176 0.313781 0
M  V30 996 H 96.0476 -2.71396 2.57478 0
M  V30 997 H 97.3806 -3.58426 3.37331 0
M  V30 998 N 99.0327 -1.24633 -0.964593 0
M  V30 999 C 100.449 -1.01239 -1.2338 0
M  V30 1000 C 100.649 0.2769 -1.99588 0
M  V30 1001 O 99.7047 0.992241 -2.32187 0
M  V30 1002 C 101.018 -2.22937 -2.01791 0
M  V30 1003 C 102.566 -2.27594 -2.14872 0
M  V30 1004 C 103.041 -3.48921 -2.96678 0
M  V30 1005 N 104.532 -3.49257 -3.04259 0
M  V30 1006 C 105.267 -4.39795 -3.67924 0
M  V30 1007 N 104.763 -5.40591 -4.33281 0
M  V30 1008 N 106.556 -4.275 -3.64966 0
M  V30 1009 H 98.7067 -2.0748 -0.454502 0
M  V30 1010 H 100.97 -0.910647 -0.26349 0
M  V30 1011 H 100.676 -3.16587 -1.53184 0
M  V30 1012 H 100.55 -2.25306 -3.02518 0
M  V30 1013 H 102.937 -1.34473 -2.6268 0
M  V30 1014 H 103.018 -2.2925 -1.13482 0
M  V30 1015 H 102.662 -4.42359 -2.49562 0
M  V30 1016 H 102.592 -3.4451 -3.98272 0
M  V30 1017 H 105.083 -2.76337 -2.57771 0
M  V30 1018 H 105.396 -6.05904 -4.79687 0
M  V30 1019 H 103.741 -5.44475 -4.3194 0
M  V30 1020 H 106.932 -3.47987 -3.13086 0
M  V30 1021 H 107.105 -4.98258 -4.14298 0
M  V30 1022 N 100.511 1.16574 -1.06058 0
M  V30 1023 C 101.421 2.2452 -0.680282 0
M  V30 1024 C 102.437 1.71348 0.302604 0
M  V30 1025 O 103.613 2.00822 0.152513 0
M  V30 1026 C 100.678 3.46629 -0.0700315 0
M  V30 1027 C 99.7388 4.14849 -1.10448 0
M  V30 1028 C 98.9718 5.31129 -0.523256 0
M  V30 1029 O 99.1948 5.66514 0.664709 0
M  V30 1030 O 98.1288 5.88526 -1.26179 0
M  V30 1031 H 101.955 2.59355 -1.58015 0
M  V30 1032 H 99.5398 1.24043 -0.832694 0
M  V30 1033 H 101.422 4.20543 0.268667 0
M  V30 1034 H 100.097 3.13573 0.803353 0
M  V30 1035 H 99.0038 3.42916 -1.49532 0
M  V30 1036 H 100.337 4.51954 -1.94931 0
M  V30 1037 N 101.989 0.842826 1.3317 0
M  V30 1038 C 102.936 0.276885 2.29133 0
M  V30 1039 C 103.906 -0.609527 1.54512 0
M  V30 1040 O 105.091 -0.546955 1.82792 0
M  V30 1041 C 102.231 -0.538707 3.40869 0
M  V30 1042 C 101.344 0.372169 4.30394 0
M  V30 1043 C 100.479 -0.454908 5.29249 0
M  V30 1044 C 99.5179 0.45411 6.10413 0
M  V30 1045 N 98.6549 -0.335075 7.013 0
M  V30 1046 H 103.495 1.10052 2.76934 0
M  V30 1047 H 101.032 0.554161 1.36262 0
M  V30 1048 H 102.99 -1.02709 4.0436 0
M  V30 1049 H 101.62 -1.32727 2.9425 0
M  V30 1050 H 100.672 0.97888 3.6759 0
M  V30 1051 H 101.984 1.0703 4.87182 0
M  V30 1052 H 101.138 -1.00695 5.98285 0
M  V30 1053 H 99.8769 -1.18646 4.73048 0
M  V30 1054 H 98.8819 1.01813 5.40291 0
M  V30 1055 H 100.107 1.18409 6.68697 0
M  V30 1056 H 98.0529 -1.04994 6.47543 0
M  V30 1057 H 97.9699 0.304262 7.55387 0
M  V30 1058 H 99.2379 -0.869224 7.74638 0
M  V30 1059 N 103.467 -1.45747 0.599634 0
M  V30 1060 C 104.716 -2.01502 0.0893511 0
M  V30 1061 C 105.029 -1.4748 -1.28488 0
M  V30 1062 O 106.235 -1.95161 -1.88745 0
M  V30 1063 C 104.691 -3.59735 0.109082 0
M  V30 1064 C 104.299 -4.22754 1.48267 0
M  V30 1065 C 106.043 -4.23085 -0.346374 0
M  V30 1066 C 103.95 -5.73115 1.45921 0
M  V30 1067 H 102.88 -0.753417 0.0296347 0
M  V30 1068 H 105.531 -1.67303 0.753788 0
M  V30 1069 H 103.913 -3.91087 -0.621854 0
M  V30 1070 H 105.087 -4.02987 2.23468 0
M  V30 1071 H 103.402 -3.71567 1.87955 0
M  V30 1072 H 105.999 -5.33327 -0.38298 0
M  V30 1073 H 106.342 -3.93201 -1.36743 0
M  V30 1074 H 106.875 -3.9642 0.331038 0
M  V30 1075 H 103.614 -6.07685 2.45762 0
M  V30 1076 H 103.134 -5.95097 0.749665 0
M  V30 1077 H 104.813 -6.3616 1.17941 0
M  V30 1078 N 104.945 -0.338344 -1.53925 0
M  V30 1079 C 105.875 0.51328 -2.27789 0
M  V30 1080 C 106.856 1.107 -1.29149 0
M  V30 1081 O 108.041 1.12937 -1.57984 0
M  V30 1082 C 105.171 1.66697 -3.04679 0
M  V30 1083 C 104.125 1.20183 -4.1078 0
M  V30 1084 C 103.451 2.44363 -4.75595 0
M  V30 1085 C 104.751 0.30605 -5.21403 0
M  V30 1086 H 106.445 -0.102883 -2.99223 0
M  V30 1087 H 103.991 -0.0509219 -1.4391 0
M  V30 1088 H 105.944 2.26915 -3.55088 0
M  V30 1089 H 104.668 2.30995 -2.30887 0
M  V30 1090 H 103.327 0.622499 -3.61276 0
M  V30 1091 H 102.975 3.07057 -3.98403 0
M  V30 1092 H 102.675 2.13925 -5.47275 0
M  V30 1093 H 104.199 3.05317 -5.28786 0
M  V30 1094 H 105.613 0.814929 -5.67478 0
M  V30 1095 H 104.01 0.0937929 -6.00027 0
M  V30 1096 H 105.08 -0.65921 -4.80398 0
M  V30 1097 N 106.423 1.57458 -0.0668435 0
M  V30 1098 C 107.671 1.92919 0.602214 0
M  V30 1099 C 107.992 0.947215 1.70449 0
M  V30 1100 O 107.262 -0.00544117 1.95899 0
M  V30 1101 H 105.842 0.71217 0.22544 0
M  V30 1102 H 108.504 1.94508 -0.123535 0
M  V30 1103 H 107.6 2.94589 1.03073 0
M  V30 1104 N 107.901 -0.206675 1.56239 0
M  V30 1105 C 109.178 -0.954051 1.70755 0
M  V30 1106 C 109.558 -2.01841 0.618353 0
M  V30 1107 O 108.906 -2.25444 -0.372434 0
M  V30 1108 C 109.116 -1.551 3.12642 0
M  V30 1109 C 110.464 -2.03757 3.72516 0
M  V30 1110 O 111.488 -1.64965 3.15698 0
M  V30 1111 O 110.347 -2.75103 4.72208 0
M  V30 1112 H 107.441 -0.446636 0.696021 0
M  V30 1113 H 109.987 -0.197283 1.68549 0
M  V30 1114 H 108.759 -0.783212 3.83382 0
M  V30 1115 H 108.382 -2.37291 3.19028 0
M  V30 1116 N 109.379 -1.50304 -0.473955 0
M  V30 1117 C 110.626 -1.6115 -1.22625 0
M  V30 1118 C 110.954 -0.310517 -1.92005 0
M  V30 1119 O 110.209 0.703419 -1.82621 0
M  V30 1120 C 110.508 -2.73938 -2.29549 0
M  V30 1121 C 110.174 -4.14519 -1.7744 0
M  V30 1122 C 108.836 -4.5277 -1.62949 0
M  V30 1123 C 111.188 -5.02392 -1.3875 0
M  V30 1124 C 108.516 -5.76639 -1.08187 0
M  V30 1125 C 110.868 -6.26805 -0.854309 0
M  V30 1126 C 109.532 -6.63861 -0.696011 0
M  V30 1127 H 108.802 -0.589691 -0.448715 0
M  V30 1128 H 111.449 -1.84228 -0.522705 0
M  V30 1129 H 109.754 -2.44937 -3.05799 0
M  V30 1130 H 111.451 -2.79534 -2.87509 0
M  V30 1131 H 108.041 -3.8434 -1.89685 0
M  V30 1132 H 112.225 -4.73474 -1.4878 0
M  V30 1133 H 107.481 -6.04027 -0.946666 0
M  V30 1134 H 111.655 -6.94258 -0.545843 0
M  V30 1135 H 109.282 -7.59722 -0.26952 0
M  V30 1136 N 110.857 0.726932 -1.39834 0
M  V30 1137 C 111.805 1.86235 -1.39353 0
M  V30 1138 C 112.799 1.67144 -0.275555 0
M  V30 1139 O 114.005 1.74387 -0.44601 0
M  V30 1140 H 110.38 0.613174 -0.43534 0
M  V30 1141 H 112.351 1.83756 -2.35109 0
M  V30 1142 C 111.1 3.23995 -1.26185 0
M  V30 1143 H 110.423 3.39285 -2.11484 0
M  V30 1144 H 111.863 4.03609 -1.29907 0
M  V30 1145 C 110.322 3.36888 0.0290018 0
M  V30 1146 O 110.852 3.89152 0.99619 0
M  V30 1147 N 109.058 2.90446 0.0947437 0
M  V30 1148 H 108.605 2.48102 -0.693035 0
M  V30 1149 H 108.563 2.99451 0.957932 0
M  V30 1150 N 112.336 1.25143 0.95797 0
M  V30 1151 C 113.268 1.01023 2.05735 0
M  V30 1152 C 114.281 -0.0236902 1.62783 0
M  V30 1153 O 115.47 0.21448 1.77207 0
M  V30 1154 C 112.57 0.504595 3.35122 0
M  V30 1155 C 111.743 1.6039 4.06932 0
M  V30 1156 C 110.802 1.09922 5.14591 0
M  V30 1157 O 109.828 1.79293 5.40225 0
M  V30 1158 N 111.03 -0.0612545 5.80468 0
M  V30 1159 H 113.795 1.95683 2.26998 0
M  V30 1160 H 111.356 1.16303 1.12629 0
M  V30 1161 H 113.348 0.151516 4.04416 0
M  V30 1162 H 111.918 -0.347989 3.10657 0
M  V30 1163 H 111.138 2.12872 3.31782 0
M  V30 1164 H 112.426 2.34252 4.51667 0
M  V30 1165 H 111.824 -0.640985 5.62057 0
M  V30 1166 H 110.381 -0.355395 6.5083 0
M  V30 1167 N 113.814 -1.1601 1.06675 0
M  V30 1168 C 114.777 -2.18724 0.685001 0
M  V30 1169 C 115.777 -1.58496 -0.271246 0
M  V30 1170 O 116.967 -1.74119 -0.0531156 0
M  V30 1171 C 114.099 -3.40899 0.00853648 0
M  V30 1172 H 115.292 -2.54011 1.59431 0
M  V30 1173 H 112.845 -1.30352 0.862441 0
M  V30 1174 H 113.58 -3.11173 -0.913337 0
M  V30 1175 H 113.365 -3.8587 0.696204 0
M  V30 1176 H 114.855 -4.16886 -0.24414 0
M  V30 1177 N 115.292 -0.849877 -1.32721 0
M  V30 1178 C 116.222 -0.306308 -2.31482 0
M  V30 1179 C 117.203 0.591952 -1.59468 0
M  V30 1180 O 118.388 0.513199 -1.87296 0
M  V30 1181 C 115.518 0.510204 -3.43532 0
M  V30 1182 C 114.472 -0.293209 -4.26994 0
M  V30 1183 C 113.798 0.647743 -5.30762 0
M  V30 1184 C 115.098 -1.51634 -4.99804 0
M  V30 1185 H 116.792 -1.13153 -2.77195 0
M  V30 1186 H 114.338 -0.545553 -1.33266 0
M  V30 1187 H 116.291 0.900856 -4.11658 0
M  V30 1188 H 115.015 1.36874 -2.96535 0
M  V30 1189 H 113.674 -0.665555 -3.60508 0
M  V30 1190 H 113.322 1.50299 -4.8002 0
M  V30 1191 H 113.022 0.11422 -5.87489 0
M  V30 1192 H 114.546 1.03567 -6.01753 0
M  V30 1193 H 115.96 -1.19824 -5.60638 0
M  V30 1194 H 114.357 -1.98745 -5.66234 0
M  V30 1195 H 115.427 -2.28018 -4.27943 0
M  V30 1196 N 116.77 1.45427 -0.607355 0
M  V30 1197 C 117.717 2.3053 0.111625 0
M  V30 1198 C 118.687 1.4209 0.860216 0
M  V30 1199 O 119.872 1.71019 0.845998 0
M  V30 1200 C 117.012 3.26992 1.10319 0
M  V30 1201 C 116.125 4.30535 0.355493 0
M  V30 1202 C 115.26 5.14105 1.33676 0
M  V30 1203 C 114.299 6.09376 0.576862 0
M  V30 1204 N 113.436 6.85727 1.5074 0
M  V30 1205 H 118.276 2.91477 -0.620093 0
M  V30 1206 H 115.813 1.43631 -0.317594 0
M  V30 1207 H 117.771 3.81385 1.6912 0
M  V30 1208 H 116.401 2.67799 1.80232 0
M  V30 1209 H 115.453 3.78805 -0.348023 0
M  V30 1210 H 116.765 4.98235 -0.237423 0
M  V30 1211 H 115.919 5.72897 1.99684 0
M  V30 1212 H 114.658 4.46423 1.9636 0
M  V30 1213 H 113.663 5.49715 -0.0968519 0
M  V30 1214 H 114.888 6.79085 -0.0449341 0
M  V30 1215 H 112.834 6.20735 2.12189 0
M  V30 1216 H 112.751 7.49778 0.967913 0
M  V30 1217 H 114.019 7.4906 2.15706 0
M  V30 1218 N 118.248 0.346503 1.53744 0
M  V30 1219 C 119.525 -0.304532 1.93215 0
M  V30 1220 C 119.905 -1.67993 1.27834 0
M  V30 1221 O 119.253 -2.24411 0.430352 0
M  V30 1222 C 119.463 -0.373852 3.46992 0
M  V30 1223 C 120.811 -0.62329 4.2 0
M  V30 1224 O 121.835 -0.455847 3.53271 0
M  V30 1225 O 120.694 -0.947879 5.38217 0
M  V30 1226 H 117.788 -0.178318 0.807547 0
M  V30 1227 H 120.334 0.397895 1.64969 0
M  V30 1228 H 119.106 0.591224 3.86808 0
M  V30 1229 H 118.729 -1.12294 3.81413 0
M  V30 1230 N 119.726 -1.57421 0.075193 0
M  V30 1231 C 120.954 -1.97946 -0.602076 0
M  V30 1232 C 121.369 -0.953674 -1.62943 0
M  V30 1233 O 120.726 0.0592551 -1.82404 0
M  V30 1234 C 120.777 -3.38546 -1.26762 0
M  V30 1235 O 120.498 -4.37195 -0.281376 0
M  V30 1236 C 121.999 -3.93966 -2.03239 0
M  V30 1237 H 119.219 -0.650918 -0.162931 0
M  V30 1238 H 121.763 -2.03959 0.148601 0
M  V30 1239 H 119.918 -3.33609 -1.96936 0
M  V30 1240 H 120.332 -5.18975 -0.759267 0
M  V30 1241 H 121.806 -4.94555 -2.45193 0
M  V30 1242 H 122.283 -3.30693 -2.8903 0
M  V30 1243 H 122.889 -4.02315 -1.37924 0
M  V30 1244 N 121.204 0.198386 -1.56346 0
M  V30 1245 C 122.452 0.91747 -1.80075 0
M  V30 1246 C 122.773 1.83929 -0.647692 0
M  V30 1247 O 122.043 1.93029 0.334166 0
M  V30 1248 H 120.623 0.341774 -0.664228 0
M  V30 1249 H 123.285 0.204684 -1.93822 0
M  V30 1250 H 122.381 1.51055 -2.7311 0
M  V30 1251 N 122.682 1.50554 0.465978 0
M  V30 1252 C 123.612 1.72722 1.57128 0
M  V30 1253 C 124.593 0.576294 1.6004 0
M  V30 1254 O 125.778 0.81598 1.76225 0
M  V30 1255 C 122.908 1.82605 2.95419 0
M  V30 1256 C 121.862 2.97835 3.07373 0
M  V30 1257 C 121.188 2.92867 4.47363 0
M  V30 1258 C 122.488 4.38265 2.84114 0
M  V30 1259 H 124.182 2.65267 1.38829 0
M  V30 1260 H 121.728 1.2765 0.666441 0
M  V30 1261 H 123.681 1.96698 3.72677 0
M  V30 1262 H 122.405 0.866858 3.14886 0
M  V30 1263 H 121.064 2.83401 2.3255 0
M  V30 1264 H 120.712 1.94783 4.63755 0
M  V30 1265 H 120.412 3.70227 4.56296 0
M  V30 1266 H 121.936 3.09015 5.26633 0
M  V30 1267 H 123.35 4.53198 3.51118 0
M  V30 1268 H 121.747 5.17115 3.04487 0
M  V30 1269 H 122.817 4.50281 1.7993 0
M  V30 1270 N 124.16 -0.719506 1.40217 0
M  V30 1271 C 125.107 -1.83359 1.40172 0
M  V30 1272 C 126.077 -1.64065 0.259206 0
M  V30 1273 O 127.262 -1.85254 0.456677 0
M  V30 1274 C 124.402 -3.2103 1.26624 0
M  V30 1275 C 123.515 -3.51923 2.50548 0
M  V30 1276 C 122.65 -4.79079 2.29471 0
M  V30 1277 C 121.689 -5.02863 3.48992 0
M  V30 1278 N 120.826 -6.2123 3.27135 0
M  V30 1279 H 125.666 -1.82733 2.35399 0
M  V30 1280 H 123.203 -0.892688 1.16917 0
M  V30 1281 H 125.161 -4.00524 1.16776 0
M  V30 1282 H 123.791 -3.20895 0.350176 0
M  V30 1283 H 122.843 -2.67014 2.70939 0
M  V30 1284 H 124.155 -3.6541 3.39525 0
M  V30 1285 H 123.309 -5.66582 2.16955 0
M  V30 1286 H 122.048 -4.67794 1.37913 0
M  V30 1287 H 121.053 -4.13816 3.6199 0
M  V30 1288 H 122.278 -5.16023 4.41472 0
M  V30 1289 H 120.224 -6.11204 2.38256 0
M  V30 1290 H 120.141 -6.35375 4.09675 0
M  V30 1291 H 121.409 -7.11532 3.18344 0
M  V30 1292 N 125.638 -1.25649 -0.95132 0
M  V30 1293 C 126.884 -1.10757 -1.69884 0
M  V30 1294 C 127.217 0.350061 -1.91019 0
M  V30 1295 O 126.492 1.25783 -1.48354 0
M  V30 1296 C 126.775 -1.86606 -3.07978 0
M  V30 1297 C 126.628 -3.40217 -2.94232 0
M  V30 1298 C 127.947 -1.65182 -4.07925 0
M  V30 1299 H 125.066 -0.40374 -0.616574 0
M  V30 1300 H 127.708 -1.54521 -1.10558 0
M  V30 1301 H 125.858 -1.49409 -3.58621 0
M  V30 1302 H 127.53 -3.87108 -2.50889 0
M  V30 1303 H 125.773 -3.67759 -2.30078 0
M  V30 1304 H 126.444 -3.88505 -3.92133 0
M  V30 1305 H 128.92 -1.9757 -3.66204 0
M  V30 1306 H 127.796 -2.20683 -5.02583 0
M  V30 1307 H 128.057 -0.593933 -4.38092 0
M  V30 1308 N 127.117 1.15442 -1.07289 0
M  V30 1309 C 128.528 1.67803 -0.818475 0
M  V30 1310 C 128.879 1.8489 0.656507 0
M  V30 1311 O 128.004 1.55176 1.50829 0
M  V30 1312 C 128.599 3.04805 -1.47917 0
M  V30 1313 C 127.158 3.54245 -1.27229 0
M  V30 1314 C 126.305 2.29986 -1.54925 0
M  V30 1315 H 129.256 0.996646 -1.23502 0
M  V30 1316 H 129.277 3.69702 -0.90005 0
M  V30 1317 H 128.789 2.92336 -2.55267 0
M  V30 1318 H 126.89 3.71956 -0.21899 0
M  V30 1319 H 127.003 4.35723 -1.99203 0
M  V30 1320 H 125.367 2.35496 -0.970242 0
M  V30 1321 H 126.15 2.20105 -2.63455 0
M  V30 1322 N 128.595 0.856903 1.32268 0
M  V30 1323 C 129.528 0.247937 2.26849 0
M  V30 1324 C 130.506 -0.615382 1.50505 0
M  V30 1325 O 131.69 -0.571689 1.79622 0
M  V30 1326 C 128.817 -0.650093 3.32403 0
M  V30 1327 C 127.863 0.140138 4.2627 0
M  V30 1328 S 128.696 1.51004 5.13769 0
M  V30 1329 C 129.852 0.61778 6.22844 0
M  V30 1330 H 130.085 1.04971 2.78152 0
M  V30 1331 H 127.618 0.654665 1.39834 0
M  V30 1332 H 129.576 -1.16256 3.93694 0
M  V30 1333 H 128.237 -1.4257 2.7988 0
M  V30 1334 H 127.43 -0.543945 5.01056 0
M  V30 1335 H 127.032 0.584267 3.69408 0
M  V30 1336 H 129.324 -0.177053 6.77269 0
M  V30 1337 H 130.267 1.33636 6.95375 0
M  V30 1338 H 130.675 0.191124 5.64176 0
M  V30 1339 N 130.073 -1.45103 0.615059 0
M  V30 1340 C 131.319 -2.02483 0.113347 0
M  V30 1341 C 131.652 -1.48146 -1.25564 0
M  V30 1342 O 130.927 -0.659104 -1.82992 0
M  V30 1343 C 131.21 -3.60005 0.0825278 0
M  V30 1344 C 131.063 -4.2466 1.48271 0
M  V30 1345 C 132.382 -4.35972 -0.601401 0
M  V30 1346 H 129.501 -0.735764 0.0426632 0
M  V30 1347 H 132.143 -1.72868 0.788461 0
M  V30 1348 H 130.293 -3.85367 -0.492378 0
M  V30 1349 H 131.965 -4.10458 2.10527 0
M  V30 1350 H 130.208 -3.82772 2.04127 0
M  V30 1351 H 130.879 -5.336 1.41332 0
M  V30 1352 H 133.355 -4.15947 -0.112666 0
M  V30 1353 H 132.231 -5.45697 -0.592097 0
M  V30 1354 H 132.492 -4.09391 -1.66887 0
M  V30 1355 N 131.551 -0.354651 -1.53558 0
M  V30 1356 C 132.779 0.239515 -2.05509 0
M  V30 1357 C 133.194 1.4333 -1.2289 0
M  V30 1358 O 132.551 1.80538 -0.266899 0
M  V30 1359 C 132.602 0.643719 -3.55723 0
M  V30 1360 O 132.323 -0.502602 -4.35207 0
M  V30 1361 C 133.824 1.29743 -4.23889 0
M  V30 1362 H 131.044 0.0442697 -0.669538 0
M  V30 1363 H 133.588 -0.509856 -1.98042 0
M  V30 1364 H 131.743 1.34302 -3.63376 0
M  V30 1365 H 132.157 -0.178172 -5.24197 0
M  V30 1366 H 133.631 1.53091 -5.30346 0
M  V30 1367 H 134.108 2.25441 -3.76926 0
M  V30 1368 H 134.714 0.639865 -4.20459 0
M  V30 1369 N 133.029 1.57378 -0.0835403 0
M  V30 1370 C 134.257 1.98263 0.59157 0
M  V30 1371 C 134.672 0.962302 1.62435 0
M  V30 1372 O 134.029 -0.049581 1.82433 0
M  V30 1373 C 134.08 3.39214 1.24965 0
M  V30 1374 O 133.801 4.37339 0.258186 0
M  V30 1375 C 135.302 3.95038 2.01147 0
M  V30 1376 H 132.522 0.651773 0.159477 0
M  V30 1377 H 135.066 2.03878 -0.159415 0
M  V30 1378 H 133.221 3.34649 1.95164 0
M  V30 1379 H 133.635 5.19371 0.731734 0
M  V30 1380 H 135.109 4.95848 2.42567 0
M  V30 1381 H 135.586 3.32222 2.87272 0
M  V30 1382 H 136.192 4.0304 1.35789 0
M  V30 1383 N 134.507 -0.190092 1.56449 0
M  V30 1384 C 135.455 -1.25501 1.95837 0
M  V30 1385 C 136.449 -1.4685 0.844485 0
M  V30 1386 O 137.655 -1.47651 1.02952 0
M  V30 1387 H 134.03 -0.421447 0.622805 0
M  V30 1388 H 136.001 -0.895821 2.84636 0
M  V30 1389 C 134.75 -2.59124 2.31841 0
M  V30 1390 H 134.073 -2.43514 3.17082 0
M  V30 1391 H 135.513 -3.32371 2.6326 0
M  V30 1392 C 133.972 -3.16488 1.15486 0
M  V30 1393 O 134.502 -3.99365 0.432535 0
M  V30 1394 N 132.708 -2.75305 0.930349 0
M  V30 1395 H 132.255 -2.08013 1.51948 0
M  V30 1396 H 132.213 -3.14024 0.153634 0
M  V30 1397 N 135.985 -1.50799 -0.457987 0
M  V30 1398 C 136.915 -1.73553 -1.5621 0
M  V30 1399 C 137.896 -0.584774 -1.59732 0
M  V30 1400 O 139.081 -0.825314 -1.7579 0
M  V30 1401 C 136.211 -1.84169 -2.94447 0
M  V30 1402 C 135.165 -2.99461 -3.0579 0
M  V30 1403 C 134.491 -2.95235 -4.45803 0
M  V30 1404 C 135.791 -4.39766 -2.81786 0
M  V30 1405 H 137.485 -2.66 -1.37421 0
M  V30 1406 H 135.031 -1.28002 -0.659662 0
M  V30 1407 H 136.984 -1.98672 -3.71628 0
M  V30 1408 H 135.708 -0.883545 -3.14422 0
M  V30 1409 H 134.367 -2.8463 -2.31044 0
M  V30 1410 H 134.015 -1.97239 -4.62715 0
M  V30 1411 H 133.715 -3.72642 -4.54326 0
M  V30 1412 H 135.239 -3.11803 -5.24987 0
M  V30 1413 H 136.653 -4.55054 -3.4871 0
M  V30 1414 H 135.05 -5.18722 -3.0174 0
M  V30 1415 H 136.12 -4.51229 -1.7754 0
M  V30 1416 N 137.463 0.71206 -1.40597 0
M  V30 1417 C 138.71 1.47197 -1.39065 0
M  V30 1418 C 139.038 1.94499 0.00583891 0
M  V30 1419 O 138.293 1.68752 0.99102 0
M  V30 1420 C 138.592 2.71039 -2.32965 0
M  V30 1421 C 138.258 2.42484 -3.80148 0
M  V30 1422 C 136.92 2.34406 -4.20247 0
M  V30 1423 C 139.272 2.18598 -4.73143 0
M  V30 1424 C 136.6 2.00516 -5.51371 0
M  V30 1425 C 138.952 1.8622 -6.0457 0
M  V30 1426 C 137.616 1.76626 -6.43708 0
M  V30 1427 H 136.886 0.538634 -0.508876 0
M  V30 1428 H 139.533 0.815325 -1.73276 0
M  V30 1429 H 137.838 3.41558 -1.91951 0
M  V30 1430 H 139.535 3.29138 -2.29061 0
M  V30 1431 H 136.125 2.49659 -3.4838 0
M  V30 1432 H 140.309 2.23793 -4.42979 0
M  V30 1433 H 135.565 1.91628 -5.80593 0
M  V30 1434 H 139.739 1.66752 -6.76141 0
M  V30 1435 H 137.366 1.50133 -7.45228 0
M  V30 1436 N 138.941 1.26152 0.944643 0
M  V30 1437 C 140.166 1.14363 1.7302 0
M  V30 1438 C 140.591 -0.29772 1.85729 0
M  V30 1439 O 139.949 -1.2157 1.34501 0
M  V30 1440 C 139.997 1.81378 3.11664 0
M  V30 1441 O 139.101 1.10022 3.97453 0
M  V30 1442 H 138.442 0.398694 0.53098 0
M  V30 1443 H 140.972 1.66906 1.18337 0
M  V30 1444 H 140.982 1.88064 3.62072 0
M  V30 1445 H 139.657 2.86237 3.0173 0
M  V30 1446 H 138.234 1.11287 3.55907 0
M  V30 1447 N 140.419 -1.14872 1.07899 0
M  V30 1448 C 141.369 -2.17809 0.674027 0
M  V30 1449 C 142.353 -1.58008 -0.303699 0
M  V30 1450 O 143.545 -1.76616 -0.11654 0
M  V30 1451 C 140.674 -3.43208 0.0793318 0
M  V30 1452 C 139.76 -4.10051 1.08253 0
M  V30 1453 N 140.151 -4.52296 2.2641 0
M  V30 1454 C 138.449 -4.36469 0.917124 0
M  V30 1455 C 139.15 -5.04199 2.901 0
M  V30 1456 N 138.126 -4.98088 2.17736 0
M  V30 1457 H 141.928 -2.48207 1.57386 0
M  V30 1458 H 139.442 -1.315 0.952976 0
M  V30 1459 H 141.439 -4.16272 -0.228719 0
M  V30 1460 H 140.099 -3.14291 -0.815551 0
M  V30 1461 H 141.11 -4.45504 2.64096 0
M  V30 1462 H 137.787 -4.17432 0.0756078 0
M  V30 1463 H 139.177 -5.46802 3.90458 0
M  V30 1464 N 141.898 -0.863906 -1.31812 0
M  V30 1465 C 143.309 -0.52522 -1.7916 0
M  V30 1466 C 143.66 0.957518 -1.71248 0
M  V30 1467 O 142.785 1.74734 -1.27659 0
M  V30 1468 C 143.38 -0.9466 -3.25307 0
M  V30 1469 C 141.939 -0.659668 -3.70574 0
M  V30 1470 C 141.086 -1.14126 -2.52726 0
M  V30 1471 H 144.037 -1.05022 -1.1898 0
M  V30 1472 H 144.058 -0.266766 -3.79564 0
M  V30 1473 H 143.57 -2.02579 -3.31034 0
M  V30 1474 H 141.671 0.408416 -3.70355 0
M  V30 1475 H 141.784 -1.23245 -4.62977 0
M  V30 1476 H 140.148 -0.561216 -2.4844 0
M  V30 1477 H 140.931 -2.22775 -2.61201 0
M  V30 1478 N 143.376 1.44774 -0.622745 0
M  V30 1479 C 144.622 2.0242 -0.124083 0
M  V30 1480 C 144.955 1.4881 1.24777 0
M  V30 1481 O 144.23 0.668799 1.8264 0
M  V30 1482 C 144.513 3.59957 -0.101619 0
M  V30 1483 C 144.366 4.23867 -1.50521 0
M  V30 1484 C 145.685 4.36284 0.578272 0
M  V30 1485 H 142.804 0.735528 -0.0465645 0
M  V30 1486 H 145.446 1.72447 -0.797617 0
M  V30 1487 H 143.596 3.85623 0.471934 0
M  V30 1488 H 145.268 4.09336 -2.12701 0
M  V30 1489 H 143.511 3.81684 -2.06154 0
M  V30 1490 H 144.182 5.32843 -1.4416 0
M  V30 1491 H 146.658 4.16001 0.0906057 0
M  V30 1492 H 145.534 5.46004 0.563149 0
M  V30 1493 H 145.795 4.10271 1.64713 0
M  V30 1494 N 144.854 0.36279 1.53368 0
M  V30 1495 C 146.101 -0.227776 2.01215 0
M  V30 1496 C 146.429 -1.49003 1.25014 0
M  V30 1497 O 145.684 -1.92876 0.331236 0
M  V30 1498 C 145.983 -0.568417 3.52851 0
M  V30 1499 C 145.649 0.59918 4.46901 0
M  V30 1500 C 144.311 0.919559 4.72332 0
M  V30 1501 C 146.663 1.38156 5.02556 0
M  V30 1502 C 143.991 2.02434 5.5067 0
M  V30 1503 C 146.343 2.47674 5.821 0
M  V30 1504 C 145.007 2.8025 6.05819 0
M  V30 1505 H 144.277 -0.083349 0.736297 0
M  V30 1506 H 146.924 0.494677 1.85001 0
M  V30 1507 H 145.229 -1.37185 3.66998 0
M  V30 1508 H 146.926 -1.03756 3.87344 0
M  V30 1509 H 143.516 0.339437 4.27254 0
M  V30 1510 H 147.7 1.14729 4.82857 0
M  V30 1511 H 142.956 2.28075 5.67267 0
M  V30 1512 H 147.13 3.08716 6.24234 0
M  V30 1513 H 144.757 3.65979 6.66306 0
M  V30 1514 N 146.332 -1.57332 0.0918853 0
M  V30 1515 C 147.279 -2.13847 -0.868211 0
M  V30 1516 C 148.249 -1.05618 -1.28196 0
M  V30 1517 O 149.434 -1.33387 -1.36427 0
M  V30 1518 C 146.574 -2.72062 -2.12312 0
M  V30 1519 C 145.687 -3.94514 -1.7602 0
M  V30 1520 C 144.822 -4.40903 -2.96273 0
M  V30 1521 C 143.861 -5.55953 -2.56092 0
M  V30 1522 N 142.998 -5.97209 -3.69169 0
M  V30 1523 H 147.838 -2.95575 -0.379406 0
M  V30 1524 H 145.375 -1.46048 -0.175606 0
M  V30 1525 H 147.333 -3.03931 -2.858 0
M  V30 1526 H 145.963 -1.93068 -2.58698 0
M  V30 1527 H 145.015 -3.68979 -0.925135 0
M  V30 1528 H 146.327 -4.7802 -1.42472 0
M  V30 1529 H 145.481 -4.74539 -3.78018 0
M  V30 1530 H 144.22 -3.56291 -3.33029 0
M  V30 1531 H 143.225 -5.21948 -1.72773 0
M  V30 1532 H 144.45 -6.42311 -2.20484 0
M  V30 1533 H 142.396 -5.15543 -4.05649 0
M  V30 1534 H 142.313 -6.75504 -3.39456 0
M  V30 1535 H 143.581 -6.35475 -4.51434 0
M  V30 1536 N 147.81 0.181792 -1.56548 0
M  V30 1537 C 149.087 0.926765 -1.72251 0
M  V30 1538 C 149.467 2.00831 -0.650386 0
M  V30 1539 O 148.815 2.26008 0.336521 0
M  V30 1540 C 149.025 1.50106 -3.1507 0
M  V30 1541 C 150.373 1.97805 -3.75711 0
M  V30 1542 O 151.397 1.59922 -3.18282 0
M  V30 1543 O 150.256 2.67555 -4.76525 0
M  V30 1544 H 147.35 0.435506 -0.703039 0
M  V30 1545 H 149.896 0.170443 -1.68842 0
M  V30 1546 H 148.668 0.72212 -3.84579 0
M  V30 1547 H 148.291 2.32186 -3.22763 0
M  V30 1548 N 149.288 1.51039 0.449983 0
M  V30 1549 C 150.536 1.62759 1.19808 0
M  V30 1550 C 150.857 0.339981 1.92013 0
M  V30 1551 O 150.127 -0.643606 1.85026 0
M  V30 1552 H 148.707 0.599811 0.445237 0
M  V30 1553 H 151.369 1.87914 0.517138 0
M  V30 1554 H 150.465 2.44911 1.93455 0
M  V30 1555 N 150.766 -0.704594 1.40972 0
M  V30 1556 C 152.014 -1.46169 1.39568 0
M  V30 1557 C 152.335 -1.95 0.00253745 0
M  V30 1558 O 151.605 -1.71095 -0.954114 0
M  V30 1559 H 150.185 -0.542326 0.513704 0
M  V30 1560 H 152.847 -0.834553 1.76128 0
M  V30 1561 H 151.943 -2.32922 2.07735 0
M  V30 1562 N 152.244 -1.26651 -0.937939 0
M  V30 1563 C 153.491 -1.12387 -1.6845 0
M  V30 1564 C 153.819 0.332208 -1.91642 0
M  V30 1565 O 153.074 1.2602 -1.49725 0
M  V30 1566 C 153.373 -1.84168 -3.06295 0
M  V30 1567 C 153.039 -3.34056 -3.02849 0
M  V30 1568 C 151.701 -3.74942 -3.01616 0
M  V30 1569 C 154.053 -4.29741 -2.9491 0
M  V30 1570 C 151.381 -5.09894 -2.90215 0
M  V30 1571 C 153.733 -5.64738 -2.8505 0
M  V30 1572 C 152.397 -6.0493 -2.82162 0
M  V30 1573 H 151.667 -0.411252 -0.616403 0
M  V30 1574 H 154.314 -1.57134 -1.09459 0
M  V30 1575 H 152.619 -1.319 -3.6893 0
M  V30 1576 H 154.316 -1.70569 -3.62915 0
M  V30 1577 H 150.906 -3.01534 -3.0459 0
M  V30 1578 H 155.09 -3.99133 -2.94969 0
M  V30 1579 H 150.346 -5.40194 -2.86358 0
M  V30 1580 H 154.52 -6.38561 -2.77872 0
M  V30 1581 H 152.147 -7.09457 -2.73084 0
M  V30 1582 N 153.722 1.14298 -1.08507 0
M  V30 1583 C 154.95 1.89219 -0.836876 0
M  V30 1584 C 155.365 1.78638 0.611054 0
M  V30 1585 O 154.722 1.14643 1.41998 0
M  V30 1586 C 154.773 3.39158 -1.25116 0
M  V30 1587 O 154.494 3.49449 -2.64229 0
M  V30 1588 C 155.995 4.31073 -1.03398 0
M  V30 1589 H 153.215 0.599328 -0.301739 0
M  V30 1590 H 155.759 1.44746 -1.44461 0
M  V30 1591 H 153.914 3.81251 -0.687514 0
M  V30 1592 H 154.328 4.42589 -2.81452 0
M  V30 1593 H 155.802 5.34646 -1.37323 0
M  V30 1594 H 156.279 4.3919 0.0289259 0
M  V30 1595 H 156.885 3.94738 -1.58311 0
M  V30 1596 N 155.201 0.870884 1.31352 0
M  V30 1597 C 156.426 0.495957 2.01383 0
M  V30 1598 C 156.851 -0.904324 1.64935 0
M  V30 1599 O 156.209 -1.59687 0.858466 0
M  V30 1600 C 156.257 0.661433 3.54482 0
M  V30 1601 O 155.361 -0.298851 4.11316 0
M  V30 1602 H 154.702 0.197158 0.634054 0
M  V30 1603 H 157.232 1.17455 1.67527 0
M  V30 1604 H 157.242 0.555072 4.04207 0
M  V30 1605 H 155.917 1.68246 3.8035 0
M  V30 1606 H 154.494 -0.147368 3.72609 0
M  V30 1607 N 156.679 -1.44442 0.630414 0
M  V30 1608 C 157.627 -2.32437 -0.0871428 0
M  V30 1609 C 158.621 -1.47304 -0.836525 0
M  V30 1610 O 159.827 -1.63653 -0.749506 0
M  V30 1611 H 156.202 -0.750533 -0.0469495 0
M  V30 1612 H 158.173 -2.90709 0.673096 0
M  V30 1613 C 156.922 -3.31288 -1.05563 0
M  V30 1614 H 156.245 -3.96805 -0.488426 0
M  V30 1615 H 157.685 -3.9554 -1.52721 0
M  V30 1616 C 156.144 -2.6016 -2.14052 0
M  V30 1617 O 156.674 -2.39997 -3.22124 0
M  V30 1618 N 154.88 -2.19911 -1.89967 0
M  V30 1619 H 154.427 -2.36509 -1.02085 0
M  V30 1620 H 154.385 -1.72646 -2.62756 0
M  V30 1621 N 158.157 -0.370918 -1.53173 0
M  V30 1622 C 159.434 0.273754 -1.93675 0
M  V30 1623 C 159.814 1.65938 -1.3049 0
M  V30 1624 O 159.162 2.23698 -0.465999 0
M  V30 1625 C 159.372 0.318602 -3.47543 0
M  V30 1626 C 160.72 0.556392 -4.20939 0
M  V30 1627 O 161.744 0.399587 -3.53952 0
M  V30 1628 O 160.603 0.862133 -5.39657 0
M  V30 1629 H 157.697 0.165448 -0.810281 0
M  V30 1630 H 160.243 -0.42409 -1.64315 0
M  V30 1631 H 159.015 -0.652687 -3.85818 0
M  V30 1632 H 158.638 1.06212 -3.83151 0
M  V30 1633 N 159.635 1.57281 -0.100228 0
M  V30 1634 C 161.051 1.57527 0.256416 0
M  V30 1635 C 161.251 1.11173 1.68056 0
M  V30 1636 O 160.307 0.79053 2.39806 0
M  V30 1637 C 161.62 3.00673 0.0401747 0
M  V30 1638 C 163.168 3.12815 0.107528 0
M  V30 1639 C 163.643 4.57929 -0.0807834 0
M  V30 1640 N 165.134 4.63193 -0.0261207 0
M  V30 1641 C 165.869 5.73212 -0.146999 0
M  V30 1642 N 165.365 6.92047 -0.322999 0
M  V30 1643 N 167.158 5.62031 -0.0879044 0
M  V30 1644 H 159.309 1.85718 -1.03065 0
M  V30 1645 H 161.572 0.857446 -0.404339 0
M  V30 1646 H 161.278 3.38804 -0.943649 0
M  V30 1647 H 161.152 3.69042 0.780262 0
M  V30 1648 H 163.539 2.74554 1.08186 0
M  V30 1649 H 163.62 2.47028 -0.664134 0
M  V30 1650 H 163.264 4.96886 -1.05201 0
M  V30 1651 H 163.194 5.21783 0.710635 0
M  V30 1652 H 165.685 3.77748 0.107161 0
M  V30 1653 H 165.998 7.7173 -0.406608 0
M  V30 1654 H 164.343 6.94074 -0.358733 0
M  V30 1655 H 167.534 4.68075 0.048498 0
M  V30 1656 H 167.707 6.47734 -0.185557 0
M  V30 1657 N 161.113 -0.173488 1.56642 0
M  V30 1658 C 162.338 -0.910149 1.86363 0
M  V30 1659 C 162.763 -1.75132 0.686318 0
M  V30 1660 O 162.121 -1.77595 -0.364643 0
M  V30 1661 C 162.169 -1.76447 3.14482 0
M  V30 1662 O 161.273 -2.86584 2.96553 0
M  V30 1663 H 160.614 -0.255086 0.613047 0
M  V30 1664 H 163.144 -0.172283 2.03873 0
M  V30 1665 H 163.154 -2.16483 3.45831 0
M  V30 1666 H 161.829 -1.14658 3.99783 0
M  V30 1667 H 160.406 -2.50146 2.76553 0
M  V30 1668 N 162.591 -1.51276 -0.441967 0
M  V30 1669 C 163.84 -1.6295 -1.18871 0
M  V30 1670 C 164.153 -0.349312 -1.92456 0
M  V30 1671 O 165.359 -0.345355 -2.69295 0
M  V30 1672 C 163.815 -2.87759 -2.16155 0
M  V30 1673 C 163.423 -4.22764 -1.48239 0
M  V30 1674 C 165.167 -3.08788 -2.91291 0
M  V30 1675 C 163.074 -5.38728 -2.4398 0
M  V30 1676 H 162.004 -0.606913 -0.447406 0
M  V30 1677 H 164.655 -1.77739 -0.456205 0
M  V30 1678 H 163.037 -2.66593 -2.92821 0
M  V30 1679 H 164.211 -4.54293 -0.771635 0
M  V30 1680 H 162.526 -4.07575 -0.852741 0
M  V30 1681 H 165.123 -3.92599 -3.63002 0
M  V30 1682 H 165.466 -2.21679 -3.5237 0
M  V30 1683 H 165.999 -3.30272 -2.21733 0
M  V30 1684 H 162.738 -6.28082 -1.87598 0
M  V30 1685 H 162.258 -5.1158 -3.13123 0
M  V30 1686 H 163.937 -5.70489 -3.05207 0
M  V30 1687 N 164.069 0.697108 -1.41344 0
M  V30 1688 C 165.485 1.00751 -1.2378 0
M  V30 1689 C 165.685 2.01105 -0.126066 0
M  V30 1690 O 164.741 2.47295 0.51004 0
M  V30 1691 C 166.054 1.53359 -2.58653 0
M  V30 1692 C 167.602 1.6525 -2.65822 0
M  V30 1693 C 168.077 2.2126 -4.01009 0
M  V30 1694 N 169.568 2.28622 -4.02847 0
M  V30 1695 C 170.303 2.72984 -5.04249 0
M  V30 1696 N 169.799 3.16962 -6.16041 0
M  V30 1697 N 171.592 2.72534 -4.91611 0
M  V30 1698 H 163.743 0.0322662 -2.12375 0
M  V30 1699 H 166.006 0.0768853 -0.944877 0
M  V30 1700 H 165.712 0.870773 -3.4075 0
M  V30 1701 H 165.586 2.51597 -2.81032 0
M  V30 1702 H 167.973 2.30644 -1.84086 0
M  V30 1703 H 168.054 0.655614 -2.47256 0
M  V30 1704 H 167.698 1.56482 -4.83193 0
M  V30 1705 H 167.628 3.21698 -4.16915 0
M  V30 1706 H 170.119 1.97585 -3.22131 0
M  V30 1707 H 170.432 3.49434 -6.89287 0
M  V30 1708 H 168.777 3.14875 -6.1958 0
M  V30 1709 H 171.968 2.37525 -4.0336 0
M  V30 1710 H 172.141 3.06789 -5.70775 0
M  V30 1711 N 165.547 1.27147 0.931209 0
M  V30 1712 C 166.963 1.04475 1.20653 0
M  V30 1713 C 167.163 -0.223885 2.00252 0
M  V30 1714 O 166.219 -0.930332 2.34736 0
M  V30 1715 C 167.532 2.28209 1.95809 0
M  V30 1716 C 169.08 2.33211 2.08762 0
M  V30 1717 C 169.555 3.56665 2.87323 0
M  V30 1718 N 171.046 3.57201 2.94892 0
M  V30 1719 C 171.781 4.49395 3.56134 0
M  V30 1720 N 171.277 5.51889 4.18796 0
M  V30 1721 N 173.07 4.37026 3.53504 0
M  V30 1722 H 165.221 2.08612 0.399333 0
M  V30 1723 H 167.484 0.917312 0.239253 0
M  V30 1724 H 167.19 3.20538 1.44736 0
M  V30 1725 H 167.064 2.33247 2.96438 0
M  V30 1726 H 169.451 1.41391 2.59023 0
M  V30 1727 H 169.532 2.32178 1.07364 0
M  V30 1728 H 169.176 4.4882 2.37746 0
M  V30 1729 H 169.106 3.54948 3.88998 0
M  V30 1730 H 171.597 2.83074 2.50354 0
M  V30 1731 H 171.91 6.18409 4.63454 0
M  V30 1732 H 170.255 5.55735 4.17353 0
M  V30 1733 H 173.446 3.56166 3.03749 0
M  V30 1734 H 173.619 5.09067 4.00942 0
M  V30 1735 N 167.025 -1.13721 1.09112 0
M  V30 1736 C 168.272 -1.84924 0.825192 0
M  V30 1737 C 168.6 -1.83347 -0.649151 0
M  V30 1738 O 167.855 -1.26449 -1.49362 0
M  V30 1739 C 168.154 -3.32861 1.30146 0
M  V30 1740 C 167.82 -3.54621 2.78486 0
M  V30 1741 C 166.482 -3.60268 3.18999 0
M  V30 1742 C 168.834 -3.62855 3.74146 0
M  V30 1743 C 166.162 -3.71679 4.53951 0
M  V30 1744 C 168.514 -3.75793 5.08883 0
M  V30 1745 C 167.178 -3.79692 5.4899 0
M  V30 1746 H 166.448 -0.676684 0.301959 0
M  V30 1747 H 169.095 -1.3428 1.36533 0
M  V30 1748 H 167.4 -3.85835 0.681064 0
M  V30 1749 H 169.097 -3.86395 1.07236 0
M  V30 1750 H 165.687 -3.50879 2.46134 0
M  V30 1751 H 169.871 -3.57775 3.43963 0
M  V30 1752 H 165.127 -3.72963 4.84467 0
M  V30 1753 H 169.301 -3.81107 5.82864 0
M  V30 1754 H 166.928 -3.88287 6.53558 0
M  V30 1755 N 168.503 -0.877838 -1.30888 0
M  V30 1756 C 169.466 -0.344265 -2.266 0
M  V30 1757 C 170.466 0.50922 -1.52524 0
M  V30 1758 O 171.656 0.317398 -1.71284 0
M  V30 1759 C 168.788 0.510198 -3.37061 0
M  V30 1760 H 169.981 -1.1893 -2.7531 0
M  V30 1761 H 167.534 -0.654088 -1.41956 0
M  V30 1762 H 168.269 1.37612 -2.93655 0
M  V30 1763 H 168.054 -0.101047 -3.9197 0
M  V30 1764 H 169.544 0.875537 -4.08319 0
M  V30 1765 N 169.982 1.44106 -0.638065 0
M  V30 1766 C 170.912 2.33448 0.0494287 0
M  V30 1767 C 171.893 1.48606 0.827672 0
M  V30 1768 O 173.078 1.77308 0.792173 0
M  V30 1769 C 170.208 3.31771 1.02691 0
M  V30 1770 C 169.162 4.26485 0.359823 0
M  V30 1771 C 168.488 5.14729 1.44769 0
M  V30 1772 C 169.788 5.17056 -0.738296 0
M  V30 1773 H 171.482 2.91183 -0.696636 0
M  V30 1774 H 169.028 1.40014 -0.336456 0
M  V30 1775 H 170.981 3.93161 1.51666 0
M  V30 1776 H 169.705 2.7226 1.80395 0
M  V30 1777 H 168.364 3.66437 -0.10934 0
M  V30 1778 H 168.012 4.51566 2.21578 0
M  V30 1779 H 167.712 5.78913 1.00668 0
M  V30 1780 H 169.236 5.78991 1.93911 0
M  V30 1781 H 170.65 5.72342 -0.331354 0
M  V30 1782 H 169.047 5.89879 -1.10286 0
M  V30 1783 H 170.117 4.57652 -1.60258 0
M  V30 1784 N 171.46 0.379036 1.52974 0
M  V30 1785 C 172.423 -0.448865 2.24762 0
M  V30 1786 C 173.423 -0.998689 1.26027 0
M  V30 1787 O 174.613 -0.882313 1.50203 0
M  V30 1788 C 171.745 -1.62872 2.99476 0
M  V30 1789 H 172.938 0.179491 2.99362 0
M  V30 1790 H 170.491 0.13096 1.5575 0
M  V30 1791 H 171.226 -2.29479 2.29151 0
M  V30 1792 H 171.011 -1.24128 3.71934 0
M  V30 1793 H 172.501 -2.2151 3.5401 0
M  V30 1794 N 172.938 -1.57226 0.108567 0
M  V30 1795 C 173.885 -2.14756 -0.845481 0
M  V30 1796 C 174.855 -1.06971 -1.27068 0
M  V30 1797 O 176.04 -1.34827 -1.35005 0
M  V30 1798 C 173.18 -2.74298 -2.09415 0
M  V30 1799 C 172.293 -3.96358 -1.71826 0
M  V30 1800 C 171.428 -4.44021 -2.9158 0
M  V30 1801 C 170.467 -5.58637 -2.50181 0
M  V30 1802 N 169.604 -6.01091 -3.62814 0
M  V30 1803 H 174.444 -2.95961 -0.348035 0
M  V30 1804 H 171.981 -1.46226 -0.160106 0
M  V30 1805 H 173.939 -3.06945 -2.82561 0
M  V30 1806 H 172.569 -1.95801 -2.56636 0
M  V30 1807 H 171.621 -3.69939 -0.885947 0
M  V30 1808 H 172.933 -4.79504 -1.37394 0
M  V30 1809 H 172.087 -4.78522 -3.72963 0
M  V30 1810 H 170.826 -3.59803 -3.29231 0
M  V30 1811 H 169.831 -5.23751 -1.67228 0
M  V30 1812 H 171.056 -6.44613 -2.13659 0
M  V30 1813 H 169.002 -5.19817 -4.00158 0
M  V30 1814 H 168.919 -6.79066 -3.32273 0
M  V30 1815 H 170.187 -6.40227 -4.44668 0
M  V30 1816 N 174.416 0.165178 -1.56732 0
M  V30 1817 C 175.662 0.882112 -1.82611 0
M  V30 1818 C 175.995 1.81628 -0.687378 0
M  V30 1819 O 175.27 1.92009 0.310267 0
M  V30 1820 C 175.553 1.67245 -3.18906 0
M  V30 1821 C 175.406 0.760987 -4.43316 0
M  V30 1822 C 176.725 2.63884 -3.52212 0
M  V30 1823 H 173.844 0.319242 -0.664269 0
M  V30 1824 H 176.486 0.148052 -1.89422 0
M  V30 1825 H 174.636 2.29824 -3.1323 0
M  V30 1826 H 176.308 0.147596 -4.61064 0
M  V30 1827 H 174.551 0.0694102 -4.33744 0
M  V30 1828 H 175.222 1.34962 -5.35247 0
M  V30 1829 H 177.698 2.11429 -3.58381 0
M  V30 1830 H 176.574 3.16245 -4.48643 0
M  V30 1831 H 176.835 3.44377 -2.77231 0
M  V30 1832 N 175.894 1.51508 0.433938 0
M  V30 1833 C 176.824 1.76016 1.53429 0
M  V30 1834 C 177.805 0.610112 1.58782 0
M  V30 1835 O 178.99 0.853177 1.74455 0
M  V30 1836 C 176.12 1.88831 2.9148 0
M  V30 1837 C 175.074 3.04288 3.00987 0
M  V30 1838 C 174.4 3.0229 4.4105 0
M  V30 1839 C 175.7 4.44193 2.74754 0
M  V30 1840 H 177.394 2.68152 1.33171 0
M  V30 1841 H 174.94 1.29035 0.639214 0
M  V30 1842 H 176.893 2.04559 3.6842 0
M  V30 1843 H 175.617 0.933455 3.12976 0
M  V30 1844 H 174.276 2.8827 2.26486 0
M  V30 1845 H 173.924 2.04576 4.59519 0
M  V30 1846 H 173.624 3.79822 4.4834 0
M  V30 1847 H 175.148 3.20116 5.1996 0
M  V30 1848 H 176.562 4.60544 3.41426 0
M  V30 1849 H 174.959 5.23457 2.9345 0
M  V30 1850 H 176.029 4.53996 1.70339 0
M  V30 1851 N 177.372 -0.689602 1.41712 0
M  V30 1852 C 178.322 -1.79571 1.40493 0
M  V30 1853 C 179.306 -1.58473 0.278409 0
M  V30 1854 O 180.498 -1.69204 0.519532 0
M  V30 1855 C 177.627 -3.17923 1.29536 0
M  V30 1856 C 176.713 -3.44695 2.47075 0
M  V30 1857 N 177.104 -3.42132 3.72531 0
M  V30 1858 C 175.402 -3.75269 2.41017 0
M  V30 1859 C 176.103 -3.67976 4.50521 0
M  V30 1860 N 175.079 -3.88014 3.80718 0
M  V30 1861 H 178.881 -1.75961 2.35404 0
M  V30 1862 H 176.395 -0.889839 1.35851 0
M  V30 1863 H 178.392 -3.97167 1.26745 0
M  V30 1864 H 177.052 -3.22741 0.356153 0
M  V30 1865 H 178.063 -3.22375 4.05333 0
M  V30 1866 H 174.74 -3.87421 1.55599 0
M  V30 1867 H 176.13 -3.7208 5.59469 0
M  V30 1868 N 178.85 -1.27639 -0.924453 0
M  V30 1869 C 179.798 -1.10485 -2.04685 0
M  V30 1870 C 180.792 -0.0270421 -1.69378 0
M  V30 1871 O 181.998 -0.185008 -1.79047 0
M  V30 1872 H 178.373 -0.340546 -0.670472 0
M  V30 1873 H 180.344 -2.05566 -2.16298 0
M  V30 1874 C 179.093 -0.772229 -3.39016 0
M  V30 1875 H 178.416 -1.59351 -3.66671 0
M  V30 1876 H 179.856 -0.692097 -4.18313 0
M  V30 1877 C 178.315 0.523554 -3.32807 0
M  V30 1878 O 178.845 1.55702 -3.70297 0
M  V30 1879 N 177.051 0.520363 -2.85903 0
M  V30 1880 H 176.598 -0.32107 -2.55591 0
M  V30 1881 H 176.556 1.38742 -2.82131 0
M  V30 1882 N 180.328 1.1314 -1.09713 0
M  V30 1883 C 181.577 1.83838 -0.829851 0
M  V30 1884 C 181.89 1.84599 0.646728 0
M  V30 1885 O 183.096 2.51218 1.02965 0
M  V30 1886 C 181.552 3.30069 -1.43466 0
M  V30 1887 C 181.16 3.37688 -2.94399 0
M  V30 1888 C 182.904 4.05788 -1.24645 0
M  V30 1889 C 180.811 4.78209 -3.47952 0
M  V30 1890 H 179.741 0.68877 -0.306777 0
M  V30 1891 H 182.392 1.27448 -1.3202 0
M  V30 1892 H 180.774 3.8628 -0.871996 0
M  V30 1893 H 181.948 2.91456 -3.56918 0
M  V30 1894 H 180.263 2.75436 -3.12289 0
M  V30 1895 H 182.86 5.09535 -1.62107 0
M  V30 1896 H 183.203 4.15878 -0.187357 0
M  V30 1897 H 183.736 3.55915 -1.77678 0
M  V30 1898 H 180.475 4.73311 -4.53495 0
M  V30 1899 H 179.995 5.24924 -2.90198 0
M  V30 1900 H 181.674 5.47133 -3.45332 0
M  V30 1901 N 181.806 0.884767 1.30421 0
M  V30 1902 C 183.083 0.423185 1.90967 0
M  V30 1903 C 183.463 -1.09605 1.80416 0
M  V30 1904 O 182.811 -1.93126 1.22125 0
M  V30 1905 C 183.021 0.921056 3.36627 0
M  V30 1906 C 184.369 0.955903 4.137 0
M  V30 1907 O 185.393 0.867706 3.4547 0
M  V30 1908 O 184.252 1.08614 5.35598 0
M  V30 1909 H 181.346 0.129369 0.816819 0
M  V30 1910 H 183.892 0.973653 1.3899 0
M  V30 1911 H 182.664 1.96489 3.3839 0
M  V30 1912 H 182.287 0.349741 3.96059 0
M  V30 1913 N 183.284 -1.43765 0.645699 0
M  V30 1914 C 184.214 -2.33471 -0.0370477 0
M  V30 1915 C 185.195 -1.49042 -0.819779 0
M  V30 1916 O 186.38 -1.77726 -0.782758 0
M  V30 1917 C 183.51 -3.32311 -1.0093 0
M  V30 1918 C 182.464 -4.2667 -0.337201 0
M  V30 1919 C 181.79 -5.1549 -1.42037 0
M  V30 1920 C 183.09 -5.16657 0.765706 0
M  V30 1921 H 184.784 -2.90809 0.712069 0
M  V30 1922 H 182.33 -1.39834 0.343876 0
M  V30 1923 H 184.283 -3.9396 -1.49578 0
M  V30 1924 H 183.007 -2.73213 -1.78948 0
M  V30 1925 H 181.666 -3.66374 0.128771 0
M  V30 1926 H 181.314 -4.52735 -2.1918 0
M  V30 1927 H 181.014 -5.79438 -0.975966 0
M  V30 1928 H 182.538 -5.80012 -1.90838 0
M  V30 1929 H 183.952 -5.72158 0.361702 0
M  V30 1930 H 182.349 -5.89286 1.13413 0
M  V30 1931 H 183.419 -4.56796 1.62683 0
M  V30 1932 N 184.763 -0.387143 -1.52771 0
M  V30 1933 C 185.726 0.436939 -2.24997 0
M  V30 1934 C 186.726 0.991991 -1.26555 0
M  V30 1935 O 187.916 0.874335 -1.50669 0
M  V30 1936 C 185.048 1.61281 -3.00335 0
M  V30 1937 H 186.241 -0.195365 -2.99263 0
M  V30 1938 H 183.794 -0.139218 -1.55679 0
M  V30 1939 H 184.529 2.2826 -2.30364 0
M  V30 1940 H 184.314 1.22154 -3.72587 0
M  V30 1941 H 185.804 2.19629 -3.5518 0
M  V30 1942 N 186.241 1.57166 -0.116904 0
M  V30 1943 C 187.204 2.14039 0.819742 0
M  V30 1944 C 188.204 1.07477 1.19605 0
M  V30 1945 O 189.394 1.33263 1.1219 0
M  V30 1946 C 186.526 2.67891 2.10826 0
M  V30 1947 H 187.719 2.98128 0.325511 0
M  V30 1948 H 185.272 1.55739 0.132312 0
M  V30 1949 H 186.007 1.87384 2.64685 0
M  V30 1950 H 185.792 3.45823 1.84793 0
M  V30 1951 H 187.282 3.11809 2.77785 0
M  V30 1952 N 187.719 -0.156864 1.56817 0
M  V30 1953 C 188.629 -1.2136 2.00771 0
M  V30 1954 C 189.645 -1.47598 0.921459 0
M  V30 1955 O 190.821 -1.59462 1.2302 0
M  V30 1956 C 187.886 -2.52943 2.37109 0
M  V30 1957 C 186.947 -2.34439 3.59634 0
M  V30 1958 C 186.18 -3.59748 3.94229 0
M  V30 1959 O 186.403 -4.65526 3.29609 0
M  V30 1960 O 185.337 -3.52998 4.8752 0
M  V30 1961 H 189.163 -0.870468 2.90958 0
M  V30 1962 H 186.748 -0.36484 1.44877 0
M  V30 1963 H 188.63 -3.30538 2.61386 0
M  V30 1964 H 187.305 -2.86806 1.5008 0
M  V30 1965 H 186.212 -1.54828 3.40557 0
M  V30 1966 H 187.545 -2.05496 4.4725 0
M  V30 1967 N 189.197 -1.51736 -0.425897 0
M  V30 1968 C 190.13 -1.68574 -1.53812 0
M  V30 1969 C 191.108 -0.53328 -1.53606 0
M  V30 1970 O 192.292 -0.758555 -1.72564 0
M  V30 1971 C 189.419 -1.70977 -2.92377 0
M  V30 1972 C 188.465 -2.92324 -3.10563 0
M  V30 1973 S 189.298 -4.52952 -2.85648 0
M  V30 1974 C 190.454 -4.58117 -4.26474 0
M  V30 1975 H 190.687 -2.62647 -1.39298 0
M  V30 1976 H 188.22 -1.41564 -0.616361 0
M  V30 1977 H 190.178 -1.73047 -3.72243 0
M  V30 1978 H 188.839 -0.78061 -3.04245 0
M  V30 1979 H 188.032 -2.90439 -4.11899 0
M  V30 1980 H 187.634 -2.88055 -2.38538 0
M  V30 1981 H 189.926 -4.34462 -5.19855 0
M  V30 1982 H 190.869 -5.59983 -4.33388 0
M  V30 1983 H 191.277 -3.8732 -4.10662 0
M  V30 1984 N 190.675 0.682077 -1.42076 0
M  V30 1985 C 191.923 1.4393 -1.41876 0
M  V30 1986 C 192.244 1.94971 -0.0335599 0
M  V30 1987 O 191.514 1.72591 0.926773 0
M  V30 1988 H 190.094 0.534085 -0.522267 0
M  V30 1989 H 192.756 0.806427 -1.77434 0
M  V30 1990 H 191.852 2.29588 -2.11414 0
M  V30 1991 N 192.153 1.28127 0.917671 0
M  V30 1992 C 193.116 1.11744 2.00115 0
M  V30 1993 C 194.116 0.0583052 1.60694 0
M  V30 1994 O 195.306 0.303755 1.71531 0
M  V30 1995 C 192.438 0.704862 3.33533 0
M  V30 1996 H 193.631 2.07966 2.16079 0
M  V30 1997 H 191.184 1.11058 1.09981 0
M  V30 1998 H 191.919 -0.258299 3.2327 0
M  V30 1999 H 191.704 1.4699 3.63505 0
M  V30 2000 H 193.194 0.612768 4.1308 0
M  V30 2001 N 193.631 -1.12557 1.10312 0
M  V30 2002 C 194.541 -2.21841 0.763142 0
M  V30 2003 C 195.557 -1.72354 -0.238801 0
M  V30 2004 O 196.733 -2.01249 -0.0778746 0
M  V30 2005 C 193.798 -3.46131 0.198632 0
M  V30 2006 C 192.859 -4.10464 1.25769 0
M  V30 2007 C 192.092 -5.28821 0.72002 0
M  V30 2008 O 192.315 -5.6859 -0.453993 0
M  V30 2009 O 191.249 -5.83437 1.47935 0
M  V30 2010 H 195.075 -2.53312 1.67532 0
M  V30 2011 H 192.66 -1.20867 0.878157 0
M  V30 2012 H 194.542 -4.2125 -0.112401 0
M  V30 2013 H 193.217 -3.16338 -0.686419 0
M  V30 2014 H 192.124 -3.3713 1.62156 0
M  V30 2015 H 193.457 -4.44408 2.11571 0
M  V30 2016 N 195.109 -0.891671 -1.2995 0
M  V30 2017 C 196.337 -0.52866 -2.00032 0
M  V30 2018 C 196.752 0.884574 -1.66795 0
M  V30 2019 O 196.109 1.5827 -0.908669 0
M  V30 2020 C 196.16 -0.701814 -3.54622 0
M  V30 2021 O 195.881 -2.05942 -3.86678 0
M  V30 2022 C 197.382 -0.342683 -4.41973 0
M  V30 2023 H 194.602 -0.203659 -0.639347 0
M  V30 2024 H 197.146 -1.19881 -1.65677 0
M  V30 2025 H 195.301 -0.0789468 -3.8732 0
M  V30 2026 H 195.715 -2.08291 -4.81368 0
M  V30 2027 H 197.189 -0.514709 -5.49595 0
M  V30 2028 H 197.666 0.71975 -4.33262 0
M  V30 2029 H 198.272 -0.942154 -4.14733 0
M  V30 2030 N 196.587 1.43421 -0.653314 0
M  V30 2031 C 197.834 2.01812 -0.166745 0
M  V30 2032 C 198.162 1.51535 1.21931 0
M  V30 2033 O 197.417 0.698975 1.82792 0
M  V30 2034 C 197.716 3.57176 -0.126623 0
M  V30 2035 C 197.382 4.26798 -1.45444 0
M  V30 2036 C 196.044 4.45534 -1.81805 0
M  V30 2037 C 198.396 4.66225 -2.32989 0
M  V30 2038 C 195.724 5.00961 -3.05377 0
M  V30 2039 C 198.076 5.23021 -3.55853 0
M  V30 2040 C 196.74 5.39973 -3.9241 0
M  V30 2041 H 196.01 0.738484 -0.0610162 0
M  V30 2042 H 198.657 1.71896 -0.84404 0
M  V30 2043 H 196.962 3.86634 0.634123 0
M  V30 2044 H 198.659 4.00112 0.266723 0
M  V30 2045 H 195.249 4.12561 -1.16153 0
M  V30 2046 H 199.433 4.51443 -2.06187 0
M  V30 2047 H 194.689 5.12271 -3.3375 0
M  V30 2048 H 198.863 5.52518 -4.23907 0
M  V30 2049 H 196.49 5.82687 -4.88242 0
M  V30 2050 N 198.065 0.39524 1.52563 0
M  V30 2051 C 199.311 -0.185318 2.01952 0
M  V30 2052 C 199.644 -1.45964 1.28095 0
M  V30 2053 O 198.919 -1.90689 0.38315 0
M  V30 2054 C 199.202 -0.447193 3.57312 0
M  V30 2055 C 199.055 0.842828 4.41833 0
M  V30 2056 C 200.374 -1.23529 4.22408 0
M  V30 2057 H 197.493 -0.0658788 0.73405 0
M  V30 2058 H 200.135 0.525975 1.82575 0
M  V30 2059 H 198.285 -1.05312 3.73954 0
M  V30 2060 H 199.957 1.4795 4.36931 0
M  V30 2061 H 198.2 1.45686 4.08605 0
M  V30 2062 H 198.871 0.614165 5.48573 0
M  V30 2063 H 201.347 -0.722445 4.0978 0
M  V30 2064 H 200.223 -1.38727 5.3108 0
M  V30 2065 H 200.484 -2.25213 3.80436 0
M  V30 2066 N 199.544 -1.57102 0.125237 0
M  V30 2067 C 200.477 -2.11371 -0.860094 0
M  V30 2068 C 201.455 -1.03168 -1.25679 0
M  V30 2069 O 202.639 -1.30862 -1.35674 0
M  V30 2070 C 199.766 -2.61555 -2.1519 0
M  V30 2071 C 198.812 -3.81701 -1.9028 0
M  V30 2072 S 199.645 -5.23797 -1.11343 0
M  V30 2073 C 200.801 -5.77353 -2.41689 0
M  V30 2074 H 201.034 -2.94617 -0.39852 0
M  V30 2075 H 198.567 -1.54145 -0.0886555 0
M  V30 2076 H 200.525 -2.91122 -2.89411 0
M  V30 2077 H 199.186 -1.78479 -2.58465 0
M  V30 2078 H 198.379 -4.14985 -2.86014 0
M  V30 2079 H 197.981 -3.52783 -1.24178 0
M  V30 2080 H 200.273 -5.87458 -3.37489 0
M  V30 2081 H 201.216 -6.75323 -2.12942 0
M  V30 2082 H 201.624 -5.05457 -2.51342 0
M  V30 2083 N 201.022 0.148545 -1.56898 0
M  V30 2084 C 202.268 0.857877 -1.84424 0
M  V30 2085 C 202.623 1.7886 -0.709006 0
M  V30 2086 O 201.916 1.89344 0.293139 0
M  V30 2087 C 202.11 1.67064 -3.1595 0
M  V30 2088 C 201.939 0.82011 -4.42159 0
M  V30 2089 C 200.709 0.486328 -5.02954 0
M  V30 2090 C 202.907 0.151155 -5.14078 0
M  V30 2091 N 200.889 -0.377956 -6.12735 0
M  V30 2092 C 202.26 -0.573333 -6.17343 0
M  V30 2093 C 204.315 0.0716685 -4.97848 0
M  V30 2094 C 203.018 -1.3698 -7.06137 0
M  V30 2095 C 205.044 -0.711532 -5.87104 0
M  V30 2096 C 204.406 -1.42431 -6.8985 0
M  V30 2097 H 200.505 0.291798 -0.725519 0
M  V30 2098 H 203.089 0.123347 -1.94309 0
M  V30 2099 H 201.26 2.37642 -3.07215 0
M  V30 2100 H 202.992 2.32302 -3.31388 0
M  V30 2101 H 199.747 0.821753 -4.66416 0
M  V30 2102 H 200.171 -0.801077 -6.72244 0
M  V30 2103 H 204.813 0.608381 -4.184 0
M  V30 2104 H 202.531 -1.91778 -7.85014 0
M  V30 2105 H 206.117 -0.775005 -5.76615 0
M  V30 2106 H 204.997 -2.02061 -7.57721 0
M  V30 2107 N 202.5 1.5196 0.417844 0
M  V30 2108 C 203.748 1.65263 1.16329 0
M  V30 2109 C 204.069 0.380634 1.91249 0
M  V30 2110 O 203.339 -0.604214 1.86349 0
M  V30 2111 H 201.919 0.60912 0.432414 0
M  V30 2112 H 204.581 1.88969 0.477162 0
M  V30 2113 H 203.677 2.4896 1.88217 0
M  V30 2114 N 203.978 -0.674533 1.42435 0
M  V30 2115 C 205.226 -1.43175 1.42637 0
M  V30 2116 C 205.547 -1.94951 0.0438992 0
M  V30 2117 O 204.817 -1.7308 -0.917607 0
M  V30 2118 H 203.397 -0.531307 0.525092 0
M  V30 2119 H 206.059 -0.797006 1.77859 0
M  V30 2120 H 205.155 -2.28463 2.12629 0
M  V30 2121 N 205.456 -1.28612 -0.910864 0
M  V30 2122 C 206.872 -1.06381 -1.18976 0
M  V30 2123 C 207.072 0.191998 -2.00583 0
M  V30 2124 O 206.128 0.892869 -2.36187 0
M  V30 2125 C 207.441 -2.31295 -1.92154 0
M  V30 2126 C 208.989 -2.36503 -2.05025 0
M  V30 2127 C 209.464 -3.61191 -2.81612 0
M  V30 2128 N 210.955 -3.61847 -2.89172 0
M  V30 2129 C 211.69 -4.55004 -3.4894 0
M  V30 2130 N 211.186 -5.58482 -4.09963 0
M  V30 2131 N 212.979 -4.42594 -3.46506 0
M  V30 2132 H 205.13 -2.09221 -0.366094 0
M  V30 2133 H 207.393 -0.921003 -0.224629 0
M  V30 2134 H 207.099 -3.228 -1.39618 0
M  V30 2135 H 206.973 -2.37934 -2.9269 0
M  V30 2136 H 209.36 -1.45494 -2.5674 0
M  V30 2137 H 209.441 -2.33857 -1.03657 0
M  V30 2138 H 209.085 -4.52545 -2.30576 0
M  V30 2139 H 209.015 -3.61092 -3.83302 0
M  V30 2140 H 211.506 -2.87022 -2.45819 0
M  V30 2141 H 211.819 -6.25704 -4.53557 0
M  V30 2142 H 210.164 -5.62305 -4.08459 0
M  V30 2143 H 213.355 -3.60953 -2.98045 0
M  V30 2144 H 213.528 -5.15381 -3.92793 0
M  V30 2145 N 206.934 1.1197 -1.10907 0
M  V30 2146 C 207.844 2.21433 -0.774896 0
M  V30 2147 C 208.86 1.72478 0.229657 0
M  V30 2148 O 210.036 2.01288 0.0672008 0
M  V30 2149 C 207.101 3.4602 -0.216986 0
M  V30 2150 C 206.162 4.09791 -1.27944 0
M  V30 2151 C 205.395 5.28431 -0.748055 0
M  V30 2152 O 205.618 5.68823 0.423833 0
M  V30 2153 O 204.552 5.82644 -1.51027 0
M  V30 2154 H 208.378 2.5242 -1.68873 0
M  V30 2155 H 205.963 1.20399 -0.884555 0
M  V30 2156 H 207.845 4.21304 0.090059 0
M  V30 2157 H 206.52 3.16698 0.669633 0
M  V30 2158 H 205.427 3.36265 -1.63941 0
M  V30 2159 H 206.76 4.4328 -2.13925 0
M  V30 2160 N 208.412 0.89855 1.29475 0
M  V30 2161 C 209.66 0.522847 1.9522 0
M  V30 2162 C 209.981 -0.93371 1.71192 0
M  V30 2163 O 209.251 -1.65823 1.04305 0
M  V30 2164 H 207.831 0.190366 0.722336 0
M  V30 2165 H 210.493 1.14459 1.5775 0
M  V30 2166 H 209.589 0.704476 3.04045 0
M  V30 2167 N 209.89 -1.43072 0.660911 0
M  V30 2168 C 211.115 -2.06584 0.183805 0
M  V30 2169 C 211.54 -1.49257 -1.14472 0
M  V30 2170 O 210.898 -0.605528 -1.70889 0
M  V30 2171 C 210.946 -3.60418 0.114434 0
M  V30 2172 O 210.05 -4.01981 -0.921137 0
M  V30 2173 H 209.391 -0.656669 0.0983994 0
M  V30 2174 H 211.921 -1.83447 0.906006 0
M  V30 2175 H 211.931 -4.07946 -0.0663394 0
M  V30 2176 H 210.606 -4.01519 1.08422 0
M  V30 2177 H 209.183 -3.66029 -0.71253 0
M  V30 2178 N 211.368 -0.403325 -1.52352 0
M  V30 2179 C 212.278 0.432009 -2.30588 0
M  V30 2180 C 213.294 1.05884 -1.38075 0
M  V30 2181 O 214.47 1.06161 -1.71148 0
M  V30 2182 C 211.535 1.53669 -3.10784 0
M  V30 2183 C 210.596 0.933525 -4.19027 0
M  V30 2184 C 209.829 1.98557 -4.9539 0
M  V30 2185 O 210.052 3.20283 -4.71991 0
M  V30 2186 O 208.986 1.59504 -5.80381 0
M  V30 2187 H 212.812 -0.205739 -3.03002 0
M  V30 2188 H 210.397 -0.166675 -1.48467 0
M  V30 2189 H 212.279 2.17814 -3.60742 0
M  V30 2190 H 210.954 2.15915 -2.41169 0
M  V30 2191 H 209.861 0.254954 -3.7323 0
M  V30 2192 H 211.194 0.35508 -4.90918 0
M  V30 2193 N 212.846 1.57033 -0.133567 0
M  V30 2194 C 214.076 1.99754 0.527429 0
M  V30 2195 C 214.484 1.01245 1.59832 0
M  V30 2196 O 213.827 -0.000645496 1.837 0
M  V30 2197 C 213.889 3.38903 1.19939 0
M  V30 2198 C 213.553 4.56174 0.274709 0
M  V30 2199 C 214.55 5.17563 -0.492398 0
M  V30 2200 C 212.235 5.01972 0.18153 0
M  V30 2201 C 214.229 6.2315 -1.34027 0
M  V30 2202 C 211.916 6.07416 -0.669958 0
M  V30 2203 C 212.914 6.67874 -1.42947 0
M  V30 2204 O 212.602 7.71279 -2.2668 0
M  V30 2205 H 212.334 0.660702 0.142999 0
M  V30 2206 H 214.888 2.04207 -0.221099 0
M  V30 2207 H 213.118 3.31248 1.99528 0
M  V30 2208 H 214.807 3.65818 1.75875 0
M  V30 2209 H 215.573 4.83087 -0.430367 0
M  V30 2210 H 211.452 4.54652 0.762422 0
M  V30 2211 H 214.996 6.70268 -1.93357 0
M  V30 2212 H 210.893 6.41321 -0.73333 0
M  V30 2213 H 211.661 7.88441 -2.1978 0
M  V30 2214 N 214.325 -0.140222 1.56975 0
M  V30 2215 C 215.602 -0.880769 1.74648 0
M  V30 2216 C 215.982 -1.99036 0.703404 0
M  V30 2217 O 215.33 -2.26821 -0.27648 0
M  V30 2218 C 215.54 -1.417 3.18939 0
M  V30 2219 C 216.888 -1.87774 3.80823 0
M  V30 2220 O 217.912 -1.51427 3.2241 0
M  V30 2221 O 216.771 -2.54827 4.83452 0
M  V30 2222 H 213.865 -0.416713 0.714338 0
M  V30 2223 H 216.411 -0.125618 1.69234 0
M  V30 2224 H 215.183 -0.619902 3.86359 0
M  V30 2225 H 214.806 -2.23546 3.28805 0
M  V30 2226 N 215.803 -1.52179 -0.40978 0
M  V30 2227 C 217.051 -1.65878 -1.15451 0
M  V30 2228 C 217.372 -0.390771 -1.91044 0
M  V30 2229 O 216.642 0.594323 -1.86667 0
M  V30 2230 H 215.222 -0.611405 -0.429177 0
M  V30 2231 H 217.884 -1.89219 -0.467134 0
M  V30 2232 H 216.98 -2.49954 -1.86894 0
M  V30 2233 N 217.281 0.66697 -1.42791 0
M  V30 2234 C 218.506 1.46004 -1.47301 0
M  V30 2235 C 218.931 1.87894 -0.0880317 0
M  V30 2236 O 218.289 1.56502 0.915253 0
M  V30 2237 C 218.337 2.68031 -2.41229 0
M  V30 2238 O 217.441 3.6659 -1.88906 0
M  V30 2239 H 216.782 0.43832 -0.49877 0
M  V30 2240 H 219.312 0.817391 -1.87563 0
M  V30 2241 H 219.322 3.1601 -2.58073 0
M  V30 2242 H 217.997 2.36883 -3.41847 0
M  V30 2243 H 216.574 3.25661 -1.81656 0
M  V30 2244 N 218.759 1.29093 0.90403 0
M  V30 2245 C 219.706 1.13853 2.00764 0
M  V30 2246 C 220.676 0.0330084 1.66067 0
M  V30 2247 O 221.861 0.199733 1.89752 0
M  V30 2248 C 219.001 0.816537 3.35301 0
M  V30 2249 C 218.114 2.00206 3.82807 0
M  V30 2250 C 217.249 1.61983 5.059 0
M  V30 2251 C 216.288 2.77143 5.45764 0
M  V30 2252 N 215.425 2.39346 6.60044 0
M  V30 2253 H 220.265 2.08276 2.13132 0
M  V30 2254 H 217.802 1.03648 1.04381 0
M  V30 2255 H 219.76 0.610557 4.12708 0
M  V30 2256 H 218.39 -0.090779 3.22672 0
M  V30 2257 H 217.442 2.31988 3.01473 0
M  V30 2258 H 218.754 2.86512 4.08304 0
M  V30 2259 H 217.908 1.37649 5.90879 0
M  V30 2260 H 216.647 0.728202 4.82233 0
M  V30 2261 H 215.652 3.02165 4.59322 0
M  V30 2262 H 216.877 3.66964 5.71414 0
M  V30 2263 H 214.823 1.52665 6.37989 0
M  V30 2264 H 214.74 3.19185 6.85315 0
M  V30 2265 H 216.008 2.1832 7.48303 0
M  V30 2266 N 220.237 -1.11381 1.11499 0
M  V30 2267 C 221.514 -1.7955 0.775965 0
M  V30 2268 C 221.894 -1.97859 -0.73588 0
M  V30 2269 O 221.242 -1.56376 -1.66609 0
M  V30 2270 C 221.452 -3.13196 1.53977 0
M  V30 2271 C 222.8 -3.88227 1.71944 0
M  V30 2272 O 223.824 -3.22887 1.50407 0
M  V30 2273 O 222.683 -5.05477 2.07738 0
M  V30 2274 H 219.777 -0.777728 0.28119 0
M  V30 2275 H 222.323 -1.18118 1.21845 0
M  V30 2276 H 221.095 -2.95229 2.56818 0
M  V30 2277 H 220.718 -3.82342 1.09088 0
M  V30 2278 N 221.715 -0.905404 -1.28997 0
M  V30 2279 C 222.645 -0.404212 -2.29975 0
M  V30 2280 C 223.626 0.523784 -1.61835 0
M  V30 2281 O 224.811 0.433298 -1.89304 0
M  V30 2282 C 221.941 0.364042 -3.45387 0
M  V30 2283 C 220.895 -0.474048 -4.25367 0
M  V30 2284 C 220.221 0.422045 -5.33032 0
M  V30 2285 C 221.521 -1.72696 -4.92923 0
M  V30 2286 H 223.215 -1.24807 -2.72146 0
M  V30 2287 H 220.761 -0.601585 -1.30832 0
M  V30 2288 H 222.714 0.725447 -4.15109 0
M  V30 2289 H 221.438 1.24174 -3.02074 0
M  V30 2290 H 220.097 -0.81786 -3.57361 0
M  V30 2291 H 219.745 1.29804 -4.85963 0
M  V30 2292 H 219.445 -0.135057 -5.87445 0
M  V30 2293 H 220.969 0.779517 -6.05604 0
M  V30 2294 H 222.383 -1.43495 -5.55051 0
M  V30 2295 H 220.78 -2.22582 -5.57295 0
M  V30 2296 H 221.85 -2.45964 -4.17887 0
M  V30 2297 N 223.193 1.4272 -0.668489 0
M  V30 2298 C 224.156 2.292 0.00448567 0
M  V30 2299 C 225.156 1.43001 0.735339 0
M  V30 2300 O 226.346 1.64461 0.57429 0
M  V30 2301 C 223.478 3.25375 1.01705 0
M  V30 2302 H 224.671 2.90199 -0.756608 0
M  V30 2303 H 222.224 1.50254 -0.430506 0
M  V30 2304 H 222.959 2.69301 1.80686 0
M  V30 2305 H 222.744 3.88944 0.496463 0
M  V30 2306 H 224.234 3.90245 1.48655 0
M  V30 2307 N 224.671 0.411399 1.52136 0
M  V30 2308 C 225.634 -0.401089 2.25663 0
M  V30 2309 C 226.634 -0.971732 1.28117 0
M  V30 2310 O 227.824 -0.850254 1.52041 0
M  V30 2311 C 224.956 -1.56483 3.02863 0
M  V30 2312 H 226.149 0.24295 2.98914 0
M  V30 2313 H 223.702 0.163968 1.55438 0
M  V30 2314 H 224.437 -2.24567 2.33967 0
M  V30 2315 H 224.222 -1.16211 3.74483 0
M  V30 2316 H 225.712 -2.13951 3.58629 0
M  V30 2317 N 226.149 -1.5696 0.141893 0
M  V30 2318 C 227.112 -2.15316 -0.785587 0
M  V30 2319 C 228.112 -1.09366 -1.1788 0
M  V30 2320 O 229.302 -1.35031 -1.10056 0
M  V30 2321 C 226.434 -2.71211 -2.06537 0
M  V30 2322 H 227.627 -2.98608 -0.278041 0
M  V30 2323 H 225.18 -1.5593 -0.107519 0
M  V30 2324 H 225.915 -1.91571 -2.6167 0
M  V30 2325 H 225.7 -3.4872 -1.79268 0
M  V30 2326 H 227.19 -3.16189 -2.72789 0
M  V30 2327 N 227.627 0.131896 -1.57047 0
M  V30 2328 C 228.557 1.16384 -2.02428 0
M  V30 2329 C 229.538 1.43936 -0.90644 0
M  V30 2330 O 230.723 1.54599 -1.17528 0
M  V30 2331 C 227.853 2.49328 -2.4177 0
M  V30 2332 C 226.807 2.36266 -3.56879 0
M  V30 2333 C 226.133 3.74057 -3.8208 0
M  V30 2334 C 227.433 1.834 -4.89042 0
M  V30 2335 H 229.127 0.786433 -2.88887 0
M  V30 2336 H 226.673 0.376855 -1.38981 0
M  V30 2337 H 228.626 3.21759 -2.7212 0
M  V30 2338 H 227.35 2.88934 -1.52266 0
M  V30 2339 H 226.009 1.66286 -3.26718 0
M  V30 2340 H 225.657 4.11125 -2.89803 0
M  V30 2341 H 225.357 3.66174 -4.59554 0
M  V30 2342 H 226.881 4.48012 -4.1487 0
M  V30 2343 H 228.295 2.45636 -5.18011 0
M  V30 2344 H 226.692 1.8637 -5.70426 0
M  V30 2345 H 227.762 0.790662 -4.7841 0
M  V30 2346 N 229.106 1.52395 0.401703 0
M  V30 2347 C 230.383 1.57387 1.16141 0
M  V30 2348 C 230.763 0.359359 2.08019 0
M  V30 2349 O 230.111 -0.65326 2.18963 0
M  V30 2350 C 230.321 2.90631 1.93221 0
M  V30 2351 C 231.669 3.43904 2.49028 0
M  V30 2352 O 232.693 2.92421 2.03393 0
M  V30 2353 O 231.552 4.33823 3.32356 0
M  V30 2354 H 228.646 0.634262 0.530698 0
M  V30 2355 H 231.192 1.64725 0.407883 0
M  V30 2356 H 229.964 3.70473 1.25958 0
M  V30 2357 H 229.587 2.8662 2.75563 0
M  V30 2358 N 230.584 -0.659388 1.43143 0
M  V30 2359 C 232 -0.974337 1.26407 0
M  V30 2360 C 232.2 -2.007 0.179341 0
M  V30 2361 O 231.256 -2.4856 -0.444295 0
M  V30 2362 C 232.569 -1.46447 2.62628 0
M  V30 2363 C 234.117 -1.58144 2.7011 0
M  V30 2364 C 234.592 -2.1055 4.06734 0
M  V30 2365 N 236.083 -2.17861 4.08767 0
M  V30 2366 C 236.818 -2.59519 5.1131 0
M  V30 2367 N 236.314 -3.00518 6.24228 0
M  V30 2368 N 238.107 -2.59404 4.98664 0
M  V30 2369 H 230.258 0.0240528 2.12386 0
M  V30 2370 H 232.521 -0.0518065 0.946583 0
M  V30 2371 H 232.227 -0.780123 3.42939 0
M  V30 2372 H 232.101 -2.44058 2.87603 0
M  V30 2373 H 234.488 -2.25682 1.90136 0
M  V30 2374 H 234.569 -0.589828 2.48907 0
M  V30 2375 H 234.213 -1.43616 4.87172 0
M  V30 2376 H 234.143 -3.10531 4.25298 0
M  V30 2377 H 236.634 -1.88975 3.27257 0
M  V30 2378 H 236.947 -3.31036 6.98309 0
M  V30 2379 H 235.292 -2.98337 6.2771 0
M  V30 2380 H 238.483 -2.26747 4.09516 0
M  V30 2381 H 238.656 -2.91548 5.78709 0
M  V30 2382 N 232.062 -1.29571 -0.897171 0
M  V30 2383 C 232.995 -1.0924 -2.00354 0
M  V30 2384 C 233.973 -0.00354011 -1.626 0
M  V30 2385 O 235.157 -0.15473 -1.87864 0
M  V30 2386 C 232.284 -0.66352 -3.32137 0
M  V30 2387 C 231.33 -1.75146 -3.88878 0
M  V30 2388 S 232.163 -3.35124 -4.17674 0
M  V30 2389 C 233.319 -2.9411 -5.52494 0
M  V30 2390 H 233.552 -2.02907 -2.17292 0
M  V30 2391 H 231.085 -1.13746 -1.04408 0
M  V30 2392 H 233.043 -0.422791 -4.08317 0
M  V30 2393 H 231.704 0.253588 -3.13075 0
M  V30 2394 H 230.897 -1.40337 -4.84068 0
M  V30 2395 H 230.499 -1.94584 -3.19395 0
M  V30 2396 H 232.791 -2.41312 -6.33068 0
M  V30 2397 H 233.734 -3.88161 -5.9223 0
M  V30 2398 H 234.142 -2.32332 -5.14473 0
M  V30 2399 N 233.54 1.10788 -1.12088 0
M  V30 2400 C 234.956 1.34691 -0.856186 0
M  V30 2401 C 235.156 1.94791 0.515615 0
M  V30 2402 O 234.212 2.18524 1.26505 0
M  V30 2403 C 235.525 2.27208 -1.9697 0
M  V30 2404 C 237.073 2.40755 -2.00016 0
M  V30 2405 C 237.548 3.36598 -3.1059 0
M  V30 2406 N 239.039 3.44164 -3.10008 0
M  V30 2407 C 239.774 4.18284 -3.92206 0
M  V30 2408 N 239.27 4.95322 -4.84384 0
M  V30 2409 N 241.063 4.13865 -3.80357 0
M  V30 2410 H 233.214 0.70144 -2.00483 0
M  V30 2411 H 235.477 0.371405 -0.872217 0
M  V30 2412 H 235.183 1.90251 -2.958 0
M  V30 2413 H 235.057 3.27485 -1.87172 0
M  V30 2414 H 237.444 2.76982 -1.01808 0
M  V30 2415 H 237.525 1.40305 -2.13888 0
M  V30 2416 H 237.169 3.01096 -4.09028 0
M  V30 2417 H 237.099 4.36918 -2.93956 0
M  V30 2418 H 239.59 2.8922 -2.43228 0
M  V30 2419 H 239.903 5.49267 -5.43623 0
M  V30 2420 H 238.248 4.94459 -4.884 0
M  V30 2421 H 241.439 3.52773 -3.07683 0
M  V30 2422 H 241.612 4.71372 -4.44649 0
M  V30 2423 N 235.018 0.912232 1.28515 0
M  V30 2424 C 235.928 0.404506 2.31086 0
M  V30 2425 C 236.944 -0.50707 1.66448 0
M  V30 2426 O 238.12 -0.393624 1.97516 0
M  V30 2427 C 235.185 -0.348572 3.44943 0
M  V30 2428 C 234.246 0.59604 4.25142 0
M  V30 2429 C 233.479 -0.121194 5.33562 0
M  V30 2430 O 233.702 -1.34317 5.5436 0
M  V30 2431 O 232.636 0.542716 5.99448 0
M  V30 2432 H 236.462 1.25579 2.76521 0
M  V30 2433 H 234.047 0.676998 1.33181 0
M  V30 2434 H 235.929 -0.77395 4.14232 0
M  V30 2435 H 234.604 -1.17571 3.01594 0
M  V30 2436 H 233.511 1.07079 3.58448 0
M  V30 2437 H 234.844 1.38995 4.72167 0
M  V30 2438 N 236.496 -1.42363 0.676048 0
M  V30 2439 C 237.744 -2.01123 0.198437 0
M  V30 2440 C 238.065 -1.53731 -1.19966 0
M  V30 2441 O 237.335 -0.759518 -1.80577 0
M  V30 2442 H 235.915 -0.743678 0.0703721 0
M  V30 2443 H 238.577 -1.74263 0.872837 0
M  V30 2444 H 237.673 -3.11454 0.200686 0
M  V30 2445 N 237.974 -0.419461 -1.51915 0
M  V30 2446 C 239.22 0.153166 -2.02221 0
M  V30 2447 C 239.553 1.43907 -1.30401 0
M  V30 2448 O 238.828 1.90055 -0.413438 0
M  V30 2449 C 239.111 0.390291 -3.57979 0
M  V30 2450 C 238.964 -0.913014 -4.40436 0
M  V30 2451 C 240.283 1.16794 -4.2432 0
M  V30 2452 H 237.402 0.0541924 -0.735005 0
M  V30 2453 H 240.044 -0.554955 -1.81715 0
M  V30 2454 H 238.194 0.993491 -3.75582 0
M  V30 2455 H 239.866 -1.54882 -4.34522 0
M  V30 2456 H 238.109 -1.52168 -4.06236 0
M  V30 2457 H 238.78 -0.701361 -5.47526 0
M  V30 2458 H 241.256 0.657161 -4.10878 0
M  V30 2459 H 240.132 1.3026 -5.3322 0
M  V30 2460 H 240.393 2.19132 -3.83971 0
M  V30 2461 N 239.452 1.56882 -0.150215 0
M  V30 2462 C 240.729 1.87844 0.545327 0
M  V30 2463 C 241.109 1.0567 1.82749 0
M  V30 2464 O 240.457 0.144442 2.28043 0
M  V30 2465 C 240.667 3.39526 0.80767 0
M  V30 2466 C 242.015 4.08814 1.14703 0
M  V30 2467 O 243.039 3.44723 0.896917 0
M  V30 2468 O 241.898 5.22004 1.61784 0
M  V30 2469 H 238.992 0.778677 0.278553 0
M  V30 2470 H 241.538 1.68666 -0.187068 0
M  V30 2471 H 240.31 3.91173 -0.0996096 0
M  V30 2472 H 239.933 3.64243 1.59413 0
M  V30 2473 N 240.93 -0.123565 1.57115 0
M  V30 2474 C 242.158 -0.846461 1.88793 0
M  V30 2475 C 242.573 -1.73652 0.740976 0
M  V30 2476 O 241.93 -1.80207 -0.288393 0
M  V30 2477 C 241.981 -1.6837 3.19897 0
M  V30 2478 O 241.702 -0.829477 4.30176 0
M  V30 2479 C 243.203 -2.51214 3.65248 0
M  V30 2480 H 240.423 -0.243573 0.625231 0
M  V30 2481 H 242.967 -0.109324 2.04208 0
M  V30 2482 H 241.122 -2.37364 3.06165 0
M  V30 2483 H 241.536 -1.40651 5.0529 0
M  V30 2484 H 243.01 -3.05497 4.59756 0
M  V30 2485 H 243.487 -3.28359 2.9168 0
M  V30 2486 H 244.093 -1.8747 3.81752 0
M  V30 2487 N 242.408 -1.52605 -0.393616 0
M  V30 2488 C 243.371 -1.76415 -1.46323 0
M  V30 2489 C 244.371 -0.634126 -1.47768 0
M  V30 2490 O 245.561 -0.902142 -1.4902 0
M  V30 2491 C 242.693 -1.8607 -2.85641 0
M  V30 2492 H 243.886 -2.71916 -1.26498 0
M  V30 2493 H 241.439 -1.43257 -0.625073 0
M  V30 2494 H 242.174 -0.925378 -3.10817 0
M  V30 2495 H 241.959 -2.68235 -2.85993 0
M  V30 2496 H 243.449 -2.06179 -3.63153 0
M  V30 2497 N 243.887 0.651787 -1.4349 0
M  V30 2498 C 244.85 1.74647 -1.48429 0
M  V30 2499 C 245.85 1.56513 -0.368817 0
M  V30 2500 O 247.04 1.62385 -0.630623 0
M  V30 2501 C 244.172 3.13533 -1.33827 0
M  V30 2502 H 245.365 1.71649 -2.4592 0
M  V30 2503 H 242.918 0.863573 -1.30277 0
M  V30 2504 H 243.653 3.22142 -0.37349 0
M  V30 2505 H 243.438 3.28101 -2.14691 0
M  V30 2506 H 244.928 3.93356 -1.40218 0
M  V30 2507 N 245.365 1.30045 0.890287 0
M  V30 2508 C 246.613 1.18327 1.63839 0
M  V30 2509 C 246.934 -0.263455 1.93212 0
M  V30 2510 O 246.204 -1.17856 1.56482 0
M  V30 2511 H 244.784 0.434933 0.607324 0
M  V30 2512 H 247.446 1.631 1.06698 0
M  V30 2513 H 246.542 1.74024 2.59079 0
M  V30 2514 N 246.843 -1.10192 1.12674 0
M  V30 2515 C 248.073 -1.85713 0.905213 0
M  V30 2516 C 248.481 -1.81056 -0.549108 0
M  V30 2517 O 247.824 -1.19927 -1.39151 0
M  V30 2518 C 247.886 -3.34972 1.30516 0
M  V30 2519 C 247.55 -3.63385 2.77129 0
M  V30 2520 C 248.547 -3.59772 3.75313 0
M  V30 2521 C 246.232 -3.91981 3.14096 0
M  V30 2522 C 248.226 -3.84354 5.08479 0
M  V30 2523 C 245.913 -4.16218 4.47443 0
M  V30 2524 C 246.911 -4.12395 5.44444 0
M  V30 2525 O 246.599 -4.36014 6.75387 0
M  V30 2526 H 246.331 -0.593719 0.323223 0
M  V30 2527 H 248.885 -1.40198 1.50112 0
M  V30 2528 H 247.115 -3.81156 0.652463 0
M  V30 2529 H 248.804 -3.91886 1.05736 0
M  V30 2530 H 249.57 -3.37716 3.48099 0
M  V30 2531 H 245.449 -3.94085 2.39202 0
M  V30 2532 H 248.993 -3.81285 5.84181 0
M  V30 2533 H 244.89 -4.37754 4.74386 0
M  V30 2534 H 245.658 -4.53516 6.8137 0
M  V30 2535 N 248.321 -0.919034 -1.28029 0
M  V30 2536 C 249.57 -0.550802 -1.94034 0
M  V30 2537 C 249.883 0.910877 -1.73096 0
M  V30 2538 O 251.089 1.3875 -2.33368 0
M  V30 2539 C 249.545 -0.934249 -3.47563 0
M  V30 2540 C 249.153 -2.41602 -3.7727 0
M  V30 2541 C 250.897 -0.636854 -4.19696 0
M  V30 2542 C 248.804 -2.73932 -5.24133 0
M  V30 2543 H 247.734 -0.202273 -0.726362 0
M  V30 2544 H 250.385 -1.11867 -1.45458 0
M  V30 2545 H 248.767 -0.295115 -3.94899 0
M  V30 2546 H 249.941 -3.10233 -3.40723 0
M  V30 2547 H 248.256 -2.68441 -3.18321 0
M  V30 2548 H 250.853 -0.855005 -5.2782 0
M  V30 2549 H 251.196 0.425575 -4.14119 0
M  V30 2550 H 251.729 -1.23469 -3.78154 0
M  V30 2551 H 248.468 -3.79049 -5.34792 0
M  V30 2552 H 247.988 -2.09942 -5.61858 0
M  V30 2553 H 249.667 -2.61215 -5.91925 0
M  V30 2554 N 249.799 1.42003 -0.683588 0
M  V30 2555 C 250.746 2.30798 -0.0107309 0
M  V30 2556 C 251.716 1.4645 0.783688 0
M  V30 2557 O 252.901 1.75263 0.754156 0
M  V30 2558 C 250.041 3.3238 0.928306 0
M  V30 2559 C 249.154 4.31814 0.126776 0
M  V30 2560 C 248.289 5.20468 1.06236 0
M  V30 2561 C 247.328 6.11577 0.253035 0
M  V30 2562 N 246.465 6.92754 1.14179 0
M  V30 2563 H 251.305 2.8778 -0.773727 0
M  V30 2564 H 248.842 1.41745 -0.393283 0
M  V30 2565 H 250.8 3.89813 1.48666 0
M  V30 2566 H 249.43 2.76976 1.65783 0
M  V30 2567 H 248.482 3.76427 -0.54833 0
M  V30 2568 H 249.794 4.96276 -0.501192 0
M  V30 2569 H 248.948 5.82677 1.69035 0
M  V30 2570 H 247.687 4.56204 1.7242 0
M  V30 2571 H 246.692 5.48428 -0.388108 0
M  V30 2572 H 247.917 6.77892 -0.404839 0
M  V30 2573 H 245.863 6.3111 1.78987 0
M  V30 2574 H 245.78 7.53855 0.569111 0
M  V30 2575 H 247.048 7.59441 1.75697 0
M  V30 2576 N 251.277 0.427512 1.51691 0
M  V30 2577 C 252.554 -0.201684 1.94557 0
M  V30 2578 C 252.934 -1.60981 1.36559 0
M  V30 2579 O 252.282 -2.21814 0.548702 0
M  V30 2580 C 252.492 -0.189394 3.48486 0
M  V30 2581 C 253.84 -0.39978 4.22714 0
M  V30 2582 O 254.864 -0.267945 3.55191 0
M  V30 2583 O 253.723 -0.661249 5.42485 0
M  V30 2584 H 250.817 -0.135261 0.815864 0
M  V30 2585 H 253.363 0.484782 1.62628 0
M  V30 2586 H 252.135 0.795431 3.8313 0
M  V30 2587 H 251.758 -0.919187 3.86829 0
M  V30 2588 N 252.755 -1.56801 0.158532 0
M  V30 2589 C 253.702 -2.17337 -0.776729 0
M  V30 2590 C 254.672 -1.1096 -1.23601 0
M  V30 2591 O 255.857 -1.39054 -1.30647 0
M  V30 2592 C 252.997 -2.80822 -2.00582 0
M  V30 2593 C 252.11 -4.01624 -1.59129 0
M  V30 2594 C 251.245 -4.53072 -2.77306 0
M  V30 2595 C 250.284 -5.66314 -2.32282 0
M  V30 2596 N 249.421 -6.12329 -3.43508 0
M  V30 2597 H 254.261 -2.96918 -0.253701 0
M  V30 2598 H 251.798 -1.46661 -0.113504 0
M  V30 2599 H 253.756 -3.15779 -2.72652 0
M  V30 2600 H 252.386 -2.03866 -2.50277 0
M  V30 2601 H 251.438 -3.72571 -0.767806 0
M  V30 2602 H 252.75 -4.83633 -1.2207 0
M  V30 2603 H 251.904 -4.90145 -3.57551 0
M  V30 2604 H 250.643 -3.70095 -3.17617 0
M  V30 2605 H 249.648 -5.28806 -1.5048 0
M  V30 2606 H 250.873 -6.51085 -1.93043 0
M  V30 2607 H 248.819 -5.32284 -3.83418 0
M  V30 2608 H 248.736 -6.89293 -3.105 0
M  V30 2609 H 250.004 -6.5405 -4.24075 0
M  V30 2610 N 254.233 0.115231 -1.57178 0
M  V30 2611 C 255.481 0.820727 -1.84685 0
M  V30 2612 C 255.802 1.80237 -0.744279 0
M  V30 2613 O 255.072 1.94529 0.231375 0
M  V30 2614 H 253.652 0.306084 -0.681411 0
M  V30 2615 H 256.314 0.101656 -1.94635 0
M  V30 2616 H 255.41 1.36366 -2.80733 0
M  V30 2617 N 255.711 1.52812 0.385517 0
M  V30 2618 C 256.941 1.71658 1.14966 0
M  V30 2619 C 257.349 0.436253 1.84102 0
M  V30 2620 O 256.692 -0.599313 1.73649 0
M  V30 2621 C 256.754 2.81309 2.23843 0
M  V30 2622 C 256.418 4.22313 1.74644 0
M  V30 2623 C 257.415 5.05352 1.22129 0
M  V30 2624 C 255.1 4.68648 1.80761 0
M  V30 2625 C 257.094 6.32807 0.763838 0
M  V30 2626 C 254.781 5.96086 1.34627 0
M  V30 2627 C 255.779 6.77996 0.825264 0
M  V30 2628 O 255.467 8.03045 0.370669 0
M  V30 2629 H 255.199 0.578022 0.350523 0
M  V30 2630 H 257.753 2.00263 0.456509 0
M  V30 2631 H 255.983 2.48133 2.96592 0
M  V30 2632 H 257.672 2.88524 2.85497 0
M  V30 2633 H 258.438 4.70736 1.16758 0
M  V30 2634 H 254.317 4.04979 2.20256 0
M  V30 2635 H 257.861 6.96689 0.356494 0
M  V30 2636 H 253.758 6.30205 1.39686 0
M  V30 2637 H 254.526 8.17021 0.491829 0
M  V30 2638 N 257.189 -0.644168 1.43834 0
M  V30 2639 C 258.137 -1.77793 1.49974 0
M  V30 2640 C 259.131 -1.65253 0.372536 0
M  V30 2641 O 260.337 -1.7149 0.546924 0
M  V30 2642 H 256.712 -0.58675 0.47035 0
M  V30 2643 H 258.683 -1.69736 2.45423 0
M  V30 2644 C 257.432 -3.16087 1.4486 0
M  V30 2645 H 256.755 -3.26378 2.30905 0
M  V30 2646 H 258.195 -3.95349 1.53217 0
M  V30 2647 C 256.654 -3.36484 0.167463 0
M  V30 2648 O 257.184 -3.94298 -0.767609 0
M  V30 2649 N 255.39 -2.90504 0.0747556 0
M  V30 2650 H 254.937 -2.4364 0.836507 0
M  V30 2651 H 254.895 -3.04527 -0.781714 0
M  V30 2652 N 258.668 -1.30515 -0.883378 0
M  V30 2653 C 259.598 -1.19607 -2.00541 0
M  V30 2654 C 260.579 -0.086346 -1.69881 0
M  V30 2655 O 261.764 -0.268654 -1.92333 0
M  V30 2656 C 258.894 -0.888758 -3.35736 0
M  V30 2657 C 257.848 -1.95659 -3.8066 0
M  V30 2658 C 257.174 -1.50224 -5.13164 0
M  V30 2659 C 258.474 -3.36788 -3.99213 0
M  V30 2660 H 260.168 -2.13476 -2.09925 0
M  V30 2661 H 257.714 -1.02775 -1.00863 0
M  V30 2662 H 259.667 -0.799094 -4.13754 0
M  V30 2663 H 258.391 0.0856125 -3.26488 0
M  V30 2664 H 257.05 -2.03591 -3.04871 0
M  V30 2665 H 256.698 -0.516092 -5.00345 0
M  V30 2666 H 256.398 -2.2165 -5.44192 0
M  V30 2667 H 257.922 -1.42639 -5.93706 0
M  V30 2668 H 259.336 -3.31605 -4.67665 0
M  V30 2669 H 257.733 -4.06314 -4.41621 0
M  V30 2670 H 258.803 -3.78561 -3.03017 0
M  V30 2671 N 260.146 1.09593 -1.13257 0
M  V30 2672 C 261.562 1.33775 -0.870423 0
M  V30 2673 C 261.762 1.95327 0.494926 0
M  V30 2674 O 260.818 2.19853 1.2418 0
M  V30 2675 C 262.131 2.25106 -1.99369 0
M  V30 2676 C 263.679 2.3862 -2.02558 0
M  V30 2677 C 264.154 3.33285 -3.14142 0
M  V30 2678 N 265.645 3.40857 -3.13641 0
M  V30 2679 C 266.38 4.14101 -3.96621 0
M  V30 2680 N 265.876 4.90157 -4.8961 0
M  V30 2681 N 267.669 4.09808 -3.84726 0
M  V30 2682 H 259.82 0.680136 -2.01216 0
M  V30 2683 H 262.083 0.362133 -0.876107 0
M  V30 2684 H 261.789 1.87103 -2.97801 0
M  V30 2685 H 261.663 3.25481 -1.90635 0
M  V30 2686 H 264.05 2.75887 -1.0474 0
M  V30 2687 H 264.131 1.38028 -2.15364 0
M  V30 2688 H 263.775 2.96741 -4.12198 0
M  V30 2689 H 263.705 4.33776 -2.98574 0
M  V30 2690 H 266.196 2.86624 -2.46282 0
M  V30 2691 H 266.509 5.4347 -5.49418 0
M  V30 2692 H 264.854 4.89251 -4.93617 0
M  V30 2693 H 268.045 3.4949 -3.11408 0
M  V30 2694 H 268.218 4.66629 -4.49623 0
M  V30 2695 N 261.624 0.925811 1.2754 0
M  V30 2696 C 262.873 0.561084 1.93739 0
M  V30 2697 C 263.186 -0.901685 1.73577 0
M  V30 2698 O 264.392 -1.37511 2.34101 0
M  V30 2699 C 262.848 0.952668 3.47062 0
M  V30 2700 C 262.456 2.43599 3.75983 0
M  V30 2701 C 264.2 0.659103 4.19352 0
M  V30 2702 C 262.107 2.76707 5.22673 0
M  V30 2703 H 261.037 0.206122 0.725279 0
M  V30 2704 H 263.688 1.12637 1.44863 0
M  V30 2705 H 262.07 0.316053 3.94737 0
M  V30 2706 H 263.244 3.12035 3.39073 0
M  V30 2707 H 261.559 2.70125 3.16893 0
M  V30 2708 H 264.156 0.882985 5.27359 0
M  V30 2709 H 264.499 -0.403607 4.14339 0
M  V30 2710 H 265.032 1.25473 3.77494 0
M  V30 2711 H 261.771 3.8188 5.32774 0
M  V30 2712 H 261.291 2.12919 5.60737 0
M  V30 2713 H 262.97 2.6435 5.90532 0
M  V30 2714 N 263.102 -1.41638 0.69111 0
M  V30 2715 C 264.065 -2.29178 0.0319786 0
M  V30 2716 C 265.065 -1.44153 -0.712496 0
M  V30 2717 O 266.255 -1.65354 -0.548053 0
M  V30 2718 C 263.387 -3.26952 -0.965161 0
M  V30 2719 H 264.58 -2.88959 0.802681 0
M  V30 2720 H 262.133 -1.4955 0.454356 0
M  V30 2721 H 262.868 -2.72142 -1.76378 0
M  V30 2722 H 262.653 -3.89685 -0.434522 0
M  V30 2723 H 264.143 -3.92561 -1.42428 0
M  V30 2724 N 264.58 -0.43555 -1.51462 0
M  V30 2725 C 265.51 0.367376 -2.30592 0
M  V30 2726 C 266.491 1.02263 -1.35928 0
M  V30 2727 O 267.676 1.02661 -1.64847 0
M  V30 2728 C 264.806 1.46983 -3.14664 0
M  V30 2729 C 263.76 0.938161 -4.17591 0
M  V30 2730 C 263.086 2.13622 -4.90173 0
M  V30 2731 C 264.386 -0.0261621 -5.22293 0
M  V30 2732 H 266.08 -0.292969 -2.97963 0
M  V30 2733 H 263.626 -0.14234 -1.43295 0
M  V30 2734 H 265.579 2.03873 -3.688 0
M  V30 2735 H 264.303 2.15843 -2.4511 0
M  V30 2736 H 262.962 0.391481 -3.64504 0
M  V30 2737 H 262.61 2.81098 -4.17124 0
M  V30 2738 H 262.31 1.78688 -5.59772 0
M  V30 2739 H 263.834 2.7107 -5.47132 0
M  V30 2740 H 265.248 0.452384 -5.71512 0
M  V30 2741 H 263.645 -0.287992 -5.99409 0
M  V30 2742 H 264.715 -0.963391 -4.75233 0
M  V30 2743 N 266.058 1.56714 -0.166846 0
M  V30 2744 C 266.968 2.21331 0.777791 0
M  V30 2745 C 267.984 1.20358 1.25658 0
M  V30 2746 O 269.16 1.53005 1.30964 0
M  V30 2747 C 266.225 2.83787 1.99163 0
M  V30 2748 C 265.286 3.99947 1.56016 0
M  V30 2749 C 264.519 4.59415 2.71613 0
M  V30 2750 O 264.742 4.17769 3.88362 0
M  V30 2751 O 263.676 5.49359 2.45945 0
M  V30 2752 H 267.502 3.02605 0.257636 0
M  V30 2753 H 265.087 1.49275 0.0611393 0
M  V30 2754 H 266.969 3.23405 2.70161 0
M  V30 2755 H 265.644 2.05513 2.50092 0
M  V30 2756 H 264.551 3.65007 0.819809 0
M  V30 2757 H 265.884 4.79801 1.09782 0
M  V30 2758 N 267.536 -0.106894 1.57237 0
M  V30 2759 C 268.947 -0.662723 1.74542 0
M  V30 2760 C 269.298 -1.7971 0.787319 0
M  V30 2761 O 268.423 -2.16368 -0.0369636 0
M  V30 2762 C 269.018 -1.20896 3.16496 0
M  V30 2763 C 267.577 -1.71096 3.35266 0
M  V30 2764 C 266.724 -0.615642 2.7038 0
M  V30 2765 H 269.675 0.119106 1.58252 0
M  V30 2766 H 269.696 -2.07847 3.18716 0
M  V30 2767 H 269.208 -0.383122 3.86204 0
M  V30 2768 H 267.309 -2.56119 2.70618 0
M  V30 2769 H 267.422 -1.81208 4.43509 0
M  V30 2770 H 265.786 -1.05222 2.31949 0
M  V30 2771 H 266.569 0.199419 3.4272 0
M  V30 2772 N 269.014 -1.53014 -0.377408 0
M  V30 2773 C 269.961 -1.78616 -1.46168 0
M  V30 2774 C 270.931 -0.629917 -1.53692 0
M  V30 2775 O 272.116 -0.870861 -1.69766 0
M  V30 2776 C 269.256 -1.97123 -2.8326 0
M  V30 2777 C 268.369 -3.24831 -2.84796 0
M  V30 2778 C 267.504 -3.33591 -4.13389 0
M  V30 2779 C 266.543 -4.55377 -4.09021 0
M  V30 2780 N 265.68 -4.61355 -5.29241 0
M  V30 2781 H 270.52 -2.71142 -1.23637 0
M  V30 2782 H 268.057 -1.34326 -0.599577 0
M  V30 2783 H 270.015 -2.05839 -3.62886 0
M  V30 2784 H 268.645 -1.07946 -3.04216 0
M  V30 2785 H 267.697 -3.25128 -1.97474 0
M  V30 2786 H 269.009 -4.14523 -2.77439 0
M  V30 2787 H 268.163 -3.41554 -5.01424 0
M  V30 2788 H 266.902 -2.41894 -4.23484 0
M  V30 2789 H 265.907 -4.47527 -3.19373 0
M  V30 2790 H 267.132 -5.48402 -4.00539 0
M  V30 2791 H 265.078 -3.72554 -5.39944 0
M  V30 2792 H 264.995 -5.44935 -5.24006 0
M  V30 2793 H 266.263 -4.73586 -6.19141 0
M  V30 2794 N 270.492 0.636531 -1.44174 0
M  V30 2795 C 271.903 1.21806 -1.41493 0
M  V30 2796 C 272.254 1.95785 -0.1275 0
M  V30 2797 O 271.379 2.02147 0.772376 0
M  V30 2798 C 271.974 2.21551 -2.56321 0
M  V30 2799 C 270.533 2.75143 -2.56853 0
M  V30 2800 C 269.68 1.50052 -2.33195 0
M  V30 2801 H 272.631 0.427531 -1.52833 0
M  V30 2802 H 272.652 3.0405 -2.28765 0
M  V30 2803 H 272.164 1.67679 -3.50008 0
M  V30 2804 H 270.265 3.33033 -1.67093 0
M  V30 2805 H 270.378 3.2155 -3.55165 0
M  V30 2806 H 268.742 1.77993 -1.82183 0
M  V30 2807 H 269.525 0.980903 -3.28988 0
M  V30 2808 N 271.97 1.30982 0.876444 0
M  V30 2809 C 272.918 1.18006 2.00443 0
M  V30 2810 C 273.912 0.0898871 1.69161 0
M  V30 2811 O 275.118 0.251333 1.78237 0
M  V30 2812 H 271.493 0.365196 0.65737 0
M  V30 2813 H 273.464 2.13453 2.0852 0
M  V30 2814 C 272.213 0.897521 3.35916 0
M  V30 2815 H 271.536 1.7285 3.60504 0
M  V30 2816 H 272.976 0.846874 4.15456 0
M  V30 2817 C 271.435 -0.399674 3.34521 0
M  V30 2818 O 271.965 -1.41852 3.7582 0
M  V30 2819 N 270.171 -0.413893 2.87637 0
M  V30 2820 H 269.718 0.41571 2.54224 0
M  V30 2821 H 269.676 -1.28175 2.87086 0
M  V30 2822 N 273.449 -1.08991 1.13837 0
M  V30 2823 C 274.359 -2.19301 0.833333 0
M  V30 2824 C 275.375 -1.73026 -0.183847 0
M  V30 2825 O 276.551 -2.01395 -0.0138092 0
M  V30 2826 C 273.616 -3.45323 0.308651 0
M  V30 2827 C 272.677 -4.06255 1.38764 0
M  V30 2828 C 271.91 -5.26262 0.887896 0
M  V30 2829 O 272.133 -5.69747 -0.27287 0
M  V30 2830 O 271.067 -5.78435 1.66421 0
M  V30 2831 H 274.893 -2.47854 1.75506 0
M  V30 2832 H 272.478 -1.18012 0.916166 0
M  V30 2833 H 274.36 -4.21394 0.0216739 0
M  V30 2834 H 273.035 -3.18362 -0.585431 0
M  V30 2835 H 271.942 -3.318 1.72799 0
M  V30 2836 H 273.275 -4.37452 2.25602 0
M  V30 2837 N 274.927 -0.932562 -1.27047 0
M  V30 2838 C 276.338 -0.619451 -1.76124 0
M  V30 2839 C 276.689 0.865397 -1.76083 0
M  V30 2840 O 275.814 1.67722 -1.36742 0
M  V30 2841 C 276.409 -1.11771 -3.19832 0
M  V30 2842 C 274.968 -0.855174 -3.66557 0
M  V30 2843 C 274.115 -1.27362 -2.46321 0
M  V30 2844 H 277.066 -1.11181 -1.13245 0
M  V30 2845 H 277.087 -0.46759 -3.77616 0
M  V30 2846 H 276.599 -2.19842 -3.1983 0
M  V30 2847 H 274.7 0.211524 -3.71999 0
M  V30 2848 H 274.813 -1.47613 -4.55793 0
M  V30 2849 H 273.177 -0.692119 -2.45116 0
M  V30 2850 H 273.96 -2.36307 -2.49025 0
M  V30 2851 N 276.405 1.4127 -0.698611 0
M  V30 2852 C 277.821 1.55241 -0.370462 0
M  V30 2853 C 278.021 1.67351 1.12231 0
M  V30 2854 O 277.077 1.65363 1.90818 0
M  V30 2855 C 278.39 2.78997 -1.12165 0
M  V30 2856 C 279.938 2.92797 -1.1063 0
M  V30 2857 C 280.413 4.19445 -1.8393 0
M  V30 2858 N 281.904 4.26409 -1.80914 0
M  V30 2859 C 282.639 5.23271 -2.34467 0
M  V30 2860 N 282.135 6.26145 -2.96504 0
M  V30 2861 N 283.928 5.15232 -2.24706 0
M  V30 2862 H 276.079 1.31654 -1.66676 0
M  V30 2863 H 278.342 0.635393 -0.703548 0
M  V30 2864 H 278.048 2.76268 -2.17644 0
M  V30 2865 H 277.922 3.70606 -0.702209 0
M  V30 2866 H 280.309 2.95039 -0.0597713 0
M  V30 2867 H 280.39 2.02353 -1.56483 0
M  V30 2868 H 280.034 4.17964 -2.88563 0
M  V30 2869 H 279.964 5.08866 -1.35509 0
M  V30 2870 H 282.455 3.527 -1.35687 0
M  V30 2871 H 282.768 6.96451 -3.34927 0
M  V30 2872 H 281.113 6.26638 -3.00583 0
M  V30 2873 H 284.304 4.33789 -1.7591 0
M  V30 2874 H 284.477 5.90552 -2.66745 0
M  V30 2875 N 277.883 0.443576 1.51229 0
M  V30 2876 C 279.131 -0.120557 2.0174 0
M  V30 2877 C 279.452 -1.42665 1.32935 0
M  V30 2878 O 278.722 -1.9028 0.465866 0
M  V30 2879 H 277.302 -0.0475426 0.745486 0
M  V30 2880 H 279.964 0.587711 1.85828 0
M  V30 2881 H 279.06 -0.291972 3.10731 0
M  V30 2882 N 279.361 -1.56624 0.175154 0
M  V30 2883 C 280.638 -1.88688 -0.515373 0
M  V30 2884 C 281.018 -1.08564 -1.81044 0
M  V30 2885 O 280.366 -0.180703 -2.27784 0
M  V30 2886 C 280.576 -3.40768 -0.753552 0
M  V30 2887 C 281.924 -4.10587 -1.08184 0
M  V30 2888 O 282.948 -3.46106 -0.841961 0
M  V30 2889 O 281.807 -5.24512 -1.53459 0
M  V30 2890 H 278.901 -0.78301 -0.26613 0
M  V30 2891 H 281.447 -1.68347 0.213877 0
M  V30 2892 H 280.219 -3.90965 0.161829 0
M  V30 2893 H 279.842 -3.66733 -1.53598 0
M  V30 2894 N 280.839 0.0985539 -1.57292 0
M  V30 2895 C 282.088 0.801358 -1.85098 0
M  V30 2896 C 282.401 1.80066 -0.763902 0
M  V30 2897 O 283.607 2.55112 -0.928981 0
M  V30 2898 C 282.063 1.47599 -3.28242 0
M  V30 2899 C 281.671 0.516624 -4.45011 0
M  V30 2900 C 283.415 2.16272 -3.65276 0
M  V30 2901 C 281.322 1.19564 -5.79188 0
M  V30 2902 H 280.252 0.303022 -0.69043 0
M  V30 2903 H 282.903 0.0542623 -1.8342 0
M  V30 2904 H 281.285 2.27042 -3.2445 0
M  V30 2905 H 282.459 -0.246065 -4.60143 0
M  V30 2906 H 280.774 -0.064227 -4.1635 0
M  V30 2907 H 283.371 2.67802 -4.62803 0
M  V30 2908 H 283.714 2.95009 -2.93727 0
M  V30 2909 H 284.247 1.43693 -3.70941 0
M  V30 2910 H 280.986 0.449157 -6.53959 0
M  V30 2911 H 280.506 1.92984 -5.67906 0
M  V30 2912 H 282.185 1.7231 -6.23633 0
M  V30 2913 N 282.317 1.53212 0.369288 0
M  V30 2914 C 283.564 1.69215 1.11232 0
M  V30 2915 C 283.892 0.442048 1.8941 0
M  V30 2916 O 283.147 -0.575944 1.87033 0
M  V30 2917 C 283.446 2.89101 2.10132 0
M  V30 2918 C 283.112 4.25758 1.48463 0
M  V30 2919 C 281.774 4.6292 1.31372 0
M  V30 2920 C 284.126 5.10757 1.03811 0
M  V30 2921 C 281.454 5.82722 0.68207 0
M  V30 2922 C 283.806 6.31201 0.420487 0
M  V30 2923 C 282.47 6.67079 0.237038 0
M  V30 2924 H 281.74 0.619201 0.407027 0
M  V30 2925 H 284.387 1.87391 0.394552 0
M  V30 2926 H 282.692 2.65421 2.88199 0
M  V30 2927 H 284.389 2.98676 2.6757 0
M  V30 2928 H 280.979 3.96494 1.62758 0
M  V30 2929 H 285.163 4.82599 1.1581 0
M  V30 2930 H 280.419 6.09113 0.528316 0
M  V30 2931 H 284.593 6.96368 0.0662874 0
M  V30 2932 H 282.22 7.59774 -0.254477 0
M  V30 2933 N 283.795 -0.628877 1.44509 0
M  V30 2934 C 284.725 -1.75187 1.54376 0
M  V30 2935 C 285.706 -1.65411 0.396618 0
M  V30 2936 O 286.891 -1.84137 0.617031 0
M  V30 2937 C 284.021 -3.13725 1.48976 0
M  V30 2938 C 282.975 -3.38291 2.62189 0
M  V30 2939 C 282.301 -4.76883 2.41841 0
M  V30 2940 C 283.601 -3.30632 4.04326 0
M  V30 2941 H 285.295 -1.67187 2.48373 0
M  V30 2942 H 282.841 -0.802909 1.19538 0
M  V30 2943 H 284.794 -3.92064 1.54478 0
M  V30 2944 H 283.518 -3.22515 0.514961 0
M  V30 2945 H 282.177 -2.62334 2.56079 0
M  V30 2946 H 281.825 -4.82378 1.42548 0
M  V30 2947 H 281.525 -4.94278 3.17747 0
M  V30 2948 H 283.049 -5.57449 2.49165 0
M  V30 2949 H 284.463 -3.98873 4.11793 0
M  V30 2950 H 282.86 -3.59561 4.80454 0
M  V30 2951 H 283.93 -2.28404 4.27738 0
M  V30 2952 N 285.273 -1.31445 -0.869486 0
M  V30 2953 C 286.684 -1.19042 -1.43826 0
M  V30 2954 C 287.035 0.202919 -1.95148 0
M  V30 2955 O 286.16 1.10071 -1.86315 0
M  V30 2956 C 286.755 -2.15499 -2.6143 0
M  V30 2957 C 285.314 -2.07028 -3.14351 0
M  V30 2958 C 284.461 -2.04701 -1.87063 0
M  V30 2959 H 287.412 -1.43489 -0.677984 0
M  V30 2960 H 287.433 -1.74488 -3.38134 0
M  V30 2961 H 286.945 -3.16899 -2.24046 0
M  V30 2962 H 285.046 -1.08825 -3.56354 0
M  V30 2963 H 285.159 -2.96157 -3.766 0
M  V30 2964 H 283.523 -1.49724 -2.06046 0
M  V30 2965 H 284.306 -3.07857 -1.51917 0
M  V30 2966 N 286.751 1.08385 -1.14413 0
M  V30 2967 C 287.979 1.84517 -0.936001 0
M  V30 2968 C 288.394 1.81626 0.515503 0
M  V30 2969 O 287.751 1.22008 1.35721 0
M  V30 2970 C 287.802 3.32049 -1.42918 0
M  V30 2971 O 287.523 3.34951 -2.82381 0
M  V30 2972 C 289.024 4.24986 -1.26103 0
M  V30 2973 H 286.244 0.582491 -0.333084 0
M  V30 2974 H 288.788 1.36885 -1.5193 0
M  V30 2975 H 286.943 3.7707 -0.888641 0
M  V30 2976 H 287.357 4.27048 -3.04517 0
M  V30 2977 H 288.831 5.26615 -1.6547 0
M  V30 2978 H 289.308 4.38726 -0.20392 0
M  V30 2979 H 289.914 3.85791 -1.79012 0
M  V30 2980 N 288.23 0.939286 1.26551 0
M  V30 2981 C 289.476 0.586715 1.94128 0
M  V30 2982 C 289.809 -0.8717 1.73537 0
M  V30 2983 O 289.084 -1.62339 1.07127 0
M  V30 2984 C 289.367 0.927497 3.4795 0
M  V30 2985 C 289.22 2.44052 3.77834 0
M  V30 2986 C 290.539 0.441569 4.37879 0
M  V30 2987 H 287.658 0.21463 0.705055 0
M  V30 2988 H 290.3 1.17316 1.49455 0
M  V30 2989 H 288.45 0.428431 3.8613 0
M  V30 2990 H 290.122 3.01216 3.4938 0
M  V30 2991 H 288.365 2.8848 3.23978 0
M  V30 2992 H 289.036 2.62947 4.85348 0
M  V30 2993 H 291.512 0.869448 4.06915 0
M  V30 2994 H 290.388 0.708856 5.44304 0
M  V30 2995 H 290.649 -0.658467 4.37169 0
M  V30 2996 N 289.708 -1.40897 0.706093 0
M  V30 2997 C 290.956 -2.00657 0.241054 0
M  V30 2998 C 291.277 -1.56241 -1.16678 0
M  V30 2999 O 290.547 -0.79765 -1.78926 0
M  V30 3000 H 289.127 -0.742018 0.0861308 0
M  V30 3001 H 291.789 -1.72372 0.909604 0
M  V30 3002 H 290.885 -3.10958 0.266705 0
M  V30 3003 N 291.186 -0.45159 -1.50991 0
M  V30 3004 C 292.136 0.370861 -2.24964 0
M  V30 3005 C 293.12 0.978074 -1.2776 0
M  V30 3006 O 294.312 0.893854 -1.52772 0
M  V30 3007 C 291.441 1.46344 -3.10545 0
M  V30 3008 C 290.527 0.864924 -4.15187 0
M  V30 3009 N 290.918 -0.00311354 -5.058 0
M  V30 3010 C 289.216 1.13099 -4.31422 0
M  V30 3011 C 289.917 -0.340772 -5.80701 0
M  V30 3012 N 288.893 0.279203 -5.42883 0
M  V30 3013 H 292.695 -0.298134 -2.92384 0
M  V30 3014 H 290.209 -0.264528 -1.60231 0
M  V30 3015 H 292.206 2.06565 -3.62128 0
M  V30 3016 H 290.866 2.13463 -2.4467 0
M  V30 3017 H 291.877 -0.37058 -5.16572 0
M  V30 3018 H 288.554 1.79861 -3.76771 0
M  V30 3019 H 289.944 -1.048 -6.63677 0
M  V30 3020 N 292.664 1.56529 -0.183458 0
M  V30 3021 C 293.912 1.96855 0.457452 0
M  V30 3022 C 294.233 1.07104 1.62953 0
M  V30 3023 O 293.503 0.139887 1.954 0
M  V30 3024 H 292.083 0.72693 0.171992 0
M  V30 3025 H 294.745 1.93056 -0.267476 0
M  V30 3026 H 293.841 3.01423 0.809368 0
M  V30 3027 N 294.142 -0.090211 1.57342 0
M  V30 3028 C 295.072 -1.10976 2.05443 0
M  V30 3029 C 296.053 -1.41482 0.944284 0
M  V30 3030 O 297.238 -1.51428 1.21586 0
M  V30 3031 C 294.368 -2.42831 2.48295 0
M  V30 3032 C 293.322 -2.26721 3.63018 0
M  V30 3033 C 292.648 -3.63796 3.91863 0
M  V30 3034 C 293.948 -1.7037 4.93732 0
M  V30 3035 H 295.642 -0.709564 2.9087 0
M  V30 3036 H 293.188 -0.339874 1.39932 0
M  V30 3037 H 295.141 -3.14431 2.80555 0
M  V30 3038 H 293.865 -2.84795 1.59873 0
M  V30 3039 H 292.524 -1.57565 3.31012 0
M  V30 3040 H 292.172 -4.03297 3.00601 0
M  V30 3041 H 291.872 -3.53861 4.69101 0
M  V30 3042 H 293.396 -4.36855 4.26603 0
M  V30 3043 H 294.81 -2.31816 5.24342 0
M  V30 3044 H 293.207 -1.71181 5.75167 0
M  V30 3045 H 294.277 -0.663542 4.80339 0
M  V30 3046 N 295.62 -1.53406 -0.361157 0
M  V30 3047 C 296.583 -1.79479 -1.42548 0
M  V30 3048 C 297.583 -0.665327 -1.4639 0
M  V30 3049 O 298.773 -0.933549 -1.47073 0
M  V30 3050 C 295.905 -1.92087 -2.8163 0
M  V30 3051 H 297.098 -2.74538 -1.20701 0
M  V30 3052 H 294.651 -1.4455 -0.594546 0
M  V30 3053 H 295.386 -0.991099 -3.08784 0
M  V30 3054 H 295.171 -2.74241 -2.80239 0
M  V30 3055 H 296.661 -2.13836 -3.58697 0
M  V30 3056 N 297.098 0.621204 -1.44841 0
M  V30 3057 C 298.345 1.38055 -1.48145 0
M  V30 3058 C 298.673 1.94143 -0.117867 0
M  V30 3059 O 297.928 1.74713 0.881694 0
M  V30 3060 C 298.227 2.55675 -2.4973 0
M  V30 3061 C 297.893 2.17817 -3.94799 0
M  V30 3062 C 296.555 2.07205 -4.34303 0
M  V30 3063 C 298.907 1.88065 -4.86087 0
M  V30 3064 C 296.235 1.65045 -5.63007 0
M  V30 3065 C 298.587 1.47394 -6.15189 0
M  V30 3066 C 297.251 1.35331 -6.53637 0
M  V30 3067 H 296.521 0.505181 -0.542101 0
M  V30 3068 H 299.168 0.703477 -1.78111 0
M  V30 3069 H 297.473 3.2866 -2.13284 0
M  V30 3070 H 299.17 3.13904 -2.4953 0
M  V30 3071 H 295.76 2.26998 -3.63552 0
M  V30 3072 H 299.944 1.95168 -4.56315 0
M  V30 3073 H 295.2 1.54317 -5.91605 0
M  V30 3074 H 299.374 1.23415 -6.85377 0
M  V30 3075 H 297.001 1.02435 -7.53267 0
M  V30 3076 N 298.576 1.31904 0.862503 0
M  V30 3077 C 299.825 1.21373 1.61094 0
M  V30 3078 C 300.138 -0.22504 1.94301 0
M  V30 3079 O 301.344 -0.452121 2.67709 0
M  V30 3080 C 299.8 2.12525 2.9045 0
M  V30 3081 C 299.408 3.61441 2.64697 0
M  V30 3082 C 301.152 2.10813 3.68454 0
M  V30 3083 C 299.059 4.44578 3.90006 0
M  V30 3084 H 297.989 0.450705 0.604468 0
M  V30 3085 H 300.64 1.56811 0.953027 0
M  V30 3086 H 299.022 1.69994 3.57656 0
M  V30 3087 H 300.196 4.12264 2.05851 0
M  V30 3088 H 298.511 3.65205 2.00036 0
M  V30 3089 H 301.108 2.70167 4.61426 0
M  V30 3090 H 301.451 1.09713 4.01583 0
M  V30 3091 H 301.984 2.51583 3.08141 0
M  V30 3092 H 298.723 5.46461 3.62023 0
M  V30 3093 H 298.243 3.98508 4.48276 0
M  V30 3094 H 299.922 4.57176 4.5782 0
M  V30 3095 N 300.054 -1.07777 1.14986 0
M  V30 3096 C 300.964 -2.18404 0.856546 0
M  V30 3097 C 301.98 -1.73211 -0.165485 0
M  V30 3098 O 303.156 -2.01399 0.00755219 0
M  V30 3099 C 300.221 -3.44977 0.34526 0
M  V30 3100 C 299.282 -4.0476 1.43065 0
M  V30 3101 C 298.515 -5.25291 0.943663 0
M  V30 3102 O 298.738 -5.70004 -0.212426 0
M  V30 3103 O 297.672 -5.76638 1.72547 0
M  V30 3104 H 301.498 -2.45978 1.78125 0
M  V30 3105 H 299.083 -1.17033 0.928631 0
M  V30 3106 H 300.965 -4.21348 0.0663671 0
M  V30 3107 H 299.64 -3.18965 -0.551631 0
M  V30 3108 H 298.547 -3.29949 1.76309 0
M  V30 3109 H 299.88 -4.35035 2.30229 0
M  V30 3110 N 301.532 -0.945985 -1.26051 0
M  V30 3111 C 302.464 -0.416662 -2.25381 0
M  V30 3112 C 303.477 0.462712 -1.56086 0
M  V30 3113 O 304.666 0.272383 -1.7641 0
M  V30 3114 C 301.766 0.419812 -3.3629 0
M  V30 3115 C 300.939 -0.444531 -4.35135 0
M  V30 3116 C 299.998 0.332305 -5.2515 0
M  V30 3117 O 299.024 -0.266324 -5.68577 0
M  V30 3118 N 300.226 1.62763 -5.57215 0
M  V30 3119 H 302.991 -1.27059 -2.71433 0
M  V30 3120 H 300.552 -0.815392 -1.39868 0
M  V30 3121 H 302.544 0.947013 -3.93464 0
M  V30 3122 H 301.114 1.17456 -2.89694 0
M  V30 3123 H 300.334 -1.15291 -3.76964 0
M  V30 3124 H 301.622 -1.03478 -4.98166 0
M  V30 3125 H 301.02 2.13603 -5.23823 0
M  V30 3126 H 299.577 2.10097 -6.17011 0
M  V30 3127 N 303.011 1.40521 -0.713556 0
M  V30 3128 C 303.941 2.33381 -0.0743864 0
M  V30 3129 C 304.922 1.52784 0.747735 0
M  V30 3130 O 306.107 1.81258 0.697071 0
M  V30 3131 C 303.237 3.36748 0.849598 0
M  V30 3132 C 302.191 4.27793 0.133247 0
M  V30 3133 C 301.517 5.21679 1.17281 0
M  V30 3134 C 302.817 5.12415 -1.01134 0
M  V30 3135 H 304.511 2.87081 -0.850007 0
M  V30 3136 H 302.057 1.38034 -0.410201 0
M  V30 3137 H 304.01 4.00648 1.30612 0
M  V30 3138 H 302.734 2.81439 1.65709 0
M  V30 3139 H 301.393 3.65342 -0.303426 0
M  V30 3140 H 301.041 4.62677 1.9733 0
M  V30 3141 H 300.741 5.83435 0.698397 0
M  V30 3142 H 302.265 5.88456 1.62947 0
M  V30 3143 H 303.679 5.69781 -0.634274 0
M  V30 3144 H 302.076 5.83203 -1.41399 0
M  V30 3145 H 303.146 4.48514 -1.84292 0
M  V30 3146 N 304.489 0.459591 1.5075 0
M  V30 3147 C 305.399 -0.34613 2.32033 0
M  V30 3148 C 306.415 -1.00686 1.41909 0
M  V30 3149 O 307.591 -0.997361 1.7497 0
M  V30 3150 C 304.656 -1.42029 3.16273 0
M  V30 3151 C 303.717 -0.777362 4.22203 0
M  V30 3152 C 302.95 -1.80034 5.02418 0
M  V30 3153 O 303.173 -3.02544 4.83553 0
M  V30 3154 O 302.107 -1.37853 5.85901 0
M  V30 3155 H 305.933 0.318054 3.0203 0
M  V30 3156 H 303.518 0.221663 1.47746 0
M  V30 3157 H 305.4 -2.04275 3.68578 0
M  V30 3158 H 304.075 -2.06815 2.49016 0
M  V30 3159 H 302.982 -0.116256 3.73919 0
M  V30 3160 H 304.315 -0.172634 4.91897 0
M  V30 3161 N 305.967 -1.56429 0.191757 0
M  V30 3162 C 306.917 -2.15548 -0.743184 0
M  V30 3163 C 307.901 -1.09531 -1.17863 0
M  V30 3164 O 309.093 -1.35602 -1.13759 0
M  V30 3165 C 306.222 -2.81577 -1.96391 0
M  V30 3166 C 305.308 -3.9478 -1.54951 0
M  V30 3167 N 305.699 -4.98677 -0.845876 0
M  V30 3168 C 303.997 -4.06319 -1.83905 0
M  V30 3169 C 304.698 -5.78183 -0.638724 0
M  V30 3170 N 303.674 -5.30495 -1.18643 0
M  V30 3171 H 307.476 -2.9324 -0.196839 0
M  V30 3172 H 304.99 -1.62398 -0.0081603 0
M  V30 3173 H 306.987 -3.22321 -2.64415 0
M  V30 3174 H 305.647 -2.05371 -2.51501 0
M  V30 3175 H 306.658 -5.15464 -0.501704 0
M  V30 3176 H 303.335 -3.41238 -2.40548 0
M  V30 3177 H 304.725 -6.71851 -0.0807929 0
M  V30 3178 N 307.445 0.0818655 -1.57387 0
M  V30 3179 C 308.693 0.781368 -1.86384 0
M  V30 3180 C 309.014 1.78618 -0.782342 0
M  V30 3181 O 308.284 1.94976 0.190061 0
M  V30 3182 H 306.864 0.291562 -0.687751 0
M  V30 3183 H 309.526 0.060348 -1.94807 0
M  V30 3184 H 308.622 1.3038 -2.83562 0
M  V30 3185 N 308.923 1.53595 0.353017 0
M  V30 3186 C 310.2 1.61002 1.11075 0
M  V30 3187 C 310.58 0.425356 2.0677 0
M  V30 3188 O 309.928 -0.583267 2.2093 0
M  V30 3189 C 310.138 2.96631 1.83877 0
M  V30 3190 C 311.486 3.51653 2.37961 0
M  V30 3191 O 312.51 2.98743 1.93987 0
M  V30 3192 O 311.369 4.44177 3.18386 0
M  V30 3193 H 308.463 0.650825 0.510251 0
M  V30 3194 H 311.009 1.6594 0.35527 0
M  V30 3195 H 309.781 3.74293 1.14108 0
M  V30 3196 H 309.404 2.95242 2.66304 0
M  V30 3197 N 310.401 -0.613514 1.45168 0
M  V30 3198 C 311.65 -1.36874 1.4815 0
M  V30 3199 C 311.963 -1.952 0.124982 0
M  V30 3200 O 313.169 -2.71481 0.0324176 0
M  V30 3201 C 311.625 -2.47905 2.60904 0
M  V30 3202 C 311.233 -1.96016 4.02842 0
M  V30 3203 C 312.977 -3.24965 2.73126 0
M  V30 3204 C 310.884 -3.04494 5.06988 0
M  V30 3205 H 309.814 -0.514428 0.551253 0
M  V30 3206 H 312.465 -0.658182 1.7129 0
M  V30 3207 H 310.847 -3.21618 2.31037 0
M  V30 3208 H 312.021 -1.29051 4.4236 0
M  V30 3209 H 310.336 -1.31719 3.95018 0
M  V30 3210 H 312.933 -4.05865 3.48106 0
M  V30 3211 H 313.276 -3.75588 1.79553 0
M  V30 3212 H 313.809 -2.5835 3.0249 0
M  V30 3213 H 310.548 -2.58795 6.0225 0
M  V30 3214 H 310.068 -3.70044 4.72046 0
M  V30 3215 H 311.747 -3.68976 5.31475 0
M  V30 3216 N 311.879 -1.3236 -0.855495 0
M  V30 3217 C 313.125 -1.23054 -1.612 0
M  V30 3218 C 313.458 0.207404 -1.93089 0
M  V30 3219 O 312.733 1.14432 -1.57275 0
M  V30 3220 C 313.016 -2.08937 -2.93287 0
M  V30 3221 C 312.869 -3.61105 -2.68185 0
M  V30 3222 C 314.188 -1.94986 -3.94549 0
M  V30 3223 H 311.307 -0.448364 -0.584926 0
M  V30 3224 H 313.949 -1.62297 -0.987917 0
M  V30 3225 H 312.099 -1.75599 -3.46551 0
M  V30 3226 H 313.771 -4.04652 -2.21483 0
M  V30 3227 H 312.014 -3.83813 -2.02164 0
M  V30 3228 H 312.685 -4.16522 -3.62234 0
M  V30 3229 H 315.161 -2.24189 -3.5054 0
M  V30 3230 H 314.037 -2.57356 -4.84829 0
M  V30 3231 H 314.298 -0.917263 -4.3248 0
M  V30 3232 N 313.357 1.07166 -1.15556 0
M  V30 3233 C 314.605 1.79443 -0.929764 0
M  V30 3234 C 314.926 1.87246 0.544414 0
M  V30 3235 O 314.196 1.37473 1.39564 0
M  V30 3236 H 312.776 0.664625 -0.341003 0
M  V30 3237 H 315.438 1.29499 -1.45657 0
M  V30 3238 H 314.534 2.81832 -1.34079 0
M  V30 3239 N 314.835 0.952656 1.25548 0
M  V30 3240 C 315.765 0.489287 2.28316 0
M  V30 3241 C 316.746 -0.463359 1.63667 0
M  V30 3242 O 317.931 -0.36274 1.90782 0
M  V30 3243 C 315.061 -0.235603 3.465 0
M  V30 3244 C 314.015 0.631593 4.23314 0
M  V30 3245 C 313.341 -0.223923 5.34231 0
M  V30 3246 C 314.641 1.90871 4.86174 0
M  V30 3247 H 316.335 1.34822 2.67326 0
M  V30 3248 H 313.881 0.649728 1.28509 0
M  V30 3249 H 315.834 -0.570882 4.17515 0
M  V30 3250 H 314.558 -1.12877 3.06474 0
M  V30 3251 H 313.217 0.949929 3.54079 0
M  V30 3252 H 312.865 -1.11678 4.90446 0
M  V30 3253 H 312.565 0.35299 5.86539 0
M  V30 3254 H 314.089 -0.554214 6.0808 0
M  V30 3255 H 315.503 1.63997 5.49343 0
M  V30 3256 H 313.9 2.43112 5.4865 0
M  V30 3257 H 314.97 2.61304 4.08471 0
M  V30 3258 N 316.313 -1.40141 0.720998 0
M  V30 3259 C 317.261 -2.3252 0.0608547 0
M  V30 3260 C 318.255 -1.52326 -0.741152 0
M  V30 3261 O 319.461 -1.68089 -0.643911 0
M  V30 3262 H 315.836 -0.751999 0.000876664 0
M  V30 3263 H 317.807 -2.8584 0.856614 0
M  V30 3264 C 316.556 -3.37331 -0.842809 0
M  V30 3265 H 315.879 -3.99108 -0.235084 0
M  V30 3266 H 317.319 -4.04452 -1.27257 0
M  V30 3267 C 315.778 -2.73246 -1.97074 0
M  V30 3268 O 316.308 -2.59998 -3.06209 0
M  V30 3269 N 314.514 -2.31547 -1.75597 0
M  V30 3270 H 314.061 -2.42522 -0.868368 0
M  V30 3271 H 314.019 -1.89007 -2.51244 0
M  V30 3272 N 317.792 -0.46758 -1.50504 0
M  V30 3273 C 319.203 -0.0116166 -1.86696 0
M  V30 3274 C 319.554 1.39202 -1.38265 0
M  V30 3275 O 318.679 2.0313 -0.746132 0
M  V30 3276 C 319.274 -0.0143044 -3.38797 0
M  V30 3277 C 317.833 0.386175 -3.74414 0
M  V30 3278 C 316.98 -0.401287 -2.74381 0
M  V30 3279 H 319.931 -0.682022 -1.43297 0
M  V30 3280 H 319.952 0.788641 -3.72237 0
M  V30 3281 H 319.464 -1.03602 -3.74016 0
M  V30 3282 H 317.565 1.41237 -3.44794 0
M  V30 3283 H 317.678 0.0899596 -4.79016 0
M  V30 3284 H 316.042 0.144536 -2.5429 0
M  V30 3285 H 316.825 -1.42244 -3.12444 0
M  V30 3286 N 319.27 1.56325 -0.20005 0
M  V30 3287 C 320.18 2.22931 0.730668 0
M  V30 3288 C 321.196 1.22997 1.23076 0
M  V30 3289 O 322.372 1.55748 1.27689 0
M  V30 3290 C 319.437 2.87948 1.93098 0
M  V30 3291 C 318.498 4.03166 1.47497 0
M  V30 3292 C 317.731 4.65073 2.61807 0
M  V30 3293 O 317.954 4.25913 3.79413 0
M  V30 3294 O 316.888 5.54452 2.34237 0
M  V30 3295 H 320.714 3.03084 0.193391 0
M  V30 3296 H 318.299 1.49371 0.0294621 0
M  V30 3297 H 320.181 3.29063 2.6324 0
M  V30 3298 H 318.856 2.10771 2.45677 0
M  V30 3299 H 317.763 3.66664 0.742201 0
M  V30 3300 H 319.096 4.82022 0.995796 0
M  V30 3301 N 320.748 -0.0735177 1.57428 0
M  V30 3302 C 321.976 -0.785969 1.9139 0
M  V30 3303 C 322.391 -1.71207 0.795847 0
M  V30 3304 O 321.748 -1.81033 -0.230915 0
M  V30 3305 C 321.799 -1.58107 3.25091 0
M  V30 3306 O 321.52 -0.6922 4.32597 0
M  V30 3307 C 323.021 -2.39467 3.73055 0
M  V30 3308 H 320.241 -0.223558 0.632663 0
M  V30 3309 H 322.785 -0.044302 2.04452 0
M  V30 3310 H 320.94 -2.27503 3.13562 0
M  V30 3311 H 321.354 -1.24504 5.09508 0
M  V30 3312 H 322.828 -2.90716 4.69242 0
M  V30 3313 H 323.305 -3.18913 3.01979 0
M  V30 3314 H 323.911 -1.7523 3.87523 0
M  V30 3315 N 322.226 -1.5378 -0.344866 0
M  V30 3316 C 323.474 -1.70625 -1.08311 0
M  V30 3317 C 323.795 -0.471447 -1.89215 0
M  V30 3318 O 323.065 0.514616 -1.8902 0
M  V30 3319 H 321.645 -0.629058 -0.402859 0
M  V30 3320 H 324.307 -1.9103 -0.386459 0
M  V30 3321 H 323.403 -2.57656 -1.76124 0
M  V30 3322 N 323.704 0.605807 -1.45491 0
M  V30 3323 C 324.654 1.71074 -1.50724 0
M  V30 3324 C 325.638 1.5658 -0.37033 0
M  V30 3325 O 326.83 1.65887 -0.617299 0
M  V30 3326 C 323.959 3.0983 -1.47852 0
M  V30 3327 C 323.045 3.29704 -2.66751 0
M  V30 3328 N 323.436 3.19831 -3.91844 0
M  V30 3329 C 321.734 3.60579 -2.62486 0
M  V30 3330 C 322.435 3.41083 -4.71208 0
M  V30 3331 N 321.411 3.65157 -4.02693 0
M  V30 3332 H 325.213 1.61937 -2.45263 0
M  V30 3333 H 322.727 0.80912 -1.40808 0
M  V30 3334 H 324.724 3.89101 -1.49686 0
M  V30 3335 H 323.384 3.20115 -0.543714 0
M  V30 3336 H 324.395 2.98194 -4.23439 0
M  V30 3337 H 321.072 3.7769 -1.77922 0
M  V30 3338 H 322.462 3.38828 -5.80211 0
M  V30 3339 N 325.182 1.32811 0.848464 0
M  V30 3340 C 326.092 1.24278 1.98978 0
M  V30 3341 C 327.108 0.155176 1.73307 0
M  V30 3342 O 328.284 0.376999 1.9784 0
M  V30 3343 C 325.349 0.972444 3.32783 0
M  V30 3344 C 324.41 2.14911 3.71634 0
M  V30 3345 C 323.643 1.89157 4.99054 0
M  V30 3346 O 323.866 0.837165 5.64223 0
M  V30 3347 O 322.8 2.75433 5.35183 0
M  V30 3348 H 326.626 2.20238 2.09115 0
M  V30 3349 H 324.211 1.12762 0.980052 0
M  V30 3350 H 326.093 0.838432 4.12975 0
M  V30 3351 H 324.768 0.043051 3.23671 0
M  V30 3352 H 323.675 2.33862 2.91992 0
M  V30 3353 H 325.008 3.06151 3.85399 0
M  V30 3354 N 326.66 -1.06551 1.16123 0
M  V30 3355 C 327.592 -2.13908 0.823171 0
M  V30 3356 C 328.605 -1.61926 -0.16843 0
M  V30 3357 O 329.794 -1.78412 0.055962 0
M  V30 3358 C 326.894 -3.38283 0.204424 0
M  V30 3359 C 326.067 -4.19589 1.23548 0
M  V30 3360 C 325.126 -5.2233 0.637011 0
M  V30 3361 O 324.152 -5.54034 1.30516 0
M  V30 3362 N 325.354 -5.77621 -0.577474 0
M  V30 3363 H 328.119 -2.43508 1.74711 0
M  V30 3364 H 325.68 -1.2253 1.05821 0
M  V30 3365 H 327.672 -4.0416 -0.208909 0
M  V30 3366 H 326.242 -3.06329 -0.623012 0
M  V30 3367 H 325.462 -3.49406 1.82507 0
M  V30 3368 H 326.75 -4.70718 1.93137 0
M  V30 3369 H 326.148 -5.54125 -1.13853 0
M  V30 3370 H 324.705 -6.45087 -0.933053 0
M  V30 3371 N 328.138 -0.959301 -1.25041 0
M  V30 3372 C 329.071 -0.427418 -2.24161 0
M  V30 3373 C 330.049 0.493837 -1.54919 0
M  V30 3374 O 331.233 0.427144 -1.83597 0
M  V30 3375 C 328.36 0.383893 -3.36517 0
M  V30 3376 C 327.406 -0.478431 -4.23808 0
M  V30 3377 S 328.239 -1.91353 -5.00144 0
M  V30 3378 C 329.395 -1.11077 -6.15965 0
M  V30 3379 H 329.628 -1.26743 -2.6893 0
M  V30 3380 H 327.161 -0.763714 -1.34189 0
M  V30 3381 H 329.119 0.846039 -4.01687 0
M  V30 3382 H 327.78 1.19878 -2.90324 0
M  V30 3383 H 326.973 0.14406 -5.03794 0
M  V30 3384 H 326.575 -0.87597 -3.63597 0
M  V30 3385 H 328.867 -0.361699 -6.76534 0
M  V30 3386 H 329.81 -1.88472 -6.82557 0
M  V30 3387 H 330.218 -0.638843 -5.60873 0
M  V30 3388 N 329.616 1.39756 -0.72842 0
M  V30 3389 C 330.579 2.29012 -0.0927297 0
M  V30 3390 C 331.579 1.45992 0.674025 0
M  V30 3391 O 332.769 1.66749 0.50402 0
M  V30 3392 C 329.901 3.29396 0.878137 0
M  V30 3393 H 331.094 2.86729 -0.879011 0
M  V30 3394 H 328.647 1.48293 -0.493847 0
M  V30 3395 H 329.382 2.76722 1.69101 0
M  V30 3396 H 329.167 3.907 0.331051 0
M  V30 3397 H 330.657 3.96199 1.3197 0
M  V30 3398 N 331.094 0.475555 1.50254 0
M  V30 3399 C 332.342 -0.077738 2.0195 0
M  V30 3400 C 332.663 -1.39813 1.35931 0
M  V30 3401 O 331.933 -1.89249 0.506123 0
M  V30 3402 H 330.513 -0.031719 0.746326 0
M  V30 3403 H 333.175 0.626995 1.84539 0
M  V30 3404 H 332.271 -0.225995 3.11281 0
M  V30 3405 N 332.573 -1.56217 0.208337 0
M  V30 3406 C 333.503 -2.22694 -0.702116 0
M  V30 3407 C 334.484 -1.19432 -1.2112 0
M  V30 3408 O 335.669 -1.47978 -1.25762 0
M  V30 3409 C 332.799 -2.8966 -1.9161 0
M  V30 3410 C 331.753 -3.9928 -1.5414 0
M  V30 3411 C 331.079 -4.53476 -2.83308 0
M  V30 3412 C 332.379 -5.17012 -0.741339 0
M  V30 3413 H 334.073 -2.99034 -0.147898 0
M  V30 3414 H 331.619 -1.43831 -0.0696951 0
M  V30 3415 H 333.572 -3.34852 -2.55836 0
M  V30 3416 H 332.296 -2.10746 -2.49507 0
M  V30 3417 H 330.955 -3.54799 -0.922668 0
M  V30 3418 H 330.603 -3.71308 -3.39322 0
M  V30 3419 H 330.303 -5.27451 -2.58976 0
M  V30 3420 H 331.827 -5.01378 -3.485 0
M  V30 3421 H 333.241 -5.58667 -1.28699 0
M  V30 3422 H 331.638 -5.97137 -0.595627 0
M  V30 3423 H 332.708 -4.8423 0.254851 0
M  V30 3424 N 334.051 0.0651679 -1.57465 0
M  V30 3425 C 334.999 1.09542 -2.05191 0
M  V30 3426 C 335.993 1.39675 -0.958509 0
M  V30 3427 O 337.199 1.39003 -1.14359 0
M  V30 3428 H 333.574 0.370623 -0.654326 0
M  V30 3429 H 335.545 0.666802 -2.90854 0
M  V30 3430 C 334.294 2.39881 -2.51699 0
M  V30 3431 H 333.617 2.17547 -3.3543 0
M  V30 3432 H 335.057 3.104 -2.88839 0
M  V30 3433 C 333.516 3.0631 -1.40271 0
M  V30 3434 O 334.046 3.94664 -0.748523 0
M  V30 3435 N 332.252 2.67041 -1.14618 0
M  V30 3436 H 331.799 1.95281 -1.67997 0
M  V30 3437 H 331.757 3.1181 -0.402688 0
M  V30 3438 N 335.529 1.53961 0.336706 0
M  V30 3439 C 336.776 1.71536 1.07618 0
M  V30 3440 C 337.104 0.482125 1.8843 0
M  V30 3441 O 336.359 -0.536142 1.88213 0
M  V30 3442 C 336.658 2.93493 2.03953 0
M  V30 3443 C 336.324 4.28811 1.39399 0
M  V30 3444 C 334.986 4.65602 1.21523 0
M  V30 3445 C 337.338 5.12844 0.929541 0
M  V30 3446 C 334.666 5.84037 0.558312 0
M  V30 3447 C 337.018 6.31951 0.286505 0
M  V30 3448 C 335.682 6.67432 0.0954869 0
M  V30 3449 H 334.952 0.627696 0.393801 0
M  V30 3450 H 337.599 1.88186 0.354715 0
M  V30 3451 H 335.904 2.71475 2.82504 0
M  V30 3452 H 337.601 3.04285 2.61174 0
M  V30 3453 H 334.191 3.99858 1.54311 0
M  V30 3454 H 338.375 4.84947 1.05548 0
M  V30 3455 H 333.631 6.10097 0.398995 0
M  V30 3456 H 337.805 6.96352 -0.0814376 0
M  V30 3457 H 335.432 7.59063 -0.415579 0
M  V30 3458 N 337.007 -0.598083 1.45811 0
M  V30 3459 C 338.235 -1.38322 1.53866 0
M  V30 3460 C 338.65 -1.87992 0.174479 0
M  V30 3461 O 338.007 -1.62756 -0.825627 0
M  V30 3462 C 338.058 -2.58125 2.53089 0
M  V30 3463 O 337.779 -2.10516 3.84206 0
M  V30 3464 C 339.28 -3.50869 2.70935 0
M  V30 3465 H 336.5 -0.423093 0.520801 0
M  V30 3466 H 339.044 -0.728527 1.91083 0
M  V30 3467 H 337.199 -3.19615 2.18917 0
M  V30 3468 H 337.613 -2.88425 4.38077 0
M  V30 3469 H 339.087 -4.31451 3.44317 0
M  V30 3470 H 339.564 -4.01822 1.77301 0
M  V30 3471 H 340.17 -2.95225 3.06141 0
M  V30 3472 N 338.485 -1.33259 -0.841409 0
M  V30 3473 C 339.435 -1.19872 -1.93945 0
M  V30 3474 C 340.419 -0.102269 -1.60575 0
M  V30 3475 O 341.611 -0.330114 -1.73894 0
M  V30 3476 C 338.74 -0.937517 -3.30251 0
M  V30 3477 C 337.826 -2.07629 -3.69799 0
M  V30 3478 N 338.217 -3.32604 -3.81062 0
M  V30 3479 C 336.515 -1.98242 -3.9952 0
M  V30 3480 C 337.216 -4.07275 -4.15333 0
M  V30 3481 N 336.192 -3.35691 -4.27566 0
M  V30 3482 H 339.994 -2.14604 -2.00805 0
M  V30 3483 H 337.508 -1.2523 -1.03398 0
M  V30 3484 H 339.505 -0.822545 -4.08705 0
M  V30 3485 H 338.165 0.00128798 -3.247 0
M  V30 3486 H 339.176 -3.67382 -3.65035 0
M  V30 3487 H 335.853 -1.12005 -4.02195 0
M  V30 3488 H 337.243 -5.1511 -4.31406 0
M  V30 3489 N 339.963 1.05934 -1.16686 0
M  V30 3490 C 341.211 1.78447 -0.948744 0
M  V30 3491 C 341.532 1.87813 0.524523 0
M  V30 3492 O 340.802 1.38945 1.38098 0
M  V30 3493 H 339.382 0.660971 -0.348033 0
M  V30 3494 H 342.044 1.27947 -1.47022 0
M  V30 3495 H 341.14 2.80394 -1.37061 0
M  V30 3496 N 341.441 0.965919 1.2453 0
M  V30 3497 C 342.69 0.622437 1.91856 0
M  V30 3498 C 343.003 -0.846006 1.76358 0
M  V30 3499 O 344.209 -1.29993 2.38357 0
M  V30 3500 C 342.665 1.0626 3.43856 0
M  V30 3501 C 342.273 2.55437 3.68043 0
M  V30 3502 C 344.017 0.792183 4.17043 0
M  V30 3503 C 341.924 2.93196 5.13605 0
M  V30 3504 H 340.854 0.229092 0.718354 0
M  V30 3505 H 343.505 1.17189 1.41206 0
M  V30 3506 H 341.887 0.441476 3.93531 0
M  V30 3507 H 343.061 3.22665 3.28974 0
M  V30 3508 H 341.376 2.8007 3.08139 0
M  V30 3509 H 343.973 1.05031 5.24283 0
M  V30 3510 H 344.316 -0.271584 4.15413 0
M  V30 3511 H 344.849 1.37419 3.73311 0
M  V30 3512 H 341.588 3.98636 5.20355 0
M  V30 3513 H 341.108 2.30651 5.53679 0
M  V30 3514 H 342.787 2.83004 5.81823 0
M  V30 3515 N 342.919 -1.39368 0.735821 0
M  V30 3516 C 343.882 -2.2896 0.104874 0
M  V30 3517 C 344.882 -1.46347 -0.666274 0
M  V30 3518 O 346.072 -1.67014 -0.49517 0
M  V30 3519 C 343.204 -3.29857 -0.860656 0
M  V30 3520 H 344.397 -2.86259 0.894205 0
M  V30 3521 H 341.95 -1.48029 0.501704 0
M  V30 3522 H 342.685 -2.77615 -1.67631 0
M  V30 3523 H 342.47 -3.9087 -0.310327 0
M  V30 3524 H 343.96 -3.96893 -1.29867 0
M  V30 3525 N 344.397 -0.483516 -1.5 0
M  V30 3526 C 345.329 0.340634 -2.26655 0
M  V30 3527 C 346.342 0.946152 -1.32483 0
M  V30 3528 O 347.531 0.832453 -1.579 0
M  V30 3529 C 344.631 1.4929 -3.04246 0
M  V30 3530 C 343.804 0.997903 -4.25865 0
M  V30 3531 C 342.863 2.02569 -4.85646 0
M  V30 3532 O 341.889 1.60128 -5.46212 0
M  V30 3533 N 343.091 3.3548 -4.73744 0
M  V30 3534 H 345.856 -0.316577 -2.98023 0
M  V30 3535 H 343.417 -0.315024 -1.58806 0
M  V30 3536 H 345.409 2.17766 -3.41116 0
M  V30 3537 H 343.979 2.05458 -2.35597 0
M  V30 3538 H 343.199 0.138617 -3.93956 0
M  V30 3539 H 344.487 0.645305 -5.04691 0
M  V30 3540 H 343.885 3.72661 -4.25605 0
M  V30 3541 H 342.442 3.99718 -5.14848 0
M  V30 3542 N 345.875 1.56104 -0.216619 0
M  V30 3543 C 346.838 2.18819 0.681962 0
M  V30 3544 C 347.838 1.14866 1.12528 0
M  V30 3545 O 349.028 1.40128 1.03488 0
M  V30 3546 C 346.16 2.80756 1.93362 0
M  V30 3547 H 347.353 2.99595 0.135254 0
M  V30 3548 H 344.906 1.56265 0.0330003 0
M  V30 3549 H 345.641 2.03837 2.52232 0
M  V30 3550 H 345.426 3.56876 1.62426 0
M  V30 3551 H 346.916 3.28844 2.57393 0
M  V30 3552 N 347.353 -0.0568162 1.57498 0
M  V30 3553 C 348.283 -1.06593 2.0775 0
M  V30 3554 C 349.264 -1.39448 0.974082 0
M  V30 3555 O 350.449 -1.48815 1.24771 0
M  V30 3556 C 347.579 -2.37509 2.5339 0
M  V30 3557 C 346.533 -2.1897 3.67745 0
M  V30 3558 C 345.859 -3.55402 3.99492 0
M  V30 3559 C 347.159 -1.59859 4.97235 0
M  V30 3560 H 348.853 -0.647706 2.9231 0
M  V30 3561 H 346.399 -0.310116 1.40621 0
M  V30 3562 H 348.352 -3.08409 2.87162 0
M  V30 3563 H 347.076 -2.8134 1.65878 0
M  V30 3564 H 345.735 -1.50508 3.3428 0
M  V30 3565 H 345.383 -3.9683 3.09088 0
M  V30 3566 H 345.083 -3.43831 4.76502 0
M  V30 3567 H 346.607 -4.27708 4.35773 0
M  V30 3568 H 348.021 -2.20642 5.29141 0
M  V30 3569 H 346.418 -1.58942 5.78669 0
M  V30 3570 H 347.488 -0.561506 4.81638 0
M  V30 3571 N 348.832 -1.54138 -0.328536 0
M  V30 3572 C 350.078 -1.73297 -1.06488 0
M  V30 3573 C 350.433 -0.497958 -1.85844 0
M  V30 3574 O 349.726 0.509591 -1.84699 0
M  V30 3575 C 349.92 -2.9457 -2.02393 0
M  V30 3576 C 349.749 -4.29747 -1.32467 0
M  V30 3577 C 348.519 -4.93987 -1.06324 0
M  V30 3578 C 350.717 -5.08903 -0.743137 0
M  V30 3579 N 348.699 -6.13005 -0.331359 0
M  V30 3580 C 350.07 -6.19836 -0.142602 0
M  V30 3581 C 352.125 -4.93699 -0.64546 0
M  V30 3582 C 350.828 -7.17224 0.546125 0
M  V30 3583 C 352.854 -5.91393 0.0295558 0
M  V30 3584 C 352.216 -7.01674 0.619056 0
M  V30 3585 H 348.315 -0.687017 -0.373539 0
M  V30 3586 H 350.899 -1.91589 -0.346659 0
M  V30 3587 H 349.07 -2.77752 -2.71493 0
M  V30 3588 H 350.802 -3.0238 -2.68977 0
M  V30 3589 H 347.557 -4.53824 -1.35428 0
M  V30 3590 H 347.981 -6.76997 0.0202939 0
M  V30 3591 H 352.623 -4.08589 -1.08695 0
M  V30 3592 H 350.341 -8.01896 0.999459 0
M  V30 3593 H 353.927 -5.81706 0.104705 0
M  V30 3594 H 352.807 -7.75971 1.13309 0
M  V30 3595 N 350.31 0.590341 -1.46126 0
M  V30 3596 C 351.273 1.68194 -1.55703 0
M  V30 3597 C 352.273 1.54808 -0.434868 0
M  V30 3598 O 353.463 1.59564 -0.698928 0
M  V30 3599 C 350.595 3.07575 -1.47005 0
M  V30 3600 H 351.788 1.61064 -2.52979 0
M  V30 3601 H 349.341 0.807541 -1.33823 0
M  V30 3602 H 350.076 3.20268 -0.509785 0
M  V30 3603 H 349.861 3.187 -2.28414 0
M  V30 3604 H 351.351 3.87055 -1.56776 0
M  V30 3605 N 351.788 1.33704 0.83433 0
M  V30 3606 C 352.698 1.26382 1.97648 0
M  V30 3607 C 353.714 0.173548 1.73132 0
M  V30 3608 O 354.89 0.397962 1.97429 0
M  V30 3609 C 351.955 1.00769 3.31733 0
M  V30 3610 C 351.016 2.1884 3.69334 0
M  V30 3611 C 350.249 1.9444 4.9702 0
M  V30 3612 O 350.472 0.896961 5.63303 0
M  V30 3613 O 349.406 2.81093 5.32231 0
M  V30 3614 H 353.232 2.22444 2.06767 0
M  V30 3615 H 350.817 1.13795 0.968037 0
M  V30 3616 H 352.699 0.882186 4.12062 0
M  V30 3617 H 351.374 0.0773783 3.23608 0
M  V30 3618 H 350.281 2.36946 2.89495 0
M  V30 3619 H 351.614 3.10221 3.82131 0
M  V30 3620 N 353.266 -1.05314 1.17247 0
M  V30 3621 C 354.213 -2.13031 0.888058 0
M  V30 3622 C 355.183 -1.65253 -0.167537 0
M  V30 3623 O 356.368 -1.90775 -0.0305974 0
M  V30 3624 C 353.508 -3.42702 0.406147 0
M  V30 3625 C 352.621 -4.04161 1.52572 0
M  V30 3626 C 351.756 -5.21744 0.997808 0
M  V30 3627 C 350.795 -5.75207 2.09291 0
M  V30 3628 N 349.932 -6.84094 1.57986 0
M  V30 3629 H 354.772 -2.36698 1.81048 0
M  V30 3630 H 352.309 -1.16121 0.903013 0
M  V30 3631 H 354.267 -4.17059 0.108305 0
M  V30 3632 H 352.897 -3.19222 -0.479313 0
M  V30 3633 H 351.949 -3.27253 1.93931 0
M  V30 3634 H 353.261 -4.39881 2.35172 0
M  V30 3635 H 352.415 -6.03168 0.653739 0
M  V30 3636 H 351.154 -4.87495 0.141232 0
M  V30 3637 H 350.159 -4.92414 2.44557 0
M  V30 3638 H 351.384 -6.11505 2.95362 0
M  V30 3639 H 349.33 -6.51745 0.74598 0
M  V30 3640 H 349.247 -7.18811 2.34195 0
M  V30 3641 H 350.515 -7.69172 1.26468 0
M  V30 3642 N 354.744 -0.972509 -1.24016 0
M  V30 3643 C 355.674 -0.525548 -2.27509 0
M  V30 3644 C 356.655 0.437262 -1.64384 0
M  V30 3645 O 357.84 0.332343 -1.91335 0
M  V30 3646 C 354.97 0.180448 -3.46831 0
M  V30 3647 C 353.924 -0.698859 -4.22256 0
M  V30 3648 C 353.25 0.138903 -5.3452 0
M  V30 3649 C 354.55 -1.98582 -4.83076 0
M  V30 3650 H 356.244 -1.39058 -2.65148 0
M  V30 3651 H 353.79 -0.67009 -1.27459 0
M  V30 3652 H 355.743 0.504387 -4.18371 0
M  V30 3653 H 354.467 1.07987 -3.08231 0
M  V30 3654 H 353.126 -1.00614 -3.52523 0
M  V30 3655 H 352.774 1.03862 -4.9216 0
M  V30 3656 H 352.474 -0.446259 -5.85903 0
M  V30 3657 H 353.998 0.457404 -6.08884 0
M  V30 3658 H 355.412 -1.72715 -5.46665 0
M  V30 3659 H 353.809 -2.5181 -5.44713 0
M  V30 3660 H 354.879 -2.67769 -4.04262 0
M  V30 3661 N 356.222 1.38976 -0.743202 0
M  V30 3662 C 357.469 2.00343 -0.294752 0
M  V30 3663 C 357.797 1.58983 1.12047 0
M  V30 3664 O 357.052 0.813809 1.77977 0
M  V30 3665 C 357.351 3.55647 -0.353517 0
M  V30 3666 C 357.017 4.16685 -1.72292 0
M  V30 3667 C 355.679 4.3307 -2.09771 0
M  V30 3668 C 358.031 4.50464 -2.62168 0
M  V30 3669 C 355.359 4.80526 -3.36618 0
M  V30 3670 C 357.711 4.99332 -3.88395 0
M  V30 3671 C 356.375 5.13924 -4.25956 0
M  V30 3672 H 355.645 0.733108 -0.107857 0
M  V30 3673 H 358.292 1.6618 -0.951651 0
M  V30 3674 H 356.597 3.89884 0.386954 0
M  V30 3675 H 358.294 4.00998 0.0117269 0
M  V30 3676 H 354.884 4.04339 -1.42155 0
M  V30 3677 H 359.068 4.37416 -2.3448 0
M  V30 3678 H 354.324 4.90008 -3.65653 0
M  V30 3679 H 358.498 5.2444 -4.58187 0
M  V30 3680 H 356.125 5.50457 -5.2431 0
M  V30 3681 N 357.7 0.491464 1.49741 0
M  V30 3682 C 358.65 -0.311086 2.25868 0
M  V30 3683 C 359.634 -0.943857 1.30308 0
M  V30 3684 O 360.826 -0.853035 1.55088 0
M  V30 3685 C 357.955 -1.38059 3.14316 0
M  V30 3686 C 357.041 -0.754541 4.17334 0
M  V30 3687 N 357.432 0.137216 5.05614 0
M  V30 3688 C 355.73 -1.01621 4.34269 0
M  V30 3689 C 356.431 0.494614 5.79593 0
M  V30 3690 N 355.407 -0.135169 5.43432 0
M  V30 3691 H 359.209 0.37555 2.91491 0
M  V30 3692 H 356.723 0.306917 1.59473 0
M  V30 3693 H 358.72 -1.96891 3.67477 0
M  V30 3694 H 357.38 -2.06901 2.50244 0
M  V30 3695 H 358.391 0.50741 5.15408 0
M  V30 3696 H 355.068 -1.69808 3.81407 0
M  V30 3697 H 356.458 1.2236 6.60665 0
M  V30 3698 N 359.178 -1.55987 0.224894 0
M  V30 3699 C 360.427 -1.97566 -0.406273 0
M  V30 3700 C 360.74 -1.11569 -1.6066 0
M  V30 3701 O 361.946 -1.43062 -2.3075 0
M  V30 3702 C 360.402 -3.51474 -0.774207 0
M  V30 3703 C 360.01 -4.46179 0.403496 0
M  V30 3704 C 361.754 -4.01758 -1.37079 0
M  V30 3705 C 359.661 -5.91399 0.0129412 0
M  V30 3706 H 358.591 -0.737777 -0.155565 0
M  V30 3707 H 361.242 -1.80659 0.321635 0
M  V30 3708 H 359.624 -3.63994 -1.55963 0
M  V30 3709 H 360.798 -4.45409 1.18101 0
M  V30 3710 H 359.113 -4.06255 0.913536 0
M  V30 3711 H 361.71 -5.07756 -1.67596 0
M  V30 3712 H 362.053 -3.47805 -2.28773 0
M  V30 3713 H 362.586 -3.92475 -0.648733 0
M  V30 3714 H 359.325 -6.49341 0.896451 0
M  V30 3715 H 358.845 -5.95356 -0.728821 0
M  V30 3716 H 360.524 -6.45683 -0.412582 0
M  V30 3717 N 360.656 0.0484629 -1.57525 0
M  V30 3718 C 361.933 0.777447 -1.79486 0
M  V30 3719 C 362.313 1.94597 -0.818251 0
M  V30 3720 O 361.661 2.28047 0.143767 0
M  V30 3721 C 361.871 1.22864 -3.26658 0
M  V30 3722 C 363.219 1.65251 -3.91123 0
M  V30 3723 O 364.243 1.32372 -3.3069 0
M  V30 3724 O 363.102 2.26207 -4.97486 0
M  V30 3725 H 360.196 0.374357 -0.737419 0
M  V30 3726 H 362.742 0.0267359 -1.69679 0
M  V30 3727 H 361.514 0.393589 -3.89316 0
M  V30 3728 H 361.137 2.03996 -3.41279 0
M  V30 3729 N 362.134 1.5431 0.320358 0
M  V30 3730 C 363.064 1.86912 1.3995 0
M  V30 3731 C 364.045 0.726211 1.53819 0
M  V30 3732 O 365.23 0.980233 1.67646 0
M  V30 3733 C 362.36 2.09932 2.7667 0
M  V30 3734 C 361.314 3.25776 2.77586 0
M  V30 3735 C 360.64 3.34173 4.17412 0
M  V30 3736 C 361.94 4.6335 2.41048 0
M  V30 3737 H 363.634 2.77292 1.12914 0
M  V30 3738 H 361.18 1.33421 0.541738 0
M  V30 3739 H 363.133 2.31324 3.52232 0
M  V30 3740 H 361.857 1.16304 3.0519 0
M  V30 3741 H 360.516 3.04276 2.04479 0
M  V30 3742 H 360.164 2.38098 4.43078 0
M  V30 3743 H 359.864 4.12033 4.18931 0
M  V30 3744 H 361.388 3.57803 4.94782 0
M  V30 3745 H 362.802 4.84602 3.06324 0
M  V30 3746 H 361.199 5.43782 2.53813 0
M  V30 3747 H 362.269 4.65381 1.36193 0
M  V30 3748 N 363.613 -0.582584 1.46437 0
M  V30 3749 C 364.561 -1.71272 1.5738 0
M  V30 3750 C 365.555 -1.63524 0.44229 0
M  V30 3751 O 366.761 -1.69016 0.619166 0
M  V30 3752 H 363.136 -0.566273 0.494813 0
M  V30 3753 H 365.107 -1.59174 2.52401 0
M  V30 3754 C 363.856 -3.09658 1.58136 0
M  V30 3755 H 363.179 -3.16291 2.44541 0
M  V30 3756 H 364.619 -3.88494 1.69847 0
M  V30 3757 C 363.078 -3.3547 0.310026 0
M  V30 3758 O 363.608 -3.97199 -0.599683 0
M  V30 3759 N 361.814 -2.89925 0.197901 0
M  V30 3760 H 361.361 -2.39873 0.93909 0
M  V30 3761 H 361.319 -3.07568 -0.65185 0
M  V30 3762 N 365.091 -1.34144 -0.827227 0
M  V30 3763 C 366.339 -1.26009 -1.58007 0
M  V30 3764 C 366.66 0.170971 -1.94249 0
M  V30 3765 O 365.93 1.10256 -1.61927 0
M  V30 3766 H 364.51 -0.463414 -0.585881 0
M  V30 3767 H 367.172 -1.68005 -0.987951 0
M  V30 3768 H 366.268 -1.86187 -2.50481 0
M  V30 3769 N 366.569 1.04691 -1.17803 0
M  V30 3770 C 367.501 2.12571 -0.857097 0
M  V30 3771 C 368.514 1.62174 0.142647 0
M  V30 3772 O 369.703 1.78301 -0.0843387 0
M  V30 3773 C 366.803 3.37915 -0.258216 0
M  V30 3774 C 365.976 4.1757 -1.30207 0
M  V30 3775 C 365.035 5.2125 -0.720029 0
M  V30 3776 O 364.061 5.51888 -1.39314 0
M  V30 3777 N 365.263 5.78466 0.485507 0
M  V30 3778 H 368.028 2.40698 -1.78562 0
M  V30 3779 H 365.589 1.20831 -1.07757 0
M  V30 3780 H 367.581 4.04442 0.144584 0
M  V30 3781 H 366.151 3.07281 0.574199 0
M  V30 3782 H 365.371 3.46458 -1.88043 0
M  V30 3783 H 366.659 4.67586 -2.00601 0
M  V30 3784 H 366.057 5.55866 1.05022 0
M  V30 3785 H 364.614 6.4649 0.830307 0
M  V30 3786 N 368.047 0.979072 1.23499 0
M  V30 3787 C 369.463 0.687475 1.44034 0
M  V30 3788 C 369.663 -0.746801 1.8715 0
M  V30 3789 O 368.719 -1.51939 2.0167 0
M  V30 3790 C 370.032 1.68127 2.49307 0
M  V30 3791 C 371.58 1.69516 2.63122 0
M  V30 3792 C 372.055 2.67723 3.71603 0
M  V30 3793 N 373.546 2.66233 3.79044 0
M  V30 3794 C 374.281 3.38891 4.62537 0
M  V30 3795 N 373.777 4.21103 5.50131 0
M  V30 3796 N 375.57 3.27661 4.56721 0
M  V30 3797 H 367.721 1.90559 0.938135 0
M  V30 3798 H 369.984 0.821051 0.473897 0
M  V30 3799 H 369.69 2.70693 2.2454 0
M  V30 3800 H 369.564 1.46306 3.4767 0
M  V30 3801 H 371.951 0.676561 2.8724 0
M  V30 3802 H 372.032 1.95404 1.65079 0
M  V30 3803 H 371.676 3.69724 3.48233 0
M  V30 3804 H 371.606 2.39111 4.69184 0
M  V30 3805 H 374.097 2.06568 3.16446 0
M  V30 3806 H 374.41 4.73403 6.10827 0
M  V30 3807 H 372.755 4.25195 5.49759 0
M  V30 3808 H 375.946 2.62887 3.87309 0
M  V30 3809 H 376.119 3.84547 5.21562 0
M  V30 3810 N 369.525 -1.3858 0.750561 0
M  V30 3811 C 370.773 -1.99789 0.30477 0
M  V30 3812 C 371.094 -1.59874 -1.11649 0
M  V30 3813 O 370.364 -0.85417 -1.76297 0
M  V30 3814 H 368.944 -0.738902 0.109694 0
M  V30 3815 H 371.606 -1.69391 0.963983 0
M  V30 3816 H 370.702 -3.09952 0.365499 0
M  V30 3817 N 371.003 -0.499398 -1.49478 0
M  V30 3818 C 372.252 0.0475259 -2.01644 0
M  V30 3819 C 372.565 1.38195 -1.38425 0
M  V30 3820 O 373.771 2.01547 -1.8191 0
M  V30 3821 C 372.227 0.135164 -3.59646 0
M  V30 3822 C 371.835 -1.19252 -4.31837 0
M  V30 3823 C 373.579 0.632538 -4.19761 0
M  V30 3824 C 371.486 -1.06713 -5.81693 0
M  V30 3825 H 370.416 0.0215349 -0.753692 0
M  V30 3826 H 373.067 -0.638577 -1.7203 0
M  V30 3827 H 371.449 0.885681 -3.85969 0
M  V30 3828 H 372.623 -1.9562 -4.17216 0
M  V30 3829 H 370.938 -1.62321 -3.83459 0
M  V30 3830 H 373.535 0.743833 -5.29501 0
M  V30 3831 H 373.878 1.63098 -3.83021 0
M  V30 3832 H 374.411 -0.0613987 -3.97753 0
M  V30 3833 H 371.15 -2.03979 -6.22955 0
M  V30 3834 H 370.67 -0.344307 -5.98811 0
M  V30 3835 H 372.349 -0.745208 -6.42694 0
M  V30 3836 N 372.481 1.55866 -0.233164 0
M  V30 3837 C 373.428 2.20796 0.67215 0
M  V30 3838 C 374.398 1.16731 1.18166 0
M  V30 3839 O 375.583 1.45129 1.23864 0
M  V30 3840 C 372.723 2.90072 1.86955 0
M  V30 3841 C 371.836 4.08759 1.39786 0
M  V30 3842 C 370.971 4.65787 2.55374 0
M  V30 3843 C 370.01 5.76752 2.04998 0
M  V30 3844 N 369.147 6.28021 3.13901 0
M  V30 3845 H 373.987 2.9779 0.111749 0
M  V30 3846 H 371.524 1.47036 0.0434007 0
M  V30 3847 H 373.482 3.28428 2.57276 0
M  V30 3848 H 372.112 2.15575 2.40265 0
M  V30 3849 H 371.164 3.7581 0.589173 0
M  V30 3850 H 372.476 4.88906 0.98856 0
M  V30 3851 H 371.63 5.06646 3.33758 0
M  V30 3852 H 370.369 3.84828 2.99598 0
M  V30 3853 H 369.374 5.35383 1.25079 0
M  V30 3854 H 370.599 6.59553 1.61759 0
M  V30 3855 H 368.545 5.49971 3.57586 0
M  V30 3856 H 368.462 7.03323 2.7726 0
M  V30 3857 H 369.73 6.73538 3.92386 0
M  V30 3858 N 373.959 -0.0401083 1.57549 0
M  V30 3859 C 375.189 -0.744115 1.92734 0
M  V30 3860 C 375.597 -1.70005 0.830348 0
M  V30 3861 O 374.94 -1.82576 -0.20286 0
M  V30 3862 C 375.002 -1.56516 3.2364 0
M  V30 3863 C 374.666 -0.7752 4.50377 0
M  V30 3864 C 375.663 -0.0803326 5.19838 0
M  V30 3865 C 373.348 -0.733002 4.96923 0
M  V30 3866 C 375.342 0.646154 6.34116 0
M  V30 3867 C 373.029 -0.00276321 6.111 0
M  V30 3868 C 374.027 0.685585 6.7955 0
M  V30 3869 O 373.715 1.40399 7.91545 0
M  V30 3870 H 373.447 -0.214861 0.640945 0
M  V30 3871 H 376.001 -0.00503675 2.05399 0
M  V30 3872 H 374.231 -2.3478 3.07271 0
M  V30 3873 H 375.92 -2.15076 3.44234 0
M  V30 3874 H 376.686 -0.104035 4.84888 0
M  V30 3875 H 372.565 -1.25827 4.43496 0
M  V30 3876 H 376.109 1.18398 6.87479 0
M  V30 3877 H 372.006 0.0229012 6.45496 0
M  V30 3878 H 372.774 1.31653 8.07843 0
M  V30 3879 N 375.437 -1.54477 -0.31217 0
M  V30 3880 C 376.714 -1.63891 -1.06767 0
M  V30 3881 C 377.094 -0.480028 -2.0557 0
M  V30 3882 O 376.442 0.524487 -2.22399 0
M  V30 3883 C 376.652 -3.01402 -1.75948 0
M  V30 3884 C 378 -3.57838 -2.28554 0
M  V30 3885 O 379.024 -3.03782 -1.85998 0
M  V30 3886 O 377.883 -4.52462 -3.06497 0
M  V30 3887 H 374.977 -0.664125 -0.492816 0
M  V30 3888 H 377.523 -1.66823 -0.311149 0
M  V30 3889 H 376.295 -3.77187 -1.04144 0
M  V30 3890 H 375.918 -3.02199 -2.58383 0
M  V30 3891 N 376.915 0.57481 -1.46744 0
M  V30 3892 C 377.847 1.69804 -1.53946 0
M  V30 3893 C 378.86 1.57098 -0.427106 0
M  V30 3894 O 380.049 1.64378 -0.695863 0
M  V30 3895 C 377.149 3.08125 -1.4111 0
M  V30 3896 C 376.322 3.46757 -2.66605 0
M  V30 3897 C 375.381 4.6417 -2.47855 0
M  V30 3898 O 374.407 4.69634 -3.21609 0
M  V30 3899 N 375.609 5.59553 -1.54534 0
M  V30 3900 H 378.374 1.64077 -2.50796 0
M  V30 3901 H 375.935 0.761 -1.429 0
M  V30 3902 H 377.927 3.84478 -1.26328 0
M  V30 3903 H 376.497 3.08175 -0.524109 0
M  V30 3904 H 375.717 2.6003 -2.96274 0
M  V30 3905 H 377.005 3.69337 -3.49954 0
M  V30 3906 H 376.403 5.57881 -0.937304 0
M  V30 3907 H 374.96 6.35304 -1.45711 0
M  V30 3908 N 378.394 1.34581 0.820102 0
M  V30 3909 C 379.671 1.17675 1.56244 0
M  V30 3910 C 380.051 -0.249541 2.0962 0
M  V30 3911 O 379.399 -1.25125 1.91196 0
M  V30 3912 C 379.609 2.23364 2.6816 0
M  V30 3913 C 380.957 2.58485 3.36854 0
M  V30 3914 O 381.981 2.22175 2.78418 0
M  V30 3915 O 380.84 3.20868 4.42386 0
M  V30 3916 H 377.934 0.456333 0.689702 0
M  V30 3917 H 380.48 1.46222 0.861231 0
M  V30 3918 H 379.252 3.19087 2.26493 0
M  V30 3919 H 378.875 1.96009 3.45928 0
M  V30 3920 N 379.872 -1.04064 1.18357 0
M  V30 3921 C 380.802 -2.14001 0.934113 0
M  V30 3922 C 381.783 -1.69616 -0.128186 0
M  V30 3923 O 382.968 -1.94185 0.0244093 0
M  V30 3924 C 380.098 -3.44253 0.459066 0
M  V30 3925 C 379.052 -4.02261 1.46185 0
M  V30 3926 C 378.378 -5.27992 0.844322 0
M  V30 3927 C 379.678 -4.38432 2.83856 0
M  V30 3928 H 381.372 -2.35127 1.85352 0
M  V30 3929 H 378.918 -1.12998 0.892604 0
M  V30 3930 H 380.871 -4.20522 0.271907 0
M  V30 3931 H 379.595 -3.22813 -0.495912 0
M  V30 3932 H 378.254 -3.28074 1.63595 0
M  V30 3933 H 377.902 -5.02862 -0.117845 0
M  V30 3934 H 377.602 -5.67765 1.51384 0
M  V30 3935 H 379.126 -6.06938 0.667693 0
M  V30 3936 H 380.54 -5.05688 2.70098 0
M  V30 3937 H 378.937 -4.89254 3.47491 0
M  V30 3938 H 380.007 -3.4826 3.37406 0
M  V30 3939 N 381.35 -0.985608 -1.22978 0
M  V30 3940 C 382.596 -0.65836 -1.91816 0
M  V30 3941 C 382.929 0.806692 -1.76653 0
M  V30 3942 O 382.204 1.58252 -1.13078 0
M  V30 3943 C 382.487 -1.056 -3.44268 0
M  V30 3944 C 382.34 -2.57906 -3.68516 0
M  V30 3945 C 383.659 -0.603781 -4.35939 0
M  V30 3946 H 380.778 -0.24065 -0.696604 0
M  V30 3947 H 383.42 -1.22783 -1.44998 0
M  V30 3948 H 381.57 -0.571445 -3.84274 0
M  V30 3949 H 383.242 -3.13976 -3.3796 0
M  V30 3950 H 381.485 -3.00305 -3.13048 0
M  V30 3951 H 382.156 -2.80779 -4.75255 0
M  V30 3952 H 384.632 -1.01987 -4.03408 0
M  V30 3953 H 383.508 -0.910383 -5.41298 0
M  V30 3954 H 383.769 0.495761 -4.39312 0
M  V30 3955 N 382.828 1.3818 -0.7579 0
M  V30 3956 C 384.075 2.00019 -0.315985 0
M  V30 3957 C 384.403 1.60163 1.10355 0
M  V30 3958 O 383.658 0.83264 1.77103 0
M  V30 3959 C 383.957 3.55252 -0.391218 0
M  V30 3960 C 383.623 4.14834 -1.76702 0
M  V30 3961 C 382.285 4.30821 -2.14353 0
M  V30 3962 C 384.637 4.47658 -2.66931 0
M  V30 3963 C 381.965 4.76928 -3.41696 0
M  V30 3964 C 384.317 4.95184 -3.93669 0
M  V30 3965 C 382.981 5.09377 -4.31383 0
M  V30 3966 H 382.251 0.731923 -0.115627 0
M  V30 3967 H 384.898 1.65161 -0.969223 0
M  V30 3968 H 383.203 3.90273 0.34558 0
M  V30 3969 H 384.9 4.00988 -0.030805 0
M  V30 3970 H 381.49 4.02808 -1.46435 0
M  V30 3971 H 385.674 4.34904 -2.39106 0
M  V30 3972 H 380.93 4.86103 -3.70829 0
M  V30 3973 H 385.104 5.19551 -4.63724 0
M  V30 3974 H 382.731 5.44865 -5.30119 0
M  V30 3975 N 384.306 0.507319 1.49211 0
M  V30 3976 C 385.554 -0.0348839 2.0207 0
M  V30 3977 C 385.875 -1.36898 1.38866 0
M  V30 3978 O 385.145 -1.88133 0.546151 0
M  V30 3979 H 383.725 -0.0158812 0.746831 0
M  V30 3980 H 386.387 0.665998 1.83168 0
M  V30 3981 H 385.483 -0.159917 3.1169 0
M  V30 3982 N 385.784 -1.5574 0.241426 0
M  V30 3983 C 386.734 -2.17803 -0.674233 0
M  V30 3984 C 387.718 -1.13225 -1.14319 0
M  V30 3985 O 388.91 -1.39153 -1.09387 0
M  V30 3986 C 386.039 -2.87682 -1.87333 0
M  V30 3987 C 385.125 -3.99509 -1.42313 0
M  V30 3988 N 385.516 -5.01115 -0.686798 0
M  V30 3989 C 383.814 -4.11964 -1.70885 0
M  V30 3990 C 384.515 -5.79922 -0.454456 0
M  V30 3991 N 383.491 -5.34001 -1.01705 0
M  V30 3992 H 387.293 -2.93718 -0.103447 0
M  V30 3993 H 384.807 -1.62342 0.0435095 0
M  V30 3994 H 386.804 -3.3057 -2.54026 0
M  V30 3995 H 385.464 -2.13269 -2.4484 0
M  V30 3996 H 386.475 -5.16799 -0.337459 0
M  V30 3997 H 383.152 -3.48718 -2.2957 0
M  V30 3998 H 384.542 -6.71768 0.132992 0
M  V30 3999 N 387.262 0.0317525 -1.57568 0
M  V30 4000 C 388.51 0.721676 -1.88776 0
M  V30 4001 C 388.831 1.76039 -0.838772 0
M  V30 4002 O 388.101 1.95482 0.127935 0
M  V30 4003 H 386.681 0.269534 -0.696678 0
M  V30 4004 H 389.343 -0.00165879 -1.949 0
M  V30 4005 H 388.439 1.21293 -2.87566 0
M  V30 4006 N 388.74 1.54641 0.303973 0
M  V30 4007 C 390.017 1.64455 1.05896 0
M  V30 4008 C 390.397 0.490923 2.05312 0
M  V30 4009 O 389.745 -0.512685 2.22674 0
M  V30 4010 C 389.955 3.02331 1.74347 0
M  V30 4011 C 391.303 3.59045 2.26653 0
M  V30 4012 O 392.327 3.04764 1.84384 0
M  V30 4013 O 391.186 4.54081 3.04093 0
M  V30 4014 H 388.28 0.666729 0.489287 0
M  V30 4015 H 390.826 1.66986 0.302298 0
M  V30 4016 H 389.598 3.77734 1.02142 0
M  V30 4017 H 389.221 3.03565 2.56777 0
M  V30 4018 N 390.218 -0.567019 1.47046 0
M  V30 4019 C 391.148 -1.68482 1.61667 0
M  V30 4020 C 392.129 -1.6358 0.466418 0
M  V30 4021 O 393.314 -1.81354 0.694574 0
M  V30 4022 C 390.444 -3.07124 1.62148 0
M  V30 4023 C 389.398 -3.26867 2.76301 0
M  V30 4024 C 388.724 -4.66196 2.61849 0
M  V30 4025 C 390.024 -3.13186 4.17986 0
M  V30 4026 H 391.718 -1.56502 2.5524 0
M  V30 4027 H 389.264 -0.751486 1.22836 0
M  V30 4028 H 391.217 -3.8516 1.70968 0
M  V30 4029 H 389.941 -3.2004 0.651287 0
M  V30 4030 H 388.6 -2.51237 2.66975 0
M  V30 4031 H 388.248 -4.75898 1.62879 0
M  V30 4032 H 387.948 -4.80356 3.38425 0
M  V30 4033 H 389.472 -5.46379 2.72584 0
M  V30 4034 H 390.886 -3.81049 4.2834 0
M  V30 4035 H 389.283 -3.3886 4.95272 0
M  V30 4036 H 390.353 -2.10057 4.3704 0
M  V30 4037 N 391.696 -1.35014 -0.812953 0
M  V30 4038 C 392.924 -1.31031 -1.6012 0
M  V30 4039 C 393.339 0.113558 -1.88458 0
M  V30 4040 O 392.696 1.06363 -1.48301 0
M  V30 4041 C 392.747 -2.10872 -2.93624 0
M  V30 4042 O 392.468 -3.47706 -2.66518 0
M  V30 4043 C 393.969 -2.14401 -3.88004 0
M  V30 4044 H 391.189 -0.45037 -0.497401 0
M  V30 4045 H 393.733 -1.77775 -1.01076 0
M  V30 4046 H 391.888 -1.67744 -3.492 0
M  V30 4047 H 392.302 -3.89097 -3.51715 0
M  V30 4048 H 393.776 -2.74669 -4.78812 0
M  V30 4049 H 394.253 -1.14105 -4.24119 0
M  V30 4050 H 394.859 -2.57662 -3.38364 0
M  V30 4051 N 393.175 1.03435 -1.18907 0
M  V30 4052 C 394.4 1.80919 -1.01406 0
M  V30 4053 C 394.825 1.83055 0.432721 0
M  V30 4054 O 394.183 1.25252 1.31079 0
M  V30 4055 C 394.231 3.24091 -1.58105 0
M  V30 4056 O 393.335 4.04434 -0.806669 0
M  V30 4057 H 392.676 0.558709 -0.358803 0
M  V30 4058 H 395.206 1.30223 -1.57807 0
M  V30 4059 H 395.216 3.74853 -1.61087 0
M  V30 4060 H 393.891 3.21851 -2.6341 0
M  V30 4061 H 392.468 3.63091 -0.849666 0
M  V30 4062 N 394.653 0.992116 1.22453 0
M  V30 4063 C 395.616 0.546883 2.2258 0
M  V30 4064 C 396.616 -0.369829 1.56489 0
M  V30 4065 O 397.806 -0.161896 1.73446 0
M  V30 4066 C 394.938 -0.204659 3.40285 0
M  V30 4067 H 396.131 1.43234 2.63484 0
M  V30 4068 H 393.684 0.779239 1.3549 0
M  V30 4069 H 394.419 -1.10614 3.04853 0
M  V30 4070 H 394.204 0.45354 3.89468 0
M  V30 4071 H 395.694 -0.504358 4.14543 0
M  V30 4072 N 396.131 -1.37776 0.765217 0
M  V30 4073 C 397.378 -1.99849 0.326588 0
M  V30 4074 C 397.706 -1.60746 -1.09504 0
M  V30 4075 O 396.961 -0.84202 -1.76659 0
M  V30 4076 C 397.26 -3.5504 0.410053 0
M  V30 4077 C 396.926 -4.13891 1.78899 0
M  V30 4078 C 395.588 -4.29678 2.16635 0
M  V30 4079 C 397.94 -4.46236 2.69301 0
M  V30 4080 C 395.268 -4.7511 3.44221 0
M  V30 4081 C 397.62 -4.93089 3.9629 0
M  V30 4082 C 396.284 -5.07082 4.34078 0
M  V30 4083 H 395.554 -0.7313 0.119507 0
M  V30 4084 H 398.201 -1.64645 0.977968 0
M  V30 4085 H 396.506 -3.90451 -0.324878 0
M  V30 4086 H 398.203 -4.00966 0.0520699 0
M  V30 4087 H 394.793 -4.02026 1.48569 0
M  V30 4088 H 398.977 -4.3363 2.41409 0
M  V30 4089 H 394.233 -4.84129 3.73402 0
M  V30 4090 H 398.407 -5.17084 4.66472 0
M  V30 4091 H 396.034 -5.42046 5.33001 0
M  V30 4092 N 397.609 -0.515225 -1.4894 0
M  V30 4093 C 398.856 0.024215 -2.02486 0
M  V30 4094 C 399.184 1.35671 -1.39368 0
M  V30 4095 O 398.439 1.88566 -0.523574 0
M  V30 4096 C 398.738 0.210595 -3.56779 0
M  V30 4097 C 398.404 -1.04569 -4.38607 0
M  V30 4098 C 397.066 -1.39002 -4.60686 0
M  V30 4099 C 399.418 -1.88008 -4.86109 0
M  V30 4100 C 396.746 -2.568 -5.27514 0
M  V30 4101 C 399.098 -3.04972 -5.54234 0
M  V30 4102 C 397.762 -3.39768 -5.74555 0
M  V30 4103 H 397.032 0.00886088 -0.740947 0
M  V30 4104 H 399.679 -0.678263 -1.79086 0
M  V30 4105 H 397.984 0.99572 -3.78936 0
M  V30 4106 H 399.681 0.642659 -3.95817 0
M  V30 4107 H 396.271 -0.767497 -4.21672 0
M  V30 4108 H 400.455 -1.62719 -4.68867 0
M  V30 4109 H 395.711 -2.8398 -5.41447 0
M  V30 4110 H 399.885 -3.69943 -5.90013 0
M  V30 4111 H 397.512 -4.31148 -6.26112 0
M  V30 4112 N 399.087 1.5561 -0.249682 0
M  V30 4113 C 400.315 2.03411 0.378352 0
M  V30 4114 C 400.73 1.12886 1.51335 0
M  V30 4115 O 400.087 0.143833 1.81932 0
M  V30 4116 C 400.138 3.50537 0.88351 0
M  V30 4117 O 399.859 4.37614 -0.20626 0
M  V30 4118 C 401.36 4.14113 1.58195 0
M  V30 4119 H 398.58 0.664994 0.08958 0
M  V30 4120 H 401.124 2.01044 -0.374357 0
M  V30 4121 H 399.279 3.5343 1.58639 0
M  V30 4122 H 399.693 5.24199 0.177782 0
M  V30 4123 H 401.167 5.18741 1.8871 0
M  V30 4124 H 401.644 3.60767 2.50487 0
M  V30 4125 H 402.25 4.15151 0.923573 0
M  V30 4126 N 400.565 -0.0233959 1.57583 0
M  V30 4127 C 401.811 -0.714119 1.89811 0
M  V30 4128 C 402.144 -1.74702 0.848113 0
M  V30 4129 O 401.419 -1.94023 -0.136135 0
M  V30 4130 C 401.702 -1.37853 3.32669 0
M  V30 4131 C 401.555 -0.358764 4.48367 0
M  V30 4132 C 402.874 -2.31101 3.7454 0
M  V30 4133 H 399.993 -0.25814 0.690314 0
M  V30 4134 H 402.635 0.0230927 1.89986 0
M  V30 4135 H 400.785 -2.00689 3.3265 0
M  V30 4136 H 402.457 0.268115 4.6052 0
M  V30 4137 H 400.7 0.321387 4.32608 0
M  V30 4138 H 401.371 -0.862242 5.45224 0
M  V30 4139 H 403.847 -1.78304 3.75961 0
M  V30 4140 H 402.723 -2.74567 4.75294 0
M  V30 4141 H 402.984 -3.18018 3.0711 0
M  V30 4142 N 402.043 -1.548 -0.295768 0
M  V30 4143 C 403.32 -1.65014 -1.05023 0
M  V30 4144 C 403.7 -0.501805 -2.05049 0
M  V30 4145 O 403.048 0.500869 -2.22943 0
M  V30 4146 C 403.258 -3.03252 -1.72741 0
M  V30 4147 C 404.606 -3.60242 -2.24746 0
M  V30 4148 O 405.63 -3.05737 -1.82765 0
M  V30 4149 O 404.489 -4.55687 -3.01681 0
M  V30 4150 H 401.583 -0.669314 -0.485744 0
M  V30 4151 H 404.129 -1.67144 -0.293438 0
M  V30 4152 H 402.901 -3.7827 -1.00138 0
M  V30 4153 H 402.524 -3.04922 -2.55163 0
M  V30 4154 N 403.521 0.559213 -1.47345 0
M  V30 4155 C 404.451 1.67622 -1.62558 0
M  V30 4156 C 405.432 1.63331 -0.475087 0
M  V30 4157 O 406.617 1.80983 -0.704182 0
M  V30 4158 C 403.747 3.0626 -1.63774 0
M  V30 4159 C 402.701 3.25397 -2.7803 0
M  V30 4160 C 402.027 4.64801 -2.64318 0
M  V30 4161 C 403.327 3.10965 -4.19641 0
M  V30 4162 H 405.021 1.55146 -2.56067 0
M  V30 4163 H 402.567 0.744961 -1.23233 0
M  V30 4164 H 404.52 3.84247 -1.73008 0
M  V30 4165 H 403.244 3.1969 -0.66825 0
M  V30 4166 H 401.903 2.49817 -2.68304 0
M  V30 4167 H 401.551 4.75028 -1.65401 0
M  V30 4168 H 401.251 4.78555 -3.40968 0
M  V30 4169 H 402.775 5.44926 -2.75478 0
M  V30 4170 H 404.189 3.78772 -4.30354 0
M  V30 4171 H 402.586 3.36229 -4.97062 0
M  V30 4172 H 403.656 2.07736 -4.38148 0
M  V30 4173 N 404.999 1.35443 0.805782 0
M  V30 4174 C 405.929 1.31095 1.93226 0
M  V30 4175 C 406.91 0.185244 1.69088 0
M  V30 4176 O 408.095 0.380332 1.90439 0
M  V30 4177 C 405.225 1.08299 3.29983 0
M  V30 4178 C 404.179 2.17519 3.68605 0
M  V30 4179 C 403.505 1.79887 5.03532 0
M  V30 4180 C 404.805 3.5949 3.78898 0
M  V30 4181 H 406.499 2.25352 1.97122 0
M  V30 4182 H 404.045 1.0848 0.946996 0
M  V30 4183 H 405.998 1.03897 4.08391 0
M  V30 4184 H 404.722 0.104885 3.26432 0
M  V30 4185 H 403.381 2.2102 2.92482 0
M  V30 4186 H 403.029 0.80693 4.96485 0
M  V30 4187 H 402.729 2.53001 5.30344 0
M  V30 4188 H 404.253 1.77011 5.84379 0
M  V30 4189 H 405.667 3.58307 4.47536 0
M  V30 4190 H 404.064 4.31371 4.1718 0
M  V30 4191 H 405.134 3.95584 2.80431 0
M  V30 4192 N 406.477 -1.02803 1.19454 0
M  V30 4193 C 407.387 -2.14575 0.948408 0
M  V30 4194 C 408.403 -1.73757 -0.091871 0
M  V30 4195 O 409.579 -2.01185 0.0929654 0
M  V30 4196 C 406.644 -3.43202 0.491265 0
M  V30 4197 C 405.705 -3.98328 1.60103 0
M  V30 4198 C 404.938 -5.20816 1.16561 0
M  V30 4199 O 405.161 -5.70392 0.0295238 0
M  V30 4200 O 404.095 -5.68801 1.96849 0
M  V30 4201 H 407.921 -2.38202 1.88397 0
M  V30 4202 H 405.506 -1.12989 0.977433 0
M  V30 4203 H 407.388 -4.20687 0.245015 0
M  V30 4204 H 406.063 -3.21018 -0.415851 0
M  V30 4205 H 404.97 -3.22174 1.90144 0
M  V30 4206 H 406.303 -4.24879 2.48473 0
M  V30 4207 N 407.956 -0.998596 -1.21925 0
M  V30 4208 C 408.904 -0.546641 -2.26085 0
M  V30 4209 C 409.898 0.405576 -1.64473 0
M  V30 4210 O 411.104 0.277471 -1.77849 0
M  V30 4211 H 407.479 -0.158403 -0.735127 0
M  V30 4212 H 409.45 -1.43645 -2.61551 0
M  V30 4213 C 408.199 0.117388 -3.47502 0
M  V30 4214 H 407.522 -0.606277 -3.95176 0
M  V30 4215 H 408.962 0.396993 -4.22137 0
M  V30 4216 C 407.421 1.35455 -3.0847 0
M  V30 4217 O 407.951 2.44944 -3.18379 0
M  V30 4218 N 406.157 1.23191 -2.63196 0
M  V30 4219 H 405.704 0.341006 -2.55333 0
M  V30 4220 H 405.662 2.06071 -2.37449 0
M  V30 4221 N 409.434 1.37368 -0.772513 0
M  V30 4222 C 410.682 1.99279 -0.336516 0
M  V30 4223 C 411.003 1.6163 1.09091 0
M  V30 4224 O 410.273 0.882109 1.74916 0
M  V30 4225 H 408.853 0.737063 -0.121435 0
M  V30 4226 H 411.515 1.67836 -0.990809 0
M  V30 4227 H 410.611 3.09332 -0.414763 0
M  V30 4228 N 410.912 0.523116 1.48665 0
M  V30 4229 C 412.159 -0.0134763 2.02496 0
M  V30 4230 C 412.487 -1.3493 1.40086 0
M  V30 4231 O 411.742 -1.88286 0.533567 0
M  V30 4232 C 412.041 -0.191671 3.56886 0
M  V30 4233 C 411.707 1.06893 4.38046 0
M  V30 4234 C 410.369 1.41443 4.59943 0
M  V30 4235 C 412.721 1.90584 4.85106 0
M  V30 4236 C 410.049 2.59594 5.26144 0
M  V30 4237 C 412.401 3.07907 5.52609 0
M  V30 4238 C 411.065 3.42811 5.72745 0
M  V30 4239 H 410.335 -0.00493133 0.740984 0
M  V30 4240 H 412.982 0.687751 1.78724 0
M  V30 4241 H 411.287 -0.97561 3.79459 0
M  V30 4242 H 412.984 -0.621659 3.96152 0
M  V30 4243 H 409.574 0.789848 4.21259 0
M  V30 4244 H 413.758 1.65203 4.67997 0
M  V30 4245 H 409.014 2.86847 5.39934 0
M  V30 4246 H 413.188 3.73066 5.88043 0
M  V30 4247 H 410.815 4.34462 6.23816 0
M  V30 4248 N 412.39 -1.55475 0.257931 0
M  V30 4249 C 413.801 -1.8511 -0.243135 0
M  V30 4250 C 414.152 -1.17986 -1.5676 0
M  V30 4251 O 413.277 -0.462102 -2.11409 0
M  V30 4252 C 413.872 -3.35826 -0.447929 0
M  V30 4253 C 412.431 -3.65647 -0.893245 0
M  V30 4254 C 411.578 -2.7729 0.0232965 0
M  V30 4255 H 414.529 -1.51261 0.480199 0
M  V30 4256 H 414.55 -3.58002 -1.28898 0
M  V30 4257 H 414.062 -3.84652 0.516196 0
M  V30 4258 H 412.163 -3.22308 -1.86945 0
M  V30 4259 H 412.276 -4.73312 -0.742469 0
M  V30 4260 H 410.64 -2.49942 -0.490021 0
M  V30 4261 H 411.423 -3.28926 0.982994 0
M  V30 4262 N 413.868 0.0150385 -1.57593 0
M  V30 4263 C 414.816 1.02958 -2.08572 0
M  V30 4264 C 415.81 1.36554 -1.00246 0
M  V30 4265 O 417.016 1.35295 -1.18724 0
M  V30 4266 H 413.391 0.349619 -0.665786 0
M  V30 4267 H 415.362 0.573932 -2.92829 0
M  V30 4268 C 414.111 2.31752 -2.59203 0
M  V30 4269 H 413.434 2.06765 -3.42182 0
M  V30 4270 H 414.874 3.01053 -2.98568 0
M  V30 4271 C 413.333 3.01692 -1.49945 0
M  V30 4272 O 413.863 3.92083 -0.873704 0
M  V30 4273 N 412.069 2.6326 -1.23056 0
M  V30 4274 H 411.616 1.89838 -1.74125 0
M  V30 4275 H 411.574 3.10372 -0.501685 0
M  V30 4276 N 415.346 1.54954 0.287554 0
M  V30 4277 C 416.594 1.74528 1.01904 0
M  V30 4278 C 416.915 0.541349 1.87335 0
M  V30 4279 O 416.185 -0.444108 1.908 0
M  V30 4280 H 414.765 0.643576 0.379235 0
M  V30 4281 H 417.427 1.92333 0.315294 0
M  V30 4282 H 416.523 2.64015 1.6644 0
M  V30 4283 N 416.824 -0.551391 1.4764 0
M  V30 4284 C 418.072 -1.30572 1.54258 0
M  V30 4285 C 418.393 -1.93877 0.208963 0
M  V30 4286 O 417.663 -1.80234 -0.767619 0
M  V30 4287 H 416.243 -0.484894 0.568231 0
M  V30 4288 H 418.905 -0.643402 1.83974 0
M  V30 4289 H 418.001 -2.09621 2.31226 0
M  V30 4290 N 418.302 -1.35869 -0.798587 0
M  V30 4291 C 419.713 -1.26498 -1.37314 0
M  V30 4292 C 420.064 0.0991899 -1.95949 0
M  V30 4293 O 419.189 1.0004 -1.91888 0
M  V30 4294 C 419.784 -2.29054 -2.49639 0
M  V30 4295 C 418.343 -2.234 -3.02935 0
M  V30 4296 C 417.49 -2.14329 -1.75949 0
M  V30 4297 H 420.441 -1.46881 -0.600971 0
M  V30 4298 H 420.462 -1.92166 -3.28409 0
M  V30 4299 H 419.974 -3.2833 -2.06933 0
M  V30 4300 H 418.075 -1.27562 -3.50084 0
M  V30 4301 H 418.188 -3.15703 -3.60372 0
M  V30 4302 H 416.552 -1.60435 -1.9782 0
M  V30 4303 H 417.335 -3.15477 -1.35384 0
M  V30 4304 N 419.78 1.02168 -1.19998 0
M  V30 4305 C 420.727 2.10601 -0.944228 0
M  V30 4306 C 421.697 1.65639 0.123664 0
M  V30 4307 O 422.882 1.9079 -0.0199941 0
M  V30 4308 C 420.022 3.41504 -0.496865 0
M  V30 4309 C 419.135 3.99973 -1.63234 0
M  V30 4310 C 418.27 5.18915 -1.13579 0
M  V30 4311 C 417.309 5.69456 -2.24468 0
M  V30 4312 N 416.446 6.79665 -1.76068 0
M  V30 4313 H 421.286 2.31814 -1.8726 0
M  V30 4314 H 418.823 1.13686 -0.933483 0
M  V30 4315 H 420.781 4.16626 -0.218843 0
M  V30 4316 H 419.411 3.2038 0.394508 0
M  V30 4317 H 418.463 3.21997 -2.0254 0
M  V30 4318 H 419.775 4.33492 -2.46752 0
M  V30 4319 H 418.929 6.01222 -0.813429 0
M  V30 4320 H 417.668 4.8695 -0.270434 0
M  V30 4321 H 416.673 4.85757 -2.57526 0
M  V30 4322 H 417.898 6.03459 -3.11472 0
M  V30 4323 H 415.844 6.49538 -0.918516 0
M  V30 4324 H 415.761 7.12349 -2.5317 0
M  V30 4325 H 417.029 7.65549 -1.46817 0
M  V30 4326 N 421.258 1.00505 1.21394 0
M  V30 4327 C 422.488 0.705584 1.94178 0
M  V30 4328 C 422.896 -0.735846 1.74304 0
M  V30 4329 O 422.239 -1.50954 1.04683 0
M  V30 4330 C 422.301 0.94689 3.46806 0
M  V30 4331 C 421.965 2.37517 3.90429 0
M  V30 4332 C 422.962 3.35539 3.97127 0
M  V30 4333 C 420.647 2.71284 4.22742 0
M  V30 4334 C 422.641 4.65395 4.3553 0
M  V30 4335 C 420.328 4.01356 4.60822 0
M  V30 4336 C 421.326 4.98223 4.67186 0
M  V30 4337 O 421.014 6.25969 5.04399 0
M  V30 4338 H 420.746 0.259216 0.624326 0
M  V30 4339 H 423.3 1.34592 1.55159 0
M  V30 4340 H 421.53 0.249386 3.85895 0
M  V30 4341 H 423.219 0.640804 4.0081 0
M  V30 4342 H 423.985 3.10786 3.7234 0
M  V30 4343 H 419.864 1.96581 4.16985 0
M  V30 4344 H 423.408 5.41002 4.40412 0
M  V30 4345 H 419.305 4.25893 4.85063 0
M  V30 4346 H 420.073 6.30085 5.22431 0
M  V30 4347 N 422.737 -1.36956 0.779787 0
M  V30 4348 C 423.965 -2.03755 0.359398 0
M  V30 4349 C 424.38 -1.58807 -1.02106 0
M  V30 4350 O 423.737 -0.773024 -1.6532 0
M  V30 4351 C 423.788 -3.59251 0.402568 0
M  V30 4352 O 423.509 -4.02557 1.72858 0
M  V30 4353 C 425.01 -4.43291 -0.0284068 0
M  V30 4354 H 422.23 -0.654148 0.149437 0
M  V30 4355 H 424.774 -1.75128 1.05595 0
M  V30 4356 H 422.929 -3.86621 -0.245478 0
M  V30 4357 H 423.343 -4.97111 1.67275 0
M  V30 4358 H 424.817 -5.51975 0.0529466 0
M  V30 4359 H 425.294 -4.25719 -1.07982 0
M  V30 4360 H 425.9 -4.21163 0.591758 0
M  V30 4361 N 424.215 -0.530993 -1.48385 0
M  V30 4362 C 425.463 0.00273189 -2.021 0
M  V30 4363 C 425.784 1.34672 -1.41027 0
M  V30 4364 O 425.054 1.8724 -0.576012 0
M  V30 4365 H 423.634 0.00399774 -0.746989 0
M  V30 4366 H 426.296 -0.695054 -1.82085 0
M  V30 4367 H 425.392 0.11031 -3.11905 0
M  V30 4368 N 425.693 1.55336 -0.266172 0
M  V30 4369 C 427.104 1.85236 0.233315 0
M  V30 4370 C 427.455 1.18816 1.56132 0
M  V30 4371 O 426.58 0.473307 2.11161 0
M  V30 4372 C 427.175 3.36059 0.430113 0
M  V30 4373 C 425.734 3.66116 0.873842 0
M  V30 4374 C 424.881 2.77274 -0.0380016 0
M  V30 4375 H 427.832 1.51004 -0.488214 0
M  V30 4376 H 427.853 3.58681 1.26998 0
M  V30 4377 H 427.365 3.84373 -0.536588 0
M  V30 4378 H 425.466 3.23295 1.85233 0
M  V30 4379 H 425.579 4.73699 0.717358 0
M  V30 4380 H 423.943 2.50198 0.476759 0
M  V30 4381 H 424.726 3.284 -1.00042 0
M  V30 4382 N 427.171 -0.0066808 1.57599 0
M  V30 4383 C 428.587 -0.36267 1.55425 0
M  V30 4384 C 428.787 -1.75209 0.995187 0
M  V30 4385 O 427.843 -2.44616 0.626058 0
M  V30 4386 C 429.156 -0.244017 2.99708 0
M  V30 4387 C 430.704 -0.319451 3.11366 0
M  V30 4388 C 431.179 -0.229998 4.57422 0
M  V30 4389 N 432.67 -0.288105 4.62303 0
M  V30 4390 C 433.405 -0.242127 5.72889 0
M  V30 4391 N 432.901 -0.147133 6.92644 0
M  V30 4392 N 434.694 -0.293502 5.61333 0
M  V30 4393 H 426.845 0.902314 1.92281 0
M  V30 4394 H 429.108 0.34525 0.882896 0
M  V30 4395 H 428.814 0.711678 3.44424 0
M  V30 4396 H 428.688 -1.02877 3.629 0
M  V30 4397 H 431.075 -1.26559 2.66584 0
M  V30 4398 H 431.156 0.495055 2.50964 0
M  V30 4399 H 430.8 0.712566 5.02877 0
M  V30 4400 H 430.73 -1.0629 5.15761 0
M  V30 4401 H 433.221 -0.363126 3.76151 0
M  V30 4402 H 433.534 -0.117763 7.7271 0
M  V30 4403 H 431.879 -0.112857 6.94908 0
M  V30 4404 H 435.07 -0.365864 4.66668 0
M  V30 4405 H 435.243 -0.254204 6.47501 0
M  V30 4406 N 428.649 -1.55105 -0.279332 0
M  V30 4407 C 429.599 -1.83937 -1.34727 0
M  V30 4408 C 430.583 -0.69785 -1.44979 0
M  V30 4409 O 431.775 -0.95904 -1.48766 0
M  V30 4410 C 428.904 -2.1092 -2.70864 0
M  V30 4411 C 427.99 -3.31314 -2.64748 0
M  V30 4412 N 428.381 -4.51371 -2.2825 0
M  V30 4413 C 426.679 -3.33777 -2.95819 0
M  V30 4414 C 427.38 -5.33447 -2.31969 0
M  V30 4415 N 426.356 -4.71697 -2.7019 0
M  V30 4416 H 430.158 -2.74309 -1.05506 0
M  V30 4417 H 427.672 -1.54896 -0.487959 0
M  V30 4418 H 429.669 -2.2973 -3.47893 0
M  V30 4419 H 428.329 -1.21828 -3.00979 0
M  V30 4420 H 429.34 -4.77584 -2.00335 0
M  V30 4421 H 426.017 -2.54858 -3.30687 0
M  V30 4422 H 427.407 -6.39424 -2.06365 0
M  V30 4423 N 430.127 0.543554 -1.4793 0
M  V30 4424 C 431.374 1.30008 -1.55255 0
M  V30 4425 C 431.702 1.93245 -0.220612 0
M  V30 4426 O 430.957 1.79141 0.787843 0
M  V30 4427 C 431.256 2.42078 -2.62932 0
M  V30 4428 C 430.922 1.96583 -4.0579 0
M  V30 4429 C 429.584 1.83893 -4.44676 0
M  V30 4430 C 431.936 1.62034 -4.95373 0
M  V30 4431 C 429.264 1.34969 -5.70964 0
M  V30 4432 C 431.616 1.14577 -6.22137 0
M  V30 4433 C 430.28 1.00493 -6.59892 0
M  V30 4434 H 429.55 0.475735 -0.568117 0
M  V30 4435 H 432.197 0.608075 -1.81589 0
M  V30 4436 H 430.502 3.16892 -2.30406 0
M  V30 4437 H 432.199 3.00236 -2.65818 0
M  V30 4438 H 428.789 2.07407 -3.75074 0
M  V30 4439 H 432.973 1.70705 -4.66019 0
M  V30 4440 H 428.229 1.2274 -5.98953 0
M  V30 4441 H 432.403 0.869109 -6.90955 0
M  V30 4442 H 430.03 0.623624 -7.57638 0
M  V30 4443 N 431.605 1.3629 0.791371 0
M  V30 4444 C 432.882 1.20962 1.53712 0
M  V30 4445 C 433.262 -0.205021 2.10102 0
M  V30 4446 O 432.61 -1.21042 1.93807 0
M  V30 4447 C 432.82 2.29002 2.63361 0
M  V30 4448 C 434.168 2.65572 3.31295 0
M  V30 4449 O 435.192 2.2803 2.73643 0
M  V30 4450 O 434.051 3.3018 4.35481 0
M  V30 4451 H 431.145 0.47086 0.679867 0
M  V30 4452 H 433.691 1.48016 0.830021 0
M  V30 4453 H 432.463 3.2382 2.19674 0
M  V30 4454 H 432.086 2.03303 3.41692 0
M  V30 4455 N 433.083 -1.0153 1.20538 0
M  V30 4456 C 434.313 -1.78487 1.04048 0
M  V30 4457 C 434.721 -1.84631 -0.413292 0
M  V30 4458 O 434.064 -1.29919 -1.29872 0
M  V30 4459 C 434.126 -3.24367 1.55003 0
M  V30 4460 C 433.79 -3.41827 3.0332 0
M  V30 4461 C 434.787 -3.30941 4.00966 0
M  V30 4462 C 432.472 -3.67602 3.42307 0
M  V30 4463 C 434.466 -3.45577 5.35589 0
M  V30 4464 C 432.153 -3.81881 4.77085 0
M  V30 4465 C 433.151 -3.70874 5.73534 0
M  V30 4466 O 432.839 -3.84714 7.05868 0
M  V30 4467 H 432.571 -0.568108 0.366373 0
M  V30 4468 H 435.125 -1.28677 1.60098 0
M  V30 4469 H 433.355 -3.75266 0.933397 0
M  V30 4470 H 435.044 -3.82963 1.34514 0
M  V30 4471 H 435.81 -3.10964 3.72191 0
M  V30 4472 H 431.689 -3.75256 2.67776 0
M  V30 4473 H 435.233 -3.36902 6.10854 0
M  V30 4474 H 431.13 -4.01359 5.0555 0
M  V30 4475 H 431.898 -4.01724 7.13134 0
M  V30 4476 N 434.561 -1.01147 -1.20859 0
M  V30 4477 C 435.508 -0.577354 -2.23462 0
M  V30 4478 C 436.478 0.399922 -1.61214 0
M  V30 4479 O 437.663 0.300515 -1.88419 0
M  V30 4480 C 434.803 0.083372 -3.44999 0
M  V30 4481 C 433.916 -0.937856 -4.21697 0
M  V30 4482 C 433.051 -0.248717 -5.30617 0
M  V30 4483 C 432.09 -1.25705 -5.99053 0
M  V30 4484 N 431.227 -0.594939 -6.99575 0
M  V30 4485 H 436.067 -1.45695 -2.59956 0
M  V30 4486 H 433.604 -0.729428 -1.27741 0
M  V30 4487 H 435.562 0.483535 -4.14388 0
M  V30 4488 H 434.192 0.926645 -3.09214 0
M  V30 4489 H 433.244 -1.45622 -3.51423 0
M  V30 4490 H 434.556 -1.70493 -4.68757 0
M  V30 4491 H 433.71 0.207215 -6.06346 0
M  V30 4492 H 432.449 0.55071 -4.84581 0
M  V30 4493 H 431.454 -1.72343 -5.2209 0
M  V30 4494 H 432.679 -2.05767 -6.47176 0
M  V30 4495 H 430.625 0.184713 -6.5574 0
M  V30 4496 H 430.542 -1.30017 -7.44736 0
M  V30 4497 H 431.81 -0.162427 -7.79331 0
M  V30 4498 N 436.039 1.36541 -0.78704 0
M  V30 4499 C 437.45 1.81873 -0.421807 0
M  V30 4500 C 437.801 1.65487 1.05397 0
M  V30 4501 O 436.926 1.17448 1.81755 0
M  V30 4502 C 437.521 3.30192 -0.758841 0
M  V30 4503 C 436.08 3.73743 -0.446468 0
M  V30 4504 C 435.227 2.58844 -0.994728 0
M  V30 4505 H 438.178 1.24796 -0.98039 0
M  V30 4506 H 438.199 3.80468 -0.0490648 0
M  V30 4507 H 437.711 3.42087 -1.83299 0
M  V30 4508 H 435.812 3.6741 0.619739 0
M  V30 4509 H 435.925 4.69272 -0.965415 0
M  V30 4510 H 434.289 2.51245 -0.418087 0
M  V30 4511 H 435.072 2.73525 -2.07458 0
M  V30 4512 N 437.518 0.538854 1.48102 0
M  V30 4513 C 438.743 0.0102694 2.07397 0
M  V30 4514 C 439.168 -1.26562 1.39153 0
M  V30 4515 O 438.526 -1.75357 0.460387 0
M  V30 4516 C 438.574 -0.187602 3.60112 0
M  V30 4517 O 437.678 -1.25432 3.92862 0
M  V30 4518 H 437.019 0.0430975 0.6626 0
M  V30 4519 H 439.549 0.749301 1.90385 0
M  V30 4520 H 439.559 -0.407517 4.0596 0
M  V30 4521 H 438.234 0.744386 4.09184 0
M  V30 4522 H 436.811 -1.01636 3.58782 0
M  V30 4523 N 438.996 -1.55193 0.274407 0
M  V30 4524 C 440.412 -1.59401 -0.0797543 0
M  V30 4525 C 440.612 -1.29162 -1.54659 0
M  V30 4526 O 439.668 -1.05215 -2.29534 0
M  V30 4527 C 440.981 -2.99257 0.294238 0
M  V30 4528 C 442.529 -3.12072 0.240796 0
M  V30 4529 C 443.004 -4.54194 0.589218 0
M  V30 4530 N 444.495 -4.60033 0.540744 0
M  V30 4531 C 445.23 -5.68027 0.783147 0
M  V30 4532 N 444.726 -6.8417 1.09013 0
M  V30 4533 N 446.519 -5.57572 0.711993 0
M  V30 4534 H 438.67 -1.73113 1.23067 0
M  V30 4535 H 440.933 -0.807197 0.497129 0
M  V30 4536 H 440.639 -3.26217 1.31435 0
M  V30 4537 H 440.513 -3.75427 -0.365281 0
M  V30 4538 H 442.9 -2.84877 -0.770024 0
M  V30 4539 H 442.981 -2.38117 0.934563 0
M  V30 4540 H 442.625 -4.82115 1.59772 0
M  V30 4541 H 442.555 -5.26448 -0.126331 0
M  V30 4542 H 445.046 -3.76599 0.313327 0
M  V30 4543 H 445.359 -7.6243 1.26178 0
M  V30 4544 H 443.704 -6.85787 1.12789 0
M  V30 4545 H 446.895 -4.65714 0.472014 0
M  V30 4546 H 447.068 -6.41659 0.90429 0
M  V30 4547 N 440.474 -0.00167713 -1.576 0
M  V30 4548 C 441.702 0.693759 -1.94922 0
M  V30 4549 C 442.117 1.67215 -0.876626 0
M  V30 4550 O 441.474 1.81929 0.144279 0
M  V30 4551 C 441.525 1.42416 -3.32265 0
M  V30 4552 O 441.246 0.485014 -4.35407 0
M  V30 4553 C 442.747 2.21395 -3.84056 0
M  V30 4554 H 439.967 0.193118 -0.642609 0
M  V30 4555 H 442.511 -0.0532952 -2.04431 0
M  V30 4556 H 440.666 2.12284 -3.24059 0
M  V30 4557 H 441.08 1.00053 -5.14868 0
M  V30 4558 H 442.554 2.67996 -4.82578 0
M  V30 4559 H 443.031 3.04142 -3.16851 0
M  V30 4560 H 443.637 1.56542 -3.95443 0
M  V30 4561 N 441.952 1.55251 0.271103 0
M  V30 4562 C 443.229 1.66664 1.02384 0
M  V30 4563 C 443.609 0.534363 2.04225 0
M  V30 4564 O 442.957 -0.465337 2.23712 0
M  V30 4565 C 443.167 3.05961 1.67895 0
M  V30 4566 C 444.515 3.63772 2.18986 0
M  V30 4567 O 445.539 3.08606 1.77878 0
M  V30 4568 O 444.398 4.60429 2.94393 0
M  V30 4569 H 441.492 0.676957 0.475035 0
M  V30 4570 H 444.038 1.67589 0.26681 0
M  V30 4571 H 442.81 3.79815 0.941071 0
M  V30 4572 H 442.433 3.08943 2.5028 0
M  V30 4573 N 443.43 -0.535701 1.48216 0
M  V30 4574 C 444.678 -1.28928 1.55634 0
M  V30 4575 C 444.999 -1.93645 0.229514 0
M  V30 4576 O 444.269 -1.81038 -0.74846 0
M  V30 4577 H 442.849 -0.47884 0.573342 0
M  V30 4578 H 445.511 -0.623853 1.84646 0
M  V30 4579 H 444.607 -2.07157 2.33436 0
M  V30 4580 N 444.908 -1.36708 -0.784132 0
M  V30 4581 C 446.138 -1.34203 -1.57077 0
M  V30 4582 C 446.546 0.0774945 -1.89041 0
M  V30 4583 O 445.889 1.04628 -1.50992 0
M  V30 4584 C 445.951 -2.10351 -2.91535 0
M  V30 4585 C 445.615 -3.59405 -2.82272 0
M  V30 4586 C 446.612 -4.53545 -2.54151 0
M  V30 4587 C 444.297 -4.02362 -3.00683 0
M  V30 4588 C 446.291 -5.8862 -2.44551 0
M  V30 4589 C 443.978 -5.37526 -2.90704 0
M  V30 4590 C 444.976 -6.30468 -2.62677 0
M  V30 4591 O 444.664 -7.63149 -2.52702 0
M  V30 4592 H 444.396 -0.461791 -0.493685 0
M  V30 4593 H 446.95 -1.80475 -0.980712 0
M  V30 4594 H 445.18 -1.5875 -3.52612 0
M  V30 4595 H 446.869 -2.00636 -3.52845 0
M  V30 4596 H 447.635 -4.21669 -2.39625 0
M  V30 4597 H 443.514 -3.30389 -3.21503 0
M  V30 4598 H 447.058 -6.61133 -2.22596 0
M  V30 4599 H 442.955 -5.69008 -3.04795 0
M  V30 4600 H 443.723 -7.73331 -2.68144 0
M  V30 4601 N 446.386 1.0089 -1.21074 0
M  V30 4602 C 447.663 1.71834 -0.934469 0
M  V30 4603 C 448.043 2.0368 0.554753 0
M  V30 4604 O 447.391 1.70742 1.51854 0
M  V30 4605 C 447.601 2.98061 -1.8155 0
M  V30 4606 C 448.949 3.7117 -2.06199 0
M  V30 4607 O 449.973 3.08034 -1.78867 0
M  V30 4608 O 448.832 4.84721 -2.52404 0
M  V30 4609 H 445.926 0.749253 -0.35007 0
M  V30 4610 H 448.472 1.06668 -1.31985 0
M  V30 4611 H 447.244 2.70908 -2.82355 0
M  V30 4612 H 446.867 3.70968 -1.43068 0
M  V30 4613 N 447.864 1.01787 1.20321 0
M  V30 4614 C 449.112 0.706538 1.89347 0
M  V30 4615 C 449.433 -0.766289 1.79313 0
M  V30 4616 O 448.703 -1.55126 1.19635 0
M  V30 4617 H 447.283 0.258348 0.700903 0
M  V30 4618 H 449.945 1.28974 1.46122 0
M  V30 4619 H 449.041 0.991066 2.95946 0
M  V30 4620 N 449.342 -1.36122 0.79427 0
M  V30 4621 C 450.588 -1.99406 0.369452 0
M  V30 4622 C 450.921 -1.62886 -1.05743 0
M  V30 4623 O 450.196 -0.886053 -1.73145 0
M  V30 4624 C 450.479 -3.56046 0.538833 0
M  V30 4625 C 450.332 -4.02404 2.00976 0
M  V30 4626 C 451.651 -4.40079 -0.0431359 0
M  V30 4627 H 448.77 -0.724397 0.135712 0
M  V30 4628 H 451.412 -1.61461 1.00151 0
M  V30 4629 H 449.562 -3.885 0.000771004 0
M  V30 4630 H 451.234 -3.80415 2.60926 0
M  V30 4631 H 449.477 -3.53765 2.51063 0
M  V30 4632 H 450.148 -5.11344 2.07922 0
M  V30 4633 H 452.624 -4.14013 0.416228 0
M  V30 4634 H 451.5 -5.48799 0.105374 0
M  V30 4635 H 451.761 -4.27264 -1.13571 0
M  V30 4636 N 450.82 -0.546701 -1.47814 0
M  V30 4637 C 452.066 -0.0269594 -2.03382 0
M  V30 4638 C 452.421 1.30406 -1.41464 0
M  V30 4639 O 451.714 1.8332 -0.557151 0
M  V30 4640 C 451.908 0.134869 -3.57145 0
M  V30 4641 C 451.737 -1.17891 -4.33972 0
M  V30 4642 C 450.507 -1.74336 -4.74273 0
M  V30 4643 C 452.705 -2.09361 -4.69758 0
M  V30 4644 N 450.687 -2.99829 -5.35701 0
M  V30 4645 C 452.058 -3.19431 -5.31379 0
M  V30 4646 C 454.113 -2.09484 -4.51687 0
M  V30 4647 C 452.816 -4.2971 -5.76838 0
M  V30 4648 C 454.842 -3.18767 -4.98138 0
M  V30 4649 C 454.204 -4.27557 -5.59799 0
M  V30 4650 H 450.303 -0.0517733 -0.780284 0
M  V30 4651 H 452.887 -0.731673 -1.80429 0
M  V30 4652 H 451.058 0.80869 -3.79888 0
M  V30 4653 H 452.79 0.655726 -3.99352 0
M  V30 4654 H 449.545 -1.28265 -4.559 0
M  V30 4655 H 449.969 -3.63765 -5.70968 0
M  V30 4656 H 454.611 -1.26663 -4.03381 0
M  V30 4657 H 452.329 -5.13297 -6.24141 0
M  V30 4658 H 455.915 -3.19937 -4.85934 0
M  V30 4659 H 454.795 -5.10725 -5.95088 0
M  V30 4660 N 452.299 1.55045 -0.282633 0
M  V30 4661 C 453.576 1.9179 0.384166 0
M  V30 4662 C 453.956 1.20778 1.73136 0
M  V30 4663 O 453.304 0.33719 2.25998 0
M  V30 4664 C 453.514 3.45149 0.517014 0
M  V30 4665 C 454.862 4.17064 0.796427 0
M  V30 4666 O 455.886 3.51084 0.601535 0
M  V30 4667 O 454.745 5.33837 1.16962 0
M  V30 4668 H 451.839 0.799483 0.211558 0
M  V30 4669 H 454.385 1.66474 -0.32934 0
M  V30 4670 H 453.157 3.88922 -0.430772 0
M  V30 4671 H 452.78 3.76443 1.2797 0
M  V30 4672 N 453.777 0.010035 1.57597 0
M  V30 4673 C 455.002 -0.687021 1.95691 0
M  V30 4674 C 455.427 -1.65952 0.885519 0
M  V30 4675 O 454.785 -1.80633 -0.15543 0
M  V30 4676 C 454.833 -1.3864 3.32884 0
M  V30 4677 O 453.937 -2.50115 3.27897 0
M  V30 4678 H 453.278 -0.181989 0.638573 0
M  V30 4679 H 455.808 0.0662122 2.04493 0
M  V30 4680 H 455.818 -1.74754 3.6868 0
M  V30 4681 H 454.493 -0.673411 4.10412 0
M  V30 4682 H 453.07 -2.16253 3.03791 0
M  V30 4683 N 455.255 -1.55392 -0.262866 0
M  V30 4684 C 456.218 -1.88181 -1.30846 0
M  V30 4685 C 457.218 -0.757079 -1.41862 0
M  V30 4686 O 458.408 -1.02519 -1.40838 0
M  V30 4687 C 455.54 -2.09609 -2.68844 0
M  V30 4688 H 456.733 -2.81659 -1.02997 0
M  V30 4689 H 454.286 -1.48039 -0.501414 0
M  V30 4690 H 455.021 -1.18547 -3.01856 0
M  V30 4691 H 454.806 -2.91508 -2.62231 0
M  V30 4692 H 456.296 -2.36215 -3.44372 0
M  V30 4693 N 456.733 0.527833 -1.48498 0
M  V30 4694 C 457.68 1.6322 -1.6318 0
M  V30 4695 C 458.65 1.59199 -0.473815 0
M  V30 4696 O 459.835 1.77591 -0.697563 0
M  V30 4697 C 456.975 3.01474 -1.67951 0
M  V30 4698 C 456.088 3.15713 -2.94871 0
M  V30 4699 C 455.223 4.44539 -2.90789 0
M  V30 4700 C 454.262 4.52315 -4.12404 0
M  V30 4701 N 453.399 5.72533 -4.06387 0
M  V30 4702 H 458.239 1.50011 -2.57489 0
M  V30 4703 H 455.776 0.730298 -1.27691 0
M  V30 4704 H 457.734 3.81572 -1.68698 0
M  V30 4705 H 456.364 3.1345 -0.771306 0
M  V30 4706 H 455.416 2.28854 -3.03859 0
M  V30 4707 H 456.728 3.1732 -3.8485 0
M  V30 4708 H 455.882 5.3293 -2.89949 0
M  V30 4709 H 454.621 4.45457 -1.98542 0
M  V30 4710 H 453.626 3.62331 -4.13517 0
M  V30 4711 H 454.851 4.53134 -5.05812 0
M  V30 4712 H 452.797 5.74344 -3.16962 0
M  V30 4713 H 452.714 5.75643 -4.90073 0
M  V30 4714 H 453.982 6.63204 -4.0961 0
M  V30 4715 N 458.211 1.37122 0.776871 0
M  V30 4716 C 459.174 1.32301 1.8716 0
M  V30 4717 C 460.174 0.228099 1.59174 0
M  V30 4718 O 461.364 0.483642 1.67352 0
M  V30 4719 C 458.496 1.054 3.24197 0
M  V30 4720 H 459.689 2.29673 1.92848 0
M  V30 4721 H 457.242 1.22077 0.97606 0
M  V30 4722 H 457.977 0.0853872 3.24188 0
M  V30 4723 H 457.762 1.84648 3.45901 0
M  V30 4724 H 459.252 1.04664 4.04271 0
M  V30 4725 N 459.689 -1.00246 1.21608 0
M  V30 4726 C 460.637 -2.11193 0.97469 0
M  V30 4727 C 461.631 -1.69216 -0.0789303 0
M  V30 4728 O 462.837 -1.79853 0.0726806 0
M  V30 4729 H 459.212 -0.690455 0.297953 0
M  V30 4730 H 461.183 -2.2873 1.91638 0
M  V30 4731 C 459.932 -3.43182 0.558717 0
M  V30 4732 H 459.255 -3.75918 1.3611 0
M  V30 4733 H 460.695 -4.21823 0.429154 0
M  V30 4734 C 459.154 -3.28882 -0.730648 0
M  V30 4735 O 459.684 -3.59835 -1.78554 0
M  V30 4736 N 457.89 -2.8209 -0.698131 0
M  V30 4737 H 457.437 -2.57099 0.16061 0
M  V30 4738 H 457.395 -2.72903 -1.56113 0
M  V30 4739 N 461.167 -1.02423 -1.1978 0
M  V30 4740 C 462.1 -0.545641 -2.21581 0
M  V30 4741 C 463.078 0.411024 -1.57319 0
M  V30 4742 O 464.262 0.329223 -1.85603 0
M  V30 4743 C 461.389 0.204973 -3.38079 0
M  V30 4744 C 460.435 -0.70241 -4.20676 0
M  V30 4745 S 461.268 -2.17595 -4.89298 0
M  V30 4746 C 462.424 -1.43572 -6.09211 0
M  V30 4747 H 462.657 -1.4082 -2.61834 0
M  V30 4748 H 460.19 -0.833771 -1.29952 0
M  V30 4749 H 462.148 0.631924 -4.05607 0
M  V30 4750 H 460.809 1.0432 -2.9627 0
M  V30 4751 H 460.002 -0.123193 -5.03849 0
M  V30 4752 H 459.604 -1.06747 -3.58442 0
M  V30 4753 H 461.896 -0.719806 -6.73665 0
M  V30 4754 H 462.839 -2.24388 -6.71607 0
M  V30 4755 H 463.247 -0.935252 -5.56699 0
M  V30 4756 N 462.645 1.35699 -0.801477 0
M  V30 4757 C 463.87 2.03687 -0.390678 0
M  V30 4758 C 464.295 1.60015 0.988778 0
M  V30 4759 O 463.653 0.774357 1.63931 0
M  V30 4760 C 463.701 3.57439 -0.476404 0
M  V30 4761 O 462.805 4.09208 0.512106 0
M  V30 4762 H 462.146 0.64344 -0.163956 0
M  V30 4763 H 464.676 1.73403 -1.08594 0
M  V30 4764 H 464.686 4.06544 -0.344357 0
M  V30 4765 H 463.361 3.88576 -1.48262 0
M  V30 4766 H 461.938 3.7134 0.340721 0
M  V30 4767 N 464.123 0.554532 1.47522 0
M  V30 4768 C 465.056 -0.242442 2.26908 0
M  V30 4769 C 466.034 -0.922722 1.33883 0
M  V30 4770 O 467.218 -0.942244 1.63261 0
M  V30 4771 C 464.345 -1.34525 3.10839 0
M  V30 4772 C 463.391 -0.773805 4.19422 0
M  V30 4773 S 464.224 0.377525 5.34168 0
M  V30 4774 C 465.38 -0.727164 6.21662 0
M  V30 4775 H 465.613 0.431218 2.94156 0
M  V30 4776 H 463.146 0.3408 1.50592 0
M  V30 4777 H 465.104 -1.97683 3.59766 0
M  V30 4778 H 463.765 -1.99073 2.42958 0
M  V30 4779 H 462.958 -1.60187 4.77866 0
M  V30 4780 H 462.56 -0.218448 3.73361 0
M  V30 4781 H 464.852 -1.61992 6.57849 0
M  V30 4782 H 465.795 -0.180135 7.07871 0
M  V30 4783 H 466.203 -1.01863 5.55233 0
M  V30 4784 N 465.601 -1.54893 0.290851 0
M  V30 4785 C 466.831 -2.04047 -0.323818 0
M  V30 4786 C 467.239 -1.16809 -1.48837 0
M  V30 4787 O 466.582 -0.184145 -1.82775 0
M  V30 4788 C 466.644 -3.49248 -0.852395 0
M  V30 4789 C 466.308 -4.56623 0.185557 0
M  V30 4790 C 467.305 -5.09985 1.01053 0
M  V30 4791 C 464.99 -5.01252 0.324332 0
M  V30 4792 C 466.984 -6.06507 1.96031 0
M  V30 4793 C 464.671 -5.97596 1.27757 0
M  V30 4794 C 465.669 -6.50107 2.09405 0
M  V30 4795 O 465.357 -7.44565 3.03114 0
M  V30 4796 H 465.089 -0.671735 -0.0758129 0
M  V30 4797 H 467.643 -2.00947 0.425393 0
M  V30 4798 H 465.873 -3.49639 -1.65195 0
M  V30 4799 H 467.562 -3.81654 -1.38185 0
M  V30 4800 H 468.328 -4.76307 0.914129 0
M  V30 4801 H 464.207 -4.60015 -0.301213 0
M  V30 4802 H 467.751 -6.47418 2.598 0
M  V30 4803 H 463.648 -6.30691 1.37473 0
M  V30 4804 H 464.416 -7.62334 2.97976 0
M  V30 4805 N 467.08 -0.0183926 -1.57589 0
M  V30 4806 C 468.01 0.965596 -2.12599 0
M  V30 4807 C 468.991 1.34641 -1.0395 0
M  V30 4808 O 470.176 1.42693 -1.31729 0
M  V30 4809 C 467.306 2.25149 -2.64434 0
M  V30 4810 C 466.26 2.01175 -3.77773 0
M  V30 4811 C 465.586 3.35937 -4.15994 0
M  V30 4812 C 466.886 1.35953 -5.04296 0
M  V30 4813 H 468.58 0.507504 -2.95067 0
M  V30 4814 H 466.126 0.242671 -1.41941 0
M  V30 4815 H 468.079 2.94357 -3.01549 0
M  V30 4816 H 466.803 2.73105 -1.79112 0
M  V30 4817 H 465.462 1.34388 -3.4108 0
M  V30 4818 H 465.11 3.81631 -3.27669 0
M  V30 4819 H 464.81 3.20705 -4.92364 0
M  V30 4820 H 466.334 4.0643 -4.55683 0
M  V30 4821 H 467.748 1.95144 -5.39065 0
M  V30 4822 H 466.145 1.31152 -5.85593 0
M  V30 4823 H 467.215 0.331071 -4.83768 0
M  V30 4824 N 468.558 1.5553 0.254621 0
M  V30 4825 C 469.488 1.9268 1.31897 0
M  V30 4826 C 470.469 0.790797 1.506 0
M  V30 4827 O 471.654 1.05045 1.63337 0
M  V30 4828 C 468.784 2.21477 2.67517 0
M  V30 4829 C 467.738 3.37256 2.63519 0
M  V30 4830 C 467.064 3.51576 4.02862 0
M  V30 4831 C 468.364 4.73157 2.21179 0
M  V30 4832 H 470.058 2.81832 1.01051 0
M  V30 4833 H 467.604 1.35599 0.484662 0
M  V30 4834 H 469.557 2.46055 3.42104 0
M  V30 4835 H 468.281 1.29144 2.99982 0
M  V30 4836 H 466.94 3.12675 1.9139 0
M  V30 4837 H 466.588 2.56676 4.32581 0
M  V30 4838 H 466.288 4.2943 4.01078 0
M  V30 4839 H 467.812 3.78467 4.79161 0
M  V30 4840 H 469.226 4.97158 2.85494 0
M  V30 4841 H 467.623 5.54058 2.30521 0
M  V30 4842 H 468.693 4.70739 1.16332 0
M  V30 4843 N 470.036 -0.519951 1.48776 0
M  V30 4844 C 470.966 -1.63253 1.66945 0
M  V30 4845 C 471.947 -1.62014 0.518224 0
M  V30 4846 O 473.132 -1.79053 0.751919 0
M  V30 4847 C 470.262 -3.0181 1.71836 0
M  V30 4848 C 469.216 -3.17911 2.8656 0
M  V30 4849 C 468.542 -4.5763 2.76548 0
M  V30 4850 C 469.842 -2.99729 4.27738 0
M  V30 4851 H 471.536 -1.48302 2.6009 0
M  V30 4852 H 469.082 -0.712026 1.25165 0
M  V30 4853 H 471.035 -3.79525 1.83135 0
M  V30 4854 H 469.759 -3.17806 0.752775 0
M  V30 4855 H 468.418 -2.42616 2.74833 0
M  V30 4856 H 468.066 -4.70476 1.77937 0
M  V30 4857 H 467.766 -4.69346 3.53536 0
M  V30 4858 H 469.29 -5.37431 2.89828 0
M  V30 4859 H 470.704 -3.67228 4.40246 0
M  V30 4860 H 469.101 -3.22932 5.05801 0
M  V30 4861 H 470.171 -1.96047 4.43502 0
M  V30 4862 N 471.514 -1.37532 -0.769588 0
M  V30 4863 C 472.461 -1.3347 -1.88293 0
M  V30 4864 C 473.431 -0.199891 -1.64893 0
M  V30 4865 O 474.616 -0.389594 -1.8678 0
M  V30 4866 C 471.756 -1.14968 -3.25387 0
M  V30 4867 C 470.869 -2.37698 -3.60727 0
M  V30 4868 C 470.004 -2.12051 -4.8704 0
M  V30 4869 C 469.043 -3.30636 -5.15117 0
M  V30 4870 N 468.18 -3.04527 -6.3262 0
M  V30 4871 H 473.02 -2.28658 -1.911 0
M  V30 4872 H 470.557 -1.13622 -0.934257 0
M  V30 4873 H 472.515 -1.02261 -4.04473 0
M  V30 4874 H 471.145 -0.234263 -3.21949 0
M  V30 4875 H 470.197 -2.61137 -2.76608 0
M  V30 4876 H 471.509 -3.26131 -3.77413 0
M  V30 4877 H 470.663 -1.96388 -5.74035 0
M  V30 4878 H 469.402 -1.20959 -4.72462 0
M  V30 4879 H 468.407 -3.46836 -4.26597 0
M  V30 4880 H 469.632 -4.22582 -5.31603 0
M  V30 4881 H 467.578 -2.16067 -6.19396 0
M  V30 4882 H 467.495 -3.86503 -6.49732 0
M  V30 4883 H 468.763 -2.92485 -7.22546 0
M  V30 4884 N 472.992 0.995999 -1.22138 0
M  V30 4885 C 473.902 2.11985 -1.00496 0
M  V30 4886 C 474.918 1.7394 0.0457701 0
M  V30 4887 O 476.094 2.00868 -0.146273 0
M  V30 4888 C 473.159 3.41779 -0.582086 0
M  V30 4889 C 472.22 3.93943 -1.70608 0
M  V30 4890 C 471.453 5.17542 -1.30328 0
M  V30 4891 O 471.676 5.70114 -0.180743 0
M  V30 4892 O 470.61 5.63382 -2.11861 0
M  V30 4893 H 474.436 2.33123 -1.94647 0
M  V30 4894 H 472.021 1.10358 -1.00705 0
M  V30 4895 H 473.903 4.1989 -0.356467 0
M  V30 4896 H 472.578 3.22007 0.330592 0
M  V30 4897 H 471.485 3.17019 -1.98619 0
M  V30 4898 H 472.818 4.18141 -2.59651 0
M  V30 4899 N 474.47 1.03057 1.19235 0
M  V30 4900 C 475.886 0.747947 1.40989 0
M  V30 4901 C 476.086 -0.666752 1.90149 0
M  V30 4902 O 475.142 -1.43249 2.07933 0
M  V30 4903 C 476.455 1.7855 2.41951 0
M  V30 4904 C 478.003 1.80524 2.55695 0
M  V30 4905 C 478.478 2.83243 3.59913 0
M  V30 4906 N 479.969 2.8207 3.67411 0
M  V30 4907 C 480.704 3.58204 4.47747 0
M  V30 4908 N 480.2 4.44057 5.31775 0
M  V30 4909 N 481.993 3.46738 4.42413 0
M  V30 4910 H 474.144 1.94367 0.856468 0
M  V30 4911 H 476.407 0.840412 0.438647 0
M  V30 4912 H 476.113 2.79973 2.12857 0
M  V30 4913 H 475.987 1.6092 3.41152 0
M  V30 4914 H 478.374 0.79778 2.84112 0
M  V30 4915 H 478.455 2.02229 1.56643 0
M  V30 4916 H 478.099 3.84161 3.32239 0
M  V30 4917 H 478.029 2.58795 4.5862 0
M  V30 4918 H 480.52 2.19803 3.074 0
M  V30 4919 H 480.833 4.98884 5.90199 0
M  V30 4920 H 479.178 4.48129 5.3123 0
M  V30 4921 H 482.369 2.79077 3.75811 0
M  V30 4922 H 482.542 4.06322 5.04783 0
M  V30 4923 N 475.948 -1.35272 0.808662 0
M  V30 4924 C 476.911 -2.28082 0.226093 0
M  V30 4925 C 477.911 -1.49673 -0.587762 0
M  V30 4926 O 479.101 -1.69404 -0.405943 0
M  V30 4927 C 476.233 -3.33955 -0.684596 0
M  V30 4928 H 477.426 -2.81116 1.04469 0
M  V30 4929 H 474.979 -1.45162 0.579466 0
M  V30 4930 H 475.714 -2.86111 -1.5268 0
M  V30 4931 H 475.499 -3.91965 -0.102699 0
M  V30 4932 H 476.989 -4.03219 -1.08646 0
M  V30 4933 N 477.426 -0.562348 -1.47226 0
M  V30 4934 C 478.356 0.170627 -2.32876 0
M  V30 4935 C 479.337 0.903748 -1.44106 0
M  V30 4936 O 480.522 0.883206 -1.72954 0
M  V30 4937 C 477.652 1.19786 -3.25989 0
M  V30 4938 C 476.606 0.580875 -4.2404 0
M  V30 4939 C 475.932 1.71311 -5.06514 0
M  V30 4940 C 477.232 -0.468714 -5.20193 0
M  V30 4941 H 478.926 -0.544441 -2.94408 0
M  V30 4942 H 476.472 -0.263271 -1.41573 0
M  V30 4943 H 478.425 1.71884 -3.84752 0
M  V30 4944 H 477.149 1.94294 -2.62521 0
M  V30 4945 H 475.808 0.0811538 -3.6651 0
M  V30 4946 H 475.456 2.44736 -4.39447 0
M  V30 4947 H 475.156 1.30604 -5.72902 0
M  V30 4948 H 476.68 2.23725 -5.68137 0
M  V30 4949 H 478.094 -0.0336028 -5.7329 0
M  V30 4950 H 476.491 -0.794957 -5.94811 0
M  V30 4951 H 477.561 -1.36269 -4.65359 0
M  V30 4952 N 478.904 1.54736 -0.299062 0
M  V30 4953 C 479.867 2.22127 0.565012 0
M  V30 4954 C 480.867 1.20669 1.06281 0
M  V30 4955 O 482.057 1.45417 0.959145 0
M  V30 4956 C 479.189 2.90611 1.78208 0
M  V30 4957 H 480.382 2.99891 -0.0237448 0
M  V30 4958 H 477.935 1.5622 -0.0498788 0
M  V30 4959 H 478.67 2.16921 2.41072 0
M  V30 4960 H 478.455 3.64984 1.43281 0
M  V30 4961 H 479.945 3.42026 2.396 0
M  V30 4962 N 480.382 0.0267497 1.57577 0
M  V30 4963 C 481.629 -0.652404 1.91703 0
M  V30 4964 C 481.957 -1.72271 0.902936 0
M  V30 4965 O 481.212 -1.955 -0.0884843 0
M  V30 4966 C 481.511 -1.30914 3.3256 0
M  V30 4967 C 481.177 -0.369441 4.49384 0
M  V30 4968 C 479.839 -0.110791 4.81072 0
M  V30 4969 C 482.191 0.275971 5.20469 0
M  V30 4970 C 479.519 0.801116 5.81205 0
M  V30 4971 C 481.871 1.17592 6.21575 0
M  V30 4972 C 480.535 1.44348 6.51705 0
M  V30 4973 H 479.805 -0.238732 0.70149 0
M  V30 4974 H 482.452 0.0880091 1.91298 0
M  V30 4975 H 480.757 -2.12425 3.29216 0
M  V30 4976 H 482.454 -1.84115 3.56234 0
M  V30 4977 H 479.044 -0.581211 4.24641 0
M  V30 4978 H 483.228 0.0892 4.9622 0
M  V30 4979 H 478.484 1.01614 6.02897 0
M  V30 4980 H 482.658 1.68223 6.75777 0
M  V30 4981 H 480.285 2.15176 7.29111 0
M  V30 4982 N 481.861 -1.55662 -0.24637 0
M  V30 4983 C 483.277 -1.48098 -0.594907 0
M  V30 4984 C 483.477 -0.717044 -1.8831 0
M  V30 4985 O 482.533 -0.246618 -2.51293 0
M  V30 4986 C 483.846 -2.92507 -0.697146 0
M  V30 4987 C 485.394 -3.02881 -0.789436 0
M  V30 4988 C 485.869 -4.48598 -0.923232 0
M  V30 4989 N 487.36 -4.52538 -0.988088 0
M  V30 4990 C 488.095 -5.62536 -1.11089 0
M  V30 4991 N 487.591 -6.82342 -1.19919 0
M  V30 4992 N 489.384 -5.50334 -1.14408 0
M  V30 4993 H 481.535 -2.0377 0.599278 0
M  V30 4994 H 483.798 -0.925145 0.20691 0
M  V30 4995 H 483.504 -3.51242 0.179396 0
M  V30 4996 H 483.378 -3.43024 -1.5689 0
M  V30 4997 H 485.765 -2.44226 -1.65643 0
M  V30 4998 H 485.846 -2.55574 0.107482 0
M  V30 4999 H 485.49 -5.07864 -0.0607927 0
M  V30 5000 H 485.42 -4.93587 -1.8352 0
M  V30 5001 H 487.911 -3.66248 -0.931167 0
M  V30 5002 H 488.224 -7.61924 -1.29197 0
M  V30 5003 H 486.569 -6.85102 -1.16876 0
M  V30 5004 H 489.76 -4.5567 -1.07158 0
M  V30 5005 H 489.933 -6.36096 -1.23634 0
M  V30 5006 N 483.339 0.512053 -1.4905 0
M  V30 5007 C 484.302 1.59704 -1.64399 0
M  V30 5008 C 485.302 1.52285 -0.516317 0
M  V30 5009 O 486.492 1.55635 -0.782527 0
M  V30 5010 C 483.624 2.9935 -1.63102 0
M  V30 5011 H 484.817 1.47428 -2.61161 0
M  V30 5012 H 482.37 0.735469 -1.37915 0
M  V30 5013 H 483.105 3.17116 -0.678836 0
M  V30 5014 H 482.89 3.06144 -2.44986 0
M  V30 5015 H 484.38 3.782 -1.77072 0
M  V30 5016 N 484.817 1.37938 0.762283 0
M  V30 5017 C 486.094 1.24196 1.51112 0
M  V30 5018 C 486.474 -0.160409 2.1049 0
M  V30 5019 O 485.822 -1.16904 1.96331 0
M  V30 5020 C 486.032 2.34537 2.58445 0
M  V30 5021 C 487.38 2.7254 3.25588 0
M  V30 5022 O 488.404 2.33783 2.68745 0
M  V30 5023 O 487.263 3.39343 4.28379 0
M  V30 5024 H 484.357 0.485175 0.669727 0
M  V30 5025 H 486.903 1.49743 0.798438 0
M  V30 5026 H 485.675 3.28406 2.12756 0
M  V30 5027 H 485.298 2.10505 3.37303 0
M  V30 5028 N 486.295 -0.989507 1.22664 0
M  V30 5029 C 487.706 -1.54406 1.04955 0
M  V30 5030 C 488.057 -1.92366 -0.385951 0
M  V30 5031 O 487.182 -1.75111 -1.27142 0
M  V30 5032 C 487.777 -2.80578 1.89899 0
M  V30 5033 C 486.336 -3.32464 1.76478 0
M  V30 5034 C 485.483 -2.05524 1.86159 0
M  V30 5035 H 488.434 -0.810211 1.3646 0
M  V30 5036 H 488.455 -3.53075 1.4184 0
M  V30 5037 H 487.967 -2.52918 2.94371 0
M  V30 5038 H 486.068 -3.65024 0.747528 0
M  V30 5039 H 486.181 -4.02838 2.59342 0
M  V30 5040 H 484.545 -2.19241 1.29636 0
M  V30 5041 H 485.328 -1.80258 2.92168 0
M  V30 5042 N 487.773 -1.03688 -1.18687 0
M  V30 5043 C 488.683 -0.634908 -2.25845 0
M  V30 5044 C 489.699 0.337065 -1.70704 0
M  V30 5045 O 490.875 0.192943 -2.00474 0
M  V30 5046 C 487.94 -0.000180054 -3.467 0
M  V30 5047 C 487.001 -1.02067 -4.1699 0
M  V30 5048 C 486.234 -0.41614 -5.32075 0
M  V30 5049 O 486.457 0.778712 -5.65059 0
M  V30 5050 O 485.391 -1.14296 -5.90948 0
M  V30 5051 H 489.217 -1.52757 -2.62486 0
M  V30 5052 H 486.802 -0.807533 -1.25695 0
M  V30 5053 H 488.684 0.353342 -4.19916 0
M  V30 5054 H 487.359 0.866367 -3.11891 0
M  V30 5055 H 486.266 -1.42592 -3.45859 0
M  V30 5056 H 487.599 -1.85786 -4.5579 0
M  V30 5057 N 489.251 1.34841 -0.815825 0
M  V30 5058 C 490.497 1.98793 -0.401129 0
M  V30 5059 C 490.83 1.64548 1.03139 0
M  V30 5060 O 490.105 0.913487 1.71714 0
M  V30 5061 C 490.388 3.55143 -0.595409 0
M  V30 5062 C 490.241 3.99155 -2.07352 0
M  V30 5063 C 491.56 4.40092 -0.0268823 0
M  V30 5064 H 488.679 0.722146 -0.14722 0
M  V30 5065 H 491.321 1.59847 -1.02707 0
M  V30 5066 H 489.471 3.8845 -0.0625779 0
M  V30 5067 H 491.143 3.76216 -2.66945 0
M  V30 5068 H 489.386 3.49726 -2.56659 0
M  V30 5069 H 490.057 5.07971 -2.1603 0
M  V30 5070 H 492.533 4.13298 -0.482042 0
M  V30 5071 H 491.409 5.48562 -0.19267 0
M  V30 5072 H 491.67 4.29016 1.06759 0
M  V30 5073 N 490.729 0.570148 1.46925 0
M  V30 5074 C 491.661 -0.207909 2.28255 0
M  V30 5075 C 492.674 -0.867301 1.37774 0
M  V30 5076 O 493.863 -0.738976 1.62485 0
M  V30 5077 C 490.963 -1.31298 3.12433 0
M  V30 5078 C 490.136 -0.747915 4.30958 0
M  V30 5079 C 489.195 -1.7391 4.9663 0
M  V30 5080 O 488.221 -1.2801 5.54619 0
M  V30 5081 N 489.423 -3.07288 4.92498 0
M  V30 5082 H 492.188 0.489794 2.95671 0
M  V30 5083 H 489.749 0.407076 1.56699 0
M  V30 5084 H 491.741 -1.97507 3.53232 0
M  V30 5085 H 490.311 -1.91373 2.47175 0
M  V30 5086 H 489.531 0.0913066 3.94094 0
M  V30 5087 H 490.819 -0.349958 5.07595 0
M  V30 5088 H 490.217 -3.47213 4.46609 0
M  V30 5089 H 488.774 -3.69021 5.37277 0
M  V30 5090 N 492.207 -1.54576 0.307264 0
M  V30 5091 C 493.117 -2.27435 -0.57536 0
M  V30 5092 C 494.133 -1.31183 -1.14311 0
M  V30 5093 O 495.309 -1.64175 -1.16656 0
M  V30 5094 C 492.374 -3.00566 -1.72803 0
M  V30 5095 C 491.435 -4.12369 -1.19373 0
M  V30 5096 C 490.668 -4.82003 -2.29147 0
M  V30 5097 O 490.891 -4.51038 -3.49171 0
M  V30 5098 O 489.825 -5.69271 -1.95485 0
M  V30 5099 H 493.651 -3.03696 0.0158558 0
M  V30 5100 H 491.236 -1.49219 0.0735064 0
M  V30 5101 H 493.118 -3.46416 -2.39946 0
M  V30 5102 H 491.793 -2.27195 -2.30574 0
M  V30 5103 H 490.7 -3.70905 -0.487851 0
M  V30 5104 H 492.033 -4.87736 -0.661376 0
M  V30 5105 N 493.685 -0.035106 -1.57561 0
M  V30 5106 C 494.648 0.929819 -2.09492 0
M  V30 5107 C 495.648 1.25026 -1.01119 0
M  V30 5108 O 496.838 1.18961 -1.27255 0
M  V30 5109 C 493.97 2.24457 -2.56577 0
M  V30 5110 H 495.163 0.479935 -2.96035 0
M  V30 5111 H 492.716 0.213033 -1.54841 0
M  V30 5112 H 493.451 2.74061 -1.73382 0
M  V30 5113 H 493.236 2.02508 -3.35757 0
M  V30 5114 H 494.726 2.93607 -2.96959 0
M  V30 5115 N 495.163 1.55791 0.238111 0
M  V30 5116 C 496.096 1.86036 1.32158 0
M  V30 5117 C 497.074 0.716216 1.45976 0
M  V30 5118 O 498.258 0.962882 1.62052 0
M  V30 5119 C 495.385 2.05281 2.69402 0
M  V30 5120 C 494.431 3.27939 2.72687 0
M  V30 5121 S 495.264 4.84342 2.28413 0
M  V30 5122 C 496.42 5.06604 3.67565 0
M  V30 5123 H 496.653 2.77644 1.06306 0
M  V30 5124 H 494.186 1.48012 0.439537 0
M  V30 5125 H 496.144 2.17053 3.48423 0
M  V30 5126 H 494.805 1.14499 2.92487 0
M  V30 5127 H 493.998 3.38398 3.73501 0
M  V30 5128 H 493.6 3.14938 2.01717 0
M  V30 5129 H 495.892 4.94486 4.6313 0
M  V30 5130 H 496.835 6.08554 3.62033 0
M  V30 5131 H 497.243 4.34409 3.60485 0
M  V30 5132 N 496.642 -0.504142 1.49319 0
M  V30 5133 C 497.589 -1.60603 1.65756 0
M  V30 5134 C 498.559 -1.58425 0.499082 0
M  V30 5135 O 499.744 -1.76459 0.725728 0
M  V30 5136 C 496.884 -2.98764 1.72726 0
M  V30 5137 C 495.997 -3.10982 2.99857 0
M  V30 5138 C 495.132 -4.39857 2.97824 0
M  V30 5139 C 494.171 -4.45697 4.19548 0
M  V30 5140 N 493.308 -5.65995 4.15444 0
M  V30 5141 H 498.148 -1.45895 2.59843 0
M  V30 5142 H 495.685 -0.709891 1.28837 0
M  V30 5143 H 497.643 -3.78839 1.74747 0
M  V30 5144 H 496.273 -3.12183 0.821075 0
M  V30 5145 H 495.325 -2.23991 3.07461 0
M  V30 5146 H 496.637 -3.11157 3.89849 0
M  V30 5147 H 495.791 -5.2825 2.98391 0
M  V30 5148 H 494.53 -4.42242 2.05604 0
M  V30 5149 H 493.535 -3.55707 4.19229 0
M  V30 5150 H 494.76 -4.4503 5.12957 0
M  V30 5151 H 492.706 -5.69229 3.26059 0
M  V30 5152 H 492.623 -5.67773 4.99169 0
M  V30 5153 H 493.891 -6.56604 4.20109 0
M  V30 5154 N 498.12 -1.38341 -0.754957 0
M  V30 5155 C 499.348 -1.37704 -1.54419 0
M  V30 5156 C 499.763 0.0335243 -1.8877 0
M  V30 5157 O 499.12 0.999773 -1.52679 0
M  V30 5158 C 499.171 -2.23136 -2.84416 0
M  V30 5159 O 498.892 -3.58697 -2.51531 0
M  V30 5160 C 500.393 -2.30664 -3.78562 0
M  V30 5161 H 497.613 -0.471061 -0.477852 0
M  V30 5162 H 500.157 -1.81902 -0.934446 0
M  V30 5163 H 498.312 -1.82403 -3.41772 0
M  V30 5164 H 498.726 -4.03665 -3.34896 0
M  V30 5165 H 500.2 -2.9473 -4.66732 0
M  V30 5166 H 500.677 -1.3199 -4.18898 0
M  V30 5167 H 501.283 -2.71781 -3.27131 0
M  V30 5168 N 499.598 0.982988 -1.23187 0
M  V30 5169 C 500.823 1.76455 -1.08988 0
M  V30 5170 C 501.248 1.84726 0.354691 0
M  V30 5171 O 500.606 1.30699 1.25649 0
M  V30 5172 C 500.654 3.17094 -1.71708 0
M  V30 5173 O 499.758 4.00648 -0.977477 0
M  V30 5174 H 499.099 0.542988 -0.382177 0
M  V30 5175 H 501.629 1.23413 -1.63188 0
M  V30 5176 H 501.639 3.67684 -1.76841 0
M  V30 5177 H 500.314 3.10389 -2.76823 0
M  V30 5178 H 498.891 3.59161 -1.0029 0
M  V30 5179 N 501.076 1.04316 1.18135 0
M  V30 5180 C 502.324 0.746542 1.87806 0
M  V30 5181 C 502.645 -0.728082 1.80898 0
M  V30 5182 O 501.915 -1.52554 1.22899 0
M  V30 5183 H 500.495 0.273157 0.695265 0
M  V30 5184 H 503.157 1.32044 1.43354 0
M  V30 5185 H 502.253 1.05362 2.93778 0
M  V30 5186 N 502.554 -1.34406 0.822964 0
M  V30 5187 C 503.8 -1.98578 0.411666 0
M  V30 5188 C 504.133 -1.65093 -1.02264 0
M  V30 5189 O 503.408 -0.92258 -1.71227 0
M  V30 5190 C 503.691 -3.54823 0.614235 0
M  V30 5191 C 503.544 -3.9805 2.09466 0
M  V30 5192 C 504.863 -4.40071 0.050221 0
M  V30 5193 H 501.982 -0.721355 0.151047 0
M  V30 5194 H 504.624 -1.59301 1.03554 0
M  V30 5195 H 502.774 -3.88411 0.0831774 0
M  V30 5196 H 504.446 -3.74795 2.68936 0
M  V30 5197 H 502.689 -3.4836 2.5851 0
M  V30 5198 H 503.36 -5.06819 2.18721 0
M  V30 5199 H 505.836 -4.13037 0.503953 0
M  V30 5200 H 504.712 -5.48452 0.221759 0
M  V30 5201 H 504.973 -4.29576 -1.04482 0
M  V30 5202 N 504.032 -0.577932 -1.46621 0
M  V30 5203 C 505.279 -0.0616879 -2.02406 0
M  V30 5204 C 505.607 1.29638 -1.44997 0
M  V30 5205 O 504.862 1.86176 -0.60308 0
M  V30 5206 C 505.161 0.0590832 -3.57351 0
M  V30 5207 C 504.827 -1.23077 -4.33777 0
M  V30 5208 C 503.489 -1.58416 -4.54376 0
M  V30 5209 C 505.841 -2.08457 -4.77698 0
M  V30 5210 C 503.169 -2.78943 -5.16147 0
M  V30 5211 C 505.521 -3.28204 -5.408 0
M  V30 5212 C 504.185 -3.63832 -5.59627 0
M  V30 5213 H 503.455 -0.0225732 -0.740656 0
M  V30 5214 H 506.102 -0.753609 -1.76048 0
M  V30 5215 H 504.407 0.834104 -3.82818 0
M  V30 5216 H 506.104 0.474202 -3.98186 0
M  V30 5217 H 502.694 -0.945652 -4.18038 0
M  V30 5218 H 506.878 -1.82459 -4.61544 0
M  V30 5219 H 502.134 -3.06689 -5.28916 0
M  V30 5220 H 506.308 -3.94634 -5.73792 0
M  V30 5221 H 503.935 -4.57315 -6.07262 0
M  V30 5222 N 505.51 1.54411 -0.315457 0
M  V30 5223 C 506.42 2.27737 0.56329 0
M  V30 5224 C 507.436 1.31787 1.13614 0
M  V30 5225 O 508.612 1.64791 1.15784 0
M  V30 5226 C 505.677 3.01478 1.71207 0
M  V30 5227 C 504.738 4.12997 1.17185 0
M  V30 5228 C 503.971 4.83212 2.26588 0
M  V30 5229 O 504.194 4.52884 3.46775 0
M  V30 5230 O 503.128 5.70299 1.92463 0
M  V30 5231 H 506.954 3.03683 -0.0319614 0
M  V30 5232 H 504.539 1.49178 -0.0814188 0
M  V30 5233 H 506.421 3.47683 2.38106 0
M  V30 5234 H 505.096 2.28414 2.29366 0
M  V30 5235 H 504.003 3.71159 0.468174 0
M  V30 5236 H 505.336 4.8808 0.635501 0
M  V30 5237 N 506.988 0.0434614 1.5754 0
M  V30 5238 C 507.918 -0.931651 2.14109 0
M  V30 5239 C 508.899 -1.32971 1.06079 0
M  V30 5240 O 510.084 -1.40579 1.33982 0
M  V30 5241 C 507.214 -2.20914 2.67982 0
M  V30 5242 C 506.168 -1.95139 3.80926 0
M  V30 5243 C 505.494 -3.29276 4.21285 0
M  V30 5244 C 506.794 -1.27913 5.06395 0
M  V30 5245 H 508.488 -0.460497 2.95837 0
M  V30 5246 H 506.034 -0.220058 1.42309 0
M  V30 5247 H 507.987 -2.89522 3.06194 0
M  V30 5248 H 506.711 -2.70221 1.83434 0
M  V30 5249 H 505.37 -1.28945 3.43175 0
M  V30 5250 H 505.018 -3.76369 3.33699 0
M  V30 5251 H 504.718 -3.12831 4.97404 0
M  V30 5252 H 506.242 -3.99129 4.62091 0
M  V30 5253 H 507.656 -1.86544 5.42102 0
M  V30 5254 H 506.053 -1.2182 5.87605 0
M  V30 5255 H 507.123 -0.254066 4.84234 0
M  V30 5256 N 508.466 -1.55915 -0.229846 0
M  V30 5257 C 509.714 -1.7819 -0.953565 0
M  V30 5258 C 510.035 -0.610504 -1.85197 0
M  V30 5259 O 509.305 0.372988 -1.92316 0
M  V30 5260 H 507.885 -0.657208 -0.355087 0
M  V30 5261 H 510.547 -1.9337 -0.243693 0
M  V30 5262 H 509.643 -2.70011 -1.56527 0
M  V30 5263 N 509.944 0.496216 -1.49584 0
M  V30 5264 C 510.854 1.62352 -1.69349 0
M  V30 5265 C 511.87 1.64184 -0.576147 0
M  V30 5266 O 513.046 1.82517 -0.85144 0
M  V30 5267 C 510.111 2.98698 -1.76013 0
M  V30 5268 C 509.172 3.07454 -2.99617 0
M  V30 5269 C 508.405 4.37296 -3.05953 0
M  V30 5270 O 508.628 5.2637 -2.19752 0
M  V30 5271 O 507.562 4.51124 -3.9846 0
M  V30 5272 H 511.388 1.48606 -2.64859 0
M  V30 5273 H 508.973 0.673022 -1.33382 0
M  V30 5274 H 510.855 3.79725 -1.82721 0
M  V30 5275 H 509.53 3.12696 -0.836828 0
M  V30 5276 H 508.437 2.25597 -2.98424 0
M  V30 5277 H 509.77 2.98385 -3.91443 0
M  V30 5278 N 511.423 1.38739 0.74761 0
M  V30 5279 C 512.651 1.38521 1.53686 0
M  V30 5280 C 513.066 -0.0235129 1.88785 0
M  V30 5281 O 512.423 -0.991662 1.53207 0
M  V30 5282 C 512.474 2.24641 2.83229 0
M  V30 5283 O 512.195 3.60026 2.49625 0
M  V30 5284 C 513.696 2.32669 3.77333 0
M  V30 5285 H 510.916 0.473589 0.475347 0
M  V30 5286 H 513.46 1.82395 0.924786 0
M  V30 5287 H 511.615 1.84213 3.40799 0
M  V30 5288 H 512.029 4.05435 3.3275 0
M  V30 5289 H 513.503 2.97201 4.65162 0
M  V30 5290 H 513.98 1.3421 4.18192 0
M  V30 5291 H 514.586 2.73512 3.25685 0
M  V30 5292 N 512.901 -0.976442 1.23707 0
M  V30 5293 C 514.129 -1.75341 1.09833 0
M  V30 5294 C 514.544 -1.8553 -0.349885 0
M  V30 5295 O 513.901 -1.33732 -1.24185 0
M  V30 5296 C 513.952 -3.17833 1.72233 0
M  V30 5297 O 513.673 -3.08167 3.11391 0
M  V30 5298 C 515.174 -4.11906 1.63853 0
M  V30 5299 H 512.394 -0.550137 0.384175 0
M  V30 5300 H 514.938 -1.2265 1.63638 0
M  V30 5301 H 513.093 -3.67538 1.22452 0
M  V30 5302 H 513.507 -3.97897 3.41729 0
M  V30 5303 H 514.981 -5.09579 2.12211 0
M  V30 5304 H 515.458 -4.35109 0.598092 0
M  V30 5305 H 516.064 -3.68107 2.13019 0
M  V30 5306 N 514.379 -1.04941 -1.1758 0
M  V30 5307 C 515.309 -0.669172 -2.23706 0
M  V30 5308 C 516.29 0.331835 -1.66832 0
M  V30 5309 O 517.475 0.209988 -1.93061 0
M  V30 5310 C 514.605 -0.0404889 -3.47276 0
M  V30 5311 C 513.559 -0.965983 -4.16957 0
M  V30 5312 C 512.885 -0.201312 -5.34321 0
M  V30 5313 C 514.185 -2.28902 -4.69469 0
M  V30 5314 H 515.879 -1.55639 -2.55767 0
M  V30 5315 H 513.425 -0.749793 -1.22939 0
M  V30 5316 H 515.378 0.237298 -4.20731 0
M  V30 5317 H 514.102 0.881658 -3.14475 0
M  V30 5318 H 512.761 -1.22829 -3.45411 0
M  V30 5319 H 512.409 0.723519 -4.97769 0
M  V30 5320 H 512.109 -0.817968 -5.81879 0
M  V30 5321 H 513.633 0.0692499 -6.10561 0
M  V30 5322 H 515.047 -2.07132 -5.34574 0
M  V30 5323 H 513.444 -2.85942 -5.27596 0
M  V30 5324 H 514.514 -2.92937 -3.86414 0
M  V30 5325 N 515.857 1.33968 -0.830081 0
M  V30 5326 C 516.805 2.31301 -0.245435 0
M  V30 5327 C 517.799 1.57734 0.617762 0
M  V30 5328 O 519.005 1.72674 0.508303 0
M  V30 5329 H 515.38 0.749552 -0.0606316 0
M  V30 5330 H 517.351 2.78129 -1.08105 0
M  V30 5331 C 516.1 3.42961 0.572084 0
M  V30 5332 H 515.423 3.99714 -0.0828118 0
M  V30 5333 H 516.863 4.13286 0.94715 0
M  V30 5334 C 515.322 2.88043 1.74737 0
M  V30 5335 O 515.852 2.83508 2.8458 0
M  V30 5336 N 514.058 2.44768 1.56642 0
M  V30 5337 H 513.605 2.48656 0.672901 0
M  V30 5338 H 513.563 2.08375 2.3543 0
M  V30 5339 N 517.335 0.585699 1.46312 0
M  V30 5340 C 518.298 -0.135673 2.28798 0
M  V30 5341 C 519.298 -0.815988 1.38558 0
M  V30 5342 O 520.488 -0.667487 1.60904 0
M  V30 5343 C 517.62 -1.20163 3.1902 0
M  V30 5344 H 518.813 0.589257 2.94054 0
M  V30 5345 H 516.366 0.343794 1.52472 0
M  V30 5346 H 517.101 -1.95804 2.58517 0
M  V30 5347 H 516.886 -0.718282 3.85465 0
M  V30 5348 H 518.376 -1.70749 3.81096 0
M  V30 5349 N 518.813 -1.54241 0.323641 0
M  V30 5350 C 520.061 -2.00174 -0.278359 0
M  V30 5351 C 520.382 -1.2134 -1.52648 0
M  V30 5352 O 519.652 -0.315244 -1.93347 0
M  V30 5353 H 518.232 -0.739463 -0.105845 0
M  V30 5354 H 520.894 -1.89864 0.440204 0
M  V30 5355 H 519.99 -3.07486 -0.5347 0
M  V30 5356 N 520.291 -0.0518155 -1.57515 0
M  V30 5357 C 521.201 0.937539 -2.15052 0
M  V30 5358 C 522.217 1.34121 -1.10849 0
M  V30 5359 O 523.393 1.418 -1.4302 0
M  V30 5360 C 520.458 2.19379 -2.68466 0
M  V30 5361 C 519.519 1.84841 -3.87469 0
M  V30 5362 C 518.752 3.04477 -4.38326 0
M  V30 5363 O 518.975 4.17868 -3.88256 0
M  V30 5364 O 517.909 2.85453 -5.29906 0
M  V30 5365 H 521.735 0.478201 -2.99912 0
M  V30 5366 H 519.32 0.17012 -1.48428 0
M  V30 5367 H 521.202 2.93084 -3.02787 0
M  V30 5368 H 519.877 2.64449 -1.86677 0
M  V30 5369 H 518.784 1.08449 -3.58036 0
M  V30 5370 H 520.117 1.44569 -4.7049 0
M  V30 5371 N 521.769 1.56035 0.221574 0
M  V30 5372 C 522.994 1.83476 0.967026 0
M  V30 5373 C 523.419 0.632139 1.7716 0
M  V30 5374 O 522.777 -0.419082 1.7639 0
M  V30 5375 C 522.825 3.08907 1.86034 0
M  V30 5376 O 521.929 2.876 2.95567 0
M  V30 5377 H 521.27 0.604913 0.273817 0
M  V30 5378 H 523.8 2.03247 0.234893 0
M  V30 5379 H 523.81 3.3901 2.27016 0
M  V30 5380 H 522.485 3.96068 1.26898 0
M  V30 5381 H 521.062 2.6873 2.58532 0
M  V30 5382 N 523.247 -0.488276 1.49845 0
M  V30 5383 C 524.21 -1.57069 1.66919 0
M  V30 5384 C 525.21 -1.51445 0.540479 0
M  V30 5385 O 526.4 -1.5437 0.807188 0
M  V30 5386 C 523.532 -2.96718 1.67844 0
M  V30 5387 H 524.725 -1.43254 2.63474 0
M  V30 5388 H 522.278 -0.713435 1.39068 0
M  V30 5389 H 523.013 -3.15996 0.7292 0
M  V30 5390 H 522.798 -3.02208 2.49826 0
M  V30 5391 H 524.288 -3.75335 1.83066 0
M  V30 5392 N 524.725 -1.39134 -0.740242 0
M  V30 5393 C 525.688 -1.37217 -1.83587 0
M  V30 5394 C 526.688 -0.270221 -1.58513 0
M  V30 5395 O 527.878 -0.527843 -1.6601 0
M  V30 5396 C 525.01 -1.13959 -3.21288 0
M  V30 5397 H 526.203 -2.34705 -1.86691 0
M  V30 5398 H 523.756 -1.24622 -0.94335 0
M  V30 5399 H 524.491 -0.17131 -3.23847 0
M  V30 5400 H 524.276 -1.93754 -3.40884 0
M  V30 5401 H 525.766 -1.15346 -4.01354 0
M  V30 5402 N 526.204 0.969867 -1.24223 0
M  V30 5403 C 527.481 1.68774 -0.988664 0
M  V30 5404 C 527.861 2.05342 0.489673 0
M  V30 5405 O 527.209 1.75486 1.46345 0
M  V30 5406 C 527.419 2.92135 -1.90941 0
M  V30 5407 C 528.767 3.64422 -2.17903 0
M  V30 5408 O 529.791 3.02188 -1.88576 0
M  V30 5409 O 528.65 4.76446 -2.67697 0
M  V30 5410 H 525.744 0.737736 -0.37373 0
M  V30 5411 H 528.29 1.02415 -1.35312 0
M  V30 5412 H 527.062 2.61788 -2.90831 0
M  V30 5413 H 526.685 3.66228 -1.54798 0
M  V30 5414 N 527.682 1.05563 1.17022 0
M  V30 5415 C 528.612 0.681026 2.23348 0
M  V30 5416 C 529.593 -0.322983 1.67005 0
M  V30 5417 O 530.778 -0.199746 1.9317 0
M  V30 5418 C 527.908 0.0589053 3.4725 0
M  V30 5419 C 526.862 0.988082 4.16438 0
M  V30 5420 C 526.188 0.229646 5.34207 0
M  V30 5421 C 527.488 2.31388 4.68249 0
M  V30 5422 H 529.182 1.56993 2.54938 0
M  V30 5423 H 526.728 0.756302 1.2254 0
M  V30 5424 H 528.681 -0.214982 4.20851 0
M  V30 5425 H 527.405 -0.864968 3.14938 0
M  V30 5426 H 526.064 1.24659 3.44754 0
M  V30 5427 H 525.712 -0.697111 4.98146 0
M  V30 5428 H 525.412 0.848815 5.81437 0
M  V30 5429 H 526.936 -0.0368694 6.10589 0
M  V30 5430 H 528.35 2.09964 5.33468 0
M  V30 5431 H 526.747 2.88736 5.26072 0
M  V30 5432 H 527.817 2.94982 3.84855 0
M  V30 5433 N 529.16 -1.33526 0.837174 0
M  V30 5434 C 530.093 -2.27192 0.214233 0
M  V30 5435 C 531.071 -1.49575 -0.637657 0
M  V30 5436 O 532.255 -1.78753 -0.598291 0
M  V30 5437 C 529.382 -3.31401 -0.699367 0
M  V30 5438 C 528.428 -4.26431 0.0768429 0
M  V30 5439 S 529.261 -5.15954 1.4336 0
M  V30 5440 C 530.417 -6.23692 0.525251 0
M  V30 5441 H 530.65 -2.79679 1.00831 0
M  V30 5442 H 528.183 -1.4079 0.633834 0
M  V30 5443 H 530.141 -3.91924 -1.22088 0
M  V30 5444 H 528.802 -2.77732 -1.46709 0
M  V30 5445 H 527.995 -5.00193 -0.618268 0
M  V30 5446 H 527.597 -3.70235 0.529364 0
M  V30 5447 H 529.889 -6.76931 -0.277575 0
M  V30 5448 H 530.832 -6.97283 1.23299 0
M  V30 5449 H 531.24 -5.64398 0.107351 0
M  V30 5450 N 530.638 -0.59345 -1.46 0
M  V30 5451 C 531.586 0.146268 -2.3214 0
M  V30 5452 C 532.58 0.873743 -1.45128 0
M  V30 5453 O 533.786 0.790912 -1.61693 0
M  V30 5454 H 530.161 0.0660349 -0.749095 0
M  V30 5455 H 532.132 -0.598895 -2.92328 0
M  V30 5456 C 530.881 1.1396 -3.28494 0
M  V30 5457 H 530.204 0.589252 -3.95434 0
M  V30 5458 H 531.644 1.62738 -3.91526 0
M  V30 5459 C 530.103 2.20604 -2.54628 0
M  V30 5460 O 530.633 3.28128 -2.31722 0
M  V30 5461 N 528.839 1.95502 -2.15005 0
M  V30 5462 H 528.386 1.0807 -2.33834 0
M  V30 5463 H 528.344 2.67064 -1.65904 0
M  V30 5464 N 532.116 1.54067 -0.331816 0
M  V30 5465 C 533.393 1.92915 0.322955 0
M  V30 5466 C 533.773 1.26225 1.69205 0
M  V30 5467 O 533.121 0.408919 2.24811 0
M  V30 5468 C 533.331 3.46619 0.406946 0
M  V30 5469 C 534.679 4.19386 0.663339 0
M  V30 5470 O 535.703 3.5282 0.489536 0
M  V30 5471 O 534.562 5.37288 0.999193 0
M  V30 5472 H 531.656 0.805808 0.186016 0
M  V30 5473 H 534.202 1.65342 -0.382135 0
M  V30 5474 H 532.974 3.87354 -0.554287 0
M  V30 5475 H 532.597 3.80324 1.15929 0
M  V30 5476 N 533.594 0.0601682 1.57485 0
M  V30 5477 C 534.819 -0.624416 1.97777 0
M  V30 5478 C 535.244 -1.63051 0.937867 0
M  V30 5479 O 534.602 -1.81036 -0.0978845 0
M  V30 5480 C 534.65 -1.27979 3.37126 0
M  V30 5481 O 533.754 -2.39556 3.35688 0
M  V30 5482 H 533.095 -0.161581 0.64404 0
M  V30 5483 H 535.625 0.131237 2.04179 0
M  V30 5484 H 535.635 -1.62937 3.74053 0
M  V30 5485 H 534.31 -0.542501 4.12347 0
M  V30 5486 H 532.887 -2.06478 3.10517 0
M  V30 5487 N 535.072 -1.5615 -0.213296 0
M  V30 5488 C 536.035 -1.92249 -1.24792 0
M  V30 5489 C 537.035 -0.801828 -1.39382 0
M  V30 5490 O 538.225 -1.06948 -1.37506 0
M  V30 5491 C 535.357 -2.18056 -2.62039 0
M  V30 5492 H 536.55 -2.84793 -0.939845 0
M  V30 5493 H 534.103 -1.49559 -0.454062 0
M  V30 5494 H 534.838 -1.2809 -2.97932 0
M  V30 5495 H 534.623 -2.99703 -2.52825 0
M  V30 5496 H 536.113 -2.47051 -3.36683 0
M  V30 5497 N 536.55 0.480323 -1.50102 0
M  V30 5498 C 537.775 1.26126 -1.64642 0
M  V30 5499 C 538.2 1.85257 -0.325823 0
M  V30 5500 O 537.558 1.66854 0.709194 0
M  V30 5501 C 537.606 2.35243 -2.73301 0
M  V30 5502 O 536.71 3.39646 -2.33911 0
M  V30 5503 H 536.051 0.371463 -0.550374 0
M  V30 5504 H 538.581 0.572696 -1.96421 0
M  V30 5505 H 538.591 2.80695 -2.96098 0
M  V30 5506 H 537.266 1.91574 -3.6915 0
M  V30 5507 H 535.843 2.99969 -2.21525 0
M  V30 5508 N 538.028 1.39524 0.732853 0
M  V30 5509 C 539.275 1.36865 1.49246 0
M  V30 5510 C 539.603 -0.0347118 1.94469 0
M  V30 5511 O 538.858 -1.01596 1.67262 0
M  V30 5512 C 539.157 2.28916 2.74468 0
M  V30 5513 C 538.823 3.76506 2.481 0
M  V30 5514 C 537.485 4.16721 2.40619 0
M  V30 5515 C 539.837 4.69846 2.25598 0
M  V30 5516 C 537.165 5.48334 2.08679 0
M  V30 5517 C 539.517 6.01739 1.95174 0
M  V30 5518 C 538.181 6.41015 1.86163 0
M  V30 5519 H 537.451 0.500824 0.546129 0
M  V30 5520 H 540.098 1.72047 0.840958 0
M  V30 5521 H 538.403 1.86859 3.4437 0
M  V30 5522 H 540.1 2.2415 3.32502 0
M  V30 5523 H 536.69 3.44635 2.54803 0
M  V30 5524 H 540.874 4.39608 2.30344 0
M  V30 5525 H 536.13 5.77685 2.00226 0
M  V30 5526 H 540.304 6.73591 1.76771 0
M  V30 5527 H 537.931 7.42917 1.61179 0
M  V30 5528 N 539.506 -0.963266 1.24736 0
M  V30 5529 C 540.469 -2.04013 1.04457 0
M  V30 5530 C 541.469 -1.608 0.000335555 0
M  V30 5531 O 542.659 -1.72515 0.241719 0
M  V30 5532 C 539.791 -3.35858 0.584162 0
M  V30 5533 H 540.984 -2.23436 2.00041 0
M  V30 5534 H 538.537 -1.13914 1.07021 0
M  V30 5535 H 539.272 -3.22128 -0.374673 0
M  V30 5536 H 539.057 -3.68568 1.3379 0
M  V30 5537 H 540.547 -4.1502 0.463451 0
M  V30 5538 N 540.985 -1.06182 -1.16461 0
M  V30 5539 C 542.233 -0.776326 -1.86595 0
M  V30 5540 C 542.554 0.69921 -1.82033 0
M  V30 5541 O 541.824 1.50579 -1.2531 0
M  V30 5542 H 540.404 -0.284184 -0.690832 0
M  V30 5543 H 543.066 -1.34308 -1.41235 0
M  V30 5544 H 542.162 -1.10022 -2.92064 0
M  V30 5545 N 542.463 1.3308 -0.844243 0
M  V30 5546 C 543.71 1.97605 -0.44255 0
M  V30 5547 C 544.038 1.66856 0.999458 0
M  V30 5548 O 543.293 0.943586 1.7145 0
M  V30 5549 C 543.592 3.52045 -0.616354 0
M  V30 5550 C 543.258 4.02757 -2.02726 0
M  V30 5551 C 541.92 4.16316 -2.41317 0
M  V30 5552 C 544.272 4.29776 -2.9486 0
M  V30 5553 C 541.6 4.54232 -3.71335 0
M  V30 5554 C 543.952 4.69146 -4.24364 0
M  V30 5555 C 542.616 4.80911 -4.62904 0
M  V30 5556 H 541.886 0.723088 -0.161941 0
M  V30 5557 H 544.533 1.58663 -1.0723 0
M  V30 5558 H 542.838 3.91681 0.0966812 0
M  V30 5559 H 544.535 3.99981 -0.285756 0
M  V30 5560 H 541.125 3.9268 -1.71756 0
M  V30 5561 H 545.309 4.18818 -2.6628 0
M  V30 5562 H 540.565 4.61535 -4.00993 0
M  V30 5563 H 544.739 4.89008 -4.95827 0
M  V30 5564 H 542.366 5.10048 -5.63698 0
M  V30 5565 N 543.941 0.601185 1.45683 0
M  V30 5566 C 545.218 0.0261659 1.95582 0
M  V30 5567 C 545.598 -1.4399 1.5437 0
M  V30 5568 O 544.946 -2.13919 0.80318 0
M  V30 5569 C 545.156 0.217557 3.48321 0
M  V30 5570 C 546.504 0.0950076 4.24494 0
M  V30 5571 O 547.528 0.147345 3.55895 0
M  V30 5572 O 546.387 -0.025261 5.46494 0
M  V30 5573 H 543.481 -0.0393688 0.826062 0
M  V30 5574 H 546.027 0.670798 1.55879 0
M  V30 5575 H 544.799 1.23601 3.71266 0
M  V30 5576 H 544.422 -0.46264 3.94899 0
M  V30 5577 N 545.419 -1.53889 0.339982 0
M  V30 5578 C 546.382 -2.23547 -0.50592 0
M  V30 5579 C 547.382 -1.23445 -1.03044 0
M  V30 5580 O 548.572 -1.47909 -0.920253 0
M  V30 5581 C 545.704 -2.95234 -1.7044 0
M  V30 5582 H 546.897 -2.99722 0.103247 0
M  V30 5583 H 544.45 -1.56033 0.0912804 0
M  V30 5584 H 545.185 -2.23236 -2.35236 0
M  V30 5585 H 544.97 -3.68654 -1.33553 0
M  V30 5586 H 546.46 -3.48258 -2.30447 0
M  V30 5587 N 546.897 -0.0685191 -1.57451 0
M  V30 5588 C 547.807 0.914677 -2.16034 0
M  V30 5589 C 548.823 1.32938 -1.12265 0
M  V30 5590 O 549.999 1.40275 -1.44516 0
M  V30 5591 C 547.064 2.16519 -2.70777 0
M  V30 5592 C 546.125 1.80721 -3.89408 0
M  V30 5593 C 545.358 2.9981 -4.41531 0
M  V30 5594 O 545.581 4.13727 -3.92666 0
M  V30 5595 O 544.515 2.79817 -5.32903 0
M  V30 5596 H 548.341 0.446364 -3.00402 0
M  V30 5597 H 545.926 0.154367 -1.486 0
M  V30 5598 H 547.808 2.89856 -3.05878 0
M  V30 5599 H 546.483 2.62454 -1.89471 0
M  V30 5600 H 545.39 1.04646 -3.59166 0
M  V30 5601 H 546.723 1.39571 -4.71997 0
M  V30 5602 N 548.375 1.56261 0.205012 0
M  V30 5603 C 549.338 1.92908 1.23771 0
M  V30 5604 C 550.338 0.809208 1.38955 0
M  V30 5605 O 551.528 1.07676 1.36936 0
M  V30 5606 C 548.66 2.19442 2.60879 0
M  V30 5607 H 549.853 2.85287 0.924728 0
M  V30 5608 H 547.406 1.49798 0.446125 0
M  V30 5609 H 548.141 1.29668 2.97248 0
M  V30 5610 H 547.926 3.0104 2.51232 0
M  V30 5611 H 549.416 2.48833 3.35368 0
M  V30 5612 N 549.853 -0.472356 1.50355 0
M  V30 5613 C 550.816 -1.5529 1.68576 0
M  V30 5614 C 551.816 -1.50863 0.556511 0
M  V30 5615 O 553.006 -1.53505 0.823516 0
M  V30 5616 C 550.138 -2.94921 1.70981 0
M  V30 5617 H 551.331 -1.40451 2.64978 0
M  V30 5618 H 548.884 -0.698645 1.39816 0
M  V30 5619 H 549.619 -3.15204 0.762675 0
M  V30 5620 H 549.404 -2.99541 2.53017 0
M  V30 5621 H 550.894 -3.73372 1.87037 0
M  V30 5622 N 551.331 -1.39911 -0.725443 0
M  V30 5623 C 552.294 -1.39156 -1.82121 0
M  V30 5624 C 553.294 -0.287018 -1.58218 0
M  V30 5625 O 554.484 -0.545421 -1.65441 0
M  V30 5626 C 551.616 -1.1736 -3.20062 0
M  V30 5627 H 552.809 -2.36672 -1.84191 0
M  V30 5628 H 550.362 -1.25615 -0.930079 0
M  V30 5629 H 551.097 -0.205648 -3.23647 0
M  V30 5630 H 550.882 -1.97358 -3.3881 0
M  V30 5631 H 552.372 -1.19596 -4.00108 0
M  V30 5632 N 552.809 0.956637 -1.25245 0
M  V30 5633 C 553.719 2.0868 -1.0719 0
M  V30 5634 C 554.735 1.73997 -0.00959074 0
M  V30 5635 O 555.911 2.00301 -0.210104 0
M  V30 5636 C 552.976 3.39754 -0.690526 0
M  V30 5637 C 552.037 3.88316 -1.83055 0
M  V30 5638 C 551.27 5.13134 -1.46728 0
M  V30 5639 O 551.493 5.6925 -0.362029 0
M  V30 5640 O 550.427 5.56356 -2.29677 0
M  V30 5641 H 554.253 2.26813 -2.01965 0
M  V30 5642 H 551.838 1.07098 -1.04165 0
M  V30 5643 H 553.72 4.18543 -0.489871 0
M  V30 5644 H 552.395 3.22896 0.227981 0
M  V30 5645 H 551.302 3.1054 -2.08604 0
M  V30 5646 H 552.635 4.09669 -2.72822 0
M  V30 5647 N 554.287 1.06798 1.15896 0
M  V30 5648 C 555.703 0.792423 1.38538 0
M  V30 5649 C 555.903 -0.60592 1.92174 0
M  V30 5650 O 554.959 -1.36561 2.12385 0
M  V30 5651 C 556.272 1.86157 2.36149 0
M  V30 5652 C 557.82 1.88567 2.49823 0
M  V30 5653 C 558.295 2.9455 3.5072 0
M  V30 5654 N 559.786 2.93616 3.58251 0
M  V30 5655 C 560.521 3.72267 4.36125 0
M  V30 5656 N 560.017 4.60751 5.17379 0
M  V30 5657 N 561.81 3.60637 4.31158 0
M  V30 5658 H 553.961 1.96993 0.794198 0
M  V30 5659 H 556.224 0.853942 0.411688 0
M  V30 5660 H 555.93 2.86603 2.03843 0
M  V30 5661 H 555.804 1.71692 3.3586 0
M  V30 5662 H 558.191 0.887765 2.8143 0
M  V30 5663 H 558.272 2.0711 1.5013 0
M  V30 5664 H 557.916 3.94537 3.19849 0
M  V30 5665 H 557.846 2.73255 4.50155 0
M  V30 5666 H 560.337 2.29472 3.00252 0
M  V30 5667 H 560.65 5.17408 5.74028 0
M  V30 5668 H 558.995 4.64803 5.16704 0
M  V30 5669 H 562.186 2.90892 3.66742 0
M  V30 5670 H 562.359 4.22176 4.91601 0
M  V30 5671 N 555.766 -1.3263 0.851289 0
M  V30 5672 C 556.714 -2.30882 0.282202 0
M  V30 5673 C 557.708 -1.58697 -0.592589 0
M  V30 5674 O 558.914 -1.73461 -0.480768 0
M  V30 5675 H 555.289 -0.748492 0.0725487 0
M  V30 5676 H 557.26 -2.76374 1.12516 0
M  V30 5677 C 556.009 -3.43828 -0.517449 0
M  V30 5678 H 555.332 -3.99532 0.146392 0
M  V30 5679 H 556.772 -4.1474 -0.88128 0
M  V30 5680 C 555.231 -2.90786 -1.70133 0
M  V30 5681 O 555.761 -2.88 -2.80034 0
M  V30 5682 N 553.967 -2.4723 -1.52728 0
M  V30 5683 H 553.514 -2.49695 -0.633257 0
M  V30 5684 H 553.472 -2.12094 -2.32085 0
M  V30 5685 N 557.244 -0.608902 -1.45362 0
M  V30 5686 C 558.491 -0.104607 -2.0223 0
M  V30 5687 C 558.819 1.26534 -1.47714 0
M  V30 5688 O 558.074 1.84855 -0.642435 0
M  V30 5689 C 558.373 -0.0167296 -3.57396 0
M  V30 5690 C 558.039 -1.32251 -4.31069 0
M  V30 5691 C 556.701 -1.68019 -4.50914 0
M  V30 5692 C 559.053 -2.18542 -4.73169 0
M  V30 5693 C 556.381 -2.89828 -5.10114 0
M  V30 5694 C 558.733 -3.39602 -5.33717 0
M  V30 5695 C 557.397 -3.7562 -5.51784 0
M  V30 5696 H 556.667 -0.0382785 -0.740011 0
M  V30 5697 H 559.314 -0.790782 -1.7441 0
M  V30 5698 H 557.619 0.752715 -3.84502 0
M  V30 5699 H 559.316 0.389634 -3.99103 0
M  V30 5700 H 555.906 -1.03411 -4.15938 0
M  V30 5701 H 560.09 -1.92208 -4.5757 0
M  V30 5702 H 555.346 -3.17839 -5.22291 0
M  V30 5703 H 559.52 -4.06716 -5.65292 0
M  V30 5704 H 557.147 -4.70093 -5.97425 0
M  V30 5705 N 558.722 1.53707 -0.348139 0
M  V30 5706 C 559.685 2.23812 0.494058 0
M  V30 5707 C 560.685 1.23989 1.02388 0
M  V30 5708 O 561.875 1.48395 0.912396 0
M  V30 5709 C 559.007 2.96133 1.68872 0
M  V30 5710 H 560.2 2.99663 -0.119141 0
M  V30 5711 H 557.753 1.55983 -0.0995539 0
M  V30 5712 H 558.488 2.24481 2.34049 0
M  V30 5713 H 558.273 3.69357 1.31596 0
M  V30 5714 H 559.763 3.49475 2.28597 0
M  V30 5715 N 560.2 0.0768682 1.57412 0
M  V30 5716 C 561.447 -0.591085 1.93681 0
M  V30 5717 C 561.775 -1.69311 0.957286 0
M  V30 5718 O 561.03 -1.95682 -0.0262428 0
M  V30 5719 C 561.329 -1.20268 3.36557 0
M  V30 5720 C 560.995 -0.226286 4.50332 0
M  V30 5721 C 559.657 0.0423142 4.81181 0
M  V30 5722 C 562.009 0.441415 5.19327 0
M  V30 5723 C 559.337 0.985616 5.78362 0
M  V30 5724 C 561.689 1.37307 6.17519 0
M  V30 5725 C 560.353 1.65009 6.46783 0
M  V30 5726 H 559.623 -0.216293 0.70873 0
M  V30 5727 H 562.27 0.148824 1.90921 0
M  V30 5728 H 560.575 -2.01844 3.35807 0
M  V30 5729 H 562.272 -1.72688 3.61911 0
M  V30 5730 H 558.862 -0.445821 4.26275 0
M  V30 5731 H 563.046 0.247023 4.95685 0
M  V30 5732 H 558.302 1.20743 5.99359 0
M  V30 5733 H 562.476 1.89637 6.70083 0
M  V30 5734 H 560.103 2.38263 7.21897 0
M  V30 5735 N 561.678 -1.56367 -0.196722 0
M  V30 5736 C 562.927 -1.79724 -0.915539 0
M  V30 5737 C 563.24 -0.649804 -1.84491 0
M  V30 5738 O 564.446 -0.767631 -2.60422 0
M  V30 5739 C 562.902 -3.18369 -1.67836 0
M  V30 5740 C 562.51 -4.4091 -0.793897 0
M  V30 5741 C 564.254 -3.51037 -2.38691 0
M  V30 5742 C 562.161 -5.70577 -1.55549 0
M  V30 5743 H 561.091 -0.67013 -0.345604 0
M  V30 5744 H 563.742 -1.82721 -0.168856 0
M  V30 5745 H 562.124 -3.09617 -2.46887 0
M  V30 5746 H 563.298 -4.60781 -0.042163 0
M  V30 5747 H 561.613 -4.15937 -0.19626 0
M  V30 5748 H 564.21 -4.4515 -2.96219 0
M  V30 5749 H 564.553 -2.74704 -3.12799 0
M  V30 5750 H 565.086 -3.61229 -1.66608 0
M  V30 5751 H 561.825 -6.49871 -0.857226 0
M  V30 5752 H 561.345 -5.54726 -2.2812 0
M  V30 5753 H 563.024 -6.11637 -2.10971 0
M  V30 5754 N 563.156 0.464375 -1.50603 0
M  V30 5755 C 564.572 0.798684 -1.38178 0
M  V30 5756 C 564.772 1.96568 -0.44308 0
M  V30 5757 O 563.828 2.52252 0.111814 0
M  V30 5758 C 565.141 1.10444 -2.79683 0
M  V30 5759 C 566.689 1.2105 -2.88645 0
M  V30 5760 C 567.164 1.54934 -4.30998 0
M  V30 5761 N 568.655 1.61913 -4.3398 0
M  V30 5762 C 569.39 1.8965 -5.41129 0
M  V30 5763 N 568.886 2.15361 -6.58477 0
M  V30 5764 N 570.679 1.91207 -5.28579 0
M  V30 5765 H 562.83 -0.304603 -2.10204 0
M  V30 5766 H 565.093 -0.0737804 -0.945125 0
M  V30 5767 H 564.799 0.319934 -3.50242 0
M  V30 5768 H 564.673 2.03896 -3.17342 0
M  V30 5769 H 567.06 1.98567 -2.18301 0
M  V30 5770 H 567.141 0.255613 -2.5452 0
M  V30 5771 H 566.785 0.779549 -5.01882 0
M  V30 5772 H 566.715 2.51584 -4.62615 0
M  V30 5773 H 569.206 1.44055 -3.49366 0
M  V30 5774 H 569.519 2.35818 -7.35941 0
M  V30 5775 H 567.864 2.1274 -6.6164 0
M  V30 5776 H 571.055 1.70622 -4.35897 0
M  V30 5777 H 571.228 2.12488 -6.12171 0
M  V30 5778 N 564.634 1.40294 0.718013 0
M  V30 5779 C 565.564 1.43118 1.84498 0
M  V30 5780 C 566.545 0.292403 1.67568 0
M  V30 5781 O 567.73 0.500675 1.87635 0
M  V30 5782 C 564.86 1.29065 3.22427 0
M  V30 5783 C 563.814 2.40521 3.54025 0
M  V30 5784 C 563.14 2.11546 4.91073 0
M  V30 5785 C 564.44 3.82859 3.55269 0
M  V30 5786 H 566.134 2.37432 1.82391 0
M  V30 5787 H 563.68 1.14283 0.87609 0
M  V30 5788 H 565.633 1.29658 4.00957 0
M  V30 5789 H 564.357 0.312271 3.25104 0
M  V30 5790 H 563.016 2.39173 2.77834 0
M  V30 5791 H 562.664 1.12104 4.90348 0
M  V30 5792 H 562.364 2.86216 5.1318 0
M  V30 5793 H 563.888 2.13817 5.71939 0
M  V30 5794 H 565.302 3.86044 4.23843 0
M  V30 5795 H 563.699 4.57029 3.88902 0
M  V30 5796 H 564.769 4.12617 2.54706 0
M  V30 5797 N 566.112 -0.949982 1.2575 0
M  V30 5798 C 567.06 -2.06869 1.06339 0
M  V30 5799 C 568.054 -1.69399 -0.00708901 0
M  V30 5800 O 569.26 -1.79383 0.148897 0
M  V30 5801 H 565.635 -0.677197 0.326969 0
M  V30 5802 H 567.606 -2.20396 2.01167 0
M  V30 5803 C 566.355 -3.40503 0.703769 0
M  V30 5804 H 565.678 -3.69807 1.51931 0
M  V30 5805 H 567.118 -4.19623 0.607677 0
M  V30 5806 C 565.577 -3.31685 -0.5905 0
M  V30 5807 O 566.107 -3.67085 -1.63131 0
M  V30 5808 N 564.313 -2.84797 -0.577859 0
M  V30 5809 H 563.86 -2.56186 0.26951 0
M  V30 5810 H 563.818 -2.79279 -1.44398 0
M  V30 5811 N 567.59 -1.07411 -1.15328 0
M  V30 5812 C 568.522 -0.652924 -2.19703 0
M  V30 5813 C 569.535 0.294869 -1.60107 0
M  V30 5814 O 570.724 0.0840932 -1.78302 0
M  V30 5815 C 567.824 0.061434 -3.38844 0
M  V30 5816 C 566.997 -0.902696 -4.27984 0
M  V30 5817 C 566.056 -0.225521 -5.25717 0
M  V30 5818 O 565.082 -0.86676 -5.62562 0
M  V30 5819 N 566.284 1.02858 -5.71315 0
M  V30 5820 H 569.049 -1.55081 -2.56457 0
M  V30 5821 H 566.61 -0.958883 -1.30449 0
M  V30 5822 H 568.602 0.525145 -4.01278 0
M  V30 5823 H 567.172 0.861269 -3.00501 0
M  V30 5824 H 566.392 -1.54551 -3.6264 0
M  V30 5825 H 567.68 -1.55636 -4.84412 0
M  V30 5826 H 567.078 1.56948 -5.43492 0
M  V30 5827 H 565.635 1.43596 -6.35786 0
M  V30 5828 N 569.068 1.32177 -0.85831 0
M  V30 5829 C 569.998 2.31282 -0.321041 0
M  V30 5830 C 570.979 1.59841 0.581786 0
M  V30 5831 O 572.164 1.87619 0.501262 0
M  V30 5832 C 569.294 3.4385 0.48832 0
M  V30 5833 C 568.248 4.26799 -0.320391 0
M  V30 5834 C 567.574 5.31164 0.613934 0
M  V30 5835 C 568.874 4.98829 -1.54813 0
M  V30 5836 H 570.568 2.76469 -1.14915 0
M  V30 5837 H 568.114 1.32916 -0.554028 0
M  V30 5838 H 570.067 4.12224 0.874626 0
M  V30 5839 H 568.791 2.97401 1.34983 0
M  V30 5840 H 567.45 3.60077 -0.688497 0
M  V30 5841 H 567.098 4.80967 1.47239 0
M  V30 5842 H 566.798 5.8755 0.0768097 0
M  V30 5843 H 568.322 6.024 0.997336 0
M  V30 5844 H 569.736 5.59864 -1.23392 0
M  V30 5845 H 568.133 5.64957 -2.02346 0
M  V30 5846 H 569.203 4.26483 -2.30739 0
M  V30 5847 N 570.547 0.616602 1.45037 0
M  V30 5848 C 571.51 -0.0871112 2.29034 0
M  V30 5849 C 572.51 -0.786414 1.40258 0
M  V30 5850 O 573.7 -0.633207 1.62284 0
M  V30 5851 C 570.832 -1.13369 3.21497 0
M  V30 5852 H 572.025 0.651497 2.92738 0
M  V30 5853 H 569.578 0.376058 1.51709 0
M  V30 5854 H 570.313 -1.90277 2.62612 0
M  V30 5855 H 570.098 -0.636358 3.86902 0
M  V30 5856 H 571.588 -1.62627 3.84633 0
M  V30 5857 N 572.025 -1.5352 0.356285 0
M  V30 5858 C 573.274 -2.00298 -0.237373 0
M  V30 5859 C 573.587 -1.24784 -1.50627 0
M  V30 5860 O 574.793 -1.62103 -2.17795 0
M  V30 5861 C 573.249 -3.56771 -0.473545 0
M  V30 5862 C 572.857 -4.41154 0.780183 0
M  V30 5863 C 574.601 -4.1193 -1.02537 0
M  V30 5864 C 572.508 -5.89161 0.514108 0
M  V30 5865 H 571.438 -0.748307 -0.092478 0
M  V30 5866 H 574.089 -1.77283 0.473588 0
M  V30 5867 H 572.471 -3.75902 -1.24553 0
M  V30 5868 H 573.645 -4.33797 1.55425 0
M  V30 5869 H 571.96 -3.97052 1.25455 0
M  V30 5870 H 574.557 -5.20133 -1.2396 0
M  V30 5871 H 574.9 -3.65943 -1.98473 0
M  V30 5872 H 575.433 -3.96561 -0.313775 0
M  V30 5873 H 572.172 -6.39408 1.44355 0
M  V30 5874 H 571.692 -5.9939 -0.221632 0
M  V30 5875 H 573.371 -6.46857 0.136122 0
M  V30 5876 N 573.503 -0.0852151 -1.57369 0
M  V30 5877 C 574.413 0.891712 -2.16992 0
M  V30 5878 C 575.429 1.3174 -1.13669 0
M  V30 5879 O 576.605 1.38735 -1.45995 0
M  V30 5880 C 573.67 2.13635 -2.73059 0
M  V30 5881 C 572.731 1.7658 -3.91303 0
M  V30 5882 C 571.964 2.95111 -4.44686 0
M  V30 5883 O 572.187 4.09539 -3.97032 0
M  V30 5884 O 571.121 2.74149 -5.35841 0
M  V30 5885 H 574.947 0.414477 -3.00858 0
M  V30 5886 H 572.532 0.138598 -1.48756 0
M  V30 5887 H 574.414 2.86595 -3.08935 0
M  V30 5888 H 573.089 2.6043 -1.92244 0
M  V30 5889 H 571.996 1.00831 -3.60255 0
M  V30 5890 H 573.329 1.34557 -4.7345 0
M  V30 5891 N 574.981 1.5647 0.188427 0
M  V30 5892 C 575.931 1.91479 1.23774 0
M  V30 5893 C 576.915 0.78119 1.40664 0
M  V30 5894 O 578.107 1.04414 1.42922 0
M  V30 5895 C 575.236 2.26354 2.58106 0
M  V30 5896 C 574.322 3.46186 2.44981 0
M  V30 5897 N 574.713 4.63911 2.01546 0
M  V30 5898 C 573.011 3.50456 2.75856 0
M  V30 5899 C 573.712 5.46064 2.00472 0
M  V30 5900 N 572.688 4.86648 2.42229 0
M  V30 5901 H 576.49 2.79994 0.893339 0
M  V30 5902 H 574.004 1.57477 0.39682 0
M  V30 5903 H 576.001 2.49622 3.33908 0
M  V30 5904 H 574.661 1.39168 2.93364 0
M  V30 5905 H 575.672 4.88451 1.7215 0
M  V30 5906 H 572.349 2.73704 3.15265 0
M  V30 5907 H 573.739 6.50368 1.68734 0
M  V30 5908 N 576.459 -0.456382 1.50847 0
M  V30 5909 C 577.389 -1.56025 1.73719 0
M  V30 5910 C 578.37 -1.5967 0.586473 0
M  V30 5911 O 579.555 -1.75702 0.827185 0
M  V30 5912 C 576.685 -2.94251 1.84483 0
M  V30 5913 C 575.639 -3.05471 2.99786 0
M  V30 5914 C 574.965 -4.45489 2.95709 0
M  V30 5915 C 576.265 -2.81318 4.40065 0
M  V30 5916 H 577.959 -1.37138 2.66146 0
M  V30 5917 H 575.505 -0.658299 1.28072 0
M  V30 5918 H 577.458 -3.71417 1.99067 0
M  V30 5919 H 576.182 -3.14328 0.886891 0
M  V30 5920 H 574.841 -2.30741 2.84876 0
M  V30 5921 H 574.489 -4.62505 1.97732 0
M  V30 5922 H 574.189 -4.53929 3.73125 0
M  V30 5923 H 575.713 -5.24655 3.12362 0
M  V30 5924 H 577.127 -3.48226 4.55425 0
M  V30 5925 H 575.524 -3.01188 5.19043 0
M  V30 5926 H 576.594 -1.7706 4.51418 0
M  V30 5927 N 577.937 -1.40673 -0.710563 0
M  V30 5928 C 578.867 -1.44095 -1.83736 0
M  V30 5929 C 579.848 -0.301286 -1.67411 0
M  V30 5930 O 581.033 -0.510618 -1.87367 0
M  V30 5931 C 578.163 -1.30773 -3.21738 0
M  V30 5932 C 577.117 -2.42395 -3.52745 0
M  V30 5933 C 576.443 -2.14147 -4.89944 0
M  V30 5934 C 577.743 -3.84738 -3.53234 0
M  V30 5935 H 579.437 -2.38396 -1.81129 0
M  V30 5936 H 576.983 -1.14746 -0.870017 0
M  V30 5937 H 578.936 -1.31783 -4.00264 0
M  V30 5938 H 577.66 -0.329507 -3.24934 0
M  V30 5939 H 576.319 -2.40643 -2.76562 0
M  V30 5940 H 575.967 -1.14703 -4.89747 0
M  V30 5941 H 575.667 -2.88934 -5.11655 0
M  V30 5942 H 577.191 -2.16848 -5.70797 0
M  V30 5943 H 578.605 -3.88286 -4.2179 0
M  V30 5944 H 577.002 -4.59085 -3.86473 0
M  V30 5945 H 578.072 -4.13962 -2.52514 0
M  V30 5946 N 579.415 0.9433 -1.26252 0
M  V30 5947 C 580.663 1.68592 -1.11451 0
M  V30 5948 C 580.984 1.91957 0.343123 0
M  V30 5949 O 580.254 1.51475 1.24226 0
M  V30 5950 H 578.834 0.624789 -0.409448 0
M  V30 5951 H 581.496 1.13351 -1.58548 0
M  V30 5952 H 580.592 2.66054 -1.63162 0
M  V30 5953 N 580.893 1.08022 1.14757 0
M  V30 5954 C 582.118 0.82895 1.90114 0
M  V30 5955 C 582.543 -0.612772 1.77839 0
M  V30 5956 O 581.901 -1.42895 1.11583 0
M  V30 5957 C 581.949 1.25062 3.38219 0
M  V30 5958 O 581.053 0.400119 4.10454 0
M  V30 5959 H 580.394 0.301412 0.591648 0
M  V30 5960 H 582.924 1.44062 1.45284 0
M  V30 5961 H 582.934 1.22977 3.89025 0
M  V30 5962 H 581.609 2.30067 3.46471 0
M  V30 5963 H 580.186 0.484052 3.69745 0
M  V30 5964 N 582.371 -1.3172 0.865308 0
M  V30 5965 C 583.787 -1.4958 0.556596 0
M  V30 5966 C 583.987 -1.79763 -0.910353 0
M  V30 5967 O 583.043 -1.87351 -1.6928 0
M  V30 5968 C 584.356 -2.63277 1.45279 0
M  V30 5969 C 585.904 -2.77161 1.45433 0
M  V30 5970 C 586.379 -3.93949 2.33598 0
M  V30 5971 N 587.87 -4.01228 2.31453 0
M  V30 5972 C 588.605 -4.90855 2.96393 0
M  V30 5973 N 588.101 -5.85416 3.70486 0
M  V30 5974 N 589.894 -4.84063 2.85726 0
M  V30 5975 H 582.045 -1.10396 1.81456 0
M  V30 5976 H 584.308 -0.54507 0.775631 0
M  V30 5977 H 584.014 -2.47734 2.49641 0
M  V30 5978 H 583.888 -3.59309 1.14792 0
M  V30 5979 H 586.275 -2.9212 0.41831 0
M  V30 5980 H 586.356 -1.8181 1.79941 0
M  V30 5981 H 586 -3.79748 3.37274 0
M  V30 5982 H 585.93 -4.88598 1.96417 0
M  V30 5983 H 588.421 -3.3357 1.77593 0
M  V30 5984 H 588.734 -6.50525 4.17178 0
M  V30 5985 H 587.079 -5.85409 3.74594 0
M  V30 5986 H 590.27 -4.09163 2.27384 0
M  V30 5987 H 590.443 -5.53708 3.36617 0
M  V30 5988 O 583.888 -0.764371 -1.42266 0
M  V30 5989 H 584.579 -0.325849 -1.9094 0
M  V30 END ATOM
M  V30 BEGIN BOND
M  V30 END BOND
M  V30 END CTAB
M  END
$$$$
