drugbank_target|P09668 Pro-cathepsin H (DB02140; DB03120; DB04126; DB08526)
 OpenBabel12092120443D

  0  0  0     0  0            999 V3000
M  V30 BEGIN CTAB
M  V30 COUNTS 5159 5238 0 0 0
M  V30 BEGIN ATOM
M  V30 1 H -0.908 1.98254 -0.117106 0
M  V30 2 N 0 1.576 0 0
M  V30 3 C 0.933 2.03868 1.02534 0
M  V30 4 C 1.911 0.928543 1.3348 0
M  V30 5 O 3.095 1.19667 1.45644 0
M  V30 6 C 0.222 2.43627 2.35294 0
M  V30 7 C -0.732 3.65373 2.2001 0
M  V30 8 S 0.101 5.13292 1.52614 0
M  V30 9 C 1.257 5.56322 2.86805 0
M  V30 10 H 1.49 2.90518 0.631377 0
M  V30 11 H -0.977 1.52953 0.210867 0
M  V30 12 H 0.981 2.67203 3.11629 0
M  V30 13 H -0.358 1.57376 2.7183 0
M  V30 14 H -1.165 3.90944 3.18086 0
M  V30 15 H -1.563 3.418 1.51819 0
M  V30 16 H 0.729 5.58782 3.83104 0
M  V30 17 H 1.672 6.56266 2.65933 0
M  V30 18 H 2.08 4.83886 2.90714 0
M  V30 19 N 1.4781 -0.272755 1.55222 0
M  V30 20 C 2.7241 -1.00172 1.77023 0
M  V30 21 C 3.0791 -1.83928 0.564633 0
M  V30 22 O 2.3721 -1.86416 -0.442674 0
M  V30 23 C 2.5661 -1.91642 3.01675 0
M  V30 24 C 2.3951 -1.16888 4.34243 0
M  V30 25 C 1.1651 -0.884464 4.97499 0
M  V30 26 C 3.3631 -0.55919 5.11251 0
M  V30 27 N 1.3451 -0.11015 6.13801 0
M  V30 28 C 2.7161 0.0809469 6.19947 0
M  V30 29 C 4.7711 -0.467058 4.95705 0
M  V30 30 C 3.4741 0.804335 7.14789 0
M  V30 31 C 5.5001 0.242739 5.90902 0
M  V30 32 C 4.8621 0.871613 6.98987 0
M  V30 33 H 0.9611 -0.348529 0.700037 0
M  V30 34 H 3.5451 -0.277365 1.92714 0
M  V30 35 H 1.7161 -2.61303 2.87359 0
M  V30 36 H 3.4481 -2.57901 3.1188 0
M  V30 37 H 0.2031 -1.18979 4.58411 0
M  V30 38 H 0.6271 0.264344 6.76484 0
M  V30 39 H 5.2691 -0.93894 4.12242 0
M  V30 40 H 2.9871 1.2879 7.97771 0
M  V30 41 H 6.5731 0.314347 5.8095 0
M  V30 42 H 5.4531 1.4121 7.71381 0
M  V30 43 N 2.9562 -1.48159 -0.537278 0
M  V30 44 C 3.9192 -1.61665 -1.62472 0
M  V30 45 C 4.9192 -0.490395 -1.5314 0
M  V30 46 O 6.1092 -0.755998 -1.5694 0
M  V30 47 C 3.2412 -1.57997 -3.02076 0
M  V30 48 H 4.4342 -2.58621 -1.51839 0
M  V30 49 H 1.9872 -1.36647 -0.758771 0
M  V30 50 H 2.7222 -0.624913 -3.18222 0
M  V30 51 H 2.5072 -2.39755 -3.10258 0
M  V30 52 H 3.9972 -1.70627 -3.81151 0
M  V30 53 N 4.4343 0.785586 -1.36625 0
M  V30 54 C 5.6623 1.57448 -1.3423 0
M  V30 55 C 6.0773 1.88649 0.0755653 0
M  V30 56 O 5.4343 1.50414 1.03354 0
M  V30 57 C 5.4853 2.89316 -2.16745 0
M  V30 58 O 5.2063 2.59459 -3.53005 0
M  V30 59 C 6.7073 3.83606 -2.22174 0
M  V30 60 H 3.9273 0.488226 -0.4603 0
M  V30 61 H 6.4713 0.974733 -1.79775 0
M  V30 62 H 4.6263 3.4575 -1.74745 0
M  V30 63 H 5.0403 3.43804 -3.96105 0
M  V30 64 H 6.5143 4.73181 -2.8426 0
M  V30 65 H 6.9913 4.21734 -1.22627 0
M  V30 66 H 7.5973 3.33104 -2.64427 0
M  V30 67 N 5.9124 1.20967 1.01018 0
M  V30 68 C 6.8424 0.988272 2.11555 0
M  V30 69 C 7.8234 -0.0849778 1.69888 0
M  V30 70 O 9.0084 0.0738202 1.9406 0
M  V30 71 C 6.1384 0.546528 3.42973 0
M  V30 72 C 5.0924 1.56375 3.9841 0
M  V30 73 C 4.4184 0.97842 5.25672 0
M  V30 74 C 5.7184 2.94922 4.31066 0
M  V30 75 H 7.4124 1.91276 2.30334 0
M  V30 76 H 4.9584 0.921073 1.1069 0
M  V30 77 H 6.9114 0.378839 4.19694 0
M  V30 78 H 5.6354 -0.413598 3.23971 0
M  V30 79 H 4.2944 1.71891 3.23804 0
M  V30 80 H 3.9424 0.0101688 5.02999 0
M  V30 81 H 3.6424 1.65784 5.63728 0
M  V30 82 H 5.1664 0.821939 6.05043 0
M  V30 83 H 6.5804 2.8288 4.9865 0
M  V30 84 H 4.9774 3.5983 4.80253 0
M  V30 85 H 6.0474 3.4616 3.39561 0
M  V30 86 N 7.3905 -1.2043 1.01659 0
M  V30 87 C 8.8015 -1.71517 0.737482 0
M  V30 88 C 9.1525 -1.81547 -0.743973 0
M  V30 89 O 8.2775 -1.47803 -1.58061 0
M  V30 90 C 8.8725 -3.11515 1.33206 0
M  V30 91 C 7.4315 -3.59912 1.10183 0
M  V30 92 C 6.5785 -2.37116 1.43776 0
M  V30 93 H 9.5295 -1.05444 1.18606 0
M  V30 94 H 9.5505 -3.73575 0.722636 0
M  V30 95 H 9.0625 -3.04182 2.41028 0
M  V30 96 H 7.1635 -3.72577 0.0412756 0
M  V30 97 H 7.2765 -4.44731 1.78188 0
M  V30 98 H 5.6405 -2.39857 0.856778 0
M  V30 99 H 6.4235 -2.32424 2.52654 0
M  V30 100 N 8.8686 -0.792821 -1.36206 0
M  V30 101 C 9.7986 -0.207853 -2.32573 0
M  V30 102 C 10.7796 0.659055 -1.56813 0
M  V30 103 O 11.9646 0.592176 -1.84951 0
M  V30 104 C 9.0946 0.655449 -3.41059 0
M  V30 105 C 8.0486 -0.111842 -4.27854 0
M  V30 106 C 7.3746 0.872274 -5.27537 0
M  V30 107 C 8.6746 -1.30299 -5.05786 0
M  V30 108 H 10.3686 -1.01294 -2.81744 0
M  V30 109 H 7.9146 -0.48854 -1.3546 0
M  V30 110 H 9.8676 1.07464 -4.07467 0
M  V30 111 H 8.5916 1.49328 -2.90463 0
M  V30 112 H 7.2506 -0.512053 -3.63006 0
M  V30 113 H 6.8986 1.70523 -4.73214 0
M  V30 114 H 6.5986 0.363291 -5.86476 0
M  V30 115 H 8.1226 1.28996 -5.96818 0
M  V30 116 H 9.5366 -0.959379 -5.65216 0
M  V30 117 H 7.9336 -1.7455 -5.74154 0
M  V30 118 H 9.0036 -2.09663 -4.37229 0
M  V30 119 N 10.3467 1.47872 -0.545128 0
M  V30 120 C 11.2767 2.32661 0.197793 0
M  V30 121 C 12.2577 1.43041 0.920504 0
M  V30 122 O 13.4427 1.71912 0.90333 0
M  V30 123 C 10.5727 3.24569 1.23582 0
M  V30 124 C 9.5267 4.23333 0.630323 0
M  V30 125 C 8.8527 5.0448 1.77211 0
M  V30 126 C 10.1527 5.20704 -0.407974 0
M  V30 127 H 11.8467 2.95024 -0.510045 0
M  V30 128 H 9.3927 1.4187 -0.246731 0
M  V30 129 H 11.3457 3.8272 1.76362 0
M  V30 130 H 10.0697 2.60236 1.97344 0
M  V30 131 H 8.7287 3.6639 0.123922 0
M  V30 132 H 8.3767 4.36561 2.49847 0
M  V30 133 H 8.0767 5.71339 1.37281 0
M  V30 134 H 9.6007 5.65487 2.3034 0
M  V30 135 H 11.0147 5.7329 0.033305 0
M  V30 136 H 9.4117 5.95699 -0.725486 0
M  V30 137 H 10.4817 4.66917 -1.30828 0
M  V30 138 N 11.8248 0.280983 1.55075 0
M  V30 139 C 13.0648 -0.335234 2.01632 0
M  V30 140 C 13.4288 -1.5261 1.16508 0
M  V30 141 O 14.6298 -2.21235 1.52672 0
M  V30 142 C 12.9008 -0.702172 3.50434 0
M  V30 143 S 14.4598 -1.30409 4.18974 0
M  V30 144 H 11.2778 -0.103967 0.703358 0
M  V30 145 H 13.8798 0.404187 1.91276 0
M  V30 146 H 12.5838 0.17333 4.10034 0
M  V30 147 H 12.1148 -1.4729 3.64786 0
M  V30 148 H 14.1298 -2.59253 4.23087 0
M  V30 149 N 13.3029 -1.57598 0.00835791 0
M  V30 150 C 14.2659 -2.07884 -0.965242 0
M  V30 151 C 15.2659 -0.989825 -1.26725 0
M  V30 152 O 16.4559 -1.25218 -1.21104 0
M  V30 153 C 13.5879 -2.52731 -2.28779 0
M  V30 154 H 14.7809 -2.95178 -0.530112 0
M  V30 155 H 12.3339 -1.54458 -0.239283 0
M  V30 156 H 13.0689 -1.68705 -2.76964 0
M  V30 157 H 12.8539 -3.32272 -2.08177 0
M  V30 158 H 14.3439 -2.91933 -2.98605 0
M  V30 159 N 14.781 0.264519 -1.55364 0
M  V30 160 C 16.029 0.993021 -1.76021 0
M  V30 161 C 16.35 1.86511 -0.569099 0
M  V30 162 O 15.62 1.91438 0.415735 0
M  V30 163 H 14.2 0.369639 -0.649135 0
M  V30 164 H 16.862 0.286707 -1.9278 0
M  V30 165 H 15.958 1.62502 -2.66457 0
M  V30 166 N 16.2591 1.48442 0.529413 0
M  V30 167 C 17.2221 1.62524 1.61612 0
M  V30 168 C 18.2221 0.498509 1.52877 0
M  V30 169 O 19.4121 0.76431 1.56537 0
M  V30 170 C 16.5441 1.59597 3.01233 0
M  V30 171 H 17.7371 2.59423 1.50465 0
M  V30 172 H 15.2901 1.37047 0.751514 0
M  V30 173 H 16.0251 0.641781 3.17886 0
M  V30 174 H 15.8101 2.41397 3.08982 0
M  V30 175 H 17.3001 1.72646 3.80241 0
M  V30 176 N 17.7372 -0.778329 1.37039 0
M  V30 177 C 18.9832 -1.53817 1.33086 0
M  V30 178 C 19.3382 -1.92208 -0.0860346 0
M  V30 179 O 18.6312 -1.60713 -1.04316 0
M  V30 180 C 18.8252 -2.81845 2.19768 0
M  V30 181 C 18.6542 -2.55967 3.69744 0
M  V30 182 C 17.4242 -2.50428 4.38878 0
M  V30 183 C 19.6222 -2.2441 4.62758 0
M  V30 184 N 17.6042 -2.16564 5.74433 0
M  V30 185 C 18.9752 -2.0063 5.86641 0
M  V30 186 C 21.0302 -2.1051 4.5121 0
M  V30 187 C 19.7332 -1.64354 7.00272 0
M  V30 188 C 21.7592 -1.75634 5.64718 0
M  V30 189 C 21.1212 -1.52709 6.87648 0
M  V30 190 H 17.2202 -0.563434 0.542279 0
M  V30 191 H 19.8042 -0.908617 1.72198 0
M  V30 192 H 17.9752 -3.42649 1.82883 0
M  V30 193 H 19.7072 -3.47682 2.07122 0
M  V30 194 H 16.4622 -2.66056 3.91805 0
M  V30 195 H 16.8862 -2.02348 6.46053 0
M  V30 196 H 21.5282 -2.26919 3.56746 0
M  V30 197 H 19.2462 -1.46683 7.94676 0
M  V30 198 H 22.8322 -1.65546 5.57751 0
M  V30 199 H 21.7122 -1.2612 7.73992 0
M  V30 200 N 19.2153 -1.21501 -1.00376 0
M  V30 201 C 20.1453 -0.999478 -2.11028 0
M  V30 202 C 21.1263 0.0759671 -1.6993 0
M  V30 203 O 22.3113 -0.0841106 -1.94018 0
M  V30 204 C 19.4413 -0.564709 -3.42678 0
M  V30 205 C 18.3953 -1.58486 -3.97576 0
M  V30 206 C 17.7213 -1.00628 -5.25146 0
M  V30 207 C 19.0213 -2.97204 -4.29496 0
M  V30 208 H 20.7153 -1.92495 -2.29317 0
M  V30 209 H 18.2613 -0.92693 -1.102 0
M  V30 210 H 20.2143 -0.401091 -4.19487 0
M  V30 211 H 18.9383 0.396411 -3.24185 0
M  V30 212 H 17.5973 -1.73606 -3.22888 0
M  V30 213 H 17.2453 -0.0368439 -5.02987 0
M  V30 214 H 16.9453 -1.68771 -5.62841 0
M  V30 215 H 18.4693 -0.854015 -6.04598 0
M  V30 216 H 19.8833 -2.8552 -4.97143 0
M  V30 217 H 18.2803 -3.62372 -4.78338 0
M  V30 218 H 19.3503 -3.47956 -3.3772 0
M  V30 219 N 20.6934 1.19889 -1.02296 0
M  V30 220 C 21.6234 2.25141 -0.619174 0
M  V30 221 C 22.6044 1.66051 0.368915 0
M  V30 222 O 23.7894 1.92546 0.252941 0
M  V30 223 C 20.9194 3.4728 0.0368783 0
M  V30 224 C 19.8734 4.19005 -0.872865 0
M  V30 225 C 19.1994 5.34637 -0.0822402 0
M  V30 226 C 20.4994 4.74452 -2.18387 0
M  V30 227 H 22.1934 2.59171 -1.49903 0
M  V30 228 H 19.7394 1.24579 -0.722222 0
M  V30 229 H 21.6924 4.20098 0.330958 0
M  V30 230 H 20.4164 3.12433 0.95149 0
M  V30 231 H 19.0754 3.48061 -1.15105 0
M  V30 232 H 18.7234 4.96034 0.83422 0
M  V30 233 H 18.4234 5.83557 -0.688149 0
M  V30 234 H 19.9474 6.10255 0.205238 0
M  V30 235 H 21.3614 5.39055 -1.95172 0
M  V30 236 H 19.7584 5.33834 -2.74119 0
M  V30 237 H 20.8284 3.92844 -2.84257 0
M  V30 238 N 22.1715 0.800033 1.35784 0
M  V30 239 C 23.4195 0.376597 1.9856 0
M  V30 240 C 23.7405 -1.05812 1.63795 0
M  V30 241 O 23.0105 -1.73103 0.917171 0
M  V30 242 H 21.5905 0.136261 0.734467 0
M  V30 243 H 24.2525 1.02442 1.65806 0
M  V30 244 H 23.3485 0.477002 3.08433 0
M  V30 245 N 23.6496 -1.47581 0.552962 0
M  V30 246 C 24.8956 -2.02782 0.0273648 0
M  V30 247 C 25.2286 -1.42687 -1.31734 0
M  V30 248 O 24.5036 -0.580897 -1.85623 0
M  V30 249 C 24.7866 -3.60031 -0.0702371 0
M  V30 250 C 24.6396 -4.30566 1.30126 0
M  V30 251 C 25.9586 -4.33028 -0.785771 0
M  V30 252 H 23.0776 -0.736912 0.0114185 0
M  V30 253 H 25.7196 -1.76056 0.714432 0
M  V30 254 H 23.8696 -3.82932 -0.655382 0
M  V30 255 H 25.5416 -4.19018 1.92929 0
M  V30 256 H 23.7846 -3.91086 1.87709 0
M  V30 257 H 24.4556 -5.39114 1.18573 0
M  V30 258 H 26.9316 -4.15095 -0.288982 0
M  V30 259 H 25.8076 -5.42695 -0.823013 0
M  V30 260 H 26.0686 -4.01945 -1.841 0
M  V30 261 N 25.1277 -0.289203 -1.54924 0
M  V30 262 C 26.5387 0.205791 -1.85562 0
M  V30 263 C 26.8897 1.54351 -1.2112 0
M  V30 264 O 26.0147 2.10435 -0.504601 0
M  V30 265 C 26.6097 0.380177 -3.3666 0
M  V30 266 C 25.1687 0.819395 -3.67373 0
M  V30 267 C 24.3157 -0.079159 -2.77187 0
M  V30 268 H 27.2667 -0.510577 -1.50262 0
M  V30 269 H 27.2877 1.21659 -3.60526 0
M  V30 270 H 26.7997 -0.593589 -3.83534 0
M  V30 271 H 24.9007 1.80413 -3.26009 0
M  V30 272 H 25.0137 0.646957 -4.74712 0
M  V30 273 H 23.3777 0.439565 -2.50878 0
M  V30 274 H 24.1607 -1.04906 -3.26878 0
M  V30 275 N 26.6058 1.57591 -0.0167156 0
M  V30 276 C 27.8518 1.91567 0.665582 0
M  V30 277 C 28.1848 0.892298 1.72487 0
M  V30 278 O 27.4598 -0.0867127 1.94307 0
M  V30 279 C 27.7428 3.36069 1.29342 0
M  V30 280 C 27.5958 4.49135 0.244541 0
M  V30 281 C 28.9148 3.803 2.21495 0
M  V30 282 H 26.0338 0.69666 0.240488 0
M  V30 283 H 28.6758 1.89866 -0.0714356 0
M  V30 284 H 26.8258 3.3765 1.92158 0
M  V30 285 H 28.4978 4.59689 -0.385228 0
M  V30 286 H 26.7408 4.3165 -0.431379 0
M  V30 287 H 27.4118 5.47242 0.723207 0
M  V30 288 H 29.8878 3.80377 1.68678 0
M  V30 289 H 28.7638 4.82127 2.62382 0
M  V30 290 H 29.0248 3.15104 3.101 0
M  V30 291 N 28.0839 -0.256276 1.55502 0
M  V30 292 C 29.3239 -0.993081 1.78654 0
M  V30 293 C 29.6879 -1.8288 0.584724 0
M  V30 294 O 30.8889 -2.59665 0.694822 0
M  V30 295 C 29.1599 -1.83856 3.06483 0
M  V30 296 S 30.7189 -2.63573 3.5082 0
M  V30 297 H 27.5369 -0.334199 0.62756 0
M  V30 298 H 30.1389 -0.26184 1.93739 0
M  V30 299 H 28.8429 -1.21414 3.92029 0
M  V30 300 H 28.3739 -2.61271 2.94111 0
M  V30 301 H 30.3889 -3.86312 3.11412 0
M  V30 302 N 29.562 -1.4872 -0.521534 0
M  V30 303 C 30.81 -1.56857 -1.27437 0
M  V30 304 C 31.131 -0.247982 -1.93417 0
M  V30 305 O 30.401 0.731151 -1.81744 0
M  V30 306 H 28.981 -0.577885 -0.473347 0
M  V30 307 H 31.643 -1.85233 -0.606205 0
M  V30 308 H 30.739 -2.35402 -2.0492 0
M  V30 309 N 31.0401 0.771051 -1.3745 0
M  V30 310 C 32.0031 1.86598 -1.33093 0
M  V30 311 C 33.0031 1.59076 -0.234845 0
M  V30 312 O 34.1931 1.67145 -0.490732 0
M  V30 313 C 31.3251 3.23747 -1.06773 0
M  V30 314 H 32.5181 1.91873 -2.30488 0
M  V30 315 H 30.0711 0.970876 -1.2249 0
M  V30 316 H 30.8061 3.24148 -0.099129 0
M  V30 317 H 30.5911 3.45115 -1.86112 0
M  V30 318 H 32.0811 4.03824 -1.06377 0
M  V30 319 N 32.5182 1.22032 0.997298 0
M  V30 320 C 33.4812 0.987909 2.06816 0
M  V30 321 C 34.4812 -0.0440084 1.6074 0
M  V30 322 O 35.6712 0.194053 1.73116 0
M  V30 323 C 32.8032 0.49132 3.37341 0
M  V30 324 H 33.9962 1.93803 2.28868 0
M  V30 325 H 31.5492 1.03838 1.16822 0
M  V30 326 H 32.2842 -0.463364 3.20973 0
M  V30 327 H 32.0692 1.23575 3.72118 0
M  V30 328 H 33.5592 0.348824 4.16141 0
M  V30 329 N 33.9963 -1.19345 1.0293 0
M  V30 330 C 34.9063 -2.26245 0.620515 0
M  V30 331 C 35.9223 -1.70486 -0.347928 0
M  V30 332 O 37.0983 -2.00347 -0.205704 0
M  V30 333 C 34.1633 -3.46693 -0.0218957 0
M  V30 334 C 33.2243 -4.17632 0.994102 0
M  V30 335 C 32.4573 -5.32329 0.382253 0
M  V30 336 O 32.6803 -5.64552 -0.814676 0
M  V30 337 O 31.6143 -5.91664 1.10531 0
M  V30 338 H 35.4403 -2.63453 1.51083 0
M  V30 339 H 33.0253 -1.26207 0.799513 0
M  V30 340 H 34.9073 -4.19683 -0.380072 0
M  V30 341 H 33.5823 -3.11333 -0.886209 0
M  V30 342 H 32.4893 -3.4676 1.40387 0
M  V30 343 H 33.8223 -4.56964 1.8288 0
M  V30 344 N 35.4744 -0.807222 -1.35358 0
M  V30 345 C 36.4044 -0.232509 -2.3234 0
M  V30 346 C 37.3854 0.642386 -1.57504 0
M  V30 347 O 38.5704 0.572526 -1.85569 0
M  V30 348 C 35.7004 0.619238 -3.41735 0
M  V30 349 C 34.6544 -0.157215 -4.27711 0
M  V30 350 C 33.9804 0.816273 -5.28433 0
M  V30 351 C 35.2804 -1.35656 -5.04376 0
M  V30 352 H 36.9744 -1.04276 -2.80654 0
M  V30 353 H 34.5204 -0.50288 -1.34934 0
M  V30 354 H 36.4734 1.03137 -4.08584 0
M  V30 355 H 35.1974 1.46239 -2.92031 0
M  V30 356 H 33.8564 -0.550525 -3.62443 0
M  V30 357 H 33.5044 1.65494 -4.74996 0
M  V30 358 H 33.2044 0.301067 -5.86828 0
M  V30 359 H 34.7284 1.22659 -5.98153 0
M  V30 360 H 36.1424 -1.01927 -5.64166 0
M  V30 361 H 34.5394 -1.8063 -5.7227 0
M  V30 362 H 35.6094 -2.14288 -4.34981 0
M  V30 363 N 36.9525 1.47285 -0.560781 0
M  V30 364 C 38.1925 2.0436 -0.0404627 0
M  V30 365 C 38.5565 1.42534 1.28639 0
M  V30 366 O 39.7575 1.90677 1.89462 0
M  V30 367 C 38.0285 3.57369 0.0471856 0
M  V30 368 S 39.5875 4.3579 0.513109 0
M  V30 369 H 36.4055 0.710492 -0.0268674 0
M  V30 370 H 39.0075 1.80611 -0.748323 0
M  V30 371 H 37.7115 3.9989 -0.922817 0
M  V30 372 H 37.2425 3.8562 0.778491 0
M  V30 373 H 39.2575 4.63476 1.77212 0
M  V30 374 N 38.4306 0.297415 1.54768 0
M  V30 375 C 39.6766 -0.313376 2.00364 0
M  V30 376 C 40.0096 -1.53815 1.18553 0
M  V30 377 O 39.2846 -1.92739 0.261103 0
M  V30 378 C 39.5676 -0.673525 3.53745 0
M  V30 379 C 39.4206 0.560133 4.46299 0
M  V30 380 C 40.7396 -1.50143 4.13697 0
M  V30 381 H 37.8586 -0.112428 0.728374 0
M  V30 382 H 40.5006 0.4088 1.8555 0
M  V30 383 H 38.6506 -1.28881 3.665 0
M  V30 384 H 40.3226 1.19863 4.45455 0
M  V30 385 H 38.5656 1.19405 4.17043 0
M  V30 386 H 39.2366 0.26405 5.51368 0
M  V30 387 H 41.7126 -0.981588 4.04356 0
M  V30 388 H 40.5886 -1.72221 5.21182 0
M  V30 389 H 40.8496 -2.48952 3.65343 0
M  V30 390 N 39.9087 -1.5758 0.0250728 0
M  V30 391 C 40.8567 -2.11125 -0.97617 0
M  V30 392 C 41.8507 -1.03689 -1.33959 0
M  V30 393 O 43.0567 -1.22128 -1.3223 0
M  V30 394 H 39.4317 -0.674468 -0.332561 0
M  V30 395 H 41.4027 -2.94194 -0.499223 0
M  V30 396 C 40.1517 -2.65017 -2.2508 0
M  V30 397 H 39.4747 -3.47333 -1.9799 0
M  V30 398 H 40.9147 -3.06133 -2.93357 0
M  V30 399 C 39.3737 -1.57574 -2.97779 0
M  V30 400 O 39.9037 -0.973203 -3.89733 0
M  V30 401 N 38.1097 -1.29716 -2.60043 0
M  V30 402 H 37.6567 -1.789 -1.85345 0
M  V30 403 H 37.6147 -0.58051 -3.08994 0
M  V30 404 N 41.3868 0.248026 -1.55636 0
M  V30 405 C 42.6118 0.998028 -1.81808 0
M  V30 406 C 43.0368 1.78207 -0.601979 0
M  V30 407 O 42.3948 1.75653 0.448961 0
M  V30 408 C 42.4428 1.9125 -3.05705 0
M  V30 409 O 41.5468 3.00406 -2.82542 0
M  V30 410 H 40.8878 0.284045 -0.600179 0
M  V30 411 H 43.4178 0.269357 -2.02819 0
M  V30 412 H 43.4278 2.32737 -3.35108 0
M  V30 413 H 42.1028 1.33602 -3.93857 0
M  V30 414 H 40.6798 2.63056 -2.64303 0
M  V30 415 N 42.8649 1.48995 0.513639 0
M  V30 416 C 43.7949 1.67636 1.62544 0
M  V30 417 C 44.7759 0.525087 1.61793 0
M  V30 418 O 45.9609 0.759502 1.78732 0
M  V30 419 C 43.0909 1.73114 3.01079 0
M  V30 420 C 42.0449 2.87905 3.16693 0
M  V30 421 C 41.3709 2.78486 4.56453 0
M  V30 422 C 42.6709 4.29005 2.97913 0
M  V30 423 H 44.3649 2.60716 1.47198 0
M  V30 424 H 41.9109 1.25465 0.706714 0
M  V30 425 H 43.8639 1.84742 3.78746 0
M  V30 426 H 42.5879 0.766241 3.17484 0
M  V30 427 H 41.2469 2.75859 2.41448 0
M  V30 428 H 40.8949 1.7993 4.69717 0
M  V30 429 H 40.5949 3.55523 4.67843 0
M  V30 430 H 42.1189 2.92104 5.36197 0
M  V30 431 H 43.5329 4.41798 3.65359 0
M  V30 432 H 41.9299 5.07166 3.20785 0
M  V30 433 H 42.9999 4.44329 1.94165 0
M  V30 434 N 44.343 -0.763751 1.37857 0
M  V30 435 C 45.253 -1.90817 1.36478 0
M  V30 436 C 46.269 -1.71997 0.263248 0
M  V30 437 O 47.445 -1.95095 0.499979 0
M  V30 438 C 44.51 -3.2605 1.17864 0
M  V30 439 C 43.571 -3.57467 2.3773 0
M  V30 440 C 42.804 -4.86249 2.19995 0
M  V30 441 O 43.027 -5.57884 1.18836 0
M  V30 442 O 41.961 -5.16911 3.08361 0
M  V30 443 H 45.787 -1.94933 2.32884 0
M  V30 444 H 43.372 -0.907619 1.1867 0
M  V30 445 H 45.254 -4.06924 1.09504 0
M  V30 446 H 43.929 -3.22769 0.245372 0
M  V30 447 H 42.836 -2.76796 2.51664 0
M  V30 448 H 44.169 -3.655 3.29652 0
M  V30 449 N 45.8211 -1.22559 -0.990812 0
M  V30 450 C 46.7681 -0.997519 -2.0813 0
M  V30 451 C 47.7381 0.0814702 -1.659 0
M  V30 452 O 48.9231 -0.0685424 -1.90677 0
M  V30 453 C 46.0631 -0.583615 -3.40129 0
M  V30 454 C 45.1761 -1.7336 -3.9569 0
M  V30 455 C 44.3111 -1.26748 -5.15857 0
M  V30 456 C 43.3501 -2.38888 -5.63559 0
M  V30 457 N 42.4871 -1.93308 -6.74964 0
M  V30 458 H 47.3271 -1.93099 -2.26973 0
M  V30 459 H 44.8641 -0.962114 -1.11273 0
M  V30 460 H 46.8221 -0.324801 -4.15934 0
M  V30 461 H 45.4521 0.312845 -3.2128 0
M  V30 462 H 44.5041 -2.10669 -3.16738 0
M  V30 463 H 45.8161 -2.57704 -4.27071 0
M  V30 464 H 44.9701 -0.966173 -5.98957 0
M  V30 465 H 43.7091 -0.394272 -4.86104 0
M  V30 466 H 42.7141 -2.69805 -4.79046 0
M  V30 467 H 43.9391 -3.26728 -5.95336 0
M  V30 468 H 41.8851 -1.08352 -6.4699 0
M  V30 469 H 41.8021 -2.71217 -7.05675 0
M  V30 470 H 43.0701 -1.66252 -7.61564 0
M  V30 471 N 47.2992 1.18797 -1.03562 0
M  V30 472 C 48.5462 1.8865 -0.736023 0
M  V30 473 C 48.8742 1.80041 0.735889 0
M  V30 474 O 48.1292 1.19179 1.55225 0
M  V30 475 C 48.4282 3.38692 -1.14117 0
M  V30 476 C 48.0942 3.67504 -2.6125 0
M  V30 477 C 46.7562 3.75078 -3.01447 0
M  V30 478 C 49.1082 3.80293 -3.56408 0
M  V30 479 C 46.4362 3.92915 -4.35701 0
M  V30 480 C 48.7882 3.99645 -4.90374 0
M  V30 481 C 47.4522 4.05453 -5.30249 0
M  V30 482 H 46.7222 0.690321 -0.26933 0
M  V30 483 H 49.3692 1.40641 -1.29971 0
M  V30 484 H 47.6742 3.88645 -0.496202 0
M  V30 485 H 49.3712 3.91072 -0.886789 0
M  V30 486 H 45.9612 3.62223 -2.29113 0
M  V30 487 H 50.1452 3.73779 -3.26501 0
M  V30 488 H 45.4012 3.95653 -4.66121 0
M  V30 489 H 49.5752 4.08482 -5.64017 0
M  V30 490 H 47.2022 4.19027 -6.34288 0
M  V30 491 N 48.7773 0.814389 1.34928 0
M  V30 492 C 49.7273 0.202752 2.27097 0
M  V30 493 C 50.7113 -0.62799 1.48139 0
M  V30 494 O 51.9033 -0.483969 1.70255 0
M  V30 495 C 49.0323 -0.64146 3.37254 0
M  V30 496 C 48.1183 0.19944 4.23631 0
M  V30 497 N 48.5093 1.26628 4.89693 0
M  V30 498 C 46.8073 -0.0176433 4.45997 0
M  V30 499 C 47.5083 1.78031 5.53787 0
M  V30 500 N 46.4843 1.08553 5.32651 0
M  V30 501 H 50.2863 1.01893 2.75672 0
M  V30 502 H 47.8003 0.656332 1.48546 0
M  V30 503 H 49.7973 -1.09575 4.02243 0
M  V30 504 H 48.4573 -1.4559 2.9023 0
M  V30 505 H 49.4683 1.64901 4.90946 0
M  V30 506 H 46.1453 -0.800601 4.09752 0
M  V30 507 H 47.5353 2.67236 6.16469 0
M  V30 508 N 50.2554 -1.46986 0.568584 0
M  V30 509 C 51.5024 -2.02441 0.0487986 0
M  V30 510 C 51.8304 -1.44169 -1.30559 0
M  V30 511 O 51.0854 -0.591213 -1.86556 0
M  V30 512 C 51.3844 -3.57306 -0.081836 0
M  V30 513 C 51.0504 -4.34552 1.20313 0
M  V30 514 C 49.7124 -4.55376 1.5552 0
M  V30 515 C 52.0644 -4.79016 2.05411 0
M  V30 516 C 49.3924 -5.17913 2.7565 0
M  V30 517 C 51.7444 -5.42879 3.24754 0
M  V30 518 C 50.4084 -5.61933 3.60261 0
M  V30 519 H 49.6784 -0.740785 0.0178567 0
M  V30 520 H 52.3254 -1.76525 0.742384 0
M  V30 521 H 50.6304 -3.8228 -0.858463 0
M  V30 522 H 52.3274 -3.97876 -0.499546 0
M  V30 523 H 48.9174 -4.18631 0.919014 0
M  V30 524 H 53.1014 -4.62696 1.79516 0
M  V30 525 H 48.3574 -5.30858 3.03315 0
M  V30 526 H 52.5314 -5.76293 3.90973 0
M  V30 527 H 50.1584 -6.10161 4.53439 0
M  V30 528 N 51.7335 -0.305618 -1.54608 0
M  V30 529 C 52.6805 0.568421 -2.23691 0
M  V30 530 C 53.6505 1.12592 -1.22116 0
M  V30 531 O 54.8355 1.16959 -1.50749 0
M  V30 532 C 51.9755 1.7322 -2.98477 0
M  V30 533 C 51.0885 1.20566 -4.14835 0
M  V30 534 C 50.2235 2.33368 -4.77193 0
M  V30 535 C 49.2625 1.7787 -5.85686 0
M  V30 536 N 48.3995 2.84263 -6.4198 0
M  V30 537 H 53.2395 -0.0272867 -2.97988 0
M  V30 538 H 50.7765 -0.0252363 -1.47078 0
M  V30 539 H 52.7345 2.41675 -3.40072 0
M  V30 540 H 51.3645 2.29947 -2.26548 0
M  V30 541 H 50.4165 0.413223 -3.78149 0
M  V30 542 H 51.7285 0.759417 -4.92985 0
M  V30 543 H 50.8825 3.09761 -5.21664 0
M  V30 544 H 49.6215 2.8132 -3.98385 0
M  V30 545 H 48.6265 0.99968 -5.40635 0
M  V30 546 H 49.8515 1.30816 -6.66381 0
M  V30 547 H 47.7975 3.31541 -5.66053 0
M  V30 548 H 47.7145 2.44149 -7.15491 0
M  V30 549 H 48.9825 3.6054 -6.91109 0
M  V30 550 N 53.2116 1.57565 -0.0334293 0
M  V30 551 C 54.4366 1.96689 0.657895 0
M  V30 552 C 54.8616 0.910057 1.64619 0
M  V30 553 O 54.2196 -0.128598 1.80843 0
M  V30 554 C 54.2676 3.34905 1.33683 0
M  V30 555 O 53.3716 3.31574 2.45219 0
M  V30 556 H 52.7126 0.641205 0.172489 0
M  V30 557 H 55.2426 2.04372 -0.0965621 0
M  V30 558 H 55.2526 3.71234 1.69262 0
M  V30 559 H 53.9276 4.11366 0.612411 0
M  V30 560 H 52.5046 3.06968 2.11719 0
M  V30 561 N 54.6897 -0.239769 1.55765 0
M  V30 562 C 55.9357 -0.963942 1.79108 0
M  V30 563 C 56.2907 -1.82689 0.60352 0
M  V30 564 O 55.5837 -1.87313 -0.403033 0
M  V30 565 C 55.7777 -1.852 3.05672 0
M  V30 566 C 55.6067 -1.07651 4.36625 0
M  V30 567 C 54.3767 -0.778738 4.99263 0
M  V30 568 C 56.5747 -0.45062 5.12322 0
M  V30 569 N 54.5567 0.0200708 6.13897 0
M  V30 570 C 55.9277 0.212429 6.19636 0
M  V30 571 C 57.9827 -0.361806 4.96584 0
M  V30 572 C 56.6857 0.955772 7.12922 0
M  V30 573 C 58.7117 0.368023 5.90254 0
M  V30 574 C 58.0737 1.01968 6.96981 0
M  V30 575 H 54.1727 -0.333601 0.707272 0
M  V30 576 H 56.7567 -0.236425 1.93259 0
M  V30 577 H 54.9277 -2.55149 2.92837 0
M  V30 578 H 56.6597 -2.51228 3.1728 0
M  V30 579 H 53.4147 -1.09229 4.60832 0
M  V30 580 H 53.8387 0.407777 6.75771 0
M  V30 581 H 58.4807 -0.851286 4.14141 0
M  V30 582 H 56.1987 1.45683 7.9486 0
M  V30 583 H 59.7847 0.437504 5.80153 0
M  V30 584 H 58.6647 1.5754 7.68213 0
M  V30 585 N 56.1678 -1.49265 -0.50573 0
M  V30 586 C 57.1008 -1.60183 -1.62532 0
M  V30 587 C 58.0788 -0.451107 -1.56217 0
M  V30 588 O 59.2628 -0.666016 -1.76342 0
M  V30 589 C 56.3898 -1.55238 -3.01029 0
M  V30 590 C 55.4358 -2.7545 -3.25621 0
M  V30 591 S 56.2688 -4.37174 -3.09256 0
M  V30 592 C 57.4248 -4.34866 -4.50158 0
M  V30 593 H 57.6578 -2.54894 -1.53025 0
M  V30 594 H 55.1908 -1.38098 -0.690535 0
M  V30 595 H 57.1488 -1.53071 -3.80893 0
M  V30 596 H 55.8098 -0.618238 -3.07956 0
M  V30 597 H 55.0028 -2.68197 -4.26716 0
M  V30 598 H 54.6048 -2.75005 -2.53472 0
M  V30 599 H 56.8968 -4.06295 -5.42154 0
M  V30 600 H 57.8398 -5.36223 -4.62462 0
M  V30 601 H 58.2478 -3.65007 -4.30616 0
M  V30 602 N 57.6459 0.756429 -1.3826 0
M  V30 603 C 58.8709 1.55077 -1.37717 0
M  V30 604 C 59.2959 1.88073 0.03164 0
M  V30 605 O 58.6539 1.50364 1.01293 0
M  V30 606 C 58.7019 2.8283 -2.23695 0
M  V30 607 O 57.8059 3.77862 -1.6521 0
M  V30 608 H 57.1469 0.469152 -0.469885 0
M  V30 609 H 59.6769 0.935019 -1.81985 0
M  V30 610 H 59.6869 3.31783 -2.37453 0
M  V30 611 H 58.3619 2.58144 -3.2609 0
M  V30 612 H 56.9389 3.36555 -1.60578 0
M  V30 613 N 59.124 1.23083 0.984299 0
M  V30 614 C 60.071 1.00854 2.07598 0
M  V30 615 C 61.041 -0.0726709 1.65941 0
M  V30 616 O 62.226 0.0786535 1.90638 0
M  V30 617 C 59.366 0.601645 3.39815 0
M  V30 618 C 58.479 1.75456 3.94765 0
M  V30 619 C 57.614 1.29482 5.15177 0
M  V30 620 C 56.653 2.41873 5.62284 0
M  V30 621 N 55.79 1.96885 6.73929 0
M  V30 622 H 60.63 1.943 2.25946 0
M  V30 623 H 58.167 0.968001 1.10762 0
M  V30 624 H 60.125 0.346854 4.15756 0
M  V30 625 H 58.755 -0.295803 3.21442 0
M  V30 626 H 57.807 2.12346 3.15616 0
M  V30 627 H 59.119 2.59965 4.25699 0
M  V30 628 H 58.273 0.997923 5.98437 0
M  V30 629 H 57.012 0.420046 4.85888 0
M  V30 630 H 56.017 2.72342 4.77608 0
M  V30 631 H 57.242 3.29881 5.93595 0
M  V30 632 H 55.188 1.11782 6.46406 0
M  V30 633 H 55.105 2.74956 7.04227 0
M  V30 634 H 56.373 1.70289 7.60672 0
M  V30 635 N 60.6021 -1.18246 1.0419 0
M  V30 636 C 61.5521 -2.19843 0.604392 0
M  V30 637 C 62.5361 -1.56962 -0.353814 0
M  V30 638 O 63.7281 -1.76156 -0.17267 0
M  V30 639 C 60.8571 -3.43287 -0.0298975 0
M  V30 640 C 59.9431 -4.13288 0.951531 0
M  V30 641 N 60.3341 -4.59271 2.11906 0
M  V30 642 C 58.6321 -4.39165 0.7778 0
M  V30 643 C 59.3331 -5.13173 2.73912 0
M  V30 644 N 58.3091 -5.04763 2.01779 0
M  V30 645 H 62.1111 -2.53089 1.4941 0
M  V30 646 H 59.6251 -1.34465 0.910658 0
M  V30 647 H 61.6221 -4.15334 -0.361037 0
M  V30 648 H 60.2821 -3.11537 -0.915127 0
M  V30 649 H 61.2931 -4.5368 2.49789 0
M  V30 650 H 57.9701 -4.17461 -0.0572331 0
M  V30 651 H 59.3601 -5.58947 3.72864 0
M  V30 652 N 62.0802 -0.821533 -1.34494 0
M  V30 653 C 63.4962 -0.507117 -1.51329 0
M  V30 654 C 63.6962 0.968964 -1.76673 0
M  V30 655 O 62.7522 1.75348 -1.81685 0
M  V30 656 C 64.0652 -1.36544 -2.67911 0
M  V30 657 C 65.6132 -1.36242 -2.81793 0
M  V30 658 C 66.0882 -2.2052 -4.01416 0
M  V30 659 N 67.5792 -2.18136 -4.08621 0
M  V30 660 C 68.3142 -2.80095 -5.00334 0
M  V30 661 N 67.8102 -3.51039 -5.9728 0
M  V30 662 N 69.6032 -2.69656 -4.93196 0
M  V30 663 H 61.7542 -1.77729 -1.16302 0
M  V30 664 H 64.0172 -0.757291 -0.570276 0
M  V30 665 H 63.7232 -2.41361 -2.55808 0
M  V30 666 H 63.5972 -1.02917 -3.62888 0
M  V30 667 H 65.9842 -0.322041 -2.93338 0
M  V30 668 H 66.0652 -1.73866 -1.87628 0
M  V30 669 H 65.7092 -3.24607 -3.90631 0
M  V30 670 H 65.6392 -1.80247 -4.94791 0
M  V30 671 H 68.1302 -1.6653 -3.39229 0
M  V30 672 H 68.4432 -3.95565 -6.63889 0
M  V30 673 H 66.7882 -3.55145 -5.97409 0
M  V30 674 H 69.9792 -2.13808 -4.16418 0
M  V30 675 H 70.1522 -3.1823 -5.64476 0
M  V30 676 N 63.5583 1.46682 -0.576371 0
M  V30 677 C 64.5053 2.30241 0.160499 0
M  V30 678 C 65.4753 1.40233 0.890162 0
M  V30 679 O 66.6603 1.69186 0.882084 0
M  V30 680 C 63.8003 3.24578 1.1723 0
M  V30 681 C 62.9133 4.29684 0.446736 0
M  V30 682 C 62.0483 5.11154 1.44551 0
M  V30 683 C 61.0873 6.08015 0.70599 0
M  V30 684 N 60.2243 6.82376 1.65251 0
M  V30 685 H 65.0643 2.92727 -0.558127 0
M  V30 686 H 62.6013 1.44272 -0.287056 0
M  V30 687 H 64.5593 3.77711 1.77172 0
M  V30 688 H 63.1893 2.63916 1.85872 0
M  V30 689 H 62.2413 3.79458 -0.267594 0
M  V30 690 H 63.5533 4.98626 -0.131686 0
M  V30 691 H 62.7073 5.68533 2.11791 0
M  V30 692 H 61.4463 4.42158 2.05786 0
M  V30 693 H 60.4513 5.49796 0.0197725 0
M  V30 694 H 61.6763 6.79028 0.09912 0
M  V30 695 H 59.6223 6.16094 2.25308 0
M  V30 696 H 59.5393 7.47556 1.12673 0
M  V30 697 H 60.8073 7.44316 2.31546 0
M  V30 698 N 65.0364 0.313813 1.54444 0
M  V30 699 C 66.2644 -0.293918 2.04802 0
M  V30 700 C 66.6794 -1.46537 1.19047 0
M  V30 701 O 66.0364 -1.81182 0.218939 0
M  V30 702 C 66.0874 -0.737806 3.53891 0
M  V30 703 O 65.8084 0.387038 4.36387 0
M  V30 704 C 67.3094 -1.40936 4.203 0
M  V30 705 H 64.5294 -0.0620057 0.668129 0
M  V30 706 H 67.0734 0.457169 1.99324 0
M  V30 707 H 65.2284 -1.43889 3.59687 0
M  V30 708 H 65.6424 0.0391274 5.24485 0
M  V30 709 H 67.1164 -1.67099 5.26101 0
M  V30 710 H 67.5934 -2.35355 3.70816 0
M  V30 711 H 68.1994 -0.751117 4.18615 0
M  V30 712 N 66.5145 -1.57545 0.0417849 0
M  V30 713 C 67.7445 -1.96339 -0.642995 0
M  V30 714 C 68.1525 -0.917536 -1.65463 0
M  V30 715 O 67.4955 0.107747 -1.83384 0
M  V30 716 C 67.5575 -3.31333 -1.39494 0
M  V30 717 C 67.2215 -4.53796 -0.540204 0
M  V30 718 C 68.2185 -5.19553 0.189806 0
M  V30 719 C 65.9035 -5.0006 -0.473886 0
M  V30 720 C 67.8975 -6.29904 0.974674 0
M  V30 721 C 65.5845 -6.10289 0.314677 0
M  V30 722 C 66.5825 -6.75072 1.03765 0
M  V30 723 O 66.2705 -7.83183 1.81327 0
M  V30 724 H 66.0025 -0.651241 -0.181277 0
M  V30 725 H 68.5565 -2.05148 0.101665 0
M  V30 726 H 66.7865 -3.19052 -2.18502 0
M  V30 727 H 68.4755 -3.54942 -1.96904 0
M  V30 728 H 69.2415 -4.84774 0.147981 0
M  V30 729 H 65.1205 -4.49433 -1.0262 0
M  V30 730 H 68.6645 -6.80401 1.5395 0
M  V30 731 H 64.5615 -6.44506 0.358174 0
M  V30 732 H 65.3295 -7.99913 1.73438 0
M  V30 733 N 67.9926 0.231505 -1.5589 0
M  V30 734 C 69.2176 0.978689 -1.82856 0
M  V30 735 C 69.6426 1.77559 -0.620846 0
M  V30 736 O 69.0006 1.76119 0.430305 0
M  V30 737 C 69.0486 1.87997 -3.07716 0
M  V30 738 O 68.1526 2.97393 -2.85712 0
M  V30 739 H 67.4936 0.277663 -0.603158 0
M  V30 740 H 70.0236 0.24783 -2.03093 0
M  V30 741 H 70.0336 2.2917 -3.37558 0
M  V30 742 H 68.7086 1.29417 -3.95252 0
M  V30 743 H 67.2856 2.60238 -2.67078 0
M  V30 744 N 69.4707 1.49531 0.497807 0
M  V30 745 C 70.6987 1.62893 1.27567 0
M  V30 746 C 71.1137 0.301585 1.86376 0
M  V30 747 O 70.4707 -0.713335 1.67982 0
M  V30 748 C 70.5217 2.70013 2.40364 0
M  V30 749 O 70.2427 3.976 1.83972 0
M  V30 750 C 71.7437 2.94109 3.31685 0
M  V30 751 H 68.9637 0.548298 0.386794 0
M  V30 752 H 71.5077 1.95584 0.597245 0
M  V30 753 H 69.6627 2.40092 3.04031 0
M  V30 754 H 70.0767 4.56631 2.58047 0
M  V30 755 H 71.5507 3.72788 4.07104 0
M  V30 756 H 72.0277 2.04147 3.88871 0
M  V30 757 H 72.6337 3.2546 2.73781 0
M  V30 758 N 70.9488 -0.749086 1.3866 0
M  V30 759 C 71.8588 -1.89358 1.38494 0
M  V30 760 C 72.8748 -1.71708 0.281476 0
M  V30 761 O 74.0508 -1.94554 0.520643 0
M  V30 762 C 71.1158 -3.24782 1.21316 0
M  V30 763 C 70.1768 -3.54926 2.41508 0
M  V30 764 C 69.4098 -4.83888 2.2514 0
M  V30 765 O 69.6328 -5.56592 1.24746 0
M  V30 766 O 68.5668 -5.13612 3.13826 0
M  V30 767 H 72.3928 -1.92452 2.34938 0
M  V30 768 H 69.9778 -0.894981 1.19626 0
M  V30 769 H 71.8598 -4.05739 1.13814 0
M  V30 770 H 70.5348 -3.2249 0.279592 0
M  V30 771 H 69.4418 -2.74112 2.54585 0
M  V30 772 H 70.7748 -3.61983 3.3351 0
M  V30 773 N 72.4269 -1.23603 -0.977757 0
M  V30 774 C 73.3369 -1.03632 -2.1047 0
M  V30 775 C 74.3529 0.0199435 -1.73989 0
M  V30 776 O 75.5289 -0.176076 -2.00629 0
M  V30 777 C 72.5939 -0.63276 -3.40877 0
M  V30 778 C 71.6549 -1.76437 -3.91367 0
M  V30 779 C 70.8879 -1.37997 -5.15551 0
M  V30 780 O 71.1109 -0.265357 -5.69782 0
M  V30 781 O 70.0449 -2.20201 -5.60174 0
M  V30 782 H 73.8709 -1.98086 -2.30208 0
M  V30 783 H 71.4559 -1.02332 -1.08851 0
M  V30 784 H 73.3379 -0.418761 -4.19314 0
M  V30 785 H 72.0129 0.282754 -3.22463 0
M  V30 786 H 70.9199 -2.03304 -3.14036 0
M  V30 787 H 72.2529 -2.6583 -4.14241 0
M  V30 788 N 73.905 1.17692 -1.04816 0
M  V30 789 C 75.135 1.91508 -0.775128 0
M  V30 790 C 75.543 1.76844 0.67253 0
M  V30 791 O 74.886 1.10057 1.47082 0
M  V30 792 C 74.948 3.43167 -1.0713 0
M  V30 793 C 74.612 3.81612 -2.51438 0
M  V30 794 C 75.609 3.84772 -3.49638 0
M  V30 795 C 73.294 4.12687 -2.86348 0
M  V30 796 C 75.288 4.18469 -4.80794 0
M  V30 797 C 72.975 4.46053 -4.17708 0
M  V30 798 C 73.973 4.48921 -5.14741 0
M  V30 799 O 73.661 4.81504 -6.43746 0
M  V30 800 H 73.393 0.614575 -0.281555 0
M  V30 801 H 75.947 1.50206 -1.40098 0
M  V30 802 H 74.177 3.84745 -0.388342 0
M  V30 803 H 75.866 3.98239 -0.784883 0
M  V30 804 H 76.632 3.60893 -3.24008 0
M  V30 805 H 72.511 4.09627 -2.11486 0
M  V30 806 H 76.055 4.20623 -5.56527 0
M  V30 807 H 71.952 4.69393 -4.43103 0
M  V30 808 H 72.72 4.99377 -6.4851 0
M  V30 809 N 75.3831 0.828654 1.34056 0
M  V30 810 C 76.3331 0.226828 2.26869 0
M  V30 811 C 77.3171 -0.612243 1.48796 0
M  V30 812 O 78.5091 -0.465884 1.70759 0
M  V30 813 C 75.6381 -0.605654 3.37915 0
M  V30 814 C 74.7241 0.244361 4.23395 0
M  V30 815 N 75.1151 1.31815 4.88322 0
M  V30 816 C 73.4131 0.0296616 4.4599 0
M  V30 817 C 74.1141 1.83895 5.51867 0
M  V30 818 N 73.0901 1.14196 5.3147 0
M  V30 819 H 76.8921 1.04811 2.74576 0
M  V30 820 H 74.4061 0.67205 1.47842 0
M  V30 821 H 76.4031 -1.05302 4.03382 0
M  V30 822 H 75.0631 -1.42504 2.91758 0
M  V30 823 H 76.0741 1.70099 4.8917 0
M  V30 824 H 72.7511 -0.757097 4.10578 0
M  V30 825 H 74.1411 2.7376 6.136 0
M  V30 826 N 76.8612 -1.46375 0.584142 0
M  V30 827 C 77.8112 -2.27371 -0.169232 0
M  V30 828 C 78.7952 -1.35955 -0.860523 0
M  V30 829 O 79.9872 -1.60119 -0.754382 0
M  V30 830 C 77.1162 -3.22334 -1.18134 0
M  V30 831 C 76.2022 -4.21235 -0.492088 0
M  V30 832 N 76.5932 -5.03766 0.453129 0
M  V30 833 C 74.8912 -4.39773 -0.742652 0
M  V30 834 C 75.5922 -5.75366 0.85609 0
M  V30 835 N 74.5682 -5.43214 0.204926 0
M  V30 836 H 78.3702 -2.88572 0.557097 0
M  V30 837 H 75.8842 -1.57242 0.406042 0
M  V30 838 H 77.8812 -3.79071 -1.73525 0
M  V30 839 H 76.5412 -2.62693 -1.90847 0
M  V30 840 H 77.5522 -5.11227 0.828723 0
M  V30 841 H 74.2292 -3.91279 -1.45625 0
M  V30 842 H 75.6192 -6.5172 1.63434 0
M  V30 843 N 78.3393 -0.321999 -1.54275 0
M  V30 844 C 79.7553 0.0306999 -1.5957 0
M  V30 845 C 79.9553 1.50614 -1.33857 0
M  V30 846 O 79.0113 2.2619 -1.12223 0
M  V30 847 C 80.3243 -0.386122 -2.98211 0
M  V30 848 C 81.8723 -0.336647 -3.11184 0
M  V30 849 C 82.3473 -0.728607 -4.52167 0
M  V30 850 N 83.8383 -0.681952 -4.58152 0
M  V30 851 C 84.5733 -0.957449 -5.6535 0
M  V30 852 N 84.0693 -1.3 -6.80494 0
M  V30 853 N 85.8623 -0.883113 -5.55119 0
M  V30 854 H 78.0133 -1.28332 -1.69247 0
M  V30 855 H 80.2763 -0.521716 -0.791528 0
M  V30 856 H 79.9823 -1.41404 -3.22022 0
M  V30 857 H 79.8563 0.249662 -3.76373 0
M  V30 858 H 82.2433 0.682058 -2.8711 0
M  V30 859 H 82.3243 -1.00734 -2.3513 0
M  V30 860 H 81.9683 -1.74522 -4.76974 0
M  V30 861 H 81.8983 -0.0356152 -5.26588 0
M  V30 862 H 84.3893 -0.428985 -3.75457 0
M  V30 863 H 84.7023 -1.49563 -7.58189 0
M  V30 864 H 83.0473 -1.33824 -6.81994 0
M  V30 865 H 86.2383 -0.615001 -4.64042 0
M  V30 866 H 86.4113 -1.10118 -6.38575 0
M  V30 867 N 79.8174 1.5752 -0.0501392 0
M  V30 868 C 80.7474 2.14502 0.922566 0
M  V30 869 C 81.7284 1.06642 1.3252 0
M  V30 870 O 82.9134 1.34577 1.4001 0
M  V30 871 C 80.0434 2.68916 2.19776 0
M  V30 872 C 78.9974 3.8175 1.93523 0
M  V30 873 C 78.3234 4.22677 3.27487 0
M  V30 874 C 79.6234 5.06932 1.25765 0
M  V30 875 H 81.3174 2.9603 0.447952 0
M  V30 876 H 78.8634 1.42401 0.214024 0
M  V30 877 H 80.8164 3.07419 2.88222 0
M  V30 878 H 79.5404 1.84578 2.69441 0
M  V30 879 H 78.1994 3.43718 1.27489 0
M  V30 880 H 77.8474 3.35291 3.74952 0
M  V30 881 H 77.5474 4.98725 3.1072 0
M  V30 882 H 79.0714 4.63779 3.97166 0
M  V30 883 H 80.4854 5.42888 1.84244 0
M  V30 884 H 78.8824 5.88116 1.19328 0
M  V30 885 H 79.9524 4.84337 0.233536 0
M  V30 886 N 81.2955 -0.223234 1.56011 0
M  V30 887 C 82.2275 -1.30006 1.88762 0
M  V30 888 C 83.2405 -1.43129 0.775746 0
M  V30 889 O 84.4295 -1.44057 1.05403 0
M  V30 890 C 81.5295 -2.67589 2.07965 0
M  V30 891 C 80.7025 -2.76434 3.38973 0
M  V30 892 C 79.7615 -3.95019 3.47629 0
M  V30 893 O 78.7875 -3.83436 4.20672 0
M  V30 894 N 79.9895 -5.09249 2.78649 0
M  V30 895 H 82.7545 -1.02238 2.81722 0
M  V30 896 H 80.3155 -0.413278 1.56536 0
M  V30 897 H 82.3075 -3.45297 2.11073 0
M  V30 898 H 80.8775 -2.87964 1.21638 0
M  V30 899 H 80.0975 -1.85216 3.47978 0
M  V30 900 H 81.3855 -2.79313 4.25278 0
M  V30 901 H 80.7835 -5.21556 2.19081 0
M  V30 902 H 79.3405 -5.85007 2.8742 0
M  V30 903 N 82.7736 -1.49793 -0.48987 0
M  V30 904 C 84.0016 -1.63568 -1.26701 0
M  V30 905 C 84.4166 -0.311465 -1.86213 0
M  V30 906 O 83.7736 0.704416 -1.68357 0
M  V30 907 C 83.8246 -2.71284 -2.38929 0
M  V30 908 O 83.5456 -3.9857 -1.81861 0
M  V30 909 C 85.0466 -2.95864 -3.3012 0
M  V30 910 H 82.2666 -0.550342 -0.383881 0
M  V30 911 H 84.8106 -1.95898 -0.586864 0
M  V30 912 H 82.9656 -2.417 -3.02753 0
M  V30 913 H 83.3796 -4.57993 -2.55622 0
M  V30 914 H 84.8536 -3.74941 -4.05121 0
M  V30 915 H 85.3306 -2.06206 -3.87783 0
M  V30 916 H 85.9366 -3.26907 -2.72051 0
M  V30 917 N 84.2517 0.741722 -1.39055 0
M  V30 918 C 85.4987 1.50114 -1.35912 0
M  V30 919 C 85.8267 1.94443 0.0470937 0
M  V30 920 O 85.0817 1.66612 1.02659 0
M  V30 921 C 85.3807 2.7592 -2.27163 0
M  V30 922 C 85.0467 2.50493 -3.74919 0
M  V30 923 C 83.7087 2.43267 -4.1518 0
M  V30 924 C 86.0607 2.28585 -4.684 0
M  V30 925 C 83.3887 2.12166 -5.46994 0
M  V30 926 C 85.7407 1.99002 -6.00484 0
M  V30 927 C 84.4047 1.90241 -6.39816 0
M  V30 928 H 83.6747 0.549306 -0.497336 0
M  V30 929 H 86.3217 0.851896 -1.71508 0
M  V30 930 H 84.6267 3.45553 -1.84663 0
M  V30 931 H 86.3237 3.33923 -2.22028 0
M  V30 932 H 82.9137 2.56992 -3.43006 0
M  V30 933 H 87.0977 2.33139 -4.38132 0
M  V30 934 H 82.3537 2.03901 -5.76398 0
M  V30 935 H 86.5277 1.81057 -6.72452 0
M  V30 936 H 84.1547 1.65907 -7.41875 0
M  V30 937 N 85.7298 1.2412 0.971189 0
M  V30 938 C 86.6928 1.03156 2.04674 0
M  V30 939 C 87.6928 -0.00990322 1.60797 0
M  V30 940 O 88.8828 0.230729 1.72665 0
M  V30 941 C 86.0148 0.562765 3.36223 0
M  V30 942 H 87.2078 1.98614 2.24705 0
M  V30 943 H 84.7608 1.06293 1.14593 0
M  V30 944 H 85.4958 -0.395176 3.21883 0
M  V30 945 H 85.2808 1.31441 3.69413 0
M  V30 946 H 86.7708 0.437015 4.15307 0
M  V30 947 N 87.2079 -1.17134 1.05439 0
M  V30 948 C 88.4329 -1.91913 0.786396 0
M  V30 949 C 88.8579 -1.7643 -0.652234 0
M  V30 950 O 88.2159 -1.08372 -1.45345 0
M  V30 951 C 88.2639 -3.40921 1.17497 0
M  V30 952 O 87.3679 -4.11244 0.308589 0
M  V30 953 H 86.7089 -0.598215 0.288158 0
M  V30 954 H 89.2389 -1.48457 1.4079 0
M  V30 955 H 89.2489 -3.91668 1.14281 0
M  V30 956 H 87.9239 -3.5151 2.22292 0
M  V30 957 H 86.5009 -3.70731 0.40157 0
M  V30 958 N 88.686 -0.835752 -1.33615 0
M  V30 959 C 89.634 -0.255238 -2.31195 0
M  V30 960 C 90.628 0.61107 -1.57995 0
M  V30 961 O 91.834 0.500979 -1.72888 0
M  V30 962 H 88.209 -0.0638085 -0.749288 0
M  V30 963 H 90.18 -1.09283 -2.77669 0
M  V30 964 C 88.929 0.55754 -3.43201 0
M  V30 965 H 88.252 -0.0997553 -3.99676 0
M  V30 966 H 89.692 0.929622 -4.13683 0
M  V30 967 C 88.151 1.73515 -2.88781 0
M  V30 968 O 88.681 2.83376 -2.84712 0
M  V30 969 N 86.887 1.55603 -2.4543 0
M  V30 970 H 86.434 0.662354 -2.48939 0
M  V30 971 H 86.392 2.34545 -2.09371 0
M  V30 972 N 90.1641 1.46063 -0.591896 0
M  V30 973 C 91.4101 2.03203 -0.0894879 0
M  V30 974 C 91.7651 1.45407 1.25994 0
M  V30 975 O 91.0581 0.61326 1.8152 0
M  V30 976 C 91.2521 3.57391 0.0249813 0
M  V30 977 C 91.0811 4.30142 -1.3118 0
M  V30 978 C 89.8511 4.68688 -1.88838 0
M  V30 979 C 92.0491 4.63098 -2.23708 0
M  V30 980 N 90.0311 5.26228 -3.1616 0
M  V30 981 C 91.4021 5.21305 -3.3562 0
M  V30 982 C 93.4571 4.45031 -2.23274 0
M  V30 983 C 92.1601 5.63351 -4.47245 0
M  V30 984 C 94.1861 4.881 -3.33935 0
M  V30 985 C 93.5481 5.46386 -4.44569 0
M  V30 986 H 89.6471 0.778323 -0.0757431 0
M  V30 987 H 92.2311 1.78094 -0.78681 0
M  V30 988 H 90.4021 3.82195 0.69149 0
M  V30 989 H 92.1341 4.0118 0.532613 0
M  V30 990 H 88.8891 4.5174 -1.42223 0
M  V30 991 H 89.3131 5.59512 -3.8115 0
M  V30 992 H 93.9551 3.99295 -1.39008 0
M  V30 993 H 91.6731 6.08061 -5.32247 0
M  V30 994 H 95.2591 4.75866 -3.34728 0
M  V30 995 H 94.1391 5.79102 -5.28782 0
M  V30 996 N 91.6422 0.330177 1.54103 0
M  V30 997 C 93.0582 -0.0222371 1.59585 0
M  V30 998 C 93.2582 -1.49902 1.34654 0
M  V30 999 O 92.3142 -2.25592 1.13421 0
M  V30 1000 C 93.6272 0.401932 2.98002 0
M  V30 1001 C 95.1752 0.353145 3.11001 0
M  V30 1002 C 95.6502 0.752576 4.51775 0
M  V30 1003 N 97.1412 0.706239 4.57784 0
M  V30 1004 C 97.8762 0.987417 5.64834 0
M  V30 1005 N 97.3722 1.33607 6.79795 0
M  V30 1006 N 99.1652 0.91254 5.54643 0
M  V30 1007 H 91.3162 1.29228 1.68564 0
M  V30 1008 H 93.5792 0.525906 0.78875 0
M  V30 1009 H 93.2852 1.4311 3.21267 0
M  V30 1010 H 93.1592 -0.229699 3.765 0
M  V30 1011 H 95.5462 -0.666822 2.87467 0
M  V30 1012 H 95.6272 1.0198 2.34593 0
M  V30 1013 H 95.2712 1.77049 4.76042 0
M  V30 1014 H 95.2012 0.0635409 5.26562 0
M  V30 1015 H 97.6922 0.44889 3.75224 0
M  V30 1016 H 98.0052 1.53582 7.57385 0
M  V30 1017 H 96.3502 1.37439 6.81275 0
M  V30 1018 H 99.5412 0.639601 4.6371 0
M  V30 1019 H 99.7142 1.13503 6.37982 0
M  V30 1020 N 93.1203 -1.57491 0.0584922 0
M  V30 1021 C 94.0673 -2.11958 -0.913376 0
M  V30 1022 C 95.0373 -1.02875 -1.30407 0
M  V30 1023 O 96.2223 -1.30464 -1.39226 0
M  V30 1024 C 93.3623 -2.67497 -2.18035 0
M  V30 1025 C 92.4753 -3.90691 -1.84349 0
M  V30 1026 C 91.6103 -4.3452 -3.05559 0
M  V30 1027 C 90.6493 -5.50395 -2.67827 0
M  V30 1028 N 89.7863 -5.89244 -3.81754 0
M  V30 1029 H 94.6263 -2.94704 -0.442017 0
M  V30 1030 H 92.1633 -1.45643 -0.206545 0
M  V30 1031 H 94.1213 -2.978 -2.92183 0
M  V30 1032 H 92.7513 -1.87537 -2.62735 0
M  V30 1033 H 91.8033 -3.66934 -1.00319 0
M  V30 1034 H 93.1153 -4.7489 -1.5258 0
M  V30 1035 H 92.2693 -4.66414 -3.87998 0
M  V30 1036 H 91.0083 -3.49147 -3.40511 0
M  V30 1037 H 90.0133 -5.18165 -1.83806 0
M  V30 1038 H 91.2383 -6.3749 -2.34059 0
M  V30 1039 H 89.1843 -5.06823 -4.16493 0
M  V30 1040 H 89.1013 -6.68151 -3.53708 0
M  V30 1041 H 90.3693 -6.25756 -4.64811 0
M  V30 1042 N 94.5984 0.214957 -1.56127 0
M  V30 1043 C 95.8474 0.936451 -1.78643 0
M  V30 1044 C 96.1604 1.85237 -0.628229 0
M  V30 1045 O 97.3664 2.613 -0.737186 0
M  V30 1046 C 95.8224 1.7154 -3.16389 0
M  V30 1047 C 95.4304 0.845299 -4.39953 0
M  V30 1048 C 97.1744 2.42772 -3.48227 0
M  V30 1049 C 95.0814 1.62198 -5.68723 0
M  V30 1050 H 94.0114 0.353401 -0.666051 0
M  V30 1051 H 96.6624 0.190169 -1.82512 0
M  V30 1052 H 95.0444 2.50484 -3.06715 0
M  V30 1053 H 96.2184 0.0959353 -4.607 0
M  V30 1054 H 94.5334 0.244789 -4.1568 0
M  V30 1055 H 97.1304 3.01394 -4.41663 0
M  V30 1056 H 97.4734 3.15984 -2.71035 0
M  V30 1057 H 98.0064 1.70813 -3.5926 0
M  V30 1058 H 94.7454 0.933011 -6.48826 0
M  V30 1059 H 94.2654 2.34579 -5.52026 0
M  V30 1060 H 95.9444 2.18095 -6.09133 0
M  V30 1061 N 96.0765 1.50051 0.48192 0
M  V30 1062 C 97.0245 1.68635 1.60203 0
M  V30 1063 C 98.0185 0.552184 1.60148 0
M  V30 1064 O 99.2245 0.732377 1.64427 0
M  V30 1065 H 95.5995 0.532081 0.531407 0
M  V30 1066 H 97.5705 2.62616 1.41688 0
M  V30 1067 C 96.3195 1.78775 2.9822 0
M  V30 1068 H 95.6425 2.6543 2.98976 0
M  V30 1069 H 97.0825 1.95806 3.7608 0
M  V30 1070 C 95.5415 0.536849 3.32595 0
M  V30 1071 O 96.0715 -0.328897 4.00351 0
M  V30 1072 N 94.2775 0.394091 2.87915 0
M  V30 1073 H 93.8245 1.09962 2.32951 0
M  V30 1074 H 93.7825 -0.441737 3.11281 0
M  V30 1075 N 97.5546 -0.734337 1.39446 0
M  V30 1076 C 98.5176 -1.83004 1.37994 0
M  V30 1077 C 99.5176 -1.58397 0.276938 0
M  V30 1078 O 100.708 -1.65785 0.534875 0
M  V30 1079 C 97.8396 -3.20802 1.1532 0
M  V30 1080 H 99.0326 -1.85694 2.35494 0
M  V30 1081 H 96.5856 -0.938059 1.25021 0
M  V30 1082 H 97.3206 -3.23772 0.185036 0
M  V30 1083 H 97.1056 -3.4006 1.95197 0
M  V30 1084 H 98.5956 -4.00862 1.17046 0
M  V30 1085 N 99.0327 -1.24633 -0.964593 0
M  V30 1086 C 99.9827 -1.00841 -2.04487 0
M  V30 1087 C 100.967 0.0512468 -1.60818 0
M  V30 1088 O 102.159 -0.162865 -1.76249 0
M  V30 1089 C 99.2877 -0.618474 -3.37683 0
M  V30 1090 C 98.3737 -1.71437 -3.87905 0
M  V30 1091 N 98.7647 -2.9477 -4.11029 0
M  V30 1092 C 97.0627 -1.5926 -4.16596 0
M  V30 1093 C 97.7637 -3.65834 -4.52261 0
M  V30 1094 N 96.7397 -2.9341 -4.57615 0
M  V30 1095 H 100.542 -1.94487 -2.20345 0
M  V30 1096 H 98.0557 -1.14805 -1.14863 0
M  V30 1097 H 100.053 -0.429247 -4.14684 0
M  V30 1098 H 98.7127 0.310766 -3.23209 0
M  V30 1099 H 99.7237 -3.30917 -3.9839 0
M  V30 1100 H 96.4007 -0.731606 -4.1104 0
M  V30 1101 H 97.7907 -4.71646 -4.78539 0
M  V30 1102 N 100.511 1.16574 -1.06058 0
M  V30 1103 C 101.459 2.22941 -0.663343 0
M  V30 1104 C 102.453 1.66358 0.319593 0
M  V30 1105 O 103.659 1.7905 0.184713 0
M  V30 1106 H 100.034 0.725907 -0.196376 0
M  V30 1107 H 102.005 2.53736 -1.57037 0
M  V30 1108 C 100.754 3.47642 -0.0632808 0
M  V30 1109 H 100.077 3.91493 -0.810733 0
M  V30 1110 H 101.517 4.2363 0.177177 0
M  V30 1111 C 99.9758 3.1509 1.19248 0
M  V30 1112 O 100.506 3.30673 2.28075 0
M  V30 1113 N 98.7118 2.6924 1.09353 0
M  V30 1114 H 98.2588 2.5676 0.207912 0
M  V30 1115 H 98.2168 2.47833 1.93458 0
M  V30 1116 N 101.989 0.842826 1.3317 0
M  V30 1117 C 102.937 0.267495 2.31057 0
M  V30 1118 C 103.931 -0.602682 1.58316 0
M  V30 1119 O 105.137 -0.491803 1.73151 0
M  V30 1120 H 101.512 0.0677813 0.748939 0
M  V30 1121 H 103.483 1.10754 2.77085 0
M  V30 1122 C 102.232 -0.539331 3.43492 0
M  V30 1123 H 101.555 0.12095 3.99617 0
M  V30 1124 H 102.995 -0.90767 4.14171 0
M  V30 1125 C 101.454 -1.71981 2.89697 0
M  V30 1126 O 101.984 -2.81862 2.86211 0
M  V30 1127 N 100.19 -1.54299 2.46252 0
M  V30 1128 H 99.7369 -0.649143 2.49287 0
M  V30 1129 H 99.6949 -2.33431 2.10612 0
M  V30 1130 N 103.467 -1.45747 0.599634 0
M  V30 1131 C 104.715 -2.01893 0.0915472 0
M  V30 1132 C 105.036 -1.47155 -1.27946 0
M  V30 1133 O 104.306 -0.66273 -1.84349 0
M  V30 1134 H 102.886 -0.746363 0.0308524 0
M  V30 1135 H 105.548 -1.78645 0.779237 0
M  V30 1136 H 104.644 -3.1208 0.0353086 0
M  V30 1137 N 104.945 -0.338344 -1.53925 0
M  V30 1138 C 105.893 0.536231 -2.26335 0
M  V30 1139 C 106.887 1.1063 -1.28286 0
M  V30 1140 O 108.093 1.05264 -1.46012 0
M  V30 1141 H 104.468 0.191602 -0.727181 0
M  V30 1142 H 106.439 -0.0965747 -2.98244 0
M  V30 1143 C 105.188 1.67803 -3.04528 0
M  V30 1144 H 104.511 1.24864 -3.79801 0
M  V30 1145 H 105.951 2.26526 -3.58416 0
M  V30 1146 C 104.41 2.60439 -2.13712 0
M  V30 1147 O 104.94 3.6255 -1.72975 0
M  V30 1148 N 103.146 2.29006 -1.78898 0
M  V30 1149 H 102.693 1.46011 -2.12223 0
M  V30 1150 H 102.651 2.91248 -1.18416 0
M  V30 1151 N 106.423 1.57458 -0.0668435 0
M  V30 1152 C 107.373 2.0896 0.912119 0
M  V30 1153 C 108.357 0.998186 1.26195 0
M  V30 1154 O 109.549 1.26133 1.24175 0
M  V30 1155 C 106.678 2.6508 2.18145 0
M  V30 1156 C 105.764 3.81218 1.85832 0
M  V30 1157 N 106.155 4.90378 1.23948 0
M  V30 1158 C 104.453 3.9042 2.15612 0
M  V30 1159 C 105.154 5.71279 1.09616 0
M  V30 1160 N 104.13 5.19389 1.60423 0
M  V30 1161 H 107.932 2.90749 0.42924 0
M  V30 1162 H 105.446 1.6182 0.137184 0
M  V30 1163 H 107.443 3.0029 2.89192 0
M  V30 1164 H 106.103 1.84736 2.67025 0
M  V30 1165 H 107.114 5.09847 0.909731 0
M  V30 1166 H 103.791 3.21043 2.66903 0
M  V30 1167 H 105.181 6.69085 0.614425 0
M  V30 1168 N 107.901 -0.206675 1.56239 0
M  V30 1169 C 109.129 -0.945345 1.8404 0
M  V30 1170 C 109.544 -1.77336 0.647885 0
M  V30 1171 O 108.901 -1.78425 -0.383511 0
M  V30 1172 C 108.952 -1.8509 3.10522 0
M  V30 1173 O 108.673 -1.05634 4.25174 0
M  V30 1174 C 110.174 -2.70222 3.51418 0
M  V30 1175 H 107.394 -0.276372 0.61144 0
M  V30 1176 H 109.938 -0.217417 2.03341 0
M  V30 1177 H 108.093 -2.53259 2.93153 0
M  V30 1178 H 108.507 -1.67238 4.97124 0
M  V30 1179 H 109.981 -3.29438 4.42916 0
M  V30 1180 H 110.458 -3.43358 2.73864 0
M  V30 1181 H 111.064 -2.07443 3.71278 0
M  V30 1182 N 109.379 -1.50304 -0.473955 0
M  V30 1183 C 110.626 -1.6115 -1.22625 0
M  V30 1184 C 110.954 -0.310517 -1.92005 0
M  V30 1185 O 110.209 0.703419 -1.82621 0
M  V30 1186 C 110.508 -2.73938 -2.29549 0
M  V30 1187 C 110.174 -4.14519 -1.7744 0
M  V30 1188 C 108.836 -4.5277 -1.62949 0
M  V30 1189 C 111.188 -5.02392 -1.3875 0
M  V30 1190 C 108.516 -5.76639 -1.08187 0
M  V30 1191 C 110.868 -6.26805 -0.854309 0
M  V30 1192 C 109.532 -6.63861 -0.696011 0
M  V30 1193 H 108.802 -0.589691 -0.448715 0
M  V30 1194 H 111.449 -1.84228 -0.522705 0
M  V30 1195 H 109.754 -2.44937 -3.05799 0
M  V30 1196 H 111.451 -2.79534 -2.87509 0
M  V30 1197 H 108.041 -3.8434 -1.89685 0
M  V30 1198 H 112.225 -4.73474 -1.4878 0
M  V30 1199 H 107.481 -6.04027 -0.946666 0
M  V30 1200 H 111.655 -6.94258 -0.545843 0
M  V30 1201 H 109.282 -7.59722 -0.26952 0
M  V30 1202 N 110.857 0.726932 -1.39834 0
M  V30 1203 C 111.804 1.841 -1.39197 0
M  V30 1204 C 112.774 1.642 -0.250502 0
M  V30 1205 O 113.959 1.85494 -0.446846 0
M  V30 1206 C 111.099 3.21697 -1.24919 0
M  V30 1207 C 110.212 3.53247 -2.48678 0
M  V30 1208 C 109.347 4.80289 -2.26928 0
M  V30 1209 C 108.386 5.04707 -3.4632 0
M  V30 1210 N 107.523 6.22956 -3.23836 0
M  V30 1211 H 112.363 1.83979 -2.34427 0
M  V30 1212 H 109.9 0.898876 -1.16442 0
M  V30 1213 H 111.858 4.01137 -1.1465 0
M  V30 1214 H 110.488 3.21076 -0.333153 0
M  V30 1215 H 109.54 2.68447 -2.69519 0
M  V30 1216 H 110.852 3.67205 -3.37582 0
M  V30 1217 H 110.006 5.67725 -2.13947 0
M  V30 1218 H 108.745 4.68519 -1.35431 0
M  V30 1219 H 107.75 4.1573 -3.5979 0
M  V30 1220 H 108.975 5.18357 -4.38729 0
M  V30 1221 H 106.921 6.12459 -2.35011 0
M  V30 1222 H 106.838 6.37539 -4.063 0
M  V30 1223 H 108.106 7.1321 -3.14566 0
M  V30 1224 N 112.336 1.25143 0.95797 0
M  V30 1225 C 113.269 0.995565 2.05338 0
M  V30 1226 C 114.247 -0.0740423 1.62431 0
M  V30 1227 O 115.431 0.0649212 1.88388 0
M  V30 1228 C 112.558 0.504298 3.34925 0
M  V30 1229 C 111.604 1.56393 3.96792 0
M  V30 1230 S 112.437 3.14815 4.33188 0
M  V30 1231 C 113.593 2.67415 5.65898 0
M  V30 1232 H 113.826 1.92309 2.26726 0
M  V30 1233 H 111.359 1.08635 1.09716 0
M  V30 1234 H 113.317 0.227497 4.09869 0
M  V30 1235 H 111.978 -0.402671 3.11508 0
M  V30 1236 H 111.171 1.17082 4.90212 0
M  V30 1237 H 110.773 1.79124 3.28315 0
M  V30 1238 H 113.065 2.10833 6.4386 0
M  V30 1239 H 114.008 3.59463 6.10076 0
M  V30 1240 H 114.416 2.07521 5.24972 0
M  V30 1241 N 113.814 -1.1601 1.06675 0
M  V30 1242 C 114.777 -2.18724 0.685001 0
M  V30 1243 C 115.777 -1.58496 -0.271246 0
M  V30 1244 O 116.967 -1.74119 -0.0531156 0
M  V30 1245 C 114.099 -3.40899 0.00853648 0
M  V30 1246 H 115.292 -2.54011 1.59431 0
M  V30 1247 H 112.845 -1.30352 0.862441 0
M  V30 1248 H 113.58 -3.11173 -0.913337 0
M  V30 1249 H 113.365 -3.8587 0.696204 0
M  V30 1250 H 114.855 -4.16886 -0.24414 0
M  V30 1251 N 115.292 -0.849877 -1.32721 0
M  V30 1252 C 116.222 -0.306308 -2.31482 0
M  V30 1253 C 117.203 0.591952 -1.59468 0
M  V30 1254 O 118.388 0.513199 -1.87296 0
M  V30 1255 C 115.518 0.510204 -3.43532 0
M  V30 1256 C 114.472 -0.293209 -4.26994 0
M  V30 1257 C 113.798 0.647743 -5.30762 0
M  V30 1258 C 115.098 -1.51634 -4.99804 0
M  V30 1259 H 116.792 -1.13153 -2.77195 0
M  V30 1260 H 114.338 -0.545553 -1.33266 0
M  V30 1261 H 116.291 0.900856 -4.11658 0
M  V30 1262 H 115.015 1.36874 -2.96535 0
M  V30 1263 H 113.674 -0.665555 -3.60508 0
M  V30 1264 H 113.322 1.50299 -4.8002 0
M  V30 1265 H 113.022 0.11422 -5.87489 0
M  V30 1266 H 114.546 1.03567 -6.01753 0
M  V30 1267 H 115.96 -1.19824 -5.60638 0
M  V30 1268 H 114.357 -1.98745 -5.66234 0
M  V30 1269 H 115.427 -2.28018 -4.27943 0
M  V30 1270 N 116.77 1.45427 -0.607355 0
M  V30 1271 C 117.718 2.32269 0.12411 0
M  V30 1272 C 118.712 1.45955 0.859854 0
M  V30 1273 O 119.918 1.6244 0.775447 0
M  V30 1274 H 116.293 0.749691 0.0588839 0
M  V30 1275 H 118.264 2.91743 -0.626762 0
M  V30 1276 C 117.013 3.29567 1.1082 0
M  V30 1277 H 116.336 3.95978 0.551492 0
M  V30 1278 H 117.776 3.93061 1.58995 0
M  V30 1279 C 116.235 2.56722 2.18164 0
M  V30 1280 O 116.765 2.34842 3.25902 0
M  V30 1281 N 114.971 2.16861 1.93442 0
M  V30 1282 H 114.518 2.34855 1.05834 0
M  V30 1283 H 114.476 1.68444 2.65469 0
M  V30 1284 N 118.248 0.346503 1.53744 0
M  V30 1285 C 119.18 -0.543316 2.22667 0
M  V30 1286 C 120.193 -1.06159 1.23427 0
M  V30 1287 O 121.382 -0.971235 1.49764 0
M  V30 1288 C 118.482 -1.76076 2.89569 0
M  V30 1289 C 117.655 -1.37727 4.15151 0
M  V30 1290 C 116.714 -2.45471 4.65436 0
M  V30 1291 O 115.74 -2.08655 5.29577 0
M  V30 1292 N 116.942 -3.7677 4.41616 0
M  V30 1293 H 119.707 0.0469703 2.99663 0
M  V30 1294 H 117.268 0.170766 1.60997 0
M  V30 1295 H 119.26 -2.47593 3.20125 0
M  V30 1296 H 117.83 -2.25835 2.16142 0
M  V30 1297 H 117.05 -0.492746 3.91108 0
M  V30 1298 H 118.338 -1.09708 4.96832 0
M  V30 1299 H 117.736 -4.09467 3.90325 0
M  V30 1300 H 116.293 -4.44448 4.7677 0
M  V30 1301 N 119.726 -1.57421 0.075193 0
M  V30 1302 C 120.973 -1.93618 -0.593146 0
M  V30 1303 C 121.301 -0.955484 -1.69413 0
M  V30 1304 O 120.556 0.0283251 -1.9568 0
M  V30 1305 C 120.855 -3.36428 -1.20626 0
M  V30 1306 C 120.521 -4.50307 -0.231078 0
M  V30 1307 C 119.183 -4.81186 0.0371936 0
M  V30 1308 C 121.535 -5.19374 0.435888 0
M  V30 1309 C 118.863 -5.78466 0.979461 0
M  V30 1310 C 121.215 -6.17665 1.3665 0
M  V30 1311 C 119.879 -6.46958 1.6432 0
M  V30 1312 H 119.149 -0.708499 -0.217047 0
M  V30 1313 H 121.796 -1.90937 0.146793 0
M  V30 1314 H 120.101 -3.35592 -2.02201 0
M  V30 1315 H 121.798 -3.61727 -1.73073 0
M  V30 1316 H 118.388 -4.26227 -0.450357 0
M  V30 1317 H 122.572 -4.95711 0.241748 0
M  V30 1318 H 117.828 -5.99487 1.20106 0
M  V30 1319 H 122.002 -6.70284 1.88924 0
M  V30 1320 H 119.629 -7.2215 2.37494 0
M  V30 1321 N 121.204 0.198386 -1.56346 0
M  V30 1322 C 122.429 0.939682 -1.84891 0
M  V30 1323 C 122.854 1.76202 -0.658369 0
M  V30 1324 O 122.212 1.76993 0.392851 0
M  V30 1325 C 122.26 1.81428 -3.11635 0
M  V30 1326 O 121.364 2.91265 -2.91956 0
M  V30 1327 H 120.705 0.264807 -0.608912 0
M  V30 1328 H 123.235 0.204695 -2.03573 0
M  V30 1329 H 123.245 2.21958 -3.42343 0
M  V30 1330 H 121.92 1.21004 -3.97908 0
M  V30 1331 H 120.497 2.54514 -2.72538 0
M  V30 1332 N 122.682 1.50554 0.465978 0
M  V30 1333 C 123.959 1.5232 1.22712 0
M  V30 1334 C 124.339 0.270807 2.09356 0
M  V30 1335 O 123.687 -0.745541 2.15995 0
M  V30 1336 C 123.897 2.82175 2.05374 0
M  V30 1337 C 125.245 3.33033 2.6339 0
M  V30 1338 O 126.269 2.83531 2.15612 0
M  V30 1339 O 125.128 4.19336 3.50456 0
M  V30 1340 H 122.222 0.611183 0.557122 0
M  V30 1341 H 124.768 1.62847 0.477381 0
M  V30 1342 H 123.54 3.64797 1.41558 0
M  V30 1343 H 123.163 2.74675 2.87471 0
M  V30 1344 N 124.16 -0.719506 1.40217 0
M  V30 1345 C 125.093 -1.84298 1.34571 0
M  V30 1346 C 126.071 -1.61149 0.216741 0
M  V30 1347 O 127.255 -1.84212 0.399756 0
M  V30 1348 C 124.382 -3.20568 1.09335 0
M  V30 1349 C 123.428 -3.62551 2.24631 0
M  V30 1350 S 124.261 -3.7012 3.87004 0
M  V30 1351 C 125.417 -5.09154 3.64024 0
M  V30 1352 H 125.65 -1.88807 2.2965 0
M  V30 1353 H 123.183 -0.885901 1.26456 0
M  V30 1354 H 125.141 -3.99246 0.954602 0
M  V30 1355 H 123.802 -3.13696 0.159164 0
M  V30 1356 H 122.995 -4.61483 2.02606 0
M  V30 1357 H 122.597 -2.91119 2.34789 0
M  V30 1358 H 124.889 -5.95955 3.22248 0
M  V30 1359 H 125.832 -5.36213 4.62473 0
M  V30 1360 H 126.24 -4.79562 2.97793 0
M  V30 1361 N 125.638 -1.25649 -0.95132 0
M  V30 1362 C 126.863 -1.13443 -1.73624 0
M  V30 1363 C 127.288 0.307565 -1.85568 0
M  V30 1364 O 126.646 1.22282 -1.33854 0
M  V30 1365 C 126.694 -1.79723 -3.12621 0
M  V30 1366 O 125.798 -1.07912 -3.98031 0
M  V30 1367 H 125.139 -0.395872 -0.533086 0
M  V30 1368 H 127.669 -1.66276 -1.1922 0
M  V30 1369 H 127.679 -1.86141 -3.63064 0
M  V30 1370 H 126.354 -2.84633 -3.03244 0
M  V30 1371 H 124.931 -1.09398 -3.56492 0
M  V30 1372 N 127.117 1.15442 -1.07289 0
M  V30 1373 C 128.364 1.86213 -0.795668 0
M  V30 1374 C 128.692 1.82291 0.678238 0
M  V30 1375 O 127.947 1.24057 1.51355 0
M  V30 1376 C 128.246 3.3489 -1.24834 0
M  V30 1377 C 127.912 3.59007 -2.72809 0
M  V30 1378 C 126.574 3.65298 -3.13227 0
M  V30 1379 C 128.926 3.68762 -3.68326 0
M  V30 1380 C 126.254 3.78854 -4.4798 0
M  V30 1381 C 128.606 3.83842 -5.0284 0
M  V30 1382 C 127.27 3.88378 -5.4288 0
M  V30 1383 H 126.54 0.681403 -0.291155 0
M  V30 1384 H 129.187 1.36435 -1.34379 0
M  V30 1385 H 127.492 3.8687 -0.619595 0
M  V30 1386 H 129.189 3.88052 -1.01076 0
M  V30 1387 H 125.779 3.5475 -2.40521 0
M  V30 1388 H 129.963 3.63202 -3.38227 0
M  V30 1389 H 125.219 3.80623 -4.78472 0
M  V30 1390 H 129.393 3.90332 -5.76727 0
M  V30 1391 H 127.02 3.98635 -6.47298 0
M  V30 1392 N 128.595 0.856903 1.32268 0
M  V30 1393 C 129.558 0.308171 2.27119 0
M  V30 1394 C 130.558 -0.533421 1.51695 0
M  V30 1395 O 131.748 -0.344607 1.70757 0
M  V30 1396 C 128.88 -0.563757 3.36206 0
M  V30 1397 H 130.073 1.14535 2.77167 0
M  V30 1398 H 127.626 0.631421 1.42978 0
M  V30 1399 H 128.361 -1.42266 2.91429 0
M  V30 1400 H 128.146 0.0386749 3.92081 0
M  V30 1401 H 129.636 -0.940386 4.06874 0
M  V30 1402 N 130.073 -1.45103 0.615059 0
M  V30 1403 C 130.983 -2.34382 -0.101034 0
M  V30 1404 C 131.999 -1.51681 -0.852585 0
M  V30 1405 O 133.175 -1.8446 -0.808484 0
M  V30 1406 C 130.24 -3.29417 -1.08099 0
M  V30 1407 C 129.301 -4.28025 -0.330577 0
M  V30 1408 C 128.534 -5.1852 -1.26385 0
M  V30 1409 O 128.757 -5.12598 -2.50198 0
M  V30 1410 O 127.691 -5.97122 -0.756866 0
M  V30 1411 H 131.517 -2.97033 0.632855 0
M  V30 1412 H 129.102 -1.4461 0.375293 0
M  V30 1413 H 130.984 -3.87958 -1.6452 0
M  V30 1414 H 129.659 -2.69321 -1.79577 0
M  V30 1415 H 128.566 -3.73078 0.276283 0
M  V30 1416 H 129.899 -4.90997 0.343866 0
M  V30 1417 N 131.551 -0.354651 -1.53558 0
M  V30 1418 C 132.8 0.239504 -2.00273 0
M  V30 1419 C 133.113 1.50759 -1.24623 0
M  V30 1420 O 134.319 2.17968 -1.61871 0
M  V30 1421 C 132.775 0.477341 -3.5672 0
M  V30 1422 C 132.383 -0.775488 -4.41237 0
M  V30 1423 C 134.127 1.02975 -4.11821 0
M  V30 1424 C 132.034 -0.507838 -5.89216 0
M  V30 1425 H 130.964 0.0932743 -0.748208 0
M  V30 1426 H 133.615 -0.471701 -1.77334 0
M  V30 1427 H 131.997 1.24953 -3.7577 0
M  V30 1428 H 133.171 -1.54963 -4.33962 0
M  V30 1429 H 131.486 -1.25033 -3.97185 0
M  V30 1430 H 134.083 1.24513 -5.2 0
M  V30 1431 H 134.426 1.98862 -3.65731 0
M  V30 1432 H 134.959 0.317994 -3.96527 0
M  V30 1433 H 131.698 -1.43674 -6.39561 0
M  V30 1434 H 131.218 0.228011 -5.99366 0
M  V30 1435 H 132.897 -0.129238 -6.46871 0
M  V30 1436 N 133.029 1.57378 -0.0835403 0
M  V30 1437 C 133.976 2.13384 0.879539 0
M  V30 1438 C 134.946 1.04936 1.28754 0
M  V30 1439 O 136.131 1.32662 1.37133 0
M  V30 1440 C 133.271 2.70932 2.13752 0
M  V30 1441 C 132.384 3.93575 1.7811 0
M  V30 1442 C 131.519 4.39326 2.98607 0
M  V30 1443 C 130.558 5.54587 2.59037 0
M  V30 1444 N 129.695 5.95243 3.72331 0
M  V30 1445 H 134.535 2.9537 0.395076 0
M  V30 1446 H 132.072 1.45953 0.183349 0
M  V30 1447 H 134.03 3.02411 2.87408 0
M  V30 1448 H 132.66 1.91693 2.59718 0
M  V30 1449 H 131.712 3.68483 0.94469 0
M  V30 1450 H 133.024 4.77258 1.45005 0
M  V30 1451 H 132.178 4.72528 3.80529 0
M  V30 1452 H 130.917 3.5452 3.34913 0
M  V30 1453 H 129.922 5.21024 1.75539 0
M  V30 1454 H 131.147 6.41133 2.23887 0
M  V30 1455 H 129.093 5.13385 4.08378 0
M  V30 1456 H 129.01 6.73694 3.43034 0
M  V30 1457 H 130.278 6.33072 4.54797 0
M  V30 1458 N 134.507 -0.190092 1.56449 0
M  V30 1459 C 135.457 -1.23977 1.91347 0
M  V30 1460 C 136.441 -1.40747 0.779693 0
M  V30 1461 O 137.633 -1.43033 1.04262 0
M  V30 1462 C 134.762 -2.58347 2.26079 0
M  V30 1463 C 133.848 -2.4535 3.45925 0
M  V30 1464 N 134.239 -2.02039 4.63696 0
M  V30 1465 C 132.537 -2.76229 3.50162 0
M  V30 1466 C 133.238 -2.01053 5.4585 0
M  V30 1467 N 132.214 -2.42747 4.8639 0
M  V30 1468 H 136.016 -0.896318 2.79899 0
M  V30 1469 H 133.53 -0.398496 1.57435 0
M  V30 1470 H 135.527 -3.34173 2.49267 0
M  V30 1471 H 134.187 -2.93512 1.38856 0
M  V30 1472 H 135.198 -1.7267 4.88268 0
M  V30 1473 H 131.875 -3.15556 2.73369 0
M  V30 1474 H 133.265 -1.69426 6.50188 0
M  V30 1475 N 135.985 -1.50799 -0.457987 0
M  V30 1476 C 136.932 -1.70617 -1.5543 0
M  V30 1477 C 137.902 -0.547562 -1.56815 0
M  V30 1478 O 139.087 -0.779647 -1.74144 0
M  V30 1479 C 136.227 -1.81831 -2.93311 0
M  V30 1480 C 135.34 -3.09278 -3.01615 0
M  V30 1481 C 134.475 -3.11209 -4.30491 0
M  V30 1482 C 133.514 -4.33055 -4.32585 0
M  V30 1483 N 132.651 -4.32652 -5.52952 0
M  V30 1484 H 137.491 -2.64207 -1.37836 0
M  V30 1485 H 135.028 -1.30959 -0.669937 0
M  V30 1486 H 136.986 -1.86314 -3.73287 0
M  V30 1487 H 135.616 -0.916685 -3.0951 0
M  V30 1488 H 134.668 -3.14203 -2.1443 0
M  V30 1489 H 135.98 -3.99233 -2.99022 0
M  V30 1490 H 135.134 -3.14494 -5.18824 0
M  V30 1491 H 133.873 -2.19106 -4.35711 0
M  V30 1492 H 132.878 -4.29969 -3.42647 0
M  V30 1493 H 134.103 -5.264 -4.29046 0
M  V30 1494 H 132.049 -3.43409 -5.58933 0
M  V30 1495 H 131.966 -5.16392 -5.52155 0
M  V30 1496 H 133.234 -4.40101 -6.43375 0
M  V30 1497 N 137.463 0.71206 -1.40597 0
M  V30 1498 C 138.693 1.49894 -1.42181 0
M  V30 1499 C 139.101 1.89189 -0.0208078 0
M  V30 1500 O 138.444 1.56223 0.966436 0
M  V30 1501 C 138.506 2.80215 -2.25211 0
M  V30 1502 C 138.17 2.63221 -3.73582 0
M  V30 1503 C 139.167 2.30249 -4.66135 0
M  V30 1504 C 136.852 2.79376 -4.17438 0
M  V30 1505 C 138.846 2.13645 -6.00529 0
M  V30 1506 C 136.533 2.6239 -5.51901 0
M  V30 1507 C 137.531 2.29573 -6.43262 0
M  V30 1508 O 137.219 2.12719 -7.75246 0
M  V30 1509 H 136.951 0.469031 -0.486812 0
M  V30 1510 H 139.505 0.88564 -1.85326 0
M  V30 1511 H 137.735 3.4389 -1.76852 0
M  V30 1512 H 139.424 3.41947 -2.18694 0
M  V30 1513 H 140.19 2.17398 -4.33547 0
M  V30 1514 H 136.069 3.03906 -3.46644 0
M  V30 1515 H 139.613 1.87953 -6.71803 0
M  V30 1516 H 135.51 2.74826 -5.84073 0
M  V30 1517 H 136.278 2.27611 -7.86216 0
M  V30 1518 N 138.941 1.26152 0.944643 0
M  V30 1519 C 139.871 1.09902 2.06019 0
M  V30 1520 C 140.852 0.00519538 1.70099 0
M  V30 1521 O 142.037 0.176583 1.93396 0
M  V30 1522 C 139.167 0.727562 3.39594 0
M  V30 1523 C 138.121 1.77274 3.89561 0
M  V30 1524 C 137.447 1.25569 5.19747 0
M  V30 1525 C 138.747 3.17357 4.14827 0
M  V30 1526 H 140.441 2.03217 2.19871 0
M  V30 1527 H 137.987 0.978452 1.05652 0
M  V30 1528 H 139.94 0.600777 4.17095 0
M  V30 1529 H 138.664 -0.241287 3.25707 0
M  V30 1530 H 137.323 1.88814 3.14237 0
M  V30 1531 H 136.971 0.276783 5.02238 0
M  V30 1532 H 136.671 1.95433 5.54148 0
M  V30 1533 H 138.195 1.1415 5.99835 0
M  V30 1534 H 139.609 3.08914 4.82954 0
M  V30 1535 H 138.006 3.84781 4.60504 0
M  V30 1536 H 139.076 3.63673 3.20734 0
M  V30 1537 N 140.419 -1.14872 1.07899 0
M  V30 1538 C 141.665 -1.86289 0.81657 0
M  V30 1539 C 142.02 -1.8107 -0.65049 0
M  V30 1540 O 141.313 -1.22684 -1.47171 0
M  V30 1541 C 141.507 -3.34223 1.26609 0
M  V30 1542 C 141.336 -3.53846 2.77531 0
M  V30 1543 C 140.106 -3.68995 3.45212 0
M  V30 1544 C 142.304 -3.51201 3.75716 0
M  V30 1545 N 140.286 -3.76725 4.84718 0
M  V30 1546 C 141.657 -3.65112 5.01092 0
M  V30 1547 C 143.712 -3.34507 3.68794 0
M  V30 1548 C 142.415 -3.64056 6.20368 0
M  V30 1549 C 144.441 -3.34752 4.8754 0
M  V30 1550 C 143.803 -3.49199 6.11751 0
M  V30 1551 H 139.902 -0.698579 0.351443 0
M  V30 1552 H 142.486 -1.37713 1.37634 0
M  V30 1553 H 140.657 -3.81402 0.73395 0
M  V30 1554 H 142.389 -3.93377 0.95062 0
M  V30 1555 H 139.144 -3.70006 2.95622 0
M  V30 1556 H 139.568 -3.8432 5.5734 0
M  V30 1557 H 144.21 -3.22253 2.73702 0
M  V30 1558 H 141.928 -3.75087 7.15776 0
M  V30 1559 H 145.514 -3.23055 4.83866 0
M  V30 1560 H 144.394 -3.49328 7.02097 0
M  V30 1561 N 141.898 -0.863906 -1.31812 0
M  V30 1562 C 143.123 -0.48527 -2.01643 0
M  V30 1563 C 143.548 0.913058 -1.64453 0
M  V30 1564 O 142.906 1.6014 -0.849985 0
M  V30 1565 C 142.954 -0.642625 -3.54828 0
M  V30 1566 O 142.058 0.320659 -4.11151 0
M  V30 1567 H 141.399 -0.193793 -0.635091 0
M  V30 1568 H 143.929 -1.16565 -1.68148 0
M  V30 1569 H 143.939 -0.533628 -4.04495 0
M  V30 1570 H 142.614 -1.66227 -3.81237 0
M  V30 1571 H 141.191 0.167126 -3.72525 0
M  V30 1572 N 143.376 1.44774 -0.622745 0
M  V30 1573 C 144.286 2.34433 0.0886031 0
M  V30 1574 C 145.302 1.52131 0.844529 0
M  V30 1575 O 146.478 1.84886 0.798691 0
M  V30 1576 C 143.543 3.29986 1.0635 0
M  V30 1577 C 142.604 4.28195 0.307873 0
M  V30 1578 C 141.837 5.19183 1.23633 0
M  V30 1579 O 142.06 5.13918 2.47476 0
M  V30 1580 O 140.994 5.97515 0.725189 0
M  V30 1581 H 144.82 2.96693 -0.648599 0
M  V30 1582 H 142.405 1.44408 -0.382957 0
M  V30 1583 H 144.287 3.88825 1.6246 0
M  V30 1584 H 142.962 2.70269 1.78146 0
M  V30 1585 H 141.869 3.72927 -0.296064 0
M  V30 1586 H 143.202 4.90808 -0.3699 0
M  V30 1587 N 144.854 0.36279 1.53368 0
M  V30 1588 C 146.265 -0.117022 1.86333 0
M  V30 1589 C 146.616 -1.48397 1.28347 0
M  V30 1590 O 145.741 -2.07787 0.604428 0
M  V30 1591 C 146.336 -0.21912 3.38091 0
M  V30 1592 C 144.895 -0.643184 3.70864 0
M  V30 1593 C 144.042 0.211318 2.76494 0
M  V30 1594 H 146.993 0.581687 1.47655 0
M  V30 1595 H 147.014 -1.04319 3.6592 0
M  V30 1596 H 146.526 0.775902 3.80265 0
M  V30 1597 H 144.627 -1.64654 3.34245 0
M  V30 1598 H 144.74 -0.41973 4.77258 0
M  V30 1599 H 143.104 -0.319367 2.5269 0
M  V30 1600 H 143.887 1.20383 3.21501 0
M  V30 1601 N 146.332 -1.57332 0.0918853 0
M  V30 1602 C 147.264 -2.10869 -0.898168 0
M  V30 1603 C 148.277 -1.04521 -1.24817 0
M  V30 1604 O 149.466 -1.31977 -1.20184 0
M  V30 1605 C 146.566 -2.57083 -2.2082 0
M  V30 1606 C 145.739 -3.87229 -2.03402 0
M  V30 1607 C 144.798 -4.19324 -3.17889 0
M  V30 1608 O 143.824 -4.88598 -2.91994 0
M  V30 1609 N 145.026 -3.74471 -4.43567 0
M  V30 1610 H 147.791 -2.96439 -0.440943 0
M  V30 1611 H 145.352 -1.61631 -0.0933064 0
M  V30 1612 H 147.344 -2.75602 -2.96354 0
M  V30 1613 H 145.914 -1.76541 -2.57977 0
M  V30 1614 H 145.134 -3.7789 -1.12218 0
M  V30 1615 H 146.422 -4.72379 -1.89038 0
M  V30 1616 H 145.82 -3.18546 -4.67488 0
M  V30 1617 H 144.377 -3.98151 -5.16061 0
M  V30 1618 N 147.81 0.181792 -1.56548 0
M  V30 1619 C 148.758 1.24461 -1.965 0
M  V30 1620 C 149.752 1.464 -0.852261 0
M  V30 1621 O 150.958 1.47103 -1.03733 0
M  V30 1622 H 147.333 0.418138 -0.625031 0
M  V30 1623 H 149.304 0.880714 -2.85107 0
M  V30 1624 C 148.053 2.57891 -2.33212 0
M  V30 1625 H 147.376 2.41829 -3.18369 0
M  V30 1626 H 148.816 3.3097 -2.65019 0
M  V30 1627 C 147.275 3.15871 -1.17163 0
M  V30 1628 O 147.805 3.9913 -0.453708 0
M  V30 1629 N 146.011 2.74808 -0.944936 0
M  V30 1630 H 145.558 2.07205 -1.53049 0
M  V30 1631 H 145.516 3.13939 -0.170286 0
M  V30 1632 N 149.288 1.51039 0.449983 0
M  V30 1633 C 150.528 1.64732 1.21007 0
M  V30 1634 C 150.892 0.349865 1.88785 0
M  V30 1635 O 152.093 0.362431 2.66345 0
M  V30 1636 C 150.364 2.80902 2.20973 0
M  V30 1637 S 151.923 3.14851 3.05638 0
M  V30 1638 H 148.741 0.5805 0.410538 0
M  V30 1639 H 151.343 1.88901 0.503634 0
M  V30 1640 H 150.047 3.73627 1.69796 0
M  V30 1641 H 149.578 2.58882 2.96215 0
M  V30 1642 H 151.593 2.60306 4.22439 0
M  V30 1643 N 150.766 -0.704594 1.40972 0
M  V30 1644 C 151.991 -1.49858 1.43378 0
M  V30 1645 C 152.416 -1.88061 0.038184 0
M  V30 1646 O 151.774 -1.5402 -0.956425 0
M  V30 1647 C 151.822 -2.74333 2.34038 0
M  V30 1648 O 150.926 -3.7147 1.7912 0
M  V30 1649 H 150.267 -0.45139 0.486974 0
M  V30 1650 H 152.797 -0.866832 1.8533 0
M  V30 1651 H 152.807 -3.22741 2.49604 0
M  V30 1652 H 151.482 -2.45863 3.35446 0
M  V30 1653 H 150.059 -3.30363 1.72958 0
M  V30 1654 N 152.244 -1.26651 -0.937939 0
M  V30 1655 C 153.207 -1.08546 -2.01867 0
M  V30 1656 C 154.207 -0.0327327 -1.60767 0
M  V30 1657 O 155.397 -0.276427 -1.71993 0
M  V30 1658 C 152.529 -0.651711 -3.34613 0
M  V30 1659 H 153.722 -2.04502 -2.1936 0
M  V30 1660 H 151.275 -1.09294 -1.11734 0
M  V30 1661 H 152.01 0.309696 -3.22818 0
M  V30 1662 H 151.795 -1.41189 -3.65798 0
M  V30 1663 H 153.285 -0.546973 -4.14002 0
M  V30 1664 N 153.722 1.14298 -1.08507 0
M  V30 1665 C 154.95 1.89219 -0.836876 0
M  V30 1666 C 155.365 1.78638 0.611054 0
M  V30 1667 O 154.722 1.14643 1.41998 0
M  V30 1668 C 154.773 3.39158 -1.25116 0
M  V30 1669 O 154.494 3.49449 -2.64229 0
M  V30 1670 C 155.995 4.31073 -1.03398 0
M  V30 1671 H 153.215 0.599328 -0.301739 0
M  V30 1672 H 155.759 1.44746 -1.44461 0
M  V30 1673 H 153.914 3.81251 -0.687514 0
M  V30 1674 H 154.328 4.42589 -2.81452 0
M  V30 1675 H 155.802 5.34646 -1.37323 0
M  V30 1676 H 156.279 4.3919 0.0289259 0
M  V30 1677 H 156.885 3.94738 -1.58311 0
M  V30 1678 N 155.201 0.870884 1.31352 0
M  V30 1679 C 156.148 0.325425 2.28494 0
M  V30 1680 C 157.118 -0.576615 1.5577 0
M  V30 1681 O 158.303 -0.508059 1.83911 0
M  V30 1682 C 155.443 -0.466283 3.41935 0
M  V30 1683 C 154.556 0.463378 4.29508 0
M  V30 1684 C 153.691 -0.342544 5.30094 0
M  V30 1685 C 152.73 0.583486 6.09313 0
M  V30 1686 N 151.867 -0.186244 7.01853 0
M  V30 1687 H 156.707 1.15901 2.74538 0
M  V30 1688 H 154.244 0.58294 1.35056 0
M  V30 1689 H 156.202 -0.941085 4.06447 0
M  V30 1690 H 154.832 -1.26456 2.97 0
M  V30 1691 H 153.884 1.05663 3.65431 0
M  V30 1692 H 155.196 1.1734 4.84802 0
M  V30 1693 H 154.35 -0.879816 6.00287 0
M  V30 1694 H 153.089 -1.08585 4.75458 0
M  V30 1695 H 152.094 1.13251 5.3801 0
M  V30 1696 H 153.319 1.32566 6.66035 0
M  V30 1697 H 151.265 -0.912348 6.49625 0
M  V30 1698 H 151.182 0.464422 7.54572 0
M  V30 1699 H 152.45 -0.704716 7.76308 0
M  V30 1700 N 156.679 -1.44442 0.630414 0
M  V30 1701 C 157.904 -2.06927 0.139944 0
M  V30 1702 C 158.329 -1.46795 -1.17613 0
M  V30 1703 O 157.687 -0.569144 -1.72135 0
M  V30 1704 C 157.735 -3.6058 0.0379581 0
M  V30 1705 O 156.839 -3.99937 -1.0062 0
M  V30 1706 H 156.18 -0.658608 0.0844483 0
M  V30 1707 H 158.71 -1.85327 0.866891 0
M  V30 1708 H 158.72 -4.07714 -0.152856 0
M  V30 1709 H 157.395 -4.03728 0.998809 0
M  V30 1710 H 155.972 -3.64436 -0.79001 0
M  V30 1711 N 158.157 -0.370918 -1.53173 0
M  V30 1712 C 159.105 0.488101 -2.27421 0
M  V30 1713 C 160.099 1.07884 -1.30604 0
M  V30 1714 O 161.305 1.02143 -1.48212 0
M  V30 1715 H 157.68 0.176134 -0.731082 0
M  V30 1716 H 159.651 -0.159815 -2.97972 0
M  V30 1717 C 158.4 1.61306 -3.08019 0
M  V30 1718 H 157.723 1.1678 -3.82364 0
M  V30 1719 H 159.163 2.18872 -3.63141 0
M  V30 1720 C 157.622 2.55848 -2.19188 0
M  V30 1721 O 158.152 3.58799 -1.80626 0
M  V30 1722 N 156.358 2.2516 -1.83715 0
M  V30 1723 H 155.905 1.41476 -2.15273 0
M  V30 1724 H 155.863 2.8867 -1.24567 0
M  V30 1725 N 159.635 1.57281 -0.100228 0
M  V30 1726 C 160.865 1.98591 0.569681 0
M  V30 1727 C 161.273 0.978315 1.61943 0
M  V30 1728 O 160.616 -0.0396108 1.83657 0
M  V30 1729 C 160.678 3.36282 1.271 0
M  V30 1730 C 160.342 4.55488 0.371409 0
M  V30 1731 C 161.339 5.18491 -0.382504 0
M  V30 1732 C 159.024 5.01474 0.287965 0
M  V30 1733 C 161.018 6.25852 -1.20779 0
M  V30 1734 C 158.705 6.08701 -0.540965 0
M  V30 1735 C 159.703 6.70755 -1.28749 0
M  V30 1736 O 159.391 7.75914 -2.10269 0
M  V30 1737 H 159.123 0.65752 0.156982 0
M  V30 1738 H 161.677 2.0463 -0.177734 0
M  V30 1739 H 159.907 3.26941 2.0651 0
M  V30 1740 H 161.596 3.62005 1.83595 0
M  V30 1741 H 162.362 4.83891 -0.3278 0
M  V30 1742 H 158.241 4.52932 0.858689 0
M  V30 1743 H 161.785 6.74218 -1.79096 0
M  V30 1744 H 157.682 6.42732 -0.597131 0
M  V30 1745 H 158.45 7.92925 -2.03007 0
M  V30 1746 N 161.113 -0.173488 1.56642 0
M  V30 1747 C 162.043 -1.2171 1.99271 0
M  V30 1748 C 163.024 -1.46289 0.867959 0
M  V30 1749 O 164.209 -1.5766 1.13388 0
M  V30 1750 C 161.339 -2.55651 2.35074 0
M  V30 1751 C 160.293 -2.45645 3.50489 0
M  V30 1752 C 159.619 -3.84056 3.72028 0
M  V30 1753 C 160.919 -1.96302 4.84007 0
M  V30 1754 H 162.613 -0.86275 2.867 0
M  V30 1755 H 160.159 -0.413571 1.37933 0
M  V30 1756 H 162.112 -3.2886 2.63494 0
M  V30 1757 H 160.836 -2.92869 1.44552 0
M  V30 1758 H 159.495 -1.7489 3.22194 0
M  V30 1759 H 159.143 -4.18664 2.788 0
M  V30 1760 H 158.843 -3.7823 4.49684 0
M  V30 1761 H 160.367 -4.58854 4.02846 0
M  V30 1762 H 161.781 -2.59284 5.11317 0
M  V30 1763 H 160.178 -2.01429 5.65284 0
M  V30 1764 H 161.248 -0.917226 4.76146 0
M  V30 1765 N 162.591 -1.51276 -0.441967 0
M  V30 1766 C 164.007 -1.39349 -0.778083 0
M  V30 1767 C 164.207 -0.472212 -1.95889 0
M  V30 1768 O 163.263 0.0743551 -2.5239 0
M  V30 1769 C 164.576 -2.81292 -1.0628 0
M  V30 1770 C 166.124 -2.9041 -1.16751 0
M  V30 1771 C 166.599 -4.33251 -1.48519 0
M  V30 1772 N 168.09 -4.36336 -1.55453 0
M  V30 1773 C 168.825 -5.43885 -1.81596 0
M  V30 1774 N 168.321 -6.61601 -2.05562 0
M  V30 1775 N 170.114 -5.3136 -1.8334 0
M  V30 1776 H 162.265 -2.09729 0.335774 0
M  V30 1777 H 164.528 -0.943925 0.0878028 0
M  V30 1778 H 164.234 -3.50678 -0.267905 0
M  V30 1779 H 164.108 -3.20334 -1.99163 0
M  V30 1780 H 166.495 -2.21225 -1.95304 0
M  V30 1781 H 166.576 -2.54871 -0.217801 0
M  V30 1782 H 166.22 -5.02984 -0.704958 0
M  V30 1783 H 166.15 -4.66299 -2.44689 0
M  V30 1784 H 168.641 -3.51466 -1.38853 0
M  V30 1785 H 168.954 -7.39361 -2.24867 0
M  V30 1786 H 167.299 -6.64725 -2.02894 0
M  V30 1787 H 170.49 -4.38382 -1.64132 0
M  V30 1788 H 170.663 -6.15258 -2.03377 0
M  V30 1789 N 164.069 0.697108 -1.41344 0
M  V30 1790 C 165.317 1.45426 -1.40341 0
M  V30 1791 C 165.638 1.94996 -0.0128787 0
M  V30 1792 O 164.908 1.71599 0.945027 0
M  V30 1793 H 163.488 0.539594 -0.516573 0
M  V30 1794 H 166.15 0.825201 -1.76569 0
M  V30 1795 H 165.246 2.31817 -2.08967 0
M  V30 1796 N 165.547 1.27147 0.931209 0
M  V30 1797 C 166.775 1.16082 1.71267 0
M  V30 1798 C 167.19 -0.282772 1.8667 0
M  V30 1799 O 166.547 -1.19283 1.38122 0
M  V30 1800 C 166.598 1.8358 3.11417 0
M  V30 1801 O 166.319 3.22299 2.96741 0
M  V30 1802 C 167.82 1.78597 4.05732 0
M  V30 1803 H 165.04 0.403758 0.535929 0
M  V30 1804 H 167.584 1.67953 1.16671 0
M  V30 1805 H 165.739 1.35623 3.62885 0
M  V30 1806 H 166.153 3.55851 3.85319 0
M  V30 1807 H 167.627 2.30444 5.01597 0
M  V30 1808 H 168.104 0.754564 4.3267 0
M  V30 1809 H 168.71 2.26152 3.60188 0
M  V30 1810 N 167.025 -1.13721 1.09112 0
M  V30 1811 C 168.273 -1.84559 0.823562 0
M  V30 1812 C 168.594 -1.83754 -0.652658 0
M  V30 1813 O 167.864 -1.29102 -1.47342 0
M  V30 1814 H 166.444 -0.683376 0.301673 0
M  V30 1815 H 169.106 -1.37771 1.37859 0
M  V30 1816 H 168.202 -2.8917 1.17419 0
M  V30 1817 N 168.503 -0.877838 -1.30888 0
M  V30 1818 C 169.914 -0.544193 -1.78593 0
M  V30 1819 C 170.265 0.939301 -1.72254 0
M  V30 1820 O 169.39 1.7337 -1.29505 0
M  V30 1821 C 169.985 -0.98105 -3.24285 0
M  V30 1822 C 168.544 -0.698935 -3.69854 0
M  V30 1823 C 167.691 -1.168 -2.51502 0
M  V30 1824 H 170.642 -1.06278 -1.17859 0
M  V30 1825 H 170.663 -0.307009 -3.79259 0
M  V30 1826 H 170.175 -2.06079 -3.28866 0
M  V30 1827 H 168.276 0.369112 -3.70767 0
M  V30 1828 H 168.389 -1.28148 -4.61644 0
M  V30 1829 H 166.753 -0.587535 -2.47831 0
M  V30 1830 H 167.536 -2.25533 -2.58824 0
M  V30 1831 N 169.982 1.44106 -0.638065 0
M  V30 1832 C 171.212 2.06037 -0.152394 0
M  V30 1833 C 171.62 1.47808 1.18108 0
M  V30 1834 O 170.963 0.598092 1.73691 0
M  V30 1835 C 171.025 3.59488 0.0293714 0
M  V30 1836 C 170.689 4.4022 -1.22702 0
M  V30 1837 C 171.686 4.73256 -2.15232 0
M  V30 1838 C 169.371 4.8048 -1.46437 0
M  V30 1839 C 171.365 5.45444 -3.29802 0
M  V30 1840 C 169.052 5.52417 -2.61303 0
M  V30 1841 C 170.05 5.84819 -3.52811 0
M  V30 1842 O 169.738 6.55289 -4.65673 0
M  V30 1843 H 169.47 0.671233 -0.0801401 0
M  V30 1844 H 172.024 1.85851 -0.874563 0
M  V30 1845 H 170.254 3.78191 0.806758 0
M  V30 1846 H 171.943 4.03164 0.470475 0
M  V30 1847 H 172.709 4.42684 -1.98131 0
M  V30 1848 H 168.588 4.54676 -0.760977 0
M  V30 1849 H 172.132 5.70653 -4.01249 0
M  V30 1850 H 168.029 5.82404 -2.78344 0
M  V30 1851 H 168.797 6.73762 -4.64744 0
M  V30 1852 N 171.46 0.379036 1.52974 0
M  V30 1853 C 172.871 -0.0972525 1.86447 0
M  V30 1854 C 173.222 -1.47027 1.29914 0
M  V30 1855 O 172.347 -2.07135 0.626433 0
M  V30 1856 C 172.942 -0.183248 3.38304 0
M  V30 1857 C 171.501 -0.603812 3.71525 0
M  V30 1858 C 170.648 0.240632 2.76254 0
M  V30 1859 H 173.599 0.597316 1.4703 0
M  V30 1860 H 173.62 -1.00432 3.67006 0
M  V30 1861 H 173.132 0.816191 3.79421 0
M  V30 1862 H 171.233 -1.61099 3.35973 0
M  V30 1863 H 171.346 -0.369086 4.77676 0
M  V30 1864 H 169.71 -0.292548 2.53014 0
M  V30 1865 H 170.493 1.23786 3.20206 0
M  V30 1866 N 172.938 -1.57226 0.108567 0
M  V30 1867 C 174.349 -1.8195 -0.418464 0
M  V30 1868 C 174.7 -1.02508 -1.67292 0
M  V30 1869 O 173.825 -0.258496 -2.14851 0
M  V30 1870 C 174.42 -3.30028 -0.765979 0
M  V30 1871 C 172.979 -3.55469 -1.23769 0
M  V30 1872 C 172.126 -2.7625 -0.241106 0
M  V30 1873 H 175.077 -1.55149 0.33384 0
M  V30 1874 H 175.098 -3.44086 -1.62434 0
M  V30 1875 H 174.61 -3.87821 0.147219 0
M  V30 1876 H 172.711 -3.03022 -2.16814 0
M  V30 1877 H 172.824 -4.6408 -1.19022 0
M  V30 1878 H 171.188 -2.44133 -0.72602 0
M  V30 1879 H 171.971 -3.36797 0.665007 0
M  V30 1880 N 174.416 0.165178 -1.56732 0
M  V30 1881 C 175.641 0.900253 -1.86843 0
M  V30 1882 C 176.066 1.74766 -0.695596 0
M  V30 1883 O 175.424 1.77786 0.35522 0
M  V30 1884 C 175.472 1.74777 -3.15413 0
M  V30 1885 O 174.576 2.85007 -2.98068 0
M  V30 1886 H 173.917 0.251832 -0.614391 0
M  V30 1887 H 176.447 0.161468 -2.03962 0
M  V30 1888 H 176.457 2.14646 -3.46974 0
M  V30 1889 H 175.132 1.12537 -4.00385 0
M  V30 1890 H 173.709 2.48676 -2.77875 0
M  V30 1891 N 175.894 1.51508 0.433938 0
M  V30 1892 C 177.14 1.64588 1.18484 0
M  V30 1893 C 177.473 0.362666 1.90784 0
M  V30 1894 O 176.748 -0.637892 1.83742 0
M  V30 1895 C 177.031 2.85149 2.19913 0
M  V30 1896 C 176.884 4.23456 1.51674 0
M  V30 1897 C 178.203 3.01227 3.20858 0
M  V30 1898 H 175.322 0.598994 0.429389 0
M  V30 1899 H 177.964 1.84002 0.473647 0
M  V30 1900 H 176.114 2.68729 2.80566 0
M  V30 1901 H 177.786 4.51552 0.943322 0
M  V30 1902 H 176.029 4.25998 0.819035 0
M  V30 1903 H 176.7 5.03812 2.2556 0
M  V30 1904 H 179.176 3.16382 2.70263 0
M  V30 1905 H 178.052 3.87141 3.89118 0
M  V30 1906 H 178.313 2.13447 3.8716 0
M  V30 1907 N 177.372 -0.689602 1.41712 0
M  V30 1908 C 178.649 -1.44457 1.31877 0
M  V30 1909 C 179.029 -2.11039 -0.0508537 0
M  V30 1910 O 178.377 -2.02138 -1.06547 0
M  V30 1911 C 178.587 -2.45913 2.47645 0
M  V30 1912 C 179.935 -3.10991 2.89084 0
M  V30 1913 O 180.959 -2.56238 2.47428 0
M  V30 1914 O 179.818 -4.10174 3.61137 0
M  V30 1915 H 176.912 -0.64362 0.519309 0
M  V30 1916 H 179.458 -0.719576 1.53689 0
M  V30 1917 H 178.23 -1.95409 3.39015 0
M  V30 1918 H 177.853 -3.25913 2.27742 0
M  V30 1919 N 178.85 -1.27639 -0.924453 0
M  V30 1920 C 180.096 -1.15345 -1.67532 0
M  V30 1921 C 180.451 0.297096 -1.90092 0
M  V30 1922 O 179.744 1.21374 -1.48253 0
M  V30 1923 C 179.938 -1.87407 -3.04325 0
M  V30 1924 C 179.767 -3.3932 -2.95114 0
M  V30 1925 C 178.537 -4.08644 -2.97218 0
M  V30 1926 C 180.735 -4.35242 -2.73987 0
M  V30 1927 N 178.717 -5.47102 -2.78482 0
M  V30 1928 C 180.088 -5.6099 -2.63988 0
M  V30 1929 C 182.143 -4.25294 -2.589 0
M  V30 1930 C 180.846 -6.77924 -2.40442 0
M  V30 1931 C 182.872 -5.41952 -2.36731 0
M  V30 1932 C 182.234 -6.66658 -2.27478 0
M  V30 1933 H 178.333 -0.47696 -0.619704 0
M  V30 1934 H 180.917 -1.6115 -1.09265 0
M  V30 1935 H 179.088 -1.44053 -3.60699 0
M  V30 1936 H 180.82 -1.6759 -3.68369 0
M  V30 1937 H 177.575 -3.60136 -3.07569 0
M  V30 1938 H 177.999 -6.19852 -2.72236 0
M  V30 1939 H 182.641 -3.29598 -2.64811 0
M  V30 1940 H 180.359 -7.73699 -2.3327 0
M  V30 1941 H 183.945 -5.36137 -2.25938 0
M  V30 1942 H 182.825 -7.55405 -2.10555 0
M  V30 1943 N 180.328 1.1314 -1.09713 0
M  V30 1944 C 181.744 1.36477 -0.827423 0
M  V30 1945 C 181.944 1.93654 0.556817 0
M  V30 1946 O 181 2.15791 1.31112 0
M  V30 1947 C 182.313 2.31334 -1.92106 0
M  V30 1948 C 183.861 2.44943 -1.94864 0
M  V30 1949 C 184.336 3.4311 -3.0338 0
M  V30 1950 N 185.827 3.50662 -3.02639 0
M  V30 1951 C 186.562 4.2651 -3.83246 0
M  V30 1952 N 186.058 5.05485 -4.73768 0
M  V30 1953 N 187.851 4.2184 -3.71493 0
M  V30 1954 H 180.002 0.743807 -1.9895 0
M  V30 1955 H 182.265 0.389823 -0.864143 0
M  V30 1956 H 181.971 1.96483 -2.91698 0
M  V30 1957 H 181.845 3.31381 -1.80184 0
M  V30 1958 H 184.232 2.79079 -0.959099 0
M  V30 1959 H 184.313 1.4481 -2.10864 0
M  V30 1960 H 183.957 3.09704 -4.02549 0
M  V30 1961 H 183.887 4.43055 -2.84622 0
M  V30 1962 H 186.378 2.94315 -2.37039 0
M  V30 1963 H 186.691 5.60675 -5.3185 0
M  V30 1964 H 185.036 5.04708 -4.77802 0
M  V30 1965 H 188.227 3.5922 -3.00131 0
M  V30 1966 H 188.4 4.80697 -4.3455 0
M  V30 1967 N 181.806 0.884767 1.30421 0
M  V30 1968 C 182.753 0.349642 2.28136 0
M  V30 1969 C 183.723 -0.560061 1.56373 0
M  V30 1970 O 184.908 -0.488524 1.8444 0
M  V30 1971 C 182.048 -0.42999 3.42411 0
M  V30 1972 C 181.161 0.508907 4.28992 0
M  V30 1973 C 180.296 -0.286301 5.30428 0
M  V30 1974 C 179.335 0.648079 6.08659 0
M  V30 1975 N 178.472 -0.111792 7.02011 0
M  V30 1976 H 183.312 1.18807 2.73293 0
M  V30 1977 H 180.849 0.597231 1.3443 0
M  V30 1978 H 182.807 -0.897923 4.07423 0
M  V30 1979 H 181.437 -1.23299 2.98324 0
M  V30 1980 H 180.489 1.09533 3.64289 0
M  V30 1981 H 181.801 1.22475 4.8353 0
M  V30 1982 H 180.955 -0.816098 6.01186 0
M  V30 1983 H 179.694 -1.03536 4.76583 0
M  V30 1984 H 178.699 1.18951 5.36778 0
M  V30 1985 H 179.924 1.39623 6.64592 0
M  V30 1986 H 177.87 -0.843395 6.50556 0
M  V30 1987 H 177.787 0.544429 7.54037 0
M  V30 1988 H 179.055 -0.622339 7.77012 0
M  V30 1989 N 183.284 -1.43765 0.645699 0
M  V30 1990 C 184.231 -2.30745 -0.0504648 0
M  V30 1991 C 185.201 -1.4432 -0.822241 0
M  V30 1992 O 186.386 -1.73202 -0.800358 0
M  V30 1993 C 183.526 -3.29802 -1.0161 0
M  V30 1994 C 182.639 -4.31326 -0.241219 0
M  V30 1995 C 181.774 -5.17469 -1.19998 0
M  V30 1996 C 180.813 -6.10691 -0.415094 0
M  V30 1997 N 179.95 -6.89483 -1.32506 0
M  V30 1998 H 184.79 -2.8973 0.697155 0
M  V30 1999 H 182.327 -1.42738 0.355563 0
M  V30 2000 H 184.285 -3.85734 -1.58949 0
M  V30 2001 H 182.915 -2.72483 -1.73069 0
M  V30 2002 H 181.967 -3.77749 0.448334 0
M  V30 2003 H 183.279 -4.9743 0.369437 0
M  V30 2004 H 182.433 -5.7799 -1.84424 0
M  V30 2005 H 181.172 -4.51473 -1.84455 0
M  V30 2006 H 180.177 -5.49265 0.242565 0
M  V30 2007 H 181.402 -6.78727 0.224966 0
M  V30 2008 H 179.348 -6.26142 -1.95657 0
M  V30 2009 H 179.265 -7.52081 -0.768783 0
M  V30 2010 H 180.533 -7.54516 -1.9577 0
M  V30 2011 N 184.763 -0.387143 -1.52771 0
M  V30 2012 C 186.011 0.195349 -2.01154 0
M  V30 2013 C 186.332 1.475 -1.27549 0
M  V30 2014 O 185.602 1.91878 -0.394924 0
M  V30 2015 H 184.182 0.075178 -0.743207 0
M  V30 2016 H 186.844 -0.518337 -1.87881 0
M  V30 2017 H 185.94 0.407096 -3.09434 0
M  V30 2018 N 186.241 1.57166 -0.116904 0
M  V30 2019 C 187.189 2.16457 0.851418 0
M  V30 2020 C 188.183 1.11323 1.27686 0
M  V30 2021 O 189.389 1.2963 1.24884 0
M  V30 2022 H 185.764 0.69271 0.292672 0
M  V30 2023 H 187.735 2.96605 0.32685 0
M  V30 2024 C 186.484 2.77689 2.09246 0
M  V30 2025 H 185.807 3.58285 1.77402 0
M  V30 2026 H 187.247 3.22716 2.7501 0
M  V30 2027 C 185.706 1.74667 2.88085 0
M  V30 2028 O 186.236 1.19877 3.83396 0
M  V30 2029 N 184.442 1.44656 2.52038 0
M  V30 2030 H 183.989 1.89402 1.74599 0
M  V30 2031 H 183.947 0.759675 3.05084 0
M  V30 2032 N 187.719 -0.156864 1.56817 0
M  V30 2033 C 188.966 -0.871125 1.82805 0
M  V30 2034 C 189.294 -1.81611 0.696262 0
M  V30 2035 O 188.549 -1.93141 -0.315459 0
M  V30 2036 C 188.848 -1.68737 3.1506 0
M  V30 2037 C 188.514 -0.890045 4.42028 0
M  V30 2038 C 187.176 -0.670042 4.76512 0
M  V30 2039 C 189.528 -0.331769 5.20143 0
M  V30 2040 C 186.856 0.119104 5.86579 0
M  V30 2041 C 189.208 0.444365 6.31037 0
M  V30 2042 C 187.872 0.675035 6.64078 0
M  V30 2043 H 187.142 -0.318767 0.668931 0
M  V30 2044 H 189.789 -0.135274 1.91022 0
M  V30 2045 H 188.094 -2.49304 3.0225 0
M  V30 2046 H 189.791 -2.24331 3.3238 0
M  V30 2047 H 186.381 -1.07157 4.14988 0
M  V30 2048 H 190.565 -0.489043 4.93885 0
M  V30 2049 H 185.821 0.307417 6.10627 0
M  V30 2050 H 189.995 0.884139 6.90765 0
M  V30 2051 H 187.622 1.28839 7.49203 0
M  V30 2052 N 189.197 -1.51736 -0.425897 0
M  V30 2053 C 190.443 -1.65214 -1.1761 0
M  V30 2054 C 190.776 -0.372778 -1.90589 0
M  V30 2055 O 190.051 0.628139 -1.84078 0
M  V30 2056 C 190.334 -2.86312 -2.18398 0
M  V30 2057 C 190.187 -4.24254 -1.49426 0
M  V30 2058 C 191.506 -3.02925 -3.19256 0
M  V30 2059 H 188.625 -0.601263 -0.426206 0
M  V30 2060 H 191.267 -1.8425 -0.463882 0
M  V30 2061 H 189.417 -2.70213 -2.79137 0
M  V30 2062 H 191.089 -4.52046 -0.919362 0
M  V30 2063 H 189.332 -4.26426 -0.796432 0
M  V30 2064 H 190.003 -5.05001 -2.22885 0
M  V30 2065 H 192.479 -3.1781 -2.68581 0
M  V30 2066 H 191.355 -3.89199 -3.8706 0
M  V30 2067 H 191.616 -2.15497 -3.86023 0
M  V30 2068 N 190.675 0.682077 -1.42076 0
M  V30 2069 C 191.9 1.47558 -1.45744 0
M  V30 2070 C 192.325 1.87977 -0.0680981 0
M  V30 2071 O 191.683 1.55522 0.9318 0
M  V30 2072 C 191.731 2.70575 -2.38373 0
M  V30 2073 O 190.835 3.68573 -1.85007 0
M  V30 2074 H 190.176 0.443585 -0.494093 0
M  V30 2075 H 192.706 0.837238 -1.86686 0
M  V30 2076 H 192.716 3.18729 -2.54707 0
M  V30 2077 H 191.391 2.40495 -3.39315 0
M  V30 2078 H 189.968 3.2757 -1.78192 0
M  V30 2079 N 192.153 1.28127 0.917671 0
M  V30 2080 C 193.564 1.13622 1.48145 0
M  V30 2081 C 193.915 -0.275207 1.9426 0
M  V30 2082 O 193.04 -1.1691 1.82102 0
M  V30 2083 C 193.635 2.05648 2.69248 0
M  V30 2084 C 192.194 1.95219 3.21818 0
M  V30 2085 C 191.341 1.97618 1.94532 0
M  V30 2086 H 194.292 1.40874 0.730772 0
M  V30 2087 H 194.313 1.61818 3.44377 0
M  V30 2088 H 193.825 3.08365 2.35653 0
M  V30 2089 H 191.926 0.955244 3.60147 0
M  V30 2090 H 192.039 2.81976 3.87333 0
M  V30 2091 H 190.403 1.41973 2.11461 0
M  V30 2092 H 191.186 3.02007 1.63238 0
M  V30 2093 N 193.631 -1.12557 1.10312 0
M  V30 2094 C 194.877 -1.84311 0.846011 0
M  V30 2095 C 195.21 -1.83805 -0.626859 0
M  V30 2096 O 194.485 -1.28268 -1.46211 0
M  V30 2097 C 194.768 -3.32048 1.39341 0
M  V30 2098 C 194.621 -3.41016 2.93305 0
M  V30 2099 C 195.94 -4.27764 1.03468 0
M  V30 2100 H 193.059 -0.669192 0.30879 0
M  V30 2101 H 195.701 -1.32057 1.36605 0
M  V30 2102 H 193.851 -3.76678 0.951087 0
M  V30 2103 H 195.523 -3.05031 3.46055 0
M  V30 2104 H 193.766 -2.81603 3.29973 0
M  V30 2105 H 194.437 -4.44948 3.26689 0
M  V30 2106 H 196.913 -3.91253 1.41633 0
M  V30 2107 H 195.789 -5.29549 1.44463 0
M  V30 2108 H 196.05 -4.42064 -0.0560404 0
M  V30 2109 N 195.109 -0.891671 -1.2995 0
M  V30 2110 C 196.056 -0.361736 -2.27948 0
M  V30 2111 C 197.026 0.551761 -1.56668 0
M  V30 2112 O 198.211 0.478736 -1.84696 0
M  V30 2113 C 195.351 0.411825 -3.42634 0
M  V30 2114 C 194.464 -0.531651 -4.28716 0
M  V30 2115 C 193.599 0.258167 -5.30572 0
M  V30 2116 C 192.638 -0.680349 -6.08307 0
M  V30 2117 N 191.775 0.0745613 -7.0206 0
M  V30 2118 H 196.615 -1.20254 -2.72659 0
M  V30 2119 H 194.152 -0.604352 -1.34112 0
M  V30 2120 H 196.11 0.876304 -4.07893 0
M  V30 2121 H 194.74 1.21715 -2.98974 0
M  V30 2122 H 193.792 -1.11463 -3.63703 0
M  V30 2123 H 195.104 -1.25038 -4.82874 0
M  V30 2124 H 194.258 0.784204 -6.0161 0
M  V30 2125 H 192.997 1.01008 -4.77126 0
M  V30 2126 H 192.002 -1.21796 -5.3614 0
M  V30 2127 H 193.227 -1.43145 -6.63842 0
M  V30 2128 H 191.173 0.808883 -6.50994 0
M  V30 2129 H 191.09 -0.584409 -7.53738 0
M  V30 2130 H 192.358 0.581123 -7.77331 0
M  V30 2131 N 196.587 1.43421 -0.653314 0
M  V30 2132 C 197.535 2.32546 0.0501531 0
M  V30 2133 C 198.529 1.48617 0.812985 0
M  V30 2134 O 199.735 1.64825 0.723375 0
M  V30 2135 H 196.11 0.751185 0.0350032 0
M  V30 2136 H 198.081 2.89602 -0.719261 0
M  V30 2137 C 196.83 3.32925 1.00279 0
M  V30 2138 H 196.153 3.97532 0.425236 0
M  V30 2139 H 197.593 3.9792 1.46409 0
M  V30 2140 C 196.052 2.63532 2.09886 0
M  V30 2141 O 196.582 2.45092 3.18265 0
M  V30 2142 N 194.788 2.22905 1.86445 0
M  V30 2143 H 194.335 2.38103 0.98309 0
M  V30 2144 H 194.293 1.76805 2.59976 0
M  V30 2145 N 198.065 0.39524 1.52563 0
M  V30 2146 C 198.997 -0.472201 2.24283 0
M  V30 2147 C 200.01 -1.02178 1.26742 0
M  V30 2148 O 201.199 -0.923097 1.52778 0
M  V30 2149 C 198.299 -1.66775 2.95024 0
M  V30 2150 C 197.472 -1.2445 4.19322 0
M  V30 2151 C 196.531 -2.30539 4.7301 0
M  V30 2152 O 195.557 -1.91702 5.35947 0
M  V30 2153 N 196.759 -3.6253 4.53379 0
M  V30 2154 H 199.524 0.142282 2.99362 0
M  V30 2155 H 197.085 0.2219 1.60372 0
M  V30 2156 H 199.077 -2.37283 3.27839 0
M  V30 2157 H 197.647 -2.18845 2.23217 0
M  V30 2158 H 196.867 -0.368069 3.92478 0
M  V30 2159 H 198.155 -0.938457 5.0007 0
M  V30 2160 H 197.553 -3.96841 4.03154 0
M  V30 2161 H 196.11 -4.29055 4.90668 0
M  V30 2162 N 199.544 -1.57102 0.125237 0
M  V30 2163 C 200.792 -1.95021 -0.530198 0
M  V30 2164 C 201.113 -1.00982 -1.66816 0
M  V30 2165 O 200.383 -0.0672693 -1.95784 0
M  V30 2166 H 198.963 -0.720046 -0.198853 0
M  V30 2167 H 201.625 -1.93916 0.19564 0
M  V30 2168 H 200.721 -2.98211 -0.920681 0
M  V30 2169 N 201.022 0.148545 -1.56898 0
M  V30 2170 C 201.985 1.16736 -1.97244 0
M  V30 2171 C 202.985 1.35947 -0.858777 0
M  V30 2172 O 204.175 1.32966 -1.12542 0
M  V30 2173 C 201.307 2.52798 -2.28705 0
M  V30 2174 H 202.5 0.821279 -2.88435 0
M  V30 2175 H 200.053 0.391831 -1.51309 0
M  V30 2176 H 200.788 2.92381 -1.403 0
M  V30 2177 H 200.573 2.40216 -3.09901 0
M  V30 2178 H 202.063 3.26179 -2.60762 0
M  V30 2179 N 202.5 1.5196 0.417844 0
M  V30 2180 C 203.74 1.67262 1.17486 0
M  V30 2181 C 204.104 0.38983 1.88001 0
M  V30 2182 O 205.305 0.418845 2.65517 0
M  V30 2183 C 203.576 2.85526 2.14965 0
M  V30 2184 S 205.135 3.21263 2.98891 0
M  V30 2185 H 201.953 0.589077 0.398132 0
M  V30 2186 H 204.555 1.89927 0.463452 0
M  V30 2187 H 203.259 3.77145 1.61833 0
M  V30 2188 H 202.79 2.65107 2.90657 0
M  V30 2189 H 204.805 2.69208 4.16823 0
M  V30 2190 N 203.978 -0.674533 1.42435 0
M  V30 2191 C 205.226 -1.43175 1.42637 0
M  V30 2192 C 205.547 -1.94951 0.0438992 0
M  V30 2193 O 204.817 -1.7308 -0.917607 0
M  V30 2194 H 203.397 -0.531307 0.525092 0
M  V30 2195 H 206.059 -0.797006 1.77859 0
M  V30 2196 H 205.155 -2.28463 2.12629 0
M  V30 2197 N 205.456 -1.28612 -0.910864 0
M  V30 2198 C 206.681 -1.1891 -1.69927 0
M  V30 2199 C 207.106 0.248372 -1.86453 0
M  V30 2200 O 206.464 1.17961 -1.37676 0
M  V30 2201 C 206.512 -1.89578 -3.06745 0
M  V30 2202 O 205.616 -1.20521 -3.94396 0
M  V30 2203 H 204.957 -0.412632 -0.520222 0
M  V30 2204 H 207.487 -1.69985 -1.1387 0
M  V30 2205 H 207.497 -1.97597 -3.56958 0
M  V30 2206 H 206.172 -2.94136 -2.94035 0
M  V30 2207 H 204.749 -1.20684 -3.52831 0
M  V30 2208 N 206.934 1.1197 -1.10907 0
M  V30 2209 C 208.174 1.85224 -0.864378 0
M  V30 2210 C 208.538 1.82411 0.599178 0
M  V30 2211 O 209.739 2.51057 0.960416 0
M  V30 2212 C 208.01 3.2868 -1.40371 0
M  V30 2213 S 209.569 4.1925 -1.29518 0
M  V30 2214 H 206.387 0.63878 -0.312219 0
M  V30 2215 H 208.989 1.3485 -1.41548 0
M  V30 2216 H 207.693 3.28289 -2.46281 0
M  V30 2217 H 207.224 3.84121 -0.849402 0
M  V30 2218 H 209.239 4.95539 -0.256059 0
M  V30 2219 N 208.412 0.89855 1.29475 0
M  V30 2220 C 209.658 0.534065 1.96263 0
M  V30 2221 C 210.013 -0.909415 1.69551 0
M  V30 2222 O 209.306 -1.63596 0.997349 0
M  V30 2223 C 209.5 0.761398 3.49195 0
M  V30 2224 C 209.329 2.22542 3.90775 0
M  V30 2225 C 208.099 2.87264 4.15701 0
M  V30 2226 C 210.297 3.20051 4.02581 0
M  V30 2227 N 208.279 4.24121 4.4384 0
M  V30 2228 C 209.65 4.42023 4.34759 0
M  V30 2229 C 211.705 3.15657 3.85052 0
M  V30 2230 C 210.408 5.60161 4.51235 0
M  V30 2231 C 212.434 4.33078 4.02737 0
M  V30 2232 C 211.796 5.5382 4.35273 0
M  V30 2233 H 207.895 0.245013 0.742625 0
M  V30 2234 H 210.479 1.15912 1.56437 0
M  V30 2235 H 208.65 0.165732 3.88046 0
M  V30 2236 H 210.382 0.362462 4.03074 0
M  V30 2237 H 207.137 2.38064 4.09417 0
M  V30 2238 H 207.561 4.94839 4.6202 0
M  V30 2239 H 212.203 2.23396 3.58962 0
M  V30 2240 H 209.921 6.52913 4.76162 0
M  V30 2241 H 213.507 4.31163 3.90628 0
M  V30 2242 H 212.387 6.43166 4.48672 0
M  V30 2243 N 209.89 -1.43072 0.660911 0
M  V30 2244 C 211.118 -2.06067 0.185422 0
M  V30 2245 C 211.533 -1.49582 -1.15198 0
M  V30 2246 O 210.89 -0.630134 -1.71276 0
M  V30 2247 C 210.941 -3.61371 0.0966523 0
M  V30 2248 O 210.662 -4.15758 1.38119 0
M  V30 2249 C 212.163 -4.41455 -0.403996 0
M  V30 2250 H 209.383 -0.664459 0.0934604 0
M  V30 2251 H 211.927 -1.83447 0.90373 0
M  V30 2252 H 210.082 -3.8315 -0.572259 0
M  V30 2253 H 210.496 -5.09499 1.24542 0
M  V30 2254 H 211.97 -5.50437 -0.415045 0
M  V30 2255 H 212.447 -4.15036 -1.43674 0
M  V30 2256 H 213.053 -4.24663 0.232691 0
M  V30 2257 N 211.368 -0.403325 -1.52352 0
M  V30 2258 C 212.615 0.174347 -2.01748 0
M  V30 2259 C 212.943 1.45636 -1.2892 0
M  V30 2260 O 212.198 1.9193 -0.382258 0
M  V30 2261 C 212.497 0.474665 -3.54234 0
M  V30 2262 C 212.163 -0.717458 -4.45155 0
M  V30 2263 C 210.825 -1.04447 -4.69728 0
M  V30 2264 C 213.177 -1.51432 -4.98716 0
M  V30 2265 C 210.505 -2.16963 -5.45109 0
M  V30 2266 C 212.857 -2.6302 -5.75329 0
M  V30 2267 C 211.521 -2.96213 -5.98175 0
M  V30 2268 H 210.791 0.0637981 -0.738248 0
M  V30 2269 H 213.438 -0.543553 -1.83624 0
M  V30 2270 H 211.743 1.27406 -3.70506 0
M  V30 2271 H 213.44 0.934496 -3.89959 0
M  V30 2272 H 210.03 -0.452596 -4.26204 0
M  V30 2273 H 214.214 -1.27491 -4.79645 0
M  V30 2274 H 209.47 -2.43034 -5.61021 0
M  V30 2275 H 213.644 -3.25158 -6.15829 0
M  V30 2276 H 211.271 -3.83516 -6.56368 0
M  V30 2277 N 212.846 1.57033 -0.133567 0
M  V30 2278 C 214.071 2.00475 0.531477 0
M  V30 2279 C 214.496 1.01291 1.58499 0
M  V30 2280 O 213.854 -0.0133279 1.81295 0
M  V30 2281 C 213.902 3.42729 1.12113 0
M  V30 2282 O 213.006 3.46498 2.23636 0
M  V30 2283 H 212.347 0.650876 0.131362 0
M  V30 2284 H 214.877 2.03344 -0.22634 0
M  V30 2285 H 214.887 3.81246 1.4531 0
M  V30 2286 H 213.562 4.14428 0.349557 0
M  V30 2287 H 212.139 3.19811 1.91769 0
M  V30 2288 N 214.325 -0.140222 1.56975 0
M  V30 2289 C 215.553 -0.866437 1.87884 0
M  V30 2290 C 215.968 -1.74428 0.722517 0
M  V30 2291 O 215.325 -1.79891 -0.30749 0
M  V30 2292 C 215.376 -1.71753 3.18093 0
M  V30 2293 O 215.097 -0.875056 4.29272 0
M  V30 2294 C 216.598 -2.55074 3.62563 0
M  V30 2295 H 213.818 -0.25019 0.622612 0
M  V30 2296 H 216.362 -0.130977 2.0408 0
M  V30 2297 H 214.517 -2.40598 3.03631 0
M  V30 2298 H 214.931 -1.46002 5.03769 0
M  V30 2299 H 216.405 -3.10356 4.5649 0
M  V30 2300 H 216.882 -3.31434 2.88181 0
M  V30 2301 H 217.488 -1.91509 3.79743 0
M  V30 2302 N 215.803 -1.52179 -0.40978 0
M  V30 2303 C 217.031 -1.70054 -1.17853 0
M  V30 2304 C 217.446 -0.409735 -1.843 0
M  V30 2305 O 216.803 0.614183 -1.71855 0
M  V30 2306 C 216.854 -2.83568 -2.24213 0
M  V30 2307 O 216.575 -4.0765 -1.60478 0
M  V30 2308 C 218.076 -3.12947 -3.13973 0
M  V30 2309 H 215.296 -0.569917 -0.354169 0
M  V30 2310 H 217.84 -1.98734 -0.482198 0
M  V30 2311 H 215.995 -2.57409 -2.89516 0
M  V30 2312 H 216.409 -4.70899 -2.30986 0
M  V30 2313 H 217.883 -3.95889 -3.84677 0
M  V30 2314 H 218.36 -2.26472 -3.76307 0
M  V30 2315 H 218.966 -3.40868 -2.5434 0
M  V30 2316 N 217.281 0.66697 -1.42791 0
M  V30 2317 C 218.529 1.42417 -1.43394 0
M  V30 2318 C 218.85 1.94925 -0.0542373 0
M  V30 2319 O 218.12 1.73564 0.908415 0
M  V30 2320 H 216.7 0.528515 -0.527902 0
M  V30 2321 H 219.362 0.787562 -1.78279 0
M  V30 2322 H 218.458 2.27333 -2.13837 0
M  V30 2323 N 218.759 1.29093 0.90403 0
M  V30 2324 C 219.722 1.1386 1.98919 0
M  V30 2325 C 220.722 0.0753457 1.60623 0
M  V30 2326 O 221.912 0.321931 1.71199 0
M  V30 2327 C 219.044 0.740198 3.32767 0
M  V30 2328 H 220.237 2.10246 2.13861 0
M  V30 2329 H 217.79 1.12218 1.08797 0
M  V30 2330 H 218.525 -0.223997 3.23525 0
M  V30 2331 H 218.31 1.50838 3.61926 0
M  V30 2332 H 219.8 0.656546 4.12407 0
M  V30 2333 N 220.237 -1.11381 1.11499 0
M  V30 2334 C 221.167 -2.19509 0.796125 0
M  V30 2335 C 222.148 -1.68458 -0.235796 0
M  V30 2336 O 223.333 -1.93947 -0.0991344 0
M  V30 2337 C 220.463 -3.46475 0.239205 0
M  V30 2338 C 219.417 -4.10744 1.20307 0
M  V30 2339 C 218.743 -5.32293 0.50683 0
M  V30 2340 C 220.043 -4.55597 2.55399 0
M  V30 2341 H 221.737 -2.46439 1.70024 0
M  V30 2342 H 219.283 -1.18446 0.818935 0
M  V30 2343 H 221.236 -4.214 0.00392006 0
M  V30 2344 H 219.96 -3.19006 -0.700206 0
M  V30 2345 H 218.619 -3.37813 1.42399 0
M  V30 2346 H 218.267 -5.01095 -0.437408 0
M  V30 2347 H 217.967 -5.76243 1.1497 0
M  V30 2348 H 219.491 -6.09956 0.280351 0
M  V30 2349 H 220.905 -5.21841 2.37391 0
M  V30 2350 H 219.302 -5.10363 3.15673 0
M  V30 2351 H 220.372 -3.69013 3.14575 0
M  V30 2352 N 221.715 -0.905404 -1.28997 0
M  V30 2353 C 222.625 -0.392246 -2.31298 0
M  V30 2354 C 223.641 0.515889 -1.66176 0
M  V30 2355 O 224.817 0.404093 -1.97304 0
M  V30 2356 C 221.882 0.36686 -3.44754 0
M  V30 2357 C 220.943 -0.573485 -4.25452 0
M  V30 2358 C 220.176 0.149488 -5.33491 0
M  V30 2359 O 220.399 1.37255 -5.5364 0
M  V30 2360 O 219.333 -0.510919 -5.99728 0
M  V30 2361 H 223.159 -1.2411 -2.77183 0
M  V30 2362 H 220.744 -0.669926 -1.33538 0
M  V30 2363 H 222.626 0.795907 -4.13816 0
M  V30 2364 H 221.301 1.19169 -3.00966 0
M  V30 2365 H 220.208 -1.05176 -3.59011 0
M  V30 2366 H 221.541 -1.36489 -4.72897 0
M  V30 2367 N 223.193 1.4272 -0.668489 0
M  V30 2368 C 224.418 2.06484 -0.194758 0
M  V30 2369 C 224.843 1.49862 1.13679 0
M  V30 2370 O 224.201 0.614582 1.70565 0
M  V30 2371 C 224.249 3.60353 -0.133546 0
M  V30 2372 O 223.353 4.02464 0.899806 0
M  V30 2373 H 222.694 0.656137 -0.10188 0
M  V30 2374 H 225.224 1.82964 -0.915722 0
M  V30 2375 H 225.234 4.07976 0.0447041 0
M  V30 2376 H 223.909 4.00938 -1.1055 0
M  V30 2377 H 222.486 3.66402 0.693109 0
M  V30 2378 N 224.671 0.411399 1.52136 0
M  V30 2379 C 225.634 -0.401089 2.25663 0
M  V30 2380 C 226.634 -0.971732 1.28117 0
M  V30 2381 O 227.824 -0.850254 1.52041 0
M  V30 2382 C 224.956 -1.56483 3.02863 0
M  V30 2383 H 226.149 0.24295 2.98914 0
M  V30 2384 H 223.702 0.163968 1.55438 0
M  V30 2385 H 224.437 -2.24567 2.33967 0
M  V30 2386 H 224.222 -1.16211 3.74483 0
M  V30 2387 H 225.712 -2.13951 3.58629 0
M  V30 2388 N 226.149 -1.5696 0.141893 0
M  V30 2389 C 227.398 -1.95135 -0.510427 0
M  V30 2390 C 227.711 -1.02896 -1.66348 0
M  V30 2391 O 228.917 -1.30629 -2.38009 0
M  V30 2392 C 227.373 -3.46876 -0.959427 0
M  V30 2393 C 226.981 -4.47691 0.166419 0
M  V30 2394 C 228.725 -3.93927 -1.58183 0
M  V30 2395 C 226.632 -5.90636 -0.300565 0
M  V30 2396 H 225.562 -0.728494 -0.194454 0
M  V30 2397 H 228.213 -1.8211 0.22542 0
M  V30 2398 H 226.595 -3.55215 -1.75038 0
M  V30 2399 H 227.769 -4.51043 0.94325 0
M  V30 2400 H 226.084 -4.10527 0.696905 0
M  V30 2401 H 228.681 -4.98158 -1.94275 0
M  V30 2402 H 229.024 -3.3519 -2.46888 0
M  V30 2403 H 229.557 -3.88484 -0.855863 0
M  V30 2404 H 226.296 -6.5318 0.550989 0
M  V30 2405 H 225.816 -5.90655 -1.04338 0
M  V30 2406 H 227.495 -6.42588 -0.754265 0
M  V30 2407 N 227.627 0.131896 -1.57047 0
M  V30 2408 C 228.59 1.14638 -1.98471 0
M  V30 2409 C 229.59 1.35029 -0.873148 0
M  V30 2410 O 230.78 1.31764 -1.13946 0
M  V30 2411 C 227.912 2.50358 -2.31373 0
M  V30 2412 H 229.105 0.79064 -2.8929 0
M  V30 2413 H 226.658 0.375761 -1.51716 0
M  V30 2414 H 227.393 2.90876 -1.43393 0
M  V30 2415 H 227.178 2.36915 -3.12432 0
M  V30 2416 H 228.668 3.23395 -2.64207 0
M  V30 2417 N 229.106 1.52395 0.401703 0
M  V30 2418 C 230.355 1.66044 1.14509 0
M  V30 2419 C 230.668 0.400216 1.91462 0
M  V30 2420 O 231.874 0.416632 2.68284 0
M  V30 2421 C 230.33 2.93388 2.0845 0
M  V30 2422 C 229.938 4.26545 1.36978 0
M  V30 2423 C 231.682 3.16402 2.83001 0
M  V30 2424 C 229.589 5.45007 2.29611 0
M  V30 2425 H 228.519 0.618562 0.431158 0
M  V30 2426 H 231.17 1.78886 0.40892 0
M  V30 2427 H 229.552 2.74263 2.8565 0
M  V30 2428 H 230.726 4.56179 0.650916 0
M  V30 2429 H 229.041 4.09692 0.74438 0
M  V30 2430 H 231.638 4.02085 3.52465 0
M  V30 2431 H 231.981 2.30943 3.46368 0
M  V30 2432 H 232.514 3.36034 2.12898 0
M  V30 2433 H 229.253 6.32835 1.70879 0
M  V30 2434 H 228.773 5.19702 2.9945 0
M  V30 2435 H 230.452 5.7838 2.89974 0
M  V30 2436 N 230.584 -0.659388 1.43143 0
M  V30 2437 C 231.547 -1.75432 1.47501 0
M  V30 2438 C 232.547 -1.56707 0.360512 0
M  V30 2439 O 233.737 -1.62717 0.622002 0
M  V30 2440 C 230.869 -3.14239 1.32162 0
M  V30 2441 H 232.062 -1.7295 2.45006 0
M  V30 2442 H 229.615 -0.870469 1.29817 0
M  V30 2443 H 230.35 -3.22336 0.356401 0
M  V30 2444 H 230.135 -3.29235 2.12948 0
M  V30 2445 H 231.625 -3.94094 1.3813 0
M  V30 2446 N 232.062 -1.29571 -0.897171 0
M  V30 2447 C 233.29 -1.20583 -1.68129 0
M  V30 2448 C 233.705 0.233181 -1.87354 0
M  V30 2449 O 233.062 1.15579 -1.41236 0
M  V30 2450 C 233.113 -1.91772 -3.06441 0
M  V30 2451 O 232.834 -3.30053 -2.88091 0
M  V30 2452 C 234.335 -1.89291 -4.00854 0
M  V30 2453 H 231.555 -0.417826 -0.525036 0
M  V30 2454 H 234.099 -1.70987 -1.12177 0
M  V30 2455 H 232.254 -1.45196 -3.59161 0
M  V30 2456 H 232.668 -3.65942 -3.75748 0
M  V30 2457 H 234.142 -2.43662 -4.95311 0
M  V30 2458 H 234.619 -0.869014 -4.30517 0
M  V30 2459 H 235.225 -2.35622 -3.54066 0
M  V30 2460 N 233.54 1.10788 -1.12088 0
M  V30 2461 C 234.788 1.8231 -0.872205 0
M  V30 2462 C 235.109 1.85419 0.603709 0
M  V30 2463 O 234.379 1.32963 1.43867 0
M  V30 2464 H 232.959 0.675137 -0.319686 0
M  V30 2465 H 235.621 1.34068 -1.41463 0
M  V30 2466 H 234.717 2.85955 -1.25045 0
M  V30 2467 N 235.018 0.912232 1.28515 0
M  V30 2468 C 235.965 0.397954 2.27343 0
M  V30 2469 C 236.935 -0.526766 1.57526 0
M  V30 2470 O 238.12 -0.449292 1.85435 0
M  V30 2471 C 235.26 -0.357263 3.43246 0
M  V30 2472 C 234.373 0.599788 4.27816 0
M  V30 2473 C 233.508 -0.173725 5.30916 0
M  V30 2474 C 232.547 0.777039 6.07148 0
M  V30 2475 N 231.684 0.0371398 7.0209 0
M  V30 2476 H 236.524 1.24577 2.70711 0
M  V30 2477 H 234.061 0.625612 1.33133 0
M  V30 2478 H 236.019 -0.8113 4.09236 0
M  V30 2479 H 234.649 -1.16943 3.00872 0
M  V30 2480 H 233.701 1.17235 3.61884 0
M  V30 2481 H 235.013 1.32704 4.80823 0
M  V30 2482 H 234.167 -0.688394 6.02782 0
M  V30 2483 H 232.906 -0.934041 4.78672 0
M  V30 2484 H 231.911 1.3031 5.34134 0
M  V30 2485 H 233.136 1.53689 6.61481 0
M  V30 2486 H 231.082 -0.705213 6.52198 0
M  V30 2487 H 230.999 0.704249 7.52713 0
M  V30 2488 H 232.267 -0.457383 7.78157 0
M  V30 2489 N 236.496 -1.42363 0.676048 0
M  V30 2490 C 237.429 -2.28141 -0.0516916 0
M  V30 2491 C 238.407 -1.41135 -0.807439 0
M  V30 2492 O 239.591 -1.70573 -0.802305 0
M  V30 2493 C 236.718 -3.21007 -1.08039 0
M  V30 2494 C 235.764 -4.24426 -0.420076 0
M  V30 2495 S 236.597 -5.29134 0.823246 0
M  V30 2496 C 237.753 -6.25566 -0.204344 0
M  V30 2497 H 237.986 -2.89515 0.675884 0
M  V30 2498 H 235.519 -1.47211 0.465635 0
M  V30 2499 H 237.477 -3.75048 -1.66881 0
M  V30 2500 H 236.138 -2.58766 -1.78042 0
M  V30 2501 H 235.331 -4.89596 -1.19633 0
M  V30 2502 H 234.933 -3.7388 0.0947845 0
M  V30 2503 H 237.225 -6.69098 -1.06369 0
M  V30 2504 H 238.168 -7.06895 0.412915 0
M  V30 2505 H 238.576 -5.61811 -0.55038 0
M  V30 2506 N 237.974 -0.419461 -1.51915 0
M  V30 2507 C 238.904 0.391813 -2.30189 0
M  V30 2508 C 239.885 1.03699 -1.34836 0
M  V30 2509 O 241.07 1.04403 -1.63748 0
M  V30 2510 C 238.2 1.50312 -3.13087 0
M  V30 2511 C 237.154 0.9824 -4.16573 0
M  V30 2512 C 236.48 2.18809 -4.8788 0
M  V30 2513 C 237.78 0.0292356 -5.22292 0
M  V30 2514 H 239.474 -0.26135 -2.98257 0
M  V30 2515 H 237.02 -0.127134 -1.43438 0
M  V30 2516 H 238.973 2.07773 -3.66617 0
M  V30 2517 H 237.697 2.18431 -2.42807 0
M  V30 2518 H 236.356 0.430119 -3.64068 0
M  V30 2519 H 236.004 2.85507 -4.14119 0
M  V30 2520 H 235.704 1.84615 -5.57845 0
M  V30 2521 H 237.228 2.76858 -5.44226 0
M  V30 2522 H 238.642 0.512976 -5.71 0
M  V30 2523 H 237.039 -0.2244 -5.9968 0
M  V30 2524 H 238.109 -0.912931 -4.76228 0
M  V30 2525 N 239.452 1.56882 -0.150215 0
M  V30 2526 C 240.677 2.01027 0.510184 0
M  V30 2527 C 241.102 1.02966 1.57415 0
M  V30 2528 O 240.46 0.00590158 1.81299 0
M  V30 2529 C 240.508 3.43899 1.08472 0
M  V30 2530 O 239.612 3.4885 2.19948 0
M  V30 2531 H 238.953 0.652233 0.124451 0
M  V30 2532 H 241.483 2.03093 -0.247894 0
M  V30 2533 H 241.493 3.82766 1.41259 0
M  V30 2534 H 240.168 4.14776 0.305582 0
M  V30 2535 H 238.745 3.21827 1.88366 0
M  V30 2536 N 240.93 -0.123565 1.57115 0
M  V30 2537 C 241.86 -1.15309 2.03042 0
M  V30 2538 C 242.841 -1.43454 0.914061 0
M  V30 2539 O 244.026 -1.53973 1.18347 0
M  V30 2540 C 241.156 -2.48043 2.43089 0
M  V30 2541 C 240.11 -2.3437 3.58127 0
M  V30 2542 C 239.436 -3.72026 3.84059 0
M  V30 2543 C 240.736 -1.80804 4.90007 0
M  V30 2544 H 242.43 -0.771102 2.893 0
M  V30 2545 H 239.976 -0.369479 1.39179 0
M  V30 2546 H 241.929 -3.20311 2.73823 0
M  V30 2547 H 240.653 -2.88122 1.53796 0
M  V30 2548 H 239.312 -1.64551 3.27595 0
M  V30 2549 H 238.96 -4.09582 2.91979 0
M  V30 2550 H 238.66 -3.63732 4.6149 0
M  V30 2551 H 240.184 -4.45806 4.1724 0
M  V30 2552 H 241.598 -2.42886 5.19307 0
M  V30 2553 H 239.995 -1.83343 5.71407 0
M  V30 2554 H 241.065 -0.76528 4.78823 0
M  V30 2555 N 242.408 -1.52605 -0.393616 0
M  V30 2556 C 243.371 -1.76415 -1.46323 0
M  V30 2557 C 244.371 -0.634126 -1.47768 0
M  V30 2558 O 245.561 -0.902142 -1.4902 0
M  V30 2559 C 242.693 -1.8607 -2.85641 0
M  V30 2560 H 243.886 -2.71916 -1.26498 0
M  V30 2561 H 241.439 -1.43257 -0.625073 0
M  V30 2562 H 242.174 -0.925378 -3.10817 0
M  V30 2563 H 241.959 -2.68235 -2.85993 0
M  V30 2564 H 243.449 -2.06179 -3.63153 0
M  V30 2565 N 243.887 0.651787 -1.4349 0
M  V30 2566 C 244.797 1.79368 -1.5121 0
M  V30 2567 C 245.813 1.69361 -0.399093 0
M  V30 2568 O 246.989 1.90505 -0.653431 0
M  V30 2569 C 244.054 3.15653 -1.43401 0
M  V30 2570 C 243.115 3.37446 -2.65384 0
M  V30 2571 C 242.348 4.67229 -2.57939 0
M  V30 2572 O 242.571 5.46676 -1.62792 0
M  V30 2573 O 241.505 4.90773 -3.48462 0
M  V30 2574 H 245.331 1.7581 -2.47638 0
M  V30 2575 H 242.916 0.810447 -1.25507 0
M  V30 2576 H 244.798 3.96935 -1.41494 0
M  V30 2577 H 243.473 3.19798 -0.501085 0
M  V30 2578 H 242.38 2.55923 -2.72863 0
M  V30 2579 H 243.713 3.38148 -3.57654 0
M  V30 2580 N 245.365 1.30045 0.890287 0
M  V30 2581 C 246.297 1.11786 2.00091 0
M  V30 2582 C 247.31 0.0626307 1.62679 0
M  V30 2583 O 248.499 0.308112 1.75821 0
M  V30 2584 C 245.599 0.681527 3.31977 0
M  V30 2585 C 244.772 1.81735 3.97858 0
M  V30 2586 C 243.831 1.37045 5.08041 0
M  V30 2587 O 242.857 2.07677 5.29961 0
M  V30 2588 N 244.059 0.246525 5.79976 0
M  V30 2589 H 246.824 2.07441 2.16306 0
M  V30 2590 H 244.385 1.2211 1.06305 0
M  V30 2591 H 246.377 0.365675 4.03045 0
M  V30 2592 H 244.947 -0.182828 3.12065 0
M  V30 2593 H 244.167 2.30159 3.20032 0
M  V30 2594 H 245.455 2.57865 4.38615 0
M  V30 2595 H 244.853 -0.34215 5.64664 0
M  V30 2596 H 243.41 -0.00990438 6.51799 0
M  V30 2597 N 246.843 -1.10192 1.12674 0
M  V30 2598 C 247.775 -2.16418 0.754701 0
M  V30 2599 C 248.788 -1.61309 -0.21986 0
M  V30 2600 O 249.977 -1.785 -0.000826841 0
M  V30 2601 C 247.077 -3.38762 0.096698 0
M  V30 2602 C 246.25 -4.23307 1.10136 0
M  V30 2603 C 245.309 -5.24092 0.470513 0
M  V30 2604 O 244.335 -5.57906 1.12824 0
M  V30 2605 N 245.537 -5.75491 -0.760948 0
M  V30 2606 H 248.302 -2.48943 1.66875 0
M  V30 2607 H 245.863 -1.25834 1.01869 0
M  V30 2608 H 247.855 -4.03291 -0.337384 0
M  V30 2609 H 246.425 -3.04192 -0.720153 0
M  V30 2610 H 245.645 -3.55036 1.71299 0
M  V30 2611 H 246.933 -4.76624 1.78064 0
M  V30 2612 H 246.331 -5.50222 -1.31424 0
M  V30 2613 H 244.888 -6.41792 -1.13781 0
M  V30 2614 N 248.321 -0.919034 -1.28029 0
M  V30 2615 C 249.251 -0.428581 -2.29533 0
M  V30 2616 C 250.232 0.50659 -1.62381 0
M  V30 2617 O 251.417 0.413195 -1.89753 0
M  V30 2618 C 248.547 0.327388 -3.45753 0
M  V30 2619 C 247.501 -0.519137 -4.2484 0
M  V30 2620 C 246.827 0.365486 -5.33449 0
M  V30 2621 C 248.127 -1.77914 -4.91064 0
M  V30 2622 H 249.821 -1.27687 -2.70807 0
M  V30 2623 H 247.367 -0.615428 -1.30186 0
M  V30 2624 H 249.32 0.681378 -4.15855 0
M  V30 2625 H 248.044 1.20963 -3.03374 0
M  V30 2626 H 246.703 -0.855717 -3.56473 0
M  V30 2627 H 246.351 1.24642 -4.87312 0
M  V30 2628 H 246.051 -0.197356 -5.87268 0
M  V30 2629 H 247.575 0.715241 -6.06396 0
M  V30 2630 H 248.989 -1.49374 -5.53498 0
M  V30 2631 H 247.386 -2.2848 -5.54903 0
M  V30 2632 H 248.456 -2.50382 -4.15255 0
M  V30 2633 N 249.799 1.42003 -0.683588 0
M  V30 2634 C 251.045 2.01712 -0.209825 0
M  V30 2635 C 251.378 1.53968 1.18353 0
M  V30 2636 O 250.653 0.745661 1.79639 0
M  V30 2637 C 250.936 3.59202 -0.254197 0
M  V30 2638 C 250.789 4.17102 -1.68363 0
M  V30 2639 C 252.108 4.38344 0.392709 0
M  V30 2640 H 249.227 0.732891 -0.0777189 0
M  V30 2641 H 251.869 1.68909 -0.87004 0
M  V30 2642 H 250.019 3.87278 0.307954 0
M  V30 2643 H 251.691 3.99946 -2.29871 0
M  V30 2644 H 249.934 3.72597 -2.22157 0
M  V30 2645 H 250.605 5.26249 -1.6663 0
M  V30 2646 H 253.081 4.16011 -0.0859162 0
M  V30 2647 H 251.957 5.47901 0.331063 0
M  V30 2648 H 252.218 4.16887 1.47164 0
M  V30 2649 N 251.277 0.427512 1.51691 0
M  V30 2650 C 252.554 -0.201684 1.94557 0
M  V30 2651 C 252.934 -1.60981 1.36559 0
M  V30 2652 O 252.282 -2.21814 0.548702 0
M  V30 2653 C 252.492 -0.189394 3.48486 0
M  V30 2654 C 253.84 -0.39978 4.22714 0
M  V30 2655 O 254.864 -0.267945 3.55191 0
M  V30 2656 O 253.723 -0.661249 5.42485 0
M  V30 2657 H 250.817 -0.135261 0.815864 0
M  V30 2658 H 253.363 0.484782 1.62628 0
M  V30 2659 H 252.135 0.795431 3.8313 0
M  V30 2660 H 251.758 -0.919187 3.86829 0
M  V30 2661 N 252.755 -1.56801 0.158532 0
M  V30 2662 C 253.995 -1.98383 -0.49229 0
M  V30 2663 C 254.359 -1.04184 -1.61275 0
M  V30 2664 O 255.56 -1.34856 -2.32524 0
M  V30 2665 C 253.831 -3.4385 -0.974766 0
M  V30 2666 S 255.39 -4.07459 -1.62857 0
M  V30 2667 H 252.208 -0.693041 -0.158794 0
M  V30 2668 H 254.81 -1.93856 0.252974 0
M  V30 2669 H 253.514 -4.10131 -0.148688 0
M  V30 2670 H 253.045 -3.52115 -1.75438 0
M  V30 2671 H 255.06 -4.01458 -2.91627 0
M  V30 2672 N 254.233 0.115231 -1.57178 0
M  V30 2673 C 255.196 1.12526 -1.99676 0
M  V30 2674 C 256.196 1.34095 -0.88742 0
M  V30 2675 O 257.386 1.30548 -1.15337 0
M  V30 2676 C 254.518 2.4789 -2.34015 0
M  V30 2677 H 255.711 0.759912 -2.90113 0
M  V30 2678 H 253.264 0.359648 -1.52106 0
M  V30 2679 H 253.999 2.89339 -1.4647 0
M  V30 2680 H 253.784 2.33588 -3.14927 0
M  V30 2681 H 255.274 3.20575 -2.67622 0
M  V30 2682 N 255.711 1.52812 0.385517 0
M  V30 2683 C 256.643 1.74096 1.49074 0
M  V30 2684 C 257.656 0.621462 1.50472 0
M  V30 2685 O 258.845 0.897245 1.54311 0
M  V30 2686 C 255.945 1.78774 2.87911 0
M  V30 2687 C 255.118 3.08134 3.10439 0
M  V30 2688 C 254.177 3.04313 4.29278 0
M  V30 2689 O 253.203 3.78168 4.25415 0
M  V30 2690 N 254.405 2.23741 5.35649 0
M  V30 2691 H 257.17 2.69455 1.31202 0
M  V30 2692 H 254.731 1.51343 0.575065 0
M  V30 2693 H 256.723 1.73721 3.65518 0
M  V30 2694 H 255.293 0.907869 2.99126 0
M  V30 2695 H 254.513 3.26649 2.20667 0
M  V30 2696 H 255.801 3.93662 3.22347 0
M  V30 2697 H 255.199 1.63211 5.41645 0
M  V30 2698 H 253.756 2.24524 6.11909 0
M  V30 2699 N 257.189 -0.644168 1.43834 0
M  V30 2700 C 258.466 -1.40188 1.36406 0
M  V30 2701 C 258.846 -2.11094 0.0163124 0
M  V30 2702 O 258.194 -2.05426 -1.00062 0
M  V30 2703 C 258.404 -2.3791 2.55343 0
M  V30 2704 C 259.752 -3.01637 2.98832 0
M  V30 2705 O 260.776 -2.48237 2.55455 0
M  V30 2706 O 259.635 -3.98477 3.74003 0
M  V30 2707 H 256.729 -0.626773 0.539523 0
M  V30 2708 H 259.275 -0.670317 1.559 0
M  V30 2709 H 258.047 -1.84525 3.4506 0
M  V30 2710 H 257.67 -3.18503 2.37995 0
M  V30 2711 N 258.668 -1.30515 -0.883378 0
M  V30 2712 C 259.915 -1.1943 -1.63532 0
M  V30 2713 C 260.243 0.250627 -1.92878 0
M  V30 2714 O 259.498 1.19556 -1.54935 0
M  V30 2715 C 259.797 -1.96994 -2.98209 0
M  V30 2716 C 259.463 -3.466 -2.88408 0
M  V30 2717 C 258.125 -3.87397 -2.85442 0
M  V30 2718 C 260.477 -4.41863 -2.76418 0
M  V30 2719 C 257.805 -5.21745 -2.68327 0
M  V30 2720 C 260.157 -5.7632 -2.60841 0
M  V30 2721 C 258.821 -6.16354 -2.56251 0
M  V30 2722 H 258.091 -0.437025 -0.598406 0
M  V30 2723 H 260.738 -1.61635 -1.02696 0
M  V30 2724 H 259.043 -1.47429 -3.63004 0
M  V30 2725 H 260.74 -1.85808 -3.55354 0
M  V30 2726 H 257.33 -3.14182 -2.91527 0
M  V30 2727 H 261.514 -4.11285 -2.77775 0
M  V30 2728 H 256.77 -5.51853 -2.63189 0
M  V30 2729 H 260.944 -6.49772 -2.50538 0
M  V30 2730 H 258.571 -7.20401 -2.42748 0
M  V30 2731 N 260.146 1.09593 -1.13257 0
M  V30 2732 C 261.094 2.18271 -0.803783 0
M  V30 2733 C 262.088 1.68054 0.213148 0
M  V30 2734 O 263.294 1.79862 0.0704699 0
M  V30 2735 H 259.669 0.711949 -0.242143 0
M  V30 2736 H 261.64 2.43235 -1.72856 0
M  V30 2737 C 260.389 3.46536 -0.28424 0
M  V30 2738 H 259.712 3.85545 -1.05807 0
M  V30 2739 H 261.152 4.23899 -0.0925945 0
M  V30 2740 C 259.611 3.22036 0.989684 0
M  V30 2741 O 260.141 3.44509 2.06584 0
M  V30 2742 N 258.347 2.7565 0.920086 0
M  V30 2743 H 257.894 2.57562 0.0442019 0
M  V30 2744 H 257.852 2.59635 1.77306 0
M  V30 2745 N 261.624 0.925811 1.2754 0
M  V30 2746 C 262.572 0.413897 2.28888 0
M  V30 2747 C 263.566 -0.500779 1.61829 0
M  V30 2748 O 264.772 -0.38069 1.75928 0
M  V30 2749 H 261.147 0.115274 0.743112 0
M  V30 2750 H 263.118 1.28151 2.69481 0
M  V30 2751 C 261.867 -0.319792 3.46226 0
M  V30 2752 H 261.19 0.374846 3.98039 0
M  V30 2753 H 262.63 -0.642435 4.19105 0
M  V30 2754 C 261.089 -1.53209 3.00048 0
M  V30 2755 O 261.619 -2.6309 3.03557 0
M  V30 2756 N 259.825 -1.38326 2.55566 0
M  V30 2757 H 259.372 -0.489292 2.5291 0
M  V30 2758 H 259.33 -2.19564 2.25031 0
M  V30 2759 N 263.102 -1.41638 0.69111 0
M  V30 2760 C 264.052 -2.28 -0.000107832 0
M  V30 2761 C 265.036 -1.41964 -0.757304 0
M  V30 2762 O 266.228 -1.65274 -0.633532 0
M  V30 2763 C 263.357 -3.30209 -0.938983 0
M  V30 2764 C 262.443 -4.23725 -0.17827 0
M  V30 2765 N 262.834 -4.99017 0.825563 0
M  V30 2766 C 261.132 -4.44071 -0.414392 0
M  V30 2767 C 261.833 -5.67431 1.28052 0
M  V30 2768 N 260.809 -5.40197 0.607304 0
M  V30 2769 H 264.611 -2.83644 0.769617 0
M  V30 2770 H 262.125 -1.53797 0.521562 0
M  V30 2771 H 264.122 -3.90898 -1.44929 0
M  V30 2772 H 262.782 -2.76126 -1.70836 0
M  V30 2773 H 263.793 -5.03671 1.20566 0
M  V30 2774 H 260.47 -4.01004 -1.162 0
M  V30 2775 H 261.86 -6.37801 2.11327 0
M  V30 2776 N 264.58 -0.43555 -1.51462 0
M  V30 2777 C 265.828 0.131254 -2.01673 0
M  V30 2778 C 266.149 1.43368 -1.32177 0
M  V30 2779 O 265.419 1.90524 -0.455769 0
M  V30 2780 H 263.999 0.0514954 -0.745223 0
M  V30 2781 H 266.661 -0.577847 -1.86137 0
M  V30 2782 H 265.757 0.308446 -3.10572 0
M  V30 2783 N 266.058 1.56714 -0.166846 0
M  V30 2784 C 267.298 1.98641 0.481763 0
M  V30 2785 C 267.662 1.05038 1.6072 0
M  V30 2786 O 268.863 1.36087 2.31805 0
M  V30 2787 C 267.134 3.44362 0.956517 0
M  V30 2788 S 268.693 4.08317 1.60694 0
M  V30 2789 H 265.511 0.693873 0.155116 0
M  V30 2790 H 268.113 1.93719 -0.263251 0
M  V30 2791 H 266.817 4.10204 0.126936 0
M  V30 2792 H 266.348 3.53041 1.73568 0
M  V30 2793 H 268.363 4.02999 2.89494 0
M  V30 2794 N 267.536 -0.106894 1.57237 0
M  V30 2795 C 268.468 -1.15646 1.97885 0
M  V30 2796 C 269.481 -1.36981 0.879779 0
M  V30 2797 O 270.67 -1.35841 1.15799 0
M  V30 2798 C 267.77 -2.51425 2.27241 0
M  V30 2799 C 266.943 -2.50529 3.58545 0
M  V30 2800 C 266.002 -3.68145 3.75973 0
M  V30 2801 O 265.028 -3.51176 4.47956 0
M  V30 2802 N 266.23 -4.87177 3.15656 0
M  V30 2803 H 268.995 -0.81059 2.8853 0
M  V30 2804 H 266.556 -0.296024 1.59171 0
M  V30 2805 H 268.548 -3.28689 2.36105 0
M  V30 2806 H 267.118 -2.78147 1.42663 0
M  V30 2807 H 266.338 -1.58894 3.60758 0
M  V30 2808 H 267.626 -2.46997 4.44826 0
M  V30 2809 H 267.024 -5.03868 2.57165 0
M  V30 2810 H 265.581 -5.62075 3.30023 0
M  V30 2811 N 269.014 -1.53014 -0.377408 0
M  V30 2812 C 270.262 -1.6829 -1.11906 0
M  V30 2813 C 270.583 -0.431206 -1.90173 0
M  V30 2814 O 269.853 0.554595 -1.87886 0
M  V30 2815 H 268.433 -0.620371 -0.416112 0
M  V30 2816 H 271.095 -1.90167 -0.426893 0
M  V30 2817 H 270.191 -2.53862 -1.8155 0
M  V30 2818 N 270.492 0.636531 -1.44174 0
M  V30 2819 C 271.74 1.39343 -1.46383 0
M  V30 2820 C 272.061 1.94766 -0.0955715 0
M  V30 2821 O 271.331 1.75452 0.871395 0
M  V30 2822 H 269.911 0.517199 -0.538994 0
M  V30 2823 H 272.573 0.74957 -1.7991 0
M  V30 2824 H 271.669 2.22746 -2.18611 0
M  V30 2825 N 271.97 1.30982 0.876444 0
M  V30 2826 C 272.9 1.20668 1.99903 0
M  V30 2827 C 273.881 0.095354 1.69833 0
M  V30 2828 O 275.066 0.27885 1.92188 0
M  V30 2829 C 272.196 0.90655 3.3526 0
M  V30 2830 C 271.15 1.97675 3.79617 0
M  V30 2831 C 270.476 1.52943 5.1236 0
M  V30 2832 C 271.776 3.389 3.97422 0
M  V30 2833 H 273.47 2.14586 2.0879 0
M  V30 2834 H 271.016 1.03308 1.00317 0
M  V30 2835 H 272.969 0.821025 4.13324 0
M  V30 2836 H 271.693 -0.0682969 3.26529 0
M  V30 2837 H 270.352 2.05205 3.03787 0
M  V30 2838 H 270 0.54262 5.00065 0
M  V30 2839 H 269.7 2.24532 5.43009 0
M  V30 2840 H 271.224 1.45786 5.92941 0
M  V30 2841 H 272.638 3.34081 4.659 0
M  V30 2842 H 271.035 4.0865 4.3946 0
M  V30 2843 H 272.105 3.80163 3.01006 0
M  V30 2844 N 273.449 -1.08991 1.13837 0
M  V30 2845 C 274.86 -1.62746 0.914917 0
M  V30 2846 C 275.211 -1.88403 -0.547594 0
M  V30 2847 O 274.336 -1.63706 -1.41525 0
M  V30 2848 C 274.931 -2.95662 1.65437 0
M  V30 2849 C 273.49 -3.46225 1.47666 0
M  V30 2850 C 272.637 -2.20562 1.6807 0
M  V30 2851 H 275.588 -0.922946 1.29102 0
M  V30 2852 H 275.609 -3.63825 1.11407 0
M  V30 2853 H 275.121 -2.76956 2.71877 0
M  V30 2854 H 273.222 -3.70046 0.435478 0
M  V30 2855 H 273.335 -4.23368 2.24268 0
M  V30 2856 H 271.699 -2.29439 1.10589 0
M  V30 2857 H 272.482 -2.0437 2.7584 0
M  V30 2858 N 274.927 -0.932562 -1.27047 0
M  V30 2859 C 276.152 -0.591474 -1.98787 0
M  V30 2860 C 276.577 0.824601 -1.69062 0
M  V30 2861 O 275.935 1.5541 -0.933677 0
M  V30 2862 C 275.983 -0.829808 -3.50922 0
M  V30 2863 O 275.087 0.102266 -4.12273 0
M  V30 2864 H 274.428 -0.227185 -0.623926 0
M  V30 2865 H 276.958 -1.25314 -1.61733 0
M  V30 2866 H 276.968 -0.747292 -4.01098 0
M  V30 2867 H 275.643 -1.86201 -3.7189 0
M  V30 2868 H 274.22 -0.0305761 -3.72887 0
M  V30 2869 N 276.405 1.4127 -0.698611 0
M  V30 2870 C 277.337 2.292 0.00399731 0
M  V30 2871 C 278.35 1.44944 0.741279 0
M  V30 2872 O 279.539 1.68416 0.591477 0
M  V30 2873 C 276.639 3.22875 1.02979 0
M  V30 2874 C 275.812 4.35904 0.36151 0
M  V30 2875 C 274.871 5.10134 1.29033 0
M  V30 2876 O 273.897 5.63809 0.781562 0
M  V30 2877 N 275.099 5.17885 2.6225 0
M  V30 2878 H 277.864 2.9014 -0.750921 0
M  V30 2879 H 275.425 1.52455 -0.544882 0
M  V30 2880 H 277.417 3.69404 1.65296 0
M  V30 2881 H 275.987 2.63221 1.68622 0
M  V30 2882 H 275.207 3.91719 -0.441584 0
M  V30 2883 H 276.495 5.08696 -0.103055 0
M  V30 2884 H 275.893 4.7573 3.061 0
M  V30 2885 H 274.45 5.6798 3.19754 0
M  V30 2886 N 277.883 0.443576 1.51229 0
M  V30 2887 C 278.846 -0.353132 2.26463 0
M  V30 2888 C 279.846 -0.944338 1.3015 0
M  V30 2889 O 281.036 -0.817813 1.5381 0
M  V30 2890 C 278.168 -1.50023 3.06114 0
M  V30 2891 H 279.361 0.3063 2.98332 0
M  V30 2892 H 276.914 0.196902 1.55055 0
M  V30 2893 H 277.649 -2.19553 2.38677 0
M  V30 2894 H 277.434 -1.08241 3.76864 0
M  V30 2895 H 278.924 -2.06296 3.63087 0
M  V30 2896 N 279.361 -1.56624 0.175154 0
M  V30 2897 C 280.608 -1.96999 -0.468811 0
M  V30 2898 C 280.936 -1.06129 -1.62994 0
M  V30 2899 O 280.191 -0.0961771 -1.95464 0
M  V30 2900 C 280.49 -3.43419 -0.989864 0
M  V30 2901 C 280.156 -4.50866 0.0557687 0
M  V30 2902 C 278.818 -4.79975 0.343134 0
M  V30 2903 C 281.17 -5.15551 0.765308 0
M  V30 2904 C 278.498 -5.71066 1.34536 0
M  V30 2905 C 280.85 -6.07724 1.75654 0
M  V30 2906 C 279.514 -6.35199 2.05132 0
M  V30 2907 H 278.784 -0.720869 -0.17155 0
M  V30 2908 H 281.431 -1.89616 0.267924 0
M  V30 2909 H 279.736 -3.47772 -1.80449 0
M  V30 2910 H 281.433 -3.72002 -1.49719 0
M  V30 2911 H 278.023 -4.28229 -0.178381 0
M  V30 2912 H 282.207 -4.9317 0.556513 0
M  V30 2913 H 277.463 -5.90635 1.57988 0
M  V30 2914 H 281.637 -6.56912 2.31169 0
M  V30 2915 H 279.264 -7.05584 2.8294 0
M  V30 2916 N 280.839 0.0985539 -1.57292 0
M  V30 2917 C 281.749 1.13824 -2.05137 0
M  V30 2918 C 282.765 1.44076 -0.975604 0
M  V30 2919 O 283.941 1.54786 -1.28853 0
M  V30 2920 C 281.006 2.43969 -2.46333 0
M  V30 2921 C 280.067 2.2093 -3.68087 0
M  V30 2922 C 279.3 3.44869 -4.0731 0
M  V30 2923 O 279.523 4.52972 -3.46659 0
M  V30 2924 O 278.457 3.34661 -5.00285 0
M  V30 2925 H 282.283 0.761881 -2.93988 0
M  V30 2926 H 279.868 0.310818 -1.46131 0
M  V30 2927 H 281.75 3.20609 -2.73473 0
M  V30 2928 H 280.425 2.81038 -1.60621 0
M  V30 2929 H 279.332 1.42081 -3.46069 0
M  V30 2930 H 280.665 1.88755 -4.54568 0
M  V30 2931 N 282.317 1.53212 0.369288 0
M  V30 2932 C 283.547 1.72868 1.13139 0
M  V30 2933 C 283.955 0.455754 1.83629 0
M  V30 2934 O 283.298 -0.580861 1.74275 0
M  V30 2935 C 283.36 2.83667 2.20847 0
M  V30 2936 C 283.024 4.24142 1.70155 0
M  V30 2937 C 284.021 5.06619 1.16763 0
M  V30 2938 C 281.706 4.70539 1.7578 0
M  V30 2939 C 283.7 6.33581 0.696678 0
M  V30 2940 C 281.387 5.97481 1.28297 0
M  V30 2941 C 282.385 6.78833 0.753307 0
M  V30 2942 O 282.073 8.03393 0.285475 0
M  V30 2943 H 281.805 0.581707 0.344373 0
M  V30 2944 H 284.359 2.00736 0.435243 0
M  V30 2945 H 282.589 2.51265 2.93944 0
M  V30 2946 H 284.278 2.91536 2.82421 0
M  V30 2947 H 285.044 4.71948 1.11758 0
M  V30 2948 H 280.923 4.07293 2.15949 0
M  V30 2949 H 284.467 6.97027 0.282581 0
M  V30 2950 H 280.364 6.31651 1.32994 0
M  V30 2951 H 281.132 8.17497 0.405145 0
M  V30 2952 N 283.795 -0.628877 1.44509 0
M  V30 2953 C 285.044 -1.38437 1.4669 0
M  V30 2954 C 285.357 -1.95322 0.104272 0
M  V30 2955 O 286.563 -2.715 0.00362163 0
M  V30 2956 C 285.019 -2.50659 2.5826 0
M  V30 2957 C 284.627 -2.00277 4.0074 0
M  V30 2958 C 286.371 -3.27844 2.69664 0
M  V30 2959 C 284.278 -3.09854 5.0373 0
M  V30 2960 H 283.208 -0.520245 0.545766 0
M  V30 2961 H 285.859 -0.676313 1.70582 0
M  V30 2962 H 284.241 -3.2405 2.27612 0
M  V30 2963 H 285.415 -1.33736 4.40966 0
M  V30 2964 H 283.73 -1.35901 3.93599 0
M  V30 2965 H 286.327 -4.09534 3.43781 0
M  V30 2966 H 286.67 -3.77471 1.75559 0
M  V30 2967 H 287.203 -2.61543 2.99733 0
M  V30 2968 H 283.942 -2.65168 5.99472 0
M  V30 2969 H 283.462 -3.7503 4.68095 0
M  V30 2970 H 285.141 -3.74592 5.27532 0
M  V30 2971 N 285.273 -1.31445 -0.869486 0
M  V30 2972 C 286.203 -1.21727 -1.99261 0
M  V30 2973 C 287.184 -0.104359 -1.6978 0
M  V30 2974 O 288.369 -0.289038 -1.92037 0
M  V30 2975 C 285.499 -0.924317 -3.34774 0
M  V30 2976 C 284.453 -1.99685 -3.78563 0
M  V30 2977 C 283.779 -1.55658 -5.11541 0
M  V30 2978 C 285.079 -3.41003 -3.95619 0
M  V30 2979 H 286.773 -2.1569 -2.07649 0
M  V30 2980 H 284.319 -1.03839 -0.997675 0
M  V30 2981 H 286.272 -0.842934 -4.12883 0
M  V30 2982 H 284.996 0.0509793 -3.2656 0
M  V30 2983 H 283.655 -2.06813 -3.02694 0
M  V30 2984 H 283.303 -0.569132 -4.9977 0
M  V30 2985 H 283.003 -2.27409 -5.41811 0
M  V30 2986 H 284.527 -1.48928 -5.92159 0
M  V30 2987 H 285.941 -3.36547 -4.64122 0
M  V30 2988 H 284.338 -4.10975 -4.37286 0
M  V30 2989 H 285.408 -3.81754 -2.98985 0
M  V30 2990 N 286.751 1.08385 -1.14413 0
M  V30 2991 C 287.981 1.8425 -0.934644 0
M  V30 2992 C 288.389 1.81907 0.520234 0
M  V30 2993 O 287.732 1.22126 1.37226 0
M  V30 2994 C 287.794 3.32853 -1.35828 0
M  V30 2995 C 287.458 3.5893 -2.82875 0
M  V30 2996 C 288.455 3.53756 -3.80989 0
M  V30 2997 C 286.14 3.86934 -3.20293 0
M  V30 2998 C 288.134 3.76216 -5.14529 0
M  V30 2999 C 285.821 4.09047 -4.54008 0
M  V30 3000 C 286.819 4.03682 -5.50936 0
M  V30 3001 O 286.507 4.25214 -6.82238 0
M  V30 3002 H 286.239 0.588502 -0.332628 0
M  V30 3003 H 288.793 1.37792 -1.52324 0
M  V30 3004 H 287.023 3.8007 -0.713019 0
M  V30 3005 H 288.712 3.90154 -1.11957 0
M  V30 3006 H 289.478 3.32135 -3.53428 0
M  V30 3007 H 285.357 3.9023 -2.45442 0
M  V30 3008 H 288.901 3.71943 -5.90173 0
M  V30 3009 H 284.798 4.30151 -4.8129 0
M  V30 3010 H 285.566 4.42619 -6.88499 0
M  V30 3011 N 288.23 0.939286 1.26551 0
M  V30 3012 C 289.178 0.43815 2.28436 0
M  V30 3013 C 290.172 -0.483587 1.62351 0
M  V30 3014 O 291.378 -0.362009 1.76322 0
M  V30 3015 H 287.753 0.123149 0.741848 0
M  V30 3016 H 289.724 1.31002 2.68106 0
M  V30 3017 C 288.473 -0.283052 3.46546 0
M  V30 3018 H 287.796 0.417043 3.97619 0
M  V30 3019 H 289.236 -0.597948 4.19763 0
M  V30 3020 C 287.695 -1.50018 3.01656 0
M  V30 3021 O 288.225 -2.59855 3.0633 0
M  V30 3022 N 286.431 -1.35608 2.57019 0
M  V30 3023 H 285.978 -0.46244 2.53415 0
M  V30 3024 H 285.936 -2.17165 2.27347 0
M  V30 3025 N 289.708 -1.40897 0.706093 0
M  V30 3026 C 290.655 -2.30751 0.0474474 0
M  V30 3027 C 291.625 -1.47678 -0.76029 0
M  V30 3028 O 292.81 -1.76441 -0.726177 0
M  V30 3029 C 289.95 -3.33815 -0.875309 0
M  V30 3030 C 289.063 -4.31961 -0.0580623 0
M  V30 3031 C 288.198 -5.22093 -0.979425 0
M  V30 3032 C 287.237 -6.11902 -0.155706 0
M  V30 3033 N 286.374 -6.94482 -1.03144 0
M  V30 3034 H 291.214 -2.86513 0.819413 0
M  V30 3035 H 288.751 -1.41102 0.415783 0
M  V30 3036 H 290.709 -3.92129 -1.42446 0
M  V30 3037 H 289.339 -2.79579 -1.61356 0
M  V30 3038 H 288.391 -3.75507 0.608147 0
M  V30 3039 H 289.703 -4.95415 0.580082 0
M  V30 3040 H 288.857 -5.85292 -1.59744 0
M  V30 3041 H 287.596 -4.5889 -1.65141 0
M  V30 3042 H 286.601 -5.47742 0.475309 0
M  V30 3043 H 287.826 -6.77162 0.512635 0
M  V30 3044 H 285.772 -6.33877 -1.68924 0
M  V30 3045 H 285.689 -7.54665 -0.449108 0
M  V30 3046 H 286.957 -7.6214 -1.63593 0
M  V30 3047 N 291.186 -0.45159 -1.50991 0
M  V30 3048 C 292.434 0.109857 -2.01801 0
M  V30 3049 C 292.755 1.41958 -1.3369 0
M  V30 3050 O 292.025 1.9003 -0.475951 0
M  V30 3051 H 290.605 0.0435884 -0.745727 0
M  V30 3052 H 293.267 -0.597557 -1.85514 0
M  V30 3053 H 292.363 0.275489 -3.10882 0
M  V30 3054 N 292.664 1.56529 -0.183458 0
M  V30 3055 C 293.913 1.96419 0.458511 0
M  V30 3056 C 294.226 1.0727 1.63562 0
M  V30 3057 O 295.432 1.36893 2.34462 0
M  V30 3058 C 293.888 3.49298 0.867122 0
M  V30 3059 C 293.496 4.47092 -0.285057 0
M  V30 3060 C 295.24 3.97983 1.47683 0
M  V30 3061 C 293.147 5.91225 0.143862 0
M  V30 3062 H 292.077 0.733394 0.175071 0
M  V30 3063 H 294.728 1.81448 -0.273624 0
M  V30 3064 H 293.11 3.59731 1.65559 0
M  V30 3065 H 294.284 4.48383 -1.0625 0
M  V30 3066 H 292.599 4.08535 -0.805503 0
M  V30 3067 H 295.196 5.03134 1.80999 0
M  V30 3068 H 295.539 3.41618 2.37914 0
M  V30 3069 H 296.072 3.90617 0.752562 0
M  V30 3070 H 292.811 6.5149 -0.723974 0
M  V30 3071 H 292.331 5.93214 0.886413 0
M  V30 3072 H 294.01 6.44362 0.583628 0
M  V30 3073 N 294.142 -0.090211 1.57342 0
M  V30 3074 C 295.075 -1.14035 1.97664 0
M  V30 3075 C 296.053 -1.38576 0.850616 0
M  V30 3076 O 297.237 -1.52255 1.11134 0
M  V30 3077 C 294.364 -2.48854 2.2976 0
M  V30 3078 C 293.41 -2.40564 3.52181 0
M  V30 3079 S 294.243 -1.81745 5.03715 0
M  V30 3080 C 295.399 -3.18178 5.38993 0
M  V30 3081 H 295.632 -0.796636 2.86428 0
M  V30 3082 H 293.165 -0.298072 1.51496 0
M  V30 3083 H 295.123 -3.26413 2.48927 0
M  V30 3084 H 293.784 -2.80393 1.41558 0
M  V30 3085 H 292.977 -3.39942 3.72096 0
M  V30 3086 H 292.579 -1.71135 3.32549 0
M  V30 3087 H 294.871 -4.14461 5.35937 0
M  V30 3088 H 295.814 -3.03062 6.39968 0
M  V30 3089 H 296.222 -3.17935 4.66452 0
M  V30 3090 N 295.62 -1.53406 -0.361157 0
M  V30 3091 C 296.868 -1.69467 -1.10115 0
M  V30 3092 C 297.189 -0.451352 -1.89705 0
M  V30 3093 O 296.459 0.534636 -1.88463 0
M  V30 3094 H 295.039 -0.624749 -0.409508 0
M  V30 3095 H 297.701 -1.90609 -0.406699 0
M  V30 3096 H 296.797 -2.55774 -1.78847 0
M  V30 3097 N 297.098 0.621204 -1.44841 0
M  V30 3098 C 298.008 1.7612 -1.5498 0
M  V30 3099 C 299.024 1.68477 -0.434927 0
M  V30 3100 O 300.2 1.89076 -0.693693 0
M  V30 3101 C 297.265 3.1254 -1.50065 0
M  V30 3102 C 296.326 3.31741 -2.72482 0
M  V30 3103 C 295.559 4.61653 -2.67792 0
M  V30 3104 O 295.782 5.431 -1.74352 0
M  V30 3105 O 294.716 4.83271 -3.58794 0
M  V30 3106 H 298.542 1.70518 -2.51311 0
M  V30 3107 H 296.127 0.783643 -1.27198 0
M  V30 3108 H 298.009 3.93844 -1.49882 0
M  V30 3109 H 296.684 3.18663 -0.568806 0
M  V30 3110 H 295.591 2.50077 -2.7823 0
M  V30 3111 H 296.924 3.30486 -3.64746 0
M  V30 3112 N 298.576 1.31904 0.862503 0
M  V30 3113 C 299.853 1.12644 1.59908 0
M  V30 3114 C 300.233 -0.316104 2.0872 0
M  V30 3115 O 299.581 -1.31145 1.87118 0
M  V30 3116 C 299.791 2.1472 2.7513 0
M  V30 3117 C 301.139 2.47637 3.44907 0
M  V30 3118 O 302.163 2.13205 2.85346 0
M  V30 3119 O 301.022 3.06632 4.52371 0
M  V30 3120 H 298.116 0.43416 0.703871 0
M  V30 3121 H 300.662 1.43408 0.907314 0
M  V30 3122 H 299.434 3.1172 2.3653 0
M  V30 3123 H 299.057 1.84905 3.51989 0
M  V30 3124 N 300.054 -1.07777 1.14986 0
M  V30 3125 C 301.282 -1.84018 0.945773 0
M  V30 3126 C 301.697 -1.81897 -0.505863 0
M  V30 3127 O 301.054 -1.22726 -1.35072 0
M  V30 3128 C 301.105 -3.31287 1.44677 0
M  V30 3129 O 300.826 -3.33449 2.84154 0
M  V30 3130 C 302.327 -4.24311 1.28355 0
M  V30 3131 H 299.547 -0.580716 0.336169 0
M  V30 3132 H 302.091 -1.36077 1.52654 0
M  V30 3133 H 300.246 -3.76594 0.908625 0
M  V30 3134 H 300.66 -4.25427 3.06777 0
M  V30 3135 H 302.134 -5.2573 1.68261 0
M  V30 3136 H 302.611 -4.38612 0.227184 0
M  V30 3137 H 303.217 -3.84836 1.81056 0
M  V30 3138 N 301.532 -0.945985 -1.26051 0
M  V30 3139 C 302.762 -0.612136 -1.97323 0
M  V30 3140 C 303.17 0.818171 -1.70595 0
M  V30 3141 O 302.513 1.55777 -0.973613 0
M  V30 3142 C 302.575 -0.780347 -3.50929 0
M  V30 3143 C 302.239 -2.18619 -4.01317 0
M  V30 3144 C 303.236 -3.16209 -4.12683 0
M  V30 3145 C 300.921 -2.50805 -4.35203 0
M  V30 3146 C 302.915 -4.44085 -4.57238 0
M  V30 3147 C 300.602 -3.78912 -4.79446 0
M  V30 3148 C 301.6 -4.75365 -4.90425 0
M  V30 3149 O 301.288 -6.01191 -5.3369 0
M  V30 3150 H 301.02 -0.229134 -0.635982 0
M  V30 3151 H 303.574 -1.27036 -1.61404 0
M  V30 3152 H 301.804 -0.0649864 -3.86645 0
M  V30 3153 H 303.493 -0.448842 -4.03411 0
M  V30 3154 H 304.259 -2.92668 -3.86744 0
M  V30 3155 H 300.138 -1.76463 -4.2589 0
M  V30 3156 H 303.682 -5.19373 -4.65723 0
M  V30 3157 H 299.579 -4.02265 -5.0483 0
M  V30 3158 H 300.347 -6.04442 -5.51899 0
M  V30 3159 N 303.011 1.40521 -0.713556 0
M  V30 3160 C 304.422 1.83853 -0.324807 0
M  V30 3161 C 304.773 1.59667 1.14021 0
M  V30 3162 O 303.898 1.07649 1.87725 0
M  V30 3163 C 304.493 3.33751 -0.582746 0
M  V30 3164 C 303.052 3.75584 -0.247727 0
M  V30 3165 C 302.199 2.63753 -0.856121 0
M  V30 3166 H 305.15 1.29817 -0.91286 0
M  V30 3167 H 305.171 3.80194 0.152682 0
M  V30 3168 H 304.683 3.51322 -1.64908 0
M  V30 3169 H 302.784 3.63608 0.813624 0
M  V30 3170 H 302.897 4.7373 -0.715307 0
M  V30 3171 H 301.261 2.53108 -0.28432 0
M  V30 3172 H 302.044 2.84137 -1.92668 0
M  V30 3173 N 304.489 0.459591 1.5075 0
M  V30 3174 C 305.719 -0.0972338 2.06371 0
M  V30 3175 C 306.127 -1.35074 1.32483 0
M  V30 3176 O 305.47 -1.79637 0.384226 0
M  V30 3177 C 305.532 -0.462759 3.56509 0
M  V30 3178 C 305.196 0.687084 4.51805 0
M  V30 3179 C 306.193 1.56578 4.95761 0
M  V30 3180 C 303.878 0.874144 4.94635 0
M  V30 3181 C 305.872 2.61604 5.81242 0
M  V30 3182 C 303.559 1.92765 5.79901 0
M  V30 3183 C 304.557 2.79697 6.23104 0
M  V30 3184 O 304.245 3.83235 7.06673 0
M  V30 3185 H 303.977 -0.00140687 0.675999 0
M  V30 3186 H 306.531 0.644011 1.95043 0
M  V30 3187 H 304.761 -1.25703 3.65699 0
M  V30 3188 H 306.45 -0.953323 3.94546 0
M  V30 3189 H 307.216 1.4329 4.6335 0
M  V30 3190 H 303.095 0.207006 4.60535 0
M  V30 3191 H 306.639 3.29489 6.14884 0
M  V30 3192 H 302.536 2.06064 6.11725 0
M  V30 3193 H 303.304 3.80084 7.24899 0
M  V30 3194 N 305.967 -1.56429 0.191757 0
M  V30 3195 C 306.899 -2.16154 -0.762245 0
M  V30 3196 C 307.912 -1.12247 -1.17917 0
M  V30 3197 O 309.101 -1.39353 -1.11548 0
M  V30 3198 C 306.201 -2.70606 -2.04024 0
M  V30 3199 C 305.374 -3.99381 -1.78364 0
M  V30 3200 C 304.433 -4.38692 -2.90578 0
M  V30 3201 O 303.459 -5.06179 -2.6033 0
M  V30 3202 N 304.661 -4.01922 -4.18854 0
M  V30 3203 H 307.426 -2.98643 -0.251526 0
M  V30 3204 H 304.987 -1.61897 0.00967373 0
M  V30 3205 H 306.979 -2.93891 -2.78227 0
M  V30 3206 H 305.549 -1.9259 -2.46227 0
M  V30 3207 H 304.769 -3.84262 -0.879581 0
M  V30 3208 H 306.057 -4.83445 -1.58614 0
M  V30 3209 H 305.455 -3.47631 -4.46283 0
M  V30 3210 H 304.012 -4.30165 -4.89695 0
M  V30 3211 N 307.445 0.0818655 -1.57387 0
M  V30 3212 C 308.693 0.781368 -1.86384 0
M  V30 3213 C 309.014 1.78618 -0.782342 0
M  V30 3214 O 308.284 1.94976 0.190061 0
M  V30 3215 H 306.864 0.291562 -0.687751 0
M  V30 3216 H 309.526 0.060348 -1.94807 0
M  V30 3217 H 308.622 1.3038 -2.83562 0
M  V30 3218 N 308.923 1.53595 0.353017 0
M  V30 3219 C 309.87 1.80919 1.43308 0
M  V30 3220 C 310.84 0.654288 1.5267 0
M  V30 3221 O 312.025 0.897759 1.6836 0
M  V30 3222 C 309.165 2.01605 2.80089 0
M  V30 3223 C 308.278 3.29321 2.79593 0
M  V30 3224 C 307.413 3.40125 4.0803 0
M  V30 3225 C 306.452 4.61826 4.01725 0
M  V30 3226 N 305.589 4.69716 5.21834 0
M  V30 3227 H 310.429 2.73074 1.19308 0
M  V30 3228 H 307.966 1.35263 0.578131 0
M  V30 3229 H 309.924 2.11586 3.59565 0
M  V30 3230 H 308.554 1.12772 3.0246 0
M  V30 3231 H 307.606 3.28229 1.92276 0
M  V30 3232 H 308.918 4.18884 2.70809 0
M  V30 3233 H 308.072 3.49488 4.95927 0
M  V30 3234 H 306.811 2.48601 4.19582 0
M  V30 3235 H 305.816 4.52552 3.12213 0
M  V30 3236 H 307.041 5.54705 3.91764 0
M  V30 3237 H 304.987 3.81097 5.33948 0
M  V30 3238 H 304.904 5.53202 5.1527 0
M  V30 3239 H 306.172 4.83376 6.11529 0
M  V30 3240 N 310.401 -0.613514 1.45168 0
M  V30 3241 C 311.678 -1.37263 1.39349 0
M  V30 3242 C 312.058 -2.11012 0.0610848 0
M  V30 3243 O 311.406 -2.07502 -0.956825 0
M  V30 3244 C 311.616 -2.3244 2.60332 0
M  V30 3245 C 312.964 -2.9523 3.05163 0
M  V30 3246 O 313.988 -2.42762 2.60663 0
M  V30 3247 O 312.847 -3.90454 3.82372 0
M  V30 3248 H 309.941 -0.615188 0.552696 0
M  V30 3249 H 312.487 -0.637097 1.57287 0
M  V30 3250 H 311.259 -1.77164 3.48896 0
M  V30 3251 H 310.882 -3.13383 2.44698 0
M  V30 3252 N 311.879 -1.3236 -0.855495 0
M  V30 3253 C 313.127 -1.22629 -1.60644 0
M  V30 3254 C 313.448 0.212136 -1.93843 0
M  V30 3255 O 312.718 1.13666 -1.59552 0
M  V30 3256 H 311.298 -0.450882 -0.595579 0
M  V30 3257 H 313.96 -1.65871 -1.02337 0
M  V30 3258 H 313.056 -1.80832 -2.54374 0
M  V30 3259 N 313.357 1.07166 -1.15556 0
M  V30 3260 C 314.587 1.83248 -0.954133 0
M  V30 3261 C 314.995 1.82449 0.500911 0
M  V30 3262 O 314.338 1.23575 1.35923 0
M  V30 3263 C 314.4 3.31393 -1.39351 0
M  V30 3264 C 314.064 3.5591 -2.86666 0
M  V30 3265 C 315.061 3.49695 -3.8472 0
M  V30 3266 C 312.746 3.83515 -3.24379 0
M  V30 3267 C 314.74 3.70737 -5.18491 0
M  V30 3268 C 312.427 4.04209 -4.58321 0
M  V30 3269 C 313.425 3.97815 -5.55186 0
M  V30 3270 O 313.113 4.17954 -6.86709 0
M  V30 3271 H 312.845 0.584941 -0.338851 0
M  V30 3272 H 315.399 1.36169 -1.53777 0
M  V30 3273 H 313.629 3.79292 -0.75329 0
M  V30 3274 H 315.318 3.88945 -1.16089 0
M  V30 3275 H 316.084 3.28368 -3.56931 0
M  V30 3276 H 311.963 3.87605 -2.49567 0
M  V30 3277 H 315.507 3.65663 -5.94085 0
M  V30 3278 H 311.404 4.25023 -4.85825 0
M  V30 3279 H 312.172 4.35291 -6.93155 0
M  V30 3280 N 314.835 0.952656 1.25548 0
M  V30 3281 C 316.075 0.614013 1.9496 0
M  V30 3282 C 316.439 -0.833215 1.72978 0
M  V30 3283 O 317.64 -1.28135 2.36294 0
M  V30 3284 C 315.911 0.960562 3.4425 0
M  V30 3285 S 317.47 0.734195 4.32614 0
M  V30 3286 H 314.288 0.225754 0.674208 0
M  V30 3287 H 316.89 1.22641 1.52248 0
M  V30 3288 H 315.594 2.01103 3.57751 0
M  V30 3289 H 315.125 0.338336 3.91942 0
M  V30 3290 H 317.14 -0.395995 4.94617 0
M  V30 3291 N 316.313 -1.40141 0.720998 0
M  V30 3292 C 317.26 -2.30688 0.071919 0
M  V30 3293 C 318.23 -1.48476 -0.744584 0
M  V30 3294 O 319.415 -1.77201 -0.707423 0
M  V30 3295 C 316.555 -3.34724 -0.839855 0
M  V30 3296 C 315.668 -4.31998 -0.0122438 0
M  V30 3297 C 314.803 -5.23102 -0.923995 0
M  V30 3298 C 313.842 -6.12033 -0.0907969 0
M  V30 3299 N 312.979 -6.95537 -0.957718 0
M  V30 3300 H 317.819 -2.85628 0.849755 0
M  V30 3301 H 315.356 -1.40653 0.430726 0
M  V30 3302 H 317.314 -3.93618 -1.38279 0
M  V30 3303 H 315.944 -2.81274 -1.58381 0
M  V30 3304 H 314.996 -3.74841 0.64794 0
M  V30 3305 H 316.308 -4.94772 0.632595 0
M  V30 3306 H 315.462 -5.86953 -1.53527 0
M  V30 3307 H 314.201 -4.60615 -1.60264 0
M  V30 3308 H 313.206 -5.47207 0.533377 0
M  V30 3309 H 314.431 -6.76581 0.584428 0
M  V30 3310 H 312.377 -6.35633 -1.62192 0
M  V30 3311 H 312.294 -7.55099 -0.36904 0
M  V30 3312 H 313.562 -7.63832 -1.555 0
M  V30 3313 N 317.792 -0.46758 -1.50504 0
M  V30 3314 C 319.039 0.0886219 -2.02306 0
M  V30 3315 C 319.367 1.40037 -1.34981 0
M  V30 3316 O 318.622 1.90136 -0.463318 0
M  V30 3317 C 318.921 0.323995 -3.55928 0
M  V30 3318 C 318.587 -0.905618 -4.41712 0
M  V30 3319 C 317.249 -1.24275 -4.64875 0
M  V30 3320 C 319.601 -1.72448 -4.91845 0
M  V30 3321 C 316.929 -2.39888 -5.35417 0
M  V30 3322 C 319.281 -2.87185 -5.63656 0
M  V30 3323 C 317.945 -3.21317 -5.85074 0
M  V30 3324 H 317.215 0.0324291 -0.74029 0
M  V30 3325 H 319.862 -0.620945 -1.81153 0
M  V30 3326 H 318.167 1.11577 -3.75577 0
M  V30 3327 H 319.864 0.76826 -3.93572 0
M  V30 3328 H 316.454 -0.632956 -4.239 0
M  V30 3329 H 320.638 -1.4772 -4.73806 0
M  V30 3330 H 315.894 -2.66611 -5.50208 0
M  V30 3331 H 320.068 -3.50985 -6.01484 0
M  V30 3332 H 317.695 -4.1101 -6.39511 0
M  V30 3333 N 319.27 1.56325 -0.20005 0
M  V30 3334 C 320.202 2.16555 0.750771 0
M  V30 3335 C 321.215 1.12871 1.1732 0
M  V30 3336 O 322.404 1.39943 1.10807 0
M  V30 3337 C 319.504 2.71684 2.02586 0
M  V30 3338 C 318.677 4.00321 1.76244 0
M  V30 3339 C 317.736 4.40227 2.88248 0
M  V30 3340 O 316.762 5.07552 2.57642 0
M  V30 3341 N 317.964 4.04138 4.16717 0
M  V30 3342 H 320.729 2.98772 0.235685 0
M  V30 3343 H 318.29 1.6189 -0.0182594 0
M  V30 3344 H 320.282 2.95363 2.76664 0
M  V30 3345 H 318.852 1.93893 2.45202 0
M  V30 3346 H 318.072 3.84723 0.85919 0
M  V30 3347 H 319.36 4.84279 1.56048 0
M  V30 3348 H 318.758 3.49993 4.44434 0
M  V30 3349 H 317.315 4.32756 4.87407 0
M  V30 3350 N 320.748 -0.0735177 1.57428 0
M  V30 3351 C 322.159 -0.625551 1.75908 0
M  V30 3352 C 322.51 -1.78 0.825261 0
M  V30 3353 O 321.635 -2.16398 0.00893964 0
M  V30 3354 C 322.23 -1.14155 3.18989 0
M  V30 3355 C 320.789 -1.63946 3.38819 0
M  V30 3356 C 319.936 -0.558151 2.71625 0
M  V30 3357 H 322.887 0.152647 1.57964 0
M  V30 3358 H 322.908 -2.0104 3.23053 0
M  V30 3359 H 322.42 -0.301116 3.8693 0
M  V30 3360 H 320.521 -2.50321 2.7599 0
M  V30 3361 H 320.634 -1.71759 4.47253 0
M  V30 3362 H 318.998 -1.00278 2.34129 0
M  V30 3363 H 319.781 0.272071 3.4222 0
M  V30 3364 N 322.226 -1.5378 -0.344866 0
M  V30 3365 C 323.474 -1.70625 -1.08311 0
M  V30 3366 C 323.795 -0.471447 -1.89215 0
M  V30 3367 O 323.065 0.514616 -1.8902 0
M  V30 3368 H 321.645 -0.629058 -0.402859 0
M  V30 3369 H 324.307 -1.9103 -0.386459 0
M  V30 3370 H 323.403 -2.57656 -1.76124 0
M  V30 3371 N 323.704 0.605807 -1.45491 0
M  V30 3372 C 324.651 1.7164 -1.54299 0
M  V30 3373 C 325.621 1.61486 -0.388761 0
M  V30 3374 O 326.806 1.81039 -0.602445 0
M  V30 3375 C 323.946 3.09953 -1.51734 0
M  V30 3376 C 323.059 3.309 -2.77721 0
M  V30 3377 C 322.194 4.59329 -2.66816 0
M  V30 3378 C 321.233 4.7354 -3.87848 0
M  V30 3379 N 320.37 5.9327 -3.75467 0
M  V30 3380 H 325.21 1.63449 -2.49176 0
M  V30 3381 H 322.747 0.796957 -1.23641 0
M  V30 3382 H 324.705 3.89977 -1.48235 0
M  V30 3383 H 323.335 3.17098 -0.604068 0
M  V30 3384 H 322.387 2.44639 -2.913 0
M  V30 3385 H 323.699 3.37274 -3.67488 0
M  V30 3386 H 322.853 5.4755 -2.61292 0
M  V30 3387 H 321.592 4.55355 -1.74651 0
M  V30 3388 H 320.597 3.83741 -3.93729 0
M  V30 3389 H 321.822 4.79309 -4.81082 0
M  V30 3390 H 319.768 5.90338 -2.86072 0
M  V30 3391 H 319.685 6.00811 -4.5887 0
M  V30 3392 H 320.953 6.83984 -3.73879 0
M  V30 3393 N 325.182 1.32811 0.848464 0
M  V30 3394 C 326.145 1.22194 1.9391 0
M  V30 3395 C 327.145 0.143404 1.60159 0
M  V30 3396 O 328.335 0.394253 1.6968 0
M  V30 3397 C 325.467 0.88067 3.29328 0
M  V30 3398 H 326.66 2.19127 2.04752 0
M  V30 3399 H 324.213 1.16731 1.0394 0
M  V30 3400 H 324.948 -0.0865776 3.24184 0
M  V30 3401 H 324.733 1.66052 3.55203 0
M  V30 3402 H 326.223 0.830871 4.09251 0
M  V30 3403 N 326.66 -1.06551 1.16123 0
M  V30 3404 C 327.909 -1.78687 0.935622 0
M  V30 3405 C 328.222 -1.88056 -0.538001 0
M  V30 3406 O 329.428 -2.56794 -0.88143 0
M  V30 3407 C 327.884 -3.21143 1.62466 0
M  V30 3408 C 327.492 -3.19949 3.13587 0
M  V30 3409 C 329.236 -3.9783 1.48092 0
M  V30 3410 C 327.143 -4.57108 3.75241 0
M  V30 3411 H 326.073 -0.669712 0.346412 0
M  V30 3412 H 328.724 -1.19534 1.39226 0
M  V30 3413 H 327.106 -3.80539 1.09572 0
M  V30 3414 H 328.28 -2.70151 3.73303 0
M  V30 3415 H 326.595 -2.5676 3.27816 0
M  V30 3416 H 329.192 -4.99217 1.91538 0
M  V30 3417 H 329.535 -4.14078 0.429507 0
M  V30 3418 H 330.068 -3.4495 1.98127 0
M  V30 3419 H 326.807 -4.46065 4.80319 0
M  V30 3420 H 326.327 -5.07111 3.20309 0
M  V30 3421 H 328.006 -5.26069 3.76644 0
M  V30 3422 N 328.138 -0.959301 -1.25041 0
M  V30 3423 C 329.386 -0.615393 -1.92503 0
M  V30 3424 C 329.707 0.850969 -1.75452 0
M  V30 3425 O 328.977 1.60658 -1.12098 0
M  V30 3426 H 327.557 -0.224613 -0.712431 0
M  V30 3427 H 330.219 -1.21855 -1.5211 0
M  V30 3428 H 329.315 -0.848738 -3.00338 0
M  V30 3429 N 329.616 1.39756 -0.72842 0
M  V30 3430 C 330.863 2.00645 -0.273487 0
M  V30 3431 C 331.191 1.57786 1.13727 0
M  V30 3432 O 330.446 0.794886 1.7883 0
M  V30 3433 C 330.745 3.56002 -0.315776 0
M  V30 3434 C 330.411 4.18489 -1.67863 0
M  V30 3435 C 329.073 4.3527 -2.05166 0
M  V30 3436 C 331.425 4.53219 -2.57375 0
M  V30 3437 C 328.753 4.84069 -3.31503 0
M  V30 3438 C 331.105 5.03423 -3.83077 0
M  V30 3439 C 329.769 5.18413 -4.20481 0
M  V30 3440 H 329.039 0.734211 -0.100076 0
M  V30 3441 H 331.686 1.6718 -0.933972 0
M  V30 3442 H 329.991 3.89452 0.428285 0
M  V30 3443 H 331.688 4.00963 0.0542575 0
M  V30 3444 H 328.278 4.05824 -1.37858 0
M  V30 3445 H 332.462 4.39878 -2.29827 0
M  V30 3446 H 327.718 4.93859 -3.60435 0
M  V30 3447 H 331.892 5.2927 -4.52599 0
M  V30 3448 H 329.519 5.55987 -5.18443 0
M  V30 3449 N 331.094 0.475555 1.50254 0
M  V30 3450 C 332.34 -0.0780073 2.0265 0
M  V30 3451 C 332.673 -1.38968 1.35652 0
M  V30 3452 O 331.948 -1.8839 0.483691 0
M  V30 3453 C 332.231 -0.257161 3.59181 0
M  V30 3454 C 332.084 1.07585 4.36744 0
M  V30 3455 C 333.403 -1.00965 4.28362 0
M  V30 3456 H 330.522 -0.0268758 0.73651 0
M  V30 3457 H 333.164 0.622015 1.7953 0
M  V30 3458 H 331.314 -0.853412 3.79011 0
M  V30 3459 H 332.986 1.70902 4.28474 0
M  V30 3460 H 331.229 1.6714 4.00308 0
M  V30 3461 H 331.9 0.904088 5.44546 0
M  V30 3462 H 334.376 -0.504214 4.13034 0
M  V30 3463 H 333.252 -1.10381 5.37687 0
M  V30 3464 H 333.513 -2.04731 3.91839 0
M  V30 3465 N 332.573 -1.56217 0.208337 0
M  V30 3466 C 333.52 -2.19699 -0.707192 0
M  V30 3467 C 334.49 -1.14836 -1.20008 0
M  V30 3468 O 335.675 -1.4314 -1.26157 0
M  V30 3469 C 332.815 -2.87061 -1.91546 0
M  V30 3470 C 331.928 -4.06483 -1.46271 0
M  V30 3471 C 331.063 -4.61665 -2.62752 0
M  V30 3472 C 330.102 -5.73417 -2.14147 0
M  V30 3473 N 329.239 -6.22948 -3.23853 0
M  V30 3474 H 334.079 -2.97575 -0.159111 0
M  V30 3475 H 331.616 -1.46948 -0.0667874 0
M  V30 3476 H 333.574 -3.24294 -2.62468 0
M  V30 3477 H 332.204 -2.11725 -2.43664 0
M  V30 3478 H 331.256 -3.74825 -0.648886 0
M  V30 3479 H 332.568 -4.87271 -1.06622 0
M  V30 3480 H 331.722 -5.01272 -3.41776 0
M  V30 3481 H 330.461 -3.80013 -3.05682 0
M  V30 3482 H 329.466 -5.33326 -1.33581 0
M  V30 3483 H 330.691 -6.56897 -1.72232 0
M  V30 3484 H 328.637 -5.44213 -3.6629 0
M  V30 3485 H 328.554 -6.98823 -2.88414 0
M  V30 3486 H 329.822 -6.6721 -4.03052 0
M  V30 3487 N 334.051 0.0651679 -1.57465 0
M  V30 3488 C 335.328 0.79644 -1.78651 0
M  V30 3489 C 335.708 1.95454 -0.797566 0
M  V30 3490 O 335.056 2.27882 0.167946 0
M  V30 3491 C 335.266 1.26322 -3.25337 0
M  V30 3492 C 336.614 1.6939 -3.89348 0
M  V30 3493 O 337.638 1.35872 -3.29268 0
M  V30 3494 O 336.497 2.31471 -4.95059 0
M  V30 3495 H 333.591 0.382157 -0.733407 0
M  V30 3496 H 336.137 0.0447311 -1.69641 0
M  V30 3497 H 334.909 0.434859 -3.88876 0
M  V30 3498 H 334.532 2.07604 -3.39096 0
M  V30 3499 N 335.529 1.53961 0.336706 0
M  V30 3500 C 336.775 1.7179 1.07777 0
M  V30 3501 C 337.108 0.483263 1.88091 0
M  V30 3502 O 336.383 -0.519747 1.87427 0
M  V30 3503 C 336.666 2.98558 2.01334 0
M  V30 3504 C 336.519 4.32245 1.24437 0
M  V30 3505 C 337.838 3.21023 3.01052 0
M  V30 3506 H 334.957 0.625089 0.390426 0
M  V30 3507 H 337.599 1.86641 0.35567 0
M  V30 3508 H 335.749 2.86028 2.62908 0
M  V30 3509 H 337.421 4.56637 0.654243 0
M  V30 3510 H 335.664 4.30344 0.546458 0
M  V30 3511 H 336.335 5.17137 1.93063 0
M  V30 3512 H 338.811 3.32929 2.49595 0
M  V30 3513 H 337.687 4.11104 3.6371 0
M  V30 3514 H 337.948 2.37637 3.72802 0
M  V30 3515 N 337.007 -0.598083 1.45811 0
M  V30 3516 C 337.97 -1.69018 1.54808 0
M  V30 3517 C 338.97 -1.55037 0.426652 0
M  V30 3518 O 340.16 -1.59932 0.690456 0
M  V30 3519 C 337.292 -3.0835 1.45371 0
M  V30 3520 H 338.485 -1.62403 2.52121 0
M  V30 3521 H 336.038 -0.814626 1.33392 0
M  V30 3522 H 336.773 -3.20534 0.492793 0
M  V30 3523 H 336.558 -3.19907 2.26721 0
M  V30 3524 H 338.048 -3.8788 1.54721 0
M  V30 3525 N 338.485 -1.33259 -0.841409 0
M  V30 3526 C 339.433 -1.23279 -1.97244 0
M  V30 3527 C 340.427 -0.134706 -1.68864 0
M  V30 3528 O 341.633 -0.298501 -1.77508 0
M  V30 3529 H 338.008 -0.382497 -0.647457 0
M  V30 3530 H 339.979 -2.18906 -2.02787 0
M  V30 3531 C 338.728 -0.986268 -3.33419 0
M  V30 3532 H 338.051 -1.82347 -3.55794 0
M  V30 3533 H 339.491 -0.956728 -4.13065 0
M  V30 3534 C 337.95 0.310842 -3.35463 0
M  V30 3535 O 338.48 1.31838 -3.79449 0
M  V30 3536 N 336.686 0.337485 -2.88634 0
M  V30 3537 H 336.233 -0.482967 -2.53032 0
M  V30 3538 H 336.191 1.20518 -2.90384 0
M  V30 3539 N 339.963 1.05934 -1.16686 0
M  V30 3540 C 341.212 1.78188 -0.945085 0
M  V30 3541 C 341.525 1.88338 0.528021 0
M  V30 3542 O 342.731 2.57258 0.867799 0
M  V30 3543 C 341.187 3.20277 -1.64167 0
M  V30 3544 C 340.795 3.18281 -3.15279 0
M  V30 3545 C 342.539 3.97039 -1.502 0
M  V30 3546 C 340.446 4.55112 -3.7766 0
M  V30 3547 H 339.376 0.667866 -0.349959 0
M  V30 3548 H 342.027 1.18794 -1.39858 0
M  V30 3549 H 340.409 3.79952 -1.11589 0
M  V30 3550 H 341.583 2.68167 -3.74731 0
M  V30 3551 H 339.898 2.55018 -3.29173 0
M  V30 3552 H 342.495 4.98194 -1.94183 0
M  V30 3553 H 342.838 4.13845 -0.451461 0
M  V30 3554 H 343.371 3.43894 -1.99954 0
M  V30 3555 H 340.11 4.43512 -4.82677 0
M  V30 3556 H 339.63 5.05406 -3.22994 0
M  V30 3557 H 341.309 5.24064 -3.79428 0
M  V30 3558 N 341.441 0.965919 1.2453 0
M  V30 3559 C 342.669 0.644385 1.96609 0
M  V30 3560 C 343.084 -0.785823 1.71669 0
M  V30 3561 O 342.441 -1.52703 0.999399 0
M  V30 3562 C 342.492 0.907375 3.49927 0
M  V30 3563 O 342.213 2.28136 3.74013 0
M  V30 3564 C 343.714 0.599784 4.39224 0
M  V30 3565 H 340.934 0.240588 0.626385 0
M  V30 3566 H 343.478 1.29337 1.58405 0
M  V30 3567 H 341.633 0.304631 3.862 0
M  V30 3568 H 342.047 2.36002 4.68405 0
M  V30 3569 H 343.521 0.834263 5.45659 0
M  V30 3570 H 343.998 -0.465921 4.36722 0
M  V30 3571 H 344.604 1.18235 4.08535 0
M  V30 3572 N 342.919 -1.39368 0.735821 0
M  V30 3573 C 344.168 -1.99733 0.281004 0
M  V30 3574 C 344.481 -1.59055 -1.13846 0
M  V30 3575 O 345.687 -2.12262 -1.69284 0
M  V30 3576 C 344.143 -3.57057 0.451462 0
M  V30 3577 C 343.751 -4.06697 1.87886 0
M  V30 3578 C 345.495 -4.2446 0.0584616 0
M  V30 3579 C 343.402 -5.56598 1.99883 0
M  V30 3580 H 342.332 -0.747163 0.101311 0
M  V30 3581 H 344.983 -1.59357 0.909819 0
M  V30 3582 H 343.365 -3.95234 -0.246263 0
M  V30 3583 H 344.539 -3.79853 2.60861 0
M  V30 3584 H 342.854 -3.5196 2.22515 0
M  V30 3585 H 345.451 -5.34549 0.127099 0
M  V30 3586 H 345.794 -4.04444 -0.986433 0
M  V30 3587 H 346.327 -3.9146 0.707374 0
M  V30 3588 H 343.066 -5.81494 3.02564 0
M  V30 3589 H 342.586 -5.85242 1.31346 0
M  V30 3590 H 344.265 -6.22022 1.78039 0
M  V30 3591 N 344.397 -0.483516 -1.5 0
M  V30 3592 C 345.627 0.0643896 -2.065 0
M  V30 3593 C 346.035 1.32949 -1.34615 0
M  V30 3594 O 345.378 1.79003 -0.412756 0
M  V30 3595 C 345.44 0.405983 -3.572 0
M  V30 3596 C 345.104 -0.758875 -4.50655 0
M  V30 3597 C 346.101 -1.64445 -4.93208 0
M  V30 3598 C 343.786 -0.952725 -4.93182 0
M  V30 3599 C 345.78 -2.70818 -5.77006 0
M  V30 3600 C 343.467 -2.01966 -5.76761 0
M  V30 3601 C 344.465 -2.89574 -6.18576 0
M  V30 3602 O 344.153 -3.94429 -7.00486 0
M  V30 3603 H 343.885 -0.00934786 -0.675935 0
M  V30 3604 H 346.439 -0.674959 -1.93993 0
M  V30 3605 H 344.669 1.19869 -3.67652 0
M  V30 3606 H 346.358 0.890433 -3.96013 0
M  V30 3607 H 347.124 -1.50643 -4.61012 0
M  V30 3608 H 343.003 -0.280247 -4.60147 0
M  V30 3609 H 346.547 -3.3923 -6.09565 0
M  V30 3610 H 342.444 -2.1577 -6.0837 0
M  V30 3611 H 343.212 -3.91568 -7.1876 0
M  V30 3612 N 345.875 1.56104 -0.216619 0
M  V30 3613 C 347.152 1.89988 0.465165 0
M  V30 3614 C 347.532 1.13326 1.78102 0
M  V30 3615 O 346.88 0.241033 2.27225 0
M  V30 3616 C 347.09 3.42646 0.662939 0
M  V30 3617 C 348.438 4.13311 0.972602 0
M  V30 3618 O 349.462 3.48217 0.749901 0
M  V30 3619 O 348.321 5.28396 1.39499 0
M  V30 3620 H 345.415 0.78979 0.245276 0
M  V30 3621 H 347.961 1.67721 -0.258436 0
M  V30 3622 H 346.733 3.90399 -0.26543 0
M  V30 3623 H 346.356 3.70677 1.43821 0
M  V30 3624 N 347.353 -0.0568162 1.57498 0
M  V30 3625 C 348.263 -1.08346 2.08083 0
M  V30 3626 C 349.279 -1.41439 1.01346 0
M  V30 3627 O 350.455 -1.51316 1.32912 0
M  V30 3628 C 347.52 -2.37352 2.52715 0
M  V30 3629 C 346.581 -2.11093 3.73816 0
M  V30 3630 C 345.814 -3.33949 4.1631 0
M  V30 3631 O 346.037 -4.43622 3.58547 0
M  V30 3632 O 344.971 -3.21279 5.08983 0
M  V30 3633 H 348.797 -0.683667 2.95905 0
M  V30 3634 H 346.382 -0.271965 1.46904 0
M  V30 3635 H 348.264 -3.13246 2.81877 0
M  V30 3636 H 346.939 -2.76681 1.68016 0
M  V30 3637 H 345.846 -1.32856 3.49714 0
M  V30 3638 H 347.179 -1.76637 4.59413 0
M  V30 3639 N 348.832 -1.54138 -0.328536 0
M  V30 3640 C 349.742 -1.86192 -1.42723 0
M  V30 3641 C 350.758 -0.753382 -1.56844 0
M  V30 3642 O 351.934 -1.04718 -1.72035 0
M  V30 3643 C 348.999 -2.07824 -2.77507 0
M  V30 3644 C 348.06 -3.31641 -2.72603 0
M  V30 3645 C 347.293 -3.52232 -4.00959 0
M  V30 3646 O 347.516 -2.7636 -4.9898 0
M  V30 3647 O 346.45 -4.45699 -4.0452 0
M  V30 3648 H 350.276 -2.79608 -1.18547 0
M  V30 3649 H 347.861 -1.3998 -0.522104 0
M  V30 3650 H 349.743 -2.23411 -3.57303 0
M  V30 3651 H 348.418 -1.17596 -3.01584 0
M  V30 3652 H 347.325 -3.21444 -1.91376 0
M  V30 3653 H 348.658 -4.2191 -2.53481 0
M  V30 3654 N 350.31 0.590341 -1.46126 0
M  V30 3655 C 351.273 1.68194 -1.55703 0
M  V30 3656 C 352.273 1.54808 -0.434868 0
M  V30 3657 O 353.463 1.59564 -0.698928 0
M  V30 3658 C 350.595 3.07575 -1.47005 0
M  V30 3659 H 351.788 1.61064 -2.52979 0
M  V30 3660 H 349.341 0.807541 -1.33823 0
M  V30 3661 H 350.076 3.20268 -0.509785 0
M  V30 3662 H 349.861 3.187 -2.28414 0
M  V30 3663 H 351.351 3.87055 -1.56776 0
M  V30 3664 N 351.788 1.33704 0.83433 0
M  V30 3665 C 352.721 1.18675 1.94914 0
M  V30 3666 C 353.699 0.0811145 1.62398 0
M  V30 3667 O 354.883 0.244186 1.86912 0
M  V30 3668 C 352.01 0.821231 3.28593 0
M  V30 3669 C 351.056 1.93501 3.80079 0
M  V30 3670 S 351.889 3.54671 4.01209 0
M  V30 3671 C 353.045 3.20136 5.37833 0
M  V30 3672 H 353.278 2.13043 2.07364 0
M  V30 3673 H 350.811 1.18598 0.988624 0
M  V30 3674 H 352.769 0.617123 4.05835 0
M  V30 3675 H 351.43 -0.103927 3.13928 0
M  V30 3676 H 350.623 1.63273 4.76821 0
M  V30 3677 H 350.225 2.09601 3.09747 0
M  V30 3678 H 352.517 2.71242 6.20833 0
M  V30 3679 H 353.46 4.15975 5.73036 0
M  V30 3680 H 353.868 2.56613 5.02802 0
M  V30 3681 N 353.266 -1.05314 1.17247 0
M  V30 3682 C 354.512 -1.78557 0.961513 0
M  V30 3683 C 354.845 -1.87419 -0.508697 0
M  V30 3684 O 354.12 -1.37307 -1.37757 0
M  V30 3685 C 354.403 -3.22514 1.60176 0
M  V30 3686 C 354.256 -3.21673 3.14399 0
M  V30 3687 C 355.575 -4.20318 1.30463 0
M  V30 3688 H 352.694 -0.6482 0.350723 0
M  V30 3689 H 355.336 -1.23102 1.44727 0
M  V30 3690 H 353.486 -3.69867 1.18871 0
M  V30 3691 H 355.158 -2.82405 3.64753 0
M  V30 3692 H 353.401 -2.60048 3.47214 0
M  V30 3693 H 354.072 -4.23271 3.54324 0
M  V30 3694 H 356.548 -3.81454 1.66229 0
M  V30 3695 H 355.424 -5.19289 1.77848 0
M  V30 3696 H 355.685 -4.41526 0.22521 0
M  V30 3697 N 354.744 -0.972509 -1.24016 0
M  V30 3698 C 355.654 -0.5143 -2.28893 0
M  V30 3699 C 356.67 0.427078 -1.68677 0
M  V30 3700 O 357.846 0.298939 -1.99169 0
M  V30 3701 C 354.911 0.183598 -3.46214 0
M  V30 3702 C 353.972 -0.798202 -4.21814 0
M  V30 3703 C 353.205 -0.133514 -5.33533 0
M  V30 3704 O 353.428 1.07714 -5.60137 0
M  V30 3705 O 352.362 -0.828103 -5.96176 0
M  V30 3706 H 356.188 -1.38629 -2.70214 0
M  V30 3707 H 353.773 -0.739769 -1.29799 0
M  V30 3708 H 355.655 0.575433 -4.17453 0
M  V30 3709 H 354.33 1.03048 -3.0686 0
M  V30 3710 H 353.237 -1.24059 -3.52931 0
M  V30 3711 H 354.57 -1.61364 -4.64997 0
M  V30 3712 N 356.222 1.38976 -0.743202 0
M  V30 3713 C 357.185 2.28901 -0.117014 0
M  V30 3714 C 358.185 1.46698 0.658503 0
M  V30 3715 O 359.375 1.67274 0.486305 0
M  V30 3716 C 356.507 3.30309 0.84315 0
M  V30 3717 H 357.7 2.8578 -0.909373 0
M  V30 3718 H 355.253 1.47761 -0.509547 0
M  V30 3719 H 355.988 2.785 1.66157 0
M  V30 3720 H 355.773 3.91029 0.289594 0
M  V30 3721 H 357.263 3.97577 1.2776 0
M  V30 3722 N 357.7 0.491464 1.49741 0
M  V30 3723 C 358.946 -0.0565092 2.02721 0
M  V30 3724 C 359.279 -1.37522 1.37118 0
M  V30 3725 O 358.554 -1.87866 0.503645 0
M  V30 3726 C 358.837 -0.219051 3.59433 0
M  V30 3727 C 358.69 1.12211 4.35579 0
M  V30 3728 C 360.009 -0.964157 4.29409 0
M  V30 3729 H 357.128 -0.0190627 0.736753 0
M  V30 3730 H 359.77 0.641021 1.7886 0
M  V30 3731 H 357.92 -0.813165 3.79895 0
M  V30 3732 H 359.592 1.75437 4.26637 0
M  V30 3733 H 357.835 1.71377 3.98513 0
M  V30 3734 H 358.506 0.961794 5.43556 0
M  V30 3735 H 360.982 -0.460378 4.13545 0
M  V30 3736 H 359.858 -1.04671 5.38828 0
M  V30 3737 H 360.119 -2.00563 3.93988 0
M  V30 3738 N 359.178 -1.55987 0.224894 0
M  V30 3739 C 360.141 -2.19178 -0.670348 0
M  V30 3740 C 361.141 -1.15461 -1.11917 0
M  V30 3741 O 362.331 -1.40675 -1.02743 0
M  V30 3742 C 359.463 -2.81777 -1.9187 0
M  V30 3743 H 360.656 -2.99662 -0.119364 0
M  V30 3744 H 358.209 -1.5628 -0.0247128 0
M  V30 3745 H 358.944 -2.05172 -2.51147 0
M  V30 3746 H 358.729 -3.57732 -1.60531 0
M  V30 3747 H 360.219 -3.30205 -2.55645 0
M  V30 3748 N 360.656 0.0484629 -1.57525 0
M  V30 3749 C 361.586 1.0549 -2.08313 0
M  V30 3750 C 362.567 1.38929 -0.981463 0
M  V30 3751 O 363.752 1.48151 -1.25558 0
M  V30 3752 C 360.882 2.36162 -2.54646 0
M  V30 3753 C 359.836 2.17016 -3.68901 0
M  V30 3754 C 359.162 3.53278 -4.01371 0
M  V30 3755 C 360.462 1.57219 -4.98076 0
M  V30 3756 H 362.156 0.632195 -2.92649 0
M  V30 3757 H 359.702 0.302654 -1.40784 0
M  V30 3758 H 361.655 3.06882 -2.88793 0
M  V30 3759 H 360.379 2.80456 -1.67368 0
M  V30 3760 H 359.038 1.48733 -3.35073 0
M  V30 3761 H 358.686 3.95185 -3.11188 0
M  V30 3762 H 358.386 3.41299 -4.78318 0
M  V30 3763 H 359.91 4.25391 -4.38035 0
M  V30 3764 H 361.324 2.17832 -5.30304 0
M  V30 3765 H 359.721 1.55871 -5.79503 0
M  V30 3766 H 360.791 0.535956 -4.81929 0
M  V30 3767 N 362.134 1.5431 0.320358 0
M  V30 3768 C 363.364 1.7638 1.07582 0
M  V30 3769 C 363.772 0.513944 1.82086 0
M  V30 3770 O 363.115 -0.525123 1.76035 0
M  V30 3771 C 363.177 2.9055 2.1171 0
M  V30 3772 C 362.841 4.2934 1.56575 0
M  V30 3773 C 363.838 5.10077 1.00586 0
M  V30 3774 C 361.523 4.75893 1.60722 0
M  V30 3775 C 363.517 6.35477 0.494756 0
M  V30 3776 C 361.204 6.0126 1.09224 0
M  V30 3777 C 362.202 6.80886 0.53696 0
M  V30 3778 O 361.89 8.03894 0.0297371 0
M  V30 3779 H 361.622 0.592369 0.325692 0
M  V30 3780 H 364.176 2.02019 0.37116 0
M  V30 3781 H 362.406 2.60489 2.85801 0
M  V30 3782 H 364.095 3.00373 2.73003 0
M  V30 3783 H 364.861 4.75265 0.966869 0
M  V30 3784 H 360.74 4.13957 2.02882 0
M  V30 3785 H 364.284 6.97574 0.0606842 0
M  V30 3786 H 360.181 6.35562 1.12831 0
M  V30 3787 H 360.949 8.18372 0.14486 0
M  V30 3788 N 363.613 -0.582584 1.46437 0
M  V30 3789 C 364.561 -1.71272 1.5738 0
M  V30 3790 C 365.555 -1.63524 0.44229 0
M  V30 3791 O 366.761 -1.69016 0.619166 0
M  V30 3792 H 363.136 -0.566273 0.494813 0
M  V30 3793 H 365.107 -1.59174 2.52401 0
M  V30 3794 C 363.856 -3.09658 1.58136 0
M  V30 3795 H 363.179 -3.16291 2.44541 0
M  V30 3796 H 364.619 -3.88494 1.69847 0
M  V30 3797 C 363.078 -3.3547 0.310026 0
M  V30 3798 O 363.608 -3.97199 -0.599683 0
M  V30 3799 N 361.814 -2.89925 0.197901 0
M  V30 3800 H 361.361 -2.39873 0.93909 0
M  V30 3801 H 361.319 -3.07568 -0.65185 0
M  V30 3802 N 365.091 -1.34144 -0.827227 0
M  V30 3803 C 366.502 -1.23557 -1.39966 0
M  V30 3804 C 366.853 0.140731 -1.95695 0
M  V30 3805 O 365.978 1.04087 -1.89723 0
M  V30 3806 C 366.573 -2.23708 -2.54441 0
M  V30 3807 C 365.132 -2.16924 -3.07605 0
M  V30 3808 C 364.279 -2.10549 -1.80456 0
M  V30 3809 H 367.23 -1.45573 -0.631991 0
M  V30 3810 H 367.251 -1.85157 -3.32411 0
M  V30 3811 H 366.763 -3.23866 -2.13851 0
M  V30 3812 H 364.864 -1.20107 -3.52711 0
M  V30 3813 H 364.977 -3.07988 -3.66988 0
M  V30 3814 H 363.341 -1.56203 -2.01178 0
M  V30 3815 H 364.124 -3.12535 -1.42046 0
M  V30 3816 N 366.569 1.04691 -1.17803 0
M  V30 3817 C 367.815 1.78045 -0.970969 0
M  V30 3818 C 368.148 1.87686 0.498751 0
M  V30 3819 O 367.423 1.38035 1.37027 0
M  V30 3820 C 367.706 3.2166 -1.61884 0
M  V30 3821 C 367.559 3.20001 -3.161 0
M  V30 3822 C 368.878 4.1962 -1.3269 0
M  V30 3823 H 365.997 0.64633 -0.354155 0
M  V30 3824 H 368.639 1.22333 -1.45378 0
M  V30 3825 H 366.789 3.69232 -1.20831 0
M  V30 3826 H 368.461 2.80467 -3.66246 0
M  V30 3827 H 366.704 2.58203 -3.48588 0
M  V30 3828 H 367.375 4.21386 -3.56564 0
M  V30 3829 H 369.851 3.80567 -1.68249 0
M  V30 3830 H 368.727 5.18339 -1.80599 0
M  V30 3831 H 368.988 4.414 -0.248622 0
M  V30 3832 N 368.047 0.979072 1.23499 0
M  V30 3833 C 369.272 0.664845 1.96455 0
M  V30 3834 C 369.697 -0.761287 1.72006 0
M  V30 3835 O 369.055 -1.51837 0.990713 0
M  V30 3836 C 369.103 0.959479 3.47601 0
M  V30 3837 O 368.207 0.0508168 4.12369 0
M  V30 3838 H 367.548 0.250185 0.615064 0
M  V30 3839 H 370.078 1.31231 1.5697 0
M  V30 3840 H 370.088 0.895642 3.98048 0
M  V30 3841 H 368.763 1.99876 3.64723 0
M  V30 3842 H 367.34 0.16895 3.72517 0
M  V30 3843 N 369.525 -1.3858 0.750561 0
M  V30 3844 C 370.772 -2.00184 0.305373 0
M  V30 3845 C 371.1 -1.59575 -1.11203 0
M  V30 3846 O 370.355 -0.823236 -1.77542 0
M  V30 3847 C 370.654 -3.55455 0.372373 0
M  V30 3848 C 370.32 -4.15765 1.745 0
M  V30 3849 C 368.982 -4.31951 2.12065 0
M  V30 3850 C 371.334 -4.49067 2.64553 0
M  V30 3851 C 368.662 -4.78734 3.39162 0
M  V30 3852 C 371.014 -4.97265 3.91038 0
M  V30 3853 C 369.678 -5.11658 4.28676 0
M  V30 3854 H 368.948 -0.732526 0.111744 0
M  V30 3855 H 371.595 -1.65673 0.960451 0
M  V30 3856 H 369.9 -3.90084 -0.366272 0
M  V30 3857 H 371.597 -4.00999 0.00953918 0
M  V30 3858 H 368.187 -4.03579 1.44297 0
M  V30 3859 H 372.371 -4.36166 2.36796 0
M  V30 3860 H 367.627 -4.88062 3.68246 0
M  V30 3861 H 371.801 -5.22003 4.60962 0
M  V30 3862 H 369.428 -5.47668 5.27222 0
M  V30 3863 N 371.003 -0.499398 -1.49478 0
M  V30 3864 C 371.966 0.268838 -2.27618 0
M  V30 3865 C 372.966 0.895383 -1.33565 0
M  V30 3866 O 374.156 0.760164 -1.56739 0
M  V30 3867 C 371.288 1.38559 -3.11471 0
M  V30 3868 H 372.481 -0.416812 -2.96989 0
M  V30 3869 H 370.034 -0.254313 -1.54217 0
M  V30 3870 H 370.769 2.10544 -2.46661 0
M  V30 3871 H 370.554 0.941797 -3.80621 0
M  V30 3872 H 372.044 1.92678 -3.70493 0
M  V30 3873 N 372.481 1.55866 -0.233164 0
M  V30 3874 C 373.728 1.98603 0.395374 0
M  V30 3875 C 374.056 1.12105 1.58942 0
M  V30 3876 O 373.311 0.168656 1.94972 0
M  V30 3877 C 373.61 3.46856 0.861724 0
M  V30 3878 C 373.276 4.50348 -0.223066 0
M  V30 3879 C 371.938 4.78371 -0.521038 0
M  V30 3880 C 374.29 5.12355 -0.956124 0
M  V30 3881 C 371.618 5.6568 -1.55638 0
M  V30 3882 C 373.97 6.00786 -1.98089 0
M  V30 3883 C 372.634 6.27148 -2.28565 0
M  V30 3884 H 371.904 0.726739 0.144677 0
M  V30 3885 H 374.551 1.88491 -0.338114 0
M  V30 3886 H 372.856 3.5423 1.67418 0
M  V30 3887 H 374.553 3.77302 1.35809 0
M  V30 3888 H 371.143 4.28596 0.0193234 0
M  V30 3889 H 375.327 4.90765 -0.739166 0
M  V30 3890 H 370.583 5.84365 -1.798 0
M  V30 3891 H 374.757 6.4788 -2.55391 0
M  V30 3892 H 372.384 6.94597 -3.08932 0
M  V30 3893 N 373.959 -0.0401083 1.57549 0
M  V30 3894 C 374.869 -1.06133 2.0922 0
M  V30 3895 C 375.885 -1.40356 1.0284 0
M  V30 3896 O 377.061 -1.49897 1.34509 0
M  V30 3897 C 374.126 -2.34658 2.55218 0
M  V30 3898 C 373.187 -2.07117 3.76033 0
M  V30 3899 C 372.42 -3.29514 4.19829 0
M  V30 3900 O 372.643 -4.39794 3.63232 0
M  V30 3901 O 371.577 -3.15863 5.12362 0
M  V30 3902 H 375.403 -0.652244 2.96613 0
M  V30 3903 H 372.988 -0.256368 1.47184 0
M  V30 3904 H 374.87 -3.10239 2.85184 0
M  V30 3905 H 373.545 -2.74883 1.70941 0
M  V30 3906 H 372.452 -1.29139 3.51104 0
M  V30 3907 H 373.785 -1.71754 4.61261 0
M  V30 3908 N 375.437 -1.54477 -0.31217 0
M  V30 3909 C 376.683 -1.73483 -1.0503 0
M  V30 3910 C 377.016 -0.513125 -1.87298 0
M  V30 3911 O 376.291 0.489864 -1.8823 0
M  V30 3912 C 376.574 -3.01723 -1.96558 0
M  V30 3913 C 376.427 -4.3417 -1.17545 0
M  V30 3914 C 377.746 -3.25772 -2.95907 0
M  V30 3915 H 374.865 -0.631222 -0.380432 0
M  V30 3916 H 377.507 -1.87184 -0.325932 0
M  V30 3917 H 375.657 -2.90174 -2.58324 0
M  V30 3918 H 377.329 -4.5762 -0.581513 0
M  V30 3919 H 375.572 -4.31159 -0.477925 0
M  V30 3920 H 376.243 -5.20143 -1.84811 0
M  V30 3921 H 378.719 -3.36857 -2.44267 0
M  V30 3922 H 377.595 -4.16838 -3.57123 0
M  V30 3923 H 377.856 -2.43537 -3.68974 0
M  V30 3924 N 376.915 0.57481 -1.46744 0
M  V30 3925 C 378.143 1.35856 -1.56047 0
M  V30 3926 C 378.558 1.87691 -0.204365 0
M  V30 3927 O 377.915 1.64049 0.79963 0
M  V30 3928 C 377.966 2.54066 -2.57163 0
M  V30 3929 O 377.687 2.04377 -3.87507 0
M  V30 3930 C 379.188 3.46514 -2.76483 0
M  V30 3931 H 376.408 0.414754 -0.527466 0
M  V30 3932 H 378.952 0.698035 -1.92218 0
M  V30 3933 H 377.107 3.16092 -2.23974 0
M  V30 3934 H 377.521 2.81419 -4.4261 0
M  V30 3935 H 378.995 4.25919 -3.51137 0
M  V30 3936 H 379.472 3.98951 -1.83671 0
M  V30 3937 H 380.078 2.90318 -3.10799 0
M  V30 3938 N 378.394 1.34581 0.820102 0
M  V30 3939 C 379.326 1.22236 1.93884 0
M  V30 3940 C 380.339 0.148776 1.62119 0
M  V30 3941 O 381.528 0.400877 1.7394 0
M  V30 3942 C 378.628 0.856542 3.27897 0
M  V30 3943 C 377.801 2.02569 3.87666 0
M  V30 3944 C 376.86 1.63782 5.00062 0
M  V30 3945 O 375.886 2.35477 5.18208 0
M  V30 3946 N 377.088 0.553611 5.77854 0
M  V30 3947 H 379.853 2.18615 2.05006 0
M  V30 3948 H 377.414 1.27573 0.99683 0
M  V30 3949 H 379.406 0.578806 4.0054 0
M  V30 3950 H 377.976 -0.0171518 3.12595 0
M  V30 3951 H 377.196 2.468 3.07382 0
M  V30 3952 H 378.484 2.80752 4.24329 0
M  V30 3953 H 377.882 -0.0423528 5.65684 0
M  V30 3954 H 376.439 0.335614 6.50935 0
M  V30 3955 N 379.872 -1.04064 1.18357 0
M  V30 3956 C 381.149 -1.74252 0.888581 0
M  V30 3957 C 381.529 -2.02138 -0.60856 0
M  V30 3958 O 380.877 -1.66656 -1.56327 0
M  V30 3959 C 381.087 -3.0277 1.73584 0
M  V30 3960 C 382.435 -3.76506 1.96286 0
M  V30 3961 O 383.459 -3.12668 1.70637 0
M  V30 3962 O 382.318 -4.91243 2.39464 0
M  V30 3963 H 379.412 -0.758271 0.330082 0
M  V30 3964 H 381.958 -1.1013 1.2911 0
M  V30 3965 H 380.73 -2.78299 2.75073 0
M  V30 3966 H 380.353 -3.74631 1.33183 0
M  V30 3967 N 381.35 -0.985608 -1.22978 0
M  V30 3968 C 382.597 -0.657386 -1.91532 0
M  V30 3969 C 382.925 0.809707 -1.76845 0
M  V30 3970 O 382.18 1.60021 -1.12658 0
M  V30 3971 C 382.479 -1.00014 -3.43121 0
M  V30 3972 C 382.145 -2.4583 -3.77993 0
M  V30 3973 C 380.807 -2.85679 -3.87222 0
M  V30 3974 C 383.159 -3.40378 -3.94705 0
M  V30 3975 C 380.487 -4.19081 -4.10595 0
M  V30 3976 C 382.839 -4.73429 -4.1958 0
M  V30 3977 C 381.503 -5.1303 -4.27032 0
M  V30 3978 H 380.773 -0.240555 -0.700867 0
M  V30 3979 H 383.42 -1.24044 -1.45895 0
M  V30 3980 H 381.725 -0.335072 -3.90365 0
M  V30 3981 H 383.422 -0.724322 -3.94404 0
M  V30 3982 H 380.012 -2.13939 -3.71387 0
M  V30 3983 H 384.196 -3.10766 -3.8696 0
M  V30 3984 H 379.452 -4.49362 -4.14589 0
M  V30 3985 H 383.626 -5.46644 -4.31455 0
M  V30 3986 H 381.253 -6.16418 -4.44896 0
M  V30 3987 N 382.828 1.3818 -0.7579 0
M  V30 3988 C 383.761 2.28055 -0.0814093 0
M  V30 3989 C 384.739 1.45603 0.723779 0
M  V30 3990 O 385.923 1.74961 0.701491 0
M  V30 3991 C 383.05 3.2676 0.891394 0
M  V30 3992 C 382.096 4.26153 0.171909 0
M  V30 3993 S 382.929 5.23434 -1.13035 0
M  V30 3994 C 384.085 6.25694 -0.160727 0
M  V30 3995 H 384.318 2.85082 -0.84353 0
M  V30 3996 H 381.851 1.44246 -0.550671 0
M  V30 3997 H 383.809 3.8414 1.44731 0
M  V30 3998 H 382.47 2.68706 1.62652 0
M  V30 3999 H 381.663 4.95738 0.908843 0
M  V30 4000 H 381.265 3.72691 -0.312606 0
M  V30 4001 H 383.557 6.74161 0.671773 0
M  V30 4002 H 384.5 7.03285 -0.824353 0
M  V30 4003 H 384.908 5.64064 0.221892 0
M  V30 4004 N 384.306 0.507319 1.49211 0
M  V30 4005 C 385.239 -0.314509 2.26022 0
M  V30 4006 C 386.217 -0.964849 1.30879 0
M  V30 4007 O 387.401 -0.993707 1.6018 0
M  V30 4008 C 384.528 -1.44346 3.06402 0
M  V30 4009 C 383.574 -0.90685 4.16748 0
M  V30 4010 S 384.407 0.207392 5.35098 0
M  V30 4011 C 385.563 -0.924573 6.19033 0
M  V30 4012 H 385.796 0.337416 2.95379 0
M  V30 4013 H 383.329 0.292718 1.516 0
M  V30 4014 H 385.287 -2.09029 3.53295 0
M  V30 4015 H 383.948 -2.06702 2.36502 0
M  V30 4016 H 383.141 -1.75309 4.72528 0
M  V30 4017 H 382.743 -0.33712 3.72478 0
M  V30 4018 H 385.035 -1.82839 6.52362 0
M  V30 4019 H 385.978 -0.405248 7.06939 0
M  V30 4020 H 386.386 -1.19476 5.51712 0
M  V30 4021 N 385.784 -1.5574 0.241426 0
M  V30 4022 C 387.014 -2.02913 -0.38857 0
M  V30 4023 C 387.422 -1.12014 -1.52478 0
M  V30 4024 O 386.765 -0.125903 -1.83268 0
M  V30 4025 C 386.827 -3.4636 -0.963075 0
M  V30 4026 C 386.491 -4.56982 0.0401916 0
M  V30 4027 C 387.488 -5.12941 0.847766 0
M  V30 4028 C 385.173 -5.0203 0.164699 0
M  V30 4029 C 387.167 -6.12437 1.76636 0
M  V30 4030 C 384.854 -6.01358 1.0868 0
M  V30 4031 C 385.852 -6.5644 1.88616 0
M  V30 4032 O 385.54 -7.53831 2.79273 0
M  V30 4033 H 385.272 -0.668983 -0.0971452 0
M  V30 4034 H 387.826 -2.02198 0.361248 0
M  V30 4035 H 386.056 -3.44206 -1.76235 0
M  V30 4036 H 387.745 -3.77065 -1.50257 0
M  V30 4037 H 388.511 -4.78974 0.762133 0
M  V30 4038 H 384.39 -4.58824 -0.447411 0
M  V30 4039 H 387.934 -6.55355 2.39071 0
M  V30 4040 H 383.831 -6.34746 1.17338 0
M  V30 4041 H 384.599 -7.71428 2.73572 0
M  V30 4042 N 387.262 0.0317525 -1.57568 0
M  V30 4043 C 388.678 0.38735 -1.54828 0
M  V30 4044 C 388.878 1.7677 -0.967187 0
M  V30 4045 O 387.934 2.45581 -0.587063 0
M  V30 4046 C 389.247 0.291667 -2.99282 0
M  V30 4047 C 390.795 0.368946 -3.10818 0
M  V30 4048 C 391.27 0.302741 -4.56998 0
M  V30 4049 N 392.761 0.361617 -4.61786 0
M  V30 4050 C 393.496 0.333238 -5.72431 0
M  V30 4051 N 392.992 0.257308 -6.92322 0
M  V30 4052 N 394.785 0.382769 -5.60795 0
M  V30 4053 H 386.936 -0.871609 -1.93692 0
M  V30 4054 H 389.199 -0.331161 -0.888277 0
M  V30 4055 H 388.905 -0.656794 -3.45513 0
M  V30 4056 H 388.779 1.08638 -3.61217 0
M  V30 4057 H 391.166 1.30784 -2.64536 0
M  V30 4058 H 391.247 -0.455066 -2.5172 0
M  V30 4059 H 390.891 -0.632473 -5.03947 0
M  V30 4060 H 390.821 1.14482 -5.14005 0
M  V30 4061 H 393.312 0.422923 -3.75526 0
M  V30 4062 H 393.625 0.24068 -7.72425 0
M  V30 4063 H 391.97 0.223396 -6.94641 0
M  V30 4064 H 395.161 0.44006 -4.66027 0
M  V30 4065 H 395.334 0.357184 -6.47015 0
M  V30 4066 N 388.74 1.54641 0.303973 0
M  V30 4067 C 389.968 1.77768 1.05858 0
M  V30 4068 C 390.383 0.535722 1.8104 0
M  V30 4069 O 389.74 -0.494337 1.75677 0
M  V30 4070 C 389.791 2.9834 2.04146 0
M  V30 4071 O 389.512 4.17736 1.32015 0
M  V30 4072 C 391.013 3.33832 2.91669 0
M  V30 4073 H 388.233 0.592961 0.314067 0
M  V30 4074 H 390.777 2.01583 0.344149 0
M  V30 4075 H 388.932 2.76742 2.71096 0
M  V30 4076 H 389.346 4.85693 1.97998 0
M  V30 4077 H 390.82 4.21448 3.56491 0
M  V30 4078 H 391.297 2.51857 3.59812 0
M  V30 4079 H 391.903 3.57579 2.30254 0
M  V30 4080 N 390.218 -0.567019 1.47046 0
M  V30 4081 C 391.466 -1.322 1.52864 0
M  V30 4082 C 391.787 -1.94088 0.188388 0
M  V30 4083 O 391.057 -1.7941 -0.786693 0
M  V30 4084 H 389.637 -0.490894 0.563056 0
M  V30 4085 H 392.299 -0.662879 1.83281 0
M  V30 4086 H 391.395 -2.12062 2.2899 0
M  V30 4087 N 391.696 -1.35014 -0.812953 0
M  V30 4088 C 392.945 -1.27269 -1.56479 0
M  V30 4089 C 393.258 0.152771 -1.95002 0
M  V30 4090 O 394.464 0.352451 -2.69203 0
M  V30 4091 C 392.92 -2.23159 -2.82362 0
M  V30 4092 C 392.528 -3.71016 -2.511 0
M  V30 4093 C 394.272 -2.24342 -3.60376 0
M  V30 4094 C 392.179 -4.58746 -3.73237 0
M  V30 4095 H 391.109 -0.472829 -0.587324 0
M  V30 4096 H 393.76 -1.6024 -0.894171 0
M  V30 4097 H 392.142 -1.83151 -3.51101 0
M  V30 4098 H 393.316 -4.1962 -1.90409 0
M  V30 4099 H 391.631 -3.72378 -1.86343 0
M  V30 4100 H 394.228 -2.87107 -4.51081 0
M  V30 4101 H 394.571 -1.24542 -3.97234 0
M  V30 4102 H 395.104 -2.62846 -2.98591 0
M  V30 4103 H 391.843 -5.59521 -3.41492 0
M  V30 4104 H 391.363 -4.14871 -4.33176 0
M  V30 4105 H 393.042 -4.73852 -4.40537 0
M  V30 4106 N 393.175 1.03435 -1.18907 0
M  V30 4107 C 394.405 1.8012 -1.01195 0
M  V30 4108 C 394.813 1.8395 0.442613 0
M  V30 4109 O 394.156 1.27836 1.31923 0
M  V30 4110 C 394.218 3.26792 -1.49823 0
M  V30 4111 C 393.882 3.46609 -2.97844 0
M  V30 4112 C 394.879 3.37278 -3.95651 0
M  V30 4113 C 392.564 3.73001 -3.36416 0
M  V30 4114 C 394.558 3.54054 -5.30023 0
M  V30 4115 C 392.245 3.89423 -4.70949 0
M  V30 4116 C 393.243 3.79951 -5.67562 0
M  V30 4117 O 392.931 3.95895 -6.99659 0
M  V30 4118 H 392.663 0.573865 -0.357289 0
M  V30 4119 H 395.217 1.31207 -1.58031 0
M  V30 4120 H 393.447 3.76703 -0.873578 0
M  V30 4121 H 395.136 3.85055 -1.28404 0
M  V30 4122 H 395.902 3.16846 -3.67197 0
M  V30 4123 H 391.781 3.79469 -2.61772 0
M  V30 4124 H 395.325 3.46577 -6.05417 0
M  V30 4125 H 391.222 4.09351 -4.99101 0
M  V30 4126 H 391.99 4.13019 -7.06653 0
M  V30 4127 N 394.653 0.992116 1.22453 0
M  V30 4128 C 395.878 0.685644 1.95739 0
M  V30 4129 C 396.303 -0.743 1.72804 0
M  V30 4130 O 395.661 -1.50778 1.00676 0
M  V30 4131 C 395.709 0.996293 3.46564 0
M  V30 4132 O 394.813 0.0945512 4.12292 0
M  V30 4133 H 394.154 0.256694 0.612376 0
M  V30 4134 H 396.684 1.32888 1.5557 0
M  V30 4135 H 396.694 0.93781 3.97076 0
M  V30 4136 H 395.369 2.03733 3.62582 0
M  V30 4137 H 393.946 0.208451 3.72317 0
M  V30 4138 N 396.131 -1.37776 0.765217 0
M  V30 4139 C 397.356 -2.04651 0.336537 0
M  V30 4140 C 397.781 -1.57337 -1.03086 0
M  V30 4141 O 397.139 -0.730621 -1.65927 0
M  V30 4142 C 397.187 -3.58577 0.381468 0
M  V30 4143 O 396.291 -4.07706 -0.62042 0
M  V30 4144 H 395.632 -0.64756 0.146838 0
M  V30 4145 H 398.162 -1.76221 1.03959 0
M  V30 4146 H 398.172 -4.07314 0.236448 0
M  V30 4147 H 396.847 -3.9237 1.37907 0
M  V30 4148 H 395.424 -3.70306 -0.439056 0
M  V30 4149 N 397.609 -0.515225 -1.4894 0
M  V30 4150 C 398.837 0.0206034 -2.0689 0
M  V30 4151 C 399.252 1.29514 -1.37374 0
M  V30 4152 O 398.609 1.76698 -0.456529 0
M  V30 4153 C 398.66 0.26351 -3.60538 0
M  V30 4154 O 398.381 -0.960517 -4.27441 0
M  V30 4155 C 399.882 0.841383 -4.35242 0
M  V30 4156 H 397.102 -0.0268608 -0.670462 0
M  V30 4157 H 399.646 -0.716651 -1.91532 0
M  V30 4158 H 397.801 0.950777 -3.75552 0
M  V30 4159 H 398.215 -0.73212 -5.19365 0
M  V30 4160 H 399.689 0.96085 -5.43573 0
M  V30 4161 H 400.166 1.8427 -3.98674 0
M  V30 4162 H 400.772 0.191143 -4.2487 0
M  V30 4163 N 399.087 1.5561 -0.249682 0
M  V30 4164 C 400.312 2.03865 0.381305 0
M  V30 4165 C 400.737 1.12769 1.50548 0
M  V30 4166 O 400.095 0.121189 1.80895 0
M  V30 4167 C 400.143 3.50101 0.863816 0
M  V30 4168 O 399.247 3.62132 1.97318 0
M  V30 4169 H 398.588 0.658827 0.0827194 0
M  V30 4170 H 401.118 2.01105 -0.376552 0
M  V30 4171 H 401.128 3.90975 1.1663 0
M  V30 4172 H 399.803 4.1588 0.0411816 0
M  V30 4173 H 398.38 3.33155 1.67517 0
M  V30 4174 N 400.565 -0.0233959 1.57583 0
M  V30 4175 C 401.805 -0.71784 1.9138 0
M  V30 4176 C 402.169 -1.72216 0.848853 0
M  V30 4177 O 403.37 -2.46527 1.07134 0
M  V30 4178 C 401.641 -1.36489 3.30311 0
M  V30 4179 S 403.2 -2.0877 3.85954 0
M  V30 4180 H 400.018 -0.237676 0.670098 0
M  V30 4181 H 402.62 0.0276709 1.9548 0
M  V30 4182 H 401.324 -0.620782 4.05678 0
M  V30 4183 H 400.855 -2.14883 3.29528 0
M  V30 4184 H 402.87 -3.35988 3.65139 0
M  V30 4185 N 402.043 -1.548 -0.295768 0
M  V30 4186 C 402.993 -1.82497 -1.3667 0
M  V30 4187 C 403.977 -0.682434 -1.45711 0
M  V30 4188 O 405.169 -0.943207 -1.49775 0
M  V30 4189 C 402.298 -2.08036 -2.73086 0
M  V30 4190 C 401.384 -3.28488 -2.68247 0
M  V30 4191 N 401.775 -4.48924 -2.33025 0
M  V30 4192 C 400.073 -3.3062 -2.99343 0
M  V30 4193 C 400.774 -5.30956 -2.37613 0
M  V30 4194 N 399.75 -4.68805 -2.75178 0
M  V30 4195 H 403.552 -2.73175 -1.0841 0
M  V30 4196 H 401.066 -1.5437 -0.504361 0
M  V30 4197 H 403.063 -2.26027 -3.5031 0
M  V30 4198 H 401.723 -1.18629 -3.02254 0
M  V30 4199 H 402.734 -4.75432 -2.05389 0
M  V30 4200 H 399.411 -2.51336 -3.33371 0
M  V30 4201 H 400.801 -6.37199 -2.13135 0
M  V30 4202 N 403.521 0.559213 -1.47345 0
M  V30 4203 C 404.468 1.66645 -1.59682 0
M  V30 4204 C 405.438 1.60168 -0.43994 0
M  V30 4205 O 406.623 1.79031 -0.659736 0
M  V30 4206 C 403.763 3.04969 -1.61518 0
M  V30 4207 C 402.876 3.21897 -2.88108 0
M  V30 4208 C 402.011 4.50608 -2.81294 0
M  V30 4209 C 401.05 4.60961 -4.02717 0
M  V30 4210 N 400.187 5.81024 -3.94151 0
M  V30 4211 H 405.027 1.55439 -2.54249 0
M  V30 4212 H 402.564 0.757219 -1.26113 0
M  V30 4213 H 404.522 3.85064 -1.60566 0
M  V30 4214 H 403.152 3.15015 -0.704645 0
M  V30 4215 H 402.204 2.35248 -2.98936 0
M  V30 4216 H 403.516 3.25412 -3.78032 0
M  V30 4217 H 402.67 5.3896 -2.7858 0
M  V30 4218 H 401.409 4.49568 -1.89049 0
M  V30 4219 H 400.414 3.71021 -4.05738 0
M  V30 4220 H 401.639 4.63761 -4.96087 0
M  V30 4221 H 399.585 5.80938 -3.04708 0
M  V30 4222 H 399.502 5.85909 -4.77752 0
M  V30 4223 H 400.77 6.71744 -3.9545 0
M  V30 4224 N 404.999 1.35443 0.805782 0
M  V30 4225 C 406.227 1.31878 1.59423 0
M  V30 4226 C 406.642 -0.103562 1.88516 0
M  V30 4227 O 405.999 -1.05575 1.48863 0
M  V30 4228 C 406.05 2.12426 2.92502 0
M  V30 4229 O 405.771 3.49115 2.6467 0
M  V30 4230 C 407.272 2.16455 3.86862 0
M  V30 4231 H 404.492 0.453002 0.495005 0
M  V30 4232 H 407.036 1.78309 1.00131 0
M  V30 4233 H 405.191 1.69593 3.48306 0
M  V30 4234 H 405.605 3.90957 3.49647 0
M  V30 4235 H 407.079 2.77204 4.77349 0
M  V30 4236 H 407.556 1.16352 4.23508 0
M  V30 4237 H 408.162 2.59453 3.36993 0
M  V30 4238 N 406.477 -1.02803 1.19454 0
M  V30 4239 C 407.888 -1.57667 0.999899 0
M  V30 4240 C 408.239 -1.91041 -0.446956 0
M  V30 4241 O 407.364 -1.70978 -1.32648 0
M  V30 4242 C 407.959 -2.86477 1.80877 0
M  V30 4243 C 406.518 -3.37911 1.65811 0
M  V30 4244 C 405.665 -2.11343 1.79526 0
M  V30 4245 H 408.616 -0.853214 1.33813 0
M  V30 4246 H 408.637 -3.57408 1.30536 0
M  V30 4247 H 408.149 -2.62155 2.86175 0
M  V30 4248 H 406.25 -3.67218 0.63102 0
M  V30 4249 H 406.363 -4.10885 2.46395 0
M  V30 4250 H 404.727 -2.23254 1.22596 0
M  V30 4251 H 405.51 -1.89461 2.86285 0
M  V30 4252 N 407.956 -0.998596 -1.21925 0
M  V30 4253 C 409.233 -0.593401 -1.86382 0
M  V30 4254 C 409.613 0.92916 -1.89552 0
M  V30 4255 O 408.961 1.81347 -1.39017 0
M  V30 4256 C 409.171 -1.22039 -3.26967 0
M  V30 4257 C 410.519 -1.32449 -4.03413 0
M  V30 4258 O 411.543 -1.17522 -3.36254 0
M  V30 4259 O 410.402 -1.56395 -5.23644 0
M  V30 4260 H 407.496 -0.202385 -0.801854 0
M  V30 4261 H 410.042 -1.09484 -1.29659 0
M  V30 4262 H 408.814 -2.26158 -3.19325 0
M  V30 4263 H 408.437 -0.704906 -3.91301 0
M  V30 4264 N 409.434 1.37368 -0.772513 0
M  V30 4265 C 410.381 2.30262 -0.157488 0
M  V30 4266 C 411.351 1.51137 0.688965 0
M  V30 4267 O 412.536 1.79704 0.641168 0
M  V30 4268 C 409.676 3.37611 0.715045 0
M  V30 4269 C 408.789 4.31746 -0.148098 0
M  V30 4270 C 407.924 5.26171 0.729213 0
M  V30 4271 C 406.963 6.11948 -0.136418 0
M  V30 4272 N 406.1 6.98613 0.698914 0
M  V30 4273 H 410.94 2.82277 -0.955179 0
M  V30 4274 H 408.477 1.38957 -0.482631 0
M  V30 4275 H 410.435 3.98479 1.23575 0
M  V30 4276 H 409.065 2.86959 1.47833 0
M  V30 4277 H 408.117 3.72178 -0.786613 0
M  V30 4278 H 409.429 4.92084 -0.81579 0
M  V30 4279 H 408.583 5.92247 1.31637 0
M  V30 4280 H 407.322 4.66246 1.43059 0
M  V30 4281 H 406.327 5.4485 -0.736102 0
M  V30 4282 H 407.552 6.73945 -0.835134 0
M  V30 4283 H 405.498 6.41215 1.38489 0
M  V30 4284 H 405.415 7.55948 0.0885358 0
M  V30 4285 H 406.683 7.69077 1.27044 0
M  V30 4286 N 410.912 0.523116 1.48665 0
M  V30 4287 C 412.158 -0.0134963 2.02796 0
M  V30 4288 C 412.491 -1.34582 1.40004 0
M  V30 4289 O 411.766 -1.86756 0.543381 0
M  V30 4290 C 412.049 -0.14276 3.59817 0
M  V30 4291 C 411.902 1.21425 4.331 0
M  V30 4292 C 413.221 -0.872856 4.31357 0
M  V30 4293 H 410.34 -0.00343074 0.736992 0
M  V30 4294 H 412.982 0.678816 1.7746 0
M  V30 4295 H 411.132 -0.732401 3.81534 0
M  V30 4296 H 412.804 1.84447 4.2282 0
M  V30 4297 H 411.047 1.79791 3.94788 0
M  V30 4298 H 411.718 1.07687 5.41394 0
M  V30 4299 H 414.194 -0.372555 4.14429 0
M  V30 4300 H 413.07 -0.932185 5.40927 0
M  V30 4301 H 413.331 -1.92161 3.98154 0
M  V30 4302 N 412.39 -1.55475 0.257931 0
M  V30 4303 C 413.338 -2.23244 -0.653076 0
M  V30 4304 C 414.332 -1.22366 -1.17144 0
M  V30 4305 O 415.538 -1.40347 -1.12706 0
M  V30 4306 H 411.913 -0.716247 -0.229117 0
M  V30 4307 H 413.884 -2.98343 -0.0584788 0
M  V30 4308 C 412.633 -2.95401 -1.83395 0
M  V30 4309 H 411.956 -3.72802 -1.44424 0
M  V30 4310 H 413.396 -3.46165 -2.44838 0
M  V30 4311 C 411.855 -1.99895 -2.71189 0
M  V30 4312 O 412.385 -1.53909 -3.71046 0
M  V30 4313 N 410.591 -1.6676 -2.3799 0
M  V30 4314 H 410.138 -2.04352 -1.56837 0
M  V30 4315 H 410.096 -1.03127 -2.97005 0
M  V30 4316 N 413.868 0.0150385 -1.57593 0
M  V30 4317 C 414.818 1.01943 -2.0394 0
M  V30 4318 C 415.802 1.31209 -0.931286 0
M  V30 4319 O 416.994 1.30559 -1.19513 0
M  V30 4320 C 414.123 2.31621 -2.53391 0
M  V30 4321 C 413.209 2.05384 -3.7105 0
M  V30 4322 N 413.6 1.49253 -4.83278 0
M  V30 4323 C 411.898 2.35601 -3.78693 0
M  V30 4324 C 412.599 1.39143 -5.64813 0
M  V30 4325 N 411.575 1.87187 -5.10355 0
M  V30 4326 H 415.377 0.57969 -2.88126 0
M  V30 4327 H 412.891 0.221056 -1.60888 0
M  V30 4328 H 414.888 3.044 -2.84862 0
M  V30 4329 H 413.548 2.76261 -1.70616 0
M  V30 4330 H 414.559 1.17334 -5.04433 0
M  V30 4331 H 411.236 2.8322 -3.06746 0
M  V30 4332 H 412.626 0.961153 -6.6499 0
M  V30 4333 N 415.346 1.54954 0.287554 0
M  V30 4334 C 416.309 1.86076 1.33823 0
M  V30 4335 C 417.309 0.734414 1.43049 0
M  V30 4336 O 418.499 1.00266 1.42452 0
M  V30 4337 C 415.631 2.05305 2.72144 0
M  V30 4338 H 416.824 2.79984 1.07465 0
M  V30 4339 H 414.377 1.47223 0.524902 0
M  V30 4340 H 415.112 1.1373 3.03704 0
M  V30 4341 H 414.897 2.873 2.66836 0
M  V30 4342 H 416.387 2.30706 3.48087 0
M  V30 4343 N 416.824 -0.551391 1.4764 0
M  V30 4344 C 418.07 -1.31024 1.54792 0
M  V30 4345 C 418.403 -1.9304 0.211967 0
M  V30 4346 O 417.678 -1.78175 -0.77999 0
M  V30 4347 C 417.961 -2.41593 2.67029 0
M  V30 4348 C 417.814 -1.84408 4.10261 0
M  V30 4349 C 419.133 -3.43488 2.75143 0
M  V30 4350 H 416.252 -0.475031 0.563485 0
M  V30 4351 H 418.894 -0.616454 1.79722 0
M  V30 4352 H 417.044 -3.00772 2.45904 0
M  V30 4353 H 418.716 -1.29445 4.42766 0
M  V30 4354 H 416.959 -1.15051 4.18265 0
M  V30 4355 H 417.63 -2.64367 4.84576 0
M  V30 4356 H 420.106 -2.94236 2.94218 0
M  V30 4357 H 418.982 -4.18274 3.55441 0
M  V30 4358 H 419.243 -4.02703 1.82435 0
M  V30 4359 N 418.302 -1.35869 -0.798587 0
M  V30 4360 C 419.232 -1.32118 -1.92528 0
M  V30 4361 C 420.213 -0.194209 -1.68988 0
M  V30 4362 O 421.398 -0.390426 -1.90235 0
M  V30 4363 C 418.528 -1.10047 -3.29404 0
M  V30 4364 C 417.482 -2.19471 -3.67446 0
M  V30 4365 C 416.808 -1.82555 -5.02571 0
M  V30 4366 C 418.108 -3.61495 -3.76987 0
M  V30 4367 H 419.802 -2.26394 -1.95924 0
M  V30 4368 H 417.348 -1.08981 -0.94123 0
M  V30 4369 H 419.301 -1.06061 -4.07835 0
M  V30 4370 H 418.025 -0.122195 -3.26371 0
M  V30 4371 H 416.684 -2.22568 -2.91306 0
M  V30 4372 H 416.332 -0.833249 -4.9605 0
M  V30 4373 H 416.032 -2.5581 -5.28995 0
M  V30 4374 H 417.556 -1.80108 -5.83432 0
M  V30 4375 H 418.97 -3.60676 -4.4563 0
M  V30 4376 H 417.367 -4.33577 -4.14887 0
M  V30 4377 H 418.437 -3.97065 -2.78329 0
M  V30 4378 N 419.78 1.02168 -1.19998 0
M  V30 4379 C 420.743 2.08765 -0.94604 0
M  V30 4380 C 421.743 1.60618 0.0763846 0
M  V30 4381 O 422.933 1.73472 -0.159135 0
M  V30 4382 C 420.065 3.38262 -0.423255 0
M  V30 4383 H 421.258 2.32726 -1.89153 0
M  V30 4384 H 418.811 1.1889 -1.01464 0
M  V30 4385 H 419.546 3.19974 0.527938 0
M  V30 4386 H 419.331 3.74532 -1.16053 0
M  V30 4387 H 420.821 4.16759 -0.264911 0
M  V30 4388 N 421.258 1.00505 1.21394 0
M  V30 4389 C 422.504 0.688793 1.90745 0
M  V30 4390 C 422.837 -0.778486 1.77914 0
M  V30 4391 O 422.112 -1.56433 1.15581 0
M  V30 4392 C 422.395 1.11063 3.42545 0
M  V30 4393 C 422.248 2.63737 3.64367 0
M  V30 4394 C 423.567 0.673059 4.34923 0
M  V30 4395 H 420.686 0.251702 0.692687 0
M  V30 4396 H 423.328 1.25074 1.43026 0
M  V30 4397 H 421.478 0.632508 3.83317 0
M  V30 4398 H 423.15 3.19313 3.32922 0
M  V30 4399 H 421.393 3.05248 3.08231 0
M  V30 4400 H 422.064 2.88305 4.70727 0
M  V30 4401 H 424.54 1.08392 4.01734 0
M  V30 4402 H 423.416 0.996383 5.39781 0
M  V30 4403 H 423.677 -0.425808 4.40045 0
M  V30 4404 N 422.737 -1.36956 0.779787 0
M  V30 4405 C 423.985 -1.99097 0.347079 0
M  V30 4406 C 424.306 -1.62206 -1.08232 0
M  V30 4407 O 423.576 -0.891373 -1.74446 0
M  V30 4408 H 422.156 -0.736409 0.125342 0
M  V30 4409 H 424.818 -1.67308 0.999696 0
M  V30 4410 H 423.914 -3.09107 0.431162 0
M  V30 4411 N 424.215 -0.530993 -1.48385 0
M  V30 4412 C 425.445 -0.00133928 -2.066 0
M  V30 4413 C 425.853 1.28599 -1.38777 0
M  V30 4414 O 425.196 1.77599 -0.469495 0
M  V30 4415 C 425.258 0.292137 -3.58311 0
M  V30 4416 C 424.922 -0.901864 -4.48013 0
M  V30 4417 C 425.919 -1.80053 -4.87726 0
M  V30 4418 C 423.604 -1.10915 -4.89901 0
M  V30 4419 C 425.598 -2.89038 -5.68098 0
M  V30 4420 C 423.285 -2.20213 -5.70043 0
M  V30 4421 C 424.283 -3.09107 -6.0905 0
M  V30 4422 O 423.971 -4.16514 -6.87583 0
M  V30 4423 H 423.703 -0.0308475 -0.675296 0
M  V30 4424 H 426.257 -0.736335 -1.91748 0
M  V30 4425 H 424.487 1.08112 -3.7128 0
M  V30 4426 H 426.176 0.763994 -3.98645 0
M  V30 4427 H 426.942 -1.65234 -4.55986 0
M  V30 4428 H 422.821 -0.426498 -4.59023 0
M  V30 4429 H 426.365 -3.58451 -5.98464 0
M  V30 4430 H 422.262 -2.35016 -6.01197 0
M  V30 4431 H 423.03 -4.14237 -7.05939 0
M  V30 4432 N 425.693 1.55336 -0.266172 0
M  V30 4433 C 426.941 1.99003 0.35246 0
M  V30 4434 C 427.262 1.15591 1.57047 0
M  V30 4435 O 426.532 0.243268 1.94384 0
M  V30 4436 H 425.112 0.735025 0.133217 0
M  V30 4437 H 427.774 1.91367 -0.369434 0
M  V30 4438 H 426.87 3.05289 0.648453 0
M  V30 4439 N 427.171 -0.0066808 1.57599 0
M  V30 4440 C 428.081 -1.01671 2.11424 0
M  V30 4441 C 429.097 -1.38143 1.05795 0
M  V30 4442 O 430.273 -1.47011 1.37658 0
M  V30 4443 C 427.338 -2.29192 2.60139 0
M  V30 4444 C 426.399 -1.99094 3.80342 0
M  V30 4445 C 425.632 -3.20535 4.26724 0
M  V30 4446 O 425.855 -4.3199 3.72479 0
M  V30 4447 O 424.789 -3.04924 5.18946 0
M  V30 4448 H 428.615 -0.589181 2.9793 0
M  V30 4449 H 426.2 -0.225091 1.47695 0
M  V30 4450 H 428.082 -3.0412 2.917 0
M  V30 4451 H 426.757 -2.71195 1.76733 0
M  V30 4452 H 425.664 -1.21663 3.53764 0
M  V30 4453 H 426.997 -1.61931 4.648 0
M  V30 4454 N 428.649 -1.55105 -0.279332 0
M  V30 4455 C 429.596 -1.8755 -1.34513 0
M  V30 4456 C 430.566 -0.726384 -1.49375 0
M  V30 4457 O 431.751 -0.977063 -1.63884 0
M  V30 4458 C 428.891 -2.14738 -2.70151 0
M  V30 4459 C 428.004 -3.42285 -2.63562 0
M  V30 4460 C 427.139 -3.59206 -3.91337 0
M  V30 4461 C 426.178 -4.80467 -3.79233 0
M  V30 4462 N 425.315 -4.94079 -4.98829 0
M  V30 4463 H 430.155 -2.78456 -1.06143 0
M  V30 4464 H 427.692 -1.37867 -0.512936 0
M  V30 4465 H 429.65 -2.28501 -3.49061 0
M  V30 4466 H 428.28 -1.27075 -2.96735 0
M  V30 4467 H 427.332 -3.37029 -1.76397 0
M  V30 4468 H 428.644 -4.31328 -2.50515 0
M  V30 4469 H 427.798 -3.72751 -4.78687 0
M  V30 4470 H 426.537 -2.68337 -4.07243 0
M  V30 4471 H 425.542 -4.66932 -2.90266 0
M  V30 4472 H 426.767 -5.72765 -3.64852 0
M  V30 4473 H 424.713 -4.06139 -5.15158 0
M  V30 4474 H 424.63 -5.77156 -4.8829 0
M  V30 4475 H 425.898 -5.12003 -5.8777 0
M  V30 4476 N 430.127 0.543554 -1.4793 0
M  V30 4477 C 431.075 1.67039 -1.61866 0
M  V30 4478 C 432.069 1.62294 -0.48549 0
M  V30 4479 O 433.275 1.67315 -0.66376 0
M  V30 4480 H 429.65 0.552954 -0.509652 0
M  V30 4481 H 431.621 1.52426 -2.56533 0
M  V30 4482 C 430.37 3.05357 -1.6629 0
M  V30 4483 H 429.693 3.09696 -2.5284 0
M  V30 4484 H 431.133 3.83855 -1.80088 0
M  V30 4485 C 429.592 3.34531 -0.398861 0
M  V30 4486 O 430.122 3.98649 0.494162 0
M  V30 4487 N 428.328 2.89299 -0.2747 0
M  V30 4488 H 427.875 2.37298 -1.00236 0
M  V30 4489 H 427.833 3.09188 0.570075 0
M  V30 4490 N 431.605 1.3629 0.791371 0
M  V30 4491 C 432.853 1.30154 1.5461 0
M  V30 4492 C 433.174 -0.119409 1.94634 0
M  V30 4493 O 432.444 -1.05924 1.64794 0
M  V30 4494 H 431.024 0.478784 0.573389 0
M  V30 4495 H 433.686 1.70565 0.94306 0
M  V30 4496 H 432.782 1.92762 2.45457 0
M  V30 4497 N 433.083 -1.0153 1.20538 0
M  V30 4498 C 434.332 -1.74558 1.01057 0
M  V30 4499 C 434.645 -1.90168 -0.457756 0
M  V30 4500 O 435.851 -2.60301 -0.771722 0
M  V30 4501 C 434.307 -3.13963 1.75941 0
M  V30 4502 C 433.915 -3.06361 3.26875 0
M  V30 4503 C 435.659 -3.91191 1.64832 0
M  V30 4504 C 433.566 -4.40782 3.94291 0
M  V30 4505 H 432.496 -0.654417 0.374505 0
M  V30 4506 H 435.147 -1.13521 1.44171 0
M  V30 4507 H 433.529 -3.75549 1.25614 0
M  V30 4508 H 434.703 -2.54074 3.84425 0
M  V30 4509 H 433.018 -2.42625 3.38411 0
M  V30 4510 H 435.615 -4.90644 2.12539 0
M  V30 4511 H 435.958 -4.11884 0.604745 0
M  V30 4512 H 436.491 -3.36236 2.12579 0
M  V30 4513 H 433.23 -4.25292 4.98805 0
M  V30 4514 H 432.75 -4.9307 3.41529 0
M  V30 4515 H 434.429 -5.09621 3.98617 0
M  V30 4516 N 434.561 -1.01147 -1.20859 0
M  V30 4517 C 435.972 -0.730205 -1.71828 0
M  V30 4518 C 436.323 0.751662 -1.8123 0
M  V30 4519 O 435.448 1.58686 -1.47132 0
M  V30 4520 C 436.043 -1.31885 -3.12077 0
M  V30 4521 C 434.602 -1.08656 -3.60376 0
M  V30 4522 C 433.749 -1.42769 -2.37723 0
M  V30 4523 H 436.7 -1.18158 -1.05945 0
M  V30 4524 H 436.721 -0.706793 -3.73878 0
M  V30 4525 H 436.233 -2.39737 -3.05201 0
M  V30 4526 H 434.334 -0.0254814 -3.72591 0
M  V30 4527 H 434.447 -1.76301 -4.45483 0
M  V30 4528 H 432.811 -0.846603 -2.40218 0
M  V30 4529 H 433.594 -2.51666 -2.33493 0
M  V30 4530 N 436.039 1.36541 -0.78704 0
M  V30 4531 C 437.269 2.03266 -0.369662 0
M  V30 4532 C 437.677 1.59481 1.01796 0
M  V30 4533 O 437.02 0.778612 1.66383 0
M  V30 4534 C 437.082 3.57779 -0.351371 0
M  V30 4535 C 436.746 4.24756 -1.68617 0
M  V30 4536 C 437.743 4.47811 -2.64124 0
M  V30 4537 C 435.428 4.62277 -1.96481 0
M  V30 4538 C 437.422 5.07464 -3.85693 0
M  V30 4539 C 435.109 5.21649 -3.18317 0
M  V30 4540 C 436.107 5.44182 -4.12741 0
M  V30 4541 O 435.795 6.02307 -5.32429 0
M  V30 4542 H 435.527 0.658977 -0.150751 0
M  V30 4543 H 438.081 1.75548 -1.0664 0
M  V30 4544 H 436.311 3.84606 0.401847 0
M  V30 4545 H 438 4.05879 0.0410147 0
M  V30 4546 H 438.766 4.19221 -2.43883 0
M  V30 4547 H 434.645 4.44065 -1.23805 0
M  V30 4548 H 438.189 5.24968 -4.59407 0
M  V30 4549 H 434.086 5.49664 -3.38437 0
M  V30 4550 H 434.854 6.20775 -5.33461 0
M  V30 4551 N 437.518 0.538854 1.48102 0
M  V30 4552 C 438.764 0.0161732 2.03394 0
M  V30 4553 C 439.119 -1.31154 1.40771 0
M  V30 4554 O 438.412 -1.83613 0.547421 0
M  V30 4555 C 438.606 -0.153808 3.57069 0
M  V30 4556 C 438.435 1.15588 4.34591 0
M  V30 4557 C 437.205 1.71818 4.75191 0
M  V30 4558 C 439.403 2.06867 4.70861 0
M  V30 4559 N 437.385 2.96983 5.37284 0
M  V30 4560 C 438.756 3.16609 5.33066 0
M  V30 4561 C 440.811 2.07085 4.52791 0
M  V30 4562 C 439.514 4.26645 5.79109 0
M  V30 4563 C 441.54 3.16121 4.99821 0
M  V30 4564 C 440.902 4.24582 5.62058 0
M  V30 4565 H 437.001 0.0476346 0.780548 0
M  V30 4566 H 439.585 0.722094 1.80815 0
M  V30 4567 H 437.756 -0.828825 3.79454 0
M  V30 4568 H 439.488 -0.676896 3.98999 0
M  V30 4569 H 436.243 1.25845 4.56574 0
M  V30 4570 H 436.667 3.60732 5.72889 0
M  V30 4571 H 441.309 1.24522 4.04047 0
M  V30 4572 H 439.027 5.0998 6.26854 0
M  V30 4573 H 442.613 3.17355 4.87624 0
M  V30 4574 H 441.493 5.07562 5.97788 0
M  V30 4575 N 438.996 -1.55193 0.274407 0
M  V30 4576 C 440.245 -1.98758 -0.343213 0
M  V30 4577 C 440.558 -1.16624 -1.5703 0
M  V30 4578 O 441.764 -1.5033 -2.26082 0
M  V30 4579 C 440.22 -3.53759 -0.661996 0
M  V30 4580 C 439.828 -4.4467 0.54524 0
M  V30 4581 C 441.572 -4.05916 -1.24228 0
M  V30 4582 C 439.479 -5.91058 0.201084 0
M  V30 4583 H 438.409 -0.742353 -0.132014 0
M  V30 4584 H 441.06 -1.79545 0.378948 0
M  V30 4585 H 439.442 -3.68772 -1.44304 0
M  V30 4586 H 440.616 -4.41426 1.32212 0
M  V30 4587 H 438.931 -4.03143 1.04232 0
M  V30 4588 H 441.528 -5.12831 -1.51357 0
M  V30 4589 H 441.871 -3.54908 -2.17592 0
M  V30 4590 H 442.404 -3.9434 -0.523542 0
M  V30 4591 H 439.143 -6.46161 1.10258 0
M  V30 4592 H 438.663 -5.97373 -0.539045 0
M  V30 4593 H 440.342 -6.46669 -0.206954 0
M  V30 4594 N 440.474 -0.00167713 -1.576 0
M  V30 4595 C 441.72 0.683832 -1.90923 0
M  V30 4596 C 442.053 1.7333 -0.875799 0
M  V30 4597 O 441.328 1.94215 0.10525 0
M  V30 4598 C 441.611 1.32543 -3.3482 0
M  V30 4599 C 441.464 0.287387 -4.48881 0
M  V30 4600 C 442.783 2.25114 -3.78169 0
M  V30 4601 H 439.902 0.247125 -0.694333 0
M  V30 4602 H 442.544 -0.0533149 -1.89925 0
M  V30 4603 H 440.694 1.95372 -3.35801 0
M  V30 4604 H 442.366 -0.341346 -4.60035 0
M  V30 4605 H 440.609 -0.39017 -4.32042 0
M  V30 4606 H 441.28 0.775393 -5.46527 0
M  V30 4607 H 443.756 1.723 -3.7875 0
M  V30 4608 H 442.632 2.66971 -4.79602 0
M  V30 4609 H 442.893 3.13092 -3.12131 0
M  V30 4610 N 441.952 1.55251 0.271103 0
M  V30 4611 C 442.899 1.88261 1.33516 0
M  V30 4612 C 443.869 0.734296 1.48988 0
M  V30 4613 O 445.054 0.985741 1.63364 0
M  V30 4614 C 442.194 2.16168 2.69008 0
M  V30 4615 C 441.307 3.43678 2.61743 0
M  V30 4616 C 440.442 3.61276 3.89427 0
M  V30 4617 C 439.481 4.82472 3.7668 0
M  V30 4618 N 438.618 4.96717 4.96202 0
M  V30 4619 H 443.458 2.79015 1.04665 0
M  V30 4620 H 440.995 1.38137 0.505618 0
M  V30 4621 H 442.953 2.30349 3.47844 0
M  V30 4622 H 441.583 1.28646 2.96057 0
M  V30 4623 H 440.635 3.37959 1.74607 0
M  V30 4624 H 441.947 4.3265 2.48224 0
M  V30 4625 H 441.101 3.75284 4.76704 0
M  V30 4626 H 439.84 2.70492 4.05814 0
M  V30 4627 H 438.845 4.68465 2.87786 0
M  V30 4628 H 440.07 5.74692 3.61809 0
M  V30 4629 H 438.016 4.08865 5.12997 0
M  V30 4630 H 437.933 5.79738 4.85222 0
M  V30 4631 H 439.201 5.15113 5.85046 0
M  V30 4632 N 443.43 -0.535701 1.48216 0
M  V30 4633 C 444.378 -1.66179 1.62749 0
M  V30 4634 C 445.372 -1.62034 0.49409 0
M  V30 4635 O 446.578 -1.6696 0.672624 0
M  V30 4636 H 442.953 -0.550244 0.512578 0
M  V30 4637 H 444.924 -1.51063 2.57337 0
M  V30 4638 C 443.673 -3.04471 1.67907 0
M  V30 4639 H 442.996 -3.08351 2.54479 0
M  V30 4640 H 444.436 -3.82894 1.82121 0
M  V30 4641 C 442.895 -3.34314 0.416596 0
M  V30 4642 O 443.425 -3.98905 -0.473014 0
M  V30 4643 N 441.631 -2.89149 0.290038 0
M  V30 4644 H 441.178 -2.36764 1.01493 0
M  V30 4645 H 441.136 -3.09486 -0.55367 0
M  V30 4646 N 444.908 -1.36708 -0.784132 0
M  V30 4647 C 446.133 -1.34565 -1.5782 0
M  V30 4648 C 446.558 0.0695257 -1.87971 0
M  V30 4649 O 445.916 1.04302 -1.48293 0
M  V30 4650 C 445.964 -2.17952 -2.87279 0
M  V30 4651 O 445.068 -1.57563 -3.81114 0
M  V30 4652 H 444.409 -0.460337 -0.478524 0
M  V30 4653 H 446.939 -1.80064 -0.971495 0
M  V30 4654 H 446.949 -2.30721 -3.365 0
M  V30 4655 H 445.624 -3.20823 -2.64661 0
M  V30 4656 H 444.201 -1.53764 -3.39722 0
M  V30 4657 N 446.386 1.0089 -1.21074 0
M  V30 4658 C 447.632 1.7497 -1.03717 0
M  V30 4659 C 447.987 1.8764 0.425344 0
M  V30 4660 O 447.28 1.39679 1.3115 0
M  V30 4661 C 447.474 3.16335 -1.66334 0
M  V30 4662 C 447.303 3.17449 -3.18522 0
M  V30 4663 C 446.073 3.2425 -3.87543 0
M  V30 4664 C 448.271 3.02877 -4.15656 0
M  V30 4665 N 446.253 3.14949 -5.26954 0
M  V30 4666 C 447.624 3.0143 -5.41793 0
M  V30 4667 C 449.679 2.8715 -4.06755 0
M  V30 4668 C 448.382 2.85869 -6.60054 0
M  V30 4669 C 450.408 2.72944 -5.24648 0
M  V30 4670 C 449.77 2.72171 -6.49694 0
M  V30 4671 H 445.869 0.650627 -0.43383 0
M  V30 4672 H 448.453 1.19944 -1.53367 0
M  V30 4673 H 446.624 3.69638 -1.19256 0
M  V30 4674 H 448.356 3.78888 -1.42219 0
M  V30 4675 H 445.111 3.31288 -3.38446 0
M  V30 4676 H 445.535 3.13651 -5.9996 0
M  V30 4677 H 450.177 2.86557 -3.10878 0
M  V30 4678 H 447.895 2.8521 -7.56096 0
M  V30 4679 H 451.481 2.61782 -5.19578 0
M  V30 4680 H 450.361 2.61307 -7.39384 0
M  V30 4681 N 447.864 1.01787 1.20321 0
M  V30 4682 C 449.112 0.706538 1.89347 0
M  V30 4683 C 449.433 -0.766289 1.79313 0
M  V30 4684 O 448.703 -1.55126 1.19635 0
M  V30 4685 H 447.283 0.258348 0.700903 0
M  V30 4686 H 449.945 1.28974 1.46122 0
M  V30 4687 H 449.041 0.991066 2.95946 0
M  V30 4688 N 449.342 -1.36122 0.79427 0
M  V30 4689 C 450.753 -1.81646 0.431446 0
M  V30 4690 C 451.104 -1.66043 -1.04518 0
M  V30 4691 O 450.229 -1.1841 -1.8113 0
M  V30 4692 C 450.824 -3.29785 0.776341 0
M  V30 4693 C 449.383 -3.73501 0.466282 0
M  V30 4694 C 448.53 -2.58313 1.00844 0
M  V30 4695 H 451.481 -1.24274 0.986995 0
M  V30 4696 H 451.502 -3.80437 0.0692413 0
M  V30 4697 H 451.014 -3.4111 1.8511 0
M  V30 4698 H 449.115 -3.67733 -0.600245 0
M  V30 4699 H 449.228 -4.68754 0.990288 0
M  V30 4700 H 447.592 -2.5102 0.431406 0
M  V30 4701 H 448.375 -2.72421 2.08906 0
M  V30 4702 N 450.82 -0.546701 -1.47814 0
M  V30 4703 C 451.752 0.244196 -2.27895 0
M  V30 4704 C 452.765 0.88911 -1.36377 0
M  V30 4705 O 453.954 0.764733 -1.61289 0
M  V30 4706 C 451.054 1.36252 -3.10304 0
M  V30 4707 C 450.227 0.816382 -4.29714 0
M  V30 4708 C 449.286 1.81789 -4.93801 0
M  V30 4709 O 448.312 1.36818 -5.52512 0
M  V30 4710 N 449.514 3.15085 -4.87547 0
M  V30 4711 H 452.279 -0.442694 -2.96412 0
M  V30 4712 H 449.84 -0.382095 -1.57327 0
M  V30 4713 H 451.832 2.03102 -3.50045 0
M  V30 4714 H 450.402 1.95281 -2.44099 0
M  V30 4715 H 449.622 -0.0285981 -3.9419 0
M  V30 4716 H 450.91 0.430668 -5.06974 0
M  V30 4717 H 450.308 3.54275 -4.41028 0
M  V30 4718 H 448.865 3.77522 -5.31339 0
M  V30 4719 N 452.299 1.55045 -0.282633 0
M  V30 4720 C 453.545 2.0078 0.325436 0
M  V30 4721 C 453.9 1.1676 1.52921 0
M  V30 4722 O 453.193 0.231475 1.90197 0
M  V30 4723 C 453.387 3.49422 0.750938 0
M  V30 4724 C 453.216 4.47827 -0.410056 0
M  V30 4725 C 451.986 4.97288 -0.896239 0
M  V30 4726 C 454.184 4.98903 -1.24902 0
M  V30 4727 N 452.166 5.79508 -2.02591 0
M  V30 4728 C 453.537 5.78644 -2.22646 0
M  V30 4729 C 455.592 4.81126 -1.2815 0
M  V30 4730 C 454.295 6.42502 -3.23393 0
M  V30 4731 C 456.321 5.45789 -2.27745 0
M  V30 4732 C 455.683 6.25348 -3.24222 0
M  V30 4733 H 451.782 0.77747 0.08405 0
M  V30 4734 H 454.366 1.90369 -0.408368 0
M  V30 4735 H 452.537 3.60159 1.45395 0
M  V30 4736 H 454.269 3.81978 1.33698 0
M  V30 4737 H 451.024 4.71219 -0.474277 0
M  V30 4738 H 451.448 6.25308 -2.59459 0
M  V30 4739 H 456.09 4.19215 -0.549397 0
M  V30 4740 H 453.808 7.03558 -3.97533 0
M  V30 4741 H 457.394 5.33972 -2.31009 0
M  V30 4742 H 456.274 6.74498 -4.00027 0
M  V30 4743 N 453.777 0.010035 1.57597 0
M  V30 4744 C 455.025 -0.671371 1.90623 0
M  V30 4745 C 455.346 -1.73753 0.885151 0
M  V30 4746 O 454.616 -1.95752 -0.0760611 0
M  V30 4747 H 453.196 -0.250968 0.703579 0
M  V30 4748 H 455.858 0.0533325 1.94827 0
M  V30 4749 H 454.954 -1.13626 2.90681 0
M  V30 4750 N 455.255 -1.55392 -0.262866 0
M  V30 4751 C 456.188 -1.8391 -1.35101 0
M  V30 4752 C 457.166 -0.692901 -1.47097 0
M  V30 4753 O 458.35 -0.936979 -1.63563 0
M  V30 4754 C 455.477 -2.00969 -2.72634 0
M  V30 4755 C 454.523 -3.23559 -2.7787 0
M  V30 4756 S 455.356 -4.80647 -2.3609 0
M  V30 4757 C 456.512 -5.00692 -3.75578 0
M  V30 4758 H 456.745 -2.75918 -1.1071 0
M  V30 4759 H 454.278 -1.47294 -0.463029 0
M  V30 4760 H 456.236 -2.11482 -3.51832 0
M  V30 4761 H 454.897 -1.09832 -2.94272 0
M  V30 4762 H 454.09 -3.32413 -3.78837 0
M  V30 4763 H 453.692 -3.11689 -2.06702 0
M  V30 4764 H 455.984 -4.87055 -4.70939 0
M  V30 4765 H 456.927 -6.02717 -3.71669 0
M  V30 4766 H 457.335 -4.28619 -3.6735 0
M  V30 4767 N 456.733 0.527833 -1.48498 0
M  V30 4768 C 457.681 1.65313 -1.63628 0
M  V30 4769 C 458.675 1.6177 -0.502676 0
M  V30 4770 O 459.881 1.66601 -0.681469 0
M  V30 4771 H 456.256 0.547518 -0.515488 0
M  V30 4772 H 458.227 1.49696 -2.58135 0
M  V30 4773 C 456.976 3.03576 -1.6952 0
M  V30 4774 H 456.299 3.06997 -2.56111 0
M  V30 4775 H 457.739 3.81923 -1.84149 0
M  V30 4776 C 456.198 3.34089 -0.43432 0
M  V30 4777 O 456.728 3.99151 0.451852 0
M  V30 4778 N 454.934 2.88991 -0.305368 0
M  V30 4779 H 454.481 2.36222 -1.02747 0
M  V30 4780 H 454.439 3.09776 0.537249 0
M  V30 4781 N 458.211 1.37122 0.776871 0
M  V30 4782 C 459.459 1.31787 1.53221 0
M  V30 4783 C 459.78 -0.0987589 1.9475 0
M  V30 4784 O 459.05 -1.0417 1.65908 0
M  V30 4785 H 457.63 0.484839 0.568278 0
M  V30 4786 H 460.292 1.71556 0.924917 0
M  V30 4787 H 459.388 1.95355 2.43398 0
M  V30 4788 N 459.689 -1.00246 1.21608 0
M  V30 4789 C 460.919 -1.77373 1.05935 0
M  V30 4790 C 461.327 -1.85059 -0.393686 0
M  V30 4791 O 460.67 -1.31289 -1.28487 0
M  V30 4792 C 460.732 -3.22705 1.58435 0
M  V30 4793 C 460.396 -3.38591 3.06929 0
M  V30 4794 C 461.393 -3.2667 4.04454 0
M  V30 4795 C 459.078 -3.6395 3.46187 0
M  V30 4796 C 461.072 -3.39877 5.39224 0
M  V30 4797 C 458.759 -3.768 4.81108 0
M  V30 4798 C 459.757 -3.6477 5.77436 0
M  V30 4799 O 459.445 -3.77206 7.09909 0
M  V30 4800 H 459.177 -0.56419 0.372378 0
M  V30 4801 H 461.731 -1.26971 1.61454 0
M  V30 4802 H 459.961 -3.74255 0.973147 0
M  V30 4803 H 461.65 -3.81515 1.38568 0
M  V30 4804 H 462.416 -3.06999 3.75468 0
M  V30 4805 H 458.295 -3.72395 2.71741 0
M  V30 4806 H 461.839 -3.30404 6.14393 0
M  V30 4807 H 457.736 -3.95975 5.09779 0
M  V30 4808 H 458.504 -3.94138 7.17355 0
M  V30 4809 N 461.167 -1.02423 -1.1978 0
M  V30 4810 C 462.414 -0.717988 -1.89344 0
M  V30 4811 C 462.742 0.753036 -1.79331 0
M  V30 4812 O 461.997 1.56355 -1.17692 0
M  V30 4813 C 462.296 -1.1088 -3.39765 0
M  V30 4814 C 461.962 -2.57731 -3.6998 0
M  V30 4815 C 460.624 -2.97854 -3.77937 0
M  V30 4816 C 462.976 -3.52763 -3.83677 0
M  V30 4817 C 460.304 -4.31931 -3.97054 0
M  V30 4818 C 462.656 -4.86538 -4.04306 0
M  V30 4819 C 461.32 -5.26356 -4.10494 0
M  V30 4820 H 460.59 -0.26273 -0.692859 0
M  V30 4821 H 463.237 -1.28623 -1.41875 0
M  V30 4822 H 461.542 -0.459094 -3.89101 0
M  V30 4823 H 463.239 -0.849432 -3.919 0
M  V30 4824 H 459.829 -2.25646 -3.64393 0
M  V30 4825 H 464.013 -3.2292 -3.76877 0
M  V30 4826 H 459.269 -4.62324 -4.00083 0
M  V30 4827 H 463.443 -5.60093 -4.13846 0
M  V30 4828 H 461.07 -6.3026 -4.2506 0
M  V30 4829 N 462.645 1.35699 -0.801477 0
M  V30 4830 C 463.575 2.32436 -0.222658 0
M  V30 4831 C 464.556 1.5723 0.649057 0
M  V30 4832 O 465.741 1.85324 0.580387 0
M  V30 4833 C 462.871 3.41469 0.633719 0
M  V30 4834 C 461.825 4.27774 -0.139083 0
M  V30 4835 C 461.151 5.28082 0.838666 0
M  V30 4836 C 462.451 5.04946 -1.33517 0
M  V30 4837 H 464.145 2.81094 -1.03086 0
M  V30 4838 H 461.691 1.35146 -0.497155 0
M  V30 4839 H 463.644 4.08143 1.04868 0
M  V30 4840 H 462.368 2.91408 1.47475 0
M  V30 4841 H 461.027 3.62673 -0.535156 0
M  V30 4842 H 460.675 4.7429 1.67506 0
M  V30 4843 H 460.375 5.86695 0.32594 0
M  V30 4844 H 461.899 5.97628 1.25194 0
M  V30 4845 H 463.313 5.64593 -0.995349 0
M  V30 4846 H 461.71 5.7303 -1.78202 0
M  V30 4847 H 462.78 4.35886 -2.12442 0
M  V30 4848 N 464.123 0.554532 1.47522 0
M  V30 4849 C 465.372 0.0273458 2.01681 0
M  V30 4850 C 465.685 -1.32962 1.43459 0
M  V30 4851 O 466.891 -1.94657 1.89265 0
M  V30 4852 C 465.347 -0.00159057 3.599 0
M  V30 4853 C 464.955 1.35197 4.27113 0
M  V30 4854 C 466.699 -0.476311 4.21819 0
M  V30 4855 C 464.606 1.28229 5.77331 0
M  V30 4856 H 463.536 0.00645269 0.753972 0
M  V30 4857 H 466.187 0.701985 1.69542 0
M  V30 4858 H 464.569 -0.741821 3.8899 0
M  V30 4859 H 465.743 2.1097 4.09668 0
M  V30 4860 H 464.058 1.76441 3.77171 0
M  V30 4861 H 466.655 -0.5468 5.31897 0
M  V30 4862 H 466.998 -1.4877 3.8881 0
M  V30 4863 H 467.531 0.20898 3.97251 0
M  V30 4864 H 464.27 2.26959 6.14955 0
M  V30 4865 H 463.79 0.566314 5.97121 0
M  V30 4866 H 465.469 0.983226 6.39485 0
M  V30 4867 N 465.601 -1.54893 0.290851 0
M  V30 4868 C 466.511 -2.26812 -0.59945 0
M  V30 4869 C 467.527 -1.29963 -1.15696 0
M  V30 4870 O 468.703 -1.62928 -1.18391 0
M  V30 4871 C 465.768 -2.98716 -1.75982 0
M  V30 4872 C 464.829 -4.1108 -1.2374 0
M  V30 4873 C 464.062 -4.79546 -2.34246 0
M  V30 4874 O 464.285 -4.47309 -3.53936 0
M  V30 4875 O 463.219 -5.67165 -2.01512 0
M  V30 4876 H 467.045 -3.03696 -0.0163561 0
M  V30 4877 H 464.63 -1.49289 0.0576755 0
M  V30 4878 H 466.512 -3.43851 -2.43607 0
M  V30 4879 H 465.187 -2.24737 -2.3297 0
M  V30 4880 H 464.094 -3.70367 -0.527163 0
M  V30 4881 H 465.427 -4.87007 -0.71307 0
M  V30 4882 N 467.08 -0.0183926 -1.57589 0
M  V30 4883 C 468.496 0.337897 -1.55982 0
M  V30 4884 C 468.696 1.73604 -1.02294 0
M  V30 4885 O 467.752 2.43589 -0.664895 0
M  V30 4886 C 469.065 0.196305 -3.00059 0
M  V30 4887 C 470.613 0.269875 -3.11834 0
M  V30 4888 C 471.088 0.157197 -4.5773 0
M  V30 4889 N 472.579 0.214521 -4.62703 0
M  V30 4890 C 473.314 0.150955 -5.73201 0
M  V30 4891 N 472.81 0.0369212 -6.9279 0
M  V30 4892 N 474.603 0.204162 -5.61729 0
M  V30 4893 H 466.754 -0.93279 -1.90821 0
M  V30 4894 H 469.017 -0.359253 -0.877292 0
M  V30 4895 H 468.723 -0.766383 -3.43248 0
M  V30 4896 H 468.597 0.970908 -3.6449 0
M  V30 4897 H 470.984 1.22302 -2.68563 0
M  V30 4898 H 471.065 -0.534918 -2.50144 0
M  V30 4899 H 470.709 -0.792479 -5.01679 0
M  V30 4900 H 470.639 0.980717 -5.17387 0
M  V30 4901 H 473.13 0.303238 -3.76681 0
M  V30 4902 H 473.443 -0.00518321 -7.728 0
M  V30 4903 H 471.788 0.0022886 -6.95 0
M  V30 4904 H 474.979 0.291575 -4.67191 0
M  V30 4905 H 475.152 0.15116 -6.47824 0
M  V30 4906 N 468.558 1.5553 0.254621 0
M  V30 4907 C 469.806 1.7665 0.981793 0
M  V30 4908 C 470.127 0.580963 1.86145 0
M  V30 4909 O 469.397 -0.403537 1.91699 0
M  V30 4910 H 467.977 0.651475 0.365498 0
M  V30 4911 H 470.639 1.92958 0.274426 0
M  V30 4912 H 469.735 2.67486 1.60802 0
M  V30 4913 N 470.036 -0.519951 1.48776 0
M  V30 4914 C 470.983 -1.62352 1.64044 0
M  V30 4915 C 471.953 -1.58945 0.482251 0
M  V30 4916 O 473.138 -1.77219 0.706971 0
M  V30 4917 C 470.278 -3.00579 1.69547 0
M  V30 4918 C 469.391 -3.14145 2.96541 0
M  V30 4919 C 468.526 -4.42991 2.93142 0
M  V30 4920 C 467.565 -4.50122 4.14797 0
M  V30 4921 N 466.702 -5.7037 4.09418 0
M  V30 4922 H 471.542 -1.48643 2.58281 0
M  V30 4923 H 469.079 -0.723516 1.28077 0
M  V30 4924 H 471.037 -3.80671 1.70719 0
M  V30 4925 H 469.667 -3.13036 0.787918 0
M  V30 4926 H 468.719 -2.27239 3.05068 0
M  V30 4927 H 470.031 -3.15275 3.86527 0
M  V30 4928 H 469.185 -5.31385 2.92772 0
M  V30 4929 H 467.924 -4.44398 2.00902 0
M  V30 4930 H 466.929 -3.60133 4.15433 0
M  V30 4931 H 468.154 -4.50445 5.08208 0
M  V30 4932 H 466.1 -5.72655 3.20004 0
M  V30 4933 H 466.017 -5.73036 4.93119 0
M  V30 4934 H 467.285 -6.61023 4.13121 0
M  V30 4935 N 471.514 -1.37532 -0.769588 0
M  V30 4936 C 472.462 -1.33561 -1.90432 0
M  V30 4937 C 473.456 -0.224027 -1.67912 0
M  V30 4938 O 474.662 -0.392174 -1.75676 0
M  V30 4939 H 471.037 -0.416279 -0.626271 0
M  V30 4940 H 473.008 -2.29348 -1.90899 0
M  V30 4941 C 471.757 -1.16162 -3.27722 0
M  V30 4942 H 471.08 -2.00951 -3.45628 0
M  V30 4943 H 472.52 -1.17434 -4.07413 0
M  V30 4944 C 470.979 0.132583 -3.36639 0
M  V30 4945 O 471.509 1.11539 -3.85904 0
M  V30 4946 N 469.715 0.184013 -2.90017 0
M  V30 4947 H 469.262 -0.616415 -2.50116 0
M  V30 4948 H 469.22 1.04956 -2.96364 0
M  V30 4949 N 472.992 0.995999 -1.22138 0
M  V30 4950 C 473.925 2.08302 -0.931952 0
M  V30 4951 C 474.903 1.62127 0.123956 0
M  V30 4952 O 476.087 1.88499 -0.00696004 0
M  V30 4953 C 473.214 3.36317 -0.401068 0
M  V30 4954 C 472.26 4.01413 -1.44117 0
M  V30 4955 S 473.093 4.42664 -3.01345 0
M  V30 4956 C 474.249 5.73853 -2.49887 0
M  V30 4957 H 474.482 2.32532 -1.85246 0
M  V30 4958 H 472.015 1.13005 -1.0521 0
M  V30 4959 H 473.973 4.10375 -0.101352 0
M  V30 4960 H 472.634 3.10123 0.498272 0
M  V30 4961 H 471.827 4.9358 -1.01952 0
M  V30 4962 H 471.429 3.33668 -1.68943 0
M  V30 4963 H 473.721 6.50039 -1.90934 0
M  V30 4964 H 474.664 6.20841 -3.40532 0
M  V30 4965 H 475.072 5.31105 -1.9128 0
M  V30 4966 N 474.47 1.03057 1.19235 0
M  V30 4967 C 475.71 0.736757 1.9066 0
M  V30 4968 C 476.074 -0.721521 1.77927 0
M  V30 4969 O 477.275 -1.12849 2.43964 0
M  V30 4970 C 475.546 1.17755 3.37444 0
M  V30 4971 S 477.105 1.00783 4.27069 0
M  V30 4972 H 473.923 0.268174 0.658486 0
M  V30 4973 H 476.525 1.32076 1.4414 0
M  V30 4974 H 475.229 2.23448 3.44237 0
M  V30 4975 H 474.76 0.586912 3.88997 0
M  V30 4976 H 476.775 -0.0806356 4.96134 0
M  V30 4977 N 475.948 -1.35272 0.808662 0
M  V30 4978 C 477.196 -1.98316 0.389233 0
M  V30 4979 C 477.517 -1.64465 -1.04767 0
M  V30 4980 O 476.787 -0.928175 -1.72516 0
M  V30 4981 H 475.367 -0.733585 0.140935 0
M  V30 4982 H 478.029 -1.6515 1.03496 0
M  V30 4983 H 477.125 -3.08123 0.496631 0
M  V30 4984 N 477.426 -0.562348 -1.47226 0
M  V30 4985 C 478.356 0.170627 -2.32876 0
M  V30 4986 C 479.337 0.903748 -1.44106 0
M  V30 4987 O 480.522 0.883206 -1.72954 0
M  V30 4988 C 477.652 1.19786 -3.25989 0
M  V30 4989 C 476.606 0.580875 -4.2404 0
M  V30 4990 C 475.932 1.71311 -5.06514 0
M  V30 4991 C 477.232 -0.468714 -5.20193 0
M  V30 4992 H 478.926 -0.544441 -2.94408 0
M  V30 4993 H 476.472 -0.263271 -1.41573 0
M  V30 4994 H 478.425 1.71884 -3.84752 0
M  V30 4995 H 477.149 1.94294 -2.62521 0
M  V30 4996 H 475.808 0.0811538 -3.6651 0
M  V30 4997 H 475.456 2.44736 -4.39447 0
M  V30 4998 H 475.156 1.30604 -5.72902 0
M  V30 4999 H 476.68 2.23725 -5.68137 0
M  V30 5000 H 478.094 -0.0336028 -5.7329 0
M  V30 5001 H 476.491 -0.794957 -5.94811 0
M  V30 5002 H 477.561 -1.36269 -4.65359 0
M  V30 5003 N 478.904 1.54736 -0.299062 0
M  V30 5004 C 479.867 2.22127 0.565012 0
M  V30 5005 C 480.867 1.20669 1.06281 0
M  V30 5006 O 482.057 1.45417 0.959145 0
M  V30 5007 C 479.189 2.90611 1.78208 0
M  V30 5008 H 480.382 2.99891 -0.0237448 0
M  V30 5009 H 477.935 1.5622 -0.0498788 0
M  V30 5010 H 478.67 2.16921 2.41072 0
M  V30 5011 H 478.455 3.64984 1.43281 0
M  V30 5012 H 479.945 3.42026 2.396 0
M  V30 5013 N 480.382 0.0267497 1.57577 0
M  V30 5014 C 481.345 -0.940916 2.08996 0
M  V30 5015 C 482.345 -1.25561 1.00455 0
M  V30 5016 O 483.535 -1.19634 1.26623 0
M  V30 5017 C 480.667 -2.25814 2.55384 0
M  V30 5018 H 481.86 -0.495628 2.95776 0
M  V30 5019 H 479.413 -0.221241 1.54726 0
M  V30 5020 H 480.148 -2.74976 1.71926 0
M  V30 5021 H 479.933 -2.04285 3.34679 0
M  V30 5022 H 481.423 -2.95178 2.95398 0
M  V30 5023 N 481.861 -1.55662 -0.24637 0
M  V30 5024 C 483.101 -1.79283 -0.981685 0
M  V30 5025 C 483.465 -0.596356 -1.82504 0
M  V30 5026 O 484.666 -0.711342 -2.59217 0
M  V30 5027 C 482.937 -3.07648 -1.819 0
M  V30 5028 S 484.496 -3.52491 -2.61334 0
M  V30 5029 H 481.314 -0.629676 -0.330196 0
M  V30 5030 H 483.916 -1.93901 -0.249498 0
M  V30 5031 H 482.62 -3.92794 -1.18915 0
M  V30 5032 H 482.151 -2.95768 -2.59393 0
M  V30 5033 H 484.166 -3.13866 -3.84321 0
M  V30 5034 N 483.339 0.512053 -1.4905 0
M  V30 5035 C 484.302 1.59704 -1.64399 0
M  V30 5036 C 485.302 1.52285 -0.516317 0
M  V30 5037 O 486.492 1.55635 -0.782527 0
M  V30 5038 C 483.624 2.9935 -1.63102 0
M  V30 5039 H 484.817 1.47428 -2.61161 0
M  V30 5040 H 482.37 0.735469 -1.37915 0
M  V30 5041 H 483.105 3.17116 -0.678836 0
M  V30 5042 H 482.89 3.06144 -2.44986 0
M  V30 5043 H 484.38 3.782 -1.77072 0
M  V30 5044 N 484.817 1.37938 0.762283 0
M  V30 5045 C 486.042 1.37059 1.55659 0
M  V30 5046 C 486.467 -0.0396123 1.88058 0
M  V30 5047 O 485.825 -1.01929 1.49934 0
M  V30 5048 C 485.873 2.22494 2.83776 0
M  V30 5049 O 484.977 1.63607 3.78559 0
M  V30 5050 H 484.318 0.467892 0.47114 0
M  V30 5051 H 486.848 1.81587 0.942725 0
M  V30 5052 H 486.858 2.36045 3.32786 0
M  V30 5053 H 485.533 3.24993 2.59524 0
M  V30 5054 H 484.11 1.5915 3.37233 0
M  V30 5055 N 486.295 -0.989507 1.22664 0
M  V30 5056 C 487.525 -1.7624 1.0781 0
M  V30 5057 C 487.933 -1.85466 -0.374036 0
M  V30 5058 O 487.276 -1.32645 -1.27087 0
M  V30 5059 C 487.338 -3.21007 1.61849 0
M  V30 5060 C 487.002 -3.35316 3.10503 0
M  V30 5061 C 487.999 -3.22362 4.07896 0
M  V30 5062 C 485.684 -3.60258 3.50028 0
M  V30 5063 C 487.678 -3.34139 5.42798 0
M  V30 5064 C 485.365 -3.71676 4.85078 0
M  V30 5065 C 486.363 -3.58625 5.81272 0
M  V30 5066 O 486.051 -3.69655 7.1387 0
M  V30 5067 H 485.783 -0.560209 0.378341 0
M  V30 5068 H 488.337 -1.25252 1.62792 0
M  V30 5069 H 486.567 -3.73202 1.01279 0
M  V30 5070 H 488.256 -3.80024 1.42606 0
M  V30 5071 H 489.022 -3.03 3.78703 0
M  V30 5072 H 484.901 -3.69492 2.75675 0
M  V30 5073 H 488.445 -3.23869 6.17863 0
M  V30 5074 H 484.342 -3.90545 5.1395 0
M  V30 5075 H 485.11 -3.86507 7.21495 0
M  V30 5076 N 487.773 -1.03688 -1.18687 0
M  V30 5077 C 489.184 -0.766488 -1.70241 0
M  V30 5078 C 489.535 0.713052 -1.82784 0
M  V30 5079 O 488.66 1.55529 -1.50465 0
M  V30 5080 C 489.255 -1.38475 -3.09209 0
M  V30 5081 C 487.814 -1.16276 -3.5799 0
M  V30 5082 C 486.961 -1.4778 -2.34641 0
M  V30 5083 H 489.912 -1.20378 -1.03415 0
M  V30 5084 H 489.933 -0.785939 -3.72295 0
M  V30 5085 H 489.445 -2.46157 -3.00048 0
M  V30 5086 H 487.546 -0.104508 -3.72453 0
M  V30 5087 H 487.659 -1.8571 -4.41643 0
M  V30 5088 H 486.023 -0.897366 -2.38368 0
M  V30 5089 H 486.806 -2.56562 -2.28102 0
M  V30 5090 N 489.251 1.34841 -0.815825 0
M  V30 5091 C 490.5 1.97755 -0.396976 0
M  V30 5092 C 490.813 1.65422 1.04379 0
M  V30 5093 O 492.019 2.21771 1.5662 0
M  V30 5094 C 490.475 3.53818 -0.658869 0
M  V30 5095 C 490.083 3.95051 -2.11278 0
M  V30 5096 C 491.827 4.23397 -0.305834 0
M  V30 5097 C 489.734 5.43997 -2.31994 0
M  V30 5098 H 488.664 0.739985 -0.1447 0
M  V30 5099 H 491.315 1.53781 -1.00118 0
M  V30 5100 H 489.697 3.95997 0.0154112 0
M  V30 5101 H 490.871 3.63998 -2.82564 0
M  V30 5102 H 489.186 3.38388 -2.42657 0
M  V30 5103 H 491.783 5.32899 -0.43854 0
M  V30 5104 H 492.126 4.09508 0.748952 0
M  V30 5105 H 492.659 3.8667 -0.934403 0
M  V30 5106 H 489.398 5.62865 -3.35952 0
M  V30 5107 H 488.918 5.76589 -1.65244 0
M  V30 5108 H 490.597 6.10584 -2.14001 0
M  V30 5109 N 490.729 0.570148 1.46925 0
M  V30 5110 C 492.14 0.1402 1.86173 0
M  V30 5111 C 492.491 -1.29347 1.47526 0
M  V30 5112 O 491.616 -1.97508 0.884292 0
M  V30 5113 C 492.211 0.247661 3.37894 0
M  V30 5114 C 490.77 -0.127332 3.76185 0
M  V30 5115 C 489.917 0.589349 2.70965 0
M  V30 5116 H 492.868 0.779117 1.38259 0
M  V30 5117 H 492.889 -0.530341 3.76786 0
M  V30 5118 H 492.401 1.29121 3.65991 0
M  V30 5119 H 490.502 -1.17149 3.53704 0
M  V30 5120 H 490.615 0.240238 4.78497 0
M  V30 5121 H 488.979 0.0309824 2.54681 0
M  V30 5122 H 489.762 1.6343 3.01903 0
M  V30 5123 N 492.207 -1.54576 0.307264 0
M  V30 5124 C 493.137 -2.26708 -0.55907 0
M  V30 5125 C 494.118 -1.26893 -1.1328 0
M  V30 5126 O 495.303 -1.55677 -1.16097 0
M  V30 5127 C 492.433 -3.01259 -1.72801 0
M  V30 5128 C 491.387 -4.08275 -1.28435 0
M  V30 5129 C 490.713 -4.70575 -2.53895 0
M  V30 5130 C 492.013 -5.2068 -0.411038 0
M  V30 5131 H 493.707 -2.9937 0.042576 0
M  V30 5132 H 491.253 -1.43983 0.0219173 0
M  V30 5133 H 493.206 -3.50444 -2.34023 0
M  V30 5134 H 491.93 -2.26187 -2.356 0
M  V30 5135 H 490.589 -3.59949 -0.695161 0
M  V30 5136 H 490.237 -3.92136 -3.15021 0
M  V30 5137 H 489.937 -5.42854 -2.24908 0
M  V30 5138 H 491.461 -5.22527 -3.15908 0
M  V30 5139 H 492.875 -5.65721 -0.929097 0
M  V30 5140 H 491.272 -5.99716 -0.214664 0
M  V30 5141 H 492.342 -4.81629 0.562287 0
M  V30 5142 N 493.685 -0.035106 -1.57561 0
M  V30 5143 C 494.931 0.64318 -1.92331 0
M  V30 5144 C 495.264 1.71434 -0.912368 0
M  V30 5145 O 494.539 1.94395 0.0640303 0
M  V30 5146 C 494.822 1.25411 -3.37556 0
M  V30 5147 C 494.675 0.192109 -4.4939 0
M  V30 5148 C 495.994 2.17041 -3.82859 0
M  V30 5149 H 493.113 0.232341 -0.699419 0
M  V30 5150 H 495.755 -0.0935889 -1.89769 0
M  V30 5151 H 493.905 1.88205 -3.39869 0
M  V30 5152 H 495.577 -0.438849 -4.59208 0
M  V30 5153 H 493.82 -0.481725 -4.31117 0
M  V30 5154 H 494.491 0.659292 -5.48049 0
M  V30 5155 H 496.967 1.64228 -3.8232 0
M  V30 5156 H 495.843 2.56738 -4.85157 0
M  V30 5157 H 496.104 3.06401 -3.18702 0
M  V30 5158 O 495.202 1.61149 0.106394 0
M  V30 5159 H 495.893 1.7916 0.736293 0
M  V30 END ATOM
M  V30 BEGIN BOND
M  V30 END BOND
M  V30 END CTAB
M  END
$$$$
