drugbank_target|Q96RD7 Pannexin-1 (DB01032)
 OpenBabel12092120373D

  0  0  0     0  0            999 V3000
M  V30 BEGIN CTAB
M  V30 COUNTS 6833 6903 0 0 0
M  V30 BEGIN ATOM
M  V30 1 H -0.908 1.98254 -0.117106 0
M  V30 2 N 0 1.576 0 0
M  V30 3 C 0.933 2.03868 1.02534 0
M  V30 4 C 1.911 0.928543 1.3348 0
M  V30 5 O 3.095 1.19667 1.45644 0
M  V30 6 C 0.222 2.43627 2.35294 0
M  V30 7 C -0.732 3.65373 2.2001 0
M  V30 8 S 0.101 5.13292 1.52614 0
M  V30 9 C 1.257 5.56322 2.86805 0
M  V30 10 H 1.49 2.90518 0.631377 0
M  V30 11 H -0.977 1.52953 0.210867 0
M  V30 12 H 0.981 2.67203 3.11629 0
M  V30 13 H -0.358 1.57376 2.7183 0
M  V30 14 H -1.165 3.90944 3.18086 0
M  V30 15 H -1.563 3.418 1.51819 0
M  V30 16 H 0.729 5.58782 3.83104 0
M  V30 17 H 1.672 6.56266 2.65933 0
M  V30 18 H 2.08 4.83886 2.90714 0
M  V30 19 N 1.4781 -0.272755 1.55222 0
M  V30 20 C 2.4411 -1.32041 1.87344 0
M  V30 21 C 3.4411 -1.42342 0.74803 0
M  V30 22 O 4.6311 -1.41488 1.0162 0
M  V30 23 C 1.7631 -2.70173 2.07893 0
M  V30 24 H 2.9561 -1.04789 2.80997 0
M  V30 25 H 0.5091 -0.51083 1.47717 0
M  V30 26 H 1.2441 -3.02605 1.16622 0
M  V30 27 H 1.0291 -2.64082 2.89833 0
M  V30 28 H 2.5191 -3.45869 2.34017 0
M  V30 29 N 2.9562 -1.48159 -0.537278 0
M  V30 30 C 4.2052 -1.5506 -1.28993 0
M  V30 31 C 4.5182 -0.226211 -1.94288 0
M  V30 32 O 5.7242 -0.173395 -2.70946 0
M  V30 33 C 4.1802 -2.73429 -2.34018 0
M  V30 34 C 3.7882 -4.1248 -1.74825 0
M  V30 35 C 5.5322 -2.89638 -3.10339 0
M  V30 36 C 3.4392 -5.22121 -2.77747 0
M  V30 37 H 2.3692 -0.577231 -0.485098 0
M  V30 38 H 5.0202 -1.74478 -0.568317 0
M  V30 39 H 3.4022 -2.47431 -3.09182 0
M  V30 40 H 4.5762 -4.48466 -1.05899 0
M  V30 41 H 2.8912 -4.01327 -1.11022 0
M  V30 42 H 5.4882 -3.68718 -3.87235 0
M  V30 43 H 5.8312 -1.9882 -3.65754 0
M  V30 44 H 6.3642 -3.15502 -2.42288 0
M  V30 45 H 3.1032 -6.1488 -2.27161 0
M  V30 46 H 2.6232 -4.90631 -3.45024 0
M  V30 47 H 4.3022 -5.49924 -3.4087 0
M  V30 48 N 4.4343 0.785586 -1.36625 0
M  V30 49 C 5.3973 1.87999 -1.31107 0
M  V30 50 C 6.3973 1.59316 -0.217959 0
M  V30 51 O 7.5873 1.67656 -0.472977 0
M  V30 52 C 4.7193 3.24861 -1.03334 0
M  V30 53 H 5.9123 1.94307 -2.2844 0
M  V30 54 H 3.4653 0.983813 -1.21453 0
M  V30 55 H 4.2003 3.24235 -0.0647432 0
M  V30 56 H 3.9853 3.4707 -1.82441 0
M  V30 57 H 5.4753 4.04929 -1.02088 0
M  V30 58 N 5.9124 1.20967 1.01018 0
M  V30 59 C 6.8444 0.922059 2.09835 0
M  V30 60 C 7.8574 -0.0927106 1.62536 0
M  V30 61 O 9.0464 0.139127 1.77957 0
M  V30 62 C 6.1464 0.362004 3.36961 0
M  V30 63 C 5.3194 1.42986 4.13369 0
M  V30 64 C 4.3784 0.879976 5.1879 0
M  V30 65 O 3.4044 1.56219 5.47343 0
M  V30 66 N 4.6064 -0.307396 5.79686 0
M  V30 67 H 7.3714 1.8588 2.35093 0
M  V30 68 H 4.9324 1.11422 1.1746 0
M  V30 69 H 6.9244 -0.0201474 4.04695 0
M  V30 70 H 5.4944 -0.479437 3.08902 0
M  V30 71 H 4.7144 1.98608 3.40512 0
M  V30 72 H 6.0024 2.14885 4.61196 0
M  V30 73 H 5.4004 -0.878796 5.58832 0
M  V30 74 H 3.9574 -0.631115 6.48737 0
M  V30 75 N 7.3905 -1.2043 1.01659 0
M  V30 76 C 8.3205 -2.25466 0.607226 0
M  V30 77 C 9.3015 -1.65853 -0.377716 0
M  V30 78 O 10.4865 -1.92409 -0.263149 0
M  V30 79 C 7.6165 -3.47256 -0.0552949 0
M  V30 80 C 6.5705 -4.19462 0.850632 0
M  V30 81 C 5.8965 -5.34673 0.0538859 0
M  V30 82 C 7.1965 -4.75603 2.15868 0
M  V30 83 H 8.8905 -2.59962 1.48526 0
M  V30 84 H 6.4365 -1.2496 0.715605 0
M  V30 85 H 8.3895 -4.19917 -0.353233 0
M  V30 86 H 7.1135 -3.11924 -0.968045 0
M  V30 87 H 5.7725 -3.48667 1.13257 0
M  V30 88 H 5.4205 -4.95585 -0.860514 0
M  V30 89 H 5.1205 -5.83913 0.657192 0
M  V30 90 H 6.6445 -6.10138 -0.237598 0
M  V30 91 H 8.0585 -5.40083 1.92311 0
M  V30 92 H 6.4555 -5.3528 2.71284 0
M  V30 93 H 7.5255 -3.94346 2.82169 0
M  V30 94 N 8.8686 -0.792821 -1.36206 0
M  V30 95 C 9.8316 -0.199459 -2.2833 0
M  V30 96 C 10.8316 0.605189 -1.48977 0
M  V30 97 O 12.0216 0.425685 -1.68919 0
M  V30 98 C 9.1536 0.723523 -3.33134 0
M  V30 99 H 10.3466 -1.01181 -2.82316 0
M  V30 100 H 7.8996 -0.562485 -1.45828 0
M  V30 101 H 8.6346 1.56008 -2.84309 0
M  V30 102 H 8.4196 0.148436 -3.91819 0
M  V30 103 H 9.9096 1.13344 -4.01924 0
M  V30 104 N 10.3467 1.47872 -0.545128 0
M  V30 105 C 11.5747 2.06889 -0.021084 0
M  V30 106 C 11.9897 1.39955 1.2672 0
M  V30 107 O 11.3467 0.492036 1.75742 0
M  V30 108 C 11.3977 3.60996 0.190817 0
M  V30 109 O 11.1187 4.25419 -1.04644 0
M  V30 110 C 12.6197 4.36849 0.753521 0
M  V30 111 H 9.8397 0.669785 -0.0403635 0
M  V30 112 H 12.3837 1.90049 -0.755095 0
M  V30 113 H 10.5387 3.77391 0.87492 0
M  V30 114 H 10.9527 5.17785 -0.836611 0
M  V30 115 H 12.4267 5.45399 0.851139 0
M  V30 116 H 12.9037 4.02306 1.762 0
M  V30 117 H 13.5097 4.25169 0.105503 0
M  V30 118 N 11.8248 0.280983 1.55075 0
M  V30 119 C 12.7348 -0.61388 2.26426 0
M  V30 120 C 13.7508 -1.16521 1.29224 0
M  V30 121 O 14.9268 -1.19426 1.62171 0
M  V30 122 C 11.9918 -1.7788 2.9759 0
M  V30 123 C 11.0528 -1.26355 4.10284 0
M  V30 124 C 10.2858 -2.37295 4.78045 0
M  V30 125 O 10.5088 -3.56777 4.45047 0
M  V30 126 O 9.4428 -2.05119 5.65871 0
M  V30 127 H 13.2688 -0.0356932 3.03679 0
M  V30 128 H 10.8538 0.0481686 1.49322 0
M  V30 129 H 12.7358 -2.45791 3.42293 0
M  V30 130 H 11.4108 -2.34397 2.23249 0
M  V30 131 H 10.3178 -0.550735 3.70024 0
M  V30 132 H 11.6508 -0.744065 4.86543 0
M  V30 133 N 13.3029 -1.57598 0.00835791 0
M  V30 134 C 14.5329 -1.94931 -0.684496 0
M  V30 135 C 14.9409 -0.882233 -1.67372 0
M  V30 136 O 14.2839 0.146621 -1.83114 0
M  V30 137 C 14.3459 -3.283 -1.4649 0
M  V30 138 C 14.0099 -4.52548 -0.63634 0
M  V30 139 C 15.0069 -5.19839 0.0795586 0
M  V30 140 C 12.6919 -4.98942 -0.579849 0
M  V30 141 C 14.6859 -6.3183 0.840843 0
M  V30 142 C 12.3729 -6.10819 0.185155 0
M  V30 143 C 13.3709 -6.77121 0.894227 0
M  V30 144 O 13.0589 -7.86853 1.64673 0
M  V30 145 H 12.7909 -0.647249 -0.19505 0
M  V30 146 H 15.3449 -2.05318 0.0581272 0
M  V30 147 H 13.5749 -3.14345 -2.2522 0
M  V30 148 H 15.2639 -3.50685 -2.04389 0
M  V30 149 H 16.0299 -4.84979 0.0451202 0
M  V30 150 H 11.9089 -4.47155 -1.1213 0
M  V30 151 H 15.4529 -6.83513 1.39483 0
M  V30 152 H 11.3499 -6.4512 0.221384 0
M  V30 153 H 12.1179 -8.03412 1.56432 0
M  V30 154 N 14.781 0.264519 -1.55364 0
M  V30 155 C 16.027 0.99646 -1.76631 0
M  V30 156 C 16.36 1.85632 -0.570478 0
M  V30 157 O 15.635 1.89647 0.43175 0
M  V30 158 C 15.918 1.87187 -3.07625 0
M  V30 159 C 15.771 1.04138 -4.37579 0
M  V30 160 C 17.09 2.85749 -3.34717 0
M  V30 161 H 14.209 0.360841 -0.642622 0
M  V30 162 H 16.851 0.268218 -1.88097 0
M  V30 163 H 15.001 2.49279 -2.9798 0
M  V30 164 H 16.673 0.440517 -4.59192 0
M  V30 165 H 14.916 0.345115 -4.32425 0
M  V30 166 H 15.587 1.68729 -5.2558 0
M  V30 167 H 18.063 2.33793 -3.4421 0
M  V30 168 H 16.939 3.44136 -4.27623 0
M  V30 169 H 17.2 3.61311 -2.54768 0
M  V30 170 N 16.2591 1.48442 0.529413 0
M  V30 171 C 17.5061 1.56488 1.28521 0
M  V30 172 C 17.8341 0.239042 1.93025 0
M  V30 173 O 17.0891 -0.770713 1.79885 0
M  V30 174 C 17.3881 2.6523 2.39558 0
M  V30 175 C 17.0541 4.07648 1.92702 0
M  V30 176 C 15.7161 4.46411 1.79641 0
M  V30 177 C 18.0681 4.96896 1.573 0
M  V30 178 C 15.3961 5.72226 1.29514 0
M  V30 179 C 17.7481 6.23202 1.08636 0
M  V30 180 C 16.4121 6.60821 0.941919 0
M  V30 181 H 15.6821 0.572631 0.470292 0
M  V30 182 H 18.3291 1.82161 0.59072 0
M  V30 183 H 16.6341 2.33419 3.14679 0
M  V30 184 H 18.3311 2.68671 2.97686 0
M  V30 185 H 14.9211 3.77036 2.03819 0
M  V30 186 H 19.1051 4.67626 1.66251 0
M  V30 187 H 14.3611 6.00097 1.17019 0
M  V30 188 H 18.5351 6.91753 0.803136 0
M  V30 189 H 16.1621 7.58198 0.5513 0
M  V30 190 N 17.7372 -0.778329 1.37039 0
M  V30 191 C 18.9622 -1.57248 1.35233 0
M  V30 192 C 19.3872 -1.87999 -0.0615568 0
M  V30 193 O 18.7452 -1.48734 -1.03672 0
M  V30 194 C 18.7932 -2.86353 2.19167 0
M  V30 195 O 17.8972 -3.80442 1.59178 0
M  V30 196 H 17.2382 -0.476569 0.462362 0
M  V30 197 H 19.7682 -0.963853 1.80474 0
M  V30 198 H 19.7782 -3.35519 2.32145 0
M  V30 199 H 18.4532 -2.63299 3.21942 0
M  V30 200 H 17.0302 -3.39067 1.55203 0
M  V30 201 N 19.2153 -1.21501 -1.00376 0
M  V30 202 C 20.4923 -0.941745 -1.71437 0
M  V30 203 C 20.8723 0.546114 -2.03914 0
M  V30 204 O 20.2203 1.51128 -1.71384 0
M  V30 205 C 20.4303 -1.82812 -2.97289 0
M  V30 206 C 21.7783 -2.07771 -3.70292 0
M  V30 207 O 22.8023 -1.80171 -3.07273 0
M  V30 208 O 21.6613 -2.54456 -4.83647 0
M  V30 209 H 18.7553 -0.353243 -0.747762 0
M  V30 210 H 21.3013 -1.32436 -1.06108 0
M  V30 211 H 20.0733 -2.83501 -2.69709 0
M  V30 212 H 19.6963 -1.4464 -3.70358 0
M  V30 213 N 20.6934 1.19889 -1.02296 0
M  V30 214 C 21.9404 1.8942 -0.715972 0
M  V30 215 C 22.2684 1.79251 0.754944 0
M  V30 216 O 21.5234 1.17526 1.56481 0
M  V30 217 C 21.8224 3.39883 -1.10518 0
M  V30 218 C 21.4884 3.70254 -2.57337 0
M  V30 219 C 20.1504 3.78254 -2.97452 0
M  V30 220 C 22.5024 3.84052 -3.52354 0
M  V30 221 C 19.8304 3.97514 -4.31509 0
M  V30 222 C 22.1824 4.04824 -4.86108 0
M  V30 223 C 20.8464 4.11054 -5.25919 0
M  V30 224 H 20.1164 0.693138 -0.261993 0
M  V30 225 H 22.7634 1.42012 -1.28472 0
M  V30 226 H 21.0684 3.8915 -0.454953 0
M  V30 227 H 22.7654 3.9199 -0.845261 0
M  V30 228 H 19.3554 3.64632 -2.25258 0
M  V30 229 H 23.5394 3.77221 -3.22518 0
M  V30 230 H 18.7954 4.00574 -4.61898 0
M  V30 231 H 22.9694 4.14442 -5.59653 0
M  V30 232 H 20.5964 4.2573 -6.29808 0
M  V30 233 N 22.1715 0.800033 1.35784 0
M  V30 234 C 23.1015 0.220184 2.3246 0
M  V30 235 C 24.0825 -0.65073 1.57161 0
M  V30 236 O 25.2675 -0.582359 1.85263 0
M  V30 237 C 22.3975 -0.637353 3.41402 0
M  V30 238 C 21.3515 0.134531 4.27789 0
M  V30 239 C 20.6775 -0.844285 5.27992 0
M  V30 240 C 21.9775 1.32979 5.05088 0
M  V30 241 H 23.6715 1.02787 2.81203 0
M  V30 242 H 21.2175 0.495717 1.35199 0
M  V30 243 H 23.1705 -1.05302 4.08031 0
M  V30 244 H 21.8945 -1.47785 2.91251 0
M  V30 245 H 20.5535 0.531296 3.6273 0
M  V30 246 H 20.2015 -1.68011 4.74111 0
M  V30 247 H 19.9015 -0.332184 5.8666 0
M  V30 248 H 21.4255 -1.2583 5.97494 0
M  V30 249 H 22.8395 0.98934 5.64699 0
M  V30 250 H 21.2365 1.77593 5.7322 0
M  V30 251 H 22.3065 2.11978 4.36111 0
M  V30 252 N 23.6496 -1.47581 0.552962 0
M  V30 253 C 24.5796 -2.32762 -0.185451 0
M  V30 254 C 25.5606 -1.43527 -0.912905 0
M  V30 255 O 26.7456 -1.72388 -0.894201 0
M  V30 256 C 23.8756 -3.25219 -1.21859 0
M  V30 257 C 22.8296 -4.23661 -0.607864 0
M  V30 258 C 22.1556 -5.05413 -1.74533 0
M  V30 259 C 23.4556 -5.20481 0.435582 0
M  V30 260 H 25.1496 -2.94749 0.525684 0
M  V30 261 H 22.6956 -1.41738 0.254251 0
M  V30 262 H 24.6486 -3.8365 -1.7433 0
M  V30 263 H 23.3726 -2.61279 -1.95961 0
M  V30 264 H 22.0316 -3.66451 -0.104489 0
M  V30 265 H 21.6796 -4.3788 -2.47529 0
M  V30 266 H 21.3796 -5.72059 -1.34249 0
M  V30 267 H 22.9036 -5.66701 -2.27338 0
M  V30 268 H 24.3176 -5.733 -0.00290157 0
M  V30 269 H 22.7146 -5.95305 0.757067 0
M  V30 270 H 23.7846 -4.66217 1.33303 0
M  V30 271 N 25.1277 -0.289203 -1.54924 0
M  V30 272 C 26.0747 0.592115 -2.23075 0
M  V30 273 C 27.0447 1.13881 -1.20915 0
M  V30 274 O 28.2297 1.18551 -1.495 0
M  V30 275 C 25.3697 1.76376 -2.96623 0
M  V30 276 C 24.4827 1.24959 -4.13533 0
M  V30 277 C 23.6177 2.38416 -4.74691 0
M  V30 278 C 22.6567 1.84072 -5.83767 0
M  V30 279 N 21.7937 2.91057 -6.38929 0
M  V30 280 H 26.6337 0.00432038 -2.98 0
M  V30 281 H 24.1707 -0.00963529 -1.47097 0
M  V30 282 H 26.1287 2.45268 -3.3749 0
M  V30 283 H 24.7587 2.32337 -2.24097 0
M  V30 284 H 23.8107 0.453307 -3.77689 0
M  V30 285 H 25.1227 0.811662 -4.92152 0
M  V30 286 H 24.2767 3.15276 -5.18349 0
M  V30 287 H 23.0157 2.8553 -3.95378 0
M  V30 288 H 22.0207 1.05697 -5.39545 0
M  V30 289 H 23.2457 1.37877 -6.64956 0
M  V30 290 H 21.1917 3.37526 -5.62505 0
M  V30 291 H 21.1087 2.51724 -7.12861 0
M  V30 292 H 22.3767 3.6785 -6.87246 0
M  V30 293 N 26.6058 1.57591 -0.0167156 0
M  V30 294 C 27.5158 2.1291 0.98521 0
M  V30 295 C 28.5318 1.07834 1.36557 0
M  V30 296 O 29.7078 1.39826 1.44951 0
M  V30 297 C 26.7728 2.63512 2.25305 0
M  V30 298 C 25.8338 3.83256 1.93426 0
M  V30 299 C 25.0668 4.31435 3.14165 0
M  V30 300 O 25.2898 3.78851 4.26413 0
M  V30 301 O 24.2238 5.23416 2.97186 0
M  V30 302 H 28.0498 2.98772 0.544888 0
M  V30 303 H 25.6348 1.48012 0.203141 0
M  V30 304 H 27.5168 2.96183 2.99756 0
M  V30 305 H 26.1918 1.8074 2.68542 0
M  V30 306 H 25.0988 3.55531 1.16398 0
M  V30 307 H 26.4318 4.67153 1.55013 0
M  V30 308 N 28.0839 -0.256276 1.55502 0
M  V30 309 C 29.4949 -0.826068 1.67431 0
M  V30 310 C 29.8459 -1.86396 0.612446 0
M  V30 311 O 28.9709 -2.15031 -0.243025 0
M  V30 312 C 29.5659 -1.50512 3.03532 0
M  V30 313 C 28.1249 -2.02273 3.17431 0
M  V30 314 C 27.2719 -0.870548 2.63281 0
M  V30 315 H 30.2229 -0.0322728 1.58667 0
M  V30 316 H 30.2439 -2.37279 2.97454 0
M  V30 317 H 29.7559 -0.749484 3.80794 0
M  V30 318 H 27.8569 -2.80746 2.44974 0
M  V30 319 H 27.9699 -2.22655 4.24219 0
M  V30 320 H 26.3339 -1.26851 2.20864 0
M  V30 321 H 27.1169 -0.128149 3.43061 0
M  V30 322 N 29.562 -1.4872 -0.521534 0
M  V30 323 C 30.79 -1.60843 -1.30142 0
M  V30 324 C 31.205 -0.271897 -1.86832 0
M  V30 325 O 30.562 0.739969 -1.66825 0
M  V30 326 C 30.613 -2.66155 -2.4463 0
M  V30 327 O 30.334 -3.94623 -1.90275 0
M  V30 328 C 31.835 -2.88795 -3.36322 0
M  V30 329 H 29.055 -0.542075 -0.395468 0
M  V30 330 H 31.599 -1.94609 -0.628285 0
M  V30 331 H 29.754 -2.35224 -3.07812 0
M  V30 332 H 30.168 -4.52468 -2.65279 0
M  V30 333 H 31.642 -3.66264 -4.12983 0
M  V30 334 H 32.119 -1.97934 -3.9207 0
M  V30 335 H 32.725 -3.21063 -2.78924 0
M  V30 336 N 31.0401 0.771051 -1.3745 0
M  V30 337 C 31.9501 1.91538 -1.35464 0
M  V30 338 C 32.9661 1.72134 -0.254123 0
M  V30 339 O 34.1421 1.95358 -0.489626 0
M  V30 340 C 31.2071 3.26671 -1.16134 0
M  V30 341 C 30.2681 3.58723 -2.35831 0
M  V30 342 C 29.5011 4.87409 -2.17413 0
M  V30 343 O 29.7241 5.58506 -1.15876 0
M  V30 344 O 28.6581 5.18539 -3.05615 0
M  V30 345 H 32.4841 1.96165 -2.31847 0
M  V30 346 H 30.0691 0.9139 -1.18187 0
M  V30 347 H 31.9511 4.07499 -1.07345 0
M  V30 348 H 30.6261 3.22894 -0.228251 0
M  V30 349 H 29.5331 2.78127 -2.50192 0
M  V30 350 H 30.8661 3.67243 -3.27709 0
M  V30 351 N 32.5182 1.22032 0.997298 0
M  V30 352 C 33.9292 1.0397 1.55071 0
M  V30 353 C 34.2802 -0.398192 1.92117 0
M  V30 354 O 33.4052 -1.28254 1.74298 0
M  V30 355 C 34.0002 1.88109 2.81781 0
M  V30 356 C 32.5592 1.74357 3.33581 0
M  V30 357 C 31.7062 1.84846 2.06706 0
M  V30 358 H 34.6572 1.35941 0.818883 0
M  V30 359 H 34.6782 1.39589 3.53971 0
M  V30 360 H 34.1902 2.92754 2.54787 0
M  V30 361 H 32.2912 0.72427 3.65493 0
M  V30 362 H 32.4042 2.56772 4.04481 0
M  V30 363 H 30.7682 1.28238 2.20062 0
M  V30 364 H 31.5512 2.91014 1.82114 0
M  V30 365 N 33.9963 -1.19345 1.0293 0
M  V30 366 C 34.9433 -2.2258 0.610464 0
M  V30 367 C 35.9133 -1.6179 -0.375946 0
M  V30 368 O 37.0983 -1.88844 -0.272511 0
M  V30 369 C 34.2383 -3.45085 -0.0321473 0
M  V30 370 C 33.3513 -4.20258 1.00035 0
M  V30 371 C 32.4863 -5.3019 0.32746 0
M  V30 372 C 31.5253 -5.97121 1.34584 0
M  V30 373 N 30.6623 -6.98615 0.698726 0
M  V30 374 H 35.5023 -2.57764 1.49538 0
M  V30 375 H 33.0393 -1.26644 0.748311 0
M  V30 376 H 34.9973 -4.15061 -0.421966 0
M  V30 377 H 33.6273 -3.10555 -0.88064 0
M  V30 378 H 32.6793 -3.49223 1.50823 0
M  V30 379 H 33.9913 -4.66175 1.77433 0
M  V30 380 H 33.1453 -6.06587 -0.11718 0
M  V30 381 H 31.8843 -4.85345 -0.478713 0
M  V30 382 H 30.8893 -5.19474 1.80074 0
M  V30 383 H 32.1143 -6.4405 2.15352 0
M  V30 384 H 30.0603 -6.55942 -0.0873471 0
M  V30 385 H 29.9773 -7.42724 1.41058 0
M  V30 386 H 31.2453 -7.79004 0.278102 0
M  V30 387 N 35.4744 -0.807222 -1.35358 0
M  V30 388 C 36.7214 -0.387888 -1.9875 0
M  V30 389 C 37.0494 1.04509 -1.64037 0
M  V30 390 O 36.3044 1.73986 -0.895946 0
M  V30 391 C 36.6034 -0.519036 -3.53611 0
M  V30 392 C 36.2694 -1.91542 -4.08194 0
M  V30 393 C 34.9314 -2.29745 -4.22813 0
M  V30 394 C 37.2834 -2.82896 -4.37744 0
M  V30 395 C 34.6114 -3.58668 -4.643 0
M  V30 396 C 36.9634 -4.11265 -4.8067 0
M  V30 397 C 35.6274 -4.49466 -4.93494 0
M  V30 398 H 34.8974 -0.141938 -0.727279 0
M  V30 399 H 37.5444 -1.02814 -1.6156 0
M  V30 400 H 35.8494 0.204658 -3.91265 0
M  V30 401 H 37.5464 -0.175345 -4.00616 0
M  V30 402 H 34.1364 -1.60862 -3.97268 0
M  V30 403 H 38.3204 -2.54629 -4.26002 0
M  V30 404 H 33.5764 -3.88113 -4.72418 0
M  V30 405 H 37.7504 -4.82153 -5.02496 0
M  V30 406 H 35.3774 -5.49418 -5.25399 0
M  V30 407 N 36.9525 1.47285 -0.560781 0
M  V30 408 C 37.8995 2.30058 0.18491 0
M  V30 409 C 38.8695 1.39281 0.904986 0
M  V30 410 O 40.0545 1.68241 0.899979 0
M  V30 411 C 37.1945 3.23317 1.20666 0
M  V30 412 C 36.3075 4.29186 0.492285 0
M  V30 413 C 35.4425 5.09592 1.49964 0
M  V30 414 C 34.4815 6.07232 0.770439 0
M  V30 415 N 33.6185 6.80584 1.72479 0
M  V30 416 H 38.4585 2.93302 -0.527048 0
M  V30 417 H 35.9955 1.44568 -0.271738 0
M  V30 418 H 37.9535 3.75811 1.81168 0
M  V30 419 H 36.5835 2.61929 1.88661 0
M  V30 420 H 35.6355 3.7972 -0.227333 0
M  V30 421 H 36.9475 4.98738 -0.0787929 0
M  V30 422 H 36.1015 5.66254 2.17809 0
M  V30 423 H 34.8405 4.3995 2.10464 0
M  V30 424 H 33.8455 5.49745 0.0780846 0
M  V30 425 H 35.0705 6.78884 0.171134 0
M  V30 426 H 33.0165 6.1367 2.3183 0
M  V30 427 H 32.9335 7.46319 1.20596 0
M  V30 428 H 34.2015 7.41818 2.39428 0
M  V30 429 N 38.4306 0.297415 1.54768 0
M  V30 430 C 39.6786 -0.312295 1.99673 0
M  V30 431 C 39.9996 -1.54686 1.18732 0
M  V30 432 O 39.2696 -1.93854 0.282382 0
M  V30 433 H 37.8496 -0.118381 0.73756 0
M  V30 434 H 40.5116 0.407915 1.90583 0
M  V30 435 H 39.6076 -0.586813 3.06534 0
M  V30 436 N 39.9087 -1.5758 0.0250728 0
M  V30 437 C 40.8387 -2.13007 -0.956575 0
M  V30 438 C 41.8197 -1.0452 -1.342 0
M  V30 439 O 43.0047 -1.32332 -1.42133 0
M  V30 440 C 40.1347 -2.65386 -2.24026 0
M  V30 441 C 39.0887 -3.78623 -1.99571 0
M  V30 442 C 38.4147 -4.17414 -3.3417 0
M  V30 443 C 39.7147 -5.04867 -1.33814 0
M  V30 444 H 41.4087 -2.9528 -0.494991 0
M  V30 445 H 38.9547 -1.42042 -0.236651 0
M  V30 446 H 40.9077 -3.02794 -2.93076 0
M  V30 447 H 39.6317 -1.80268 -2.72343 0
M  V30 448 H 38.2907 -3.41646 -1.32941 0
M  V30 449 H 37.9387 -3.29284 -3.80238 0
M  V30 450 H 37.6387 -4.93719 -3.18615 0
M  V30 451 H 39.1627 -4.57402 -4.04495 0
M  V30 452 H 40.5767 -5.39888 -1.92857 0
M  V30 453 H 38.9737 -5.86144 -1.28669 0
M  V30 454 H 40.0437 -4.83904 -0.310561 0
M  V30 455 N 41.3868 0.248026 -1.55636 0
M  V30 456 C 42.8028 0.596483 -1.48035 0
M  V30 457 C 43.0028 1.88386 -0.715039 0
M  V30 458 O 42.0588 2.51319 -0.243944 0
M  V30 459 C 43.3718 0.700258 -2.92433 0
M  V30 460 C 44.9198 0.792659 -3.02797 0
M  V30 461 C 45.3948 0.928005 -4.485 0
M  V30 462 N 46.8858 0.992903 -4.52433 0
M  V30 463 C 47.6208 1.11687 -5.62418 0
M  V30 464 N 47.1168 1.20645 -6.82214 0
M  V30 465 N 48.9098 1.14994 -5.50212 0
M  V30 466 H 41.0608 -0.597109 -2.03834 0
M  V30 467 H 43.3238 -0.205925 -0.925364 0
M  V30 468 H 43.0298 -0.175658 -3.51261 0
M  V30 469 H 42.9038 1.57255 -3.42857 0
M  V30 470 H 45.2908 1.65903 -2.4405 0
M  V30 471 H 45.3718 -0.104762 -2.55585 0
M  V30 472 H 45.0158 0.0661971 -5.07857 0
M  V30 473 H 44.9458 1.84045 -4.93391 0
M  V30 474 H 47.4368 0.935064 -3.66149 0
M  V30 475 H 47.7498 1.30008 -7.61786 0
M  V30 476 H 46.0948 1.17605 -6.84977 0
M  V30 477 H 49.2858 1.07643 -4.55555 0
M  V30 478 H 49.4588 1.24311 -6.35965 0
M  V30 479 N 42.8649 1.48995 0.513639 0
M  V30 480 C 43.7949 1.67636 1.62544 0
M  V30 481 C 44.7759 0.525087 1.61793 0
M  V30 482 O 45.9609 0.759502 1.78732 0
M  V30 483 C 43.0909 1.73114 3.01079 0
M  V30 484 C 42.0449 2.87905 3.16693 0
M  V30 485 C 41.3709 2.78486 4.56453 0
M  V30 486 C 42.6709 4.29005 2.97913 0
M  V30 487 H 44.3649 2.60716 1.47198 0
M  V30 488 H 41.9109 1.25465 0.706714 0
M  V30 489 H 43.8639 1.84742 3.78746 0
M  V30 490 H 42.5879 0.766241 3.17484 0
M  V30 491 H 41.2469 2.75859 2.41448 0
M  V30 492 H 40.8949 1.7993 4.69717 0
M  V30 493 H 40.5949 3.55523 4.67843 0
M  V30 494 H 42.1189 2.92104 5.36197 0
M  V30 495 H 43.5329 4.41798 3.65359 0
M  V30 496 H 41.9299 5.07166 3.20785 0
M  V30 497 H 42.9999 4.44329 1.94165 0
M  V30 498 N 44.343 -0.763751 1.37857 0
M  V30 499 C 45.253 -1.90817 1.36478 0
M  V30 500 C 46.269 -1.71997 0.263248 0
M  V30 501 O 47.445 -1.95095 0.499979 0
M  V30 502 C 44.51 -3.2605 1.17864 0
M  V30 503 C 43.571 -3.57467 2.3773 0
M  V30 504 C 42.804 -4.86249 2.19995 0
M  V30 505 O 43.027 -5.57884 1.18836 0
M  V30 506 O 41.961 -5.16911 3.08361 0
M  V30 507 H 45.787 -1.94933 2.32884 0
M  V30 508 H 43.372 -0.907619 1.1867 0
M  V30 509 H 45.254 -4.06924 1.09504 0
M  V30 510 H 43.929 -3.22769 0.245372 0
M  V30 511 H 42.836 -2.76796 2.51664 0
M  V30 512 H 44.169 -3.655 3.29652 0
M  V30 513 N 45.8211 -1.22559 -0.990812 0
M  V30 514 C 46.7511 -1.0218 -2.09956 0
M  V30 515 C 47.7321 0.0579394 -1.70001 0
M  V30 516 O 48.9171 -0.104684 -1.93918 0
M  V30 517 C 46.0471 -0.601023 -3.4206 0
M  V30 518 C 45.0011 -1.62694 -3.95872 0
M  V30 519 C 44.3271 -1.06193 -5.24049 0
M  V30 520 C 45.6271 -3.01743 -4.2632 0
M  V30 521 H 47.3211 -1.94916 -2.27262 0
M  V30 522 H 44.8671 -0.938566 -1.09211 0
M  V30 523 H 46.8201 -0.445561 -4.19038 0
M  V30 524 H 45.5441 0.362005 -3.24588 0
M  V30 525 H 44.2031 -1.77021 -3.21028 0
M  V30 526 H 43.8511 -0.0901903 -5.02919 0
M  V30 527 H 43.5511 -1.74732 -5.61019 0
M  V30 528 H 45.0751 -0.918092 -6.03658 0
M  V30 529 H 46.4891 -2.90777 -4.94087 0
M  V30 530 H 44.8861 -3.67425 -4.74467 0
M  V30 531 H 45.9561 -3.51518 -3.34011 0
M  V30 532 N 47.2992 1.18797 -1.03562 0
M  V30 533 C 48.2622 2.20464 -0.626769 0
M  V30 534 C 49.2622 1.57721 0.313173 0
M  V30 535 O 50.4522 1.73917 0.0992615 0
M  V30 536 C 47.5842 3.40802 0.0818498 0
M  V30 537 H 48.7772 2.58149 -1.5264 0
M  V30 538 H 46.3302 1.32593 -0.827578 0
M  V30 539 H 47.0652 3.08642 0.995518 0
M  V30 540 H 46.8502 3.8758 -0.593652 0
M  V30 541 H 48.3402 4.16092 0.354584 0
M  V30 542 N 48.7773 0.814389 1.34928 0
M  V30 543 C 50.0233 0.399013 1.98836 0
M  V30 544 C 50.3563 -1.03314 1.64438 0
M  V30 545 O 49.6313 -1.71811 0.911659 0
M  V30 546 C 49.9143 0.591629 3.55207 0
M  V30 547 C 49.7673 2.06928 3.99376 0
M  V30 548 C 51.0863 0.022199 4.40094 0
M  V30 549 H 48.2053 0.146451 0.722303 0
M  V30 550 H 50.8473 1.02537 1.59957 0
M  V30 551 H 48.9973 0.0584441 3.88456 0
M  V30 552 H 50.6693 2.66544 3.76499 0
M  V30 553 H 48.9123 2.56287 3.49999 0
M  V30 554 H 49.5833 2.1549 5.08201 0
M  V30 555 H 52.0593 0.477643 4.13349 0
M  V30 556 H 50.9353 0.186832 5.48582 0
M  V30 557 H 51.1963 -1.07215 4.28902 0
M  V30 558 N 50.2554 -1.46986 0.568584 0
M  V30 559 C 51.5324 -1.95592 -0.0174074 0
M  V30 560 C 51.9124 -1.51124 -1.47393 0
M  V30 561 O 51.2604 -0.755329 -2.15655 0
M  V30 562 C 51.4704 -3.48719 0.139913 0
M  V30 563 C 52.8184 -4.246 0.000426376 0
M  V30 564 O 53.8424 -3.56135 0.0680316 0
M  V30 565 O 52.7014 -5.46302 -0.146988 0
M  V30 566 H 49.7954 -0.82498 -0.0577599 0
M  V30 567 H 52.3414 -1.57335 0.635909 0
M  V30 568 H 51.1134 -3.73927 1.15301 0
M  V30 569 H 50.7364 -3.93771 -0.550491 0
M  V30 570 N 51.7335 -0.305618 -1.54608 0
M  V30 571 C 52.6805 0.568421 -2.23691 0
M  V30 572 C 53.6505 1.12592 -1.22116 0
M  V30 573 O 54.8355 1.16959 -1.50749 0
M  V30 574 C 51.9755 1.7322 -2.98477 0
M  V30 575 C 51.0885 1.20566 -4.14835 0
M  V30 576 C 50.2235 2.33368 -4.77193 0
M  V30 577 C 49.2625 1.7787 -5.85686 0
M  V30 578 N 48.3995 2.84263 -6.4198 0
M  V30 579 H 53.2395 -0.0272867 -2.97988 0
M  V30 580 H 50.7765 -0.0252363 -1.47078 0
M  V30 581 H 52.7345 2.41675 -3.40072 0
M  V30 582 H 51.3645 2.29947 -2.26548 0
M  V30 583 H 50.4165 0.413223 -3.78149 0
M  V30 584 H 51.7285 0.759417 -4.92985 0
M  V30 585 H 50.8825 3.09761 -5.21664 0
M  V30 586 H 49.6215 2.8132 -3.98385 0
M  V30 587 H 48.6265 0.99968 -5.40635 0
M  V30 588 H 49.8515 1.30816 -6.66381 0
M  V30 589 H 47.7975 3.31541 -5.66053 0
M  V30 590 H 47.7145 2.44149 -7.15491 0
M  V30 591 H 48.9825 3.6054 -6.91109 0
M  V30 592 N 53.2116 1.57565 -0.0334293 0
M  V30 593 C 54.1446 2.05997 0.981866 0
M  V30 594 C 55.1226 0.956647 1.3148 0
M  V30 595 O 56.3066 1.22729 1.43073 0
M  V30 596 C 53.4336 2.48564 2.30074 0
M  V30 597 C 52.4796 3.69958 2.12211 0
M  V30 598 S 53.3126 5.16414 1.41692 0
M  V30 599 C 54.4686 5.6228 2.7494 0
M  V30 600 H 54.7016 2.91792 0.569612 0
M  V30 601 H 52.2346 1.53366 0.178376 0
M  V30 602 H 54.1926 2.73753 3.05892 0
M  V30 603 H 52.8536 1.63106 2.68431 0
M  V30 604 H 52.0466 3.97603 3.09722 0
M  V30 605 H 51.6486 3.44943 1.44535 0
M  V30 606 H 53.9406 5.66783 3.71165 0
M  V30 607 H 54.8836 6.61759 2.51953 0
M  V30 608 H 55.2916 4.89944 2.80384 0
M  V30 609 N 54.6897 -0.239769 1.55765 0
M  V30 610 C 55.9357 -0.968234 1.78194 0
M  V30 611 C 56.2687 -1.84701 0.599938 0
M  V30 612 O 55.5437 -1.9031 -0.401524 0
M  V30 613 C 55.8267 -1.8227 3.10564 0
M  V30 614 C 55.6797 -0.971633 4.3918 0
M  V30 615 C 56.9987 -2.80388 3.39221 0
M  V30 616 H 54.1177 -0.350572 0.648281 0
M  V30 617 H 56.7597 -0.238259 1.885 0
M  V30 618 H 54.9097 -2.44507 3.01908 0
M  V30 619 H 56.5817 -0.367408 4.59835 0
M  V30 620 H 54.8247 -0.276276 4.32919 0
M  V30 621 H 55.4957 -1.60346 5.28198 0
M  V30 622 H 57.9717 -2.28287 3.47885 0
M  V30 623 H 56.8477 -3.3729 4.33044 0
M  V30 624 H 57.1087 -3.57212 2.60484 0
M  V30 625 N 56.1678 -1.49265 -0.50573 0
M  V30 626 C 57.3958 -1.62215 -1.28429 0
M  V30 627 C 57.8108 -0.291697 -1.86533 0
M  V30 628 O 57.1678 0.722233 -1.67601 0
M  V30 629 C 57.2188 -2.68735 -2.41793 0
M  V30 630 O 56.9398 -3.96619 -1.86078 0
M  V30 631 C 58.4408 -2.92346 -3.3324 0
M  V30 632 H 55.6608 -0.546239 -0.389697 0
M  V30 633 H 58.2048 -1.95265 -0.607609 0
M  V30 634 H 56.3598 -2.38476 -3.053 0
M  V30 635 H 56.7738 -4.55256 -2.60465 0
M  V30 636 H 58.2478 -3.70623 -4.09075 0
M  V30 637 H 58.7248 -2.02081 -3.89948 0
M  V30 638 H 59.3308 -3.24003 -2.75503 0
M  V30 639 N 57.6459 0.756429 -1.3826 0
M  V30 640 C 58.8859 1.52833 -1.35725 0
M  V30 641 C 59.2499 1.91926 0.0534106 0
M  V30 642 O 60.4509 2.68028 0.203613 0
M  V30 643 C 58.7219 2.74919 -2.28373 0
M  V30 644 S 60.2809 3.64817 -2.43832 0
M  V30 645 H 57.0989 0.523043 -0.481608 0
M  V30 646 H 59.7009 0.888212 -1.74158 0
M  V30 647 H 58.4049 2.44304 -3.29763 0
M  V30 648 H 57.9359 3.43878 -1.91079 0
M  V30 649 H 59.9509 4.676 -1.66027 0
M  V30 650 N 59.124 1.23083 0.984299 0
M  V30 651 C 60.373 1.05466 1.71929 0
M  V30 652 C 60.686 -0.409211 1.91272 0
M  V30 653 O 61.892 -0.705226 2.62181 0
M  V30 654 C 60.348 1.83874 3.09384 0
M  V30 655 C 59.956 3.34566 2.97943 0
M  V30 656 C 61.7 1.74734 3.8687 0
M  V30 657 C 59.607 4.05381 4.30605 0
M  V30 658 H 58.537 0.391039 0.644674 0
M  V30 659 H 61.188 1.47013 1.09815 0
M  V30 660 H 59.57 1.35131 3.72231 0
M  V30 661 H 60.744 3.90767 2.44209 0
M  V30 662 H 59.059 3.44476 2.33934 0
M  V30 663 H 61.656 2.24957 4.85076 0
M  V30 664 H 61.999 0.709372 4.10212 0
M  V30 665 H 62.532 2.21067 3.30717 0
M  V30 666 H 59.271 5.09467 4.1246 0
M  V30 667 H 58.791 3.53967 4.84218 0
M  V30 668 H 60.47 4.11458 4.99311 0
M  V30 669 N 60.6021 -1.18246 1.0419 0
M  V30 670 C 61.5651 -2.20128 0.638452 0
M  V30 671 C 62.5651 -1.57885 -0.304805 0
M  V30 672 O 63.7551 -1.73967 -0.0900369 0
M  V30 673 C 60.8871 -3.4084 -0.0637751 0
M  V30 674 H 62.0801 -2.57336 1.54007 0
M  V30 675 H 59.6331 -1.32152 0.834598 0
M  V30 676 H 60.3681 -3.09166 -0.979136 0
M  V30 677 H 60.1531 -3.8726 0.614198 0
M  V30 678 H 61.6431 -4.16274 -0.332512 0
M  V30 679 N 62.0802 -0.821533 -1.34494 0
M  V30 680 C 63.3262 -0.409552 -1.98622 0
M  V30 681 C 63.6592 1.0244 -1.64984 0
M  V30 682 O 62.9342 1.71325 -0.920758 0
M  V30 683 C 63.2172 -0.610458 -3.54888 0
M  V30 684 C 63.0702 -2.09043 -3.98273 0
M  V30 685 C 64.3892 -0.0455379 -4.40076 0
M  V30 686 H 61.5082 -0.15028 -0.721516 0
M  V30 687 H 64.1502 -1.03384 -1.59411 0
M  V30 688 H 62.3002 -0.079044 -3.8842 0
M  V30 689 H 63.9722 -2.68537 -3.75081 0
M  V30 690 H 62.2152 -2.58139 -3.48635 0
M  V30 691 H 62.8862 -2.18182 -5.07051 0
M  V30 692 H 65.3622 -0.499557 -4.1309 0
M  V30 693 H 64.2382 -0.215922 -5.48475 0
M  V30 694 H 64.4992 1.04939 -4.29465 0
M  V30 695 N 63.5583 1.46682 -0.576371 0
M  V30 696 C 64.8063 2.02013 -0.0594163 0
M  V30 697 C 65.1273 1.45101 1.30271 0
M  V30 698 O 64.3973 0.633317 1.8538 0
M  V30 699 H 62.9773 0.746759 -0.0189745 0
M  V30 700 H 65.6393 1.79862 -0.750717 0
M  V30 701 H 64.7353 3.12097 0.014345 0
M  V30 702 N 65.0364 0.313813 1.54444 0
M  V30 703 C 65.9664 -0.549454 2.26943 0
M  V30 704 C 66.9474 -1.12741 1.27372 0
M  V30 705 O 68.1324 -1.15436 1.56167 0
M  V30 706 C 65.2624 -1.71523 3.01989 0
M  V30 707 C 64.2164 -1.26703 4.08816 0
M  V30 708 C 63.5424 -2.51898 4.71647 0
M  V30 709 C 64.8424 -0.388962 5.2085 0
M  V30 710 H 66.5364 0.0552661 2.99349 0
M  V30 711 H 64.0824 0.0280207 1.43973 0
M  V30 712 H 66.0354 -2.32535 3.51433 0
M  V30 713 H 64.7594 -2.34639 2.27183 0
M  V30 714 H 63.4184 -0.679896 3.6024 0
M  V30 715 H 63.0664 -3.13356 3.93468 0
M  V30 716 H 62.7664 -2.22605 5.43802 0
M  V30 717 H 64.2904 -3.1369 5.23861 0
M  V30 718 H 65.7044 -0.905107 5.6611 0
M  V30 719 H 64.1014 -0.18924 5.99802 0
M  V30 720 H 65.1714 0.582699 4.81386 0
M  V30 721 N 66.5145 -1.57545 0.0417849 0
M  V30 722 C 67.9255 -1.80011 -0.495259 0
M  V30 723 C 68.2765 -0.953199 -1.71489 0
M  V30 724 O 67.4015 -0.167138 -2.15754 0
M  V30 725 C 67.9965 -3.26482 -0.905265 0
M  V30 726 C 66.5555 -3.499 -1.38734 0
M  V30 727 C 65.7025 -2.74979 -0.358056 0
M  V30 728 H 68.6535 -1.56425 0.267736 0
M  V30 729 H 68.6745 -3.36887 -1.76882 0
M  V30 730 H 68.1865 -3.88096 -0.017401 0
M  V30 731 H 66.2875 -2.93553 -2.29471 0
M  V30 732 H 66.4005 -4.58615 -1.38598 0
M  V30 733 H 64.7645 -2.40834 -0.828912 0
M  V30 734 H 65.5475 -3.39315 0.521561 0
M  V30 735 N 67.9926 0.231505 -1.5589 0
M  V30 736 C 68.9226 1.29022 -1.94617 0
M  V30 737 C 69.9036 1.4941 -0.813067 0
M  V30 738 O 71.0886 1.6176 -1.07459 0
M  V30 739 C 68.2186 2.64199 -2.25424 0
M  V30 740 C 67.1726 2.58484 -3.41131 0
M  V30 741 C 66.4986 3.97599 -3.57518 0
M  V30 742 C 67.7986 2.1413 -4.76388 0
M  V30 743 H 69.4926 0.968563 -2.83301 0
M  V30 744 H 67.0386 0.464479 -1.36303 0
M  V30 745 H 68.9916 3.38413 -2.51107 0
M  V30 746 H 67.7156 2.98032 -1.33583 0
M  V30 747 H 66.3746 1.86727 -3.15481 0
M  V30 748 H 66.0226 4.28723 -2.6307 0
M  V30 749 H 65.7226 3.94659 -4.35337 0
M  V30 750 H 67.2466 4.7349 -3.85538 0
M  V30 751 H 68.6606 2.78083 -5.01341 0
M  V30 752 H 67.0576 2.2227 -5.57419 0
M  V30 753 H 68.1276 1.09331 -4.72414 0
M  V30 754 N 69.4707 1.49531 0.497807 0
M  V30 755 C 70.4007 1.6935 1.60757 0
M  V30 756 C 71.3817 0.542218 1.61227 0
M  V30 757 O 72.5667 0.778417 1.77917 0
M  V30 758 C 69.6967 1.76298 2.99226 0
M  V30 759 C 68.6507 2.91248 3.13622 0
M  V30 760 C 67.9767 2.83312 4.53474 0
M  V30 761 C 69.2767 4.3214 2.93346 0
M  V30 762 H 70.9707 2.62263 1.44425 0
M  V30 763 H 68.5167 1.26208 0.693367 0
M  V30 764 H 70.4697 1.88749 3.76765 0
M  V30 765 H 69.1937 0.799871 3.16654 0
M  V30 766 H 67.8527 2.78404 2.38509 0
M  V30 767 H 67.5007 1.84902 4.67782 0
M  V30 768 H 67.2007 3.60465 4.64046 0
M  V30 769 H 68.7247 2.97775 5.33069 0
M  V30 770 H 70.1387 4.45649 3.60652 0
M  V30 771 H 68.5357 5.1054 3.15387 0
M  V30 772 H 69.6057 4.46363 1.89441 0
M  V30 773 N 70.9488 -0.749086 1.3866 0
M  V30 774 C 71.8788 -1.8764 1.38973 0
M  V30 775 C 72.8598 -1.68178 0.255004 0
M  V30 776 O 74.0448 -1.88704 0.458754 0
M  V30 777 C 71.1748 -3.25222 1.21851 0
M  V30 778 C 70.1288 -3.59295 2.32575 0
M  V30 779 C 69.4548 -4.95663 2.00555 0
M  V30 780 C 70.7548 -3.63709 3.7485 0
M  V30 781 H 72.4488 -1.87635 2.3331 0
M  V30 782 H 69.9948 -0.901329 1.12303 0
M  V30 783 H 71.9478 -4.03746 1.20695 0
M  V30 784 H 70.6718 -3.25719 0.239775 0
M  V30 785 H 69.3308 -2.83093 2.32925 0
M  V30 786 H 68.9788 -4.92724 1.01154 0
M  V30 787 H 68.6788 -5.19429 2.74714 0
M  V30 788 H 70.2028 -5.7656 2.01024 0
M  V30 789 H 71.6168 -4.32338 3.76506 0
M  V30 790 H 70.0138 -3.98986 4.48252 0
M  V30 791 H 71.0838 -2.63834 4.06841 0
M  V30 792 N 72.4269 -1.23603 -0.977757 0
M  V30 793 C 73.6759 -1.06377 -1.71368 0
M  V30 794 C 73.9889 0.399062 -1.91486 0
M  V30 795 O 75.1949 0.691312 -2.62551 0
M  V30 796 C 73.6509 -1.85512 -3.08404 0
M  V30 797 C 73.2589 -3.36141 -2.96164 0
M  V30 798 C 75.0029 -1.76783 -3.85938 0
M  V30 799 C 72.9099 -4.07659 -4.28449 0
M  V30 800 H 71.8399 -0.394452 -0.642591 0
M  V30 801 H 74.4909 -1.47594 -1.09034 0
M  V30 802 H 72.8729 -1.37103 -3.71509 0
M  V30 803 H 74.0469 -3.92056 -2.42133 0
M  V30 804 H 72.3619 -3.45712 -2.32104 0
M  V30 805 H 74.9589 -2.27526 -4.83876 0
M  V30 806 H 75.3019 -0.731116 -4.0983 0
M  V30 807 H 75.8349 -2.22818 -3.2954 0
M  V30 808 H 72.5739 -5.11648 -4.09752 0
M  V30 809 H 72.0939 -3.5653 -4.82334 0
M  V30 810 H 73.7729 -4.141 -4.97122 0
M  V30 811 N 73.905 1.17692 -1.04816 0
M  V30 812 C 75.13 1.92327 -0.776207 0
M  V30 813 C 75.555 1.76082 0.661581 0
M  V30 814 O 74.913 1.076 1.45917 0
M  V30 815 C 74.961 3.41539 -1.15687 0
M  V30 816 O 74.065 4.11402 -0.286775 0
M  V30 817 H 73.406 0.599735 -0.284981 0
M  V30 818 H 75.936 1.49201 -1.4 0
M  V30 819 H 75.946 3.92269 -1.12202 0
M  V30 820 H 74.621 3.52684 -2.20425 0
M  V30 821 H 73.198 3.70939 -0.381903 0
M  V30 822 N 75.3831 0.828654 1.34056 0
M  V30 823 C 76.3131 0.269443 2.3194 0
M  V30 824 C 77.2941 -0.617247 1.58506 0
M  V30 825 O 78.4791 -0.542931 1.86456 0
M  V30 826 C 75.6091 -0.564793 3.42677 0
M  V30 827 C 74.5631 0.225241 4.27407 0
M  V30 828 C 73.8891 -0.7321 5.29664 0
M  V30 829 C 75.1891 1.43663 5.02154 0
M  V30 830 H 76.8831 1.08728 2.7896 0
M  V30 831 H 74.4291 0.524283 1.34117 0
M  V30 832 H 76.3821 -0.966233 4.10173 0
M  V30 833 H 75.1061 -1.41574 2.9432 0
M  V30 834 H 73.7651 0.608117 3.61521 0
M  V30 835 H 73.4131 -1.57916 4.77568 0
M  V30 836 H 73.1131 -0.20767 5.87233 0
M  V30 837 H 74.6371 -1.13128 6.00029 0
M  V30 838 H 76.0511 1.1089 5.62473 0
M  V30 839 H 74.4481 1.89711 5.69324 0
M  V30 840 H 75.5181 2.21181 4.31517 0
M  V30 841 N 76.8612 -1.46375 0.584142 0
M  V30 842 C 77.8242 -2.28784 -0.138108 0
M  V30 843 C 78.8242 -1.38471 -0.817462 0
M  V30 844 O 80.0142 -1.60833 -0.669199 0
M  V30 845 C 77.1462 -3.18892 -1.20503 0
M  V30 846 H 78.3392 -2.94117 0.586127 0
M  V30 847 H 75.8922 -1.52509 0.342171 0
M  V30 848 H 76.6272 -2.58309 -1.96079 0
M  V30 849 H 76.4122 -3.85388 -0.722384 0
M  V30 850 H 77.9022 -3.80914 -1.71155 0
M  V30 851 N 78.3393 -0.321999 -1.54275 0
M  V30 852 C 79.5863 0.281044 -2.0054 0
M  V30 853 C 79.9143 1.52265 -1.21019 0
M  V30 854 O 79.1693 1.93687 -0.279982 0
M  V30 855 C 79.4683 0.661769 -3.5122 0
M  V30 856 C 79.1343 -0.480482 -4.48333 0
M  V30 857 C 77.7963 -0.794005 -4.74604 0
M  V30 858 C 80.1483 -1.24783 -5.06042 0
M  V30 859 C 77.4763 -1.87763 -5.55844 0
M  V30 860 C 79.8283 -2.32153 -5.88462 0
M  V30 861 C 78.4923 -2.64089 -6.13036 0
M  V30 862 H 77.7623 0.102841 -0.733829 0
M  V30 863 H 80.4093 -0.445453 -1.86247 0
M  V30 864 H 78.7143 1.46867 -3.63232 0
M  V30 865 H 80.4113 1.13989 -3.84457 0
M  V30 866 H 77.0013 -0.226039 -4.28004 0
M  V30 867 H 81.1853 -1.01887 -4.85729 0
M  V30 868 H 76.4413 -2.12954 -5.73115 0
M  V30 869 H 80.6153 -2.92057 -6.32199 0
M  V30 870 H 78.2423 -3.48185 -6.75775 0
M  V30 871 N 79.8174 1.5752 -0.0501392 0
M  V30 872 C 80.7804 2.1037 0.909786 0
M  V30 873 C 81.7804 1.02308 1.24056 0
M  V30 874 O 82.9704 1.28385 1.17741 0
M  V30 875 C 80.1024 2.58708 2.21998 0
M  V30 876 H 81.2954 2.96479 0.451665 0
M  V30 877 H 78.8484 1.55038 0.198248 0
M  V30 878 H 79.5834 1.75989 2.72394 0
M  V30 879 H 79.3684 3.37675 1.99295 0
M  V30 880 H 80.8584 2.99747 2.9076 0
M  V30 881 N 81.2955 -0.223234 1.56011 0
M  V30 882 C 82.2275 -1.30006 1.88762 0
M  V30 883 C 83.2405 -1.43129 0.775746 0
M  V30 884 O 84.4295 -1.44057 1.05403 0
M  V30 885 C 81.5295 -2.67589 2.07965 0
M  V30 886 C 80.7025 -2.76434 3.38973 0
M  V30 887 C 79.7615 -3.95019 3.47629 0
M  V30 888 O 78.7875 -3.83436 4.20672 0
M  V30 889 N 79.9895 -5.09249 2.78649 0
M  V30 890 H 82.7545 -1.02238 2.81722 0
M  V30 891 H 80.3155 -0.413278 1.56536 0
M  V30 892 H 82.3075 -3.45297 2.11073 0
M  V30 893 H 80.8775 -2.87964 1.21638 0
M  V30 894 H 80.0975 -1.85216 3.47978 0
M  V30 895 H 81.3855 -2.79313 4.25278 0
M  V30 896 H 80.7835 -5.21556 2.19081 0
M  V30 897 H 79.3405 -5.85007 2.8742 0
M  V30 898 N 82.7736 -1.49793 -0.48987 0
M  V30 899 C 83.6836 -1.70036 -1.61632 0
M  V30 900 C 84.6996 -0.583102 -1.63939 0
M  V30 901 O 85.8756 -0.859169 -1.82154 0
M  V30 902 C 82.9406 -1.77277 -2.97949 0
M  V30 903 C 82.0016 -3.00918 -3.06181 0
M  V30 904 C 81.2346 -3.07804 -4.35996 0
M  V30 905 O 81.4576 -2.21982 -5.25433 0
M  V30 906 O 80.3916 -4.00369 -4.49431 0
M  V30 907 H 84.2176 -2.65486 -1.47482 0
M  V30 908 H 81.8026 -1.33666 -0.667362 0
M  V30 909 H 83.6846 -1.84329 -3.78947 0
M  V30 910 H 82.3596 -0.850076 -3.12339 0
M  V30 911 H 81.2666 -2.99377 -2.2433 0
M  V30 912 H 82.5996 -3.92704 -2.96723 0
M  V30 913 N 84.2517 0.741722 -1.39055 0
M  V30 914 C 85.5007 1.49656 -1.35225 0
M  V30 915 C 85.8137 1.95533 0.0512708 0
M  V30 916 O 87.0197 2.7067 0.212138 0
M  V30 917 C 85.4757 2.70389 -2.37525 0
M  V30 918 C 85.0837 2.31489 -3.83558 0
M  V30 919 C 86.8277 3.48236 -2.42759 0
M  V30 920 C 84.7347 3.48903 -4.77515 0
M  V30 921 H 83.6647 0.56197 -0.502699 0
M  V30 922 H 86.3157 0.809727 -1.64668 0
M  V30 923 H 84.6977 3.41113 -2.01142 0
M  V30 924 H 85.8717 1.68354 -4.28945 0
M  V30 925 H 84.1867 1.66749 -3.81554 0
M  V30 926 H 86.7837 4.35558 -3.1015 0
M  V30 927 H 87.1267 3.90229 -1.45008 0
M  V30 928 H 87.6597 2.84535 -2.78002 0
M  V30 929 H 84.3987 3.11966 -5.76504 0
M  V30 930 H 83.9187 4.11041 -4.36813 0
M  V30 931 H 85.5977 4.15328 -4.96096 0
M  V30 932 N 85.7298 1.2412 0.971189 0
M  V30 933 C 86.9548 1.10667 1.75407 0
M  V30 934 C 87.3798 -0.337048 1.85056 0
M  V30 935 O 86.7378 -1.24396 1.31892 0
M  V30 936 C 86.7858 1.74726 3.15441 0
M  V30 937 O 85.8898 1.01566 3.99697 0
M  V30 938 H 85.2308 0.387341 0.539317 0
M  V30 939 H 87.7608 1.64358 1.2185 0
M  V30 940 H 87.7708 1.80341 3.6598 0
M  V30 941 H 86.4458 2.79773 3.07734 0
M  V30 942 H 85.0228 1.03713 3.58187 0
M  V30 943 N 87.2079 -1.17134 1.05439 0
M  V30 944 C 88.4569 -1.86791 0.761049 0
M  V30 945 C 88.7699 -1.82072 -0.714795 0
M  V30 946 O 89.9759 -2.47223 -1.12218 0
M  V30 947 C 88.4319 -3.35166 1.31117 0
M  V30 948 C 88.0399 -3.48381 2.81664 0
M  V30 949 C 89.7839 -4.10134 1.09499 0
M  V30 950 C 87.6909 -4.90793 3.29964 0
M  V30 951 H 86.6209 -0.699681 0.281002 0
M  V30 952 H 89.2719 -1.3226 1.27199 0
M  V30 953 H 87.6539 -3.8925 0.72803 0
M  V30 954 H 88.8279 -3.04502 3.45855 0
M  V30 955 H 87.1429 -2.86836 3.01851 0
M  V30 956 H 89.7399 -5.152 1.43084 0
M  V30 957 H 90.0829 -4.16287 0.0328772 0
M  V30 958 H 90.6159 -3.62264 1.64346 0
M  V30 959 H 87.3549 -4.89816 4.35616 0
M  V30 960 H 86.8749 -5.35333 2.70516 0
M  V30 961 H 88.5539 -5.59573 3.24787 0
M  V30 962 N 88.686 -0.835752 -1.33615 0
M  V30 963 C 89.934 -0.429109 -1.97492 0
M  V30 964 C 90.255 1.01433 -1.66543 0
M  V30 965 O 89.525 1.70611 -0.962744 0
M  V30 966 H 88.105 -0.155686 -0.730596 0
M  V30 967 H 90.767 -1.06802 -1.63031 0
M  V30 968 H 89.863 -0.55861 -3.0706 0
M  V30 969 N 90.1641 1.46063 -0.591896 0
M  V30 970 C 91.3921 2.06717 -0.0868936 0
M  V30 971 C 91.8071 1.43916 1.22203 0
M  V30 972 O 91.1641 0.547698 1.74088 0
M  V30 973 C 91.2151 3.6142 0.0758725 0
M  V30 974 O 90.9361 4.21874 -1.18126 0
M  V30 975 C 92.4371 4.39025 0.61416 0
M  V30 976 H 89.6571 0.668162 -0.0616518 0
M  V30 977 H 92.2011 1.8755 -0.815175 0
M  V30 978 H 90.3561 3.79983 0.754413 0
M  V30 979 H 90.7701 5.14861 -1.00092 0
M  V30 980 H 92.2441 5.4783 0.677193 0
M  V30 981 H 92.7211 4.07708 1.63312 0
M  V30 982 H 93.3271 4.2529 -0.0298142 0
M  V30 983 N 91.6422 0.330177 1.54103 0
M  V30 984 C 92.5742 -0.566902 2.22079 0
M  V30 985 C 93.5872 -1.07462 1.22294 0
M  V30 986 O 94.7762 -0.987065 1.48726 0
M  V30 987 C 91.8762 -1.79138 2.87685 0
M  V30 988 C 91.0492 -1.42123 4.13666 0
M  V30 989 C 90.1082 -2.50394 4.62806 0
M  V30 990 O 89.1342 -2.14261 5.27334 0
M  V30 991 N 90.3362 -3.81433 4.37595 0
M  V30 992 H 93.1012 0.0151844 2.99696 0
M  V30 993 H 90.6622 0.153681 1.61169 0
M  V30 994 H 92.6542 -2.50975 3.1748 0
M  V30 995 H 91.2242 -2.28115 2.13734 0
M  V30 996 H 90.4442 -0.534201 3.90564 0
M  V30 997 H 91.7322 -1.14971 4.9564 0
M  V30 998 H 91.1302 -4.13584 3.8596 0
M  V30 999 H 89.6872 -4.4948 4.72029 0
M  V30 1000 N 93.1203 -1.57491 0.0584922 0
M  V30 1001 C 94.3693 -1.92155 -0.613146 0
M  V30 1002 C 94.6823 -0.939334 -1.71569 0
M  V30 1003 O 95.8883 -1.17829 -2.44599 0
M  V30 1004 C 94.3443 -3.41303 -1.14195 0
M  V30 1005 C 93.9523 -4.47944 -0.0711265 0
M  V30 1006 C 95.6963 -3.84988 -1.78841 0
M  V30 1007 C 93.6033 -5.88212 -0.613225 0
M  V30 1008 H 92.5333 -0.717162 -0.232796 0
M  V30 1009 H 95.1843 -1.83049 0.12857 0
M  V30 1010 H 93.5663 -3.45437 -1.93621 0
M  V30 1011 H 94.7403 -4.55408 0.702836 0
M  V30 1012 H 93.0553 -4.13644 0.478313 0
M  V30 1013 H 95.6523 -4.87159 -2.20408 0
M  V30 1014 H 95.9953 -3.21632 -2.64308 0
M  V30 1015 H 96.5283 -3.83401 -1.06059 0
M  V30 1016 H 93.2673 -6.55183 0.203978 0
M  V30 1017 H 92.7873 -5.84294 -1.35501 0
M  V30 1018 H 94.4663 -6.37687 -1.09383 0
M  V30 1019 N 94.5984 0.214957 -1.56127 0
M  V30 1020 C 95.8234 0.95924 -1.83884 0
M  V30 1021 C 96.2484 1.7689 -0.639644 0
M  V30 1022 O 95.6064 1.76566 0.411601 0
M  V30 1023 C 95.6544 1.84723 -3.09693 0
M  V30 1024 O 94.7584 2.94346 -2.8885 0
M  V30 1025 H 94.0994 0.27125 -0.606069 0
M  V30 1026 H 96.6294 0.226276 -2.03345 0
M  V30 1027 H 96.6394 2.25576 -3.39969 0
M  V30 1028 H 95.3144 1.25218 -3.96602 0
M  V30 1029 H 93.8914 2.57391 -2.69823 0
M  V30 1030 N 96.0765 1.50051 0.48192 0
M  V30 1031 C 97.3165 1.62128 1.24474 0
M  V30 1032 C 97.6805 0.309742 1.89485 0
M  V30 1033 O 98.8815 0.305854 2.67054 0
M  V30 1034 C 97.1525 2.76151 2.26882 0
M  V30 1035 S 98.7115 3.08297 3.12247 0
M  V30 1036 H 95.5295 0.571661 0.422759 0
M  V30 1037 H 98.1315 1.87791 0.54359 0
M  V30 1038 H 96.8355 3.69942 1.77683 0
M  V30 1039 H 96.3665 2.52541 3.0164 0
M  V30 1040 H 98.3815 2.51287 4.27866 0
M  V30 1041 N 97.5546 -0.734337 1.39446 0
M  V30 1042 C 98.8016 -1.49391 1.36706 0
M  V30 1043 C 99.1296 -1.94465 -0.0367813 0
M  V30 1044 O 98.3846 -1.67154 -1.01774 0
M  V30 1045 C 98.6836 -2.74711 2.28623 0
M  V30 1046 C 98.3496 -2.48501 3.76242 0
M  V30 1047 C 97.0116 -2.41062 4.16464 0
M  V30 1048 C 99.3636 -2.26098 4.69606 0
M  V30 1049 C 96.6916 -2.09262 5.48112 0
M  V30 1050 C 99.0436 -1.95814 6.01531 0
M  V30 1051 C 97.7076 -1.86845 6.40816 0
M  V30 1052 H 96.9776 -0.546661 0.500243 0
M  V30 1053 H 99.6246 -0.842788 1.71957 0
M  V30 1054 H 97.9296 -3.44569 1.86492 0
M  V30 1055 H 99.6266 -3.32741 2.23796 0
M  V30 1056 H 96.2166 -2.55169 3.44364 0
M  V30 1057 H 100.401 -2.30812 4.39363 0
M  V30 1058 H 95.6566 -2.00841 5.77471 0
M  V30 1059 H 99.8306 -1.77488 6.73403 0
M  V30 1060 H 97.4576 -1.6197 7.42745 0
M  V30 1061 N 99.0327 -1.24633 -0.964593 0
M  V30 1062 C 100.258 -1.11596 -1.74818 0
M  V30 1063 C 100.683 0.32723 -1.85232 0
M  V30 1064 O 100.041 1.23695 -1.32549 0
M  V30 1065 C 100.089 -1.76397 -3.1451 0
M  V30 1066 O 99.1927 -1.03685 -3.99153 0
M  V30 1067 H 98.5337 -0.390196 -0.537255 0
M  V30 1068 H 101.064 -1.65002 -1.20977 0
M  V30 1069 H 101.074 -1.8228 -3.65018 0
M  V30 1070 H 99.7487 -2.81401 -3.06246 0
M  V30 1071 H 98.3257 -1.05611 -3.57632 0
M  V30 1072 N 100.511 1.16574 -1.06058 0
M  V30 1073 C 101.922 1.68662 -0.800632 0
M  V30 1074 C 102.273 1.84184 0.67608 0
M  V30 1075 O 101.398 1.53568 1.52466 0
M  V30 1076 C 101.993 3.06356 -1.44676 0
M  V30 1077 C 100.552 3.55575 -1.23465 0
M  V30 1078 C 99.6988 2.31616 -1.52477 0
M  V30 1079 H 102.65 1.00969 -1.22438 0
M  V30 1080 H 102.671 3.70636 -0.860788 0
M  V30 1081 H 102.183 2.95027 -2.52152 0
M  V30 1082 H 100.284 3.72167 -0.179527 0
M  V30 1083 H 100.397 4.37812 -1.94571 0
M  V30 1084 H 98.7608 2.36512 -0.945209 0
M  V30 1085 H 99.5438 2.22887 -2.61106 0
M  V30 1086 N 101.989 0.842826 1.3317 0
M  V30 1087 C 103.214 0.453129 2.02389 0
M  V30 1088 C 103.639 -0.939105 1.6298 0
M  V30 1089 O 102.997 -1.61472 0.8244 0
M  V30 1090 C 103.045 0.586094 3.55805 0
M  V30 1091 O 102.149 -0.386029 4.10589 0
M  V30 1092 H 101.49 0.183664 0.638094 0
M  V30 1093 H 104.02 1.13875 1.69981 0
M  V30 1094 H 104.03 0.469209 4.05293 0
M  V30 1095 H 102.705 1.6014 3.83833 0
M  V30 1096 H 101.282 -0.226371 3.72212 0
M  V30 1097 N 103.467 -1.45747 0.599634 0
M  V30 1098 C 104.692 -2.07178 0.0960198 0
M  V30 1099 C 105.117 -1.44268 -1.207 0
M  V30 1100 O 104.475 -0.532503 -1.73303 0
M  V30 1101 C 104.523 -3.60579 -0.0385348 0
M  V30 1102 O 103.627 -3.97713 -1.0908 0
M  V30 1103 H 102.968 -0.660251 0.0704593 0
M  V30 1104 H 105.498 -1.87124 0.827385 0
M  V30 1105 H 105.508 -4.07298 -0.239304 0
M  V30 1106 H 104.183 -4.05756 0.912947 0
M  V30 1107 H 102.76 -3.62678 -0.867135 0
M  V30 1108 N 104.945 -0.338344 -1.53925 0
M  V30 1109 C 106.192 0.259758 -2.00827 0
M  V30 1110 C 106.52 1.50973 -1.22628 0
M  V30 1111 O 105.775 1.93379 -0.300509 0
M  V30 1112 C 106.074 0.62448 -3.51902 0
M  V30 1113 C 105.74 -0.528006 -4.47798 0
M  V30 1114 C 104.402 -0.844298 -4.73735 0
M  V30 1115 C 106.754 -1.30143 -5.0469 0
M  V30 1116 C 104.082 -1.93648 -5.53821 0
M  V30 1117 C 106.434 -2.38382 -5.85967 0
M  V30 1118 C 105.098 -2.70576 -6.10201 0
M  V30 1119 H 104.368 0.0950523 -0.734878 0
M  V30 1120 H 107.015 -0.465182 -1.85764 0
M  V30 1121 H 105.32 1.43006 -3.64769 0
M  V30 1122 H 107.017 1.09905 -3.85645 0
M  V30 1123 H 103.607 -0.271421 -4.2774 0
M  V30 1124 H 107.791 -1.07033 -4.84621 0
M  V30 1125 H 103.047 -2.19021 -5.70824 0
M  V30 1126 H 107.221 -2.98746 -6.29066 0
M  V30 1127 H 104.848 -3.55333 -6.72044 0
M  V30 1128 N 106.423 1.57458 -0.0668435 0
M  V30 1129 C 107.648 1.9804 0.616027 0
M  V30 1130 C 108.073 0.944771 1.62652 0
M  V30 1131 O 107.431 -0.0902094 1.81075 0
M  V30 1132 C 107.479 3.37665 1.26549 0
M  V30 1133 O 106.583 3.36701 2.38131 0
M  V30 1134 H 105.924 0.644719 0.158849 0
M  V30 1135 H 108.454 2.04121 -0.139891 0
M  V30 1136 H 108.464 3.7474 1.6135 0
M  V30 1137 H 107.139 4.12573 0.525016 0
M  V30 1138 H 105.716 3.1139 2.0516 0
M  V30 1139 N 107.901 -0.206675 1.56239 0
M  V30 1140 C 109.147 -0.925733 1.81113 0
M  V30 1141 C 109.502 -1.81368 0.642135 0
M  V30 1142 O 108.795 -1.88126 -0.363211 0
M  V30 1143 C 108.989 -1.78675 3.09532 0
M  V30 1144 C 108.818 -0.98365 4.3881 0
M  V30 1145 C 107.588 -0.672661 5.00803 0
M  V30 1146 C 109.786 -0.341847 5.13163 0
M  V30 1147 N 107.768 0.150283 6.13716 0
M  V30 1148 C 109.139 0.343815 6.19046 0
M  V30 1149 C 111.194 -0.256392 4.97239 0
M  V30 1150 C 109.897 1.10678 7.10734 0
M  V30 1151 C 111.923 0.493142 5.8934 0
M  V30 1152 C 111.285 1.16729 6.94661 0
M  V30 1153 H 107.384 -0.318524 0.714189 0
M  V30 1154 H 109.968 -0.195378 1.93717 0
M  V30 1155 H 108.139 -2.4888 2.98183 0
M  V30 1156 H 109.871 -2.44441 3.22538 0
M  V30 1157 H 106.626 -0.994294 4.63045 0
M  V30 1158 H 107.05 0.551026 6.74754 0
M  V30 1159 H 111.692 -0.763249 4.15854 0
M  V30 1160 H 109.41 1.6251 7.91591 0
M  V30 1161 H 112.996 0.560465 5.79094 0
M  V30 1162 H 111.876 1.738 7.64698 0
M  V30 1163 N 109.379 -1.50304 -0.473955 0
M  V30 1164 C 110.795 -1.37667 -0.807466 0
M  V30 1165 C 110.995 -0.430555 -1.96846 0
M  V30 1166 O 110.051 0.127874 -2.52176 0
M  V30 1167 C 111.364 -2.78974 -1.12223 0
M  V30 1168 C 112.912 -2.87868 -1.22885 0
M  V30 1169 C 113.387 -4.30003 -1.57676 0
M  V30 1170 N 114.878 -4.3294 -1.64673 0
M  V30 1171 C 115.613 -5.3991 -1.93091 0
M  V30 1172 N 115.109 -6.57092 -2.1955 0
M  V30 1173 N 116.902 -5.27351 -1.94569 0
M  V30 1174 H 109.053 -2.10394 0.291212 0
M  V30 1175 H 111.316 -0.945575 0.0677609 0
M  V30 1176 H 111.022 -3.50031 -0.342229 0
M  V30 1177 H 110.896 -3.16038 -2.05913 0
M  V30 1178 H 113.283 -2.17032 -1.99953 0
M  V30 1179 H 113.364 -2.54352 -0.271814 0
M  V30 1180 H 113.008 -5.01375 -0.81149 0
M  V30 1181 H 112.938 -4.61004 -2.54525 0
M  V30 1182 H 115.429 -3.48441 -1.46277 0
M  V30 1183 H 115.742 -7.34425 -2.405 0
M  V30 1184 H 114.087 -6.60272 -2.16948 0
M  V30 1185 H 117.278 -4.34801 -1.73394 0
M  V30 1186 H 117.451 -6.10805 -2.16381 0
M  V30 1187 N 110.857 0.726932 -1.39834 0
M  V30 1188 C 111.789 1.85147 -1.35104 0
M  V30 1189 C 112.802 1.60736 -0.258392 0
M  V30 1190 O 113.991 1.70821 -0.517931 0
M  V30 1191 C 111.091 3.21332 -1.07697 0
M  V30 1192 C 110.264 3.73033 -2.28396 0
M  V30 1193 C 109.323 4.87802 -1.97322 0
M  V30 1194 O 108.349 5.01043 -2.70083 0
M  V30 1195 N 109.551 5.72768 -0.944273 0
M  V30 1196 H 112.316 1.89706 -2.32017 0
M  V30 1197 H 109.877 0.908006 -1.3404 0
M  V30 1198 H 111.869 3.95691 -0.849144 0
M  V30 1199 H 110.439 3.11992 -0.194909 0
M  V30 1200 H 109.659 2.89934 -2.6708 0
M  V30 1201 H 110.947 4.0431 -3.08887 0
M  V30 1202 H 110.345 5.64669 -0.341427 0
M  V30 1203 H 108.902 6.4716 -0.776346 0
M  V30 1204 N 112.336 1.25143 0.95797 0
M  V30 1205 C 113.299 1.05321 2.03569 0
M  V30 1206 C 114.299 0.007152 1.60798 0
M  V30 1207 O 115.489 0.24903 1.72411 0
M  V30 1208 C 112.621 0.598394 3.35607 0
M  V30 1209 H 113.814 2.00986 2.22586 0
M  V30 1210 H 111.367 1.07502 1.13459 0
M  V30 1211 H 112.102 -0.361014 3.22284 0
M  V30 1212 H 111.887 1.35351 3.67998 0
M  V30 1213 H 113.377 0.48104 4.1482 0
M  V30 1214 N 113.814 -1.1601 1.06675 0
M  V30 1215 C 114.777 -2.18724 0.685001 0
M  V30 1216 C 115.777 -1.58496 -0.271246 0
M  V30 1217 O 116.967 -1.74119 -0.0531156 0
M  V30 1218 C 114.099 -3.40899 0.00853648 0
M  V30 1219 H 115.292 -2.54011 1.59431 0
M  V30 1220 H 112.845 -1.30352 0.862441 0
M  V30 1221 H 113.58 -3.11173 -0.913337 0
M  V30 1222 H 113.365 -3.8587 0.696204 0
M  V30 1223 H 114.855 -4.16886 -0.24414 0
M  V30 1224 N 115.292 -0.849877 -1.32721 0
M  V30 1225 C 116.539 -0.450923 -1.97416 0
M  V30 1226 C 116.867 0.992376 -1.67279 0
M  V30 1227 O 116.122 1.71048 -0.950845 0
M  V30 1228 C 116.421 -0.631272 -3.51781 0
M  V30 1229 C 116.087 -2.04432 -4.01894 0
M  V30 1230 C 114.749 -2.4308 -4.1529 0
M  V30 1231 C 117.101 -2.96679 -4.28522 0
M  V30 1232 C 114.429 -3.73257 -4.52654 0
M  V30 1233 C 116.781 -4.26349 -4.67343 0
M  V30 1234 C 115.445 -4.64939 -4.78945 0
M  V30 1235 H 114.715 -0.165004 -0.722395 0
M  V30 1236 H 117.362 -1.07901 -1.58207 0
M  V30 1237 H 115.667 0.0800767 -3.91718 0
M  V30 1238 H 117.364 -0.302709 -3.99856 0
M  V30 1239 H 113.954 -1.73419 -3.91949 0
M  V30 1240 H 118.138 -2.68054 -4.17685 0
M  V30 1241 H 113.394 -4.02946 -4.59831 0
M  V30 1242 H 117.568 -4.97895 -4.86902 0
M  V30 1243 H 115.195 -5.65855 -5.07654 0
M  V30 1244 N 116.77 1.45427 -0.607355 0
M  V30 1245 C 118.016 2.0254 -0.102607 0
M  V30 1246 C 118.349 1.47478 1.26348 0
M  V30 1247 O 117.624 0.64939 1.83339 0
M  V30 1248 C 117.907 3.60044 -0.0634347 0
M  V30 1249 C 117.76 4.2544 -1.46017 0
M  V30 1250 C 119.079 4.35646 0.624514 0
M  V30 1251 H 116.198 0.73598 -0.0387607 0
M  V30 1252 H 118.84 1.73284 -0.779282 0
M  V30 1253 H 116.99 3.85101 0.512808 0
M  V30 1254 H 118.662 4.11569 -2.08347 0
M  V30 1255 H 116.905 3.83849 -2.02094 0
M  V30 1256 H 117.576 5.34342 -1.385 0
M  V30 1257 H 120.052 4.15882 0.134723 0
M  V30 1258 H 118.928 5.45376 0.621028 0
M  V30 1259 H 119.189 4.08501 1.69055 0
M  V30 1260 N 118.248 0.346503 1.53744 0
M  V30 1261 C 119.525 -0.304532 1.93215 0
M  V30 1262 C 119.905 -1.67993 1.27834 0
M  V30 1263 O 119.253 -2.24411 0.430352 0
M  V30 1264 C 119.463 -0.373852 3.46992 0
M  V30 1265 C 120.811 -0.62329 4.2 0
M  V30 1266 O 121.835 -0.455847 3.53271 0
M  V30 1267 O 120.694 -0.947879 5.38217 0
M  V30 1268 H 117.788 -0.178318 0.807547 0
M  V30 1269 H 120.334 0.397895 1.64969 0
M  V30 1270 H 119.106 0.591224 3.86808 0
M  V30 1271 H 118.729 -1.12294 3.81413 0
M  V30 1272 N 119.726 -1.57421 0.075193 0
M  V30 1273 C 120.951 -1.98364 -0.605515 0
M  V30 1274 C 121.376 -0.953383 -1.62149 0
M  V30 1275 O 120.734 0.0806053 -1.81121 0
M  V30 1276 C 120.782 -3.38332 -1.24756 0
M  V30 1277 O 119.886 -3.37959 -2.36342 0
M  V30 1278 H 119.227 -0.645553 -0.155428 0
M  V30 1279 H 121.757 -2.04044 0.150714 0
M  V30 1280 H 121.767 -3.75591 -1.5936 0
M  V30 1281 H 120.442 -4.12846 -0.503129 0
M  V30 1282 H 119.019 -3.12474 -2.03506 0
M  V30 1283 N 121.204 0.198386 -1.56346 0
M  V30 1284 C 122.434 0.934215 -1.84271 0
M  V30 1285 C 122.842 1.77496 -0.655125 0
M  V30 1286 O 122.185 1.7961 0.385488 0
M  V30 1287 C 122.247 1.88278 -3.06254 0
M  V30 1288 C 121.911 1.22431 -4.40295 0
M  V30 1289 C 122.908 0.602839 -5.16393 0
M  V30 1290 C 120.593 1.22915 -4.87029 0
M  V30 1291 C 122.587 -0.0050083 -6.374 0
M  V30 1292 C 120.274 0.617465 -6.07973 0
M  V30 1293 C 121.272 0.00146341 -6.83 0
M  V30 1294 O 120.96 -0.600642 -8.01653 0
M  V30 1295 H 120.692 0.278245 -0.616081 0
M  V30 1296 H 123.246 0.211626 -2.04307 0
M  V30 1297 H 121.476 2.64498 -2.82095 0
M  V30 1298 H 123.165 2.48612 -3.20853 0
M  V30 1299 H 123.931 0.591265 -4.81382 0
M  V30 1300 H 119.81 1.69801 -4.28589 0
M  V30 1301 H 123.354 -0.48643 -6.95902 0
M  V30 1302 H 119.251 0.62653 -6.42452 0
M  V30 1303 H 120.019 -0.497225 -8.16988 0
M  V30 1304 N 122.682 1.50554 0.465978 0
M  V30 1305 C 123.922 1.63439 1.22747 0
M  V30 1306 C 124.286 0.329822 1.89146 0
M  V30 1307 O 125.487 0.334161 2.66715 0
M  V30 1308 C 123.758 2.78542 2.2394 0
M  V30 1309 S 125.317 3.11591 3.0896 0
M  V30 1310 H 122.135 0.576113 0.416672 0
M  V30 1311 H 124.737 1.88357 0.523641 0
M  V30 1312 H 123.441 3.71805 1.7375 0
M  V30 1313 H 122.972 2.55726 2.98944 0
M  V30 1314 H 124.987 2.55811 4.25176 0
M  V30 1315 N 124.16 -0.719506 1.40217 0
M  V30 1316 C 125.406 -1.48034 1.39491 0
M  V30 1317 C 125.761 -1.92399 -0.00443536 0
M  V30 1318 O 125.054 -1.64993 -0.974061 0
M  V30 1319 C 125.248 -2.72271 2.31524 0
M  V30 1320 C 125.077 -2.40055 3.80268 0
M  V30 1321 C 123.847 -2.31588 4.49105 0
M  V30 1322 C 126.045 -2.04581 4.71859 0
M  V30 1323 N 124.027 -1.92006 5.83101 0
M  V30 1324 C 125.398 -1.75568 5.94623 0
M  V30 1325 C 127.453 -1.91183 4.59732 0
M  V30 1326 C 126.156 -1.34505 7.06612 0
M  V30 1327 C 128.182 -1.51524 5.71659 0
M  V30 1328 C 127.544 -1.23406 6.93506 0
M  V30 1329 H 123.643 -0.539927 0.565688 0
M  V30 1330 H 126.227 -0.834764 1.75897 0
M  V30 1331 H 124.398 -3.34584 1.97251 0
M  V30 1332 H 126.13 -3.38584 2.21682 0
M  V30 1333 H 122.885 -2.49199 4.02737 0
M  V30 1334 H 123.309 -1.74764 6.54054 0
M  V30 1335 H 127.951 -2.11584 3.66049 0
M  V30 1336 H 125.669 -1.12846 8.00182 0
M  V30 1337 H 129.255 -1.41741 5.6427 0
M  V30 1338 H 128.135 -0.931788 7.78645 0
M  V30 1339 N 125.638 -1.25649 -0.95132 0
M  V30 1340 C 126.601 -1.06399 -2.03007 0
M  V30 1341 C 127.601 -0.0156794 -1.60792 0
M  V30 1342 O 128.791 -0.25817 -1.72276 0
M  V30 1343 C 125.923 -0.616184 -3.35285 0
M  V30 1344 H 127.116 -2.02164 -2.21517 0
M  V30 1345 H 124.669 -1.08103 -1.12887 0
M  V30 1346 H 125.404 0.343917 -3.22471 0
M  V30 1347 H 125.189 -1.37301 -3.67275 0
M  V30 1348 H 126.679 -0.503032 -4.14559 0
M  V30 1349 N 127.117 1.15442 -1.07289 0
M  V30 1350 C 128.08 2.18358 -0.696591 0
M  V30 1351 C 129.08 1.58637 0.262837 0
M  V30 1352 O 130.27 1.74145 0.0438809 0
M  V30 1353 C 127.402 3.4089 -0.0266151 0
M  V30 1354 H 128.595 2.53162 -1.60776 0
M  V30 1355 H 126.148 1.29893 -0.869342 0
M  V30 1356 H 126.883 3.11653 0.896822 0
M  V30 1357 H 126.668 3.85495 -0.716657 0
M  V30 1358 H 128.158 4.17009 0.222028 0
M  V30 1359 N 128.595 0.856903 1.32268 0
M  V30 1360 C 129.841 0.462069 1.97466 0
M  V30 1361 C 130.174 -0.980298 1.67642 0
M  V30 1362 O 129.449 -1.68824 0.965858 0
M  V30 1363 C 129.732 0.704336 3.53145 0
M  V30 1364 C 129.585 2.19529 3.9259 0
M  V30 1365 C 130.904 0.1622 4.39801 0
M  V30 1366 H 128.023 0.169357 0.717278 0
M  V30 1367 H 130.665 1.07574 1.56614 0
M  V30 1368 H 128.815 0.181999 3.88073 0
M  V30 1369 H 130.487 2.78387 3.67829 0
M  V30 1370 H 128.73 2.67292 3.41668 0
M  V30 1371 H 129.401 2.31549 5.01088 0
M  V30 1372 H 131.877 0.608905 4.11621 0
M  V30 1373 H 130.753 0.361265 5.4771 0
M  V30 1374 H 131.014 -0.935158 4.32096 0
M  V30 1375 N 130.073 -1.45103 0.615059 0
M  V30 1376 C 131.005 -2.28786 -0.13762 0
M  V30 1377 C 132.018 -1.40376 -0.824525 0
M  V30 1378 O 133.207 -1.64681 -0.688662 0
M  V30 1379 C 130.307 -3.16322 -1.21628 0
M  V30 1380 C 129.48 -4.33054 -0.615039 0
M  V30 1381 C 128.539 -5.01743 -1.58556 0
M  V30 1382 O 127.565 -5.58293 -1.10895 0
M  V30 1383 N 128.767 -5.01714 -2.91998 0
M  V30 1384 H 131.532 -2.94025 0.580483 0
M  V30 1385 H 129.093 -1.55373 0.45507 0
M  V30 1386 H 131.085 -3.59139 -1.86552 0
M  V30 1387 H 129.655 -2.52943 -1.83681 0
M  V30 1388 H 128.875 -3.93627 0.21245 0
M  V30 1389 H 130.163 -5.08431 -0.193704 0
M  V30 1390 H 129.561 -4.57075 -3.33316 0
M  V30 1391 H 128.118 -5.48371 -3.52325 0
M  V30 1392 N 131.551 -0.354651 -1.53558 0
M  V30 1393 C 132.483 0.5315 -2.22952 0
M  V30 1394 C 133.496 1.05503 -1.23988 0
M  V30 1395 O 134.685 0.963279 -1.50277 0
M  V30 1396 C 131.785 1.74538 -2.90499 0
M  V30 1397 C 130.958 1.35524 -4.15875 0
M  V30 1398 C 130.017 2.42999 -4.66731 0
M  V30 1399 O 129.043 2.05844 -5.30676 0
M  V30 1400 N 130.245 3.74423 -4.43608 0
M  V30 1401 H 133.01 -0.0628615 -2.99634 0
M  V30 1402 H 130.571 -0.179302 -1.60904 0
M  V30 1403 H 132.563 2.45892 -3.21433 0
M  V30 1404 H 131.133 2.24686 -2.17336 0
M  V30 1405 H 130.353 0.471998 -3.91364 0
M  V30 1406 H 131.641 1.07071 -4.97406 0
M  V30 1407 H 131.039 4.07391 -3.92491 0
M  V30 1408 H 129.596 4.41913 -4.7912 0
M  V30 1409 N 133.029 1.57378 -0.0835403 0
M  V30 1410 C 133.976 2.13384 0.879539 0
M  V30 1411 C 134.946 1.04936 1.28754 0
M  V30 1412 O 136.131 1.32662 1.37133 0
M  V30 1413 C 133.271 2.70932 2.13752 0
M  V30 1414 C 132.384 3.93575 1.7811 0
M  V30 1415 C 131.519 4.39326 2.98607 0
M  V30 1416 C 130.558 5.54587 2.59037 0
M  V30 1417 N 129.695 5.95243 3.72331 0
M  V30 1418 H 134.535 2.9537 0.395076 0
M  V30 1419 H 132.072 1.45953 0.183349 0
M  V30 1420 H 134.03 3.02411 2.87408 0
M  V30 1421 H 132.66 1.91693 2.59718 0
M  V30 1422 H 131.712 3.68483 0.94469 0
M  V30 1423 H 133.024 4.77258 1.45005 0
M  V30 1424 H 132.178 4.72528 3.80529 0
M  V30 1425 H 130.917 3.5452 3.34913 0
M  V30 1426 H 129.922 5.21024 1.75539 0
M  V30 1427 H 131.147 6.41133 2.23887 0
M  V30 1428 H 129.093 5.13385 4.08378 0
M  V30 1429 H 129.01 6.73694 3.43034 0
M  V30 1430 H 130.278 6.33072 4.54797 0
M  V30 1431 N 134.507 -0.190092 1.56449 0
M  V30 1432 C 135.455 -1.25501 1.95837 0
M  V30 1433 C 136.449 -1.4685 0.844485 0
M  V30 1434 O 137.655 -1.47651 1.02952 0
M  V30 1435 H 134.03 -0.421447 0.622805 0
M  V30 1436 H 136.001 -0.895821 2.84636 0
M  V30 1437 C 134.75 -2.59124 2.31841 0
M  V30 1438 H 134.073 -2.43514 3.17082 0
M  V30 1439 H 135.513 -3.32371 2.6326 0
M  V30 1440 C 133.972 -3.16488 1.15486 0
M  V30 1441 O 134.502 -3.99365 0.432535 0
M  V30 1442 N 132.708 -2.75305 0.930349 0
M  V30 1443 H 132.255 -2.08013 1.51948 0
M  V30 1444 H 132.213 -3.14024 0.153634 0
M  V30 1445 N 135.985 -1.50799 -0.457987 0
M  V30 1446 C 137.21 -1.66496 -1.23668 0
M  V30 1447 C 137.635 -0.353288 -1.84752 0
M  V30 1448 O 136.993 0.684346 -1.67888 0
M  V30 1449 C 137.041 -2.76763 -2.3116 0
M  V30 1450 O 136.145 -2.38928 -3.36136 0
M  V30 1451 H 135.486 -0.555828 -0.363252 0
M  V30 1452 H 138.016 -1.9725 -0.543474 0
M  V30 1453 H 138.026 -3.00232 -2.76269 0
M  V30 1454 H 136.701 -3.71954 -1.86073 0
M  V30 1455 H 135.278 -2.25953 -2.96647 0
M  V30 1456 N 137.463 0.71206 -1.40597 0
M  V30 1457 C 138.393 1.83889 -1.43899 0
M  V30 1458 C 139.374 1.67442 -0.299504 0
M  V30 1459 O 140.559 1.87421 -0.508624 0
M  V30 1460 C 137.689 3.21877 -1.30431 0
M  V30 1461 C 136.643 3.53002 -2.42019 0
M  V30 1462 C 135.969 4.90172 -2.13626 0
M  V30 1463 C 137.269 3.53643 -3.84362 0
M  V30 1464 H 138.963 1.81383 -2.38203 0
M  V30 1465 H 136.509 0.871237 -1.14654 0
M  V30 1466 H 138.462 4.00404 -1.31357 0
M  V30 1467 H 137.186 3.24968 -0.326049 0
M  V30 1468 H 135.845 2.76818 -2.40349 0
M  V30 1469 H 135.493 4.89869 -1.14182 0
M  V30 1470 H 135.193 5.11962 -2.88389 0
M  V30 1471 H 136.717 5.71028 -2.1624 0
M  V30 1472 H 138.131 4.22203 -3.87837 0
M  V30 1473 H 136.528 3.86961 -4.58673 0
M  V30 1474 H 137.598 2.52954 -4.13693 0
M  V30 1475 N 138.941 1.26152 0.944643 0
M  V30 1476 C 139.873 1.03199 2.04652 0
M  V30 1477 C 140.886 -0.00642356 1.62799 0
M  V30 1478 O 142.075 0.233263 1.76969 0
M  V30 1479 C 139.175 0.540111 3.34568 0
M  V30 1480 C 138.348 1.64697 4.05208 0
M  V30 1481 C 137.407 1.15374 5.13396 0
M  V30 1482 O 136.433 1.85013 5.38293 0
M  V30 1483 N 137.635 0.00031529 5.805 0
M  V30 1484 H 140.4 1.9808 2.2491 0
M  V30 1485 H 137.961 1.17491 1.11389 0
M  V30 1486 H 139.953 0.194401 4.04233 0
M  V30 1487 H 138.523 -0.315021 3.11009 0
M  V30 1488 H 137.743 2.16379 3.29506 0
M  V30 1489 H 139.031 2.3903 4.49157 0
M  V30 1490 H 138.429 -0.581336 5.62705 0
M  V30 1491 H 136.986 -0.286346 6.51171 0
M  V30 1492 N 140.419 -1.14872 1.07899 0
M  V30 1493 C 141.644 -1.90202 0.826926 0
M  V30 1494 C 142.069 -1.77774 -0.614664 0
M  V30 1495 O 141.427 -1.11431 -1.43013 0
M  V30 1496 C 141.475 -3.38352 1.24702 0
M  V30 1497 O 140.579 -4.10497 0.39575 0
M  V30 1498 H 139.92 -0.591968 0.300782 0
M  V30 1499 H 142.45 -1.45437 1.43907 0
M  V30 1500 H 142.46 -3.89156 1.22563 0
M  V30 1501 H 141.135 -3.46715 2.29698 0
M  V30 1502 H 139.712 -3.69796 0.480117 0
M  V30 1503 N 141.898 -0.863906 -1.31812 0
M  V30 1504 C 142.808 -0.318461 -2.32428 0
M  V30 1505 C 143.824 0.568496 -1.64451 0
M  V30 1506 O 145 0.46666 -1.95919 0
M  V30 1507 C 142.065 0.476355 -3.43412 0
M  V30 1508 C 141.126 -0.43784 -4.27061 0
M  V30 1509 C 140.359 0.319138 -5.32745 0
M  V30 1510 O 140.582 1.54799 -5.48993 0
M  V30 1511 O 139.516 -0.319861 -6.01049 0
M  V30 1512 H 143.342 -1.15229 -2.80991 0
M  V30 1513 H 140.927 -0.627103 -1.35602 0
M  V30 1514 H 142.809 0.927156 -4.11074 0
M  V30 1515 H 141.484 1.28683 -2.97022 0
M  V30 1516 H 140.391 -0.937013 -3.62175 0
M  V30 1517 H 141.724 -1.21375 -4.77 0
M  V30 1518 N 143.376 1.44774 -0.622745 0
M  V30 1519 C 144.601 2.06999 -0.128968 0
M  V30 1520 C 145.026 1.4617 1.1839 0
M  V30 1521 O 144.384 0.560007 1.72434 0
M  V30 1522 C 144.432 3.60595 -0.0188351 0
M  V30 1523 O 143.536 3.99398 1.02739 0
M  V30 1524 H 142.877 0.659047 -0.0809544 0
M  V30 1525 H 145.407 1.85784 -0.85705 0
M  V30 1526 H 145.417 4.07627 0.174476 0
M  V30 1527 H 144.092 4.04252 -0.977384 0
M  V30 1528 H 142.669 3.64011 0.809326 0
M  V30 1529 N 144.854 0.36279 1.53368 0
M  V30 1530 C 146.102 -0.227326 2.00817 0
M  V30 1531 C 146.423 -1.49511 1.25186 0
M  V30 1532 O 145.693 -1.92482 0.364348 0
M  V30 1533 H 144.273 -0.0869923 0.741917 0
M  V30 1534 H 146.935 0.488381 1.88682 0
M  V30 1535 H 146.031 -0.456273 3.08747 0
M  V30 1536 N 146.332 -1.57332 0.0918853 0
M  V30 1537 C 147.28 -2.15075 -0.885747 0
M  V30 1538 C 148.274 -1.09277 -1.29441 0
M  V30 1539 O 149.48 -1.27627 -1.26931 0
M  V30 1540 H 145.855 -0.687966 -0.303656 0
M  V30 1541 H 147.826 -2.96047 -0.373995 0
M  V30 1542 C 146.575 -2.74325 -2.13638 0
M  V30 1543 H 145.898 -3.55418 -1.8308 0
M  V30 1544 H 147.338 -3.183 -2.80109 0
M  V30 1545 C 145.797 -1.70062 -2.90827 0
M  V30 1546 O 146.327 -1.13763 -3.85254 0
M  V30 1547 N 144.533 -1.40628 -2.54307 0
M  V30 1548 H 144.08 -1.866 -1.7759 0
M  V30 1549 H 144.038 -0.711043 -3.06254 0
M  V30 1550 N 147.81 0.181792 -1.56548 0
M  V30 1551 C 148.74 1.22765 -1.98623 0
M  V30 1552 C 149.721 1.46747 -0.860189 0
M  V30 1553 O 150.906 1.58259 -1.12551 0
M  V30 1554 C 148.036 2.56894 -2.33715 0
M  V30 1555 C 146.99 2.475 -3.49182 0
M  V30 1556 C 146.316 3.86023 -3.69986 0
M  V30 1557 C 147.616 1.98866 -4.82959 0
M  V30 1558 H 149.31 0.877942 -2.86239 0
M  V30 1559 H 146.856 0.42088 -1.37712 0
M  V30 1560 H 148.809 3.30253 -2.61746 0
M  V30 1561 H 147.533 2.93632 -1.42997 0
M  V30 1562 H 146.192 1.76596 -3.21262 0
M  V30 1563 H 145.84 4.20136 -2.76576 0
M  V30 1564 H 145.54 3.80609 -4.47672 0
M  V30 1565 H 147.064 4.60984 -4.00407 0
M  V30 1566 H 148.478 2.61992 -5.09934 0
M  V30 1567 H 146.875 2.04424 -5.64208 0
M  V30 1568 H 147.945 0.942465 -4.75653 0
M  V30 1569 N 149.288 1.51039 0.449983 0
M  V30 1570 C 150.699 1.557 1.03026 0
M  V30 1571 C 151.05 0.372939 1.92623 0
M  V30 1572 O 150.175 -0.511771 2.10261 0
M  V30 1573 C 150.77 2.82171 1.87523 0
M  V30 1574 C 149.329 2.89444 2.40622 0
M  V30 1575 C 148.476 2.50228 1.19504 0
M  V30 1576 H 151.427 1.56999 0.231745 0
M  V30 1577 H 151.448 2.65219 2.72835 0
M  V30 1578 H 150.96 3.68331 1.22286 0
M  V30 1579 H 149.061 2.07685 3.0935 0
M  V30 1580 H 149.174 3.92816 2.74285 0
M  V30 1581 H 147.538 2.03139 1.53644 0
M  V30 1582 H 148.321 3.38719 0.558972 0
M  V30 1583 N 150.766 -0.704594 1.40972 0
M  V30 1584 C 151.696 -1.83124 1.44872 0
M  V30 1585 C 152.677 -1.67281 0.30838 0
M  V30 1586 O 153.862 -1.87149 0.518556 0
M  V30 1587 C 150.992 -3.21181 1.32136 0
M  V30 1588 C 149.946 -3.51714 2.43888 0
M  V30 1589 C 149.272 -4.89032 2.16222 0
M  V30 1590 C 150.572 -3.516 3.86232 0
M  V30 1591 H 152.266 -1.80117 2.39161 0
M  V30 1592 H 149.812 -0.865145 1.15114 0
M  V30 1593 H 151.765 -3.99702 1.33479 0
M  V30 1594 H 150.489 -3.24791 0.343279 0
M  V30 1595 H 149.148 -2.75539 2.41813 0
M  V30 1596 H 148.796 -4.89256 1.16778 0
M  V30 1597 H 148.496 -5.10426 2.911 0
M  V30 1598 H 150.02 -5.69873 2.19265 0
M  V30 1599 H 151.434 -4.2014 3.9007 0
M  V30 1600 H 149.831 -3.84523 4.60719 0
M  V30 1601 H 150.901 -2.50757 4.15029 0
M  V30 1602 N 152.244 -1.26651 -0.937939 0
M  V30 1603 C 153.49 -1.13562 -1.68746 0
M  V30 1604 C 153.845 0.317241 -1.89767 0
M  V30 1605 O 153.138 1.22939 -1.46957 0
M  V30 1606 C 153.332 -1.84168 -3.06295 0
M  V30 1607 C 153.161 -3.36171 -2.98696 0
M  V30 1608 C 151.931 -4.05468 -3.01535 0
M  V30 1609 C 154.129 -4.32312 -2.78588 0
M  V30 1610 N 152.111 -5.44118 -2.84269 0
M  V30 1611 C 153.482 -5.58159 -2.69924 0
M  V30 1612 C 155.537 -4.22524 -2.63396 0
M  V30 1613 C 154.24 -6.75335 -2.47618 0
M  V30 1614 C 156.266 -5.39411 -2.42466 0
M  V30 1615 C 155.628 -6.64208 -2.34536 0
M  V30 1616 H 151.727 -0.470361 -0.624728 0
M  V30 1617 H 154.311 -1.59982 -1.10968 0
M  V30 1618 H 152.482 -1.40219 -3.62206 0
M  V30 1619 H 154.214 -1.63674 -3.70126 0
M  V30 1620 H 150.969 -3.56854 -3.11372 0
M  V30 1621 H 151.393 -6.1693 -2.78795 0
M  V30 1622 H 156.035 -3.26771 -2.68292 0
M  V30 1623 H 153.753 -7.71182 -2.41463 0
M  V30 1624 H 157.339 -5.33711 -2.31611 0
M  V30 1625 H 156.219 -7.53129 -2.18555 0
M  V30 1626 N 153.722 1.14298 -1.08507 0
M  V30 1627 C 154.652 2.21542 -0.737646 0
M  V30 1628 C 155.633 1.67773 0.280377 0
M  V30 1629 O 156.818 1.93616 0.150521 0
M  V30 1630 C 153.948 3.46988 -0.147259 0
M  V30 1631 C 152.902 4.13789 -1.09374 0
M  V30 1632 C 152.228 5.33449 -0.365524 0
M  V30 1633 C 153.528 4.62208 -2.4323 0
M  V30 1634 H 155.222 2.5086 -1.6343 0
M  V30 1635 H 152.768 1.20576 -0.787243 0
M  V30 1636 H 154.721 4.21262 0.107808 0
M  V30 1637 H 153.445 3.17037 0.784538 0
M  V30 1638 H 152.104 3.4147 -1.33393 0
M  V30 1639 H 151.752 4.99759 0.57011 0
M  V30 1640 H 151.452 5.79088 -0.996512 0
M  V30 1641 H 152.976 6.10485 -0.118534 0
M  V30 1642 H 154.39 5.27952 -2.23472 0
M  V30 1643 H 152.787 5.18553 -3.02031 0
M  V30 1644 H 153.857 3.77224 -3.04681 0
M  V30 1645 N 155.201 0.870884 1.31352 0
M  V30 1646 C 156.151 0.298889 2.26032 0
M  V30 1647 C 157.135 -0.564595 1.50669 0
M  V30 1648 O 158.327 -0.411323 1.72154 0
M  V30 1649 C 155.456 -0.497842 3.39671 0
M  V30 1650 C 154.542 0.378937 4.22404 0
M  V30 1651 N 154.933 1.47284 4.83881 0
M  V30 1652 C 153.231 0.171535 4.4567 0
M  V30 1653 C 153.932 2.01359 5.45738 0
M  V30 1654 N 152.908 1.31047 5.27568 0
M  V30 1655 H 156.71 1.13494 2.71102 0
M  V30 1656 H 154.224 0.718745 1.45629 0
M  V30 1657 H 156.221 -0.924155 4.06528 0
M  V30 1658 H 154.881 -1.33149 2.96144 0
M  V30 1659 H 155.892 1.85575 4.8351 0
M  V30 1660 H 152.569 -0.626091 4.12779 0
M  V30 1661 H 153.959 2.93143 6.0458 0
M  V30 1662 N 156.679 -1.44442 0.630414 0
M  V30 1663 C 157.626 -2.30678 -0.0749355 0
M  V30 1664 C 158.596 -1.4344 -0.837502 0
M  V30 1665 O 159.781 -1.72343 -0.818684 0
M  V30 1666 C 156.921 -3.28706 -1.05103 0
M  V30 1667 C 156.034 -4.31046 -0.286954 0
M  V30 1668 C 155.169 -5.16167 -1.2548 0
M  V30 1669 C 154.208 -6.10216 -0.479843 0
M  V30 1670 N 153.345 -6.88039 -1.39811 0
M  V30 1671 H 158.185 -2.90454 0.666386 0
M  V30 1672 H 155.722 -1.43107 0.340404 0
M  V30 1673 H 157.68 -3.84027 -1.63031 0
M  V30 1674 H 156.31 -2.70632 -1.75949 0
M  V30 1675 H 155.362 -3.78203 0.408243 0
M  V30 1676 H 156.674 -4.97794 0.316657 0
M  V30 1677 H 155.828 -5.76002 -1.90544 0
M  V30 1678 H 154.567 -4.49491 -1.89233 0
M  V30 1679 H 153.572 -5.49491 0.184295 0
M  V30 1680 H 154.797 -6.78928 0.152965 0
M  V30 1681 H 152.743 -6.24032 -2.02287 0
M  V30 1682 H 152.66 -7.51223 -0.848508 0
M  V30 1683 H 153.928 -7.52397 -2.03762 0
M  V30 1684 N 158.157 -0.370918 -1.53173 0
M  V30 1685 C 159.404 0.217102 -2.01333 0
M  V30 1686 C 159.732 1.48338 -1.25802 0
M  V30 1687 O 158.987 1.92698 -0.34146 0
M  V30 1688 C 159.286 0.549696 -3.53147 0
M  V30 1689 C 158.952 -0.622872 -4.46577 0
M  V30 1690 C 157.614 -0.944595 -4.71838 0
M  V30 1691 C 159.966 -1.40819 -5.01816 0
M  V30 1692 C 157.294 -2.05351 -5.49589 0
M  V30 1693 C 159.646 -2.50757 -5.80778 0
M  V30 1694 C 158.31 -2.83458 -6.04324 0
M  V30 1695 H 157.58 0.0794431 -0.736729 0
M  V30 1696 H 160.227 -0.504481 -1.84736 0
M  V30 1697 H 158.532 1.35237 -3.6772 0
M  V30 1698 H 160.229 1.017 -3.87889 0
M  V30 1699 H 156.819 -0.36209 -4.27068 0
M  V30 1700 H 161.003 -1.17289 -4.82242 0
M  V30 1701 H 156.259 -2.3108 -5.6605 0
M  V30 1702 H 160.433 -3.12022 -6.22588 0
M  V30 1703 H 158.06 -3.69508 -6.64355 0
M  V30 1704 N 159.635 1.57281 -0.100228 0
M  V30 1705 C 160.882 1.94537 0.562268 0
M  V30 1706 C 161.21 0.982315 1.67871 0
M  V30 1707 O 160.465 0.00280936 1.957 0
M  V30 1708 C 160.764 3.38305 1.15259 0
M  V30 1709 C 160.43 4.50618 0.159409 0
M  V30 1710 C 159.092 4.81066 -0.113741 0
M  V30 1711 C 161.444 5.18615 -0.518461 0
M  V30 1712 C 158.772 5.76835 -1.07137 0
M  V30 1713 C 161.124 6.15412 -1.46459 0
M  V30 1714 C 159.788 6.44262 -1.74592 0
M  V30 1715 H 159.058 0.711863 0.205748 0
M  V30 1716 H 161.705 1.90679 -0.17715 0
M  V30 1717 H 160.01 3.38766 1.96836 0
M  V30 1718 H 161.707 3.64435 1.67297 0
M  V30 1719 H 158.297 4.2689 0.382491 0
M  V30 1720 H 162.481 4.95264 -0.320581 0
M  V30 1721 H 157.737 5.975 -1.29628 0
M  V30 1722 H 161.911 6.67194 -1.99564 0
M  V30 1723 H 159.538 7.1828 -2.48953 0
M  V30 1724 N 161.113 -0.173488 1.56642 0
M  V30 1725 C 162.524 -0.736155 1.71574 0
M  V30 1726 C 162.875 -1.82888 0.710389 0
M  V30 1727 O 162 -2.16017 -0.1287 0
M  V30 1728 C 162.595 -1.34211 3.11083 0
M  V30 1729 C 161.154 -1.85162 3.27707 0
M  V30 1730 C 160.301 -0.729765 2.67525 0
M  V30 1731 H 163.252 0.0518786 1.58615 0
M  V30 1732 H 163.273 -2.21178 3.09613 0
M  V30 1733 H 162.785 -0.546579 3.84232 0
M  V30 1734 H 160.886 -2.67366 2.59512 0
M  V30 1735 H 160.999 -1.99855 4.35425 0
M  V30 1736 H 159.363 -1.14965 2.27278 0
M  V30 1737 H 160.146 0.0538806 3.43258 0
M  V30 1738 N 162.591 -1.51276 -0.441967 0
M  V30 1739 C 163.821 -1.67273 -1.21257 0
M  V30 1740 C 164.229 -0.367624 -1.85594 0
M  V30 1741 O 163.572 0.663349 -1.71305 0
M  V30 1742 C 163.634 -2.72807 -2.34129 0
M  V30 1743 C 163.298 -4.1554 -1.90198 0
M  V30 1744 C 164.295 -5.00471 -1.40801 0
M  V30 1745 C 161.98 -4.61616 -1.9803 0
M  V30 1746 C 163.974 -6.29536 -0.998174 0
M  V30 1747 C 161.661 -5.90679 -1.56658 0
M  V30 1748 C 162.659 -6.74466 -1.07633 0
M  V30 1749 O 162.347 -8.01116 -0.668459 0
M  V30 1750 H 162.079 -0.564614 -0.371734 0
M  V30 1751 H 164.633 -1.9843 -0.530521 0
M  V30 1752 H 162.863 -2.36954 -3.05597 0
M  V30 1753 H 164.552 -2.77729 -2.96009 0
M  V30 1754 H 165.318 -4.66079 -1.34148 0
M  V30 1755 H 161.197 -3.96526 -2.35135 0
M  V30 1756 H 164.741 -6.94885 -0.61482 0
M  V30 1757 H 160.638 -6.24586 -1.62979 0
M  V30 1758 H 161.406 -8.14633 -0.794722 0
M  V30 1759 N 164.069 0.697108 -1.41344 0
M  V30 1760 C 165.318 1.45279 -1.39918 0
M  V30 1761 C 165.631 1.95597 -0.0109624 0
M  V30 1762 O 166.837 2.71208 0.125919 0
M  V30 1763 C 165.293 2.62695 -2.46007 0
M  V30 1764 C 164.901 2.19169 -3.90729 0
M  V30 1765 C 166.645 3.40336 -2.53715 0
M  V30 1766 C 164.552 3.33535 -4.88373 0
M  V30 1767 H 163.482 0.545692 -0.520323 0
M  V30 1768 H 166.133 0.756929 -1.67161 0
M  V30 1769 H 164.515 3.34541 -2.11892 0
M  V30 1770 H 165.689 1.54623 -4.34083 0
M  V30 1771 H 164.004 1.54525 -3.86666 0
M  V30 1772 H 166.601 4.2547 -3.2385 0
M  V30 1773 H 166.944 3.85418 -1.5735 0
M  V30 1774 H 167.477 2.75546 -2.86913 0
M  V30 1775 H 164.216 2.93468 -5.86137 0
M  V30 1776 H 163.736 3.96936 -4.49668 0
M  V30 1777 H 165.415 3.99335 -5.09059 0
M  V30 1778 N 165.547 1.27147 0.931209 0
M  V30 1779 C 166.477 1.12081 2.04842 0
M  V30 1780 C 167.458 0.0232364 1.70084 0
M  V30 1781 O 168.643 0.197085 1.93197 0
M  V30 1782 C 165.773 0.76354 3.38803 0
M  V30 1783 C 164.727 1.81396 3.87659 0
M  V30 1784 C 164.053 1.31075 5.18385 0
M  V30 1785 C 165.353 3.21739 4.11438 0
M  V30 1786 H 167.047 2.05537 2.17703 0
M  V30 1787 H 164.593 0.989603 1.04608 0
M  V30 1788 H 166.546 0.644982 4.16435 0
M  V30 1789 H 165.27 -0.206727 3.25945 0
M  V30 1790 H 163.929 1.92136 3.12217 0
M  V30 1791 H 163.577 0.330037 5.01916 0
M  V30 1792 H 163.277 2.013 5.52044 0
M  V30 1793 H 164.801 1.20506 5.98591 0
M  V30 1794 H 166.215 3.14019 4.79651 0
M  V30 1795 H 164.612 3.89644 4.56397 0
M  V30 1796 H 165.682 3.67054 3.16859 0
M  V30 1797 N 167.025 -1.13721 1.09112 0
M  V30 1798 C 167.955 -2.21148 0.749385 0
M  V30 1799 C 168.936 -1.6792 -0.271475 0
M  V30 1800 O 170.121 -1.93693 -0.140251 0
M  V30 1801 C 167.251 -3.46905 0.165659 0
M  V30 1802 C 166.205 -4.13203 1.11567 0
M  V30 1803 C 165.531 -5.33248 0.393809 0
M  V30 1804 C 166.831 -4.60912 2.45678 0
M  V30 1805 H 168.525 -2.4999 1.64758 0
M  V30 1806 H 166.071 -1.20156 0.793626 0
M  V30 1807 H 168.024 -4.21313 -0.085466 0
M  V30 1808 H 166.748 -3.17449 -0.767714 0
M  V30 1809 H 165.407 -3.40758 1.35202 0
M  V30 1810 H 165.055 -5.00054 -0.543599 0
M  V30 1811 H 164.755 -5.78552 1.02721 0
M  V30 1812 H 166.279 -6.10413 0.150908 0
M  V30 1813 H 167.693 -5.26759 2.26269 0
M  V30 1814 H 166.09 -5.16944 3.04776 0
M  V30 1815 H 167.16 -3.75603 3.06677 0
M  V30 1816 N 168.503 -0.877838 -1.30888 0
M  V30 1817 C 169.433 -0.35534 -2.3078 0
M  V30 1818 C 170.414 0.557994 -1.60687 0
M  V30 1819 O 171.599 0.473355 -1.88343 0
M  V30 1820 C 168.729 0.437221 -3.44537 0
M  V30 1821 C 167.683 -0.383715 -4.26276 0
M  V30 1822 C 167.009 0.535014 -5.32017 0
M  V30 1823 C 168.309 -1.62201 -4.96476 0
M  V30 1824 H 170.003 -1.19007 -2.74732 0
M  V30 1825 H 167.549 -0.573698 -1.32078 0
M  V30 1826 H 169.502 0.813334 -4.13477 0
M  V30 1827 H 168.226 1.30553 -2.99372 0
M  V30 1828 H 166.885 -0.741874 -3.59015 0
M  V30 1829 H 166.533 1.40083 -4.831 0
M  V30 1830 H 166.233 -0.0104211 -5.87599 0
M  V30 1831 H 167.757 0.907799 -6.03814 0
M  V30 1832 H 169.171 -1.31689 -5.5797 0
M  V30 1833 H 167.568 -2.10711 -5.61891 0
M  V30 1834 H 168.638 -2.37044 -4.23011 0
M  V30 1835 N 169.982 1.44106 -0.638065 0
M  V30 1836 C 171.229 2.01978 -0.14533 0
M  V30 1837 C 171.557 1.50234 1.23532 0
M  V30 1838 O 170.812 0.679548 1.83523 0
M  V30 1839 C 171.111 3.5729 -0.0887327 0
M  V30 1840 C 170.777 4.28317 -1.40909 0
M  V30 1841 C 169.439 4.47437 -1.77069 0
M  V30 1842 C 171.791 4.6867 -2.28031 0
M  V30 1843 C 169.119 5.04171 -3.00047 0
M  V30 1844 C 171.471 5.26766 -3.50286 0
M  V30 1845 C 170.135 5.44104 -3.86661 0
M  V30 1846 H 169.405 0.739089 -0.0531801 0
M  V30 1847 H 172.052 1.72781 -0.825761 0
M  V30 1848 H 170.357 3.8594 0.675095 0
M  V30 1849 H 172.054 3.99807 0.309145 0
M  V30 1850 H 168.644 4.1377 -1.1177 0
M  V30 1851 H 172.828 4.53604 -2.01388 0
M  V30 1852 H 168.084 5.15782 -3.28298 0
M  V30 1853 H 172.258 5.56983 -4.18023 0
M  V30 1854 H 169.885 5.87832 -4.82034 0
M  V30 1855 N 171.46 0.379036 1.52974 0
M  V30 1856 C 172.423 -0.448865 2.24762 0
M  V30 1857 C 173.423 -0.998689 1.26027 0
M  V30 1858 O 174.613 -0.882313 1.50203 0
M  V30 1859 C 171.745 -1.62872 2.99476 0
M  V30 1860 H 172.938 0.179491 2.99362 0
M  V30 1861 H 170.491 0.13096 1.5575 0
M  V30 1862 H 171.226 -2.29479 2.29151 0
M  V30 1863 H 171.011 -1.24128 3.71934 0
M  V30 1864 H 172.501 -2.2151 3.5401 0
M  V30 1865 N 172.938 -1.57226 0.108567 0
M  V30 1866 C 174.187 -1.94008 -0.551703 0
M  V30 1867 C 174.5 -0.993442 -1.68494 0
M  V30 1868 O 175.706 -1.25551 -2.40726 0
M  V30 1869 C 174.162 -3.44763 -1.03279 0
M  V30 1870 C 173.77 -4.47943 0.0714193 0
M  V30 1871 C 175.514 -3.90483 -1.66503 0
M  V30 1872 C 173.421 -5.89865 -0.425779 0
M  V30 1873 H 172.351 -0.724206 -0.209863 0
M  V30 1874 H 175.002 -1.82547 0.186741 0
M  V30 1875 H 173.384 -3.51422 -1.82533 0
M  V30 1876 H 174.558 -4.52942 0.847365 0
M  V30 1877 H 172.873 -4.11913 0.609669 0
M  V30 1878 H 175.47 -4.93925 -2.04798 0
M  V30 1879 H 175.813 -3.29877 -2.53942 0
M  V30 1880 H 176.346 -3.86581 -0.938074 0
M  V30 1881 H 173.085 -6.54202 0.412316 0
M  V30 1882 H 172.605 -5.88309 -1.16843 0
M  V30 1883 H 174.284 -6.40844 -0.890397 0
M  V30 1884 N 174.416 0.165178 -1.56732 0
M  V30 1885 C 175.346 1.20651 -1.99914 0
M  V30 1886 C 176.327 1.45827 -0.875705 0
M  V30 1887 O 177.512 1.57057 -1.14223 0
M  V30 1888 C 174.642 2.54401 -2.36427 0
M  V30 1889 C 173.596 2.43782 -3.51787 0
M  V30 1890 C 172.922 3.82078 -3.7406 0
M  V30 1891 C 174.222 1.93732 -4.85041 0
M  V30 1892 H 175.916 0.847534 -2.87154 0
M  V30 1893 H 173.462 0.40625 -1.38151 0
M  V30 1894 H 175.415 3.27458 -2.65234 0
M  V30 1895 H 174.139 2.92098 -1.46103 0
M  V30 1896 H 172.798 1.73178 -3.23117 0
M  V30 1897 H 172.446 4.17179 -2.81017 0
M  V30 1898 H 172.146 3.7584 -4.51684 0
M  V30 1899 H 173.67 4.56712 -4.05274 0
M  V30 1900 H 175.084 2.56569 -5.12684 0
M  V30 1901 H 173.481 1.98428 -5.66345 0
M  V30 1902 H 174.551 0.891962 -4.76626 0
M  V30 1903 N 175.894 1.51508 0.433938 0
M  V30 1904 C 176.824 1.76016 1.53429 0
M  V30 1905 C 177.805 0.610112 1.58782 0
M  V30 1906 O 178.99 0.853177 1.74455 0
M  V30 1907 C 176.12 1.88831 2.9148 0
M  V30 1908 C 175.074 3.04288 3.00987 0
M  V30 1909 C 174.4 3.0229 4.4105 0
M  V30 1910 C 175.7 4.44193 2.74754 0
M  V30 1911 H 177.394 2.68152 1.33171 0
M  V30 1912 H 174.94 1.29035 0.639214 0
M  V30 1913 H 176.893 2.04559 3.6842 0
M  V30 1914 H 175.617 0.933455 3.12976 0
M  V30 1915 H 174.276 2.8827 2.26486 0
M  V30 1916 H 173.924 2.04576 4.59519 0
M  V30 1917 H 173.624 3.79822 4.4834 0
M  V30 1918 H 175.148 3.20116 5.1996 0
M  V30 1919 H 176.562 4.60544 3.41426 0
M  V30 1920 H 174.959 5.23457 2.9345 0
M  V30 1921 H 176.029 4.53996 1.70339 0
M  V30 1922 N 177.372 -0.689602 1.41712 0
M  V30 1923 C 178.602 -1.47613 1.44548 0
M  V30 1924 C 179.01 -1.89132 0.0509034 0
M  V30 1925 O 178.353 -1.57741 -0.94146 0
M  V30 1926 C 178.415 -2.76596 2.2964 0
M  V30 1927 C 178.079 -2.57245 3.77722 0
M  V30 1928 C 179.076 -2.22804 4.69739 0
M  V30 1929 C 176.761 -2.727 4.2183 0
M  V30 1930 C 178.755 -2.04064 6.03851 0
M  V30 1931 C 176.442 -2.53576 5.56006 0
M  V30 1932 C 177.44 -2.1931 6.46832 0
M  V30 1933 O 177.128 -2.00359 7.78532 0
M  V30 1934 H 176.86 -0.461227 0.494212 0
M  V30 1935 H 179.414 -0.856045 1.86711 0
M  V30 1936 H 177.644 -3.41033 1.82301 0
M  V30 1937 H 179.333 -3.38424 2.24107 0
M  V30 1938 H 180.099 -2.10473 4.36951 0
M  V30 1939 H 175.978 -2.98353 3.51435 0
M  V30 1940 H 179.522 -1.77241 6.74708 0
M  V30 1941 H 175.419 -2.65499 5.88371 0
M  V30 1942 H 176.187 -2.15075 7.89737 0
M  V30 1943 N 178.85 -1.27639 -0.924453 0
M  V30 1944 C 179.78 -1.13166 -2.04244 0
M  V30 1945 C 180.761 -0.032256 -1.70069 0
M  V30 1946 O 181.946 -0.207328 -1.9309 0
M  V30 1947 C 179.076 -0.781496 -3.38393 0
M  V30 1948 C 178.03 -1.83449 -3.86692 0
M  V30 1949 C 177.356 -1.33822 -5.17683 0
M  V30 1950 C 178.656 -3.23917 -4.09726 0
M  V30 1951 H 180.35 -2.06689 -2.1661 0
M  V30 1952 H 177.896 -0.995136 -1.04082 0
M  V30 1953 H 179.849 -0.667057 -4.16087 0
M  V30 1954 H 178.573 0.189439 -3.2605 0
M  V30 1955 H 177.232 -1.93789 -3.11193 0
M  V30 1956 H 176.88 -0.35665 -5.01734 0
M  V30 1957 H 176.58 -2.04224 -5.50968 0
M  V30 1958 H 178.104 -1.23679 -5.97943 0
M  V30 1959 H 179.518 -3.16559 -4.77978 0
M  V30 1960 H 177.915 -3.92059 -4.54324 0
M  V30 1961 H 178.985 -3.68729 -3.14908 0
M  V30 1962 N 180.328 1.1314 -1.09713 0
M  V30 1963 C 181.739 1.66029 -0.853885 0
M  V30 1964 C 182.09 1.86241 0.617142 0
M  V30 1965 O 181.215 1.5834 1.47503 0
M  V30 1966 C 181.81 3.01599 -1.5435 0
M  V30 1967 C 180.369 3.51467 -1.34714 0
M  V30 1968 C 179.516 2.26648 -1.59769 0
M  V30 1969 H 182.467 0.970226 -1.25588 0
M  V30 1970 H 182.488 3.67709 -0.978267 0
M  V30 1971 H 182 2.86856 -2.6141 0
M  V30 1972 H 180.101 3.71408 -0.297838 0
M  V30 1973 H 180.214 4.314 -2.08401 0
M  V30 1974 H 178.578 2.33385 -1.01998 0
M  V30 1975 H 179.361 2.14467 -2.68065 0
M  V30 1976 N 181.806 0.884767 1.30421 0
M  V30 1977 C 183.217 0.553656 1.78302 0
M  V30 1978 C 183.568 -0.930153 1.7275 0
M  V30 1979 O 182.693 -1.72681 1.30423 0
M  V30 1980 C 183.288 0.998234 3.2376 0
M  V30 1981 C 181.847 0.71854 3.69478 0
M  V30 1982 C 180.994 1.18132 2.50879 0
M  V30 1983 H 183.945 1.06901 1.17294 0
M  V30 1984 H 183.966 0.327118 3.79091 0
M  V30 1985 H 183.478 2.0782 3.27769 0
M  V30 1986 H 181.579 -0.349444 3.70958 0
M  V30 1987 H 181.692 1.30595 4.60958 0
M  V30 1988 H 180.056 0.600669 2.47516 0
M  V30 1989 H 180.839 2.26902 2.57624 0
M  V30 1990 N 183.284 -1.43765 0.645699 0
M  V30 1991 C 184.214 -2.33471 -0.0370477 0
M  V30 1992 C 185.195 -1.49042 -0.819779 0
M  V30 1993 O 186.38 -1.77726 -0.782758 0
M  V30 1994 C 183.51 -3.32311 -1.0093 0
M  V30 1995 C 182.464 -4.2667 -0.337201 0
M  V30 1996 C 181.79 -5.1549 -1.42037 0
M  V30 1997 C 183.09 -5.16657 0.765706 0
M  V30 1998 H 184.784 -2.90809 0.712069 0
M  V30 1999 H 182.33 -1.39834 0.343876 0
M  V30 2000 H 184.283 -3.9396 -1.49578 0
M  V30 2001 H 183.007 -2.73213 -1.78948 0
M  V30 2002 H 181.666 -3.66374 0.128771 0
M  V30 2003 H 181.314 -4.52735 -2.1918 0
M  V30 2004 H 181.014 -5.79438 -0.975966 0
M  V30 2005 H 182.538 -5.80012 -1.90838 0
M  V30 2006 H 183.952 -5.72158 0.361702 0
M  V30 2007 H 182.349 -5.89286 1.13413 0
M  V30 2008 H 183.419 -4.56796 1.62683 0
M  V30 2009 N 184.763 -0.387143 -1.52771 0
M  V30 2010 C 186.01 0.195735 -2.01552 0
M  V30 2011 C 186.338 1.46995 -1.27369 0
M  V30 2012 O 185.593 1.92325 -0.361879 0
M  V30 2013 C 185.892 0.512209 -3.53711 0
M  V30 2014 C 185.558 -0.670202 -4.45891 0
M  V30 2015 C 184.22 -0.994586 -4.70809 0
M  V30 2016 C 186.572 -1.46134 -5.00294 0
M  V30 2017 C 183.9 -2.11169 -5.4738 0
M  V30 2018 C 186.252 -2.56903 -5.78086 0
M  V30 2019 C 184.916 -2.89852 -6.01284 0
M  V30 2020 H 184.186 0.0716246 -0.73753 0
M  V30 2021 H 186.833 -0.524046 -1.8419 0
M  V30 2022 H 185.138 1.31329 -3.69134 0
M  V30 2023 H 186.835 0.975804 -3.88946 0
M  V30 2024 H 183.425 -0.407366 -4.2666 0
M  V30 2025 H 187.609 -1.22397 -4.80971 0
M  V30 2026 H 182.865 -2.3707 -5.63567 0
M  V30 2027 H 187.039 -3.18608 -6.19243 0
M  V30 2028 H 184.666 -3.76533 -6.60399 0
M  V30 2029 N 186.241 1.57166 -0.116904 0
M  V30 2030 C 187.487 1.96206 0.536166 0
M  V30 2031 C 187.842 0.99915 1.64422 0
M  V30 2032 O 187.135 0.0288195 1.91578 0
M  V30 2033 C 187.329 3.39508 1.11664 0
M  V30 2034 C 187.158 4.49651 0.0663474 0
M  V30 2035 C 185.928 5.03982 -0.36474 0
M  V30 2036 C 188.126 5.09322 -0.713829 0
M  V30 2037 N 186.108 5.97699 -1.40102 0
M  V30 2038 C 187.479 5.98963 -1.60136 0
M  V30 2039 C 189.534 4.91989 -0.764948 0
M  V30 2040 C 188.237 6.73128 -2.53556 0
M  V30 2041 C 190.263 5.66833 -1.68685 0
M  V30 2042 C 189.625 6.56158 -2.56196 0
M  V30 2043 H 185.724 0.764203 0.165886 0
M  V30 2044 H 188.308 1.93623 -0.204535 0
M  V30 2045 H 186.479 3.42743 1.82707 0
M  V30 2046 H 188.211 3.65677 1.73386 0
M  V30 2047 H 184.966 4.73592 0.027252 0
M  V30 2048 H 185.39 6.49262 -1.91802 0
M  V30 2049 H 190.032 4.22676 -0.102501 0
M  V30 2050 H 187.75 7.41689 -3.20816 0
M  V30 2051 H 191.336 5.55427 -1.73181 0
M  V30 2052 H 190.216 7.13057 -3.26372 0
M  V30 2053 N 187.719 -0.156864 1.56817 0
M  V30 2054 C 189.135 -0.50916 1.5126 0
M  V30 2055 C 189.335 -1.83897 0.823658 0
M  V30 2056 O 188.391 -2.49469 0.390055 0
M  V30 2057 C 189.704 -0.52857 2.96018 0
M  V30 2058 C 191.252 -0.614771 3.06903 0
M  V30 2059 C 191.727 -0.664938 4.53147 0
M  V30 2060 N 193.218 -0.727433 4.57452 0
M  V30 2061 C 193.953 -0.787067 5.67973 0
M  V30 2062 N 193.449 -0.806649 6.88088 0
M  V30 2063 N 195.242 -0.827195 5.5598 0
M  V30 2064 H 187.393 0.714935 2.00006 0
M  V30 2065 H 189.656 0.259526 0.911784 0
M  V30 2066 H 189.362 0.380154 3.49639 0
M  V30 2067 H 189.236 -1.36998 3.51442 0
M  V30 2068 H 191.623 -1.51392 2.53307 0
M  V30 2069 H 191.704 0.253597 2.5454 0
M  V30 2070 H 191.348 0.230011 5.07379 0
M  V30 2071 H 191.278 -1.54966 5.03282 0
M  V30 2072 H 193.769 -0.719998 3.70978 0
M  V30 2073 H 194.082 -0.853727 7.6807 0
M  V30 2074 H 192.427 -0.774687 6.90669 0
M  V30 2075 H 195.618 -0.808998 4.61056 0
M  V30 2076 H 195.791 -0.870206 6.4213 0
M  V30 2077 N 189.197 -1.51736 -0.425897 0
M  V30 2078 C 190.444 -1.6497 -1.17436 0
M  V30 2079 C 190.772 -0.371445 -1.9092 0
M  V30 2080 O 190.027 0.644963 -1.84767 0
M  V30 2081 C 190.326 -2.81103 -2.20717 0
M  V30 2082 C 189.992 -4.19954 -1.64162 0
M  V30 2083 C 188.654 -4.57725 -1.48462 0
M  V30 2084 C 191.006 -5.06552 -1.22696 0
M  V30 2085 C 188.334 -5.79789 -0.897873 0
M  V30 2086 C 190.686 -6.29205 -0.654464 0
M  V30 2087 C 189.35 -6.6574 -0.484456 0
M  V30 2088 H 188.62 -0.603668 -0.429727 0
M  V30 2089 H 191.267 -1.85798 -0.463829 0
M  V30 2090 H 189.572 -2.54542 -2.97852 0
M  V30 2091 H 191.269 -2.8854 -2.78471 0
M  V30 2092 H 187.859 -3.90181 -1.77361 0
M  V30 2093 H 192.043 -4.77968 -1.33642 0
M  V30 2094 H 187.299 -6.06733 -0.75402 0
M  V30 2095 H 191.473 -6.95643 -0.324694 0
M  V30 2096 H 189.1 -7.60195 -0.0276833 0
M  V30 2097 N 190.675 0.682077 -1.42076 0
M  V30 2098 C 191.638 1.77756 -1.44691 0
M  V30 2099 C 192.638 1.5726 -0.335535 0
M  V30 2100 O 193.828 1.63686 -0.596037 0
M  V30 2101 C 190.96 3.16301 -1.27146 0
M  V30 2102 H 192.153 1.76826 -2.42224 0
M  V30 2103 H 189.706 0.891012 -1.28416 0
M  V30 2104 H 190.441 3.22862 -0.305075 0
M  V30 2105 H 190.226 3.32581 -2.07683 0
M  V30 2106 H 191.716 3.96241 -1.31843 0
M  V30 2107 N 192.153 1.28127 0.917671 0
M  V30 2108 C 193.116 1.11744 2.00115 0
M  V30 2109 C 194.116 0.0583052 1.60694 0
M  V30 2110 O 195.306 0.303755 1.71531 0
M  V30 2111 C 192.438 0.704862 3.33533 0
M  V30 2112 H 193.631 2.07966 2.16079 0
M  V30 2113 H 191.184 1.11058 1.09981 0
M  V30 2114 H 191.919 -0.258299 3.2327 0
M  V30 2115 H 191.704 1.4699 3.63505 0
M  V30 2116 H 193.194 0.612768 4.1308 0
M  V30 2117 N 193.631 -1.12557 1.10312 0
M  V30 2118 C 194.594 -2.16434 0.75424 0
M  V30 2119 C 195.594 -1.59278 -0.220685 0
M  V30 2120 O 196.784 -1.742 0.00230591 0
M  V30 2121 C 193.916 -3.40699 0.116987 0
M  V30 2122 H 195.109 -2.48811 1.67431 0
M  V30 2123 H 192.662 -1.27542 0.903475 0
M  V30 2124 H 193.397 -3.13921 -0.813877 0
M  V30 2125 H 193.182 -3.83459 0.818613 0
M  V30 2126 H 194.672 -4.17451 -0.111387 0
M  V30 2127 N 195.109 -0.891671 -1.2995 0
M  V30 2128 C 196.52 -0.563104 -1.78006 0
M  V30 2129 C 196.871 0.920978 -1.73241 0
M  V30 2130 O 195.996 1.71987 -1.31337 0
M  V30 2131 C 196.591 -1.01539 -3.23226 0
M  V30 2132 C 195.15 -0.738124 -3.69092 0
M  V30 2133 C 194.297 -1.19461 -2.50249 0
M  V30 2134 H 197.248 -1.07522 -1.16725 0
M  V30 2135 H 197.269 -0.347217 -3.78912 0
M  V30 2136 H 196.781 -2.09555 -3.26662 0
M  V30 2137 H 194.882 0.329766 -3.71138 0
M  V30 2138 H 194.995 -1.33037 -4.60259 0
M  V30 2139 H 193.359 -0.613787 -2.47194 0
M  V30 2140 H 194.142 -2.28265 -2.56417 0
M  V30 2141 N 196.587 1.43421 -0.653314 0
M  V30 2142 C 197.537 2.2792 0.060558 0
M  V30 2143 C 198.521 1.39906 0.794677 0
M  V30 2144 O 199.713 1.63536 0.677128 0
M  V30 2145 C 196.842 3.27603 1.0262 0
M  V30 2146 C 195.928 4.23104 0.290551 0
M  V30 2147 N 196.319 5.01031 -0.692967 0
M  V30 2148 C 194.617 4.42816 0.531984 0
M  V30 2149 C 195.318 5.70626 -1.12963 0
M  V30 2150 N 194.294 5.41617 -0.463867 0
M  V30 2151 H 198.096 2.85585 -0.694143 0
M  V30 2152 H 195.61 1.55126 -0.480602 0
M  V30 2153 H 197.607 3.86918 1.55242 0
M  V30 2154 H 196.267 2.71499 1.78096 0
M  V30 2155 H 197.278 5.0669 -1.07169 0
M  V30 2156 H 193.955 3.97782 1.26791 0
M  V30 2157 H 195.345 6.4318 -1.94343 0
M  V30 2158 N 198.065 0.39524 1.52563 0
M  V30 2159 C 199.314 -0.186321 2.00838 0
M  V30 2160 C 199.627 -1.47402 1.28577 0
M  V30 2161 O 200.833 -2.13599 1.67593 0
M  V30 2162 C 199.289 -0.382595 3.57861 0
M  V30 2163 C 198.897 0.892202 4.39026 0
M  V30 2164 C 200.641 -0.9202 4.14406 0
M  V30 2165 C 198.548 0.66388 5.87662 0
M  V30 2166 H 197.478 -0.0734041 0.750418 0
M  V30 2167 H 200.129 0.518552 1.76021 0
M  V30 2168 H 198.511 -1.14946 3.7895 0
M  V30 2169 H 199.685 1.66414 4.29701 0
M  V30 2170 H 198 1.35519 3.9373 0
M  V30 2171 H 200.597 -1.10683 5.23119 0
M  V30 2172 H 200.94 -1.89096 3.70875 0
M  V30 2173 H 201.473 -0.212751 3.97231 0
M  V30 2174 H 198.212 1.6058 6.35527 0
M  V30 2175 H 197.732 -0.0690193 5.9976 0
M  V30 2176 H 199.411 0.300699 6.46301 0
M  V30 2177 N 199.544 -1.57102 0.125237 0
M  V30 2178 C 200.784 -1.97294 -0.534259 0
M  V30 2179 C 201.148 -1.0074 -1.63449 0
M  V30 2180 O 202.349 -1.29893 -2.35332 0
M  V30 2181 C 200.62 -3.41705 -1.04748 0
M  V30 2182 S 202.179 -4.03913 -1.71463 0
M  V30 2183 H 198.997 -0.689517 -0.173458 0
M  V30 2184 H 201.599 -1.94349 0.211797 0
M  V30 2185 H 200.303 -4.09723 -0.235649 0
M  V30 2186 H 199.834 -3.48315 -1.82867 0
M  V30 2187 H 201.849 -3.95182 -3.00077 0
M  V30 2188 N 201.022 0.148545 -1.56898 0
M  V30 2189 C 202.247 0.880385 -1.87787 0
M  V30 2190 C 202.672 1.74018 -0.714093 0
M  V30 2191 O 202.03 1.78153 0.336343 0
M  V30 2192 C 202.078 1.71422 -3.17249 0
M  V30 2193 O 201.182 2.8183 -3.01074 0
M  V30 2194 H 200.523 0.245301 -0.617028 0
M  V30 2195 H 203.053 0.139826 -2.04122 0
M  V30 2196 H 203.063 2.10954 -3.49231 0
M  V30 2197 H 201.738 1.08284 -4.01556 0
M  V30 2198 H 200.315 2.45715 -2.80497 0
M  V30 2199 N 202.5 1.5196 0.417844 0
M  V30 2200 C 203.777 1.56146 1.17803 0
M  V30 2201 C 204.157 0.337275 2.08388 0
M  V30 2202 O 203.505 -0.676447 2.18258 0
M  V30 2203 C 203.715 2.88566 1.96293 0
M  V30 2204 C 205.063 3.41244 2.52662 0
M  V30 2205 O 206.087 2.90247 2.06483 0
M  V30 2206 O 204.946 4.30273 3.36938 0
M  V30 2207 H 202.04 0.628598 0.537395 0
M  V30 2208 H 204.586 1.64283 0.425331 0
M  V30 2209 H 203.358 3.69116 1.2988 0
M  V30 2210 H 202.981 2.83681 2.78587 0
M  V30 2211 N 203.978 -0.674533 1.42435 0
M  V30 2212 C 204.908 -1.80009 1.48724 0
M  V30 2213 C 205.889 -1.6659 0.343793 0
M  V30 2214 O 207.074 -1.86007 0.558137 0
M  V30 2215 C 204.204 -3.18306 1.38919 0
M  V30 2216 C 203.158 -3.46461 2.51294 0
M  V30 2217 C 202.484 -4.84335 2.26547 0
M  V30 2218 C 203.784 -3.43328 3.93603 0
M  V30 2219 H 205.478 -1.75004 2.42928 0
M  V30 2220 H 203.024 -0.840533 1.16923 0
M  V30 2221 H 204.977 -3.9678 1.41927 0
M  V30 2222 H 203.701 -3.2399 0.412094 0
M  V30 2223 H 202.36 -2.70348 2.47604 0
M  V30 2224 H 202.008 -4.86669 1.2713 0
M  V30 2225 H 201.708 -5.04136 3.01861 0
M  V30 2226 H 203.232 -5.65094 2.31304 0
M  V30 2227 H 204.646 -4.11772 3.98894 0
M  V30 2228 H 203.043 -3.74664 4.68771 0
M  V30 2229 H 204.113 -2.41897 4.20255 0
M  V30 2230 N 205.456 -1.28612 -0.910864 0
M  V30 2231 C 206.403 -1.12786 -2.01365 0
M  V30 2232 C 207.373 -0.024201 -1.66082 0
M  V30 2233 O 208.558 -0.189667 -1.89855 0
M  V30 2234 C 205.698 -0.798743 -3.35729 0
M  V30 2235 C 204.811 -1.98173 -3.83864 0
M  V30 2236 C 203.946 -1.59298 -5.06752 0
M  V30 2237 C 202.985 -2.74245 -5.47226 0
M  V30 2238 N 202.122 -2.35842 -6.61304 0
M  V30 2239 H 206.962 -2.07142 -2.14234 0
M  V30 2240 H 204.499 -1.03093 -1.0493 0
M  V30 2241 H 206.457 -0.588662 -4.13026 0
M  V30 2242 H 205.087 0.10789 -3.2262 0
M  V30 2243 H 204.139 -2.30386 -3.02699 0
M  V30 2244 H 205.451 -2.84343 -4.09818 0
M  V30 2245 H 204.605 -1.34513 -5.916 0
M  V30 2246 H 203.344 -0.702618 -4.82612 0
M  V30 2247 H 202.349 -2.99725 -4.60918 0
M  V30 2248 H 203.574 -3.63928 -5.73353 0
M  V30 2249 H 201.52 -1.49279 -6.38789 0
M  V30 2250 H 201.437 -3.15546 -6.86998 0
M  V30 2251 H 202.705 -2.14348 -7.4945 0
M  V30 2252 N 206.934 1.1197 -1.10907 0
M  V30 2253 C 208.181 1.83588 -0.854507 0
M  V30 2254 C 208.509 1.84357 0.6199 0
M  V30 2255 O 207.764 1.28809 1.47332 0
M  V30 2256 C 208.063 3.30749 -1.35425 0
M  V30 2257 C 207.729 3.50146 -2.84093 0
M  V30 2258 C 206.391 3.55148 -3.2469 0
M  V30 2259 C 208.743 3.56857 -3.79872 0
M  V30 2260 C 206.071 3.6441 -4.59806 0
M  V30 2261 C 208.423 3.6765 -5.14797 0
M  V30 2262 C 207.087 3.7091 -5.54961 0
M  V30 2263 H 206.357 0.671795 -0.312686 0
M  V30 2264 H 209.004 1.32091 -1.38652 0
M  V30 2265 H 207.309 3.84703 -0.742361 0
M  V30 2266 H 209.006 3.8464 -1.1337 0
M  V30 2267 H 205.596 3.46919 -2.51685 0
M  V30 2268 H 209.78 3.52258 -3.49611 0
M  V30 2269 H 205.036 3.65208 -4.9034 0
M  V30 2270 H 209.21 3.71786 -5.88853 0
M  V30 2271 H 206.837 3.7784 -6.59652 0
M  V30 2272 N 208.412 0.89855 1.29475 0
M  V30 2273 C 209.661 0.519863 1.94885 0
M  V30 2274 C 209.974 -0.9383 1.71625 0
M  V30 2275 O 211.18 -1.42445 2.31131 0
M  V30 2276 C 209.636 0.878836 3.49005 0
M  V30 2277 C 209.244 2.35569 3.81066 0
M  V30 2278 C 210.988 0.570004 4.20656 0
M  V30 2279 C 208.895 2.65558 5.28425 0
M  V30 2280 H 207.825 0.190692 0.729488 0
M  V30 2281 H 210.476 1.09539 1.47219 0
M  V30 2282 H 208.858 0.232253 3.95318 0
M  V30 2283 H 210.032 3.04773 3.45616 0
M  V30 2284 H 208.347 2.63343 3.22552 0
M  V30 2285 H 210.944 0.770925 5.29113 0
M  V30 2286 H 211.287 -0.491404 4.1339 0
M  V30 2287 H 211.82 1.17438 3.8007 0
M  V30 2288 H 208.559 3.70493 5.40754 0
M  V30 2289 H 208.079 2.00977 5.65127 0
M  V30 2290 H 209.758 2.51765 5.96006 0
M  V30 2291 N 209.89 -1.43072 0.660911 0
M  V30 2292 C 210.823 -2.28074 -0.0758862 0
M  V30 2293 C 211.801 -1.40271 -0.822362 0
M  V30 2294 O 212.985 -1.69713 -0.820352 0
M  V30 2295 C 210.112 -3.19843 -1.11437 0
M  V30 2296 C 209.158 -4.23957 -0.465069 0
M  V30 2297 S 209.991 -5.29978 0.767078 0
M  V30 2298 C 211.147 -6.25314 -0.270682 0
M  V30 2299 H 211.38 -2.90216 0.645139 0
M  V30 2300 H 208.913 -1.47697 0.449995 0
M  V30 2301 H 210.871 -3.73257 -1.70849 0
M  V30 2302 H 209.532 -2.56863 -1.80776 0
M  V30 2303 H 208.725 -4.88299 -1.24819 0
M  V30 2304 H 208.327 -3.73959 0.0551242 0
M  V30 2305 H 210.619 -6.67932 -1.13459 0
M  V30 2306 H 211.562 -7.07293 0.337916 0
M  V30 2307 H 211.97 -5.61195 -0.609937 0
M  V30 2308 N 211.368 -0.403325 -1.52352 0
M  V30 2309 C 212.278 0.432009 -2.30588 0
M  V30 2310 C 213.294 1.05884 -1.38075 0
M  V30 2311 O 214.47 1.06161 -1.71148 0
M  V30 2312 C 211.535 1.53669 -3.10784 0
M  V30 2313 C 210.596 0.933525 -4.19027 0
M  V30 2314 C 209.829 1.98557 -4.9539 0
M  V30 2315 O 210.052 3.20283 -4.71991 0
M  V30 2316 O 208.986 1.59504 -5.80381 0
M  V30 2317 H 212.812 -0.205739 -3.03002 0
M  V30 2318 H 210.397 -0.166675 -1.48467 0
M  V30 2319 H 212.279 2.17814 -3.60742 0
M  V30 2320 H 210.954 2.15915 -2.41169 0
M  V30 2321 H 209.861 0.254954 -3.7323 0
M  V30 2322 H 211.194 0.35508 -4.90918 0
M  V30 2323 N 212.846 1.57033 -0.133567 0
M  V30 2324 C 213.756 2.19632 0.824564 0
M  V30 2325 C 214.772 1.17666 1.28182 0
M  V30 2326 O 215.948 1.50193 1.3418 0
M  V30 2327 C 213.013 2.79499 2.05137 0
M  V30 2328 C 212.074 3.96548 1.64464 0
M  V30 2329 C 211.307 4.5355 2.81297 0
M  V30 2330 O 211.53 4.09438 3.97136 0
M  V30 2331 O 210.464 5.44018 2.57542 0
M  V30 2332 H 214.29 3.01991 0.321766 0
M  V30 2333 H 211.875 1.49112 0.0927889 0
M  V30 2334 H 213.757 3.17602 2.7696 0
M  V30 2335 H 212.432 2.00162 2.54395 0
M  V30 2336 H 211.339 3.63186 0.897048 0
M  V30 2337 H 212.672 4.77364 1.19934 0
M  V30 2338 N 214.325 -0.140222 1.56975 0
M  V30 2339 C 215.255 -1.17456 2.01808 0
M  V30 2340 C 216.236 -1.44415 0.898794 0
M  V30 2341 O 217.421 -1.5522 1.16707 0
M  V30 2342 C 214.551 -2.50607 2.40444 0
M  V30 2343 C 213.505 -2.38155 3.55621 0
M  V30 2344 C 212.831 -3.76078 3.80091 0
M  V30 2345 C 214.131 -1.85991 4.88062 0
M  V30 2346 H 215.825 -0.801743 2.88466 0
M  V30 2347 H 213.371 -0.38422 1.38779 0
M  V30 2348 H 215.324 -3.23197 2.7041 0
M  V30 2349 H 214.048 -2.89737 1.50732 0
M  V30 2350 H 212.707 -1.68016 3.25832 0
M  V30 2351 H 212.355 -4.12656 2.87618 0
M  V30 2352 H 212.055 -3.68606 4.57606 0
M  V30 2353 H 213.579 -4.50206 4.12488 0
M  V30 2354 H 214.993 -2.4838 5.16701 0
M  V30 2355 H 213.39 -1.89393 5.6943 0
M  V30 2356 H 214.46 -0.816023 4.77984 0
M  V30 2357 N 215.803 -1.52179 -0.40978 0
M  V30 2358 C 217.08 -1.56769 -1.16974 0
M  V30 2359 C 217.46 -0.348322 -2.08206 0
M  V30 2360 O 216.808 0.664862 -2.18613 0
M  V30 2361 C 217.018 -2.89603 -1.9476 0
M  V30 2362 C 218.366 -3.42579 -2.50849 0
M  V30 2363 O 219.39 -2.91338 -2.04941 0
M  V30 2364 O 218.249 -4.32054 -3.34652 0
M  V30 2365 H 215.343 -0.631439 -0.534054 0
M  V30 2366 H 217.889 -1.64507 -0.416613 0
M  V30 2367 H 216.661 -3.698 -1.27921 0
M  V30 2368 H 216.284 -2.85155 -2.77079 0
M  V30 2369 N 217.281 0.66697 -1.42791 0
M  V30 2370 C 218.228 1.7803 -1.4688 0
M  V30 2371 C 219.198 1.6299 -0.319919 0
M  V30 2372 O 220.383 1.83432 -0.525118 0
M  V30 2373 C 217.523 3.1611 -1.38451 0
M  V30 2374 C 216.636 3.42381 -2.63437 0
M  V30 2375 C 215.771 4.70232 -2.47094 0
M  V30 2376 C 214.81 4.89564 -3.67415 0
M  V30 2377 N 213.947 6.08661 -3.49966 0
M  V30 2378 H 218.787 1.7387 -2.42019 0
M  V30 2379 H 216.324 0.84868 -1.20149 0
M  V30 2380 H 218.282 3.95914 -1.31561 0
M  V30 2381 H 216.912 3.19374 -0.469033 0
M  V30 2382 H 215.964 2.56774 -2.80662 0
M  V30 2383 H 217.276 3.52557 -3.52853 0
M  V30 2384 H 216.43 5.5814 -2.37834 0
M  V30 2385 H 215.169 4.62353 -1.5518 0
M  V30 2386 H 214.174 4.00096 -3.77099 0
M  V30 2387 H 215.399 4.99282 -4.6032 0
M  V30 2388 H 213.345 6.0194 -2.60776 0
M  V30 2389 H 213.262 6.19733 -4.32975 0
M  V30 2390 H 214.53 6.99226 -3.44532 0
M  V30 2391 N 218.759 1.29093 0.90403 0
M  V30 2392 C 220.005 1.16986 1.65656 0
M  V30 2393 C 220.338 -0.278925 1.92186 0
M  V30 2394 O 219.613 -1.2019 1.5292 0
M  V30 2395 C 219.896 1.97908 3.0084 0
M  V30 2396 C 219.749 3.50903 2.81403 0
M  V30 2397 C 221.068 1.80208 4.01513 0
M  V30 2398 H 218.187 0.426346 0.601164 0
M  V30 2399 H 220.829 1.58518 1.04747 0
M  V30 2400 H 218.979 1.62616 3.52829 0
M  V30 2401 H 220.651 3.96153 2.36348 0
M  V30 2402 H 218.894 3.76045 2.1627 0
M  V30 2403 H 219.565 4.02791 3.77443 0
M  V30 2404 H 222.041 2.11025 3.58619 0
M  V30 2405 H 220.917 2.39184 4.94047 0
M  V30 2406 H 221.178 0.756119 4.35586 0
M  V30 2407 N 220.237 -1.11381 1.11499 0
M  V30 2408 C 221.467 -1.86663 0.885464 0
M  V30 2409 C 221.875 -1.80464 -0.568281 0
M  V30 2410 O 221.218 -1.18445 -1.40415 0
M  V30 2411 C 221.28 -3.36337 1.26956 0
M  V30 2412 C 220.944 -3.66304 2.73259 0
M  V30 2413 C 221.941 -3.63733 3.71476 0
M  V30 2414 C 219.626 -3.9529 3.09921 0
M  V30 2415 C 221.62 -3.89725 5.04374 0
M  V30 2416 C 219.307 -4.20941 4.43004 0
M  V30 2417 C 220.305 -4.18147 5.40039 0
M  V30 2418 O 219.993 -4.43153 6.70724 0
M  V30 2419 H 219.725 -0.597114 0.316908 0
M  V30 2420 H 222.279 -1.41782 1.48617 0
M  V30 2421 H 220.509 -3.81826 0.611999 0
M  V30 2422 H 222.198 -3.92986 1.01573 0
M  V30 2423 H 222.964 -3.41389 3.44498 0
M  V30 2424 H 218.843 -3.966 2.35009 0
M  V30 2425 H 222.387 -3.8746 5.80104 0
M  V30 2426 H 218.284 -4.42761 4.69716 0
M  V30 2427 H 219.052 -4.60717 6.76522 0
M  V30 2428 N 221.715 -0.905404 -1.28997 0
M  V30 2429 C 222.663 -0.377431 -2.29517 0
M  V30 2430 C 223.657 0.526461 -1.61012 0
M  V30 2431 O 224.863 0.40863 -1.753 0
M  V30 2432 H 221.238 -0.103437 -0.744852 0
M  V30 2433 H 223.209 -1.23848 -2.71485 0
M  V30 2434 C 221.958 0.374833 -3.45674 0
M  V30 2435 H 221.281 -0.311474 -3.98585 0
M  V30 2436 H 222.721 0.70903 -4.1803 0
M  V30 2437 C 221.18 1.57963 -2.97572 0
M  V30 2438 O 221.71 2.67886 -2.99333 0
M  V30 2439 N 219.916 1.42375 -2.53333 0
M  V30 2440 H 219.463 0.529466 -2.521 0
M  V30 2441 H 219.421 2.23117 -2.21509 0
M  V30 2442 N 223.193 1.4272 -0.668489 0
M  V30 2443 C 224.609 1.55992 -0.33745 0
M  V30 2444 C 224.809 1.64933 1.15756 0
M  V30 2445 O 223.865 1.61278 1.94282 0
M  V30 2446 C 225.178 2.81314 -1.06222 0
M  V30 2447 C 226.726 2.95078 -1.04394 0
M  V30 2448 C 227.201 4.23252 -1.74991 0
M  V30 2449 N 228.692 4.3015 -1.71829 0
M  V30 2450 C 229.427 5.28127 -2.23315 0
M  V30 2451 N 228.923 6.32293 -2.83156 0
M  V30 2452 N 230.716 5.19882 -2.13726 0
M  V30 2453 H 222.867 1.3516 -1.63846 0
M  V30 2454 H 225.13 0.650174 -0.689912 0
M  V30 2455 H 224.836 2.80823 -2.11734 0
M  V30 2456 H 224.71 3.72012 -0.62344 0
M  V30 2457 H 227.097 2.951 0.0028244 0
M  V30 2458 H 227.178 2.05627 -1.52155 0
M  V30 2459 H 226.822 4.2399 -2.79633 0
M  V30 2460 H 226.752 5.11626 -1.24685 0
M  V30 2461 H 229.243 3.55499 -1.28175 0
M  V30 2462 H 229.556 7.03398 -3.20079 0
M  V30 2463 H 227.901 6.32873 -2.87223 0
M  V30 2464 H 231.092 4.37423 -1.66669 0
M  V30 2465 H 231.265 5.96077 -2.54158 0
M  V30 2466 N 224.671 0.411399 1.52136 0
M  V30 2467 C 225.634 -0.401089 2.25663 0
M  V30 2468 C 226.634 -0.971732 1.28117 0
M  V30 2469 O 227.824 -0.850254 1.52041 0
M  V30 2470 C 224.956 -1.56483 3.02863 0
M  V30 2471 H 226.149 0.24295 2.98914 0
M  V30 2472 H 223.702 0.163968 1.55438 0
M  V30 2473 H 224.437 -2.24567 2.33967 0
M  V30 2474 H 224.222 -1.16211 3.74483 0
M  V30 2475 H 225.712 -2.13951 3.58629 0
M  V30 2476 N 226.149 -1.5696 0.141893 0
M  V30 2477 C 227.398 -1.95135 -0.510427 0
M  V30 2478 C 227.711 -1.02896 -1.66348 0
M  V30 2479 O 228.917 -1.30629 -2.38009 0
M  V30 2480 C 227.373 -3.46876 -0.959427 0
M  V30 2481 C 226.981 -4.47691 0.166419 0
M  V30 2482 C 228.725 -3.93927 -1.58183 0
M  V30 2483 C 226.632 -5.90636 -0.300565 0
M  V30 2484 H 225.562 -0.728494 -0.194454 0
M  V30 2485 H 228.213 -1.8211 0.22542 0
M  V30 2486 H 226.595 -3.55215 -1.75038 0
M  V30 2487 H 227.769 -4.51043 0.94325 0
M  V30 2488 H 226.084 -4.10527 0.696905 0
M  V30 2489 H 228.681 -4.98158 -1.94275 0
M  V30 2490 H 229.024 -3.3519 -2.46888 0
M  V30 2491 H 229.557 -3.88484 -0.855863 0
M  V30 2492 H 226.296 -6.5318 0.550989 0
M  V30 2493 H 225.816 -5.90655 -1.04338 0
M  V30 2494 H 227.495 -6.42588 -0.754265 0
M  V30 2495 N 227.627 0.131896 -1.57047 0
M  V30 2496 C 228.574 1.16236 -1.99393 0
M  V30 2497 C 229.544 1.41863 -0.863943 0
M  V30 2498 O 230.729 1.53946 -1.12718 0
M  V30 2499 C 227.869 2.48708 -2.39245 0
M  V30 2500 C 226.982 2.30127 -3.65603 0
M  V30 2501 C 226.117 3.55738 -3.94492 0
M  V30 2502 C 225.156 3.32259 -5.14073 0
M  V30 2503 N 224.293 4.50039 -5.38896 0
M  V30 2504 H 229.133 0.794251 -2.87221 0
M  V30 2505 H 226.67 0.380707 -1.42088 0
M  V30 2506 H 228.628 3.25969 -2.60384 0
M  V30 2507 H 227.258 2.83437 -1.54478 0
M  V30 2508 H 226.31 1.43845 -3.52154 0
M  V30 2509 H 227.622 2.08746 -4.5302 0
M  V30 2510 H 226.776 4.41423 -4.1621 0
M  V30 2511 H 225.515 3.80138 -3.05526 0
M  V30 2512 H 224.52 2.44963 -4.92212 0
M  V30 2513 H 225.745 3.09242 -6.04604 0
M  V30 2514 H 223.691 4.74584 -4.52886 0
M  V30 2515 H 223.608 4.31716 -6.2061 0
M  V30 2516 H 224.876 5.36895 -5.65123 0
M  V30 2517 N 229.106 1.52395 0.401703 0
M  V30 2518 C 230.069 1.75636 1.47257 0
M  V30 2519 C 231.069 0.62628 1.48103 0
M  V30 2520 O 232.259 0.894227 1.49497 0
M  V30 2521 C 229.391 1.84553 2.86624 0
M  V30 2522 H 230.584 2.71241 1.27938 0
M  V30 2523 H 228.137 1.42923 0.632662 0
M  V30 2524 H 228.872 0.908882 3.11303 0
M  V30 2525 H 228.657 2.66715 2.87412 0
M  V30 2526 H 230.147 2.04251 3.64241 0
M  V30 2527 N 230.584 -0.659388 1.43143 0
M  V30 2528 C 231.547 -1.75432 1.47501 0
M  V30 2529 C 232.547 -1.56707 0.360512 0
M  V30 2530 O 233.737 -1.62717 0.622002 0
M  V30 2531 C 230.869 -3.14239 1.32162 0
M  V30 2532 H 232.062 -1.7295 2.45006 0
M  V30 2533 H 229.615 -0.870469 1.29817 0
M  V30 2534 H 230.35 -3.22336 0.356401 0
M  V30 2535 H 230.135 -3.29235 2.12948 0
M  V30 2536 H 231.625 -3.94094 1.3813 0
M  V30 2537 N 232.062 -1.29571 -0.897171 0
M  V30 2538 C 233.009 -1.14916 -2.00158 0
M  V30 2539 C 233.979 -0.0418149 -1.66047 0
M  V30 2540 O 235.164 -0.209793 -1.89643 0
M  V30 2541 C 232.304 -0.834307 -3.34863 0
M  V30 2542 C 231.417 -2.02234 -3.8174 0
M  V30 2543 C 230.552 -1.64664 -5.05034 0
M  V30 2544 C 229.591 -2.80033 -5.44286 0
M  V30 2545 N 228.728 -2.42843 -6.58765 0
M  V30 2546 H 233.568 -2.09403 -2.12025 0
M  V30 2547 H 231.105 -1.042 -1.0383 0
M  V30 2548 H 233.063 -0.632436 -4.12379 0
M  V30 2549 H 231.693 0.0736656 -3.22716 0
M  V30 2550 H 230.745 -2.33583 -3.00238 0
M  V30 2551 H 232.057 -2.88673 -4.06779 0
M  V30 2552 H 231.211 -1.4078 -5.9014 0
M  V30 2553 H 229.95 -0.753766 -4.8184 0
M  V30 2554 H 228.955 -3.04596 -4.57713 0
M  V30 2555 H 230.18 -3.69989 -5.6946 0
M  V30 2556 H 228.126 -1.56046 -6.3717 0
M  V30 2557 H 228.043 -3.22815 -6.83613 0
M  V30 2558 H 229.311 -2.22285 -7.47134 0
M  V30 2559 N 233.54 1.10788 -1.12088 0
M  V30 2560 C 234.765 1.87002 -0.896949 0
M  V30 2561 C 235.19 1.79933 0.548261 0
M  V30 2562 O 234.548 1.16662 1.38779 0
M  V30 2563 C 234.596 3.3349 -1.37174 0
M  V30 2564 O 233.7 4.08745 -0.547831 0
M  V30 2565 H 233.041 0.580397 -0.322545 0
M  V30 2566 H 235.571 1.39996 -1.49206 0
M  V30 2567 H 235.581 3.84339 -1.36922 0
M  V30 2568 H 234.256 3.37951 -2.42408 0
M  V30 2569 H 232.833 3.6776 -0.617034 0
M  V30 2570 N 235.018 0.912232 1.28515 0
M  V30 2571 C 235.981 0.404223 2.25607 0
M  V30 2572 C 236.981 -0.468602 1.53821 0
M  V30 2573 O 238.171 -0.271873 1.72065 0
M  V30 2574 C 235.303 -0.420653 3.38295 0
M  V30 2575 H 236.496 1.26188 2.7206 0
M  V30 2576 H 234.049 0.691495 1.40171 0
M  V30 2577 H 234.784 -1.29777 2.97201 0
M  V30 2578 H 234.569 0.204935 3.91564 0
M  V30 2579 H 236.059 -0.766971 4.10496 0
M  V30 2580 N 236.496 -1.42363 0.676048 0
M  V30 2581 C 237.912 -1.55811 0.345718 0
M  V30 2582 C 238.112 -1.65544 -1.14879 0
M  V30 2583 O 237.168 -1.62306 -1.93424 0
M  V30 2584 C 238.481 -2.80746 1.07713 0
M  V30 2585 C 240.029 -2.9452 1.05958 0
M  V30 2586 C 240.504 -4.22318 1.77233 0
M  V30 2587 N 241.995 -4.29233 1.74108 0
M  V30 2588 C 242.73 -5.26935 2.26113 0
M  V30 2589 N 242.226 -6.30783 2.86505 0
M  V30 2590 N 244.019 -5.18741 2.1648 0
M  V30 2591 H 236.17 -1.34289 1.6456 0
M  V30 2592 H 238.433 -0.646506 0.69335 0
M  V30 2593 H 238.139 -2.79696 2.13221 0
M  V30 2594 H 238.013 -3.71676 0.64316 0
M  V30 2595 H 240.4 -2.95097 0.0128255 0
M  V30 2596 H 240.481 -2.04817 1.53244 0
M  V30 2597 H 240.125 -4.22502 2.81877 0
M  V30 2598 H 240.055 -5.10958 1.27396 0
M  V30 2599 H 242.546 -3.54814 1.30059 0
M  V30 2600 H 242.859 -7.01691 3.23805 0
M  V30 2601 H 241.204 -6.31341 2.90575 0
M  V30 2602 H 244.395 -4.36533 1.68987 0
M  V30 2603 H 244.568 -5.94721 2.57316 0
M  V30 2604 N 237.974 -0.419461 -1.51915 0
M  V30 2605 C 239.251 0.211999 -1.94448 0
M  V30 2606 C 239.631 1.61703 -1.35703 0
M  V30 2607 O 238.979 2.22102 -0.536931 0
M  V30 2608 C 239.189 0.207872 -3.4838 0
M  V30 2609 C 240.537 0.422192 -4.22496 0
M  V30 2610 O 241.561 0.286778 -3.55044 0
M  V30 2611 O 240.42 0.690009 -5.42126 0
M  V30 2612 H 237.514 0.139586 -0.815135 0
M  V30 2613 H 240.06 -0.476151 -1.62883 0
M  V30 2614 H 238.832 -0.775102 -3.83546 0
M  V30 2615 H 238.455 0.939688 -3.86336 0
M  V30 2616 N 239.452 1.56882 -0.150215 0
M  V30 2617 C 240.382 2.19935 0.784284 0
M  V30 2618 C 241.363 1.14854 1.25469 0
M  V30 2619 O 242.548 1.43209 1.31168 0
M  V30 2620 C 239.678 2.82349 2.02229 0
M  V30 2621 C 238.632 3.93285 1.68853 0
M  V30 2622 C 237.958 4.42649 2.99944 0
M  V30 2623 C 239.258 5.13904 0.932714 0
M  V30 2624 H 240.952 2.9828 0.258781 0
M  V30 2625 H 238.498 1.43473 0.123029 0
M  V30 2626 H 240.451 3.25126 2.68088 0
M  V30 2627 H 239.175 2.0134 2.57157 0
M  V30 2628 H 237.834 3.5113 1.05371 0
M  V30 2629 H 237.482 3.58458 3.52869 0
M  V30 2630 H 237.182 5.17476 2.78374 0
M  V30 2631 H 238.706 4.88099 3.66868 0
M  V30 2632 H 240.12 5.53506 1.49345 0
M  V30 2633 H 238.517 5.94515 0.81684 0
M  V30 2634 H 239.587 4.84842 -0.0749568 0
M  V30 2635 N 240.93 -0.123565 1.57115 0
M  V30 2636 C 242.207 -0.862196 1.75572 0
M  V30 2637 C 242.587 -1.98279 0.724475 0
M  V30 2638 O 241.935 -2.27102 -0.252407 0
M  V30 2639 C 242.145 -1.38309 3.20424 0
M  V30 2640 C 243.493 -1.83724 3.82793 0
M  V30 2641 O 244.517 -1.47999 3.23998 0
M  V30 2642 O 243.376 -2.49685 4.86127 0
M  V30 2643 H 240.47 -0.409113 0.718718 0
M  V30 2644 H 243.016 -0.107661 1.69358 0
M  V30 2645 H 241.788 -0.578889 3.86994 0
M  V30 2646 H 241.411 -2.20046 3.31158 0
M  V30 2647 N 242.408 -1.52605 -0.393616 0
M  V30 2648 C 243.341 -1.71798 -1.50202 0
M  V30 2649 C 244.319 -0.565743 -1.52441 0
M  V30 2650 O 245.503 -0.794987 -1.70916 0
M  V30 2651 C 242.63 -1.7714 -2.88685 0
M  V30 2652 C 241.676 -2.98845 -3.04292 0
M  V30 2653 S 242.509 -4.58909 -2.75976 0
M  V30 2654 C 243.665 -4.6706 -4.1666 0
M  V30 2655 H 243.898 -2.65542 -1.33696 0
M  V30 2656 H 241.431 -1.42839 -0.586195 0
M  V30 2657 H 243.389 -1.80903 -3.68489 0
M  V30 2658 H 242.05 -0.844969 -3.02521 0
M  V30 2659 H 241.243 -2.99111 -4.05646 0
M  V30 2660 H 240.845 -2.9305 -2.32374 0
M  V30 2661 H 243.137 -4.45391 -5.10523 0
M  V30 2662 H 244.08 -5.6905 -4.21412 0
M  V30 2663 H 244.488 -3.95944 -4.02354 0
M  V30 2664 N 243.887 0.651787 -1.4349 0
M  V30 2665 C 245.303 0.96762 -1.26922 0
M  V30 2666 C 245.503 2.00602 -0.189982 0
M  V30 2667 O 244.559 2.48793 0.431107 0
M  V30 2668 C 245.872 1.45052 -2.63401 0
M  V30 2669 C 247.42 1.5671 -2.70945 0
M  V30 2670 C 247.895 2.0839 -4.07845 0
M  V30 2671 N 249.386 2.1569 -4.09917 0
M  V30 2672 C 250.121 2.56804 -5.12679 0
M  V30 2673 N 249.617 2.97203 -6.25813 0
M  V30 2674 N 251.41 2.56756 -5.00033 0
M  V30 2675 H 243.561 -0.0353158 -2.12371 0
M  V30 2676 H 245.824 0.0467858 -0.946845 0
M  V30 2677 H 245.53 0.761926 -3.43348 0
M  V30 2678 H 245.404 2.42529 -2.88894 0
M  V30 2679 H 247.791 2.2467 -1.9133 0
M  V30 2680 H 247.872 0.57662 -2.49216 0
M  V30 2681 H 247.516 1.41031 -4.87927 0
M  V30 2682 H 247.446 3.08271 -4.26938 0
M  V30 2683 H 249.937 1.87237 -3.28254 0
M  V30 2684 H 250.25 3.27328 -7.00055 0
M  V30 2685 H 248.595 2.95004 -6.29283 0
M  V30 2686 H 251.786 2.24572 -4.10713 0
M  V30 2687 H 251.959 2.88475 -5.80247 0
M  V30 2688 N 245.365 1.30045 0.890287 0
M  V30 2689 C 246.642 1.09227 1.62262 0
M  V30 2690 C 247.022 -0.360305 2.08002 0
M  V30 2691 O 246.37 -1.35084 1.84295 0
M  V30 2692 C 246.58 2.08835 2.79623 0
M  V30 2693 C 247.928 2.40266 3.50082 0
M  V30 2694 O 248.952 2.07104 2.89804 0
M  V30 2695 O 247.811 2.96967 4.58773 0
M  V30 2696 H 244.905 0.419132 0.712922 0
M  V30 2697 H 247.451 1.41451 0.937529 0
M  V30 2698 H 246.223 3.06633 2.43089 0
M  V30 2699 H 245.846 1.77397 3.55832 0
M  V30 2700 N 246.843 -1.10192 1.12674 0
M  V30 2701 C 248.091 -1.81845 0.881861 0
M  V30 2702 C 248.412 -1.85737 -0.593867 0
M  V30 2703 O 247.682 -1.33724 -1.4316 0
M  V30 2704 H 246.262 -0.673432 0.323261 0
M  V30 2705 H 248.924 -1.33316 1.42172 0
M  V30 2706 H 248.02 -2.85288 1.2656 0
M  V30 2707 N 248.321 -0.919034 -1.28029 0
M  V30 2708 C 249.284 -0.416182 -2.2539 0
M  V30 2709 C 250.284 0.460438 -1.54067 0
M  V30 2710 O 251.474 0.262744 -1.72207 0
M  V30 2711 C 248.606 0.402707 -3.38513 0
M  V30 2712 H 249.799 -1.27629 -2.71387 0
M  V30 2713 H 247.352 -0.698919 -1.39803 0
M  V30 2714 H 248.087 1.282 -2.97885 0
M  V30 2715 H 247.872 -0.225698 -3.9145 0
M  V30 2716 H 249.362 0.745191 -4.10897 0
M  V30 2717 N 249.799 1.42003 -0.683588 0
M  V30 2718 C 251.039 2.03282 -0.213513 0
M  V30 2719 C 251.403 1.52924 1.16097 0
M  V30 2720 O 252.604 2.06048 1.7262 0
M  V30 2721 C 250.875 3.56483 -0.255856 0
M  V30 2722 S 252.434 4.3857 0.14193 0
M  V30 2723 H 249.252 0.705659 -0.0869853 0
M  V30 2724 H 251.854 1.73619 -0.8987 0
M  V30 2725 H 250.558 3.90631 -1.25841 0
M  V30 2726 H 250.089 3.90831 0.448875 0
M  V30 2727 H 252.104 4.76828 1.37295 0
M  V30 2728 N 251.277 0.427512 1.51691 0
M  V30 2729 C 252.502 -0.143601 2.06902 0
M  V30 2730 C 252.927 -1.36536 1.29382 0
M  V30 2731 O 252.285 -1.78289 0.329043 0
M  V30 2732 C 252.333 -0.454207 3.57728 0
M  V30 2733 O 251.437 -1.54228 3.82475 0
M  V30 2734 H 250.778 -0.00617128 0.663971 0
M  V30 2735 H 253.308 0.606014 1.95419 0
M  V30 2736 H 253.318 -0.707525 4.01818 0
M  V30 2737 H 251.993 0.438812 4.13579 0
M  V30 2738 H 250.57 -1.2797 3.50254 0
M  V30 2739 N 252.755 -1.56801 0.158532 0
M  V30 2740 C 254.001 -1.96781 -0.490405 0
M  V30 2741 C 254.334 -1.04397 -1.63753 0
M  V30 2742 O 253.609 -0.0885805 -1.94298 0
M  V30 2743 C 253.892 -3.4635 -0.985594 0
M  V30 2744 C 253.745 -4.49512 0.160824 0
M  V30 2745 C 255.064 -3.98697 -1.86355 0
M  V30 2746 H 252.183 -0.715482 -0.176788 0
M  V30 2747 H 254.825 -1.88451 0.242088 0
M  V30 2748 H 252.975 -3.53579 -1.60978 0
M  V30 2749 H 254.647 -4.54353 0.797537 0
M  V30 2750 H 252.89 -4.26013 0.818256 0
M  V30 2751 H 253.561 -5.51531 -0.227569 0
M  V30 2752 H 256.037 -3.94019 -1.33746 0
M  V30 2753 H 254.913 -5.03792 -2.17909 0
M  V30 2754 H 255.174 -3.41744 -2.8047 0
M  V30 2755 N 254.233 0.115231 -1.57178 0
M  V30 2756 C 255.644 0.67197 -1.74188 0
M  V30 2757 C 255.995 1.80125 -0.777777 0
M  V30 2758 O 255.12 2.16346 0.0484376 0
M  V30 2759 C 255.715 1.22573 -3.1585 0
M  V30 2760 C 254.274 1.72872 -3.34353 0
M  V30 2761 C 253.421 0.629972 -2.70049 0
M  V30 2762 H 256.372 -0.110712 -1.58313 0
M  V30 2763 H 256.393 2.09535 -3.17609 0
M  V30 2764 H 255.905 0.403598 -3.85996 0
M  V30 2765 H 254.006 2.5755 -2.69256 0
M  V30 2766 H 254.119 1.83557 -4.42542 0
M  V30 2767 H 252.483 1.0645 -2.31388 0
M  V30 2768 H 253.266 -0.181241 -3.42821 0
M  V30 2769 N 255.711 1.52812 0.385517 0
M  V30 2770 C 256.959 1.67694 1.12797 0
M  V30 2771 C 257.28 0.421115 1.90399 0
M  V30 2772 O 256.55 -0.564551 1.87589 0
M  V30 2773 H 255.13 0.618155 0.419396 0
M  V30 2774 H 257.792 1.89938 0.436972 0
M  V30 2775 H 256.888 2.52896 1.82894 0
M  V30 2776 N 257.189 -0.644168 1.43834 0
M  V30 2777 C 258.435 -1.40603 1.46146 0
M  V30 2778 C 258.768 -1.93997 0.0887717 0
M  V30 2779 O 258.043 -1.72854 -0.891724 0
M  V30 2780 C 258.326 -2.58086 2.51124 0
M  V30 2781 C 258.179 -2.10126 3.97702 0
M  V30 2782 C 259.498 -3.60291 2.52742 0
M  V30 2783 H 256.617 -0.509905 0.532134 0
M  V30 2784 H 259.259 -0.729502 1.75437 0
M  V30 2785 H 257.409 -3.15801 2.26278 0
M  V30 2786 H 259.081 -1.57342 4.33637 0
M  V30 2787 H 257.324 -1.41419 4.10101 0
M  V30 2788 H 257.995 -2.94649 4.66783 0
M  V30 2789 H 260.471 -3.12352 2.7491 0
M  V30 2790 H 259.347 -4.40032 3.28121 0
M  V30 2791 H 259.608 -4.1349 1.56455 0
M  V30 2792 N 258.668 -1.30515 -0.883378 0
M  V30 2793 C 259.896 -1.22359 -1.66841 0
M  V30 2794 C 260.311 0.213296 -1.87591 0
M  V30 2795 O 259.668 1.14075 -1.42454 0
M  V30 2796 C 259.719 -1.95011 -3.04389 0
M  V30 2797 O 259.44 -3.3309 -2.84575 0
M  V30 2798 C 260.941 -1.93532 -3.98824 0
M  V30 2799 H 258.161 -0.423371 -0.520575 0
M  V30 2800 H 260.705 -1.72167 -1.10357 0
M  V30 2801 H 258.86 -1.48997 -3.57601 0
M  V30 2802 H 259.274 -3.69907 -3.71846 0
M  V30 2803 H 260.748 -2.48902 -4.92699 0
M  V30 2804 H 261.225 -0.914627 -4.29571 0
M  V30 2805 H 261.831 -2.39364 -3.51547 0
M  V30 2806 N 260.146 1.09593 -1.13257 0
M  V30 2807 C 261.056 2.19739 -0.821691 0
M  V30 2808 C 262.072 1.72926 0.19302 0
M  V30 2809 O 263.248 2.01385 0.0244895 0
M  V30 2810 C 260.313 3.45482 -0.290333 0
M  V30 2811 C 259.374 4.06985 -1.36607 0
M  V30 2812 C 258.607 5.26726 -0.859975 0
M  V30 2813 O 258.83 5.69594 0.303082 0
M  V30 2814 O 257.764 5.7931 -1.63351 0
M  V30 2815 H 261.59 2.48781 -1.74189 0
M  V30 2816 H 259.175 1.18496 -0.909894 0
M  V30 2817 H 261.057 4.214 0.000674022 0
M  V30 2818 H 259.732 3.18047 0.602306 0
M  V30 2819 H 258.639 3.32712 -1.71037 0
M  V30 2820 H 259.972 4.38643 -2.23279 0
M  V30 2821 N 261.624 0.925811 1.2754 0
M  V30 2822 C 262.572 0.413897 2.28888 0
M  V30 2823 C 263.566 -0.500779 1.61829 0
M  V30 2824 O 264.772 -0.38069 1.75928 0
M  V30 2825 H 261.147 0.115274 0.743112 0
M  V30 2826 H 263.118 1.28151 2.69481 0
M  V30 2827 C 261.867 -0.319792 3.46226 0
M  V30 2828 H 261.19 0.374846 3.98039 0
M  V30 2829 H 262.63 -0.642435 4.19105 0
M  V30 2830 C 261.089 -1.53209 3.00048 0
M  V30 2831 O 261.619 -2.6309 3.03557 0
M  V30 2832 N 259.825 -1.38326 2.55566 0
M  V30 2833 H 259.372 -0.489292 2.5291 0
M  V30 2834 H 259.33 -2.19564 2.25031 0
M  V30 2835 N 263.102 -1.41638 0.69111 0
M  V30 2836 C 264.032 -2.3347 0.037248 0
M  V30 2837 C 265.013 -1.51575 -0.771947 0
M  V30 2838 O 266.198 -1.80126 -0.72582 0
M  V30 2839 C 263.328 -3.35354 -0.903064 0
M  V30 2840 C 262.282 -4.27526 -0.201288 0
M  V30 2841 C 261.608 -5.19747 -1.25565 0
M  V30 2842 C 262.908 -5.13959 0.929689 0
M  V30 2843 H 264.602 -2.88397 0.804227 0
M  V30 2844 H 262.148 -1.38669 0.388189 0
M  V30 2845 H 264.101 -3.98519 -1.36969 0
M  V30 2846 H 262.825 -2.78767 -1.70166 0
M  V30 2847 H 261.484 -3.65779 0.245265 0
M  V30 2848 H 261.132 -4.59479 -2.04666 0
M  V30 2849 H 260.832 -5.8225 -0.791128 0
M  V30 2850 H 262.356 -5.85789 -1.72288 0
M  V30 2851 H 263.77 -5.70718 0.543546 0
M  V30 2852 H 262.167 -5.85379 1.32103 0
M  V30 2853 H 263.237 -4.51389 1.77133 0
M  V30 2854 N 264.58 -0.43555 -1.51462 0
M  V30 2855 C 265.828 0.131254 -2.01673 0
M  V30 2856 C 266.149 1.43368 -1.32177 0
M  V30 2857 O 265.419 1.90524 -0.455769 0
M  V30 2858 H 263.999 0.0514954 -0.745223 0
M  V30 2859 H 266.661 -0.577847 -1.86137 0
M  V30 2860 H 265.757 0.308446 -3.10572 0
M  V30 2861 N 266.058 1.56714 -0.166846 0
M  V30 2862 C 266.99 2.14914 0.796537 0
M  V30 2863 C 268.003 1.10357 1.19688 0
M  V30 2864 O 269.192 1.37561 1.13751 0
M  V30 2865 C 266.292 2.67326 2.08303 0
M  V30 2866 C 265.465 3.96493 1.84696 0
M  V30 2867 C 264.524 4.34014 2.97521 0
M  V30 2868 O 263.55 5.01973 2.6835 0
M  V30 2869 N 264.752 3.95208 4.25196 0
M  V30 2870 H 267.517 2.98205 0.299006 0
M  V30 2871 H 265.078 1.61892 0.0160839 0
M  V30 2872 H 267.07 2.89428 2.82867 0
M  V30 2873 H 265.64 1.88649 2.4926 0
M  V30 2874 H 264.86 3.82814 0.940602 0
M  V30 2875 H 266.148 4.8086 1.66285 0
M  V30 2876 H 265.546 3.40487 4.51758 0
M  V30 2877 H 264.103 4.2232 4.96477 0
M  V30 2878 N 267.536 -0.106894 1.57237 0
M  V30 2879 C 268.761 -0.830287 1.90055 0
M  V30 2880 C 269.186 -1.72064 0.75998 0
M  V30 2881 O 268.544 -1.78982 -0.288991 0
M  V30 2882 C 268.592 -1.6295 3.21683 0
M  V30 2883 O 267.696 -2.73748 3.08441 0
M  V30 2884 H 267.037 -0.228855 0.623315 0
M  V30 2885 H 269.567 -0.085658 2.04421 0
M  V30 2886 H 269.577 -2.01621 3.54701 0
M  V30 2887 H 268.252 -0.975989 4.04286 0
M  V30 2888 H 266.829 -2.38192 2.86913 0
M  V30 2889 N 269.014 -1.53014 -0.377408 0
M  V30 2890 C 269.944 -1.81589 -1.46791 0
M  V30 2891 C 270.925 -0.668622 -1.56408 0
M  V30 2892 O 272.11 -0.917337 -1.71168 0
M  V30 2893 C 269.24 -1.99519 -2.8427 0
M  V30 2894 C 268.194 -3.15249 -2.89486 0
M  V30 2895 C 267.52 -3.18451 -4.29527 0
M  V30 2896 C 268.82 -4.54084 -2.58079 0
M  V30 2897 H 270.514 -2.7291 -1.23127 0
M  V30 2898 H 268.06 -1.31319 -0.590883 0
M  V30 2899 H 270.013 -2.18092 -3.60575 0
M  V30 2900 H 268.737 -1.04897 -3.09296 0
M  V30 2901 H 267.396 -2.96477 -2.15631 0
M  V30 2902 H 267.044 -2.2149 -4.5161 0
M  V30 2903 H 266.744 -3.962 -4.33934 0
M  V30 2904 H 268.268 -3.39193 -5.07721 0
M  V30 2905 H 269.682 -4.72899 -3.24098 0
M  V30 2906 H 268.079 -5.33987 -2.7382 0
M  V30 2907 H 269.149 -4.60006 -1.53372 0
M  V30 2908 N 270.492 0.636531 -1.44174 0
M  V30 2909 C 271.738 1.39649 -1.47884 0
M  V30 2910 C 272.093 1.92098 -0.107747 0
M  V30 2911 O 271.386 1.70391 0.876208 0
M  V30 2912 C 271.58 2.58309 -2.47005 0
M  V30 2913 C 271.409 2.17476 -3.93617 0
M  V30 2914 C 270.179 2.0501 -4.61843 0
M  V30 2915 C 272.377 1.76722 -4.82984 0
M  V30 2916 N 270.359 1.57683 -5.93304 0
M  V30 2917 C 271.73 1.40601 -6.03847 0
M  V30 2918 C 273.785 1.64054 -4.70096 0
M  V30 2919 C 272.488 0.930787 -7.13252 0
M  V30 2920 C 274.514 1.17937 -5.79521 0
M  V30 2921 C 273.876 0.827625 -6.99521 0
M  V30 2922 H 269.975 0.506027 -0.596205 0
M  V30 2923 H 272.559 0.730791 -1.80465 0
M  V30 2924 H 270.73 3.22514 -2.16423 0
M  V30 2925 H 272.462 3.25083 -2.41045 0
M  V30 2926 H 269.217 2.25294 -4.16581 0
M  V30 2927 H 269.641 1.36334 -6.63131 0
M  V30 2928 H 274.283 1.89882 -3.77762 0
M  V30 2929 H 272.001 0.660012 -8.054 0
M  V30 2930 H 275.587 1.08601 -5.71574 0
M  V30 2931 H 274.467 0.476231 -7.82753 0
M  V30 2932 N 271.97 1.30982 0.876444 0
M  V30 2933 C 272.88 1.2003 2.01569 0
M  V30 2934 C 273.896 0.11838 1.73597 0
M  V30 2935 O 275.072 0.33495 1.98595 0
M  V30 2936 C 272.137 0.901637 3.34771 0
M  V30 2937 C 271.198 2.06979 3.76109 0
M  V30 2938 C 270.431 1.78529 5.02954 0
M  V30 2939 O 270.654 0.717296 5.65872 0
M  V30 2940 O 269.588 2.64019 5.40905 0
M  V30 2941 H 273.414 2.15753 2.13739 0
M  V30 2942 H 270.999 1.10658 1.00375 0
M  V30 2943 H 272.881 0.750645 4.1466 0
M  V30 2944 H 271.556 -0.0256141 3.2369 0
M  V30 2945 H 270.463 2.27616 2.96887 0
M  V30 2946 H 271.796 2.97907 3.91807 0
M  V30 2947 N 273.449 -1.08991 1.13837 0
M  V30 2948 C 274.695 -1.81526 0.90422 0
M  V30 2949 C 275.028 -1.85706 -0.568066 0
M  V30 2950 O 274.303 -1.32855 -1.42056 0
M  V30 2951 C 274.586 -3.27447 1.49835 0
M  V30 2952 C 274.439 -3.31512 3.04006 0
M  V30 2953 C 275.758 -4.24256 1.17025 0
M  V30 2954 H 272.877 -0.659029 0.329923 0
M  V30 2955 H 275.519 -1.27644 1.40737 0
M  V30 2956 H 273.669 -3.73462 1.07044 0
M  V30 2957 H 275.341 -2.93867 3.55584 0
M  V30 2958 H 273.584 -2.70963 3.38765 0
M  V30 2959 H 274.255 -4.34329 3.40679 0
M  V30 2960 H 276.731 -3.86549 1.54009 0
M  V30 2961 H 275.607 -5.24684 1.61237 0
M  V30 2962 H 275.868 -4.42019 0.0846274 0
M  V30 2963 N 274.927 -0.932562 -1.27047 0
M  V30 2964 C 276.152 -0.591474 -1.98787 0
M  V30 2965 C 276.577 0.824601 -1.69062 0
M  V30 2966 O 275.935 1.5541 -0.933677 0
M  V30 2967 C 275.983 -0.829808 -3.50922 0
M  V30 2968 O 275.087 0.102266 -4.12273 0
M  V30 2969 H 274.428 -0.227185 -0.623926 0
M  V30 2970 H 276.958 -1.25314 -1.61733 0
M  V30 2971 H 276.968 -0.747292 -4.01098 0
M  V30 2972 H 275.643 -1.86201 -3.7189 0
M  V30 2973 H 274.22 -0.0305761 -3.72887 0
M  V30 2974 N 276.405 1.4127 -0.698611 0
M  V30 2975 C 277.315 2.34573 -0.0357891 0
M  V30 2976 C 278.331 1.56393 0.762701 0
M  V30 2977 O 279.507 1.8886 0.699564 0
M  V30 2978 C 276.572 3.35159 0.887089 0
M  V30 2979 C 275.633 4.29225 0.0804634 0
M  V30 2980 C 274.866 5.25006 0.959387 0
M  V30 2981 O 275.089 5.26314 2.19886 0
M  V30 2982 O 274.023 6.00519 0.407439 0
M  V30 2983 H 277.849 2.92838 -0.804957 0
M  V30 2984 H 275.434 1.42175 -0.458966 0
M  V30 2985 H 277.316 3.9689 1.41621 0
M  V30 2986 H 275.991 2.79333 1.6357 0
M  V30 2987 H 274.898 3.70833 -0.493328 0
M  V30 2988 H 276.231 4.88157 -0.629547 0
M  V30 2989 N 277.883 0.443576 1.51229 0
M  V30 2990 C 279.108 -0.121648 2.07043 0
M  V30 2991 C 279.533 -1.35156 1.30823 0
M  V30 2992 O 278.891 -1.7793 0.347934 0
M  V30 2993 C 278.939 -0.41624 3.5819 0
M  V30 2994 O 278.043 -1.50163 3.8409 0
M  V30 2995 H 277.384 0.000871367 0.663999 0
M  V30 2996 H 279.914 0.626706 1.94765 0
M  V30 2997 H 279.924 -0.664867 4.02546 0
M  V30 2998 H 278.599 0.482653 4.1309 0
M  V30 2999 H 277.176 -1.24248 3.51592 0
M  V30 3000 N 279.361 -1.56624 0.175154 0
M  V30 3001 C 280.311 -2.14747 -0.766004 0
M  V30 3002 C 281.295 -1.08275 -1.19018 0
M  V30 3003 O 282.487 -1.34388 -1.15191 0
M  V30 3004 C 279.616 -2.79478 -1.99366 0
M  V30 3005 C 278.702 -3.93114 -1.5913 0
M  V30 3006 N 279.093 -4.97752 -0.89872 0
M  V30 3007 C 277.391 -4.04345 -1.88204 0
M  V30 3008 C 278.092 -5.77473 -0.700012 0
M  V30 3009 N 277.068 -5.29207 -1.24263 0
M  V30 3010 H 280.87 -2.93015 -0.22793 0
M  V30 3011 H 278.384 -1.6238 -0.0253843 0
M  V30 3012 H 280.381 -3.19498 -2.67818 0
M  V30 3013 H 279.041 -2.02692 -2.53665 0
M  V30 3014 H 280.052 -5.14903 -0.556347 0
M  V30 3015 H 276.729 -3.38667 -2.44153 0
M  V30 3016 H 278.119 -6.71728 -0.152047 0
M  V30 3017 N 280.839 0.0985539 -1.57292 0
M  V30 3018 C 282.086 0.802678 -1.85912 0
M  V30 3019 C 282.414 1.78901 -0.763186 0
M  V30 3020 O 281.669 1.94178 0.243559 0
M  V30 3021 C 281.968 1.56927 -3.21105 0
M  V30 3022 C 281.634 0.725376 -4.45027 0
M  V30 3023 C 280.296 0.492726 -4.78671 0
M  V30 3024 C 282.648 0.138493 -5.21016 0
M  V30 3025 C 279.976 -0.336727 -5.85733 0
M  V30 3026 C 282.328 -0.678264 -6.28953 0
M  V30 3027 C 280.992 -0.921039 -6.61115 0
M  V30 3028 H 280.262 0.293721 -0.680301 0
M  V30 3029 H 282.909 0.0642841 -1.91392 0
M  V30 3030 H 281.214 2.37914 -3.11294 0
M  V30 3031 H 282.911 2.11841 -3.40477 0
M  V30 3032 H 279.501 0.916815 -4.18679 0
M  V30 3033 H 283.685 0.305404 -4.95359 0
M  V30 3034 H 278.941 -0.533836 -6.09065 0
M  V30 3035 H 283.115 -1.1399 -6.87007 0
M  V30 3036 H 280.742 -1.56556 -7.43905 0
M  V30 3037 N 282.317 1.53212 0.369288 0
M  V30 3038 C 283.264 1.79388 1.45219 0
M  V30 3039 C 284.234 0.638059 1.53356 0
M  V30 3040 O 285.419 0.879852 1.69302 0
M  V30 3041 C 282.559 1.98623 2.82211 0
M  V30 3042 C 281.672 3.26337 2.8307 0
M  V30 3043 C 280.807 3.35779 4.11614 0
M  V30 3044 C 279.846 4.5754 4.06601 0
M  V30 3045 N 278.983 4.64155 5.26787 0
M  V30 3046 H 283.823 2.71794 1.22198 0
M  V30 3047 H 281.36 1.34642 0.592444 0
M  V30 3048 H 283.318 2.07761 3.61789 0
M  V30 3049 H 281.948 1.09558 3.03639 0
M  V30 3050 H 281 3.26171 1.95747 0
M  V30 3051 H 282.312 4.15988 2.75237 0
M  V30 3052 H 281.466 3.44208 4.99606 0
M  V30 3053 H 280.205 2.44137 4.22195 0
M  V30 3054 H 279.21 4.49215 3.16996 0
M  V30 3055 H 280.435 5.50519 3.97625 0
M  V30 3056 H 278.381 3.75413 5.3796 0
M  V30 3057 H 278.298 5.47706 5.21109 0
M  V30 3058 H 279.566 4.76863 6.16621 0
M  V30 3059 N 283.795 -0.628877 1.44509 0
M  V30 3060 C 285.025 -1.41349 1.50678 0
M  V30 3061 C 285.433 -1.88745 0.131075 0
M  V30 3062 O 284.776 -1.61592 -0.87371 0
M  V30 3063 C 284.838 -2.66608 2.41165 0
M  V30 3064 C 284.502 -2.40993 3.88293 0
M  V30 3065 C 285.499 -2.0268 4.78766 0
M  V30 3066 C 283.184 -2.54563 4.33016 0
M  V30 3067 C 285.178 -1.78269 6.11963 0
M  V30 3068 C 282.865 -2.29766 5.6626 0
M  V30 3069 C 283.863 -1.91678 6.55552 0
M  V30 3070 O 283.551 -1.67158 7.86329 0
M  V30 3071 H 283.283 -0.439851 0.51333 0
M  V30 3072 H 285.837 -0.776084 1.90174 0
M  V30 3073 H 284.067 -3.32994 1.96601 0
M  V30 3074 H 285.756 -3.28615 2.38259 0
M  V30 3075 H 286.522 -1.91751 4.45485 0
M  V30 3076 H 282.401 -2.83179 3.63773 0
M  V30 3077 H 285.945 -1.48465 6.81619 0
M  V30 3078 H 281.842 -2.40306 5.99102 0
M  V30 3079 H 282.61 -1.81386 7.98149 0
M  V30 3080 N 285.273 -1.31445 -0.869486 0
M  V30 3081 C 286.684 -1.19042 -1.43826 0
M  V30 3082 C 287.035 0.202919 -1.95148 0
M  V30 3083 O 286.16 1.10071 -1.86315 0
M  V30 3084 C 286.755 -2.15499 -2.6143 0
M  V30 3085 C 285.314 -2.07028 -3.14351 0
M  V30 3086 C 284.461 -2.04701 -1.87063 0
M  V30 3087 H 287.412 -1.43489 -0.677984 0
M  V30 3088 H 287.433 -1.74488 -3.38134 0
M  V30 3089 H 286.945 -3.16899 -2.24046 0
M  V30 3090 H 285.046 -1.08825 -3.56354 0
M  V30 3091 H 285.159 -2.96157 -3.766 0
M  V30 3092 H 283.523 -1.49724 -2.06046 0
M  V30 3093 H 284.306 -3.07857 -1.51917 0
M  V30 3094 N 286.751 1.08385 -1.14413 0
M  V30 3095 C 288 1.80153 -0.907076 0
M  V30 3096 C 288.313 1.87176 0.567851 0
M  V30 3097 O 289.519 2.55359 0.922172 0
M  V30 3098 C 287.975 3.23687 -1.57336 0
M  V30 3099 C 287.583 3.24897 -3.08457 0
M  V30 3100 C 289.327 4.00136 -1.41744 0
M  V30 3101 C 287.234 4.6302 -3.67921 0
M  V30 3102 H 286.164 0.675139 -0.335714 0
M  V30 3103 H 288.815 1.21733 -1.37307 0
M  V30 3104 H 287.197 3.82234 -1.03505 0
M  V30 3105 H 288.371 2.76055 -3.68958 0
M  V30 3106 H 286.686 2.61943 -3.2369 0
M  V30 3107 H 289.283 5.02201 -1.83572 0
M  V30 3108 H 289.626 4.14709 -0.363576 0
M  V30 3109 H 290.159 3.48058 -1.92614 0
M  V30 3110 H 286.898 4.5365 -4.73161 0
M  V30 3111 H 286.418 5.12143 -3.12201 0
M  V30 3112 H 288.097 5.31994 -3.68227 0
M  V30 3113 N 288.23 0.939286 1.26551 0
M  V30 3114 C 289.476 0.586715 1.94128 0
M  V30 3115 C 289.809 -0.8717 1.73537 0
M  V30 3116 O 289.084 -1.62339 1.07127 0
M  V30 3117 C 289.367 0.927497 3.4795 0
M  V30 3118 C 289.22 2.44052 3.77834 0
M  V30 3119 C 290.539 0.441569 4.37879 0
M  V30 3120 H 287.658 0.21463 0.705055 0
M  V30 3121 H 290.3 1.17316 1.49455 0
M  V30 3122 H 288.45 0.428431 3.8613 0
M  V30 3123 H 290.122 3.01216 3.4938 0
M  V30 3124 H 288.365 2.8848 3.23978 0
M  V30 3125 H 289.036 2.62947 4.85348 0
M  V30 3126 H 291.512 0.869448 4.06915 0
M  V30 3127 H 290.388 0.708856 5.44304 0
M  V30 3128 H 290.649 -0.658467 4.37169 0
M  V30 3129 N 289.708 -1.40897 0.706093 0
M  V30 3130 C 290.618 -2.3455 0.0482286 0
M  V30 3131 C 291.634 -1.56796 -0.754396 0
M  V30 3132 O 292.81 -1.89228 -0.689538 0
M  V30 3133 C 289.875 -3.35625 -0.869303 0
M  V30 3134 C 288.936 -4.29261 -0.0576994 0
M  V30 3135 C 288.169 -5.25508 -0.931531 0
M  V30 3136 O 288.392 -5.27472 -2.17092 0
M  V30 3137 O 287.326 -6.00727 -0.375587 0
M  V30 3138 H 291.152 -2.92407 0.820476 0
M  V30 3139 H 288.737 -1.4193 0.4665 0
M  V30 3140 H 290.619 -3.97635 -1.39514 0
M  V30 3141 H 289.294 -2.80196 -1.62086 0
M  V30 3142 H 288.201 -3.70566 0.512988 0
M  V30 3143 H 289.534 -4.87817 0.655426 0
M  V30 3144 N 291.186 -0.45159 -1.50991 0
M  V30 3145 C 292.118 0.388634 -2.25881 0
M  V30 3146 C 293.131 0.974041 -1.30446 0
M  V30 3147 O 294.32 0.865758 -1.56099 0
M  V30 3148 C 291.42 1.5571 -3.01011 0
M  V30 3149 C 290.593 1.08801 -4.23652 0
M  V30 3150 C 289.652 2.12825 -4.8124 0
M  V30 3151 O 288.678 1.71678 -5.42693 0
M  V30 3152 N 289.88 3.45453 -4.66522 0
M  V30 3153 H 292.645 -0.25329 -2.98628 0
M  V30 3154 H 290.206 -0.281268 -1.59438 0
M  V30 3155 H 292.198 2.24952 -3.3642 0
M  V30 3156 H 290.768 2.10409 -2.31186 0
M  V30 3157 H 289.988 0.22215 -3.93574 0
M  V30 3158 H 291.276 0.752213 -5.03209 0
M  V30 3159 H 290.674 3.81605 -4.17605 0
M  V30 3160 H 289.231 4.10549 -5.06254 0
M  V30 3161 N 292.664 1.56529 -0.183458 0
M  V30 3162 C 293.894 2.01331 0.463612 0
M  V30 3163 C 294.302 1.06278 1.5653 0
M  V30 3164 O 293.645 0.0577976 1.83609 0
M  V30 3165 C 293.707 3.42547 1.09096 0
M  V30 3166 C 293.371 4.56817 0.129442 0
M  V30 3167 C 294.368 5.15734 -0.656807 0
M  V30 3168 C 292.053 5.02295 0.02174 0
M  V30 3169 C 294.047 6.1857 -1.53784 0
M  V30 3170 C 291.734 6.04978 -0.862864 0
M  V30 3171 C 292.732 6.62988 -1.64123 0
M  V30 3172 O 292.42 7.63677 -2.51103 0
M  V30 3173 H 292.152 0.664917 0.121907 0
M  V30 3174 H 294.706 2.034 -0.285954 0
M  V30 3175 H 292.936 3.37428 1.88889 0
M  V30 3176 H 294.625 3.71228 1.64148 0
M  V30 3177 H 295.391 4.81473 -0.583839 0
M  V30 3178 H 291.27 4.56847 0.617392 0
M  V30 3179 H 294.814 6.63777 -2.14583 0
M  V30 3180 H 290.711 6.38663 -0.93699 0
M  V30 3181 H 291.479 7.81049 -2.44753 0
M  V30 3182 N 294.142 -0.090211 1.57342 0
M  V30 3183 C 295.072 -1.10976 2.05443 0
M  V30 3184 C 296.053 -1.41482 0.944284 0
M  V30 3185 O 297.238 -1.51428 1.21586 0
M  V30 3186 C 294.368 -2.42831 2.48295 0
M  V30 3187 C 293.322 -2.26721 3.63018 0
M  V30 3188 C 292.648 -3.63796 3.91863 0
M  V30 3189 C 293.948 -1.7037 4.93732 0
M  V30 3190 H 295.642 -0.709564 2.9087 0
M  V30 3191 H 293.188 -0.339874 1.39932 0
M  V30 3192 H 295.141 -3.14431 2.80555 0
M  V30 3193 H 293.865 -2.84795 1.59873 0
M  V30 3194 H 292.524 -1.57565 3.31012 0
M  V30 3195 H 292.172 -4.03297 3.00601 0
M  V30 3196 H 291.872 -3.53861 4.69101 0
M  V30 3197 H 293.396 -4.36855 4.26603 0
M  V30 3198 H 294.81 -2.31816 5.24342 0
M  V30 3199 H 293.207 -1.71181 5.75167 0
M  V30 3200 H 294.277 -0.663542 4.80339 0
M  V30 3201 N 295.62 -1.53406 -0.361157 0
M  V30 3202 C 296.567 -1.80156 -1.44265 0
M  V30 3203 C 297.537 -0.646183 -1.53015 0
M  V30 3204 O 298.722 -0.888818 -1.68833 0
M  V30 3205 C 295.862 -2.00116 -2.81154 0
M  V30 3206 C 294.975 -3.27833 -2.81335 0
M  V30 3207 C 294.11 -3.37957 -4.09828 0
M  V30 3208 C 293.149 -4.59689 -4.04168 0
M  V30 3209 N 292.286 -4.66942 -5.24318 0
M  V30 3210 H 297.126 -2.72438 -1.20754 0
M  V30 3211 H 294.663 -1.34954 -0.585296 0
M  V30 3212 H 296.621 -2.09677 -3.60682 0
M  V30 3213 H 295.251 -1.11167 -3.03054 0
M  V30 3214 H 294.303 -3.27204 -1.94014 0
M  V30 3215 H 295.615 -4.17442 -2.73027 0
M  V30 3216 H 294.769 -3.46853 -4.97773 0
M  V30 3217 H 293.508 -2.46372 -4.20894 0
M  V30 3218 H 292.513 -4.50889 -3.14609 0
M  V30 3219 H 293.738 -5.5262 -3.947 0
M  V30 3220 H 291.684 -3.7826 -5.35962 0
M  V30 3221 H 291.601 -5.50462 -5.18197 0
M  V30 3222 H 292.869 -4.80127 -6.14084 0
M  V30 3223 N 297.098 0.621204 -1.44841 0
M  V30 3224 C 298.326 1.40752 -1.51646 0
M  V30 3225 C 298.741 1.88246 -0.144549 0
M  V30 3226 O 298.098 1.61422 0.851416 0
M  V30 3227 C 298.149 2.62119 -2.4895 0
M  V30 3228 O 297.87 2.16602 -3.80808 0
M  V30 3229 C 299.371 3.55135 -2.65319 0
M  V30 3230 H 296.591 0.431325 -0.514004 0
M  V30 3231 H 299.135 0.758835 -1.899 0
M  V30 3232 H 297.29 3.23058 -2.13805 0
M  V30 3233 H 297.704 2.95358 -4.33433 0
M  V30 3234 H 299.178 4.36874 -3.37409 0
M  V30 3235 H 299.655 4.04592 -1.70886 0
M  V30 3236 H 300.261 3.00058 -3.01405 0
M  V30 3237 N 298.576 1.31904 0.862503 0
M  V30 3238 C 299.523 1.20182 1.9704 0
M  V30 3239 C 300.493 0.0858247 1.65878 0
M  V30 3240 O 301.678 0.26 1.8902 0
M  V30 3241 C 298.818 0.922797 3.32533 0
M  V30 3242 C 297.931 2.12284 3.76244 0
M  V30 3243 C 297.066 1.77996 5.00491 0
M  V30 3244 C 296.105 2.94366 5.36671 0
M  V30 3245 N 295.242 2.60223 6.52095 0
M  V30 3246 H 300.082 2.14951 2.06398 0
M  V30 3247 H 297.619 1.06917 1.01031 0
M  V30 3248 H 299.577 0.741548 4.10557 0
M  V30 3249 H 298.207 0.0119227 3.22798 0
M  V30 3250 H 297.259 2.41461 2.9394 0
M  V30 3251 H 298.571 2.99357 3.98982 0
M  V30 3252 H 297.725 1.56377 5.862 0
M  V30 3253 H 296.464 0.881252 4.79672 0
M  V30 3254 H 295.469 3.16625 4.49476 0
M  V30 3255 H 296.694 3.84957 5.59451 0
M  V30 3256 H 294.64 1.72884 6.32809 0
M  V30 3257 H 294.557 3.40827 6.74814 0
M  V30 3258 H 295.825 2.42016 7.40978 0
M  V30 3259 N 300.054 -1.07777 1.14986 0
M  V30 3260 C 301.001 -2.14867 0.842672 0
M  V30 3261 C 301.971 -1.6486 -0.202552 0
M  V30 3262 O 303.156 -1.90668 -0.0710568 0
M  V30 3263 C 300.296 -3.43486 0.333363 0
M  V30 3264 C 299.409 -4.07306 1.43965 0
M  V30 3265 C 298.544 -5.23744 0.886914 0
M  V30 3266 C 297.583 -5.79517 1.97043 0
M  V30 3267 N 296.72 -6.87291 1.4344 0
M  V30 3268 H 301.56 -2.40485 1.75986 0
M  V30 3269 H 299.097 -1.1801 0.878179 0
M  V30 3270 H 301.055 -4.17195 0.0198163 0
M  V30 3271 H 299.685 -3.18133 -0.546916 0
M  V30 3272 H 298.737 -3.31293 1.86946 0
M  V30 3273 H 300.049 -4.44771 2.25788 0
M  V30 3274 H 299.203 -6.04419 0.525651 0
M  V30 3275 H 297.942 -4.87685 0.0377957 0
M  V30 3276 H 296.947 -4.97491 2.34057 0
M  V30 3277 H 298.172 -6.17632 2.82325 0
M  V30 3278 H 296.118 -6.5318 0.607567 0
M  V30 3279 H 296.035 -7.23617 2.18895 0
M  V30 3280 H 297.303 -7.71682 1.10124 0
M  V30 3281 N 301.532 -0.945985 -1.26051 0
M  V30 3282 C 302.48 -0.450259 -2.282 0
M  V30 3283 C 303.474 0.47497 -1.62605 0
M  V30 3284 O 304.68 0.352653 -1.76512 0
M  V30 3285 H 301.055 -0.127081 -0.741184 0
M  V30 3286 H 303.026 -1.32422 -2.67408 0
M  V30 3287 C 301.775 0.26467 -3.46691 0
M  V30 3288 H 301.098 -0.438123 -3.97392 0
M  V30 3289 H 302.538 0.575678 -4.20074 0
M  V30 3290 C 300.997 1.48416 -3.02447 0
M  V30 3291 O 301.527 2.58227 -3.07704 0
M  V30 3292 N 299.733 1.34243 -2.57735 0
M  V30 3293 H 299.28 0.448994 -2.53657 0
M  V30 3294 H 299.238 2.15957 -2.28495 0
M  V30 3295 N 303.011 1.40521 -0.713556 0
M  V30 3296 C 304.236 2.05759 -0.26035 0
M  V30 3297 C 304.661 1.53403 1.08854 0
M  V30 3298 O 304.019 0.668535 1.68524 0
M  V30 3299 C 304.067 3.59745 -0.248122 0
M  V30 3300 O 303.171 4.05123 0.77131 0
M  V30 3301 H 302.512 0.652564 -0.122703 0
M  V30 3302 H 305.042 1.79958 -0.973467 0
M  V30 3303 H 305.052 4.07911 -0.0851129 0
M  V30 3304 H 303.727 3.97218 -1.2325 0
M  V30 3305 H 302.304 3.68422 0.57619 0
M  V30 3306 N 304.489 0.459591 1.5075 0
M  V30 3307 C 305.437 -0.354678 2.2988 0
M  V30 3308 C 306.431 -1.00086 1.36672 0
M  V30 3309 O 307.637 -0.933277 1.53915 0
M  V30 3310 H 304.012 -0.13321 0.740107 0
M  V30 3311 H 305.983 0.333269 2.96533 0
M  V30 3312 C 304.732 -1.43073 3.169 0
M  V30 3313 H 304.055 -0.942882 3.88523 0
M  V30 3314 H 305.495 -1.97328 3.75284 0
M  V30 3315 C 303.954 -2.42633 2.33732 0
M  V30 3316 O 304.484 -3.47658 2.01238 0
M  V30 3317 N 302.69 -2.14066 1.9653 0
M  V30 3318 H 302.237 -1.28685 2.23155 0
M  V30 3319 H 302.195 -2.80917 1.41185 0
M  V30 3320 N 305.967 -1.56429 0.191757 0
M  V30 3321 C 306.915 -2.20273 -0.747174 0
M  V30 3322 C 307.909 -1.17288 -1.22229 0
M  V30 3323 O 309.115 -1.35441 -1.18557 0
M  V30 3324 H 305.49 -0.705885 -0.259289 0
M  V30 3325 H 307.461 -2.97826 -0.184963 0
M  V30 3326 C 306.21 -2.87356 -1.95759 0
M  V30 3327 H 305.533 -3.66341 -1.60106 0
M  V30 3328 H 306.973 -3.3547 -2.59299 0
M  V30 3329 C 305.432 -1.88213 -2.79423 0
M  V30 3330 O 305.962 -1.38033 -3.7724 0
M  V30 3331 N 304.168 -1.56516 -2.44849 0
M  V30 3332 H 303.715 -1.97516 -1.65364 0
M  V30 3333 H 303.673 -0.904369 -3.01112 0
M  V30 3334 N 307.445 0.0818655 -1.57387 0
M  V30 3335 C 308.375 1.09885 -2.06028 0
M  V30 3336 C 309.356 1.4098 -0.951774 0
M  V30 3337 O 310.541 1.50781 -1.22387 0
M  V30 3338 C 307.671 2.4151 -2.4958 0
M  V30 3339 C 306.625 2.24792 -3.64215 0
M  V30 3340 C 305.951 3.61712 -3.93787 0
M  V30 3341 C 307.251 1.67749 -4.94629 0
M  V30 3342 H 308.945 0.694128 -2.91243 0
M  V30 3343 H 306.491 0.332448 -1.4011 0
M  V30 3344 H 308.444 3.12939 -2.82219 0
M  V30 3345 H 307.168 2.83943 -1.61381 0
M  V30 3346 H 305.827 1.55807 -3.31843 0
M  V30 3347 H 305.475 4.01697 -3.02735 0
M  V30 3348 H 305.175 3.51368 -4.70971 0
M  V30 3349 H 306.699 4.34587 -4.28913 0
M  V30 3350 H 308.113 2.29032 -5.25564 0
M  V30 3351 H 306.51 1.68128 -5.76067 0
M  V30 3352 H 307.58 0.638059 -4.80684 0
M  V30 3353 N 308.923 1.53595 0.353017 0
M  V30 3354 C 310.172 1.69603 1.09168 0
M  V30 3355 C 310.485 0.460925 1.90092 0
M  V30 3356 O 311.691 0.501774 2.66823 0
M  V30 3357 C 310.147 2.99872 1.9901 0
M  V30 3358 C 309.755 4.30687 1.23339 0
M  V30 3359 C 311.499 3.25246 2.72792 0
M  V30 3360 C 309.406 5.52036 2.12156 0
M  V30 3361 H 308.336 0.631966 0.411261 0
M  V30 3362 H 310.987 1.80096 0.351802 0
M  V30 3363 H 309.369 2.83212 2.7678 0
M  V30 3364 H 310.543 4.58019 0.505456 0
M  V30 3365 H 308.858 4.11853 0.613663 0
M  V30 3366 H 311.455 4.13095 3.39495 0
M  V30 3367 H 311.798 2.41846 3.38846 0
M  V30 3368 H 312.331 3.42638 2.021 0
M  V30 3369 H 309.07 6.37951 1.50659 0
M  V30 3370 H 308.59 5.28966 2.82764 0
M  V30 3371 H 310.269 5.87313 2.71427 0
M  V30 3372 N 310.401 -0.613514 1.45168 0
M  V30 3373 C 311.65 -1.36874 1.4815 0
M  V30 3374 C 311.963 -1.952 0.124982 0
M  V30 3375 O 313.169 -2.71481 0.0324176 0
M  V30 3376 C 311.625 -2.47905 2.60904 0
M  V30 3377 C 311.233 -1.96016 4.02842 0
M  V30 3378 C 312.977 -3.24965 2.73126 0
M  V30 3379 C 310.884 -3.04494 5.06988 0
M  V30 3380 H 309.814 -0.514428 0.551253 0
M  V30 3381 H 312.465 -0.658182 1.7129 0
M  V30 3382 H 310.847 -3.21618 2.31037 0
M  V30 3383 H 312.021 -1.29051 4.4236 0
M  V30 3384 H 310.336 -1.31719 3.95018 0
M  V30 3385 H 312.933 -4.05865 3.48106 0
M  V30 3386 H 313.276 -3.75588 1.79553 0
M  V30 3387 H 313.809 -2.5835 3.0249 0
M  V30 3388 H 310.548 -2.58795 6.0225 0
M  V30 3389 H 310.068 -3.70044 4.72046 0
M  V30 3390 H 311.747 -3.68976 5.31475 0
M  V30 3391 N 311.879 -1.3236 -0.855495 0
M  V30 3392 C 312.826 -1.21225 -1.964 0
M  V30 3393 C 313.796 -0.0946204 -1.6583 0
M  V30 3394 O 314.981 -0.27002 -1.8888 0
M  V30 3395 C 312.121 -0.940419 -3.32039 0
M  V30 3396 C 311.234 -2.14276 -3.75113 0
M  V30 3397 C 310.369 -1.80648 -4.9954 0
M  V30 3398 C 309.408 -2.97208 -5.35102 0
M  V30 3399 N 308.545 -2.63678 -6.50706 0
M  V30 3400 H 313.385 -2.16042 -2.05255 0
M  V30 3401 H 310.922 -1.07451 -1.00463 0
M  V30 3402 H 312.88 -0.763311 -4.10158 0
M  V30 3403 H 311.51 -0.0290413 -3.22787 0
M  V30 3404 H 310.562 -2.43017 -2.92655 0
M  V30 3405 H 311.874 -3.01468 -3.97389 0
M  V30 3406 H 311.028 -1.59484 -5.85363 0
M  V30 3407 H 309.767 -0.906678 -4.79198 0
M  V30 3408 H 308.772 -3.19004 -4.47791 0
M  V30 3409 H 309.997 -3.87918 -5.57401 0
M  V30 3410 H 307.943 -1.76238 -6.31883 0
M  V30 3411 H 307.86 -3.444 -6.72997 0
M  V30 3412 H 309.128 -2.45942 -7.39684 0
M  V30 3413 N 313.357 1.07166 -1.15556 0
M  V30 3414 C 314.587 1.83248 -0.954133 0
M  V30 3415 C 314.995 1.82449 0.500911 0
M  V30 3416 O 314.338 1.23575 1.35923 0
M  V30 3417 C 314.4 3.31393 -1.39351 0
M  V30 3418 C 314.064 3.5591 -2.86666 0
M  V30 3419 C 315.061 3.49695 -3.8472 0
M  V30 3420 C 312.746 3.83515 -3.24379 0
M  V30 3421 C 314.74 3.70737 -5.18491 0
M  V30 3422 C 312.427 4.04209 -4.58321 0
M  V30 3423 C 313.425 3.97815 -5.55186 0
M  V30 3424 O 313.113 4.17954 -6.86709 0
M  V30 3425 H 312.845 0.584941 -0.338851 0
M  V30 3426 H 315.399 1.36169 -1.53777 0
M  V30 3427 H 313.629 3.79292 -0.75329 0
M  V30 3428 H 315.318 3.88945 -1.16089 0
M  V30 3429 H 316.084 3.28368 -3.56931 0
M  V30 3430 H 311.963 3.87605 -2.49567 0
M  V30 3431 H 315.507 3.65663 -5.94085 0
M  V30 3432 H 311.404 4.25023 -4.85825 0
M  V30 3433 H 312.172 4.35291 -6.93155 0
M  V30 3434 N 314.835 0.952656 1.25548 0
M  V30 3435 C 316.084 0.602053 1.92505 0
M  V30 3436 C 316.397 -0.864663 1.75451 0
M  V30 3437 O 317.603 -1.32514 2.36965 0
M  V30 3438 C 316.059 1.02607 3.44963 0
M  V30 3439 C 315.667 2.51519 3.70732 0
M  V30 3440 C 317.411 0.747905 4.1786 0
M  V30 3441 C 315.318 2.87732 5.16686 0
M  V30 3442 H 314.248 0.22146 0.720744 0
M  V30 3443 H 316.899 1.15684 1.42441 0
M  V30 3444 H 315.281 0.399712 3.93978 0
M  V30 3445 H 316.455 3.19157 3.32378 0
M  V30 3446 H 314.77 2.76786 3.11092 0
M  V30 3447 H 317.367 0.994647 5.25367 0
M  V30 3448 H 317.71 -0.315629 4.15102 0
M  V30 3449 H 318.243 1.33452 3.74747 0
M  V30 3450 H 314.982 3.93095 5.24554 0
M  V30 3451 H 314.502 2.24765 5.56094 0
M  V30 3452 H 316.181 2.76817 5.84792 0
M  V30 3453 N 316.313 -1.40141 0.720998 0
M  V30 3454 C 317.538 -2.05618 0.271258 0
M  V30 3455 C 317.963 -1.53978 -1.08039 0
M  V30 3456 O 317.321 -0.677463 -1.68167 0
M  V30 3457 C 317.369 -3.59609 0.267197 0
M  V30 3458 O 316.473 -4.05526 -0.749814 0
M  V30 3459 H 315.814 -0.651904 0.126162 0
M  V30 3460 H 318.344 -1.79439 0.982997 0
M  V30 3461 H 318.354 -4.0786 0.106744 0
M  V30 3462 H 317.029 -3.96559 1.25354 0
M  V30 3463 H 315.606 -3.68722 -0.556644 0
M  V30 3464 N 317.792 -0.46758 -1.50504 0
M  V30 3465 C 319.032 0.0874114 -2.04213 0
M  V30 3466 C 319.396 1.37301 -1.34211 0
M  V30 3467 O 320.597 2.01015 -1.78456 0
M  V30 3468 C 318.868 0.270571 -3.56374 0
M  V30 3469 S 320.427 0.784623 -4.31728 0
M  V30 3470 H 317.245 0.0176153 -0.710782 0
M  V30 3471 H 319.847 -0.633915 -1.84937 0
M  V30 3472 H 318.551 -0.670942 -4.04878 0
M  V30 3473 H 318.082 1.01811 -3.79997 0
M  V30 3474 H 320.097 2.05849 -4.51487 0
M  V30 3475 N 319.27 1.56325 -0.20005 0
M  V30 3476 C 320.686 1.58839 0.155716 0
M  V30 3477 C 320.886 1.21636 1.60645 0
M  V30 3478 O 319.942 0.941437 2.34293 0
M  V30 3479 C 321.255 3.0032 -0.151124 0
M  V30 3480 C 322.803 3.12866 -0.0916284 0
M  V30 3481 C 323.278 4.56488 -0.371845 0
M  V30 3482 N 324.769 4.62089 -0.320641 0
M  V30 3483 C 325.504 5.71116 -0.511243 0
M  V30 3484 N 325 6.88592 -0.762461 0
M  V30 3485 N 326.793 5.60335 -0.445157 0
M  V30 3486 H 318.944 1.78788 -1.14668 0
M  V30 3487 H 321.207 0.829996 -0.458051 0
M  V30 3488 H 320.913 3.32117 -1.15721 0
M  V30 3489 H 320.787 3.73257 0.543986 0
M  V30 3490 H 323.174 2.80878 0.905065 0
M  V30 3491 H 323.255 2.42304 -0.81989 0
M  V30 3492 H 322.899 4.89189 -1.36588 0
M  V30 3493 H 322.829 5.25246 0.377362 0
M  V30 3494 H 325.32 3.77665 -0.13329 0
M  V30 3495 H 325.633 7.67581 -0.896576 0
M  V30 3496 H 323.978 6.90387 -0.799412 0
M  V30 3497 H 327.169 4.67436 -0.249278 0
M  V30 3498 H 327.342 6.45243 -0.597116 0
M  V30 3499 N 320.748 -0.0735177 1.57428 0
M  V30 3500 C 321.678 -1.0879 2.06608 0
M  V30 3501 C 322.659 -1.40473 0.959237 0
M  V30 3502 O 323.844 -1.5013 1.23185 0
M  V30 3503 C 320.974 -2.40183 2.50857 0
M  V30 3504 C 319.928 -2.22858 3.65402 0
M  V30 3505 C 319.254 -3.59619 3.957 0
M  V30 3506 C 320.554 -1.65123 4.95511 0
M  V30 3507 H 322.248 -0.678673 2.91607 0
M  V30 3508 H 319.794 -0.325013 1.40284 0
M  V30 3509 H 321.747 -3.11437 2.83874 0
M  V30 3510 H 320.471 -2.83083 1.62885 0
M  V30 3511 H 319.13 -1.54045 3.32664 0
M  V30 3512 H 318.778 -4.00086 3.04861 0
M  V30 3513 H 318.478 -3.48866 4.72828 0
M  V30 3514 H 320.002 -4.32306 4.31212 0
M  V30 3515 H 321.416 -2.26241 5.26771 0
M  V30 3516 H 319.813 -1.65071 5.7695 0
M  V30 3517 H 320.883 -0.612559 4.81015 0
M  V30 3518 N 322.226 -1.5378 -0.344866 0
M  V30 3519 C 323.156 -1.84662 -1.42906 0
M  V30 3520 C 324.137 -0.701648 -1.54955 0
M  V30 3521 O 325.322 -0.953438 -1.69184 0
M  V30 3522 C 322.452 -2.05503 -2.79974 0
M  V30 3523 C 321.406 -3.21318 -2.82734 0
M  V30 3524 C 320.732 -3.2749 -4.22675 0
M  V30 3525 C 322.032 -4.59456 -2.48389 0
M  V30 3526 H 323.726 -2.75461 -1.17311 0
M  V30 3527 H 321.272 -1.32542 -0.562896 0
M  V30 3528 H 323.225 -2.25691 -3.55867 0
M  V30 3529 H 321.949 -1.11434 -3.07002 0
M  V30 3530 H 320.608 -3.00984 -2.09294 0
M  V30 3531 H 320.256 -2.31019 -4.4681 0
M  V30 3532 H 319.956 -4.05316 -4.25433 0
M  V30 3533 H 321.48 -3.49887 -5.00412 0
M  V30 3534 H 322.894 -4.79667 -3.13995 0
M  V30 3535 H 321.291 -5.39675 -2.62432 0
M  V30 3536 H 322.361 -4.63155 -1.4358 0
M  V30 3537 N 323.704 0.605807 -1.45491 0
M  V30 3538 C 324.932 1.39136 -1.5313 0
M  V30 3539 C 325.347 1.88082 -0.164507 0
M  V30 3540 O 324.704 1.62316 0.834247 0
M  V30 3541 C 324.755 2.59463 -2.51716 0
M  V30 3542 O 324.476 2.12551 -3.83084 0
M  V30 3543 C 325.977 3.52301 -2.6907 0
M  V30 3544 H 323.197 0.425849 -0.51855 0
M  V30 3545 H 325.741 0.73865 -1.90694 0
M  V30 3546 H 323.896 3.20772 -2.17219 0
M  V30 3547 H 324.31 2.90744 -4.36541 0
M  V30 3548 H 325.784 4.33271 -3.42024 0
M  V30 3549 H 326.261 4.02757 -1.75167 0
M  V30 3550 H 326.867 2.96845 -3.04571 0
M  V30 3551 N 325.182 1.32811 0.848464 0
M  V30 3552 C 326.112 1.24882 1.97299 0
M  V30 3553 C 327.093 0.131357 1.69592 0
M  V30 3554 O 328.278 0.319553 1.91553 0
M  V30 3555 C 325.408 0.97746 3.33261 0
M  V30 3556 C 324.362 2.05682 3.75338 0
M  V30 3557 C 323.688 1.63777 5.09 0
M  V30 3558 C 324.988 3.47254 3.90144 0
M  V30 3559 H 326.682 2.18966 2.04191 0
M  V30 3560 H 324.228 1.05413 0.981029 0
M  V30 3561 H 326.181 0.908513 4.1149 0
M  V30 3562 H 324.905 0.000980011 3.266 0
M  V30 3563 H 323.564 2.11603 2.99366 0
M  V30 3564 H 323.212 0.648569 4.98801 0
M  V30 3565 H 322.912 2.36 5.38124 0
M  V30 3566 H 324.436 1.5833 5.89715 0
M  V30 3567 H 325.85 3.43888 4.58709 0
M  V30 3568 H 324.247 4.1788 4.30693 0
M  V30 3569 H 325.317 3.86462 2.92874 0
M  V30 3570 N 326.66 -1.06551 1.16123 0
M  V30 3571 C 327.909 -1.78687 0.935622 0
M  V30 3572 C 328.222 -1.88056 -0.538001 0
M  V30 3573 O 329.428 -2.56794 -0.88143 0
M  V30 3574 C 327.884 -3.21143 1.62466 0
M  V30 3575 C 327.492 -3.19949 3.13587 0
M  V30 3576 C 329.236 -3.9783 1.48092 0
M  V30 3577 C 327.143 -4.57108 3.75241 0
M  V30 3578 H 326.073 -0.669712 0.346412 0
M  V30 3579 H 328.724 -1.19534 1.39226 0
M  V30 3580 H 327.106 -3.80539 1.09572 0
M  V30 3581 H 328.28 -2.70151 3.73303 0
M  V30 3582 H 326.595 -2.5676 3.27816 0
M  V30 3583 H 329.192 -4.99217 1.91538 0
M  V30 3584 H 329.535 -4.14078 0.429507 0
M  V30 3585 H 330.068 -3.4495 1.98127 0
M  V30 3586 H 326.807 -4.46065 4.80319 0
M  V30 3587 H 326.327 -5.07111 3.20309 0
M  V30 3588 H 328.006 -5.26069 3.76644 0
M  V30 3589 N 328.138 -0.959301 -1.25041 0
M  V30 3590 C 329.387 -0.612254 -1.92183 0
M  V30 3591 C 329.7 0.855347 -1.75907 0
M  V30 3592 O 330.906 1.31256 -2.37664 0
M  V30 3593 C 329.362 -1.04435 -3.44414 0
M  V30 3594 C 328.97 -2.53482 -3.69393 0
M  V30 3595 C 330.714 -0.770055 -4.17457 0
M  V30 3596 C 328.621 -2.90468 -5.15153 0
M  V30 3597 H 327.551 -0.225279 -0.719559 0
M  V30 3598 H 330.202 -1.16438 -1.41825 0
M  V30 3599 H 328.584 -0.4206 -3.9376 0
M  V30 3600 H 329.758 -3.20916 -3.30681 0
M  V30 3601 H 328.073 -2.78432 -3.0962 0
M  V30 3602 H 330.67 -1.02249 -5.24832 0
M  V30 3603 H 331.013 0.293611 -4.15263 0
M  V30 3604 H 331.546 -1.35437 -3.74034 0
M  V30 3605 H 328.285 -3.95871 -5.22462 0
M  V30 3606 H 327.805 -2.27711 -5.54894 0
M  V30 3607 H 329.484 -2.79914 -5.83315 0
M  V30 3608 N 329.616 1.39756 -0.72842 0
M  V30 3609 C 330.865 1.99879 -0.270407 0
M  V30 3610 C 331.178 1.58449 1.14688 0
M  V30 3611 O 332.384 2.11362 1.70407 0
M  V30 3612 C 330.84 3.57292 -0.43252 0
M  V30 3613 C 330.448 4.07688 -1.85727 0
M  V30 3614 C 332.192 4.24485 -0.0359507 0
M  V30 3615 C 330.099 5.5765 -1.96928 0
M  V30 3616 H 329.029 0.747689 -0.0973472 0
M  V30 3617 H 331.68 1.59837 -0.901355 0
M  V30 3618 H 330.062 3.95097 0.267219 0
M  V30 3619 H 331.236 3.81231 -2.58843 0
M  V30 3620 H 329.551 3.53135 -2.20646 0
M  V30 3621 H 332.148 5.34609 -0.0987484 0
M  V30 3622 H 332.491 4.03915 1.00787 0
M  V30 3623 H 333.024 3.9183 -0.686604 0
M  V30 3624 H 329.763 5.8309 -2.99476 0
M  V30 3625 H 329.283 5.8593 -1.28241 0
M  V30 3626 H 330.962 6.22957 -1.74737 0
M  V30 3627 N 331.094 0.475555 1.50254 0
M  V30 3628 C 332.024 -0.30611 2.31485 0
M  V30 3629 C 333.005 -0.986228 1.38591 0
M  V30 3630 O 334.19 -0.982541 1.67511 0
M  V30 3631 C 331.32 -1.38588 3.1845 0
M  V30 3632 C 330.274 -0.827115 4.19932 0
M  V30 3633 C 329.6 -2.00551 4.95665 0
M  V30 3634 C 330.9 0.16463 5.2204 0
M  V30 3635 H 332.594 0.371866 2.97082 0
M  V30 3636 H 330.14 0.180282 1.42867 0
M  V30 3637 H 332.093 -1.94023 3.74076 0
M  V30 3638 H 330.817 -2.09269 2.50747 0
M  V30 3639 H 329.476 -0.294702 3.65414 0
M  V30 3640 H 329.124 -2.6994 4.2443 0
M  V30 3641 H 328.824 -1.63784 5.64313 0
M  V30 3642 H 330.348 -2.56468 5.54127 0
M  V30 3643 H 331.762 -0.300699 5.72511 0
M  V30 3644 H 330.159 0.446813 5.98434 0
M  V30 3645 H 331.229 1.08905 4.72512 0
M  V30 3646 N 332.573 -1.56217 0.208337 0
M  V30 3647 C 333.503 -2.22694 -0.702116 0
M  V30 3648 C 334.484 -1.19432 -1.2112 0
M  V30 3649 O 335.669 -1.47978 -1.25762 0
M  V30 3650 C 332.799 -2.8966 -1.9161 0
M  V30 3651 C 331.753 -3.9928 -1.5414 0
M  V30 3652 C 331.079 -4.53476 -2.83308 0
M  V30 3653 C 332.379 -5.17012 -0.741339 0
M  V30 3654 H 334.073 -2.99034 -0.147898 0
M  V30 3655 H 331.619 -1.43831 -0.0696951 0
M  V30 3656 H 333.572 -3.34852 -2.55836 0
M  V30 3657 H 332.296 -2.10746 -2.49507 0
M  V30 3658 H 330.955 -3.54799 -0.922668 0
M  V30 3659 H 330.603 -3.71308 -3.39322 0
M  V30 3660 H 330.303 -5.27451 -2.58976 0
M  V30 3661 H 331.827 -5.01378 -3.485 0
M  V30 3662 H 333.241 -5.58667 -1.28699 0
M  V30 3663 H 331.638 -5.97137 -0.595627 0
M  V30 3664 H 332.708 -4.8423 0.254851 0
M  V30 3665 N 334.051 0.0651679 -1.57465 0
M  V30 3666 C 335.014 1.06117 -2.03155 0
M  V30 3667 C 336.014 1.31204 -0.929632 0
M  V30 3668 O 337.204 1.26813 -1.19432 0
M  V30 3669 C 334.336 2.4032 -2.41783 0
M  V30 3670 H 335.529 0.667231 -2.92383 0
M  V30 3671 H 333.082 0.311075 -1.53173 0
M  V30 3672 H 333.817 2.84532 -1.55601 0
M  V30 3673 H 333.602 2.23451 -3.22199 0
M  V30 3674 H 335.092 3.11898 -2.77685 0
M  V30 3675 N 335.529 1.53961 0.336706 0
M  V30 3676 C 336.769 1.73254 1.08454 0
M  V30 3677 C 337.133 0.488937 1.8567 0
M  V30 3678 O 338.334 0.559001 2.62923 0
M  V30 3679 C 336.605 2.96519 1.99528 0
M  V30 3680 S 338.164 3.36655 2.81441 0
M  V30 3681 H 334.982 0.609353 0.366347 0
M  V30 3682 H 337.584 1.92117 0.362124 0
M  V30 3683 H 336.288 3.85193 1.41614 0
M  V30 3684 H 335.819 2.80142 2.76196 0
M  V30 3685 H 337.834 2.90925 4.01967 0
M  V30 3686 N 337.007 -0.598083 1.45811 0
M  V30 3687 C 338.256 -1.35295 1.49594 0
M  V30 3688 C 338.569 -1.95057 0.145679 0
M  V30 3689 O 339.775 -2.71431 0.0612099 0
M  V30 3690 C 338.231 -2.45124 2.63519 0
M  V30 3691 C 337.839 -1.91732 4.04899 0
M  V30 3692 C 339.583 -3.2205 2.76558 0
M  V30 3693 C 337.49 -2.991 5.1019 0
M  V30 3694 H 336.42 -0.508552 0.556679 0
M  V30 3695 H 339.071 -0.639977 1.71978 0
M  V30 3696 H 337.453 -3.19149 2.34435 0
M  V30 3697 H 338.627 -1.24352 4.43704 0
M  V30 3698 H 336.942 -1.27522 3.96393 0
M  V30 3699 H 339.539 -4.0215 3.52391 0
M  V30 3700 H 339.882 -3.73663 1.83526 0
M  V30 3701 H 340.415 -2.55127 3.05213 0
M  V30 3702 H 337.154 -2.52393 6.04961 0
M  V30 3703 H 336.674 -3.65017 4.75944 0
M  V30 3704 H 338.353 -3.63318 5.35359 0
M  V30 3705 N 338.485 -1.33259 -0.841409 0
M  V30 3706 C 339.715 -1.2742 -1.62628 0
M  V30 3707 C 340.123 0.157604 -1.88542 0
M  V30 3708 O 339.466 1.10938 -1.46419 0
M  V30 3709 C 339.528 -1.97797 -3.00194 0
M  V30 3710 C 339.192 -3.47109 -2.97261 0
M  V30 3711 C 340.189 -4.42358 -2.73159 0
M  V30 3712 C 337.874 -3.89247 -3.17478 0
M  V30 3713 C 339.868 -5.77718 -2.69296 0
M  V30 3714 C 337.555 -5.24713 -3.13241 0
M  V30 3715 C 338.553 -6.1876 -2.89181 0
M  V30 3716 O 338.241 -7.51745 -2.84843 0
M  V30 3717 H 337.973 -0.440436 -0.512827 0
M  V30 3718 H 340.527 -1.76153 -1.05638 0
M  V30 3719 H 338.757 -1.43652 -3.59028 0
M  V30 3720 H 340.446 -1.8549 -3.61038 0
M  V30 3721 H 341.212 -4.11127 -2.57294 0
M  V30 3722 H 337.091 -3.16456 -3.35226 0
M  V30 3723 H 340.635 -6.51097 -2.50436 0
M  V30 3724 H 336.532 -5.55569 -3.28654 0
M  V30 3725 H 337.3 -7.61262 -3.00702 0
M  V30 3726 N 339.963 1.05934 -1.16686 0
M  V30 3727 C 340.893 2.1546 -0.899949 0
M  V30 3728 C 341.874 1.69391 0.155154 0
M  V30 3729 O 343.059 1.94199 0.00648693 0
M  V30 3730 C 340.189 3.44939 -0.404241 0
M  V30 3731 C 339.143 4.04536 -1.39767 0
M  V30 3732 C 338.469 5.29268 -0.760216 0
M  V30 3733 C 339.769 4.42893 -2.76845 0
M  V30 3734 H 341.463 2.38046 -1.81588 0
M  V30 3735 H 339.009 1.14404 -0.874514 0
M  V30 3736 H 340.962 4.20901 -0.204971 0
M  V30 3737 H 339.686 3.21983 0.547206 0
M  V30 3738 H 338.345 3.30635 -1.58355 0
M  V30 3739 H 337.993 5.02611 0.197831 0
M  V30 3740 H 337.693 5.70101 -1.42332 0
M  V30 3741 H 339.217 6.07924 -0.57105 0
M  V30 3742 H 340.631 5.09921 -2.62019 0
M  V30 3743 H 339.028 4.94721 -3.39663 0
M  V30 3744 H 340.098 3.53584 -3.31823 0
M  V30 3745 N 341.441 0.965919 1.2453 0
M  V30 3746 C 342.689 0.625593 1.92174 0
M  V30 3747 C 343.01 -0.841652 1.75901 0
M  V30 3748 O 342.28 -1.60061 1.12948 0
M  V30 3749 H 340.86 0.228388 0.71123 0
M  V30 3750 H 343.522 1.2266 1.51461 0
M  V30 3751 H 342.618 0.864653 2.99884 0
M  V30 3752 N 342.919 -1.39368 0.735821 0
M  V30 3753 C 344.149 -2.04498 0.293967 0
M  V30 3754 C 344.557 -1.55593 -1.07645 0
M  V30 3755 O 343.9 -0.716324 -1.69158 0
M  V30 3756 C 343.962 -3.58836 0.218342 0
M  V30 3757 C 343.626 -4.30721 1.52736 0
M  V30 3758 C 344.623 -4.57305 2.47322 0
M  V30 3759 C 342.308 -4.69251 1.79189 0
M  V30 3760 C 344.302 -5.21429 3.66593 0
M  V30 3761 C 341.989 -5.33104 2.98737 0
M  V30 3762 C 342.987 -5.59125 3.9226 0
M  V30 3763 O 342.675 -6.21653 5.09708 0
M  V30 3764 H 342.407 -0.664118 0.126189 0
M  V30 3765 H 344.961 -1.79385 1.00051 0
M  V30 3766 H 343.191 -3.8285 -0.544314 0
M  V30 3767 H 344.88 -4.05447 -0.191626 0
M  V30 3768 H 345.646 -4.27983 2.28156 0
M  V30 3769 H 341.525 -4.48354 1.07239 0
M  V30 3770 H 345.069 -5.41656 4.39607 0
M  V30 3771 H 340.966 -5.61846 3.17803 0
M  V30 3772 H 341.734 -6.40146 5.10054 0
M  V30 3773 N 344.397 -0.483516 -1.5 0
M  V30 3774 C 345.627 0.0643896 -2.065 0
M  V30 3775 C 346.035 1.32949 -1.34615 0
M  V30 3776 O 345.378 1.79003 -0.412756 0
M  V30 3777 C 345.44 0.405983 -3.572 0
M  V30 3778 C 345.104 -0.758875 -4.50655 0
M  V30 3779 C 346.101 -1.64445 -4.93208 0
M  V30 3780 C 343.786 -0.952725 -4.93182 0
M  V30 3781 C 345.78 -2.70818 -5.77006 0
M  V30 3782 C 343.467 -2.01966 -5.76761 0
M  V30 3783 C 344.465 -2.89574 -6.18576 0
M  V30 3784 O 344.153 -3.94429 -7.00486 0
M  V30 3785 H 343.885 -0.00934786 -0.675935 0
M  V30 3786 H 346.439 -0.674959 -1.93993 0
M  V30 3787 H 344.669 1.19869 -3.67652 0
M  V30 3788 H 346.358 0.890433 -3.96013 0
M  V30 3789 H 347.124 -1.50643 -4.61012 0
M  V30 3790 H 343.003 -0.280247 -4.60147 0
M  V30 3791 H 346.547 -3.3923 -6.09565 0
M  V30 3792 H 342.444 -2.1577 -6.0837 0
M  V30 3793 H 343.212 -3.91568 -7.1876 0
M  V30 3794 N 345.875 1.56104 -0.216619 0
M  V30 3795 C 347.122 1.98172 0.416416 0
M  V30 3796 C 347.45 1.10413 1.60122 0
M  V30 3797 O 346.705 0.147967 1.9514 0
M  V30 3798 C 347.004 3.45923 0.898464 0
M  V30 3799 C 346.67 4.50559 -0.175288 0
M  V30 3800 C 345.332 4.78897 -0.470271 0
M  V30 3801 C 347.684 5.1334 -0.901728 0
M  V30 3802 C 345.012 5.67299 -1.4963 0
M  V30 3803 C 347.364 6.02853 -1.91705 0
M  V30 3804 C 346.028 6.29537 -2.21901 0
M  V30 3805 H 345.298 0.725164 0.152377 0
M  V30 3806 H 347.945 1.88839 -0.318103 0
M  V30 3807 H 346.25 3.52434 1.71165 0
M  V30 3808 H 347.947 3.75841 1.39803 0
M  V30 3809 H 344.537 4.28551 0.0647806 0
M  V30 3810 H 348.721 4.91521 -0.687072 0
M  V30 3811 H 343.977 5.86239 -1.73592 0
M  V30 3812 H 348.151 6.50552 -2.48505 0
M  V30 3813 H 345.778 6.97835 -3.01548 0
M  V30 3814 N 347.353 -0.0568162 1.57498 0
M  V30 3815 C 348.578 -0.769402 1.92601 0
M  V30 3816 C 349.003 -1.69559 0.814336 0
M  V30 3817 O 348.361 -1.79811 -0.231903 0
M  V30 3818 C 348.409 -1.52634 3.26704 0
M  V30 3819 O 347.513 -2.63797 3.16994 0
M  V30 3820 H 346.854 -0.208909 0.63028 0
M  V30 3821 H 349.384 -0.0205798 2.0459 0
M  V30 3822 H 349.394 -1.90234 3.60936 0
M  V30 3823 H 348.069 -0.846875 4.07186 0
M  V30 3824 H 346.646 -2.28943 2.94346 0
M  V30 3825 N 348.832 -1.54138 -0.328536 0
M  V30 3826 C 349.762 -1.86167 -1.40939 0
M  V30 3827 C 350.743 -0.718044 -1.54202 0
M  V30 3828 O 351.928 -0.971328 -1.68163 0
M  V30 3829 C 349.058 -2.08461 -2.77779 0
M  V30 3830 C 348.012 -3.24299 -2.7931 0
M  V30 3831 C 347.338 -3.31955 -4.19178 0
M  V30 3832 C 348.638 -4.62065 -2.43502 0
M  V30 3833 H 350.332 -2.76689 -1.14383 0
M  V30 3834 H 347.878 -1.33132 -0.548806 0
M  V30 3835 H 349.831 -2.29453 -3.53454 0
M  V30 3836 H 348.555 -1.14684 -3.05802 0
M  V30 3837 H 347.214 -3.03187 -2.0609 0
M  V30 3838 H 346.862 -2.35745 -4.44335 0
M  V30 3839 H 346.562 -4.09805 -4.2111 0
M  V30 3840 H 348.086 -3.55175 -4.96672 0
M  V30 3841 H 349.5 -4.8297 -3.08889 0
M  V30 3842 H 347.897 -5.42429 -2.56693 0
M  V30 3843 H 348.967 -4.64652 -1.38659 0
M  V30 3844 N 350.31 0.590341 -1.46126 0
M  V30 3845 C 351.535 1.37991 -1.54833 0
M  V30 3846 C 351.96 1.87163 -0.187506 0
M  V30 3847 O 351.318 1.61133 0.831008 0
M  V30 3848 C 351.366 2.54867 -2.55098 0
M  V30 3849 O 350.47 3.56061 -2.08073 0
M  V30 3850 H 349.811 0.411265 -0.521303 0
M  V30 3851 H 352.341 0.716819 -1.91632 0
M  V30 3852 H 352.351 3.01886 -2.74461 0
M  V30 3853 H 351.026 2.18429 -3.53923 0
M  V30 3854 H 349.603 3.15574 -1.98664 0
M  V30 3855 N 351.788 1.33704 0.83433 0
M  V30 3856 C 353.013 1.28615 1.62705 0
M  V30 3857 C 353.438 -0.139242 1.87584 0
M  V30 3858 O 352.796 -1.09734 1.4432 0
M  V30 3859 C 352.844 2.07139 2.95171 0
M  V30 3860 O 351.948 1.4331 3.86699 0
M  V30 3861 H 351.289 0.44226 0.49528 0
M  V30 3862 H 353.819 1.76335 1.03766 0
M  V30 3863 H 353.829 2.18073 3.44831 0
M  V30 3864 H 352.504 3.10779 2.76386 0
M  V30 3865 H 351.081 1.4105 3.45195 0
M  V30 3866 N 353.266 -1.05314 1.17247 0
M  V30 3867 C 354.196 -2.1498 0.911362 0
M  V30 3868 C 355.177 -1.69471 -0.146169 0
M  V30 3869 O 356.362 -1.942 0.003812 0
M  V30 3870 C 353.492 -3.4472 0.422528 0
M  V30 3871 C 352.446 -4.03789 1.4191 0
M  V30 3872 C 351.772 -5.28858 0.788274 0
M  V30 3873 C 353.072 -4.41418 2.7919 0
M  V30 3874 H 354.766 -2.3708 1.82848 0
M  V30 3875 H 352.312 -1.13938 0.880569 0
M  V30 3876 H 354.265 -4.20787 0.227289 0
M  V30 3877 H 352.989 -3.22269 -0.530123 0
M  V30 3878 H 351.648 -3.2979 1.60106 0
M  V30 3879 H 351.296 -5.02709 -0.171173 0
M  V30 3880 H 350.996 -5.69338 1.45353 0
M  V30 3881 H 352.52 -6.07612 0.603282 0
M  V30 3882 H 353.934 -5.08524 2.64719 0
M  V30 3883 H 352.331 -4.92913 3.42282 0
M  V30 3884 H 353.401 -3.51819 3.33693 0
M  V30 3885 N 354.744 -0.972509 -1.24016 0
M  V30 3886 C 355.969 -0.654417 -1.96805 0
M  V30 3887 C 356.394 0.770398 -1.716 0
M  V30 3888 O 355.752 1.52361 -0.982647 0
M  V30 3889 C 355.8 -0.941031 -3.48105 0
M  V30 3890 O 354.904 -0.0289472 -4.1239 0
M  V30 3891 H 354.245 -0.24692 -0.616382 0
M  V30 3892 H 356.775 -1.30396 -1.57664 0
M  V30 3893 H 356.785 -0.87452 -3.98517 0
M  V30 3894 H 355.46 -1.97939 -3.65777 0
M  V30 3895 H 354.037 -0.149192 -3.72601 0
M  V30 3896 N 356.222 1.38976 -0.743202 0
M  V30 3897 C 357.499 1.94351 -0.220705 0
M  V30 3898 C 357.879 1.67935 1.2791 0
M  V30 3899 O 357.227 1.01211 2.04862 0
M  V30 3900 C 357.437 3.44426 -0.563171 0
M  V30 3901 C 358.785 4.2144 -0.517046 0
M  V30 3902 O 359.809 3.52661 -0.500846 0
M  V30 3903 O 358.668 5.44032 -0.518806 0
M  V30 3904 H 355.762 0.825879 -0.043047 0
M  V30 3905 H 358.308 1.48429 -0.822618 0
M  V30 3906 H 357.08 3.5712 -1.59941 0
M  V30 3907 H 356.703 3.97543 0.0672883 0
M  V30 3908 N 357.7 0.491464 1.49741 0
M  V30 3909 C 358.61 -0.296835 2.32715 0
M  V30 3910 C 359.626 -0.976536 1.44013 0
M  V30 3911 O 360.802 -0.960023 1.77047 0
M  V30 3912 C 357.867 -1.35288 3.19215 0
M  V30 3913 C 356.928 -0.687632 4.23757 0
M  V30 3914 C 356.161 -1.69336 5.06123 0
M  V30 3915 O 356.384 -2.92219 4.89861 0
M  V30 3916 O 355.318 -1.25394 5.88693 0
M  V30 3917 H 359.144 0.382048 3.01287 0
M  V30 3918 H 356.729 0.252953 1.47243 0
M  V30 3919 H 358.611 -1.96411 3.72828 0
M  V30 3920 H 357.286 -2.01487 2.53347 0
M  V30 3921 H 356.193 -0.0369159 3.74082 0
M  V30 3922 H 357.526 -0.0682566 4.92153 0
M  V30 3923 N 359.178 -1.55987 0.224894 0
M  V30 3924 C 360.425 -1.9839 -0.4059 0
M  V30 3925 C 360.753 -1.11261 -1.59535 0
M  V30 3926 O 360.008 -0.158314 -1.95059 0
M  V30 3927 C 360.307 -3.46394 -0.880106 0
M  V30 3928 C 359.973 -4.5046 0.19918 0
M  V30 3929 C 358.635 -4.7864 0.495661 0
M  V30 3930 C 360.987 -5.12855 0.928939 0
M  V30 3931 C 358.315 -5.66497 1.52636 0
M  V30 3932 C 360.667 -6.01828 1.949 0
M  V30 3933 C 359.331 -6.28351 2.25236 0
M  V30 3934 H 358.601 -0.725961 -0.148529 0
M  V30 3935 H 361.248 -1.88668 0.328113 0
M  V30 3936 H 359.553 -3.53337 -1.69294 0
M  V30 3937 H 361.25 -3.76577 -1.37808 0
M  V30 3938 H 357.84 -4.28579 -0.0420526 0
M  V30 3939 H 362.024 -4.9115 0.713129 0
M  V30 3940 H 357.28 -5.8531 1.76698 0
M  V30 3941 H 361.454 -6.49225 2.51951 0
M  V30 3942 H 359.081 -6.96226 3.05244 0
M  V30 3943 N 360.656 0.0484629 -1.57525 0
M  V30 3944 C 361.902 0.744226 -1.88651 0
M  V30 3945 C 362.235 1.76029 -0.820212 0
M  V30 3946 O 361.51 1.93782 0.166985 0
M  V30 3947 C 361.793 1.43128 -3.30434 0
M  V30 3948 C 361.646 0.43005 -4.47739 0
M  V30 3949 C 362.965 2.37031 -3.70816 0
M  V30 3950 H 360.084 0.269089 -0.68612 0
M  V30 3951 H 362.726 0.00713532 -1.89999 0
M  V30 3952 H 360.876 2.05956 -3.29415 0
M  V30 3953 H 362.548 -0.194816 -4.60888 0
M  V30 3954 H 360.791 -0.252522 -4.33064 0
M  V30 3955 H 361.462 0.948874 -5.43783 0
M  V30 3956 H 363.938 1.84263 -3.73077 0
M  V30 3957 H 362.814 2.82094 -4.70865 0
M  V30 3958 H 363.075 3.22864 -3.02012 0
M  V30 3959 N 362.134 1.5431 0.320358 0
M  V30 3960 C 363.374 1.74395 1.0661 0
M  V30 3961 C 363.738 0.508602 1.85141 0
M  V30 3962 O 364.939 0.586856 2.62316 0
M  V30 3963 C 363.21 2.98619 1.96371 0
M  V30 3964 S 364.769 3.39621 2.77854 0
M  V30 3965 H 361.587 0.613204 0.359863 0
M  V30 3966 H 364.189 1.9249 0.341727 0
M  V30 3967 H 362.893 3.86673 1.3752 0
M  V30 3968 H 362.424 2.83055 2.73209 0
M  V30 3969 H 364.439 2.95172 3.98858 0
M  V30 3970 N 363.613 -0.582584 1.46437 0
M  V30 3971 C 364.838 -1.37168 1.55563 0
M  V30 3972 C 365.263 -1.87061 0.19743 0
M  V30 3973 O 364.621 -1.61572 -0.822451 0
M  V30 3974 C 364.669 -2.53511 2.56446 0
M  V30 3975 O 363.773 -3.54953 2.09958 0
M  V30 3976 H 363.114 -0.408494 0.523477 0
M  V30 3977 H 365.644 -0.706646 1.9201 0
M  V30 3978 H 365.654 -3.00426 2.76058 0
M  V30 3979 H 364.329 -2.16549 3.55076 0
M  V30 3980 H 362.906 -3.14516 2.00334 0
M  V30 3981 N 365.091 -1.34144 -0.827227 0
M  V30 3982 C 366.34 -1.25602 -1.5782 0
M  V30 3983 C 366.653 0.173445 -1.94829 0
M  V30 3984 O 367.859 0.380984 -2.68814 0
M  V30 3985 C 366.315 -2.20151 -2.84713 0
M  V30 3986 C 365.923 -3.68331 -2.55021 0
M  V30 3987 C 367.667 -2.20508 -3.62735 0
M  V30 3988 C 365.574 -4.54762 -3.78082 0
M  V30 3989 H 364.504 -0.466573 -0.592306 0
M  V30 3990 H 367.155 -1.59283 -0.911116 0
M  V30 3991 H 365.537 -1.79417 -3.53023 0
M  V30 3992 H 366.711 -4.17577 -1.94849 0
M  V30 3993 H 365.026 -3.7038 -1.90283 0
M  V30 3994 H 367.623 -2.82306 -4.54101 0
M  V30 3995 H 367.966 -1.20322 -3.98533 0
M  V30 3996 H 368.499 -2.59664 -3.01362 0
M  V30 3997 H 365.238 -5.55867 -3.47407 0
M  V30 3998 H 364.758 -4.10254 -4.37552 0
M  V30 3999 H 366.437 -4.69153 -4.45538 0
M  V30 4000 N 366.569 1.04691 -1.17803 0
M  V30 4001 C 367.516 2.12557 -0.899343 0
M  V30 4002 C 368.486 1.65339 0.158771 0
M  V30 4003 O 369.671 1.90789 0.0204797 0
M  V30 4004 C 366.811 3.42481 -0.424315 0
M  V30 4005 C 365.924 4.03346 -1.54713 0
M  V30 4006 C 365.059 5.21208 -1.02546 0
M  V30 4007 C 364.098 5.74089 -2.12339 0
M  V30 4008 N 363.235 6.83247 -1.61612 0
M  V30 4009 H 368.075 2.35734 -1.823 0
M  V30 4010 H 365.612 1.1564 -0.909159 0
M  V30 4011 H 367.57 4.16996 -0.130421 0
M  V30 4012 H 366.2 3.19471 0.462377 0
M  V30 4013 H 365.252 3.2622 -1.95664 0
M  V30 4014 H 366.564 4.38628 -2.37501 0
M  V30 4015 H 365.718 6.02812 -0.685718 0
M  V30 4016 H 364.457 4.87414 -0.167084 0
M  V30 4017 H 363.462 4.91111 -2.47165 0
M  V30 4018 H 364.687 6.0993 -2.98601 0
M  V30 4019 H 362.633 6.5134 -0.780533 0
M  V30 4020 H 362.55 7.17559 -2.38003 0
M  V30 4021 H 363.818 7.68491 -1.30545 0
M  V30 4022 N 368.047 0.979072 1.23499 0
M  V30 4023 C 369.272 0.664845 1.96455 0
M  V30 4024 C 369.697 -0.761287 1.72006 0
M  V30 4025 O 369.055 -1.51837 0.990713 0
M  V30 4026 C 369.103 0.959479 3.47601 0
M  V30 4027 O 368.207 0.0508168 4.12369 0
M  V30 4028 H 367.548 0.250185 0.615064 0
M  V30 4029 H 370.078 1.31231 1.5697 0
M  V30 4030 H 370.088 0.895642 3.98048 0
M  V30 4031 H 368.763 1.99876 3.64723 0
M  V30 4032 H 367.34 0.16895 3.72517 0
M  V30 4033 N 369.525 -1.3858 0.750561 0
M  V30 4034 C 370.773 -1.99789 0.30477 0
M  V30 4035 C 371.094 -1.59874 -1.11649 0
M  V30 4036 O 370.364 -0.85417 -1.76297 0
M  V30 4037 H 368.944 -0.738902 0.109694 0
M  V30 4038 H 371.606 -1.69391 0.963983 0
M  V30 4039 H 370.702 -3.09952 0.365499 0
M  V30 4040 N 371.003 -0.499398 -1.49478 0
M  V30 4041 C 372.252 0.0475259 -2.01644 0
M  V30 4042 C 372.565 1.38195 -1.38425 0
M  V30 4043 O 373.771 2.01547 -1.8191 0
M  V30 4044 C 372.227 0.135164 -3.59646 0
M  V30 4045 C 371.835 -1.19252 -4.31837 0
M  V30 4046 C 373.579 0.632538 -4.19761 0
M  V30 4047 C 371.486 -1.06713 -5.81693 0
M  V30 4048 H 370.416 0.0215349 -0.753692 0
M  V30 4049 H 373.067 -0.638577 -1.7203 0
M  V30 4050 H 371.449 0.885681 -3.85969 0
M  V30 4051 H 372.623 -1.9562 -4.17216 0
M  V30 4052 H 370.938 -1.62321 -3.83459 0
M  V30 4053 H 373.535 0.743833 -5.29501 0
M  V30 4054 H 373.878 1.63098 -3.83021 0
M  V30 4055 H 374.411 -0.0613987 -3.97753 0
M  V30 4056 H 371.15 -2.03979 -6.22955 0
M  V30 4057 H 370.67 -0.344307 -5.98811 0
M  V30 4058 H 372.349 -0.745208 -6.42694 0
M  V30 4059 N 372.481 1.55866 -0.233164 0
M  V30 4060 C 373.411 2.23783 0.666599 0
M  V30 4061 C 374.392 1.21343 1.19205 0
M  V30 4062 O 375.577 1.4996 1.23392 0
M  V30 4063 C 372.707 2.92671 1.86978 0
M  V30 4064 C 371.661 4.01682 1.47768 0
M  V30 4065 C 370.987 4.57926 2.76058 0
M  V30 4066 C 372.287 5.18126 0.658993 0
M  V30 4067 H 373.981 2.99232 0.100306 0
M  V30 4068 H 371.527 1.43924 0.046804 0
M  V30 4069 H 373.48 3.3888 2.50476 0
M  V30 4070 H 372.204 2.14688 2.46123 0
M  V30 4071 H 370.863 3.56222 0.866106 0
M  V30 4072 H 370.511 3.76659 3.33372 0
M  V30 4073 H 370.211 5.31505 2.50552 0
M  V30 4074 H 371.735 5.06859 3.40479 0
M  V30 4075 H 373.149 5.60644 1.19795 0
M  V30 4076 H 371.546 5.98009 0.500552 0
M  V30 4077 H 372.616 4.83763 -0.331856 0
M  V30 4078 N 373.959 -0.0401083 1.57549 0
M  V30 4079 C 375.375 -0.395556 1.54621 0
M  V30 4080 C 375.575 -1.77281 0.957799 0
M  V30 4081 O 374.631 -2.45888 0.574031 0
M  V30 4082 C 375.944 -0.307535 2.99123 0
M  V30 4083 C 377.492 -0.385425 3.10618 0
M  V30 4084 C 377.967 -0.326973 4.56831 0
M  V30 4085 N 379.458 -0.386102 4.61588 0
M  V30 4086 C 380.193 -0.363591 5.72246 0
M  V30 4087 N 379.689 -0.29402 6.92176 0
M  V30 4088 N 381.482 -0.412503 5.60584 0
M  V30 4089 H 373.633 0.861325 1.94152 0
M  V30 4090 H 375.896 0.326445 0.890021 0
M  V30 4091 H 375.602 0.638461 3.45856 0
M  V30 4092 H 375.476 -1.10552 3.60636 0
M  V30 4093 H 377.863 -1.32185 2.63839 0
M  V30 4094 H 377.944 0.44171 2.51957 0
M  V30 4095 H 377.588 0.605738 5.04275 0
M  V30 4096 H 377.518 -1.17207 5.13391 0
M  V30 4097 H 380.009 -0.442832 3.75296 0
M  V30 4098 H 380.322 -0.28164 7.72287 0
M  V30 4099 H 378.667 -0.260232 6.94513 0
M  V30 4100 H 381.858 -0.464769 4.65787 0
M  V30 4101 H 382.031 -0.391492 6.46816 0
M  V30 4102 N 375.437 -1.54477 -0.31217 0
M  V30 4103 C 376.385 -1.85395 -1.40469 0
M  V30 4104 C 377.379 -0.726749 -1.53019 0
M  V30 4105 O 378.585 -0.910582 -1.55269 0
M  V30 4106 H 374.96 -0.587845 -0.46898 0
M  V30 4107 H 376.931 -2.76736 -1.11623 0
M  V30 4108 C 375.68 -2.10811 -2.76503 0
M  V30 4109 H 375.003 -2.97014 -2.67625 0
M  V30 4110 H 376.443 -2.3639 -3.51988 0
M  V30 4111 C 374.902 -0.903165 -3.24568 0
M  V30 4112 O 375.432 -0.118085 -4.01526 0
M  V30 4113 N 373.638 -0.711634 -2.81752 0
M  V30 4114 H 373.185 -1.35171 -2.19286 0
M  V30 4115 H 373.143 0.0930473 -3.14262 0
M  V30 4116 N 376.915 0.57481 -1.46744 0
M  V30 4117 C 378.192 1.3352 -1.4294 0
M  V30 4118 C 378.572 2.10775 -0.117009 0
M  V30 4119 O 377.92 2.09966 0.901474 0
M  V30 4120 C 378.13 2.25456 -2.66403 0
M  V30 4121 C 379.478 2.87035 -3.12883 0
M  V30 4122 O 380.502 2.35766 -2.67007 0
M  V30 4123 O 379.361 3.80179 -3.92589 0
M  V30 4124 H 376.455 0.600318 -0.568812 0
M  V30 4125 H 379.001 0.595171 -1.58921 0
M  V30 4126 H 377.773 1.67851 -3.53471 0
M  V30 4127 H 377.396 3.06785 -2.52921 0
M  V30 4128 N 378.394 1.34581 0.820102 0
M  V30 4129 C 379.619 1.30333 1.61332 0
M  V30 4130 C 380.044 -0.119339 1.87721 0
M  V30 4131 O 379.402 -1.08197 1.45475 0
M  V30 4132 C 379.45 2.10258 2.92957 0
M  V30 4133 O 378.554 1.47404 3.85157 0
M  V30 4134 H 377.895 0.447488 0.490561 0
M  V30 4135 H 380.425 1.77425 1.01889 0
M  V30 4136 H 380.435 2.21718 3.42498 0
M  V30 4137 H 379.11 3.13693 2.73074 0
M  V30 4138 H 377.687 1.44703 3.43679 0
M  V30 4139 N 379.872 -1.04064 1.18357 0
M  V30 4140 C 381.1 -1.80916 1.00384 0
M  V30 4141 C 381.515 -1.83414 -0.447738 0
M  V30 4142 O 380.872 -1.26962 -1.31099 0
M  V30 4143 C 380.923 -3.26516 1.55144 0
M  V30 4144 O 380.644 -3.2424 2.94618 0
M  V30 4145 C 382.145 -4.20013 1.41789 0
M  V30 4146 H 379.365 -0.569728 0.354474 0
M  V30 4147 H 381.909 -1.31151 1.56906 0
M  V30 4148 H 380.064 -3.73512 1.02798 0
M  V30 4149 H 380.478 -4.15452 3.20156 0
M  V30 4150 H 381.952 -5.20111 1.84901 0
M  V30 4151 H 382.429 -4.37667 0.36661 0
M  V30 4152 H 383.035 -3.78881 1.93207 0
M  V30 4153 N 381.35 -0.985608 -1.22978 0
M  V30 4154 C 382.596 -0.65836 -1.91816 0
M  V30 4155 C 382.929 0.806692 -1.76653 0
M  V30 4156 O 382.204 1.58252 -1.13078 0
M  V30 4157 C 382.487 -1.056 -3.44268 0
M  V30 4158 C 382.34 -2.57906 -3.68516 0
M  V30 4159 C 383.659 -0.603781 -4.35939 0
M  V30 4160 H 380.778 -0.24065 -0.696604 0
M  V30 4161 H 383.42 -1.22783 -1.44998 0
M  V30 4162 H 381.57 -0.571445 -3.84274 0
M  V30 4163 H 383.242 -3.13976 -3.3796 0
M  V30 4164 H 381.485 -3.00305 -3.13048 0
M  V30 4165 H 382.156 -2.80779 -4.75255 0
M  V30 4166 H 384.632 -1.01987 -4.03408 0
M  V30 4167 H 383.508 -0.910383 -5.41298 0
M  V30 4168 H 383.769 0.495761 -4.39312 0
M  V30 4169 N 382.828 1.3818 -0.7579 0
M  V30 4170 C 384.239 1.82726 -0.383134 0
M  V30 4171 C 384.59 1.63214 1.08884 0
M  V30 4172 O 383.715 1.13566 1.84205 0
M  V30 4173 C 384.31 3.31728 -0.688631 0
M  V30 4174 C 382.869 3.74606 -0.367091 0
M  V30 4175 C 382.016 2.60896 -0.939599 0
M  V30 4176 H 384.967 1.26847 -0.953699 0
M  V30 4177 H 384.988 3.80487 0.0316492 0
M  V30 4178 H 384.5 3.45898 -1.76001 0
M  V30 4179 H 382.601 3.66013 0.697532 0
M  V30 4180 H 382.714 4.71215 -0.865658 0
M  V30 4181 H 381.078 2.52075 -0.3647 0
M  V30 4182 H 381.861 2.77864 -2.0161 0
M  V30 4183 N 384.306 0.507319 1.49211 0
M  V30 4184 C 385.583 -0.0982702 1.95353 0
M  V30 4185 C 385.963 -1.53516 1.449 0
M  V30 4186 O 385.311 -2.18594 0.66551 0
M  V30 4187 C 385.521 -0.00440283 3.49 0
M  V30 4188 C 386.869 -0.175147 4.24239 0
M  V30 4189 O 387.893 -0.0792891 3.56112 0
M  V30 4190 O 386.752 -0.37276 5.45227 0
M  V30 4191 H 383.846 -0.0918236 0.821887 0
M  V30 4192 H 386.392 0.570307 1.5983 0
M  V30 4193 H 385.164 0.997402 3.78375 0
M  V30 4194 H 384.787 -0.712845 3.91158 0
M  V30 4195 N 385.784 -1.5574 0.241426 0
M  V30 4196 C 386.716 -2.18469 -0.693091 0
M  V30 4197 C 387.729 -1.15942 -1.14286 0
M  V30 4198 O 388.918 -1.42832 -1.07058 0
M  V30 4199 C 386.018 -2.7696 -1.95311 0
M  V30 4200 C 385.191 -4.04853 -1.65568 0
M  V30 4201 C 384.25 -4.47715 -2.76474 0
M  V30 4202 O 383.276 -5.14205 -2.44094 0
M  V30 4203 N 384.478 -4.15044 -4.05855 0
M  V30 4204 H 387.243 -2.99292 -0.156388 0
M  V30 4205 H 384.804 -1.61784 0.0611752 0
M  V30 4206 H 386.796 -3.02594 -2.68736 0
M  V30 4207 H 385.366 -2.00326 -2.39975 0
M  V30 4208 H 384.586 -3.86865 -0.756886 0
M  V30 4209 H 385.874 -4.88246 -1.43153 0
M  V30 4210 H 385.272 -3.61654 -4.34998 0
M  V30 4211 H 383.829 -4.45526 -4.75762 0
M  V30 4212 N 387.262 0.0317525 -1.57568 0
M  V30 4213 C 388.509 0.723104 -1.89149 0
M  V30 4214 C 388.837 1.75504 -0.838377 0
M  V30 4215 O 388.092 1.95037 0.160982 0
M  V30 4216 C 388.391 1.43167 -3.27472 0
M  V30 4217 C 388.057 0.535972 -4.47703 0
M  V30 4218 C 386.719 0.289262 -4.8033 0
M  V30 4219 C 389.071 -0.0826125 -5.21135 0
M  V30 4220 C 386.399 -0.584853 -5.83778 0
M  V30 4221 C 388.751 -0.944414 -6.25511 0
M  V30 4222 C 387.415 -1.20061 -6.56614 0
M  V30 4223 H 386.685 0.264602 -0.692146 0
M  V30 4224 H 389.332 -0.0169496 -1.91492 0
M  V30 4225 H 387.637 2.24497 -3.21105 0
M  V30 4226 H 389.334 1.97209 -3.49155 0
M  V30 4227 H 385.924 0.738414 -4.22191 0
M  V30 4228 H 390.108 0.0950302 -4.96209 0
M  V30 4229 H 385.364 -0.79168 -6.06253 0
M  V30 4230 H 389.538 -1.43026 -6.81554 0
M  V30 4231 H 387.165 -1.87967 -7.36595 0
M  V30 4232 N 388.74 1.54641 0.303973 0
M  V30 4233 C 389.672 1.81754 1.39636 0
M  V30 4234 C 390.685 0.70035 1.46966 0
M  V30 4235 O 391.874 0.97778 1.49338 0
M  V30 4236 C 388.974 1.93785 2.7803 0
M  V30 4237 C 388.147 3.24156 2.93669 0
M  V30 4238 C 387.206 3.26641 4.12544 0
M  V30 4239 O 386.232 4.00187 4.04771 0
M  V30 4240 N 387.434 2.5182 5.23036 0
M  V30 4241 H 390.199 2.76031 1.16734 0
M  V30 4242 H 387.76 1.54178 0.494033 0
M  V30 4243 H 389.752 1.92852 3.55795 0
M  V30 4244 H 388.322 1.06515 2.93893 0
M  V30 4245 H 387.542 3.37887 2.03042 0
M  V30 4246 H 388.83 4.10195 3.01027 0
M  V30 4247 H 388.228 1.91692 5.32232 0
M  V30 4248 H 386.785 2.56644 5.99147 0
M  V30 4249 N 390.218 -0.567019 1.47046 0
M  V30 4250 C 391.458 -1.3355 1.54738 0
M  V30 4251 C 391.822 -1.90947 0.200772 0
M  V30 4252 O 393.023 -2.68367 0.152489 0
M  V30 4253 C 391.294 -2.42317 2.62712 0
M  V30 4254 S 392.853 -3.29383 2.89918 0
M  V30 4255 H 389.671 -0.454788 0.546525 0
M  V30 4256 H 392.273 -0.650191 1.84371 0
M  V30 4257 H 390.977 -1.98568 3.59164 0
M  V30 4258 H 390.508 -3.15601 2.34861 0
M  V30 4259 H 392.523 -4.41548 2.26384 0
M  V30 4260 N 391.696 -1.35014 -0.812953 0
M  V30 4261 C 392.643 -1.27412 -1.92444 0
M  V30 4262 C 393.613 -0.14733 -1.65445 0
M  V30 4263 O 394.798 -0.329974 -1.87925 0
M  V30 4264 C 391.938 -1.04558 -3.28879 0
M  V30 4265 C 391.051 -2.26101 -3.68106 0
M  V30 4266 C 390.186 -1.96449 -4.9354 0
M  V30 4267 C 389.225 -3.14081 -5.25376 0
M  V30 4268 N 388.362 -2.84246 -6.41988 0
M  V30 4269 H 393.202 -2.22463 -1.98278 0
M  V30 4270 H 390.739 -1.10593 -0.969933 0
M  V30 4271 H 392.697 -0.893413 -4.07522 0
M  V30 4272 H 391.327 -0.131719 -3.22531 0
M  V30 4273 H 390.379 -2.52204 -2.84775 0
M  V30 4274 H 391.691 -3.13959 -3.87597 0
M  V30 4275 H 390.845 -1.78026 -5.79993 0
M  V30 4276 H 389.584 -1.05867 -4.76071 0
M  V30 4277 H 388.589 -3.33089 -4.37415 0
M  V30 4278 H 389.814 -4.05455 -5.44778 0
M  V30 4279 H 387.76 -1.96252 -6.25956 0
M  V30 4280 H 387.677 -3.65637 -6.61699 0
M  V30 4281 H 388.945 -2.6935 -7.31485 0
M  V30 4282 N 393.175 1.03435 -1.18907 0
M  V30 4283 C 394.105 2.13503 -0.945448 0
M  V30 4284 C 395.086 1.69682 0.119189 0
M  V30 4285 O 396.271 1.94169 -0.034707 0
M  V30 4286 C 393.401 3.44004 -0.477316 0
M  V30 4287 C 392.355 4.0148 -1.48316 0
M  V30 4288 C 391.681 5.27537 -0.872311 0
M  V30 4289 C 392.981 4.36921 -2.86177 0
M  V30 4290 H 394.675 2.34141 -1.86597 0
M  V30 4291 H 392.221 1.12523 -0.898584 0
M  V30 4292 H 394.174 4.20372 -0.294204 0
M  V30 4293 H 392.898 3.23072 0.478786 0
M  V30 4294 H 391.557 3.27201 -1.65332 0
M  V30 4295 H 391.205 5.02917 0.0911752 0
M  V30 4296 H 390.905 5.66954 -1.54393 0
M  V30 4297 H 392.429 6.06576 -0.699871 0
M  V30 4298 H 393.843 5.04248 -2.72776 0
M  V30 4299 H 392.24 4.87405 -3.50081 0
M  V30 4300 H 393.31 3.46466 -3.39248 0
M  V30 4301 N 394.653 0.992116 1.22453 0
M  V30 4302 C 395.902 0.662992 1.90492 0
M  V30 4303 C 396.215 -0.808407 1.78113 0
M  V30 4304 O 397.421 -1.24908 2.41061 0
M  V30 4305 C 395.877 1.1353 3.41524 0
M  V30 4306 C 395.485 2.63187 3.62542 0
M  V30 4307 C 397.229 0.880465 4.15269 0
M  V30 4308 C 395.136 3.04024 5.0727 0
M  V30 4309 H 394.066 0.244278 0.713333 0
M  V30 4310 H 396.717 1.20157 1.38688 0
M  V30 4311 H 395.099 0.52485 3.92506 0
M  V30 4312 H 396.273 3.2957 3.22056 0
M  V30 4313 H 394.588 2.86543 3.02129 0
M  V30 4314 H 397.185 1.16128 5.21937 0
M  V30 4315 H 397.528 -0.183408 4.15896 0
M  V30 4316 H 398.061 1.45307 3.70312 0
M  V30 4317 H 394.8 4.09584 5.11782 0
M  V30 4318 H 394.32 2.42343 5.48662 0
M  V30 4319 H 395.999 2.95282 5.75689 0
M  V30 4320 N 396.131 -1.37776 0.765217 0
M  V30 4321 C 397.094 -2.28686 0.153416 0
M  V30 4322 C 398.094 -1.47727 -0.635081 0
M  V30 4323 O 399.284 -1.68027 -0.459632 0
M  V30 4324 C 396.416 -3.31608 -0.790495 0
M  V30 4325 H 397.609 -2.84297 0.954723 0
M  V30 4326 H 395.162 -1.46932 0.53299 0
M  V30 4327 H 395.897 -2.81109 -1.61705 0
M  V30 4328 H 395.682 -3.9144 -0.227348 0
M  V30 4329 H 397.172 -3.99559 -1.21419 0
M  V30 4330 N 397.609 -0.515225 -1.4894 0
M  V30 4331 C 398.855 0.0242508 -2.02785 0
M  V30 4332 C 399.188 1.35323 -1.39289 0
M  V30 4333 O 398.463 1.87041 -0.533469 0
M  V30 4334 C 398.746 0.16184 -3.59736 0
M  V30 4335 C 398.599 -1.19127 -4.33738 0
M  V30 4336 C 399.918 0.895719 -4.30888 0
M  V30 4337 H 397.037 0.00733914 -0.736963 0
M  V30 4338 H 399.679 -0.669395 -1.77818 0
M  V30 4339 H 397.829 0.752624 -3.8114 0
M  V30 4340 H 399.501 -1.82202 -4.23792 0
M  V30 4341 H 397.744 -1.77695 -3.95736 0
M  V30 4342 H 398.415 -1.04815 -5.41957 0
M  V30 4343 H 400.891 0.394528 -4.14225 0
M  V30 4344 H 399.767 0.960859 -5.40425 0
M  V30 4345 H 400.028 1.9427 -3.97129 0
M  V30 4346 N 399.087 1.5561 -0.249682 0
M  V30 4347 C 400.335 1.98618 0.373548 0
M  V30 4348 C 400.656 1.13919 1.58264 0
M  V30 4349 O 399.926 0.222637 1.94631 0
M  V30 4350 H 398.506 0.733571 0.141006 0
M  V30 4351 H 401.168 1.91748 -0.349117 0
M  V30 4352 H 400.264 3.04584 0.680796 0
M  V30 4353 N 400.565 -0.0233959 1.57583 0
M  V30 4354 C 401.814 -0.712133 1.8871 0
M  V30 4355 C 402.127 -1.76217 0.848944 0
M  V30 4356 O 403.333 -2.50389 1.04964 0
M  V30 4357 C 401.789 -1.3177 3.3491 0
M  V30 4358 C 401.397 -0.303715 4.46969 0
M  V30 4359 C 403.141 -1.98598 3.75179 0
M  V30 4360 C 401.048 -0.917945 5.84233 0
M  V30 4361 H 399.978 -0.269735 0.704101 0
M  V30 4362 H 402.629 0.0333114 1.8347 0
M  V30 4363 H 401.011 -2.11304 3.34913 0
M  V30 4364 H 402.185 0.465325 4.58445 0
M  V30 4365 H 400.5 0.2628 4.1557 0
M  V30 4366 H 403.097 -2.45416 4.75053 0
M  V30 4367 H 403.44 -2.80659 3.07468 0
M  V30 4368 H 403.973 -1.25831 3.77374 0
M  V30 4369 H 400.712 -0.136633 6.55358 0
M  V30 4370 H 400.232 -1.65669 5.76467 0
M  V30 4371 H 401.911 -1.4236 6.31144 0
M  V30 4372 N 402.043 -1.548 -0.295768 0
M  V30 4373 C 403.29 -1.74329 -1.03032 0
M  V30 4374 C 403.618 -0.531915 -1.87085 0
M  V30 4375 O 402.873 0.486052 -1.89568 0
M  V30 4376 C 403.172 -2.98797 -1.961 0
M  V30 4377 C 402.838 -4.32356 -1.2798 0
M  V30 4378 C 401.5 -4.68661 -1.09135 0
M  V30 4379 C 403.852 -5.15128 -0.793243 0
M  V30 4380 C 401.18 -5.85312 -0.403269 0
M  V30 4381 C 403.532 -6.32488 -0.118854 0
M  V30 4382 C 402.196 -6.6745 0.0815043 0
M  V30 4383 H 401.466 -0.637916 -0.37702 0
M  V30 4384 H 404.113 -1.8906 -0.304696 0
M  V30 4385 H 402.418 -2.78869 -2.75207 0
M  V30 4386 H 404.115 -3.11102 -2.53015 0
M  V30 4387 H 400.705 -4.03808 -1.43655 0
M  V30 4388 H 404.889 -4.87575 -0.92653 0
M  V30 4389 H 400.145 -6.1094 -0.237098 0
M  V30 4390 H 404.319 -6.95892 0.266035 0
M  V30 4391 H 401.946 -7.57695 0.616685 0
M  V30 4392 N 403.521 0.559213 -1.47345 0
M  V30 4393 C 404.453 1.68161 -1.55738 0
M  V30 4394 C 405.466 1.56636 -0.443744 0
M  V30 4395 O 406.655 1.6363 -0.713258 0
M  V30 4396 C 403.755 3.06611 -1.4437 0
M  V30 4397 C 402.928 3.4391 -2.70268 0
M  V30 4398 C 401.987 4.61515 -2.52765 0
M  V30 4399 O 401.013 4.66197 -3.26572 0
M  V30 4400 N 402.215 5.57883 -1.6046 0
M  V30 4401 H 404.98 1.61408 -2.52522 0
M  V30 4402 H 402.541 0.7458 -1.43699 0
M  V30 4403 H 404.533 3.83117 -1.30398 0
M  V30 4404 H 403.103 3.07602 -0.556766 0
M  V30 4405 H 402.323 2.56873 -2.99015 0
M  V30 4406 H 403.611 3.65605 -3.53851 0
M  V30 4407 H 403.009 5.56855 -0.996422 0
M  V30 4408 H 401.566 6.33723 -1.52441 0
M  V30 4409 N 404.999 1.35443 0.805782 0
M  V30 4410 C 405.929 1.31095 1.93226 0
M  V30 4411 C 406.91 0.185244 1.69088 0
M  V30 4412 O 408.095 0.380332 1.90439 0
M  V30 4413 C 405.225 1.08299 3.29983 0
M  V30 4414 C 404.179 2.17519 3.68605 0
M  V30 4415 C 403.505 1.79887 5.03532 0
M  V30 4416 C 404.805 3.5949 3.78898 0
M  V30 4417 H 406.499 2.25352 1.97122 0
M  V30 4418 H 404.045 1.0848 0.946996 0
M  V30 4419 H 405.998 1.03897 4.08391 0
M  V30 4420 H 404.722 0.104885 3.26432 0
M  V30 4421 H 403.381 2.2102 2.92482 0
M  V30 4422 H 403.029 0.80693 4.96485 0
M  V30 4423 H 402.729 2.53001 5.30344 0
M  V30 4424 H 404.253 1.77011 5.84379 0
M  V30 4425 H 405.667 3.58307 4.47536 0
M  V30 4426 H 404.064 4.31371 4.1718 0
M  V30 4427 H 405.134 3.95584 2.80431 0
M  V30 4428 N 406.477 -1.02803 1.19454 0
M  V30 4429 C 407.407 -2.12999 0.956758 0
M  V30 4430 C 408.388 -1.69743 -0.110188 0
M  V30 4431 O 409.573 -1.94148 0.0450038 0
M  V30 4432 C 406.703 -3.43746 0.495553 0
M  V30 4433 C 405.657 -4.00688 1.50443 0
M  V30 4434 C 404.983 -5.27067 0.900275 0
M  V30 4435 C 406.283 -4.35397 2.8849 0
M  V30 4436 H 407.977 -2.33148 1.87836 0
M  V30 4437 H 405.523 -1.12045 0.904539 0
M  V30 4438 H 407.476 -4.2021 0.316493 0
M  V30 4439 H 406.2 -3.23321 -0.461646 0
M  V30 4440 H 404.859 -3.2632 1.67065 0
M  V30 4441 H 404.507 -5.02959 -0.064503 0
M  V30 4442 H 404.207 -5.66127 1.57397 0
M  V30 4443 H 405.731 -6.06196 0.73203 0
M  V30 4444 H 407.145 -5.02795 2.75446 0
M  V30 4445 H 405.542 -4.85541 3.52661 0
M  V30 4446 H 406.612 -3.44662 3.41081 0
M  V30 4447 N 407.956 -0.998596 -1.21925 0
M  V30 4448 C 409.181 -0.696015 -1.95372 0
M  V30 4449 C 409.606 0.733826 -1.73195 0
M  V30 4450 O 408.964 1.50242 -1.01474 0
M  V30 4451 C 409.012 -1.01466 -3.4603 0
M  V30 4452 O 408.116 -0.116415 -4.12236 0
M  V30 4453 H 407.457 -0.259938 -0.611006 0
M  V30 4454 H 409.987 -1.33711 -1.54863 0
M  V30 4455 H 409.997 -0.958855 -3.96573 0
M  V30 4456 H 408.672 -2.05653 -3.61497 0
M  V30 4457 H 407.249 -0.228193 -3.72201 0
M  V30 4458 N 409.434 1.37368 -0.772513 0
M  V30 4459 C 410.68 1.99969 -0.337681 0
M  V30 4460 C 411.013 1.61184 1.08321 0
M  V30 4461 O 410.288 0.858395 1.74533 0
M  V30 4462 C 410.571 3.56858 -0.482121 0
M  V30 4463 C 410.424 4.0555 -1.94549 0
M  V30 4464 C 411.743 4.39955 0.113143 0
M  V30 4465 H 408.862 0.726464 -0.124171 0
M  V30 4466 H 411.504 1.63034 -0.975699 0
M  V30 4467 H 409.654 3.88452 0.0610361 0
M  V30 4468 H 411.326 3.84518 -2.54841 0
M  V30 4469 H 409.569 3.57715 -2.45403 0
M  V30 4470 H 410.24 5.14587 -1.9976 0
M  V30 4471 H 412.716 4.14623 -0.35031 0
M  V30 4472 H 411.592 5.48897 -0.0180514 0
M  V30 4473 H 411.853 4.25403 1.20354 0
M  V30 4474 N 410.912 0.523116 1.48665 0
M  V30 4475 C 412.161 -0.01544 2.01694 0
M  V30 4476 C 412.474 -1.35975 1.40606 0
M  V30 4477 O 413.68 -1.98627 1.85093 0
M  V30 4478 C 412.136 -0.0779303 3.59816 0
M  V30 4479 C 411.744 1.26107 4.29885 0
M  V30 4480 C 413.488 -0.565678 4.20714 0
M  V30 4481 C 411.395 1.15954 5.79921 0
M  V30 4482 H 410.325 -0.00954163 0.75394 0
M  V30 4483 H 412.976 0.665865 1.70993 0
M  V30 4484 H 411.358 -0.824165 3.87329 0
M  V30 4485 H 412.532 2.02233 4.14051 0
M  V30 4486 H 410.847 1.68401 3.80828 0
M  V30 4487 H 413.444 -0.6595 5.30617 0
M  V30 4488 H 413.787 -1.56984 3.85567 0
M  V30 4489 H 414.32 0.12467 3.97605 0
M  V30 4490 H 411.059 2.13864 6.19631 0
M  V30 4491 H 410.579 0.439529 5.98187 0
M  V30 4492 H 412.258 0.847361 6.41427 0
M  V30 4493 N 412.39 -1.55475 0.257931 0
M  V30 4494 C 413.338 -2.23244 -0.653076 0
M  V30 4495 C 414.332 -1.22366 -1.17144 0
M  V30 4496 O 415.538 -1.40347 -1.12706 0
M  V30 4497 H 411.913 -0.716247 -0.229117 0
M  V30 4498 H 413.884 -2.98343 -0.0584788 0
M  V30 4499 C 412.633 -2.95401 -1.83395 0
M  V30 4500 H 411.956 -3.72802 -1.44424 0
M  V30 4501 H 413.396 -3.46165 -2.44838 0
M  V30 4502 C 411.855 -1.99895 -2.71189 0
M  V30 4503 O 412.385 -1.53909 -3.71046 0
M  V30 4504 N 410.591 -1.6676 -2.3799 0
M  V30 4505 H 410.138 -2.04352 -1.56837 0
M  V30 4506 H 410.096 -1.03127 -2.97005 0
M  V30 4507 N 413.868 0.0150385 -1.57593 0
M  V30 4508 C 414.798 1.01047 -2.10503 0
M  V30 4509 C 415.779 1.36816 -1.01071 0
M  V30 4510 O 416.964 1.45455 -1.28672 0
M  V30 4511 C 414.094 2.30708 -2.59598 0
M  V30 4512 C 413.048 2.09142 -3.73421 0
M  V30 4513 C 412.374 3.44685 -4.08774 0
M  V30 4514 C 413.674 1.46619 -5.01298 0
M  V30 4515 H 415.368 0.569978 -2.93925 0
M  V30 4516 H 412.914 0.272724 -1.41394 0
M  V30 4517 H 414.867 3.00687 -2.95238 0
M  V30 4518 H 413.591 2.76843 -1.73279 0
M  V30 4519 H 412.25 1.41592 -3.38153 0
M  V30 4520 H 411.898 3.88495 -3.195 0
M  V30 4521 H 411.598 3.31077 -4.8545 0
M  V30 4522 H 413.122 4.16004 -4.4696 0
M  V30 4523 H 414.536 2.06535 -5.34805 0
M  V30 4524 H 412.933 1.43544 -5.82679 0
M  V30 4525 H 414.003 0.433611 -4.82957 0
M  V30 4526 N 415.346 1.54954 0.287554 0
M  V30 4527 C 416.592 1.75132 1.02257 0
M  V30 4528 C 416.925 0.542858 1.86458 0
M  V30 4529 O 416.2 -0.459856 1.88986 0
M  V30 4530 C 416.483 3.04812 1.91733 0
M  V30 4531 C 416.336 4.35985 1.10622 0
M  V30 4532 C 417.655 3.30438 2.90687 0
M  V30 4533 H 414.774 0.637194 0.370341 0
M  V30 4534 H 417.416 1.87678 0.296111 0
M  V30 4535 H 415.566 2.94247 2.53675 0
M  V30 4536 H 417.238 4.58487 0.508636 0
M  V30 4537 H 415.481 4.31865 0.409271 0
M  V30 4538 H 416.152 5.23017 1.76513 0
M  V30 4539 H 418.628 3.40701 2.38877 0
M  V30 4540 H 417.504 4.22467 3.50447 0
M  V30 4541 H 417.765 2.49377 3.65053 0
M  V30 4542 N 416.824 -0.551391 1.4764 0
M  V30 4543 C 418.07 -1.31024 1.54792 0
M  V30 4544 C 418.403 -1.9304 0.211967 0
M  V30 4545 O 417.678 -1.78175 -0.77999 0
M  V30 4546 C 417.961 -2.41593 2.67029 0
M  V30 4547 C 417.814 -1.84408 4.10261 0
M  V30 4548 C 419.133 -3.43488 2.75143 0
M  V30 4549 H 416.252 -0.475031 0.563485 0
M  V30 4550 H 418.894 -0.616454 1.79722 0
M  V30 4551 H 417.044 -3.00772 2.45904 0
M  V30 4552 H 418.716 -1.29445 4.42766 0
M  V30 4553 H 416.959 -1.15051 4.18265 0
M  V30 4554 H 417.63 -2.64367 4.84576 0
M  V30 4555 H 420.106 -2.94236 2.94218 0
M  V30 4556 H 418.982 -4.18274 3.55441 0
M  V30 4557 H 419.243 -4.02703 1.82435 0
M  V30 4558 N 418.302 -1.35869 -0.798587 0
M  V30 4559 C 419.532 -1.32529 -1.58491 0
M  V30 4560 C 419.94 0.0975405 -1.88948 0
M  V30 4561 O 419.283 1.06224 -1.49874 0
M  V30 4562 C 419.345 -2.07247 -2.9375 0
M  V30 4563 C 419.009 -3.56391 -2.86068 0
M  V30 4564 C 420.006 -4.50824 -2.58947 0
M  V30 4565 C 417.691 -3.9915 -3.04933 0
M  V30 4566 C 419.685 -5.85993 -2.5078 0
M  V30 4567 C 417.372 -5.34413 -2.96389 0
M  V30 4568 C 418.37 -6.27646 -2.69349 0
M  V30 4569 O 418.058 -7.60426 -2.60782 0
M  V30 4570 H 417.79 -0.456529 -0.498556 0
M  V30 4571 H 420.344 -1.79425 -0.999799 0
M  V30 4572 H 418.574 -1.55001 -3.54276 0
M  V30 4573 H 420.263 -1.96883 -3.54954 0
M  V30 4574 H 421.029 -4.19104 -2.44084 0
M  V30 4575 H 416.908 -3.26961 -3.24989 0
M  V30 4576 H 420.452 -6.58735 -2.29595 0
M  V30 4577 H 416.349 -5.65743 -3.10813 0
M  V30 4578 H 417.117 -7.70444 -2.76331 0
M  V30 4579 N 419.78 1.02168 -1.19998 0
M  V30 4580 C 421.026 1.75945 -1.00852 0
M  V30 4581 C 421.359 1.88702 0.458828 0
M  V30 4582 O 420.634 1.40911 1.34069 0
M  V30 4583 C 420.917 3.18154 -1.68671 0
M  V30 4584 C 420.77 3.13224 -3.22817 0
M  V30 4585 C 422.089 4.16711 -1.41561 0
M  V30 4586 H 419.208 0.638673 -0.367785 0
M  V30 4587 H 421.85 1.19222 -1.4794 0
M  V30 4588 H 420 3.66586 -1.28636 0
M  V30 4589 H 421.672 2.72635 -3.72112 0
M  V30 4590 H 419.915 2.50751 -3.53986 0
M  V30 4591 H 420.586 4.13728 -3.65422 0
M  V30 4592 H 423.062 3.76913 -1.76284 0
M  V30 4593 H 421.938 5.14391 -1.91553 0
M  V30 4594 H 422.199 4.40774 -0.342193 0
M  V30 4595 N 421.258 1.00505 1.21394 0
M  V30 4596 C 422.188 0.585684 2.26035 0
M  V30 4597 C 423.169 -0.393525 1.65485 0
M  V30 4598 O 424.354 -0.281497 1.92149 0
M  V30 4599 C 421.484 -0.0884283 3.47187 0
M  V30 4600 C 420.438 0.810567 4.20254 0
M  V30 4601 C 419.764 0.00286382 5.347 0
M  V30 4602 C 421.064 2.1132 4.77641 0
M  V30 4603 H 422.758 1.46039 2.61368 0
M  V30 4604 H 420.304 0.703648 1.25638 0
M  V30 4605 H 422.257 -0.393286 4.19561 0
M  V30 4606 H 420.981 -0.997766 3.10986 0
M  V30 4607 H 419.64 1.09925 3.49731 0
M  V30 4608 H 419.288 -0.907765 4.94741 0
M  V30 4609 H 418.988 0.601444 5.84514 0
M  V30 4610 H 420.512 -0.295808 6.09883 0
M  V30 4611 H 421.926 1.87148 5.41893 0
M  V30 4612 H 420.323 2.66164 5.37845 0
M  V30 4613 H 421.393 2.78393 3.9702 0
M  V30 4614 N 422.737 -1.36956 0.779787 0
M  V30 4615 C 423.667 -2.32761 0.185651 0
M  V30 4616 C 424.648 -1.56177 -0.673989 0
M  V30 4617 O 425.833 -1.84378 -0.609797 0
M  V30 4618 C 422.963 -3.40418 -0.687964 0
M  V30 4619 C 421.917 -4.27941 0.0710102 0
M  V30 4620 C 421.243 -5.26681 -0.922573 0
M  V30 4621 C 422.543 -5.07006 1.25467 0
M  V30 4622 H 424.237 -2.82698 0.986008 0
M  V30 4623 H 421.783 -1.3592 0.475592 0
M  V30 4624 H 423.736 -4.06423 -1.11348 0
M  V30 4625 H 422.46 -2.89025 -1.52093 0
M  V30 4626 H 421.119 -3.63478 0.47739 0
M  V30 4627 H 420.767 -4.71565 -1.7503 0
M  V30 4628 H 420.467 -5.86103 -0.419237 0
M  V30 4629 H 421.991 -5.9556 -1.34686 0
M  V30 4630 H 423.405 -5.66105 0.905401 0
M  V30 4631 H 421.802 -5.75793 1.69063 0
M  V30 4632 H 422.872 -4.3921 2.05481 0
M  V30 4633 N 424.215 -0.530993 -1.48385 0
M  V30 4634 C 425.178 0.220497 -2.28137 0
M  V30 4635 C 426.178 0.866851 -1.35434 0
M  V30 4636 O 427.368 0.726746 -1.58316 0
M  V30 4637 C 424.5 1.31921 -3.1434 0
M  V30 4638 H 425.693 -0.479714 -2.96038 0
M  V30 4639 H 423.246 -0.286968 -1.53643 0
M  V30 4640 H 423.981 2.05264 -2.51072 0
M  V30 4641 H 423.766 0.86085 -3.82533 0
M  V30 4642 H 425.256 1.84776 -3.74497 0
M  V30 4643 N 425.693 1.55336 -0.266172 0
M  V30 4644 C 427.104 1.85236 0.233315 0
M  V30 4645 C 427.455 1.18816 1.56132 0
M  V30 4646 O 426.58 0.473307 2.11161 0
M  V30 4647 C 427.175 3.36059 0.430113 0
M  V30 4648 C 425.734 3.66116 0.873842 0
M  V30 4649 C 424.881 2.77274 -0.0380016 0
M  V30 4650 H 427.832 1.51004 -0.488214 0
M  V30 4651 H 427.853 3.58681 1.26998 0
M  V30 4652 H 427.365 3.84373 -0.536588 0
M  V30 4653 H 425.466 3.23295 1.85233 0
M  V30 4654 H 425.579 4.73699 0.717358 0
M  V30 4655 H 423.943 2.50198 0.476759 0
M  V30 4656 H 424.726 3.284 -1.00042 0
M  V30 4657 N 427.171 -0.0066808 1.57599 0
M  V30 4658 C 428.417 -0.693947 1.90558 0
M  V30 4659 C 428.75 -1.73792 0.866594 0
M  V30 4660 O 428.025 -1.94156 -0.115548 0
M  V30 4661 C 428.308 -1.34317 3.34112 0
M  V30 4662 C 428.161 -0.311189 4.48722 0
M  V30 4663 C 429.48 -2.27116 3.7697 0
M  V30 4664 H 426.599 -0.250803 0.693013 0
M  V30 4665 H 429.241 0.043242 1.89951 0
M  V30 4666 H 427.391 -1.9715 3.3476 0
M  V30 4667 H 429.063 0.316944 4.6021 0
M  V30 4668 H 427.306 0.367253 4.32243 0
M  V30 4669 H 427.977 -0.804366 5.46108 0
M  V30 4670 H 430.453 -1.74306 3.77831 0
M  V30 4671 H 429.329 -2.69511 4.78179 0
M  V30 4672 H 429.59 -3.14743 3.10466 0
M  V30 4673 N 428.649 -1.55105 -0.279332 0
M  V30 4674 C 429.895 -1.75672 -1.01327 0
M  V30 4675 C 430.228 -0.552739 -1.86168 0
M  V30 4676 O 429.503 0.449827 -1.89227 0
M  V30 4677 C 429.786 -3.05825 -1.90114 0
M  V30 4678 C 429.639 -4.36565 -1.08309 0
M  V30 4679 C 430.958 -3.31975 -2.8893 0
M  V30 4680 H 428.077 -0.639149 -0.366957 0
M  V30 4681 H 430.719 -1.87833 -0.286154 0
M  V30 4682 H 428.869 -2.95588 -2.52111 0
M  V30 4683 H 430.541 -4.58751 -0.484314 0
M  V30 4684 H 428.784 -4.32076 -0.386362 0
M  V30 4685 H 429.455 -5.23946 -1.73737 0
M  V30 4686 H 431.931 -3.41963 -2.37067 0
M  V30 4687 H 430.807 -4.2432 -3.48201 0
M  V30 4688 H 431.068 -2.51309 -3.63725 0
M  V30 4689 N 430.127 0.543554 -1.4793 0
M  V30 4690 C 431.373 1.30201 -1.55485 0
M  V30 4691 C 431.706 1.92925 -0.222201 0
M  V30 4692 O 430.981 1.78586 0.77053 0
M  V30 4693 C 431.264 2.40174 -2.68307 0
M  V30 4694 C 431.117 1.8223 -4.11233 0
M  V30 4695 C 432.436 3.42024 -2.76961 0
M  V30 4696 H 429.555 0.472036 -0.565996 0
M  V30 4697 H 432.197 0.606914 -1.80046 0
M  V30 4698 H 430.347 2.99463 -2.47495 0
M  V30 4699 H 432.019 1.27096 -4.43446 0
M  V30 4700 H 430.262 1.12832 -4.18869 0
M  V30 4701 H 430.933 2.61793 -4.85972 0
M  V30 4702 H 433.409 2.92672 -2.95774 0
M  V30 4703 H 432.285 4.16383 -3.57654 0
M  V30 4704 H 432.546 4.0173 -1.84568 0
M  V30 4705 N 431.605 1.3629 0.791371 0
M  V30 4706 C 432.835 1.33368 1.57786 0
M  V30 4707 C 433.243 -0.0875188 1.88997 0
M  V30 4708 O 432.586 -1.05427 1.50435 0
M  V30 4709 C 432.648 2.08802 2.92646 0
M  V30 4710 C 432.312 3.57903 2.84174 0
M  V30 4711 C 433.309 4.52191 2.56553 0
M  V30 4712 C 430.994 4.00762 3.02812 0
M  V30 4713 C 432.988 5.87315 2.47669 0
M  V30 4714 C 430.675 5.35977 2.93551 0
M  V30 4715 C 431.673 6.29066 2.66017 0
M  V30 4716 O 431.361 7.61798 2.56746 0
M  V30 4717 H 431.093 0.459166 0.496128 0
M  V30 4718 H 433.647 1.79952 0.990269 0
M  V30 4719 H 431.877 1.56878 3.53449 0
M  V30 4720 H 433.566 1.98762 3.53904 0
M  V30 4721 H 434.332 4.20393 2.41858 0
M  V30 4722 H 430.211 3.2868 3.2325 0
M  V30 4723 H 433.755 6.59943 2.26099 0
M  V30 4724 H 429.652 5.67384 3.07808 0
M  V30 4725 H 430.42 7.71898 2.72242 0
M  V30 4726 N 433.083 -1.0153 1.20538 0
M  V30 4727 C 434.311 -1.78746 1.04199 0
M  V30 4728 C 434.726 -1.84323 -0.408733 0
M  V30 4729 O 434.083 -1.29714 -1.28377 0
M  V30 4730 C 434.134 -3.23152 1.62035 0
M  V30 4731 O 433.855 -3.17918 3.0143 0
M  V30 4732 C 435.356 -4.16911 1.50666 0
M  V30 4733 H 432.576 -0.56208 0.366479 0
M  V30 4734 H 435.12 -1.27794 1.59653 0
M  V30 4735 H 433.275 -3.71248 1.10697 0
M  V30 4736 H 433.689 -4.08567 3.28897 0
M  V30 4737 H 435.163 -5.16072 1.95892 0
M  V30 4738 H 435.64 -4.36791 0.459363 0
M  V30 4739 H 436.246 -3.74698 2.01201 0
M  V30 4740 N 434.561 -1.01147 -1.20859 0
M  V30 4741 C 435.491 -0.597663 -2.25722 0
M  V30 4742 C 436.472 0.384744 -1.65692 0
M  V30 4743 O 437.657 0.271303 -1.92296 0
M  V30 4744 C 434.787 0.0700149 -3.47229 0
M  V30 4745 C 433.741 -0.832843 -4.19819 0
M  V30 4746 C 433.067 -0.0312202 -5.34691 0
M  V30 4747 C 434.367 -2.1385 -4.76514 0
M  V30 4748 H 436.061 -1.47423 -2.60589 0
M  V30 4749 H 433.607 -0.710301 -1.25263 0
M  V30 4750 H 435.56 0.37103 -4.19763 0
M  V30 4751 H 434.284 0.981259 -3.11511 0
M  V30 4752 H 432.943 -1.11778 -3.49144 0
M  V30 4753 H 432.591 0.881515 -4.95215 0
M  V30 4754 H 432.291 -0.632434 -5.84187 0
M  V30 4755 H 433.815 0.26346 -6.10031 0
M  V30 4756 H 435.229 -1.9002 -5.40893 0
M  V30 4757 H 433.626 -2.69012 -5.36426 0
M  V30 4758 H 434.696 -2.80495 -3.95538 0
M  V30 4759 N 436.039 1.36541 -0.78704 0
M  V30 4760 C 437.286 1.99304 -0.358341 0
M  V30 4761 C 437.614 1.62467 1.06933 0
M  V30 4762 O 436.869 0.870019 1.75297 0
M  V30 4763 C 437.168 3.54343 -0.466485 0
M  V30 4764 C 436.834 4.10993 -1.85461 0
M  V30 4765 C 435.496 4.26177 -2.23443 0
M  V30 4766 C 437.848 4.41895 -2.76366 0
M  V30 4767 C 435.176 4.69573 -3.51736 0
M  V30 4768 C 437.528 4.86722 -4.04084 0
M  V30 4769 C 436.192 5.00112 -4.42091 0
M  V30 4770 H 435.462 0.729306 -0.131126 0
M  V30 4771 H 438.109 1.63068 -1.00404 0
M  V30 4772 H 436.414 3.90918 0.262719 0
M  V30 4773 H 438.111 4.00833 -0.115854 0
M  V30 4774 H 434.701 3.99612 -1.54946 0
M  V30 4775 H 438.885 4.29735 -2.48277 0
M  V30 4776 H 434.141 4.78127 -3.81057 0
M  V30 4777 H 438.315 5.09598 -4.7464 0
M  V30 4778 H 435.942 5.33498 -5.41557 0
M  V30 4779 N 437.518 0.538854 1.48102 0
M  V30 4780 C 438.764 0.00801365 2.02798 0
M  V30 4781 C 439.097 -1.3309 1.41424 0
M  V30 4782 O 438.372 -1.86169 0.563158 0
M  V30 4783 C 438.655 -0.104589 3.59948 0
M  V30 4784 C 438.508 1.26012 4.31788 0
M  V30 4785 C 439.827 -0.827055 4.32259 0
M  V30 4786 H 436.946 0.00438624 0.736987 0
M  V30 4787 H 439.588 0.6976 1.7673 0
M  V30 4788 H 437.738 -0.691893 3.82289 0
M  V30 4789 H 439.41 1.88922 4.2084 0
M  V30 4790 H 437.653 1.83968 3.92859 0
M  V30 4791 H 438.324 1.13424 5.40221 0
M  V30 4792 H 440.8 -0.328578 4.14801 0
M  V30 4793 H 439.676 -0.87476 5.41885 0
M  V30 4794 H 439.937 -1.87927 4.0017 0
M  V30 4795 N 438.996 -1.55193 0.274407 0
M  V30 4796 C 440.407 -1.85358 -0.223488 0
M  V30 4797 C 440.758 -1.19642 -1.555 0
M  V30 4798 O 439.883 -0.484498 -2.10907 0
M  V30 4799 C 440.478 -3.36282 -0.412285 0
M  V30 4800 C 439.037 -3.66574 -0.854413 0
M  V30 4801 C 438.184 -2.7725 0.0527056 0
M  V30 4802 H 441.135 -1.50743 0.496215 0
M  V30 4803 H 441.156 -3.59349 -1.25094 0
M  V30 4804 H 440.668 -3.84083 0.556965 0
M  V30 4805 H 438.769 -3.24273 -1.83516 0
M  V30 4806 H 438.882 -4.74073 -0.692226 0
M  V30 4807 H 437.246 -2.50447 -0.463484 0
M  V30 4808 H 438.029 -3.27865 1.01783 0
M  V30 4809 N 440.474 -0.00167713 -1.576 0
M  V30 4810 C 441.721 0.68282 -1.90641 0
M  V30 4811 C 442.049 1.73686 -0.875415 0
M  V30 4812 O 441.304 1.95334 0.119575 0
M  V30 4813 C 441.603 1.36189 -3.30435 0
M  V30 4814 C 441.269 0.440887 -4.48739 0
M  V30 4815 C 439.931 0.187312 -4.80835 0
M  V30 4816 C 442.283 -0.193134 -5.20842 0
M  V30 4817 C 439.611 -0.70855 -5.82406 0
M  V30 4818 C 441.963 -1.07688 -6.23367 0
M  V30 4819 C 440.627 -1.33962 -6.53919 0
M  V30 4820 H 439.897 0.249862 -0.697603 0
M  V30 4821 H 442.544 -0.0575642 -1.91413 0
M  V30 4822 H 440.849 2.17636 -3.25794 0
M  V30 4823 H 442.546 1.89759 -3.5326 0
M  V30 4824 H 439.136 0.648694 -4.23663 0
M  V30 4825 H 443.32 -0.0102445 -4.96299 0
M  V30 4826 H 438.576 -0.920097 -6.04437 0
M  V30 4827 H 442.75 -1.57451 -6.78367 0
M  V30 4828 H 440.377 -2.03549 -7.32442 0
M  V30 4829 N 441.952 1.55251 0.271103 0
M  V30 4830 C 443.368 1.47133 0.618393 0
M  V30 4831 C 443.568 0.686994 1.89427 0
M  V30 4832 O 442.624 0.206609 2.51653 0
M  V30 4833 C 443.937 2.91361 0.743593 0
M  V30 4834 C 445.485 3.01587 0.837522 0
M  V30 4835 C 445.96 4.47073 0.994483 0
M  V30 4836 N 447.451 4.50909 1.05996 0
M  V30 4837 C 448.186 5.60698 1.20024 0
M  V30 4838 N 447.682 6.80348 1.30759 0
M  V30 4839 N 449.475 5.48444 1.23149 0
M  V30 4840 H 441.626 2.04698 -0.566784 0
M  V30 4841 H 443.889 0.928319 -0.192165 0
M  V30 4842 H 443.595 3.51483 -0.123493 0
M  V30 4843 H 443.469 3.40484 1.62328 0
M  V30 4844 H 445.856 2.4156 1.69507 0
M  V30 4845 H 445.937 2.55713 -0.0668086 0
M  V30 4846 H 445.581 5.07703 0.141582 0
M  V30 4847 H 445.511 4.90605 1.91349 0
M  V30 4848 H 448.002 3.6472 0.989316 0
M  V30 4849 H 448.315 7.59772 1.41303 0
M  V30 4850 H 446.66 6.83156 1.27761 0
M  V30 4851 H 449.851 4.53907 1.14394 0
M  V30 4852 H 450.024 6.34049 1.33738 0
M  V30 4853 N 443.43 -0.535701 1.48216 0
M  V30 4854 C 444.362 -1.65662 1.58394 0
M  V30 4855 C 445.375 -1.5591 0.468607 0
M  V30 4856 O 446.564 -1.62475 0.7392 0
M  V30 4857 C 443.664 -3.04276 1.4923 0
M  V30 4858 C 442.837 -3.39567 2.75705 0
M  V30 4859 C 441.896 -4.57436 2.60075 0
M  V30 4860 O 440.922 -4.60942 3.33948 0
M  V30 4861 N 442.124 -5.55259 1.69315 0
M  V30 4862 H 444.889 -1.5737 2.55058 0
M  V30 4863 H 442.45 -0.722845 1.44867 0
M  V30 4864 H 444.442 -3.80994 1.36477 0
M  V30 4865 H 443.012 -3.06677 0.605632 0
M  V30 4866 H 442.232 -2.52083 3.03064 0
M  V30 4867 H 443.52 -3.59929 3.59623 0
M  V30 4868 H 442.918 -5.552 1.08489 0
M  V30 4869 H 441.475 -6.31218 1.62504 0
M  V30 4870 N 444.908 -1.36708 -0.784132 0
M  V30 4871 C 445.855 -1.31466 -1.89698 0
M  V30 4872 C 446.825 -0.18239 -1.65096 0
M  V30 4873 O 448.01 -0.369762 -1.87183 0
M  V30 4874 C 445.15 -1.1151 -3.26588 0
M  V30 4875 C 444.263 -2.33859 -3.63227 0
M  V30 4876 C 443.398 -2.06873 -4.89262 0
M  V30 4877 C 442.437 -3.25154 -5.18595 0
M  V30 4878 N 441.574 -2.978 -6.35814 0
M  V30 4879 H 446.414 -2.26619 -1.93515 0
M  V30 4880 H 443.951 -1.12625 -0.946256 0
M  V30 4881 H 445.909 -0.979653 -4.05535 0
M  V30 4882 H 444.539 -0.200103 -3.22179 0
M  V30 4883 H 443.591 -2.58188 -2.79362 0
M  V30 4884 H 444.903 -3.22109 -3.8085 0
M  V30 4885 H 444.057 -1.90289 -5.76086 0
M  V30 4886 H 442.796 -1.15942 -4.73718 0
M  V30 4887 H 441.801 -3.42292 -4.30251 0
M  V30 4888 H 443.026 -4.1692 -5.36055 0
M  V30 4889 H 440.972 -2.09485 -6.21653 0
M  V30 4890 H 440.889 -3.7959 -6.53794 0
M  V30 4891 H 442.157 -2.84805 -7.25607 0
M  V30 4892 N 446.386 1.0089 -1.21074 0
M  V30 4893 C 447.614 1.78191 -1.05145 0
M  V30 4894 C 448.029 1.84537 0.398952 0
M  V30 4895 O 447.386 1.30393 1.27687 0
M  V30 4896 C 447.437 3.22288 -1.63746 0
M  V30 4897 O 447.158 3.16315 -3.03111 0
M  V30 4898 C 448.659 4.16106 -1.52875 0
M  V30 4899 H 445.879 0.560129 -0.369454 0
M  V30 4900 H 448.423 1.26945 -1.60328 0
M  V30 4901 H 446.578 3.70655 -1.12664 0
M  V30 4902 H 446.992 4.06817 -3.31059 0
M  V30 4903 H 448.466 5.15026 -1.98626 0
M  V30 4904 H 448.943 4.36541 -0.482521 0
M  V30 4905 H 449.549 3.73625 -2.03185 0
M  V30 4906 N 447.864 1.01787 1.20321 0
M  V30 4907 C 449.141 0.622978 1.85414 0
M  V30 4908 C 449.521 -0.898887 1.91006 0
M  V30 4909 O 448.869 -1.79112 1.41884 0
M  V30 4910 C 449.079 1.27226 3.24984 0
M  V30 4911 C 450.427 1.3885 4.01255 0
M  V30 4912 O 451.451 1.22857 3.34342 0
M  V30 4913 O 450.31 1.64705 5.2109 0
M  V30 4914 H 447.404 0.215116 0.798533 0
M  V30 4915 H 449.95 1.11533 1.27901 0
M  V30 4916 H 448.722 2.31209 3.15687 0
M  V30 4917 H 448.345 0.767069 3.90131 0
M  V30 4918 N 449.342 -1.36122 0.79427 0
M  V30 4919 C 450.588 -1.99406 0.369452 0
M  V30 4920 C 450.921 -1.62886 -1.05743 0
M  V30 4921 O 450.196 -0.886053 -1.73145 0
M  V30 4922 C 450.479 -3.56046 0.538833 0
M  V30 4923 C 450.332 -4.02404 2.00976 0
M  V30 4924 C 451.651 -4.40079 -0.0431359 0
M  V30 4925 H 448.77 -0.724397 0.135712 0
M  V30 4926 H 451.412 -1.61461 1.00151 0
M  V30 4927 H 449.562 -3.885 0.000771004 0
M  V30 4928 H 451.234 -3.80415 2.60926 0
M  V30 4929 H 449.477 -3.53765 2.51063 0
M  V30 4930 H 450.148 -5.11344 2.07922 0
M  V30 4931 H 452.624 -4.14013 0.416228 0
M  V30 4932 H 451.5 -5.48799 0.105374 0
M  V30 4933 H 451.761 -4.27264 -1.13571 0
M  V30 4934 N 450.82 -0.546701 -1.47814 0
M  V30 4935 C 451.75 0.195317 -2.32682 0
M  V30 4936 C 452.731 0.918981 -1.43139 0
M  V30 4937 O 453.916 0.901501 -1.72008 0
M  V30 4938 C 451.046 1.23237 -3.247 0
M  V30 4939 C 450 0.625818 -4.234 0
M  V30 4940 C 449.326 1.76674 -5.04669 0
M  V30 4941 C 450.626 -0.413515 -5.2066 0
M  V30 4942 H 452.32 -0.513184 -2.94969 0
M  V30 4943 H 449.866 -0.248241 -1.41844 0
M  V30 4944 H 451.819 1.75955 -3.82907 0
M  V30 4945 H 450.543 1.97067 -2.60446 0
M  V30 4946 H 449.202 0.120023 -3.66403 0
M  V30 4947 H 448.85 2.49383 -4.36826 0
M  V30 4948 H 448.55 1.36673 -5.71484 0
M  V30 4949 H 450.074 2.29738 -5.65732 0
M  V30 4950 H 451.488 0.0272042 -5.73294 0
M  V30 4951 H 449.885 -0.731825 -5.95621 0
M  V30 4952 H 450.955 -1.31325 -4.66778 0
M  V30 4953 N 452.299 1.55045 -0.282633 0
M  V30 4954 C 453.246 2.22822 0.601566 0
M  V30 4955 C 454.216 1.20431 1.14392 0
M  V30 4956 O 455.401 1.48996 1.19184 0
M  V30 4957 C 452.541 2.95873 1.77632 0
M  V30 4958 C 451.654 4.12999 1.26711 0
M  V30 4959 C 450.789 4.73676 2.40426 0
M  V30 4960 C 449.828 5.82981 1.86545 0
M  V30 4961 N 448.965 6.3769 2.93762 0
M  V30 4962 H 453.805 2.97995 0.0169528 0
M  V30 4963 H 451.342 1.471 -0.00339964 0
M  V30 4964 H 453.3 3.36447 2.46697 0
M  V30 4965 H 451.93 2.2311 2.33285 0
M  V30 4966 H 450.982 3.77494 0.469314 0
M  V30 4967 H 452.294 4.91803 0.832518 0
M  V30 4968 H 451.448 5.17008 3.17471 0
M  V30 4969 H 450.187 3.94164 2.87203 0
M  V30 4970 H 449.192 5.39092 1.07983 0
M  V30 4971 H 450.417 6.64366 1.40694 0
M  V30 4972 H 448.363 5.61069 3.39908 0
M  V30 4973 H 448.28 7.11788 2.54744 0
M  V30 4974 H 449.548 6.8568 3.7076 0
M  V30 4975 N 453.777 0.010035 1.57597 0
M  V30 4976 C 455.023 -0.673697 1.91283 0
M  V30 4977 C 455.356 -1.72863 0.884979 0
M  V30 4978 O 454.631 -1.94268 -0.0949487 0
M  V30 4979 C 454.914 -1.30766 3.35518 0
M  V30 4980 C 454.767 -0.263578 4.49027 0
M  V30 4981 C 456.086 -2.23105 3.79358 0
M  V30 4982 H 453.205 -0.243439 0.695634 0
M  V30 4983 H 455.847 0.0633864 1.89894 0
M  V30 4984 H 453.997 -1.93588 3.36832 0
M  V30 4985 H 455.669 0.365738 4.59848 0
M  V30 4986 H 453.912 0.413077 4.31829 0
M  V30 4987 H 454.583 -0.746398 5.4693 0
M  V30 4988 H 457.059 -1.70289 3.79659 0
M  V30 4989 H 455.935 -2.64424 4.81011 0
M  V30 4990 H 456.196 -3.11433 3.13787 0
M  V30 4991 N 455.255 -1.55392 -0.262866 0
M  V30 4992 C 456.485 -1.80251 -1.00961 0
M  V30 4993 C 456.893 -0.58117 -1.80053 0
M  V30 4994 O 456.236 0.459427 -1.77862 0
M  V30 4995 C 456.298 -2.98207 -2.00781 0
M  V30 4996 C 455.962 -4.34856 -1.40533 0
M  V30 4997 C 456.959 -5.13459 -0.815853 0
M  V30 4998 C 454.644 -4.8153 -1.42948 0
M  V30 4999 C 456.638 -6.36875 -0.258562 0
M  V30 5000 C 454.325 -6.04899 -0.868334 0
M  V30 5001 C 455.323 -6.8241 -0.283884 0
M  V30 5002 O 455.011 -8.03451 0.268644 0
M  V30 5003 H 454.743 -0.604049 -0.303482 0
M  V30 5004 H 457.297 -2.03257 -0.295926 0
M  V30 5005 H 455.527 -2.70917 -2.75936 0
M  V30 5006 H 457.216 -3.10299 -2.61667 0
M  V30 5007 H 457.982 -4.78526 -0.789812 0
M  V30 5008 H 453.861 -4.21201 -1.87378 0
M  V30 5009 H 457.405 -6.97318 0.198257 0
M  V30 5010 H 453.302 -6.39312 -0.891649 0
M  V30 5011 H 454.07 -8.18346 0.158974 0
M  V30 5012 N 456.733 0.527833 -1.48498 0
M  V30 5013 C 457.643 1.65907 -1.65867 0
M  V30 5014 C 458.659 1.6537 -0.541192 0
M  V30 5015 O 459.835 1.84282 -0.812534 0
M  V30 5016 C 456.9 3.02364 -1.69637 0
M  V30 5017 C 455.961 3.1374 -2.93028 0
M  V30 5018 C 455.194 4.43688 -2.96609 0
M  V30 5019 O 455.417 5.30913 -2.08538 0
M  V30 5020 O 454.351 4.59475 -3.88802 0
M  V30 5021 H 458.177 1.5419 -2.61647 0
M  V30 5022 H 455.762 0.701163 -1.31924 0
M  V30 5023 H 457.644 3.83515 -1.74625 0
M  V30 5024 H 456.319 3.14401 -0.770312 0
M  V30 5025 H 455.226 2.31877 -2.93571 0
M  V30 5026 H 456.559 3.06621 -3.85026 0
M  V30 5027 N 458.211 1.37122 0.776871 0
M  V30 5028 C 459.46 1.31373 1.53049 0
M  V30 5029 C 459.773 -0.101016 1.95339 0
M  V30 5030 O 460.979 -0.280953 2.70042 0
M  V30 5031 C 459.435 2.30567 2.76346 0
M  V30 5032 C 459.043 3.77543 2.41175 0
M  V30 5033 C 460.787 2.33818 3.54301 0
M  V30 5034 C 458.694 4.68481 3.60943 0
M  V30 5035 H 457.624 0.488234 0.574581 0
M  V30 5036 H 460.275 1.62554 0.851372 0
M  V30 5037 H 458.657 1.92396 3.46121 0
M  V30 5038 H 459.831 4.24521 1.79216 0
M  V30 5039 H 458.146 3.77187 1.76405 0
M  V30 5040 H 460.743 2.98965 4.4331 0
M  V30 5041 H 461.086 1.3503 3.93793 0
M  V30 5042 H 461.619 2.7067 2.91518 0
M  V30 5043 H 458.358 5.68378 3.26537 0
M  V30 5044 H 457.878 4.2621 4.22025 0
M  V30 5045 H 459.557 4.85366 4.27819 0
M  V30 5046 N 459.689 -1.00246 1.21608 0
M  V30 5047 C 460.619 -2.10921 1.00172 0
M  V30 5048 C 461.6 -1.69938 -0.0741587 0
M  V30 5049 O 462.785 -1.94009 0.0861753 0
M  V30 5050 C 459.915 -3.42618 0.568355 0
M  V30 5051 C 458.869 -3.97407 1.58909 0
M  V30 5052 C 458.195 -5.25038 1.01187 0
M  V30 5053 C 459.495 -4.2918 2.97661 0
M  V30 5054 H 461.189 -2.29112 1.92739 0
M  V30 5055 H 458.735 -1.10101 0.928102 0
M  V30 5056 H 460.688 -4.19444 0.405555 0
M  V30 5057 H 459.412 -3.24227 -0.392961 0
M  V30 5058 H 458.071 -3.22703 1.73949 0
M  V30 5059 H 457.719 -5.02982 0.0421965 0
M  V30 5060 H 457.419 -5.62661 1.6937 0
M  V30 5061 H 458.943 -6.04507 0.860448 0
M  V30 5062 H 460.357 -4.96839 2.86049 0
M  V30 5063 H 458.754 -4.77952 3.6288 0
M  V30 5064 H 459.824 -3.3735 3.48315 0
M  V30 5065 N 461.167 -1.02423 -1.1978 0
M  V30 5066 C 462.578 -0.748389 -1.71044 0
M  V30 5067 C 462.929 0.732398 -1.82017 0
M  V30 5068 O 462.054 1.57116 -1.48807 0
M  V30 5069 C 462.649 -1.35187 -3.1066 0
M  V30 5070 C 461.208 -1.12472 -3.59203 0
M  V30 5071 C 460.355 -1.45283 -2.36195 0
M  V30 5072 H 463.306 -1.19275 -1.04686 0
M  V30 5073 H 463.327 -0.746408 -3.73107 0
M  V30 5074 H 462.839 -2.4296 -3.02642 0
M  V30 5075 H 460.94 -0.0649983 -3.72543 0
M  V30 5076 H 461.053 -1.81016 -4.43588 0
M  V30 5077 H 459.417 -0.872034 -2.39307 0
M  V30 5078 H 460.2 -2.54129 -2.30811 0
M  V30 5079 N 462.645 1.35699 -0.801477 0
M  V30 5080 C 463.873 2.03157 -0.391768 0
M  V30 5081 C 464.288 1.60412 0.995668 0
M  V30 5082 O 463.645 0.799228 1.64069 0
M  V30 5083 C 463.696 3.58566 -0.459671 0
M  V30 5084 O 463.417 3.99756 -1.7924 0
M  V30 5085 C 464.918 4.4328 -0.0421205 0
M  V30 5086 H 462.138 0.651688 -0.159825 0
M  V30 5087 H 464.682 1.73426 -1.08368 0
M  V30 5088 H 462.837 3.86963 0.183939 0
M  V30 5089 H 463.251 4.94387 -1.75162 0
M  V30 5090 H 464.725 5.51821 -0.140754 0
M  V30 5091 H 465.202 4.27383 1.01196 0
M  V30 5092 H 465.808 4.20168 -0.658687 0
M  V30 5093 N 464.123 0.554532 1.47522 0
M  V30 5094 C 465.37 0.029479 2.02479 0
M  V30 5095 C 465.698 -1.31929 1.42916 0
M  V30 5096 O 464.953 -1.87112 0.573385 0
M  V30 5097 C 465.252 -0.115927 3.57212 0
M  V30 5098 C 464.918 1.16161 4.3568 0
M  V30 5099 C 463.58 1.51168 4.56839 0
M  V30 5100 C 465.932 2.0083 4.80954 0
M  V30 5101 C 463.26 2.70696 5.2052 0
M  V30 5102 C 465.612 3.19559 5.45953 0
M  V30 5103 C 464.276 3.54882 5.65345 0
M  V30 5104 H 463.546 0.0107871 0.740921 0
M  V30 5105 H 466.193 0.725506 1.77225 0
M  V30 5106 H 464.498 -0.894902 3.81443 0
M  V30 5107 H 466.195 -0.53749 3.97381 0
M  V30 5108 H 462.785 0.879026 4.19489 0
M  V30 5109 H 466.969 1.75093 4.64388 0
M  V30 5110 H 462.225 2.98236 5.33728 0
M  V30 5111 H 466.399 3.85456 5.79997 0
M  V30 5112 H 464.026 4.47596 6.1446 0
M  V30 5113 N 465.601 -1.54893 0.290851 0
M  V30 5114 C 466.878 -1.91991 -0.373989 0
M  V30 5115 C 467.258 -1.21694 -1.72493 0
M  V30 5116 O 466.606 -0.34917 -2.25816 0
M  V30 5117 C 466.816 -3.45419 -0.498703 0
M  V30 5118 C 468.164 -4.1748 -0.774298 0
M  V30 5119 O 469.188 -3.51398 -0.582908 0
M  V30 5120 O 468.047 -5.3445 -1.14129 0
M  V30 5121 H 465.141 -0.800593 -0.207315 0
M  V30 5122 H 467.687 -1.66297 0.338164 0
M  V30 5123 H 466.459 -3.88688 0.451392 0
M  V30 5124 H 466.082 -3.77117 -1.25972 0
M  V30 5125 N 467.08 -0.0183926 -1.57589 0
M  V30 5126 C 468.326 0.663543 -1.91638 0
M  V30 5127 C 468.659 1.72392 -0.894134 0
M  V30 5128 O 467.934 1.94316 0.0846449 0
M  V30 5129 C 468.217 1.28984 -3.36207 0
M  V30 5130 C 468.07 0.239761 -4.49161 0
M  V30 5131 C 469.389 2.2109 -3.80536 0
M  V30 5132 H 466.508 0.239746 -0.696915 0
M  V30 5133 H 469.15 -0.073456 -1.89858 0
M  V30 5134 H 467.3 1.91799 -3.37854 0
M  V30 5135 H 468.972 -0.390119 -4.59647 0
M  V30 5136 H 467.215 -0.435972 -4.31604 0
M  V30 5137 H 467.886 0.717383 -5.47319 0
M  V30 5138 H 470.362 1.68273 -3.80557 0
M  V30 5139 H 469.238 2.61869 -4.82406 0
M  V30 5140 H 469.499 3.09764 -3.15434 0
M  V30 5141 N 468.558 1.5553 0.254621 0
M  V30 5142 C 469.488 1.9268 1.31897 0
M  V30 5143 C 470.469 0.790797 1.506 0
M  V30 5144 O 471.654 1.05045 1.63337 0
M  V30 5145 C 468.784 2.21477 2.67517 0
M  V30 5146 C 467.738 3.37256 2.63519 0
M  V30 5147 C 467.064 3.51576 4.02862 0
M  V30 5148 C 468.364 4.73157 2.21179 0
M  V30 5149 H 470.058 2.81832 1.01051 0
M  V30 5150 H 467.604 1.35599 0.484662 0
M  V30 5151 H 469.557 2.46055 3.42104 0
M  V30 5152 H 468.281 1.29144 2.99982 0
M  V30 5153 H 466.94 3.12675 1.9139 0
M  V30 5154 H 466.588 2.56676 4.32581 0
M  V30 5155 H 466.288 4.2943 4.01078 0
M  V30 5156 H 467.812 3.78467 4.79161 0
M  V30 5157 H 469.226 4.97158 2.85494 0
M  V30 5158 H 467.623 5.54058 2.30521 0
M  V30 5159 H 468.693 4.70739 1.16332 0
M  V30 5160 N 470.036 -0.519951 1.48776 0
M  V30 5161 C 470.986 -1.61995 1.60442 0
M  V30 5162 C 471.97 -1.54155 0.460991 0
M  V30 5163 O 473.162 -1.62006 0.712965 0
M  V30 5164 C 470.291 -3.00683 1.65664 0
M  V30 5165 C 469.377 -3.1359 2.8552 0
M  V30 5166 N 469.768 -2.96441 4.09825 0
M  V30 5167 C 468.066 -3.44662 2.83062 0
M  V30 5168 C 468.767 -3.1303 4.90293 0
M  V30 5169 N 467.743 -3.41058 4.23297 0
M  V30 5170 H 471.545 -1.47362 2.54287 0
M  V30 5171 H 469.059 -0.725649 1.45286 0
M  V30 5172 H 471.056 -3.79712 1.72117 0
M  V30 5173 H 469.716 -3.16401 0.729425 0
M  V30 5174 H 470.727 -2.72999 4.40104 0
M  V30 5175 H 467.404 -3.66675 1.9964 0
M  V30 5176 H 468.794 -3.04424 5.98979 0
M  V30 5177 N 471.514 -1.37532 -0.769588 0
M  V30 5178 C 472.761 -1.3286 -1.52822 0
M  V30 5179 C 473.089 0.0862597 -1.94309 0
M  V30 5180 O 472.344 1.05995 -1.6451 0
M  V30 5181 C 472.643 -2.21558 -2.8044 0
M  V30 5182 C 472.309 -3.69796 -2.57996 0
M  V30 5183 C 470.971 -4.10194 -2.51583 0
M  V30 5184 C 473.323 -4.63699 -2.37976 0
M  V30 5185 C 470.651 -5.42608 -2.23144 0
M  V30 5186 C 473.003 -5.96353 -2.1106 0
M  V30 5187 C 471.667 -6.35853 -2.03093 0
M  V30 5188 H 470.937 -0.486168 -0.559215 0
M  V30 5189 H 473.584 -1.69757 -0.886277 0
M  V30 5190 H 471.889 -1.77663 -3.49204 0
M  V30 5191 H 473.586 -2.15256 -3.38328 0
M  V30 5192 H 470.176 -3.37759 -2.63851 0
M  V30 5193 H 474.36 -4.33346 -2.41919 0
M  V30 5194 H 469.616 -5.72173 -2.15472 0
M  V30 5195 H 473.79 -6.68667 -1.94568 0
M  V30 5196 H 471.417 -7.38382 -1.8082 0
M  V30 5197 N 472.992 0.995999 -1.22138 0
M  V30 5198 C 473.939 2.08551 -0.988687 0
M  V30 5199 C 474.909 1.65864 0.0885021 0
M  V30 5200 O 476.094 1.90704 -0.0604589 0
M  V30 5201 C 473.234 3.40374 -0.569191 0
M  V30 5202 C 472.347 3.96421 -1.71681 0
M  V30 5203 C 471.482 5.1639 -1.2456 0
M  V30 5204 C 470.521 5.64567 -2.36497 0
M  V30 5205 N 469.658 6.75777 -1.90445 0
M  V30 5206 H 474.498 2.2779 -1.92135 0
M  V30 5207 H 472.035 1.1168 -0.957388 0
M  V30 5208 H 473.993 4.16068 -0.307166 0
M  V30 5209 H 472.623 3.21145 0.326462 0
M  V30 5210 H 471.675 3.17628 -2.09324 0
M  V30 5211 H 472.987 4.2816 -2.55891 0
M  V30 5212 H 472.141 5.99362 -0.940774 0
M  V30 5213 H 470.88 4.86266 -0.373662 0
M  V30 5214 H 469.885 4.80185 -2.67772 0
M  V30 5215 H 471.11 5.96716 -3.24202 0
M  V30 5216 H 469.056 6.47443 -1.05609 0
M  V30 5217 H 468.973 7.06818 -2.68223 0
M  V30 5218 H 470.241 7.62262 -1.63022 0
M  V30 5219 N 474.47 1.03057 1.19235 0
M  V30 5220 C 475.695 0.74757 1.93458 0
M  V30 5221 C 476.12 -0.687648 1.7508 0
M  V30 5222 O 475.478 -1.47499 1.05422 0
M  V30 5223 C 475.526 1.10604 3.43219 0
M  V30 5224 O 474.63 0.225671 4.11782 0
M  V30 5225 H 473.971 0.276047 0.603899 0
M  V30 5226 H 476.501 1.3777 1.51263 0
M  V30 5227 H 476.511 1.06366 3.93891 0
M  V30 5228 H 475.186 2.15165 3.55917 0
M  V30 5229 H 473.763 0.326795 3.71465 0
M  V30 5230 N 475.948 -1.35272 0.808662 0
M  V30 5231 C 476.858 -2.33546 0.222079 0
M  V30 5232 C 477.874 -1.6196 -0.636011 0
M  V30 5233 O 479.05 -1.93822 -0.547274 0
M  V30 5234 C 476.115 -3.41148 -0.61795 0
M  V30 5235 C 475.176 -4.28507 0.260875 0
M  V30 5236 C 474.409 -5.3097 -0.539156 0
M  V30 5237 O 474.632 -5.42123 -1.77367 0
M  V30 5238 O 473.566 -6.01858 0.0710526 0
M  V30 5239 H 477.392 -2.85515 1.03512 0
M  V30 5240 H 474.977 -1.38079 0.570495 0
M  V30 5241 H 476.859 -4.06889 -1.09634 0
M  V30 5242 H 475.534 -2.91447 -1.40855 0
M  V30 5243 H 474.441 -3.6574 0.786451 0
M  V30 5244 H 475.774 -4.81611 1.01547 0
M  V30 5245 N 477.426 -0.562348 -1.47226 0
M  V30 5246 C 478.674 -0.0401371 -2.0206 0
M  V30 5247 C 478.995 1.3165 -1.43852 0
M  V30 5248 O 478.265 1.85976 -0.615599 0
M  V30 5249 H 476.845 -0.0118479 -0.746906 0
M  V30 5250 H 479.507 -0.73352 -1.8057 0
M  V30 5251 H 478.603 0.0441254 -3.12069 0
M  V30 5252 N 478.904 1.54736 -0.299062 0
M  V30 5253 C 480.134 2.04215 0.312992 0
M  V30 5254 C 480.542 1.17596 1.48215 0
M  V30 5255 O 479.885 0.193835 1.82674 0
M  V30 5256 C 479.947 3.49696 0.833862 0
M  V30 5257 C 479.611 4.56518 -0.20977 0
M  V30 5258 C 480.608 5.09442 -1.03756 0
M  V30 5259 C 478.293 5.01073 -0.35091 0
M  V30 5260 C 480.287 6.05459 -1.99244 0
M  V30 5261 C 477.974 5.9691 -1.30924 0
M  V30 5262 C 478.972 6.48987 -2.1285 0
M  V30 5263 O 478.66 7.42947 -3.07059 0
M  V30 5264 H 478.392 0.672128 0.0722494 0
M  V30 5265 H 480.946 2.00718 -0.436043 0
M  V30 5266 H 479.176 3.5051 1.63339 0
M  V30 5267 H 480.865 3.82381 1.36159 0
M  V30 5268 H 481.631 4.75816 -0.939376 0
M  V30 5269 H 477.51 4.60168 0.276813 0
M  V30 5270 H 481.054 6.46031 -2.63229 0
M  V30 5271 H 476.951 6.29953 -1.40815 0
M  V30 5272 H 477.719 7.60743 -3.02015 0
M  V30 5273 N 480.382 0.0267497 1.57577 0
M  V30 5274 C 481.33 -0.973923 2.11229 0
M  V30 5275 C 482.324 -1.33849 1.03831 0
M  V30 5276 O 483.53 -1.321 1.22269 0
M  V30 5277 H 479.905 -0.331844 0.674821 0
M  V30 5278 H 481.876 -0.496092 2.94247 0
M  V30 5279 C 480.625 -2.24798 2.65257 0
M  V30 5280 H 479.948 -1.9762 3.47543 0
M  V30 5281 H 481.388 -2.93031 3.06445 0
M  V30 5282 C 479.847 -2.97611 1.57891 0
M  V30 5283 O 480.377 -3.89629 0.97735 0
M  V30 5284 N 478.583 -2.59905 1.29992 0
M  V30 5285 H 478.13 -1.85154 1.79097 0
M  V30 5286 H 478.088 -3.08932 0.583798 0
M  V30 5287 N 481.861 -1.55662 -0.24637 0
M  V30 5288 C 483.138 -1.68272 -0.997198 0
M  V30 5289 C 483.518 -0.566785 -2.03349 0
M  V30 5290 O 482.866 0.429688 -2.24424 0
M  V30 5291 C 483.076 -3.08594 -1.63006 0
M  V30 5292 C 484.424 -3.6721 -2.13171 0
M  V30 5293 O 485.448 -3.11397 -1.72946 0
M  V30 5294 O 484.307 -4.65054 -2.87031 0
M  V30 5295 H 481.401 -0.684429 -0.464205 0
M  V30 5296 H 483.947 -1.67993 -0.240114 0
M  V30 5297 H 482.719 -3.81264 -0.880527 0
M  V30 5298 H 482.342 -3.12886 -2.45333 0
M  V30 5299 N 483.339 0.512053 -1.4905 0
M  V30 5300 C 484.269 1.62365 -1.67809 0
M  V30 5301 C 485.25 1.61737 -0.526809 0
M  V30 5302 O 486.435 1.78651 -0.761404 0
M  V30 5303 C 483.565 3.00895 -1.73435 0
M  V30 5304 C 482.519 3.16387 -2.88242 0
M  V30 5305 C 481.845 4.56157 -2.78971 0
M  V30 5306 C 483.145 2.97457 -4.29321 0
M  V30 5307 H 484.839 1.46921 -2.60873 0
M  V30 5308 H 482.385 0.705379 -1.2554 0
M  V30 5309 H 484.338 3.78549 -1.85145 0
M  V30 5310 H 483.062 3.17403 -0.769619 0
M  V30 5311 H 481.721 2.41155 -2.76116 0
M  V30 5312 H 481.369 4.69525 -1.8043 0
M  V30 5313 H 481.069 4.67465 -3.5602 0
M  V30 5314 H 482.593 5.35886 -2.92675 0
M  V30 5315 H 484.007 3.64888 -4.42187 0
M  V30 5316 H 482.404 3.20245 -5.07507 0
M  V30 5317 H 483.474 1.93692 -4.44535 0
M  V30 5318 N 484.817 1.37938 0.762283 0
M  V30 5319 C 486.042 1.37059 1.55659 0
M  V30 5320 C 486.467 -0.0396123 1.88058 0
M  V30 5321 O 485.825 -1.01929 1.49934 0
M  V30 5322 C 485.873 2.22494 2.83776 0
M  V30 5323 O 484.977 1.63607 3.78559 0
M  V30 5324 H 484.318 0.467892 0.47114 0
M  V30 5325 H 486.848 1.81587 0.942725 0
M  V30 5326 H 486.858 2.36045 3.32786 0
M  V30 5327 H 485.533 3.24993 2.59524 0
M  V30 5328 H 484.11 1.5915 3.37233 0
M  V30 5329 N 486.295 -0.989507 1.22664 0
M  V30 5330 C 487.225 -2.09847 1.02404 0
M  V30 5331 C 488.206 -1.70007 -0.0561303 0
M  V30 5332 O 489.391 -1.93906 0.106748 0
M  V30 5333 C 486.521 -3.41996 0.604663 0
M  V30 5334 C 485.475 -3.95699 1.63115 0
M  V30 5335 C 484.801 -5.23936 1.0675 0
M  V30 5336 C 486.101 -4.25999 3.02196 0
M  V30 5337 H 487.795 -2.27054 1.95158 0
M  V30 5338 H 485.341 -1.09111 0.939727 0
M  V30 5339 H 487.294 -4.1899 0.45002 0
M  V30 5340 H 486.018 -3.24626 -0.35855 0
M  V30 5341 H 484.677 -3.2084 1.77362 0
M  V30 5342 H 484.325 -5.02909 0.0955422 0
M  V30 5343 H 484.025 -5.60833 1.75328 0
M  V30 5344 H 485.549 -6.0356 0.924516 0
M  V30 5345 H 486.963 -4.93777 2.91303 0
M  V30 5346 H 485.36 -4.74076 3.67929 0
M  V30 5347 H 486.43 -3.33636 3.51873 0
M  V30 5348 N 487.773 -1.03688 -1.18687 0
M  V30 5349 C 489.003 -0.756819 -1.92239 0
M  V30 5350 C 489.411 0.689374 -1.76194 0
M  V30 5351 O 488.754 1.48126 -1.08648 0
M  V30 5352 C 488.816 -1.03851 -3.44173 0
M  V30 5353 C 488.48 -2.47785 -3.83994 0
M  V30 5354 C 489.477 -3.4595 -3.88091 0
M  V30 5355 C 487.162 -2.82397 -4.154 0
M  V30 5356 C 489.156 -4.76779 -4.23038 0
M  V30 5357 C 486.843 -4.13433 -4.50018 0
M  V30 5358 C 487.841 -5.10434 -4.53813 0
M  V30 5359 O 487.529 -6.39122 -4.87625 0
M  V30 5360 H 487.261 -0.275678 -0.617234 0
M  V30 5361 H 489.815 -1.38658 -1.51536 0
M  V30 5362 H 488.045 -0.351612 -3.85098 0
M  V30 5363 H 489.734 -0.746846 -3.9897 0
M  V30 5364 H 490.5 -3.20549 -3.63969 0
M  V30 5365 H 486.379 -2.07568 -4.11627 0
M  V30 5366 H 489.923 -5.52488 -4.25914 0
M  V30 5367 H 485.82 -4.38604 -4.736 0
M  V30 5368 H 486.588 -6.43715 -5.05542 0
M  V30 5369 N 489.251 1.34841 -0.815825 0
M  V30 5370 C 490.199 2.31549 -0.220888 0
M  V30 5371 C 491.193 1.5707 0.634457 0
M  V30 5372 O 492.399 1.72125 0.526589 0
M  V30 5373 H 488.774 0.750153 -0.0526782 0
M  V30 5374 H 490.745 2.7926 -1.05149 0
M  V30 5375 C 489.494 3.42335 0.608427 0
M  V30 5376 H 488.817 3.9978 -0.0404121 0
M  V30 5377 H 490.257 4.12258 0.990931 0
M  V30 5378 C 488.716 2.86173 1.77782 0
M  V30 5379 O 489.246 2.80474 2.87571 0
M  V30 5380 N 487.452 2.43093 1.59229 0
M  V30 5381 H 486.999 2.47928 0.699237 0
M  V30 5382 H 486.957 2.05866 2.37627 0
M  V30 5383 N 490.729 0.570148 1.46925 0
M  V30 5384 C 491.659 -0.158274 2.32963 0
M  V30 5385 C 492.64 -0.896093 1.44583 0
M  V30 5386 O 493.825 -0.874022 1.7342 0
M  V30 5387 C 490.955 -1.18055 3.26619 0
M  V30 5388 C 489.909 -0.558379 4.24342 0
M  V30 5389 C 489.235 -1.68623 5.07415 0
M  V30 5390 C 490.535 0.496295 5.19937 0
M  V30 5391 H 492.229 0.560046 2.94115 0
M  V30 5392 H 489.775 0.270775 1.41431 0
M  V30 5393 H 491.728 -1.69841 3.85658 0
M  V30 5394 H 490.452 -1.92899 2.63548 0
M  V30 5395 H 489.111 -0.0617157 3.66548 0
M  V30 5396 H 488.759 -2.42402 4.40738 0
M  V30 5397 H 488.459 -1.27564 5.73586 0
M  V30 5398 H 489.983 -2.20709 5.69315 0
M  V30 5399 H 491.397 0.0640052 5.73264 0
M  V30 5400 H 489.794 0.82649 5.94381 0
M  V30 5401 H 490.864 1.38735 4.6463 0
M  V30 5402 N 492.207 -1.54576 0.307264 0
M  V30 5403 C 493.454 -2.00263 -0.300167 0
M  V30 5404 C 493.782 -1.19561 -1.53413 0
M  V30 5405 O 493.037 -0.261487 -1.93945 0
M  V30 5406 C 493.336 -3.50572 -0.695253 0
M  V30 5407 C 493.002 -4.48771 0.437679 0
M  V30 5408 C 491.664 -4.7534 0.748681 0
M  V30 5409 C 494.016 -5.0721 1.19949 0
M  V30 5410 C 491.344 -5.5761 1.8245 0
M  V30 5411 C 493.696 -5.90651 2.26527 0
M  V30 5412 C 492.36 -6.15528 2.58227 0
M  V30 5413 H 491.63 -0.732814 -0.109839 0
M  V30 5414 H 494.277 -1.86664 0.427661 0
M  V30 5415 H 492.582 -3.61814 -1.50326 0
M  V30 5416 H 494.279 -3.83352 -1.17653 0
M  V30 5417 H 490.869 -4.282 0.185187 0
M  V30 5418 H 495.053 -4.86679 0.972474 0
M  V30 5419 H 490.309 -5.75121 2.07476 0
M  V30 5420 H 494.483 -6.34957 2.86011 0
M  V30 5421 H 492.11 -6.79066 3.4172 0
M  V30 5422 N 493.685 -0.035106 -1.57561 0
M  V30 5423 C 494.615 0.942993 -2.13612 0
M  V30 5424 C 495.596 1.33531 -1.05373 0
M  V30 5425 O 496.781 1.41287 -1.33235 0
M  V30 5426 C 493.911 2.22332 -2.66807 0
M  V30 5427 C 492.865 1.97156 -3.79886 0
M  V30 5428 C 492.191 3.31506 -4.19533 0
M  V30 5429 C 493.491 1.30596 -5.05709 0
M  V30 5430 H 495.185 0.476179 -2.95589 0
M  V30 5431 H 492.731 0.227602 -1.4219 0
M  V30 5432 H 494.684 2.91142 -3.04654 0
M  V30 5433 H 493.408 2.7119 -1.81999 0
M  V30 5434 H 492.067 1.30763 -3.42486 0
M  V30 5435 H 491.715 3.78134 -3.31698 0
M  V30 5436 H 491.415 3.15465 -4.95738 0
M  V30 5437 H 492.939 4.01574 -4.59968 0
M  V30 5438 H 494.353 1.89416 -5.41105 0
M  V30 5439 H 492.75 1.24934 -5.86951 0
M  V30 5440 H 493.82 0.279742 -4.84092 0
M  V30 5441 N 495.163 1.55791 0.238111 0
M  V30 5442 C 496.073 1.94196 1.31625 0
M  V30 5443 C 497.089 0.843545 1.52185 0
M  V30 5444 O 498.265 1.1457 1.65637 0
M  V30 5445 C 495.33 2.2365 2.64918 0
M  V30 5446 C 494.391 3.46971 2.52804 0
M  V30 5447 C 493.624 3.7501 3.79741 0
M  V30 5448 O 493.847 3.04982 4.82019 0
M  V30 5449 O 492.781 4.68525 3.77846 0
M  V30 5450 H 496.607 2.86044 1.02043 0
M  V30 5451 H 494.192 1.42786 0.439603 0
M  V30 5452 H 496.074 2.43863 3.4367 0
M  V30 5453 H 494.749 1.34979 2.94215 0
M  V30 5454 H 493.656 3.32055 1.72309 0
M  V30 5455 H 494.989 4.35971 2.28451 0
M  V30 5456 N 496.642 -0.504142 1.49319 0
M  V30 5457 C 497.552 -1.63248 1.68486 0
M  V30 5458 C 498.568 -1.64488 0.567432 0
M  V30 5459 O 499.744 -1.82966 0.841749 0
M  V30 5460 C 496.809 -2.99627 1.74426 0
M  V30 5461 C 495.87 -3.09039 2.97982 0
M  V30 5462 C 495.103 -4.38913 3.0363 0
M  V30 5463 O 495.326 -5.27528 2.16958 0
M  V30 5464 O 494.26 -4.53231 3.96062 0
M  V30 5465 H 498.086 -1.50008 2.64067 0
M  V30 5466 H 495.671 -0.680086 1.33023 0
M  V30 5467 H 497.553 -3.80689 1.80705 0
M  V30 5468 H 496.228 -3.13136 0.820233 0
M  V30 5469 H 495.135 -2.27177 2.97223 0
M  V30 5470 H 496.468 -3.00456 3.89855 0
M  V30 5471 N 498.12 -1.38341 -0.754957 0
M  V30 5472 C 499.068 -1.35573 -1.89005 0
M  V30 5473 C 500.062 -0.241824 -1.67665 0
M  V30 5474 O 501.268 -0.410785 -1.7525 0
M  V30 5475 H 497.643 -0.422898 -0.621821 0
M  V30 5476 H 499.614 -2.31359 -1.88455 0
M  V30 5477 C 498.363 -1.19631 -3.26471 0
M  V30 5478 H 497.686 -2.04605 -3.43477 0
M  V30 5479 H 499.126 -1.21748 -4.06144 0
M  V30 5480 C 497.585 0.0968705 -3.36761 0
M  V30 5481 O 498.115 1.07439 -3.87066 0
M  V30 5482 N 496.321 0.153242 -2.90196 0
M  V30 5483 H 495.868 -0.642908 -2.49448 0
M  V30 5484 H 495.826 1.01807 -2.9746 0
M  V30 5485 N 499.598 0.982988 -1.23187 0
M  V30 5486 C 500.847 1.71817 -1.05649 0
M  V30 5487 C 501.16 1.91315 0.407176 0
M  V30 5488 O 502.366 2.62256 0.702436 0
M  V30 5489 C 500.822 3.09188 -1.84203 0
M  V30 5490 C 500.43 2.97586 -3.34882 0
M  V30 5491 C 502.174 3.86684 -1.75146 0
M  V30 5492 C 500.081 4.30173 -4.05839 0
M  V30 5493 H 499.011 0.644258 -0.391724 0
M  V30 5494 H 501.662 1.09659 -1.4713 0
M  V30 5495 H 500.044 3.72087 -1.35527 0
M  V30 5496 H 501.218 2.43793 -3.91026 0
M  V30 5497 H 499.533 2.33567 -3.44725 0
M  V30 5498 H 502.13 4.84836 -2.25473 0
M  V30 5499 H 502.473 4.10136 -0.713737 0
M  V30 5500 H 503.006 3.30482 -2.21419 0
M  V30 5501 H 499.745 4.11918 -5.09906 0
M  V30 5502 H 499.265 4.83841 -3.54482 0
M  V30 5503 H 500.944 4.98873 -4.11989 0
M  V30 5504 N 501.076 1.04316 1.18135 0
M  V30 5505 C 502.301 0.768047 1.92655 0
M  V30 5506 C 502.726 -0.66904 1.758 0
M  V30 5507 O 502.084 -1.46372 1.06981 0
M  V30 5508 C 502.132 1.14239 3.42026 0
M  V30 5509 O 501.236 0.269333 4.1152 0
M  V30 5510 H 500.577 0.282436 0.600937 0
M  V30 5511 H 503.107 1.39367 1.49793 0
M  V30 5512 H 503.117 1.10538 3.92741 0
M  V30 5513 H 501.792 2.18928 3.53615 0
M  V30 5514 H 500.369 0.366175 3.71098 0
M  V30 5515 N 502.554 -1.34406 0.822964 0
M  V30 5516 C 503.464 -2.33298 0.246838 0
M  V30 5517 C 504.48 -1.62625 -0.618797 0
M  V30 5518 O 505.656 -1.94391 -0.526685 0
M  V30 5519 C 502.721 -3.41785 -0.581731 0
M  V30 5520 C 501.782 -4.28206 0.306309 0
M  V30 5521 C 501.015 -5.31512 -0.48281 0
M  V30 5522 O 501.238 -5.43973 -1.71607 0
M  V30 5523 O 500.172 -6.01749 0.134884 0
M  V30 5524 H 503.998 -2.84401 1.06534 0
M  V30 5525 H 501.583 -1.37466 0.585108 0
M  V30 5526 H 503.465 -4.08028 -1.05313 0
M  V30 5527 H 502.14 -2.92925 -1.37756 0
M  V30 5528 H 501.047 -3.64885 0.825199 0
M  V30 5529 H 502.38 -4.80507 1.06649 0
M  V30 5530 N 504.032 -0.577932 -1.46621 0
M  V30 5531 C 505.278 -0.0617793 -2.02706 0
M  V30 5532 C 505.611 1.29294 -1.44903 0
M  V30 5533 O 504.886 1.8461 -0.61232 0
M  V30 5534 C 505.169 0.00911824 -3.60099 0
M  V30 5535 C 505.022 -1.37416 -4.28295 0
M  V30 5536 C 506.341 0.712159 -4.343 0
M  V30 5537 H 503.46 -0.0239246 -0.736612 0
M  V30 5538 H 506.102 -0.744211 -1.74818 0
M  V30 5539 H 504.252 0.590292 -3.83989 0
M  V30 5540 H 505.924 -2.00013 -4.15683 0
M  V30 5541 H 504.167 -1.94319 -3.87843 0
M  V30 5542 H 504.838 -1.27707 -5.37024 0
M  V30 5543 H 507.314 0.218486 -4.15526 0
M  V30 5544 H 506.19 0.730782 -5.44014 0
M  V30 5545 H 506.451 1.77251 -4.05012 0
M  V30 5546 N 505.51 1.54411 -0.315457 0
M  V30 5547 C 506.457 2.24048 0.554166 0
M  V30 5548 C 507.427 1.2283 1.11812 0
M  V30 5549 O 508.612 1.51491 1.15997 0
M  V30 5550 C 505.752 2.99574 1.71316 0
M  V30 5551 C 504.865 4.15594 1.17922 0
M  V30 5552 C 504 4.78669 2.30324 0
M  V30 5553 C 503.039 5.86807 1.74137 0
M  V30 5554 N 502.176 6.43777 2.8017 0
M  V30 5555 H 507.016 2.97964 -0.0462602 0
M  V30 5556 H 504.553 1.47059 -0.0346009 0
M  V30 5557 H 506.511 3.41604 2.39505 0
M  V30 5558 H 505.141 2.28008 2.285 0
M  V30 5559 H 504.193 3.78404 0.389136 0
M  V30 5560 H 505.505 4.93459 0.728012 0
M  V30 5561 H 504.659 5.23626 3.06433 0
M  V30 5562 H 503.398 4.00168 2.78778 0
M  V30 5563 H 502.403 5.41261 0.965236 0
M  V30 5564 H 503.628 6.67201 1.2657 0
M  V30 5565 H 501.574 5.68153 3.2793 0
M  V30 5566 H 501.491 7.17031 2.39588 0
M  V30 5567 H 502.759 6.9339 3.56132 0
M  V30 5568 N 506.988 0.0434614 1.5754 0
M  V30 5569 C 508.213 -0.645358 1.97104 0
M  V30 5570 C 508.638 -1.64037 0.920521 0
M  V30 5571 O 507.996 -1.80922 -0.11708 0
M  V30 5572 C 508.044 -1.31547 3.35749 0
M  V30 5573 O 507.148 -2.43103 3.33129 0
M  V30 5574 H 506.489 -0.168403 0.64229 0
M  V30 5575 H 509.019 0.109573 2.04306 0
M  V30 5576 H 509.029 -1.66895 3.72304 0
M  V30 5577 H 507.704 -0.586205 4.11748 0
M  V30 5578 H 506.281 -2.0976 3.0831 0
M  V30 5579 N 508.466 -1.55915 -0.229846 0
M  V30 5580 C 509.696 -1.82352 -0.971152 0
M  V30 5581 C 510.104 -0.619231 -1.7878 0
M  V30 5582 O 509.447 0.421597 -1.78797 0
M  V30 5583 C 509.509 -3.02399 -1.9441 0
M  V30 5584 C 509.173 -4.37739 -1.31277 0
M  V30 5585 C 510.17 -5.15074 -0.706757 0
M  V30 5586 C 507.855 -4.84454 -1.32702 0
M  V30 5587 C 509.849 -6.37281 -0.123413 0
M  V30 5588 C 507.536 -6.06605 -0.739831 0
M  V30 5589 C 508.534 -6.82858 -0.139071 0
M  V30 5590 O 508.222 -8.027 0.439007 0
M  V30 5591 H 507.954 -0.61035 -0.290601 0
M  V30 5592 H 510.508 -2.03839 -0.252746 0
M  V30 5593 H 508.738 -2.76709 -2.70128 0
M  V30 5594 H 510.427 -3.15779 -2.55026 0
M  V30 5595 H 511.193 -4.80093 -0.688131 0
M  V30 5596 H 507.072 -4.25081 -1.78402 0
M  V30 5597 H 510.616 -6.96741 0.346124 0
M  V30 5598 H 506.513 -6.4106 -0.755841 0
M  V30 5599 H 507.281 -8.17824 0.332521 0
M  V30 5600 N 509.944 0.496216 -1.49584 0
M  V30 5601 C 510.891 1.59722 -1.66606 0
M  V30 5602 C 511.861 1.58158 -0.507477 0
M  V30 5603 O 513.046 1.76072 -0.735076 0
M  V30 5604 C 510.186 2.97844 -1.74308 0
M  V30 5605 C 509.299 3.09388 -3.01502 0
M  V30 5606 C 508.434 4.38271 -3.00153 0
M  V30 5607 C 507.473 4.43466 -4.21906 0
M  V30 5608 N 506.61 5.63784 -4.1844 0
M  V30 5609 H 511.45 1.44515 -2.60613 0
M  V30 5610 H 508.987 0.703048 -1.29212 0
M  V30 5611 H 510.945 3.77907 -1.76754 0
M  V30 5612 H 509.575 3.11743 -0.837619 0
M  V30 5613 H 508.627 2.22357 -3.08645 0
M  V30 5614 H 509.939 3.09085 -3.91494 0
M  V30 5615 H 509.093 5.2666 -3.01188 0
M  V30 5616 H 507.832 4.41146 -2.07947 0
M  V30 5617 H 506.837 3.53478 -4.21109 0
M  V30 5618 H 508.062 4.42303 -5.1531 0
M  V30 5619 H 506.008 5.67491 -3.29074 0
M  V30 5620 H 505.925 5.65118 -5.02173 0
M  V30 5621 H 507.193 6.54367 -4.23585 0
M  V30 5622 N 511.423 1.38739 0.74761 0
M  V30 5623 C 512.663 1.36695 1.51966 0
M  V30 5624 C 513.027 -0.0411889 1.91956 0
M  V30 5625 O 514.228 -0.186543 2.68152 0
M  V30 5626 C 512.499 2.30119 2.73459 0
M  V30 5627 S 514.058 2.4615 3.63257 0
M  V30 5628 H 510.876 0.484929 0.519966 0
M  V30 5629 H 513.478 1.7472 0.877104 0
M  V30 5630 H 512.182 3.31312 2.422 0
M  V30 5631 H 511.713 1.93265 3.42655 0
M  V30 5632 H 513.728 1.69001 4.66533 0
M  V30 5633 N 512.901 -0.976442 1.23707 0
M  V30 5634 C 513.831 -2.08749 1.04624 0
M  V30 5635 C 514.812 -1.70057 -0.0380956 0
M  V30 5636 O 515.997 -1.93782 0.127308 0
M  V30 5637 C 513.127 -3.41335 0.640902 0
M  V30 5638 C 512.081 -3.93947 1.67302 0
M  V30 5639 C 511.407 -5.22774 1.12301 0
M  V30 5640 C 512.707 -4.22769 3.06697 0
M  V30 5641 H 514.401 -2.24972 1.97555 0
M  V30 5642 H 511.947 -1.08108 0.951247 0
M  V30 5643 H 513.9 -4.18489 0.494434 0
M  V30 5644 H 512.624 -3.24988 -0.324099 0
M  V30 5645 H 511.283 -3.18941 1.80755 0
M  V30 5646 H 510.931 -5.0278 0.148877 0
M  V30 5647 H 510.631 -5.58942 1.81267 0
M  V30 5648 H 512.155 -6.02546 0.988479 0
M  V30 5649 H 513.569 -4.90659 2.96524 0
M  V30 5650 H 511.966 -4.70147 3.72937 0
M  V30 5651 H 513.036 -3.29885 3.55392 0
M  V30 5652 N 514.379 -1.04941 -1.1758 0
M  V30 5653 C 515.326 -0.648155 -2.21512 0
M  V30 5654 C 516.296 0.348431 -1.62404 0
M  V30 5655 O 517.481 0.240419 -1.89279 0
M  V30 5656 C 514.621 -0.0264291 -3.4509 0
M  V30 5657 C 513.734 -1.07154 -4.185 0
M  V30 5658 C 512.869 -0.417403 -5.29558 0
M  V30 5659 C 511.908 -1.447 -5.94751 0
M  V30 5660 N 511.045 -0.817203 -6.97328 0
M  V30 5661 H 515.885 -1.53891 -2.55189 0
M  V30 5662 H 513.422 -0.769699 -1.25356 0
M  V30 5663 H 515.38 0.351456 -4.15717 0
M  V30 5664 H 514.01 0.827802 -3.12005 0
M  V30 5665 H 513.062 -1.56728 -3.46613 0
M  V30 5666 H 514.374 -1.8532 -4.63096 0
M  V30 5667 H 513.528 0.0142061 -6.06698 0
M  V30 5668 H 512.267 0.396265 -4.86087 0
M  V30 5669 H 511.272 -1.88865 -5.16343 0
M  V30 5670 H 512.497 -2.26252 -6.40302 0
M  V30 5671 H 510.443 -0.0239995 -6.55996 0
M  V30 5672 H 510.36 -1.53644 -7.40223 0
M  V30 5673 H 511.628 -0.410283 -7.7842 0
M  V30 5674 N 515.857 1.33968 -0.830081 0
M  V30 5675 C 517.103 1.98357 -0.422191 0
M  V30 5676 C 517.436 1.65633 1.01387 0
M  V30 5677 O 516.711 0.931648 1.70735 0
M  V30 5678 C 516.994 3.54492 -0.633043 0
M  V30 5679 C 516.847 3.96934 -2.11574 0
M  V30 5680 C 518.166 4.40039 -0.0735584 0
M  V30 5681 H 515.285 0.720544 -0.154871 0
M  V30 5682 H 517.927 1.58749 -1.04397 0
M  V30 5683 H 516.077 3.88361 -0.103775 0
M  V30 5684 H 517.749 3.73363 -2.7092 0
M  V30 5685 H 515.992 3.46984 -2.60354 0
M  V30 5686 H 516.663 5.05651 -2.21406 0
M  V30 5687 H 519.139 4.12764 -0.52585 0
M  V30 5688 H 518.015 5.48327 -0.250841 0
M  V30 5689 H 518.276 4.30124 1.02202 0
M  V30 5690 N 517.335 0.585699 1.46312 0
M  V30 5691 C 518.265 -0.133556 2.33118 0
M  V30 5692 C 519.246 -0.880707 1.45525 0
M  V30 5693 O 520.431 -0.855579 1.74337 0
M  V30 5694 C 517.561 -1.14585 3.27853 0
M  V30 5695 C 516.515 -0.513341 4.2491 0
M  V30 5696 C 515.841 -1.63231 5.09175 0
M  V30 5697 C 517.141 0.551413 5.19381 0
M  V30 5698 H 518.835 0.59121 2.93505 0
M  V30 5699 H 516.381 0.285761 1.41136 0
M  V30 5700 H 518.334 -1.65741 3.87438 0
M  V30 5701 H 517.058 -1.90093 2.65579 0
M  V30 5702 H 515.717 -0.0228349 3.66593 0
M  V30 5703 H 515.365 -2.37713 4.43285 0
M  V30 5704 H 515.065 -1.21473 5.74907 0
M  V30 5705 H 516.589 -2.14658 5.71624 0
M  V30 5706 H 518.003 0.124804 5.73164 0
M  V30 5707 H 516.4 0.889486 5.93471 0
M  V30 5708 H 517.47 1.43655 4.63132 0
M  V30 5709 N 518.813 -1.54241 0.323641 0
M  V30 5710 C 519.723 -2.28033 -0.551205 0
M  V30 5711 C 520.739 -1.32388 -1.12913 0
M  V30 5712 O 521.915 -1.65403 -1.14908 0
M  V30 5713 C 518.98 -3.02382 -1.69606 0
M  V30 5714 C 518.041 -4.13612 -1.14993 0
M  V30 5715 C 517.274 -4.84407 -2.24022 0
M  V30 5716 O 517.497 -4.54716 -3.44368 0
M  V30 5717 O 516.431 -5.71312 -1.89436 0
M  V30 5718 H 520.257 -3.03662 0.048066 0
M  V30 5719 H 517.842 -1.49133 0.0893289 0
M  V30 5720 H 519.724 -3.48941 -2.36259 0
M  V30 5721 H 518.399 -2.29628 -2.28151 0
M  V30 5722 H 517.306 -3.71402 -0.448484 0
M  V30 5723 H 518.639 -4.8841 -0.609608 0
M  V30 5724 N 520.291 -0.0518155 -1.57515 0
M  V30 5725 C 521.239 0.940195 -2.12751 0
M  V30 5726 C 522.233 1.3218 -1.05948 0
M  V30 5727 O 523.439 1.30138 -1.24355 0
M  V30 5728 H 519.814 0.321066 -0.680015 0
M  V30 5729 H 521.785 0.449217 -2.94999 0
M  V30 5730 C 520.534 2.2055 -2.68799 0
M  V30 5731 H 519.857 1.92066 -3.50643 0
M  V30 5732 H 521.297 2.88119 -3.11068 0
M  V30 5733 C 519.756 2.95061 -1.62605 0
M  V30 5734 O 520.286 3.88025 -1.03921 0
M  V30 5735 N 518.492 2.57804 -1.34111 0
M  V30 5736 H 518.039 1.82281 -1.8202 0
M  V30 5737 H 517.997 3.07964 -0.632872 0
M  V30 5738 N 521.769 1.56035 0.221574 0
M  V30 5739 C 523.018 1.78245 0.944016 0
M  V30 5740 C 523.331 0.620371 1.85501 0
M  V30 5741 O 524.537 0.726103 2.6161 0
M  V30 5742 C 522.993 3.15659 1.7288 0
M  V30 5743 C 522.601 4.39591 0.863942 0
M  V30 5744 C 524.345 3.47195 2.44246 0
M  V30 5745 C 522.252 5.6803 1.64607 0
M  V30 5746 H 521.182 0.664547 0.356222 0
M  V30 5747 H 523.833 1.8243 0.197904 0
M  V30 5748 H 522.215 3.0565 2.51781 0
M  V30 5749 H 523.389 4.60655 0.115464 0
M  V30 5750 H 521.704 4.15572 0.262407 0
M  V30 5751 H 524.301 4.40381 3.03263 0
M  V30 5752 H 524.644 2.69693 3.1713 0
M  V30 5753 H 525.177 3.58533 1.72334 0
M  V30 5754 H 521.916 6.48425 0.960507 0
M  V30 5755 H 521.436 5.51027 2.36917 0
M  V30 5756 H 523.115 6.08203 2.20675 0
M  V30 5757 N 523.247 -0.488276 1.49845 0
M  V30 5758 C 524.194 -1.58836 1.67451 0
M  V30 5759 C 525.164 -1.57886 0.515857 0
M  V30 5760 O 526.349 -1.75679 0.744403 0
M  V30 5761 C 523.489 -2.96915 1.75885 0
M  V30 5762 C 522.602 -3.07784 3.03138 0
M  V30 5763 C 521.737 -4.36673 3.02473 0
M  V30 5764 C 520.776 -4.41222 4.24252 0
M  V30 5765 N 519.913 -5.61557 4.21424 0
M  V30 5766 H 524.753 -1.43131 2.61376 0
M  V30 5767 H 522.29 -0.696186 1.29583 0
M  V30 5768 H 524.248 -3.76965 1.78755 0
M  V30 5769 H 522.878 -3.11295 0.85414 0
M  V30 5770 H 521.93 -2.20717 3.09819 0
M  V30 5771 H 523.242 -3.07005 3.93128 0
M  V30 5772 H 522.396 -5.25055 3.03977 0
M  V30 5773 H 521.135 -4.40037 2.10283 0
M  V30 5774 H 520.14 -3.5124 4.22978 0
M  V30 5775 H 521.365 -4.39564 5.17649 0
M  V30 5776 H 519.311 -5.65738 3.32078 0
M  V30 5777 H 519.228 -5.62447 5.05163 0
M  V30 5778 H 520.496 -6.52111 4.2705 0
M  V30 5779 N 524.725 -1.39134 -0.740242 0
M  V30 5780 C 525.95 -1.39518 -1.53459 0
M  V30 5781 C 526.375 0.00968883 -1.88098 0
M  V30 5782 O 525.733 0.995312 -1.51536 0
M  V30 5783 C 525.781 -2.26981 -2.802 0
M  V30 5784 O 524.885 -1.69609 -3.75908 0
M  V30 5785 H 524.226 -0.475328 -0.463637 0
M  V30 5786 H 526.756 -1.83064 -0.913717 0
M  V30 5787 H 526.766 -2.41309 -3.28989 0
M  V30 5788 H 525.441 -3.29081 -2.5432 0
M  V30 5789 H 524.018 -1.64495 -3.34658 0
M  V30 5790 N 526.204 0.969867 -1.24223 0
M  V30 5791 C 527.429 1.75289 -1.10853 0
M  V30 5792 C 527.854 1.85091 0.335079 0
M  V30 5793 O 527.212 1.32024 1.24255 0
M  V30 5794 C 527.26 3.15255 -1.75062 0
M  V30 5795 O 526.364 3.99589 -1.01992 0
M  V30 5796 H 525.705 0.538904 -0.387915 0
M  V30 5797 H 528.235 1.21675 -1.64488 0
M  V30 5798 H 528.245 3.65787 -1.80731 0
M  V30 5799 H 526.92 3.07436 -2.801 0
M  V30 5800 H 525.497 3.58077 -1.04094 0
M  V30 5801 N 527.682 1.05563 1.17022 0
M  V30 5802 C 528.93 0.76642 1.87004 0
M  V30 5803 C 529.251 -0.708854 1.8166 0
M  V30 5804 O 528.521 -1.51242 1.2451 0
M  V30 5805 H 527.101 0.280516 0.692329 0
M  V30 5806 H 529.763 1.33557 1.41945 0
M  V30 5807 H 528.859 1.08472 2.92644 0
M  V30 5808 N 529.16 -1.33526 0.837174 0
M  V30 5809 C 530.092 -2.28077 0.226579 0
M  V30 5810 C 531.105 -1.51666 -0.591717 0
M  V30 5811 O 532.294 -1.73511 -0.419064 0
M  V30 5812 C 529.394 -3.31597 -0.69978 0
M  V30 5813 C 528.567 -4.37329 0.0788067 0
M  V30 5814 C 527.626 -5.20526 -0.770637 0
M  V30 5815 O 526.652 -5.68811 -0.210453 0
M  V30 5816 N 527.854 -5.41639 -2.08825 0
M  V30 5817 H 530.619 -2.81115 1.03897 0
M  V30 5818 H 528.18 -1.46201 0.695476 0
M  V30 5819 H 530.172 -3.84158 -1.27298 0
M  V30 5820 H 528.742 -2.78848 -1.41288 0
M  V30 5821 H 527.962 -3.8529 0.833381 0
M  V30 5822 H 529.25 -5.05079 0.614238 0
M  V30 5823 H 528.648 -5.04108 -2.56693 0
M  V30 5824 H 527.205 -5.97263 -2.60998 0
M  V30 5825 N 530.638 -0.59345 -1.46 0
M  V30 5826 C 531.886 -0.082988 -2.0193 0
M  V30 5827 C 532.207 1.28569 -1.46612 0
M  V30 5828 O 531.477 1.84629 -0.654909 0
M  V30 5829 H 530.057 -0.0276882 -0.746487 0
M  V30 5830 H 532.719 -0.771657 -1.78973 0
M  V30 5831 H 531.815 -0.022079 -3.12092 0
M  V30 5832 N 532.116 1.54067 -0.331816 0
M  V30 5833 C 533.365 1.99895 0.269209 0
M  V30 5834 C 533.678 1.22371 1.52593 0
M  V30 5835 O 534.884 1.58618 2.20347 0
M  V30 5836 C 533.34 3.55972 0.530244 0
M  V30 5837 C 532.948 4.4234 -0.709901 0
M  V30 5838 C 534.692 4.10247 1.09077 0
M  V30 5839 C 532.599 5.89905 -0.420312 0
M  V30 5840 H 531.529 0.746741 0.104371 0
M  V30 5841 H 534.18 1.78014 -0.445324 0
M  V30 5842 H 532.562 3.73873 1.30518 0
M  V30 5843 H 533.736 4.36215 -1.48504 0
M  V30 5844 H 532.051 3.98997 -1.19123 0
M  V30 5845 H 534.648 5.18095 1.32219 0
M  V30 5846 H 534.991 3.62739 2.0427 0
M  V30 5847 H 535.524 3.96011 0.376824 0
M  V30 5848 H 532.263 6.41623 -1.34164 0
M  V30 5849 H 531.783 5.98962 0.316962 0
M  V30 5850 H 533.462 6.46991 -0.0331956 0
M  V30 5851 N 533.594 0.0601682 1.57485 0
M  V30 5852 C 534.871 -0.651956 1.84415 0
M  V30 5853 C 535.251 -1.88498 0.950361 0
M  V30 5854 O 534.599 -2.28496 0.0136719 0
M  V30 5855 C 534.809 -1.00069 3.34346 0
M  V30 5856 C 536.157 -1.37915 4.01578 0
M  V30 5857 O 537.181 -1.09277 3.39024 0
M  V30 5858 O 536.04 -1.91399 5.11887 0
M  V30 5859 H 533.134 -0.322668 0.761455 0
M  V30 5860 H 535.68 0.0902159 1.6946 0
M  V30 5861 H 534.452 -0.124463 3.91102 0
M  V30 5862 H 534.075 -1.80001 3.54521 0
M  V30 5863 N 535.072 -1.5615 -0.213296 0
M  V30 5864 C 536.483 -1.69645 -0.779582 0
M  V30 5865 C 536.834 -0.663615 -1.84636 0
M  V30 5866 O 535.959 0.183633 -2.15619 0
M  V30 5867 C 536.554 -3.07567 -1.42084 0
M  V30 5868 C 535.113 -3.22889 -1.93442 0
M  V30 5869 C 534.26 -2.65581 -0.797612 0
M  V30 5870 H 537.211 -1.58696 0.0114951 0
M  V30 5871 H 537.232 -3.03884 -2.28986 0
M  V30 5872 H 536.744 -3.82716 -0.644187 0
M  V30 5873 H 534.845 -2.52623 -2.73884 0
M  V30 5874 H 534.958 -4.30197 -2.10872 0
M  V30 5875 H 533.322 -2.24278 -1.20712 0
M  V30 5876 H 534.105 -3.43284 -0.033494 0
M  V30 5877 N 536.55 0.480323 -1.50102 0
M  V30 5878 C 537.483 1.59789 -1.62919 0
M  V30 5879 C 538.461 1.55429 -0.477557 0
M  V30 5880 O 539.645 1.75186 -0.695851 0
M  V30 5881 C 536.772 2.98351 -1.60325 0
M  V30 5882 C 535.818 3.20899 -2.80938 0
M  V30 5883 S 536.651 3.01791 -4.4236 0
M  V30 5884 C 537.807 4.42712 -4.42444 0
M  V30 5885 H 538.04 1.48676 -2.57454 0
M  V30 5886 H 535.573 0.666996 -1.3925 0
M  V30 5887 H 537.531 3.7824 -1.59514 0
M  V30 5888 H 536.192 3.06862 -0.670419 0
M  V30 5889 H 535.385 4.22102 -2.75401 0
M  V30 5890 H 534.987 2.48768 -2.79268 0
M  V30 5891 H 537.279 5.3518 -4.15438 0
M  V30 5892 H 538.222 4.53294 -5.43995 0
M  V30 5893 H 538.63 4.24359 -3.72263 0
M  V30 5894 N 538.028 1.39524 0.732853 0
M  V30 5895 C 538.958 1.41153 1.86005 0
M  V30 5896 C 539.939 0.274614 1.67869 0
M  V30 5897 O 541.124 0.480745 1.88155 0
M  V30 5898 C 538.254 1.25638 3.23778 0
M  V30 5899 C 537.208 2.36752 3.56556 0
M  V30 5900 C 536.534 2.06326 4.93289 0
M  V30 5901 C 537.834 3.79069 3.5931 0
M  V30 5902 H 539.528 2.35484 1.84899 0
M  V30 5903 H 537.074 1.13348 0.888162 0
M  V30 5904 H 539.027 1.25398 4.0231 0
M  V30 5905 H 537.751 0.277772 3.25417 0
M  V30 5906 H 536.41 2.36213 2.80355 0
M  V30 5907 H 536.058 1.06897 4.9151 0
M  V30 5908 H 535.758 2.80757 5.16187 0
M  V30 5909 H 537.282 2.07739 5.74175 0
M  V30 5910 H 538.696 3.81526 4.27914 0
M  V30 5911 H 537.093 4.52878 3.93728 0
M  V30 5912 H 538.163 4.09893 2.59068 0
M  V30 5913 N 539.506 -0.963266 1.24736 0
M  V30 5914 C 540.436 -2.07628 1.06832 0
M  V30 5915 C 541.417 -1.70088 -0.0200566 0
M  V30 5916 O 542.602 -1.93636 0.147854 0
M  V30 5917 C 539.732 -3.40636 0.677069 0
M  V30 5918 C 538.686 -3.9215 1.71471 0
M  V30 5919 C 538.012 -5.21553 1.1784 0
M  V30 5920 C 539.312 -4.19493 3.11164 0
M  V30 5921 H 541.006 -2.22864 1.9993 0
M  V30 5922 H 538.552 -1.07093 0.96266 0
M  V30 5923 H 540.505 -4.17941 0.538792 0
M  V30 5924 H 539.229 -3.25313 -0.289612 0
M  V30 5925 H 537.888 -3.17005 1.84128 0
M  V30 5926 H 537.536 -5.02593 0.202195 0
M  V30 5927 H 537.236 -5.56988 1.87185 0
M  V30 5928 H 538.76 -6.01463 1.05233 0
M  V30 5929 H 540.174 -4.87487 3.01711 0
M  V30 5930 H 538.571 -4.66165 3.77902 0
M  V30 5931 H 539.641 -3.26097 3.58871 0
M  V30 5932 N 540.985 -1.06182 -1.16461 0
M  V30 5933 C 541.915 -0.692861 -2.22984 0
M  V30 5934 C 542.896 0.314122 -1.67174 0
M  V30 5935 O 544.081 0.189499 -1.93273 0
M  V30 5936 C 541.211 -0.07732 -3.47214 0
M  V30 5937 C 540.165 -1.01015 -4.15909 0
M  V30 5938 C 539.491 -0.257973 -5.34077 0
M  V30 5939 C 540.791 -2.33868 -4.67015 0
M  V30 5940 H 542.485 -1.58343 -2.54102 0
M  V30 5941 H 540.031 -0.76279 -1.22137 0
M  V30 5942 H 541.984 0.19266 -4.20959 0
M  V30 5943 H 540.708 0.848254 -3.15392 0
M  V30 5944 H 539.367 -1.26486 -3.44088 0
M  V30 5945 H 539.015 0.670684 -4.98509 0
M  V30 5946 H 538.715 -0.879638 -5.80979 0
M  V30 5947 H 540.239 0.00448788 -6.106 0
M  V30 5948 H 541.653 -2.1279 -5.32347 0
M  V30 5949 H 540.05 -2.91522 -5.24533 0
M  V30 5950 H 541.12 -2.97019 -3.83286 0
M  V30 5951 N 542.463 1.3308 -0.844243 0
M  V30 5952 C 543.691 2.01808 -0.456203 0
M  V30 5953 C 544.106 1.63498 0.944131 0
M  V30 5954 O 543.463 0.85102 1.61443 0
M  V30 5955 C 543.514 3.56922 -0.573513 0
M  V30 5956 O 543.235 3.93851 -1.91868 0
M  V30 5957 C 544.736 4.42922 -0.183125 0
M  V30 5958 H 541.956 0.646273 -0.180477 0
M  V30 5959 H 544.5 1.69891 -1.1383 0
M  V30 5960 H 542.655 3.87352 0.0607367 0
M  V30 5961 H 543.069 4.88564 -1.90802 0
M  V30 5962 H 544.543 5.51093 -0.316241 0
M  V30 5963 H 545.02 4.30386 0.875477 0
M  V30 5964 H 545.626 4.1786 -0.792027 0
M  V30 5965 N 543.941 0.601185 1.45683 0
M  V30 5966 C 544.889 -0.133955 2.32214 0
M  V30 5967 C 545.883 -0.866034 1.45589 0
M  V30 5968 O 547.089 -0.782326 1.6211 0
M  V30 5969 H 543.464 -0.0620613 0.749435 0
M  V30 5970 H 545.435 0.614389 2.92007 0
M  V30 5971 C 544.184 -1.12216 3.29094 0
M  V30 5972 H 543.507 -0.568273 3.95741 0
M  V30 5973 H 544.947 -1.60659 3.92383 0
M  V30 5974 C 543.406 -2.19251 2.55794 0
M  V30 5975 O 543.936 -3.26894 2.33459 0
M  V30 5976 N 542.142 -1.9436 2.16039 0
M  V30 5977 H 541.689 -1.06829 2.34404 0
M  V30 5978 H 541.647 -2.66181 1.67318 0
M  V30 5979 N 545.419 -1.53889 0.339982 0
M  V30 5980 C 546.349 -2.27843 -0.510856 0
M  V30 5981 C 547.33 -1.29267 -1.10563 0
M  V30 5982 O 548.515 -1.58104 -1.12768 0
M  V30 5983 C 545.645 -3.04857 -1.66372 0
M  V30 5984 C 544.599 -4.10907 -1.19746 0
M  V30 5985 C 543.925 -4.75855 -2.43857 0
M  V30 5986 C 545.225 -5.21435 -0.300501 0
M  V30 5987 H 546.919 -2.99212 0.106067 0
M  V30 5988 H 544.465 -1.43904 0.0524533 0
M  V30 5989 H 546.418 -3.5533 -2.26537 0
M  V30 5990 H 545.142 -2.31133 -2.30749 0
M  V30 5991 H 543.801 -3.61342 -0.618654 0
M  V30 5992 H 543.449 -3.9873 -3.06633 0
M  V30 5993 H 543.149 -5.47502 -2.13343 0
M  V30 5994 H 544.673 -5.2911 -3.04754 0
M  V30 5995 H 546.087 -5.67565 -0.80889 0
M  V30 5996 H 544.484 -6.00036 -0.0874076 0
M  V30 5997 H 545.554 -4.80328 0.664321 0
M  V30 5998 N 546.897 -0.0685191 -1.57451 0
M  V30 5999 C 548.145 0.60016 -1.92983 0
M  V30 6000 C 548.466 1.70348 -0.949028 0
M  V30 6001 O 547.736 1.959 0.00335647 0
M  V30 6002 H 546.316 0.224682 -0.712409 0
M  V30 6003 H 548.978 -0.125605 -1.94495 0
M  V30 6004 H 548.074 1.02759 -2.94698 0
M  V30 6005 N 548.375 1.56261 0.205012 0
M  V30 6006 C 549.308 1.88797 1.28183 0
M  V30 6007 C 550.286 0.747018 1.44424 0
M  V30 6008 O 551.47 0.997039 1.59973 0
M  V30 6009 C 548.597 2.10949 2.64987 0
M  V30 6010 C 547.643 3.33649 2.6567 0
M  V30 6011 S 548.476 4.89078 2.18088 0
M  V30 6012 C 549.632 5.14286 3.56736 0
M  V30 6013 H 549.865 2.79837 1.00393 0
M  V30 6014 H 547.398 1.48911 0.408042 0
M  V30 6015 H 549.356 2.24395 3.4374 0
M  V30 6016 H 548.017 1.20678 2.89993 0
M  V30 6017 H 547.21 3.46245 3.66239 0
M  V30 6018 H 546.812 3.19146 1.94992 0
M  V30 6019 H 549.104 5.04198 4.52537 0
M  V30 6020 H 550.047 6.16096 3.49043 0
M  V30 6021 H 550.455 4.41957 3.51189 0
M  V30 6022 N 549.853 -0.472356 1.50355 0
M  V30 6023 C 551.102 -1.2213 1.60522 0
M  V30 6024 C 551.415 -1.9312 0.310466 0
M  V30 6025 O 552.621 -2.69936 0.291029 0
M  V30 6026 C 551.077 -2.21909 2.83345 0
M  V30 6027 C 550.685 -1.56727 4.19691 0
M  V30 6028 C 552.429 -2.97453 3.02856 0
M  V30 6029 C 550.336 -2.54785 5.33703 0
M  V30 6030 H 549.266 -0.459543 0.597776 0
M  V30 6031 H 551.917 -0.491922 1.76783 0
M  V30 6032 H 550.299 -2.98133 2.60639 0
M  V30 6033 H 551.473 -0.863007 4.52646 0
M  V30 6034 H 549.788 -0.934685 4.05774 0
M  V30 6035 H 552.385 -3.70838 3.85205 0
M  V30 6036 H 552.728 -3.56764 2.14534 0
M  V30 6037 H 553.261 -2.28342 3.25737 0
M  V30 6038 H 550 -2.00214 6.24175 0
M  V30 6039 H 549.52 -3.23367 5.05167 0
M  V30 6040 H 551.199 -3.16639 5.64224 0
M  V30 6041 N 551.331 -1.39911 -0.725443 0
M  V30 6042 C 552.278 -1.39393 -1.83952 0
M  V30 6043 C 553.248 -0.252249 -1.64173 0
M  V30 6044 O 554.433 -0.44882 -1.85446 0
M  V30 6045 C 551.573 -1.25262 -3.21564 0
M  V30 6046 C 550.686 -2.49054 -3.52982 0
M  V30 6047 C 549.821 -2.27439 -4.80047 0
M  V30 6048 C 548.86 -3.46857 -5.04338 0
M  V30 6049 N 547.997 -3.24499 -6.22611 0
M  V30 6050 H 552.837 -2.34622 -1.83729 0
M  V30 6051 H 550.374 -1.16537 -0.897636 0
M  V30 6052 H 552.332 -1.15077 -4.01015 0
M  V30 6053 H 550.962 -0.33657 -3.21041 0
M  V30 6054 H 550.014 -2.69805 -2.6816 0
M  V30 6055 H 551.326 -3.37973 -3.66846 0
M  V30 6056 H 550.48 -2.14551 -5.67497 0
M  V30 6057 H 549.219 -1.35929 -4.68374 0
M  V30 6058 H 548.224 -3.60232 -4.15346 0
M  V30 6059 H 549.449 -4.3928 -5.17889 0
M  V30 6060 H 547.395 -2.35663 -6.12208 0
M  V30 6061 H 547.312 -4.06978 -6.37106 0
M  V30 6062 H 548.58 -3.15325 -7.12875 0
M  V30 6063 N 552.809 0.956637 -1.25245 0
M  V30 6064 C 553.742 2.05232 -0.99775 0
M  V30 6065 C 554.72 1.62439 0.0723137 0
M  V30 6066 O 555.904 1.88381 -0.066926 0
M  V30 6067 C 553.031 3.34871 -0.507861 0
M  V30 6068 C 552.077 3.96625 -1.56815 0
M  V30 6069 S 552.91 4.32853 -3.15276 0
M  V30 6070 C 554.066 5.65613 -2.68017 0
M  V30 6071 H 554.299 2.26521 -1.9255 0
M  V30 6072 H 551.832 1.09601 -1.08752 0
M  V30 6073 H 553.79 4.09845 -0.231858 0
M  V30 6074 H 552.451 3.11551 0.399356 0
M  V30 6075 H 551.644 4.90087 -1.17604 0
M  V30 6076 H 551.246 3.28124 -1.79473 0
M  V30 6077 H 553.538 6.43635 -2.11518 0
M  V30 6078 H 554.481 6.09693 -3.60112 0
M  V30 6079 H 554.889 5.24751 -2.0808 0
M  V30 6080 N 554.287 1.06798 1.15896 0
M  V30 6081 C 555.564 0.701057 1.82605 0
M  V30 6082 C 555.944 -0.817066 1.94646 0
M  V30 6083 O 555.292 -1.72933 1.49353 0
M  V30 6084 C 555.502 1.40895 3.19296 0
M  V30 6085 C 556.85 1.55744 3.95005 0
M  V30 6086 O 557.874 1.36927 3.28831 0
M  V30 6087 O 556.733 1.86658 5.13635 0
M  V30 6088 H 553.827 0.248791 0.78869 0
M  V30 6089 H 556.373 1.16857 1.23055 0
M  V30 6090 H 555.145 2.4439 3.05596 0
M  V30 6091 H 554.768 0.931847 3.86526 0
M  V30 6092 N 555.766 -1.3263 0.851289 0
M  V30 6093 C 557.012 -1.9766 0.453694 0
M  V30 6094 C 557.345 -1.67225 -0.987396 0
M  V30 6095 O 556.62 -0.958693 -1.69232 0
M  V30 6096 C 556.903 -3.5344 0.68936 0
M  V30 6097 C 556.756 -3.93517 2.17862 0
M  V30 6098 C 558.075 -4.39866 0.143555 0
M  V30 6099 H 555.194 -0.717989 0.166314 0
M  V30 6100 H 557.836 -1.57068 1.06909 0
M  V30 6101 H 555.986 -3.88147 0.165546 0
M  V30 6102 H 557.658 -3.69006 2.76826 0
M  V30 6103 H 555.901 -3.42798 2.65841 0
M  V30 6104 H 556.572 -5.02065 2.29422 0
M  V30 6105 H 559.048 -4.11875 0.591451 0
M  V30 6106 H 557.924 -5.47858 0.338043 0
M  V30 6107 H 558.185 -4.31696 -0.953466 0
M  V30 6108 N 557.244 -0.608902 -1.45362 0
M  V30 6109 C 558.49 -0.104762 -2.02529 0
M  V30 6110 C 558.823 1.26191 -1.47613 0
M  V30 6111 O 558.098 1.8327 -0.65134 0
M  V30 6112 C 558.381 -0.0672661 -3.60037 0
M  V30 6113 C 558.234 -1.4647 -4.25284 0
M  V30 6114 C 559.553 0.619877 -4.35713 0
M  V30 6115 H 556.672 -0.0395438 -0.735938 0
M  V30 6116 H 559.314 -0.781126 -1.73201 0
M  V30 6117 H 557.464 0.50871 -3.85155 0
M  V30 6118 H 559.136 -2.08785 -4.11347 0
M  V30 6119 H 557.379 -2.02502 -3.83634 0
M  V30 6120 H 558.05 -1.39069 -5.34195 0
M  V30 6121 H 560.526 0.130297 -4.15896 0
M  V30 6122 H 559.402 0.615224 -5.45441 0
M  V30 6123 H 559.663 1.68621 -4.0868 0
M  V30 6124 N 558.722 1.53707 -0.348139 0
M  V30 6125 C 559.999 1.93247 0.302475 0
M  V30 6126 C 560.379 1.28012 1.67857 0
M  V30 6127 O 559.727 0.43274 2.24365 0
M  V30 6128 C 559.937 3.47031 0.370159 0
M  V30 6129 C 561.285 4.20066 0.61882 0
M  V30 6130 O 562.309 3.53319 0.452087 0
M  V30 6131 O 561.168 5.38318 0.94215 0
M  V30 6132 H 558.262 0.807736 0.177458 0
M  V30 6133 H 560.808 1.64927 -0.399651 0
M  V30 6134 H 559.58 3.86745 -0.59534 0
M  V30 6135 H 559.203 3.81532 1.11888 0
M  V30 6136 N 560.2 0.0768682 1.57412 0
M  V30 6137 C 561.448 -0.589918 1.93299 0
M  V30 6138 C 561.769 -1.69842 0.958049 0
M  V30 6139 O 561.039 -1.95899 0.00703261 0
M  V30 6140 H 559.619 -0.220901 0.713591 0
M  V30 6141 H 562.281 0.135917 1.94425 0
M  V30 6142 H 561.377 -1.01195 2.95239 0
M  V30 6143 N 561.678 -1.56367 -0.196722 0
M  V30 6144 C 562.625 -1.94417 -1.24382 0
M  V30 6145 C 563.595 -0.804543 -1.45315 0
M  V30 6146 O 564.78 -1.06256 -1.58475 0
M  V30 6147 C 561.92 -2.28757 -2.58388 0
M  V30 6148 C 561.033 -3.55775 -2.45047 0
M  V30 6149 C 560.168 -3.79445 -3.71746 0
M  V30 6150 C 559.207 -4.99894 -3.53231 0
M  V30 6151 N 558.344 -5.19826 -4.71938 0
M  V30 6152 H 563.184 -2.83691 -0.912338 0
M  V30 6153 H 560.721 -1.40392 -0.439135 0
M  V30 6154 H 562.679 -2.46682 -3.36457 0
M  V30 6155 H 561.309 -1.42625 -2.89582 0
M  V30 6156 H 560.361 -3.45905 -1.58284 0
M  V30 6157 H 561.673 -4.44 -2.27299 0
M  V30 6158 H 560.827 -3.97601 -4.58256 0
M  V30 6159 H 559.566 -2.89546 -3.92446 0
M  V30 6160 H 558.571 -4.81662 -2.65107 0
M  V30 6161 H 559.796 -5.913 -3.33978 0
M  V30 6162 H 557.742 -4.32875 -4.92905 0
M  V30 6163 H 557.659 -6.02228 -4.57009 0
M  V30 6164 H 558.927 -5.42439 -5.59803 0
M  V30 6165 N 563.156 0.464375 -1.50603 0
M  V30 6166 C 564.384 1.23907 -1.65695 0
M  V30 6167 C 564.799 1.85658 -0.343027 0
M  V30 6168 O 564.156 1.69529 0.675739 0
M  V30 6169 C 564.207 2.3429 -2.75301 0
M  V30 6170 O 563.928 1.7507 -4.01599 0
M  V30 6171 C 565.429 3.25051 -3.01424 0
M  V30 6172 H 562.649 0.374485 -0.556778 0
M  V30 6173 H 565.193 0.55353 -1.96866 0
M  V30 6174 H 563.348 2.98607 -2.46804 0
M  V30 6175 H 563.762 2.47812 -4.62266 0
M  V30 6176 H 565.236 3.98699 -3.81763 0
M  V30 6177 H 565.713 3.84227 -2.12758 0
M  V30 6178 H 566.319 2.66463 -3.31477 0
M  V30 6179 N 564.634 1.40294 0.718013 0
M  V30 6180 C 566.045 1.34289 1.29705 0
M  V30 6181 C 566.396 0.0152228 1.96194 0
M  V30 6182 O 565.521 -0.88682 1.97394 0
M  V30 6183 C 566.116 2.43219 2.3586 0
M  V30 6184 C 564.675 2.40682 2.89394 0
M  V30 6185 C 563.822 2.24223 1.63154 0
M  V30 6186 H 566.773 1.50135 0.514312 0
M  V30 6187 H 566.794 2.10986 3.16647 0
M  V30 6188 H 566.306 3.39836 1.87439 0
M  V30 6189 H 564.407 1.47756 3.42051 0
M  V30 6190 H 564.52 3.36177 3.41353 0
M  V30 6191 H 562.884 1.71696 1.88129 0
M  V30 6192 H 563.667 3.22834 1.16761 0
M  V30 6193 N 566.112 -0.949982 1.2575 0
M  V30 6194 C 567.045 -2.047 1.00862 0
M  V30 6195 C 568.023 -1.62475 -0.0636982 0
M  V30 6196 O 569.207 -1.88343 0.0769153 0
M  V30 6197 C 566.334 -3.34597 0.525613 0
M  V30 6198 C 565.38 -3.95788 1.58916 0
M  V30 6199 S 566.213 -4.31175 3.17567 0
M  V30 6200 C 567.369 -5.64183 2.71013 0
M  V30 6201 H 567.602 -2.25497 1.93749 0
M  V30 6202 H 565.135 -1.09022 1.09332 0
M  V30 6203 H 567.093 -4.09716 0.25359 0
M  V30 6204 H 565.754 -3.11758 -0.382828 0
M  V30 6205 H 564.947 -4.89457 1.20201 0
M  V30 6206 H 564.549 -3.27168 1.81211 0
M  V30 6207 H 566.841 -6.42504 2.14928 0
M  V30 6208 H 567.784 -6.07774 3.6334 0
M  V30 6209 H 568.192 -5.2364 2.1086 0
M  V30 6210 N 567.59 -1.07411 -1.15328 0
M  V30 6211 C 568.815 -0.818856 -1.90551 0
M  V30 6212 C 569.24 0.622194 -1.77512 0
M  V30 6213 O 568.598 1.43484 -1.10824 0
M  V30 6214 C 568.646 -1.23267 -3.38877 0
M  V30 6215 O 567.75 -0.378345 -4.10661 0
M  V30 6216 H 567.091 -0.29827 -0.593238 0
M  V30 6217 H 569.621 -1.43289 -1.46046 0
M  V30 6218 H 569.631 -1.20912 -3.89672 0
M  V30 6219 H 568.306 -2.28226 -3.47686 0
M  V30 6220 H 566.883 -0.464437 -3.69996 0
M  V30 6221 N 569.068 1.32177 -0.85831 0
M  V30 6222 C 570.031 2.27086 -0.310588 0
M  V30 6223 C 571.031 1.51751 0.531806 0
M  V30 6224 O 572.221 1.70794 0.34279 0
M  V30 6225 C 569.353 3.36266 0.560179 0
M  V30 6226 H 570.546 2.77045 -1.1483 0
M  V30 6227 H 568.099 1.42911 -0.632942 0
M  V30 6228 H 568.834 2.9158 1.41956 0
M  V30 6229 H 568.619 3.92077 -0.0428473 0
M  V30 6230 H 570.109 4.06974 0.936056 0
M  V30 6231 N 570.547 0.616602 1.45037 0
M  V30 6232 C 571.457 -0.0985401 2.34393 0
M  V30 6233 C 572.473 -0.850971 1.51771 0
M  V30 6234 O 573.649 -0.806521 1.84546 0
M  V30 6235 C 570.714 -1.07748 3.29532 0
M  V30 6236 C 569.775 -0.326022 4.2806 0
M  V30 6237 C 569.008 -1.25833 5.18654 0
M  V30 6238 O 569.231 -2.49652 5.12864 0
M  V30 6239 O 568.165 -0.750512 5.97203 0
M  V30 6240 H 571.991 0.636016 2.96966 0
M  V30 6241 H 569.576 0.376832 1.44569 0
M  V30 6242 H 571.458 -1.64107 3.88133 0
M  V30 6243 H 570.133 -1.79291 2.69512 0
M  V30 6244 H 569.04 0.280253 3.73049 0
M  V30 6245 H 570.373 0.349091 4.9096 0
M  V30 6246 N 572.025 -1.5352 0.356285 0
M  V30 6247 C 572.958 -2.2177 -0.537913 0
M  V30 6248 C 573.936 -1.20626 -1.09033 0
M  V30 6249 O 575.12 -1.49494 -1.1482 0
M  V30 6250 C 572.247 -2.90513 -1.74126 0
M  V30 6251 C 571.293 -4.05652 -1.31715 0
M  V30 6252 S 572.126 -5.34505 -0.326236 0
M  V30 6253 C 573.282 -6.06757 -1.53612 0
M  V30 6254 H 573.515 -2.97271 0.0417411 0
M  V30 6255 H 571.048 -1.53761 0.140372 0
M  V30 6256 H 573.006 -3.30735 -2.43155 0
M  V30 6257 H 571.667 -2.14754 -2.29215 0
M  V30 6258 H 570.86 -4.52733 -2.21471 0
M  V30 6259 H 570.462 -3.67272 -0.706183 0
M  V30 6260 H 572.754 -6.30924 -2.46863 0
M  V30 6261 H 573.697 -6.99395 -1.10687 0
M  V30 6262 H 574.105 -5.3708 -1.73796 0
M  V30 6263 N 573.503 -0.0852151 -1.57369 0
M  V30 6264 C 574.919 0.271436 -1.57275 0
M  V30 6265 C 575.119 1.69109 -1.09565 0
M  V30 6266 O 574.175 2.40549 -0.767611 0
M  V30 6267 C 575.488 0.0688638 -3.00621 0
M  V30 6268 C 577.036 0.137373 -3.12698 0
M  V30 6269 C 577.511 -0.0370832 -4.57985 0
M  V30 6270 N 579.002 0.0180794 -4.63196 0
M  V30 6271 C 579.737 -0.0922953 -5.73326 0
M  V30 6272 N 579.233 -0.256948 -6.92323 0
M  V30 6273 N 581.026 -0.0342702 -5.6209 0
M  V30 6274 H 573.177 -1.01288 -1.86693 0
M  V30 6275 H 575.44 -0.396138 -0.861266 0
M  V30 6276 H 575.146 -0.911277 -3.39689 0
M  V30 6277 H 575.02 0.815442 -3.6828 0
M  V30 6278 H 577.407 1.10801 -2.73509 0
M  V30 6279 H 577.488 -0.640532 -2.47651 0
M  V30 6280 H 577.132 -1.00455 -4.97867 0
M  V30 6281 H 577.062 0.760392 -5.21081 0
M  V30 6282 H 579.553 0.143202 -3.77629 0
M  V30 6283 H 579.866 -0.332949 -7.72082 0
M  V30 6284 H 578.211 -0.292487 -6.94384 0
M  V30 6285 H 581.402 0.0931605 -4.68007 0
M  V30 6286 H 581.575 -0.12374 -6.47882 0
M  V30 6287 N 574.981 1.5647 0.188427 0
M  V30 6288 C 575.891 1.98285 1.2538 0
M  V30 6289 C 576.907 0.891535 1.49424 0
M  V30 6290 O 578.083 1.19782 1.61908 0
M  V30 6291 C 575.148 2.31965 2.57669 0
M  V30 6292 C 574.209 3.54838 2.41638 0
M  V30 6293 C 573.442 3.86901 3.67618 0
M  V30 6294 O 573.665 3.20163 4.72072 0
M  V30 6295 O 572.599 4.80309 3.62749 0
M  V30 6296 H 576.425 2.89145 0.928912 0
M  V30 6297 H 574.01 1.44112 0.393955 0
M  V30 6298 H 575.892 2.54673 3.35737 0
M  V30 6299 H 574.567 1.44271 2.89771 0
M  V30 6300 H 573.474 3.37369 1.61658 0
M  V30 6301 H 574.807 4.43019 2.14465 0
M  V30 6302 N 576.459 -0.456382 1.50847 0
M  V30 6303 C 577.369 -1.57805 1.73594 0
M  V30 6304 C 578.385 -1.62599 0.619476 0
M  V30 6305 O 579.561 -1.80195 0.899532 0
M  V30 6306 C 576.626 -2.93926 1.8387 0
M  V30 6307 C 575.687 -2.99402 3.07663 0
M  V30 6308 C 574.92 -4.29031 3.1744 0
M  V30 6309 O 575.143 -5.20358 2.33631 0
M  V30 6310 O 574.077 -4.40401 4.10281 0
M  V30 6311 H 577.903 -1.41531 2.68705 0
M  V30 6312 H 575.488 -0.637422 1.3512 0
M  V30 6313 H 577.37 -3.74747 1.92725 0
M  V30 6314 H 576.045 -3.10368 0.91944 0
M  V30 6315 H 574.952 -2.17606 3.043 0
M  V30 6316 H 576.285 -2.87901 3.99216 0
M  V30 6317 N 577.937 -1.40673 -0.710563 0
M  V30 6318 C 578.869 -1.37256 -1.83558 0
M  V30 6319 C 579.882 -0.277133 -1.60424 0
M  V30 6320 O 581.071 -0.537831 -1.70205 0
M  V30 6321 C 578.171 -1.1144 -3.20054 0
M  V30 6322 C 577.344 -2.32734 -3.70342 0
M  V30 6323 C 576.403 -2.03002 -4.85465 0
M  V30 6324 O 575.429 -2.75912 -4.97857 0
M  V30 6325 N 576.631 -1.01105 -5.71627 0
M  V30 6326 H 579.396 -2.34215 -1.86985 0
M  V30 6327 H 576.957 -1.35091 -0.892301 0
M  V30 6328 H 578.949 -0.895265 -3.94673 0
M  V30 6329 H 577.519 -0.231307 -3.11743 0
M  V30 6330 H 576.739 -2.70446 -2.86798 0
M  V30 6331 H 578.027 -3.13584 -4.00678 0
M  V30 6332 H 577.425 -0.407303 -5.64232 0
M  V30 6333 H 575.982 -0.85182 -6.4621 0
M  V30 6334 N 579.415 0.9433 -1.26252 0
M  V30 6335 C 580.663 1.68592 -1.11451 0
M  V30 6336 C 580.984 1.91957 0.343123 0
M  V30 6337 O 580.254 1.51475 1.24226 0
M  V30 6338 H 578.834 0.624789 -0.409448 0
M  V30 6339 H 581.496 1.13351 -1.58548 0
M  V30 6340 H 580.592 2.66054 -1.63162 0
M  V30 6341 N 580.893 1.08022 1.14757 0
M  V30 6342 C 581.841 0.701088 2.21783 0
M  V30 6343 C 582.835 -0.291311 1.66876 0
M  V30 6344 O 584.041 -0.154296 1.79337 0
M  V30 6345 H 580.416 0.208668 0.722469 0
M  V30 6346 H 582.387 1.61321 2.51034 0
M  V30 6347 C 581.136 0.122278 3.47485 0
M  V30 6348 H 580.459 0.877065 3.90061 0
M  V30 6349 H 581.899 -0.105248 4.23869 0
M  V30 6350 C 580.358 -1.13883 3.17068 0
M  V30 6351 O 580.888 -2.22429 3.34497 0
M  V30 6352 N 579.094 -1.04767 2.71058 0
M  V30 6353 H 578.641 -0.164302 2.57075 0
M  V30 6354 H 578.599 -1.89224 2.51081 0
M  V30 6355 N 582.371 -1.3172 0.865308 0
M  V30 6356 C 583.303 -2.27545 0.274906 0
M  V30 6357 C 584.316 -1.52887 -0.559413 0
M  V30 6358 O 585.505 -1.74361 -0.382166 0
M  V30 6359 C 582.605 -3.33006 -0.629286 0
M  V30 6360 C 581.778 -4.37063 0.171553 0
M  V30 6361 C 580.837 -5.22044 -0.660052 0
M  V30 6362 O 579.863 -5.69129 -0.0897527 0
M  V30 6363 N 581.065 -5.45946 -1.97289 0
M  V30 6364 H 583.83 -2.78848 1.09836 0
M  V30 6365 H 581.391 -1.44693 0.726331 0
M  V30 6366 H 583.383 -3.86772 -1.19121 0
M  V30 6367 H 581.953 -2.81782 -1.35342 0
M  V30 6368 H 581.173 -3.83436 0.914919 0
M  V30 6369 H 582.461 -5.03662 0.721235 0
M  V30 6370 H 581.859 -5.0944 -2.45942 0
M  V30 6371 H 580.416 -6.02665 -2.4827 0
M  V30 6372 N 583.85 -0.624285 -1.44708 0
M  V30 6373 C 585.077 -0.132919 -2.06473 0
M  V30 6374 C 585.493 1.18967 -1.46602 0
M  V30 6375 O 584.85 1.72824 -0.586341 0
M  V30 6376 C 584.901 -0.00465418 -3.615 0
M  V30 6377 O 584.622 -1.27494 -4.19138 0
M  V30 6378 C 586.123 0.516213 -4.40284 0
M  V30 6379 H 583.343 -0.0765201 -0.666623 0
M  V30 6380 H 585.887 -0.856751 -1.85688 0
M  V30 6381 H 584.042 0.669583 -3.8157 0
M  V30 6382 H 584.456 -1.11536 -5.12504 0
M  V30 6383 H 585.93 0.554994 -5.49203 0
M  V30 6384 H 586.407 1.5419 -4.11245 0
M  V30 6385 H 587.013 -0.124542 -4.25118 0
M  V30 6386 N 585.328 1.53329 -0.364422 0
M  V30 6387 C 586.291 2.24323 0.470292 0
M  V30 6388 C 587.291 1.25068 1.01067 0
M  V30 6389 O 588.481 1.49354 0.896605 0
M  V30 6390 C 585.613 2.97908 1.65722 0
M  V30 6391 H 586.806 2.9952 -0.150917 0
M  V30 6392 H 584.359 1.55868 -0.116092 0
M  V30 6393 H 585.094 2.2695 2.31655 0
M  V30 6394 H 584.879 3.70732 1.27671 0
M  V30 6395 H 586.369 3.5188 2.24878 0
M  V30 6396 N 586.806 0.0935595 1.57322 0
M  V30 6397 C 587.716 -0.880192 2.17462 0
M  V30 6398 C 588.732 -1.31135 1.14366 0
M  V30 6399 O 589.908 -1.37958 1.46729 0
M  V30 6400 C 586.973 -2.12184 2.74188 0
M  V30 6401 C 586.034 -1.74503 3.92234 0
M  V30 6402 C 585.267 -2.92748 4.46245 0
M  V30 6403 O 585.49 -4.07427 3.99198 0
M  V30 6404 O 584.424 -2.71303 5.37288 0
M  V30 6405 H 588.25 -0.398516 3.01074 0
M  V30 6406 H 585.835 -0.130707 1.48827 0
M  V30 6407 H 587.717 -2.84953 3.10451 0
M  V30 6408 H 586.392 -2.59407 1.93623 0
M  V30 6409 H 585.299 -0.989186 3.60785 0
M  V30 6410 H 586.632 -1.32044 4.74157 0
M  V30 6411 N 588.284 -1.56567 -0.180126 0
M  V30 6412 C 589.214 -1.98753 -1.22553 0
M  V30 6413 C 590.195 -0.86175 -1.46656 0
M  V30 6414 O 591.38 -1.12719 -1.58139 0
M  V30 6415 C 588.51 -2.33988 -2.56645 0
M  V30 6416 C 587.464 -3.49445 -2.47128 0
M  V30 6417 C 586.79 -3.70397 -3.8563 0
M  V30 6418 C 588.09 -4.83171 -1.98352 0
M  V30 6419 H 589.784 -2.86332 -0.874896 0
M  V30 6420 H 587.33 -1.37757 -0.419414 0
M  V30 6421 H 589.283 -2.62097 -3.29974 0
M  V30 6422 H 588.007 -1.43309 -2.93479 0
M  V30 6423 H 586.666 -3.2145 -1.76254 0
M  V30 6424 H 586.314 -2.77023 -4.19842 0
M  V30 6425 H 586.014 -4.48077 -3.80132 0
M  V30 6426 H 587.538 -4.00897 -4.60558 0
M  V30 6427 H 588.952 -5.10213 -2.61449 0
M  V30 6428 H 587.349 -5.64425 -2.03823 0
M  V30 6429 H 588.419 -4.75753 -0.937402 0
M  V30 6430 N 589.762 0.448376 -1.51087 0
M  V30 6431 C 590.694 1.56146 -1.67783 0
M  V30 6432 C 591.707 1.52913 -0.55871 0
M  V30 6433 O 592.896 1.57889 -0.83267 0
M  V30 6434 C 589.996 2.95057 -1.66716 0
M  V30 6435 C 589.169 3.22915 -2.95033 0
M  V30 6436 C 588.228 4.41495 -2.86302 0
M  V30 6437 O 587.254 4.40688 -3.60254 0
M  V30 6438 N 588.456 5.44443 -2.014 0
M  V30 6439 H 591.221 1.42232 -2.638 0
M  V30 6440 H 588.782 0.637153 -1.48835 0
M  V30 6441 H 590.774 3.72388 -1.58458 0
M  V30 6442 H 589.344 3.02624 -0.783403 0
M  V30 6443 H 588.564 2.33985 -3.17245 0
M  V30 6444 H 589.852 3.38349 -3.79996 0
M  V30 6445 H 589.25 5.4793 -1.40674 0
M  V30 6446 H 587.807 6.2067 -1.99029 0
M  V30 6447 N 591.24 1.41047 0.703093 0
M  V30 6448 C 592.488 1.39723 1.4602 0
M  V30 6449 C 592.809 0.00461257 1.94999 0
M  V30 6450 O 592.079 -0.952292 1.71196 0
M  V30 6451 H 590.659 0.514281 0.541779 0
M  V30 6452 H 593.321 1.76217 0.832678 0
M  V30 6453 H 592.417 2.07982 2.32701 0
M  V30 6454 N 592.718 -0.936591 1.26751 0
M  V30 6455 C 593.651 -2.03619 1.03027 0
M  V30 6456 C 594.629 -1.62534 -0.0464619 0
M  V30 6457 O 595.813 -1.88251 0.0968873 0
M  V30 6458 C 592.94 -3.3402 0.561072 0
M  V30 6459 C 591.986 -3.9408 1.63105 0
M  V30 6460 S 592.819 -4.27782 3.22122 0
M  V30 6461 C 593.975 -5.61277 2.76982 0
M  V30 6462 H 594.208 -2.23429 1.96129 0
M  V30 6463 H 591.741 -1.07857 1.10482 0
M  V30 6464 H 593.699 -4.09424 0.297031 0
M  V30 6465 H 592.36 -3.12147 -0.349741 0
M  V30 6466 H 591.553 -4.88154 1.25386 0
M  V30 6467 H 591.155 -3.25227 1.84671 0
M  V30 6468 H 593.447 -6.40189 2.21731 0
M  V30 6469 H 594.39 -6.03887 3.69766 0
M  V30 6470 H 594.798 -5.21374 2.16402 0
M  V30 6471 N 594.196 -1.08629 -1.14182 0
M  V30 6472 C 595.144 -0.71284 -2.21408 0
M  V30 6473 C 596.138 0.282457 -1.67029 0
M  V30 6474 O 597.344 0.144783 -1.79417 0
M  V30 6475 H 593.719 -0.212497 -0.721352 0
M  V30 6476 H 595.69 -1.6265 -2.50175 0
M  V30 6477 C 594.439 -0.140704 -3.47415 0
M  V30 6478 H 593.762 -0.897739 -3.8959 0
M  V30 6479 H 595.202 0.0827677 -4.23919 0
M  V30 6480 C 593.661 1.122 -3.17668 0
M  V30 6481 O 594.191 2.20652 -3.35672 0
M  V30 6482 N 592.397 1.03328 -2.71609 0
M  V30 6483 H 591.944 0.150666 -2.57159 0
M  V30 6484 H 591.902 1.8789 -2.52081 0
M  V30 6485 N 595.674 1.31259 -0.872281 0
M  V30 6486 C 596.923 1.95893 -0.480493 0
M  V30 6487 C 597.236 1.697 0.972688 0
M  V30 6488 O 598.442 2.28214 1.47073 0
M  V30 6489 C 596.898 3.50705 -0.808342 0
M  V30 6490 C 596.506 3.85735 -2.27844 0
M  V30 6491 C 598.25 4.21719 -0.485136 0
M  V30 6492 C 596.157 5.33668 -2.54858 0
M  V30 6493 H 595.087 0.733182 -0.175955 0
M  V30 6494 H 597.738 1.49396 -1.0655 0
M  V30 6495 H 596.12 3.95706 -0.152558 0
M  V30 6496 H 597.294 3.51686 -2.97748 0
M  V30 6497 H 595.609 3.27792 -2.56791 0
M  V30 6498 H 598.206 5.30559 -0.664166 0
M  V30 6499 H 598.549 4.12316 0.574592 0
M  V30 6500 H 599.082 3.82359 -1.09756 0
M  V30 6501 H 595.821 5.48109 -3.59523 0
M  V30 6502 H 595.341 5.69061 -1.8955 0
M  V30 6503 H 597.02 6.00958 -2.39706 0
M  V30 6504 N 597.152 0.631951 1.44375 0
M  V30 6505 C 598.429 0.067646 1.95483 0
M  V30 6506 C 598.809 -1.40683 1.57389 0
M  V30 6507 O 598.157 -2.12167 0.848375 0
M  V30 6508 C 598.367 0.291392 3.47781 0
M  V30 6509 C 599.715 0.185028 4.24197 0
M  V30 6510 O 600.739 0.222803 3.55503 0
M  V30 6511 O 599.598 0.0906642 5.46425 0
M  V30 6512 H 596.692 -0.0218379 0.826712 0
M  V30 6513 H 599.238 0.703711 1.54421 0
M  V30 6514 H 598.01 1.31449 3.68561 0
M  V30 6515 H 597.633 -0.378772 3.95792 0
M  V30 6516 N 598.631 -1.53133 0.372548 0
M  V30 6517 C 599.856 -2.0625 -0.218098 0
M  V30 6518 C 600.281 -1.24375 -1.41111 0
M  V30 6519 O 599.639 -0.264554 -1.79359 0
M  V30 6520 C 599.687 -3.55858 -0.582876 0
M  V30 6521 O 598.791 -3.76667 -1.67917 0
M  V30 6522 H 598.132 -0.663317 -0.030104 0
M  V30 6523 H 600.662 -1.97477 0.535169 0
M  V30 6524 H 600.672 -3.99007 -0.851925 0
M  V30 6525 H 599.347 -4.14892 0.289428 0
M  V30 6526 H 597.924 -3.45413 -1.40513 0
M  V30 6527 N 600.109 -0.101901 -1.5727 0
M  V30 6528 C 601.019 0.868647 -2.17926 0
M  V30 6529 C 602.035 1.30527 -1.1506 0
M  V30 6530 O 603.211 1.37178 -1.47459 0
M  V30 6531 C 600.276 2.10727 -2.75309 0
M  V30 6532 C 599.337 1.7242 -3.93154 0
M  V30 6533 C 598.57 2.90377 -4.47791 0
M  V30 6534 O 598.793 4.05305 -4.01353 0
M  V30 6535 O 597.727 2.6845 -5.38719 0
M  V30 6536 H 601.553 0.382544 -3.01281 0
M  V30 6537 H 599.138 0.122812 -1.48894 0
M  V30 6538 H 601.02 2.83303 -3.11958 0
M  V30 6539 H 599.695 2.58376 -1.94996 0
M  V30 6540 H 598.602 0.970039 -3.61305 0
M  V30 6541 H 599.935 1.29528 -4.74851 0
M  V30 6542 N 601.587 1.56661 0.17182 0
M  V30 6543 C 602.815 1.861 0.904115 0
M  V30 6544 C 603.23 0.687227 1.75848 0
M  V30 6545 O 602.587 -0.343671 1.79235 0
M  V30 6546 C 602.638 3.14568 1.78127 0
M  V30 6547 O 602.359 4.27422 0.961366 0
M  V30 6548 C 603.86 3.5735 2.62327 0
M  V30 6549 H 601.08 0.617445 0.262684 0
M  V30 6550 H 603.624 2.03775 0.172068 0
M  V30 6551 H 601.779 2.98721 2.46666 0
M  V30 6552 H 602.193 5.00725 1.56123 0
M  V30 6553 H 603.667 4.50144 3.1949 0
M  V30 6554 H 604.144 2.81445 3.37173 0
M  V30 6555 H 604.75 3.75807 1.99121 0
M  V30 6556 N 603.065 -0.440357 1.51323 0
M  V30 6557 C 604.012 -1.53429 1.72419 0
M  V30 6558 C 604.982 -1.56165 0.565826 0
M  V30 6559 O 606.167 -1.73222 0.799917 0
M  V30 6560 C 603.307 -2.91169 1.85242 0
M  V30 6561 C 602.42 -2.97985 3.12777 0
M  V30 6562 C 601.555 -4.26829 3.16212 0
M  V30 6563 C 600.594 -4.27501 4.38074 0
M  V30 6564 N 599.731 -5.47866 4.39076 0
M  V30 6565 H 604.571 -1.34743 2.65797 0
M  V30 6566 H 602.108 -0.654608 1.31732 0
M  V30 6567 H 604.066 -3.71087 1.90658 0
M  V30 6568 H 602.696 -3.0842 0.952744 0
M  V30 6569 H 601.748 -2.10749 3.16685 0
M  V30 6570 H 603.06 -2.94342 4.02696 0
M  V30 6571 H 602.214 -5.15118 3.20527 0
M  V30 6572 H 600.953 -4.33124 2.24176 0
M  V30 6573 H 599.958 -3.37606 4.33938 0
M  V30 6574 H 601.183 -4.22873 5.31371 0
M  V30 6575 H 599.129 -5.54887 3.49909 0
M  V30 6576 H 599.046 -5.46091 5.22801 0
M  V30 6577 H 600.314 -6.38195 4.4758 0
M  V30 6578 N 604.543 -1.41418 -0.695603 0
M  V30 6579 C 605.506 -1.42988 -1.79129 0
M  V30 6580 C 606.506 -0.320514 -1.57573 0
M  V30 6581 O 607.696 -0.58039 -1.64247 0
M  V30 6582 C 604.828 -1.24122 -3.175 0
M  V30 6583 H 606.021 -2.40526 -1.7913 0
M  V30 6584 H 603.574 -1.2756 -0.903225 0
M  V30 6585 H 604.309 -0.274253 -3.23138 0
M  V30 6586 H 604.094 -2.045 -3.34547 0
M  V30 6587 H 605.584 -1.28056 -3.97481 0
M  V30 6588 N 606.021 0.929856 -1.27246 0
M  V30 6589 C 606.969 2.05151 -1.09616 0
M  V30 6590 C 607.963 1.69388 -0.0198617 0
M  V30 6591 O 609.169 1.79124 -0.177417 0
M  V30 6592 H 605.544 0.671909 -0.337701 0
M  V30 6593 H 607.515 2.17168 -2.04648 0
M  V30 6594 C 606.264 3.3934 -0.757851 0
M  V30 6595 H 605.587 3.67343 -1.57795 0
M  V30 6596 H 607.027 4.18603 -0.674358 0
M  V30 6597 C 605.486 3.32582 0.537658 0
M  V30 6598 O 606.016 3.69633 1.57271 0
M  V30 6599 N 604.222 2.8568 0.532478 0
M  V30 6600 H 603.769 2.55725 -0.310233 0
M  V30 6601 H 603.727 2.81541 1.39936 0
M  V30 6602 N 607.499 1.09233 1.13605 0
M  V30 6603 C 608.447 0.724572 2.21027 0
M  V30 6604 C 609.441 -0.273595 1.67176 0
M  V30 6605 O 610.647 -0.135266 1.79491 0
M  V30 6606 H 607.022 0.216319 0.720215 0
M  V30 6607 H 608.993 1.63975 2.49309 0
M  V30 6608 C 607.742 0.159126 3.47336 0
M  V30 6609 H 607.065 0.918387 3.89109 0
M  V30 6610 H 608.505 -0.0602851 4.23957 0
M  V30 6611 C 606.964 -1.10514 3.18258 0
M  V30 6612 O 607.494 -2.18869 3.36837 0
M  V30 6613 N 605.7 -1.01886 2.72154 0
M  V30 6614 H 605.247 -0.137027 2.57235 0
M  V30 6615 H 605.205 -1.8655 2.53074 0
M  V30 6616 N 608.977 -1.30795 0.87923 0
M  V30 6617 C 610.225 -1.95974 0.493809 0
M  V30 6618 C 610.546 -1.69787 -0.959021 0
M  V30 6619 O 609.816 -1.01832 -1.67353 0
M  V30 6620 H 608.396 -0.725083 0.179622 0
M  V30 6621 H 611.058 -1.59432 1.12105 0
M  V30 6622 H 610.154 -3.05058 0.659263 0
M  V30 6623 N 610.455 -0.639598 -1.44038 0
M  V30 6624 C 611.365 0.0612377 -2.3452 0
M  V30 6625 C 612.381 0.826717 -1.53106 0
M  V30 6626 O 613.557 0.777059 -1.85806 0
M  V30 6627 C 610.622 1.02492 -3.31204 0
M  V30 6628 C 609.683 0.25788 -4.28525 0
M  V30 6629 C 608.916 1.17566 -5.2059 0
M  V30 6630 O 609.139 2.41461 -5.16771 0
M  V30 6631 O 608.073 0.655407 -5.98321 0
M  V30 6632 H 611.899 -0.68318 -2.95916 0
M  V30 6633 H 609.484 -0.399784 -1.43952 0
M  V30 6634 H 611.366 1.57911 -3.90694 0
M  V30 6635 H 610.041 1.7498 -2.7233 0
M  V30 6636 H 608.948 -0.339566 -3.72556 0
M  V30 6637 H 610.281 -0.427154 -4.90343 0
M  V30 6638 N 611.933 1.52934 -0.380664 0
M  V30 6639 C 612.88 2.26197 0.458641 0
M  V30 6640 C 613.85 1.27462 1.06502 0
M  V30 6641 O 615.035 1.56274 1.09467 0
M  V30 6642 C 612.175 3.06571 1.58456 0
M  V30 6643 C 611.288 4.20222 1.00189 0
M  V30 6644 C 610.423 4.88007 2.09815 0
M  V30 6645 C 609.462 5.93665 1.49092 0
M  V30 6646 N 608.599 6.55081 2.52613 0
M  V30 6647 H 613.439 2.975 -0.172595 0
M  V30 6648 H 610.976 1.4678 -0.0969426 0
M  V30 6649 H 612.934 3.51455 2.24801 0
M  V30 6650 H 611.564 2.37494 2.18624 0
M  V30 6651 H 610.616 3.79714 0.228292 0
M  V30 6652 H 611.928 4.96102 0.518064 0
M  V30 6653 H 611.082 5.36151 2.83948 0
M  V30 6654 H 609.821 4.11632 2.61555 0
M  V30 6655 H 608.826 5.44868 0.7348 0
M  V30 6656 H 610.051 6.71969 0.981582 0
M  V30 6657 H 607.997 5.8155 3.03538 0
M  V30 6658 H 607.914 7.26548 2.08961 0
M  V30 6659 H 609.182 7.07871 3.26402 0
M  V30 6660 N 613.412 0.11024 1.57214 0
M  V30 6661 C 614.36 -0.860586 2.16094 0
M  V30 6662 C 615.354 -1.28156 1.1078 0
M  V30 6663 O 616.56 -1.25433 1.29099 0
M  V30 6664 H 612.935 -0.295606 0.691463 0
M  V30 6665 H 614.906 -0.33942 2.96463 0
M  V30 6666 C 613.655 -2.10421 2.768 0
M  V30 6667 H 612.978 -1.7892 3.5753 0
M  V30 6668 H 614.418 -2.76375 3.21547 0
M  V30 6669 C 612.877 -2.88823 1.73444 0
M  V30 6670 O 613.407 -3.839 1.18251 0
M  V30 6671 N 611.613 -2.52649 1.43586 0
M  V30 6672 H 611.16 -1.754 1.8866 0
M  V30 6673 H 611.118 -3.05403 0.746735 0
M  V30 6674 N 614.89 -1.56749 -0.16351 0
M  V30 6675 C 615.853 -1.96121 -1.18613 0
M  V30 6676 C 616.853 -0.845765 -1.36761 0
M  V30 6677 O 618.043 -1.11268 -1.34033 0
M  V30 6678 C 615.175 -2.26282 -2.54969 0
M  V30 6679 H 616.368 -2.87639 -0.848764 0
M  V30 6680 H 613.921 -1.50928 -0.406251 0
M  V30 6681 H 614.656 -1.37504 -2.93706 0
M  V30 6682 H 614.441 -3.07595 -2.43162 0
M  V30 6683 H 615.931 -2.57638 -3.28653 0
M  V30 6684 N 616.368 0.432326 -1.51554 0
M  V30 6685 C 617.784 0.769195 -1.39841 0
M  V30 6686 C 617.984 1.95584 -0.484675 0
M  V30 6687 O 617.04 2.52433 0.0582829 0
M  V30 6688 C 618.353 1.04487 -2.81963 0
M  V30 6689 C 619.901 1.149 -2.91148 0
M  V30 6690 C 620.376 1.45758 -4.34187 0
M  V30 6691 N 621.867 1.52671 -4.37317 0
M  V30 6692 C 622.602 1.78129 -5.4503 0
M  V30 6693 N 622.098 2.01345 -6.62897 0
M  V30 6694 N 623.891 1.79953 -5.32516 0
M  V30 6695 H 616.042 -0.349122 -2.09511 0
M  V30 6696 H 618.305 -0.0938113 -0.943347 0
M  V30 6697 H 618.011 0.24557 -3.50842 0
M  V30 6698 H 617.885 1.97119 -3.21596 0
M  V30 6699 H 620.272 1.93891 -2.22464 0
M  V30 6700 H 620.353 0.201568 -2.55005 0
M  V30 6701 H 619.997 0.672917 -5.03423 0
M  V30 6702 H 619.927 2.41715 -4.67848 0
M  V30 6703 H 622.418 1.36612 -3.52343 0
M  V30 6704 H 622.731 2.20155 -7.40778 0
M  V30 6705 H 621.076 1.98657 -6.66003 0
M  V30 6706 H 624.267 1.61337 -4.39418 0
M  V30 6707 H 624.44 1.99455 -6.1654 0
M  V30 6708 N 617.846 1.41785 0.688094 0
M  V30 6709 C 618.778 1.40159 1.81351 0
M  V30 6710 C 619.791 0.30262 1.59963 0
M  V30 6711 O 620.98 0.564841 1.69327 0
M  V30 6712 C 618.08 1.16517 3.1824 0
M  V30 6713 C 617.253 2.38597 3.66593 0
M  V30 6714 C 616.312 2.10699 4.82174 0
M  V30 6715 O 615.338 2.83798 4.93404 0
M  V30 6716 N 616.54 1.10187 5.69947 0
M  V30 6717 H 619.305 2.3716 1.83236 0
M  V30 6718 H 616.866 1.36494 0.870697 0
M  V30 6719 H 618.858 0.957941 3.93199 0
M  V30 6720 H 617.428 0.280873 3.11336 0
M  V30 6721 H 616.648 2.74974 2.82459 0
M  V30 6722 H 617.936 3.19919 3.95638 0
M  V30 6723 H 617.334 0.497016 5.63512 0
M  V30 6724 H 615.891 0.954518 6.44773 0
M  V30 6725 N 619.324 -0.923095 1.27737 0
M  V30 6726 C 620.74 -1.19985 1.05241 0
M  V30 6727 C 620.94 -2.00391 -0.21113 0
M  V30 6728 O 619.996 -2.35324 -0.915366 0
M  V30 6729 C 621.309 -1.94352 2.29451 0
M  V30 6730 C 622.857 -2.07273 2.34536 0
M  V30 6731 C 623.332 -2.85046 3.58487 0
M  V30 6732 N 624.823 -2.92612 3.59072 0
M  V30 6733 C 625.558 -3.53266 4.51654 0
M  V30 6734 N 625.054 -4.15274 5.54545 0
M  V30 6735 N 626.847 -3.50714 4.39268 0
M  V30 6736 H 618.998 -0.386042 2.08862 0
M  V30 6737 H 621.261 -0.233407 0.918817 0
M  V30 6738 H 620.967 -1.42692 3.21453 0
M  V30 6739 H 620.841 -2.94947 2.3513 0
M  V30 6740 H 623.228 -2.58117 1.43037 0
M  V30 6741 H 623.309 -1.05884 2.32857 0
M  V30 6742 H 622.953 -2.34884 4.50324 0
M  V30 6743 H 622.883 -3.8673 3.57418 0
M  V30 6744 H 625.374 -2.48547 2.84663 0
M  V30 6745 H 625.687 -4.59507 6.21348 0
M  V30 6746 H 624.032 -4.13806 5.58382 0
M  V30 6747 H 627.223 -3.01475 3.58093 0
M  V30 6748 H 627.396 -3.97693 5.1161 0
M  V30 6749 N 620.802 -1.09834 -1.13024 0
M  V30 6750 C 621.732 -0.763451 -2.20666 0
M  V30 6751 C 622.713 0.260778 -1.68089 0
M  V30 6752 O 623.898 0.127915 -1.93778 0
M  V30 6753 C 621.028 -0.187744 -3.46792 0
M  V30 6754 C 619.982 -1.14196 -4.12484 0
M  V30 6755 C 619.308 -0.427755 -5.32986 0
M  V30 6756 C 620.608 -2.48607 -4.59338 0
M  V30 6757 H 622.302 -1.66347 -2.48936 0
M  V30 6758 H 619.848 -0.801261 -1.19649 0
M  V30 6759 H 621.801 0.0586375 -4.21359 0
M  V30 6760 H 620.525 0.747485 -3.17931 0
M  V30 6761 H 619.184 -1.37369 -3.3989 0
M  V30 6762 H 618.832 0.511747 -5.0039 0
M  V30 6763 H 618.532 -1.06403 -5.77886 0
M  V30 6764 H 620.056 -0.189772 -6.10305 0
M  V30 6765 H 621.47 -2.29618 -5.25308 0
M  V30 6766 H 619.867 -3.08062 -5.14993 0
M  V30 6767 H 620.937 -3.09062 -3.73642 0
M  V30 6768 N 622.28 1.30327 -0.886154 0
M  V30 6769 C 623.21 2.30549 -0.370028 0
M  V30 6770 C 624.191 1.61039 0.547751 0
M  V30 6771 O 625.376 1.8864 0.461353 0
M  V30 6772 C 622.506 3.44808 0.415275 0
M  V30 6773 C 621.46 4.26024 -0.41085 0
M  V30 6774 C 620.786 5.32347 0.501128 0
M  V30 6775 C 622.086 4.95433 -1.65359 0
M  V30 6776 H 623.78 2.73969 -1.20754 0
M  V30 6777 H 621.326 1.3171 -0.582097 0
M  V30 6778 H 623.279 4.13986 0.78699 0
M  V30 6779 H 622.003 3.00197 1.28644 0
M  V30 6780 H 620.662 3.58535 -0.764719 0
M  V30 6781 H 620.31 4.83982 1.37004 0
M  V30 6782 H 620.01 5.87581 -0.0478356 0
M  V30 6783 H 621.534 6.0438 0.869333 0
M  V30 6784 H 622.948 5.5712 -1.35239 0
M  V30 6785 H 621.345 5.60537 -2.14284 0
M  V30 6786 H 622.415 4.21493 -2.39733 0
M  V30 6787 N 623.758 0.647228 1.43697 0
M  V30 6788 C 625.035 0.0883758 1.954 0
M  V30 6789 C 625.415 -1.39006 1.58873 0
M  V30 6790 O 624.763 -2.11255 0.87083 0
M  V30 6791 C 624.973 0.328263 3.47453 0
M  V30 6792 C 626.321 0.230009 4.23977 0
M  V30 6793 O 627.345 0.260496 3.55246 0
M  V30 6794 O 626.204 0.148615 5.46298 0
M  V30 6795 H 623.298 -0.0130683 0.826897 0
M  V30 6796 H 625.844 0.72005 1.53666 0
M  V30 6797 H 624.616 1.3535 3.67146 0
M  V30 6798 H 624.239 -0.336772 3.96171 0
M  V30 6799 N 625.236 -1.5273 0.388769 0
M  V30 6800 C 626.461 -2.0647 -0.19621 0
M  V30 6801 C 626.886 -1.25865 -1.39784 0
M  V30 6802 O 626.244 -0.283562 -1.79069 0
M  V30 6803 C 626.292 -3.56456 -0.5451 0
M  V30 6804 O 625.396 -3.78426 -1.63912 0
M  V30 6805 H 624.737 -0.663599 -0.023067 0
M  V30 6806 H 627.267 -1.96898 0.556084 0
M  V30 6807 H 627.277 -3.99888 -0.809557 0
M  V30 6808 H 625.952 -4.14561 0.333417 0
M  V30 6809 H 624.529 -3.46884 -1.36842 0
M  V30 6810 N 626.714 -0.118576 -1.57153 0
M  V30 6811 C 627.939 0.550582 -1.99958 0
M  V30 6812 C 628.364 1.59458 -0.997736 0
M  V30 6813 O 627.722 1.81274 0.0306269 0
M  V30 6814 C 627.77 1.15379 -3.41643 0
M  V30 6815 O 626.874 2.26932 -3.44348 0
M  V30 6816 H 626.215 0.137567 -0.649593 0
M  V30 6817 H 628.745 -0.206926 -2.03551 0
M  V30 6818 H 628.755 1.48942 -3.79843 0
M  V30 6819 H 627.43 0.389087 -4.14076 0
M  V30 6820 H 626.007 1.94812 -3.17967 0
M  V30 6821 N 628.193 1.56834 0.155195 0
M  V30 6822 C 629.433 1.84701 0.875488 0
M  V30 6823 C 629.797 0.701747 1.78716 0
M  V30 6824 O 630.998 0.861263 2.54629 0
M  V30 6825 C 629.269 3.1773 1.63654 0
M  V30 6826 S 630.828 3.67128 2.40338 0
M  V30 6827 H 627.646 0.647856 0.292923 0
M  V30 6828 H 630.248 1.95026 0.136024 0
M  V30 6829 H 628.952 3.99059 0.958117 0
M  V30 6830 H 628.483 3.10388 2.41708 0
M  V30 6831 H 630.498 3.35739 3.65368 0
M  V30 6832 O 629.71 -0.29999 1.58689 0
M  V30 6833 H 630.401 -0.947015 1.68971 0
M  V30 END ATOM
M  V30 BEGIN BOND
M  V30 END BOND
M  V30 END CTAB
M  END
$$$$
