drugbank_target|P31133 Putrescine-binding periplasmic protein (DB01917)
 OpenBabel12092119523D

  0  0  0     0  0            999 V3000
M  V30 BEGIN CTAB
M  V30 COUNTS 5759 5829 0 0 0
M  V30 BEGIN ATOM
M  V30 1 H -0.908 1.98254 -0.117106 0
M  V30 2 N 0 1.576 0 0
M  V30 3 C 0.933 2.03868 1.02534 0
M  V30 4 C 1.911 0.928543 1.3348 0
M  V30 5 O 3.095 1.19667 1.45644 0
M  V30 6 C 0.222 2.43627 2.35294 0
M  V30 7 C -0.732 3.65373 2.2001 0
M  V30 8 S 0.101 5.13292 1.52614 0
M  V30 9 C 1.257 5.56322 2.86805 0
M  V30 10 H 1.49 2.90518 0.631377 0
M  V30 11 H -0.977 1.52953 0.210867 0
M  V30 12 H 0.981 2.67203 3.11629 0
M  V30 13 H -0.358 1.57376 2.7183 0
M  V30 14 H -1.165 3.90944 3.18086 0
M  V30 15 H -1.563 3.418 1.51819 0
M  V30 16 H 0.729 5.58782 3.83104 0
M  V30 17 H 1.672 6.56266 2.65933 0
M  V30 18 H 2.08 4.83886 2.90714 0
M  V30 19 N 1.4781 -0.272755 1.55222 0
M  V30 20 C 2.7061 -1.02255 1.79865 0
M  V30 21 C 3.1211 -1.79924 0.572088 0
M  V30 22 O 2.4781 -1.76638 -0.458842 0
M  V30 23 C 2.5291 -1.98094 3.02392 0
M  V30 24 O 2.2501 -1.23572 4.20311 0
M  V30 25 C 3.7511 -2.84884 3.39641 0
M  V30 26 H 0.9711 -0.302057 0.599168 0
M  V30 27 H 3.5151 -0.303465 2.02236 0
M  V30 28 H 1.6701 -2.65465 2.82147 0
M  V30 29 H 2.0841 -1.88172 4.89583 0
M  V30 30 H 3.5581 -3.47927 4.28545 0
M  V30 31 H 4.0351 -3.54665 2.59055 0
M  V30 32 H 4.6411 -2.23003 3.62146 0
M  V30 33 N 2.9562 -1.48159 -0.537278 0
M  V30 34 C 3.9192 -1.61665 -1.62472 0
M  V30 35 C 4.9192 -0.490395 -1.5314 0
M  V30 36 O 6.1092 -0.755998 -1.5694 0
M  V30 37 C 3.2412 -1.57997 -3.02076 0
M  V30 38 H 4.4342 -2.58621 -1.51839 0
M  V30 39 H 1.9872 -1.36647 -0.758771 0
M  V30 40 H 2.7222 -0.624913 -3.18222 0
M  V30 41 H 2.5072 -2.39755 -3.10258 0
M  V30 42 H 3.9972 -1.70627 -3.81151 0
M  V30 43 N 4.4343 0.785586 -1.36625 0
M  V30 44 C 5.3643 1.91259 -1.33949 0
M  V30 45 C 6.3453 1.68795 -0.210325 0
M  V30 46 O 7.5303 1.89854 -0.408561 0
M  V30 47 C 4.6603 3.28339 -1.13186 0
M  V30 48 C 3.6143 3.65335 -2.22967 0
M  V30 49 C 2.9403 5.00806 -1.87342 0
M  V30 50 C 4.2403 3.7352 -3.65075 0
M  V30 51 H 5.9343 1.93755 -2.28253 0
M  V30 52 H 3.4803 0.930788 -1.09874 0
M  V30 53 H 5.4333 4.06804 -1.09948 0
M  V30 54 H 4.1573 3.2624 -0.153332 0
M  V30 55 H 2.8163 2.89169 -2.25337 0
M  V30 56 H 2.4643 4.95233 -0.880545 0
M  V30 57 H 2.1643 5.26529 -2.60846 0
M  V30 58 H 3.6883 5.81687 -1.85667 0
M  V30 59 H 5.1023 4.42168 -3.64911 0
M  V30 60 H 3.4993 4.10731 -4.37516 0
M  V30 61 H 4.5693 2.74527 -3.99703 0
M  V30 62 N 5.9124 1.20967 1.01018 0
M  V30 63 C 6.8604 0.961223 2.1181 0
M  V30 64 C 7.8544 -0.0897034 1.69162 0
M  V30 65 O 9.0604 0.0612271 1.79896 0
M  V30 66 H 5.4354 0.29355 0.692338 0
M  V30 67 H 7.4064 1.90178 2.29946 0
M  V30 68 C 6.1554 0.536854 3.4353 0
M  V30 69 H 5.4784 1.33713 3.76777 0
M  V30 70 H 6.9184 0.402286 4.22087 0
M  V30 71 C 5.3774 -0.751574 3.2841 0
M  V30 72 O 5.9074 -1.80841 3.58691 0
M  V30 73 N 4.1134 -0.716079 2.81639 0
M  V30 74 H 3.6604 0.144236 2.57196 0
M  V30 75 H 3.6184 -1.57847 2.71904 0
M  V30 76 N 7.3905 -1.2043 1.01659 0
M  V30 77 C 8.3375 -2.23215 0.586822 0
M  V30 78 C 9.3075 -1.61382 -0.393085 0
M  V30 79 O 10.4925 -1.88544 -0.292525 0
M  V30 80 C 7.6325 -3.45032 -0.0687464 0
M  V30 81 C 6.7455 -4.21296 0.955724 0
M  V30 82 C 5.8805 -5.30507 0.271208 0
M  V30 83 C 4.9195 -5.98515 1.28244 0
M  V30 84 N 4.0565 -6.99316 0.62459 0
M  V30 85 H 8.8965 -2.59336 1.46796 0
M  V30 86 H 6.4335 -1.27431 0.734836 0
M  V30 87 H 8.3915 -4.1459 -0.465965 0
M  V30 88 H 7.0215 -3.09604 -0.913529 0
M  V30 89 H 6.0735 -3.50803 1.4711 0
M  V30 90 H 7.3855 -4.6803 1.72479 0
M  V30 91 H 6.5395 -6.06428 -0.18151 0
M  V30 92 H 5.2785 -4.8481 -0.530163 0
M  V30 93 H 4.2835 -5.21355 1.74554 0
M  V30 94 H 5.5085 -6.46298 2.08509 0
M  V30 95 H 3.4545 -6.55812 -0.156914 0
M  V30 96 H 3.3715 -7.44178 1.33172 0
M  V30 97 H 4.6395 -7.79255 0.195462 0
M  V30 98 N 8.8686 -0.792821 -1.36206 0
M  V30 99 C 9.8156 -0.191653 -2.30003 0
M  V30 100 C 10.7856 0.666453 -1.52143 0
M  V30 101 O 11.9706 0.61442 -1.80636 0
M  V30 102 C 9.1106 0.664848 -3.38635 0
M  V30 103 C 8.2236 -0.212175 -4.31479 0
M  V30 104 C 7.3586 0.651022 -5.27196 0
M  V30 105 C 6.3976 -0.227247 -6.11678 0
M  V30 106 N 5.5346 0.595127 -6.99573 0
M  V30 107 H 10.3746 -0.996978 -2.80828 0
M  V30 108 H 7.9116 -0.503206 -1.38225 0
M  V30 109 H 9.8696 1.17645 -4.00269 0
M  V30 110 H 8.4996 1.43557 -2.89122 0
M  V30 111 H 7.5516 -0.841777 -3.70969 0
M  V30 112 H 8.8636 -0.888751 -4.90818 0
M  V30 113 H 8.0176 1.2283 -5.94136 0
M  V30 114 H 6.7566 1.36121 -4.68319 0
M  V30 115 H 5.7616 -0.816904 -5.43697 0
M  V30 116 H 6.9866 -0.93509 -6.72631 0
M  V30 117 H 4.9326 1.28955 -6.432 0
M  V30 118 H 4.8496 -0.0236952 -7.55996 0
M  V30 119 H 6.1176 1.15613 -7.70879 0
M  V30 120 N 10.3467 1.47872 -0.545128 0
M  V30 121 C 11.5927 2.03385 -0.0247951 0
M  V30 122 C 11.9477 1.41325 1.30556 0
M  V30 123 O 11.2407 0.5552 1.8338 0
M  V30 124 C 11.4347 3.57131 0.13867 0
M  V30 125 C 11.2637 4.34097 -1.17429 0
M  V30 126 C 10.0337 4.74458 -1.73831 0
M  V30 127 C 12.2317 4.6998 -2.08861 0
M  V30 128 N 10.2137 5.3602 -2.99258 0
M  V30 129 C 11.5847 5.31719 -3.18866 0
M  V30 130 C 13.6397 4.5191 -2.09003 0
M  V30 131 C 12.3427 5.77295 -4.29096 0
M  V30 132 C 14.3687 4.98477 -3.18237 0
M  V30 133 C 13.7307 5.60253 -4.26961 0
M  V30 134 H 9.8297 0.780339 -0.050943 0
M  V30 135 H 12.4137 1.80507 -0.729753 0
M  V30 136 H 10.5847 3.79802 0.812733 0
M  V30 137 H 12.3167 3.99282 0.659976 0
M  V30 138 H 9.0717 4.56037 -1.2778 0
M  V30 139 H 9.4957 5.71355 -3.63157 0
M  V30 140 H 14.1377 4.03516 -1.26234 0
M  V30 141 H 11.8557 6.24687 -5.12633 0
M  V30 142 H 15.4417 4.86274 -3.1942 0
M  V30 143 H 14.3217 5.95631 -5.10091 0
M  V30 144 N 11.8248 0.280983 1.55075 0
M  V30 145 C 12.7548 -0.597469 2.25727 0
M  V30 146 C 13.7358 -1.15417 1.24952 0
M  V30 147 O 14.9208 -1.18722 1.53684 0
M  V30 148 C 12.0508 -1.7789 2.98283 0
M  V30 149 C 11.0048 -1.35347 4.06036 0
M  V30 150 C 10.3308 -2.61846 4.66198 0
M  V30 151 C 11.6308 -0.499354 5.19907 0
M  V30 152 H 13.3248 -0.00824265 2.99399 0
M  V30 153 H 10.8708 -0.0025244 1.44 0
M  V30 154 H 12.8238 -2.39937 3.46422 0
M  V30 155 H 11.5478 -2.39405 2.22155 0
M  V30 156 H 10.2068 -0.756156 3.58717 0
M  V30 157 H 9.8548 -3.21632 3.86732 0
M  V30 158 H 9.5548 -2.3409 5.38958 0
M  V30 159 H 11.0788 -3.24732 5.1709 0
M  V30 160 H 12.4928 -1.02498 5.64063 0
M  V30 161 H 10.8898 -0.316424 5.99265 0
M  V30 162 H 11.9598 0.480459 4.82514 0
M  V30 163 N 13.3029 -1.57598 0.00835791 0
M  V30 164 C 14.5279 -1.95617 -0.689103 0
M  V30 165 C 14.9529 -0.883753 -1.66046 0
M  V30 166 O 14.3109 0.157352 -1.80616 0
M  V30 167 C 14.3589 -3.32736 -1.38994 0
M  V30 168 O 13.4629 -3.27631 -2.50463 0
M  V30 169 H 12.8039 -0.638379 -0.182668 0
M  V30 170 H 15.3339 -2.045 0.064036 0
M  V30 171 H 15.3439 -3.68494 -1.75147 0
M  V30 172 H 14.0189 -4.1034 -0.677778 0
M  V30 173 H 12.5959 -3.03561 -2.16576 0
M  V30 174 N 14.781 0.264519 -1.55364 0
M  V30 175 C 16.029 0.993021 -1.76021 0
M  V30 176 C 16.35 1.86511 -0.569099 0
M  V30 177 O 15.62 1.91438 0.415735 0
M  V30 178 H 14.2 0.369639 -0.649135 0
M  V30 179 H 16.862 0.286707 -1.9278 0
M  V30 180 H 15.958 1.62502 -2.66457 0
M  V30 181 N 16.2591 1.48442 0.529413 0
M  V30 182 C 17.1891 1.65902 1.64313 0
M  V30 183 C 18.1701 0.507897 1.6234 0
M  V30 184 O 19.3551 0.740503 1.79528 0
M  V30 185 C 16.4851 1.69911 3.02898 0
M  V30 186 C 15.4391 2.8453 3.19729 0
M  V30 187 C 14.7651 2.73629 4.59381 0
M  V30 188 C 16.0651 4.25821 3.02447 0
M  V30 189 H 17.7591 2.5914 1.49955 0
M  V30 190 H 15.3051 1.24709 0.719982 0
M  V30 191 H 17.2581 1.80715 3.80684 0
M  V30 192 H 15.9821 0.732524 3.18279 0
M  V30 193 H 14.6411 2.73283 2.44361 0
M  V30 194 H 14.2891 1.74938 4.71599 0
M  V30 195 H 13.9891 3.50541 4.71588 0
M  V30 196 H 15.5131 2.86401 5.39265 0
M  V30 197 H 16.9271 4.37898 3.70024 0
M  V30 198 H 15.3241 5.03735 3.26146 0
M  V30 199 H 16.3941 4.42244 1.98867 0
M  V30 200 N 17.7372 -0.778329 1.37039 0
M  V30 201 C 18.9832 -1.53892 1.32079 0
M  V30 202 C 19.3162 -1.9396 -0.0965386 0
M  V30 203 O 18.5912 -1.63568 -1.05242 0
M  V30 204 C 18.8742 -2.80847 2.25382 0
M  V30 205 C 18.7272 -2.47076 3.75864 0
M  V30 206 C 20.0462 -3.82741 2.1725 0
M  V30 207 H 17.1652 -0.558303 0.48111 0
M  V30 208 H 19.8072 -0.893397 1.67685 0
M  V30 209 H 17.9572 -3.35931 1.95148 0
M  V30 210 H 19.6292 -1.97957 4.16666 0
M  V30 211 H 17.8722 -1.79863 3.94755 0
M  V30 212 H 18.5432 -3.37798 4.36574 0
M  V30 213 H 21.0192 -3.37133 2.43887 0
M  V30 214 H 19.8952 -4.69303 2.84686 0
M  V30 215 H 20.1562 -4.2652 1.16331 0
M  V30 216 N 19.2153 -1.21501 -1.00376 0
M  V30 217 C 20.1783 -0.976927 -2.07337 0
M  V30 218 C 21.1783 0.0525322 -1.60714 0
M  V30 219 O 22.3683 -0.184869 -1.73216 0
M  V30 220 C 19.5003 -0.473423 -3.37597 0
M  V30 221 H 20.6933 -1.92587 -2.29892 0
M  V30 222 H 18.2463 -1.03217 -1.17371 0
M  V30 223 H 18.9813 0.480379 -3.20722 0
M  V30 224 H 18.7663 -1.216 -3.72768 0
M  V30 225 H 20.2563 -0.32675 -4.1632 0
M  V30 226 N 20.6934 1.19889 -1.02296 0
M  V30 227 C 21.9414 1.89046 -0.714558 0
M  V30 228 C 22.2624 1.79636 0.758681 0
M  V30 229 O 21.5324 1.20292 1.54618 0
M  V30 230 H 20.1124 0.699802 -0.261317 0
M  V30 231 H 22.7744 1.45574 -1.29592 0
M  V30 232 H 21.8704 2.95524 -1.0036 0
M  V30 233 N 22.1715 0.800033 1.35784 0
M  V30 234 C 23.1345 0.211565 2.28221 0
M  V30 235 C 24.1345 -0.59728 1.49296 0
M  V30 236 O 25.3245 -0.416721 1.69142 0
M  V30 237 C 22.4565 -0.705846 3.33513 0
M  V30 238 H 23.6495 1.02677 2.81776 0
M  V30 239 H 21.2025 0.570211 1.45528 0
M  V30 240 H 21.9375 -1.54498 2.85133 0
M  V30 241 H 21.7225 -0.127655 3.91892 0
M  V30 242 H 23.2125 -1.11211 4.02519 0
M  V30 243 N 23.6496 -1.47581 0.552962 0
M  V30 244 C 24.5796 -2.32762 -0.185451 0
M  V30 245 C 25.5606 -1.43527 -0.912905 0
M  V30 246 O 26.7456 -1.72388 -0.894201 0
M  V30 247 C 23.8756 -3.25219 -1.21859 0
M  V30 248 C 22.8296 -4.23661 -0.607864 0
M  V30 249 C 22.1556 -5.05413 -1.74533 0
M  V30 250 C 23.4556 -5.20481 0.435582 0
M  V30 251 H 25.1496 -2.94749 0.525684 0
M  V30 252 H 22.6956 -1.41738 0.254251 0
M  V30 253 H 24.6486 -3.8365 -1.7433 0
M  V30 254 H 23.3726 -2.61279 -1.95961 0
M  V30 255 H 22.0316 -3.66451 -0.104489 0
M  V30 256 H 21.6796 -4.3788 -2.47529 0
M  V30 257 H 21.3796 -5.72059 -1.34249 0
M  V30 258 H 22.9036 -5.66701 -2.27338 0
M  V30 259 H 24.3176 -5.733 -0.00290157 0
M  V30 260 H 22.7146 -5.95305 0.757067 0
M  V30 261 H 23.7846 -4.66217 1.33303 0
M  V30 262 N 25.1277 -0.289203 -1.54924 0
M  V30 263 C 26.0607 0.633823 -2.19221 0
M  V30 264 C 27.0387 1.14174 -1.15772 0
M  V30 265 O 28.2227 1.21211 -1.44361 0
M  V30 266 C 25.3497 1.86592 -2.82668 0
M  V30 267 C 24.3957 1.49227 -3.99542 0
M  V30 268 S 25.2287 0.558312 -5.32582 0
M  V30 269 C 26.3847 1.79847 -5.99505 0
M  V30 270 H 26.6177 0.0875416 -2.97171 0
M  V30 271 H 24.1507 -0.0733899 -1.54225 0
M  V30 272 H 26.1087 2.57305 -3.19851 0
M  V30 273 H 24.7697 2.38335 -2.04585 0
M  V30 274 H 23.9627 2.40945 -4.42676 0
M  V30 275 H 23.5647 0.865193 -3.63855 0
M  V30 276 H 25.8567 2.7406 -6.19595 0
M  V30 277 H 26.7997 1.4099 -6.93922 0
M  V30 278 H 27.2077 1.96982 -5.29016 0
M  V30 279 N 26.6058 1.57591 -0.0167156 0
M  V30 280 C 27.5688 2.08393 0.954204 0
M  V30 281 C 28.5688 0.996531 1.26198 0
M  V30 282 O 29.7588 1.25858 1.20438 0
M  V30 283 C 26.8908 2.5394 2.27436 0
M  V30 284 H 28.0838 2.95455 0.514451 0
M  V30 285 H 25.6368 1.54582 0.231089 0
M  V30 286 H 26.3718 1.70171 2.76066 0
M  V30 287 H 26.1568 3.33371 2.06412 0
M  V30 288 H 27.6468 2.93512 2.97053 0
M  V30 289 N 28.0839 -0.256276 1.55502 0
M  V30 290 C 29.3299 -0.987079 1.77157 0
M  V30 291 C 29.6629 -1.85327 0.580315 0
M  V30 292 O 28.9379 -1.89874 -0.421686 0
M  V30 293 C 29.2209 -1.85553 3.08613 0
M  V30 294 C 29.0739 -1.01816 4.38125 0
M  V30 295 C 30.3929 -2.8397 3.36228 0
M  V30 296 H 27.5119 -0.357428 0.644526 0
M  V30 297 H 30.1539 -0.258239 1.88237 0
M  V30 298 H 28.3039 -2.47695 2.99298 0
M  V30 299 H 29.9759 -0.416159 4.59419 0
M  V30 300 H 28.2189 -0.322178 4.32602 0
M  V30 301 H 28.8899 -1.65939 5.26468 0
M  V30 302 H 31.3659 -2.31964 3.45445 0
M  V30 303 H 30.2419 -3.41864 4.29442 0
M  V30 304 H 30.5029 -3.59955 2.56681 0
M  V30 305 N 29.562 -1.4872 -0.521534 0
M  V30 306 C 30.787 -1.61101 -1.30618 0
M  V30 307 C 31.212 -0.274611 -1.86085 0
M  V30 308 O 30.57 0.754937 -1.64834 0
M  V30 309 C 30.618 -2.66709 -2.4269 0
M  V30 310 O 29.722 -2.24456 -3.45967 0
M  V30 311 H 29.063 -0.539921 -0.386499 0
M  V30 312 H 31.593 -1.94767 -0.626645 0
M  V30 313 H 31.603 -2.88245 -2.88754 0
M  V30 314 H 30.278 -3.63727 -2.01682 0
M  V30 315 H 28.855 -2.13168 -3.05964 0
M  V30 316 N 31.0401 0.771051 -1.3745 0
M  V30 317 C 32.2861 1.5319 -1.32894 0
M  V30 318 C 32.6191 1.94008 0.0862511 0
M  V30 319 O 31.8941 1.64124 1.04373 0
M  V30 320 C 32.1771 2.79648 -2.26868 0
M  V30 321 C 32.0301 2.45079 -3.77169 0
M  V30 322 C 33.3491 3.81583 -2.19277 0
M  V30 323 H 30.4681 0.555744 -0.484064 0
M  V30 324 H 33.1101 0.884492 -1.68157 0
M  V30 325 H 31.2601 3.34891 -1.96926 0
M  V30 326 H 32.9321 1.95745 -4.1771 0
M  V30 327 H 31.1751 1.77767 -3.95704 0
M  V30 328 H 31.8461 3.35478 -4.38359 0
M  V30 329 H 34.3221 3.35835 -2.45671 0
M  V30 330 H 33.1981 4.67787 -2.87171 0
M  V30 331 H 33.4591 4.25897 -1.18592 0
M  V30 332 N 32.5182 1.22032 0.997298 0
M  V30 333 C 33.7662 1.04016 1.73278 0
M  V30 334 C 34.0872 -0.426255 1.90284 0
M  V30 335 O 33.3572 -1.30694 1.45931 0
M  V30 336 H 31.9372 0.381897 0.642 0
M  V30 337 H 34.5992 1.5347 1.20137 0
M  V30 338 H 33.6952 1.51441 2.72896 0
M  V30 339 N 33.9963 -1.19345 1.0293 0
M  V30 340 C 35.2243 -1.92997 0.745644 0
M  V30 341 C 35.6393 -1.75519 -0.695589 0
M  V30 342 O 34.9963 -1.07737 -1.47306 0
M  V30 343 C 35.0473 -3.44741 1.08792 0
M  V30 344 O 34.7683 -3.61658 2.47256 0
M  V30 345 C 36.2693 -4.35515 0.827129 0
M  V30 346 H 33.4893 -0.613042 0.272801 0
M  V30 347 H 36.0333 -1.51473 1.3739 0
M  V30 348 H 34.1883 -3.84097 0.504832 0
M  V30 349 H 34.6023 -4.55514 2.60015 0
M  V30 350 H 36.0763 -5.40589 1.11658 0
M  V30 351 H 36.5533 -4.38552 -0.238436 0
M  V30 352 H 37.1593 -4.01841 1.39297 0
M  V30 353 N 35.4744 -0.807222 -1.35358 0
M  V30 354 C 36.4044 -0.232509 -2.3234 0
M  V30 355 C 37.3854 0.642386 -1.57504 0
M  V30 356 O 38.5704 0.572526 -1.85569 0
M  V30 357 C 35.7004 0.619238 -3.41735 0
M  V30 358 C 34.6544 -0.157215 -4.27711 0
M  V30 359 C 33.9804 0.816273 -5.28433 0
M  V30 360 C 35.2804 -1.35656 -5.04376 0
M  V30 361 H 36.9744 -1.04276 -2.80654 0
M  V30 362 H 34.5204 -0.50288 -1.34934 0
M  V30 363 H 36.4734 1.03137 -4.08584 0
M  V30 364 H 35.1974 1.46239 -2.92031 0
M  V30 365 H 33.8564 -0.550525 -3.62443 0
M  V30 366 H 33.5044 1.65494 -4.74996 0
M  V30 367 H 33.2044 0.301067 -5.86828 0
M  V30 368 H 34.7284 1.22659 -5.98153 0
M  V30 369 H 36.1424 -1.01927 -5.64166 0
M  V30 370 H 34.5394 -1.8063 -5.7227 0
M  V30 371 H 35.6094 -2.14288 -4.34981 0
M  V30 372 N 36.9525 1.47285 -0.560781 0
M  V30 373 C 37.9155 2.28535 0.174488 0
M  V30 374 C 38.9155 1.37153 0.839388 0
M  V30 375 O 40.1055 1.59748 0.694702 0
M  V30 376 C 37.2375 3.16934 1.25561 0
M  V30 377 H 38.4305 2.95012 -0.539262 0
M  V30 378 H 35.9835 1.53034 -0.317865 0
M  V30 379 H 36.7185 2.55157 2.00164 0
M  V30 380 H 36.5035 3.8419 0.783604 0
M  V30 381 H 37.9935 3.78143 1.77193 0
M  V30 382 N 38.4306 0.297415 1.54768 0
M  V30 383 C 39.3936 -0.567375 2.22066 0
M  V30 384 C 40.3936 -1.06409 1.20556 0
M  V30 385 O 41.5836 -0.960691 1.45315 0
M  V30 386 C 38.7156 -1.78517 2.90421 0
M  V30 387 H 39.9086 0.0205534 2.99893 0
M  V30 388 H 37.4616 0.0482163 1.56226 0
M  V30 389 H 38.1966 -2.41303 2.16664 0
M  V30 390 H 37.9816 -1.43669 3.64831 0
M  V30 391 H 39.4716 -2.39964 3.41771 0
M  V30 392 N 39.9087 -1.5758 0.0250728 0
M  V30 393 C 40.8187 -2.1343 -0.973905 0
M  V30 394 C 41.8347 -1.08556 -1.35984 0
M  V30 395 O 43.0107 -1.40592 -1.44207 0
M  V30 396 C 40.0757 -2.64703 -2.23904 0
M  V30 397 C 39.1367 -3.84276 -1.91391 0
M  V30 398 C 38.3697 -4.33095 -3.11873 0
M  V30 399 O 38.5927 -3.81107 -4.24398 0
M  V30 400 O 37.5267 -5.24984 -2.94406 0
M  V30 401 H 41.3527 -2.99057 -0.529036 0
M  V30 402 H 38.9377 -1.48118 -0.195288 0
M  V30 403 H 40.8197 -2.97769 -2.98181 0
M  V30 404 H 39.4947 -1.82161 -2.6758 0
M  V30 405 H 38.4017 -3.56143 -1.14511 0
M  V30 406 H 39.7347 -4.67968 -1.52534 0
M  V30 407 N 41.3868 0.248026 -1.55636 0
M  V30 408 C 42.3188 1.32993 -1.8667 0
M  V30 409 C 43.3318 1.44345 -0.752877 0
M  V30 410 O 44.5208 1.45715 -1.03098 0
M  V30 411 C 41.6208 2.70863 -2.03682 0
M  V30 412 C 40.7938 2.81792 -3.34532 0
M  V30 413 C 39.8528 4.005 -3.41301 0
M  V30 414 O 38.8788 3.9008 -4.14519 0
M  V30 415 N 40.0808 5.13618 -2.70512 0
M  V30 416 H 42.8458 1.06707 -2.8006 0
M  V30 417 H 40.4068 0.438129 -1.55859 0
M  V30 418 H 42.3988 3.48612 -2.05553 0
M  V30 419 H 40.9688 2.89862 -1.17041 0
M  V30 420 H 40.1888 1.90729 -3.44987 0
M  V30 421 H 41.4768 2.86043 -4.20781 0
M  V30 422 H 40.8748 5.24975 -2.10755 0
M  V30 423 H 39.4318 5.89505 -2.78077 0
M  V30 424 N 42.8649 1.48995 0.513639 0
M  V30 425 C 43.8119 1.6473 1.61656 0
M  V30 426 C 44.7819 0.488984 1.58739 0
M  V30 427 O 45.9669 0.714478 1.76918 0
M  V30 428 C 43.1069 1.7082 2.99858 0
M  V30 429 C 42.2199 2.9787 3.12885 0
M  V30 430 C 41.3549 2.95017 4.41744 0
M  V30 431 C 40.3939 4.16702 4.48359 0
M  V30 432 N 39.5309 4.11832 5.68629 0
M  V30 433 H 44.3709 2.58909 1.47547 0
M  V30 434 H 41.9079 1.28382 0.71808 0
M  V30 435 H 43.8659 1.72331 3.79944 0
M  V30 436 H 42.4959 0.801181 3.12699 0
M  V30 437 H 41.5479 3.06029 2.25944 0
M  V30 438 H 42.8599 3.8786 3.13633 0
M  V30 439 H 42.0139 2.95021 5.30139 0
M  V30 440 H 40.7529 2.02784 4.43542 0
M  V30 441 H 39.7579 4.16955 3.58369 0
M  V30 442 H 40.9829 5.10113 4.48287 0
M  V30 443 H 38.9289 3.22428 5.71293 0
M  V30 444 H 38.8459 4.95543 5.7094 0
M  V30 445 H 40.1139 4.1592 6.59266 0
M  V30 446 N 44.343 -0.763751 1.37857 0
M  V30 447 C 45.571 -1.55293 1.36718 0
M  V30 448 C 45.986 -1.88745 -0.0455434 0
M  V30 449 O 45.343 -1.52039 -1.00947 0
M  V30 450 C 45.394 -2.85831 2.2132 0
M  V30 451 O 45.115 -2.5381 3.57089 0
M  V30 452 C 46.616 -3.80023 2.28249 0
M  V30 453 H 43.836 -0.480841 0.468009 0
M  V30 454 H 46.38 -0.946009 1.81303 0
M  V30 455 H 44.535 -3.42926 1.80223 0
M  V30 456 H 44.949 -3.37459 4.01524 0
M  V30 457 H 46.423 -4.68599 2.91752 0
M  V30 458 H 46.9 -4.1973 1.2932 0
M  V30 459 H 47.506 -3.28855 2.69693 0
M  V30 460 N 45.8211 -1.22559 -0.990812 0
M  V30 461 C 46.7511 -1.0218 -2.09956 0
M  V30 462 C 47.7321 0.0579394 -1.70001 0
M  V30 463 O 48.9171 -0.104684 -1.93918 0
M  V30 464 C 46.0471 -0.601023 -3.4206 0
M  V30 465 C 45.0011 -1.62694 -3.95872 0
M  V30 466 C 44.3271 -1.06193 -5.24049 0
M  V30 467 C 45.6271 -3.01743 -4.2632 0
M  V30 468 H 47.3211 -1.94916 -2.27262 0
M  V30 469 H 44.8671 -0.938566 -1.09211 0
M  V30 470 H 46.8201 -0.445561 -4.19038 0
M  V30 471 H 45.5441 0.362005 -3.24588 0
M  V30 472 H 44.2031 -1.77021 -3.21028 0
M  V30 473 H 43.8511 -0.0901903 -5.02919 0
M  V30 474 H 43.5511 -1.74732 -5.61019 0
M  V30 475 H 45.0751 -0.918092 -6.03658 0
M  V30 476 H 46.4891 -2.90777 -4.94087 0
M  V30 477 H 44.8861 -3.67425 -4.74467 0
M  V30 478 H 45.9561 -3.51518 -3.34011 0
M  V30 479 N 47.2992 1.18797 -1.03562 0
M  V30 480 C 48.2492 2.20161 -0.592724 0
M  V30 481 C 49.2332 1.56772 0.362133 0
M  V30 482 O 50.4252 1.76062 0.182009 0
M  V30 483 C 47.5542 3.43266 0.0481024 0
M  V30 484 C 46.6402 4.13786 -0.9296 0
M  V30 485 N 47.0312 4.60388 -2.09467 0
M  V30 486 C 45.3292 4.39572 -0.754499 0
M  V30 487 C 46.0302 5.14619 -2.71187 0
M  V30 488 N 45.0062 5.05826 -1.991 0
M  V30 489 H 48.8082 2.53877 -1.48066 0
M  V30 490 H 46.3222 1.34946 -0.903514 0
M  V30 491 H 48.3192 4.15136 0.383058 0
M  V30 492 H 46.9792 3.11048 0.931636 0
M  V30 493 H 47.9902 4.54999 -2.47379 0
M  V30 494 H 44.6672 4.17425 0.0793713 0
M  V30 495 H 46.0572 5.60917 -3.69895 0
M  V30 496 N 48.7773 0.814389 1.34928 0
M  V30 497 C 50.0263 0.394871 1.97797 0
M  V30 498 C 50.3393 -1.04555 1.65311 0
M  V30 499 O 51.5453 -1.56856 2.21604 0
M  V30 500 C 50.0013 0.655103 3.53888 0
M  V30 501 C 49.6093 2.10858 3.95276 0
M  V30 502 C 51.3533 0.301329 4.23429 0
M  V30 503 C 49.2603 2.31415 5.44244 0
M  V30 504 H 48.1903 0.143913 0.740139 0
M  V30 505 H 50.8413 0.999544 1.53888 0
M  V30 506 H 49.2233 -0.0196253 3.95995 0
M  V30 507 H 50.3973 2.82176 3.64298 0
M  V30 508 H 48.7123 2.42297 3.38646 0
M  V30 509 H 51.3093 0.432869 5.32945 0
M  V30 510 H 51.6523 -0.75331 4.09428 0
M  V30 511 H 52.1853 0.930288 3.86769 0
M  V30 512 H 48.9243 3.35353 5.63222 0
M  V30 513 H 48.4443 1.6463 5.76764 0
M  V30 514 H 50.1233 2.13352 6.10811 0
M  V30 515 N 50.2554 -1.46986 0.568584 0
M  V30 516 C 51.4854 -2.0653 0.0539173 0
M  V30 517 C 51.8934 -1.42004 -1.25026 0
M  V30 518 O 51.2364 -0.514541 -1.76347 0
M  V30 519 C 51.2984 -3.58938 -0.200854 0
M  V30 520 C 50.9624 -4.45572 1.01559 0
M  V30 521 C 51.9594 -4.82986 1.92407 0
M  V30 522 C 49.6444 -4.8692 1.23346 0
M  V30 523 C 51.6384 -5.60559 3.03402 0
M  V30 524 C 49.3254 -5.64255 2.34649 0
M  V30 525 C 50.3234 -6.00986 3.24507 0
M  V30 526 O 50.0114 -6.76761 4.33878 0
M  V30 527 H 49.7434 -0.674292 0.0480234 0
M  V30 528 H 52.2974 -1.89812 0.784896 0
M  V30 529 H 50.5274 -3.73911 -0.986279 0
M  V30 530 H 52.2164 -4.0046 -0.662294 0
M  V30 531 H 52.9824 -4.51633 1.76785 0
M  V30 532 H 48.8614 -4.57789 0.543178 0
M  V30 533 H 52.4054 -5.89147 3.73565 0
M  V30 534 H 48.3024 -5.95021 2.5024 0
M  V30 535 H 49.0704 -6.95168 4.32068 0
M  V30 536 N 51.7335 -0.305618 -1.54608 0
M  V30 537 C 52.6815 0.584119 -2.25146 0
M  V30 538 C 53.6755 1.13326 -1.25911 0
M  V30 539 O 54.8815 1.08337 -1.43747 0
M  V30 540 H 51.2565 0.206983 -0.722954 0
M  V30 541 H 53.2275 -0.033291 -2.98381 0
M  V30 542 C 51.9765 1.74225 -3.009 0
M  V30 543 H 51.2995 1.32892 -3.77067 0
M  V30 544 H 52.7395 2.34077 -3.53531 0
M  V30 545 C 51.1985 2.64914 -2.0814 0
M  V30 546 O 51.7285 3.66137 -1.65246 0
M  V30 547 N 49.9345 2.3275 -1.74 0
M  V30 548 H 49.4815 1.50479 -2.09078 0
M  V30 549 H 49.4395 2.93694 -1.12211 0
M  V30 550 N 53.2116 1.57565 -0.0334293 0
M  V30 551 C 54.4576 1.93088 0.639417 0
M  V30 552 C 54.8126 0.910589 1.69488 0
M  V30 553 O 54.1056 -0.0727725 1.91462 0
M  V30 554 C 54.2996 3.33112 1.29504 0
M  V30 555 C 54.1286 4.48667 0.304604 0
M  V30 556 C 52.8986 5.05207 -0.0970777 0
M  V30 557 C 55.0966 5.1239 -0.442845 0
M  V30 558 N 53.0786 6.04286 -1.08223 0
M  V30 559 C 54.4496 6.06609 -1.28161 0
M  V30 560 C 56.5046 4.95352 -0.50308 0
M  V30 561 C 55.2076 6.85622 -2.17519 0
M  V30 562 C 57.2336 5.74978 -1.38401 0
M  V30 563 C 56.5956 6.68816 -2.21054 0
M  V30 564 H 52.6946 0.754335 0.206161 0
M  V30 565 H 55.2786 1.94435 -0.101613 0
M  V30 566 H 53.4496 3.32576 2.00618 0
M  V30 567 H 55.1816 3.55972 1.92525 0
M  V30 568 H 51.9366 4.72782 0.278255 0
M  V30 569 H 52.3606 6.58516 -1.57117 0
M  V30 570 H 57.0026 4.22625 0.121694 0
M  V30 571 H 54.7206 7.57652 -2.81049 0
M  V30 572 H 58.3066 5.63826 -1.43496 0
M  V30 573 H 57.1866 7.29355 -2.88116 0
M  V30 574 N 54.6897 -0.239769 1.55765 0
M  V30 575 C 55.9147 -0.988373 1.82335 0
M  V30 576 C 56.3397 -1.77886 0.611421 0
M  V30 577 O 55.6977 -1.75889 -0.439639 0
M  V30 578 C 55.7457 -1.89627 3.06715 0
M  V30 579 O 54.8497 -2.98904 2.84131 0
M  V30 580 H 54.1907 -0.280858 0.601677 0
M  V30 581 H 56.7207 -0.258597 2.02959 0
M  V30 582 H 56.7307 -2.30957 3.36338 0
M  V30 583 H 55.4057 -1.31511 3.9456 0
M  V30 584 H 53.9827 -2.61651 2.65694 0
M  V30 585 N 56.1678 -1.49265 -0.50573 0
M  V30 586 C 57.4448 -1.49012 -1.26707 0
M  V30 587 C 57.8248 -0.215205 -2.1 0
M  V30 588 O 57.1728 0.802547 -2.13943 0
M  V30 589 C 57.3828 -2.7663 -2.12783 0
M  V30 590 C 58.7308 -3.25932 -2.72127 0
M  V30 591 O 59.7548 -2.77715 -2.23054 0
M  V30 592 O 58.6138 -4.09897 -3.61451 0
M  V30 593 H 55.7078 -0.596197 -0.57313 0
M  V30 594 H 58.2538 -1.61524 -0.52039 0
M  V30 595 H 57.0258 -3.60916 -1.5118 0
M  V30 596 H 56.6488 -2.66956 -2.94653 0
M  V30 597 N 57.6459 0.756429 -1.3826 0
M  V30 598 C 58.8759 1.54341 -1.3734 0
M  V30 599 C 59.2839 1.89159 0.0393917 0
M  V30 600 O 58.6269 1.5307 1.01565 0
M  V30 601 C 58.6889 2.87238 -2.16182 0
M  V30 602 C 58.3529 2.74973 -3.65019 0
M  V30 603 C 59.3499 2.44962 -4.58574 0
M  V30 604 C 57.0349 2.92515 -4.08338 0
M  V30 605 C 59.0289 2.32642 -5.93428 0
M  V30 606 C 56.7159 2.79815 -5.43274 0
M  V30 607 C 57.7139 2.49921 -6.35632 0
M  V30 608 O 57.4019 2.37275 -7.68086 0
M  V30 609 H 57.1339 0.484281 -0.471643 0
M  V30 610 H 59.6879 0.944152 -1.82414 0
M  V30 611 H 57.9179 3.49342 -1.65822 0
M  V30 612 H 59.6069 3.48731 -2.07705 0
M  V30 613 H 60.3729 2.31081 -4.26412 0
M  V30 614 H 56.2519 3.14781 -3.368 0
M  V30 615 H 59.7959 2.0923 -6.65484 0
M  V30 616 H 55.6929 2.93269 -5.75034 0
M  V30 617 H 56.4609 2.52509 -7.78577 0
M  V30 618 N 59.124 1.23083 0.984299 0
M  V30 619 C 60.373 1.05466 1.71929 0
M  V30 620 C 60.686 -0.409211 1.91272 0
M  V30 621 O 61.892 -0.705226 2.62181 0
M  V30 622 C 60.348 1.83874 3.09384 0
M  V30 623 C 59.956 3.34566 2.97943 0
M  V30 624 C 61.7 1.74734 3.8687 0
M  V30 625 C 59.607 4.05381 4.30605 0
M  V30 626 H 58.537 0.391039 0.644674 0
M  V30 627 H 61.188 1.47013 1.09815 0
M  V30 628 H 59.57 1.35131 3.72231 0
M  V30 629 H 60.744 3.90767 2.44209 0
M  V30 630 H 59.059 3.44476 2.33934 0
M  V30 631 H 61.656 2.24957 4.85076 0
M  V30 632 H 61.999 0.709372 4.10212 0
M  V30 633 H 62.532 2.21067 3.30717 0
M  V30 634 H 59.271 5.09467 4.1246 0
M  V30 635 H 58.791 3.53967 4.84218 0
M  V30 636 H 60.47 4.11458 4.99311 0
M  V30 637 N 60.6021 -1.18246 1.0419 0
M  V30 638 C 61.5651 -2.20128 0.638452 0
M  V30 639 C 62.5651 -1.57885 -0.304805 0
M  V30 640 O 63.7551 -1.73967 -0.0900369 0
M  V30 641 C 60.8871 -3.4084 -0.0637751 0
M  V30 642 H 62.0801 -2.57336 1.54007 0
M  V30 643 H 59.6331 -1.32152 0.834598 0
M  V30 644 H 60.3681 -3.09166 -0.979136 0
M  V30 645 H 60.1531 -3.8726 0.614198 0
M  V30 646 H 61.6431 -4.16274 -0.332512 0
M  V30 647 N 62.0802 -0.821533 -1.34494 0
M  V30 648 C 63.4912 -0.467956 -1.8074 0
M  V30 649 C 63.8422 1.01151 -1.68116 0
M  V30 650 O 62.9672 1.78707 -1.22036 0
M  V30 651 C 63.5622 -0.842627 -3.28154 0
M  V30 652 C 62.1212 -0.541439 -3.72485 0
M  V30 653 C 61.2682 -1.06028 -2.56229 0
M  V30 654 H 64.2192 -1.01183 -1.22261 0
M  V30 655 H 64.2402 -0.145876 -3.8022 0
M  V30 656 H 63.7522 -1.91945 -3.37311 0
M  V30 657 H 61.8532 0.526034 -3.68868 0
M  V30 658 H 61.9662 -1.08453 -4.66663 0
M  V30 659 H 60.3302 -0.481892 -2.501 0
M  V30 660 H 61.1132 -2.14352 -2.68157 0
M  V30 661 N 63.5583 1.46682 -0.576371 0
M  V30 662 C 64.8353 1.95599 0.00703437 0
M  V30 663 C 65.2153 1.51904 1.46589 0
M  V30 664 O 64.5633 0.766755 2.15251 0
M  V30 665 C 64.7733 3.4864 -0.158404 0
M  V30 666 C 66.1213 4.24594 -0.0229439 0
M  V30 667 O 67.1453 3.56094 -0.0869173 0
M  V30 668 O 66.0043 5.46373 0.118015 0
M  V30 669 H 63.0983 0.825275 0.053384 0
M  V30 670 H 65.6443 1.56996 -0.644244 0
M  V30 671 H 64.4163 3.7331 -1.17282 0
M  V30 672 H 64.0393 3.94057 0.5296 0
M  V30 673 N 65.0364 0.313813 1.54444 0
M  V30 674 C 66.2644 -0.293918 2.04802 0
M  V30 675 C 66.6794 -1.46537 1.19047 0
M  V30 676 O 66.0364 -1.81182 0.218939 0
M  V30 677 C 66.0874 -0.737806 3.53891 0
M  V30 678 O 65.8084 0.387038 4.36387 0
M  V30 679 C 67.3094 -1.40936 4.203 0
M  V30 680 H 64.5294 -0.0620057 0.668129 0
M  V30 681 H 67.0734 0.457169 1.99324 0
M  V30 682 H 65.2284 -1.43889 3.59687 0
M  V30 683 H 65.6424 0.0391274 5.24485 0
M  V30 684 H 67.1164 -1.67099 5.26101 0
M  V30 685 H 67.5934 -2.35355 3.70816 0
M  V30 686 H 68.1994 -0.751117 4.18615 0
M  V30 687 N 66.5145 -1.57545 0.0417849 0
M  V30 688 C 67.7605 -1.92601 -0.635021 0
M  V30 689 C 68.0935 -0.919627 -1.71045 0
M  V30 690 O 67.3685 0.0557892 -1.9442 0
M  V30 691 C 67.6515 -3.38085 -1.23979 0
M  V30 692 C 67.5045 -4.49467 -0.173057 0
M  V30 693 C 68.8235 -3.83776 -2.15416 0
M  V30 694 H 65.9425 -0.700397 -0.229374 0
M  V30 695 H 68.5845 -1.89728 0.101633 0
M  V30 696 H 66.7345 -3.40664 -1.86762 0
M  V30 697 H 68.4065 -4.59018 0.458312 0
M  V30 698 H 66.6495 -4.30909 0.499996 0
M  V30 699 H 67.3205 -5.48323 -0.636054 0
M  V30 700 H 69.7965 -3.83013 -1.62605 0
M  V30 701 H 68.6725 -4.8624 -2.54679 0
M  V30 702 H 68.9335 -3.19998 -3.05047 0
M  V30 703 N 67.9926 0.231505 -1.5589 0
M  V30 704 C 68.9556 1.27028 -1.90779 0
M  V30 705 C 69.9556 1.40308 -0.785507 0
M  V30 706 O 71.1456 1.38744 -1.05336 0
M  V30 707 C 68.2776 2.64566 -2.14983 0
M  V30 708 H 69.4706 0.973017 -2.83677 0
M  V30 709 H 67.0236 0.471486 -1.49019 0
M  V30 710 H 67.7586 2.99406 -1.24604 0
M  V30 711 H 67.5436 2.56305 -2.96732 0
M  V30 712 H 69.0336 3.39543 -2.43105 0
M  V30 713 N 69.4707 1.49531 0.497807 0
M  V30 714 C 70.4187 1.66926 1.61983 0
M  V30 715 C 71.4127 0.535167 1.60724 0
M  V30 716 O 72.6187 0.714896 1.65195 0
M  V30 717 H 68.9937 0.526415 0.537021 0
M  V30 718 H 70.9647 2.61098 1.44465 0
M  V30 719 C 69.7137 1.75602 3.00099 0
M  V30 720 H 69.0367 2.62244 3.01775 0
M  V30 721 H 70.4767 1.91807 3.78135 0
M  V30 722 C 68.9357 0.501543 3.33146 0
M  V30 723 O 69.4657 -0.371342 3.9998 0
M  V30 724 N 67.6717 0.363531 2.88317 0
M  V30 725 H 67.2187 1.07485 2.34104 0
M  V30 726 H 67.1767 -0.474728 3.10795 0
M  V30 727 N 70.9488 -0.749086 1.3866 0
M  V30 728 C 72.1958 -1.50833 1.35114 0
M  V30 729 C 72.5238 -1.94415 -0.0574049 0
M  V30 730 O 71.7788 -1.66065 -1.03541 0
M  V30 731 C 72.0778 -2.7712 2.25697 0
M  V30 732 C 71.7438 -2.52477 3.73585 0
M  V30 733 C 70.4058 -2.45466 4.13884 0
M  V30 734 C 72.7578 -2.31066 4.67181 0
M  V30 735 C 70.0858 -2.15064 5.45861 0
M  V30 736 C 72.4378 -2.02183 5.9942 0
M  V30 737 C 71.1018 -1.93631 6.38798 0
M  V30 738 H 70.3718 -0.551936 0.494416 0
M  V30 739 H 73.0188 -0.860979 1.71054 0
M  V30 740 H 71.3238 -3.46528 1.82827 0
M  V30 741 H 73.0208 -3.35096 2.20254 0
M  V30 742 H 69.6108 -2.58807 3.41638 0
M  V30 743 H 73.7948 -2.35459 4.3689 0
M  V30 744 H 69.0508 -2.06954 5.75308 0
M  V30 745 H 73.2248 -1.8462 6.71482 0
M  V30 746 H 70.8518 -1.69839 7.40985 0
M  V30 747 N 72.4269 -1.23603 -0.977757 0
M  V30 748 C 73.3369 -1.03632 -2.1047 0
M  V30 749 C 74.3529 0.0199435 -1.73989 0
M  V30 750 O 75.5289 -0.176076 -2.00629 0
M  V30 751 C 72.5939 -0.63276 -3.40877 0
M  V30 752 C 71.6549 -1.76437 -3.91367 0
M  V30 753 C 70.8879 -1.37997 -5.15551 0
M  V30 754 O 71.1109 -0.265357 -5.69782 0
M  V30 755 O 70.0449 -2.20201 -5.60174 0
M  V30 756 H 73.8709 -1.98086 -2.30208 0
M  V30 757 H 71.4559 -1.02332 -1.08851 0
M  V30 758 H 73.3379 -0.418761 -4.19314 0
M  V30 759 H 72.0129 0.282754 -3.22463 0
M  V30 760 H 70.9199 -2.03304 -3.14036 0
M  V30 761 H 72.2529 -2.6583 -4.14241 0
M  V30 762 N 73.905 1.17692 -1.04816 0
M  V30 763 C 74.852 2.21581 -0.645797 0
M  V30 764 C 75.822 1.62367 0.350159 0
M  V30 765 O 77.007 1.89254 0.242433 0
M  V30 766 C 74.147 3.45092 -0.0227568 0
M  V30 767 C 73.26 4.18613 -1.06709 0
M  V30 768 C 72.395 5.29602 -0.411767 0
M  V30 769 C 71.434 5.94904 -1.44067 0
M  V30 770 N 70.571 6.97414 -0.809781 0
M  V30 771 H 75.411 2.55353 -1.5362 0
M  V30 772 H 72.948 1.25438 -0.768364 0
M  V30 773 H 74.906 4.15679 0.35588 0
M  V30 774 H 73.536 3.11917 0.831122 0
M  V30 775 H 72.588 3.46779 -1.5636 0
M  V30 776 H 73.9 4.63293 -1.84827 0
M  V30 777 H 73.054 6.06696 0.0206623 0
M  V30 778 H 71.793 4.86045 0.401438 0
M  V30 779 H 70.798 5.16544 -1.88316 0
M  V30 780 H 72.023 6.40542 -2.25571 0
M  V30 781 H 69.969 6.55998 -0.0170186 0
M  V30 782 H 69.886 7.40386 -1.52856 0
M  V30 783 H 71.154 7.78463 -0.401999 0
M  V30 784 N 75.3831 0.828654 1.34056 0
M  V30 785 C 76.2931 0.256725 2.33191 0
M  V30 786 C 77.3091 -0.611898 1.62886 0
M  V30 787 O 78.4851 -0.51844 1.94613 0
M  V30 788 C 75.5501 -0.567238 3.42028 0
M  V30 789 C 74.6111 0.324458 4.28072 0
M  V30 790 C 73.8441 -0.460274 5.31712 0
M  V30 791 O 74.0671 -1.693 5.44696 0
M  V30 792 O 73.0011 0.160391 6.01686 0
M  V30 793 H 76.8271 1.07739 2.83947 0
M  V30 794 H 74.4121 0.59093 1.37217 0
M  V30 795 H 76.2941 -1.03582 4.08471 0
M  V30 796 H 74.9691 -1.36513 2.93506 0
M  V30 797 H 73.8761 0.840659 3.64532 0
M  V30 798 H 75.2091 1.08685 4.8005 0
M  V30 799 N 76.8612 -1.46375 0.584142 0
M  V30 800 C 78.0892 -2.06761 0.0759296 0
M  V30 801 C 78.5042 -1.43266 -1.22965 0
M  V30 802 O 77.8612 -0.538458 -1.74376 0
M  V30 803 C 77.9122 -3.61375 -0.0950384 0
M  V30 804 O 77.6332 -4.22495 1.15887 0
M  V30 805 C 79.1342 -4.38693 -0.637434 0
M  V30 806 H 76.3542 -0.668479 0.0581075 0
M  V30 807 H 78.8982 -1.8798 0.805218 0
M  V30 808 H 77.0532 -3.79578 -0.774554 0
M  V30 809 H 77.4672 -5.15385 0.973598 0
M  V30 810 H 78.9412 -5.47464 -0.706237 0
M  V30 811 H 79.4182 -4.06836 -1.65472 0
M  V30 812 H 80.0242 -4.25299 0.00725967 0
M  V30 813 N 78.3393 -0.321999 -1.54275 0
M  V30 814 C 79.5873 0.280489 -2.00144 0
M  V30 815 C 79.9083 1.52777 -1.21178 0
M  V30 816 O 79.1783 1.9338 -0.313187 0
M  V30 817 H 77.7583 0.106632 -0.73935 0
M  V30 818 H 80.4203 -0.438184 -1.8991 0
M  V30 819 H 79.5163 0.537972 -3.07428 0
M  V30 820 N 79.8174 1.5752 -0.0501392 0
M  V30 821 C 81.0664 1.91827 0.623328 0
M  V30 822 C 81.3794 0.930222 1.72065 0
M  V30 823 O 82.5854 1.1653 2.4522 0
M  V30 824 C 81.0414 3.40692 1.16003 0
M  V30 825 C 80.6494 4.479 0.0948811 0
M  V30 826 C 82.3934 3.84034 1.80881 0
M  V30 827 C 80.3004 5.87879 0.644411 0
M  V30 828 H 79.2304 0.715918 0.236596 0
M  V30 829 H 81.8814 1.83115 -0.118861 0
M  V30 830 H 80.2634 3.44405 1.9545 0
M  V30 831 H 81.4374 4.55775 -0.678675 0
M  V30 832 H 79.7524 4.13892 -0.45637 0
M  V30 833 H 82.3494 4.85984 2.22988 0
M  V30 834 H 82.6924 3.20225 2.6601 0
M  V30 835 H 83.2254 3.82833 1.0809 0
M  V30 836 H 79.9644 6.55282 -0.169229 0
M  V30 837 H 79.4844 5.83567 1.38598 0
M  V30 838 H 81.1634 6.37098 1.12763 0
M  V30 839 N 81.2955 -0.223234 1.56011 0
M  V30 840 C 82.2425 -1.27664 1.92277 0
M  V30 841 C 83.2125 -1.46659 0.779763 0
M  V30 842 O 84.3975 -1.60256 1.03551 0
M  V30 843 C 81.5375 -2.62234 2.24338 0
M  V30 844 C 80.6505 -2.51051 3.51564 0
M  V30 845 C 79.7855 -3.78133 3.7308 0
M  V30 846 C 78.8245 -3.61665 4.93827 0
M  V30 847 N 77.9615 -4.80693 5.11741 0
M  V30 848 H 82.8015 -0.960358 2.82101 0
M  V30 849 H 80.3385 -0.462901 1.39627 0
M  V30 850 H 82.2965 -3.40596 2.40936 0
M  V30 851 H 80.9265 -2.91961 1.3769 0
M  V30 852 H 79.9785 -1.64132 3.43169 0
M  V30 853 H 81.2905 -2.34803 4.40079 0
M  V30 854 H 80.4445 -4.64938 3.89766 0
M  V30 855 H 79.1835 -3.97304 2.82844 0
M  V30 856 H 78.1885 -2.73244 4.77093 0
M  V30 857 H 79.4135 -3.43966 5.85546 0
M  V30 858 H 77.3595 -5.00181 4.24446 0
M  V30 859 H 77.2765 -4.67165 5.94384 0
M  V30 860 H 78.5445 -5.6893 5.3286 0
M  V30 861 N 82.7736 -1.49793 -0.48987 0
M  V30 862 C 84.0196 -1.60078 -1.24511 0
M  V30 863 C 84.3526 -0.291608 -1.91998 0
M  V30 864 O 83.6276 0.705647 -1.81248 0
M  V30 865 C 83.9106 -2.76791 -2.30345 0
M  V30 866 C 83.7636 -4.17535 -1.67286 0
M  V30 867 C 85.0826 -2.89111 -3.31817 0
M  V30 868 H 82.2016 -0.582645 -0.451324 0
M  V30 869 H 84.8436 -1.82117 -0.541612 0
M  V30 870 H 82.9936 -2.5813 -2.90346 0
M  V30 871 H 84.6656 -4.4774 -1.11026 0
M  V30 872 H 82.9086 -4.22665 -0.976577 0
M  V30 873 H 83.5796 -4.95094 -2.44103 0
M  V30 874 H 86.0556 -3.06133 -2.81819 0
M  V30 875 H 84.9316 -3.72433 -4.03219 0
M  V30 876 H 85.1926 -1.9893 -3.94815 0
M  V30 877 N 84.2517 0.741722 -1.39055 0
M  V30 878 C 85.4977 1.50336 -1.36113 0
M  V30 879 C 85.8307 1.94148 0.0450796 0
M  V30 880 O 85.1057 1.66301 1.00868 0
M  V30 881 C 85.3887 2.74773 -2.32749 0
M  V30 882 C 85.2417 2.37023 -3.82283 0
M  V30 883 C 86.5607 3.76846 -2.27322 0
M  V30 884 H 83.6797 0.545351 -0.495743 0
M  V30 885 H 86.3217 0.848624 -1.69995 0
M  V30 886 H 84.4717 3.30639 -2.03986 0
M  V30 887 H 86.1437 1.8684 -4.21768 0
M  V30 888 H 84.3867 1.69334 -3.99385 0
M  V30 889 H 85.0577 3.26104 -4.45376 0
M  V30 890 H 87.5337 3.30548 -2.5274 0
M  V30 891 H 86.4097 4.6159 -2.97028 0
M  V30 892 H 86.6707 4.23286 -1.27599 0
M  V30 893 N 85.7298 1.2412 0.971189 0
M  V30 894 C 86.9598 1.10415 1.7462 0
M  V30 895 C 87.3678 -0.346462 1.86001 0
M  V30 896 O 86.7108 -1.25104 1.34517 0
M  V30 897 C 86.7728 1.66596 3.18568 0
M  V30 898 C 86.4368 3.15446 3.3067 0
M  V30 899 C 87.4338 4.12636 3.16271 0
M  V30 900 C 85.1188 3.55337 3.55022 0
M  V30 901 C 87.1128 5.47699 3.26044 0
M  V30 902 C 84.7998 4.90542 3.64434 0
M  V30 903 C 85.7978 5.86532 3.49956 0
M  V30 904 O 85.4858 7.19279 3.59017 0
M  V30 905 H 85.2178 0.386616 0.55453 0
M  V30 906 H 87.7718 1.64633 1.22821 0
M  V30 907 H 86.0018 1.06808 3.71657 0
M  V30 908 H 87.6908 1.48232 3.77865 0
M  V30 909 H 88.4568 3.8316 2.97344 0
M  V30 910 H 84.3358 2.8113 3.65359 0
M  V30 911 H 87.8798 6.22603 3.14661 0
M  V30 912 H 83.7768 5.19691 3.82873 0
M  V30 913 H 84.5448 7.27153 3.75754 0
M  V30 914 N 87.2079 -1.17134 1.05439 0
M  V30 915 C 88.4849 -1.83411 0.679699 0
M  V30 916 C 88.8649 -1.9368 -0.839726 0
M  V30 917 O 88.2129 -1.47325 -1.74664 0
M  V30 918 C 88.4229 -3.20918 1.37159 0
M  V30 919 C 89.7709 -3.96796 1.51123 0
M  V30 920 O 90.7949 -3.30406 1.3308 0
M  V30 921 O 89.6539 -5.15778 1.80651 0
M  V30 922 H 86.7479 -0.79154 0.239569 0
M  V30 923 H 89.2939 -1.24411 1.15413 0
M  V30 924 H 88.0659 -3.08428 2.40807 0
M  V30 925 H 87.6889 -3.87587 0.886674 0
M  V30 926 N 88.686 -0.835752 -1.33615 0
M  V30 927 C 89.932 -0.430596 -1.98176 0
M  V30 928 C 90.265 1.00684 -1.66061 0
M  V30 929 O 89.54 1.70339 -0.938877 0
M  V30 930 C 89.823 -0.648065 -3.5422 0
M  V30 931 C 89.676 -2.13255 -3.96033 0
M  V30 932 C 90.995 -0.0922113 -4.40003 0
M  V30 933 H 88.114 -0.157924 -0.719881 0
M  V30 934 H 90.756 -1.05069 -1.58305 0
M  V30 935 H 88.906 -0.120237 -3.88314 0
M  V30 936 H 90.578 -2.725 -3.72211 0
M  V30 937 H 88.821 -2.61823 -3.45878 0
M  V30 938 H 89.492 -2.23547 -5.04708 0
M  V30 939 H 91.968 -0.543343 -4.12537 0
M  V30 940 H 90.844 -0.274083 -5.48215 0
M  V30 941 H 91.105 1.00378 -4.30554 0
M  V30 942 N 90.1641 1.46063 -0.591896 0
M  V30 943 C 91.4111 2.02338 -0.0809991 0
M  V30 944 C 91.7391 1.46228 1.28249 0
M  V30 945 O 90.9941 0.620818 1.85592 0
M  V30 946 C 91.2931 3.57391 0.0249813 0
M  V30 947 C 90.9591 4.32583 -1.27211 0
M  V30 948 C 89.6211 4.52844 -1.62745 0
M  V30 949 C 91.9731 4.75687 -2.13005 0
M  V30 950 C 89.3011 5.13462 -2.83855 0
M  V30 951 C 91.6531 5.37644 -3.3335 0
M  V30 952 C 90.3171 5.5613 -3.69155 0
M  V30 953 H 89.5871 0.740407 -0.0296397 0
M  V30 954 H 92.2341 1.75321 -0.770374 0
M  V30 955 H 90.5391 3.83597 0.797537 0
M  V30 956 H 92.2361 3.98621 0.436184 0
M  V30 957 H 88.8261 4.17116 -0.985499 0
M  V30 958 H 93.0101 4.59782 -1.86855 0
M  V30 959 H 88.2661 5.25965 -3.11722 0
M  V30 960 H 92.4401 5.7 -4.00092 0
M  V30 961 H 90.0671 6.0287 -4.63089 0
M  V30 962 N 91.6422 0.330177 1.54103 0
M  V30 963 C 92.9192 -0.325007 1.92881 0
M  V30 964 C 93.2992 -1.6934 1.26045 0
M  V30 965 O 92.6472 -2.24855 0.406526 0
M  V30 966 C 92.8572 -0.410634 3.46576 0
M  V30 967 C 94.2052 -0.667801 4.19316 0
M  V30 968 O 95.2292 -0.49329 3.52768 0
M  V30 969 O 94.0882 -1.00491 5.37181 0
M  V30 970 H 91.1822 -0.186873 0.80561 0
M  V30 971 H 93.7282 0.380376 1.65382 0
M  V30 972 H 92.5002 0.550164 3.87413 0
M  V30 973 H 92.1232 -1.16333 3.802 0
M  V30 974 N 93.1203 -1.57491 0.0584922 0
M  V30 975 C 94.3453 -1.97711 -0.62652 0
M  V30 976 C 94.7703 -0.936132 -1.63151 0
M  V30 977 O 94.1283 0.099811 -1.81025 0
M  V30 978 C 94.1763 -3.36989 -1.28338 0
M  V30 979 O 93.2803 -3.35433 -2.39913 0
M  V30 980 H 92.6213 -0.643868 -0.162266 0
M  V30 981 H 95.1513 -2.04193 0.129064 0
M  V30 982 H 95.1613 -3.73879 -1.63335 0
M  V30 983 H 93.8363 -4.12289 -0.546889 0
M  V30 984 H 92.4133 -3.10298 -2.06809 0
M  V30 985 N 94.5984 0.214957 -1.56127 0
M  V30 986 C 95.5464 1.28601 -1.93816 0
M  V30 987 C 96.5404 1.48175 -0.821016 0
M  V30 988 O 97.7464 1.49271 -1.0059 0
M  V30 989 H 94.1214 0.431302 -0.616022 0
M  V30 990 H 96.0924 0.940991 -2.83175 0
M  V30 991 C 94.8414 2.62779 -2.27689 0
M  V30 992 H 94.1644 2.48527 -3.13168 0
M  V30 993 H 95.6044 3.36517 -2.57939 0
M  V30 994 C 94.0634 3.18285 -1.10436 0
M  V30 995 O 94.5934 4.00002 -0.368945 0
M  V30 996 N 92.7994 2.7675 -0.886433 0
M  V30 997 H 92.3464 2.10404 -1.48619 0
M  V30 998 H 92.3044 3.14229 -0.103656 0
M  V30 999 N 96.0765 1.50051 0.48192 0
M  V30 1000 C 96.9865 1.7089 1.60728 0
M  V30 1001 C 98.0025 0.591788 1.63627 0
M  V30 1002 O 99.1785 0.868817 1.81696 0
M  V30 1003 C 96.2435 1.78855 2.97005 0
M  V30 1004 C 95.3045 3.02537 3.04581 0
M  V30 1005 C 94.5375 3.10112 4.34357 0
M  V30 1006 O 94.7605 2.24765 5.24249 0
M  V30 1007 O 93.6945 4.02747 4.47301 0
M  V30 1008 H 97.5205 2.66264 1.46072 0
M  V30 1009 H 95.1055 1.34018 0.660264 0
M  V30 1010 H 96.9875 1.86336 3.77964 0
M  V30 1011 H 95.6625 0.866628 3.11883 0
M  V30 1012 H 94.5695 3.00563 2.22739 0
M  V30 1013 H 95.9025 3.94272 2.94636 0
M  V30 1014 N 97.5546 -0.734337 1.39446 0
M  V30 1015 C 98.8006 -1.49613 1.36908 0
M  V30 1016 C 99.1336 -1.94169 -0.0347829 0
M  V30 1017 O 98.4086 -1.66833 -0.999847 0
M  V30 1018 C 98.6916 -2.73534 2.34203 0
M  V30 1019 C 98.5446 -2.34993 3.83534 0
M  V30 1020 C 99.8636 -3.75635 2.29317 0
M  V30 1021 H 96.9826 -0.542714 0.498629 0
M  V30 1022 H 99.6246 -0.839597 1.70443 0
M  V30 1023 H 97.7746 -3.29553 2.05736 0
M  V30 1024 H 99.4466 -1.84601 4.22753 0
M  V30 1025 H 97.6896 -1.67213 4.00278 0
M  V30 1026 H 98.3606 -3.23738 4.47099 0
M  V30 1027 H 100.837 -3.29203 2.54489 0
M  V30 1028 H 99.7126 -4.60008 2.99472 0
M  V30 1029 H 99.9736 -4.22603 1.29842 0
M  V30 1030 N 99.0327 -1.24633 -0.964593 0
M  V30 1031 C 99.9627 -1.06611 -2.07741 0
M  V30 1032 C 100.944 0.0218666 -1.70086 0
M  V30 1033 O 102.129 -0.145793 -1.93652 0
M  V30 1034 C 99.2587 -0.673444 -3.40708 0
M  V30 1035 C 98.2127 -1.71054 -3.92332 0
M  V30 1036 C 97.5387 -1.17285 -5.21678 0
M  V30 1037 C 98.8387 -3.10718 -4.19824 0
M  V30 1038 H 100.533 -1.99693 -2.23076 0
M  V30 1039 H 98.0787 -0.96152 -1.07195 0
M  V30 1040 H 100.032 -0.534345 -4.17998 0
M  V30 1041 H 98.7557 0.293073 -3.25282 0
M  V30 1042 H 97.4147 -1.83791 -3.17201 0
M  V30 1043 H 97.0627 -0.196847 -5.02615 0
M  V30 1044 H 96.7627 -1.86592 -5.57187 0
M  V30 1045 H 98.2867 -1.04593 -6.01575 0
M  V30 1046 H 99.7007 -3.01192 -4.87808 0
M  V30 1047 H 98.0977 -3.77406 -4.66567 0
M  V30 1048 H 99.1677 -3.58524 -3.26479 0
M  V30 1049 N 100.511 1.16574 -1.06058 0
M  V30 1050 C 101.421 2.2452 -0.680282 0
M  V30 1051 C 102.437 1.71348 0.302604 0
M  V30 1052 O 103.613 2.00822 0.152513 0
M  V30 1053 C 100.678 3.46629 -0.0700315 0
M  V30 1054 C 99.7388 4.14849 -1.10448 0
M  V30 1055 C 98.9718 5.31129 -0.523256 0
M  V30 1056 O 99.1948 5.66514 0.664709 0
M  V30 1057 O 98.1288 5.88526 -1.26179 0
M  V30 1058 H 101.955 2.59355 -1.58015 0
M  V30 1059 H 99.5398 1.24043 -0.832694 0
M  V30 1060 H 101.422 4.20543 0.268667 0
M  V30 1061 H 100.097 3.13573 0.803353 0
M  V30 1062 H 99.0038 3.42916 -1.49532 0
M  V30 1063 H 100.337 4.51954 -1.94931 0
M  V30 1064 N 101.989 0.842826 1.3317 0
M  V30 1065 C 103.237 0.439577 1.97262 0
M  V30 1066 C 103.558 -1.00548 1.67078 0
M  V30 1067 O 102.828 -1.70098 0.971779 0
M  V30 1068 H 101.408 0.159558 0.72976 0
M  V30 1069 H 104.07 1.07665 1.62463 0
M  V30 1070 H 103.166 0.574886 3.0676 0
M  V30 1071 N 103.467 -1.45747 0.599634 0
M  V30 1072 C 104.414 -2.30467 -0.123849 0
M  V30 1073 C 105.384 -1.41632 -0.86774 0
M  V30 1074 O 106.569 -1.70568 -0.855056 0
M  V30 1075 C 103.709 -3.26402 -1.12051 0
M  V30 1076 C 102.822 -4.3034 -0.37832 0
M  V30 1077 C 101.957 -5.13389 -1.364 0
M  V30 1078 C 100.996 -6.09061 -0.609171 0
M  V30 1079 N 100.133 -6.84918 -1.54374 0
M  V30 1080 H 104.973 -2.91802 0.604627 0
M  V30 1081 H 102.51 -1.43797 0.309972 0
M  V30 1082 H 104.468 -3.80482 -1.7114 0
M  V30 1083 H 103.098 -2.66839 -1.8165 0
M  V30 1084 H 102.15 -3.78984 0.327929 0
M  V30 1085 H 103.462 -4.98354 0.210997 0
M  V30 1086 H 102.616 -5.7183 -2.02719 0
M  V30 1087 H 101.355 -4.45376 -1.98725 0
M  V30 1088 H 100.36 -5.49758 0.0676979 0
M  V30 1089 H 101.585 -6.79099 0.00891991 0
M  V30 1090 H 99.531 -6.19601 -2.15478 0
M  V30 1091 H 99.448 -7.49254 -1.00766 0
M  V30 1092 H 100.716 -7.47906 -2.19676 0
M  V30 1093 N 104.945 -0.338344 -1.53925 0
M  V30 1094 C 105.875 0.51328 -2.27789 0
M  V30 1095 C 106.856 1.107 -1.29149 0
M  V30 1096 O 108.041 1.12937 -1.57984 0
M  V30 1097 C 105.171 1.66697 -3.04679 0
M  V30 1098 C 104.125 1.20183 -4.1078 0
M  V30 1099 C 103.451 2.44363 -4.75595 0
M  V30 1100 C 104.751 0.30605 -5.21403 0
M  V30 1101 H 106.445 -0.102883 -2.99223 0
M  V30 1102 H 103.991 -0.0509219 -1.4391 0
M  V30 1103 H 105.944 2.26915 -3.55088 0
M  V30 1104 H 104.668 2.30995 -2.30887 0
M  V30 1105 H 103.327 0.622499 -3.61276 0
M  V30 1106 H 102.975 3.07057 -3.98403 0
M  V30 1107 H 102.675 2.13925 -5.47275 0
M  V30 1108 H 104.199 3.05317 -5.28786 0
M  V30 1109 H 105.613 0.814929 -5.67478 0
M  V30 1110 H 104.01 0.0937929 -6.00027 0
M  V30 1111 H 105.08 -0.65921 -4.80398 0
M  V30 1112 N 106.423 1.57458 -0.0668435 0
M  V30 1113 C 107.356 2.08033 0.93795 0
M  V30 1114 C 108.334 0.984321 1.29421 0
M  V30 1115 O 109.518 1.25736 1.40437 0
M  V30 1116 C 106.645 2.53388 2.24749 0
M  V30 1117 C 105.691 3.74376 2.04315 0
M  V30 1118 S 106.524 5.19303 1.30706 0
M  V30 1119 C 107.68 5.67986 2.62951 0
M  V30 1120 H 107.913 2.92935 0.50759 0
M  V30 1121 H 105.446 1.5371 0.145804 0
M  V30 1122 H 107.404 2.8018 3.00016 0
M  V30 1123 H 106.065 1.68763 2.64911 0
M  V30 1124 H 105.258 4.04083 3.01218 0
M  V30 1125 H 104.86 3.47931 1.37186 0
M  V30 1126 H 107.152 5.74528 3.5906 0
M  V30 1127 H 108.095 6.66955 2.3786 0
M  V30 1128 H 108.503 4.95781 2.69929 0
M  V30 1129 N 107.901 -0.206675 1.56239 0
M  V30 1130 C 108.864 -1.23976 1.92776 0
M  V30 1131 C 109.864 -1.39041 0.807729 0
M  V30 1132 O 111.054 -1.37051 1.0753 0
M  V30 1133 C 108.186 -2.61112 2.19165 0
M  V30 1134 H 109.379 -0.927764 2.85189 0
M  V30 1135 H 106.932 -0.447718 1.4975 0
M  V30 1136 H 107.667 -2.97386 1.29352 0
M  V30 1137 H 107.452 -2.51552 3.00772 0
M  V30 1138 H 108.942 -3.35633 2.48476 0
M  V30 1139 N 109.379 -1.50304 -0.473955 0
M  V30 1140 C 110.627 -1.60832 -1.22382 0
M  V30 1141 C 110.948 -0.30939 -1.9253 0
M  V30 1142 O 110.218 0.67296 -1.83978 0
M  V30 1143 H 108.798 -0.592652 -0.454723 0
M  V30 1144 H 111.46 -1.87068 -0.546968 0
M  V30 1145 H 110.556 -2.41803 -1.97327 0
M  V30 1146 N 110.857 0.726932 -1.39834 0
M  V30 1147 C 112.082 1.52121 -1.40976 0
M  V30 1148 C 112.507 1.88098 -0.00826029 0
M  V30 1149 O 111.865 1.52479 0.980807 0
M  V30 1150 C 111.913 2.78021 -2.29644 0
M  V30 1151 O 111.017 3.74272 -1.73188 0
M  V30 1152 H 110.358 0.45908 -0.479731 0
M  V30 1153 H 112.888 0.896207 -1.83927 0
M  V30 1154 H 112.898 3.26671 -2.44438 0
M  V30 1155 H 111.573 2.51169 -3.31492 0
M  V30 1156 H 110.15 3.33073 -1.6768 0
M  V30 1157 N 112.336 1.25143 0.95797 0
M  V30 1158 C 113.564 1.12424 1.73691 0
M  V30 1159 C 113.979 -0.322304 1.86029 0
M  V30 1160 O 113.336 -1.22186 1.35561 0
M  V30 1161 C 113.387 1.76933 3.15241 0
M  V30 1162 O 113.108 3.15932 3.03511 0
M  V30 1163 C 114.609 1.6995 4.09429 0
M  V30 1164 H 111.829 0.3923 0.544373 0
M  V30 1165 H 114.373 1.6544 1.20207 0
M  V30 1166 H 112.528 1.27895 3.6568 0
M  V30 1167 H 112.942 3.47598 3.9278 0
M  V30 1168 H 114.416 2.19753 5.06372 0
M  V30 1169 H 114.893 0.662619 4.34173 0
M  V30 1170 H 115.499 2.18461 3.64904 0
M  V30 1171 N 113.814 -1.1601 1.06675 0
M  V30 1172 C 115.062 -1.86264 0.784229 0
M  V30 1173 C 115.383 -1.82328 -0.691488 0
M  V30 1174 O 114.653 -1.25947 -1.50047 0
M  V30 1175 H 113.233 -0.689621 0.28711 0
M  V30 1176 H 115.895 -1.40664 1.34906 0
M  V30 1177 H 114.991 -2.91595 1.11259 0
M  V30 1178 N 115.292 -0.849877 -1.32721 0
M  V30 1179 C 116.539 -0.450923 -1.97416 0
M  V30 1180 C 116.867 0.992376 -1.67279 0
M  V30 1181 O 116.122 1.71048 -0.950845 0
M  V30 1182 C 116.421 -0.631272 -3.51781 0
M  V30 1183 C 116.087 -2.04432 -4.01894 0
M  V30 1184 C 114.749 -2.4308 -4.1529 0
M  V30 1185 C 117.101 -2.96679 -4.28522 0
M  V30 1186 C 114.429 -3.73257 -4.52654 0
M  V30 1187 C 116.781 -4.26349 -4.67343 0
M  V30 1188 C 115.445 -4.64939 -4.78945 0
M  V30 1189 H 114.715 -0.165004 -0.722395 0
M  V30 1190 H 117.362 -1.07901 -1.58207 0
M  V30 1191 H 115.667 0.0800767 -3.91718 0
M  V30 1192 H 117.364 -0.302709 -3.99856 0
M  V30 1193 H 113.954 -1.73419 -3.91949 0
M  V30 1194 H 118.138 -2.68054 -4.17685 0
M  V30 1195 H 113.394 -4.02946 -4.59831 0
M  V30 1196 H 117.568 -4.97895 -4.86902 0
M  V30 1197 H 115.195 -5.65855 -5.07654 0
M  V30 1198 N 116.77 1.45427 -0.607355 0
M  V30 1199 C 118.047 1.9557 -0.0344566 0
M  V30 1200 C 118.427 1.54979 1.43334 0
M  V30 1201 O 117.775 0.812241 2.13576 0
M  V30 1202 C 117.985 3.48226 -0.232321 0
M  V30 1203 C 119.333 4.2445 -0.113001 0
M  V30 1204 O 120.357 3.55829 -0.162431 0
M  V30 1205 O 119.216 5.465 0.00209442 0
M  V30 1206 H 116.31 0.826222 0.0358667 0
M  V30 1207 H 118.856 1.55594 -0.6774 0
M  V30 1208 H 117.628 3.70739 -1.25174 0
M  V30 1209 H 117.251 3.95092 0.445896 0
M  V30 1210 N 118.248 0.346503 1.53744 0
M  V30 1211 C 119.178 -0.501193 2.28058 0
M  V30 1212 C 120.159 -1.10014 1.29734 0
M  V30 1213 O 121.344 -1.12097 1.58581 0
M  V30 1214 C 118.474 -1.65078 3.05559 0
M  V30 1215 C 117.428 -1.18003 4.11411 0
M  V30 1216 C 116.754 -2.41837 4.76884 0
M  V30 1217 C 118.054 -0.278394 5.21558 0
M  V30 1218 H 119.748 0.11875 2.99164 0
M  V30 1219 H 117.294 0.0585531 1.43881 0
M  V30 1220 H 119.247 -2.25028 3.56287 0
M  V30 1221 H 117.971 -2.29767 2.32109 0
M  V30 1222 H 116.63 -0.603331 3.61601 0
M  V30 1223 H 116.278 -3.0494 4.00026 0
M  V30 1224 H 115.978 -2.1102 5.48402 0
M  V30 1225 H 117.502 -3.02508 5.30397 0
M  V30 1226 H 118.916 -0.784823 5.67903 0
M  V30 1227 H 117.313 -0.0619707 6.00068 0
M  V30 1228 H 118.383 0.684677 4.80042 0
M  V30 1229 N 119.726 -1.57421 0.075193 0
M  V30 1230 C 120.972 -1.93905 -0.594025 0
M  V30 1231 C 121.305 -0.955701 -1.69056 0
M  V30 1232 O 120.58 0.0145373 -1.94495 0
M  V30 1233 C 120.863 -3.40638 -1.1678 0
M  V30 1234 C 120.716 -4.49733 -0.0776792 0
M  V30 1235 C 122.035 -3.88259 -2.07228 0
M  V30 1236 H 119.154 -0.705105 -0.214466 0
M  V30 1237 H 121.796 -1.8947 0.141854 0
M  V30 1238 H 119.946 -3.44549 -1.79494 0
M  V30 1239 H 121.618 -4.57942 0.555573 0
M  V30 1240 H 119.861 -4.29751 0.591286 0
M  V30 1241 H 120.532 -5.49549 -0.519603 0
M  V30 1242 H 123.008 -3.86376 -1.54445 0
M  V30 1243 H 121.884 -4.91533 -2.44308 0
M  V30 1244 H 122.145 -3.26396 -2.98191 0
M  V30 1245 N 121.204 0.198386 -1.56346 0
M  V30 1246 C 122.45 0.920648 -1.80698 0
M  V30 1247 C 122.783 1.83045 -0.648697 0
M  V30 1248 O 122.058 1.91308 0.350925 0
M  V30 1249 C 122.341 1.73971 -3.15287 0
M  V30 1250 C 122.194 0.85485 -4.41602 0
M  V30 1251 C 123.513 2.71296 -3.46535 0
M  V30 1252 H 120.632 0.333261 -0.657348 0
M  V30 1253 H 123.274 0.188198 -1.89066 0
M  V30 1254 H 121.424 2.36416 -3.08285 0
M  V30 1255 H 123.096 0.245362 -4.60647 0
M  V30 1256 H 121.339 0.161398 -4.335 0
M  V30 1257 H 122.01 1.46286 -5.32264 0
M  V30 1258 H 124.486 2.18983 -3.53816 0
M  V30 1259 H 123.362 3.2569 -4.41834 0
M  V30 1260 H 123.623 3.5018 -2.69864 0
M  V30 1261 N 122.682 1.50554 0.465978 0
M  V30 1262 C 124.093 1.54599 1.04671 0
M  V30 1263 C 124.444 0.352488 1.93008 0
M  V30 1264 O 123.569 -0.534044 2.09707 0
M  V30 1265 C 124.164 2.80166 1.90505 0
M  V30 1266 C 122.723 2.86876 2.43678 0
M  V30 1267 C 121.87 2.48947 1.22151 0
M  V30 1268 H 124.821 1.56744 0.248384 0
M  V30 1269 H 124.842 2.62311 2.75633 0
M  V30 1270 H 124.354 3.67013 1.26186 0
M  V30 1271 H 122.455 2.04393 3.11536 0
M  V30 1272 H 122.568 3.89885 2.78436 0
M  V30 1273 H 120.932 2.01498 1.5579 0
M  V30 1274 H 121.715 3.38107 0.594866 0
M  V30 1275 N 124.16 -0.719506 1.40217 0
M  V30 1276 C 125.385 -1.51371 1.4178 0
M  V30 1277 C 125.81 -1.88091 0.0182355 0
M  V30 1278 O 125.168 -1.52997 -0.972707 0
M  V30 1279 C 125.216 -2.768 2.31115 0
M  V30 1280 O 124.32 -3.73349 1.7517 0
M  V30 1281 H 123.661 -0.456529 0.482159 0
M  V30 1282 H 126.191 -0.88644 1.844 0
M  V30 1283 H 126.201 -3.25371 2.46167 0
M  V30 1284 H 124.876 -2.49407 3.3282 0
M  V30 1285 H 123.453 -3.32179 1.69444 0
M  V30 1286 N 125.638 -1.25649 -0.95132 0
M  V30 1287 C 126.601 -1.06399 -2.03007 0
M  V30 1288 C 127.601 -0.0156794 -1.60792 0
M  V30 1289 O 128.791 -0.25817 -1.72276 0
M  V30 1290 C 125.923 -0.616184 -3.35285 0
M  V30 1291 H 127.116 -2.02164 -2.21517 0
M  V30 1292 H 124.669 -1.08103 -1.12887 0
M  V30 1293 H 125.404 0.343917 -3.22471 0
M  V30 1294 H 125.189 -1.37301 -3.67275 0
M  V30 1295 H 126.679 -0.503032 -4.14559 0
M  V30 1296 N 127.117 1.15442 -1.07289 0
M  V30 1297 C 128.342 1.90638 -0.816828 0
M  V30 1298 C 128.767 1.77445 0.624083 0
M  V30 1299 O 128.125 1.10671 1.43602 0
M  V30 1300 C 128.173 3.39008 -1.22906 0
M  V30 1301 O 127.277 4.10701 -0.373975 0
M  V30 1302 H 126.618 0.593555 -0.297638 0
M  V30 1303 H 129.148 1.46198 -1.43134 0
M  V30 1304 H 129.158 3.89801 -1.20497 0
M  V30 1305 H 127.833 3.47929 -2.27856 0
M  V30 1306 H 126.41 3.70046 -0.460499 0
M  V30 1307 N 128.595 0.856903 1.32268 0
M  V30 1308 C 129.842 0.461386 1.97174 0
M  V30 1309 C 130.17 -0.983491 1.67803 0
M  V30 1310 O 129.425 -1.70541 0.959903 0
M  V30 1311 C 129.724 0.649919 3.51441 0
M  V30 1312 C 129.39 2.0656 4.00804 0
M  V30 1313 C 128.052 2.45279 4.13995 0
M  V30 1314 C 130.404 2.98947 4.26943 0
M  V30 1315 C 127.732 3.75653 4.50668 0
M  V30 1316 C 130.084 4.28822 4.65075 0
M  V30 1317 C 128.748 4.67472 4.76472 0
M  V30 1318 H 128.018 0.168833 0.72151 0
M  V30 1319 H 130.665 1.08739 1.57633 0
M  V30 1320 H 128.97 -0.0593018 3.91755 0
M  V30 1321 H 130.667 0.32391 3.9969 0
M  V30 1322 H 127.257 1.75495 3.91024 0
M  V30 1323 H 131.441 2.70265 4.16258 0
M  V30 1324 H 126.697 4.05379 4.57688 0
M  V30 1325 H 130.871 5.0047 4.84255 0
M  V30 1326 H 128.498 5.68539 5.04646 0
M  V30 1327 N 130.073 -1.45103 0.615059 0
M  V30 1328 C 131.003 -2.33339 -0.0865619 0
M  V30 1329 C 131.984 -1.4727 -0.851209 0
M  V30 1330 O 133.169 -1.76026 -0.820281 0
M  V30 1331 C 130.299 -3.30095 -1.07956 0
M  V30 1332 C 129.253 -4.25858 -0.427628 0
M  V30 1333 C 128.579 -5.12361 -1.5294 0
M  V30 1334 C 129.879 -5.18165 0.655944 0
M  V30 1335 H 131.573 -2.92254 0.650224 0
M  V30 1336 H 129.119 -1.40532 0.314138 0
M  V30 1337 H 131.072 -3.90698 -1.57901 0
M  V30 1338 H 129.796 -2.69355 -1.84703 0
M  V30 1339 H 128.455 -3.66564 0.0510292 0
M  V30 1340 H 128.103 -4.47984 -2.28734 0
M  V30 1341 H 127.803 -5.77238 -1.09865 0
M  V30 1342 H 129.327 -5.75833 -2.03098 0
M  V30 1343 H 130.741 -5.72796 0.240257 0
M  V30 1344 H 129.138 -5.91559 1.00888 0
M  V30 1345 H 130.208 -4.60144 1.52957 0
M  V30 1346 N 131.551 -0.354651 -1.53558 0
M  V30 1347 C 132.461 0.50515 -2.29097 0
M  V30 1348 C 133.477 1.10223 -1.34636 0
M  V30 1349 O 134.653 1.11553 -1.67684 0
M  V30 1350 C 131.718 1.63479 -3.05738 0
M  V30 1351 C 130.779 1.06636 -4.15845 0
M  V30 1352 C 130.012 2.14217 -4.88822 0
M  V30 1353 O 130.235 3.35137 -4.61562 0
M  V30 1354 O 129.169 1.77887 -5.75013 0
M  V30 1355 H 132.995 -0.109237 -3.03503 0
M  V30 1356 H 130.58 -0.119357 -1.48922 0
M  V30 1357 H 132.462 2.2918 -3.5363 0
M  V30 1358 H 131.137 2.23478 -2.34178 0
M  V30 1359 H 130.044 0.373565 -3.7223 0
M  V30 1360 H 131.377 0.511081 -4.89539 0
M  V30 1361 N 133.029 1.57378 -0.0835403 0
M  V30 1362 C 134.445 1.57246 0.273109 0
M  V30 1363 C 134.645 1.09385 1.69225 0
M  V30 1364 O 133.701 0.765051 2.40631 0
M  V30 1365 C 135.014 3.00614 0.0720628 0
M  V30 1366 C 136.562 3.12684 0.1407 0
M  V30 1367 C 137.037 4.57989 -0.0322094 0
M  V30 1368 N 138.528 4.63194 0.0230085 0
M  V30 1369 C 139.263 5.73335 -0.0861941 0
M  V30 1370 N 138.759 6.9235 -0.24958 0
M  V30 1371 N 140.552 5.62093 -0.0282886 0
M  V30 1372 H 132.703 1.86801 -1.0109 0
M  V30 1373 H 134.966 0.861687 -0.395222 0
M  V30 1374 H 134.672 3.39786 -0.907662 0
M  V30 1375 H 134.546 3.68193 0.81936 0
M  V30 1376 H 136.933 2.73391 1.11092 0
M  V30 1377 H 137.014 2.47719 -0.637896 0
M  V30 1378 H 136.658 4.97973 -0.999247 0
M  V30 1379 H 136.588 5.21 0.765937 0
M  V30 1380 H 139.079 3.77613 0.14722 0
M  V30 1381 H 139.392 7.72117 -0.324733 0
M  V30 1382 H 137.737 6.94415 -0.285097 0
M  V30 1383 H 140.928 4.67997 0.0981408 0
M  V30 1384 H 141.101 6.47895 -0.116845 0
M  V30 1385 N 134.507 -0.190092 1.56449 0
M  V30 1386 C 135.439 -1.25973 1.91477 0
M  V30 1387 C 136.452 -1.41452 0.805931 0
M  V30 1388 O 137.641 -1.41789 1.08435 0
M  V30 1389 C 134.741 -2.63117 2.13594 0
M  V30 1390 C 133.914 -2.69182 3.4476 0
M  V30 1391 C 132.973 -3.87557 3.5593 0
M  V30 1392 O 131.999 -3.74427 4.28711 0
M  V30 1393 N 133.201 -5.03224 2.89388 0
M  V30 1394 H 135.966 -0.962394 2.83828 0
M  V30 1395 H 133.527 -0.379981 1.57378 0
M  V30 1396 H 135.519 -3.40742 2.1835 0
M  V30 1397 H 134.089 -2.85319 1.27719 0
M  V30 1398 H 133.309 -1.77793 3.51828 0
M  V30 1399 H 134.597 -2.70229 4.31107 0
M  V30 1400 H 133.995 -5.16791 2.30094 0
M  V30 1401 H 132.552 -5.78778 2.99764 0
M  V30 1402 N 135.985 -1.50799 -0.457987 0
M  V30 1403 C 136.915 -1.73553 -1.5621 0
M  V30 1404 C 137.896 -0.584774 -1.59732 0
M  V30 1405 O 139.081 -0.825314 -1.7579 0
M  V30 1406 C 136.211 -1.84169 -2.94447 0
M  V30 1407 C 135.165 -2.99461 -3.0579 0
M  V30 1408 C 134.491 -2.95235 -4.45803 0
M  V30 1409 C 135.791 -4.39766 -2.81786 0
M  V30 1410 H 137.485 -2.66 -1.37421 0
M  V30 1411 H 135.031 -1.28002 -0.659662 0
M  V30 1412 H 136.984 -1.98672 -3.71628 0
M  V30 1413 H 135.708 -0.883545 -3.14422 0
M  V30 1414 H 134.367 -2.8463 -2.31044 0
M  V30 1415 H 134.015 -1.97239 -4.62715 0
M  V30 1416 H 133.715 -3.72642 -4.54326 0
M  V30 1417 H 135.239 -3.11803 -5.24987 0
M  V30 1418 H 136.653 -4.55054 -3.4871 0
M  V30 1419 H 135.05 -5.18722 -3.0174 0
M  V30 1420 H 136.12 -4.51229 -1.7754 0
M  V30 1421 N 137.463 0.71206 -1.40597 0
M  V30 1422 C 138.691 1.50111 -1.42388 0
M  V30 1423 C 139.106 1.88784 -0.0245395 0
M  V30 1424 O 138.463 1.55681 0.952351 0
M  V30 1425 C 138.514 2.7742 -2.31776 0
M  V30 1426 O 138.235 2.40382 -3.66262 0
M  V30 1427 C 139.736 3.7129 -2.42196 0
M  V30 1428 H 136.956 0.46314 -0.485533 0
M  V30 1429 H 139.5 0.878068 -1.8469 0
M  V30 1430 H 137.655 3.36001 -1.92827 0
M  V30 1431 H 138.069 3.22324 -4.13772 0
M  V30 1432 H 139.543 4.57448 -3.08943 0
M  V30 1433 H 140.02 4.14641 -1.44809 0
M  V30 1434 H 140.626 3.18619 -2.81712 0
M  V30 1435 N 138.941 1.26152 0.944643 0
M  V30 1436 C 139.904 1.07474 2.0244 0
M  V30 1437 C 140.904 0.0242064 1.60782 0
M  V30 1438 O 142.094 0.267302 1.72137 0
M  V30 1439 C 139.226 0.633956 3.34953 0
M  V30 1440 H 140.419 2.03336 2.20442 0
M  V30 1441 H 137.972 1.087 1.12312 0
M  V30 1442 H 138.707 -0.326811 3.22649 0
M  V30 1443 H 138.492 1.39247 3.66542 0
M  V30 1444 H 139.982 0.52501 4.14287 0
M  V30 1445 N 140.419 -1.14872 1.07899 0
M  V30 1446 C 141.667 -1.85422 0.803941 0
M  V30 1447 C 141.988 -1.83051 -0.67211 0
M  V30 1448 O 141.258 -1.27532 -1.48703 0
M  V30 1449 H 139.838 -0.686537 0.294408 0
M  V30 1450 H 142.5 -1.39226 1.3639 0
M  V30 1451 H 141.596 -2.90399 1.14346 0
M  V30 1452 N 141.898 -0.863906 -1.31812 0
M  V30 1453 C 143.144 -0.472535 -1.97218 0
M  V30 1454 C 143.477 0.971394 -1.68159 0
M  V30 1455 O 142.752 1.68309 -0.974798 0
M  V30 1456 C 143.035 -0.723054 -3.52766 0
M  V30 1457 C 142.888 -2.21608 -3.91421 0
M  V30 1458 C 144.207 -0.185522 -4.39709 0
M  V30 1459 H 141.326 -0.173158 -0.71637 0
M  V30 1460 H 143.968 -1.08403 -1.56041 0
M  V30 1461 H 142.118 -0.202577 -3.87971 0
M  V30 1462 H 143.79 -2.80334 -3.66347 0
M  V30 1463 H 142.033 -2.691 -3.40246 0
M  V30 1464 H 142.704 -2.34203 -4.99853 0
M  V30 1465 H 145.18 -0.630726 -4.11292 0
M  V30 1466 H 144.056 -0.390306 -5.47511 0
M  V30 1467 H 144.317 0.912229 -4.32586 0
M  V30 1468 N 143.376 1.44774 -0.622745 0
M  V30 1469 C 144.623 2.02121 -0.1239 0
M  V30 1470 C 144.951 1.48915 1.25118 0
M  V30 1471 O 144.206 0.660045 1.84233 0
M  V30 1472 C 144.505 3.57364 -0.0508323 0
M  V30 1473 C 144.171 4.29787 -1.36358 0
M  V30 1474 C 142.833 4.4929 -1.72314 0
M  V30 1475 C 145.185 4.71062 -2.23048 0
M  V30 1476 C 142.513 5.07325 -2.94682 0
M  V30 1477 C 144.865 5.30452 -3.44679 0
M  V30 1478 C 143.529 5.48175 -3.80868 0
M  V30 1479 H 142.799 0.739612 -0.0453381 0
M  V30 1480 H 145.446 1.73648 -0.807389 0
M  V30 1481 H 143.751 3.85202 0.715991 0
M  V30 1482 H 145.448 3.99456 0.351533 0
M  V30 1483 H 142.038 4.14932 -1.07375 0
M  V30 1484 H 146.222 4.55715 -1.96565 0
M  V30 1485 H 141.478 5.19235 -3.22809 0
M  V30 1486 H 145.652 5.61385 -4.12092 0
M  V30 1487 H 143.279 5.92912 -4.75773 0
M  V30 1488 N 144.854 0.36279 1.53368 0
M  V30 1489 C 145.786 -0.519668 2.23231 0
M  V30 1490 C 146.799 -1.04844 1.24546 0
M  V30 1491 O 147.988 -0.955296 1.50786 0
M  V30 1492 C 145.088 -1.72995 2.9142 0
M  V30 1493 C 144.261 -1.33316 4.16588 0
M  V30 1494 C 143.32 -2.40521 4.68013 0
M  V30 1495 O 142.346 -2.03027 5.3176 0
M  V30 1496 N 143.548 -3.72065 4.45587 0
M  V30 1497 H 146.313 0.078751 2.99597 0
M  V30 1498 H 143.874 0.187833 1.60807 0
M  V30 1499 H 145.866 -2.44184 3.22733 0
M  V30 1500 H 144.436 -2.2353 2.18525 0
M  V30 1501 H 143.656 -0.451236 3.91609 0
M  V30 1502 H 144.944 -1.04432 4.97967 0
M  V30 1503 H 144.342 -4.05304 3.94646 0
M  V30 1504 H 142.899 -4.39366 4.81457 0
M  V30 1505 N 146.332 -1.57332 0.0918853 0
M  V30 1506 C 147.743 -1.81496 -0.437739 0
M  V30 1507 C 148.094 -1.00727 -1.6837 0
M  V30 1508 O 147.219 -0.235694 -2.15113 0
M  V30 1509 C 147.814 -3.29197 -0.800939 0
M  V30 1510 C 146.373 -3.54136 -1.27532 0
M  V30 1511 C 145.52 -2.75979 -0.270392 0
M  V30 1512 H 148.471 -1.55494 0.317366 0
M  V30 1513 H 148.492 -3.42344 -1.66074 0
M  V30 1514 H 148.004 -3.87955 0.106078 0
M  V30 1515 H 146.105 -3.00705 -2.20016 0
M  V30 1516 H 146.218 -4.62792 -1.23938 0
M  V30 1517 H 144.582 -2.43349 -0.751872 0
M  V30 1518 H 145.365 -3.37484 0.629248 0
M  V30 1519 N 147.81 0.181792 -1.56548 0
M  V30 1520 C 148.74 1.22765 -1.98623 0
M  V30 1521 C 149.721 1.46747 -0.860189 0
M  V30 1522 O 150.906 1.58259 -1.12551 0
M  V30 1523 C 148.036 2.56894 -2.33715 0
M  V30 1524 C 146.99 2.475 -3.49182 0
M  V30 1525 C 146.316 3.86023 -3.69986 0
M  V30 1526 C 147.616 1.98866 -4.82959 0
M  V30 1527 H 149.31 0.877942 -2.86239 0
M  V30 1528 H 146.856 0.42088 -1.37712 0
M  V30 1529 H 148.809 3.30253 -2.61746 0
M  V30 1530 H 147.533 2.93632 -1.42997 0
M  V30 1531 H 146.192 1.76596 -3.21262 0
M  V30 1532 H 145.84 4.20136 -2.76576 0
M  V30 1533 H 145.54 3.80609 -4.47672 0
M  V30 1534 H 147.064 4.60984 -4.00407 0
M  V30 1535 H 148.478 2.61992 -5.09934 0
M  V30 1536 H 146.875 2.04424 -5.64208 0
M  V30 1537 H 147.945 0.942465 -4.75653 0
M  V30 1538 N 149.288 1.51039 0.449983 0
M  V30 1539 C 150.565 1.53612 1.21089 0
M  V30 1540 C 150.945 0.292997 2.09057 0
M  V30 1541 O 150.293 -0.72259 2.16774 0
M  V30 1542 C 150.503 2.84337 2.0237 0
M  V30 1543 C 151.851 3.35807 2.59843 0
M  V30 1544 O 152.875 2.85802 2.12593 0
M  V30 1545 O 151.734 4.23029 3.45989 0
M  V30 1546 H 148.828 0.617057 0.550608 0
M  V30 1547 H 151.374 1.63344 0.460082 0
M  V30 1548 H 150.146 3.66278 1.37681 0
M  V30 1549 H 149.769 2.77708 2.84542 0
M  V30 1550 N 150.766 -0.704594 1.40972 0
M  V30 1551 C 151.713 -1.81862 1.42109 0
M  V30 1552 C 152.683 -1.63781 0.276593 0
M  V30 1553 O 153.868 -1.84759 0.4763 0
M  V30 1554 C 151.008 -3.19669 1.30022 0
M  V30 1555 C 150.121 -3.49246 2.54267 0
M  V30 1556 C 149.256 -4.76618 2.3454 0
M  V30 1557 C 148.295 -4.99133 3.54306 0
M  V30 1558 N 147.432 -6.17726 3.33706 0
M  V30 1559 H 152.272 -1.80226 2.37324 0
M  V30 1560 H 149.809 -0.880238 1.17857 0
M  V30 1561 H 151.767 -3.99263 1.21018 0
M  V30 1562 H 150.397 -3.20506 0.384192 0
M  V30 1563 H 149.449 -2.64125 2.73756 0
M  V30 1564 H 150.761 -3.61788 3.43381 0
M  V30 1565 H 149.915 -5.64249 2.22952 0
M  V30 1566 H 148.654 -4.66305 1.42867 0
M  V30 1567 H 147.659 -4.09953 3.66359 0
M  V30 1568 H 148.884 -5.11311 4.4692 0
M  V30 1569 H 146.83 -6.08642 2.44725 0
M  V30 1570 H 146.747 -6.30995 4.16391 0
M  V30 1571 H 148.015 -7.08115 3.25873 0
M  V30 1572 N 152.244 -1.26651 -0.937939 0
M  V30 1573 C 153.469 -1.15279 -1.72411 0
M  V30 1574 C 153.894 0.287866 -1.85884 0
M  V30 1575 O 153.252 1.20855 -1.35143 0
M  V30 1576 C 153.3 -1.83028 -3.10698 0
M  V30 1577 O 152.404 -1.12128 -3.96864 0
M  V30 1578 H 151.745 -0.401504 -0.528858 0
M  V30 1579 H 154.275 -1.67531 -1.1745 0
M  V30 1580 H 154.285 -1.89981 -3.6107 0
M  V30 1581 H 152.96 -2.87833 -3.00208 0
M  V30 1582 H 151.537 -1.13173 -3.55312 0
M  V30 1583 N 153.722 1.14298 -1.08507 0
M  V30 1584 C 154.669 2.19414 -0.715965 0
M  V30 1585 C 155.639 1.63399 0.298326 0
M  V30 1586 O 156.824 1.89929 0.182101 0
M  V30 1587 C 153.964 3.44845 -0.132534 0
M  V30 1588 C 153.077 4.15007 -1.19973 0
M  V30 1589 C 152.212 5.28024 -0.580048 0
M  V30 1590 C 151.251 5.9002 -1.62921 0
M  V30 1591 N 150.388 6.94485 -1.03125 0
M  V30 1592 H 155.228 2.50336 -1.61666 0
M  V30 1593 H 152.765 1.2293 -0.807882 0
M  V30 1594 H 154.723 4.16601 0.223454 0
M  V30 1595 H 153.353 3.14403 0.731467 0
M  V30 1596 H 152.405 3.41629 -1.67313 0
M  V30 1597 H 153.717 4.57178 -1.99473 0
M  V30 1598 H 152.871 6.06455 -0.172364 0
M  V30 1599 H 151.61 4.87076 0.246603 0
M  V30 1600 H 150.615 5.10291 -2.04654 0
M  V30 1601 H 151.84 6.33042 -2.45835 0
M  V30 1602 H 149.786 6.55612 -0.225711 0
M  V30 1603 H 149.703 7.35148 -1.76334 0
M  V30 1604 H 150.971 7.7679 -0.649458 0
M  V30 1605 N 155.201 0.870884 1.31352 0
M  V30 1606 C 156.131 0.343096 2.30966 0
M  V30 1607 C 157.112 -0.566507 1.60389 0
M  V30 1608 O 158.297 -0.483336 1.88089 0
M  V30 1609 C 155.427 -0.455487 3.443 0
M  V30 1610 C 154.381 0.361103 4.26474 0
M  V30 1611 C 153.707 -0.563221 5.31725 0
M  V30 1612 C 155.007 1.59566 4.97329 0
M  V30 1613 H 156.701 1.17548 2.75359 0
M  V30 1614 H 154.247 0.566686 1.32381 0
M  V30 1615 H 156.2 -0.83525 4.13039 0
M  V30 1616 H 154.924 -1.32139 2.98675 0
M  V30 1617 H 153.583 0.722825 3.59403 0
M  V30 1618 H 153.231 -1.42643 4.82351 0
M  V30 1619 H 152.931 -0.0207409 5.87596 0
M  V30 1620 H 154.455 -0.939808 6.03324 0
M  V30 1621 H 155.869 1.28728 5.58661 0
M  V30 1622 H 154.266 2.07728 5.63 0
M  V30 1623 H 155.336 2.34798 4.24262 0
M  V30 1624 N 156.679 -1.44442 0.630414 0
M  V30 1625 C 158.09 -1.85434 0.217063 0
M  V30 1626 C 158.441 -1.52748 -1.23136 0
M  V30 1627 O 157.566 -0.965205 -1.93682 0
M  V30 1628 C 158.161 -3.36581 0.387168 0
M  V30 1629 C 156.72 -3.76389 0.0283297 0
M  V30 1630 C 155.867 -2.68296 0.700889 0
M  V30 1631 H 158.818 -1.34919 0.83562 0
M  V30 1632 H 158.839 -3.78657 -0.374086 0
M  V30 1633 H 158.351 -3.60339 1.44144 0
M  V30 1634 H 156.452 -3.58246 -1.02423 0
M  V30 1635 H 156.565 -4.77095 0.437892 0
M  V30 1636 H 154.929 -2.54335 0.136267 0
M  V30 1637 H 155.712 -2.94887 1.75774 0
M  V30 1638 N 158.157 -0.370918 -1.53173 0
M  V30 1639 C 159.067 0.480823 -2.2962 0
M  V30 1640 C 160.083 1.08789 -1.35798 0
M  V30 1641 O 161.259 1.09768 -1.68858 0
M  V30 1642 C 158.324 1.60227 -3.07454 0
M  V30 1643 C 157.385 1.0222 -4.16953 0
M  V30 1644 C 156.618 2.0902 -4.91066 0
M  V30 1645 O 156.841 3.30222 -4.65091 0
M  V30 1646 O 155.775 1.71778 -5.76867 0
M  V30 1647 H 159.601 -0.141421 -3.03371 0
M  V30 1648 H 157.186 -0.135146 -1.48787 0
M  V30 1649 H 159.068 2.25417 -3.56041 0
M  V30 1650 H 157.743 2.20982 -2.36535 0
M  V30 1651 H 156.65 0.334064 -3.72605 0
M  V30 1652 H 157.983 0.459131 -4.90054 0
M  V30 1653 N 159.635 1.57281 -0.100228 0
M  V30 1654 C 160.881 1.95626 0.556946 0
M  V30 1655 C 161.236 0.981655 1.65473 0
M  V30 1656 O 160.529 0.00849847 1.91598 0
M  V30 1657 C 160.723 3.38305 1.15259 0
M  V30 1658 C 160.552 4.49555 0.114035 0
M  V30 1659 C 159.322 5.0434 -0.311266 0
M  V30 1660 C 161.52 5.10051 -0.659768 0
M  V30 1661 N 159.502 5.99152 -1.33755 0
M  V30 1662 C 160.873 6.00628 -1.53774 0
M  V30 1663 C 162.928 4.92772 -0.712723 0
M  V30 1664 C 161.631 6.7578 -2.46403 0
M  V30 1665 C 163.657 5.6859 -1.62663 0
M  V30 1666 C 163.019 6.58838 -2.49222 0
M  V30 1667 H 159.118 0.7624 0.173982 0
M  V30 1668 H 161.702 1.93829 -0.183988 0
M  V30 1669 H 159.873 3.40786 1.86332 0
M  V30 1670 H 161.605 3.63817 1.77254 0
M  V30 1671 H 158.36 4.73537 0.0774812 0
M  V30 1672 H 158.784 6.5126 -1.84905 0
M  V30 1673 H 163.426 4.22761 -0.0576648 0
M  V30 1674 H 161.144 7.4505 -3.12931 0
M  V30 1675 H 164.73 5.57233 -1.67281 0
M  V30 1676 H 163.61 7.16479 -3.18791 0
M  V30 1677 N 161.113 -0.173488 1.56642 0
M  V30 1678 C 162.06 -1.21482 1.96242 0
M  V30 1679 C 163.03 -1.44104 0.826027 0
M  V30 1680 O 164.215 -1.5688 1.08597 0
M  V30 1681 C 161.355 -2.54964 2.32567 0
M  V30 1682 C 160.468 -2.39739 3.59373 0
M  V30 1683 C 159.603 -3.66072 3.84921 0
M  V30 1684 C 158.642 -3.45771 5.05083 0
M  V30 1685 N 157.779 -4.64169 5.26775 0
M  V30 1686 H 162.619 -0.870123 2.85014 0
M  V30 1687 H 160.156 -0.418245 1.41029 0
M  V30 1688 H 162.114 -3.32758 2.5165 0
M  V30 1689 H 160.744 -2.87433 1.46908 0
M  V30 1690 H 159.796 -1.53131 3.48217 0
M  V30 1691 H 161.108 -2.20683 4.47326 0
M  V30 1692 H 160.262 -4.52303 4.0436 0
M  V30 1693 H 159.001 -3.88105 2.9534 0
M  V30 1694 H 158.006 -2.57927 4.85545 0
M  V30 1695 H 159.231 -3.25163 5.96193 0
M  V30 1696 H 157.177 -4.86425 4.40144 0
M  V30 1697 H 157.094 -4.48019 6.08946 0
M  V30 1698 H 158.362 -5.51689 5.5069 0
M  V30 1699 N 162.591 -1.51276 -0.441967 0
M  V30 1700 C 163.539 -1.72823 -1.55676 0
M  V30 1701 C 164.533 -0.59445 -1.58627 0
M  V30 1702 O 165.739 -0.775715 -1.62427 0
M  V30 1703 H 162.114 -0.545983 -0.517113 0
M  V30 1704 H 164.085 -2.6628 -1.34675 0
M  V30 1705 C 162.834 -1.86619 -2.93375 0
M  V30 1706 H 162.157 -2.73264 -2.91834 0
M  V30 1707 H 163.597 -2.05709 -3.70756 0
M  V30 1708 C 162.056 -0.624842 -3.31055 0
M  V30 1709 O 162.586 0.222636 -4.01083 0
M  V30 1710 N 160.792 -0.470288 -2.86769 0
M  V30 1711 H 160.339 -1.161 -2.29953 0
M  V30 1712 H 160.297 0.359051 -3.12343 0
M  V30 1713 N 164.069 0.697108 -1.41344 0
M  V30 1714 C 164.999 1.82353 -1.45841 0
M  V30 1715 C 165.98 1.67115 -0.317247 0
M  V30 1716 O 167.165 1.86871 -0.528474 0
M  V30 1717 C 164.295 3.20476 -1.33838 0
M  V30 1718 C 163.249 3.50415 -2.4575 0
M  V30 1719 C 162.575 4.87878 -2.18813 0
M  V30 1720 C 163.875 3.49546 -3.88091 0
M  V30 1721 H 165.569 1.78846 -2.40113 0
M  V30 1722 H 163.115 0.859028 -1.15571 0
M  V30 1723 H 165.068 3.98988 -1.35596 0
M  V30 1724 H 163.792 3.24604 -0.360498 0
M  V30 1725 H 162.451 2.74253 -2.43271 0
M  V30 1726 H 162.099 4.8863 -1.19371 0
M  V30 1727 H 161.799 5.08875 -2.93803 0
M  V30 1728 H 163.323 5.68702 -2.22284 0
M  V30 1729 H 164.737 4.18066 -3.92293 0
M  V30 1730 H 163.134 3.82075 -4.62751 0
M  V30 1731 H 164.204 2.48552 -4.16353 0
M  V30 1732 N 165.547 1.27147 0.931209 0
M  V30 1733 C 166.824 1.0401 1.65654 0
M  V30 1734 C 167.204 -0.426297 2.06751 0
M  V30 1735 O 166.552 -1.40879 1.79904 0
M  V30 1736 C 166.762 1.99834 2.86125 0
M  V30 1737 C 168.11 2.29007 3.57549 0
M  V30 1738 O 169.134 1.97779 2.96246 0
M  V30 1739 O 167.993 2.82222 4.67989 0
M  V30 1740 H 165.087 0.396239 0.725895 0
M  V30 1741 H 167.633 1.38397 0.982056 0
M  V30 1742 H 166.405 2.98744 2.52721 0
M  V30 1743 H 166.028 1.65987 3.61295 0
M  V30 1744 N 167.025 -1.13721 1.09112 0
M  V30 1745 C 168.436 -1.6648 0.845068 0
M  V30 1746 C 168.787 -1.85911 -0.62701 0
M  V30 1747 O 167.912 -1.57556 -1.48341 0
M  V30 1748 C 168.507 -3.02413 1.52748 0
M  V30 1749 C 167.066 -3.52176 1.32849 0
M  V30 1750 C 166.213 -2.27492 1.58564 0
M  V30 1751 H 169.164 -0.976872 1.25072 0
M  V30 1752 H 169.185 -3.68223 0.958752 0
M  V30 1753 H 168.697 -2.88238 2.59885 0
M  V30 1754 H 166.798 -3.7156 0.278137 0
M  V30 1755 H 166.911 -4.32499 2.0611 0
M  V30 1756 H 165.275 -2.33923 1.00758 0
M  V30 1757 H 166.058 -2.15886 2.66924 0
M  V30 1758 N 168.503 -0.877838 -1.30888 0
M  V30 1759 C 169.413 -0.343096 -2.32078 0
M  V30 1760 C 170.429 0.551022 -1.65045 0
M  V30 1761 O 171.605 0.445854 -1.96403 0
M  V30 1762 C 168.67 0.439905 -3.43898 0
M  V30 1763 C 167.731 -0.483111 -4.26573 0
M  V30 1764 C 166.964 0.262616 -5.33053 0
M  V30 1765 O 167.187 1.48967 -5.50604 0
M  V30 1766 O 166.121 -0.383593 -6.00676 0
M  V30 1767 H 169.947 -1.18203 -2.79753 0
M  V30 1768 H 167.532 -0.64145 -1.34929 0
M  V30 1769 H 169.414 0.883504 -4.12034 0
M  V30 1770 H 168.089 1.25526 -2.98371 0
M  V30 1771 H 166.996 -0.975374 -3.61161 0
M  V30 1772 H 168.329 -1.26427 -4.75686 0
M  V30 1773 N 169.982 1.44106 -0.638065 0
M  V30 1774 C 170.912 2.33448 0.0494287 0
M  V30 1775 C 171.893 1.48606 0.827672 0
M  V30 1776 O 173.078 1.77308 0.792173 0
M  V30 1777 C 170.208 3.31771 1.02691 0
M  V30 1778 C 169.162 4.26485 0.359823 0
M  V30 1779 C 168.488 5.14729 1.44769 0
M  V30 1780 C 169.788 5.17056 -0.738296 0
M  V30 1781 H 171.482 2.91183 -0.696636 0
M  V30 1782 H 169.028 1.40014 -0.336456 0
M  V30 1783 H 170.981 3.93161 1.51666 0
M  V30 1784 H 169.705 2.7226 1.80395 0
M  V30 1785 H 168.364 3.66437 -0.10934 0
M  V30 1786 H 168.012 4.51566 2.21578 0
M  V30 1787 H 167.712 5.78913 1.00668 0
M  V30 1788 H 169.236 5.78991 1.93911 0
M  V30 1789 H 170.65 5.72342 -0.331354 0
M  V30 1790 H 169.047 5.89879 -1.10286 0
M  V30 1791 H 170.117 4.57652 -1.60258 0
M  V30 1792 N 171.46 0.379036 1.52974 0
M  V30 1793 C 172.39 -0.452706 2.29069 0
M  V30 1794 C 173.371 -1.07237 1.32039 0
M  V30 1795 O 174.556 -1.08708 1.60923 0
M  V30 1796 C 171.686 -1.5856 3.08992 0
M  V30 1797 C 170.64 -1.0925 4.13822 0
M  V30 1798 C 169.966 -2.31668 4.81907 0
M  V30 1799 C 171.266 -0.167702 5.22031 0
M  V30 1800 H 172.96 0.182181 2.98845 0
M  V30 1801 H 170.506 0.0890592 1.43724 0
M  V30 1802 H 172.459 -2.1742 3.6098 0
M  V30 1803 H 171.183 -2.24792 2.36931 0
M  V30 1804 H 169.842 -0.526494 3.628 0
M  V30 1805 H 169.49 -2.96386 4.06404 0
M  V30 1806 H 169.19 -1.9934 5.52754 0
M  V30 1807 H 170.714 -2.91189 5.36695 0
M  V30 1808 H 172.128 -0.664186 5.6944 0
M  V30 1809 H 170.525 0.0653265 6.00064 0
M  V30 1810 H 171.595 0.786347 4.78482 0
M  V30 1811 N 172.938 -1.57226 0.108567 0
M  V30 1812 C 173.885 -2.14756 -0.845481 0
M  V30 1813 C 174.855 -1.06971 -1.27068 0
M  V30 1814 O 176.04 -1.34827 -1.35005 0
M  V30 1815 C 173.18 -2.74298 -2.09415 0
M  V30 1816 C 172.293 -3.96358 -1.71826 0
M  V30 1817 C 171.428 -4.44021 -2.9158 0
M  V30 1818 C 170.467 -5.58637 -2.50181 0
M  V30 1819 N 169.604 -6.01091 -3.62814 0
M  V30 1820 H 174.444 -2.95961 -0.348035 0
M  V30 1821 H 171.981 -1.46226 -0.160106 0
M  V30 1822 H 173.939 -3.06945 -2.82561 0
M  V30 1823 H 172.569 -1.95801 -2.56636 0
M  V30 1824 H 171.621 -3.69939 -0.885947 0
M  V30 1825 H 172.933 -4.79504 -1.37394 0
M  V30 1826 H 172.087 -4.78522 -3.72963 0
M  V30 1827 H 170.826 -3.59803 -3.29231 0
M  V30 1828 H 169.831 -5.23751 -1.67228 0
M  V30 1829 H 171.056 -6.44613 -2.13659 0
M  V30 1830 H 169.002 -5.19817 -4.00158 0
M  V30 1831 H 168.919 -6.79066 -3.32273 0
M  V30 1832 H 170.187 -6.40227 -4.44668 0
M  V30 1833 N 174.416 0.165178 -1.56732 0
M  V30 1834 C 175.346 1.20651 -1.99914 0
M  V30 1835 C 176.327 1.45827 -0.875705 0
M  V30 1836 O 177.512 1.57057 -1.14223 0
M  V30 1837 C 174.642 2.54401 -2.36427 0
M  V30 1838 C 173.596 2.43782 -3.51787 0
M  V30 1839 C 172.922 3.82078 -3.7406 0
M  V30 1840 C 174.222 1.93732 -4.85041 0
M  V30 1841 H 175.916 0.847534 -2.87154 0
M  V30 1842 H 173.462 0.40625 -1.38151 0
M  V30 1843 H 175.415 3.27458 -2.65234 0
M  V30 1844 H 174.139 2.92098 -1.46103 0
M  V30 1845 H 172.798 1.73178 -3.23117 0
M  V30 1846 H 172.446 4.17179 -2.81017 0
M  V30 1847 H 172.146 3.7584 -4.51684 0
M  V30 1848 H 173.67 4.56712 -4.05274 0
M  V30 1849 H 175.084 2.56569 -5.12684 0
M  V30 1850 H 173.481 1.98428 -5.66345 0
M  V30 1851 H 174.551 0.891962 -4.76626 0
M  V30 1852 N 175.894 1.51508 0.433938 0
M  V30 1853 C 177.14 1.64588 1.18484 0
M  V30 1854 C 177.473 0.362666 1.90784 0
M  V30 1855 O 176.748 -0.637892 1.83742 0
M  V30 1856 C 177.031 2.85149 2.19913 0
M  V30 1857 C 176.884 4.23456 1.51674 0
M  V30 1858 C 178.203 3.01227 3.20858 0
M  V30 1859 H 175.322 0.598994 0.429389 0
M  V30 1860 H 177.964 1.84002 0.473647 0
M  V30 1861 H 176.114 2.68729 2.80566 0
M  V30 1862 H 177.786 4.51552 0.943322 0
M  V30 1863 H 176.029 4.25998 0.819035 0
M  V30 1864 H 176.7 5.03812 2.2556 0
M  V30 1865 H 179.176 3.16382 2.70263 0
M  V30 1866 H 178.052 3.87141 3.89118 0
M  V30 1867 H 178.313 2.13447 3.8716 0
M  V30 1868 N 177.372 -0.689602 1.41712 0
M  V30 1869 C 178.335 -1.78521 1.43746 0
M  V30 1870 C 179.335 -1.57436 0.327191 0
M  V30 1871 O 180.525 -1.64 0.587348 0
M  V30 1872 C 177.657 -3.16971 1.25467 0
M  V30 1873 H 178.85 -1.78108 2.41283 0
M  V30 1874 H 176.403 -0.89781 1.27942 0
M  V30 1875 H 177.138 -3.23019 0.287948 0
M  V30 1876 H 176.923 -3.33678 2.05917 0
M  V30 1877 H 178.413 -3.96935 1.2974 0
M  V30 1878 N 178.85 -1.27639 -0.924453 0
M  V30 1879 C 179.797 -1.10644 -2.0255 0
M  V30 1880 C 180.767 -0.00658438 -1.66099 0
M  V30 1881 O 181.952 -0.16952 -1.90045 0
M  V30 1882 C 179.092 -0.76309 -3.36557 0
M  V30 1883 C 178.205 -1.94091 -3.85944 0
M  V30 1884 C 177.34 -1.53914 -5.08413 0
M  V30 1885 C 176.379 -2.68425 -5.50104 0
M  V30 1886 N 175.516 -2.28815 -6.63768 0
M  V30 1887 H 180.356 -2.04858 -2.16419 0
M  V30 1888 H 177.893 -1.01974 -1.06017 0
M  V30 1889 H 179.851 -0.544822 -4.13627 0
M  V30 1890 H 178.481 0.142102 -3.22487 0
M  V30 1891 H 177.533 -2.27162 -3.05125 0
M  V30 1892 H 178.845 -2.7998 -4.12811 0
M  V30 1893 H 177.999 -1.28231 -5.92994 0
M  V30 1894 H 176.738 -0.651391 -4.8333 0
M  V30 1895 H 175.743 -2.94819 -4.64071 0
M  V30 1896 H 176.968 -3.57826 -5.7718 0
M  V30 1897 H 174.914 -1.42495 -6.40337 0
M  V30 1898 H 174.831 -3.08242 -6.90306 0
M  V30 1899 H 176.099 -2.06387 -7.51681 0
M  V30 1900 N 180.328 1.1314 -1.09713 0
M  V30 1901 C 181.278 2.16709 -0.708593 0
M  V30 1902 C 182.262 1.58471 0.278523 0
M  V30 1903 O 183.454 1.76779 0.088427 0
M  V30 1904 C 180.583 3.43039 -0.133923 0
M  V30 1905 C 179.669 4.08277 -1.14763 0
M  V30 1906 N 180.06 4.48637 -2.33577 0
M  V30 1907 C 178.358 4.34954 -0.986446 0
M  V30 1908 C 179.059 4.9952 -2.98085 0
M  V30 1909 N 178.035 4.94561 -2.25632 0
M  V30 1910 H 181.837 2.45672 -1.61315 0
M  V30 1911 H 179.351 1.29967 -0.973775 0
M  V30 1912 H 181.348 4.16583 0.162465 0
M  V30 1913 H 180.008 3.15549 0.765447 0
M  V30 1914 H 181.019 4.41246 -2.7115 0
M  V30 1915 H 177.696 4.17258 -0.142008 0
M  V30 1916 H 179.086 5.40521 -3.99108 0
M  V30 1917 N 181.806 0.884767 1.30421 0
M  V30 1918 C 183.083 0.423185 1.90967 0
M  V30 1919 C 183.463 -1.09605 1.80416 0
M  V30 1920 O 182.811 -1.93126 1.22125 0
M  V30 1921 C 183.021 0.921056 3.36627 0
M  V30 1922 C 184.369 0.955903 4.137 0
M  V30 1923 O 185.393 0.867706 3.4547 0
M  V30 1924 O 184.252 1.08614 5.35598 0
M  V30 1925 H 181.346 0.129369 0.816819 0
M  V30 1926 H 183.892 0.973653 1.3899 0
M  V30 1927 H 182.664 1.96489 3.3839 0
M  V30 1928 H 182.287 0.349741 3.96059 0
M  V30 1929 N 183.284 -1.43765 0.645699 0
M  V30 1930 C 184.695 -1.85193 0.236719 0
M  V30 1931 C 185.046 -1.54045 -1.21509 0
M  V30 1932 O 184.171 -0.985694 -1.92647 0
M  V30 1933 C 184.766 -3.36151 0.422845 0
M  V30 1934 C 183.325 -3.76338 0.0682492 0
M  V30 1935 C 182.472 -2.67538 0.729306 0
M  V30 1936 H 185.423 -1.34025 0.849883 0
M  V30 1937 H 185.444 -3.79032 -0.333904 0
M  V30 1938 H 184.956 -3.5879 1.47958 0
M  V30 1939 H 183.057 -3.59312 -0.986179 0
M  V30 1940 H 183.17 -4.76603 0.488469 0
M  V30 1941 H 181.534 -2.54176 0.163235 0
M  V30 1942 H 182.317 -2.93006 1.78892 0
M  V30 1943 N 184.763 -0.387143 -1.52771 0
M  V30 1944 C 186.04 0.253197 -1.93954 0
M  V30 1945 C 186.42 1.64545 -1.32243 0
M  V30 1946 O 185.768 2.23191 -0.489699 0
M  V30 1947 C 185.978 0.281722 -3.47861 0
M  V30 1948 C 187.326 0.511715 -4.21505 0
M  V30 1949 O 188.35 0.362023 -3.54356 0
M  V30 1950 O 187.209 0.804847 -5.40541 0
M  V30 1951 H 184.303 0.156845 -0.811991 0
M  V30 1952 H 186.849 -0.441494 -1.63856 0
M  V30 1953 H 185.621 -0.693571 -3.85104 0
M  V30 1954 H 185.244 1.02142 -3.84256 0
M  V30 1955 N 186.241 1.57166 -0.116904 0
M  V30 1956 C 187.189 2.16457 0.851418 0
M  V30 1957 C 188.183 1.11323 1.27686 0
M  V30 1958 O 189.389 1.2963 1.24884 0
M  V30 1959 H 185.764 0.69271 0.292672 0
M  V30 1960 H 187.735 2.96605 0.32685 0
M  V30 1961 C 186.484 2.77689 2.09246 0
M  V30 1962 H 185.807 3.58285 1.77402 0
M  V30 1963 H 187.247 3.22716 2.7501 0
M  V30 1964 C 185.706 1.74667 2.88085 0
M  V30 1965 O 186.236 1.19877 3.83396 0
M  V30 1966 N 184.442 1.44656 2.52038 0
M  V30 1967 H 183.989 1.89402 1.74599 0
M  V30 1968 H 183.947 0.759675 3.05084 0
M  V30 1969 N 187.719 -0.156864 1.56817 0
M  V30 1970 C 188.666 -1.19394 1.97519 0
M  V30 1971 C 189.636 -1.4322 0.841265 0
M  V30 1972 O 190.821 -1.55719 1.10255 0
M  V30 1973 C 187.961 -2.52483 2.35258 0
M  V30 1974 C 187.074 -2.35914 3.61896 0
M  V30 1975 C 186.209 -3.61969 3.88782 0
M  V30 1976 C 185.248 -3.40395 5.08722 0
M  V30 1977 N 184.385 -4.58556 5.31668 0
M  V30 1978 H 189.225 -0.839845 2.85921 0
M  V30 1979 H 186.762 -0.403264 1.41464 0
M  V30 1980 H 188.72 -3.30071 2.55165 0
M  V30 1981 H 187.35 -2.85859 1.49949 0
M  V30 1982 H 186.402 -1.49429 3.49821 0
M  V30 1983 H 187.714 -2.15926 4.49641 0
M  V30 1984 H 186.868 -4.47989 4.09135 0
M  V30 1985 H 185.607 -3.84951 2.9944 0
M  V30 1986 H 184.612 -2.52763 4.88253 0
M  V30 1987 H 185.837 -3.18822 5.99608 0
M  V30 1988 H 183.783 -4.81729 4.45279 0
M  V30 1989 H 183.7 -4.41535 6.13664 0
M  V30 1990 H 184.968 -5.45817 5.5651 0
M  V30 1991 N 189.197 -1.51736 -0.425897 0
M  V30 1992 C 190.444 -1.6497 -1.17436 0
M  V30 1993 C 190.772 -0.371445 -1.9092 0
M  V30 1994 O 190.027 0.644963 -1.84767 0
M  V30 1995 C 190.326 -2.81103 -2.20717 0
M  V30 1996 C 189.992 -4.19954 -1.64162 0
M  V30 1997 C 188.654 -4.57725 -1.48462 0
M  V30 1998 C 191.006 -5.06552 -1.22696 0
M  V30 1999 C 188.334 -5.79789 -0.897873 0
M  V30 2000 C 190.686 -6.29205 -0.654464 0
M  V30 2001 C 189.35 -6.6574 -0.484456 0
M  V30 2002 H 188.62 -0.603668 -0.429727 0
M  V30 2003 H 191.267 -1.85798 -0.463829 0
M  V30 2004 H 189.572 -2.54542 -2.97852 0
M  V30 2005 H 191.269 -2.8854 -2.78471 0
M  V30 2006 H 187.859 -3.90181 -1.77361 0
M  V30 2007 H 192.043 -4.77968 -1.33642 0
M  V30 2008 H 187.299 -6.06733 -0.75402 0
M  V30 2009 H 191.473 -6.95643 -0.324694 0
M  V30 2010 H 189.1 -7.60195 -0.0276833 0
M  V30 2011 N 190.675 0.682077 -1.42076 0
M  V30 2012 C 191.638 1.77756 -1.44691 0
M  V30 2013 C 192.638 1.5726 -0.335535 0
M  V30 2014 O 193.828 1.63686 -0.596037 0
M  V30 2015 C 190.96 3.16301 -1.27146 0
M  V30 2016 H 192.153 1.76826 -2.42224 0
M  V30 2017 H 189.706 0.891012 -1.28416 0
M  V30 2018 H 190.441 3.22862 -0.305075 0
M  V30 2019 H 190.226 3.32581 -2.07683 0
M  V30 2020 H 191.716 3.96241 -1.31843 0
M  V30 2021 N 192.153 1.28127 0.917671 0
M  V30 2022 C 193.086 1.06039 2.02067 0
M  V30 2023 C 194.064 -0.0223285 1.62585 0
M  V30 2024 O 195.248 0.124823 1.88086 0
M  V30 2025 C 192.375 0.610596 3.33151 0
M  V30 2026 C 191.421 1.68937 3.91615 0
M  V30 2027 S 192.254 3.28437 4.22953 0
M  V30 2028 C 193.41 2.85283 5.57103 0
M  V30 2029 H 193.643 1.99425 2.20493 0
M  V30 2030 H 191.176 1.12071 1.06205 0
M  V30 2031 H 193.134 0.357778 4.08938 0
M  V30 2032 H 191.795 -0.303364 3.12632 0
M  V30 2033 H 190.988 1.32619 4.86239 0
M  V30 2034 H 190.59 1.89478 3.2245 0
M  V30 2035 H 192.882 2.3121 6.36827 0
M  V30 2036 H 193.825 3.7869 5.98331 0
M  V30 2037 H 194.233 2.24118 5.18104 0
M  V30 2038 N 193.631 -1.12557 1.10312 0
M  V30 2039 C 195.042 -1.65574 0.862678 0
M  V30 2040 C 195.393 -1.86566 -0.607256 0
M  V30 2041 O 194.518 -1.59121 -1.46662 0
M  V30 2042 C 195.113 -3.00776 1.55947 0
M  V30 2043 C 193.672 -3.50748 1.36576 0
M  V30 2044 C 192.819 -2.25797 1.60968 0
M  V30 2045 H 195.77 -0.963552 1.26101 0
M  V30 2046 H 195.791 -3.67185 0.997753 0
M  V30 2047 H 195.303 -2.85465 2.62928 0
M  V30 2048 H 193.404 -3.71245 0.317531 0
M  V30 2049 H 193.517 -4.30289 2.10686 0
M  V30 2050 H 191.881 -2.32841 1.03234 0
M  V30 2051 H 192.664 -2.13043 2.69198 0
M  V30 2052 N 195.109 -0.891671 -1.2995 0
M  V30 2053 C 196.339 -0.527893 -1.99742 0
M  V30 2054 C 196.747 0.88979 -1.66971 0
M  V30 2055 O 196.09 1.59766 -0.906667 0
M  V30 2056 C 196.152 -0.630804 -3.53922 0
M  V30 2057 C 195.816 -2.01401 -4.10228 0
M  V30 2058 C 196.813 -2.98422 -4.25724 0
M  V30 2059 C 194.498 -2.32121 -4.45449 0
M  V30 2060 C 196.492 -4.24293 -4.75662 0
M  V30 2061 C 194.179 -3.58237 -4.95086 0
M  V30 2062 C 195.177 -4.54137 -5.10146 0
M  V30 2063 O 194.865 -5.78014 -5.58708 0
M  V30 2064 H 194.597 -0.201953 -0.645129 0
M  V30 2065 H 197.151 -1.20076 -1.66646 0
M  V30 2066 H 195.381 0.0990616 -3.86573 0
M  V30 2067 H 197.07 -0.277338 -4.04951 0
M  V30 2068 H 197.836 -2.76001 -3.98809 0
M  V30 2069 H 193.715 -1.5824 -4.32991 0
M  V30 2070 H 197.259 -4.99153 -4.87332 0
M  V30 2071 H 193.156 -3.80491 -5.21437 0
M  V30 2072 H 193.924 -5.8049 -5.77039 0
M  V30 2073 N 196.587 1.43421 -0.653314 0
M  V30 2074 C 197.52 2.2803 0.0879804 0
M  V30 2075 C 198.498 1.39833 0.82979 0
M  V30 2076 O 199.682 1.69275 0.829341 0
M  V30 2077 C 196.809 3.19247 1.13132 0
M  V30 2078 C 195.855 4.23704 0.487546 0
M  V30 2079 S 196.688 5.30377 -0.738961 0
M  V30 2080 C 197.844 6.25162 0.30384 0
M  V30 2081 H 198.077 2.90554 -0.629739 0
M  V30 2082 H 195.61 1.47934 -0.442156 0
M  V30 2083 H 197.568 3.72346 1.72827 0
M  V30 2084 H 196.229 2.55901 1.82136 0
M  V30 2085 H 195.422 4.87631 1.27407 0
M  V30 2086 H 195.024 3.73983 -0.0352915 0
M  V30 2087 H 197.316 6.67321 1.17 0
M  V30 2088 H 198.259 7.07463 -0.300402 0
M  V30 2089 H 198.667 5.60864 0.63969 0
M  V30 2090 N 198.065 0.39524 1.52563 0
M  V30 2091 C 199.311 -0.177763 2.02622 0
M  V30 2092 C 199.666 -1.43974 1.27629 0
M  V30 2093 O 198.959 -1.87995 0.36992 0
M  V30 2094 C 199.153 -0.493444 3.53977 0
M  V30 2095 C 198.982 0.736392 4.4363 0
M  V30 2096 C 197.752 1.25744 4.89404 0
M  V30 2097 C 199.95 1.61046 4.88435 0
M  V30 2098 N 197.932 2.44421 5.63145 0
M  V30 2099 C 199.303 2.64359 5.60816 0
M  V30 2100 C 201.358 1.62985 4.70468 0
M  V30 2101 C 200.061 3.69505 6.17137 0
M  V30 2102 C 202.087 2.67042 5.27677 0
M  V30 2103 C 201.449 3.69077 5.99968 0
M  V30 2104 H 197.548 -0.0269794 0.781534 0
M  V30 2105 H 200.132 0.546466 1.86874 0
M  V30 2106 H 198.303 -1.18672 3.69826 0
M  V30 2107 H 200.035 -1.05412 3.90731 0
M  V30 2108 H 196.79 0.817546 4.6649 0
M  V30 2109 H 197.214 3.04485 6.04663 0
M  V30 2110 H 201.856 0.854442 4.14076 0
M  V30 2111 H 199.574 4.4791 6.72608 0
M  V30 2112 H 203.16 2.69433 5.15652 0
M  V30 2113 H 202.04 4.48273 6.43444 0
M  V30 2114 N 199.544 -1.57102 0.125237 0
M  V30 2115 C 200.507 -2.14471 -0.80838 0
M  V30 2116 C 201.507 -1.0811 -1.19033 0
M  V30 2117 O 202.697 -1.33856 -1.11482 0
M  V30 2118 C 199.829 -2.69005 -2.09402 0
M  V30 2119 H 201.022 -2.98297 -0.309696 0
M  V30 2120 H 198.575 -1.55807 -0.124051 0
M  V30 2121 H 199.31 -1.88785 -2.63687 0
M  V30 2122 H 199.095 -3.46799 -1.82957 0
M  V30 2123 H 200.585 -3.13278 -2.76128 0
M  V30 2124 N 201.022 0.148545 -1.56898 0
M  V30 2125 C 202.25 0.876389 -1.87422 0
M  V30 2126 C 202.665 1.74809 -0.713256 0
M  V30 2127 O 202.022 1.79725 0.317025 0
M  V30 2128 C 202.073 1.73438 -3.17178 0
M  V30 2129 O 201.794 0.897809 -4.28802 0
M  V30 2130 C 203.295 2.56993 -3.61205 0
M  V30 2131 H 200.515 0.253489 -0.621277 0
M  V30 2132 H 203.059 0.141798 -2.04008 0
M  V30 2133 H 201.214 2.42205 -3.0235 0
M  V30 2134 H 201.628 1.48672 -5.02988 0
M  V30 2135 H 203.102 3.12773 -4.54838 0
M  V30 2136 H 203.579 3.32958 -2.86419 0
M  V30 2137 H 204.185 1.9352 -3.78722 0
M  V30 2138 N 202.5 1.5196 0.417844 0
M  V30 2139 C 203.728 1.69426 1.18753 0
M  V30 2140 C 204.143 0.399955 1.84515 0
M  V30 2141 O 203.5 -0.623288 1.71527 0
M  V30 2142 C 203.551 2.82375 2.25714 0
M  V30 2143 O 203.272 4.06793 1.62638 0
M  V30 2144 C 204.773 3.11277 3.15628 0
M  V30 2145 H 201.993 0.568031 0.357186 0
M  V30 2146 H 204.537 1.98475 0.49273 0
M  V30 2147 H 202.692 2.5587 2.90877 0
M  V30 2148 H 203.106 4.69667 2.3348 0
M  V30 2149 H 204.58 3.93843 3.86771 0
M  V30 2150 H 205.057 2.24473 3.77503 0
M  V30 2151 H 205.663 3.39515 2.56144 0
M  V30 2152 N 203.978 -0.674533 1.42435 0
M  V30 2153 C 205.226 -1.43175 1.42637 0
M  V30 2154 C 205.547 -1.94951 0.0438992 0
M  V30 2155 O 204.817 -1.7308 -0.917607 0
M  V30 2156 H 203.397 -0.531307 0.525092 0
M  V30 2157 H 206.059 -0.797006 1.77859 0
M  V30 2158 H 205.155 -2.28463 2.12629 0
M  V30 2159 N 205.456 -1.28612 -0.910864 0
M  V30 2160 C 206.705 -1.15311 -1.65488 0
M  V30 2161 C 207.018 0.296999 -1.93332 0
M  V30 2162 O 208.224 0.551168 -2.65847 0
M  V30 2163 C 206.68 -2.01599 -2.98137 0
M  V30 2164 C 206.288 -3.51367 -2.7793 0
M  V30 2165 C 208.032 -1.96993 -3.76024 0
M  V30 2166 C 205.939 -4.29797 -4.06237 0
M  V30 2167 H 204.869 -0.42796 -0.620779 0
M  V30 2168 H 207.52 -1.53166 -1.01057 0
M  V30 2169 H 205.902 -1.56603 -3.63719 0
M  V30 2170 H 207.076 -4.0434 -2.21011 0
M  V30 2171 H 205.391 -3.57529 -2.13452 0
M  V30 2172 H 207.988 -2.52856 -4.71135 0
M  V30 2173 H 208.331 -0.94733 -4.05378 0
M  V30 2174 H 208.864 -2.39973 -3.17266 0
M  V30 2175 H 205.603 -5.32648 -3.82055 0
M  V30 2176 H 205.123 -3.81596 -4.62757 0
M  V30 2177 H 206.802 -4.39869 -4.74473 0
M  V30 2178 N 206.934 1.1197 -1.10907 0
M  V30 2179 C 208.182 1.83225 -0.852819 0
M  V30 2180 C 208.503 1.84769 0.623341 0
M  V30 2181 O 207.773 1.3143 1.45269 0
M  V30 2182 H 206.353 0.67849 -0.312507 0
M  V30 2183 H 209.015 1.3556 -1.40033 0
M  V30 2184 H 208.111 2.87265 -1.22005 0
M  V30 2185 N 208.412 0.89855 1.29475 0
M  V30 2186 C 209.642 0.538479 1.99459 0
M  V30 2187 C 210.05 -0.880922 1.67441 0
M  V30 2188 O 209.393 -1.59283 0.915127 0
M  V30 2189 C 209.455 0.649564 3.53583 0
M  V30 2190 C 209.119 2.03573 4.09154 0
M  V30 2191 C 210.116 3.00675 4.24135 0
M  V30 2192 C 207.801 2.3448 4.44212 0
M  V30 2193 C 209.795 4.26809 4.73405 0
M  V30 2194 C 207.482 3.60857 4.93179 0
M  V30 2195 C 208.48 4.56836 5.0773 0
M  V30 2196 O 208.168 5.80969 5.55635 0
M  V30 2197 H 207.9 0.205372 0.644048 0
M  V30 2198 H 210.454 1.20958 1.66007 0
M  V30 2199 H 208.684 -0.0785592 3.8662 0
M  V30 2200 H 210.373 0.29881 4.04799 0
M  V30 2201 H 211.139 2.78112 3.97339 0
M  V30 2202 H 207.018 1.60534 4.32145 0
M  V30 2203 H 210.562 5.0173 4.84678 0
M  V30 2204 H 206.459 3.83251 5.19412 0
M  V30 2205 H 207.227 5.83542 5.73952 0
M  V30 2206 N 209.89 -1.43072 0.660911 0
M  V30 2207 C 210.838 -2.32569 -0.0378199 0
M  V30 2208 C 211.832 -1.49046 -0.805092 0
M  V30 2209 O 213.038 -1.65206 -0.714624 0
M  V30 2210 H 209.413 -0.75136 -0.031019 0
M  V30 2211 H 211.384 -2.89216 0.734609 0
M  V30 2212 C 210.133 -3.33453 -0.985124 0
M  V30 2213 H 209.456 -3.97752 -0.404147 0
M  V30 2214 H 210.896 -3.98691 -1.44297 0
M  V30 2215 C 209.355 -2.64642 -2.08486 0
M  V30 2216 O 209.885 -2.46776 -3.16961 0
M  V30 2217 N 208.091 -2.23891 -1.8526 0
M  V30 2218 H 207.638 -2.38621 -0.970449 0
M  V30 2219 H 207.596 -1.78181 -2.59034 0
M  V30 2220 N 211.368 -0.403325 -1.52352 0
M  V30 2221 C 212.614 0.174605 -2.02047 0
M  V30 2222 C 212.947 1.45282 -1.28867 0
M  V30 2223 O 212.222 1.90483 -0.393257 0
M  V30 2224 C 212.505 0.428238 -3.57545 0
M  V30 2225 C 212.358 -0.866248 -4.4138 0
M  V30 2226 C 213.677 1.21287 -4.23057 0
M  V30 2227 H 210.796 0.0619851 -0.734389 0
M  V30 2228 H 213.438 -0.53565 -1.82293 0
M  V30 2229 H 211.588 1.03327 -3.74507 0
M  V30 2230 H 213.26 -1.50265 -4.3614 0
M  V30 2231 H 211.503 -1.47851 -4.07827 0
M  V30 2232 H 212.174 -0.643249 -5.48239 0
M  V30 2233 H 214.65 0.700703 -4.10158 0
M  V30 2234 H 213.526 1.35909 -5.31808 0
M  V30 2235 H 213.787 2.23193 -3.81625 0
M  V30 2236 N 212.846 1.57033 -0.133567 0
M  V30 2237 C 214.123 1.87256 0.56522 0
M  V30 2238 C 214.503 1.03726 1.83859 0
M  V30 2239 O 213.851 0.120247 2.28183 0
M  V30 2240 C 214.061 3.3865 0.843636 0
M  V30 2241 C 215.409 4.07574 1.19032 0
M  V30 2242 O 216.433 3.43752 0.933429 0
M  V30 2243 O 215.292 5.20259 1.67312 0
M  V30 2244 H 212.386 0.775678 0.286796 0
M  V30 2245 H 214.932 1.68855 -0.169168 0
M  V30 2246 H 213.704 3.91257 -0.0581149 0
M  V30 2247 H 213.327 3.62532 1.63268 0
M  V30 2248 N 214.325 -0.140222 1.56975 0
M  V30 2249 C 215.272 -1.17292 1.98774 0
M  V30 2250 C 216.242 -1.4232 0.856408 0
M  V30 2251 O 217.427 -1.54541 1.119 0
M  V30 2252 C 214.567 -2.49973 2.37923 0
M  V30 2253 C 213.68 -2.32062 3.64378 0
M  V30 2254 C 212.815 -3.57825 3.926 0
M  V30 2255 C 211.854 -3.3498 5.12303 0
M  V30 2256 N 210.991 -4.52891 5.36502 0
M  V30 2257 H 215.831 -0.809472 2.86795 0
M  V30 2258 H 213.368 -0.388237 1.41884 0
M  V30 2259 H 215.326 -3.27346 2.58652 0
M  V30 2260 H 213.956 -2.84252 1.52972 0
M  V30 2261 H 213.008 -1.45711 3.51387 0
M  V30 2262 H 214.32 -2.11145 4.51906 0
M  V30 2263 H 213.474 -4.43624 4.13863 0
M  V30 2264 H 212.213 -3.81753 3.03506 0
M  V30 2265 H 211.218 -2.4757 4.90906 0
M  V30 2266 H 212.443 -3.12444 6.02956 0
M  V30 2267 H 210.389 -4.76979 4.50363 0
M  V30 2268 H 210.306 -4.35001 6.18312 0
M  V30 2269 H 211.574 -5.39884 5.62268 0
M  V30 2270 N 215.803 -1.52179 -0.40978 0
M  V30 2271 C 217.049 -1.66453 -1.15851 0
M  V30 2272 C 217.382 -0.392972 -1.90182 0
M  V30 2273 O 216.657 0.608579 -1.84734 0
M  V30 2274 C 216.94 -2.88612 -2.15349 0
M  V30 2275 C 216.793 -4.25815 -1.44918 0
M  V30 2276 C 218.112 -3.06294 -3.16026 0
M  V30 2277 H 215.231 -0.60575 -0.419805 0
M  V30 2278 H 217.873 -1.84732 -0.444314 0
M  V30 2279 H 216.023 -2.73158 -2.76255 0
M  V30 2280 H 217.695 -4.52995 -0.871365 0
M  V30 2281 H 215.938 -4.27247 -0.751159 0
M  V30 2282 H 216.609 -5.07337 -2.17516 0
M  V30 2283 H 219.085 -3.20641 -2.65195 0
M  V30 2284 H 217.961 -3.93283 -3.8291 0
M  V30 2285 H 218.222 -2.19579 -3.83715 0
M  V30 2286 N 217.281 0.66697 -1.42791 0
M  V30 2287 C 218.228 1.7803 -1.4688 0
M  V30 2288 C 219.198 1.6299 -0.319919 0
M  V30 2289 O 220.383 1.83432 -0.525118 0
M  V30 2290 C 217.523 3.1611 -1.38451 0
M  V30 2291 C 216.636 3.42381 -2.63437 0
M  V30 2292 C 215.771 4.70232 -2.47094 0
M  V30 2293 C 214.81 4.89564 -3.67415 0
M  V30 2294 N 213.947 6.08661 -3.49966 0
M  V30 2295 H 218.787 1.7387 -2.42019 0
M  V30 2296 H 216.324 0.84868 -1.20149 0
M  V30 2297 H 218.282 3.95914 -1.31561 0
M  V30 2298 H 216.912 3.19374 -0.469033 0
M  V30 2299 H 215.964 2.56774 -2.80662 0
M  V30 2300 H 217.276 3.52557 -3.52853 0
M  V30 2301 H 216.43 5.5814 -2.37834 0
M  V30 2302 H 215.169 4.62353 -1.5518 0
M  V30 2303 H 214.174 4.00096 -3.77099 0
M  V30 2304 H 215.399 4.99282 -4.6032 0
M  V30 2305 H 213.345 6.0194 -2.60776 0
M  V30 2306 H 213.262 6.19733 -4.32975 0
M  V30 2307 H 214.53 6.99226 -3.44532 0
M  V30 2308 N 218.759 1.29093 0.90403 0
M  V30 2309 C 219.722 1.1386 1.98919 0
M  V30 2310 C 220.722 0.0753457 1.60623 0
M  V30 2311 O 221.912 0.321931 1.71199 0
M  V30 2312 C 219.044 0.740198 3.32767 0
M  V30 2313 H 220.237 2.10246 2.13861 0
M  V30 2314 H 217.79 1.12218 1.08797 0
M  V30 2315 H 218.525 -0.223997 3.23525 0
M  V30 2316 H 218.31 1.50838 3.61926 0
M  V30 2317 H 219.8 0.656546 4.12407 0
M  V30 2318 N 220.237 -1.11381 1.11499 0
M  V30 2319 C 221.483 -1.83403 0.865512 0
M  V30 2320 C 221.816 -1.84459 -0.607329 0
M  V30 2321 O 221.091 -1.29811 -1.44842 0
M  V30 2322 C 221.374 -3.30552 1.42855 0
M  V30 2323 C 221.227 -3.37886 2.96906 0
M  V30 2324 C 222.546 -4.26643 1.08 0
M  V30 2325 H 219.665 -0.665879 0.31587 0
M  V30 2326 H 222.307 -1.30601 1.37998 0
M  V30 2327 H 220.457 -3.75648 0.990985 0
M  V30 2328 H 222.129 -3.01343 3.49271 0
M  V30 2329 H 220.372 -2.78088 3.32941 0
M  V30 2330 H 221.043 -4.41458 3.31389 0
M  V30 2331 H 223.519 -3.89729 1.45775 0
M  V30 2332 H 222.395 -5.27986 1.50072 0
M  V30 2333 H 222.656 -4.42099 -0.00915037 0
M  V30 2334 N 221.715 -0.905404 -1.28997 0
M  V30 2335 C 222.645 -0.404212 -2.29975 0
M  V30 2336 C 223.626 0.523784 -1.61835 0
M  V30 2337 O 224.811 0.433298 -1.89304 0
M  V30 2338 C 221.941 0.364042 -3.45387 0
M  V30 2339 C 220.895 -0.474048 -4.25367 0
M  V30 2340 C 220.221 0.422045 -5.33032 0
M  V30 2341 C 221.521 -1.72696 -4.92923 0
M  V30 2342 H 223.215 -1.24807 -2.72146 0
M  V30 2343 H 220.761 -0.601585 -1.30832 0
M  V30 2344 H 222.714 0.725447 -4.15109 0
M  V30 2345 H 221.438 1.24174 -3.02074 0
M  V30 2346 H 220.097 -0.81786 -3.57361 0
M  V30 2347 H 219.745 1.29804 -4.85963 0
M  V30 2348 H 219.445 -0.135057 -5.87445 0
M  V30 2349 H 220.969 0.779517 -6.05604 0
M  V30 2350 H 222.383 -1.43495 -5.55051 0
M  V30 2351 H 220.78 -2.22582 -5.57295 0
M  V30 2352 H 221.85 -2.45964 -4.17887 0
M  V30 2353 N 223.193 1.4272 -0.668489 0
M  V30 2354 C 224.441 2.01226 -0.187769 0
M  V30 2355 C 224.762 1.53092 1.2078 0
M  V30 2356 O 224.032 0.74993 1.80977 0
M  V30 2357 H 222.612 0.744041 -0.0664272 0
M  V30 2358 H 225.274 1.74723 -0.863583 0
M  V30 2359 H 224.37 3.11556 -0.184166 0
M  V30 2360 N 224.671 0.411399 1.52136 0
M  V30 2361 C 225.581 -0.419774 2.30814 0
M  V30 2362 C 226.597 -1.0515 1.38634 0
M  V30 2363 O 227.773 -1.05252 1.71709 0
M  V30 2364 C 224.838 -1.52019 3.11594 0
M  V30 2365 C 223.899 -0.91129 4.19516 0
M  V30 2366 C 223.132 -1.95927 4.96436 0
M  V30 2367 O 223.355 -3.17775 4.73683 0
M  V30 2368 O 222.289 -1.56423 5.81219 0
M  V30 2369 H 226.115 0.221805 3.02889 0
M  V30 2370 H 223.7 0.174547 1.48377 0
M  V30 2371 H 225.582 -2.15898 3.61892 0
M  V30 2372 H 224.257 -2.14633 2.42311 0
M  V30 2373 H 223.164 -0.235157 3.7336 0
M  V30 2374 H 224.497 -0.32904 4.91099 0
M  V30 2375 N 226.149 -1.5696 0.141893 0
M  V30 2376 C 227.097 -2.17784 -0.816874 0
M  V30 2377 C 228.091 -1.1334 -1.25899 0
M  V30 2378 O 229.297 -1.316 -1.22806 0
M  V30 2379 H 225.672 -0.697278 -0.281615 0
M  V30 2380 H 227.643 -2.97087 -0.279621 0
M  V30 2381 C 226.392 -2.80983 -2.04802 0
M  V30 2382 H 225.715 -3.61062 -1.7168 0
M  V30 2383 H 227.155 -3.2705 -2.69841 0
M  V30 2384 C 225.614 -1.79228 -2.8527 0
M  V30 2385 O 226.144 -1.25962 -3.8144 0
M  V30 2386 N 224.35 -1.48647 -2.49704 0
M  V30 2387 H 223.897 -1.92155 -1.71564 0
M  V30 2388 H 223.855 -0.808115 -3.03837 0
M  V30 2389 N 227.627 0.131896 -1.57047 0
M  V30 2390 C 228.59 1.14638 -1.98471 0
M  V30 2391 C 229.59 1.35029 -0.873148 0
M  V30 2392 O 230.78 1.31764 -1.13946 0
M  V30 2393 C 227.912 2.50358 -2.31373 0
M  V30 2394 H 229.105 0.79064 -2.8929 0
M  V30 2395 H 226.658 0.375761 -1.51716 0
M  V30 2396 H 227.393 2.90876 -1.43393 0
M  V30 2397 H 227.178 2.36915 -3.12432 0
M  V30 2398 H 228.668 3.23395 -2.64207 0
M  V30 2399 N 229.106 1.52395 0.401703 0
M  V30 2400 C 230.517 1.58899 0.980202 0
M  V30 2401 C 230.868 0.434032 1.91339 0
M  V30 2402 O 229.993 -0.444619 2.11783 0
M  V30 2403 C 230.588 2.87994 1.78451 0
M  V30 2404 C 229.147 2.96953 2.31292 0
M  V30 2405 C 228.294 2.53903 1.11483 0
M  V30 2406 H 231.245 1.57657 0.18168 0
M  V30 2407 H 231.266 2.73765 2.64259 0
M  V30 2408 H 230.778 3.72035 1.10506 0
M  V30 2409 H 228.879 2.17422 3.02586 0
M  V30 2410 H 228.992 4.01344 2.61649 0
M  V30 2411 H 227.356 2.07925 1.47104 0
M  V30 2412 H 228.139 3.40326 0.450928 0
M  V30 2413 N 230.584 -0.659388 1.43143 0
M  V30 2414 C 231.83 -1.42145 1.44647 0
M  V30 2415 C 232.163 -1.9408 0.0681907 0
M  V30 2416 O 231.438 -1.71899 -0.910007 0
M  V30 2417 C 231.721 -2.60735 2.48373 0
M  V30 2418 C 231.574 -2.14332 3.95451 0
M  V30 2419 C 232.893 -3.62951 2.48906 0
M  V30 2420 H 230.012 -0.51552 0.526696 0
M  V30 2421 H 232.654 -0.748069 1.74654 0
M  V30 2422 H 230.804 -3.18184 2.22916 0
M  V30 2423 H 232.476 -1.61932 4.31944 0
M  V30 2424 H 230.719 -1.4576 4.08578 0
M  V30 2425 H 231.39 -2.99583 4.63631 0
M  V30 2426 H 233.866 -3.1525 2.71582 0
M  V30 2427 H 232.742 -4.43487 3.23435 0
M  V30 2428 H 233.003 -4.15126 1.52061 0
M  V30 2429 N 232.062 -1.29571 -0.897171 0
M  V30 2430 C 233.339 -1.08365 -1.62839 0
M  V30 2431 C 233.719 0.371331 -2.07808 0
M  V30 2432 O 233.067 1.3606 -1.83576 0
M  V30 2433 C 233.277 -2.0735 -2.80726 0
M  V30 2434 C 234.625 -2.38406 -3.51351 0
M  V30 2435 O 235.649 -2.05564 -2.90898 0
M  V30 2436 O 234.508 -2.9453 -4.60341 0
M  V30 2437 H 231.602 -0.415345 -0.715134 0
M  V30 2438 H 234.148 -1.40952 -0.945018 0
M  V30 2439 H 232.92 -3.05339 -2.44711 0
M  V30 2440 H 232.543 -1.75507 -3.56767 0
M  V30 2441 N 233.54 1.10788 -1.12088 0
M  V30 2442 C 234.765 1.87002 -0.896949 0
M  V30 2443 C 235.19 1.79933 0.548261 0
M  V30 2444 O 234.548 1.16662 1.38779 0
M  V30 2445 C 234.596 3.3349 -1.37174 0
M  V30 2446 O 233.7 4.08745 -0.547831 0
M  V30 2447 H 233.041 0.580397 -0.322545 0
M  V30 2448 H 235.571 1.39996 -1.49206 0
M  V30 2449 H 235.581 3.84339 -1.36922 0
M  V30 2450 H 234.256 3.37951 -2.42408 0
M  V30 2451 H 232.833 3.6776 -0.617034 0
M  V30 2452 N 235.018 0.912232 1.28515 0
M  V30 2453 C 236.264 0.554851 1.95686 0
M  V30 2454 C 236.619 -0.89138 1.70506 0
M  V30 2455 O 235.912 -1.62529 1.01464 0
M  V30 2456 C 236.106 0.798392 3.48368 0
M  V30 2457 C 235.935 2.26674 3.88393 0
M  V30 2458 C 234.705 2.91657 4.12631 0
M  V30 2459 C 236.903 3.24303 3.99164 0
M  V30 2460 N 234.885 4.28805 4.39317 0
M  V30 2461 C 236.256 4.4661 4.30046 0
M  V30 2462 C 238.311 3.19723 3.81683 0
M  V30 2463 C 237.014 5.64915 4.45268 0
M  V30 2464 C 239.04 4.37325 3.98121 0
M  V30 2465 C 238.402 5.58406 4.29375 0
M  V30 2466 H 234.501 0.252876 0.739985 0
M  V30 2467 H 237.085 1.17565 1.55199 0
M  V30 2468 H 235.256 0.20688 3.87849 0
M  V30 2469 H 236.988 0.405193 4.02666 0
M  V30 2470 H 233.743 2.42393 4.06869 0
M  V30 2471 H 234.167 4.99712 4.56746 0
M  V30 2472 H 238.809 2.27191 3.56573 0
M  V30 2473 H 236.527 6.57927 4.6921 0
M  V30 2474 H 240.113 4.35282 3.86033 0
M  V30 2475 H 238.993 6.47889 4.41825 0
M  V30 2476 N 236.496 -1.42363 0.676048 0
M  V30 2477 C 237.773 -1.95183 0.127726 0
M  V30 2478 C 238.153 -1.61641 -1.35777 0
M  V30 2479 O 237.501 -0.913216 -2.09458 0
M  V30 2480 C 237.711 -3.46721 0.398199 0
M  V30 2481 C 239.059 -4.23427 0.315383 0
M  V30 2482 O 240.083 -3.54649 0.332016 0
M  V30 2483 O 238.942 -5.45888 0.25865 0
M  V30 2484 H 236.036 -0.826992 0.00359427 0
M  V30 2485 H 238.582 -1.52184 0.750864 0
M  V30 2486 H 237.354 -3.64344 1.4272 0
M  V30 2487 H 236.977 -3.96769 -0.256885 0
M  V30 2488 N 237.974 -0.419461 -1.51915 0
M  V30 2489 C 238.904 0.391813 -2.30189 0
M  V30 2490 C 239.885 1.03699 -1.34836 0
M  V30 2491 O 241.07 1.04403 -1.63748 0
M  V30 2492 C 238.2 1.50312 -3.13087 0
M  V30 2493 C 237.154 0.9824 -4.16573 0
M  V30 2494 C 236.48 2.18809 -4.8788 0
M  V30 2495 C 237.78 0.0292356 -5.22292 0
M  V30 2496 H 239.474 -0.26135 -2.98257 0
M  V30 2497 H 237.02 -0.127134 -1.43438 0
M  V30 2498 H 238.973 2.07773 -3.66617 0
M  V30 2499 H 237.697 2.18431 -2.42807 0
M  V30 2500 H 236.356 0.430119 -3.64068 0
M  V30 2501 H 236.004 2.85507 -4.14119 0
M  V30 2502 H 235.704 1.84615 -5.57845 0
M  V30 2503 H 237.228 2.76858 -5.44226 0
M  V30 2504 H 238.642 0.512976 -5.71 0
M  V30 2505 H 237.039 -0.2244 -5.9968 0
M  V30 2506 H 238.109 -0.912931 -4.76228 0
M  V30 2507 N 239.452 1.56882 -0.150215 0
M  V30 2508 C 240.701 1.95403 0.500071 0
M  V30 2509 C 241.014 1.03777 1.658 0
M  V30 2510 O 242.22 1.31889 2.37313 0
M  V30 2511 C 240.676 3.4738 0.941018 0
M  V30 2512 C 240.284 4.47596 -0.190158 0
M  V30 2513 C 242.028 3.9476 1.56091 0
M  V30 2514 C 239.935 5.90787 0.269237 0
M  V30 2515 H 238.865 0.729515 0.190588 0
M  V30 2516 H 241.516 1.81988 -0.235074 0
M  V30 2517 H 239.898 3.56138 1.73152 0
M  V30 2518 H 241.072 4.50536 -0.967157 0
M  V30 2519 H 239.387 4.10151 -0.718666 0
M  V30 2520 H 241.984 4.99181 1.9163 0
M  V30 2521 H 242.327 3.36494 2.45107 0
M  V30 2522 H 242.86 3.88932 0.835249 0
M  V30 2523 H 239.599 6.52879 -0.585621 0
M  V30 2524 H 239.119 5.912 1.01204 0
M  V30 2525 H 240.798 6.42979 0.720176 0
M  V30 2526 N 240.93 -0.123565 1.57115 0
M  V30 2527 C 241.86 -1.15309 2.03042 0
M  V30 2528 C 242.841 -1.43454 0.914061 0
M  V30 2529 O 244.026 -1.53973 1.18347 0
M  V30 2530 C 241.156 -2.48043 2.43089 0
M  V30 2531 C 240.11 -2.3437 3.58127 0
M  V30 2532 C 239.436 -3.72026 3.84059 0
M  V30 2533 C 240.736 -1.80804 4.90007 0
M  V30 2534 H 242.43 -0.771102 2.893 0
M  V30 2535 H 239.976 -0.369479 1.39179 0
M  V30 2536 H 241.929 -3.20311 2.73823 0
M  V30 2537 H 240.653 -2.88122 1.53796 0
M  V30 2538 H 239.312 -1.64551 3.27595 0
M  V30 2539 H 238.96 -4.09582 2.91979 0
M  V30 2540 H 238.66 -3.63732 4.6149 0
M  V30 2541 H 240.184 -4.45806 4.1724 0
M  V30 2542 H 241.598 -2.42886 5.19307 0
M  V30 2543 H 239.995 -1.83343 5.71407 0
M  V30 2544 H 241.065 -0.76528 4.78823 0
M  V30 2545 N 242.408 -1.52605 -0.393616 0
M  V30 2546 C 243.355 -1.77055 -1.48054 0
M  V30 2547 C 244.325 -0.61358 -1.54352 0
M  V30 2548 O 245.51 -0.852806 -1.70681 0
M  V30 2549 C 242.65 -1.94108 -2.85335 0
M  V30 2550 C 241.763 -3.21792 -2.88226 0
M  V30 2551 C 240.898 -3.29188 -4.16904 0
M  V30 2552 C 239.937 -4.51013 -4.13828 0
M  V30 2553 N 239.074 -4.55716 -5.34105 0
M  V30 2554 H 243.914 -2.69815 -1.26506 0
M  V30 2555 H 241.451 -1.33683 -0.61379 0
M  V30 2556 H 243.409 -2.01979 -3.65049 0
M  V30 2557 H 242.039 -1.04713 -3.05344 0
M  V30 2558 H 241.091 -3.23015 -2.00911 0
M  V30 2559 H 242.403 -4.11557 -2.8182 0
M  V30 2560 H 241.557 -3.36216 -5.05018 0
M  V30 2561 H 240.296 -2.37389 -4.26026 0
M  V30 2562 H 239.301 -4.44115 -3.24102 0
M  V30 2563 H 240.526 -5.44123 -4.06333 0
M  V30 2564 H 238.472 -3.66807 -5.43865 0
M  V30 2565 H 238.389 -5.39346 -5.29756 0
M  V30 2566 H 239.657 -4.66993 -6.2413 0
M  V30 2567 N 243.887 0.651787 -1.4349 0
M  V30 2568 C 245.298 1.233 -1.40193 0
M  V30 2569 C 245.649 1.9591 -0.106727 0
M  V30 2570 O 244.774 2.01316 0.793773 0
M  V30 2571 C 245.369 2.24257 -2.53957 0
M  V30 2572 C 243.928 2.77852 -2.5392 0
M  V30 2573 C 243.075 1.52517 -2.3159 0
M  V30 2574 H 246.026 0.443717 -1.52371 0
M  V30 2575 H 246.047 3.0646 -2.25528 0
M  V30 2576 H 245.559 1.71382 -3.4821 0
M  V30 2577 H 243.66 3.34786 -1.63551 0
M  V30 2578 H 243.773 3.25299 -3.51735 0
M  V30 2579 H 242.137 1.79915 -1.80285 0
M  V30 2580 H 242.92 1.01574 -3.27929 0
M  V30 2581 N 245.365 1.30045 0.890287 0
M  V30 2582 C 246.275 1.17885 2.02831 0
M  V30 2583 C 247.291 0.0999609 1.73713 0
M  V30 2584 O 248.467 0.313867 1.98939 0
M  V30 2585 C 245.532 0.866079 3.35708 0
M  V30 2586 C 244.593 2.02979 3.78283 0
M  V30 2587 C 243.826 1.73184 5.0482 0
M  V30 2588 O 244.049 0.657237 5.66601 0
M  V30 2589 O 242.983 2.58267 5.43674 0
M  V30 2590 H 246.809 2.13474 2.16015 0
M  V30 2591 H 244.394 1.09587 1.01543 0
M  V30 2592 H 246.276 0.706623 4.15433 0
M  V30 2593 H 244.951 -0.0599443 3.23644 0
M  V30 2594 H 243.858 2.24454 2.99285 0
M  V30 2595 H 245.191 2.93734 3.94944 0
M  V30 2596 N 246.843 -1.10192 1.12674 0
M  V30 2597 C 247.791 -2.18694 0.792196 0
M  V30 2598 C 248.785 -1.67938 -0.222058 0
M  V30 2599 O 249.991 -1.79822 -0.0800074 0
M  V30 2600 H 246.366 -0.713223 0.238364 0
M  V30 2601 H 248.337 -2.44149 1.71564 0
M  V30 2602 C 247.086 -3.46682 0.265859 0
M  V30 2603 H 246.409 -3.86101 1.03761 0
M  V30 2604 H 247.849 -4.23942 0.0701128 0
M  V30 2605 C 246.308 -3.21506 -1.00675 0
M  V30 2606 O 246.838 -3.43408 -2.08408 0
M  V30 2607 N 245.044 -2.75158 -0.934692 0
M  V30 2608 H 244.591 -2.57535 -0.0578604 0
M  V30 2609 H 244.549 -2.58691 -1.7868 0
M  V30 2610 N 248.321 -0.919034 -1.28029 0
M  V30 2611 C 249.251 -0.428581 -2.29533 0
M  V30 2612 C 250.232 0.50659 -1.62381 0
M  V30 2613 O 251.417 0.413195 -1.89753 0
M  V30 2614 C 248.547 0.327388 -3.45753 0
M  V30 2615 C 247.501 -0.519137 -4.2484 0
M  V30 2616 C 246.827 0.365486 -5.33449 0
M  V30 2617 C 248.127 -1.77914 -4.91064 0
M  V30 2618 H 249.821 -1.27687 -2.70807 0
M  V30 2619 H 247.367 -0.615428 -1.30186 0
M  V30 2620 H 249.32 0.681378 -4.15855 0
M  V30 2621 H 248.044 1.20963 -3.03374 0
M  V30 2622 H 246.703 -0.855717 -3.56473 0
M  V30 2623 H 246.351 1.24642 -4.87312 0
M  V30 2624 H 246.051 -0.197356 -5.87268 0
M  V30 2625 H 247.575 0.715241 -6.06396 0
M  V30 2626 H 248.989 -1.49374 -5.53498 0
M  V30 2627 H 247.386 -2.2848 -5.54903 0
M  V30 2628 H 248.456 -2.50382 -4.15255 0
M  V30 2629 N 249.799 1.42003 -0.683588 0
M  V30 2630 C 250.709 2.34597 -0.0109075 0
M  V30 2631 C 251.725 1.55576 0.779245 0
M  V30 2632 O 252.901 1.88107 0.719555 0
M  V30 2633 C 249.966 3.34199 0.922588 0
M  V30 2634 C 249.027 4.29115 0.125984 0
M  V30 2635 C 248.26 5.23959 1.01502 0
M  V30 2636 O 248.483 5.23952 2.25456 0
M  V30 2637 O 247.417 6.00053 0.47111 0
M  V30 2638 H 251.243 2.93675 -0.773853 0
M  V30 2639 H 248.828 1.42654 -0.443861 0
M  V30 2640 H 250.71 3.95365 1.45823 0
M  V30 2641 H 249.385 2.77582 1.66523 0
M  V30 2642 H 248.292 3.71335 -0.453969 0
M  V30 2643 H 249.625 4.88798 -0.577736 0
M  V30 2644 N 251.277 0.427512 1.51691 0
M  V30 2645 C 252.224 -0.388867 2.275 0
M  V30 2646 C 253.194 -1.02532 1.30677 0
M  V30 2647 O 254.379 -1.0461 1.59566 0
M  V30 2648 C 251.519 -1.48954 3.11298 0
M  V30 2649 C 250.632 -0.872194 4.23104 0
M  V30 2650 C 249.767 -1.94709 4.94228 0
M  V30 2651 C 248.806 -1.30766 5.97969 0
M  V30 2652 N 247.943 -2.32349 6.62539 0
M  V30 2653 H 252.783 0.263997 2.96828 0
M  V30 2654 H 250.32 0.142033 1.46413 0
M  V30 2655 H 252.278 -2.13887 3.58201 0
M  V30 2656 H 250.908 -2.11217 2.44105 0
M  V30 2657 H 249.96 -0.111419 3.80237 0
M  V30 2658 H 251.272 -0.365264 4.97461 0
M  V30 2659 H 250.426 -2.67327 5.44629 0
M  V30 2660 H 249.165 -2.48773 4.1948 0
M  V30 2661 H 248.17 -0.566902 5.4687 0
M  V30 2662 H 249.395 -0.774483 6.74669 0
M  V30 2663 H 247.341 -2.85511 5.90609 0
M  V30 2664 H 247.258 -1.8652 7.3263 0
M  V30 2665 H 248.526 -3.04481 7.17574 0
M  V30 2666 N 252.755 -1.56801 0.158532 0
M  V30 2667 C 253.685 -2.20347 -0.772609 0
M  V30 2668 C 254.666 -1.15518 -1.24859 0
M  V30 2669 O 255.851 -1.43902 -1.30406 0
M  V30 2670 C 252.981 -2.83417 -2.00729 0
M  V30 2671 C 251.935 -3.94174 -1.66765 0
M  V30 2672 C 251.261 -4.44233 -2.97592 0
M  V30 2673 C 252.561 -5.14392 -0.905447 0
M  V30 2674 H 254.255 -2.98413 -0.242959 0
M  V30 2675 H 251.801 -1.43537 -0.115419 0
M  V30 2676 H 253.754 -3.26543 -2.6636 0
M  V30 2677 H 252.478 -2.02701 -2.56086 0
M  V30 2678 H 251.137 -3.51684 -1.03508 0
M  V30 2679 H 250.785 -3.60325 -3.50963 0
M  V30 2680 H 250.485 -5.18945 -2.75626 0
M  V30 2681 H 252.009 -4.90037 -3.64274 0
M  V30 2682 H 253.423 -5.5429 -1.46408 0
M  V30 2683 H 251.82 -5.9494 -0.7853 0
M  V30 2684 H 252.89 -4.84795 0.100668 0
M  V30 2685 N 254.233 0.115231 -1.57178 0
M  V30 2686 C 255.18 1.14115 -2.00615 0
M  V30 2687 C 256.15 1.40939 -0.878941 0
M  V30 2688 O 257.335 1.52741 -1.14345 0
M  V30 2689 C 254.475 2.46156 -2.4187 0
M  V30 2690 C 253.588 2.26236 -3.68024 0
M  V30 2691 C 252.723 3.51534 -3.98243 0
M  V30 2692 C 251.762 3.26787 -5.17568 0
M  V30 2693 N 250.899 4.44298 -5.43639 0
M  V30 2694 H 255.739 0.763743 -2.88047 0
M  V30 2695 H 253.276 0.365615 -1.42484 0
M  V30 2696 H 255.234 3.23189 -2.63827 0
M  V30 2697 H 253.864 2.81783 -1.57475 0
M  V30 2698 H 252.916 1.40102 -3.5366 0
M  V30 2699 H 254.228 2.03929 -4.55208 0
M  V30 2700 H 253.382 4.36984 -4.20868 0
M  V30 2701 H 252.121 3.76876 -3.09541 0
M  V30 2702 H 251.126 2.39729 -4.94783 0
M  V30 2703 H 252.351 3.02812 -6.0785 0
M  V30 2704 H 250.297 4.69754 -4.57895 0
M  V30 2705 H 250.214 4.25109 -6.25154 0
M  V30 2706 H 251.482 5.3087 -5.70786 0
M  V30 2707 N 255.711 1.52812 0.385517 0
M  V30 2708 C 256.936 1.72207 1.15583 0
M  V30 2709 C 257.361 0.441034 1.82857 0
M  V30 2710 O 256.719 -0.603465 1.70962 0
M  V30 2711 C 256.767 2.87476 2.17692 0
M  V30 2712 O 255.871 2.54693 3.24354 0
M  V30 2713 H 255.212 0.572526 0.336319 0
M  V30 2714 H 257.742 1.99618 0.448744 0
M  V30 2715 H 257.752 3.13072 2.6163 0
M  V30 2716 H 256.427 3.80408 1.68115 0
M  V30 2717 H 255.004 2.3985 2.85529 0
M  V30 2718 N 257.189 -0.644168 1.43834 0
M  V30 2719 C 258.429 -1.41565 1.47441 0
M  V30 2720 C 258.793 -1.91743 0.0992723 0
M  V30 2721 O 259.994 -2.68798 0.0100192 0
M  V30 2722 C 258.265 -2.55902 2.49498 0
M  V30 2723 S 259.824 -3.44287 2.72051 0
M  V30 2724 H 256.642 -0.483118 0.521649 0
M  V30 2725 H 259.244 -0.747008 1.80666 0
M  V30 2726 H 257.948 -2.17327 3.48134 0
M  V30 2727 H 257.479 -3.27607 2.17801 0
M  V30 2728 H 259.494 -4.52927 2.0266 0
M  V30 2729 N 258.668 -1.30515 -0.883378 0
M  V30 2730 C 259.916 -1.19194 -1.63209 0
M  V30 2731 C 260.237 0.253205 -1.93349 0
M  V30 2732 O 259.507 1.17025 -1.57105 0
M  V30 2733 H 258.087 -0.438148 -0.605009 0
M  V30 2734 H 260.749 -1.63663 -1.05832 0
M  V30 2735 H 259.845 -1.75396 -2.58153 0
M  V30 2736 N 260.146 1.09593 -1.13257 0
M  V30 2737 C 261.392 1.82003 -0.89458 0
M  V30 2738 C 261.725 1.85402 0.577906 0
M  V30 2739 O 261 1.32099 1.42759 0
M  V30 2740 C 261.283 3.28237 -1.48096 0
M  V30 2741 C 261.136 3.3312 -3.02244 0
M  V30 2742 C 262.455 4.24871 -1.14774 0
M  V30 2743 H 259.574 0.66077 -0.326424 0
M  V30 2744 H 262.216 1.28389 -1.40058 0
M  V30 2745 H 260.366 3.74024 -1.05062 0
M  V30 2746 H 262.038 2.95748 -3.54021 0
M  V30 2747 H 260.281 2.72756 -3.37323 0
M  V30 2748 H 260.952 4.3613 -3.38371 0
M  V30 2749 H 263.428 3.87361 -1.51957 0
M  V30 2750 H 262.304 5.25532 -1.58452 0
M  V30 2751 H 262.565 4.42058 -0.0611849 0
M  V30 2752 N 261.624 0.925811 1.2754 0
M  V30 2753 C 262.849 0.580924 1.99098 0
M  V30 2754 C 263.274 -0.833555 1.68622 0
M  V30 2755 O 262.632 -1.55903 0.925422 0
M  V30 2756 C 262.68 0.811186 3.51358 0
M  V30 2757 O 261.784 -0.124129 4.12213 0
M  V30 2758 H 261.125 0.223873 0.625122 0
M  V30 2759 H 263.655 1.24455 1.62395 0
M  V30 2760 H 263.665 0.72601 4.01489 0
M  V30 2761 H 262.34 1.84227 3.72872 0
M  V30 2762 H 260.917 0.0108006 3.72898 0
M  V30 2763 N 263.102 -1.41638 0.69111 0
M  V30 2764 C 264.349 -2.01299 0.220193 0
M  V30 2765 C 264.677 -1.54715 -1.17871 0
M  V30 2766 O 263.932 -0.747193 -1.80874 0
M  V30 2767 C 264.231 -3.56714 0.221277 0
M  V30 2768 C 263.897 -4.22792 1.56709 0
M  V30 2769 C 262.559 -4.40557 1.93554 0
M  V30 2770 C 264.911 -4.59883 2.45268 0
M  V30 2771 C 262.239 -4.92688 3.18552 0
M  V30 2772 C 264.591 -5.13403 3.69595 0
M  V30 2773 C 263.255 -5.29379 4.06589 0
M  V30 2774 H 262.525 -0.736606 0.0805743 0
M  V30 2775 H 265.172 -1.69598 0.889319 0
M  V30 2776 H 263.477 -3.8818 -0.531391 0
M  V30 2777 H 265.174 -4.00678 -0.160547 0
M  V30 2778 H 261.764 -4.09336 1.2705 0
M  V30 2779 H 265.948 -4.45817 2.18084 0
M  V30 2780 H 261.204 -5.03242 3.47214 0
M  V30 2781 H 265.378 -5.41084 4.38407 0
M  V30 2782 H 263.005 -5.69537 5.03519 0
M  V30 2783 N 264.58 -0.43555 -1.51462 0
M  V30 2784 C 265.51 0.367376 -2.30592 0
M  V30 2785 C 266.491 1.02263 -1.35928 0
M  V30 2786 O 267.676 1.02661 -1.64847 0
M  V30 2787 C 264.806 1.46983 -3.14664 0
M  V30 2788 C 263.76 0.938161 -4.17591 0
M  V30 2789 C 263.086 2.13622 -4.90173 0
M  V30 2790 C 264.386 -0.0261621 -5.22293 0
M  V30 2791 H 266.08 -0.292969 -2.97963 0
M  V30 2792 H 263.626 -0.14234 -1.43295 0
M  V30 2793 H 265.579 2.03873 -3.688 0
M  V30 2794 H 264.303 2.15843 -2.4511 0
M  V30 2795 H 262.962 0.391481 -3.64504 0
M  V30 2796 H 262.61 2.81098 -4.17124 0
M  V30 2797 H 262.31 1.78688 -5.59772 0
M  V30 2798 H 263.834 2.7107 -5.47132 0
M  V30 2799 H 265.248 0.452384 -5.71512 0
M  V30 2800 H 263.645 -0.287992 -5.99409 0
M  V30 2801 H 264.715 -0.963391 -4.75233 0
M  V30 2802 N 266.058 1.56714 -0.166846 0
M  V30 2803 C 267.335 1.88412 0.525373 0
M  V30 2804 C 267.715 1.07602 1.81618 0
M  V30 2805 O 267.063 0.168621 2.27877 0
M  V30 2806 C 267.273 3.40363 0.771613 0
M  V30 2807 C 268.621 4.10007 1.1036 0
M  V30 2808 O 269.645 3.45655 0.860304 0
M  V30 2809 O 268.504 5.2369 1.56239 0
M  V30 2810 H 265.598 0.781587 0.270278 0
M  V30 2811 H 268.144 1.68458 -0.204946 0
M  V30 2812 H 266.916 3.91046 -0.141093 0
M  V30 2813 H 266.539 3.65914 1.55541 0
M  V30 2814 N 267.536 -0.106894 1.57237 0
M  V30 2815 C 268.499 -1.11466 2.0027 0
M  V30 2816 C 269.499 -1.33623 0.894519 0
M  V30 2817 O 270.689 -1.29935 1.16028 0
M  V30 2818 C 267.821 -2.46646 2.35327 0
M  V30 2819 H 269.014 -0.744516 2.90512 0
M  V30 2820 H 266.567 -0.351576 1.52295 0
M  V30 2821 H 267.302 -2.88558 1.48003 0
M  V30 2822 H 267.087 -2.31915 3.16161 0
M  V30 2823 H 268.577 -3.19151 2.69318 0
M  V30 2824 N 269.014 -1.53014 -0.377408 0
M  V30 2825 C 270.425 -1.60438 -0.954798 0
M  V30 2826 C 270.776 -0.464418 -1.90624 0
M  V30 2827 O 269.901 0.41087 -2.12464 0
M  V30 2828 C 270.496 -2.90797 -1.73847 0
M  V30 2829 C 269.055 -3.00595 -2.26538 0
M  V30 2830 C 268.202 -2.55645 -1.07429 0
M  V30 2831 H 271.153 -1.57926 -0.156575 0
M  V30 2832 H 271.174 -2.77935 -2.5987 0
M  V30 2833 H 270.686 -3.73746 -1.04574 0
M  V30 2834 H 268.787 -2.22208 -2.99089 0
M  V30 2835 H 268.9 -4.05456 -2.5523 0
M  V30 2836 H 267.264 -2.10239 -1.43777 0
M  V30 2837 H 268.047 -3.41 -0.396728 0
M  V30 2838 N 270.492 0.636531 -1.44174 0
M  V30 2839 C 271.402 1.77754 -1.53103 0
M  V30 2840 C 272.418 1.68928 -0.417034 0
M  V30 2841 O 273.594 1.89801 -0.6736 0
M  V30 2842 C 270.659 3.14115 -1.46741 0
M  V30 2843 C 269.72 3.34612 -2.68948 0
M  V30 2844 C 268.953 4.64467 -2.6288 0
M  V30 2845 O 269.176 5.44919 -1.68581 0
M  V30 2846 O 268.11 4.87049 -3.53648 0
M  V30 2847 H 271.936 1.73174 -2.49489 0
M  V30 2848 H 269.521 0.79709 -1.2636 0
M  V30 2849 H 271.403 3.95412 -1.45696 0
M  V30 2850 H 270.078 3.19249 -0.534975 0
M  V30 2851 H 268.985 2.53014 -2.75562 0
M  V30 2852 H 270.318 3.34336 -3.61221 0
M  V30 2853 N 271.97 1.30982 0.876444 0
M  V30 2854 C 272.88 1.2003 2.01569 0
M  V30 2855 C 273.896 0.11838 1.73597 0
M  V30 2856 O 275.072 0.33495 1.98595 0
M  V30 2857 C 272.137 0.901637 3.34771 0
M  V30 2858 C 271.198 2.06979 3.76109 0
M  V30 2859 C 270.431 1.78529 5.02954 0
M  V30 2860 O 270.654 0.717296 5.65872 0
M  V30 2861 O 269.588 2.64019 5.40905 0
M  V30 2862 H 273.414 2.15753 2.13739 0
M  V30 2863 H 270.999 1.10658 1.00375 0
M  V30 2864 H 272.881 0.750645 4.1466 0
M  V30 2865 H 271.556 -0.0256141 3.2369 0
M  V30 2866 H 270.463 2.27616 2.96887 0
M  V30 2867 H 271.796 2.97907 3.91807 0
M  V30 2868 N 273.449 -1.08991 1.13837 0
M  V30 2869 C 274.695 -1.81526 0.90422 0
M  V30 2870 C 275.028 -1.85706 -0.568066 0
M  V30 2871 O 274.303 -1.32855 -1.42056 0
M  V30 2872 C 274.586 -3.27447 1.49835 0
M  V30 2873 C 274.439 -3.31512 3.04006 0
M  V30 2874 C 275.758 -4.24256 1.17025 0
M  V30 2875 H 272.877 -0.659029 0.329923 0
M  V30 2876 H 275.519 -1.27644 1.40737 0
M  V30 2877 H 273.669 -3.73462 1.07044 0
M  V30 2878 H 275.341 -2.93867 3.55584 0
M  V30 2879 H 273.584 -2.70963 3.38765 0
M  V30 2880 H 274.255 -4.34329 3.40679 0
M  V30 2881 H 276.731 -3.86549 1.54009 0
M  V30 2882 H 275.607 -5.24684 1.61237 0
M  V30 2883 H 275.868 -4.42019 0.0846274 0
M  V30 2884 N 274.927 -0.932562 -1.27047 0
M  V30 2885 C 276.174 -0.575559 -1.94148 0
M  V30 2886 C 276.502 0.883984 -1.73251 0
M  V30 2887 O 275.757 1.64655 -1.0577 0
M  V30 2888 C 276.056 -0.853713 -3.47054 0
M  V30 2889 C 275.722 -2.29577 -3.88079 0
M  V30 2890 C 274.384 -2.68999 -3.9899 0
M  V30 2891 C 276.736 -3.23331 -4.08787 0
M  V30 2892 C 274.064 -4.01289 -4.28 0
M  V30 2893 C 276.416 -4.55207 -4.39282 0
M  V30 2894 C 275.08 -4.94457 -4.48407 0
M  V30 2895 H 274.35 -0.210612 -0.710439 0
M  V30 2896 H 276.997 -1.17744 -1.51025 0
M  V30 2897 H 275.302 -0.169204 -3.91434 0
M  V30 2898 H 276.999 -0.55639 -3.97121 0
M  V30 2899 H 273.589 -1.97994 -3.80127 0
M  V30 2900 H 277.773 -2.94074 -3.99793 0
M  V30 2901 H 273.029 -4.31374 -4.33275 0
M  V30 2902 H 277.203 -5.27852 -4.54252 0
M  V30 2903 H 274.83 -5.96994 -4.7064 0
M  V30 2904 N 276.405 1.4127 -0.698611 0
M  V30 2905 C 277.368 2.29158 -0.044132 0
M  V30 2906 C 278.368 1.44529 0.704841 0
M  V30 2907 O 279.558 1.65643 0.539276 0
M  V30 2908 C 276.69 3.27459 0.947809 0
M  V30 2909 H 277.883 2.88529 -0.817994 0
M  V30 2910 H 275.436 1.49307 -0.46228 0
M  V30 2911 H 276.171 2.73073 1.74933 0
M  V30 2912 H 275.956 3.8991 0.41385 0
M  V30 2913 H 277.446 3.93311 1.40344 0
M  V30 2914 N 277.883 0.443576 1.51229 0
M  V30 2915 C 279.111 -0.11929 2.06556 0
M  V30 2916 C 279.526 -1.35921 1.31038 0
M  V30 2917 O 278.883 -1.78675 0.371704 0
M  V30 2918 C 278.934 -0.435228 3.5887 0
M  V30 2919 O 278.655 0.755486 4.31537 0
M  V30 2920 C 280.156 -1.04808 4.30732 0
M  V30 2921 H 277.376 -0.0051584 0.67098 0
M  V30 2922 H 279.92 0.624453 1.94733 0
M  V30 2923 H 278.075 -1.12887 3.70588 0
M  V30 2924 H 278.489 0.483491 5.22267 0
M  V30 2925 H 279.963 -1.2191 5.3837 0
M  V30 2926 H 280.44 -2.03081 3.89429 0
M  V30 2927 H 281.046 -0.393637 4.23474 0
M  V30 2928 N 279.361 -1.56624 0.175154 0
M  V30 2929 C 280.607 -1.9729 -0.469506 0
M  V30 2930 C 280.94 -1.06128 -1.62636 0
M  V30 2931 O 280.215 -0.109183 -1.94193 0
M  V30 2932 C 280.498 -3.47375 -0.948804 0
M  V30 2933 C 280.351 -4.49317 0.208491 0
M  V30 2934 C 281.67 -4.00652 -1.82116 0
M  V30 2935 H 278.789 -0.717317 -0.16919 0
M  V30 2936 H 281.431 -1.88184 0.262062 0
M  V30 2937 H 279.581 -3.55267 -1.57219 0
M  V30 2938 H 281.253 -4.53482 0.845682 0
M  V30 2939 H 279.496 -4.25121 0.863395 0
M  V30 2940 H 280.167 -5.51741 -0.169059 0
M  V30 2941 H 282.643 -3.95416 -1.2956 0
M  V30 2942 H 281.519 -5.06075 -2.12554 0
M  V30 2943 H 281.78 -3.44699 -2.7683 0
M  V30 2944 N 280.839 0.0985539 -1.57292 0
M  V30 2945 C 281.769 1.12064 -2.04851 0
M  V30 2946 C 282.75 1.41981 -0.936767 0
M  V30 2947 O 283.935 1.52071 -1.20781 0
M  V30 2948 C 281.065 2.44144 -2.47004 0
M  V30 2949 C 280.019 2.28643 -3.6181 0
M  V30 2950 C 279.345 3.65869 -3.89929 0
M  V30 2951 C 280.645 1.72986 -4.92822 0
M  V30 2952 H 282.339 0.724979 -2.9049 0
M  V30 2953 H 279.885 0.34729 -1.39749 0
M  V30 2954 H 281.838 3.15914 -2.78884 0
M  V30 2955 H 280.562 2.85639 -1.5836 0
M  V30 2956 H 279.221 1.59318 -3.30172 0
M  V30 2957 H 278.869 4.04885 -2.98458 0
M  V30 2958 H 278.569 3.56344 -4.67218 0
M  V30 2959 H 280.093 4.39112 -4.2428 0
M  V30 2960 H 281.507 2.34593 -5.23105 0
M  V30 2961 H 279.904 1.74229 -5.74251 0
M  V30 2962 H 280.974 0.689007 -4.7998 0
M  V30 2963 N 282.317 1.53212 0.369288 0
M  V30 2964 C 283.265 1.80054 1.47253 0
M  V30 2965 C 284.259 0.669456 1.55611 0
M  V30 2966 O 285.465 0.852328 1.58541 0
M  V30 2967 H 281.84 0.570034 0.490475 0
M  V30 2968 H 283.811 2.72403 1.21817 0
M  V30 2969 C 282.56 2.00403 2.84137 0
M  V30 2970 H 281.883 2.86876 2.78464 0
M  V30 2971 H 283.323 2.23164 3.60519 0
M  V30 2972 C 281.782 0.782081 3.27697 0
M  V30 2973 O 282.312 -0.0310205 4.01688 0
M  V30 2974 N 280.518 0.606573 2.84199 0
M  V30 2975 H 280.065 1.26939 2.24152 0
M  V30 2976 H 280.023 -0.20962 3.137 0
M  V30 2977 N 283.795 -0.628877 1.44509 0
M  V30 2978 C 285.025 -1.41349 1.50678 0
M  V30 2979 C 285.433 -1.88745 0.131075 0
M  V30 2980 O 284.776 -1.61592 -0.87371 0
M  V30 2981 C 284.838 -2.66608 2.41165 0
M  V30 2982 C 284.502 -2.40993 3.88293 0
M  V30 2983 C 285.499 -2.0268 4.78766 0
M  V30 2984 C 283.184 -2.54563 4.33016 0
M  V30 2985 C 285.178 -1.78269 6.11963 0
M  V30 2986 C 282.865 -2.29766 5.6626 0
M  V30 2987 C 283.863 -1.91678 6.55552 0
M  V30 2988 O 283.551 -1.67158 7.86329 0
M  V30 2989 H 283.283 -0.439851 0.51333 0
M  V30 2990 H 285.837 -0.776084 1.90174 0
M  V30 2991 H 284.067 -3.32994 1.96601 0
M  V30 2992 H 285.756 -3.28615 2.38259 0
M  V30 2993 H 286.522 -1.91751 4.45485 0
M  V30 2994 H 282.401 -2.83179 3.63773 0
M  V30 2995 H 285.945 -1.48465 6.81619 0
M  V30 2996 H 281.842 -2.40306 5.99102 0
M  V30 2997 H 282.61 -1.81386 7.98149 0
M  V30 2998 N 285.273 -1.31445 -0.869486 0
M  V30 2999 C 286.203 -1.21727 -1.99261 0
M  V30 3000 C 287.184 -0.104359 -1.6978 0
M  V30 3001 O 288.369 -0.289038 -1.92037 0
M  V30 3002 C 285.499 -0.924317 -3.34774 0
M  V30 3003 C 284.453 -1.99685 -3.78563 0
M  V30 3004 C 283.779 -1.55658 -5.11541 0
M  V30 3005 C 285.079 -3.41003 -3.95619 0
M  V30 3006 H 286.773 -2.1569 -2.07649 0
M  V30 3007 H 284.319 -1.03839 -0.997675 0
M  V30 3008 H 286.272 -0.842934 -4.12883 0
M  V30 3009 H 284.996 0.0509793 -3.2656 0
M  V30 3010 H 283.655 -2.06813 -3.02694 0
M  V30 3011 H 283.303 -0.569132 -4.9977 0
M  V30 3012 H 283.003 -2.27409 -5.41811 0
M  V30 3013 H 284.527 -1.48928 -5.92159 0
M  V30 3014 H 285.941 -3.36547 -4.64122 0
M  V30 3015 H 284.338 -4.10975 -4.37286 0
M  V30 3016 H 285.408 -3.81754 -2.98985 0
M  V30 3017 N 286.751 1.08385 -1.14413 0
M  V30 3018 C 287.999 1.80419 -0.910679 0
M  V30 3019 C 288.32 1.86658 0.564243 0
M  V30 3020 O 287.59 1.35985 1.41014 0
M  V30 3021 H 286.17 0.668204 -0.333934 0
M  V30 3022 H 288.832 1.31037 -1.44275 0
M  V30 3023 H 287.928 2.83238 -1.31082 0
M  V30 3024 N 288.23 0.939286 1.26551 0
M  V30 3025 C 289.177 0.446088 2.26448 0
M  V30 3026 C 290.147 -0.493234 1.58608 0
M  V30 3027 O 291.332 -0.409857 1.86346 0
M  V30 3028 C 288.472 -0.284375 3.43926 0
M  V30 3029 C 287.585 0.690399 4.26448 0
M  V30 3030 C 286.72 -0.0610712 5.31165 0
M  V30 3031 C 285.759 0.905649 6.05363 0
M  V30 3032 N 284.896 0.186055 7.01853 0
M  V30 3033 H 289.736 1.30291 2.68008 0
M  V30 3034 H 287.273 0.65371 1.31776 0
M  V30 3035 H 289.231 -0.724313 4.10864 0
M  V30 3036 H 287.861 -1.10535 3.03285 0
M  V30 3037 H 286.913 1.24885 3.59316 0
M  V30 3038 H 288.225 1.42873 4.779 0
M  V30 3039 H 287.379 -0.56038 6.04106 0
M  V30 3040 H 286.118 -0.832297 4.80546 0
M  V30 3041 H 285.123 1.4161 5.3125 0
M  V30 3042 H 286.348 1.67685 6.58072 0
M  V30 3043 H 284.294 -0.566714 6.53548 0
M  V30 3044 H 284.211 0.863752 7.51049 0
M  V30 3045 H 285.479 -0.292221 7.78952 0
M  V30 3046 N 289.708 -1.40897 0.706093 0
M  V30 3047 C 290.985 -1.94868 0.169099 0
M  V30 3048 C 291.365 -1.64485 -1.32318 0
M  V30 3049 O 290.713 -0.95744 -2.07474 0
M  V30 3050 C 290.923 -3.45798 0.471654 0
M  V30 3051 C 292.271 -4.22663 0.405127 0
M  V30 3052 O 293.295 -3.53865 0.407168 0
M  V30 3053 O 292.154 -5.45216 0.374383 0
M  V30 3054 H 289.248 -0.82673 0.0211352 0
M  V30 3055 H 291.794 -1.50558 0.782976 0
M  V30 3056 H 290.566 -3.61235 1.50416 0
M  V30 3057 H 290.189 -3.97225 -0.172666 0
M  V30 3058 N 291.186 -0.45159 -1.50991 0
M  V30 3059 C 292.597 0.00818571 -1.86698 0
M  V30 3060 C 292.948 1.40661 -1.3678 0
M  V30 3061 O 292.073 2.0391 -0.724546 0
M  V30 3062 C 292.668 0.0216303 -3.38793 0
M  V30 3063 C 291.227 0.425865 -3.73983 0
M  V30 3064 C 290.374 -0.372163 -2.74791 0
M  V30 3065 H 293.325 -0.666785 -1.44013 0
M  V30 3066 H 293.346 0.828078 -3.7138 0
M  V30 3067 H 292.858 -0.996288 -3.75094 0
M  V30 3068 H 290.959 1.44886 -3.43277 0
M  V30 3069 H 291.072 0.140761 -4.78893 0
M  V30 3070 H 289.436 0.171498 -2.54122 0
M  V30 3071 H 290.219 -1.38922 -3.13935 0
M  V30 3072 N 292.664 1.56529 -0.183458 0
M  V30 3073 C 293.612 2.19873 0.758845 0
M  V30 3074 C 294.606 1.16638 1.22849 0
M  V30 3075 O 295.812 1.3481 1.19274 0
M  V30 3076 H 292.187 0.7045 0.263029 0
M  V30 3077 H 294.158 2.97724 0.200755 0
M  V30 3078 C 292.907 2.86314 1.9728 0
M  V30 3079 H 292.23 3.65487 1.62047 0
M  V30 3080 H 293.67 3.3409 2.61075 0
M  V30 3081 C 292.129 1.86729 2.80418 0
M  V30 3082 O 292.659 1.36031 3.77966 0
M  V30 3083 N 290.865 1.55216 2.45675 0
M  V30 3084 H 290.412 1.96636 1.66409 0
M  V30 3085 H 290.37 0.888388 3.01588 0
M  V30 3086 N 294.142 -0.090211 1.57342 0
M  V30 3087 C 295.367 -0.810082 1.90925 0
M  V30 3088 C 295.792 -1.71248 0.778187 0
M  V30 3089 O 295.15 -1.79278 -0.269991 0
M  V30 3090 C 295.198 -1.59529 3.23393 0
M  V30 3091 O 294.302 -2.70461 3.11327 0
M  V30 3092 H 293.643 -0.222231 0.625707 0
M  V30 3093 H 296.173 -0.0639716 2.045 0
M  V30 3094 H 296.183 -1.97847 3.5682 0
M  V30 3095 H 294.858 -0.933055 4.05299 0
M  V30 3096 H 293.435 -2.35135 2.89423 0
M  V30 3097 N 295.62 -1.53406 -0.361157 0
M  V30 3098 C 296.848 -1.73717 -1.12383 0
M  V30 3099 C 297.263 -0.468161 -1.82904 0
M  V30 3100 O 296.62 0.559198 -1.73722 0
M  V30 3101 C 296.671 -2.90558 -2.15078 0
M  V30 3102 O 296.392 -4.12549 -1.47428 0
M  V30 3103 C 297.893 -3.22777 -3.03858 0
M  V30 3104 H 295.113 -0.580896 -0.335858 0
M  V30 3105 H 297.657 -2.00167 -0.418728 0
M  V30 3106 H 295.812 -2.66489 -2.8118 0
M  V30 3107 H 296.226 -4.78009 -2.15887 0
M  V30 3108 H 297.7 -4.07927 -3.71887 0
M  V30 3109 H 298.177 -2.38329 -3.68912 0
M  V30 3110 H 298.783 -3.48787 -2.43367 0
M  V30 3111 N 297.098 0.621204 -1.44841 0
M  V30 3112 C 298.045 1.73267 -1.5247 0
M  V30 3113 C 299.015 1.6189 -0.371611 0
M  V30 3114 O 300.2 1.81668 -0.58321 0
M  V30 3115 C 297.34 3.11545 -1.48438 0
M  V30 3116 C 296.453 3.33827 -2.74196 0
M  V30 3117 C 295.588 4.62133 -2.61929 0
M  V30 3118 C 294.627 4.77627 -3.82804 0
M  V30 3119 N 293.764 5.97219 -3.69153 0
M  V30 3120 H 298.604 1.66082 -2.47428 0
M  V30 3121 H 296.141 0.810026 -1.22788 0
M  V30 3122 H 298.099 3.91528 -1.4409 0
M  V30 3123 H 296.729 3.1772 -0.570402 0
M  V30 3124 H 295.781 2.47715 -2.88689 0
M  V30 3125 H 297.093 3.41153 -3.6389 0
M  V30 3126 H 296.247 5.50291 -2.5547 0
M  V30 3127 H 294.986 4.57182 -1.69811 0
M  V30 3128 H 293.991 3.87896 -3.89637 0
M  V30 3129 H 295.216 4.84385 -4.75971 0
M  V30 3130 H 293.162 5.93339 -2.79794 0
M  V30 3131 H 293.079 6.05644 -4.52472 0
M  V30 3132 H 294.347 6.87912 -3.66603 0
M  V30 3133 N 298.576 1.31904 0.862503 0
M  V30 3134 C 299.539 1.20131 1.95195 0
M  V30 3135 C 300.539 0.126409 1.60302 0
M  V30 3136 O 301.729 0.376234 1.70089 0
M  V30 3137 C 298.861 0.845691 3.30244 0
M  V30 3138 H 300.054 2.16943 2.07064 0
M  V30 3139 H 297.607 1.15622 1.05172 0
M  V30 3140 H 298.342 -0.120957 3.24074 0
M  V30 3141 H 298.127 1.62276 3.56944 0
M  V30 3142 H 299.617 0.787418 4.10109 0
M  V30 3143 N 300.054 -1.07777 1.14986 0
M  V30 3144 C 301.331 -1.7699 0.832695 0
M  V30 3145 C 301.711 -2.001 -0.672561 0
M  V30 3146 O 301.059 -1.61598 -1.6155 0
M  V30 3147 C 301.269 -3.08139 1.63863 0
M  V30 3148 C 302.617 -3.8256 1.84208 0
M  V30 3149 O 303.641 -3.17939 1.60603 0
M  V30 3150 O 302.5 -4.98612 2.23714 0
M  V30 3151 H 299.594 -0.768389 0.305791 0
M  V30 3152 H 302.14 -1.14182 1.25541 0
M  V30 3153 H 300.912 -2.86909 2.6608 0
M  V30 3154 H 300.535 -3.78678 1.21197 0
M  V30 3155 N 301.532 -0.945985 -1.26051 0
M  V30 3156 C 302.809 -0.513816 -1.88731 0
M  V30 3157 C 303.189 1.00872 -1.8544 0
M  V30 3158 O 302.537 1.8708 -1.312 0
M  V30 3159 C 302.747 -1.08062 -3.31849 0
M  V30 3160 C 304.095 -1.1522 -4.08668 0
M  V30 3161 O 305.119 -1.03155 -3.40936 0
M  V30 3162 O 303.978 -1.34044 -5.29806 0
M  V30 3163 H 301.072 -0.168193 -0.809716 0
M  V30 3164 H 303.618 -1.03886 -1.34186 0
M  V30 3165 H 302.39 -2.1241 -3.2863 0
M  V30 3166 H 302.013 -0.538307 -3.93939 0
M  V30 3167 N 303.011 1.40521 -0.713556 0
M  V30 3168 C 304.241 2.0494 -0.261395 0
M  V30 3169 C 304.649 1.53861 1.10107 0
M  V30 3170 O 303.992 0.689321 1.70276 0
M  V30 3171 C 304.054 3.59138 -0.161227 0
M  V30 3172 C 303.718 4.33096 -1.45865 0
M  V30 3173 C 304.715 4.61182 -2.40016 0
M  V30 3174 C 302.4 4.72043 -1.71701 0
M  V30 3175 C 304.394 5.27196 -3.58251 0
M  V30 3176 C 302.081 5.37789 -2.90218 0
M  V30 3177 C 303.079 5.65295 -3.83315 0
M  V30 3178 O 302.767 6.29683 -4.99754 0
M  V30 3179 H 302.499 0.666041 -0.115608 0
M  V30 3180 H 305.053 1.80954 -0.971849 0
M  V30 3181 H 303.283 3.81936 0.605153 0
M  V30 3182 H 304.972 4.05091 0.256105 0
M  V30 3183 H 305.738 4.31559 -2.21318 0
M  V30 3184 H 301.617 4.50003 -1.00092 0
M  V30 3185 H 305.161 5.48582 -4.30934 0
M  V30 3186 H 301.058 5.66831 -3.08825 0
M  V30 3187 H 301.826 6.4818 -4.99805 0
M  V30 3188 N 304.489 0.459591 1.5075 0
M  V30 3189 C 305.717 -0.0973749 2.06671 0
M  V30 3190 C 306.132 -1.34524 1.32472 0
M  V30 3191 O 305.489 -1.7827 0.390634 0
M  V30 3192 C 305.54 -0.39714 3.59312 0
M  V30 3193 O 305.261 0.801214 4.30711 0
M  V30 3194 C 306.762 -1.00234 4.31819 0
M  V30 3195 H 303.982 0.00195854 0.670997 0
M  V30 3196 H 306.526 0.645072 1.94059 0
M  V30 3197 H 304.681 -1.08951 3.71764 0
M  V30 3198 H 305.095 0.538857 5.21725 0
M  V30 3199 H 306.569 -1.16193 5.39632 0
M  V30 3200 H 307.046 -1.98939 3.91561 0
M  V30 3201 H 307.652 -0.348699 4.23868 0
M  V30 3202 N 305.967 -1.56429 0.191757 0
M  V30 3203 C 307.215 -1.97095 -0.447006 0
M  V30 3204 C 307.536 -1.07967 -1.62383 0
M  V30 3205 O 306.806 -0.150248 -1.95323 0
M  V30 3206 H 305.386 -0.727832 -0.168135 0
M  V30 3207 H 308.048 -1.92911 0.27771 0
M  V30 3208 H 307.144 -3.01848 -0.793371 0
M  V30 3209 N 307.445 0.0818655 -1.57387 0
M  V30 3210 C 308.856 0.634871 -1.75574 0
M  V30 3211 C 309.207 1.78435 -0.815809 0
M  V30 3212 O 308.332 2.164 0.0025366 0
M  V30 3213 C 308.927 1.15845 -3.18379 0
M  V30 3214 C 307.486 1.65741 -3.37945 0
M  V30 3215 C 306.633 0.572549 -2.71325 0
M  V30 3216 H 309.584 -0.144268 -1.58043 0
M  V30 3217 H 309.605 2.02751 -3.21982 0
M  V30 3218 H 309.117 0.321631 -3.86765 0
M  V30 3219 H 307.218 2.51781 -2.74658 0
M  V30 3220 H 307.331 1.74129 -4.46336 0
M  V30 3221 H 305.695 1.01518 -2.33594 0
M  V30 3222 H 306.478 -0.253918 -3.4236 0
M  V30 3223 N 308.923 1.53595 0.353017 0
M  V30 3224 C 309.886 1.80232 1.41594 0
M  V30 3225 C 310.886 0.673081 1.46035 0
M  V30 3226 O 312.076 0.941335 1.46576 0
M  V30 3227 C 309.208 1.93578 2.80607 0
M  V30 3228 H 310.401 2.75174 1.19244 0
M  V30 3229 H 307.954 1.44864 0.586872 0
M  V30 3230 H 308.689 1.00746 3.08254 0
M  V30 3231 H 308.474 2.75724 2.78781 0
M  V30 3232 H 309.964 2.15735 3.57558 0
M  V30 3233 N 310.401 -0.613514 1.45168 0
M  V30 3234 C 311.629 -1.39946 1.5239 0
M  V30 3235 C 312.044 -1.88167 0.154531 0
M  V30 3236 O 311.401 -1.61872 -0.842843 0
M  V30 3237 C 311.452 -2.60795 2.50337 0
M  V30 3238 O 311.173 -2.1458 3.81952 0
M  V30 3239 C 312.674 -3.53723 2.67198 0
M  V30 3240 H 309.894 -0.428593 0.516284 0
M  V30 3241 H 312.438 -0.748753 1.903 0
M  V30 3242 H 310.593 -3.21919 2.15515 0
M  V30 3243 H 311.007 -2.93055 4.34993 0
M  V30 3244 H 312.481 -4.35079 3.39721 0
M  V30 3245 H 312.958 -4.0368 1.73029 0
M  V30 3246 H 313.564 -2.98456 3.02992 0
M  V30 3247 N 311.879 -1.3236 -0.855495 0
M  V30 3248 C 313.156 -1.13491 -1.59309 0
M  V30 3249 C 313.536 0.30503 -2.08885 0
M  V30 3250 O 312.884 1.30151 -1.87811 0
M  V30 3251 C 313.094 -2.16176 -2.73987 0
M  V30 3252 C 314.442 -2.49463 -3.43589 0
M  V30 3253 O 315.466 -2.14715 -2.84211 0
M  V30 3254 O 314.325 -3.09027 -4.50738 0
M  V30 3255 H 311.419 -0.437887 -0.701559 0
M  V30 3256 H 313.965 -1.43887 -0.899696 0
M  V30 3257 H 312.737 -3.1297 -2.34873 0
M  V30 3258 H 312.36 -1.86769 -3.51003 0
M  V30 3259 N 313.357 1.07166 -1.15556 0
M  V30 3260 C 314.287 2.16403 -0.877046 0
M  V30 3261 C 315.268 1.69217 0.173111 0
M  V30 3262 O 316.453 1.94181 0.027084 0
M  V30 3263 C 313.583 3.45349 -0.367632 0
M  V30 3264 C 312.537 4.05995 -1.35468 0
M  V30 3265 C 311.863 5.30045 -0.704038 0
M  V30 3266 C 313.163 4.45804 -2.72132 0
M  V30 3267 H 314.857 2.39959 -1.79053 0
M  V30 3268 H 312.403 1.15325 -0.862331 0
M  V30 3269 H 314.356 4.21095 -0.160317 0
M  V30 3270 H 313.08 3.21385 0.581326 0
M  V30 3271 H 311.739 3.32296 -1.54839 0
M  V30 3272 H 311.387 5.02373 0.251128 0
M  V30 3273 H 311.087 5.71579 -1.36277 0
M  V30 3274 H 312.611 6.08495 -0.50654 0
M  V30 3275 H 314.025 5.12671 -2.56595 0
M  V30 3276 H 312.422 4.98296 -3.34397 0
M  V30 3277 H 313.492 3.57083 -3.28054 0
M  V30 3278 N 314.835 0.952656 1.25548 0
M  V30 3279 C 315.765 0.489287 2.28316 0
M  V30 3280 C 316.746 -0.463359 1.63667 0
M  V30 3281 O 317.931 -0.36274 1.90782 0
M  V30 3282 C 315.061 -0.235603 3.465 0
M  V30 3283 C 314.015 0.631593 4.23314 0
M  V30 3284 C 313.341 -0.223923 5.34231 0
M  V30 3285 C 314.641 1.90871 4.86174 0
M  V30 3286 H 316.335 1.34822 2.67326 0
M  V30 3287 H 313.881 0.649728 1.28509 0
M  V30 3288 H 315.834 -0.570882 4.17515 0
M  V30 3289 H 314.558 -1.12877 3.06474 0
M  V30 3290 H 313.217 0.949929 3.54079 0
M  V30 3291 H 312.865 -1.11678 4.90446 0
M  V30 3292 H 312.565 0.35299 5.86539 0
M  V30 3293 H 314.089 -0.554214 6.0808 0
M  V30 3294 H 315.503 1.63997 5.49343 0
M  V30 3295 H 313.9 2.43112 5.4865 0
M  V30 3296 H 314.97 2.61304 4.08471 0
M  V30 3297 N 316.313 -1.40141 0.720998 0
M  V30 3298 C 317.243 -2.33339 0.0867621 0
M  V30 3299 C 318.224 -1.53178 -0.739622 0
M  V30 3300 O 319.409 -1.81625 -0.687449 0
M  V30 3301 C 316.539 -3.37194 -0.831728 0
M  V30 3302 C 315.493 -4.27857 -0.110558 0
M  V30 3303 C 314.819 -5.22294 -1.14513 0
M  V30 3304 C 316.119 -5.11872 1.0385 0
M  V30 3305 H 317.813 -2.86626 0.865219 0
M  V30 3306 H 315.359 -1.37814 0.417516 0
M  V30 3307 H 317.312 -4.01335 -1.28485 0
M  V30 3308 H 316.036 -2.82314 -1.64214 0
M  V30 3309 H 314.695 -3.65176 0.322797 0
M  V30 3310 H 314.343 -4.63717 -1.94874 0
M  V30 3311 H 314.043 -5.83797 -0.667446 0
M  V30 3312 H 315.567 -5.89312 -1.59824 0
M  V30 3313 H 316.981 -5.69436 0.664482 0
M  V30 3314 H 315.378 -5.82445 1.4449 0
M  V30 3315 H 316.448 -4.4753 1.86668 0
M  V30 3316 N 317.792 -0.46758 -1.50504 0
M  V30 3317 C 318.739 0.328413 -2.28452 0
M  V30 3318 C 319.709 0.990313 -1.33349 0
M  V30 3319 O 320.894 1.00343 -1.62284 0
M  V30 3320 C 318.034 1.40648 -3.15138 0
M  V30 3321 C 317.147 0.759709 -4.25267 0
M  V30 3322 C 316.282 1.81537 -4.99217 0
M  V30 3323 C 315.321 1.14866 -6.01226 0
M  V30 3324 N 314.458 2.14702 -6.68467 0
M  V30 3325 H 319.298 -0.342603 -2.96024 0
M  V30 3326 H 316.835 -0.180801 -1.45985 0
M  V30 3327 H 318.793 2.04315 -3.63746 0
M  V30 3328 H 317.423 2.04671 -2.49619 0
M  V30 3329 H 316.475 0.0105671 -3.80399 0
M  V30 3330 H 317.787 0.233243 -4.98254 0
M  V30 3331 H 316.941 2.52793 -5.51526 0
M  V30 3332 H 315.68 2.37564 -4.25928 0
M  V30 3333 H 314.685 0.42171 -5.4818 0
M  V30 3334 H 315.91 0.595334 -6.76485 0
M  V30 3335 H 313.856 2.69752 -5.97972 0
M  V30 3336 H 313.773 1.6703 -7.37317 0
M  V30 3337 H 315.041 2.85348 -7.25394 0
M  V30 3338 N 319.27 1.56325 -0.20005 0
M  V30 3339 C 320.2 2.22318 0.713916 0
M  V30 3340 C 321.181 1.18788 1.21752 0
M  V30 3341 O 322.366 1.47309 1.26545 0
M  V30 3342 C 319.496 2.88639 1.93144 0
M  V30 3343 C 318.45 3.98457 1.56255 0
M  V30 3344 C 317.776 4.51967 2.85709 0
M  V30 3345 C 319.076 5.16612 0.768747 0
M  V30 3346 H 320.77 2.98952 0.163755 0
M  V30 3347 H 318.316 1.43792 0.0773219 0
M  V30 3348 H 320.269 3.33491 2.57608 0
M  V30 3349 H 318.993 2.09419 2.50621 0
M  V30 3350 H 317.652 3.54305 0.941471 0
M  V30 3351 H 317.3 3.69503 3.41287 0
M  V30 3352 H 317 5.26071 2.6177 0
M  V30 3353 H 318.524 4.99523 3.51154 0
M  V30 3354 H 319.938 5.57977 1.3166 0
M  V30 3355 H 318.335 5.96812 0.627286 0
M  V30 3356 H 319.405 4.84358 -0.229168 0
M  V30 3357 N 320.748 -0.0735177 1.57428 0
M  V30 3358 C 322.164 -0.428264 1.53747 0
M  V30 3359 C 322.364 -1.79272 0.91998 0
M  V30 3360 O 321.42 -2.47051 0.521745 0
M  V30 3361 C 322.733 -0.370914 2.98404 0
M  V30 3362 C 324.281 -0.451224 3.0973 0
M  V30 3363 C 324.756 -0.4238 4.56035 0
M  V30 3364 N 326.247 -0.483925 4.60665 0
M  V30 3365 C 326.982 -0.484891 5.71346 0
M  V30 3366 N 326.478 -0.440775 6.91396 0
M  V30 3367 N 328.271 -0.531319 5.59583 0
M  V30 3368 H 320.422 0.819949 1.95935 0
M  V30 3369 H 322.685 0.307493 0.896745 0
M  V30 3370 H 322.391 0.564956 3.47133 0
M  V30 3371 H 322.265 -1.18176 3.5821 0
M  V30 3372 H 324.652 -1.37752 2.60976 0
M  V30 3373 H 324.733 0.388167 2.52838 0
M  V30 3374 H 324.377 0.498638 5.05446 0
M  V30 3375 H 324.307 -1.2807 5.10789 0
M  V30 3376 H 326.798 -0.522338 3.74273 0
M  V30 3377 H 327.111 -0.44539 7.71515 0
M  V30 3378 H 325.456 -0.40749 6.93804 0
M  V30 3379 H 328.647 -0.563464 4.64696 0
M  V30 3380 H 328.82 -0.528603 6.4584 0
M  V30 3381 N 322.226 -1.5378 -0.344866 0
M  V30 3382 C 323.637 -1.62428 -0.920552 0
M  V30 3383 C 323.988 -0.504747 -1.89596 0
M  V30 3384 O 323.113 0.365711 -2.13287 0
M  V30 3385 C 323.708 -2.94419 -1.67639 0
M  V30 3386 C 322.267 -3.05333 -2.20111 0
M  V30 3387 C 321.414 -2.57866 -1.01982 0
M  V30 3388 H 324.365 -1.58222 -0.123042 0
M  V30 3389 H 324.386 -2.83384 -2.53917 0
M  V30 3390 H 323.898 -3.7588 -0.966224 0
M  V30 3391 H 321.999 -2.28502 -2.94308 0
M  V30 3392 H 322.112 -4.10778 -2.46573 0
M  V30 3393 H 320.476 -2.13241 -1.39285 0
M  V30 3394 H 321.259 -3.41765 -0.324308 0
M  V30 3395 N 323.704 0.605807 -1.45491 0
M  V30 3396 C 324.652 1.73754 -1.54636 0
M  V30 3397 C 325.646 1.64207 -0.416219 0
M  V30 3398 O 326.852 1.69979 -0.592199 0
M  V30 3399 H 323.227 0.574073 -0.485741 0
M  V30 3400 H 325.198 1.63169 -2.49837 0
M  V30 3401 C 323.947 3.12135 -1.53189 0
M  V30 3402 H 323.27 3.20141 -2.39478 0
M  V30 3403 H 324.71 3.91147 -1.63645 0
M  V30 3404 C 323.169 3.35921 -0.256616 0
M  V30 3405 O 323.699 3.96194 0.662798 0
M  V30 3406 N 321.905 2.90204 -0.151751 0
M  V30 3407 H 321.452 2.41336 -0.90081 0
M  V30 3408 H 321.41 3.06492 0.700699 0
M  V30 3409 N 325.182 1.32811 0.848464 0
M  V30 3410 C 326.431 1.23075 1.59798 0
M  V30 3411 C 326.744 -0.204419 1.94529 0
M  V30 3412 O 327.95 -0.423701 2.68173 0
M  V30 3413 C 326.406 2.15594 2.88179 0
M  V30 3414 C 326.014 3.64228 2.60849 0
M  V30 3415 C 327.758 2.14709 3.66197 0
M  V30 3416 C 325.665 4.48689 3.85269 0
M  V30 3417 H 324.595 0.457091 0.599653 0
M  V30 3418 H 327.246 1.57813 0.936342 0
M  V30 3419 H 325.628 1.73778 3.55833 0
M  V30 3420 H 326.802 4.14424 2.01467 0
M  V30 3421 H 325.117 3.67306 1.96151 0
M  V30 3422 H 327.714 2.75046 4.58534 0
M  V30 3423 H 328.057 1.13966 4.00397 0
M  V30 3424 H 328.59 2.54837 3.05455 0
M  V30 3425 H 325.329 5.5027 3.56207 0
M  V30 3426 H 324.849 4.03241 4.44024 0
M  V30 3427 H 326.528 4.62006 4.52946 0
M  V30 3428 N 326.66 -1.06551 1.16123 0
M  V30 3429 C 328.076 -1.3142 0.905585 0
M  V30 3430 C 328.276 -1.96571 -0.442964 0
M  V30 3431 O 327.332 -2.23068 -1.18308 0
M  V30 3432 C 328.645 -2.19741 2.05267 0
M  V30 3433 C 330.193 -2.33165 2.08813 0
M  V30 3434 C 330.668 -3.24838 3.22868 0
M  V30 3435 N 332.159 -3.32421 3.22568 0
M  V30 3436 C 332.894 -4.0344 4.0746 0
M  V30 3437 N 332.39 -4.77003 5.02434 0
M  V30 3438 N 334.183 -3.99464 3.95456 0
M  V30 3439 H 326.334 -0.626548 2.02949 0
M  V30 3440 H 328.597 -0.338777 0.8854 0
M  V30 3441 H 328.303 -1.79142 3.02657 0
M  V30 3442 H 328.177 -3.20313 1.99198 0
M  V30 3443 H 330.564 -2.73013 1.12018 0
M  V30 3444 H 330.645 -1.3227 2.18948 0
M  V30 3445 H 330.289 -2.85708 4.19921 0
M  V30 3446 H 330.219 -4.25707 3.0997 0
M  V30 3447 H 332.71 -2.79994 2.53795 0
M  V30 3448 H 333.023 -5.28712 5.63634 0
M  V30 3449 H 331.368 -4.75992 5.06415 0
M  V30 3450 H 334.559 -3.4111 3.20564 0
M  V30 3451 H 334.732 -4.54544 4.61837 0
M  V30 3452 N 328.138 -0.959301 -1.25041 0
M  V30 3453 C 329.368 -0.63303 -1.96663 0
M  V30 3454 C 329.776 0.800031 -1.71453 0
M  V30 3455 O 329.119 1.54736 -0.99008 0
M  V30 3456 C 329.181 -0.817523 -3.50081 0
M  V30 3457 C 328.845 -2.22863 -3.98975 0
M  V30 3458 C 329.842 -3.20569 -4.09306 0
M  V30 3459 C 327.527 -2.55407 -4.32519 0
M  V30 3460 C 329.521 -4.4891 -4.52503 0
M  V30 3461 C 327.208 -3.83976 -4.754 0
M  V30 3462 C 328.206 -4.8054 -4.85356 0
M  V30 3463 O 327.894 -6.06817 -5.27284 0
M  V30 3464 H 327.626 -0.235866 -0.633516 0
M  V30 3465 H 330.18 -1.2874 -1.60047 0
M  V30 3466 H 328.41 -0.105992 -3.86555 0
M  V30 3467 H 330.099 -0.491604 -4.02912 0
M  V30 3468 H 330.865 -2.96753 -3.83618 0
M  V30 3469 H 326.744 -1.8097 -4.23994 0
M  V30 3470 H 330.288 -5.24283 -4.60188 0
M  V30 3471 H 326.185 -4.07596 -5.00535 0
M  V30 3472 H 326.953 -6.10262 -5.45457 0
M  V30 3473 N 329.616 1.39756 -0.72842 0
M  V30 3474 C 330.863 2.00645 -0.273487 0
M  V30 3475 C 331.191 1.57786 1.13727 0
M  V30 3476 O 330.446 0.794886 1.7883 0
M  V30 3477 C 330.745 3.56002 -0.315776 0
M  V30 3478 C 330.411 4.18489 -1.67863 0
M  V30 3479 C 329.073 4.3527 -2.05166 0
M  V30 3480 C 331.425 4.53219 -2.57375 0
M  V30 3481 C 328.753 4.84069 -3.31503 0
M  V30 3482 C 331.105 5.03423 -3.83077 0
M  V30 3483 C 329.769 5.18413 -4.20481 0
M  V30 3484 H 329.039 0.734211 -0.100076 0
M  V30 3485 H 331.686 1.6718 -0.933972 0
M  V30 3486 H 329.991 3.89452 0.428285 0
M  V30 3487 H 331.688 4.00963 0.0542575 0
M  V30 3488 H 328.278 4.05824 -1.37858 0
M  V30 3489 H 332.462 4.39878 -2.29827 0
M  V30 3490 H 327.718 4.93859 -3.60435 0
M  V30 3491 H 331.892 5.2927 -4.52599 0
M  V30 3492 H 329.519 5.55987 -5.18443 0
M  V30 3493 N 331.094 0.475555 1.50254 0
M  V30 3494 C 332.044 -0.335025 2.25525 0
M  V30 3495 C 333.028 -0.957625 1.29299 0
M  V30 3496 O 334.22 -0.869436 1.54175 0
M  V30 3497 C 331.349 -1.41385 3.12834 0
M  V30 3498 C 330.435 -0.798762 4.1651 0
M  V30 3499 N 330.826 0.0835815 5.05731 0
M  V30 3500 C 329.124 -1.06221 4.33166 0
M  V30 3501 C 329.825 0.433113 5.80085 0
M  V30 3502 N 328.801 -0.1928 5.43258 0
M  V30 3503 H 332.603 0.344612 2.91873 0
M  V30 3504 H 330.117 0.289986 1.5979 0
M  V30 3505 H 332.114 -2.00777 3.65368 0
M  V30 3506 H 330.774 -2.09543 2.48036 0
M  V30 3507 H 331.785 0.452715 5.15918 0
M  V30 3508 H 328.462 -1.73844 3.79585 0
M  V30 3509 H 329.852 1.15346 6.61925 0
M  V30 3510 N 332.573 -1.56217 0.208337 0
M  V30 3511 C 333.798 -2.02782 -0.435222 0
M  V30 3512 C 334.223 -1.08738 -1.53485 0
M  V30 3513 O 333.581 -0.0731855 -1.81152 0
M  V30 3514 C 333.629 -3.47687 -0.956335 0
M  V30 3515 O 332.733 -3.56773 -2.06849 0
M  V30 3516 H 332.074 -0.656403 -0.100158 0
M  V30 3517 H 334.604 -2.02033 0.3231 0
M  V30 3518 H 334.614 -3.87745 -1.26955 0
M  V30 3519 H 333.289 -4.15624 -0.15143 0
M  V30 3520 H 331.866 -3.28597 -1.76292 0
M  V30 3521 N 334.051 0.0651679 -1.57465 0
M  V30 3522 C 335.276 0.779605 -1.9219 0
M  V30 3523 C 335.701 1.69988 -0.805333 0
M  V30 3524 O 335.059 1.79685 0.241435 0
M  V30 3525 C 335.107 1.54364 -3.2589 0
M  V30 3526 O 334.211 2.65474 -3.1559 0
M  V30 3527 H 333.552 0.212249 -0.629163 0
M  V30 3528 H 336.082 0.0314294 -2.04576 0
M  V30 3529 H 336.092 1.92146 -3.59922 0
M  V30 3530 H 334.767 0.868457 -4.06732 0
M  V30 3531 H 333.344 2.30501 -2.93128 0
M  V30 3532 N 335.529 1.53961 0.336706 0
M  V30 3533 C 336.461 1.78751 1.4346 0
M  V30 3534 C 337.474 0.669019 1.48418 0
M  V30 3535 O 338.663 0.945884 1.51378 0
M  V30 3536 C 335.763 1.87844 2.82078 0
M  V30 3537 C 334.936 3.17854 3.00479 0
M  V30 3538 C 333.995 3.17816 4.19379 0
M  V30 3539 O 333.021 3.91511 4.13168 0
M  V30 3540 N 334.223 2.40669 5.2826 0
M  V30 3541 H 336.988 2.73493 1.22563 0
M  V30 3542 H 334.549 1.53096 0.526625 0
M  V30 3543 H 336.541 1.85261 3.59806 0
M  V30 3544 H 335.111 1.00257 2.96086 0
M  V30 3545 H 334.331 3.33504 2.10163 0
M  V30 3546 H 335.619 4.03718 3.0966 0
M  V30 3547 H 335.017 1.8036 5.36178 0
M  V30 3548 H 333.574 2.43877 6.04456 0
M  V30 3549 N 337.007 -0.598083 1.45811 0
M  V30 3550 C 338.237 -1.38121 1.53643 0
M  V30 3551 C 338.645 -1.88425 0.171081 0
M  V30 3552 O 337.988 -1.63409 -0.839237 0
M  V30 3553 C 338.05 -2.61432 2.46766 0
M  V30 3554 C 337.714 -2.32702 3.93318 0
M  V30 3555 C 338.711 -1.92479 4.82957 0
M  V30 3556 C 336.396 -2.45321 4.38318 0
M  V30 3557 C 338.39 -1.65248 6.15607 0
M  V30 3558 C 336.077 -2.17703 5.71007 0
M  V30 3559 C 337.075 -1.7773 6.5947 0
M  V30 3560 O 336.763 -1.50441 7.89698 0
M  V30 3561 H 336.495 -0.428863 0.522544 0
M  V30 3562 H 339.049 -0.73557 1.91777 0
M  V30 3563 H 337.279 -3.28749 2.0362 0
M  V30 3564 H 338.968 -3.23487 2.45175 0
M  V30 3565 H 339.734 -1.82258 4.49452 0
M  V30 3566 H 335.613 -2.75399 3.69697 0
M  V30 3567 H 339.157 -1.33973 6.84614 0
M  V30 3568 H 335.054 -2.27544 6.04065 0
M  V30 3569 H 335.822 -1.64415 8.01817 0
M  V30 3570 N 338.485 -1.33259 -0.841409 0
M  V30 3571 C 339.734 -1.23921 -1.59143 0
M  V30 3572 C 340.047 0.1941 -1.94635 0
M  V30 3573 O 341.253 0.409474 -2.68394 0
M  V30 3574 C 339.709 -2.17119 -2.87032 0
M  V30 3575 C 339.317 -3.65606 -2.58914 0
M  V30 3576 C 341.061 -2.16648 -3.65053 0
M  V30 3577 C 338.968 -4.50726 -3.82884 0
M  V30 3578 H 337.898 -0.460264 -0.597221 0
M  V30 3579 H 340.549 -1.58307 -0.927959 0
M  V30 3580 H 338.931 -1.75663 -3.54906 0
M  V30 3581 H 340.105 -4.15487 -1.99267 0
M  V30 3582 H 338.42 -3.68341 -1.942 0
M  V30 3583 H 341.017 -2.77474 -4.57069 0
M  V30 3584 H 341.36 -1.16088 -3.99787 0
M  V30 3585 H 341.893 -2.56453 -3.041 0
M  V30 3586 H 338.632 -5.52151 -3.53283 0
M  V30 3587 H 338.152 -4.0559 -4.41879 0
M  V30 3588 H 339.831 -4.64401 -4.50489 0
M  V30 3589 N 339.963 1.05934 -1.16686 0
M  V30 3590 C 340.911 2.15603 -0.872817 0
M  V30 3591 C 341.905 1.68647 0.159576 0
M  V30 3592 O 343.111 1.79995 0.0132125 0
M  V30 3593 H 339.486 0.703885 -0.264671 0
M  V30 3594 H 341.457 2.37613 -1.80507 0
M  V30 3595 C 340.206 3.45457 -0.394344 0
M  V30 3596 H 339.529 3.81984 -1.18019 0
M  V30 3597 H 340.969 4.2339 -0.227408 0
M  V30 3598 C 339.428 3.25021 0.88673 0
M  V30 3599 O 339.958 3.50906 1.95519 0
M  V30 3600 N 338.164 2.78437 0.831925 0
M  V30 3601 H 337.711 2.57572 -0.0377619 0
M  V30 3602 H 337.669 2.65144 1.68956 0
M  V30 3603 N 341.441 0.965919 1.2453 0
M  V30 3604 C 342.718 0.543777 1.87889 0
M  V30 3605 C 343.098 -0.97909 1.87021 0
M  V30 3606 O 342.446 -1.84969 1.3416 0
M  V30 3607 C 342.656 1.13327 3.30088 0
M  V30 3608 C 344.004 1.21707 4.06783 0
M  V30 3609 O 345.028 1.08566 3.39252 0
M  V30 3610 O 343.887 1.42456 5.27606 0
M  V30 3611 H 340.981 0.181054 0.806938 0
M  V30 3612 H 343.527 1.06007 1.32516 0
M  V30 3613 H 342.299 2.17612 3.25209 0
M  V30 3614 H 341.922 0.600911 3.93033 0
M  V30 3615 N 342.919 -1.39368 0.735821 0
M  V30 3616 C 343.849 -2.33234 0.111506 0
M  V30 3617 C 344.83 -1.53954 -0.723334 0
M  V30 3618 O 346.015 -1.82344 -0.668147 0
M  V30 3619 C 343.145 -3.38057 -0.795917 0
M  V30 3620 C 342.099 -4.2795 -0.065172 0
M  V30 3621 C 341.425 -5.23479 -1.08967 0
M  V30 3622 C 342.725 -5.10741 1.09273 0
M  V30 3623 H 344.419 -2.85692 0.895571 0
M  V30 3624 H 341.965 -1.37364 0.432109 0
M  V30 3625 H 343.918 -4.02675 -1.24221 0
M  V30 3626 H 342.642 -2.8404 -1.61211 0
M  V30 3627 H 341.301 -3.64813 0.361511 0
M  V30 3628 H 340.949 -4.65758 -1.89944 0
M  V30 3629 H 340.649 -5.84472 -0.605489 0
M  V30 3630 H 342.173 -5.90974 -1.53565 0
M  V30 3631 H 343.587 -5.68699 0.724841 0
M  V30 3632 H 341.984 -5.8088 1.50659 0
M  V30 3633 H 343.054 -4.45525 1.91404 0
M  V30 3634 N 344.397 -0.483516 -1.5 0
M  V30 3635 C 345.36 0.292965 -2.2732 0
M  V30 3636 C 346.36 0.909499 -1.32608 0
M  V30 3637 O 347.55 0.776745 -1.55924 0
M  V30 3638 C 344.682 1.41854 -3.09984 0
M  V30 3639 H 345.875 -0.385289 -2.97415 0
M  V30 3640 H 343.428 -0.237942 -1.54478 0
M  V30 3641 H 344.163 2.13148 -2.44414 0
M  V30 3642 H 343.948 0.982114 -3.79601 0
M  V30 3643 H 345.438 1.96597 -3.68429 0
M  V30 3644 N 345.875 1.56104 -0.216619 0
M  V30 3645 C 346.823 2.21434 0.712036 0
M  V30 3646 C 347.817 1.19218 1.20348 0
M  V30 3647 O 349.023 1.3731 1.16387 0
M  V30 3648 H 345.398 0.70992 0.248026 0
M  V30 3649 H 347.369 2.98083 0.137558 0
M  V30 3650 C 346.118 2.90434 1.91163 0
M  V30 3651 H 345.441 3.68842 1.54258 0
M  V30 3652 H 346.881 3.39552 2.5393 0
M  V30 3653 C 345.34 1.92635 2.76394 0
M  V30 3654 O 345.87 1.44017 3.74996 0
M  V30 3655 N 344.076 1.60392 2.42328 0
M  V30 3656 H 343.623 2.00122 1.622 0
M  V30 3657 H 343.581 0.952159 2.99635 0
M  V30 3658 N 347.353 -0.0568162 1.57498 0
M  V30 3659 C 348.601 -0.751617 1.87604 0
M  V30 3660 C 348.922 -1.77351 0.81066 0
M  V30 3661 O 348.192 -1.95254 -0.159018 0
M  V30 3662 H 346.772 -0.280583 0.692302 0
M  V30 3663 H 349.434 -0.0293483 1.94878 0
M  V30 3664 H 348.53 -1.25852 2.856 0
M  V30 3665 N 348.832 -1.54138 -0.328536 0
M  V30 3666 C 350.109 -1.62749 -1.08499 0
M  V30 3667 C 350.489 -0.458198 -2.06067 0
M  V30 3668 O 349.837 0.548046 -2.2183 0
M  V30 3669 C 350.047 -2.99519 -1.79135 0
M  V30 3670 C 351.395 -3.55394 -2.32337 0
M  V30 3671 O 352.419 -3.01792 -1.89209 0
M  V30 3672 O 351.278 -4.49186 -3.11279 0
M  V30 3673 H 348.372 -0.65886 -0.499832 0
M  V30 3674 H 350.918 -1.66484 -0.328826 0
M  V30 3675 H 349.69 -3.76061 -1.08139 0
M  V30 3676 H 349.313 -2.99441 -2.61574 0
M  V30 3677 N 350.31 0.590341 -1.46126 0
M  V30 3678 C 351.559 1.34499 -1.50309 0
M  V30 3679 C 351.872 1.94977 -0.156021 0
M  V30 3680 O 353.078 2.71395 -0.0756037 0
M  V30 3681 C 351.534 2.43723 -2.64815 0
M  V30 3682 C 351.142 1.89582 -4.0591 0
M  V30 3683 C 352.886 3.20579 -2.78262 0
M  V30 3684 C 350.793 2.9639 -5.11769 0
M  V30 3685 H 349.723 0.505593 -0.559368 0
M  V30 3686 H 352.374 0.630848 -1.72315 0
M  V30 3687 H 350.756 3.17902 -2.36124 0
M  V30 3688 H 351.93 1.21997 -4.44357 0
M  V30 3689 H 350.245 1.25418 -3.97063 0
M  V30 3690 H 352.842 4.00276 -3.54519 0
M  V30 3691 H 353.185 3.72684 -1.85505 0
M  V30 3692 H 353.718 2.53505 -3.06562 0
M  V30 3693 H 350.457 2.49181 -6.06291 0
M  V30 3694 H 349.977 3.62487 -4.77873 0
M  V30 3695 H 351.656 3.60474 -5.37278 0
M  V30 3696 N 351.788 1.33704 0.83433 0
M  V30 3697 C 353.028 1.26754 1.60352 0
M  V30 3698 C 353.392 -0.163182 1.91305 0
M  V30 3699 O 354.593 -0.3567 2.66423 0
M  V30 3700 C 352.864 2.12262 2.8754 0
M  V30 3701 S 354.423 2.22549 3.78176 0
M  V30 3702 H 351.241 0.450879 0.549753 0
M  V30 3703 H 353.843 1.68788 0.986444 0
M  V30 3704 H 352.547 3.15238 2.62779 0
M  V30 3705 H 352.078 1.71082 3.54252 0
M  V30 3706 H 354.093 1.3899 4.76336 0
M  V30 3707 N 353.266 -1.05314 1.17247 0
M  V30 3708 C 354.512 -1.78557 0.961513 0
M  V30 3709 C 354.845 -1.87419 -0.508697 0
M  V30 3710 O 354.12 -1.37307 -1.37757 0
M  V30 3711 C 354.403 -3.22514 1.60176 0
M  V30 3712 C 354.256 -3.21673 3.14399 0
M  V30 3713 C 355.575 -4.20318 1.30463 0
M  V30 3714 H 352.694 -0.6482 0.350723 0
M  V30 3715 H 355.336 -1.23102 1.44727 0
M  V30 3716 H 353.486 -3.69867 1.18871 0
M  V30 3717 H 355.158 -2.82405 3.64753 0
M  V30 3718 H 353.401 -2.60048 3.47214 0
M  V30 3719 H 354.072 -4.23271 3.54324 0
M  V30 3720 H 356.548 -3.81454 1.66229 0
M  V30 3721 H 355.424 -5.19289 1.77848 0
M  V30 3722 H 355.685 -4.41526 0.22521 0
M  V30 3723 N 354.744 -0.972509 -1.24016 0
M  V30 3724 C 355.707 -0.511403 -2.23422 0
M  V30 3725 C 356.707 0.394679 -1.55881 0
M  V30 3726 O 357.897 0.189469 -1.73167 0
M  V30 3727 C 355.029 0.258769 -3.39916 0
M  V30 3728 H 356.222 -1.39024 -2.6573 0
M  V30 3729 H 353.775 -0.757585 -1.36713 0
M  V30 3730 H 354.51 1.1545 -3.03054 0
M  V30 3731 H 354.295 -0.391522 -3.9014 0
M  V30 3732 H 355.785 0.570244 -4.13688 0
M  V30 3733 N 356.222 1.38976 -0.743202 0
M  V30 3734 C 357.471 1.99581 -0.291592 0
M  V30 3735 C 357.784 1.59656 1.13001 0
M  V30 3736 O 358.99 2.13157 1.68156 0
M  V30 3737 C 357.446 3.56813 -0.470391 0
M  V30 3738 C 357.054 4.05695 -1.90041 0
M  V30 3739 C 358.798 4.24423 -0.0809709 0
M  V30 3740 C 356.705 5.5553 -2.02832 0
M  V30 3741 H 355.635 0.746615 -0.105272 0
M  V30 3742 H 358.286 1.58872 -0.918258 0
M  V30 3743 H 356.668 3.95359 0.225299 0
M  V30 3744 H 357.842 3.78464 -2.62872 0
M  V30 3745 H 356.157 3.50775 -2.24379 0
M  V30 3746 H 358.754 5.34474 -0.155445 0
M  V30 3747 H 359.097 4.04962 0.96497 0
M  V30 3748 H 359.63 3.9108 -0.728124 0
M  V30 3749 H 356.369 5.79881 -3.05643 0
M  V30 3750 H 355.889 5.84537 -1.34448 0
M  V30 3751 H 357.568 6.21069 -1.81335 0
M  V30 3752 N 357.7 0.491464 1.49741 0
M  V30 3753 C 358.948 -0.0563141 2.02022 0
M  V30 3754 C 359.269 -1.38363 1.37407 0
M  V30 3755 O 358.539 -1.88702 0.526166 0
M  V30 3756 H 357.119 -0.0238014 0.746621 0
M  V30 3757 H 359.781 0.646533 1.83864 0
M  V30 3758 H 358.877 -0.192967 3.11503 0
M  V30 3759 N 359.178 -1.55987 0.224894 0
M  V30 3760 C 360.424 -1.99433 -0.39973 0
M  V30 3761 C 360.779 -1.11004 -1.57149 0
M  V30 3762 O 360.072 -0.160725 -1.90925 0
M  V30 3763 C 360.266 -3.46394 -0.880106 0
M  V30 3764 C 360.095 -4.4904 0.243565 0
M  V30 3765 C 358.865 -5.00272 0.711056 0
M  V30 3766 C 361.063 -5.03195 1.06299 0
M  V30 3767 N 359.045 -5.86628 1.80944 0
M  V30 3768 C 360.416 -5.86508 2.01017 0
M  V30 3769 C 362.471 -4.8555 1.10205 0
M  V30 3770 C 361.174 -6.54062 2.99324 0
M  V30 3771 C 363.2 -5.53866 2.07332 0
M  V30 3772 C 362.562 -6.3695 3.00789 0
M  V30 3773 H 358.661 -0.773815 -0.112847 0
M  V30 3774 H 361.245 -1.91754 0.337432 0
M  V30 3775 H 359.416 -3.54515 -1.58662 0
M  V30 3776 H 361.148 -3.76752 -1.47783 0
M  V30 3777 H 357.903 -4.72655 0.29906 0
M  V30 3778 H 358.327 -6.34507 2.36073 0
M  V30 3779 H 362.969 -4.20966 0.39343 0
M  V30 3780 H 360.687 -7.17827 3.71147 0
M  V30 3781 H 364.273 -5.42178 2.11032 0
M  V30 3782 H 363.153 -6.8888 3.74718 0
M  V30 3783 N 360.656 0.0484629 -1.57525 0
M  V30 3784 C 361.619 1.03956 -2.04269 0
M  V30 3785 C 362.619 1.30211 -0.943496 0
M  V30 3786 O 363.809 1.25539 -1.20771 0
M  V30 3787 C 360.941 2.37742 -2.44319 0
M  V30 3788 H 362.134 0.636182 -2.93075 0
M  V30 3789 H 359.687 0.294811 -1.53494 0
M  V30 3790 H 360.422 2.82866 -1.5861 0
M  V30 3791 H 360.207 2.20021 -3.24551 0
M  V30 3792 H 361.697 3.08936 -2.80978 0
M  V30 3793 N 362.134 1.5431 0.320358 0
M  V30 3794 C 363.382 1.72327 1.05583 0
M  V30 3795 C 363.703 0.50149 1.88441 0
M  V30 3796 O 362.973 -0.48448 1.89815 0
M  V30 3797 H 361.553 0.635387 0.3928 0
M  V30 3798 H 364.215 1.91621 0.356019 0
M  V30 3799 H 363.311 2.60426 1.72003 0
M  V30 3800 N 363.613 -0.582584 1.46437 0
M  V30 3801 C 364.89 -1.34276 1.4223 0
M  V30 3802 C 365.27 -2.10835 0.10583 0
M  V30 3803 O 364.618 -2.09485 -0.912596 0
M  V30 3804 C 364.828 -2.26865 2.65204 0
M  V30 3805 C 366.176 -2.88691 3.11356 0
M  V30 3806 O 367.2 -2.37178 2.65753 0
M  V30 3807 O 366.059 -3.82255 3.90568 0
M  V30 3808 H 363.153 -0.603326 0.565621 0
M  V30 3809 H 365.699 -0.603591 1.58603 0
M  V30 3810 H 364.471 -1.69724 3.52576 0
M  V30 3811 H 364.094 -3.08122 2.5129 0
M  V30 3812 N 365.091 -1.34144 -0.827227 0
M  V30 3813 C 366.337 -1.26446 -1.58554 0
M  V30 3814 C 366.67 0.1664 -1.93486 0
M  V30 3815 O 365.945 1.1107 -1.59667 0
M  V30 3816 C 366.228 -2.15111 -2.8879 0
M  V30 3817 C 366.081 -3.66712 -2.60465 0
M  V30 3818 C 367.4 -2.03311 -3.90324 0
M  V30 3819 H 364.519 -0.46067 -0.575284 0
M  V30 3820 H 367.161 -1.64356 -0.953269 0
M  V30 3821 H 365.311 -1.8291 -3.42748 0
M  V30 3822 H 366.983 -4.09259 -2.1285 0
M  V30 3823 H 365.226 -3.88014 -1.93978 0
M  V30 3824 H 365.897 -4.24112 -3.53317 0
M  V30 3825 H 368.373 -2.31574 -3.45706 0
M  V30 3826 H 367.249 -2.67582 -4.79261 0
M  V30 3827 H 367.51 -1.00879 -4.30437 0
M  V30 3828 N 366.569 1.04691 -1.17803 0
M  V30 3829 C 367.815 1.78181 -0.980977 0
M  V30 3830 C 368.17 1.86191 0.484825 0
M  V30 3831 O 367.463 1.35436 1.35527 0
M  V30 3832 C 367.657 3.21467 -1.56186 0
M  V30 3833 C 367.486 3.27422 -3.08261 0
M  V30 3834 C 366.256 3.36415 -3.77032 0
M  V30 3835 C 368.454 3.15947 -4.0581 0
M  V30 3836 N 366.436 3.31554 -5.16667 0
M  V30 3837 C 367.807 3.18514 -5.31929 0
M  V30 3838 C 369.862 2.99945 -3.97413 0
M  V30 3839 C 368.565 3.06723 -6.50625 0
M  V30 3840 C 370.591 2.89497 -5.15699 0
M  V30 3841 C 369.953 2.92702 -6.40706 0
M  V30 3842 H 366.052 0.6641 -0.412911 0
M  V30 3843 H 368.636 1.24762 -1.49474 0
M  V30 3844 H 366.807 3.73245 -1.07436 0
M  V30 3845 H 368.539 3.8322 -1.30093 0
M  V30 3846 H 365.294 3.41887 -3.27735 0
M  V30 3847 H 365.718 3.3258 -5.89678 0
M  V30 3848 H 370.36 2.96302 -3.01604 0
M  V30 3849 H 368.078 3.0912 -7.46639 0
M  V30 3850 H 371.664 2.78179 -5.10987 0
M  V30 3851 H 370.544 2.84697 -7.30696 0
M  V30 3852 N 368.047 0.979072 1.23499 0
M  V30 3853 C 368.979 0.476271 2.24197 0
M  V30 3854 C 369.992 -0.421166 1.57258 0
M  V30 3855 O 371.181 -0.225515 1.7707 0
M  V30 3856 C 368.281 -0.330503 3.37285 0
M  V30 3857 C 367.454 0.559744 4.33804 0
M  V30 3858 C 366.513 -0.192954 5.25846 0
M  V30 3859 O 365.539 0.416978 5.67671 0
M  V30 3860 N 366.741 -1.47932 5.61334 0
M  V30 3861 H 369.506 1.34211 2.67969 0
M  V30 3862 H 367.067 0.852189 1.37657 0
M  V30 3863 H 369.059 -0.842361 3.95836 0
M  V30 3864 H 367.629 -1.09734 2.92707 0
M  V30 3865 H 366.849 1.25245 3.73775 0
M  V30 3866 H 368.137 1.1665 4.95248 0
M  V30 3867 H 367.535 -1.9964 5.29302 0
M  V30 3868 H 366.092 -1.93664 6.22364 0
M  V30 3869 N 369.525 -1.3858 0.750561 0
M  V30 3870 C 370.488 -2.28836 0.129152 0
M  V30 3871 C 371.488 -1.47045 -0.650714 0
M  V30 3872 O 372.678 -1.6753 -0.477428 0
M  V30 3873 C 369.81 -3.30751 -0.825622 0
M  V30 3874 H 371.003 -2.85294 0.924516 0
M  V30 3875 H 368.556 -1.47489 0.517376 0
M  V30 3876 H 369.291 -2.79378 -1.64677 0
M  V30 3877 H 369.076 -3.91177 -0.268852 0
M  V30 3878 H 370.566 -3.98249 -1.2565 0
M  V30 3879 N 371.003 -0.499398 -1.49478 0
M  V30 3880 C 372.228 0.044722 -2.07352 0
M  V30 3881 C 372.653 1.30207 -1.35749 0
M  V30 3882 O 372.011 1.76516 -0.413732 0
M  V30 3883 C 372.059 0.283013 -3.59488 0
M  V30 3884 O 371.163 1.35804 -3.89398 0
M  V30 3885 H 370.504 -0.0255147 -0.66351 0
M  V30 3886 H 373.034 -0.698561 -1.92305 0
M  V30 3887 H 373.044 0.515007 -4.04737 0
M  V30 3888 H 371.719 -0.635636 -4.11014 0
M  V30 3889 H 370.296 1.11113 -3.55961 0
M  V30 3890 N 372.481 1.55866 -0.233164 0
M  V30 3891 C 373.429 2.22176 0.68851 0
M  V30 3892 C 374.423 1.20487 1.19076 0
M  V30 3893 O 375.629 1.38536 1.14925 0
M  V30 3894 H 372.004 0.712511 0.240483 0
M  V30 3895 H 373.975 2.98212 0.105935 0
M  V30 3896 C 372.724 2.92446 1.88071 0
M  V30 3897 H 372.047 3.70458 1.50337 0
M  V30 3898 H 373.487 3.42226 2.50314 0
M  V30 3899 C 371.946 1.95555 2.74335 0
M  V30 3900 O 372.476 1.47986 3.73447 0
M  V30 3901 N 370.682 1.62953 2.40613 0
M  V30 3902 H 370.229 2.01831 1.60069 0
M  V30 3903 H 370.187 0.983886 2.98609 0
M  V30 3904 N 373.959 -0.0401083 1.57549 0
M  V30 3905 C 375.375 -0.395556 1.54621 0
M  V30 3906 C 375.575 -1.77281 0.957799 0
M  V30 3907 O 374.631 -2.45888 0.574031 0
M  V30 3908 C 375.944 -0.307535 2.99123 0
M  V30 3909 C 377.492 -0.385425 3.10618 0
M  V30 3910 C 377.967 -0.326973 4.56831 0
M  V30 3911 N 379.458 -0.386102 4.61588 0
M  V30 3912 C 380.193 -0.363591 5.72246 0
M  V30 3913 N 379.689 -0.29402 6.92176 0
M  V30 3914 N 381.482 -0.412503 5.60584 0
M  V30 3915 H 373.633 0.861325 1.94152 0
M  V30 3916 H 375.896 0.326445 0.890021 0
M  V30 3917 H 375.602 0.638461 3.45856 0
M  V30 3918 H 375.476 -1.10552 3.60636 0
M  V30 3919 H 377.863 -1.32185 2.63839 0
M  V30 3920 H 377.944 0.44171 2.51957 0
M  V30 3921 H 377.588 0.605738 5.04275 0
M  V30 3922 H 377.518 -1.17207 5.13391 0
M  V30 3923 H 380.009 -0.442832 3.75296 0
M  V30 3924 H 380.322 -0.28164 7.72287 0
M  V30 3925 H 378.667 -0.260232 6.94513 0
M  V30 3926 H 381.858 -0.464769 4.65787 0
M  V30 3927 H 382.031 -0.391492 6.46816 0
M  V30 3928 N 375.437 -1.54477 -0.31217 0
M  V30 3929 C 376.4 -1.83923 -1.36766 0
M  V30 3930 C 377.4 -0.711563 -1.44199 0
M  V30 3931 O 378.59 -0.979866 -1.44029 0
M  V30 3932 C 375.722 -2.0095 -2.75376 0
M  V30 3933 H 376.915 -2.78239 -1.11906 0
M  V30 3934 H 374.468 -1.46369 -0.548257 0
M  V30 3935 H 375.203 -1.08883 -3.05475 0
M  V30 3936 H 374.988 -2.83018 -2.71373 0
M  V30 3937 H 376.478 -2.2514 -3.51713 0
M  V30 3938 N 376.915 0.57481 -1.46744 0
M  V30 3939 C 377.862 1.68329 -1.57905 0
M  V30 3940 C 378.832 1.60625 -0.422927 0
M  V30 3941 O 380.017 1.79721 -0.640711 0
M  V30 3942 C 377.157 3.06665 -1.58274 0
M  V30 3943 C 376.27 3.24935 -2.84678 0
M  V30 3944 C 375.405 4.53566 -2.76499 0
M  V30 3945 C 374.444 4.65207 -3.97806 0
M  V30 3946 N 373.581 5.85172 -3.87967 0
M  V30 3947 H 378.421 1.58127 -2.52587 0
M  V30 3948 H 375.958 0.770552 -1.25303 0
M  V30 3949 H 377.916 3.86745 -1.56473 0
M  V30 3950 H 376.546 3.15745 -0.671194 0
M  V30 3951 H 375.598 2.38405 -2.96424 0
M  V30 3952 H 376.91 3.29403 -3.7456 0
M  V30 3953 H 376.064 5.41885 -2.72848 0
M  V30 3954 H 374.803 4.51548 -1.8427 0
M  V30 3955 H 373.808 3.75304 -4.0178 0
M  V30 3956 H 375.033 4.68997 -4.9114 0
M  V30 3957 H 372.979 5.84137 -2.98529 0
M  V30 3958 H 372.896 5.90943 -4.71511 0
M  V30 3959 H 374.164 6.759 -3.88303 0
M  V30 3960 N 378.394 1.34581 0.820102 0
M  V30 3961 C 379.304 1.28471 1.96297 0
M  V30 3962 C 380.32 0.191902 1.72939 0
M  V30 3963 O 381.496 0.418879 1.96996 0
M  V30 3964 C 378.561 1.04281 3.30645 0
M  V30 3965 C 377.622 2.22745 3.66992 0
M  V30 3966 C 376.855 1.997 4.9493 0
M  V30 3967 O 377.078 0.956656 5.6232 0
M  V30 3968 O 376.012 2.86723 5.2922 0
M  V30 3969 H 379.838 2.24624 2.04396 0
M  V30 3970 H 377.423 1.14816 0.955913 0
M  V30 3971 H 379.305 0.925841 4.11104 0
M  V30 3972 H 377.98 0.111697 3.23507 0
M  V30 3973 H 376.887 2.40003 2.86966 0
M  V30 3974 H 378.22 3.14257 3.78819 0
M  V30 3975 N 379.872 -1.04064 1.18357 0
M  V30 3976 C 380.835 -2.10243 0.912707 0
M  V30 3977 C 381.835 -1.60477 -0.101928 0
M  V30 3978 O 383.025 -1.73703 0.131517 0
M  V30 3979 C 380.157 -3.38893 0.369387 0
M  V30 3980 H 381.35 -2.35706 1.85426 0
M  V30 3981 H 378.903 -1.20489 0.995594 0
M  V30 3982 H 379.638 -3.19094 -0.578776 0
M  V30 3983 H 379.423 -3.76331 1.1008 0
M  V30 3984 H 380.913 -4.17128 0.198575 0
M  V30 3985 N 381.35 -0.985608 -1.22978 0
M  V30 3986 C 382.297 -0.529825 -2.24636 0
M  V30 3987 C 383.267 0.434028 -1.60329 0
M  V30 3988 O 384.452 0.340414 -1.87739 0
M  V30 3989 C 381.592 0.156533 -3.44745 0
M  V30 3990 C 380.705 -0.848197 -4.23591 0
M  V30 3991 C 379.84 -0.136109 -5.31026 0
M  V30 3992 C 378.879 -1.1297 -6.01585 0
M  V30 3993 N 378.016 -0.446415 -7.00679 0
M  V30 3994 H 382.856 -1.40148 -2.62988 0
M  V30 3995 H 380.393 -0.702168 -1.29259 0
M  V30 3996 H 382.351 0.571324 -4.1327 0
M  V30 3997 H 380.981 0.992025 -3.07179 0
M  V30 3998 H 380.033 -1.38135 -3.54433 0
M  V30 3999 H 381.345 -1.60512 -4.72268 0
M  V30 4000 H 380.499 0.335784 -6.0577 0
M  V30 4001 H 379.238 0.653373 -4.83304 0
M  V30 4002 H 378.243 -1.6123 -5.25628 0
M  V30 4003 H 379.468 -1.91993 -6.51395 0
M  V30 4004 H 377.414 0.323763 -6.55201 0
M  V30 4005 H 377.331 -1.1419 -7.47326 0
M  V30 4006 H 378.599 0.00291697 -7.795 0
M  V30 4007 N 382.828 1.3818 -0.7579 0
M  V30 4008 C 383.776 2.32277 -0.122482 0
M  V30 4009 C 384.77 1.54238 0.700505 0
M  V30 4010 O 385.976 1.69737 0.599119 0
M  V30 4011 H 382.351 0.751712 -0.0208143 0
M  V30 4012 H 384.322 2.83469 -0.932099 0
M  V30 4013 C 383.071 3.39447 0.753076 0
M  V30 4014 H 382.394 3.99591 0.129184 0
M  V30 4015 H 383.834 4.07684 1.16489 0
M  V30 4016 C 382.293 2.78375 1.8976 0
M  V30 4017 O 382.823 2.68025 2.99208 0
M  V30 4018 N 381.029 2.36121 1.69397 0
M  V30 4019 H 380.576 2.4474 0.803762 0
M  V30 4020 H 380.534 1.95602 2.46145 0
M  V30 4021 N 384.306 0.507319 1.49211 0
M  V30 4022 C 385.554 -0.0348839 2.0207 0
M  V30 4023 C 385.875 -1.36898 1.38866 0
M  V30 4024 O 385.145 -1.88133 0.546151 0
M  V30 4025 H 383.725 -0.0158812 0.746831 0
M  V30 4026 H 386.387 0.665998 1.83168 0
M  V30 4027 H 385.483 -0.159917 3.1169 0
M  V30 4028 N 385.784 -1.5574 0.241426 0
M  V30 4029 C 387.03 -1.99104 -0.385406 0
M  V30 4030 C 387.363 -1.1293 -1.57988 0
M  V30 4031 O 386.638 -0.191449 -1.93555 0
M  V30 4032 C 386.921 -3.51087 -0.800616 0
M  V30 4033 C 386.774 -4.48028 0.398874 0
M  V30 4034 C 388.093 -4.08015 -1.64959 0
M  V30 4035 H 385.212 -0.723848 -0.138614 0
M  V30 4036 H 387.854 -1.86903 0.341642 0
M  V30 4037 H 386.004 -3.61615 -1.4201 0
M  V30 4038 H 387.676 -4.49487 1.03726 0
M  V30 4039 H 385.919 -4.21077 1.04293 0
M  V30 4040 H 386.59 -5.51962 0.0651056 0
M  V30 4041 H 389.066 -4.00555 -1.12672 0
M  V30 4042 H 387.942 -5.14635 -1.90898 0
M  V30 4043 H 388.203 -3.56131 -2.61961 0
M  V30 4044 N 387.262 0.0317525 -1.57568 0
M  V30 4045 C 388.21 1.05165 -2.07468 0
M  V30 4046 C 389.204 1.3761 -0.98792 0
M  V30 4047 O 390.41 1.36546 -1.17282 0
M  V30 4048 H 386.785 0.35666 -0.66204 0
M  V30 4049 H 388.756 0.604958 -2.92203 0
M  V30 4050 C 387.505 2.34488 -2.56731 0
M  V30 4051 H 386.828 2.10383 -3.39969 0
M  V30 4052 H 388.268 3.04203 -2.95358 0
M  V30 4053 C 386.727 3.03266 -1.46736 0
M  V30 4054 O 387.257 3.92988 -0.832069 0
M  V30 4055 N 385.463 2.6455 -1.20256 0
M  V30 4056 H 385.01 1.91674 -1.72102 0
M  V30 4057 H 384.968 3.10886 -0.468737 0
M  V30 4058 N 388.74 1.54641 0.303973 0
M  V30 4059 C 389.986 1.74038 1.04109 0
M  V30 4060 C 390.319 0.523051 1.87024 0
M  V30 4061 O 389.594 -0.479874 1.88487 0
M  V30 4062 C 389.877 3.02761 1.94955 0
M  V30 4063 C 389.73 4.34787 1.1524 0
M  V30 4064 C 391.049 3.27336 2.94175 0
M  V30 4065 H 388.168 0.63323 0.377079 0
M  V30 4066 H 390.81 1.87354 0.316001 0
M  V30 4067 H 388.96 2.9154 2.56782 0
M  V30 4068 H 390.632 4.57922 0.557236 0
M  V30 4069 H 388.875 4.31407 0.455053 0
M  V30 4070 H 389.546 5.21116 1.8205 0
M  V30 4071 H 392.022 3.38148 2.42477 0
M  V30 4072 H 390.898 4.18726 3.54908 0
M  V30 4073 H 391.159 2.45491 3.67677 0
M  V30 4074 N 390.218 -0.567019 1.47046 0
M  V30 4075 C 391.443 -1.3551 1.57009 0
M  V30 4076 C 391.868 -1.86841 0.217259 0
M  V30 4077 O 391.226 -1.62435 -0.805268 0
M  V30 4078 C 391.274 -2.50777 2.5912 0
M  V30 4079 O 390.378 -3.52706 2.13711 0
M  V30 4080 H 389.719 -0.402919 0.52778 0
M  V30 4081 H 392.249 -0.686241 1.92748 0
M  V30 4082 H 392.259 -2.97481 2.79229 0
M  V30 4083 H 390.934 -2.12771 3.57353 0
M  V30 4084 H 389.511 -3.12374 2.03659 0
M  V30 4085 N 391.696 -1.35014 -0.812953 0
M  V30 4086 C 392.943 -1.27931 -1.56971 0
M  V30 4087 C 393.271 0.148034 -1.93936 0
M  V30 4088 O 392.526 1.11175 -1.61054 0
M  V30 4089 C 392.825 -2.12524 -2.87347 0
M  V30 4090 C 392.491 -3.61401 -2.6963 0
M  V30 4091 C 391.153 -4.01983 -2.64506 0
M  V30 4092 C 393.505 -4.55894 -2.52607 0
M  V30 4093 C 390.833 -5.35235 -2.40293 0
M  V30 4094 C 393.185 -5.89336 -2.29925 0
M  V30 4095 C 391.849 -6.2907 -2.23219 0
M  V30 4096 H 391.119 -0.468131 -0.574399 0
M  V30 4097 H 393.766 -1.66851 -0.939836 0
M  V30 4098 H 392.071 -1.66463 -3.54679 0
M  V30 4099 H 393.768 -2.04383 -3.45005 0
M  V30 4100 H 390.358 -3.29193 -2.74463 0
M  V30 4101 H 394.542 -4.25431 -2.55583 0
M  V30 4102 H 389.798 -5.65028 -2.33566 0
M  V30 4103 H 393.972 -6.62139 -2.15743 0
M  V30 4104 H 391.599 -7.32256 -2.04219 0
M  V30 4105 N 393.175 1.03435 -1.18907 0
M  V30 4106 C 394.4 1.80919 -1.01406 0
M  V30 4107 C 394.825 1.83055 0.432721 0
M  V30 4108 O 394.183 1.25252 1.31079 0
M  V30 4109 C 394.231 3.24091 -1.58105 0
M  V30 4110 O 393.335 4.04434 -0.806669 0
M  V30 4111 H 392.676 0.558709 -0.358803 0
M  V30 4112 H 395.206 1.30223 -1.57807 0
M  V30 4113 H 395.216 3.74853 -1.61087 0
M  V30 4114 H 393.891 3.21851 -2.6341 0
M  V30 4115 H 392.468 3.63091 -0.849666 0
M  V30 4116 N 394.653 0.992116 1.22453 0
M  V30 4117 C 395.902 0.662992 1.90492 0
M  V30 4118 C 396.215 -0.808407 1.78113 0
M  V30 4119 O 397.421 -1.24908 2.41061 0
M  V30 4120 C 395.877 1.1353 3.41524 0
M  V30 4121 C 395.485 2.63187 3.62542 0
M  V30 4122 C 397.229 0.880465 4.15269 0
M  V30 4123 C 395.136 3.04024 5.0727 0
M  V30 4124 H 394.066 0.244278 0.713333 0
M  V30 4125 H 396.717 1.20157 1.38688 0
M  V30 4126 H 395.099 0.52485 3.92506 0
M  V30 4127 H 396.273 3.2957 3.22056 0
M  V30 4128 H 394.588 2.86543 3.02129 0
M  V30 4129 H 397.185 1.16128 5.21937 0
M  V30 4130 H 397.528 -0.183408 4.15896 0
M  V30 4131 H 398.061 1.45307 3.70312 0
M  V30 4132 H 394.8 4.09584 5.11782 0
M  V30 4133 H 394.32 2.42343 5.48662 0
M  V30 4134 H 395.999 2.95282 5.75689 0
M  V30 4135 N 396.131 -1.37776 0.765217 0
M  V30 4136 C 397.542 -1.82521 0.392819 0
M  V30 4137 C 397.893 -1.63789 -1.08017 0
M  V30 4138 O 397.018 -1.14542 -1.83601 0
M  V30 4139 C 397.613 -3.31358 0.706214 0
M  V30 4140 C 396.172 -3.74406 0.386952 0
M  V30 4141 C 395.319 -2.60394 0.953422 0
M  V30 4142 H 398.27 -1.2634 0.960412 0
M  V30 4143 H 398.291 -3.80498 -0.0114706 0
M  V30 4144 H 397.803 -3.44959 1.77833 0
M  V30 4145 H 395.904 -3.66377 -0.678112 0
M  V30 4146 H 396.017 -4.70749 0.890636 0
M  V30 4147 H 394.381 -2.51878 0.378064 0
M  V30 4148 H 395.164 -2.76791 2.03081 0
M  V30 4149 N 397.609 -0.515225 -1.4894 0
M  V30 4150 C 398.556 0.255567 -2.29381 0
M  V30 4151 C 399.526 0.947387 -1.36432 0
M  V30 4152 O 400.711 0.951288 -1.65394 0
M  V30 4153 C 397.851 1.30551 -3.19453 0
M  V30 4154 C 396.964 0.624029 -4.27469 0
M  V30 4155 C 396.099 1.65563 -5.0474 0
M  V30 4156 C 395.138 0.956802 -6.04576 0
M  V30 4157 N 394.275 1.93326 -6.74959 0
M  V30 4158 H 399.115 -0.436607 -2.94784 0
M  V30 4159 H 396.652 -0.227154 -1.45336 0
M  V30 4160 H 398.61 1.92639 -3.70062 0
M  V30 4161 H 397.24 1.96626 -2.56004 0
M  V30 4162 H 396.292 -0.110459 -3.8024 0
M  V30 4163 H 397.604 0.0746092 -4.98744 0
M  V30 4164 H 396.758 2.35119 -5.59289 0
M  V30 4165 H 395.497 2.23893 -4.3327 0
M  V30 4166 H 394.502 0.247097 -5.49244 0
M  V30 4167 H 395.727 0.379814 -6.78037 0
M  V30 4168 H 393.673 2.50591 -6.06251 0
M  V30 4169 H 393.59 1.43489 -7.42258 0
M  V30 4170 H 394.858 2.62126 -7.34105 0
M  V30 4171 N 399.087 1.5561 -0.249682 0
M  V30 4172 C 399.997 2.25143 0.659375 0
M  V30 4173 C 401.013 1.2685 1.19101 0
M  V30 4174 O 402.189 1.59732 1.22669 0
M  V30 4175 C 399.254 2.93945 1.8384 0
M  V30 4176 C 398.315 4.07655 1.34596 0
M  V30 4177 C 397.548 4.73167 2.46878 0
M  V30 4178 O 397.771 4.37768 3.65671 0
M  V30 4179 O 396.705 5.61623 2.16478 0
M  V30 4180 H 400.531 3.03545 0.0968698 0
M  V30 4181 H 398.116 1.49389 -0.018074 0
M  V30 4182 H 399.998 3.37271 2.52638 0
M  V30 4183 H 398.673 2.18481 2.38847 0
M  V30 4184 H 397.58 3.68839 0.625174 0
M  V30 4185 H 398.913 4.84946 0.841941 0
M  V30 4186 N 400.565 -0.0233959 1.57583 0
M  V30 4187 C 401.813 -0.711654 1.89156 0
M  V30 4188 C 402.134 -1.75591 0.848096 0
M  V30 4189 O 401.404 -1.95547 -0.117566 0
M  V30 4190 H 399.984 -0.265835 0.698098 0
M  V30 4191 H 402.646 0.0119948 1.94896 0
M  V30 4192 H 401.742 -1.19766 2.88206 0
M  V30 4193 N 402.043 -1.548 -0.295768 0
M  V30 4194 C 403.006 -1.85363 -1.34808 0
M  V30 4195 C 404.006 -0.726817 -1.43436 0
M  V30 4196 O 405.196 -0.995088 -1.42981 0
M  V30 4197 C 402.328 -2.03859 -2.73229 0
M  V30 4198 H 403.521 -2.7941 -1.08949 0
M  V30 4199 H 401.074 -1.46942 -0.532702 0
M  V30 4200 H 401.809 -1.12117 -3.04303 0
M  V30 4201 H 401.594 -2.8588 -2.68356 0
M  V30 4202 H 403.084 -2.28857 -3.49305 0
M  V30 4203 N 403.521 0.559213 -1.47345 0
M  V30 4204 C 404.454 1.68201 -1.5422 0
M  V30 4205 C 405.432 1.57742 -0.394497 0
M  V30 4206 O 406.616 1.78628 -0.60201 0
M  V30 4207 C 403.743 3.0643 -1.44285 0
M  V30 4208 C 402.789 3.3534 -2.63532 0
M  V30 4209 S 403.622 3.24816 -4.25741 0
M  V30 4210 C 404.778 4.65542 -4.18355 0
M  V30 4211 H 405.011 1.62114 -2.49211 0
M  V30 4212 H 402.544 0.739871 -1.35519 0
M  V30 4213 H 404.502 3.86164 -1.3924 0
M  V30 4214 H 403.163 3.09984 -0.506816 0
M  V30 4215 H 402.356 4.36107 -2.52639 0
M  V30 4216 H 401.958 2.63221 -2.65689 0
M  V30 4217 H 404.25 5.56449 -3.86485 0
M  V30 4218 H 405.193 4.81493 -5.19202 0
M  V30 4219 H 405.601 4.43495 -3.49246 0
M  V30 4220 N 404.999 1.35443 0.805782 0
M  V30 4221 C 405.962 1.28301 1.89925 0
M  V30 4222 C 406.962 0.194285 1.59622 0
M  V30 4223 O 408.152 0.448036 1.6834 0
M  V30 4224 C 405.284 0.984997 3.2636 0
M  V30 4225 H 406.477 2.2553 1.97677 0
M  V30 4226 H 404.03 1.19979 1.00173 0
M  V30 4227 H 404.765 0.016603 3.24296 0
M  V30 4228 H 404.55 1.77269 3.4974 0
M  V30 4229 H 406.04 0.960651 4.064 0
M  V30 4230 N 406.477 -1.02803 1.19454 0
M  V30 4231 C 407.724 -1.76217 0.997693 0
M  V30 4232 C 408.052 -1.887 -0.47144 0
M  V30 4233 O 407.307 -1.4011 -1.3663 0
M  V30 4234 C 407.606 -3.18941 1.6128 0
M  V30 4235 C 407.272 -3.26463 3.11019 0
M  V30 4236 C 405.934 -3.28223 3.51885 0
M  V30 4237 C 408.286 -3.25542 4.07028 0
M  V30 4238 C 405.614 -3.26719 4.8731 0
M  V30 4239 C 407.966 -3.25579 5.42385 0
M  V30 4240 C 406.63 -3.25637 5.82681 0
M  V30 4241 H 405.9 -0.644823 0.365082 0
M  V30 4242 H 408.547 -1.20655 1.4871 0
M  V30 4243 H 406.852 -3.77587 1.04572 0
M  V30 4244 H 408.549 -3.74415 1.43577 0
M  V30 4245 H 405.139 -3.25822 2.78457 0
M  V30 4246 H 409.323 -3.23362 3.76498 0
M  V30 4247 H 404.579 -3.25089 5.1781 0
M  V30 4248 H 408.753 -3.23817 6.16535 0
M  V30 4249 H 406.38 -3.24226 6.87591 0
M  V30 4250 N 407.956 -0.998596 -1.21925 0
M  V30 4251 C 409.203 -0.677663 -1.90824 0
M  V30 4252 C 409.531 0.790905 -1.77693 0
M  V30 4253 O 408.786 1.58817 -1.14349 0
M  V30 4254 C 409.085 -1.03648 -3.42041 0
M  V30 4255 C 408.751 -2.49825 -3.75364 0
M  V30 4256 C 407.413 -2.8977 -3.8417 0
M  V30 4257 C 409.765 -3.44545 -3.91073 0
M  V30 4258 C 407.093 -4.23412 -4.06127 0
M  V30 4259 C 409.445 -4.77853 -4.14535 0
M  V30 4260 C 408.109 -5.17531 -4.21566 0
M  V30 4261 H 407.379 -0.247975 -0.698276 0
M  V30 4262 H 410.026 -1.25584 -1.44571 0
M  V30 4263 H 408.331 -0.376457 -3.89987 0
M  V30 4264 H 410.028 -0.766113 -3.93614 0
M  V30 4265 H 406.618 -2.17866 -3.69097 0
M  V30 4266 H 410.802 -3.14853 -3.83642 0
M  V30 4267 H 406.058 -4.53734 -4.09799 0
M  V30 4268 H 410.232 -5.51189 -4.25633 0
M  V30 4269 H 407.859 -6.21102 -4.38333 0
M  V30 4270 N 409.434 1.37368 -0.772513 0
M  V30 4271 C 410.711 1.93839 -0.26188 0
M  V30 4272 C 411.091 1.7061 1.24319 0
M  V30 4273 O 410.439 1.05534 2.02669 0
M  V30 4274 C 410.649 3.43154 -0.636102 0
M  V30 4275 C 411.997 4.20249 -0.606324 0
M  V30 4276 O 413.021 3.5152 -0.575538 0
M  V30 4277 O 411.88 5.42809 -0.634086 0
M  V30 4278 H 408.974 0.82478 -0.0605555 0
M  V30 4279 H 411.52 1.4665 -0.853917 0
M  V30 4280 H 410.292 3.53647 -1.6748 0
M  V30 4281 H 409.915 3.97596 -0.0170516 0
M  V30 4282 N 410.912 0.523116 1.48665 0
M  V30 4283 C 412.158 -0.0134963 2.02796 0
M  V30 4284 C 412.491 -1.34582 1.40004 0
M  V30 4285 O 411.766 -1.86756 0.543381 0
M  V30 4286 C 412.049 -0.14276 3.59817 0
M  V30 4287 C 411.902 1.21425 4.331 0
M  V30 4288 C 413.221 -0.872856 4.31357 0
M  V30 4289 H 410.34 -0.00343074 0.736992 0
M  V30 4290 H 412.982 0.678816 1.7746 0
M  V30 4291 H 411.132 -0.732401 3.81534 0
M  V30 4292 H 412.804 1.84447 4.2282 0
M  V30 4293 H 411.047 1.79791 3.94788 0
M  V30 4294 H 411.718 1.07687 5.41394 0
M  V30 4295 H 414.194 -0.372555 4.14429 0
M  V30 4296 H 413.07 -0.932185 5.40927 0
M  V30 4297 H 413.331 -1.92161 3.98154 0
M  V30 4298 N 412.39 -1.55475 0.257931 0
M  V30 4299 C 413.637 -1.99207 -0.363728 0
M  V30 4300 C 413.965 -1.1462 -1.57139 0
M  V30 4301 O 413.22 -0.199653 -1.94679 0
M  V30 4302 C 413.519 -3.48183 -0.806433 0
M  V30 4303 C 413.185 -4.49936 0.294684 0
M  V30 4304 C 411.847 -4.77481 0.597076 0
M  V30 4305 C 414.199 -5.10769 1.03751 0
M  V30 4306 C 411.527 -5.63132 1.64618 0
M  V30 4307 C 413.879 -5.97558 2.07622 0
M  V30 4308 C 412.543 -6.23432 2.38514 0
M  V30 4309 H 411.813 -0.728949 -0.133097 0
M  V30 4310 H 414.46 -1.8793 0.368059 0
M  V30 4311 H 412.765 -3.56848 -1.61761 0
M  V30 4312 H 414.462 -3.79415 -1.29789 0
M  V30 4313 H 411.052 -4.28572 0.0488649 0
M  V30 4314 H 415.236 -4.89527 0.817149 0
M  V30 4315 H 410.492 -5.8143 1.89074 0
M  V30 4316 H 414.666 -6.43735 2.65666 0
M  V30 4317 H 412.293 -6.89594 3.19943 0
M  V30 4318 N 413.868 0.0150385 -1.57593 0
M  V30 4319 C 414.831 0.995996 -2.06428 0
M  V30 4320 C 415.831 1.2818 -0.970903 0
M  V30 4321 O 417.021 1.22949 -1.23406 0
M  V30 4322 C 414.153 2.32506 -2.49307 0
M  V30 4323 H 415.346 0.573873 -2.94358 0
M  V30 4324 H 412.899 0.262186 -1.54085 0
M  V30 4325 H 413.634 2.79438 -1.64575 0
M  V30 4326 H 413.419 2.13087 -3.29145 0
M  V30 4327 H 414.909 3.02906 -2.87468 0
M  V30 4328 N 415.346 1.54954 0.287554 0
M  V30 4329 C 416.279 1.81737 1.3801 0
M  V30 4330 C 417.257 0.669412 1.48181 0
M  V30 4331 O 418.441 0.910839 1.65033 0
M  V30 4332 C 415.568 1.96606 2.75796 0
M  V30 4333 C 414.614 3.19098 2.82982 0
M  V30 4334 S 415.447 4.7683 2.43707 0
M  V30 4335 C 416.603 4.94653 3.83496 0
M  V30 4336 H 416.836 2.74122 1.15085 0
M  V30 4337 H 414.369 1.46538 0.486403 0
M  V30 4338 H 416.327 2.05858 3.55152 0
M  V30 4339 H 414.988 1.05136 2.95982 0
M  V30 4340 H 414.181 3.26344 3.84077 0
M  V30 4341 H 413.783 3.08361 2.11635 0
M  V30 4342 H 416.075 4.79502 4.78628 0
M  V30 4343 H 417.018 5.96728 3.8121 0
M  V30 4344 H 417.426 4.2272 3.74123 0
M  V30 4345 N 416.824 -0.551391 1.4764 0
M  V30 4346 C 418.235 -1.13349 1.48354 0
M  V30 4347 C 418.586 -1.94709 0.241432 0
M  V30 4348 O 417.711 -2.06306 -0.653205 0
M  V30 4349 C 418.306 -2.0623 2.68802 0
M  V30 4350 C 416.865 -2.597 2.72457 0
M  V30 4351 C 416.012 -1.36201 2.41546 0
M  V30 4352 H 418.963 -0.337698 1.55065 0
M  V30 4353 H 418.984 -2.90196 2.46103 0
M  V30 4354 H 418.496 -1.46987 3.59188 0
M  V30 4355 H 416.597 -3.22724 1.86225 0
M  V30 4356 H 416.71 -3.00296 3.73308 0
M  V30 4357 H 415.074 -1.67068 1.9225 0
M  V30 4358 H 415.857 -0.787425 3.34147 0
M  V30 4359 N 418.302 -1.35869 -0.798587 0
M  V30 4360 C 419.265 -1.29307 -1.89242 0
M  V30 4361 C 420.265 -0.202747 -1.59517 0
M  V30 4362 O 421.455 -0.456957 -1.681 0
M  V30 4363 C 418.587 -1.00229 -3.25833 0
M  V30 4364 H 419.78 -2.26576 -1.96478 0
M  V30 4365 H 417.333 -1.20509 -0.995358 0
M  V30 4366 H 418.068 -0.033801 -3.24282 0
M  V30 4367 H 417.853 -1.79121 -3.48795 0
M  V30 4368 H 419.343 -0.98219 -4.05885 0
M  V30 4369 N 419.78 1.02168 -1.19998 0
M  V30 4370 C 421.057 1.72816 -0.916191 0
M  V30 4371 C 421.437 2.03081 0.576325 0
M  V30 4372 O 420.785 1.69122 1.53656 0
M  V30 4373 C 420.995 2.9997 -1.78378 0
M  V30 4374 C 422.343 3.73336 -2.02251 0
M  V30 4375 O 423.367 3.09914 -1.75589 0
M  V30 4376 O 422.226 4.87371 -2.47249 0
M  V30 4377 H 419.32 0.752924 -0.342103 0
M  V30 4378 H 421.866 1.08062 -1.30846 0
M  V30 4379 H 420.638 2.73888 -2.79466 0
M  V30 4380 H 420.261 3.72464 -1.39126 0
M  V30 4381 N 421.258 1.00505 1.21394 0
M  V30 4382 C 422.221 0.570459 2.21987 0
M  V30 4383 C 423.221 -0.353211 1.56873 0
M  V30 4384 O 424.411 -0.14349 1.73608 0
M  V30 4385 C 421.543 -0.168555 3.40483 0
M  V30 4386 H 422.736 1.46021 2.6195 0
M  V30 4387 H 420.289 0.793565 1.34656 0
M  V30 4388 H 421.024 -1.07374 3.06009 0
M  V30 4389 H 420.809 0.494823 3.88965 0
M  V30 4390 H 422.299 -0.460362 4.15055 0
M  V30 4391 N 422.737 -1.36956 0.779787 0
M  V30 4392 C 423.684 -2.30175 0.169697 0
M  V30 4393 C 424.654 -1.51501 -0.68094 0
M  V30 4394 O 425.839 -1.80042 -0.631629 0
M  V30 4395 C 422.979 -3.37985 -0.697131 0
M  V30 4396 C 422.092 -4.31661 0.170992 0
M  V30 4397 C 421.227 -5.2655 -0.701298 0
M  V30 4398 C 420.266 -6.11867 0.168869 0
M  V30 4399 N 419.403 -6.98973 -0.661855 0
M  V30 4400 H 424.243 -2.81767 0.970135 0
M  V30 4401 H 421.78 -1.38699 0.489994 0
M  V30 4402 H 423.738 -3.99128 -1.2146 0
M  V30 4403 H 422.368 -2.87739 -1.46309 0
M  V30 4404 H 421.42 -3.71756 0.80634 0
M  V30 4405 H 422.732 -4.91644 0.841875 0
M  V30 4406 H 421.886 -5.92937 -1.28494 0
M  V30 4407 H 420.625 -4.66998 -1.40584 0
M  V30 4408 H 419.63 -5.44452 0.764986 0
M  V30 4409 H 420.855 -6.73493 0.870863 0
M  V30 4410 H 418.801 -6.41941 -1.35086 0
M  V30 4411 H 418.718 -7.55984 -0.0484447 0
M  V30 4412 H 419.986 -7.6974 -1.22963 0
M  V30 4413 N 424.215 -0.530993 -1.48385 0
M  V30 4414 C 425.163 0.244595 -2.3131 0
M  V30 4415 C 426.157 0.93451 -1.41291 0
M  V30 4416 O 427.363 0.85878 -1.58193 0
M  V30 4417 H 423.738 0.0977472 -0.74562 0
M  V30 4418 H 425.709 -0.474369 -2.94605 0
M  V30 4419 C 424.458 1.2779 -3.23365 0
M  V30 4420 H 423.781 0.756439 -3.92579 0
M  V30 4421 H 425.221 1.79198 -3.84271 0
M  V30 4422 C 423.68 2.31205 -2.45042 0
M  V30 4423 O 424.21 3.37661 -2.17596 0
M  V30 4424 N 422.416 2.04446 -2.0652 0
M  V30 4425 H 421.963 1.17891 -2.2904 0
M  V30 4426 H 421.921 2.73861 -1.54427 0
M  V30 4427 N 425.693 1.55336 -0.266172 0
M  V30 4428 C 426.64 2.22172 0.625165 0
M  V30 4429 C 427.61 1.19211 1.15663 0
M  V30 4430 O 428.795 1.47723 1.20758 0
M  V30 4431 C 425.935 2.93972 1.8076 0
M  V30 4432 C 425.048 4.11632 1.31084 0
M  V30 4433 C 424.183 4.71099 2.45436 0
M  V30 4434 C 423.222 5.8097 1.92718 0
M  V30 4435 N 422.359 6.34538 3.00509 0
M  V30 4436 H 427.199 2.9796 0.0485582 0
M  V30 4437 H 424.736 1.47095 0.0122024 0
M  V30 4438 H 426.694 3.33811 2.50251 0
M  V30 4439 H 425.324 2.20623 2.35638 0
M  V30 4440 H 424.376 3.76975 0.509326 0
M  V30 4441 H 425.688 4.90893 0.884633 0
M  V30 4442 H 424.842 5.13612 3.22936 0
M  V30 4443 H 423.581 3.91096 2.91368 0
M  V30 4444 H 422.586 5.37916 1.13695 0
M  V30 4445 H 423.811 6.62836 1.47733 0
M  V30 4446 H 421.757 5.57433 3.45839 0
M  V30 4447 H 421.674 7.09046 2.62279 0
M  V30 4448 H 422.942 6.81709 3.78011 0
M  V30 4449 N 427.171 -0.0066808 1.57599 0
M  V30 4450 C 428.448 -0.729586 1.81484 0
M  V30 4451 C 428.828 -1.92359 0.869558 0
M  V30 4452 O 428.176 -2.28348 -0.0832533 0
M  V30 4453 C 428.386 -1.1416 3.29801 0
M  V30 4454 C 429.734 -1.54823 3.95367 0
M  V30 4455 O 430.758 -1.23558 3.34084 0
M  V30 4456 O 429.617 -2.12937 5.03309 0
M  V30 4457 H 426.711 -0.354674 0.747085 0
M  V30 4458 H 429.257 0.0182609 1.6969 0
M  V30 4459 H 428.029 -0.290231 3.90222 0
M  V30 4460 H 427.652 -1.94876 3.46568 0
M  V30 4461 N 428.649 -1.55105 -0.279332 0
M  V30 4462 C 429.559 -1.90638 -1.36727 0
M  V30 4463 C 430.575 -0.802899 -1.54368 0
M  V30 4464 O 431.751 -1.10138 -1.68616 0
M  V30 4465 C 428.816 -2.16547 -2.70755 0
M  V30 4466 C 427.877 -3.40146 -2.61915 0
M  V30 4467 C 427.11 -3.6481 -3.8955 0
M  V30 4468 O 427.333 -2.92095 -4.89935 0
M  V30 4469 O 426.267 -4.58343 -3.90135 0
M  V30 4470 H 430.093 -2.83237 -1.09591 0
M  V30 4471 H 427.678 -1.4157 -0.477306 0
M  V30 4472 H 429.56 -2.34665 -3.50014 0
M  V30 4473 H 428.235 -1.27131 -2.9769 0
M  V30 4474 H 427.142 -3.2737 -1.81052 0
M  V30 4475 H 428.475 -4.29761 -2.3993 0
M  V30 4476 N 430.127 0.543554 -1.4793 0
M  V30 4477 C 431.09 1.63156 -1.60975 0
M  V30 4478 C 432.09 1.53346 -0.483899 0
M  V30 4479 O 433.28 1.5726 -0.749339 0
M  V30 4480 C 430.412 3.02743 -1.56716 0
M  V30 4481 H 431.605 1.52934 -2.57975 0
M  V30 4482 H 429.158 0.764557 -1.36324 0
M  V30 4483 H 429.893 3.18484 -0.611418 0
M  V30 4484 H 429.678 3.11272 -2.38438 0
M  V30 4485 H 431.168 3.81871 -1.6901 0
M  V30 4486 N 431.605 1.3629 0.791371 0
M  V30 4487 C 432.835 1.33368 1.57786 0
M  V30 4488 C 433.243 -0.0875188 1.88997 0
M  V30 4489 O 432.586 -1.05427 1.50435 0
M  V30 4490 C 432.648 2.08802 2.92646 0
M  V30 4491 C 432.312 3.57903 2.84174 0
M  V30 4492 C 433.309 4.52191 2.56553 0
M  V30 4493 C 430.994 4.00762 3.02812 0
M  V30 4494 C 432.988 5.87315 2.47669 0
M  V30 4495 C 430.675 5.35977 2.93551 0
M  V30 4496 C 431.673 6.29066 2.66017 0
M  V30 4497 O 431.361 7.61798 2.56746 0
M  V30 4498 H 431.093 0.459166 0.496128 0
M  V30 4499 H 433.647 1.79952 0.990269 0
M  V30 4500 H 431.877 1.56878 3.53449 0
M  V30 4501 H 433.566 1.98762 3.53904 0
M  V30 4502 H 434.332 4.20393 2.41858 0
M  V30 4503 H 430.211 3.2868 3.2325 0
M  V30 4504 H 433.755 6.59943 2.26099 0
M  V30 4505 H 429.652 5.67384 3.07808 0
M  V30 4506 H 430.42 7.71898 2.72242 0
M  V30 4507 N 433.083 -1.0153 1.20538 0
M  V30 4508 C 434.015 -2.10224 0.913155 0
M  V30 4509 C 435.028 -1.62495 -0.0995998 0
M  V30 4510 O 436.217 -1.78014 0.131582 0
M  V30 4511 C 433.317 -3.37111 0.347717 0
M  V30 4512 C 432.49 -4.13971 1.41233 0
M  V30 4513 C 431.549 -5.19158 0.857976 0
M  V30 4514 O 430.575 -5.48 1.53897 0
M  V30 4515 N 431.777 -5.7955 -0.331966 0
M  V30 4516 H 434.542 -2.35879 1.84881 0
M  V30 4517 H 432.103 -1.17931 1.10923 0
M  V30 4518 H 434.095 -4.04683 -0.0373026 0
M  V30 4519 H 432.665 -3.08696 -0.492527 0
M  V30 4520 H 431.885 -3.41351 1.97163 0
M  V30 4521 H 433.173 -4.62103 2.12928 0
M  V30 4522 H 432.571 -5.58455 -0.902478 0
M  V30 4523 H 431.128 -6.48464 -0.65861 0
M  V30 4524 N 434.561 -1.01147 -1.20859 0
M  V30 4525 C 435.808 -0.697865 -1.90095 0
M  V30 4526 C 436.136 0.772014 -1.78522 0
M  V30 4527 O 435.391 1.57595 -1.16027 0
M  V30 4528 C 435.69 -1.0727 -3.40922 0
M  V30 4529 C 435.356 -2.53792 -3.72693 0
M  V30 4530 C 434.018 -2.93829 -3.81075 0
M  V30 4531 C 436.37 -3.48674 -3.87397 0
M  V30 4532 C 433.698 -4.27696 -4.01613 0
M  V30 4533 C 436.05 -4.82223 -4.09444 0
M  V30 4534 C 434.714 -5.21973 -4.16054 0
M  V30 4535 H 433.984 -0.255367 -0.695607 0
M  V30 4536 H 436.631 -1.27111 -1.43231 0
M  V30 4537 H 434.936 -0.417799 -3.89566 0
M  V30 4538 H 436.633 -0.807818 -3.92779 0
M  V30 4539 H 433.223 -2.21768 -3.66765 0
M  V30 4540 H 437.407 -3.18904 -3.80281 0
M  V30 4541 H 432.663 -4.58055 -4.04964 0
M  V30 4542 H 436.837 -5.55672 -4.19763 0
M  V30 4543 H 434.464 -6.25717 -4.31721 0
M  V30 4544 N 436.039 1.36541 -0.78704 0
M  V30 4545 C 436.969 2.32659 -0.197992 0
M  V30 4546 C 437.95 1.56533 0.665697 0
M  V30 4547 O 439.135 1.84698 0.60001 0
M  V30 4548 C 436.265 3.40778 0.669901 0
M  V30 4549 C 435.219 4.27897 -0.0937039 0
M  V30 4550 C 434.545 5.27163 0.894629 0
M  V30 4551 C 435.845 5.06334 -1.28154 0
M  V30 4552 H 437.539 2.82171 -1.00099 0
M  V30 4553 H 435.085 1.35665 -0.482793 0
M  V30 4554 H 437.038 4.07008 1.09191 0
M  V30 4555 H 435.762 2.89827 1.50558 0
M  V30 4556 H 434.421 3.6322 -0.49666 0
M  V30 4557 H 434.069 4.72486 1.72527 0
M  V30 4558 H 433.769 5.86317 0.388149 0
M  V30 4559 H 435.293 5.96266 1.31525 0
M  V30 4560 H 436.707 5.65617 -0.93541 0
M  V30 4561 H 435.104 5.74888 -1.72115 0
M  V30 4562 H 436.174 4.38114 -2.07807 0
M  V30 4563 N 437.518 0.538854 1.48102 0
M  V30 4564 C 438.466 -0.232325 2.31437 0
M  V30 4565 C 439.46 -0.927004 1.41785 0
M  V30 4566 O 440.666 -0.850378 1.58646 0
M  V30 4567 H 437.041 -0.0937916 0.746128 0
M  V30 4568 H 439.012 0.489986 2.9435 0
M  V30 4569 C 437.761 -1.26074 3.24038 0
M  V30 4570 H 437.084 -0.735609 3.92974 0
M  V30 4571 H 438.524 -1.77157 3.85216 0
M  V30 4572 C 436.983 -2.29902 2.46265 0
M  V30 4573 O 437.513 -3.36502 2.19384 0
M  V30 4574 N 435.719 -2.03348 2.07601 0
M  V30 4575 H 435.266 -1.16675 2.29662 0
M  V30 4576 H 435.224 -2.73038 1.55877 0
M  V30 4577 N 438.996 -1.55193 0.274407 0
M  V30 4578 C 440.226 -2.03692 -0.345442 0
M  V30 4579 C 440.634 -1.15224 -1.50067 0
M  V30 4580 O 439.977 -0.164749 -1.8296 0
M  V30 4581 C 440.039 -3.48325 -0.88939 0
M  V30 4582 C 439.703 -4.56794 0.137115 0
M  V30 4583 C 440.7 -5.11028 0.956378 0
M  V30 4584 C 438.385 -5.01568 0.27115 0
M  V30 4585 C 440.379 -6.08552 1.89587 0
M  V30 4586 C 438.066 -5.98918 1.21412 0
M  V30 4587 C 439.064 -6.52291 2.02498 0
M  V30 4588 O 438.752 -7.47738 2.952 0
M  V30 4589 H 438.484 -0.670893 -0.0829332 0
M  V30 4590 H 441.038 -2.01387 0.404056 0
M  V30 4591 H 439.268 -3.47867 -1.68895 0
M  V30 4592 H 440.957 -3.80167 -1.42225 0
M  V30 4593 H 441.723 -4.7725 0.863559 0
M  V30 4594 H 437.602 -4.5967 -0.349987 0
M  V30 4595 H 441.146 -6.50137 2.52918 0
M  V30 4596 H 437.043 -6.32114 1.30776 0
M  V30 4597 H 437.811 -7.65451 2.89874 0
M  V30 4598 N 440.474 -0.00167713 -1.576 0
M  V30 4599 C 441.404 0.988091 -2.11563 0
M  V30 4600 C 442.385 1.35736 -1.02517 0
M  V30 4601 O 443.57 1.44082 -1.30208 0
M  V30 4602 C 440.7 2.27941 -2.62031 0
M  V30 4603 C 439.654 2.0517 -3.75619 0
M  V30 4604 C 438.98 3.4033 -4.12407 0
M  V30 4605 C 440.28 1.41294 -5.02825 0
M  V30 4606 H 441.974 0.538771 -2.94513 0
M  V30 4607 H 439.52 0.257712 -1.41675 0
M  V30 4608 H 441.473 2.97539 -2.9841 0
M  V30 4609 H 440.197 2.74989 -1.76205 0
M  V30 4610 H 438.856 1.37998 -3.39635 0
M  V30 4611 H 438.504 3.85085 -3.23603 0
M  V30 4612 H 438.204 3.25909 -4.88935 0
M  V30 4613 H 439.728 4.1124 -4.51347 0
M  V30 4614 H 441.142 2.00851 -5.36965 0
M  V30 4615 H 439.539 1.37356 -5.84169 0
M  V30 4616 H 440.609 0.382362 -4.8339 0
M  V30 4617 N 441.952 1.55251 0.271103 0
M  V30 4618 C 442.882 1.9127 1.33933 0
M  V30 4619 C 443.863 0.77478 1.5143 0
M  V30 4620 O 445.048 1.03307 1.64442 0
M  V30 4621 C 442.178 2.18627 2.69851 0
M  V30 4622 C 441.132 3.34442 2.67081 0
M  V30 4623 C 440.458 3.47284 4.06569 0
M  V30 4624 C 441.758 4.70784 2.26185 0
M  V30 4625 H 443.452 2.80744 1.04035 0
M  V30 4626 H 440.998 1.35077 0.499017 0
M  V30 4627 H 442.951 2.42413 3.44694 0
M  V30 4628 H 441.675 1.25955 3.01335 0
M  V30 4629 H 440.334 3.10627 1.94695 0
M  V30 4630 H 439.982 2.52074 4.35279 0
M  V30 4631 H 439.682 4.25152 4.0561 0
M  V30 4632 H 441.206 3.73363 4.83148 0
M  V30 4633 H 442.62 4.94102 2.90751 0
M  V30 4634 H 441.017 5.51582 2.36384 0
M  V30 4635 H 442.087 4.69478 1.21319 0
M  V30 4636 N 443.43 -0.535701 1.48216 0
M  V30 4637 C 444.846 -0.863701 1.3421 0
M  V30 4638 C 445.046 -1.98458 0.34879 0
M  V30 4639 O 444.102 -2.51432 -0.23204 0
M  V30 4640 C 445.415 -1.23662 2.74095 0
M  V30 4641 C 446.963 -1.34683 2.82541 0
M  V30 4642 C 447.438 -1.75322 4.23115 0
M  V30 4643 N 448.929 -1.82434 4.2576 0
M  V30 4644 C 449.664 -2.15252 5.31464 0
M  V30 4645 N 449.16 -2.46533 6.47452 0
M  V30 4646 N 450.953 -2.16209 5.18855 0
M  V30 4647 H 443.104 0.203965 2.11418 0
M  V30 4648 H 445.367 0.0286033 0.947568 0
M  V30 4649 H 445.073 -0.486674 3.48316 0
M  V30 4650 H 444.947 -2.18805 3.07253 0
M  V30 4651 H 447.334 -2.08756 2.08579 0
M  V30 4652 H 447.415 -0.376756 2.5301 0
M  V30 4653 H 447.059 -1.01812 4.97591 0
M  V30 4654 H 446.989 -2.7337 4.50085 0
M  V30 4655 H 449.48 -1.6056 3.42095 0
M  V30 4656 H 449.793 -2.70662 7.23852 0
M  V30 4657 H 448.138 -2.44065 6.50736 0
M  V30 4658 H 451.329 -1.91224 4.2726 0
M  V30 4659 H 451.502 -2.41453 6.01335 0
M  V30 4660 N 444.908 -1.36708 -0.784132 0
M  V30 4661 C 446.319 -1.27947 -1.35965 0
M  V30 4662 C 446.67 0.0784013 -1.96043 0
M  V30 4663 O 445.795 0.979989 -1.92938 0
M  V30 4664 C 446.39 -2.31689 -2.47195 0
M  V30 4665 C 444.949 -2.26601 -3.00548 0
M  V30 4666 C 444.096 -2.16184 -1.73666 0
M  V30 4667 H 447.047 -1.4751 -0.585358 0
M  V30 4668 H 447.068 -1.95638 -3.26352 0
M  V30 4669 H 446.58 -3.30506 -2.03439 0
M  V30 4670 H 444.681 -1.31268 -3.48711 0
M  V30 4671 H 444.794 -3.19508 -3.57004 0
M  V30 4672 H 443.158 -1.62524 -1.96107 0
M  V30 4673 H 443.941 -3.16896 -1.32031 0
M  V30 4674 N 446.386 1.0089 -1.21074 0
M  V30 4675 C 447.663 1.71834 -0.934469 0
M  V30 4676 C 448.043 2.0368 0.554753 0
M  V30 4677 O 447.391 1.70742 1.51854 0
M  V30 4678 C 447.601 2.98061 -1.8155 0
M  V30 4679 C 448.949 3.7117 -2.06199 0
M  V30 4680 O 449.973 3.08034 -1.78867 0
M  V30 4681 O 448.832 4.84721 -2.52404 0
M  V30 4682 H 445.926 0.749253 -0.35007 0
M  V30 4683 H 448.472 1.06668 -1.31985 0
M  V30 4684 H 447.244 2.70908 -2.82355 0
M  V30 4685 H 446.867 3.70968 -1.43068 0
M  V30 4686 N 447.864 1.01787 1.20321 0
M  V30 4687 C 449.11 0.708985 1.90003 0
M  V30 4688 C 449.443 -0.759572 1.78729 0
M  V30 4689 O 448.718 -1.55198 1.17234 0
M  V30 4690 C 449.001 1.1469 3.41348 0
M  V30 4691 C 448.854 2.67586 3.61549 0
M  V30 4692 C 450.173 0.71915 4.34185 0
M  V30 4693 H 447.292 0.259034 0.689978 0
M  V30 4694 H 449.934 1.26584 1.41692 0
M  V30 4695 H 448.084 0.673128 3.82624 0
M  V30 4696 H 449.756 3.22826 3.29517 0
M  V30 4697 H 447.999 3.085 3.04976 0
M  V30 4698 H 448.67 2.93281 4.67643 0
M  V30 4699 H 451.146 1.12647 4.00562 0
M  V30 4700 H 450.022 1.05358 5.38694 0
M  V30 4701 H 450.283 -0.379111 4.40472 0
M  V30 4702 N 449.342 -1.36122 0.79427 0
M  V30 4703 C 450.588 -1.99406 0.369452 0
M  V30 4704 C 450.921 -1.62886 -1.05743 0
M  V30 4705 O 450.196 -0.886053 -1.73145 0
M  V30 4706 C 450.479 -3.56046 0.538833 0
M  V30 4707 C 450.332 -4.02404 2.00976 0
M  V30 4708 C 451.651 -4.40079 -0.0431359 0
M  V30 4709 H 448.77 -0.724397 0.135712 0
M  V30 4710 H 451.412 -1.61461 1.00151 0
M  V30 4711 H 449.562 -3.885 0.000771004 0
M  V30 4712 H 451.234 -3.80415 2.60926 0
M  V30 4713 H 449.477 -3.53765 2.51063 0
M  V30 4714 H 450.148 -5.11344 2.07922 0
M  V30 4715 H 452.624 -4.14013 0.416228 0
M  V30 4716 H 451.5 -5.48799 0.105374 0
M  V30 4717 H 451.761 -4.27264 -1.13571 0
M  V30 4718 N 450.82 -0.546701 -1.47814 0
M  V30 4719 C 451.783 0.196287 -2.28358 0
M  V30 4720 C 452.783 0.852437 -1.36346 0
M  V30 4721 O 453.973 0.709913 -1.59078 0
M  V30 4722 C 451.105 1.28579 -3.15722 0
M  V30 4723 H 452.298 -0.511086 -2.95513 0
M  V30 4724 H 449.851 -0.303248 -1.5333 0
M  V30 4725 H 450.586 2.0259 -2.53235 0
M  V30 4726 H 450.371 0.820229 -3.83425 0
M  V30 4727 H 451.861 1.80793 -3.76435 0
M  V30 4728 N 452.299 1.55045 -0.282633 0
M  V30 4729 C 453.249 2.19514 0.616249 0
M  V30 4730 C 454.233 1.16216 1.11277 0
M  V30 4731 O 455.425 1.42004 1.05659 0
M  V30 4732 C 452.554 2.92548 1.7964 0
M  V30 4733 C 451.64 4.03142 1.31671 0
M  V30 4734 N 452.031 5.0276 0.553695 0
M  V30 4735 C 450.329 4.1635 1.59903 0
M  V30 4736 C 451.03 5.80923 0.30054 0
M  V30 4737 N 450.006 5.3651 0.875116 0
M  V30 4738 H 453.808 2.93889 0.0255363 0
M  V30 4739 H 451.322 1.62169 -0.0865362 0
M  V30 4740 H 453.319 3.37188 2.45173 0
M  V30 4741 H 451.979 2.19685 2.39099 0
M  V30 4742 H 452.99 5.17512 0.20032 0
M  V30 4743 H 449.667 3.54682 2.20243 0
M  V30 4744 H 451.057 6.7118 -0.311053 0
M  V30 4745 N 453.777 0.010035 1.57597 0
M  V30 4746 C 455.026 -0.671945 1.90178 0
M  V30 4747 C 455.339 -1.74376 0.886131 0
M  V30 4748 O 456.545 -2.48107 1.10252 0
M  V30 4749 C 455.001 -1.24636 3.3763 0
M  V30 4750 C 454.609 -0.208838 4.47513 0
M  V30 4751 C 456.353 -1.90595 3.79307 0
M  V30 4752 C 454.26 -0.793814 5.86048 0
M  V30 4753 H 453.19 -0.25474 0.709665 0
M  V30 4754 H 455.841 0.0722206 1.83358 0
M  V30 4755 H 454.223 -2.04152 3.3932 0
M  V30 4756 H 455.397 0.562463 4.57354 0
M  V30 4757 H 453.712 0.350889 4.14919 0
M  V30 4758 H 456.309 -2.35284 4.80151 0
M  V30 4759 H 456.652 -2.74074 3.13352 0
M  V30 4760 H 457.185 -1.17798 3.79958 0
M  V30 4761 H 453.924 0.00240855 6.555 0
M  V30 4762 H 453.444 -1.53404 5.79851 0
M  V30 4763 H 455.123 -1.2894 6.34022 0
M  V30 4764 N 455.255 -1.55392 -0.262866 0
M  V30 4765 C 456.48 -1.80847 -1.01533 0
M  V30 4766 C 456.905 -0.584946 -1.78774 0
M  V30 4767 O 456.263 0.465701 -1.75217 0
M  V30 4768 C 456.311 -3.03866 -1.94159 0
M  V30 4769 O 455.415 -2.79662 -3.03089 0
M  V30 4770 H 454.756 -0.597441 -0.289759 0
M  V30 4771 H 457.286 -2.02553 -0.288698 0
M  V30 4772 H 457.296 -3.32872 -2.35924 0
M  V30 4773 H 455.971 -3.92564 -1.37354 0
M  V30 4774 H 454.548 -2.61781 -2.65566 0
M  V30 4775 N 456.733 0.527833 -1.48498 0
M  V30 4776 C 458.01 1.28905 -1.47115 0
M  V30 4777 C 458.39 2.10297 -0.184007 0
M  V30 4778 O 457.738 2.12728 0.834218 0
M  V30 4779 C 457.948 2.16866 -2.73441 0
M  V30 4780 C 459.296 2.76936 -3.21857 0
M  V30 4781 O 460.32 2.27152 -2.74373 0
M  V30 4782 O 459.179 3.67496 -4.04486 0
M  V30 4783 H 456.273 0.581918 -0.587623 0
M  V30 4784 H 458.819 0.544311 -1.60734 0
M  V30 4785 H 457.591 1.56521 -3.58632 0
M  V30 4786 H 457.214 2.98583 -2.62553 0
M  V30 4787 N 458.211 1.37122 0.776871 0
M  V30 4788 C 459.161 1.28989 1.88005 0
M  V30 4789 C 460.145 0.178765 1.59904 0
M  V30 4790 O 461.337 0.412705 1.72121 0
M  V30 4791 C 458.466 1.09402 3.25402 0
M  V30 4792 C 457.552 2.25036 3.59471 0
M  V30 4793 N 457.943 3.50407 3.64759 0
M  V30 4794 C 456.241 2.17078 3.89607 0
M  V30 4795 C 456.942 4.26628 3.95428 0
M  V30 4796 N 455.918 3.55709 4.11062 0
M  V30 4797 H 459.72 2.2394 1.90337 0
M  V30 4798 H 457.234 1.30021 0.973052 0
M  V30 4799 H 459.231 1.01661 4.04315 0
M  V30 4800 H 457.891 0.153632 3.24336 0
M  V30 4801 H 458.902 3.8438 3.47091 0
M  V30 4802 H 455.579 1.31067 3.96393 0
M  V30 4803 H 456.969 5.35107 4.06338 0
M  V30 4804 N 459.689 -1.00246 1.21608 0
M  V30 4805 C 460.935 -1.74319 1.03638 0
M  V30 4806 C 461.268 -1.89408 -0.428749 0
M  V30 4807 O 460.543 -1.43026 -1.3181 0
M  V30 4808 C 460.826 -3.15431 1.73711 0
M  V30 4809 C 460.679 -3.08049 3.27759 0
M  V30 4810 C 461.998 -4.14407 1.48173 0
M  V30 4811 H 459.117 -0.632741 0.377899 0
M  V30 4812 H 461.759 -1.16853 1.49818 0
M  V30 4813 H 459.909 -3.64493 1.34452 0
M  V30 4814 H 461.581 -2.66681 3.76403 0
M  V30 4815 H 459.824 -2.45088 3.57931 0
M  V30 4816 H 460.495 -4.07862 3.71958 0
M  V30 4817 H 462.971 -3.74061 1.82258 0
M  V30 4818 H 461.847 -5.11279 1.99713 0
M  V30 4819 H 462.108 -4.40174 0.412273 0
M  V30 4820 N 461.167 -1.02423 -1.1978 0
M  V30 4821 C 462.414 -0.717988 -1.89344 0
M  V30 4822 C 462.742 0.753036 -1.79331 0
M  V30 4823 O 461.997 1.56355 -1.17692 0
M  V30 4824 C 462.296 -1.1088 -3.39765 0
M  V30 4825 C 461.962 -2.57731 -3.6998 0
M  V30 4826 C 460.624 -2.97854 -3.77937 0
M  V30 4827 C 462.976 -3.52763 -3.83677 0
M  V30 4828 C 460.304 -4.31931 -3.97054 0
M  V30 4829 C 462.656 -4.86538 -4.04306 0
M  V30 4830 C 461.32 -5.26356 -4.10494 0
M  V30 4831 H 460.59 -0.26273 -0.692859 0
M  V30 4832 H 463.237 -1.28623 -1.41875 0
M  V30 4833 H 461.542 -0.459094 -3.89101 0
M  V30 4834 H 463.239 -0.849432 -3.919 0
M  V30 4835 H 459.829 -2.25646 -3.64393 0
M  V30 4836 H 464.013 -3.2292 -3.76877 0
M  V30 4837 H 459.269 -4.62324 -4.00083 0
M  V30 4838 H 463.443 -5.60093 -4.13846 0
M  V30 4839 H 461.07 -6.3026 -4.2506 0
M  V30 4840 N 462.645 1.35699 -0.801477 0
M  V30 4841 C 463.875 2.02862 -0.3912 0
M  V30 4842 C 464.283 1.60552 1.00099 0
M  V30 4843 O 463.626 0.796215 1.65548 0
M  V30 4844 C 463.688 3.57386 -0.389299 0
M  V30 4845 C 463.352 4.22943 -1.73113 0
M  V30 4846 C 464.349 4.44984 -2.68859 0
M  V30 4847 C 462.034 4.60167 -2.01373 0
M  V30 4848 C 464.028 5.03345 -3.91053 0
M  V30 4849 C 461.715 5.18243 -3.23832 0
M  V30 4850 C 462.713 5.39773 -4.1849 0
M  V30 4851 O 462.401 5.96626 -5.38788 0
M  V30 4852 H 462.133 0.657341 -0.157732 0
M  V30 4853 H 464.687 1.74407 -1.08496 0
M  V30 4854 H 462.917 3.85011 0.361031 0
M  V30 4855 H 464.606 4.059 -0.0020365 0
M  V30 4856 H 465.372 4.1661 -2.48316 0
M  V30 4857 H 461.251 4.42726 -1.28508 0
M  V30 4858 H 464.795 5.20065 -4.64949 0
M  V30 4859 H 460.692 5.46044 -3.44248 0
M  V30 4860 H 461.46 6.15082 -5.40015 0
M  V30 4861 N 464.123 0.554532 1.47522 0
M  V30 4862 C 465.086 -0.184174 2.28459 0
M  V30 4863 C 466.086 -0.845195 1.36796 0
M  V30 4864 O 467.276 -0.701467 1.59452 0
M  V30 4865 C 464.408 -1.26903 3.16399 0
M  V30 4866 H 465.601 0.526751 2.95238 0
M  V30 4867 H 463.154 0.311375 1.53167 0
M  V30 4868 H 463.889 -2.01244 2.54306 0
M  V30 4869 H 463.674 -0.799883 3.83854 0
M  V30 4870 H 465.164 -1.78794 3.77389 0
M  V30 4871 N 465.601 -1.54893 0.290851 0
M  V30 4872 C 466.549 -2.24579 -0.605576 0
M  V30 4873 C 467.543 -1.24824 -1.14522 0
M  V30 4874 O 468.749 -1.42706 -1.09704 0
M  V30 4875 H 465.124 -0.720946 -0.213872 0
M  V30 4876 H 467.095 -2.984 0.0048173 0
M  V30 4877 C 465.844 -2.99224 -1.77088 0
M  V30 4878 H 465.167 -3.75782 -1.36484 0
M  V30 4879 H 466.607 -3.51281 -2.3744 0
M  V30 4880 C 465.066 -2.05602 -2.66888 0
M  V30 4881 O 465.596 -1.61745 -3.67698 0
M  V30 4882 N 463.802 -1.71771 -2.34399 0
M  V30 4883 H 463.349 -2.07633 -1.52468 0
M  V30 4884 H 463.307 -1.09403 -2.94751 0
M  V30 4885 N 467.08 -0.0183926 -1.57589 0
M  V30 4886 C 468.043 0.951986 -2.08494 0
M  V30 4887 C 469.043 1.26092 -0.997874 0
M  V30 4888 O 470.233 1.20304 -1.25987 0
M  V30 4889 C 467.365 2.27165 -2.54182 0
M  V30 4890 H 468.558 0.511307 -2.95509 0
M  V30 4891 H 466.111 0.229444 -1.54607 0
M  V30 4892 H 466.846 2.75884 -1.70465 0
M  V30 4893 H 466.631 2.06057 -3.33591 0
M  V30 4894 H 468.121 2.9674 -2.93828 0
M  V30 4895 N 468.558 1.5553 0.254621 0
M  V30 4896 C 469.506 1.9048 1.33492 0
M  V30 4897 C 470.5 0.78304 1.50216 0
M  V30 4898 O 471.706 0.967582 1.51782 0
M  V30 4899 H 468.081 0.604846 0.44684 0
M  V30 4900 H 470.052 2.80688 1.01275 0
M  V30 4901 C 468.801 2.20928 2.68489 0
M  V30 4902 H 468.124 3.06742 2.56417 0
M  V30 4903 H 469.564 2.49291 3.42972 0
M  V30 4904 C 468.023 1.023 3.20993 0
M  V30 4905 O 468.553 0.267027 4.00811 0
M  V30 4906 N 466.759 0.815714 2.78917 0
M  V30 4907 H 466.306 1.43217 2.14119 0
M  V30 4908 H 466.264 0.0236532 3.14391 0
M  V30 4909 N 470.036 -0.519951 1.48776 0
M  V30 4910 C 470.983 -1.62352 1.64044 0
M  V30 4911 C 471.953 -1.58945 0.482251 0
M  V30 4912 O 473.138 -1.77219 0.706971 0
M  V30 4913 C 470.278 -3.00579 1.69547 0
M  V30 4914 C 469.391 -3.14145 2.96541 0
M  V30 4915 C 468.526 -4.42991 2.93142 0
M  V30 4916 C 467.565 -4.50122 4.14797 0
M  V30 4917 N 466.702 -5.7037 4.09418 0
M  V30 4918 H 471.542 -1.48643 2.58281 0
M  V30 4919 H 469.079 -0.723516 1.28077 0
M  V30 4920 H 471.037 -3.80671 1.70719 0
M  V30 4921 H 469.667 -3.13036 0.787918 0
M  V30 4922 H 468.719 -2.27239 3.05068 0
M  V30 4923 H 470.031 -3.15275 3.86527 0
M  V30 4924 H 469.185 -5.31385 2.92772 0
M  V30 4925 H 467.924 -4.44398 2.00902 0
M  V30 4926 H 466.929 -3.60133 4.15433 0
M  V30 4927 H 468.154 -4.50445 5.08208 0
M  V30 4928 H 466.1 -5.72655 3.20004 0
M  V30 4929 H 466.017 -5.73036 4.93119 0
M  V30 4930 H 467.285 -6.61023 4.13121 0
M  V30 4931 N 471.514 -1.37532 -0.769588 0
M  V30 4932 C 472.477 -1.33292 -1.86456 0
M  V30 4933 C 473.477 -0.236537 -1.59051 0
M  V30 4934 O 474.667 -0.492511 -1.67093 0
M  V30 4935 C 471.799 -1.07118 -3.23633 0
M  V30 4936 H 472.992 -2.30692 -1.91628 0
M  V30 4937 H 470.545 -1.22593 -0.969572 0
M  V30 4938 H 471.28 -0.102578 -3.24138 0
M  V30 4939 H 471.065 -1.86479 -3.44917 0
M  V30 4940 H 472.555 -1.06806 -4.03711 0
M  V30 4941 N 472.992 0.995999 -1.22138 0
M  V30 4942 C 473.955 2.06711 -0.990109 0
M  V30 4943 C 474.955 1.60744 0.0422978 0
M  V30 4944 O 476.145 1.73095 -0.195895 0
M  V30 4945 C 473.277 3.37288 -0.49491 0
M  V30 4946 H 474.47 2.28661 -1.94047 0
M  V30 4947 H 472.023 1.16711 -1.03963 0
M  V30 4948 H 472.758 3.21022 0.459948 0
M  V30 4949 H 472.543 3.71986 -1.23971 0
M  V30 4950 H 474.033 4.16103 -0.353253 0
M  V30 4951 N 474.47 1.03057 1.19235 0
M  V30 4952 C 475.698 0.747697 1.92917 0
M  V30 4953 C 476.113 -0.69372 1.75593 0
M  V30 4954 O 475.47 -1.47191 1.07894 0
M  V30 4955 C 475.521 1.09159 3.44625 0
M  V30 4956 O 475.242 2.47641 3.61394 0
M  V30 4957 C 476.743 0.831763 4.35427 0
M  V30 4958 H 473.963 0.273453 0.612751 0
M  V30 4959 H 476.507 1.37552 1.51327 0
M  V30 4960 H 474.662 0.508919 3.84043 0
M  V30 4961 H 475.076 2.60499 4.55237 0
M  V30 4962 H 476.55 1.12233 5.4047 0
M  V30 4963 H 477.027 -0.233769 4.38577 0
M  V30 4964 H 477.633 1.39725 4.01693 0
M  V30 4965 N 475.948 -1.35272 0.808662 0
M  V30 4966 C 477.359 -1.81179 0.450688 0
M  V30 4967 C 477.71 -1.67143 -1.02751 0
M  V30 4968 O 476.835 -1.20325 -1.79864 0
M  V30 4969 C 477.43 -3.28943 0.811275 0
M  V30 4970 C 475.989 -3.72985 0.505871 0
M  V30 4971 C 475.136 -2.57229 1.03578 0
M  V30 4972 H 478.087 -1.2322 1.00012 0
M  V30 4973 H 478.108 -3.80342 0.109588 0
M  V30 4974 H 477.62 -3.39127 1.88718 0
M  V30 4975 H 475.721 -3.68349 -0.561209 0
M  V30 4976 H 475.834 -4.67677 1.03995 0
M  V30 4977 H 474.198 -2.50548 0.458005 0
M  V30 4978 H 474.981 -2.7019 2.11784 0
M  V30 4979 N 477.426 -0.562348 -1.47226 0
M  V30 4980 C 478.356 0.170627 -2.32876 0
M  V30 4981 C 479.337 0.903748 -1.44106 0
M  V30 4982 O 480.522 0.883206 -1.72954 0
M  V30 4983 C 477.652 1.19786 -3.25989 0
M  V30 4984 C 476.606 0.580875 -4.2404 0
M  V30 4985 C 475.932 1.71311 -5.06514 0
M  V30 4986 C 477.232 -0.468714 -5.20193 0
M  V30 4987 H 478.926 -0.544441 -2.94408 0
M  V30 4988 H 476.472 -0.263271 -1.41573 0
M  V30 4989 H 478.425 1.71884 -3.84752 0
M  V30 4990 H 477.149 1.94294 -2.62521 0
M  V30 4991 H 475.808 0.0811538 -3.6651 0
M  V30 4992 H 475.456 2.44736 -4.39447 0
M  V30 4993 H 475.156 1.30604 -5.72902 0
M  V30 4994 H 476.68 2.23725 -5.68137 0
M  V30 4995 H 478.094 -0.0336028 -5.7329 0
M  V30 4996 H 476.491 -0.794957 -5.94811 0
M  V30 4997 H 477.561 -1.36269 -4.65359 0
M  V30 4998 N 478.904 1.54736 -0.299062 0
M  V30 4999 C 480.15 2.00397 0.311244 0
M  V30 5000 C 480.483 1.18716 1.53688 0
M  V30 5001 O 479.758 0.263154 1.92712 0
M  V30 5002 C 480.041 3.53817 0.669761 0
M  V30 5003 C 479.894 4.46239 -0.564882 0
M  V30 5004 C 481.213 4.13856 1.49702 0
M  V30 5005 H 478.332 0.728493 0.111653 0
M  V30 5006 H 480.974 1.85506 -0.410774 0
M  V30 5007 H 479.124 3.66637 1.28491 0
M  V30 5008 H 480.796 4.45328 -1.20337 0
M  V30 5009 H 479.039 4.16916 -1.19849 0
M  V30 5010 H 479.71 5.5134 -0.269918 0
M  V30 5011 H 482.186 4.04461 0.977284 0
M  V30 5012 H 481.062 5.21365 1.71666 0
M  V30 5013 H 481.323 3.65608 2.48563 0
M  V30 5014 N 480.382 0.0267497 1.57577 0
M  V30 5015 C 481.607 -0.666227 1.96408 0
M  V30 5016 C 482.032 -1.65004 0.903071 0
M  V30 5017 O 481.39 -1.80787 -0.136263 0
M  V30 5018 C 481.438 -1.35101 3.34335 0
M  V30 5019 O 480.542 -2.46623 3.30531 0
M  V30 5020 H 479.883 -0.175206 0.640468 0
M  V30 5021 H 482.413 0.0878977 2.04411 0
M  V30 5022 H 482.423 -1.70834 3.70513 0
M  V30 5023 H 481.098 -0.629844 4.11103 0
M  V30 5024 H 479.675 -2.13019 3.06068 0
M  V30 5025 N 481.861 -1.55662 -0.24637 0
M  V30 5026 C 482.824 -1.89558 -1.28842 0
M  V30 5027 C 483.824 -0.772082 -1.41052 0
M  V30 5028 O 485.014 -1.04007 -1.39743 0
M  V30 5029 C 482.146 -2.12449 -2.66605 0
M  V30 5030 H 483.339 -2.82735 -1.00004 0
M  V30 5031 H 480.892 -1.48562 -0.485684 0
M  V30 5032 H 481.627 -1.21742 -3.00582 0
M  V30 5033 H 481.412 -2.94273 -2.59125 0
M  V30 5034 H 482.902 -2.39854 -3.41847 0
M  V30 5035 N 483.339 0.512053 -1.4905 0
M  V30 5036 C 484.249 1.64139 -1.67617 0
M  V30 5037 C 485.265 1.64786 -0.558701 0
M  V30 5038 O 486.441 1.8341 -0.832034 0
M  V30 5039 C 483.506 3.00548 -1.72835 0
M  V30 5040 C 482.567 3.10615 -2.96339 0
M  V30 5041 C 481.8 4.40517 -3.01298 0
M  V30 5042 O 482.023 5.28671 -2.14157 0
M  V30 5043 O 480.957 4.55325 -3.93653 0
M  V30 5044 H 484.783 1.51407 -2.63267 0
M  V30 5045 H 482.368 0.687131 -1.32661 0
M  V30 5046 H 484.25 3.81641 -1.78683 0
M  V30 5047 H 482.925 3.13566 -0.803616 0
M  V30 5048 H 481.832 2.2875 -2.96014 0
M  V30 5049 H 483.165 3.0252 -3.88256 0
M  V30 5050 N 484.817 1.37938 0.762283 0
M  V30 5051 C 486.063 1.33866 1.52341 0
M  V30 5052 C 486.396 -0.0738961 1.94059 0
M  V30 5053 O 485.671 -1.03326 1.64785 0
M  V30 5054 C 485.954 2.28644 2.78197 0
M  V30 5055 C 485.807 3.78722 2.42672 0
M  V30 5056 C 487.126 2.21702 3.80179 0
M  V30 5057 H 484.245 0.487593 0.55265 0
M  V30 5058 H 486.887 1.68717 0.873767 0
M  V30 5059 H 485.037 1.99055 3.33631 0
M  V30 5060 H 486.709 4.18948 1.93081 0
M  V30 5061 H 484.952 3.96827 1.75244 0
M  V30 5062 H 485.623 4.40486 3.3268 0
M  V30 5063 H 488.099 2.47805 3.34263 0
M  V30 5064 H 486.975 2.90143 4.65949 0
M  V30 5065 H 487.236 1.21301 4.25133 0
M  V30 5066 N 486.295 -0.989507 1.22664 0
M  V30 5067 C 487.711 -1.25395 0.987331 0
M  V30 5068 C 487.911 -1.9899 -0.317056 0
M  V30 5069 O 486.967 -2.30141 -1.03882 0
M  V30 5070 C 488.28 -2.06242 2.18826 0
M  V30 5071 C 489.828 -2.19413 2.23219 0
M  V30 5072 C 490.303 -3.03648 3.42873 0
M  V30 5073 N 491.794 -3.11234 3.43056 0
M  V30 5074 C 492.529 -3.7671 4.32293 0
M  V30 5075 N 492.025 -4.44085 5.31752 0
M  V30 5076 N 493.818 -3.73505 4.2006 0
M  V30 5077 H 485.969 -0.496212 2.06522 0
M  V30 5078 H 488.232 -0.281784 0.905153 0
M  V30 5079 H 487.938 -1.59531 3.13437 0
M  V30 5080 H 487.812 -3.06996 2.19165 0
M  V30 5081 H 490.199 -2.65336 1.29154 0
M  V30 5082 H 490.28 -1.18078 2.26917 0
M  V30 5083 H 489.924 -2.58424 4.37241 0
M  V30 5084 H 489.854 -4.05132 3.36416 0
M  V30 5085 H 492.345 -2.63287 2.71088 0
M  V30 5086 H 492.658 -4.91797 5.96117 0
M  V30 5087 H 491.003 -4.42822 5.35662 0
M  V30 5088 H 494.194 -3.20033 3.41609 0
M  V30 5089 H 494.367 -4.24253 4.8981 0
M  V30 5090 N 487.773 -1.03688 -1.18687 0
M  V30 5091 C 488.683 -0.634908 -2.25845 0
M  V30 5092 C 489.699 0.337065 -1.70704 0
M  V30 5093 O 490.875 0.192943 -2.00474 0
M  V30 5094 C 487.94 -0.000180054 -3.467 0
M  V30 5095 C 487.001 -1.02067 -4.1699 0
M  V30 5096 C 486.234 -0.41614 -5.32075 0
M  V30 5097 O 486.457 0.778712 -5.65059 0
M  V30 5098 O 485.391 -1.14296 -5.90948 0
M  V30 5099 H 489.217 -1.52757 -2.62486 0
M  V30 5100 H 486.802 -0.807533 -1.25695 0
M  V30 5101 H 488.684 0.353342 -4.19916 0
M  V30 5102 H 487.359 0.866367 -3.11891 0
M  V30 5103 H 486.266 -1.42592 -3.45859 0
M  V30 5104 H 487.599 -1.85786 -4.5579 0
M  V30 5105 N 489.251 1.34841 -0.815825 0
M  V30 5106 C 490.199 2.31549 -0.220888 0
M  V30 5107 C 491.193 1.5707 0.634457 0
M  V30 5108 O 492.399 1.72125 0.526589 0
M  V30 5109 H 488.774 0.750153 -0.0526782 0
M  V30 5110 H 490.745 2.7926 -1.05149 0
M  V30 5111 C 489.494 3.42335 0.608427 0
M  V30 5112 H 488.817 3.9978 -0.0404121 0
M  V30 5113 H 490.257 4.12258 0.990931 0
M  V30 5114 C 488.716 2.86173 1.77782 0
M  V30 5115 O 489.246 2.80474 2.87571 0
M  V30 5116 N 487.452 2.43093 1.59229 0
M  V30 5117 H 486.999 2.47928 0.699237 0
M  V30 5118 H 486.957 2.05866 2.37627 0
M  V30 5119 N 490.729 0.570148 1.46925 0
M  V30 5120 C 492.14 0.1402 1.86173 0
M  V30 5121 C 492.491 -1.29347 1.47526 0
M  V30 5122 O 491.616 -1.97508 0.884292 0
M  V30 5123 C 492.211 0.247661 3.37894 0
M  V30 5124 C 490.77 -0.127332 3.76185 0
M  V30 5125 C 489.917 0.589349 2.70965 0
M  V30 5126 H 492.868 0.779117 1.38259 0
M  V30 5127 H 492.889 -0.530341 3.76786 0
M  V30 5128 H 492.401 1.29121 3.65991 0
M  V30 5129 H 490.502 -1.17149 3.53704 0
M  V30 5130 H 490.615 0.240238 4.78497 0
M  V30 5131 H 488.979 0.0309824 2.54681 0
M  V30 5132 H 489.762 1.6343 3.01903 0
M  V30 5133 N 492.207 -1.54576 0.307264 0
M  V30 5134 C 493.455 -1.99867 -0.299574 0
M  V30 5135 C 493.776 -1.19714 -1.53927 0
M  V30 5136 O 493.046 -0.29472 -1.9367 0
M  V30 5137 H 491.626 -0.738299 -0.113683 0
M  V30 5138 H 494.288 -1.9032 0.420042 0
M  V30 5139 H 493.384 -3.06901 -0.567283 0
M  V30 5140 N 493.685 -0.035106 -1.57561 0
M  V30 5141 C 494.934 0.641604 -1.91223 0
M  V30 5142 C 495.247 1.72944 -0.913761 0
M  V30 5143 O 496.453 2.46321 -1.14185 0
M  V30 5144 C 494.909 1.19249 -3.3957 0
M  V30 5145 C 494.517 0.137616 -4.47789 0
M  V30 5146 C 496.261 1.84537 -3.82291 0
M  V30 5147 C 494.168 0.700478 -5.87237 0
M  V30 5148 H 493.098 0.243417 -0.713627 0
M  V30 5149 H 495.749 -0.101382 -1.8322 0
M  V30 5150 H 494.131 1.98728 -3.42525 0
M  V30 5151 H 495.305 -0.635153 -4.56402 0
M  V30 5152 H 493.62 -0.416855 -4.14308 0
M  V30 5153 H 496.217 2.27616 -4.83834 0
M  V30 5154 H 496.56 2.69054 -3.17672 0
M  V30 5155 H 497.093 1.11739 -3.81784 0
M  V30 5156 H 493.832 -0.106693 -6.55413 0
M  V30 5157 H 493.352 1.4416 -5.82218 0
M  V30 5158 H 495.031 1.18837 -6.35993 0
M  V30 5159 N 495.163 1.55791 0.238111 0
M  V30 5160 C 496.393 1.81834 0.980809 0
M  V30 5161 C 496.801 0.609741 1.79106 0
M  V30 5162 O 496.144 -0.431073 1.78571 0
M  V30 5163 C 496.206 3.01363 1.96011 0
M  V30 5164 C 495.87 4.37037 1.33597 0
M  V30 5165 C 496.867 5.14692 0.734063 0
M  V30 5166 C 494.552 4.83743 1.3527 0
M  V30 5167 C 496.546 6.37206 0.157208 0
M  V30 5168 C 494.233 6.06204 0.77199 0
M  V30 5169 C 495.231 6.82775 0.175282 0
M  V30 5170 O 494.919 8.02922 -0.396432 0
M  V30 5171 H 494.651 0.6088 0.293834 0
M  V30 5172 H 497.205 2.03702 0.263552 0
M  V30 5173 H 495.435 2.75273 2.71591 0
M  V30 5174 H 497.124 3.14422 2.56697 0
M  V30 5175 H 497.89 4.79722 0.713582 0
M  V30 5176 H 493.769 4.24129 1.80653 0
M  V30 5177 H 497.313 6.96915 -0.30917 0
M  V30 5178 H 493.21 6.4065 0.789828 0
M  V30 5179 H 493.978 8.17989 -0.289145 0
M  V30 5180 N 496.642 -0.504142 1.49319 0
M  V30 5181 C 498.053 -1.08572 1.51885 0
M  V30 5182 C 498.404 -1.93842 0.303255 0
M  V30 5183 O 497.529 -2.0828 -0.58724 0
M  V30 5184 C 498.124 -1.97574 2.75227 0
M  V30 5185 C 496.683 -2.509 2.80581 0
M  V30 5186 C 495.83 -1.28447 2.45757 0
M  V30 5187 H 498.781 -0.288194 1.56061 0
M  V30 5188 H 498.802 -2.82219 2.55211 0
M  V30 5189 H 498.314 -1.35486 3.63683 0
M  V30 5190 H 496.415 -3.16636 1.96398 0
M  V30 5191 H 496.528 -2.88268 3.82673 0
M  V30 5192 H 494.892 -1.60868 1.97468 0
M  V30 5193 H 495.675 -0.68072 3.36483 0
M  V30 5194 N 498.12 -1.38341 -0.754957 0
M  V30 5195 C 499.531 -1.30803 -1.3322 0
M  V30 5196 C 499.882 0.0368 -1.96165 0
M  V30 5197 O 499.007 0.938844 -1.94974 0
M  V30 5198 C 499.602 -2.3688 -2.42225 0
M  V30 5199 C 498.161 -2.32925 -2.95674 0
M  V30 5200 C 497.308 -2.19819 -1.69042 0
M  V30 5201 H 500.259 -1.48719 -0.553937 0
M  V30 5202 H 500.28 -2.02517 -3.22129 0
M  V30 5203 H 499.792 -3.34747 -1.96383 0
M  V30 5204 H 497.893 -1.38635 -3.45848 0
M  V30 5205 H 498.006 -3.27008 -3.50146 0
M  V30 5206 H 496.37 -1.66648 -1.92615 0
M  V30 5207 H 497.153 -3.19625 -1.25279 0
M  V30 5208 N 499.598 0.982988 -1.23187 0
M  V30 5209 C 500.561 2.05649 -1.01198 0
M  V30 5210 C 501.561 1.6078 0.0252464 0
M  V30 5211 O 502.751 1.72878 -0.214243 0
M  V30 5212 C 499.883 3.36744 -0.530656 0
M  V30 5213 H 501.076 2.2659 -1.96461 0
M  V30 5214 H 498.629 1.15602 -1.05195 0
M  V30 5215 H 499.364 3.21492 0.425873 0
M  V30 5216 H 499.149 3.7065 -1.2791 0
M  V30 5217 H 500.639 4.15705 -0.397366 0
M  V30 5218 N 501.076 1.04316 1.18135 0
M  V30 5219 C 502.353 0.662166 1.84051 0
M  V30 5220 C 502.733 -0.858169 1.9287 0
M  V30 5221 O 502.081 -1.76062 1.45652 0
M  V30 5222 C 502.291 1.3409 3.22212 0
M  V30 5223 C 503.639 1.4733 3.9822 0
M  V30 5224 O 504.663 1.29921 3.31661 0
M  V30 5225 O 503.522 1.75722 5.17479 0
M  V30 5226 H 500.616 0.232005 0.79379 0
M  V30 5227 H 503.162 1.1422 1.25506 0
M  V30 5228 H 501.934 2.37853 3.10711 0
M  V30 5229 H 501.557 0.849649 3.88416 0
M  V30 5230 N 502.554 -1.34406 0.822964 0
M  V30 5231 C 503.8 -1.98578 0.411666 0
M  V30 5232 C 504.133 -1.65093 -1.02264 0
M  V30 5233 O 503.408 -0.92258 -1.71227 0
M  V30 5234 C 503.691 -3.54823 0.614235 0
M  V30 5235 C 503.544 -3.9805 2.09466 0
M  V30 5236 C 504.863 -4.40071 0.050221 0
M  V30 5237 H 501.982 -0.721355 0.151047 0
M  V30 5238 H 504.624 -1.59301 1.03554 0
M  V30 5239 H 502.774 -3.88411 0.0831774 0
M  V30 5240 H 504.446 -3.74795 2.68936 0
M  V30 5241 H 502.689 -3.4836 2.5851 0
M  V30 5242 H 503.36 -5.06819 2.18721 0
M  V30 5243 H 505.836 -4.13037 0.503953 0
M  V30 5244 H 504.712 -5.48452 0.221759 0
M  V30 5245 H 504.973 -4.29576 -1.04482 0
M  V30 5246 N 504.032 -0.577932 -1.46621 0
M  V30 5247 C 505.448 -0.239242 -1.57797 0
M  V30 5248 C 505.648 1.25843 -1.57371 0
M  V30 5249 O 504.704 2.03988 -1.48813 0
M  V30 5250 C 506.017 -0.884227 -2.87405 0
M  V30 5251 C 507.565 -0.857373 -3.01028 0
M  V30 5252 C 508.04 -1.48181 -4.33366 0
M  V30 5253 N 509.531 -1.44593 -4.40053 0
M  V30 5254 C 510.266 -1.89852 -5.41058 0
M  V30 5255 N 509.762 -2.43062 -6.48762 0
M  V30 5256 N 511.555 -1.80797 -5.3223 0
M  V30 5257 H 503.706 -1.55073 -1.45142 0
M  V30 5258 H 505.969 -0.647903 -0.692044 0
M  V30 5259 H 505.675 -1.93759 -2.93514 0
M  V30 5260 H 505.549 -0.389585 -3.75183 0
M  V30 5261 H 507.936 0.187357 -2.94505 0
M  V30 5262 H 508.017 -1.38999 -2.14739 0
M  V30 5263 H 507.661 -2.52572 -4.40647 0
M  V30 5264 H 507.591 -0.924464 -5.18422 0
M  V30 5265 H 510.082 -1.05694 -3.62819 0
M  V30 5266 H 510.395 -2.75466 -7.22038 0
M  V30 5267 H 508.74 -2.47085 -6.49595 0
M  V30 5268 H 511.931 -1.38989 -4.46989 0
M  V30 5269 H 512.104 -2.16385 -6.10804 0
M  V30 5270 N 505.51 1.54411 -0.315457 0
M  V30 5271 C 506.473 2.22713 0.54142 0
M  V30 5272 C 507.473 1.2179 1.04995 0
M  V30 5273 O 508.663 1.46426 0.943667 0
M  V30 5274 C 505.795 2.92485 1.75116 0
M  V30 5275 H 506.988 2.99849 -0.0555508 0
M  V30 5276 H 504.541 1.56159 -0.0664453 0
M  V30 5277 H 505.276 2.19466 2.38758 0
M  V30 5278 H 505.061 3.66483 1.39401 0
M  V30 5279 H 506.551 3.44548 2.35959 0
M  V30 5280 N 506.988 0.0434614 1.5754 0
M  V30 5281 C 507.935 -0.93356 2.11077 0
M  V30 5282 C 508.905 -1.31383 1.01626 0
M  V30 5283 O 510.09 -1.40465 1.29129 0
M  V30 5284 C 507.23 -2.20578 2.65404 0
M  V30 5285 C 506.343 -1.88068 3.88914 0
M  V30 5286 C 505.478 -3.09691 4.31584 0
M  V30 5287 C 504.517 -2.73067 5.47815 0
M  V30 5288 N 503.654 -3.87359 5.85574 0
M  V30 5289 H 508.494 -0.470118 2.94268 0
M  V30 5290 H 506.031 -0.220434 1.45439 0
M  V30 5291 H 507.989 -2.95011 2.94999 0
M  V30 5292 H 506.619 -2.64513 1.85021 0
M  V30 5293 H 505.671 -1.03816 3.6596 0
M  V30 5294 H 506.983 -1.57104 4.73413 0
M  V30 5295 H 506.137 -3.92431 4.62691 0
M  V30 5296 H 504.876 -3.43827 3.45882 0
M  V30 5297 H 503.881 -1.88742 5.16388 0
M  V30 5298 H 505.106 -2.40131 6.35227 0
M  V30 5299 H 503.052 -4.21311 5.02825 0
M  V30 5300 H 502.969 -3.60068 6.64746 0
M  V30 5301 H 504.237 -4.70761 6.21292 0
M  V30 5302 N 508.466 -1.55915 -0.229846 0
M  V30 5303 C 509.396 -1.94754 -1.28815 0
M  V30 5304 C 510.377 -0.814657 -1.49323 0
M  V30 5305 O 511.562 -1.07631 -1.61645 0
M  V30 5306 C 508.692 -2.25705 -2.63959 0
M  V30 5307 C 507.646 -3.41406 -2.5812 0
M  V30 5308 C 506.972 -3.57941 -3.97218 0
M  V30 5309 C 508.272 -4.76616 -2.13623 0
M  V30 5310 H 509.966 -2.83404 -0.965547 0
M  V30 5311 H 507.512 -1.36353 -0.463028 0
M  V30 5312 H 509.465 -2.51467 -3.38146 0
M  V30 5313 H 508.189 -1.339 -2.9789 0
M  V30 5314 H 506.848 -3.1568 -1.86391 0
M  V30 5315 H 506.496 -2.63526 -4.28443 0
M  V30 5316 H 506.196 -4.35757 -3.94195 0
M  V30 5317 H 507.72 -3.86042 -4.73079 0
M  V30 5318 H 509.134 -5.01637 -2.77549 0
M  V30 5319 H 507.531 -5.57655 -2.21677 0
M  V30 5320 H 508.601 -4.7253 -1.08829 0
M  V30 5321 N 509.944 0.496216 -1.49584 0
M  V30 5322 C 511.191 1.25003 -1.59312 0
M  V30 5323 C 511.519 1.92445 -0.28198 0
M  V30 5324 O 510.774 1.81557 0.730452 0
M  V30 5325 C 511.073 2.3359 -2.705 0
M  V30 5326 C 510.739 1.83574 -4.11839 0
M  V30 5327 C 509.401 1.69653 -4.50302 0
M  V30 5328 C 511.753 1.46193 -5.00277 0
M  V30 5329 C 509.081 1.16736 -5.74969 0
M  V30 5330 C 511.433 0.947265 -6.25468 0
M  V30 5331 C 510.097 0.794485 -6.62755 0
M  V30 5332 H 509.367 0.45742 -0.582965 0
M  V30 5333 H 512.014 0.549996 -1.83432 0
M  V30 5334 H 510.319 3.09401 -2.40371 0
M  V30 5335 H 512.016 2.91627 -2.75235 0
M  V30 5336 H 508.606 1.9537 -3.81482 0
M  V30 5337 H 512.79 1.55793 -4.71214 0
M  V30 5338 H 508.046 1.03623 -6.02555 0
M  V30 5339 H 512.22 0.648846 -6.93371 0
M  V30 5340 H 509.847 0.382271 -7.59238 0
M  V30 5341 N 511.423 1.38739 0.74761 0
M  V30 5342 C 512.651 1.38521 1.53686 0
M  V30 5343 C 513.066 -0.0235129 1.88785 0
M  V30 5344 O 512.423 -0.991662 1.53207 0
M  V30 5345 C 512.474 2.24641 2.83229 0
M  V30 5346 O 512.195 3.60026 2.49625 0
M  V30 5347 C 513.696 2.32669 3.77333 0
M  V30 5348 H 510.916 0.473589 0.475347 0
M  V30 5349 H 513.46 1.82395 0.924786 0
M  V30 5350 H 511.615 1.84213 3.40799 0
M  V30 5351 H 512.029 4.05435 3.3275 0
M  V30 5352 H 513.503 2.97201 4.65162 0
M  V30 5353 H 513.98 1.3421 4.18192 0
M  V30 5354 H 514.586 2.73512 3.25685 0
M  V30 5355 N 512.901 -0.976442 1.23707 0
M  V30 5356 C 513.831 -2.08749 1.04624 0
M  V30 5357 C 514.812 -1.70057 -0.0380956 0
M  V30 5358 O 515.997 -1.93782 0.127308 0
M  V30 5359 C 513.127 -3.41335 0.640902 0
M  V30 5360 C 512.081 -3.93947 1.67302 0
M  V30 5361 C 511.407 -5.22774 1.12301 0
M  V30 5362 C 512.707 -4.22769 3.06697 0
M  V30 5363 H 514.401 -2.24972 1.97555 0
M  V30 5364 H 511.947 -1.08108 0.951247 0
M  V30 5365 H 513.9 -4.18489 0.494434 0
M  V30 5366 H 512.624 -3.24988 -0.324099 0
M  V30 5367 H 511.283 -3.18941 1.80755 0
M  V30 5368 H 510.931 -5.0278 0.148877 0
M  V30 5369 H 510.631 -5.58942 1.81267 0
M  V30 5370 H 512.155 -6.02546 0.988479 0
M  V30 5371 H 513.569 -4.90659 2.96524 0
M  V30 5372 H 511.966 -4.70147 3.72937 0
M  V30 5373 H 513.036 -3.29885 3.55392 0
M  V30 5374 N 514.379 -1.04941 -1.1758 0
M  V30 5375 C 515.326 -0.648155 -2.21512 0
M  V30 5376 C 516.296 0.348431 -1.62404 0
M  V30 5377 O 517.481 0.240419 -1.89279 0
M  V30 5378 C 514.621 -0.0264291 -3.4509 0
M  V30 5379 C 513.734 -1.07154 -4.185 0
M  V30 5380 C 512.869 -0.417403 -5.29558 0
M  V30 5381 C 511.908 -1.447 -5.94751 0
M  V30 5382 N 511.045 -0.817203 -6.97328 0
M  V30 5383 H 515.885 -1.53891 -2.55189 0
M  V30 5384 H 513.422 -0.769699 -1.25356 0
M  V30 5385 H 515.38 0.351456 -4.15717 0
M  V30 5386 H 514.01 0.827802 -3.12005 0
M  V30 5387 H 513.062 -1.56728 -3.46613 0
M  V30 5388 H 514.374 -1.8532 -4.63096 0
M  V30 5389 H 513.528 0.0142061 -6.06698 0
M  V30 5390 H 512.267 0.396265 -4.86087 0
M  V30 5391 H 511.272 -1.88865 -5.16343 0
M  V30 5392 H 512.497 -2.26252 -6.40302 0
M  V30 5393 H 510.443 -0.0239995 -6.55996 0
M  V30 5394 H 510.36 -1.53644 -7.40223 0
M  V30 5395 H 511.628 -0.410283 -7.7842 0
M  V30 5396 N 515.857 1.33968 -0.830081 0
M  V30 5397 C 517.103 1.98357 -0.422191 0
M  V30 5398 C 517.436 1.65633 1.01387 0
M  V30 5399 O 516.711 0.931648 1.70735 0
M  V30 5400 C 516.994 3.54492 -0.633043 0
M  V30 5401 C 516.847 3.96934 -2.11574 0
M  V30 5402 C 518.166 4.40039 -0.0735584 0
M  V30 5403 H 515.285 0.720544 -0.154871 0
M  V30 5404 H 517.927 1.58749 -1.04397 0
M  V30 5405 H 516.077 3.88361 -0.103775 0
M  V30 5406 H 517.749 3.73363 -2.7092 0
M  V30 5407 H 515.992 3.46984 -2.60354 0
M  V30 5408 H 516.663 5.05651 -2.21406 0
M  V30 5409 H 519.139 4.12764 -0.52585 0
M  V30 5410 H 518.015 5.48327 -0.250841 0
M  V30 5411 H 518.276 4.30124 1.02202 0
M  V30 5412 N 517.335 0.585699 1.46312 0
M  V30 5413 C 518.267 -0.183687 2.28463 0
M  V30 5414 C 519.28 -0.85264 1.38686 0
M  V30 5415 O 520.469 -0.721701 1.6326 0
M  V30 5416 C 517.569 -1.27977 3.13808 0
M  V30 5417 C 516.742 -0.702164 4.31727 0
M  V30 5418 C 515.801 -1.68633 4.98447 0
M  V30 5419 O 514.827 -1.22121 5.55945 0
M  V30 5420 N 516.029 -3.02047 4.95729 0
M  V30 5421 H 518.794 0.521127 2.95134 0
M  V30 5422 H 516.355 0.423673 1.56258 0
M  V30 5423 H 518.347 -1.9375 3.55307 0
M  V30 5424 H 516.917 -1.8874 2.4919 0
M  V30 5425 H 516.137 0.1331 3.93975 0
M  V30 5426 H 517.425 -0.296101 5.07938 0
M  V30 5427 H 516.823 -3.42457 4.50266 0
M  V30 5428 H 515.38 -3.63301 5.41161 0
M  V30 5429 N 518.813 -1.54241 0.323641 0
M  V30 5430 C 520.09 -1.92741 -0.333181 0
M  V30 5431 C 520.47 -1.25326 -1.69872 0
M  V30 5432 O 519.818 -0.396991 -2.25025 0
M  V30 5433 C 520.028 -3.46399 -0.425322 0
M  V30 5434 C 521.376 -4.19029 -0.68557 0
M  V30 5435 O 522.4 -3.52555 -0.50824 0
M  V30 5436 O 521.259 -5.36751 -1.02767 0
M  V30 5437 H 518.353 -0.804811 -0.190286 0
M  V30 5438 H 520.899 -1.65542 0.373361 0
M  V30 5439 H 519.671 -3.87643 0.533737 0
M  V30 5440 H 519.294 -3.79704 -1.17944 0
M  V30 5441 N 520.291 -0.0518155 -1.57515 0
M  V30 5442 C 521.702 0.483787 -1.80323 0
M  V30 5443 C 522.053 1.70879 -0.964099 0
M  V30 5444 O 521.178 2.15643 -0.180872 0
M  V30 5445 C 521.773 0.884459 -3.27052 0
M  V30 5446 C 520.332 1.36504 -3.50776 0
M  V30 5447 C 519.479 0.340539 -2.75201 0
M  V30 5448 H 522.43 -0.277691 -1.56252 0
M  V30 5449 H 522.451 1.74733 -3.38007 0
M  V30 5450 H 521.963 -0.00731093 -3.88099 0
M  V30 5451 H 520.064 2.27598 -2.95009 0
M  V30 5452 H 520.177 1.35675 -4.59488 0
M  V30 5453 H 518.541 0.81356 -2.41357 0
M  V30 5454 H 519.324 -0.543156 -3.38976 0
M  V30 5455 N 521.769 1.56035 0.221574 0
M  V30 5456 C 522.716 1.92413 1.27459 0
M  V30 5457 C 523.686 0.781323 1.46576 0
M  V30 5458 O 524.871 1.03721 1.60145 0
M  V30 5459 C 522.011 2.24617 2.61995 0
M  V30 5460 C 521.124 3.51831 2.50677 0
M  V30 5461 C 520.259 3.73482 3.77736 0
M  V30 5462 C 519.298 4.94211 3.6114 0
M  V30 5463 N 518.435 5.12252 4.80148 0
M  V30 5464 H 523.275 2.82203 0.957355 0
M  V30 5465 H 520.812 1.39676 0.461415 0
M  V30 5466 H 522.77 2.41298 3.40339 0
M  V30 5467 H 521.4 1.38 2.91815 0
M  V30 5468 H 520.452 3.43343 1.63767 0
M  V30 5469 H 521.764 4.40328 2.34334 0
M  V30 5470 H 520.918 3.9026 4.64523 0
M  V30 5471 H 519.657 2.83266 3.97003 0
M  V30 5472 H 518.662 4.77384 2.72736 0
M  V30 5473 H 519.887 5.85912 3.43343 0
M  V30 5474 H 517.833 4.24978 4.99729 0
M  V30 5475 H 517.75 5.94881 4.66532 0
M  V30 5476 H 519.018 5.33465 5.68362 0
M  V30 5477 N 523.247 -0.488276 1.49845 0
M  V30 5478 C 524.496 -1.23826 1.59217 0
M  V30 5479 C 524.809 -1.93439 0.289966 0
M  V30 5480 O 526.015 -2.70229 0.262382 0
M  V30 5481 C 524.471 -2.24902 2.80976 0
M  V30 5482 C 524.079 -1.6117 4.18005 0
M  V30 5483 C 525.823 -3.00648 2.99685 0
M  V30 5484 C 523.73 -2.60431 5.3097 0
M  V30 5485 H 522.66 -0.465858 0.592868 0
M  V30 5486 H 525.311 -0.510645 1.76252 0
M  V30 5487 H 523.693 -3.0088 2.57463 0
M  V30 5488 H 524.867 -0.910968 4.51706 0
M  V30 5489 H 523.182 -0.97767 4.0476 0
M  V30 5490 H 525.779 -3.74903 3.81251 0
M  V30 5491 H 526.122 -3.5902 2.10738 0
M  V30 5492 H 526.655 -2.31784 3.23297 0
M  V30 5493 H 523.394 -2.06823 6.22017 0
M  V30 5494 H 522.914 -3.28707 5.01709 0
M  V30 5495 H 524.593 -3.22606 5.60834 0
M  V30 5496 N 524.725 -1.39134 -0.740242 0
M  V30 5497 C 526.002 -1.26584 -1.49117 0
M  V30 5498 C 526.382 0.126902 -2.10718 0
M  V30 5499 O 525.73 1.13765 -1.98166 0
M  V30 5500 C 525.94 -2.38619 -2.54681 0
M  V30 5501 C 527.288 -2.77685 -3.21211 0
M  V30 5502 O 528.312 -2.38029 -2.64991 0
M  V30 5503 O 527.171 -3.46115 -4.22926 0
M  V30 5504 H 524.265 -0.495769 -0.661923 0
M  V30 5505 H 526.811 -1.50995 -0.774514 0
M  V30 5506 H 525.583 -3.3175 -2.07504 0
M  V30 5507 H 525.206 -2.15845 -3.33911 0
M  V30 5508 N 526.204 0.969867 -1.24223 0
M  V30 5509 C 527.62 1.23809 -1.00716 0
M  V30 5510 C 527.82 1.99469 0.285358 0
M  V30 5511 O 526.876 2.31764 1.00207 0
M  V30 5512 C 528.189 2.02734 -2.2208 0
M  V30 5513 C 529.737 2.15834 -2.26681 0
M  V30 5514 C 530.212 2.98154 -3.47661 0
M  V30 5515 N 531.703 3.05737 -3.47964 0
M  V30 5516 C 532.438 3.69785 -4.38231 0
M  V30 5517 N 531.934 4.35569 -5.3875 0
M  V30 5518 N 533.727 3.66775 -4.25949 0
M  V30 5519 H 525.878 0.463294 -2.07286 0
M  V30 5520 H 528.141 0.267348 -0.909521 0
M  V30 5521 H 527.847 1.54524 -3.15935 0
M  V30 5522 H 527.721 3.0347 -2.24021 0
M  V30 5523 H 530.108 2.63248 -1.33359 0
M  V30 5524 H 530.189 1.14453 -2.28767 0
M  V30 5525 H 529.833 2.51435 -4.41297 0
M  V30 5526 H 529.763 3.99729 -3.42818 0
M  V30 5527 H 532.254 2.58941 -2.75242 0
M  V30 5528 H 532.567 4.82251 -6.03866 0
M  V30 5529 H 530.912 4.34244 -5.42639 0
M  V30 5530 H 534.103 3.14558 -3.46657 0
M  V30 5531 H 534.276 4.16407 -4.96497 0
M  V30 5532 N 527.682 1.05563 1.17022 0
M  V30 5533 C 528.928 0.769074 1.87652 0
M  V30 5534 C 529.261 -0.702326 1.81055 0
M  V30 5535 O 528.536 -1.5139 1.22112 0
M  V30 5536 C 528.819 1.25492 3.37526 0
M  V30 5537 C 528.672 2.78953 3.52853 0
M  V30 5538 C 529.991 0.856919 4.31677 0
M  V30 5539 H 527.11 0.280854 0.681388 0
M  V30 5540 H 529.752 1.31027 1.37593 0
M  V30 5541 H 527.902 0.794516 3.80289 0
M  V30 5542 H 529.574 3.33146 3.19079 0
M  V30 5543 H 527.817 3.18046 2.95007 0
M  V30 5544 H 528.488 3.08011 4.58076 0
M  V30 5545 H 530.964 1.25334 3.96775 0
M  V30 5546 H 529.84 1.22443 5.35069 0
M  V30 5547 H 530.101 -0.238787 4.41455 0
M  V30 5548 N 529.16 -1.33526 0.837174 0
M  V30 5549 C 530.576 -1.50727 0.524743 0
M  V30 5550 C 530.776 -1.77792 -0.948279 0
M  V30 5551 O 529.832 -1.83719 -1.73216 0
M  V30 5552 C 531.145 -2.66299 1.39661 0
M  V30 5553 C 532.693 -2.80183 1.39521 0
M  V30 5554 C 533.168 -3.98815 2.25189 0
M  V30 5555 N 534.659 -4.06047 2.2289 0
M  V30 5556 C 535.394 -4.97032 2.85915 0
M  V30 5557 N 534.89 -5.93143 3.57985 0
M  V30 5558 N 536.683 -4.90015 2.75394 0
M  V30 5559 H 528.834 -1.1422 1.79074 0
M  V30 5560 H 531.097 -0.561399 0.763894 0
M  V30 5561 H 530.803 -2.52974 2.4433 0
M  V30 5562 H 530.677 -3.61663 1.07145 0
M  V30 5563 H 533.064 -2.92942 0.356253 0
M  V30 5564 H 533.145 -1.85586 1.76044 0
M  V30 5565 H 532.789 -3.86817 3.29143 0
M  V30 5566 H 532.719 -4.92654 1.86009 0
M  V30 5567 H 535.21 -3.37262 1.70478 0
M  V30 5568 H 535.523 -6.59227 4.03286 0
M  V30 5569 H 533.868 -5.93223 3.62093 0
M  V30 5570 H 537.059 -4.13894 2.18654 0
M  V30 5571 H 537.232 -5.60724 3.24796 0
M  V30 5572 N 530.638 -0.59345 -1.46 0
M  V30 5573 C 531.866 -0.0890934 -2.06708 0
M  V30 5574 C 532.281 1.2205 -1.44046 0
M  V30 5575 O 531.638 1.74029 -0.549551 0
M  V30 5576 C 531.689 0.0720263 -3.61428 0
M  V30 5577 O 531.41 -1.18574 -4.21748 0
M  V30 5578 C 532.911 0.609487 -4.3909 0
M  V30 5579 H 530.131 -0.0623628 -0.668096 0
M  V30 5580 H 532.675 -0.817171 -1.87464 0
M  V30 5581 H 530.83 0.750369 -3.80063 0
M  V30 5582 H 531.244 -1.0064 -5.14754 0
M  V30 5583 H 532.718 0.671363 -5.47902 0
M  V30 5584 H 533.195 1.62878 -4.07882 0
M  V30 5585 H 533.801 -0.03434 -4.25286 0
M  V30 5586 N 532.116 1.54067 -0.331816 0
M  V30 5587 C 533.532 1.59587 0.0205388 0
M  V30 5588 C 533.732 1.34813 1.49759 0
M  V30 5589 O 532.788 1.13661 2.25471 0
M  V30 5590 C 534.101 2.97959 -0.405103 0
M  V30 5591 C 535.649 3.10964 -0.356454 0
M  V30 5592 C 536.124 4.51694 -0.757384 0
M  V30 5593 N 537.615 4.57709 -0.71111 0
M  V30 5594 C 538.35 5.64729 -0.993427 0
M  V30 5595 N 537.846 6.79652 -1.3433 0
M  V30 5596 N 539.639 5.54546 -0.918442 0
M  V30 5597 H 531.79 1.68426 -1.29407 0
M  V30 5598 H 534.053 0.78819 -0.526745 0
M  V30 5599 H 533.759 3.21115 -1.43451 0
M  V30 5600 H 533.633 3.76524 0.225692 0
M  V30 5601 H 536.02 2.87538 0.663763 0
M  V30 5602 H 536.101 2.34484 -1.02229 0
M  V30 5603 H 535.745 4.75853 -1.77555 0
M  V30 5604 H 535.675 5.26555 -0.0691444 0
M  V30 5605 H 538.166 3.75176 -0.452883 0
M  V30 5606 H 538.479 7.57221 -1.54388 0
M  V30 5607 H 536.824 6.81128 -1.38164 0
M  V30 5608 H 540.015 4.63641 -0.644536 0
M  V30 5609 H 540.188 6.37861 -1.14181 0
M  V30 5610 N 533.594 0.0601682 1.57485 0
M  V30 5611 C 534.557 -0.896373 2.10945 0
M  V30 5612 C 535.557 -1.23402 1.03095 0
M  V30 5613 O 536.747 -1.16921 1.29132 0
M  V30 5614 C 533.879 -2.20346 2.60116 0
M  V30 5615 H 535.072 -0.432778 2.96761 0
M  V30 5616 H 532.625 -0.188372 1.55161 0
M  V30 5617 H 533.36 -2.71268 1.7772 0
M  V30 5618 H 533.145 -1.9714 3.38937 0
M  V30 5619 H 534.635 -2.88846 3.01592 0
M  V30 5620 N 535.072 -1.5615 -0.213296 0
M  V30 5621 C 536.318 -1.80718 -0.933402 0
M  V30 5622 C 536.673 -0.634441 -1.81639 0
M  V30 5623 O 535.966 0.371182 -1.8797 0
M  V30 5624 C 536.16 -3.08772 -1.79985 0
M  V30 5625 C 535.989 -4.38389 -1.00224 0
M  V30 5626 C 534.759 -5.00513 -0.693885 0
M  V30 5627 C 536.957 -5.13013 -0.363598 0
M  V30 5628 N 534.939 -6.13774 0.124266 0
M  V30 5629 C 536.31 -6.19186 0.31757 0
M  V30 5630 C 538.365 -4.97126 -0.277468 0
M  V30 5631 C 537.068 -7.11197 1.07664 0
M  V30 5632 C 539.094 -5.89544 0.468155 0
M  V30 5633 C 538.456 -6.95149 1.13784 0
M  V30 5634 H 534.555 -0.712833 -0.321549 0
M  V30 5635 H 537.139 -1.93633 -0.203588 0
M  V30 5636 H 535.31 -2.97126 -2.50142 0
M  V30 5637 H 537.042 -3.21499 -2.45806 0
M  V30 5638 H 533.797 -4.62619 -1.01391 0
M  V30 5639 H 534.221 -6.74981 0.522418 0
M  V30 5640 H 538.863 -4.15526 -0.78087 0
M  V30 5641 H 536.581 -7.92273 1.59153 0
M  V30 5642 H 540.167 -5.79327 0.535911 0
M  V30 5643 H 539.047 -7.65428 1.70557 0
M  V30 5644 N 536.55 0.480323 -1.50102 0
M  V30 5645 C 537.778 1.25657 -1.64371 0
M  V30 5646 C 538.193 1.86011 -0.323316 0
M  V30 5647 O 537.55 1.68803 0.693682 0
M  V30 5648 C 537.601 2.37197 -2.728 0
M  V30 5649 O 537.322 1.7932 -3.9972 0
M  V30 5650 C 538.823 3.2823 -2.9796 0
M  V30 5651 H 536.043 0.380369 -0.552775 0
M  V30 5652 H 538.587 0.574379 -1.96268 0
M  V30 5653 H 536.742 3.01208 -2.43623 0
M  V30 5654 H 537.156 2.52701 -4.59611 0
M  V30 5655 H 538.63 4.02725 -3.77513 0
M  V30 5656 H 539.107 3.86462 -2.08671 0
M  V30 5657 H 539.713 2.69964 -3.28633 0
M  V30 5658 N 538.028 1.39524 0.732853 0
M  V30 5659 C 538.975 1.38416 1.84688 0
M  V30 5660 C 539.945 0.243539 1.64305 0
M  V30 5661 O 541.13 0.438979 1.85681 0
M  V30 5662 C 538.27 1.23555 3.22224 0
M  V30 5663 C 537.383 2.47179 3.54298 0
M  V30 5664 C 536.518 2.2489 4.81246 0
M  V30 5665 C 535.557 3.44178 5.0617 0
M  V30 5666 N 534.694 3.21192 6.24323 0
M  V30 5667 H 539.534 2.33645 1.84971 0
M  V30 5668 H 537.071 1.16059 0.903804 0
M  V30 5669 H 539.029 1.12949 4.0162 0
M  V30 5670 H 537.659 0.31954 3.21215 0
M  V30 5671 H 536.711 2.68379 2.69587 0
M  V30 5672 H 538.023 3.36022 3.68633 0
M  V30 5673 H 537.177 2.11538 5.68627 0
M  V30 5674 H 535.916 1.33443 4.69089 0
M  V30 5675 H 534.921 3.58025 4.17251 0
M  V30 5676 H 536.146 4.36528 5.20212 0
M  V30 5677 H 534.092 2.32413 6.1345 0
M  V30 5678 H 534.009 4.03594 6.39256 0
M  V30 5679 H 535.277 3.1154 7.14537 0
M  V30 5680 N 539.506 -0.963266 1.24736 0
M  V30 5681 C 540.752 -1.70933 1.09131 0
M  V30 5682 C 541.085 -1.90676 -0.368273 0
M  V30 5683 O 540.36 -1.47147 -1.27193 0
M  V30 5684 C 540.643 -3.09744 1.83658 0
M  V30 5685 C 540.496 -2.97465 3.37394 0
M  V30 5686 C 541.815 -4.09483 1.61282 0
M  V30 5687 H 538.934 -0.620398 0.397838 0
M  V30 5688 H 541.576 -1.12028 1.53459 0
M  V30 5689 H 539.726 -3.60031 1.4598 0
M  V30 5690 H 541.398 -2.54571 3.84696 0
M  V30 5691 H 539.641 -2.33576 3.65547 0
M  V30 5692 H 540.312 -3.95822 3.84745 0
M  V30 5693 H 542.788 -3.68073 1.94066 0
M  V30 5694 H 541.664 -5.04666 2.15878 0
M  V30 5695 H 541.925 -4.38639 0.552102 0
M  V30 5696 N 540.985 -1.06182 -1.16461 0
M  V30 5697 C 541.932 -0.671613 -2.20812 0
M  V30 5698 C 542.902 0.331186 -1.62765 0
M  V30 5699 O 544.087 0.22033 -1.89524 0
M  V30 5700 C 541.227 -0.063029 -3.45042 0
M  V30 5701 C 540.34 -1.11587 -4.1734 0
M  V30 5702 C 539.475 -0.473546 -5.29085 0
M  V30 5703 C 538.514 -1.51 -5.93182 0
M  V30 5704 N 537.651 -0.891118 -6.96422 0
M  V30 5705 H 542.491 -1.56589 -2.53542 0
M  V30 5706 H 540.028 -0.782951 -1.24532 0
M  V30 5707 H 541.986 0.307344 -4.16066 0
M  V30 5708 H 540.616 0.794663 -3.12866 0
M  V30 5709 H 539.668 -1.60396 -3.44931 0
M  V30 5710 H 540.98 -1.90221 -4.61104 0
M  V30 5711 H 540.134 -0.0501432 -6.06679 0
M  V30 5712 H 538.873 0.344687 -4.8648 0
M  V30 5713 H 537.878 -1.94331 -5.14311 0
M  V30 5714 H 539.103 -2.33031 -6.37866 0
M  V30 5715 H 537.049 -0.0935753 -6.55933 0
M  V30 5716 H 536.966 -1.61486 -7.38551 0
M  V30 5717 H 538.234 -0.492822 -7.77941 0
M  V30 5718 N 542.463 1.3308 -0.844243 0
M  V30 5719 C 543.688 2.02341 -0.455282 0
M  V30 5720 C 544.113 1.6308 0.93737 0
M  V30 5721 O 543.471 0.826118 1.61385 0
M  V30 5722 C 543.519 3.55743 -0.58988 0
M  V30 5723 O 542.623 4.1063 0.38166 0
M  V30 5724 H 541.964 0.637898 -0.184343 0
M  V30 5725 H 544.494 1.6986 -1.14056 0
M  V30 5726 H 544.504 4.05243 -0.473522 0
M  V30 5727 H 543.179 3.83662 -1.60549 0
M  V30 5728 H 541.756 3.72236 0.22241 0
M  V30 5729 N 543.941 0.601185 1.45683 0
M  V30 5730 C 545.189 0.0936957 2.01883 0
M  V30 5731 C 545.51 -1.2779 1.47291 0
M  V30 5732 O 544.78 -1.84279 0.664691 0
M  V30 5733 H 543.36 0.0316466 0.746329 0
M  V30 5734 H 546.022 0.781137 1.78562 0
M  V30 5735 H 545.118 0.0386297 3.12076 0
M  V30 5736 N 545.419 -1.53889 0.339982 0
M  V30 5737 C 546.366 -2.24902 -0.518452 0
M  V30 5738 C 547.336 -1.24593 -1.09844 0
M  V30 5739 O 548.521 -1.53317 -1.13572 0
M  V30 5740 C 545.661 -3.02262 -1.66529 0
M  V30 5741 C 544.774 -4.17418 -1.11295 0
M  V30 5742 C 543.909 -4.82273 -2.2268 0
M  V30 5743 C 542.948 -5.89503 -1.6478 0
M  V30 5744 N 542.085 -6.48153 -2.69893 0
M  V30 5745 H 546.925 -2.97853 0.0936579 0
M  V30 5746 H 544.462 -1.46986 0.0579924 0
M  V30 5747 H 546.42 -3.45371 -2.3404 0
M  V30 5748 H 545.05 -2.31614 -2.24844 0
M  V30 5749 H 544.102 -3.78976 -0.328886 0
M  V30 5750 H 545.414 -4.94554 -0.649414 0
M  V30 5751 H 544.568 -5.28435 -2.98063 0
M  V30 5752 H 543.307 -4.04552 -2.72376 0
M  V30 5753 H 542.312 -5.42728 -0.879004 0
M  V30 5754 H 543.537 -6.6913 -1.1594 0
M  V30 5755 H 541.483 -5.73298 -3.1885 0
M  V30 5756 H 541.4 -7.20752 -2.28151 0
M  V30 5757 H 542.668 -6.98968 -3.45056 0
M  V30 5758 O 546.936 -0.208127 -1.60153 0
M  V30 5759 H 547.627 0.374888 -1.90038 0
M  V30 END ATOM
M  V30 BEGIN BOND
M  V30 END BOND
M  V30 END CTAB
M  END
$$$$
