drugbank_target|P49759 Dual specificity protein kinase CLK1 (DB04367; DB06376; DB08691; DB12010)
 OpenBabel12092120003D

  0  0  0     0  0            999 V3000
M  V30 BEGIN CTAB
M  V30 COUNTS 7947 8051 0 0 0
M  V30 BEGIN ATOM
M  V30 1 H -0.908 1.98254 -0.117106 0
M  V30 2 N 0 1.576 0 0
M  V30 3 C 0.933 2.03868 1.02534 0
M  V30 4 C 1.911 0.928543 1.3348 0
M  V30 5 O 3.095 1.19667 1.45644 0
M  V30 6 C 0.222 2.43627 2.35294 0
M  V30 7 C -0.732 3.65373 2.2001 0
M  V30 8 S 0.101 5.13292 1.52614 0
M  V30 9 C 1.257 5.56322 2.86805 0
M  V30 10 H 1.49 2.90518 0.631377 0
M  V30 11 H -0.977 1.52953 0.210867 0
M  V30 12 H 0.981 2.67203 3.11629 0
M  V30 13 H -0.358 1.57376 2.7183 0
M  V30 14 H -1.165 3.90944 3.18086 0
M  V30 15 H -1.563 3.418 1.51819 0
M  V30 16 H 0.729 5.58782 3.83104 0
M  V30 17 H 1.672 6.56266 2.65933 0
M  V30 18 H 2.08 4.83886 2.90714 0
M  V30 19 N 1.4781 -0.272755 1.55222 0
M  V30 20 C 2.8941 -0.619959 1.47067 0
M  V30 21 C 3.0941 -1.895 0.684978 0
M  V30 22 O 2.1501 -2.51675 0.203931 0
M  V30 23 C 3.4631 -0.746693 2.91282 0
M  V30 24 C 5.0111 -0.840731 3.01497 0
M  V30 25 C 5.4861 -0.99924 4.46967 0
M  V30 26 N 6.9771 -1.06476 4.50796 0
M  V30 27 C 7.7121 -1.20621 5.6057 0
M  V30 28 N 7.2081 -1.31483 6.80209 0
M  V30 29 N 9.0011 -1.23733 5.48312 0
M  V30 30 H 1.1521 0.564606 2.04758 0
M  V30 31 H 3.4151 0.191177 0.928523 0
M  V30 32 H 3.1211 0.119753 3.51496 0
M  V30 33 H 2.9951 -1.6269 3.40311 0
M  V30 34 H 5.3821 -1.69764 2.41379 0
M  V30 35 H 5.4631 0.0640874 2.5572 0
M  V30 36 H 5.1071 -0.146984 5.07687 0
M  V30 37 H 5.0371 -1.91871 4.90401 0
M  V30 38 H 7.5281 -0.993196 3.64615 0
M  V30 39 H 7.8411 -1.42111 7.59621 0
M  V30 40 H 6.1861 -1.28487 6.8302 0
M  V30 41 H 9.3771 -1.14877 4.53785 0
M  V30 42 H 9.5501 -1.34412 6.33906 0
M  V30 43 N 2.9562 -1.48159 -0.537278 0
M  V30 44 C 3.9062 -1.5854 -1.63857 0
M  V30 45 C 4.8902 -0.442969 -1.54682 0
M  V30 46 O 6.0822 -0.69401 -1.62827 0
M  V30 47 C 3.2112 -1.62144 -3.02596 0
M  V30 48 C 2.2972 -2.81841 -3.16901 0
M  V30 49 N 2.6882 -4.06337 -3.01204 0
M  V30 50 C 0.9862 -2.79021 -3.47942 0
M  V30 51 C 1.6872 -4.86606 -3.18731 0
M  V30 52 N 0.6632 -4.19288 -3.45974 0
M  V30 53 H 4.4652 -2.5255 -1.50319 0
M  V30 54 H 1.9792 -1.4443 -0.742555 0
M  V30 55 H 3.9762 -1.67674 -3.81695 0
M  V30 56 H 2.6362 -0.69245 -3.17231 0
M  V30 57 H 3.6472 -4.36888 -2.78117 0
M  V30 58 H 0.3242 -1.95347 -3.6898 0
M  V30 59 H 1.7142 -5.95385 -3.11394 0
M  V30 60 N 4.4343 0.785586 -1.36625 0
M  V30 61 C 5.6593 1.57963 -1.34397 0
M  V30 62 C 6.0843 1.87964 0.071526 0
M  V30 63 O 5.4423 1.48182 1.0446 0
M  V30 64 C 5.4903 2.87511 -2.17646 0
M  V30 65 O 4.5943 3.81281 -1.57158 0
M  V30 66 H 3.9353 0.479014 -0.459828 0
M  V30 67 H 6.4653 0.973411 -1.79961 0
M  V30 68 H 6.4753 3.36745 -2.30362 0
M  V30 69 H 5.1503 2.65002 -3.20541 0
M  V30 70 H 3.7273 3.39885 -1.53403 0
M  V30 71 N 5.9124 1.20967 1.01018 0
M  V30 72 C 6.8594 0.964281 2.09691 0
M  V30 73 C 7.8294 -0.107853 1.65749 0
M  V30 74 O 9.0144 0.0381987 1.90762 0
M  V30 75 C 6.1544 0.52943 3.41015 0
M  V30 76 C 5.2674 1.67043 3.98398 0
M  V30 77 C 4.4024 1.18525 5.17808 0
M  V30 78 C 3.4414 2.29892 5.67288 0
M  V30 79 N 2.5784 1.82546 6.77954 0
M  V30 80 H 7.4184 1.89463 2.30017 0
M  V30 81 H 4.9554 0.944289 1.1279 0
M  V30 82 H 6.9134 0.258588 4.16398 0
M  V30 83 H 5.5434 -0.363919 3.20742 0
M  V30 84 H 4.5954 2.05603 3.20049 0
M  V30 85 H 5.9074 2.50877 4.31117 0
M  V30 86 H 5.0614 0.870762 6.00419 0
M  V30 87 H 3.8004 0.316887 4.86669 0
M  V30 88 H 2.8054 2.6215 4.83278 0
M  V30 89 H 4.0304 3.17216 6.00459 0
M  V30 90 H 1.9764 0.980454 6.48632 0
M  V30 91 H 1.8934 2.59956 7.09901 0
M  V30 92 H 3.1614 1.54115 7.64113 0
M  V30 93 N 7.3905 -1.2043 1.01659 0
M  V30 94 C 8.8065 -1.41852 0.731442 0
M  V30 95 C 9.0065 -1.89358 -0.688898 0
M  V30 96 O 8.0625 -2.06247 -1.45666 0
M  V30 97 C 9.3755 -2.44019 1.75714 0
M  V30 98 C 10.9235 -2.57785 1.77527 0
M  V30 99 C 11.3985 -3.63194 2.79023 0
M  V30 100 N 12.8895 -3.70678 2.77763 0
M  V30 101 C 13.6245 -4.51897 3.52954 0
M  V30 102 N 13.1205 -5.36921 4.37821 0
M  V30 103 N 14.9135 -4.4643 3.41551 0
M  V30 104 H 7.0645 -0.879093 1.93354 0
M  V30 105 H 9.3275 -0.448425 0.835236 0
M  V30 106 H 9.0335 -2.1611 2.77469 0
M  V30 107 H 8.9075 -3.43007 1.56927 0
M  V30 108 H 11.2945 -2.85023 0.764569 0
M  V30 109 H 11.3755 -1.58992 2.00387 0
M  V30 110 H 11.0195 -3.36699 3.80258 0
M  V30 111 H 10.9495 -4.61609 2.53425 0
M  V30 112 H 13.4405 -3.09944 2.16201 0
M  V30 113 H 13.7535 -5.95981 4.91962 0
M  V30 114 H 12.0985 -5.36424 4.41899 0
M  V30 115 H 15.2895 -3.79042 2.74672 0
M  V30 116 H 15.4625 -5.09491 4.00404 0
M  V30 117 N 8.8686 -0.792821 -1.36206 0
M  V30 118 C 10.0966 -0.378825 -2.03402 0
M  V30 119 C 10.5116 1.00586 -1.59774 0
M  V30 120 O 9.8686 1.64574 -0.788764 0
M  V30 121 C 9.9196 -0.43683 -3.58851 0
M  V30 122 O 9.6406 -1.76691 -4.00889 0
M  V30 123 C 11.1416 -0.0138943 -4.43298 0
M  V30 124 H 8.3616 -0.155673 -0.652692 0
M  V30 125 H 10.9056 -1.07261 -1.74113 0
M  V30 126 H 9.0606 0.208575 -3.86838 0
M  V30 127 H 9.4746 -1.72011 -4.95492 0
M  V30 128 H 10.9486 -0.105615 -5.51899 0
M  V30 129 H 11.4256 1.03915 -4.2673 0
M  V30 130 H 12.0316 -0.63192 -4.20579 0
M  V30 131 N 10.3467 1.47872 -0.545128 0
M  V30 132 C 11.5767 2.06589 -0.0210534 0
M  V30 133 C 11.9847 1.39997 1.27269 0
M  V30 134 O 11.3277 0.486421 1.77143 0
M  V30 135 C 11.3897 3.58574 0.257933 0
M  V30 136 C 11.0537 4.47132 -0.944573 0
M  V30 137 C 12.0507 4.85986 -1.84699 0
M  V30 138 C 9.7357 4.88821 -1.15584 0
M  V30 139 C 11.7297 5.65314 -2.94446 0
M  V30 140 C 9.4167 5.67916 -2.25642 0
M  V30 141 C 10.4147 6.06073 -3.14905 0
M  V30 142 O 10.1027 6.83578 -4.23057 0
M  V30 143 H 9.8347 0.674971 -0.0372899 0
M  V30 144 H 12.3887 1.91037 -0.754599 0
M  V30 145 H 10.6187 3.72295 1.04564 0
M  V30 146 H 12.3077 3.99356 0.72592 0
M  V30 147 H 13.0737 4.54388 -1.69577 0
M  V30 148 H 8.9527 4.58595 -0.470279 0
M  V30 149 H 12.4967 5.95016 -3.64145 0
M  V30 150 H 8.3937 5.98927 -2.40742 0
M  V30 151 H 9.1617 7.01954 -4.20954 0
M  V30 152 N 11.8248 0.280983 1.55075 0
M  V30 153 C 13.0648 -0.335234 2.01632 0
M  V30 154 C 13.4288 -1.5261 1.16508 0
M  V30 155 O 14.6298 -2.21235 1.52672 0
M  V30 156 C 12.9008 -0.702172 3.50434 0
M  V30 157 S 14.4598 -1.30409 4.18974 0
M  V30 158 H 11.2778 -0.103967 0.703358 0
M  V30 159 H 13.8798 0.404187 1.91276 0
M  V30 160 H 12.5838 0.17333 4.10034 0
M  V30 161 H 12.1148 -1.4729 3.64786 0
M  V30 162 H 14.1298 -2.59253 4.23087 0
M  V30 163 N 13.3029 -1.57598 0.00835791 0
M  V30 164 C 14.7139 -1.7892 -0.53333 0
M  V30 165 C 15.0649 -0.916609 -1.73473 0
M  V30 166 O 14.1899 -0.121336 -2.1606 0
M  V30 167 C 14.7849 -3.24488 -0.974313 0
M  V30 168 C 13.3439 -3.46878 -1.46125 0
M  V30 169 C 12.4909 -2.74157 -0.416302 0
M  V30 170 H 15.4419 -1.56958 0.234495 0
M  V30 171 H 15.4629 -3.3306 -1.83988 0
M  V30 172 H 14.9749 -3.87972 -0.099718 0
M  V30 173 H 13.0759 -2.8862 -2.35646 0
M  V30 174 H 13.1889 -4.55572 -1.48295 0
M  V30 175 H 11.5529 -2.39022 -0.87981 0
M  V30 176 H 12.3359 -3.40345 0.44947 0
M  V30 177 N 14.781 0.264519 -1.55364 0
M  V30 178 C 16.058 1.01677 -1.67096 0
M  V30 179 C 16.438 2.03996 -0.543015 0
M  V30 180 O 15.786 2.23907 0.45585 0
M  V30 181 C 15.996 1.66596 -3.0667 0
M  V30 182 C 17.344 2.17442 -3.64697 0
M  V30 183 O 18.368 1.76568 -3.09358 0
M  V30 184 O 17.227 2.92439 -4.61673 0
M  V30 185 H 14.321 0.472161 -0.678965 0
M  V30 186 H 16.867 0.259703 -1.67701 0
M  V30 187 H 15.639 0.924962 -3.80211 0
M  V30 188 H 15.262 2.48968 -3.10001 0
M  V30 189 N 16.2591 1.48442 0.529413 0
M  V30 190 C 17.5051 1.57699 1.28463 0
M  V30 191 C 17.8601 0.247913 1.90796 0
M  V30 192 O 17.1531 -0.749279 1.76342 0
M  V30 193 C 17.3471 2.6523 2.39558 0
M  V30 194 C 17.1761 4.08464 1.88114 0
M  V30 195 C 15.9461 4.75596 1.70693 0
M  V30 196 C 18.1441 4.94613 1.40935 0
M  V30 197 N 16.1261 6.03245 1.13881 0
M  V30 198 C 17.4971 6.12511 0.960734 0
M  V30 199 C 19.5521 4.80833 1.29243 0
M  V30 200 C 18.2551 7.18149 0.406792 0
M  V30 201 C 20.2811 5.86593 0.752487 0
M  V30 202 C 19.6431 7.037 0.313946 0
M  V30 203 H 15.7421 0.631608 0.46108 0
M  V30 204 H 18.3261 1.85325 0.596886 0
M  V30 205 H 16.4971 2.39425 3.05827 0
M  V30 206 H 18.2291 2.64169 3.06589 0
M  V30 207 H 14.9841 4.31938 1.94232 0
M  V30 208 H 15.4081 6.71324 0.874831 0
M  V30 209 H 20.0501 3.90635 1.61754 0
M  V30 210 H 17.7681 8.0807 0.0693671 0
M  V30 211 H 21.3541 5.77985 0.665192 0
M  V30 212 H 20.2341 7.8414 -0.0973632 0
M  V30 213 N 17.7372 -0.778329 1.37039 0
M  V30 214 C 19.0142 -1.52551 1.22424 0
M  V30 215 C 19.3942 -2.10288 -0.184964 0
M  V30 216 O 18.7422 -1.94953 -1.19187 0
M  V30 217 C 18.9522 -2.61164 2.31504 0
M  V30 218 C 20.3002 -3.28746 2.68721 0
M  V30 219 O 21.3242 -2.71455 2.30631 0
M  V30 220 O 20.1832 -4.3231 3.3432 0
M  V30 221 H 17.2772 -0.675343 0.477326 0
M  V30 222 H 19.8232 -0.815859 1.48801 0
M  V30 223 H 18.5952 -2.16574 3.25901 0
M  V30 224 H 18.2182 -3.39737 2.06554 0
M  V30 225 N 19.2153 -1.21501 -1.00376 0
M  V30 226 C 20.4923 -0.941745 -1.71437 0
M  V30 227 C 20.8723 0.546114 -2.03914 0
M  V30 228 O 20.2203 1.51128 -1.71384 0
M  V30 229 C 20.4303 -1.82812 -2.97289 0
M  V30 230 C 21.7783 -2.07771 -3.70292 0
M  V30 231 O 22.8023 -1.80171 -3.07273 0
M  V30 232 O 21.6613 -2.54456 -4.83647 0
M  V30 233 H 18.7553 -0.353243 -0.747762 0
M  V30 234 H 21.3013 -1.32436 -1.06108 0
M  V30 235 H 20.0733 -2.83501 -2.69709 0
M  V30 236 H 19.6963 -1.4464 -3.70358 0
M  V30 237 N 20.6934 1.19889 -1.02296 0
M  V30 238 C 21.6404 2.22901 -0.598651 0
M  V30 239 C 22.6104 1.61588 0.384521 0
M  V30 240 O 23.7954 1.88697 0.282522 0
M  V30 241 C 20.9354 3.45063 0.0504476 0
M  V30 242 C 20.0484 4.20783 -0.978053 0
M  V30 243 C 19.1834 5.30356 -0.299338 0
M  V30 244 C 18.2224 5.97826 -1.31416 0
M  V30 245 N 17.3594 6.98975 -0.661667 0
M  V30 246 H 22.1994 2.58554 -1.48169 0
M  V30 247 H 19.7364 1.27039 -0.741584 0
M  V30 248 H 21.6944 4.14831 0.443971 0
M  V30 249 H 20.3244 3.10084 0.897097 0
M  V30 250 H 19.3764 3.50018 -1.48969 0
M  V30 251 H 20.6884 4.67109 -1.74958 0
M  V30 252 H 19.8424 6.06516 0.149347 0
M  V30 253 H 18.5814 4.85084 0.504445 0
M  V30 254 H 17.5864 5.20422 -1.77317 0
M  V30 255 H 18.8114 6.45183 -2.11933 0
M  V30 256 H 16.7574 6.55886 0.122132 0
M  V30 257 H 16.6744 7.43461 -1.37117 0
M  V30 258 H 17.9424 7.7914 -0.236785 0
M  V30 259 N 22.1715 0.800033 1.35784 0
M  V30 260 C 23.4485 0.30088 1.93272 0
M  V30 261 C 23.8285 -1.20857 1.73081 0
M  V30 262 O 23.1765 -2.00502 1.09596 0
M  V30 263 C 23.3865 0.70511 3.41803 0
M  V30 264 C 24.7345 0.690871 4.18942 0
M  V30 265 O 25.7585 0.646244 3.50289 0
M  V30 266 O 24.6175 0.74332 5.41421 0
M  V30 267 H 21.7115 0.0771605 0.823393 0
M  V30 268 H 24.2575 0.88329 1.449 0
M  V30 269 H 23.0295 1.74571 3.50201 0
M  V30 270 H 22.6525 0.0971541 3.97481 0
M  V30 271 N 23.6496 -1.47581 0.552962 0
M  V30 272 C 24.8956 -2.03369 0.0355807 0
M  V30 273 C 25.2506 -1.42016 -1.29805 0
M  V30 274 O 24.5436 -0.564917 -1.83083 0
M  V30 275 C 24.7376 -3.57199 -0.119728 0
M  V30 276 C 24.5666 -4.33468 1.1973 0
M  V30 277 C 23.3366 -4.7353 1.76345 0
M  V30 278 C 25.5346 -4.68866 2.11351 0
M  V30 279 N 23.5166 -5.34426 3.02097 0
M  V30 280 C 24.8876 -5.3002 3.21681 0
M  V30 281 C 26.9426 -4.50795 2.11397 0
M  V30 282 C 25.6456 -5.75011 4.32151 0
M  V30 283 C 27.6716 -4.96782 3.20876 0
M  V30 284 C 27.0336 -5.57981 4.29926 0
M  V30 285 H 23.1326 -0.780058 0.0550806 0
M  V30 286 H 25.7166 -1.80117 0.739315 0
M  V30 287 H 23.8876 -3.80227 -0.792579 0
M  V30 288 H 25.6196 -3.99627 -0.638792 0
M  V30 289 H 22.3746 -4.55352 1.30196 0
M  V30 290 H 22.7986 -5.69421 3.66182 0
M  V30 291 H 27.4406 -4.0284 1.28372 0
M  V30 292 H 25.1586 -6.21959 5.15938 0
M  V30 293 H 28.7446 -4.84573 3.21994 0
M  V30 294 H 27.6246 -5.92918 5.13243 0
M  V30 295 N 25.1277 -0.289203 -1.54924 0
M  V30 296 C 26.4047 0.376032 -1.91951 0
M  V30 297 C 26.7847 1.72622 -1.21511 0
M  V30 298 O 26.1327 2.25853 -0.346767 0
M  V30 299 C 26.3427 0.502378 -3.45365 0
M  V30 300 C 27.6907 0.778741 -4.17398 0
M  V30 301 O 28.7147 0.586647 -3.51336 0
M  V30 302 O 27.5737 1.14698 -5.34328 0
M  V30 303 H 24.6677 0.208167 -0.800372 0
M  V30 304 H 27.2137 -0.336394 -1.66332 0
M  V30 305 H 25.9857 -0.447255 -3.88736 0
M  V30 306 H 25.6087 1.26373 -3.76982 0
M  V30 307 N 26.6058 1.57591 -0.0167156 0
M  V30 308 C 27.8358 1.95292 0.674149 0
M  V30 309 C 28.2438 0.891097 1.66901 0
M  V30 310 O 27.5868 -0.136908 1.83189 0
M  V30 311 C 27.6488 3.29072 1.44747 0
M  V30 312 C 27.3128 4.52879 0.612331 0
M  V30 313 C 28.3098 5.1979 -0.107126 0
M  V30 314 C 25.9948 4.99242 0.553381 0
M  V30 315 C 27.9888 6.31375 -0.874339 0
M  V30 316 C 25.6758 6.10713 -0.217546 0
M  V30 317 C 26.6738 6.76637 -0.930123 0
M  V30 318 O 26.3618 7.85969 -1.68844 0
M  V30 319 H 26.0938 0.648275 0.191615 0
M  V30 320 H 28.6478 2.05284 -0.0690148 0
M  V30 321 H 26.8778 3.15535 2.2355 0
M  V30 322 H 28.5668 3.51764 2.02526 0
M  V30 323 H 29.3328 4.84948 -0.0708392 0
M  V30 324 H 25.2118 4.47744 1.09757 0
M  V30 325 H 28.7558 6.82764 -1.43106 0
M  V30 326 H 24.6528 6.44994 -0.255593 0
M  V30 327 H 25.4208 8.02571 -1.6069 0
M  V30 328 N 28.0839 -0.256276 1.55502 0
M  V30 329 C 29.3319 -0.983672 1.76545 0
M  V30 330 C 29.6529 -1.86206 0.578982 0
M  V30 331 O 28.9229 -1.91656 -0.405577 0
M  V30 332 H 27.5029 -0.366191 0.651086 0
M  V30 333 H 30.1649 -0.276479 1.92929 0
M  V30 334 H 29.2609 -1.61087 2.67315 0
M  V30 335 N 29.562 -1.4872 -0.521534 0
M  V30 336 C 30.509 -1.63871 -1.62527 0
M  V30 337 C 31.479 -0.480559 -1.58996 0
M  V30 338 O 32.664 -0.705085 -1.77294 0
M  V30 339 C 29.804 -1.69227 -3.00759 0
M  V30 340 C 28.917 -2.96207 -3.14461 0
M  V30 341 C 28.052 -2.92671 -4.43303 0
M  V30 342 C 27.091 -4.14318 -4.50563 0
M  V30 343 N 26.228 -4.0881 -5.70805 0
M  V30 344 H 31.068 -2.58123 -1.48918 0
M  V30 345 H 28.605 -1.28 -0.724878 0
M  V30 346 H 30.563 -1.70314 -3.80853 0
M  V30 347 H 29.193 -0.784586 -3.1312 0
M  V30 348 H 28.245 -3.04826 -2.27564 0
M  V30 349 H 29.557 -3.86192 -3.15686 0
M  V30 350 H 28.711 -2.92206 -5.31696 0
M  V30 351 H 27.45 -2.00429 -4.44612 0
M  V30 352 H 26.455 -4.15049 -3.60575 0
M  V30 353 H 27.68 -5.07729 -4.50986 0
M  V30 354 H 25.626 -3.19394 -5.72995 0
M  V30 355 H 25.543 -4.92509 -5.7356 0
M  V30 356 H 26.811 -4.12418 -6.61462 0
M  V30 357 N 31.0401 0.771051 -1.3745 0
M  V30 358 C 32.2861 1.53109 -1.339 0
M  V30 359 C 32.6411 1.9225 0.0758401 0
M  V30 360 O 31.9341 1.61264 1.03463 0
M  V30 361 C 32.1281 2.80676 -2.2126 0
M  V30 362 C 31.9571 2.54003 -3.71096 0
M  V30 363 C 30.7271 2.48097 -4.402 0
M  V30 364 C 32.9251 2.21953 -4.63941 0
M  V30 365 N 30.9071 2.13515 -5.75573 0
M  V30 366 C 32.2781 1.97516 -5.87697 0
M  V30 367 C 34.3331 2.08114 -4.5232 0
M  V30 368 C 33.0361 1.60638 -7.01133 0
M  V30 369 C 35.0621 1.72636 -5.65642 0
M  V30 370 C 34.4241 1.4906 -6.88448 0
M  V30 371 H 30.5231 0.56055 -0.54526 0
M  V30 372 H 33.1071 0.899472 -1.72678 0
M  V30 373 H 31.2781 3.41674 -1.84698 0
M  V30 374 H 33.0101 3.46578 -2.08963 0
M  V30 375 H 29.7651 2.63974 -3.93211 0
M  V30 376 H 30.1891 1.98919 -6.47117 0
M  V30 377 H 34.8311 2.25024 -3.57944 0
M  V30 378 H 32.5491 1.42467 -7.95443 0
M  V30 379 H 36.1351 1.62586 -5.58621 0
M  V30 380 H 35.0151 1.22014 -7.7465 0
M  V30 381 N 32.5182 1.22032 0.997298 0
M  V30 382 C 33.9342 0.979326 1.26021 0
M  V30 383 C 34.1342 -0.32972 1.98784 0
M  V30 384 O 33.1902 -1.05345 2.29475 0
M  V30 385 C 34.5032 2.17509 2.07631 0
M  V30 386 C 36.0512 2.21817 2.2083 0
M  V30 387 C 36.5262 3.40933 3.05825 0
M  V30 388 N 38.0172 3.41067 3.13412 0
M  V30 389 C 38.7522 4.29885 3.79455 0
M  V30 390 N 38.2482 5.28914 4.47462 0
M  V30 391 N 40.0412 4.17673 3.76173 0
M  V30 392 H 32.1922 2.06202 0.509352 0
M  V30 393 H 34.4552 0.90334 0.287541 0
M  V30 394 H 34.1612 3.12415 1.61524 0
M  V30 395 H 34.0352 2.17206 3.08385 0
M  V30 396 H 36.4222 1.27462 2.66153 0
M  V30 397 H 36.5032 2.2616 1.1952 0
M  V30 398 H 36.1472 4.35586 2.61203 0
M  V30 399 H 36.0772 3.33829 4.07266 0
M  V30 400 H 38.5682 2.69406 2.65007 0
M  V30 401 H 38.8812 5.92973 4.95583 0
M  V30 402 H 37.2262 5.32831 4.46224 0
M  V30 403 H 40.4172 3.39564 3.22202 0
M  V30 404 H 40.5902 4.87098 4.27363 0
M  V30 405 N 33.9963 -1.19345 1.0293 0
M  V30 406 C 35.2213 -1.93538 0.745511 0
M  V30 407 C 35.6463 -1.75007 -0.689511 0
M  V30 408 O 35.0043 -1.05265 -1.47611 0
M  V30 409 C 35.0523 -3.43336 1.10239 0
M  V30 410 O 34.1563 -4.11806 0.221289 0
M  V30 411 H 33.4973 -0.604193 0.275404 0
M  V30 412 H 36.0273 -1.5141 1.37609 0
M  V30 413 H 36.0373 -3.94004 1.05947 0
M  V30 414 H 34.7123 -3.56146 2.14786 0
M  V30 415 H 33.2893 -3.715 0.322842 0
M  V30 416 N 35.4744 -0.807222 -1.35358 0
M  V30 417 C 36.6994 -0.399309 -2.0352 0
M  V30 418 C 37.1244 0.981986 -1.60433 0
M  V30 419 O 36.4824 1.63601 -0.781299 0
M  V30 420 C 36.5304 -0.491552 -3.57234 0
M  V30 421 O 35.6344 0.494754 -4.09421 0
M  V30 422 H 34.9754 -0.166682 -0.642739 0
M  V30 423 H 37.5054 -1.09328 -1.72941 0
M  V30 424 H 37.5154 -0.361588 -4.06395 0
M  V30 425 H 36.1904 -1.49907 -3.87944 0
M  V30 426 H 34.7674 0.324977 -3.71481 0
M  V30 427 N 36.9525 1.47285 -0.560781 0
M  V30 428 C 38.1775 2.07359 -0.0410566 0
M  V30 429 C 38.6025 1.41017 1.24483 0
M  V30 430 O 37.9605 0.486368 1.74654 0
M  V30 431 C 38.0085 3.6035 0.134123 0
M  V30 432 O 37.1125 3.94681 1.19587 0
M  V30 433 H 36.4535 0.661887 -0.0529291 0
M  V30 434 H 38.9835 1.89252 -0.777482 0
M  V30 435 H 38.9935 4.0652 0.347207 0
M  V30 436 H 37.6685 4.08034 -0.805047 0
M  V30 437 H 36.2455 3.60251 0.962987 0
M  V30 438 N 38.4306 0.297415 1.54768 0
M  V30 439 C 39.6556 -0.318435 2.04941 0
M  V30 440 C 40.0806 -1.4701 1.17345 0
M  V30 441 O 39.4386 -1.80436 0.176758 0
M  V30 442 C 39.4866 -0.755749 3.52592 0
M  V30 443 O 38.5906 -1.86088 3.68028 0
M  V30 444 H 37.9316 -0.062421 0.661059 0
M  V30 445 H 40.4616 0.438215 1.99852 0
M  V30 446 H 40.4716 -1.04552 3.94376 0
M  V30 447 H 39.1466 0.0867233 4.1581 0
M  V30 448 H 37.7236 -1.57193 3.38149 0
M  V30 449 N 39.9087 -1.5758 0.0250728 0
M  V30 450 C 40.8587 -2.06468 -0.967201 0
M  V30 451 C 41.8427 -0.964376 -1.28797 0
M  V30 452 O 43.0347 -1.22797 -1.27475 0
M  V30 453 C 40.1637 -2.59203 -2.25097 0
M  V30 454 C 39.2497 -3.76157 -1.95874 0
M  V30 455 N 39.6407 -4.86919 -1.36905 0
M  V30 456 C 37.9387 -3.84566 -2.25887 0
M  V30 457 C 38.6397 -5.68172 -1.24724 0
M  V30 458 N 37.6157 -5.14953 -1.74138 0
M  V30 459 H 41.4177 -2.89508 -0.506176 0
M  V30 460 H 38.9317 -1.61399 -0.18004 0
M  V30 461 H 40.9287 -2.92517 -2.97052 0
M  V30 462 H 39.5887 -1.77592 -2.71829 0
M  V30 463 H 40.5997 -5.07256 -1.04459 0
M  V30 464 H 37.2767 -3.13854 -2.75321 0
M  V30 465 H 38.6667 -6.67221 -0.791605 0
M  V30 466 N 41.3868 0.248026 -1.55636 0
M  V30 467 C 42.3338 1.30707 -1.90222 0
M  V30 468 C 43.3038 1.47881 -0.756332 0
M  V30 469 O 44.4888 1.61883 -1.00988 0
M  V30 470 C 41.6288 2.65769 -2.20138 0
M  V30 471 C 40.7418 2.56612 -3.47526 0
M  V30 472 C 39.8768 3.8402 -3.67017 0
M  V30 473 C 38.9158 3.69476 -4.8801 0
M  V30 474 N 38.0528 4.88774 -5.04029 0
M  V30 475 H 42.8928 1.00512 -2.80538 0
M  V30 476 H 40.4298 0.485055 -1.38873 0
M  V30 477 H 42.3878 3.44386 -2.35487 0
M  V30 478 H 41.0178 2.94115 -1.33027 0
M  V30 479 H 40.0698 1.69571 -3.40514 0
M  V30 480 H 41.3818 2.41774 -4.36287 0
M  V30 481 H 40.5358 4.7108 -3.8232 0
M  V30 482 H 39.2748 4.01754 -2.76487 0
M  V30 483 H 38.2798 2.80799 -4.72686 0
M  V30 484 H 39.5048 3.53238 -5.8 0
M  V30 485 H 37.4508 5.0687 -4.16435 0
M  V30 486 H 37.3678 4.76562 -5.86877 0
M  V30 487 H 38.6358 5.77335 -5.23741 0
M  V30 488 N 42.8649 1.48995 0.513639 0
M  V30 489 C 44.2809 1.35478 0.843682 0
M  V30 490 C 44.4809 0.378213 1.97919 0
M  V30 491 O 43.5369 -0.194689 2.51748 0
M  V30 492 C 44.8499 2.75901 1.1958 0
M  V30 493 C 46.3979 2.84509 1.30474 0
M  V30 494 C 46.8729 4.25671 1.69021 0
M  V30 495 N 48.3639 4.28422 1.76094 0
M  V30 496 C 49.0989 5.34601 2.07338 0
M  V30 497 N 48.5949 6.5104 2.36894 0
M  V30 498 N 50.3879 5.22007 2.08483 0
M  V30 499 H 42.5389 2.11092 -0.235328 0
M  V30 500 H 44.8019 0.947039 -0.0426669 0
M  V30 501 H 44.5079 3.49001 0.434913 0
M  V30 502 H 44.3819 3.10467 2.1422 0
M  V30 503 H 46.7689 2.11655 2.05637 0
M  V30 504 H 46.8499 2.53542 0.339155 0
M  V30 505 H 46.4939 4.99048 0.944135 0
M  V30 506 H 46.4239 4.54094 2.66658 0
M  V30 507 H 48.9149 3.44441 1.55464 0
M  V30 508 H 49.2279 7.2779 2.59887 0
M  V30 509 H 47.5729 6.54287 2.34378 0
M  V30 510 H 50.7639 4.30051 1.84861 0
M  V30 511 H 50.9369 6.04854 2.325 0
M  V30 512 N 44.343 -0.763751 1.37857 0
M  V30 513 C 45.759 -1.06542 1.18832 0
M  V30 514 C 45.959 -2.01478 0.0299722 0
M  V30 515 O 45.015 -2.4458 -0.627447 0
M  V30 516 C 46.328 -1.65525 2.51042 0
M  V30 517 C 47.876 -1.77745 2.57635 0
M  V30 518 C 48.351 -2.4014 3.89996 0
M  V30 519 N 49.842 -2.47582 3.91481 0
M  V30 520 C 50.577 -2.96732 4.9065 0
M  V30 521 N 50.073 -3.45993 6.00217 0
M  V30 522 N 51.866 -2.95679 4.78048 0
M  V30 523 H 44.017 -0.133556 2.1198 0
M  V30 524 H 46.28 -0.121879 0.940133 0
M  V30 525 H 45.986 -1.03236 3.36207 0
M  V30 526 H 45.86 -2.64719 2.68707 0
M  V30 527 H 48.247 -2.39164 1.72872 0
M  V30 528 H 48.328 -0.772836 2.43846 0
M  V30 529 H 47.972 -1.79358 4.75177 0
M  V30 530 H 47.902 -3.41223 4.01092 0
M  V30 531 H 50.393 -2.1273 3.12337 0
M  V30 532 H 50.706 -3.81922 6.7183 0
M  V30 533 H 49.051 -3.44077 6.03851 0
M  V30 534 H 52.242 -2.56499 3.91568 0
M  V30 535 H 52.415 -3.33672 5.55488 0
M  V30 536 N 45.8211 -1.22559 -0.990812 0
M  V30 537 C 46.7681 -0.997519 -2.0813 0
M  V30 538 C 47.7381 0.0814702 -1.659 0
M  V30 539 O 48.9231 -0.0685424 -1.90677 0
M  V30 540 C 46.0631 -0.583615 -3.40129 0
M  V30 541 C 45.1761 -1.7336 -3.9569 0
M  V30 542 C 44.3111 -1.26748 -5.15857 0
M  V30 543 C 43.3501 -2.38888 -5.63559 0
M  V30 544 N 42.4871 -1.93308 -6.74964 0
M  V30 545 H 47.3271 -1.93099 -2.26973 0
M  V30 546 H 44.8641 -0.962114 -1.11273 0
M  V30 547 H 46.8221 -0.324801 -4.15934 0
M  V30 548 H 45.4521 0.312845 -3.2128 0
M  V30 549 H 44.5041 -2.10669 -3.16738 0
M  V30 550 H 45.8161 -2.57704 -4.27071 0
M  V30 551 H 44.9701 -0.966173 -5.98957 0
M  V30 552 H 43.7091 -0.394272 -4.86104 0
M  V30 553 H 42.7141 -2.69805 -4.79046 0
M  V30 554 H 43.9391 -3.26728 -5.95336 0
M  V30 555 H 41.8851 -1.08352 -6.4699 0
M  V30 556 H 41.8021 -2.71217 -7.05675 0
M  V30 557 H 43.0701 -1.66252 -7.61564 0
M  V30 558 N 47.2992 1.18797 -1.03562 0
M  V30 559 C 48.7152 1.40671 -0.753917 0
M  V30 560 C 48.9152 1.9043 0.658686 0
M  V30 561 O 47.9712 2.08538 1.42366 0
M  V30 562 C 49.2842 2.41192 -1.79574 0
M  V30 563 C 50.8322 2.54928 -1.81606 0
M  V30 564 C 51.3072 3.58709 -2.84766 0
M  V30 565 N 52.7982 3.66212 -2.83625 0
M  V30 566 C 53.5332 4.46225 -3.60098 0
M  V30 567 N 53.0292 5.29888 -4.46308 0
M  V30 568 N 54.8222 4.40939 -3.4861 0
M  V30 569 H 46.9732 0.848221 -1.94728 0
M  V30 570 H 49.2362 0.435081 -0.842264 0
M  V30 571 H 48.9422 2.11669 -2.80872 0
M  V30 572 H 48.8162 3.40467 -1.62365 0
M  V30 573 H 51.2032 2.83771 -0.809817 0
M  V30 574 H 51.2842 1.55784 -2.02891 0
M  V30 575 H 50.9282 3.30607 -3.85566 0
M  V30 576 H 50.8582 4.57519 -2.60737 0
M  V30 577 H 53.3492 3.06466 -2.21105 0
M  V30 578 H 53.6622 5.88078 -5.01382 0
M  V30 579 H 52.0072 5.29326 -4.50377 0
M  V30 580 H 55.1982 3.74624 -2.80668 0
M  V30 581 H 55.3712 5.03056 -4.08459 0
M  V30 582 N 48.7773 0.814389 1.34928 0
M  V30 583 C 50.0023 0.410097 2.03305 0
M  V30 584 C 50.4273 -0.973464 1.60951 0
M  V30 585 O 49.7853 -1.63185 0.789964 0
M  V30 586 C 49.8333 0.51049 3.56968 0
M  V30 587 O 48.9373 -0.473035 4.09678 0
M  V30 588 H 48.2783 0.170088 0.641846 0
M  V30 589 H 50.8083 1.10244 1.72358 0
M  V30 590 H 50.8183 0.383135 4.06197 0
M  V30 591 H 49.4933 1.51963 3.87144 0
M  V30 592 H 48.0703 -0.305272 3.71648 0
M  V30 593 N 50.2554 -1.46986 0.568584 0
M  V30 594 C 51.2054 -2.27179 -0.193339 0
M  V30 595 C 52.1894 -1.35035 -0.874895 0
M  V30 596 O 53.3814 -1.5931 -0.771322 0
M  V30 597 C 50.5104 -3.21063 -1.21546 0
M  V30 598 C 49.5964 -4.2069 -0.536738 0
M  V30 599 N 49.9874 -5.04218 0.399673 0
M  V30 600 C 48.2854 -4.38961 -0.789254 0
M  V30 601 C 48.9864 -5.76242 0.795017 0
M  V30 602 N 47.9624 -5.434 0.1473 0
M  V30 603 H 51.7644 -2.89146 0.526458 0
M  V30 604 H 49.2784 -1.57664 0.389342 0
M  V30 605 H 51.2754 -3.77209 -1.77536 0
M  V30 606 H 49.9354 -2.60654 -1.93623 0
M  V30 607 H 50.9464 -5.12077 0.774454 0
M  V30 608 H 47.6234 -3.89713 -1.49767 0
M  V30 609 H 49.0134 -6.53417 1.56513 0
M  V30 610 N 51.7335 -0.305618 -1.54608 0
M  V30 611 C 52.9585 0.307562 -2.05107 0
M  V30 612 C 53.3835 1.46385 -1.18123 0
M  V30 613 O 52.7415 1.8034 -0.186324 0
M  V30 614 C 52.7895 0.73704 -3.52987 0
M  V30 615 O 51.8935 1.84134 -3.6901 0
M  V30 616 H 51.2345 0.0589143 -0.661381 0
M  V30 617 H 53.7645 -0.448807 -1.99617 0
M  V30 618 H 53.7745 1.02459 -3.94925 0
M  V30 619 H 52.4495 -0.108773 -4.15758 0
M  V30 620 H 51.0265 1.55398 -3.38978 0
M  V30 621 N 53.2116 1.57565 -0.0334293 0
M  V30 622 C 54.4366 1.96689 0.657895 0
M  V30 623 C 54.8616 0.910057 1.64619 0
M  V30 624 O 54.2196 -0.128598 1.80843 0
M  V30 625 C 54.2676 3.34905 1.33683 0
M  V30 626 O 53.3716 3.31574 2.45219 0
M  V30 627 H 52.7126 0.641205 0.172489 0
M  V30 628 H 55.2426 2.04372 -0.0965621 0
M  V30 629 H 55.2526 3.71234 1.69262 0
M  V30 630 H 53.9276 4.11366 0.612411 0
M  V30 631 H 52.5046 3.06968 2.11719 0
M  V30 632 N 54.6897 -0.239769 1.55765 0
M  V30 633 C 55.6527 -1.28038 1.90103 0
M  V30 634 C 56.6527 -1.40723 0.778055 0
M  V30 635 O 57.8427 -1.39301 1.04599 0
M  V30 636 C 54.9747 -2.65702 2.13577 0
M  V30 637 H 56.1677 -0.988048 2.83157 0
M  V30 638 H 53.7207 -0.479382 1.48767 0
M  V30 639 H 54.4557 -3.00063 1.23015 0
M  V30 640 H 54.2407 -2.57875 2.95369 0
M  V30 641 H 55.7307 -3.40828 2.41301 0
M  V30 642 N 56.1678 -1.49265 -0.50573 0
M  V30 643 C 57.0998 -1.617 -1.62437 0
M  V30 644 C 58.1128 -0.499924 -1.54934 0
M  V30 645 O 59.3018 -0.771785 -1.60953 0
M  V30 646 C 56.4018 -1.5533 -3.01207 0
M  V30 647 C 55.5748 -2.8249 -3.33943 0
M  V30 648 C 54.6338 -2.69238 -4.52103 0
M  V30 649 O 53.6598 -3.43167 -4.5412 0
M  V30 650 N 54.8618 -1.80468 -5.51735 0
M  V30 651 H 57.6268 -2.58177 -1.52199 0
M  V30 652 H 55.1878 -1.46294 -0.693511 0
M  V30 653 H 57.1798 -1.44125 -3.78167 0
M  V30 654 H 55.7498 -0.667297 -3.05395 0
M  V30 655 H 54.9698 -3.08081 -2.45926 0
M  V30 656 H 56.2578 -3.66802 -3.5261 0
M  V30 657 H 55.6558 -1.19653 -5.52901 0
M  V30 658 H 54.2128 -1.75188 -6.27816 0
M  V30 659 N 57.6459 0.756429 -1.3826 0
M  V30 660 C 58.5559 1.9009 -1.37488 0
M  V30 661 C 59.5719 1.71855 -0.272366 0
M  V30 662 O 60.7479 1.94827 -0.510318 0
M  V30 663 C 57.8129 3.25421 -1.19592 0
M  V30 664 C 56.8739 3.56202 -2.39622 0
M  V30 665 C 56.1069 4.85075 -2.2257 0
M  V30 666 O 56.3299 5.57246 -1.21793 0
M  V30 667 O 55.2639 5.15269 -3.11098 0
M  V30 668 H 59.0899 1.93695 -2.33914 0
M  V30 669 H 56.6749 0.901313 -1.1915 0
M  V30 670 H 58.5569 4.06337 -1.11661 0
M  V30 671 H 57.2319 3.22634 -0.262486 0
M  V30 672 H 56.1389 2.75458 -2.53128 0
M  V30 673 H 57.4719 3.63747 -3.31586 0
M  V30 674 N 59.124 1.23083 0.984299 0
M  V30 675 C 60.072 1.00593 2.09723 0
M  V30 676 C 61.066 -0.0538014 1.69315 0
M  V30 677 O 62.272 0.0993719 1.79725 0
M  V30 678 H 58.647 0.30817 0.685956 0
M  V30 679 H 60.618 1.95012 2.2586 0
M  V30 680 C 59.367 0.609601 3.42314 0
M  V30 681 H 58.69 1.41675 3.73856 0
M  V30 682 H 60.13 0.491726 4.21139 0
M  V30 683 C 58.589 -0.681745 3.2993 0
M  V30 684 O 59.119 -1.73192 3.62446 0
M  V30 685 N 57.325 -0.656178 2.83095 0
M  V30 686 H 56.872 0.198759 2.56832 0
M  V30 687 H 56.83 -1.52044 2.75191 0
M  V30 688 N 60.6021 -1.18246 1.0419 0
M  V30 689 C 61.5491 -2.2192 0.634037 0
M  V30 690 C 62.5191 -1.62179 -0.358765 0
M  V30 691 O 63.7041 -1.89122 -0.252466 0
M  V30 692 C 60.8441 -3.451 0.00445535 0
M  V30 693 C 59.9571 -4.19174 1.04487 0
M  V30 694 C 59.0921 -5.29813 0.383676 0
M  V30 695 C 58.1311 -5.9566 1.4091 0
M  V30 696 N 57.2681 -6.97834 0.772784 0
M  V30 697 H 62.1081 -2.56164 1.52263 0
M  V30 698 H 59.6451 -1.25843 0.761701 0
M  V30 699 H 61.6031 -4.15485 -0.377919 0
M  V30 700 H 60.2331 -3.11472 -0.847652 0
M  V30 701 H 59.2851 -3.47604 1.54518 0
M  V30 702 H 60.5971 -4.64267 1.82368 0
M  V30 703 H 59.7511 -6.06677 -0.0528366 0
M  V30 704 H 58.4901 -4.85825 -0.427208 0
M  V30 705 H 57.4951 -5.17535 1.85574 0
M  V30 706 H 58.7201 -6.4173 2.22171 0
M  V30 707 H 56.6661 -6.55998 -0.0177708 0
M  V30 708 H 56.5831 -7.41186 1.48928 0
M  V30 709 H 57.8511 -7.78665 0.36071 0
M  V30 710 N 62.0802 -0.821533 -1.34494 0
M  V30 711 C 63.4962 -0.507117 -1.51329 0
M  V30 712 C 63.6962 0.968964 -1.76673 0
M  V30 713 O 62.7522 1.75348 -1.81685 0
M  V30 714 C 64.0652 -1.36544 -2.67911 0
M  V30 715 C 65.6132 -1.36242 -2.81793 0
M  V30 716 C 66.0882 -2.2052 -4.01416 0
M  V30 717 N 67.5792 -2.18136 -4.08621 0
M  V30 718 C 68.3142 -2.80095 -5.00334 0
M  V30 719 N 67.8102 -3.51039 -5.9728 0
M  V30 720 N 69.6032 -2.69656 -4.93196 0
M  V30 721 H 61.7542 -1.77729 -1.16302 0
M  V30 722 H 64.0172 -0.757291 -0.570276 0
M  V30 723 H 63.7232 -2.41361 -2.55808 0
M  V30 724 H 63.5972 -1.02917 -3.62888 0
M  V30 725 H 65.9842 -0.322041 -2.93338 0
M  V30 726 H 66.0652 -1.73866 -1.87628 0
M  V30 727 H 65.7092 -3.24607 -3.90631 0
M  V30 728 H 65.6392 -1.80247 -4.94791 0
M  V30 729 H 68.1302 -1.6653 -3.39229 0
M  V30 730 H 68.4432 -3.95565 -6.63889 0
M  V30 731 H 66.7882 -3.55145 -5.97409 0
M  V30 732 H 69.9792 -2.13808 -4.16418 0
M  V30 733 H 70.1522 -3.1823 -5.64476 0
M  V30 734 N 63.5583 1.46682 -0.576371 0
M  V30 735 C 64.7983 2.04306 -0.0621356 0
M  V30 736 C 65.1623 1.4389 1.2712 0
M  V30 737 O 66.3633 1.92675 1.87429 0
M  V30 738 C 64.6343 3.57399 0.00927922 0
M  V30 739 S 66.1933 4.36309 0.466859 0
M  V30 740 H 63.0113 0.710167 -0.0344016 0
M  V30 741 H 65.6133 1.79807 -0.767437 0
M  V30 742 H 64.3173 3.98889 -0.965178 0
M  V30 743 H 63.8483 3.86424 0.737547 0
M  V30 744 H 65.8633 4.6533 1.72287 0
M  V30 745 N 65.0364 0.313813 1.54444 0
M  V30 746 C 65.9834 -0.55655 2.23989 0
M  V30 747 C 66.9534 -1.11943 1.22711 0
M  V30 748 O 68.1384 -1.16158 1.51367 0
M  V30 749 C 65.2784 -1.71635 2.99392 0
M  V30 750 C 64.3914 -1.18364 4.15468 0
M  V30 751 C 63.5264 -2.30834 4.78424 0
M  V30 752 C 62.5654 -1.74762 5.86622 0
M  V30 753 N 61.7024 -2.80855 6.43479 0
M  V30 754 H 66.5424 0.0430893 2.97969 0
M  V30 755 H 64.0794 0.0330359 1.47063 0
M  V30 756 H 66.0374 -2.39868 3.41349 0
M  V30 757 H 64.6674 -2.28742 2.27765 0
M  V30 758 H 63.7194 -0.393163 3.78363 0
M  V30 759 H 65.0314 -0.733262 4.93381 0
M  V30 760 H 64.1854 -3.0699 5.23299 0
M  V30 761 H 62.9244 -2.79204 3.99871 0
M  V30 762 H 61.9294 -0.970995 5.41158 0
M  V30 763 H 63.1544 -1.2728 6.67066 0
M  V30 764 H 61.1004 -3.28535 5.67804 0
M  V30 765 H 61.0174 -2.40351 7.16776 0
M  V30 766 H 62.2854 -3.5687 6.93011 0
M  V30 767 N 66.5145 -1.57545 0.0417849 0
M  V30 768 C 67.7445 -1.96339 -0.642995 0
M  V30 769 C 68.1525 -0.917536 -1.65463 0
M  V30 770 O 67.4955 0.107747 -1.83384 0
M  V30 771 C 67.5575 -3.31333 -1.39494 0
M  V30 772 C 67.2215 -4.53796 -0.540204 0
M  V30 773 C 68.2185 -5.19553 0.189806 0
M  V30 774 C 65.9035 -5.0006 -0.473886 0
M  V30 775 C 67.8975 -6.29904 0.974674 0
M  V30 776 C 65.5845 -6.10289 0.314677 0
M  V30 777 C 66.5825 -6.75072 1.03765 0
M  V30 778 O 66.2705 -7.83183 1.81327 0
M  V30 779 H 66.0025 -0.651241 -0.181277 0
M  V30 780 H 68.5565 -2.05148 0.101665 0
M  V30 781 H 66.7865 -3.19052 -2.18502 0
M  V30 782 H 68.4755 -3.54942 -1.96904 0
M  V30 783 H 69.2415 -4.84774 0.147981 0
M  V30 784 H 65.1205 -4.49433 -1.0262 0
M  V30 785 H 68.6645 -6.80401 1.5395 0
M  V30 786 H 64.5615 -6.44506 0.358174 0
M  V30 787 H 65.3295 -7.99913 1.73438 0
M  V30 788 N 67.9926 0.231505 -1.5589 0
M  V30 789 C 68.9406 1.30649 -1.92441 0
M  V30 790 C 69.9346 1.49037 -0.805254 0
M  V30 791 O 71.1406 1.50329 -0.990007 0
M  V30 792 H 67.5156 0.437812 -0.611412 0
M  V30 793 H 69.4866 0.970973 -2.82161 0
M  V30 794 C 68.2356 2.65179 -2.24889 0
M  V30 795 H 67.5586 2.51835 -3.10514 0
M  V30 796 H 68.9986 3.39234 -2.54355 0
M  V30 797 C 67.4576 3.19439 -1.07054 0
M  V30 798 O 67.9876 4.00371 -0.326499 0
M  V30 799 N 66.1936 2.77675 -0.85703 0
M  V30 800 H 65.7406 2.11969 -1.46379 0
M  V30 801 H 65.6986 3.14321 -0.0703223 0
M  V30 802 N 69.4707 1.49531 0.497807 0
M  V30 803 C 70.4207 1.62829 1.59596 0
M  V30 804 C 71.4047 0.483824 1.53453 0
M  V30 805 O 72.5967 0.736937 1.60929 0
M  V30 806 C 69.7257 1.7011 2.98191 0
M  V30 807 C 68.8117 2.90144 3.09317 0
M  V30 808 N 69.2027 4.1418 2.90324 0
M  V30 809 C 67.5007 2.88148 3.40422 0
M  V30 810 C 68.2017 4.94886 3.05717 0
M  V30 811 N 67.1777 4.28314 3.34736 0
M  V30 812 H 70.9797 2.56446 1.4357 0
M  V30 813 H 68.4937 1.46347 0.704001 0
M  V30 814 H 70.4907 1.77735 3.77115 0
M  V30 815 H 69.1507 0.776315 3.15283 0
M  V30 816 H 70.1617 4.44109 2.66436 0
M  V30 817 H 66.8387 2.05061 3.63671 0
M  V30 818 H 68.2287 6.03432 2.95499 0
M  V30 819 N 70.9488 -0.749086 1.3866 0
M  V30 820 C 72.1738 -1.54344 1.38538 0
M  V30 821 C 72.5988 -1.88088 -0.0216655 0
M  V30 822 O 71.9568 -1.50899 -1.00494 0
M  V30 823 C 72.0048 -2.8164 2.25192 0
M  V30 824 O 71.1088 -3.7698 1.67212 0
M  V30 825 H 70.4498 -0.466654 0.472367 0
M  V30 826 H 72.9798 -0.925355 1.82478 0
M  V30 827 H 72.9898 -3.30519 2.3921 0
M  V30 828 H 71.6648 -2.56411 3.27454 0
M  V30 829 H 70.2418 -3.35699 1.6236 0
M  V30 830 N 72.4269 -1.23603 -0.977757 0
M  V30 831 C 73.3739 -1.01954 -2.07061 0
M  V30 832 C 74.3439 0.0638697 -1.65977 0
M  V30 833 O 75.5289 -0.0887624 -1.90593 0
M  V30 834 C 72.6689 -0.619658 -3.39491 0
M  V30 835 C 71.7819 -1.77547 -3.93829 0
M  V30 836 C 70.9169 -1.32212 -5.14484 0
M  V30 837 C 69.9559 -2.44852 -5.60994 0
M  V30 838 N 69.0929 -2.00456 -6.72876 0
M  V30 839 H 73.9329 -1.95495 -2.24913 0
M  V30 840 H 71.4699 -0.973861 -1.10247 0
M  V30 841 H 73.4279 -0.368898 -4.15566 0
M  V30 842 H 72.0579 0.278752 -3.21594 0
M  V30 843 H 71.1099 -2.14016 -3.14486 0
M  V30 844 H 72.4219 -2.62219 -4.24314 0
M  V30 845 H 71.5759 -1.02965 -5.97899 0
M  V30 846 H 70.3149 -0.445808 -4.85658 0
M  V30 847 H 69.3199 -2.74871 -4.76157 0
M  V30 848 H 70.5449 -3.33024 -5.91837 0
M  V30 849 H 68.4909 -1.15208 -6.45804 0
M  V30 850 H 68.4079 -2.78687 -7.02759 0
M  V30 851 H 69.6759 -1.7432 -7.59758 0
M  V30 852 N 73.905 1.17692 -1.04816 0
M  V30 853 C 74.838 2.20436 -0.590173 0
M  V30 854 C 75.816 1.58115 0.379244 0
M  V30 855 O 77 1.86228 0.291762 0
M  V30 856 C 74.127 3.38424 0.136817 0
M  V30 857 C 73.173 4.19176 -0.787023 0
M  V30 858 S 74.006 4.84815 -2.27409 0
M  V30 859 C 75.162 6.06195 -1.55817 0
M  V30 860 H 75.395 2.58944 -1.46067 0
M  V30 861 H 72.928 1.28246 -0.859784 0
M  V30 862 H 74.886 4.06798 0.550076 0
M  V30 863 H 73.547 2.98312 0.983299 0
M  V30 864 H 72.74 5.03499 -0.224681 0
M  V30 865 H 72.342 3.56219 -1.13947 0
M  V30 866 H 74.634 6.72078 -0.855387 0
M  V30 867 H 75.577 6.6695 -2.37873 0
M  V30 868 H 75.985 5.54701 -1.04722 0
M  V30 869 N 75.3831 0.828654 1.34056 0
M  V30 870 C 76.6231 0.425394 1.99924 0
M  V30 871 C 76.9871 -0.994294 1.64249 0
M  V30 872 O 78.1881 -1.50074 2.23005 0
M  V30 873 C 76.4591 0.628071 3.51838 0
M  V30 874 S 78.0181 0.318511 4.37642 0
M  V30 875 H 74.8361 0.160465 0.692656 0
M  V30 876 H 77.4381 1.07572 1.63244 0
M  V30 877 H 76.1421 1.66089 3.7529 0
M  V30 878 H 75.6731 -0.0367799 3.93383 0
M  V30 879 H 77.6881 -0.865632 4.88591 0
M  V30 880 N 76.8612 -1.46375 0.584142 0
M  V30 881 C 78.1382 -1.956 0.0033388 0
M  V30 882 C 78.5182 -1.52679 -1.45782 0
M  V30 883 O 77.8662 -0.77816 -2.14842 0
M  V30 884 C 78.0762 -3.48551 0.176891 0
M  V30 885 C 79.4242 -4.24576 0.0454609 0
M  V30 886 O 80.4482 -3.56043 0.105801 0
M  V30 887 O 79.3072 -5.46427 -0.0890376 0
M  V30 888 H 76.4012 -0.825547 -0.0490066 0
M  V30 889 H 78.9472 -1.56652 0.65256 0
M  V30 890 H 77.7192 -3.72683 1.1926 0
M  V30 891 H 77.3422 -3.94332 -0.508695 0
M  V30 892 N 78.3393 -0.321999 -1.54275 0
M  V30 893 C 79.5643 0.285791 -2.05422 0
M  V30 894 C 79.9893 1.45124 -1.19669 0
M  V30 895 O 79.3473 1.80132 -0.205441 0
M  V30 896 C 79.3953 0.69956 -3.53749 0
M  V30 897 O 78.4993 1.8021 -3.70942 0
M  V30 898 H 77.8403 0.0518962 -0.661969 0
M  V30 899 H 80.3703 -0.469954 -1.9913 0
M  V30 900 H 80.3803 0.982649 -3.9599 0
M  V30 901 H 79.0553 -0.152864 -4.15619 0
M  V30 902 H 77.6323 1.51794 -3.40607 0
M  V30 903 N 79.8174 1.5752 -0.0501392 0
M  V30 904 C 80.7674 2.07981 0.934231 0
M  V30 905 C 81.7514 0.984745 1.27246 0
M  V30 906 O 82.9434 1.24809 1.25506 0
M  V30 907 C 80.0724 2.62751 2.20945 0
M  V30 908 C 79.1584 3.79225 1.89865 0
M  V30 909 N 79.5494 4.89036 1.29142 0
M  V30 910 C 77.8474 3.88111 2.19741 0
M  V30 911 C 78.5484 5.70084 1.15669 0
M  V30 912 N 77.5244 5.17659 1.65923 0
M  V30 913 H 81.3264 2.90277 0.460053 0
M  V30 914 H 78.8404 1.61665 0.15434 0
M  V30 915 H 80.8374 2.97205 2.9236 0
M  V30 916 H 79.4974 1.81894 2.6897 0
M  V30 917 H 80.5084 5.08854 0.963756 0
M  V30 918 H 77.1854 3.18194 2.70293 0
M  V30 919 H 78.5754 6.68395 0.685356 0
M  V30 920 N 81.2955 -0.223234 1.56011 0
M  V30 921 C 82.5255 -0.963413 1.82762 0
M  V30 922 C 82.9335 -1.78516 0.626804 0
M  V30 923 O 82.2765 -1.78974 -0.414014 0
M  V30 924 C 82.3385 -1.93126 3.0322 0
M  V30 925 C 82.0025 -1.2942 4.38291 0
M  V30 926 C 82.9995 -0.684916 5.15369 0
M  V30 927 C 80.6845 -1.30647 4.85012 0
M  V30 928 C 82.6785 -0.0963971 6.37327 0
M  V30 929 C 80.3655 -0.71411 6.06913 0
M  V30 930 C 81.3635 -0.110123 6.82911 0
M  V30 931 O 81.0515 0.47303 8.02507 0
M  V30 932 H 80.7835 -0.288011 0.611576 0
M  V30 933 H 83.3375 -0.244103 2.03944 0
M  V30 934 H 81.5675 -2.68952 2.77852 0
M  V30 935 H 83.2565 -2.53685 3.16857 0
M  V30 936 H 84.0225 -0.667774 4.80381 0
M  V30 937 H 79.9015 -1.76598 4.25833 0
M  V30 938 H 83.4455 0.375657 6.96588 0
M  V30 939 H 79.3425 -0.728659 6.41374 0
M  V30 940 H 80.1105 0.367186 8.17676 0
M  V30 941 N 82.7736 -1.49793 -0.48987 0
M  V30 942 C 83.7036 -1.70201 -1.59856 0
M  V30 943 C 84.6846 -0.55076 -1.60937 0
M  V30 944 O 85.8696 -0.787841 -1.77501 0
M  V30 945 C 82.9996 -1.77882 -2.98287 0
M  V30 946 C 81.9536 -2.92907 -3.12073 0
M  V30 947 C 81.2796 -2.85712 -4.51965 0
M  V30 948 C 82.5796 -4.3369 -2.91051 0
M  V30 949 H 84.2736 -2.63025 -1.43032 0
M  V30 950 H 81.8196 -1.26574 -0.686664 0
M  V30 951 H 83.7726 -1.90744 -3.75759 0
M  V30 952 H 82.4966 -0.816653 -3.16225 0
M  V30 953 H 81.1556 -2.79665 -2.37029 0
M  V30 954 H 80.8036 -1.8738 -4.66795 0
M  V30 955 H 80.5036 -3.62921 -4.62128 0
M  V30 956 H 82.0276 -3.00598 -5.31482 0
M  V30 957 H 83.4416 -4.47555 -3.58284 0
M  V30 958 H 81.8386 -5.12205 -3.12675 0
M  V30 959 H 82.9086 -4.47362 -1.87071 0
M  V30 960 N 84.2517 0.741722 -1.39055 0
M  V30 961 C 85.1617 1.88621 -1.39496 0
M  V30 962 C 86.1777 1.71557 -0.290578 0
M  V30 963 O 87.3537 1.94275 -0.530954 0
M  V30 964 C 84.4187 3.24134 -1.23037 0
M  V30 965 C 83.4797 3.5364 -2.43387 0
M  V30 966 C 82.7127 4.82687 -2.27703 0
M  V30 967 O 82.9357 5.55922 -1.27696 0
M  V30 968 O 81.8697 5.1194 -3.16545 0
M  V30 969 H 85.6957 1.91203 -2.35956 0
M  V30 970 H 83.2807 0.888625 -1.20099 0
M  V30 971 H 85.1627 4.0513 -1.15964 0
M  V30 972 H 83.8377 3.22337 -0.296691 0
M  V30 973 H 82.7447 2.72758 -2.56035 0
M  V30 974 H 84.0777 3.60209 -3.35425 0
M  V30 975 N 85.7298 1.2412 0.971189 0
M  V30 976 C 86.9548 1.10667 1.75407 0
M  V30 977 C 87.3798 -0.337048 1.85056 0
M  V30 978 O 86.7378 -1.24396 1.31892 0
M  V30 979 C 86.7858 1.74726 3.15441 0
M  V30 980 O 85.8898 1.01566 3.99697 0
M  V30 981 H 85.2308 0.387341 0.539317 0
M  V30 982 H 87.7608 1.64358 1.2185 0
M  V30 983 H 87.7708 1.80341 3.6598 0
M  V30 984 H 86.4458 2.79773 3.07734 0
M  V30 985 H 85.0228 1.03713 3.58187 0
M  V30 986 N 87.2079 -1.17134 1.05439 0
M  V30 987 C 88.6239 -1.39454 0.776201 0
M  V30 988 C 88.8239 -1.91454 -0.628307 0
M  V30 989 O 87.8799 -2.10777 -1.39031 0
M  V30 990 C 89.1929 -2.38305 1.83388 0
M  V30 991 C 90.7409 -2.52006 1.85639 0
M  V30 992 C 91.2159 -3.54133 2.90437 0
M  V30 993 N 92.7069 -3.61653 2.89415 0
M  V30 994 C 93.4419 -4.4044 3.67152 0
M  V30 995 N 92.9379 -5.22721 4.54681 0
M  V30 996 N 94.7309 -4.35337 3.55581 0
M  V30 997 H 86.8819 -0.817134 1.96053 0
M  V30 998 H 89.1449 -0.421626 0.849079 0
M  V30 999 H 88.8509 -2.07173 2.84204 0
M  V30 1000 H 88.7249 -3.37841 1.67761 0
M  V30 1001 H 91.1119 -2.82447 0.85486 0
M  V30 1002 H 91.1929 -1.52537 2.05344 0
M  V30 1003 H 90.8369 -3.24431 3.90777 0
M  V30 1004 H 90.7669 -4.53313 2.67983 0
M  V30 1005 H 93.2579 -3.02909 2.25952 0
M  V30 1006 H 93.5709 -5.80027 5.10674 0
M  V30 1007 H 91.9159 -5.22093 4.58741 0
M  V30 1008 H 95.1069 -3.70112 2.86592 0
M  V30 1009 H 95.2799 -4.96494 4.1641 0
M  V30 1010 N 88.686 -0.835752 -1.33615 0
M  V30 1011 C 89.911 -0.442389 -2.02627 0
M  V30 1012 C 90.336 0.947735 -1.62479 0
M  V30 1013 O 89.694 1.61907 -0.815826 0
M  V30 1014 C 89.742 -0.567216 -3.56111 0
M  V30 1015 O 88.846 0.407799 -4.10379 0
M  V30 1016 H 88.187 -0.180278 -0.639059 0
M  V30 1017 H 90.717 -1.12972 -1.70583 0
M  V30 1018 H 90.727 -0.447708 -4.05536 0
M  V30 1019 H 89.402 -1.58103 -3.84677 0
M  V30 1020 H 87.979 0.246107 -3.72087 0
M  V30 1021 N 90.1641 1.46063 -0.591896 0
M  V30 1022 C 91.4131 2.01547 -0.0786637 0
M  V30 1023 C 91.7261 1.46796 1.29268 0
M  V30 1024 O 92.9321 1.94157 1.89777 0
M  V30 1025 C 91.3881 3.59787 -0.0900024 0
M  V30 1026 C 90.9961 4.23534 -1.46023 0
M  V30 1027 C 92.7401 4.22895 0.368806 0
M  V30 1028 C 90.6471 5.73881 -1.4288 0
M  V30 1029 H 89.5771 0.753564 -0.0256388 0
M  V30 1030 H 92.2281 1.677 -0.744905 0
M  V30 1031 H 90.6101 3.90752 0.642586 0
M  V30 1032 H 91.7841 4.04167 -2.21328 0
M  V30 1033 H 90.0991 3.72558 -1.85982 0
M  V30 1034 H 92.6961 5.33116 0.411258 0
M  V30 1035 H 93.0391 3.9247 1.38827 0
M  V30 1036 H 93.5721 3.9659 -0.31001 0
M  V30 1037 H 90.3111 6.0898 -2.42536 0
M  V30 1038 H 89.8311 5.95486 -0.718095 0
M  V30 1039 H 91.5101 6.36776 -1.14565 0
M  V30 1040 N 91.6422 0.330177 1.54103 0
M  V30 1041 C 92.5902 -0.548226 2.26047 0
M  V30 1042 C 93.5842 -1.11309 1.27698 0
M  V30 1043 O 94.7902 -1.06036 1.45452 0
M  V30 1044 H 91.1652 -0.195456 0.726155 0
M  V30 1045 H 93.1362 0.0807567 2.98291 0
M  V30 1046 C 91.8852 -1.69415 3.03634 0
M  V30 1047 H 91.2082 -1.26876 3.79134 0
M  V30 1048 H 92.6482 -2.28423 3.5721 0
M  V30 1049 C 91.1072 -2.61569 2.12328 0
M  V30 1050 O 91.6372 -3.63462 1.7105 0
M  V30 1051 N 89.8432 -2.29952 1.77681 0
M  V30 1052 H 89.3902 -1.47134 2.11446 0
M  V30 1053 H 89.3482 -2.91871 1.16869 0
M  V30 1054 N 93.1203 -1.57491 0.0584922 0
M  V30 1055 C 94.0303 -2.15448 -0.928414 0
M  V30 1056 C 95.0463 -1.11416 -1.3365 0
M  V30 1057 O 96.2223 -1.4362 -1.41193 0
M  V30 1058 C 93.2873 -2.69393 -2.18239 0
M  V30 1059 C 92.3483 -3.88249 -1.83196 0
M  V30 1060 C 91.5813 -4.39613 -3.02616 0
M  V30 1061 O 91.8043 -3.90023 -4.16219 0
M  V30 1062 O 90.7383 -5.31111 -2.83204 0
M  V30 1063 H 94.5643 -3.00112 -0.465483 0
M  V30 1064 H 92.1493 -1.48499 -0.163826 0
M  V30 1065 H 94.0313 -3.04026 -2.91798 0
M  V30 1066 H 92.7063 -1.87796 -2.63656 0
M  V30 1067 H 91.6133 -3.58492 -1.06931 0
M  V30 1068 H 92.9463 -4.71098 -1.42573 0
M  V30 1069 N 94.5984 0.214957 -1.56127 0
M  V30 1070 C 95.5454 1.26642 -1.92952 0
M  V30 1071 C 96.5154 1.46244 -0.78753 0
M  V30 1072 O 97.7004 1.59704 -1.04399 0
M  V30 1073 C 94.8404 2.6104 -2.25726 0
M  V30 1074 C 93.9534 2.49183 -3.52891 0
M  V30 1075 C 93.0884 3.76149 -3.7508 0
M  V30 1076 C 92.1274 3.59041 -4.95738 0
M  V30 1077 N 91.2644 4.77972 -5.14283 0
M  V30 1078 H 96.1044 0.945384 -2.82607 0
M  V30 1079 H 93.6414 0.455489 -1.3987 0
M  V30 1080 H 95.5994 3.39313 -2.42739 0
M  V30 1081 H 94.2294 2.91227 -1.39236 0
M  V30 1082 H 93.2814 1.6231 -3.44034 0
M  V30 1083 H 94.5934 2.32466 -4.41318 0
M  V30 1084 H 93.7474 4.62865 -3.92226 0
M  V30 1085 H 92.4864 3.95799 -2.84947 0
M  V30 1086 H 91.4914 2.7071 -4.78535 0
M  V30 1087 H 92.7164 3.40856 -5.87362 0
M  V30 1088 H 90.6624 4.97923 -4.27093 0
M  V30 1089 H 90.5794 4.64006 -5.96853 0
M  V30 1090 H 91.8474 5.66096 -5.35869 0
M  V30 1091 N 96.0765 1.50051 0.48192 0
M  V30 1092 C 97.3535 1.51009 1.2432 0
M  V30 1093 C 97.7335 0.248587 2.09631 0
M  V30 1094 O 97.0815 -0.768409 2.15192 0
M  V30 1095 C 97.2915 2.79981 2.08355 0
M  V30 1096 C 98.6395 3.3022 2.66908 0
M  V30 1097 O 99.6635 2.81228 2.18607 0
M  V30 1098 O 98.5225 4.15595 3.54884 0
M  V30 1099 H 95.6165 0.605239 0.563573 0
M  V30 1100 H 98.1625 1.62332 0.494627 0
M  V30 1101 H 96.9345 3.63275 1.45419 0
M  V30 1102 H 96.5575 2.7161 2.90368 0
M  V30 1103 N 97.5546 -0.734337 1.39446 0
M  V30 1104 C 98.7846 -1.52137 1.39778 0
M  V30 1105 C 99.1926 -1.89198 -0.00929312 0
M  V30 1106 O 98.5356 -1.54666 -0.991168 0
M  V30 1107 C 98.5976 -2.83762 2.20724 0
M  V30 1108 C 98.2616 -2.69131 3.69347 0
M  V30 1109 C 99.2586 -2.37635 4.62413 0
M  V30 1110 C 96.9436 -2.85982 4.1294 0
M  V30 1111 C 98.9376 -2.23172 5.97054 0
M  V30 1112 C 96.6246 -2.71137 5.47657 0
M  V30 1113 C 97.6226 -2.39777 6.39528 0
M  V30 1114 O 97.3106 -2.25026 7.71763 0
M  V30 1115 H 97.0426 -0.476717 0.479288 0
M  V30 1116 H 99.5966 -0.915012 1.83893 0
M  V30 1117 H 97.8266 -3.4666 1.71359 0
M  V30 1118 H 99.5156 -3.45383 2.13226 0
M  V30 1119 H 100.282 -2.24267 4.30034 0
M  V30 1120 H 96.1606 -3.09383 3.41765 0
M  V30 1121 H 99.7046 -1.98617 6.68728 0
M  V30 1122 H 95.6016 -2.84083 5.79626 0
M  V30 1123 H 96.3696 -2.40091 7.82495 0
M  V30 1124 N 99.0327 -1.24633 -0.964593 0
M  V30 1125 C 99.9827 -1.00841 -2.04487 0
M  V30 1126 C 100.967 0.0512468 -1.60818 0
M  V30 1127 O 102.159 -0.162865 -1.76249 0
M  V30 1128 C 99.2877 -0.618474 -3.37683 0
M  V30 1129 C 98.3737 -1.71437 -3.87905 0
M  V30 1130 N 98.7647 -2.9477 -4.11029 0
M  V30 1131 C 97.0627 -1.5926 -4.16596 0
M  V30 1132 C 97.7637 -3.65834 -4.52261 0
M  V30 1133 N 96.7397 -2.9341 -4.57615 0
M  V30 1134 H 100.542 -1.94487 -2.20345 0
M  V30 1135 H 98.0557 -1.14805 -1.14863 0
M  V30 1136 H 100.053 -0.429247 -4.14684 0
M  V30 1137 H 98.7127 0.310766 -3.23209 0
M  V30 1138 H 99.7237 -3.30917 -3.9839 0
M  V30 1139 H 96.4007 -0.731606 -4.1104 0
M  V30 1140 H 97.7907 -4.71646 -4.78539 0
M  V30 1141 N 100.511 1.16574 -1.06058 0
M  V30 1142 C 101.736 1.91493 -0.796562 0
M  V30 1143 C 102.161 1.76773 0.642868 0
M  V30 1144 O 101.519 1.09142 1.44768 0
M  V30 1145 C 101.567 3.40293 -1.19303 0
M  V30 1146 O 100.671 4.11074 -0.330394 0
M  V30 1147 H 100.012 0.596678 -0.291326 0
M  V30 1148 H 102.542 1.47708 -1.41575 0
M  V30 1149 H 102.552 3.91057 -1.16356 0
M  V30 1150 H 101.227 3.50326 -2.24153 0
M  V30 1151 H 99.8038 3.70513 -0.421225 0
M  V30 1152 N 101.989 0.842826 1.3317 0
M  V30 1153 C 103.405 0.531128 1.50503 0
M  V30 1154 C 103.605 -0.940734 1.78192 0
M  V30 1155 O 102.661 -1.72436 1.84451 0
M  V30 1156 C 103.974 1.40789 2.65705 0
M  V30 1157 C 105.522 1.40708 2.79589 0
M  V30 1158 C 105.997 2.26878 3.97857 0
M  V30 1159 N 107.488 2.24609 4.05099 0
M  V30 1160 C 108.223 2.88019 4.95815 0
M  V30 1161 N 107.719 3.60496 5.9162 0
M  V30 1162 N 109.512 2.77469 4.88843 0
M  V30 1163 H 101.663 1.79557 1.1346 0
M  V30 1164 H 103.926 0.766267 0.558156 0
M  V30 1165 H 103.632 2.454 2.51936 0
M  V30 1166 H 103.506 1.08677 3.61205 0
M  V30 1167 H 105.893 0.368668 2.92788 0
M  V30 1168 H 105.974 1.76829 1.84838 0
M  V30 1169 H 105.618 3.3078 3.85418 0
M  V30 1170 H 105.548 1.88096 4.91861 0
M  V30 1171 H 108.039 1.71906 3.36536 0
M  V30 1172 H 108.352 4.06076 6.57512 0
M  V30 1173 H 106.697 3.64604 5.91683 0
M  V30 1174 H 109.888 2.20406 4.12963 0
M  V30 1175 H 110.061 3.2717 5.59342 0
M  V30 1176 N 103.467 -1.45747 0.599634 0
M  V30 1177 C 104.883 -1.57424 0.26264 0
M  V30 1178 C 105.083 -1.59222 -1.23493 0
M  V30 1179 O 104.139 -1.51825 -2.01756 0
M  V30 1180 C 105.452 -2.86061 0.926795 0
M  V30 1181 C 107 -2.99722 0.901967 0
M  V30 1182 C 107.475 -4.31119 1.54598 0
M  V30 1183 N 108.966 -4.37858 1.5111 0
M  V30 1184 C 109.701 -5.3818 1.97863 0
M  V30 1185 N 109.197 -6.45083 2.52666 0
M  V30 1186 N 110.99 -5.29487 1.88679 0
M  V30 1187 H 103.141 -1.42823 1.57211 0
M  V30 1188 H 105.404 -0.68235 0.658105 0
M  V30 1189 H 105.11 -2.90605 1.98095 0
M  V30 1190 H 104.984 -3.74563 0.445238 0
M  V30 1191 H 107.371 -2.9475 -0.143617 0
M  V30 1192 H 107.452 -2.12652 1.42171 0
M  V30 1193 H 107.096 -4.36849 2.59085 0
M  V30 1194 H 107.026 -5.16992 1.00132 0
M  V30 1195 H 109.517 -3.61209 1.11068 0
M  V30 1196 H 109.83 -7.17869 2.86155 0
M  V30 1197 H 108.175 -6.45856 2.56701 0
M  V30 1198 H 111.366 -4.44877 1.4561 0
M  V30 1199 H 111.539 -6.07524 2.25429 0
M  V30 1200 N 104.945 -0.338344 -1.53925 0
M  V30 1201 C 106.175 0.260919 -2.04946 0
M  V30 1202 C 106.583 1.45174 -1.2133 0
M  V30 1203 O 105.926 1.82122 -0.240262 0
M  V30 1204 C 105.988 0.744596 -3.51704 0
M  V30 1205 C 105.652 -0.325883 -4.55837 0
M  V30 1206 C 106.649 -1.16687 -5.06636 0
M  V30 1207 C 104.334 -0.478317 -5.00017 0
M  V30 1208 C 106.328 -2.14588 -6.00192 0
M  V30 1209 C 104.015 -1.46073 -5.93385 0
M  V30 1210 C 105.013 -2.29297 -6.4336 0
M  V30 1211 O 104.701 -3.25867 -7.34892 0
M  V30 1212 H 104.433 0.0551207 -0.673749 0
M  V30 1213 H 106.987 -0.486984 -1.99544 0
M  V30 1214 H 105.217 1.54366 -3.54553 0
M  V30 1215 H 106.906 1.26383 -3.85723 0
M  V30 1216 H 107.672 -1.06016 -4.73271 0
M  V30 1217 H 103.551 0.159613 -4.60724 0
M  V30 1218 H 107.095 -2.79585 -6.39123 0
M  V30 1219 H 102.992 -1.56802 -6.26166 0
M  V30 1220 H 103.76 -3.21278 -7.5281 0
M  V30 1221 N 106.423 1.57458 -0.0668435 0
M  V30 1222 C 107.672 1.92477 0.602947 0
M  V30 1223 C 107.985 0.948419 1.71068 0
M  V30 1224 O 109.191 1.19124 2.43971 0
M  V30 1225 C 107.647 3.41903 1.12383 0
M  V30 1226 C 107.255 4.47975 0.04737 0
M  V30 1227 C 108.999 3.85931 1.76797 0
M  V30 1228 C 106.906 5.88529 0.582022 0
M  V30 1229 H 105.836 0.718387 0.22899 0
M  V30 1230 H 108.487 1.82978 -0.138276 0
M  V30 1231 H 106.869 3.46459 1.91787 0
M  V30 1232 H 108.043 4.55029 -0.726978 0
M  V30 1233 H 106.358 4.13384 -0.500243 0
M  V30 1234 H 108.955 4.88322 2.17821 0
M  V30 1235 H 109.298 3.23029 2.62599 0
M  V30 1236 H 109.831 3.83958 1.04024 0
M  V30 1237 H 106.57 6.55065 -0.238721 0
M  V30 1238 H 106.09 5.85004 1.324 0
M  V30 1239 H 107.769 6.38258 1.05999 0
M  V30 1240 N 107.901 -0.206675 1.56239 0
M  V30 1241 C 109.178 -0.954051 1.70755 0
M  V30 1242 C 109.558 -2.01841 0.618353 0
M  V30 1243 O 108.906 -2.25444 -0.372434 0
M  V30 1244 C 109.116 -1.551 3.12642 0
M  V30 1245 C 110.464 -2.03757 3.72516 0
M  V30 1246 O 111.488 -1.64965 3.15698 0
M  V30 1247 O 110.347 -2.75103 4.72208 0
M  V30 1248 H 107.441 -0.446636 0.696021 0
M  V30 1249 H 109.987 -0.197283 1.68549 0
M  V30 1250 H 108.759 -0.783212 3.83382 0
M  V30 1251 H 108.382 -2.37291 3.19028 0
M  V30 1252 N 109.379 -1.50304 -0.473955 0
M  V30 1253 C 110.289 -1.7174 -1.5982 0
M  V30 1254 C 111.305 -0.600457 -1.63311 0
M  V30 1255 O 112.481 -0.878441 -1.81233 0
M  V30 1256 C 109.546 -1.80427 -2.96052 0
M  V30 1257 C 108.607 -3.04148 -3.02972 0
M  V30 1258 C 107.84 -3.12411 -4.32706 0
M  V30 1259 O 108.063 -2.27542 -5.23049 0
M  V30 1260 O 106.997 -4.05113 -4.45159 0
M  V30 1261 H 110.823 -2.67035 -1.44657 0
M  V30 1262 H 108.408 -1.34366 -0.653148 0
M  V30 1263 H 110.29 -1.88338 -3.7697 0
M  V30 1264 H 108.965 -0.883156 -3.11419 0
M  V30 1265 H 107.872 -3.0174 -2.21142 0
M  V30 1266 H 109.205 -3.95829 -2.92541 0
M  V30 1267 N 110.857 0.726932 -1.39834 0
M  V30 1268 C 112.087 1.51393 -1.40583 0
M  V30 1269 C 112.495 1.892 -0.000740625 0
M  V30 1270 O 111.838 1.55189 0.982951 0
M  V30 1271 C 111.9 2.82588 -2.22226 0
M  V30 1272 C 111.564 2.67169 -3.70769 0
M  V30 1273 C 112.561 2.3518 -4.63666 0
M  V30 1274 C 110.246 2.83788 -4.14451 0
M  V30 1275 C 112.24 2.20002 -5.98229 0
M  V30 1276 C 109.927 2.68229 -5.49087 0
M  V30 1277 C 110.925 2.36382 -6.4079 0
M  V30 1278 O 110.613 2.2093 -7.72946 0
M  V30 1279 H 110.345 0.474168 -0.48181 0
M  V30 1280 H 112.899 0.905247 -1.84376 0
M  V30 1281 H 111.129 3.45746 -1.73195 0
M  V30 1282 H 112.818 3.44247 -2.15055 0
M  V30 1283 H 113.584 2.21984 -4.31217 0
M  V30 1284 H 109.463 3.07566 -3.43401 0
M  V30 1285 H 113.007 1.95067 -6.69772 0
M  V30 1286 H 108.904 2.81006 -5.81125 0
M  V30 1287 H 109.672 2.35937 -7.83757 0
M  V30 1288 N 112.336 1.25143 0.95797 0
M  V30 1289 C 113.752 1.01892 1.22842 0
M  V30 1290 C 113.952 -0.266311 1.99732 0
M  V30 1291 O 113.008 -0.979913 2.3271 0
M  V30 1292 C 114.321 2.24004 2.00606 0
M  V30 1293 C 115.869 2.28731 2.13662 0
M  V30 1294 C 116.344 3.5049 2.94823 0
M  V30 1295 N 117.835 3.50866 3.02403 0
M  V30 1296 C 118.57 4.4174 3.65586 0
M  V30 1297 N 118.066 5.42882 4.30408 0
M  V30 1298 N 119.859 4.29429 3.62694 0
M  V30 1299 H 112.01 2.07718 0.443493 0
M  V30 1300 H 114.273 0.912031 0.258657 0
M  V30 1301 H 113.979 3.17395 1.51503 0
M  V30 1302 H 113.853 2.26907 3.01319 0
M  V30 1303 H 116.24 1.35865 2.61963 0
M  V30 1304 H 116.321 2.29848 1.12265 0
M  V30 1305 H 115.965 4.43676 2.47213 0
M  V30 1306 H 115.895 3.46617 3.96439 0
M  V30 1307 H 118.386 2.777 2.56302 0
M  V30 1308 H 118.699 6.0844 4.76467 0
M  V30 1309 H 117.044 5.46758 4.29047 0
M  V30 1310 H 120.235 3.49643 3.11236 0
M  V30 1311 H 120.408 5.00448 4.1165 0
M  V30 1312 N 113.814 -1.1601 1.06675 0
M  V30 1313 C 114.762 -2.22586 0.675157 0
M  V30 1314 C 115.756 -1.66525 -0.310766 0
M  V30 1315 O 116.962 -1.79145 -0.175215 0
M  V30 1316 H 113.337 -0.724855 0.200223 0
M  V30 1317 H 115.308 -2.52899 1.58381 0
M  V30 1318 C 114.057 -3.47604 0.0817162 0
M  V30 1319 H 113.38 -3.91058 0.831484 0
M  V30 1320 H 114.82 -4.23718 -0.154708 0
M  V30 1321 C 113.279 -3.15718 -1.17576 0
M  V30 1322 O 113.809 -3.31878 -2.26318 0
M  V30 1323 N 112.015 -2.69816 -1.07923 0
M  V30 1324 H 111.562 -2.56866 -0.194293 0
M  V30 1325 H 111.52 -2.48855 -1.92141 0
M  V30 1326 N 115.292 -0.849877 -1.32721 0
M  V30 1327 C 116.569 -0.372405 -1.92022 0
M  V30 1328 C 116.949 1.1435 -1.77447 0
M  V30 1329 O 116.297 1.96296 -1.16962 0
M  V30 1330 C 116.507 -0.831482 -3.3895 0
M  V30 1331 C 117.855 -0.845882 -4.16089 0
M  V30 1332 O 118.879 -0.775806 -3.47649 0
M  V30 1333 O 117.738 -0.943753 -5.38289 0
M  V30 1334 H 114.832 -0.107667 -0.819961 0
M  V30 1335 H 117.378 -0.93646 -1.41522 0
M  V30 1336 H 116.15 -1.87448 -3.4348 0
M  V30 1337 H 115.773 -0.24461 -3.96847 0
M  V30 1338 N 116.77 1.45427 -0.607355 0
M  V30 1339 C 118 2.06314 -0.108656 0
M  V30 1340 C 118.408 1.45269 1.21217 0
M  V30 1341 O 117.751 0.561115 1.74921 0
M  V30 1342 C 117.813 3.59345 0.105618 0
M  V30 1343 C 117.477 4.42723 -1.13337 0
M  V30 1344 C 118.474 4.77715 -2.05145 0
M  V30 1345 C 116.159 4.83478 -1.36213 0
M  V30 1346 C 118.153 5.52317 -3.18158 0
M  V30 1347 C 115.84 5.57835 -2.49527 0
M  V30 1348 C 116.838 5.92171 -3.40327 0
M  V30 1349 O 116.526 6.65019 -4.51669 0
M  V30 1350 H 116.258 0.672782 -0.0658842 0
M  V30 1351 H 118.812 1.87664 -0.834945 0
M  V30 1352 H 117.042 3.76394 0.886796 0
M  V30 1353 H 118.731 4.02076 0.555886 0
M  V30 1354 H 119.497 4.46787 -1.88697 0
M  V30 1355 H 115.376 4.56188 -0.664362 0
M  V30 1356 H 118.92 5.79036 -3.89054 0
M  V30 1357 H 114.817 5.88177 -2.65928 0
M  V30 1358 H 115.585 6.83469 -4.50348 0
M  V30 1359 N 118.248 0.346503 1.53744 0
M  V30 1360 C 119.476 -0.25041 2.05379 0
M  V30 1361 C 119.891 -1.43979 1.22129 0
M  V30 1362 O 119.248 -1.80677 0.257321 0
M  V30 1363 C 119.299 -0.662575 3.55376 0
M  V30 1364 O 119.02 0.479515 4.35468 0
M  V30 1365 C 120.521 -1.31989 4.23195 0
M  V30 1366 H 117.741 -0.0478198 0.669294 0
M  V30 1367 H 120.285 0.499346 1.9831 0
M  V30 1368 H 118.44 -1.36227 3.62658 0
M  V30 1369 H 118.854 0.15037 5.24284 0
M  V30 1370 H 120.328 -1.55902 5.29527 0
M  V30 1371 H 120.805 -2.27436 3.75725 0
M  V30 1372 H 121.411 -0.662154 4.20114 0
M  V30 1373 N 119.726 -1.57421 0.075193 0
M  V30 1374 C 120.658 -2.09904 -0.920483 0
M  V30 1375 C 121.671 -1.03191 -1.25918 0
M  V30 1376 O 122.86 -1.30695 -1.21577 0
M  V30 1377 C 119.96 -2.54726 -2.23534 0
M  V30 1378 C 119.133 -3.8505 -2.07498 0
M  V30 1379 C 118.192 -4.15929 -3.22319 0
M  V30 1380 O 117.218 -4.85474 -2.9716 0
M  V30 1381 N 118.42 -3.69745 -4.47514 0
M  V30 1382 H 121.185 -2.95954 -0.472359 0
M  V30 1383 H 118.746 -1.61523 -0.110444 0
M  V30 1384 H 120.738 -2.72443 -2.9926 0
M  V30 1385 H 119.308 -1.73795 -2.59835 0
M  V30 1386 H 118.528 -3.76679 -1.16219 0
M  V30 1387 H 119.816 -4.70348 -1.94038 0
M  V30 1388 H 119.214 -3.13569 -4.7084 0
M  V30 1389 H 117.771 -3.92655 -5.20255 0
M  V30 1390 N 121.204 0.198386 -1.56346 0
M  V30 1391 C 122.452 0.91747 -1.80075 0
M  V30 1392 C 122.773 1.83929 -0.647692 0
M  V30 1393 O 122.043 1.93029 0.334166 0
M  V30 1394 H 120.623 0.341774 -0.664228 0
M  V30 1395 H 123.285 0.204684 -1.93822 0
M  V30 1396 H 122.381 1.51055 -2.7311 0
M  V30 1397 N 122.682 1.50554 0.465978 0
M  V30 1398 C 123.922 1.63439 1.22747 0
M  V30 1399 C 124.286 0.329822 1.89146 0
M  V30 1400 O 125.487 0.334161 2.66715 0
M  V30 1401 C 123.758 2.78542 2.2394 0
M  V30 1402 S 125.317 3.11591 3.0896 0
M  V30 1403 H 122.135 0.576113 0.416672 0
M  V30 1404 H 124.737 1.88357 0.523641 0
M  V30 1405 H 123.441 3.71805 1.7375 0
M  V30 1406 H 122.972 2.55726 2.98944 0
M  V30 1407 H 124.987 2.55811 4.25176 0
M  V30 1408 N 124.16 -0.719506 1.40217 0
M  V30 1409 C 125.07 -1.86378 1.42479 0
M  V30 1410 C 126.086 -1.71073 0.317834 0
M  V30 1411 O 127.262 -1.93406 0.561794 0
M  V30 1412 C 124.327 -3.22136 1.28178 0
M  V30 1413 C 123.388 -3.49723 2.48982 0
M  V30 1414 C 122.621 -4.79004 2.35353 0
M  V30 1415 O 122.844 -5.53821 1.36524 0
M  V30 1416 O 121.778 -5.06839 3.2465 0
M  V30 1417 H 125.604 -1.87425 2.38968 0
M  V30 1418 H 123.189 -0.869405 1.21498 0
M  V30 1419 H 125.071 -4.03234 1.22395 0
M  V30 1420 H 123.746 -3.21825 0.347934 0
M  V30 1421 H 122.653 -2.6865 2.60342 0
M  V30 1422 H 123.986 -3.54828 3.41113 0
M  V30 1423 N 125.638 -1.25649 -0.95132 0
M  V30 1424 C 127.049 -1.09654 -1.51106 0
M  V30 1425 C 127.4 0.326615 -1.93462 0
M  V30 1426 O 126.525 1.21697 -1.78938 0
M  V30 1427 C 127.12 -1.98437 -2.74605 0
M  V30 1428 C 125.679 -1.86618 -3.2688 0
M  V30 1429 C 124.826 -1.9239 -1.99703 0
M  V30 1430 H 127.777 -1.38887 -0.767865 0
M  V30 1431 H 127.798 -1.5263 -3.48546 0
M  V30 1432 H 127.31 -3.02009 -2.43746 0
M  V30 1433 H 125.411 -0.859421 -3.62553 0
M  V30 1434 H 125.524 -2.71607 -3.94673 0
M  V30 1435 H 123.888 -1.36317 -2.15151 0
M  V30 1436 H 124.671 -2.97573 -1.71188 0
M  V30 1437 N 127.117 1.15442 -1.07289 0
M  V30 1438 C 128.365 1.85845 -0.794096 0
M  V30 1439 C 128.686 1.82692 0.681809 0
M  V30 1440 O 127.956 1.26741 1.49377 0
M  V30 1441 H 126.536 0.688089 -0.290763 0
M  V30 1442 H 129.198 1.39947 -1.3565 0
M  V30 1443 H 128.294 2.91001 -1.12804 0
M  V30 1444 N 128.595 0.856903 1.32268 0
M  V30 1445 C 129.545 0.274899 2.26337 0
M  V30 1446 C 130.529 -0.580543 1.50062 0
M  V30 1447 O 131.721 -0.429559 1.71708 0
M  V30 1448 C 128.85 -0.533841 3.39124 0
M  V30 1449 C 127.936 0.334114 4.22782 0
M  V30 1450 N 128.327 1.42143 4.85416 0
M  V30 1451 C 126.625 0.124256 4.45827 0
M  V30 1452 C 127.326 1.95559 5.47843 0
M  V30 1453 N 126.302 1.25444 5.28928 0
M  V30 1454 H 130.104 1.10612 2.72291 0
M  V30 1455 H 127.618 0.703258 1.46383 0
M  V30 1456 H 129.615 -0.96722 4.05525 0
M  V30 1457 H 128.275 -1.36283 2.94715 0
M  V30 1458 H 129.286 1.80436 4.85451 0
M  V30 1459 H 125.963 -0.669837 4.12092 0
M  V30 1460 H 127.353 2.86714 6.07655 0
M  V30 1461 N 130.073 -1.45103 0.615059 0
M  V30 1462 C 131.489 -1.57137 0.279322 0
M  V30 1463 C 131.689 -1.60523 -1.21797 0
M  V30 1464 O 130.745 -1.53956 -2.00134 0
M  V30 1465 C 132.058 -2.85062 0.957083 0
M  V30 1466 C 133.606 -2.98749 0.933706 0
M  V30 1467 C 134.081 -4.29455 1.59162 0
M  V30 1468 N 135.572 -4.36231 1.55746 0
M  V30 1469 C 136.307 -5.36051 2.0356 0
M  V30 1470 N 135.803 -6.42367 2.59494 0
M  V30 1471 N 137.596 -5.27456 1.94284 0
M  V30 1472 H 129.747 -1.41148 1.58717 0
M  V30 1473 H 132.01 -0.675331 0.665306 0
M  V30 1474 H 131.716 -2.88488 2.01166 0
M  V30 1475 H 131.59 -3.7407 0.48494 0
M  V30 1476 H 133.977 -2.94886 -0.112347 0
M  V30 1477 H 134.058 -2.11132 1.44419 0
M  V30 1478 H 133.702 -4.34077 2.63704 0
M  V30 1479 H 133.632 -5.15901 1.0561 0
M  V30 1480 H 136.123 -3.60011 1.14893 0
M  V30 1481 H 136.436 -7.14793 2.93752 0
M  V30 1482 H 134.781 -6.43097 2.63537 0
M  V30 1483 H 137.972 -4.43308 1.5032 0
M  V30 1484 H 138.145 -6.05099 2.3186 0
M  V30 1485 N 131.551 -0.354651 -1.53558 0
M  V30 1486 C 132.483 0.5315 -2.22952 0
M  V30 1487 C 133.496 1.05503 -1.23988 0
M  V30 1488 O 134.685 0.963279 -1.50277 0
M  V30 1489 C 131.785 1.74538 -2.90499 0
M  V30 1490 C 130.958 1.35524 -4.15875 0
M  V30 1491 C 130.017 2.42999 -4.66731 0
M  V30 1492 O 129.043 2.05844 -5.30676 0
M  V30 1493 N 130.245 3.74423 -4.43608 0
M  V30 1494 H 133.01 -0.0628615 -2.99634 0
M  V30 1495 H 130.571 -0.179302 -1.60904 0
M  V30 1496 H 132.563 2.45892 -3.21433 0
M  V30 1497 H 131.133 2.24686 -2.17336 0
M  V30 1498 H 130.353 0.471998 -3.91364 0
M  V30 1499 H 131.641 1.07071 -4.97406 0
M  V30 1500 H 131.039 4.07391 -3.92491 0
M  V30 1501 H 129.596 4.41913 -4.7912 0
M  V30 1502 N 133.029 1.57378 -0.0835403 0
M  V30 1503 C 134.445 1.57246 0.273109 0
M  V30 1504 C 134.645 1.09385 1.69225 0
M  V30 1505 O 133.701 0.765051 2.40631 0
M  V30 1506 C 135.014 3.00614 0.0720628 0
M  V30 1507 C 136.562 3.12684 0.1407 0
M  V30 1508 C 137.037 4.57989 -0.0322094 0
M  V30 1509 N 138.528 4.63194 0.0230085 0
M  V30 1510 C 139.263 5.73335 -0.0861941 0
M  V30 1511 N 138.759 6.9235 -0.24958 0
M  V30 1512 N 140.552 5.62093 -0.0282886 0
M  V30 1513 H 132.703 1.86801 -1.0109 0
M  V30 1514 H 134.966 0.861687 -0.395222 0
M  V30 1515 H 134.672 3.39786 -0.907662 0
M  V30 1516 H 134.546 3.68193 0.81936 0
M  V30 1517 H 136.933 2.73391 1.11092 0
M  V30 1518 H 137.014 2.47719 -0.637896 0
M  V30 1519 H 136.658 4.97973 -0.999247 0
M  V30 1520 H 136.588 5.21 0.765937 0
M  V30 1521 H 139.079 3.77613 0.14722 0
M  V30 1522 H 139.392 7.72117 -0.324733 0
M  V30 1523 H 137.737 6.94415 -0.285097 0
M  V30 1524 H 140.928 4.67997 0.0981408 0
M  V30 1525 H 141.101 6.47895 -0.116845 0
M  V30 1526 N 134.507 -0.190092 1.56449 0
M  V30 1527 C 135.784 -0.935886 1.71757 0
M  V30 1528 C 136.164 -2.01173 0.639726 0
M  V30 1529 O 135.512 -2.25827 -0.348502 0
M  V30 1530 C 135.722 -1.51775 3.1427 0
M  V30 1531 C 137.07 -1.99794 3.74656 0
M  V30 1532 O 138.094 -1.61607 3.1743 0
M  V30 1533 O 136.953 -2.70079 4.751 0
M  V30 1534 H 134.047 -0.439229 0.700719 0
M  V30 1535 H 136.593 -0.179395 1.68749 0
M  V30 1536 H 135.365 -0.742505 3.84191 0
M  V30 1537 H 134.988 -2.33894 3.21527 0
M  V30 1538 N 135.985 -1.50799 -0.457987 0
M  V30 1539 C 136.935 -1.67003 -1.55222 0
M  V30 1540 C 137.919 -0.52434 -1.52117 0
M  V30 1541 O 139.111 -0.779345 -1.58919 0
M  V30 1542 C 136.24 -1.77956 -2.93576 0
M  V30 1543 C 135.326 -2.98243 -3.01516 0
M  V30 1544 N 135.717 -4.21732 -2.79241 0
M  V30 1545 C 134.015 -2.97072 -3.32662 0
M  V30 1546 C 134.716 -5.02817 -2.92489 0
M  V30 1547 N 133.692 -4.37038 -3.23262 0
M  V30 1548 H 137.494 -2.60163 -1.36721 0
M  V30 1549 H 135.008 -1.48163 -0.664952 0
M  V30 1550 H 137.005 -1.87671 -3.72271 0
M  V30 1551 H 135.665 -0.859634 -3.13114 0
M  V30 1552 H 136.676 -4.51016 -2.54567 0
M  V30 1553 H 133.353 -2.14631 -3.58106 0
M  V30 1554 H 134.743 -6.11054 -2.79396 0
M  V30 1555 N 137.463 0.71206 -1.40597 0
M  V30 1556 C 138.373 1.8562 -1.43466 0
M  V30 1557 C 139.389 1.70902 -0.326902 0
M  V30 1558 O 140.565 1.93105 -0.572043 0
M  V30 1559 C 137.63 3.21451 -1.29884 0
M  V30 1560 C 136.691 3.48398 -2.50833 0
M  V30 1561 C 135.924 4.77749 -2.3789 0
M  V30 1562 O 136.147 5.53089 -1.39459 0
M  V30 1563 O 135.081 5.05111 -3.27333 0
M  V30 1564 H 138.907 1.86155 -2.39958 0
M  V30 1565 H 136.492 0.86295 -1.21957 0
M  V30 1566 H 138.374 4.02579 -1.24531 0
M  V30 1567 H 137.049 3.21636 -0.364997 0
M  V30 1568 H 135.956 2.67265 -2.61763 0
M  V30 1569 H 137.289 3.53014 -3.4299 0
M  V30 1570 N 138.941 1.26152 0.944643 0
M  V30 1571 C 140.166 1.14363 1.7302 0
M  V30 1572 C 140.591 -0.29772 1.85729 0
M  V30 1573 O 139.949 -1.2157 1.34501 0
M  V30 1574 C 139.997 1.81378 3.11664 0
M  V30 1575 O 139.101 1.10022 3.97453 0
M  V30 1576 H 138.442 0.398694 0.53098 0
M  V30 1577 H 140.972 1.66906 1.18337 0
M  V30 1578 H 140.982 1.88064 3.62072 0
M  V30 1579 H 139.657 2.86237 3.0173 0
M  V30 1580 H 138.234 1.11287 3.55907 0
M  V30 1581 N 140.419 -1.14872 1.07899 0
M  V30 1582 C 141.835 -1.37776 0.805606 0
M  V30 1583 C 142.035 -1.92743 -0.587555 0
M  V30 1584 O 141.091 -2.13678 -1.34528 0
M  V30 1585 C 142.404 -2.34361 1.88402 0
M  V30 1586 C 143.952 -2.48012 1.90942 0
M  V30 1587 C 144.427 -3.47893 2.97883 0
M  V30 1588 N 145.918 -3.55433 2.97021 0
M  V30 1589 C 146.653 -4.32553 3.76412 0
M  V30 1590 N 146.149 -5.12959 4.65666 0
M  V30 1591 N 147.942 -4.27697 3.64735 0
M  V30 1592 H 140.093 -0.775365 1.97742 0
M  V30 1593 H 142.356 -0.403521 0.857831 0
M  V30 1594 H 142.062 -2.01098 2.88535 0
M  V30 1595 H 141.936 -3.34206 1.74889 0
M  V30 1596 H 144.323 -2.8057 0.914579 0
M  V30 1597 H 144.404 -1.48147 2.08534 0
M  V30 1598 H 144.048 -3.16069 3.97571 0
M  V30 1599 H 143.978 -4.47527 2.77538 0
M  V30 1600 H 146.469 -2.98048 2.32326 0
M  V30 1601 H 146.782 -5.69065 5.22862 0
M  V30 1602 H 145.127 -5.12245 4.69712 0
M  V30 1603 H 148.318 -3.63949 2.94378 0
M  V30 1604 H 148.491 -4.8755 4.26848 0
M  V30 1605 N 141.898 -0.863906 -1.31812 0
M  V30 1606 C 143.128 -0.485406 -2.00817 0
M  V30 1607 C 143.536 0.925007 -1.65046 0
M  V30 1608 O 142.879 1.61653 -0.872574 0
M  V30 1609 C 142.941 -0.555589 -3.55181 0
M  V30 1610 C 142.605 -1.92654 -4.14407 0
M  V30 1611 C 143.602 -2.89324 -4.31958 0
M  V30 1612 C 141.287 -2.2262 -4.50273 0
M  V30 1613 C 143.281 -4.14108 -4.84555 0
M  V30 1614 C 140.968 -3.47654 -5.02573 0
M  V30 1615 C 141.966 -4.43214 -5.19664 0
M  V30 1616 O 141.654 -5.66033 -5.70843 0
M  V30 1617 H 141.386 -0.188224 -0.649267 0
M  V30 1618 H 143.94 -1.16514 -1.69156 0
M  V30 1619 H 142.17 0.181037 -3.86276 0
M  V30 1620 H 143.859 -0.19138 -4.05449 0
M  V30 1621 H 144.625 -2.6748 -4.04573 0
M  V30 1622 H 140.504 -1.4902 -4.3625 0
M  V30 1623 H 144.048 -4.88703 -4.9781 0
M  V30 1624 H 139.945 -3.69345 -5.29391 0
M  V30 1625 H 140.713 -5.6812 -5.89222 0
M  V30 1626 N 143.376 1.44774 -0.622745 0
M  V30 1627 C 144.308 2.28856 0.125485 0
M  V30 1628 C 145.321 1.40811 0.817069 0
M  V30 1629 O 146.51 1.65044 0.679918 0
M  V30 1630 C 143.61 3.16963 1.19949 0
M  V30 1631 C 142.783 4.33374 0.592064 0
M  V30 1632 C 141.842 5.02577 1.55893 0
M  V30 1633 O 140.868 5.58873 1.07933 0
M  V30 1634 N 142.07 5.03256 2.89334 0
M  V30 1635 H 144.835 2.93713 -0.596068 0
M  V30 1636 H 142.396 1.55129 -0.463303 0
M  V30 1637 H 144.388 3.60123 1.84644 0
M  V30 1638 H 142.958 2.53913 1.82337 0
M  V30 1639 H 142.178 3.93509 -0.233322 0
M  V30 1640 H 143.466 5.08527 0.166738 0
M  V30 1641 H 142.864 4.58836 3.30887 0
M  V30 1642 H 141.421 5.50232 3.49412 0
M  V30 1643 N 144.854 0.36279 1.53368 0
M  V30 1644 C 145.802 -0.500155 2.27159 0
M  V30 1645 C 146.796 -1.08575 1.3003 0
M  V30 1646 O 148.002 -1.02927 1.47668 0
M  V30 1647 H 144.377 -0.180009 0.730138 0
M  V30 1648 H 146.348 0.14401 2.98052 0
M  V30 1649 C 145.097 -1.62937 3.07159 0
M  V30 1650 H 144.42 -1.18806 3.8174 0
M  V30 1651 H 145.86 -2.20795 3.61975 0
M  V30 1652 C 144.319 -2.57007 2.17829 0
M  V30 1653 O 144.849 -3.59752 1.78721 0
M  V30 1654 N 143.055 -2.26131 1.82518 0
M  V30 1655 H 142.602 -1.42616 2.14519 0
M  V30 1656 H 142.56 -2.89327 1.23034 0
M  V30 1657 N 146.332 -1.57332 0.0918853 0
M  V30 1658 C 147.282 -2.10385 -0.87876 0
M  V30 1659 C 148.266 -1.01814 -1.24591 0
M  V30 1660 O 149.458 -1.28093 -1.22152 0
M  V30 1661 C 146.587 -2.68517 -2.13901 0
M  V30 1662 C 145.673 -3.84126 -1.79744 0
M  V30 1663 N 146.064 -4.92288 -1.1613 0
M  V30 1664 C 144.362 -3.93801 -2.09373 0
M  V30 1665 C 145.063 -5.7295 -1.00513 0
M  V30 1666 N 144.039 -5.21876 -1.5214 0
M  V30 1667 H 147.841 -2.91395 -0.38293 0
M  V30 1668 H 145.355 -1.62017 -0.111423 0
M  V30 1669 H 147.352 -3.04852 -2.84378 0
M  V30 1670 H 146.012 -1.88961 -2.64053 0
M  V30 1671 H 147.023 -5.1123 -0.828504 0
M  V30 1672 H 143.7 -3.25249 -2.61762 0
M  V30 1673 H 145.09 -6.69978 -0.507902 0
M  V30 1674 N 147.81 0.181792 -1.56548 0
M  V30 1675 C 149.035 0.920019 -1.85877 0
M  V30 1676 C 149.46 1.75494 -0.677021 0
M  V30 1677 O 148.818 1.77399 0.374056 0
M  V30 1678 C 148.866 1.78112 -3.13542 0
M  V30 1679 O 147.97 2.88152 -2.95029 0
M  V30 1680 H 147.311 0.258334 -0.611686 0
M  V30 1681 H 149.841 0.183092 -2.03779 0
M  V30 1682 H 149.851 2.18314 -3.44678 0
M  V30 1683 H 148.526 1.16777 -3.99169 0
M  V30 1684 H 147.103 2.51609 -2.75222 0
M  V30 1685 N 149.288 1.51039 0.449983 0
M  V30 1686 C 150.513 1.6715 1.22783 0
M  V30 1687 C 150.938 0.363081 1.84563 0
M  V30 1688 O 150.296 -0.675433 1.68249 0
M  V30 1689 C 150.344 2.77985 2.29689 0
M  V30 1690 O 149.448 2.40707 3.34864 0
M  V30 1691 H 148.789 0.557746 0.360299 0
M  V30 1692 H 151.319 1.97535 0.533005 0
M  V30 1693 H 151.329 3.01693 2.74673 0
M  V30 1694 H 150.004 3.72935 1.84098 0
M  V30 1695 H 148.581 2.27523 2.95445 0
M  V30 1696 N 150.766 -0.704594 1.40972 0
M  V30 1697 C 151.713 -1.81862 1.42109 0
M  V30 1698 C 152.683 -1.63781 0.276593 0
M  V30 1699 O 153.868 -1.84759 0.4763 0
M  V30 1700 C 151.008 -3.19669 1.30022 0
M  V30 1701 C 150.121 -3.49246 2.54267 0
M  V30 1702 C 149.256 -4.76618 2.3454 0
M  V30 1703 C 148.295 -4.99133 3.54306 0
M  V30 1704 N 147.432 -6.17726 3.33706 0
M  V30 1705 H 152.272 -1.80226 2.37324 0
M  V30 1706 H 149.809 -0.880238 1.17857 0
M  V30 1707 H 151.767 -3.99263 1.21018 0
M  V30 1708 H 150.397 -3.20506 0.384192 0
M  V30 1709 H 149.449 -2.64125 2.73756 0
M  V30 1710 H 150.761 -3.61788 3.43381 0
M  V30 1711 H 149.915 -5.64249 2.22952 0
M  V30 1712 H 148.654 -4.66305 1.42867 0
M  V30 1713 H 147.659 -4.09953 3.66359 0
M  V30 1714 H 148.884 -5.11311 4.4692 0
M  V30 1715 H 146.83 -6.08642 2.44725 0
M  V30 1716 H 146.747 -6.30995 4.16391 0
M  V30 1717 H 148.015 -7.08115 3.25873 0
M  V30 1718 N 152.244 -1.26651 -0.937939 0
M  V30 1719 C 153.469 -1.15279 -1.72411 0
M  V30 1720 C 153.894 0.287866 -1.85884 0
M  V30 1721 O 153.252 1.20855 -1.35143 0
M  V30 1722 C 153.3 -1.83028 -3.10698 0
M  V30 1723 O 152.404 -1.12128 -3.96864 0
M  V30 1724 H 151.745 -0.401504 -0.528858 0
M  V30 1725 H 154.275 -1.67531 -1.1745 0
M  V30 1726 H 154.285 -1.89981 -3.6107 0
M  V30 1727 H 152.96 -2.87833 -3.00208 0
M  V30 1728 H 151.537 -1.13173 -3.55312 0
M  V30 1729 N 153.722 1.14298 -1.08507 0
M  V30 1730 C 154.947 1.8976 -0.837001 0
M  V30 1731 C 155.372 1.78097 0.605228 0
M  V30 1732 O 154.73 1.12188 1.4242 0
M  V30 1733 C 154.778 3.37685 -1.26495 0
M  V30 1734 O 153.882 4.10281 -0.417514 0
M  V30 1735 H 153.223 0.590365 -0.303917 0
M  V30 1736 H 155.753 1.44672 -1.44676 0
M  V30 1737 H 155.763 3.88501 -1.24625 0
M  V30 1738 H 154.438 3.45492 -2.31534 0
M  V30 1739 H 153.015 3.69536 -0.499722 0
M  V30 1740 N 155.201 0.870884 1.31352 0
M  V30 1741 C 156.449 0.48132 1.96285 0
M  V30 1742 C 156.77 -0.969813 1.69173 0
M  V30 1743 O 156.04 -1.67998 1.00764 0
M  V30 1744 H 154.62 0.175002 0.726212 0
M  V30 1745 H 157.282 1.11087 1.60143 0
M  V30 1746 H 156.378 0.639825 3.05471 0
M  V30 1747 N 156.679 -1.44442 0.630414 0
M  V30 1748 C 158.095 -1.56832 0.295973 0
M  V30 1749 C 158.295 -1.61806 -1.20088 0
M  V30 1750 O 157.351 -1.5607 -1.9849 0
M  V30 1751 C 158.664 -2.84031 0.987264 0
M  V30 1752 C 160.212 -2.97742 0.96534 0
M  V30 1753 C 160.687 -4.27743 1.63708 0
M  V30 1754 N 162.178 -4.34555 1.60364 0
M  V30 1755 C 162.913 -5.33862 2.09234 0
M  V30 1756 N 162.409 -6.39578 2.66292 0
M  V30 1757 N 164.202 -5.25366 1.99867 0
M  V30 1758 H 156.353 -1.39457 1.60205 0
M  V30 1759 H 158.616 -0.668237 0.672431 0
M  V30 1760 H 158.322 -2.86338 2.04215 0
M  V30 1761 H 158.196 -3.73534 0.524588 0
M  V30 1762 H 160.583 -2.94989 -0.0810639 0
M  V30 1763 H 160.664 -2.09589 1.4665 0
M  V30 1764 H 160.308 -4.31255 2.68293 0
M  V30 1765 H 160.238 -5.14752 1.11076 0
M  V30 1766 H 162.729 -3.58772 1.18705 0
M  V30 1767 H 163.042 -7.11637 3.01317 0
M  V30 1768 H 161.387 -6.40265 2.70343 0
M  V30 1769 H 164.578 -4.41688 1.55013 0
M  V30 1770 H 164.751 -6.02606 2.38265 0
M  V30 1771 N 158.157 -0.370918 -1.53173 0
M  V30 1772 C 159.382 0.220293 -2.06227 0
M  V30 1773 C 159.807 1.41243 -1.24225 0
M  V30 1774 O 159.165 1.79387 -0.262645 0
M  V30 1775 C 159.213 0.586663 -3.55796 0
M  V30 1776 O 158.317 1.68317 -3.76488 0
M  V30 1777 H 157.658 0.0308099 -0.663285 0
M  V30 1778 H 160.188 -0.533068 -1.97534 0
M  V30 1779 H 160.198 0.85617 -3.98916 0
M  V30 1780 H 158.873 -0.285013 -4.14922 0
M  V30 1781 H 157.45 1.40881 -3.45264 0
M  V30 1782 N 159.635 1.57281 -0.100228 0
M  V30 1783 C 160.883 1.94153 0.561157 0
M  V30 1784 C 161.204 0.983157 1.68401 0
M  V30 1785 O 160.474 0.0361132 1.95867 0
M  V30 1786 H 159.054 0.716791 0.210283 0
M  V30 1787 H 161.716 1.94202 -0.164765 0
M  V30 1788 H 160.812 2.96709 0.968008 0
M  V30 1789 N 161.113 -0.173488 1.56642 0
M  V30 1790 C 162.529 -0.525174 1.50712 0
M  V30 1791 C 162.729 -1.8476 0.804107 0
M  V30 1792 O 161.785 -2.49869 0.363574 0
M  V30 1793 C 163.098 -0.559937 2.95441 0
M  V30 1794 C 164.646 -0.647288 3.06234 0
M  V30 1795 C 165.121 -0.712963 4.52417 0
M  V30 1796 N 166.612 -0.775911 4.56655 0
M  V30 1797 C 167.347 -0.847264 5.67106 0
M  V30 1798 N 166.843 -0.879585 6.87194 0
M  V30 1799 N 168.636 -0.886117 5.55071 0
M  V30 1800 H 160.787 0.693681 2.00753 0
M  V30 1801 H 163.05 0.249841 0.914485 0
M  V30 1802 H 162.756 0.343049 3.50023 0
M  V30 1803 H 162.63 -1.40718 3.49969 0
M  V30 1804 H 165.017 -1.5407 2.51687 0
M  V30 1805 H 165.098 0.226586 2.54794 0
M  V30 1806 H 164.742 0.176183 5.07594 0
M  V30 1807 H 164.672 -1.60295 5.0161 0
M  V30 1808 H 167.163 -0.759304 3.70193 0
M  V30 1809 H 167.476 -0.935144 7.67121 0
M  V30 1810 H 165.821 -0.847898 6.89808 0
M  V30 1811 H 169.012 -0.857853 4.60172 0
M  V30 1812 H 169.185 -0.938263 6.41171 0
M  V30 1813 N 162.591 -1.51276 -0.441967 0
M  V30 1814 C 163.816 -1.67799 -1.21895 0
M  V30 1815 C 164.241 -0.372864 -1.84367 0
M  V30 1816 O 163.599 0.666501 -1.68604 0
M  V30 1817 C 163.647 -2.79199 -2.28211 0
M  V30 1818 O 162.751 -2.42479 -3.33583 0
M  V30 1819 H 162.092 -0.559649 -0.357336 0
M  V30 1820 H 164.622 -1.97815 -0.522522 0
M  V30 1821 H 164.632 -3.03146 -2.73069 0
M  V30 1822 H 163.307 -3.73906 -1.82118 0
M  V30 1823 H 161.884 -2.29087 -2.94234 0
M  V30 1824 N 164.069 0.697108 -1.41344 0
M  V30 1825 C 165.294 1.49096 -1.44171 0
M  V30 1826 C 165.719 1.88038 -0.0481568 0
M  V30 1827 O 165.077 1.54525 0.948243 0
M  V30 1828 C 165.125 2.73088 -2.3549 0
M  V30 1829 O 164.229 3.70514 -1.81088 0
M  V30 1830 H 163.57 0.448801 -0.489361 0
M  V30 1831 H 166.1 0.856992 -1.85787 0
M  V30 1832 H 166.11 3.21413 -2.51312 0
M  V30 1833 H 164.785 2.44081 -3.36745 0
M  V30 1834 H 163.362 3.29441 -1.74708 0
M  V30 1835 N 165.547 1.27147 0.931209 0
M  V30 1836 C 166.777 1.15914 1.71019 0
M  V30 1837 C 167.185 -0.287112 1.87009 0
M  V30 1838 O 166.528 -1.20761 1.38429 0
M  V30 1839 C 166.59 1.76647 3.13107 0
M  V30 1840 C 166.254 3.25807 3.20467 0
M  V30 1841 C 167.251 4.22489 3.02983 0
M  V30 1842 C 164.936 3.66452 3.43538 0
M  V30 1843 C 166.93 5.57794 3.08454 0
M  V30 1844 C 164.617 5.01888 3.48643 0
M  V30 1845 C 165.615 5.97369 3.31119 0
M  V30 1846 O 165.303 7.30337 3.35952 0
M  V30 1847 H 165.035 0.404062 0.54195 0
M  V30 1848 H 167.589 1.68457 1.17521 0
M  V30 1849 H 165.819 1.18578 3.68071 0
M  V30 1850 H 167.508 1.60179 3.72958 0
M  V30 1851 H 168.274 3.92425 2.85004 0
M  V30 1852 H 164.153 2.92611 3.5623 0
M  V30 1853 H 167.697 6.32298 2.94694 0
M  V30 1854 H 163.594 5.31609 3.66145 0
M  V30 1855 H 164.362 7.38739 3.5243 0
M  V30 1856 N 167.025 -1.13721 1.09112 0
M  V30 1857 C 167.972 -2.19031 0.727591 0
M  V30 1858 C 168.942 -1.63555 -0.289656 0
M  V30 1859 O 170.127 -1.90023 -0.172026 0
M  V30 1860 C 167.267 -3.4477 0.15082 0
M  V30 1861 C 166.38 -4.14365 1.22172 0
M  V30 1862 C 165.515 -5.27709 0.608042 0
M  V30 1863 C 164.554 -5.89147 1.66047 0
M  V30 1864 N 163.691 -6.93929 1.06806 0
M  V30 1865 H 168.531 -2.49475 1.62991 0
M  V30 1866 H 166.068 -1.22499 0.81439 0
M  V30 1867 H 168.026 -4.16714 -0.201358 0
M  V30 1868 H 166.656 -3.14787 -0.714783 0
M  V30 1869 H 165.708 -3.40737 1.69122 0
M  V30 1870 H 167.02 -4.56114 2.01895 0
M  V30 1871 H 166.174 -6.06355 0.204523 0
M  V30 1872 H 164.913 -4.872 -0.220769 0
M  V30 1873 H 163.918 -5.09198 2.07357 0
M  V30 1874 H 165.143 -6.31729 2.49189 0
M  V30 1875 H 163.089 -6.55483 0.260476 0
M  V30 1876 H 163.006 -7.34202 1.8023 0
M  V30 1877 H 164.274 -7.76434 0.690644 0
M  V30 1878 N 168.503 -0.877838 -1.30888 0
M  V30 1879 C 169.728 -0.506629 -2.01117 0
M  V30 1880 C 170.153 0.895564 -1.65412 0
M  V30 1881 O 169.511 1.5923 -0.866922 0
M  V30 1882 C 169.559 -0.680223 -3.54126 0
M  V30 1883 O 168.663 0.277033 -4.11468 0
M  V30 1884 H 168.004 -0.200518 -0.633 0
M  V30 1885 H 170.534 -1.18342 -1.66902 0
M  V30 1886 H 170.544 -0.5765 -4.03907 0
M  V30 1887 H 169.219 -1.70261 -3.79452 0
M  V30 1888 H 167.796 0.127606 -3.72682 0
M  V30 1889 N 169.982 1.44106 -0.638065 0
M  V30 1890 C 170.929 2.30715 0.062701 0
M  V30 1891 C 171.899 1.43882 0.829883 0
M  V30 1892 O 173.084 1.72775 0.809532 0
M  V30 1893 C 170.224 3.29258 1.03358 0
M  V30 1894 C 169.337 4.31192 0.26409 0
M  V30 1895 C 168.472 5.16825 1.22741 0
M  V30 1896 C 167.511 6.10462 0.447475 0
M  V30 1897 N 166.648 6.8877 1.36161 0
M  V30 1898 H 171.488 2.90096 -0.681781 0
M  V30 1899 H 169.025 1.42925 -0.347988 0
M  V30 1900 H 170.983 3.84886 1.60992 0
M  V30 1901 H 169.613 2.71562 1.74511 0
M  V30 1902 H 168.665 3.77981 -0.428295 0
M  V30 1903 H 169.977 4.97619 -0.343052 0
M  V30 1904 H 169.131 5.77004 1.87487 0
M  V30 1905 H 167.87 4.50488 1.86847 0
M  V30 1906 H 166.875 5.49386 -0.213433 0
M  V30 1907 H 168.1 6.78837 -0.188968 0
M  V30 1908 H 166.046 6.25096 1.98975 0
M  V30 1909 H 165.963 7.51663 0.808656 0
M  V30 1910 H 167.231 7.53467 1.99769 0
M  V30 1911 N 171.46 0.379036 1.52974 0
M  V30 1912 C 172.41 -0.477772 2.22938 0
M  V30 1913 C 173.394 -1.03792 1.22948 0
M  V30 1914 O 174.586 -0.965725 1.48333 0
M  V30 1915 C 171.715 -1.60994 3.03209 0
M  V30 1916 C 170.801 -1.06203 4.10587 0
M  V30 1917 N 171.192 -0.238214 5.05239 0
M  V30 1918 C 169.49 -1.33554 4.25534 0
M  V30 1919 C 170.191 0.0633235 5.81666 0
M  V30 1920 N 169.167 -0.537901 5.40932 0
M  V30 1921 H 172.969 0.158295 2.93473 0
M  V30 1922 H 170.483 0.187778 1.61311 0
M  V30 1923 H 172.48 -2.23607 3.5186 0
M  V30 1924 H 171.14 -2.24893 2.34207 0
M  V30 1925 H 172.151 0.123695 5.17752 0
M  V30 1926 H 168.828 -1.97632 3.6776 0
M  V30 1927 H 170.218 0.730161 6.67921 0
M  V30 1928 N 172.938 -1.57226 0.108567 0
M  V30 1929 C 174.354 -1.5766 -0.248058 0
M  V30 1930 C 174.554 -1.12063 -1.67464 0
M  V30 1931 O 173.61 -0.803236 -2.39383 0
M  V30 1932 C 174.923 -3.0069 -0.0242287 0
M  V30 1933 C 176.471 -3.12868 -0.0909372 0
M  V30 1934 C 176.946 -4.57879 0.105067 0
M  V30 1935 N 178.437 -4.63172 0.0506846 0
M  V30 1936 C 179.172 -5.73126 0.177396 0
M  V30 1937 N 178.668 -6.91866 0.359696 0
M  V30 1938 N 180.461 -5.61977 0.117709 0
M  V30 1939 H 172.612 -1.85169 1.04049 0
M  V30 1940 H 174.875 -0.85529 0.40888 0
M  V30 1941 H 174.581 -3.38299 0.961604 0
M  V30 1942 H 174.455 -3.6945 -0.76068 0
M  V30 1943 H 176.842 -2.75124 -1.06729 0
M  V30 1944 H 176.923 -2.46672 0.677225 0
M  V30 1945 H 176.567 -4.96321 1.07834 0
M  V30 1946 H 176.497 -5.22153 -0.682954 0
M  V30 1947 H 178.988 -3.778 -0.0871266 0
M  V30 1948 H 179.301 -7.71503 0.447529 0
M  V30 1949 H 177.646 -6.93874 0.395536 0
M  V30 1950 H 180.837 -4.68094 -0.0236741 0
M  V30 1951 H 181.01 -6.47627 0.219905 0
M  V30 1952 N 174.416 0.165178 -1.56732 0
M  V30 1953 C 175.665 0.879143 -1.81532 0
M  V30 1954 C 175.978 1.83144 -0.686842 0
M  V30 1955 O 177.184 2.58823 -0.819944 0
M  V30 1956 C 175.64 1.61388 -3.21686 0
M  V30 1957 C 175.248 0.704904 -4.4242 0
M  V30 1958 C 176.992 2.3157 -3.55774 0
M  V30 1959 C 174.899 1.44022 -5.73595 0
M  V30 1960 H 173.829 0.332033 -0.676957 0
M  V30 1961 H 176.48 0.132008 -1.83025 0
M  V30 1962 H 174.862 2.40599 -3.14529 0
M  V30 1963 H 176.036 -0.0506815 -4.60772 0
M  V30 1964 H 174.351 0.112419 -4.16248 0
M  V30 1965 H 176.948 2.8719 -4.51028 0
M  V30 1966 H 177.291 3.07201 -2.8095 0
M  V30 1967 H 177.824 1.59297 -3.64513 0
M  V30 1968 H 174.563 0.72612 -6.51466 0
M  V30 1969 H 174.083 2.16898 -5.5921 0
M  V30 1970 H 175.762 1.98606 -6.15764 0
M  V30 1971 N 175.894 1.51508 0.433938 0
M  V30 1972 C 176.844 1.69451 1.52546 0
M  V30 1973 C 177.828 0.548474 1.51263 0
M  V30 1974 O 179.02 0.804529 1.57659 0
M  V30 1975 C 176.149 1.82604 2.90707 0
M  V30 1976 C 175.235 3.03002 2.96733 0
M  V30 1977 N 175.626 4.26121 2.72496 0
M  V30 1978 C 173.924 3.02327 3.27894 0
M  V30 1979 C 174.625 5.07407 2.84452 0
M  V30 1980 N 173.601 4.42126 3.16269 0
M  V30 1981 H 177.403 2.62305 1.32564 0
M  V30 1982 H 174.917 1.49202 0.641297 0
M  V30 1983 H 176.914 1.93569 3.69238 0
M  V30 1984 H 175.574 0.909339 3.11707 0
M  V30 1985 H 176.585 4.55009 2.4736 0
M  V30 1986 H 173.262 2.20301 3.54646 0
M  V30 1987 H 174.652 6.15422 2.69639 0
M  V30 1988 N 177.372 -0.689602 1.41712 0
M  V30 1989 C 178.322 -1.79571 1.40493 0
M  V30 1990 C 179.306 -1.58473 0.278409 0
M  V30 1991 O 180.498 -1.69204 0.519532 0
M  V30 1992 C 177.627 -3.17923 1.29536 0
M  V30 1993 C 176.713 -3.44695 2.47075 0
M  V30 1994 N 177.104 -3.42132 3.72531 0
M  V30 1995 C 175.402 -3.75269 2.41017 0
M  V30 1996 C 176.103 -3.67976 4.50521 0
M  V30 1997 N 175.079 -3.88014 3.80718 0
M  V30 1998 H 178.881 -1.75961 2.35404 0
M  V30 1999 H 176.395 -0.889839 1.35851 0
M  V30 2000 H 178.392 -3.97167 1.26745 0
M  V30 2001 H 177.052 -3.22741 0.356153 0
M  V30 2002 H 178.063 -3.22375 4.05333 0
M  V30 2003 H 174.74 -3.87421 1.55599 0
M  V30 2004 H 176.13 -3.7208 5.59469 0
M  V30 2005 N 178.85 -1.27639 -0.924453 0
M  V30 2006 C 180.075 -1.17101 -1.71179 0
M  V30 2007 C 180.5 0.268134 -1.86179 0
M  V30 2008 O 179.858 1.19415 -1.36418 0
M  V30 2009 C 179.906 -1.86313 -3.08739 0
M  V30 2010 O 179.01 -1.16331 -3.95652 0
M  V30 2011 H 178.351 -0.407091 -0.524569 0
M  V30 2012 H 180.881 -1.68767 -1.15666 0
M  V30 2013 H 180.891 -1.938 -3.59034 0
M  V30 2014 H 179.566 -2.91001 -2.97138 0
M  V30 2015 H 178.143 -1.16935 -3.54091 0
M  V30 2016 N 180.328 1.1314 -1.09713 0
M  V30 2017 C 181.556 1.88321 -0.856898 0
M  V30 2018 C 181.971 1.79276 0.592073 0
M  V30 2019 O 181.328 1.16142 1.40774 0
M  V30 2020 C 181.379 3.37812 -1.28706 0
M  V30 2021 O 181.1 3.46627 -2.67921 0
M  V30 2022 C 182.601 4.29952 -1.07964 0
M  V30 2023 H 179.821 0.596094 -0.308079 0
M  V30 2024 H 182.365 1.43205 -1.45988 0
M  V30 2025 H 180.52 3.805 -0.727912 0
M  V30 2026 H 180.934 4.39579 -2.8613 0
M  V30 2027 H 182.408 5.33159 -1.42986 0
M  V30 2028 H 182.885 4.39196 -0.0176577 0
M  V30 2029 H 183.491 3.93036 -1.62489 0
M  V30 2030 N 181.806 0.884767 1.30421 0
M  V30 2031 C 183.031 0.517288 2.00845 0
M  V30 2032 C 183.456 -0.886779 1.65885 0
M  V30 2033 O 182.814 -1.58768 0.875354 0
M  V30 2034 C 182.862 0.698994 3.5376 0
M  V30 2035 O 181.966 -0.255208 4.1161 0
M  V30 2036 H 181.307 0.203872 0.631927 0
M  V30 2037 H 183.837 1.19225 1.66272 0
M  V30 2038 H 183.847 0.597912 4.03595 0
M  V30 2039 H 182.522 1.72271 3.78544 0
M  V30 2040 H 181.099 -0.10784 3.72744 0
M  V30 2041 N 183.284 -1.43765 0.645699 0
M  V30 2042 C 184.234 -2.27884 -0.0726442 0
M  V30 2043 C 185.218 -1.39483 -0.802086 0
M  V30 2044 O 186.41 -1.63174 -0.685791 0
M  V30 2045 C 183.539 -3.27055 -1.04356 0
M  V30 2046 C 182.625 -4.22944 -0.312985 0
M  V30 2047 N 183.016 -5.01391 0.666386 0
M  V30 2048 C 181.314 -4.42528 -0.55546 0
M  V30 2049 C 182.015 -5.71217 1.09935 0
M  V30 2050 N 180.991 -5.41856 0.435137 0
M  V30 2051 H 184.793 -2.85949 0.678988 0
M  V30 2052 H 182.307 -1.55378 0.472368 0
M  V30 2053 H 184.304 -3.86089 -1.57292 0
M  V30 2054 H 182.964 -2.70551 -1.79534 0
M  V30 2055 H 183.975 -5.07252 1.04481 0
M  V30 2056 H 180.652 -3.97104 -1.28899 0
M  V30 2057 H 182.042 -6.44202 1.90929 0
M  V30 2058 N 184.763 -0.387143 -1.52771 0
M  V30 2059 C 186.179 -0.037007 -1.59557 0
M  V30 2060 C 186.379 1.44801 -1.40124 0
M  V30 2061 O 185.435 2.21227 -1.21716 0
M  V30 2062 C 186.748 -0.512256 -2.96305 0
M  V30 2063 C 188.296 -0.468328 -3.09476 0
M  V30 2064 C 188.771 -0.919731 -4.4867 0
M  V30 2065 N 190.262 -0.875656 -4.54848 0
M  V30 2066 C 190.997 -1.19637 -5.6078 0
M  V30 2067 N 190.493 -1.58745 -6.74368 0
M  V30 2068 N 192.286 -1.11776 -5.50874 0
M  V30 2069 H 184.437 -1.35395 -1.63652 0
M  V30 2070 H 186.7 -0.554818 -0.768688 0
M  V30 2071 H 186.406 -1.54935 -3.15734 0
M  V30 2072 H 186.28 0.089805 -3.77093 0
M  V30 2073 H 188.667 0.559671 -2.89744 0
M  V30 2074 H 188.748 -1.10616 -2.30646 0
M  V30 2075 H 188.392 -1.94595 -4.69143 0
M  V30 2076 H 188.322 -0.258927 -5.25963 0
M  V30 2077 H 190.813 -0.587843 -3.733 0
M  V30 2078 H 191.126 -1.81586 -7.51163 0
M  V30 2079 H 189.471 -1.6263 -6.75705 0
M  V30 2080 H 192.662 -0.811264 -4.61016 0
M  V30 2081 H 192.835 -1.37103 -6.3333 0
M  V30 2082 N 186.241 1.57166 -0.116904 0
M  V30 2083 C 187.657 1.5779 0.239693 0
M  V30 2084 C 187.857 1.1295 1.66867 0
M  V30 2085 O 186.913 0.81592 2.38954 0
M  V30 2086 C 188.226 3.00699 0.00828202 0
M  V30 2087 C 189.774 3.12912 0.0743438 0
M  V30 2088 C 190.249 4.57817 -0.129348 0
M  V30 2089 N 191.74 4.63139 -0.075247 0
M  V30 2090 C 192.475 5.73023 -0.207788 0
M  V30 2091 N 191.971 6.91665 -0.396382 0
M  V30 2092 N 193.764 5.61906 -0.14751 0
M  V30 2093 H 185.915 1.84615 -1.05029 0
M  V30 2094 H 188.178 0.85311 -0.41341 0
M  V30 2095 H 187.884 3.37784 -0.979531 0
M  V30 2096 H 187.758 3.69848 0.741077 0
M  V30 2097 H 190.145 2.75686 1.05268 0
M  V30 2098 H 190.226 2.4631 -0.690297 0
M  V30 2099 H 189.87 4.95742 -1.10465 0
M  V30 2100 H 189.8 5.22507 0.655253 0
M  V30 2101 H 192.291 3.7784 0.0670898 0
M  V30 2102 H 192.604 7.71255 -0.488437 0
M  V30 2103 H 190.949 6.93654 -0.432329 0
M  V30 2104 H 194.14 4.681 -0.00115036 0
M  V30 2105 H 194.313 6.47501 -0.254247 0
M  V30 2106 N 187.719 -0.156864 1.56817 0
M  V30 2107 C 188.944 -0.890331 1.87318 0
M  V30 2108 C 189.369 -1.74394 0.704855 0
M  V30 2109 O 188.727 -1.77972 -0.345786 0
M  V30 2110 C 188.775 -1.73102 3.16336 0
M  V30 2111 O 187.879 -2.83422 2.99576 0
M  V30 2112 H 187.22 -0.24857 0.615718 0
M  V30 2113 H 189.75 -0.150649 2.04045 0
M  V30 2114 H 189.76 -2.12803 3.48107 0
M  V30 2115 H 188.435 -1.10412 4.00976 0
M  V30 2116 H 187.012 -2.47199 2.7919 0
M  V30 2117 N 189.197 -1.51736 -0.425897 0
M  V30 2118 C 190.147 -1.70258 -1.51645 0
M  V30 2119 C 191.131 -0.556488 -1.5097 0
M  V30 2120 O 192.323 -0.812879 -1.5723 0
M  V30 2121 C 189.452 -1.84143 -2.89735 0
M  V30 2122 C 188.538 -3.04572 -2.95122 0
M  V30 2123 N 188.929 -4.2756 -2.70233 0
M  V30 2124 C 187.227 -3.04061 -3.26286 0
M  V30 2125 C 187.928 -5.08908 -2.81757 0
M  V30 2126 N 186.904 -4.43797 -3.13919 0
M  V30 2127 H 190.706 -2.63004 -1.31172 0
M  V30 2128 H 188.22 -1.4954 -0.633375 0
M  V30 2129 H 190.217 -1.95525 -3.68206 0
M  V30 2130 H 188.877 -0.925857 -3.1122 0
M  V30 2131 H 189.888 -4.56315 -2.44943 0
M  V30 2132 H 186.565 -2.22179 -3.53473 0
M  V30 2133 H 187.955 -6.16843 -2.66372 0
M  V30 2134 N 190.675 0.682077 -1.42076 0
M  V30 2135 C 191.923 1.4393 -1.41876 0
M  V30 2136 C 192.244 1.94971 -0.0335599 0
M  V30 2137 O 191.514 1.72591 0.926773 0
M  V30 2138 H 190.094 0.534085 -0.522267 0
M  V30 2139 H 192.756 0.806427 -1.77434 0
M  V30 2140 H 191.852 2.29588 -2.11414 0
M  V30 2141 N 192.153 1.28127 0.917671 0
M  V30 2142 C 193.1 1.11717 2.0196 0
M  V30 2143 C 194.07 0.0153929 1.66093 0
M  V30 2144 O 195.255 0.179596 1.89953 0
M  V30 2145 C 192.395 0.780927 3.36148 0
M  V30 2146 C 191.508 1.96135 3.84909 0
M  V30 2147 C 190.643 1.56609 5.0759 0
M  V30 2148 C 189.682 2.71339 5.48673 0
M  V30 2149 N 188.819 2.32332 6.62545 0
M  V30 2150 H 193.659 2.06003 2.15329 0
M  V30 2151 H 191.196 1.02535 1.05475 0
M  V30 2152 H 193.154 0.56675 4.13333 0
M  V30 2153 H 191.784 -0.124998 3.22558 0
M  V30 2154 H 190.836 2.28777 3.03916 0
M  V30 2155 H 192.148 2.82165 4.1132 0
M  V30 2156 H 191.302 1.31374 5.92305 0
M  V30 2157 H 190.041 0.677014 4.82978 0
M  V30 2158 H 189.046 2.97276 4.62501 0
M  V30 2159 H 190.271 3.60882 5.75274 0
M  V30 2160 H 188.217 1.45889 6.39572 0
M  V30 2161 H 188.134 3.11899 6.88662 0
M  V30 2162 H 189.402 2.10371 7.50576 0
M  V30 2163 N 193.631 -1.12557 1.10312 0
M  V30 2164 C 194.856 -1.88405 0.867085 0
M  V30 2165 C 195.281 -1.79038 -0.576817 0
M  V30 2166 O 194.639 -1.14439 -1.40618 0
M  V30 2167 C 194.687 -3.3563 1.31851 0
M  V30 2168 O 193.791 -4.09565 0.482734 0
M  V30 2169 H 193.132 -0.585455 0.313271 0
M  V30 2170 H 195.662 -1.42352 1.4696 0
M  V30 2171 H 195.672 -3.86469 1.3079 0
M  V30 2172 H 194.347 -3.41765 2.37001 0
M  V30 2173 H 192.924 -3.68695 0.558448 0
M  V30 2174 N 195.109 -0.891671 -1.2995 0
M  V30 2175 C 196.059 -0.334811 -2.25528 0
M  V30 2176 C 197.043 0.540553 -1.51548 0
M  V30 2177 O 198.235 0.383882 -1.72787 0
M  V30 2178 C 195.364 0.44374 -3.4042 0
M  V30 2179 C 194.45 -0.44609 -4.21747 0
M  V30 2180 N 194.841 -1.54963 -4.81477 0
M  V30 2181 C 193.139 -0.242415 -4.45341 0
M  V30 2182 C 193.84 -2.10015 -5.42465 0
M  V30 2183 N 192.816 -1.39423 -5.25416 0
M  V30 2184 H 196.618 -1.17792 -2.69262 0
M  V30 2185 H 194.132 -0.741822 -1.44467 0
M  V30 2186 H 196.129 0.859362 -4.07947 0
M  V30 2187 H 194.789 1.28421 -2.98225 0
M  V30 2188 H 195.8 -1.93244 -4.80497 0
M  V30 2189 H 192.477 0.560342 -4.13723 0
M  V30 2190 H 193.867 -3.02724 -5.9984 0
M  V30 2191 N 196.587 1.43421 -0.653314 0
M  V30 2192 C 198.003 1.56341 -0.320886 0
M  V30 2193 C 198.203 1.63696 1.17499 0
M  V30 2194 O 197.259 1.59208 1.95982 0
M  V30 2195 C 198.572 2.82424 -1.03233 0
M  V30 2196 C 200.12 2.96168 -1.01259 0
M  V30 2197 C 200.595 4.25084 -1.70492 0
M  V30 2198 N 202.086 4.31948 -1.67257 0
M  V30 2199 C 202.821 5.30466 -2.17701 0
M  V30 2200 N 202.317 6.35261 -2.76434 0
M  V30 2201 N 204.11 5.2212 -2.082 0
M  V30 2202 H 196.261 1.3689 -1.62403 0
M  V30 2203 H 198.524 0.657455 -0.682977 0
M  V30 2204 H 198.23 2.83053 -2.08744 0
M  V30 2205 H 198.104 3.72653 -0.583948 0
M  V30 2206 H 200.491 2.9508 0.0341235 0
M  V30 2207 H 200.572 2.07229 -1.49966 0
M  V30 2208 H 200.216 4.26932 -2.7512 0
M  V30 2209 H 200.146 5.1292 -1.19251 0
M  V30 2210 H 202.637 3.56838 -1.24398 0
M  V30 2211 H 202.95 7.06754 -3.12601 0
M  V30 2212 H 201.295 6.35884 -2.80495 0
M  V30 2213 H 204.486 4.39166 -1.62021 0
M  V30 2214 H 204.659 5.98739 -2.47822 0
M  V30 2215 N 198.065 0.39524 1.52563 0
M  V30 2216 C 199.481 0.0454682 1.59535 0
M  V30 2217 C 199.681 -1.44056 1.4089 0
M  V30 2218 O 198.737 -2.20579 1.22888 0
M  V30 2219 C 200.05 0.527963 2.96029 0
M  V30 2220 C 201.598 0.484733 3.09224 0
M  V30 2221 C 202.073 0.943512 4.48176 0
M  V30 2222 N 203.564 0.899765 4.54377 0
M  V30 2223 C 204.299 1.22609 5.60138 0
M  V30 2224 N 203.795 1.62319 6.73516 0
M  V30 2225 N 205.588 1.14696 5.50274 0
M  V30 2226 H 197.739 1.36261 1.62931 0
M  V30 2227 H 200.002 0.558887 0.765735 0
M  V30 2228 H 199.708 1.56607 3.14908 0
M  V30 2229 H 199.582 -0.0698056 3.77135 0
M  V30 2230 H 201.969 -0.544298 2.90037 0
M  V30 2231 H 202.05 1.11838 2.30056 0
M  V30 2232 H 201.694 1.9708 4.68104 0
M  V30 2233 H 201.624 0.286817 5.25818 0
M  V30 2234 H 204.115 0.607632 3.72983 0
M  V30 2235 H 204.428 1.85567 7.5019 0
M  V30 2236 H 202.773 1.66211 6.74833 0
M  V30 2237 H 205.964 0.835701 4.6058 0
M  V30 2238 H 206.137 1.40459 6.32594 0
M  V30 2239 N 199.544 -1.57102 0.125237 0
M  V30 2240 C 200.491 -2.15641 -0.822655 0
M  V30 2241 C 201.461 -1.08313 -1.25927 0
M  V30 2242 O 202.646 -1.36251 -1.33567 0
M  V30 2243 C 199.786 -2.76504 -2.06494 0
M  V30 2244 C 198.899 -3.98158 -1.67612 0
M  V30 2245 C 198.034 -4.47088 -2.86854 0
M  V30 2246 C 197.073 -5.6126 -2.44242 0
M  V30 2247 N 196.21 -6.04905 -3.56419 0
M  V30 2248 H 201.05 -2.96313 -0.316625 0
M  V30 2249 H 198.587 -1.46388 -0.144588 0
M  V30 2250 H 200.545 -3.09925 -2.79289 0
M  V30 2251 H 199.175 -1.98512 -2.54545 0
M  V30 2252 H 198.227 -3.70858 -0.846661 0
M  V30 2253 H 199.539 -4.80934 -1.32301 0
M  V30 2254 H 198.693 -4.82451 -3.67867 0
M  V30 2255 H 197.432 -3.63275 -3.25396 0
M  V30 2256 H 196.437 -5.25495 -1.61663 0
M  V30 2257 H 197.662 -6.46843 -2.0681 0
M  V30 2258 H 195.608 -5.24032 -3.94623 0
M  V30 2259 H 195.525 -6.82552 -3.25051 0
M  V30 2260 H 196.793 -6.44907 -4.37853 0
M  V30 2261 N 201.022 0.148545 -1.56898 0
M  V30 2262 C 202.438 0.501131 -1.51528 0
M  V30 2263 C 202.638 1.83458 -0.833399 0
M  V30 2264 O 201.694 2.49259 -0.40328 0
M  V30 2265 C 203.007 0.512864 -2.96294 0
M  V30 2266 C 204.555 0.598487 -3.07225 0
M  V30 2267 C 205.03 0.640897 -4.53494 0
M  V30 2268 N 206.521 0.703163 -4.57832 0
M  V30 2269 C 207.256 0.756935 -5.68382 0
M  V30 2270 N 206.752 0.770147 -6.88506 0
M  V30 2271 N 208.545 0.797698 -5.56411 0
M  V30 2272 H 200.696 -0.725532 -1.99624 0
M  V30 2273 H 202.959 -0.264358 -0.910395 0
M  V30 2274 H 202.665 -0.398691 -3.49433 0
M  V30 2275 H 202.539 1.35133 -3.52163 0
M  V30 2276 H 204.926 1.50046 -2.54106 0
M  V30 2277 H 205.007 -0.267093 -2.54402 0
M  V30 2278 H 204.651 -0.256915 -5.0725 0
M  V30 2279 H 204.581 1.52295 -5.04097 0
M  V30 2280 H 207.072 0.700314 -3.71354 0
M  V30 2281 H 207.385 0.812983 -7.68512 0
M  V30 2282 H 205.73 0.738049 -6.9107 0
M  V30 2283 H 208.921 0.784535 -4.61479 0
M  V30 2284 H 209.094 0.83614 -6.42583 0
M  V30 2285 N 202.5 1.5196 0.417844 0
M  V30 2286 C 203.728 1.69426 1.18753 0
M  V30 2287 C 204.143 0.399955 1.84515 0
M  V30 2288 O 203.5 -0.623288 1.71527 0
M  V30 2289 C 203.551 2.82375 2.25714 0
M  V30 2290 O 203.272 4.06793 1.62638 0
M  V30 2291 C 204.773 3.11277 3.15628 0
M  V30 2292 H 201.993 0.568031 0.357186 0
M  V30 2293 H 204.537 1.98475 0.49273 0
M  V30 2294 H 202.692 2.5587 2.90877 0
M  V30 2295 H 203.106 4.69667 2.3348 0
M  V30 2296 H 204.58 3.93843 3.86771 0
M  V30 2297 H 205.057 2.24473 3.77503 0
M  V30 2298 H 205.663 3.39515 2.56144 0
M  V30 2299 N 203.978 -0.674533 1.42435 0
M  V30 2300 C 205.394 -0.98769 1.25367 0
M  V30 2301 C 205.594 -2.00879 0.158044 0
M  V30 2302 O 204.65 -2.48075 -0.470633 0
M  V30 2303 C 205.963 -1.49224 2.6106 0
M  V30 2304 C 207.511 -1.61 2.68417 0
M  V30 2305 C 207.986 -2.14852 4.04478 0
M  V30 2306 N 209.477 -2.22185 4.06434 0
M  V30 2307 C 210.212 -2.64928 5.08528 0
M  V30 2308 N 209.708 -3.07121 6.21006 0
M  V30 2309 N 211.501 -2.64679 4.95885 0
M  V30 2310 H 203.652 0.00152503 2.124 0
M  V30 2311 H 205.915 -0.0618434 0.945981 0
M  V30 2312 H 205.621 -0.816453 3.42092 0
M  V30 2313 H 205.495 -2.47094 2.84999 0
M  V30 2314 H 207.882 -2.27686 1.87732 0
M  V30 2315 H 207.963 -0.616195 2.48267 0
M  V30 2316 H 207.607 -1.48775 4.85622 0
M  V30 2317 H 207.537 -3.15024 4.2198 0
M  V30 2318 H 210.028 -1.92435 3.25234 0
M  V30 2319 H 210.341 -3.38423 6.94759 0
M  V30 2320 H 208.686 -3.04978 6.24511 0
M  V30 2321 H 211.877 -2.31078 4.07088 0
M  V30 2322 H 212.05 -2.9767 5.75584 0
M  V30 2323 N 205.456 -1.28612 -0.910864 0
M  V30 2324 C 206.681 -1.1891 -1.69927 0
M  V30 2325 C 207.106 0.248372 -1.86453 0
M  V30 2326 O 206.464 1.17961 -1.37676 0
M  V30 2327 C 206.512 -1.89578 -3.06745 0
M  V30 2328 O 205.616 -1.20521 -3.94396 0
M  V30 2329 H 204.957 -0.412632 -0.520222 0
M  V30 2330 H 207.487 -1.69985 -1.1387 0
M  V30 2331 H 207.497 -1.97597 -3.56958 0
M  V30 2332 H 206.172 -2.94136 -2.94035 0
M  V30 2333 H 204.749 -1.20684 -3.52831 0
M  V30 2334 N 206.934 1.1197 -1.10907 0
M  V30 2335 C 208.18 1.8386 -0.855773 0
M  V30 2336 C 208.513 1.84134 0.617103 0
M  V30 2337 O 207.788 1.29041 1.45529 0
M  V30 2338 C 208.071 3.31305 -1.411 0
M  V30 2339 C 207.924 3.39456 -2.9511 0
M  V30 2340 C 209.243 4.2721 -1.05736 0
M  V30 2341 H 206.362 0.667545 -0.312334 0
M  V30 2342 H 209.004 1.31331 -1.37303 0
M  V30 2343 H 207.154 3.76169 -0.97105 0
M  V30 2344 H 208.826 3.03191 -3.47668 0
M  V30 2345 H 207.069 2.79849 -3.31462 0
M  V30 2346 H 207.74 4.43209 -3.29044 0
M  V30 2347 H 210.216 3.90497 -1.43706 0
M  V30 2348 H 209.092 5.28775 -1.47269 0
M  V30 2349 H 209.353 4.42088 0.0325958 0
M  V30 2350 N 208.412 0.89855 1.29475 0
M  V30 2351 C 209.322 0.379974 2.31502 0
M  V30 2352 C 210.338 -0.524695 1.659 0
M  V30 2353 O 211.514 -0.414551 1.97087 0
M  V30 2354 C 208.579 -0.385138 3.44554 0
M  V30 2355 C 207.64 0.550914 4.2575 0
M  V30 2356 C 206.873 -0.177778 5.33404 0
M  V30 2357 O 207.096 -1.40189 5.52904 0
M  V30 2358 O 206.03 0.479106 5.9999 0
M  V30 2359 H 209.856 1.22639 2.77837 0
M  V30 2360 H 207.441 0.662834 1.33891 0
M  V30 2361 H 209.323 -0.817841 4.13388 0
M  V30 2362 H 207.998 -1.20763 3.0033 0
M  V30 2363 H 206.905 1.03271 3.59564 0
M  V30 2364 H 208.238 1.33979 4.73614 0
M  V30 2365 N 209.89 -1.43072 0.660911 0
M  V30 2366 C 211.167 -1.95307 0.107017 0
M  V30 2367 C 211.547 -1.60192 -1.37484 0
M  V30 2368 O 210.895 -0.890949 -2.10415 0
M  V30 2369 C 211.105 -3.47124 0.361402 0
M  V30 2370 C 212.453 -4.23738 0.270455 0
M  V30 2371 O 213.477 -3.54981 0.294382 0
M  V30 2372 O 212.336 -5.46131 0.200737 0
M  V30 2373 H 209.43 -0.826984 -0.00517729 0
M  V30 2374 H 211.976 -1.52972 0.734681 0
M  V30 2375 H 210.748 -3.65837 1.38848 0
M  V30 2376 H 210.371 -3.96475 -0.298953 0
M  V30 2377 N 211.368 -0.403325 -1.52352 0
M  V30 2378 C 212.645 0.232611 -1.94212 0
M  V30 2379 C 213.025 1.63133 -1.33981 0
M  V30 2380 O 212.373 2.22659 -0.513344 0
M  V30 2381 C 212.583 0.244811 -3.4814 0
M  V30 2382 C 213.931 0.46698 -4.22024 0
M  V30 2383 O 214.955 0.324419 -3.5472 0
M  V30 2384 O 213.814 0.74747 -5.41364 0
M  V30 2385 H 210.908 0.148223 -0.813609 0
M  V30 2386 H 213.454 -0.458848 -1.63379 0
M  V30 2387 H 212.226 -0.734378 -3.84347 0
M  V30 2388 H 211.849 0.980611 -3.85318 0
M  V30 2389 N 212.846 1.57033 -0.133567 0
M  V30 2390 C 213.756 2.19632 0.824564 0
M  V30 2391 C 214.772 1.17666 1.28182 0
M  V30 2392 O 215.948 1.50193 1.3418 0
M  V30 2393 C 213.013 2.79499 2.05137 0
M  V30 2394 C 212.074 3.96548 1.64464 0
M  V30 2395 C 211.307 4.5355 2.81297 0
M  V30 2396 O 211.53 4.09438 3.97136 0
M  V30 2397 O 210.464 5.44018 2.57542 0
M  V30 2398 H 214.29 3.01991 0.321766 0
M  V30 2399 H 211.875 1.49112 0.0927889 0
M  V30 2400 H 213.757 3.17602 2.7696 0
M  V30 2401 H 212.432 2.00162 2.54395 0
M  V30 2402 H 211.339 3.63186 0.897048 0
M  V30 2403 H 212.672 4.77364 1.19934 0
M  V30 2404 N 214.325 -0.140222 1.56975 0
M  V30 2405 C 215.235 -1.19223 2.02047 0
M  V30 2406 C 216.251 -1.46612 0.937062 0
M  V30 2407 O 217.427 -1.58148 1.24704 0
M  V30 2408 C 214.492 -2.50414 2.39778 0
M  V30 2409 C 213.553 -2.30612 3.621 0
M  V30 2410 C 212.786 -3.55547 3.98023 0
M  V30 2411 O 213.009 -4.62004 3.34528 0
M  V30 2412 O 211.943 -3.47808 4.91237 0
M  V30 2413 H 215.769 -0.839559 2.91865 0
M  V30 2414 H 213.354 -0.349453 1.45256 0
M  V30 2415 H 215.236 -3.27747 2.64877 0
M  V30 2416 H 213.911 -2.85198 1.53114 0
M  V30 2417 H 212.818 -1.51207 3.4218 0
M  V30 2418 H 214.151 -2.00741 4.49404 0
M  V30 2419 N 215.803 -1.52179 -0.40978 0
M  V30 2420 C 217.051 -1.65878 -1.15451 0
M  V30 2421 C 217.372 -0.390771 -1.91044 0
M  V30 2422 O 216.642 0.594323 -1.86667 0
M  V30 2423 H 215.222 -0.611405 -0.429177 0
M  V30 2424 H 217.884 -1.89219 -0.467134 0
M  V30 2425 H 216.98 -2.49954 -1.86894 0
M  V30 2426 N 217.281 0.66697 -1.42791 0
M  V30 2427 C 218.231 1.77313 -1.43332 0
M  V30 2428 C 219.215 1.5801 -0.303586 0
M  V30 2429 O 220.407 1.68356 -0.546385 0
M  V30 2430 C 217.536 3.15822 -1.34578 0
M  V30 2431 C 216.622 3.40721 -2.52528 0
M  V30 2432 N 217.013 3.36162 -3.77927 0
M  V30 2433 C 215.311 3.71387 -2.46956 0
M  V30 2434 C 216.012 3.60762 -4.56318 0
M  V30 2435 N 214.988 3.81908 -3.86843 0
M  V30 2436 H 218.79 1.72193 -2.38174 0
M  V30 2437 H 216.304 0.868114 -1.3725 0
M  V30 2438 H 218.301 3.951 -1.33048 0
M  V30 2439 H 216.961 3.22133 -0.407453 0
M  V30 2440 H 217.972 3.15885 -4.10411 0
M  V30 2441 H 214.649 3.84897 -1.61743 0
M  V30 2442 H 216.039 3.63132 -5.65318 0
M  V30 2443 N 218.759 1.29093 0.90403 0
M  V30 2444 C 219.689 1.16401 2.02418 0
M  V30 2445 C 220.67 0.0593085 1.69997 0
M  V30 2446 O 221.855 0.238021 1.92736 0
M  V30 2447 C 218.985 0.835233 3.37107 0
M  V30 2448 C 217.939 1.89578 3.83724 0
M  V30 2449 C 217.265 1.42041 5.15489 0
M  V30 2450 C 218.565 3.30394 4.04521 0
M  V30 2451 H 220.259 2.10109 2.13295 0
M  V30 2452 H 217.805 1.01157 1.02486 0
M  V30 2453 H 219.758 0.733169 4.14973 0
M  V30 2454 H 218.482 -0.137543 3.2631 0
M  V30 2455 H 217.141 1.98715 3.08071 0
M  V30 2456 H 216.789 0.436426 5.01103 0
M  V30 2457 H 216.489 2.12964 5.4765 0
M  V30 2458 H 218.013 1.33176 5.959 0
M  V30 2459 H 219.427 3.24123 4.72882 0
M  V30 2460 H 217.824 3.99237 4.48029 0
M  V30 2461 H 218.894 3.73692 3.09002 0
M  V30 2462 N 220.237 -1.11381 1.11499 0
M  V30 2463 C 221.486 -1.82494 0.858993 0
M  V30 2464 C 221.799 -1.85605 -0.617278 0
M  V30 2465 O 223.005 -2.52824 -0.989552 0
M  V30 2466 C 221.461 -3.27745 1.48699 0
M  V30 2467 C 221.069 -3.32961 2.99735 0
M  V30 2468 C 222.813 -4.03754 1.31085 0
M  V30 2469 C 220.72 -4.72612 3.55516 0
M  V30 2470 H 219.65 -0.683802 0.317696 0
M  V30 2471 H 222.301 -1.25331 1.34031 0
M  V30 2472 H 220.683 -3.84844 0.933339 0
M  V30 2473 H 221.857 -2.85741 3.61509 0
M  V30 2474 H 220.172 -2.70433 3.16631 0
M  V30 2475 H 222.769 -5.06891 1.70192 0
M  V30 2476 H 223.112 -4.15527 0.253496 0
M  V30 2477 H 223.645 -3.53043 1.83318 0
M  V30 2478 H 220.384 -4.66036 4.60967 0
M  V30 2479 H 219.904 -5.2024 2.98513 0
M  V30 2480 H 221.583 -5.4157 3.53992 0
M  V30 2481 N 221.715 -0.905404 -1.28997 0
M  V30 2482 C 222.955 -0.541232 -1.97104 0
M  V30 2483 C 223.319 0.896841 -1.69767 0
M  V30 2484 O 224.52 1.36817 -2.31375 0
M  V30 2485 C 222.791 -0.832134 -3.47578 0
M  V30 2486 S 224.35 -0.573127 -4.35041 0
M  V30 2487 H 221.168 -0.200576 -0.682122 0
M  V30 2488 H 223.77 -1.16906 -1.56694 0
M  V30 2489 H 222.474 -1.87687 -3.64968 0
M  V30 2490 H 222.005 -0.192636 -3.92928 0
M  V30 2491 H 224.02 0.579297 -4.92807 0
M  V30 2492 N 223.193 1.4272 -0.668489 0
M  V30 2493 C 224.125 2.2914 0.052613 0
M  V30 2494 C 225.138 1.43339 0.771857 0
M  V30 2495 O 226.327 1.67123 0.627067 0
M  V30 2496 C 223.427 3.20618 1.09804 0
M  V30 2497 C 222.6 4.35039 0.45389 0
M  V30 2498 C 221.659 5.07282 1.39825 0
M  V30 2499 O 220.685 5.62024 0.900978 0
M  V30 2500 N 221.887 5.12206 2.73176 0
M  V30 2501 H 224.652 2.91668 -0.689209 0
M  V30 2502 H 222.213 1.53577 -0.512422 0
M  V30 2503 H 224.205 3.65815 1.73094 0
M  V30 2504 H 222.775 2.59585 1.74167 0
M  V30 2505 H 221.995 3.92567 -0.358396 0
M  V30 2506 H 223.283 5.088 0.00486972 0
M  V30 2507 H 222.681 4.6913 3.16122 0
M  V30 2508 H 221.238 5.61069 3.31729 0
M  V30 2509 N 224.671 0.411399 1.52136 0
M  V30 2510 C 225.896 -0.165538 2.06738 0
M  V30 2511 C 226.321 -1.379 1.27926 0
M  V30 2512 O 225.679 -1.78628 0.310114 0
M  V30 2513 C 225.727 -0.492124 3.57226 0
M  V30 2514 O 224.831 -1.58276 3.80818 0
M  V30 2515 H 224.172 -0.0132132 0.663869 0
M  V30 2516 H 226.702 0.585253 1.96051 0
M  V30 2517 H 226.712 -0.750104 4.01045 0
M  V30 2518 H 225.387 0.394922 4.14021 0
M  V30 2519 H 223.964 -1.31677 3.48877 0
M  V30 2520 N 226.149 -1.5696 0.141893 0
M  V30 2521 C 227.397 -1.95573 -0.509484 0
M  V30 2522 C 227.718 -1.02746 -1.65736 0
M  V30 2523 O 226.988 -0.0880311 -1.95702 0
M  V30 2524 H 225.568 -0.722115 -0.191205 0
M  V30 2525 H 228.23 -1.93697 0.216196 0
M  V30 2526 H 227.326 -2.99171 -0.889 0
M  V30 2527 N 227.627 0.131896 -1.57047 0
M  V30 2528 C 228.904 0.871495 -1.75112 0
M  V30 2529 C 229.284 1.9866 -0.713949 0
M  V30 2530 O 228.632 2.26965 0.264447 0
M  V30 2531 C 228.842 1.40007 -3.19686 0
M  V30 2532 C 230.19 1.85752 -3.81813 0
M  V30 2533 O 231.214 1.49715 -3.23209 0
M  V30 2534 O 230.073 2.5226 -4.84796 0
M  V30 2535 H 227.167 0.412919 -0.716538 0
M  V30 2536 H 229.713 0.116641 -1.69299 0
M  V30 2537 H 228.485 0.599404 -3.86682 0
M  V30 2538 H 228.108 2.218 -3.29986 0
M  V30 2539 N 229.106 1.52395 0.401703 0
M  V30 2540 C 230.352 1.67065 1.14966 0
M  V30 2541 C 230.685 0.403052 1.89971 0
M  V30 2542 O 229.96 -0.598774 1.85054 0
M  V30 2543 C 230.243 2.8975 2.13815 0
M  V30 2544 C 230.096 4.26578 1.42658 0
M  V30 2545 C 231.415 3.07965 3.14397 0
M  V30 2546 H 228.534 0.607968 0.416587 0
M  V30 2547 H 231.176 1.84965 0.434511 0
M  V30 2548 H 229.326 2.74619 2.74803 0
M  V30 2549 H 230.998 4.53451 0.847329 0
M  V30 2550 H 229.241 4.27639 0.72849 0
M  V30 2551 H 229.912 5.08483 2.14823 0
M  V30 2552 H 232.388 3.22043 2.63491 0
M  V30 2553 H 231.264 3.95308 3.80819 0
M  V30 2554 H 231.525 2.21611 3.82545 0
M  V30 2555 N 230.584 -0.659388 1.43143 0
M  V30 2556 C 231.514 -1.78422 1.50625 0
M  V30 2557 C 232.495 -1.66216 0.361443 0
M  V30 2558 O 233.68 -1.85404 0.577834 0
M  V30 2559 C 230.81 -3.16815 1.42287 0
M  V30 2560 C 229.764 -3.43777 2.54954 0
M  V30 2561 C 229.09 -4.81905 2.31671 0
M  V30 2562 C 230.39 -3.39134 3.97222 0
M  V30 2563 H 232.084 -1.72417 2.44771 0
M  V30 2564 H 229.63 -0.828084 1.17808 0
M  V30 2565 H 231.583 -3.95253 1.46127 0
M  V30 2566 H 230.307 -3.23534 0.446435 0
M  V30 2567 H 228.966 -2.67707 2.50457 0
M  V30 2568 H 228.614 -4.85294 1.32284 0
M  V30 2569 H 228.314 -5.00906 3.07192 0
M  V30 2570 H 229.838 -5.62609 2.37284 0
M  V30 2571 H 231.252 -4.07518 4.03239 0
M  V30 2572 H 229.649 -3.69671 4.72719 0
M  V30 2573 H 230.719 -2.37426 4.22797 0
M  V30 2574 N 232.062 -1.29571 -0.897171 0
M  V30 2575 C 233.287 -1.20705 -1.68656 0
M  V30 2576 C 233.712 0.228582 -1.86706 0
M  V30 2577 O 233.07 1.16494 -1.3892 0
M  V30 2578 C 233.118 -1.9282 -3.04717 0
M  V30 2579 O 232.222 -1.24697 -3.93096 0
M  V30 2580 H 231.563 -0.418126 -0.515816 0
M  V30 2581 H 234.093 -1.71183 -1.12061 0
M  V30 2582 H 234.103 -2.01372 -3.54843 0
M  V30 2583 H 232.778 -2.97239 -2.90899 0
M  V30 2584 H 231.355 -1.2442 -3.51531 0
M  V30 2585 N 233.54 1.10788 -1.12088 0
M  V30 2586 C 234.503 2.15207 -0.788577 0
M  V30 2587 C 235.503 1.59609 0.195317 0
M  V30 2588 O 236.693 1.74174 -0.0300193 0
M  V30 2589 C 233.825 3.4047 -0.171174 0
M  V30 2590 H 235.018 2.46116 -1.71368 0
M  V30 2591 H 232.571 1.26089 -0.923652 0
M  V30 2592 H 233.306 3.15176 0.763832 0
M  V30 2593 H 233.091 3.82109 -0.879514 0
M  V30 2594 H 234.581 4.17576 0.04496 0
M  V30 2595 N 235.018 0.912232 1.28515 0
M  V30 2596 C 236.434 0.610159 1.47476 0
M  V30 2597 C 236.634 -0.844955 1.82928 0
M  V30 2598 O 235.69 -1.62416 1.93332 0
M  V30 2599 C 237.003 1.54675 2.57868 0
M  V30 2600 C 238.551 1.55331 2.71738 0
M  V30 2601 C 239.026 2.47649 3.85272 0
M  V30 2602 N 240.517 2.45767 3.92623 0
M  V30 2603 C 241.252 3.13896 4.79851 0
M  V30 2604 N 240.748 3.9135 5.71679 0
M  V30 2605 N 242.541 3.02991 4.73448 0
M  V30 2606 H 234.692 1.85318 1.03783 0
M  V30 2607 H 236.955 0.794777 0.516753 0
M  V30 2608 H 236.661 2.5841 2.38574 0
M  V30 2609 H 236.535 1.27671 3.54937 0
M  V30 2610 H 238.922 0.52335 2.90422 0
M  V30 2611 H 239.003 1.86378 1.75205 0
M  V30 2612 H 238.647 3.50745 3.67342 0
M  V30 2613 H 238.577 2.13904 4.81199 0
M  V30 2614 H 241.068 1.89503 3.26951 0
M  V30 2615 H 241.381 4.40359 6.35062 0
M  V30 2616 H 239.726 3.95455 5.71524 0
M  V30 2617 H 242.917 2.41987 4.007 0
M  V30 2618 H 243.09 3.5636 5.41213 0
M  V30 2619 N 236.496 -1.42363 0.676048 0
M  V30 2620 C 237.726 -2.05561 0.206967 0
M  V30 2621 C 238.134 -1.50887 -1.14148 0
M  V30 2622 O 237.477 -0.643933 -1.72044 0
M  V30 2623 C 237.539 -3.5944 0.0659508 0
M  V30 2624 C 237.203 -4.36812 1.34331 0
M  V30 2625 C 238.2 -4.67383 2.27704 0
M  V30 2626 C 235.885 -4.76429 1.59125 0
M  V30 2627 C 237.879 -5.36509 3.44147 0
M  V30 2628 C 235.566 -5.45294 2.75857 0
M  V30 2629 C 236.564 -5.75259 3.68193 0
M  V30 2630 O 236.252 -6.42712 4.82883 0
M  V30 2631 H 235.984 -0.668872 0.0979084 0
M  V30 2632 H 238.538 -1.83467 0.923531 0
M  V30 2633 H 236.768 -3.80197 -0.706204 0
M  V30 2634 H 238.457 -4.0427 -0.363418 0
M  V30 2635 H 239.223 -4.37275 2.09799 0
M  V30 2636 H 235.102 -4.52498 0.881258 0
M  V30 2637 H 238.646 -5.59814 4.16238 0
M  V30 2638 H 234.543 -5.7482 2.93688 0
M  V30 2639 H 235.311 -6.61204 4.82444 0
M  V30 2640 N 237.974 -0.419461 -1.51915 0
M  V30 2641 C 238.884 0.407528 -2.31033 0
M  V30 2642 C 239.9 1.04413 -1.3919 0
M  V30 2643 O 241.076 1.0434 -1.72265 0
M  V30 2644 C 238.141 1.50365 -3.12396 0
M  V30 2645 C 237.202 0.889029 -4.19994 0
M  V30 2646 C 236.435 1.93291 -4.97468 0
M  V30 2647 O 236.658 3.15259 -4.75361 0
M  V30 2648 O 235.592 1.53339 -5.8204 0
M  V30 2649 H 239.418 -0.237865 -3.02767 0
M  V30 2650 H 237.003 -0.182413 -1.48282 0
M  V30 2651 H 238.885 2.13975 -3.63032 0
M  V30 2652 H 237.56 2.13345 -2.43445 0
M  V30 2653 H 236.467 0.215353 -3.7348 0
M  V30 2654 H 237.8 0.302991 -4.91267 0
M  V30 2655 N 239.452 1.56882 -0.150215 0
M  V30 2656 C 240.701 1.95403 0.500071 0
M  V30 2657 C 241.014 1.03777 1.658 0
M  V30 2658 O 242.22 1.31889 2.37313 0
M  V30 2659 C 240.676 3.4738 0.941018 0
M  V30 2660 C 240.284 4.47596 -0.190158 0
M  V30 2661 C 242.028 3.9476 1.56091 0
M  V30 2662 C 239.935 5.90787 0.269237 0
M  V30 2663 H 238.865 0.729515 0.190588 0
M  V30 2664 H 241.516 1.81988 -0.235074 0
M  V30 2665 H 239.898 3.56138 1.73152 0
M  V30 2666 H 241.072 4.50536 -0.967157 0
M  V30 2667 H 239.387 4.10151 -0.718666 0
M  V30 2668 H 241.984 4.99181 1.9163 0
M  V30 2669 H 242.327 3.36494 2.45107 0
M  V30 2670 H 242.86 3.88932 0.835249 0
M  V30 2671 H 239.599 6.52879 -0.585621 0
M  V30 2672 H 239.119 5.912 1.01204 0
M  V30 2673 H 240.798 6.42979 0.720176 0
M  V30 2674 N 240.93 -0.123565 1.57115 0
M  V30 2675 C 242.176 -0.833386 1.84885 0
M  V30 2676 C 242.509 -1.79742 0.735292 0
M  V30 2677 O 241.784 -1.92764 -0.25925 0
M  V30 2678 C 242.067 -1.5873 3.23228 0
M  V30 2679 C 241.92 -0.643183 4.45178 0
M  V30 2680 C 243.239 -2.54453 3.59085 0
M  V30 2681 H 240.358 -0.301518 0.6725 0
M  V30 2682 H 243 -0.097778 1.89748 0
M  V30 2683 H 241.15 -2.21438 3.19214 0
M  V30 2684 H 242.822 -0.0253015 4.61293 0
M  V30 2685 H 241.065 0.0456139 4.33776 0
M  V30 2686 H 241.736 -1.20724 5.38637 0
M  V30 2687 H 244.212 -2.01853 3.63861 0
M  V30 2688 H 243.088 -3.04238 4.5687 0
M  V30 2689 H 243.349 -3.36906 2.86264 0
M  V30 2690 N 242.408 -1.52605 -0.393616 0
M  V30 2691 C 243.685 -1.58001 -1.15304 0
M  V30 2692 C 244.065 -0.370385 -2.07825 0
M  V30 2693 O 243.413 0.641638 -2.19306 0
M  V30 2694 C 243.623 -2.91652 -1.91677 0
M  V30 2695 C 244.971 -3.4522 -2.47201 0
M  V30 2696 O 245.995 -2.93495 -2.01839 0
M  V30 2697 O 244.854 -4.35579 -3.3005 0
M  V30 2698 H 241.948 -0.637068 -0.527327 0
M  V30 2699 H 244.494 -1.64939 -0.399141 0
M  V30 2700 H 243.266 -3.71136 -1.23992 0
M  V30 2701 H 242.889 -2.88077 -2.74039 0
M  V30 2702 N 243.887 0.651787 -1.4349 0
M  V30 2703 C 245.115 1.43937 -1.48626 0
M  V30 2704 C 245.53 1.8851 -0.104587 0
M  V30 2705 O 244.887 1.5958 0.885464 0
M  V30 2706 C 244.938 2.6734 -2.43334 0
M  V30 2707 O 244.659 2.24631 -3.76128 0
M  V30 2708 C 246.16 3.60683 -2.57726 0
M  V30 2709 H 243.38 0.44213 -0.504739 0
M  V30 2710 H 245.924 0.798944 -1.88248 0
M  V30 2711 H 244.079 3.2752 -2.06904 0
M  V30 2712 H 244.493 3.04485 -4.2707 0
M  V30 2713 H 245.967 4.43933 -3.28067 0
M  V30 2714 H 246.444 4.08126 -1.62265 0
M  V30 2715 H 247.05 3.06384 -2.94973 0
M  V30 2716 N 245.365 1.30045 0.890287 0
M  V30 2717 C 246.295 1.18541 2.01172 0
M  V30 2718 C 247.276 0.0773356 1.69924 0
M  V30 2719 O 248.461 0.25845 1.92473 0
M  V30 2720 C 245.591 0.870941 3.36202 0
M  V30 2721 C 244.545 1.93637 3.81692 0
M  V30 2722 C 243.871 1.475 5.13953 0
M  V30 2723 C 245.171 3.34666 4.00994 0
M  V30 2724 H 246.865 2.12359 2.11054 0
M  V30 2725 H 244.411 1.02238 1.01407 0
M  V30 2726 H 246.364 0.777141 4.14172 0
M  V30 2727 H 245.088 -0.102926 3.26438 0
M  V30 2728 H 243.747 2.01972 3.05946 0
M  V30 2729 H 243.395 0.489551 5.00612 0
M  V30 2730 H 243.095 2.1876 5.4536 0
M  V30 2731 H 244.619 1.39489 5.94454 0
M  V30 2732 H 246.033 3.2912 4.69417 0
M  V30 2733 H 244.43 4.03966 4.43769 0
M  V30 2734 H 245.5 3.76949 3.05021 0
M  V30 2735 N 246.843 -1.10192 1.12674 0
M  V30 2736 C 248.091 -1.81845 0.881861 0
M  V30 2737 C 248.412 -1.85737 -0.593867 0
M  V30 2738 O 247.682 -1.33724 -1.4316 0
M  V30 2739 H 246.262 -0.673432 0.323261 0
M  V30 2740 H 248.924 -1.33316 1.42172 0
M  V30 2741 H 248.02 -2.85288 1.2656 0
M  V30 2742 N 248.321 -0.919034 -1.28029 0
M  V30 2743 C 249.231 -0.416756 -2.30869 0
M  V30 2744 C 250.247 0.498235 -1.66714 0
M  V30 2745 O 251.423 0.383144 -1.97722 0
M  V30 2746 C 248.488 0.330274 -3.45123 0
M  V30 2747 C 247.549 -0.618578 -4.2482 0
M  V30 2748 C 246.782 0.0928959 -5.33619 0
M  V30 2749 O 247.005 1.31375 -5.55065 0
M  V30 2750 O 245.939 -0.574499 -5.99152 0
M  V30 2751 H 249.765 -1.27043 -2.75851 0
M  V30 2752 H 247.35 -0.684052 -1.3282 0
M  V30 2753 H 249.232 0.751972 -4.14636 0
M  V30 2754 H 247.907 1.1597 -3.02213 0
M  V30 2755 H 246.814 -1.08978 -3.57875 0
M  V30 2756 H 248.147 -1.41497 -4.71423 0
M  V30 2757 N 249.799 1.42003 -0.683588 0
M  V30 2758 C 251.047 2.01015 -0.209101 0
M  V30 2759 C 251.368 1.54365 1.19149 0
M  V30 2760 O 250.638 0.769083 1.80172 0
M  V30 2761 H 249.218 0.743294 -0.074315 0
M  V30 2762 H 251.88 1.73798 -0.882066 0
M  V30 2763 H 250.976 3.11343 -0.2172 0
M  V30 2764 N 251.277 0.427512 1.51691 0
M  V30 2765 C 252.24 -0.377132 2.26076 0
M  V30 2766 C 253.24 -0.958089 1.29141 0
M  V30 2767 O 254.43 -0.83408 1.52934 0
M  V30 2768 C 251.562 -1.53262 3.04506 0
M  V30 2769 H 252.755 0.27464 2.9864 0
M  V30 2770 H 250.308 0.180445 1.55255 0
M  V30 2771 H 251.043 -2.22072 2.36335 0
M  V30 2772 H 250.828 -1.12232 3.75694 0
M  V30 2773 H 252.318 -2.10135 3.60878 0
M  V30 2774 N 252.755 -1.56801 0.158532 0
M  V30 2775 C 254.002 -1.9649 -0.489679 0
M  V30 2776 C 254.33 -1.04394 -1.6411 0
M  V30 2777 O 253.585 -0.0754401 -1.95555 0
M  V30 2778 C 253.884 -3.4235 -1.02623 0
M  V30 2779 C 253.55 -4.50899 0.00794526 0
M  V30 2780 C 252.212 -4.80312 0.292207 0
M  V30 2781 C 254.564 -5.16333 0.710584 0
M  V30 2782 C 251.892 -5.72461 1.28472 0
M  V30 2783 C 254.244 -6.09553 1.69199 0
M  V30 2784 C 252.908 -6.37339 1.98383 0
M  V30 2785 H 252.178 -0.719009 -0.179186 0
M  V30 2786 H 254.825 -1.8989 0.247798 0
M  V30 2787 H 253.13 -3.45838 -1.84128 0
M  V30 2788 H 254.827 -3.70393 -1.53656 0
M  V30 2789 H 251.417 -4.28015 -0.22379 0
M  V30 2790 H 255.601 -4.93732 0.504174 0
M  V30 2791 H 250.857 -5.92278 1.51714 0
M  V30 2792 H 255.031 -6.59327 2.24189 0
M  V30 2793 H 252.658 -7.08546 2.7544 0
M  V30 2794 N 254.233 0.115231 -1.57178 0
M  V30 2795 C 255.481 0.820727 -1.84685 0
M  V30 2796 C 255.802 1.80237 -0.744279 0
M  V30 2797 O 255.072 1.94529 0.231375 0
M  V30 2798 H 253.652 0.306084 -0.681411 0
M  V30 2799 H 256.314 0.101656 -1.94635 0
M  V30 2800 H 255.41 1.36366 -2.80733 0
M  V30 2801 N 255.711 1.52812 0.385517 0
M  V30 2802 C 256.658 1.77838 1.47113 0
M  V30 2803 C 257.628 0.621757 1.54024 0
M  V30 2804 O 258.813 0.861846 1.70226 0
M  V30 2805 C 255.953 1.95618 2.84302 0
M  V30 2806 C 255.066 3.23316 2.86515 0
M  V30 2807 C 254.201 3.31394 4.15152 0
M  V30 2808 C 253.24 4.53201 4.1143 0
M  V30 2809 N 252.377 4.58542 5.3168 0
M  V30 2810 H 257.217 2.70482 1.25073 0
M  V30 2811 H 254.754 1.34006 0.606692 0
M  V30 2812 H 256.712 2.03912 3.63972 0
M  V30 2813 H 255.342 1.06331 3.04784 0
M  V30 2814 H 254.394 3.24076 1.99195 0
M  V30 2815 H 255.706 4.13045 2.79634 0
M  V30 2816 H 254.86 3.3889 5.03228 0
M  V30 2817 H 253.599 2.39645 4.24761 0
M  V30 2818 H 252.604 4.45827 3.21742 0
M  V30 2819 H 253.829 5.46271 4.03442 0
M  V30 2820 H 251.775 3.69686 5.41912 0
M  V30 2821 H 251.692 5.42148 5.26889 0
M  V30 2822 H 252.96 4.70296 6.21644 0
M  V30 2823 N 257.189 -0.644168 1.43834 0
M  V30 2824 C 258.435 -1.40603 1.46146 0
M  V30 2825 C 258.768 -1.93997 0.0887717 0
M  V30 2826 O 258.043 -1.72854 -0.891724 0
M  V30 2827 C 258.326 -2.58086 2.51124 0
M  V30 2828 C 258.179 -2.10126 3.97702 0
M  V30 2829 C 259.498 -3.60291 2.52742 0
M  V30 2830 H 256.617 -0.509905 0.532134 0
M  V30 2831 H 259.259 -0.729502 1.75437 0
M  V30 2832 H 257.409 -3.15801 2.26278 0
M  V30 2833 H 259.081 -1.57342 4.33637 0
M  V30 2834 H 257.324 -1.41419 4.10101 0
M  V30 2835 H 257.995 -2.94649 4.66783 0
M  V30 2836 H 260.471 -3.12352 2.7491 0
M  V30 2837 H 259.347 -4.40032 3.28121 0
M  V30 2838 H 259.608 -4.1349 1.56455 0
M  V30 2839 N 258.668 -1.30515 -0.883378 0
M  V30 2840 C 259.914 -1.19607 -1.63774 0
M  V30 2841 C 260.247 0.248314 -1.92606 0
M  V30 2842 O 259.522 1.17742 -1.54813 0
M  V30 2843 C 259.805 -2.02669 -2.97653 0
M  V30 2844 C 259.658 -3.55335 -2.75784 0
M  V30 2845 C 260.977 -1.86573 -3.98596 0
M  V30 2846 H 258.096 -0.435856 -0.594305 0
M  V30 2847 H 260.738 -1.60165 -1.02212 0
M  V30 2848 H 258.888 -1.68208 -3.50197 0
M  V30 2849 H 260.56 -3.99863 -2.30016 0
M  V30 2850 H 258.803 -3.79438 -2.1026 0
M  V30 2851 H 259.474 -4.08745 -3.70988 0
M  V30 2852 H 261.95 -2.16703 -3.55217 0
M  V30 2853 H 260.826 -2.47014 -4.90179 0
M  V30 2854 H 261.087 -0.825321 -4.34328 0
M  V30 2855 N 260.146 1.09593 -1.13257 0
M  V30 2856 C 261.056 2.19739 -0.821691 0
M  V30 2857 C 262.072 1.72926 0.19302 0
M  V30 2858 O 263.248 2.01385 0.0244895 0
M  V30 2859 C 260.313 3.45482 -0.290333 0
M  V30 2860 C 259.374 4.06985 -1.36607 0
M  V30 2861 C 258.607 5.26726 -0.859975 0
M  V30 2862 O 258.83 5.69594 0.303082 0
M  V30 2863 O 257.764 5.7931 -1.63351 0
M  V30 2864 H 261.59 2.48781 -1.74189 0
M  V30 2865 H 259.175 1.18496 -0.909894 0
M  V30 2866 H 261.057 4.214 0.000674022 0
M  V30 2867 H 259.732 3.18047 0.602306 0
M  V30 2868 H 258.639 3.32712 -1.71037 0
M  V30 2869 H 259.972 4.38643 -2.23279 0
M  V30 2870 N 261.624 0.925811 1.2754 0
M  V30 2871 C 262.864 0.572521 1.96218 0
M  V30 2872 C 263.228 -0.869719 1.71172 0
M  V30 2873 O 264.429 -1.33119 2.33523 0
M  V30 2874 C 262.7 0.887325 3.4621 0
M  V30 2875 S 264.259 0.642266 4.34074 0
M  V30 2876 H 261.077 0.211403 0.678845 0
M  V30 2877 H 263.679 1.19384 1.54815 0
M  V30 2878 H 262.383 1.93469 3.61936 0
M  V30 2879 H 261.914 0.255123 3.92572 0
M  V30 2880 H 263.929 -0.500822 4.93666 0
M  V30 2881 N 263.102 -1.41638 0.69111 0
M  V30 2882 C 264.351 -2.00526 0.217318 0
M  V30 2883 C 264.664 -1.55353 -1.18848 0
M  V30 2884 O 265.87 -2.06769 -1.75951 0
M  V30 2885 C 264.326 -3.58313 0.337639 0
M  V30 2886 C 263.934 -4.12469 1.74852 0
M  V30 2887 C 265.678 -4.24431 -0.0766066 0
M  V30 2888 C 263.585 -5.62675 1.82074 0
M  V30 2889 H 262.515 -0.750008 0.0774893 0
M  V30 2890 H 265.166 -1.6217 0.858661 0
M  V30 2891 H 263.548 -3.9425 -0.371879 0
M  V30 2892 H 264.722 -3.8796 2.48644 0
M  V30 2893 H 263.037 -3.58861 2.11205 0
M  V30 2894 H 265.634 -5.34683 -0.0430284 0
M  V30 2895 H 265.977 -4.01101 -1.1146 0
M  V30 2896 H 266.51 -3.93512 0.582476 0
M  V30 2897 H 263.249 -5.90826 2.83911 0
M  V30 2898 H 262.769 -5.89124 1.12661 0
M  V30 2899 H 264.448 -6.27371 1.58159 0
M  V30 2900 N 264.58 -0.43555 -1.51462 0
M  V30 2901 C 265.857 0.191364 -1.94662 0
M  V30 2902 C 266.237 1.60254 -1.37411 0
M  V30 2903 O 265.585 2.2152 -0.560458 0
M  V30 2904 C 265.795 0.17091 -3.48581 0
M  V30 2905 C 267.143 0.377357 -4.2292 0
M  V30 2906 O 268.167 0.249104 -3.55328 0
M  V30 2907 O 267.026 0.63247 -5.42828 0
M  V30 2908 H 264.12 0.130932 -0.816569 0
M  V30 2909 H 266.666 -0.4934 -1.62369 0
M  V30 2910 H 265.438 -0.815738 -3.82703 0
M  V30 2911 H 265.061 0.898659 -3.87311 0
M  V30 2912 N 266.058 1.56714 -0.166846 0
M  V30 2913 C 267.008 2.14338 0.777382 0
M  V30 2914 C 267.992 1.07642 1.19591 0
M  V30 2915 O 269.184 1.33775 1.15902 0
M  V30 2916 C 266.313 2.78417 2.00846 0
M  V30 2917 C 265.399 3.92264 1.61212 0
M  V30 2918 N 265.79 4.97268 0.925104 0
M  V30 2919 C 264.088 4.03342 1.90346 0
M  V30 2920 C 264.789 5.77093 0.730627 0
M  V30 2921 N 263.765 5.2854 1.27067 0
M  V30 2922 H 267.567 2.9289 0.243466 0
M  V30 2923 H 265.081 1.62364 0.0339954 0
M  V30 2924 H 267.078 3.18073 2.69509 0
M  V30 2925 H 265.738 2.01344 2.54736 0
M  V30 2926 H 266.749 5.14601 0.583646 0
M  V30 2927 H 263.426 3.37368 2.45946 0
M  V30 2928 H 264.816 6.71638 0.187668 0
M  V30 2929 N 267.536 -0.106894 1.57237 0
M  V30 2930 C 268.483 -1.13049 2.01217 0
M  V30 2931 C 269.453 -1.40471 0.886403 0
M  V30 2932 O 270.638 -1.52133 1.15153 0
M  V30 2933 C 267.778 -2.4487 2.43172 0
M  V30 2934 C 266.891 -2.24281 3.69218 0
M  V30 2935 C 266.026 -3.49417 4.00101 0
M  V30 2936 C 265.065 -3.24038 5.19294 0
M  V30 2937 N 264.202 -4.41409 5.45988 0
M  V30 2938 H 269.042 -0.748456 2.88448 0
M  V30 2939 H 266.579 -0.358054 1.42676 0
M  V30 2940 H 268.537 -3.21786 2.65537 0
M  V30 2941 H 267.167 -2.80944 1.58967 0
M  V30 2942 H 266.219 -1.38224 3.54398 0
M  V30 2943 H 267.531 -2.01512 4.56283 0
M  V30 2944 H 266.685 -4.34746 4.2318 0
M  V30 2945 H 265.424 -3.75229 3.11535 0
M  V30 2946 H 264.429 -2.37102 4.96047 0
M  V30 2947 H 265.654 -2.99584 6.09447 0
M  V30 2948 H 263.6 -4.67319 4.60379 0
M  V30 2949 H 263.517 -4.21788 6.274 0
M  V30 2950 H 264.785 -5.27836 5.73593 0
M  V30 2951 N 269.014 -1.53014 -0.377408 0
M  V30 2952 C 269.977 -1.77957 -1.44444 0
M  V30 2953 C 270.977 -0.649763 -1.47087 0
M  V30 2954 O 272.167 -0.917897 -1.48055 0
M  V30 2955 C 269.299 -1.89089 -2.83651 0
M  V30 2956 H 270.492 -2.73243 -1.23606 0
M  V30 2957 H 268.045 -1.43912 -0.609844 0
M  V30 2958 H 268.78 -0.958293 -3.09818 0
M  V30 2959 H 268.565 -2.71254 -2.83132 0
M  V30 2960 H 270.055 -2.1002 -3.60945 0
M  V30 2961 N 270.492 0.636531 -1.44174 0
M  V30 2962 C 271.74 1.39343 -1.46383 0
M  V30 2963 C 272.061 1.94766 -0.0955715 0
M  V30 2964 O 271.331 1.75452 0.871395 0
M  V30 2965 H 269.911 0.517199 -0.538994 0
M  V30 2966 H 272.573 0.74957 -1.7991 0
M  V30 2967 H 271.669 2.22746 -2.18611 0
M  V30 2968 N 271.97 1.30982 0.876444 0
M  V30 2969 C 273.218 1.20058 1.62575 0
M  V30 2970 C 273.539 -0.242947 1.93481 0
M  V30 2971 O 272.809 -1.1619 1.57724 0
M  V30 2972 H 271.389 0.44135 0.602677 0
M  V30 2973 H 274.051 1.64222 1.04962 0
M  V30 2974 H 273.147 1.76762 2.57219 0
M  V30 2975 N 273.449 -1.08991 1.13837 0
M  V30 2976 C 274.865 -1.33312 0.877506 0
M  V30 2977 C 275.065 -1.95587 -0.48456 0
M  V30 2978 O 274.121 -2.20509 -1.23013 0
M  V30 2979 C 275.434 -2.24045 2.0056 0
M  V30 2980 C 276.982 -2.37542 2.03821 0
M  V30 2981 C 277.457 -3.31614 3.15905 0
M  V30 2982 N 278.948 -3.39189 3.15445 0
M  V30 2983 C 279.683 -4.11992 3.98811 0
M  V30 2984 N 279.179 -4.87553 4.92203 0
M  V30 2985 N 280.972 -4.07762 3.86894 0
M  V30 2986 H 273.123 -0.669456 2.01574 0
M  V30 2987 H 275.386 -0.357482 0.878015 0
M  V30 2988 H 275.092 -1.85521 2.98789 0
M  V30 2989 H 274.966 -3.24466 1.92359 0
M  V30 2990 H 277.353 -2.75327 1.06202 0
M  V30 2991 H 277.434 -1.36884 2.16093 0
M  V30 2992 H 277.078 -2.94551 4.13766 0
M  V30 2993 H 277.008 -4.32186 3.0087 0
M  V30 2994 H 279.499 -2.85314 2.47799 0
M  V30 2995 H 279.812 -5.40549 5.52292 0
M  V30 2996 H 278.157 -4.86627 4.96205 0
M  V30 2997 H 281.348 -3.47833 3.13257 0
M  V30 2998 H 281.521 -4.64238 4.52092 0
M  V30 2999 N 274.927 -0.932562 -1.27047 0
M  V30 3000 C 275.877 -0.406392 -2.24349 0
M  V30 3001 C 276.861 0.492066 -1.53191 0
M  V30 3002 O 278.053 0.328717 -1.73921 0
M  V30 3003 C 275.182 0.335214 -3.41659 0
M  V30 3004 C 274.268 -0.58004 -4.20115 0
M  V30 3005 N 274.659 -1.70203 -4.76303 0
M  V30 3006 C 272.957 -0.383974 -4.44344 0
M  V30 3007 C 273.658 -2.27167 -5.35509 0
M  V30 3008 N 272.634 -1.56068 -5.20715 0
M  V30 3009 H 276.436 -1.26299 -2.65378 0
M  V30 3010 H 273.95 -0.787408 -1.42034 0
M  V30 3011 H 275.947 0.729142 -4.10474 0
M  V30 3012 H 274.607 1.18868 -3.0216 0
M  V30 3013 H 275.618 -2.08433 -4.74106 0
M  V30 3014 H 272.295 0.428436 -4.15296 0
M  V30 3015 H 273.685 -3.21654 -5.89905 0
M  V30 3016 N 276.405 1.4127 -0.698611 0
M  V30 3017 C 277.651 2.01478 -0.231207 0
M  V30 3018 C 277.984 1.55215 1.16713 0
M  V30 3019 O 277.259 0.764672 1.78838 0
M  V30 3020 C 277.542 3.58912 -0.292281 0
M  V30 3021 C 277.395 4.15293 -1.72778 0
M  V30 3022 C 278.714 4.38736 0.346194 0
M  V30 3023 H 275.833 0.732025 -0.0854878 0
M  V30 3024 H 278.475 1.67977 -0.887906 0
M  V30 3025 H 276.625 3.87582 0.26686 0
M  V30 3026 H 278.297 3.97486 -2.341 0
M  V30 3027 H 276.54 3.7022 -2.26096 0
M  V30 3028 H 277.211 5.24452 -1.72202 0
M  V30 3029 H 279.687 4.15897 -0.130035 0
M  V30 3030 H 278.563 5.48221 0.272932 0
M  V30 3031 H 278.824 4.18425 1.42734 0
M  V30 3032 N 277.883 0.443576 1.51229 0
M  V30 3033 C 278.846 -0.353132 2.26463 0
M  V30 3034 C 279.846 -0.944338 1.3015 0
M  V30 3035 O 281.036 -0.817813 1.5381 0
M  V30 3036 C 278.168 -1.50023 3.06114 0
M  V30 3037 H 279.361 0.3063 2.98332 0
M  V30 3038 H 276.914 0.196902 1.55055 0
M  V30 3039 H 277.649 -2.19553 2.38677 0
M  V30 3040 H 277.434 -1.08241 3.76864 0
M  V30 3041 H 278.924 -2.06296 3.63087 0
M  V30 3042 N 279.361 -1.56624 0.175154 0
M  V30 3043 C 280.607 -1.9729 -0.469506 0
M  V30 3044 C 280.94 -1.06128 -1.62636 0
M  V30 3045 O 280.215 -0.109183 -1.94193 0
M  V30 3046 C 280.498 -3.47375 -0.948804 0
M  V30 3047 C 280.351 -4.49317 0.208491 0
M  V30 3048 C 281.67 -4.00652 -1.82116 0
M  V30 3049 H 278.789 -0.717317 -0.16919 0
M  V30 3050 H 281.431 -1.88184 0.262062 0
M  V30 3051 H 279.581 -3.55267 -1.57219 0
M  V30 3052 H 281.253 -4.53482 0.845682 0
M  V30 3053 H 279.496 -4.25121 0.863395 0
M  V30 3054 H 280.167 -5.51741 -0.169059 0
M  V30 3055 H 282.643 -3.95416 -1.2956 0
M  V30 3056 H 281.519 -5.06075 -2.12554 0
M  V30 3057 H 281.78 -3.44699 -2.7683 0
M  V30 3058 N 280.839 0.0985539 -1.57292 0
M  V30 3059 C 281.786 1.11981 -2.01814 0
M  V30 3060 C 282.756 1.39999 -0.89384 0
M  V30 3061 O 283.941 1.5152 -1.15958 0
M  V30 3062 C 281.081 2.43577 -2.44467 0
M  V30 3063 C 280.194 2.2232 -3.70402 0
M  V30 3064 C 279.329 3.4729 -4.01949 0
M  V30 3065 C 278.368 3.2128 -5.21005 0
M  V30 3066 N 277.505 4.38507 -5.48321 0
M  V30 3067 H 282.345 0.733149 -2.88841 0
M  V30 3068 H 279.882 0.350482 -1.42864 0
M  V30 3069 H 281.84 3.20373 -2.6724 0
M  V30 3070 H 280.47 2.80097 -1.60455 0
M  V30 3071 H 279.522 1.36343 -3.55126 0
M  V30 3072 H 280.834 1.99089 -4.57345 0
M  V30 3073 H 279.988 4.32495 -4.25479 0
M  V30 3074 H 278.727 3.73572 -3.13521 0
M  V30 3075 H 277.732 2.34468 -4.97298 0
M  V30 3076 H 278.957 2.96348 -6.11028 0
M  V30 3077 H 276.903 4.64871 -4.62851 0
M  V30 3078 H 276.82 4.18455 -6.29628 0
M  V30 3079 H 278.088 5.24787 -5.76385 0
M  V30 3080 N 282.317 1.53212 0.369288 0
M  V30 3081 C 283.566 1.68436 1.10961 0
M  V30 3082 C 283.879 0.440738 1.9057 0
M  V30 3083 O 285.085 0.473446 2.6734 0
M  V30 3084 C 283.541 2.97744 2.0218 0
M  V30 3085 C 283.149 4.29355 1.279 0
M  V30 3086 C 284.893 3.22334 2.76226 0
M  V30 3087 C 282.8 5.49755 2.17999 0
M  V30 3088 H 281.73 0.627568 0.41794 0
M  V30 3089 H 284.381 1.79713 0.370884 0
M  V30 3090 H 282.763 2.8026 2.79768 0
M  V30 3091 H 283.937 4.57458 0.554007 0
M  V30 3092 H 282.252 4.11179 0.657311 0
M  V30 3093 H 284.849 4.09471 3.43857 0
M  V30 3094 H 285.192 2.38238 3.41392 0
M  V30 3095 H 285.725 3.40475 2.05723 0
M  V30 3096 H 282.464 6.36318 1.57417 0
M  V30 3097 H 281.984 5.25937 2.88359 0
M  V30 3098 H 283.663 5.84401 2.77641 0
M  V30 3099 N 283.795 -0.628877 1.44509 0
M  V30 3100 C 285.041 -1.39045 1.47629 0
M  V30 3101 C 285.374 -1.93892 0.109343 0
M  V30 3102 O 284.649 -1.7379 -0.87334 0
M  V30 3103 C 284.932 -2.55408 2.53848 0
M  V30 3104 C 284.785 -2.05896 3.99909 0
M  V30 3105 C 286.104 -3.5759 2.56549 0
M  V30 3106 H 283.223 -0.504232 0.537512 0
M  V30 3107 H 285.865 -0.710854 1.76201 0
M  V30 3108 H 284.015 -3.13384 2.29615 0
M  V30 3109 H 285.687 -1.52734 4.35282 0
M  V30 3110 H 283.93 -1.37061 4.11578 0
M  V30 3111 H 284.601 -2.89681 4.69882 0
M  V30 3112 H 287.077 -3.09419 2.78207 0
M  V30 3113 H 285.953 -4.36527 3.32769 0
M  V30 3114 H 286.214 -4.11808 1.60832 0
M  V30 3115 N 285.273 -1.31445 -0.869486 0
M  V30 3116 C 286.22 -1.19135 -1.97675 0
M  V30 3117 C 287.19 -0.0770266 -1.65921 0
M  V30 3118 O 288.375 -0.249972 -1.89155 0
M  V30 3119 C 285.515 -0.905149 -3.33018 0
M  V30 3120 C 284.628 -2.10285 -3.77365 0
M  V30 3121 C 283.763 -1.75339 -5.01427 0
M  V30 3122 C 282.802 -2.91515 -5.38224 0
M  V30 3123 N 281.939 -2.56762 -6.53466 0
M  V30 3124 H 286.779 -2.13853 -2.07535 0
M  V30 3125 H 284.316 -1.06379 -1.01597 0
M  V30 3126 H 286.274 -0.719765 -4.10944 0
M  V30 3127 H 284.904 0.00519624 -3.228 0
M  V30 3128 H 283.956 -2.39899 -2.95216 0
M  V30 3129 H 285.268 -2.97237 -4.00564 0
M  V30 3130 H 284.422 -1.53266 -5.87022 0
M  V30 3131 H 283.161 -0.855801 -4.80133 0
M  V30 3132 H 282.166 -3.14237 -4.51149 0
M  V30 3133 H 283.391 -3.81985 -5.61484 0
M  V30 3134 H 281.337 -1.69526 -6.33717 0
M  V30 3135 H 281.254 -3.37243 -6.76612 0
M  V30 3136 H 282.522 -2.38083 -7.42251 0
M  V30 3137 N 286.751 1.08385 -1.14413 0
M  V30 3138 C 287.699 2.17406 -0.826888 0
M  V30 3139 C 288.693 1.6827 0.195312 0
M  V30 3140 O 289.899 1.79927 0.0513892 0
M  V30 3141 H 286.274 0.70934 -0.249681 0
M  V30 3142 H 288.245 2.41388 -1.75426 0
M  V30 3143 C 286.994 3.46215 -0.320979 0
M  V30 3144 H 286.317 3.84401 -1.0989 0
M  V30 3145 H 287.757 4.23777 -0.137549 0
M  V30 3146 C 286.216 3.23067 0.955472 0
M  V30 3147 O 286.746 3.4668 2.02918 0
M  V30 3148 N 284.952 2.7661 0.890798 0
M  V30 3149 H 284.499 2.57594 0.0168815 0
M  V30 3150 H 284.457 2.61501 1.74542 0
M  V30 3151 N 288.23 0.939286 1.26551 0
M  V30 3152 C 289.476 0.586715 1.94128 0
M  V30 3153 C 289.809 -0.8717 1.73537 0
M  V30 3154 O 289.084 -1.62339 1.07127 0
M  V30 3155 C 289.367 0.927497 3.4795 0
M  V30 3156 C 289.22 2.44052 3.77834 0
M  V30 3157 C 290.539 0.441569 4.37879 0
M  V30 3158 H 287.658 0.21463 0.705055 0
M  V30 3159 H 290.3 1.17316 1.49455 0
M  V30 3160 H 288.45 0.428431 3.8613 0
M  V30 3161 H 290.122 3.01216 3.4938 0
M  V30 3162 H 288.365 2.8848 3.23978 0
M  V30 3163 H 289.036 2.62947 4.85348 0
M  V30 3164 H 291.512 0.869448 4.06915 0
M  V30 3165 H 290.388 0.708856 5.44304 0
M  V30 3166 H 290.649 -0.658467 4.37169 0
M  V30 3167 N 289.708 -1.40897 0.706093 0
M  V30 3168 C 290.985 -1.94868 0.169099 0
M  V30 3169 C 291.365 -1.64485 -1.32318 0
M  V30 3170 O 290.713 -0.95744 -2.07474 0
M  V30 3171 C 290.923 -3.45798 0.471654 0
M  V30 3172 C 292.271 -4.22663 0.405127 0
M  V30 3173 O 293.295 -3.53865 0.407168 0
M  V30 3174 O 292.154 -5.45216 0.374383 0
M  V30 3175 H 289.248 -0.82673 0.0211352 0
M  V30 3176 H 291.794 -1.50558 0.782976 0
M  V30 3177 H 290.566 -3.61235 1.50416 0
M  V30 3178 H 290.189 -3.97225 -0.172666 0
M  V30 3179 N 291.186 -0.45159 -1.50991 0
M  V30 3180 C 292.602 -0.104647 -1.59257 0
M  V30 3181 C 292.802 1.38728 -1.4614 0
M  V30 3182 O 291.858 2.15866 -1.30989 0
M  V30 3183 C 293.171 -0.637468 -2.93865 0
M  V30 3184 C 294.719 -0.599166 -3.07212 0
M  V30 3185 C 295.194 -1.1092 -4.44366 0
M  V30 3186 N 296.685 -1.06778 -4.50725 0
M  V30 3187 C 297.42 -1.43314 -5.55201 0
M  V30 3188 N 296.916 -1.87204 -6.67028 0
M  V30 3189 N 298.709 -1.3504 -5.45638 0
M  V30 3190 H 290.86 -1.42214 -1.57762 0
M  V30 3191 H 293.123 -0.586921 -0.744465 0
M  V30 3192 H 292.829 -1.68187 -3.08879 0
M  V30 3193 H 292.703 -0.0702139 -3.77135 0
M  V30 3194 H 295.09 0.436277 -2.91857 0
M  V30 3195 H 295.171 -1.20299 -2.25747 0
M  V30 3196 H 294.815 -2.14318 -4.60467 0
M  V30 3197 H 294.745 -0.481773 -5.24392 0
M  V30 3198 H 297.236 -0.745643 -3.70471 0
M  V30 3199 H 297.549 -2.13282 -7.42786 0
M  V30 3200 H 295.894 -1.91142 -6.68199 0
M  V30 3201 H 299.085 -1.00607 -4.57161 0
M  V30 3202 H 299.258 -1.63841 -6.26945 0
M  V30 3203 N 292.664 1.56529 -0.183458 0
M  V30 3204 C 293.894 2.01331 0.463612 0
M  V30 3205 C 294.302 1.06278 1.5653 0
M  V30 3206 O 293.645 0.0577976 1.83609 0
M  V30 3207 C 293.707 3.42547 1.09096 0
M  V30 3208 C 293.371 4.56817 0.129442 0
M  V30 3209 C 294.368 5.15734 -0.656807 0
M  V30 3210 C 292.053 5.02295 0.02174 0
M  V30 3211 C 294.047 6.1857 -1.53784 0
M  V30 3212 C 291.734 6.04978 -0.862864 0
M  V30 3213 C 292.732 6.62988 -1.64123 0
M  V30 3214 O 292.42 7.63677 -2.51103 0
M  V30 3215 H 292.152 0.664917 0.121907 0
M  V30 3216 H 294.706 2.034 -0.285954 0
M  V30 3217 H 292.936 3.37428 1.88889 0
M  V30 3218 H 294.625 3.71228 1.64148 0
M  V30 3219 H 295.391 4.81473 -0.583839 0
M  V30 3220 H 291.27 4.56847 0.617392 0
M  V30 3221 H 294.814 6.63777 -2.14583 0
M  V30 3222 H 290.711 6.38663 -0.93699 0
M  V30 3223 H 291.479 7.81049 -2.44753 0
M  V30 3224 N 294.142 -0.090211 1.57342 0
M  V30 3225 C 295.382 -0.798365 1.88163 0
M  V30 3226 C 295.746 -1.75662 0.775046 0
M  V30 3227 O 296.947 -2.50849 0.965816 0
M  V30 3228 C 295.218 -1.50376 3.24225 0
M  V30 3229 S 296.777 -2.24952 3.76752 0
M  V30 3230 H 293.595 -0.265883 0.659414 0
M  V30 3231 H 296.197 -0.055264 1.95422 0
M  V30 3232 H 294.901 -0.792286 4.0268 0
M  V30 3233 H 294.432 -2.28666 3.20118 0
M  V30 3234 H 296.447 -3.51173 3.5056 0
M  V30 3235 N 295.62 -1.53406 -0.361157 0
M  V30 3236 C 296.53 -1.83122 -1.4664 0
M  V30 3237 C 297.546 -0.719943 -1.58407 0
M  V30 3238 O 298.722 -1.01046 -1.74218 0
M  V30 3239 C 295.787 -2.01891 -2.81853 0
M  V30 3240 C 294.848 -3.25784 -2.79577 0
M  V30 3241 C 294.081 -3.43648 -4.0834 0
M  V30 3242 O 294.304 -2.65714 -5.0473 0
M  V30 3243 O 293.238 -4.37018 -4.13883 0
M  V30 3244 H 297.064 -2.7703 -1.24451 0
M  V30 3245 H 294.649 -1.38841 -0.551678 0
M  V30 3246 H 296.531 -2.15782 -3.61962 0
M  V30 3247 H 295.206 -1.11173 -3.0401 0
M  V30 3248 H 294.113 -3.17312 -1.98151 0
M  V30 3249 H 295.446 -4.16439 -2.62373 0
M  V30 3250 N 297.098 0.621204 -1.44841 0
M  V30 3251 C 298.061 1.71459 -1.521 0
M  V30 3252 C 299.061 1.55696 -0.401933 0
M  V30 3253 O 300.251 1.61011 -0.664925 0
M  V30 3254 C 297.383 3.10624 -1.40447 0
M  V30 3255 H 298.576 1.66394 -2.49506 0
M  V30 3256 H 296.129 0.835745 -1.3208 0
M  V30 3257 H 296.864 3.21277 -0.441737 0
M  V30 3258 H 296.649 3.23473 -2.21602 0
M  V30 3259 H 298.139 3.90293 -1.4853 0
M  V30 3260 N 298.576 1.31904 0.862503 0
M  V30 3261 C 299.539 1.20131 1.95195 0
M  V30 3262 C 300.539 0.126409 1.60302 0
M  V30 3263 O 301.729 0.376234 1.70089 0
M  V30 3264 C 298.861 0.845691 3.30244 0
M  V30 3265 H 300.054 2.16943 2.07064 0
M  V30 3266 H 297.607 1.15622 1.05172 0
M  V30 3267 H 298.342 -0.120957 3.24074 0
M  V30 3268 H 298.127 1.62276 3.56944 0
M  V30 3269 H 299.617 0.787418 4.10109 0
M  V30 3270 N 300.054 -1.07777 1.14986 0
M  V30 3271 C 301.47 -1.32373 0.891596 0
M  V30 3272 C 301.67 -1.9609 -0.463788 0
M  V30 3273 O 300.726 -2.21801 -1.20667 0
M  V30 3274 C 302.039 -2.21905 2.02925 0
M  V30 3275 C 303.587 -2.35367 2.06329 0
M  V30 3276 C 304.062 -3.28245 3.19405 0
M  V30 3277 N 305.553 -3.35824 3.19024 0
M  V30 3278 C 306.288 -4.07739 4.03158 0
M  V30 3279 N 305.784 -4.82306 4.97346 0
M  V30 3280 N 307.577 -4.03635 3.91197 0
M  V30 3281 H 299.728 -0.648039 2.02273 0
M  V30 3282 H 301.991 -0.348149 0.881757 0
M  V30 3283 H 301.697 -1.82342 3.0074 0
M  V30 3284 H 301.571 -3.22407 1.95789 0
M  V30 3285 H 303.958 -2.74186 1.09116 0
M  V30 3286 H 304.039 -1.34585 2.17533 0
M  V30 3287 H 303.683 -2.90146 4.16867 0
M  V30 3288 H 303.613 -4.28971 3.05437 0
M  V30 3289 H 306.104 -2.8267 2.50811 0
M  V30 3290 H 306.417 -5.34661 5.57994 0
M  V30 3291 H 304.762 -4.81337 5.01338 0
M  V30 3292 H 307.953 -3.44491 3.16928 0
M  V30 3293 H 308.126 -4.59417 4.5699 0
M  V30 3294 N 301.532 -0.945985 -1.26051 0
M  V30 3295 C 302.757 -0.612525 -1.98149 0
M  V30 3296 C 303.182 0.806623 -1.69927 0
M  V30 3297 O 302.54 1.54411 -0.950108 0
M  V30 3298 C 302.588 -0.866981 -3.50023 0
M  V30 3299 O 301.692 0.0585333 -4.12358 0
M  V30 3300 H 301.033 -0.23379 -0.621481 0
M  V30 3301 H 303.563 -1.27023 -1.60395 0
M  V30 3302 H 303.573 -0.789792 -4.00283 0
M  V30 3303 H 302.248 -1.90135 -3.69894 0
M  V30 3304 H 300.825 -0.0701241 -3.72834 0
M  V30 3305 N 303.011 1.40521 -0.713556 0
M  V30 3306 C 303.921 2.34522 -0.0606667 0
M  V30 3307 C 304.937 1.57193 0.74607 0
M  V30 3308 O 306.113 1.89591 0.679493 0
M  V30 3309 C 303.178 3.36081 0.851491 0
M  V30 3310 C 302.239 4.29286 0.0349339 0
M  V30 3311 C 301.472 5.25994 0.903649 0
M  V30 3312 O 301.695 5.28616 2.14292 0
M  V30 3313 O 300.629 6.00918 0.343723 0
M  V30 3314 H 304.455 2.91968 -0.835972 0
M  V30 3315 H 302.04 1.41681 -0.47402 0
M  V30 3316 H 303.922 3.98369 1.37404 0
M  V30 3317 H 302.597 2.81052 1.60598 0
M  V30 3318 H 301.504 3.70289 -0.532633 0
M  V30 3319 H 302.837 4.87462 -0.681287 0
M  V30 3320 N 304.489 0.459591 1.5075 0
M  V30 3321 C 305.738 -0.100971 2.01447 0
M  V30 3322 C 306.051 -1.41816 1.34713 0
M  V30 3323 O 307.257 -2.06299 1.76502 0
M  V30 3324 C 305.713 -0.23047 3.59161 0
M  V30 3325 C 305.321 1.0776 4.34847 0
M  V30 3326 C 307.065 -0.743608 4.17936 0
M  V30 3327 C 304.972 0.91253 5.84317 0
M  V30 3328 H 303.902 -0.0415102 0.752856 0
M  V30 3329 H 306.553 0.592742 1.73663 0
M  V30 3330 H 304.935 -0.987703 3.83485 0
M  V30 3331 H 306.109 1.8449 4.22256 0
M  V30 3332 H 304.424 1.52097 3.87628 0
M  V30 3333 H 307.021 -0.883959 5.27343 0
M  V30 3334 H 307.364 -1.73196 3.78562 0
M  V30 3335 H 307.897 -0.04408 3.97776 0
M  V30 3336 H 304.636 1.87391 6.28144 0
M  V30 3337 H 304.156 0.185422 5.99513 0
M  V30 3338 H 305.835 0.574547 6.44444 0
M  V30 3339 N 305.967 -1.56429 0.191757 0
M  V30 3340 C 306.899 -2.16154 -0.762245 0
M  V30 3341 C 307.912 -1.12247 -1.17917 0
M  V30 3342 O 309.101 -1.39353 -1.11548 0
M  V30 3343 C 306.201 -2.70606 -2.04024 0
M  V30 3344 C 305.374 -3.99381 -1.78364 0
M  V30 3345 C 304.433 -4.38692 -2.90578 0
M  V30 3346 O 303.459 -5.06179 -2.6033 0
M  V30 3347 N 304.661 -4.01922 -4.18854 0
M  V30 3348 H 307.426 -2.98643 -0.251526 0
M  V30 3349 H 304.987 -1.61897 0.00967373 0
M  V30 3350 H 306.979 -2.93891 -2.78227 0
M  V30 3351 H 305.549 -1.9259 -2.46227 0
M  V30 3352 H 304.769 -3.84262 -0.879581 0
M  V30 3353 H 306.057 -4.83445 -1.58614 0
M  V30 3354 H 305.455 -3.47631 -4.46283 0
M  V30 3355 H 304.012 -4.30165 -4.89695 0
M  V30 3356 N 307.445 0.0818655 -1.57387 0
M  V30 3357 C 308.691 0.784074 -1.8703 0
M  V30 3358 C 309.024 1.77729 -0.782689 0
M  V30 3359 O 308.299 1.93384 0.208051 0
M  V30 3360 C 308.582 1.50105 -3.27323 0
M  V30 3361 C 308.435 0.524925 -4.46727 0
M  V30 3362 C 309.754 2.44843 -3.65705 0
M  V30 3363 H 306.873 0.283582 -0.680257 0
M  V30 3364 H 309.515 0.0474352 -1.89941 0
M  V30 3365 H 307.665 2.12897 -3.24972 0
M  V30 3366 H 309.337 -0.0970111 -4.61198 0
M  V30 3367 H 307.58 -0.160606 -4.33503 0
M  V30 3368 H 308.251 1.064 -5.41648 0
M  V30 3369 H 310.727 1.92135 -3.69085 0
M  V30 3370 H 309.603 2.92018 -4.64776 0
M  V30 3371 H 309.864 3.29197 -2.95096 0
M  V30 3372 N 308.923 1.53595 0.353017 0
M  V30 3373 C 309.853 1.83902 1.43883 0
M  V30 3374 C 310.834 0.693421 1.55324 0
M  V30 3375 O 312.019 0.944452 1.69687 0
M  V30 3376 C 309.149 2.04016 2.8106 0
M  V30 3377 C 308.103 3.19814 2.84434 0
M  V30 3378 C 307.429 3.25244 4.24406 0
M  V30 3379 C 308.729 4.58133 2.50822 0
M  V30 3380 H 310.423 2.74835 1.1877 0
M  V30 3381 H 307.969 1.32242 0.569917 0
M  V30 3382 H 309.922 2.238 3.57059 0
M  V30 3383 H 308.646 1.09804 3.07588 0
M  V30 3384 H 307.305 2.9987 2.10887 0
M  V30 3385 H 306.953 2.28646 4.48029 0
M  V30 3386 H 306.653 4.03054 4.27576 0
M  V30 3387 H 308.177 3.47228 5.0226 0
M  V30 3388 H 309.591 4.77995 3.16534 0
M  V30 3389 H 307.988 5.38276 2.6529 0
M  V30 3390 H 309.058 4.62387 1.46034 0
M  V30 3391 N 310.401 -0.613514 1.45168 0
M  V30 3392 C 311.311 -1.75296 1.55912 0
M  V30 3393 C 312.327 -1.68244 0.443856 0
M  V30 3394 O 313.503 -1.88706 0.70371 0
M  V30 3395 C 310.568 -3.1174 1.5172 0
M  V30 3396 C 309.629 -3.30291 2.74238 0
M  V30 3397 C 308.862 -4.60226 2.70236 0
M  V30 3398 O 309.085 -5.42168 1.77229 0
M  V30 3399 O 308.019 -4.81361 3.61352 0
M  V30 3400 H 311.845 -1.69183 2.52212 0
M  V30 3401 H 309.43 -0.776886 1.27612 0
M  V30 3402 H 311.312 -3.93044 1.51968 0
M  V30 3403 H 309.987 -3.18357 0.585697 0
M  V30 3404 H 308.894 -2.48598 2.79553 0
M  V30 3405 H 310.227 -3.28547 3.66494 0
M  V30 3406 N 311.879 -1.3236 -0.855495 0
M  V30 3407 C 312.829 -1.17809 -1.95205 0
M  V30 3408 C 313.813 -0.0852319 -1.60674 0
M  V30 3409 O 315.005 -0.311651 -1.74235 0
M  V30 3410 C 312.134 -0.902437 -3.31226 0
M  V30 3411 C 311.22 -2.03695 -3.7198 0
M  V30 3412 N 311.611 -3.28544 -3.84568 0
M  V30 3413 C 309.909 -1.93993 -4.016 0
M  V30 3414 C 310.61 -4.02847 -4.19629 0
M  V30 3415 N 309.586 -3.31138 -4.31102 0
M  V30 3416 H 313.388 -2.12462 -2.0307 0
M  V30 3417 H 310.902 -1.24127 -1.0472 0
M  V30 3418 H 312.899 -0.77915 -4.09554 0
M  V30 3419 H 311.559 0.0357267 -3.2468 0
M  V30 3420 H 312.57 -3.6349 -3.68911 0
M  V30 3421 H 309.247 -1.07733 -4.03361 0
M  V30 3422 H 310.637 -5.10506 -4.36845 0
M  V30 3423 N 313.357 1.07166 -1.15556 0
M  V30 3424 C 314.287 2.16403 -0.877046 0
M  V30 3425 C 315.268 1.69217 0.173111 0
M  V30 3426 O 316.453 1.94181 0.027084 0
M  V30 3427 C 313.583 3.45349 -0.367632 0
M  V30 3428 C 312.537 4.05995 -1.35468 0
M  V30 3429 C 311.863 5.30045 -0.704038 0
M  V30 3430 C 313.163 4.45804 -2.72132 0
M  V30 3431 H 314.857 2.39959 -1.79053 0
M  V30 3432 H 312.403 1.15325 -0.862331 0
M  V30 3433 H 314.356 4.21095 -0.160317 0
M  V30 3434 H 313.08 3.21385 0.581326 0
M  V30 3435 H 311.739 3.32296 -1.54839 0
M  V30 3436 H 311.387 5.02373 0.251128 0
M  V30 3437 H 311.087 5.71579 -1.36277 0
M  V30 3438 H 312.611 6.08495 -0.50654 0
M  V30 3439 H 314.025 5.12671 -2.56595 0
M  V30 3440 H 312.422 4.98296 -3.34397 0
M  V30 3441 H 313.492 3.57083 -3.28054 0
M  V30 3442 N 314.835 0.952656 1.25548 0
M  V30 3443 C 315.783 0.462354 2.27958 0
M  V30 3444 C 316.777 -0.46634 1.62855 0
M  V30 3445 O 317.983 -0.343287 1.76696 0
M  V30 3446 H 314.358 0.13101 0.7405 0
M  V30 3447 H 316.329 1.33839 2.66702 0
M  V30 3448 C 315.078 -0.24628 3.46827 0
M  V30 3449 H 314.401 0.459192 3.97154 0
M  V30 3450 H 315.841 -0.553393 4.20373 0
M  V30 3451 C 314.3 -1.4681 3.0323 0
M  V30 3452 O 314.83 -2.56591 3.09069 0
M  V30 3453 N 313.036 -1.32874 2.58443 0
M  V30 3454 H 312.583 -0.435536 2.53891 0
M  V30 3455 H 312.541 -2.14742 2.29637 0
M  V30 3456 N 316.313 -1.40141 0.720998 0
M  V30 3457 C 317.541 -2.05096 0.272656 0
M  V30 3458 C 317.956 -1.54334 -1.0875 0
M  V30 3459 O 317.313 -0.702211 -1.6845 0
M  V30 3460 C 317.364 -3.60636 0.249835 0
M  V30 3461 O 317.085 -4.09526 1.55629 0
M  V30 3462 C 318.586 -4.42772 -0.216396 0
M  V30 3463 H 315.806 -0.659897 0.121558 0
M  V30 3464 H 318.35 -1.79449 0.980723 0
M  V30 3465 H 316.505 -3.85232 -0.409237 0
M  V30 3466 H 316.919 -5.03758 1.4604 0
M  V30 3467 H 318.393 -5.51702 -0.181212 0
M  V30 3468 H 318.87 -4.20756 -1.25941 0
M  V30 3469 H 319.476 -4.23294 0.412596 0
M  V30 3470 N 317.792 -0.46758 -1.50504 0
M  V30 3471 C 319.02 0.0864133 -2.06719 0
M  V30 3472 C 319.435 1.33819 -1.33184 0
M  V30 3473 O 318.792 1.78061 -0.400083 0
M  V30 3474 C 318.843 0.378079 -3.59517 0
M  V30 3475 O 318.564 -0.824044 -4.3028 0
M  V30 3476 C 320.065 0.979426 -4.32345 0
M  V30 3477 H 317.285 -0.00551697 -0.670977 0
M  V30 3478 H 319.829 -0.655354 -1.93715 0
M  V30 3479 H 317.984 1.06977 -3.72337 0
M  V30 3480 H 318.398 -0.566518 -5.21432 0
M  V30 3481 H 319.872 1.1333 -5.40241 0
M  V30 3482 H 320.349 1.9686 -3.9261 0
M  V30 3483 H 320.955 0.326216 -4.24047 0
M  V30 3484 N 319.27 1.56325 -0.20005 0
M  V30 3485 C 320.547 1.89484 0.48529 0
M  V30 3486 C 320.927 1.1143 1.79294 0
M  V30 3487 O 320.275 0.216919 2.27468 0
M  V30 3488 C 320.485 3.41923 0.699243 0
M  V30 3489 C 321.833 4.12256 1.01638 0
M  V30 3490 O 322.857 3.47402 0.786792 0
M  V30 3491 O 321.716 5.26887 1.45095 0
M  V30 3492 H 318.81 0.787144 0.253639 0
M  V30 3493 H 321.356 1.67985 -0.240633 0
M  V30 3494 H 320.128 3.90658 -0.224008 0
M  V30 3495 H 319.751 3.69131 1.47744 0
M  V30 3496 N 320.748 -0.0735177 1.57428 0
M  V30 3497 C 322.159 -0.625551 1.75908 0
M  V30 3498 C 322.51 -1.78 0.825261 0
M  V30 3499 O 321.635 -2.16398 0.00893964 0
M  V30 3500 C 322.23 -1.14155 3.18989 0
M  V30 3501 C 320.789 -1.63946 3.38819 0
M  V30 3502 C 319.936 -0.558151 2.71625 0
M  V30 3503 H 322.887 0.152647 1.57964 0
M  V30 3504 H 322.908 -2.0104 3.23053 0
M  V30 3505 H 322.42 -0.301116 3.8693 0
M  V30 3506 H 320.521 -2.50321 2.7599 0
M  V30 3507 H 320.634 -1.71759 4.47253 0
M  V30 3508 H 318.998 -1.00278 2.34129 0
M  V30 3509 H 319.781 0.272071 3.4222 0
M  V30 3510 N 322.226 -1.5378 -0.344866 0
M  V30 3511 C 323.174 -1.82373 -1.4437 0
M  V30 3512 C 324.168 -0.694128 -1.54526 0
M  V30 3513 O 325.374 -0.877442 -1.57165 0
M  V30 3514 H 321.749 -0.577765 -0.481344 0
M  V30 3515 H 323.72 -2.74306 -1.17468 0
M  V30 3516 C 322.469 -2.04898 -2.80913 0
M  V30 3517 H 321.792 -2.9127 -2.73865 0
M  V30 3518 H 323.232 -2.28871 -3.56923 0
M  V30 3519 C 321.691 -0.834116 -3.26411 0
M  V30 3520 O 322.221 -0.0328885 -4.01687 0
M  V30 3521 N 320.427 -0.65171 -2.83198 0
M  V30 3522 H 319.974 -1.30489 -2.22104 0
M  V30 3523 H 319.932 0.159686 -3.13994 0
M  V30 3524 N 323.704 0.605807 -1.45491 0
M  V30 3525 C 324.929 1.39625 -1.53361 0
M  V30 3526 C 325.354 1.87351 -0.167645 0
M  V30 3527 O 324.712 1.60243 0.848051 0
M  V30 3528 C 324.76 2.57559 -2.5238 0
M  V30 3529 O 323.864 3.58248 -2.04285 0
M  V30 3530 H 323.205 0.416771 -0.516912 0
M  V30 3531 H 325.735 0.737103 -1.90861 0
M  V30 3532 H 325.745 3.0478 -2.71244 0
M  V30 3533 H 324.42 2.22171 -3.51586 0
M  V30 3534 H 322.997 3.17664 -1.95305 0
M  V30 3535 N 325.182 1.32811 0.848464 0
M  V30 3536 C 326.41 1.26739 1.63538 0
M  V30 3537 C 326.825 -0.163484 1.88091 0
M  V30 3538 O 326.182 -1.10258 1.45429 0
M  V30 3539 C 326.233 2.03013 2.99112 0
M  V30 3540 O 325.954 3.40518 2.75643 0
M  V30 3541 C 327.455 2.04038 3.93552 0
M  V30 3542 H 324.675 0.437024 0.509167 0
M  V30 3543 H 327.219 1.75033 1.05753 0
M  V30 3544 H 325.374 1.58426 3.53525 0
M  V30 3545 H 325.788 3.79635 3.61908 0
M  V30 3546 H 327.262 2.61877 4.85926 0
M  V30 3547 H 327.739 1.0282 4.26995 0
M  V30 3548 H 328.345 2.486 3.45077 0
M  V30 3549 N 326.66 -1.06551 1.16123 0
M  V30 3550 C 327.907 -1.79302 0.941126 0
M  V30 3551 C 328.235 -1.87105 -0.531235 0
M  V30 3552 O 327.49 -1.35692 -1.41018 0
M  V30 3553 C 327.789 -3.23911 1.51052 0
M  V30 3554 C 327.455 -3.36193 3.00475 0
M  V30 3555 C 326.117 -3.39252 3.41265 0
M  V30 3556 C 328.469 -3.38326 3.96465 0
M  V30 3557 C 325.797 -3.42057 4.76669 0
M  V30 3558 C 328.149 -3.4267 5.31752 0
M  V30 3559 C 326.813 -3.4401 5.72026 0
M  V30 3560 H 326.083 -0.656111 0.344382 0
M  V30 3561 H 328.73 -1.25325 1.44796 0
M  V30 3562 H 327.035 -3.80723 0.925063 0
M  V30 3563 H 328.732 -3.78793 1.31593 0
M  V30 3564 H 325.322 -3.34516 2.6795 0
M  V30 3565 H 329.506 -3.35176 3.6602 0
M  V30 3566 H 324.762 -3.41398 5.07206 0
M  V30 3567 H 328.936 -3.43268 6.05921 0
M  V30 3568 H 326.563 -3.45937 6.76928 0
M  V30 3569 N 328.138 -0.959301 -1.25041 0
M  V30 3570 C 329.554 -0.664474 -1.4511 0
M  V30 3571 C 329.754 0.776481 -1.85938 0
M  V30 3572 O 328.81 1.55128 -1.99227 0
M  V30 3573 C 330.123 -1.64139 -2.5195 0
M  V30 3574 C 331.671 -1.65309 -2.65786 0
M  V30 3575 C 332.146 -2.61777 -3.75815 0
M  V30 3576 N 333.637 -2.60169 -3.83231 0
M  V30 3577 C 334.372 -3.31489 -4.6787 0
M  V30 3578 N 333.868 -4.12298 -5.56761 0
M  V30 3579 N 335.661 -3.20354 -4.61876 0
M  V30 3580 H 327.812 -1.89043 -0.968332 0
M  V30 3581 H 330.075 -0.813408 -0.4869 0
M  V30 3582 H 329.781 -2.67086 -2.28819 0
M  V30 3583 H 329.655 -1.40756 -3.49954 0
M  V30 3584 H 332.042 -0.630778 -2.8828 0
M  V30 3585 H 332.123 -1.92753 -1.68167 0
M  V30 3586 H 331.767 -3.64137 -3.54071 0
M  V30 3587 H 331.697 -2.31616 -4.72929 0
M  V30 3588 H 334.188 -2.01507 -3.19692 0
M  V30 3589 H 334.501 -4.63625 -6.18281 0
M  V30 3590 H 332.846 -4.16395 -5.56454 0
M  V30 3591 H 336.037 -2.56692 -3.91442 0
M  V30 3592 H 336.21 -3.76201 -5.27614 0
M  V30 3593 N 329.616 1.39756 -0.72842 0
M  V30 3594 C 330.856 2.025 -0.278078 0
M  V30 3595 C 331.22 1.5654 1.11173 0
M  V30 3596 O 332.421 2.11435 1.65978 0
M  V30 3597 C 330.692 3.55489 -0.369139 0
M  V30 3598 S 332.251 4.388 0.00232983 0
M  V30 3599 H 329.069 0.702534 -0.109391 0
M  V30 3600 H 331.671 1.70672 -0.95348 0
M  V30 3601 H 330.375 3.86429 -1.38204 0
M  V30 3602 H 329.906 3.92061 0.324308 0
M  V30 3603 H 331.921 4.80954 1.22055 0
M  V30 3604 N 331.094 0.475555 1.50254 0
M  V30 3605 C 332.34 -0.0780073 2.0265 0
M  V30 3606 C 332.673 -1.38968 1.35652 0
M  V30 3607 O 331.948 -1.8839 0.483691 0
M  V30 3608 C 332.231 -0.257161 3.59181 0
M  V30 3609 C 332.084 1.07585 4.36744 0
M  V30 3610 C 333.403 -1.00965 4.28362 0
M  V30 3611 H 330.522 -0.0268758 0.73651 0
M  V30 3612 H 333.164 0.622015 1.7953 0
M  V30 3613 H 331.314 -0.853412 3.79011 0
M  V30 3614 H 332.986 1.70902 4.28474 0
M  V30 3615 H 331.229 1.6714 4.00308 0
M  V30 3616 H 331.9 0.904088 5.44546 0
M  V30 3617 H 334.376 -0.504214 4.13034 0
M  V30 3618 H 333.252 -1.10381 5.37687 0
M  V30 3619 H 333.513 -2.04731 3.91839 0
M  V30 3620 N 332.573 -1.56217 0.208337 0
M  V30 3621 C 333.505 -2.1695 -0.739276 0
M  V30 3622 C 334.518 -1.13492 -1.1672 0
M  V30 3623 O 335.707 -1.40529 -1.10063 0
M  V30 3624 C 332.807 -2.72755 -2.01142 0
M  V30 3625 C 331.98 -4.0125 -1.74118 0
M  V30 3626 C 331.039 -4.41749 -2.85909 0
M  V30 3627 O 330.065 -5.08912 -2.54946 0
M  V30 3628 N 331.267 -4.06342 -4.14568 0
M  V30 3629 H 334.032 -2.98893 -0.219837 0
M  V30 3630 H 331.593 -1.61878 0.0268445 0
M  V30 3631 H 333.585 -2.96826 -2.75094 0
M  V30 3632 H 332.155 -1.95191 -2.4417 0
M  V30 3633 H 331.375 -3.85173 -0.838775 0
M  V30 3634 H 332.663 -4.851 -1.53477 0
M  V30 3635 H 332.061 -3.52345 -4.42571 0
M  V30 3636 H 330.618 -4.35335 -4.85105 0
M  V30 3637 N 334.051 0.0651679 -1.57465 0
M  V30 3638 C 334.984 1.10876 -1.99453 0
M  V30 3639 C 335.962 1.37205 -0.872555 0
M  V30 3640 O 337.146 1.50468 -1.13542 0
M  V30 3641 C 334.273 2.45167 -2.3369 0
M  V30 3642 C 333.319 2.3493 -3.55964 0
M  V30 3643 S 334.152 1.73708 -5.06543 0
M  V30 3644 C 335.308 3.09563 -5.43987 0
M  V30 3645 H 335.541 0.750967 -2.87659 0
M  V30 3646 H 333.074 0.273933 -1.51951 0
M  V30 3647 H 335.032 3.22412 -2.54088 0
M  V30 3648 H 333.693 2.78105 -1.46001 0
M  V30 3649 H 332.886 3.3398 -3.77457 0
M  V30 3650 H 332.488 1.65823 -3.3523 0
M  V30 3651 H 334.78 4.05882 -5.42463 0
M  V30 3652 H 335.723 2.92843 -6.44708 0
M  V30 3653 H 336.131 3.10474 -4.71451 0
M  V30 3654 N 335.529 1.53961 0.336706 0
M  V30 3655 C 336.459 1.85417 1.41925 0
M  V30 3656 C 337.44 0.709856 1.5458 0
M  V30 3657 O 338.625 0.962396 1.68676 0
M  V30 3658 C 335.755 2.06985 2.78881 0
M  V30 3659 C 334.709 3.22813 2.81026 0
M  V30 3660 C 334.035 3.29727 4.20932 0
M  V30 3661 C 335.335 4.60767 2.45949 0
M  V30 3662 H 337.029 2.76079 1.15848 0
M  V30 3663 H 334.575 1.32839 0.555859 0
M  V30 3664 H 336.528 2.27575 3.54665 0
M  V30 3665 H 335.252 1.13061 3.06406 0
M  V30 3666 H 333.911 3.0209 2.07695 0
M  V30 3667 H 333.559 2.33385 4.45579 0
M  V30 3668 H 333.259 4.07566 4.23277 0
M  V30 3669 H 334.783 3.52536 4.98549 0
M  V30 3670 H 336.197 4.81325 3.11446 0
M  V30 3671 H 334.594 5.4106 2.59566 0
M  V30 3672 H 335.664 4.6391 1.41122 0
M  V30 3673 N 337.007 -0.598083 1.45811 0
M  V30 3674 C 337.917 -1.73632 1.57763 0
M  V30 3675 C 338.933 -1.67763 0.461676 0
M  V30 3676 O 340.109 -1.87949 0.723685 0
M  V30 3677 C 337.174 -3.10114 1.55018 0
M  V30 3678 C 336.235 -3.27364 2.77726 0
M  V30 3679 C 335.468 -4.57334 2.75102 0
M  V30 3680 O 335.691 -5.40258 1.8297 0
M  V30 3681 O 334.625 -4.77502 3.66437 0
M  V30 3682 H 338.451 -1.66498 2.53992 0
M  V30 3683 H 336.036 -0.763308 1.28429 0
M  V30 3684 H 337.918 -3.9141 1.56129 0
M  V30 3685 H 336.593 -3.17718 0.619431 0
M  V30 3686 H 335.5 -2.45619 2.82174 0
M  V30 3687 H 336.833 -3.24641 3.69958 0
M  V30 3688 N 338.485 -1.33259 -0.841409 0
M  V30 3689 C 339.731 -1.25766 -1.59857 0
M  V30 3690 C 340.086 0.175602 -1.91597 0
M  V30 3691 O 339.379 1.117 -1.55672 0
M  V30 3692 C 339.573 -2.06381 -2.9179 0
M  V30 3693 C 339.402 -3.57401 -2.72937 0
M  V30 3694 C 338.172 -4.26718 -2.70628 0
M  V30 3695 C 340.37 -4.51786 -2.45753 0
M  V30 3696 N 338.352 -5.63705 -2.43125 0
M  V30 3697 C 339.723 -5.76643 -2.27777 0
M  V30 3698 C 341.778 -4.40898 -2.31329 0
M  V30 3699 C 340.481 -6.91842 -1.96841 0
M  V30 3700 C 342.507 -5.55911 -2.01786 0
M  V30 3701 C 341.869 -6.79776 -1.8462 0
M  V30 3702 H 337.968 -0.515406 -0.588117 0
M  V30 3703 H 340.552 -1.67772 -0.987955 0
M  V30 3704 H 338.723 -1.667 -3.50807 0
M  V30 3705 H 340.455 -1.90678 -3.56965 0
M  V30 3706 H 337.21 -3.78968 -2.84043 0
M  V30 3707 H 337.634 -6.35911 -2.32265 0
M  V30 3708 H 342.276 -3.45772 -2.43314 0
M  V30 3709 H 339.994 -7.86968 -1.83594 0
M  V30 3710 H 343.58 -5.49421 -1.91384 0
M  V30 3711 H 342.46 -7.67266 -1.62088 0
M  V30 3712 N 339.963 1.05934 -1.16686 0
M  V30 3713 C 341.21 1.788 -0.950622 0
M  V30 3714 C 341.538 1.87384 0.521305 0
M  V30 3715 O 340.793 1.36438 1.40297 0
M  V30 3716 C 341.092 3.23105 -1.52767 0
M  V30 3717 C 340.758 3.34594 -3.02254 0
M  V30 3718 C 339.42 3.37437 -3.43059 0
M  V30 3719 C 341.772 3.36219 -3.98254 0
M  V30 3720 C 339.1 3.39525 -4.78477 0
M  V30 3721 C 341.452 3.39845 -5.33562 0
M  V30 3722 C 340.116 3.40971 -5.73842 0
M  V30 3723 H 339.386 0.654275 -0.347857 0
M  V30 3724 H 342.033 1.24555 -1.45459 0
M  V30 3725 H 340.338 3.80227 -0.94524 0
M  V30 3726 H 342.035 3.7809 -1.336 0
M  V30 3727 H 338.625 3.3309 -2.6972 0
M  V30 3728 H 342.809 3.33231 -3.67792 0
M  V30 3729 H 338.065 3.38703 -5.09009 0
M  V30 3730 H 342.239 3.4005 -6.07733 0
M  V30 3731 H 339.866 3.42342 -6.78753 0
M  V30 3732 N 341.441 0.965919 1.2453 0
M  V30 3733 C 342.351 0.502154 2.29163 0
M  V30 3734 C 343.367 -0.436017 1.68448 0
M  V30 3735 O 344.543 -0.309497 1.99008 0
M  V30 3736 C 341.608 -0.201956 3.46111 0
M  V30 3737 C 340.669 0.775821 4.22232 0
M  V30 3738 C 339.902 0.105217 5.33596 0
M  V30 3739 O 340.125 -1.10683 5.59558 0
M  V30 3740 O 339.059 0.796475 5.96607 0
M  V30 3741 H 342.885 1.37194 2.70946 0
M  V30 3742 H 340.47 0.732875 1.30189 0
M  V30 3743 H 342.352 -0.597564 4.17142 0
M  V30 3744 H 341.027 -1.04673 3.06309 0
M  V30 3745 H 339.934 1.22185 3.53584 0
M  V30 3746 H 341.267 1.58896 4.65846 0
M  V30 3747 N 342.919 -1.39368 0.735821 0
M  V30 3748 C 343.869 -2.27885 0.0724287 0
M  V30 3749 C 344.853 -1.44301 -0.711756 0
M  V30 3750 O 346.045 -1.67206 -0.58063 0
M  V30 3751 C 343.174 -3.33029 -0.833454 0
M  V30 3752 C 342.26 -4.24078 -0.0433749 0
M  V30 3753 N 342.651 -4.96138 0.983903 0
M  V30 3754 C 340.949 -4.45164 -0.272905 0
M  V30 3755 C 341.65 -5.63069 1.4604 0
M  V30 3756 N 340.626 -5.37991 0.778857 0
M  V30 3757 H 344.428 -2.81052 0.859467 0
M  V30 3758 H 341.942 -1.5206 0.570227 0
M  V30 3759 H 343.939 -3.95311 -1.32419 0
M  V30 3760 H 342.599 -2.81421 -1.61964 0
M  V30 3761 H 343.61 -4.9958 1.36528 0
M  V30 3762 H 340.287 -4.04497 -1.03383 0
M  V30 3763 H 341.677 -6.30755 2.31511 0
M  V30 3764 N 344.397 -0.483516 -1.5 0
M  V30 3765 C 345.347 0.32306 -2.257 0
M  V30 3766 C 346.331 0.950755 -1.29805 0
M  V30 3767 O 347.523 0.861247 -1.54634 0
M  V30 3768 C 344.652 1.39724 -3.13579 0
M  V30 3769 C 343.738 0.776663 -4.16928 0
M  V30 3770 N 344.129 -0.1104 -5.0568 0
M  V30 3771 C 342.427 1.03922 -4.33724 0
M  V30 3772 C 343.128 -0.46387 -5.79848 0
M  V30 3773 N 342.104 0.163987 -5.43353 0
M  V30 3774 H 345.906 -0.360086 -2.91686 0
M  V30 3775 H 343.42 -0.298456 -1.59634 0
M  V30 3776 H 345.417 1.98837 -3.66428 0
M  V30 3777 H 344.077 2.08225 -2.49143 0
M  V30 3778 H 345.088 -0.480069 -5.1567 0
M  V30 3779 H 341.765 1.71829 -3.80501 0
M  V30 3780 H 343.155 -1.18854 -6.61304 0
M  V30 3781 N 345.875 1.56104 -0.216619 0
M  V30 3782 C 347.123 1.97781 0.415593 0
M  V30 3783 C 347.444 1.10536 1.60645 0
M  V30 3784 O 346.714 0.181303 1.95059 0
M  V30 3785 H 345.294 0.730415 0.156534 0
M  V30 3786 H 347.956 1.92445 -0.308366 0
M  V30 3787 H 347.052 3.03072 0.74525 0
M  V30 3788 N 347.353 -0.0568162 1.57498 0
M  V30 3789 C 348.303 -1.07315 2.01166 0
M  V30 3790 C 349.287 -1.33632 0.896171 0
M  V30 3791 O 350.479 -1.33682 1.16009 0
M  V30 3792 C 347.608 -2.38257 2.47161 0
M  V30 3793 C 346.694 -2.1515 3.65474 0
M  V30 3794 N 347.085 -1.62014 4.7915 0
M  V30 3795 C 345.383 -2.45559 3.72313 0
M  V30 3796 C 346.084 -1.54069 5.60926 0
M  V30 3797 N 345.06 -2.00652 5.05213 0
M  V30 3798 H 348.862 -0.655878 2.86488 0
M  V30 3799 H 346.376 -0.263635 1.60246 0
M  V30 3800 H 348.373 -3.11845 2.76691 0
M  V30 3801 H 347.033 -2.80687 1.63232 0
M  V30 3802 H 348.044 -1.30667 5.01145 0
M  V30 3803 H 344.721 -2.91253 2.99129 0
M  V30 3804 H 346.111 -1.13712 6.62208 0
M  V30 3805 N 348.832 -1.54138 -0.328536 0
M  V30 3806 C 350.081 -1.71318 -1.06456 0
M  V30 3807 C 350.394 -0.491109 -1.89334 0
M  V30 3808 O 351.6 -0.54416 -2.65991 0
M  V30 3809 C 350.056 -3.03 -1.94214 0
M  V30 3810 C 349.664 -4.32595 -1.16471 0
M  V30 3811 C 351.408 -3.29544 -2.67583 0
M  V30 3812 C 349.315 -5.55341 -2.03347 0
M  V30 3813 H 348.245 -0.638429 -0.401155 0
M  V30 3814 H 350.896 -1.80633 -0.323106 0
M  V30 3815 H 349.278 -2.87579 -2.72239 0
M  V30 3816 H 350.452 -4.58766 -0.432525 0
M  V30 3817 H 348.767 -4.12777 -0.548063 0
M  V30 3818 H 351.364 -4.18444 -3.3288 0
M  V30 3819 H 351.707 -2.47206 -3.34955 0
M  V30 3820 H 352.24 -3.45809 -1.96623 0
M  V30 3821 H 348.979 -6.40268 -1.40491 0
M  V30 3822 H 348.499 -5.33397 -2.74313 0
M  V30 3823 H 350.178 -5.91557 -2.62049 0
M  V30 3824 N 350.31 0.590341 -1.46126 0
M  V30 3825 C 351.55 1.35995 -1.52593 0
M  V30 3826 C 351.914 1.91243 -0.170368 0
M  V30 3827 O 353.115 2.68576 -0.109775 0
M  V30 3828 C 351.386 2.46465 -2.58823 0
M  V30 3829 S 352.945 3.33953 -2.84641 0
M  V30 3830 H 349.763 0.463425 -0.53922 0
M  V30 3831 H 352.365 0.67944 -1.83314 0
M  V30 3832 H 351.069 2.04256 -3.5596 0
M  V30 3833 H 350.6 3.19297 -2.2981 0
M  V30 3834 H 352.615 4.45094 -2.19331 0
M  V30 3835 N 351.788 1.33704 0.83433 0
M  V30 3836 C 353.037 1.24763 1.58484 0
M  V30 3837 C 353.35 -0.183775 1.94735 0
M  V30 3838 O 354.556 -0.395234 2.68608 0
M  V30 3839 C 353.012 2.18638 2.85876 0
M  V30 3840 C 352.62 3.66974 2.56971 0
M  V30 3841 C 354.364 2.18581 3.63899 0
M  V30 3842 C 352.271 4.5275 3.80488 0
M  V30 3843 H 351.201 0.463425 0.594772 0
M  V30 3844 H 353.852 1.58797 0.919551 0
M  V30 3845 H 352.234 1.77542 3.5397 0
M  V30 3846 H 353.408 4.16538 1.9706 0
M  V30 3847 H 351.723 3.69366 1.92244 0
M  V30 3848 H 354.32 2.79894 4.55591 0
M  V30 3849 H 354.663 1.18207 3.99165 0
M  V30 3850 H 355.196 2.58062 3.02735 0
M  V30 3851 H 351.935 5.54017 3.5035 0
M  V30 3852 H 351.455 4.07927 4.39722 0
M  V30 3853 H 353.134 4.66784 4.4802 0
M  V30 3854 N 353.266 -1.05314 1.17247 0
M  V30 3855 C 354.512 -1.78557 0.961513 0
M  V30 3856 C 354.845 -1.87419 -0.508697 0
M  V30 3857 O 354.12 -1.37307 -1.37757 0
M  V30 3858 C 354.403 -3.22514 1.60176 0
M  V30 3859 C 354.256 -3.21673 3.14399 0
M  V30 3860 C 355.575 -4.20318 1.30463 0
M  V30 3861 H 352.694 -0.6482 0.350723 0
M  V30 3862 H 355.336 -1.23102 1.44727 0
M  V30 3863 H 353.486 -3.69867 1.18871 0
M  V30 3864 H 355.158 -2.82405 3.64753 0
M  V30 3865 H 353.401 -2.60048 3.47214 0
M  V30 3866 H 354.072 -4.23271 3.54324 0
M  V30 3867 H 356.548 -3.81454 1.66229 0
M  V30 3868 H 355.424 -5.19289 1.77848 0
M  V30 3869 H 355.685 -4.41526 0.22521 0
M  V30 3870 N 354.744 -0.972509 -1.24016 0
M  V30 3871 C 355.991 -0.637034 -1.92219 0
M  V30 3872 C 356.319 0.828418 -1.75976 0
M  V30 3873 O 355.574 1.61206 -1.10955 0
M  V30 3874 C 355.873 -0.963694 -3.44162 0
M  V30 3875 C 355.539 -2.41807 -3.80579 0
M  V30 3876 C 354.201 -2.81556 -3.9023 0
M  V30 3877 C 356.553 -3.36172 -3.98293 0
M  V30 3878 C 353.881 -4.14702 -4.15017 0
M  V30 3879 C 356.233 -4.68952 -4.24578 0
M  V30 3880 C 354.897 -5.08472 -4.32449 0
M  V30 3881 H 354.167 -0.233107 -0.703379 0
M  V30 3882 H 356.814 -1.2249 -1.47202 0
M  V30 3883 H 355.119 -0.29365 -3.90698 0
M  V30 3884 H 356.816 -0.682449 -3.9515 0
M  V30 3885 H 353.406 -2.09988 -3.73635 0
M  V30 3886 H 357.59 -3.06644 -3.90234 0
M  V30 3887 H 352.846 -4.4494 -4.19331 0
M  V30 3888 H 357.02 -5.42037 -4.37229 0
M  V30 3889 H 354.647 -6.11665 -4.51409 0
M  V30 3890 N 356.222 1.38976 -0.743202 0
M  V30 3891 C 357.132 2.3434 -0.110399 0
M  V30 3892 C 358.148 1.58741 0.712559 0
M  V30 3893 O 359.324 1.9099 0.639125 0
M  V30 3894 C 356.389 3.37812 0.780012 0
M  V30 3895 C 355.45 4.29263 -0.0561319 0
M  V30 3896 C 354.683 5.27793 0.791875 0
M  V30 3897 O 354.906 5.33043 2.03031 0
M  V30 3898 O 353.84 6.01512 0.216183 0
M  V30 3899 H 357.666 2.90129 -0.897714 0
M  V30 3900 H 355.251 1.40643 -0.503966 0
M  V30 3901 H 357.133 4.01194 1.28923 0
M  V30 3902 H 355.808 2.84395 1.546 0
M  V30 3903 H 354.715 3.69076 -0.611056 0
M  V30 3904 H 356.048 4.85907 -0.784531 0
M  V30 3905 N 357.7 0.491464 1.49741 0
M  V30 3906 C 358.63 -0.28154 2.31796 0
M  V30 3907 C 359.611 -0.971473 1.3963 0
M  V30 3908 O 360.796 -0.964719 1.68543 0
M  V30 3909 C 357.926 -1.35203 3.19902 0
M  V30 3910 C 356.88 -0.782529 4.20786 0
M  V30 3911 C 356.206 -1.95283 4.97764 0
M  V30 3912 C 357.506 0.21999 5.21837 0
M  V30 3913 H 359.2 0.403355 2.96671 0
M  V30 3914 H 356.746 0.195425 1.42668 0
M  V30 3915 H 358.699 -1.90045 3.76113 0
M  V30 3916 H 357.423 -2.06598 2.52953 0
M  V30 3917 H 356.082 -0.255928 3.65706 0
M  V30 3918 H 355.73 -2.65423 4.2727 0
M  V30 3919 H 355.43 -1.57789 5.66018 0
M  V30 3920 H 356.954 -2.50577 5.56816 0
M  V30 3921 H 358.368 -0.23996 5.72798 0
M  V30 3922 H 356.765 0.51026 5.97927 0
M  V30 3923 H 357.835 1.13911 4.7133 0
M  V30 3924 N 359.178 -1.55987 0.224894 0
M  V30 3925 C 360.108 -2.23426 -0.678457 0
M  V30 3926 C 361.089 -1.20709 -1.19847 0
M  V30 3927 O 362.274 -1.49304 -1.24186 0
M  V30 3928 C 359.404 -2.91676 -1.88527 0
M  V30 3929 C 358.358 -4.00893 -1.49896 0
M  V30 3930 C 357.684 -4.56455 -2.78483 0
M  V30 3931 C 358.984 -5.17769 -0.686461 0
M  V30 3932 H 360.678 -2.99175 -0.116173 0
M  V30 3933 H 358.224 -1.43897 -0.054436 0
M  V30 3934 H 360.177 -3.37547 -2.5227 0
M  V30 3935 H 358.901 -2.1338 -2.47258 0
M  V30 3936 H 357.56 -3.55758 -0.884985 0
M  V30 3937 H 357.208 -3.74886 -3.35365 0
M  V30 3938 H 356.908 -5.30169 -2.53368 0
M  V30 3939 H 358.432 -5.05047 -3.43162 0
M  V30 3940 H 359.846 -5.60001 -1.22767 0
M  V30 3941 H 358.243 -5.97735 -0.532259 0
M  V30 3942 H 359.313 -4.83932 0.306196 0
M  V30 3943 N 360.656 0.0484629 -1.57525 0
M  V30 3944 C 361.904 0.741657 -1.88 0
M  V30 3945 C 362.225 1.76918 -0.820054 0
M  V30 3946 O 361.495 1.95335 0.148661 0
M  V30 3947 H 360.075 0.276908 -0.69378 0
M  V30 3948 H 362.737 0.019013 -1.94891 0
M  V30 3949 H 361.833 1.24336 -2.86264 0
M  V30 3950 N 362.134 1.5431 0.320358 0
M  V30 3951 C 363.064 1.86912 1.3995 0
M  V30 3952 C 364.045 0.726211 1.53819 0
M  V30 3953 O 365.23 0.980233 1.67646 0
M  V30 3954 C 362.36 2.09932 2.7667 0
M  V30 3955 C 361.314 3.25776 2.77586 0
M  V30 3956 C 360.64 3.34173 4.17412 0
M  V30 3957 C 361.94 4.6335 2.41048 0
M  V30 3958 H 363.634 2.77292 1.12914 0
M  V30 3959 H 361.18 1.33421 0.541738 0
M  V30 3960 H 363.133 2.31324 3.52232 0
M  V30 3961 H 361.857 1.16304 3.0519 0
M  V30 3962 H 360.516 3.04276 2.04479 0
M  V30 3963 H 360.164 2.38098 4.43078 0
M  V30 3964 H 359.864 4.12033 4.18931 0
M  V30 3965 H 361.388 3.57803 4.94782 0
M  V30 3966 H 362.802 4.84602 3.06324 0
M  V30 3967 H 361.199 5.43782 2.53813 0
M  V30 3968 H 362.269 4.65381 1.36193 0
M  V30 3969 N 363.613 -0.582584 1.46437 0
M  V30 3970 C 364.838 -1.37168 1.55563 0
M  V30 3971 C 365.263 -1.87061 0.19743 0
M  V30 3972 O 364.621 -1.61572 -0.822451 0
M  V30 3973 C 364.669 -2.53511 2.56446 0
M  V30 3974 O 363.773 -3.54953 2.09958 0
M  V30 3975 H 363.114 -0.408494 0.523477 0
M  V30 3976 H 365.644 -0.706646 1.9201 0
M  V30 3977 H 365.654 -3.00426 2.76058 0
M  V30 3978 H 364.329 -2.16549 3.55076 0
M  V30 3979 H 362.906 -3.14516 2.00334 0
M  V30 3980 N 365.091 -1.34144 -0.827227 0
M  V30 3981 C 366.319 -1.29325 -1.61501 0
M  V30 3982 C 366.734 0.13354 -1.88327 0
M  V30 3983 O 366.091 1.0793 -1.47164 0
M  V30 3984 C 366.142 -2.07746 -2.95844 0
M  V30 3985 O 365.863 -3.4486 -2.70191 0
M  V30 3986 C 367.364 -2.10273 -3.90256 0
M  V30 3987 H 364.584 -0.445069 -0.50215 0
M  V30 3988 H 367.128 -1.76693 -1.02955 0
M  V30 3989 H 365.283 -1.6403 -3.5096 0
M  V30 3990 H 365.697 -3.85345 -3.55822 0
M  V30 3991 H 367.171 -2.69575 -4.81698 0
M  V30 3992 H 367.648 -1.096 -4.25305 0
M  V30 3993 H 368.254 -2.54059 -3.41078 0
M  V30 3994 N 366.569 1.04691 -1.17803 0
M  V30 3995 C 367.799 1.81183 -0.992788 0
M  V30 3996 C 368.207 1.8347 0.462098 0
M  V30 3997 O 367.55 1.2643 1.33271 0
M  V30 3998 C 367.612 3.28363 -1.46349 0
M  V30 3999 C 367.276 3.49749 -2.94151 0
M  V30 4000 C 368.273 3.41456 -3.92051 0
M  V30 4001 C 365.958 3.76548 -3.32441 0
M  V30 4002 C 367.952 3.59656 -5.26238 0
M  V30 4003 C 365.639 3.94396 -4.66792 0
M  V30 4004 C 366.637 3.8595 -5.635 0
M  V30 4005 O 366.325 4.03294 -6.9542 0
M  V30 4006 H 366.057 0.577622 -0.351182 0
M  V30 4007 H 368.611 1.32876 -1.5663 0
M  V30 4008 H 366.841 3.77609 -0.833574 0
M  V30 4009 H 368.53 3.86395 -1.24313 0
M  V30 4010 H 369.296 3.20723 -3.63815 0
M  V30 4011 H 365.175 3.82224 -2.57732 0
M  V30 4012 H 368.719 3.52979 -6.01707 0
M  V30 4013 H 364.616 4.14622 -4.94731 0
M  V30 4014 H 365.384 4.2049 -7.02232 0
M  V30 4015 N 368.047 0.979072 1.23499 0
M  V30 4016 C 369.324 0.563674 1.87302 0
M  V30 4017 C 369.704 -0.959199 1.88049 0
M  V30 4018 O 369.052 -1.83535 1.36114 0
M  V30 4019 C 369.262 1.16822 3.28867 0
M  V30 4020 C 370.61 1.26014 4.0547 0
M  V30 4021 O 371.634 1.12158 3.38082 0
M  V30 4022 O 370.493 1.48044 5.26066 0
M  V30 4023 H 367.587 0.189602 0.804972 0
M  V30 4024 H 370.133 1.07407 1.31384 0
M  V30 4025 H 368.905 2.21049 3.22883 0
M  V30 4026 H 368.528 0.642564 3.92373 0
M  V30 4027 N 369.525 -1.3858 0.750561 0
M  V30 4028 C 370.772 -2.00184 0.305373 0
M  V30 4029 C 371.1 -1.59575 -1.11203 0
M  V30 4030 O 370.355 -0.823236 -1.77542 0
M  V30 4031 C 370.654 -3.55455 0.372373 0
M  V30 4032 C 370.32 -4.15765 1.745 0
M  V30 4033 C 368.982 -4.31951 2.12065 0
M  V30 4034 C 371.334 -4.49067 2.64553 0
M  V30 4035 C 368.662 -4.78734 3.39162 0
M  V30 4036 C 371.014 -4.97265 3.91038 0
M  V30 4037 C 369.678 -5.11658 4.28676 0
M  V30 4038 H 368.948 -0.732526 0.111744 0
M  V30 4039 H 371.595 -1.65673 0.960451 0
M  V30 4040 H 369.9 -3.90084 -0.366272 0
M  V30 4041 H 371.597 -4.00999 0.00953918 0
M  V30 4042 H 368.187 -4.03579 1.44297 0
M  V30 4043 H 372.371 -4.36166 2.36796 0
M  V30 4044 H 367.627 -4.88062 3.68246 0
M  V30 4045 H 371.801 -5.22003 4.60962 0
M  V30 4046 H 369.428 -5.47668 5.27222 0
M  V30 4047 N 371.003 -0.499398 -1.49478 0
M  V30 4048 C 372.252 0.0475259 -2.01644 0
M  V30 4049 C 372.565 1.38195 -1.38425 0
M  V30 4050 O 373.771 2.01547 -1.8191 0
M  V30 4051 C 372.227 0.135164 -3.59646 0
M  V30 4052 C 371.835 -1.19252 -4.31837 0
M  V30 4053 C 373.579 0.632538 -4.19761 0
M  V30 4054 C 371.486 -1.06713 -5.81693 0
M  V30 4055 H 370.416 0.0215349 -0.753692 0
M  V30 4056 H 373.067 -0.638577 -1.7203 0
M  V30 4057 H 371.449 0.885681 -3.85969 0
M  V30 4058 H 372.623 -1.9562 -4.17216 0
M  V30 4059 H 370.938 -1.62321 -3.83459 0
M  V30 4060 H 373.535 0.743833 -5.29501 0
M  V30 4061 H 373.878 1.63098 -3.83021 0
M  V30 4062 H 374.411 -0.0613987 -3.97753 0
M  V30 4063 H 371.15 -2.03979 -6.22955 0
M  V30 4064 H 370.67 -0.344307 -5.98811 0
M  V30 4065 H 372.349 -0.745208 -6.42694 0
M  V30 4066 N 372.481 1.55866 -0.233164 0
M  V30 4067 C 373.428 2.20796 0.67215 0
M  V30 4068 C 374.398 1.16731 1.18166 0
M  V30 4069 O 375.583 1.45129 1.23864 0
M  V30 4070 C 372.723 2.90072 1.86955 0
M  V30 4071 C 371.836 4.08759 1.39786 0
M  V30 4072 C 370.971 4.65787 2.55374 0
M  V30 4073 C 370.01 5.76752 2.04998 0
M  V30 4074 N 369.147 6.28021 3.13901 0
M  V30 4075 H 373.987 2.9779 0.111749 0
M  V30 4076 H 371.524 1.47036 0.0434007 0
M  V30 4077 H 373.482 3.28428 2.57276 0
M  V30 4078 H 372.112 2.15575 2.40265 0
M  V30 4079 H 371.164 3.7581 0.589173 0
M  V30 4080 H 372.476 4.88906 0.98856 0
M  V30 4081 H 371.63 5.06646 3.33758 0
M  V30 4082 H 370.369 3.84828 2.99598 0
M  V30 4083 H 369.374 5.35383 1.25079 0
M  V30 4084 H 370.599 6.59553 1.61759 0
M  V30 4085 H 368.545 5.49971 3.57586 0
M  V30 4086 H 368.462 7.03323 2.7726 0
M  V30 4087 H 369.73 6.73538 3.92386 0
M  V30 4088 N 373.959 -0.0401083 1.57549 0
M  V30 4089 C 374.869 -1.06133 2.0922 0
M  V30 4090 C 375.885 -1.40356 1.0284 0
M  V30 4091 O 377.061 -1.49897 1.34509 0
M  V30 4092 C 374.126 -2.34658 2.55218 0
M  V30 4093 C 373.187 -2.07117 3.76033 0
M  V30 4094 C 372.42 -3.29514 4.19829 0
M  V30 4095 O 372.643 -4.39794 3.63232 0
M  V30 4096 O 371.577 -3.15863 5.12362 0
M  V30 4097 H 375.403 -0.652244 2.96613 0
M  V30 4098 H 372.988 -0.256368 1.47184 0
M  V30 4099 H 374.87 -3.10239 2.85184 0
M  V30 4100 H 373.545 -2.74883 1.70941 0
M  V30 4101 H 372.452 -1.29139 3.51104 0
M  V30 4102 H 373.785 -1.71754 4.61261 0
M  V30 4103 N 375.437 -1.54477 -0.31217 0
M  V30 4104 C 376.385 -1.85395 -1.40469 0
M  V30 4105 C 377.379 -0.726749 -1.53019 0
M  V30 4106 O 378.585 -0.910582 -1.55269 0
M  V30 4107 H 374.96 -0.587845 -0.46898 0
M  V30 4108 H 376.931 -2.76736 -1.11623 0
M  V30 4109 C 375.68 -2.10811 -2.76503 0
M  V30 4110 H 375.003 -2.97014 -2.67625 0
M  V30 4111 H 376.443 -2.3639 -3.51988 0
M  V30 4112 C 374.902 -0.903165 -3.24568 0
M  V30 4113 O 375.432 -0.118085 -4.01526 0
M  V30 4114 N 373.638 -0.711634 -2.81752 0
M  V30 4115 H 373.185 -1.35171 -2.19286 0
M  V30 4116 H 373.143 0.0930473 -3.14262 0
M  V30 4117 N 376.915 0.57481 -1.46744 0
M  V30 4118 C 378.163 1.33009 -1.52161 0
M  V30 4119 C 378.484 1.94185 -0.178092 0
M  V30 4120 O 377.754 1.7899 0.796196 0
M  V30 4121 H 376.334 0.493873 -0.560445 0
M  V30 4122 H 378.996 0.672589 -1.82927 0
M  V30 4123 H 378.092 2.13273 -2.27862 0
M  V30 4124 N 378.394 1.34581 0.820102 0
M  V30 4125 C 379.641 1.27096 1.57648 0
M  V30 4126 C 379.969 -0.158317 1.93855 0
M  V30 4127 O 379.224 -1.12028 1.60463 0
M  V30 4128 C 379.523 2.10997 2.8847 0
M  V30 4129 C 379.189 3.59966 2.71543 0
M  V30 4130 C 377.851 4.00575 2.66634 0
M  V30 4131 C 380.203 4.54548 2.55021 0
M  V30 4132 C 377.531 5.33953 2.43128 0
M  V30 4133 C 379.883 5.88109 2.33047 0
M  V30 4134 C 378.547 6.27878 2.26552 0
M  V30 4135 H 377.817 0.465078 0.576874 0
M  V30 4136 H 380.464 1.6635 0.948671 0
M  V30 4137 H 378.769 1.6458 3.55557 0
M  V30 4138 H 380.466 2.0255 3.46084 0
M  V30 4139 H 377.056 3.27733 2.76205 0
M  V30 4140 H 381.24 4.24069 2.57835 0
M  V30 4141 H 376.496 5.63781 2.3656 0
M  V30 4142 H 380.67 6.60985 2.19251 0
M  V30 4143 H 378.297 7.31162 2.081 0
M  V30 4144 N 379.872 -1.04064 1.18357 0
M  V30 4145 C 380.802 -2.14001 0.934113 0
M  V30 4146 C 381.783 -1.69616 -0.128186 0
M  V30 4147 O 382.968 -1.94185 0.0244093 0
M  V30 4148 C 380.098 -3.44253 0.459066 0
M  V30 4149 C 379.052 -4.02261 1.46185 0
M  V30 4150 C 378.378 -5.27992 0.844322 0
M  V30 4151 C 379.678 -4.38432 2.83856 0
M  V30 4152 H 381.372 -2.35127 1.85352 0
M  V30 4153 H 378.918 -1.12998 0.892604 0
M  V30 4154 H 380.871 -4.20522 0.271907 0
M  V30 4155 H 379.595 -3.22813 -0.495912 0
M  V30 4156 H 378.254 -3.28074 1.63595 0
M  V30 4157 H 377.902 -5.02862 -0.117845 0
M  V30 4158 H 377.602 -5.67765 1.51384 0
M  V30 4159 H 379.126 -6.06938 0.667693 0
M  V30 4160 H 380.54 -5.05688 2.70098 0
M  V30 4161 H 378.937 -4.89254 3.47491 0
M  V30 4162 H 380.007 -3.4826 3.37406 0
M  V30 4163 N 381.35 -0.985608 -1.22978 0
M  V30 4164 C 382.761 -0.693593 -1.73338 0
M  V30 4165 C 383.112 0.789935 -1.79595 0
M  V30 4166 O 382.237 1.61771 -1.43733 0
M  V30 4167 C 382.832 -1.25235 -3.14804 0
M  V30 4168 C 381.391 -1.00987 -3.626 0
M  V30 4169 C 380.538 -1.37695 -2.40698 0
M  V30 4170 H 383.489 -1.15884 -1.08428 0
M  V30 4171 H 383.51 -0.627329 -3.75293 0
M  V30 4172 H 383.022 -2.33209 -3.10218 0
M  V30 4173 H 381.123 0.0535565 -3.72562 0
M  V30 4174 H 381.236 -1.66812 -4.49122 0
M  V30 4175 H 379.6 -0.795459 -2.4196 0
M  V30 4176 H 380.383 -2.46657 -2.38779 0
M  V30 4177 N 382.828 1.3818 -0.7579 0
M  V30 4178 C 384.075 2.00019 -0.315985 0
M  V30 4179 C 384.403 1.60163 1.10355 0
M  V30 4180 O 383.658 0.83264 1.77103 0
M  V30 4181 C 383.957 3.55252 -0.391218 0
M  V30 4182 C 383.623 4.14834 -1.76702 0
M  V30 4183 C 382.285 4.30821 -2.14353 0
M  V30 4184 C 384.637 4.47658 -2.66931 0
M  V30 4185 C 381.965 4.76928 -3.41696 0
M  V30 4186 C 384.317 4.95184 -3.93669 0
M  V30 4187 C 382.981 5.09377 -4.31383 0
M  V30 4188 H 382.251 0.731923 -0.115627 0
M  V30 4189 H 384.898 1.65161 -0.969223 0
M  V30 4190 H 383.203 3.90273 0.34558 0
M  V30 4191 H 384.9 4.00988 -0.030805 0
M  V30 4192 H 381.49 4.02808 -1.46435 0
M  V30 4193 H 385.674 4.34904 -2.39106 0
M  V30 4194 H 380.93 4.86103 -3.70829 0
M  V30 4195 H 385.104 5.19551 -4.63724 0
M  V30 4196 H 382.731 5.44865 -5.30119 0
M  V30 4197 N 384.306 0.507319 1.49211 0
M  V30 4198 C 385.722 0.163682 1.58758 0
M  V30 4199 C 385.922 -1.33208 1.51188 0
M  V30 4200 O 384.978 -2.10855 1.38911 0
M  V30 4201 C 386.291 0.746095 2.91297 0
M  V30 4202 C 387.839 0.712773 3.04776 0
M  V30 4203 C 388.314 1.27336 4.39943 0
M  V30 4204 N 389.805 1.23433 4.46451 0
M  V30 4205 C 390.54 1.63821 5.495 0
M  V30 4206 N 390.036 2.11832 6.5962 0
M  V30 4207 N 391.829 1.55198 5.4025 0
M  V30 4208 H 383.98 1.47972 1.52375 0
M  V30 4209 H 386.243 0.614147 0.722168 0
M  V30 4210 H 385.949 1.79534 3.02424 0
M  V30 4211 H 385.823 0.210137 3.76614 0
M  V30 4212 H 388.21 -0.327656 2.93275 0
M  V30 4213 H 388.291 1.28595 2.21127 0
M  V30 4214 H 387.935 2.3126 4.52196 0
M  V30 4215 H 387.865 0.676066 5.22242 0
M  V30 4216 H 390.356 0.882627 3.67448 0
M  V30 4217 H 390.669 2.40703 7.34358 0
M  V30 4218 H 389.014 2.1581 6.60644 0
M  V30 4219 H 392.205 1.17505 4.53112 0
M  V30 4220 H 392.378 1.86997 6.20432 0
M  V30 4221 N 385.784 -1.5574 0.241426 0
M  V30 4222 C 386.714 -2.24133 -0.654722 0
M  V30 4223 C 387.695 -1.21974 -1.1856 0
M  V30 4224 O 388.88 -1.50612 -1.22595 0
M  V30 4225 C 386.01 -2.93659 -1.85423 0
M  V30 4226 C 384.964 -4.0246 -1.45636 0
M  V30 4227 C 384.29 -4.59383 -2.73626 0
M  V30 4228 C 385.59 -5.18468 -0.631506 0
M  V30 4229 H 387.284 -2.99281 -0.0844353 0
M  V30 4230 H 384.83 -1.43947 -0.0391707 0
M  V30 4231 H 386.783 -3.40203 -2.48676 0
M  V30 4232 H 385.507 -2.15991 -2.44981 0
M  V30 4233 H 384.166 -3.56676 -0.847202 0
M  V30 4234 H 383.814 -3.78422 -3.3137 0
M  V30 4235 H 383.514 -5.32826 -2.4773 0
M  V30 4236 H 385.038 -5.08658 -3.37786 0
M  V30 4237 H 386.452 -5.61272 -1.1682 0
M  V30 4238 H 384.849 -5.98266 -0.468831 0
M  V30 4239 H 385.919 -4.8358 0.357506 0
M  V30 4240 N 387.262 0.0317525 -1.57568 0
M  V30 4241 C 388.539 0.758366 -1.803 0
M  V30 4242 C 388.919 1.93718 -0.838845 0
M  V30 4243 O 388.267 2.28187 0.119571 0
M  V30 4244 C 388.477 1.19392 -3.27943 0
M  V30 4245 C 389.825 1.61094 -3.92854 0
M  V30 4246 O 390.849 1.28857 -3.32076 0
M  V30 4247 O 389.708 2.20918 -4.99858 0
M  V30 4248 H 386.802 0.366514 -0.741348 0
M  V30 4249 H 389.348 0.00873765 -1.69698 0
M  V30 4250 H 388.12 0.352275 -3.89711 0
M  V30 4251 H 387.743 2.00365 -3.43424 0
M  V30 4252 N 388.74 1.54641 0.303973 0
M  V30 4253 C 389.69 1.8177 1.37636 0
M  V30 4254 C 390.674 0.674697 1.46071 0
M  V30 4255 O 391.866 0.935251 1.50273 0
M  V30 4256 C 388.995 2.06584 2.74186 0
M  V30 4257 C 388.081 3.2706 2.69986 0
M  V30 4258 N 388.472 4.47682 2.35402 0
M  V30 4259 C 386.77 3.29028 3.01092 0
M  V30 4260 C 387.471 5.29689 2.40426 0
M  V30 4261 N 386.447 4.67339 2.7766 0
M  V30 4262 H 390.249 2.72596 1.09857 0
M  V30 4263 H 387.763 1.541 0.51254 0
M  V30 4264 H 389.76 2.24166 3.51504 0
M  V30 4265 H 388.42 1.17024 3.02879 0
M  V30 4266 H 389.431 4.74336 2.07908 0
M  V30 4267 H 386.108 2.49565 3.34699 0
M  V30 4268 H 387.498 6.3606 2.16512 0
M  V30 4269 N 390.218 -0.567019 1.47046 0
M  V30 4270 C 391.467 -1.32091 1.5243 0
M  V30 4271 C 391.78 -1.94704 0.187021 0
M  V30 4272 O 392.986 -2.7124 0.118771 0
M  V30 4273 C 391.442 -2.39479 2.68659 0
M  V30 4274 C 391.05 -1.831 4.08874 0
M  V30 4275 C 392.794 -3.16111 2.83327 0
M  V30 4276 C 390.701 -2.8821 5.16419 0
M  V30 4277 H 389.631 -0.496629 0.56734 0
M  V30 4278 H 392.282 -0.603354 1.73297 0
M  V30 4279 H 390.664 -3.14105 2.41152 0
M  V30 4280 H 391.838 -1.14913 4.46242 0
M  V30 4281 H 390.153 -1.19085 3.99008 0
M  V30 4282 H 392.75 -3.94585 3.60842 0
M  V30 4283 H 393.093 -3.69686 1.91411 0
M  V30 4284 H 393.626 -2.48595 3.10556 0
M  V30 4285 H 390.365 -2.39504 6.10179 0
M  V30 4286 H 389.885 -3.54839 4.8358 0
M  V30 4287 H 391.564 -3.51881 5.42945 0
M  V30 4288 N 391.696 -1.35014 -0.812953 0
M  V30 4289 C 393.112 -1.14914 -1.10757 0
M  V30 4290 C 393.312 0.0426818 -2.01455 0
M  V30 4291 O 392.368 0.715212 -2.42159 0
M  V30 4292 C 393.681 -2.44911 -1.74468 0
M  V30 4293 C 395.229 -2.5106 -1.86917 0
M  V30 4294 C 395.704 -3.81085 -2.54044 0
M  V30 4295 N 397.195 -3.82301 -2.61535 0
M  V30 4296 C 397.93 -4.79634 -3.14227 0
M  V30 4297 N 397.426 -5.87353 -3.67407 0
M  V30 4298 N 399.219 -4.67078 -3.12721 0
M  V30 4299 H 391.37 -2.1136 -0.20989 0
M  V30 4300 H 393.633 -0.935128 -0.155692 0
M  V30 4301 H 393.339 -3.32267 -1.15289 0
M  V30 4302 H 393.213 -2.58989 -2.74234 0
M  V30 4303 H 395.6 -1.64137 -2.45241 0
M  V30 4304 H 395.681 -2.40901 -0.860242 0
M  V30 4305 H 395.325 -4.68402 -1.96372 0
M  V30 4306 H 395.255 -3.88529 -3.55461 0
M  V30 4307 H 397.746 -3.04465 -2.23851 0
M  V30 4308 H 398.059 -6.57624 -4.05894 0
M  V30 4309 H 396.404 -5.91054 -3.65623 0
M  V30 4310 H 399.595 -3.82067 -2.70449 0
M  V30 4311 H 399.768 -5.43098 -3.53481 0
M  V30 4312 N 393.175 1.03435 -1.18907 0
M  V30 4313 C 394.122 2.11591 -0.921837 0
M  V30 4314 C 395.092 1.65499 0.141226 0
M  V30 4315 O 396.277 1.908 0.000242829 0
M  V30 4316 C 393.417 3.42012 -0.460616 0
M  V30 4317 C 392.53 4.01682 -1.58982 0
M  V30 4318 C 391.665 5.20091 -1.08069 0
M  V30 4319 C 390.704 5.71805 -2.18416 0
M  V30 4320 N 389.841 6.81494 -1.68849 0
M  V30 4321 H 394.681 2.33787 -1.8479 0
M  V30 4322 H 392.218 1.1467 -0.921373 0
M  V30 4323 H 394.176 4.16834 -0.174642 0
M  V30 4324 H 392.806 3.19944 0.428467 0
M  V30 4325 H 391.858 3.24127 -1.99113 0
M  V30 4326 H 393.17 4.36084 -2.4214 0
M  V30 4327 H 392.324 6.02051 -0.749615 0
M  V30 4328 H 391.063 4.87209 -0.218771 0
M  V30 4329 H 390.068 4.88461 -2.5236 0
M  V30 4330 H 391.293 6.06728 -3.05054 0
M  V30 4331 H 389.239 6.50475 -0.849572 0
M  V30 4332 H 389.156 7.14994 -2.45601 0
M  V30 4333 H 390.424 7.67063 -1.38689 0
M  V30 4334 N 394.653 0.992116 1.22453 0
M  V30 4335 C 395.586 0.486701 2.22949 0
M  V30 4336 C 396.564 -0.45259 1.56174 0
M  V30 4337 O 397.748 -0.378317 1.84665 0
M  V30 4338 C 394.875 -0.294537 3.37417 0
M  V30 4339 C 393.921 0.590628 4.22391 0
M  V30 4340 S 394.754 2.04546 4.94895 0
M  V30 4341 C 395.91 1.27369 6.12803 0
M  V30 4342 H 396.143 1.33828 2.65475 0
M  V30 4343 H 393.676 0.799023 1.32117 0
M  V30 4344 H 395.634 -0.739241 4.03789 0
M  V30 4345 H 394.295 -1.12139 2.934 0
M  V30 4346 H 393.488 -0.0104375 5.03999 0
M  V30 4347 H 393.09 0.972064 3.61147 0
M  V30 4348 H 395.382 0.540943 6.75337 0
M  V30 4349 H 396.325 2.06502 6.7732 0
M  V30 4350 H 396.733 0.787324 5.58983 0
M  V30 4351 N 396.131 -1.37776 0.765217 0
M  V30 4352 C 397.094 -2.28686 0.153416 0
M  V30 4353 C 398.094 -1.47727 -0.635081 0
M  V30 4354 O 399.284 -1.68027 -0.459632 0
M  V30 4355 C 396.416 -3.31608 -0.790495 0
M  V30 4356 H 397.609 -2.84297 0.954723 0
M  V30 4357 H 395.162 -1.46932 0.53299 0
M  V30 4358 H 395.897 -2.81109 -1.61705 0
M  V30 4359 H 395.682 -3.9144 -0.227348 0
M  V30 4360 H 397.172 -3.99559 -1.21419 0
M  V30 4361 N 397.609 -0.515225 -1.4894 0
M  V30 4362 C 398.839 0.0205735 -2.0659 0
M  V30 4363 C 399.247 1.30064 -1.37405 0
M  V30 4364 O 398.59 1.78087 -0.450632 0
M  V30 4365 C 398.652 0.330124 -3.57981 0
M  V30 4366 C 398.316 -0.854295 -4.48944 0
M  V30 4367 C 399.313 -1.7487 -4.89609 0
M  V30 4368 C 396.998 -1.05712 -4.9105 0
M  V30 4369 C 398.992 -2.82996 -5.71132 0
M  V30 4370 C 396.679 -2.14154 -5.72347 0
M  V30 4371 C 397.677 -3.0263 -6.12294 0
M  V30 4372 O 397.365 -4.09198 -6.91962 0
M  V30 4373 H 397.097 -0.0236833 -0.675585 0
M  V30 4374 H 399.651 -0.715956 -1.92518 0
M  V30 4375 H 397.881 1.12044 -3.70112 0
M  V30 4376 H 399.57 0.806233 -3.97812 0
M  V30 4377 H 400.336 -1.60388 -4.57712 0
M  V30 4378 H 396.215 -0.377788 -4.59449 0
M  V30 4379 H 399.759 -3.52083 -6.02232 0
M  V30 4380 H 395.656 -2.28626 -6.03656 0
M  V30 4381 H 396.424 -4.06726 -7.10293 0
M  V30 4382 N 399.087 1.5561 -0.249682 0
M  V30 4383 C 400.019 2.18834 0.681496 0
M  V30 4384 C 401.032 1.16546 1.1367 0
M  V30 4385 O 402.221 1.43397 1.06299 0
M  V30 4386 C 399.321 2.77992 1.9384 0
M  V30 4387 C 398.494 4.05725 1.63419 0
M  V30 4388 C 397.553 4.49174 2.74096 0
M  V30 4389 O 396.579 5.15492 2.41364 0
M  V30 4390 N 397.781 4.17191 4.03649 0
M  V30 4391 H 400.546 2.9937 0.140514 0
M  V30 4392 H 398.107 1.6175 -0.0697541 0
M  V30 4393 H 400.099 3.04015 2.67127 0
M  V30 4394 H 398.669 2.01596 2.38909 0
M  V30 4395 H 397.889 3.87261 0.736358 0
M  V30 4396 H 399.177 4.88999 1.40562 0
M  V30 4397 H 398.575 3.63955 4.33074 0
M  V30 4398 H 397.132 4.48043 4.73393 0
M  V30 4399 N 400.565 -0.0233959 1.57583 0
M  V30 4400 C 401.814 -0.712133 1.8871 0
M  V30 4401 C 402.127 -1.76217 0.848944 0
M  V30 4402 O 403.333 -2.50389 1.04964 0
M  V30 4403 C 401.789 -1.3177 3.3491 0
M  V30 4404 C 401.397 -0.303715 4.46969 0
M  V30 4405 C 403.141 -1.98598 3.75179 0
M  V30 4406 C 401.048 -0.917945 5.84233 0
M  V30 4407 H 399.978 -0.269735 0.704101 0
M  V30 4408 H 402.629 0.0333114 1.8347 0
M  V30 4409 H 401.011 -2.11304 3.34913 0
M  V30 4410 H 402.185 0.465325 4.58445 0
M  V30 4411 H 400.5 0.2628 4.1557 0
M  V30 4412 H 403.097 -2.45416 4.75053 0
M  V30 4413 H 403.44 -2.80659 3.07468 0
M  V30 4414 H 403.973 -1.25831 3.77374 0
M  V30 4415 H 400.712 -0.136633 6.55358 0
M  V30 4416 H 400.232 -1.65669 5.76467 0
M  V30 4417 H 401.911 -1.4236 6.31144 0
M  V30 4418 N 402.043 -1.548 -0.295768 0
M  V30 4419 C 403.283 -1.76069 -1.03823 0
M  V30 4420 C 403.647 -0.537992 -1.84309 0
M  V30 4421 O 404.848 -0.628514 -2.61349 0
M  V30 4422 C 403.119 -3.01705 -1.91596 0
M  V30 4423 S 404.678 -3.43998 -2.72416 0
M  V30 4424 H 401.496 -0.618852 -0.350062 0
M  V30 4425 H 404.098 -1.93009 -0.31106 0
M  V30 4426 H 402.802 -3.88812 -1.31351 0
M  V30 4427 H 402.333 -2.87366 -2.68671 0
M  V30 4428 H 404.348 -3.0148 -3.94112 0
M  V30 4429 N 403.521 0.559213 -1.47345 0
M  V30 4430 C 404.468 1.66645 -1.59682 0
M  V30 4431 C 405.438 1.60168 -0.43994 0
M  V30 4432 O 406.623 1.79031 -0.659736 0
M  V30 4433 C 403.763 3.04969 -1.61518 0
M  V30 4434 C 402.876 3.21897 -2.88108 0
M  V30 4435 C 402.011 4.50608 -2.81294 0
M  V30 4436 C 401.05 4.60961 -4.02717 0
M  V30 4437 N 400.187 5.81024 -3.94151 0
M  V30 4438 H 405.027 1.55439 -2.54249 0
M  V30 4439 H 402.564 0.757219 -1.26113 0
M  V30 4440 H 404.522 3.85064 -1.60566 0
M  V30 4441 H 403.152 3.15015 -0.704645 0
M  V30 4442 H 402.204 2.35248 -2.98936 0
M  V30 4443 H 403.516 3.25412 -3.78032 0
M  V30 4444 H 402.67 5.3896 -2.7858 0
M  V30 4445 H 401.409 4.49568 -1.89049 0
M  V30 4446 H 400.414 3.71021 -4.05738 0
M  V30 4447 H 401.639 4.63761 -4.96087 0
M  V30 4448 H 399.585 5.80938 -3.04708 0
M  V30 4449 H 399.502 5.85909 -4.77752 0
M  V30 4450 H 400.77 6.71744 -3.9545 0
M  V30 4451 N 404.999 1.35443 0.805782 0
M  V30 4452 C 406.224 1.32037 1.59941 0
M  V30 4453 C 406.649 -0.0994215 1.87837 0
M  V30 4454 O 406.007 -1.06648 1.46615 0
M  V30 4455 C 406.055 2.13354 2.90711 0
M  V30 4456 O 405.159 1.5148 3.83572 0
M  V30 4457 H 404.5 0.452666 0.485787 0
M  V30 4458 H 407.03 1.78496 1.00002 0
M  V30 4459 H 407.04 2.25338 3.40128 0
M  V30 4460 H 405.715 3.16572 2.69732 0
M  V30 4461 H 404.292 1.4834 3.42125 0
M  V30 4462 N 406.477 -1.02803 1.19454 0
M  V30 4463 C 407.723 -1.76478 0.999171 0
M  V30 4464 C 408.056 -1.88456 -0.468828 0
M  V30 4465 O 407.331 -1.40198 -1.34814 0
M  V30 4466 C 407.614 -3.19044 1.66981 0
M  V30 4467 C 407.467 -3.14932 3.21151 0
M  V30 4468 C 408.786 -4.17456 1.39349 0
M  V30 4469 H 405.905 -0.640614 0.364393 0
M  V30 4470 H 408.547 -1.20005 1.47305 0
M  V30 4471 H 406.697 -3.67263 1.2669 0
M  V30 4472 H 408.369 -2.74605 3.70661 0
M  V30 4473 H 406.612 -2.52625 3.52652 0
M  V30 4474 H 407.283 -4.1566 3.63223 0
M  V30 4475 H 409.759 -3.77842 1.74283 0
M  V30 4476 H 408.635 -5.154 1.88823 0
M  V30 4477 H 408.896 -4.40949 0.318813 0
M  V30 4478 N 407.956 -0.998596 -1.21925 0
M  V30 4479 C 408.904 -0.546641 -2.26085 0
M  V30 4480 C 409.898 0.405576 -1.64473 0
M  V30 4481 O 411.104 0.277471 -1.77849 0
M  V30 4482 H 407.479 -0.158403 -0.735127 0
M  V30 4483 H 409.45 -1.43645 -2.61551 0
M  V30 4484 C 408.199 0.117388 -3.47502 0
M  V30 4485 H 407.522 -0.606277 -3.95176 0
M  V30 4486 H 408.962 0.396993 -4.22137 0
M  V30 4487 C 407.421 1.35455 -3.0847 0
M  V30 4488 O 407.951 2.44944 -3.18379 0
M  V30 4489 N 406.157 1.23191 -2.63196 0
M  V30 4490 H 405.704 0.341006 -2.55333 0
M  V30 4491 H 405.662 2.06071 -2.37449 0
M  V30 4492 N 409.434 1.37368 -0.772513 0
M  V30 4493 C 410.681 1.99673 -0.337182 0
M  V30 4494 C 411.009 1.61324 1.0865 0
M  V30 4495 O 410.264 0.851377 1.7621 0
M  V30 4496 C 410.563 3.54817 -0.428876 0
M  V30 4497 C 410.229 4.12936 -1.81092 0
M  V30 4498 C 408.891 4.28523 -2.1891 0
M  V30 4499 C 411.243 4.44801 -2.71664 0
M  V30 4500 C 408.571 4.73277 -3.46735 0
M  V30 4501 C 410.923 4.90981 -3.98899 0
M  V30 4502 C 409.587 5.04773 -4.36761 0
M  V30 4503 H 408.857 0.730656 -0.123384 0
M  V30 4504 H 411.504 1.64124 -0.986686 0
M  V30 4505 H 409.809 3.90618 0.304167 0
M  V30 4506 H 411.506 4.00933 -0.0733334 0
M  V30 4507 H 408.096 4.01233 -1.50699 0
M  V30 4508 H 412.28 4.32344 -2.43706 0
M  V30 4509 H 407.536 4.82142 -3.75964 0
M  V30 4510 H 411.71 5.14603 -4.69208 0
M  V30 4511 H 409.337 5.39211 -5.35868 0
M  V30 4512 N 410.912 0.523116 1.48665 0
M  V30 4513 C 411.842 -0.23231 2.32342 0
M  V30 4514 C 412.823 -0.941637 1.41659 0
M  V30 4515 O 414.008 -0.928751 1.70552 0
M  V30 4516 C 411.138 -1.28387 3.22698 0
M  V30 4517 C 410.092 -0.693098 4.22351 0
M  V30 4518 C 409.418 -1.8468 5.01794 0
M  V30 4519 C 410.718 0.33063 5.21252 0
M  V30 4520 H 412.412 0.466192 2.95748 0
M  V30 4521 H 409.958 0.225643 1.42221 0
M  V30 4522 H 411.911 -1.82024 3.80059 0
M  V30 4523 H 410.635 -2.01186 2.57278 0
M  V30 4524 H 409.294 -0.178299 3.66166 0
M  V30 4525 H 408.942 -2.56301 4.32804 0
M  V30 4526 H 408.642 -1.45747 5.69238 0
M  V30 4527 H 410.166 -2.38709 5.62006 0
M  V30 4528 H 411.58 -0.118407 5.73178 0
M  V30 4529 H 409.977 0.636974 5.9671 0
M  V30 4530 H 411.047 1.23883 4.68808 0
M  V30 4531 N 412.39 -1.55475 0.257931 0
M  V30 4532 C 413.34 -2.18506 -0.651094 0
M  V30 4533 C 414.324 -1.14431 -1.13112 0
M  V30 4534 O 415.516 -1.40305 -1.07905 0
M  V30 4535 C 412.645 -2.89653 -1.84272 0
M  V30 4536 C 411.731 -4.00996 -1.38068 0
M  V30 4537 N 412.122 -5.01816 -0.633609 0
M  V30 4538 C 410.42 -4.13753 -1.66506 0
M  V30 4539 C 411.121 -5.80371 -0.392922 0
M  V30 4540 N 410.097 -5.3505 -0.960359 0
M  V30 4541 H 413.899 -2.93811 -0.0722883 0
M  V30 4542 H 411.413 -1.62286 0.0607256 0
M  V30 4543 H 413.41 -3.33245 -2.50506 0
M  V30 4544 H 412.07 -2.15854 -2.42564 0
M  V30 4545 H 413.081 -5.17128 -0.282626 0
M  V30 4546 H 409.758 -3.51133 -2.25858 0
M  V30 4547 H 411.148 -6.7159 0.204235 0
M  V30 4548 N 413.868 0.0150385 -1.57593 0
M  V30 4549 C 415.093 0.718067 -1.94573 0
M  V30 4550 C 415.518 1.6734 -0.859005 0
M  V30 4551 O 414.876 1.80362 0.184147 0
M  V30 4552 C 414.924 1.43918 -3.30636 0
M  V30 4553 O 414.028 2.55299 -3.23876 0
M  V30 4554 H 413.369 0.192125 -0.635597 0
M  V30 4555 H 415.899 -0.0336708 -2.04572 0
M  V30 4556 H 415.909 1.80598 -3.65853 0
M  V30 4557 H 414.584 0.738619 -4.09289 0
M  V30 4558 H 413.161 2.21058 -3.00312 0
M  V30 4559 N 415.346 1.54954 0.287554 0
M  V30 4560 C 416.294 1.87606 1.37502 0
M  V30 4561 C 417.288 0.751001 1.51843 0
M  V30 4562 O 418.494 0.935169 1.53801 0
M  V30 4563 H 414.869 0.595231 0.459569 0
M  V30 4564 H 416.84 2.78477 1.07206 0
M  V30 4565 C 415.589 2.15183 2.73115 0
M  V30 4566 H 414.912 3.01234 2.62866 0
M  V30 4567 H 416.352 2.4196 3.48183 0
M  V30 4568 C 414.811 0.954686 3.2309 0
M  V30 4569 O 415.341 0.181949 4.01288 0
M  V30 4570 N 413.547 0.756368 2.80584 0
M  V30 4571 H 413.094 1.38643 2.17108 0
M  V30 4572 H 413.052 -0.0430391 3.14371 0
M  V30 4573 N 416.824 -0.551391 1.4764 0
M  V30 4574 C 417.771 -1.65796 1.60563 0
M  V30 4575 C 418.741 -1.59932 0.448428 0
M  V30 4576 O 419.926 -1.78679 0.669222 0
M  V30 4577 C 417.066 -3.04108 1.63133 0
M  V30 4578 C 416.179 -3.20365 2.89811 0
M  V30 4579 C 415.314 -4.49109 2.8368 0
M  V30 4580 C 414.353 -4.58819 4.05156 0
M  V30 4581 N 413.49 -5.78926 3.97227 0
M  V30 4582 H 418.33 -1.54088 2.5507 0
M  V30 4583 H 415.867 -0.75052 1.26513 0
M  V30 4584 H 417.825 -3.84207 1.62606 0
M  V30 4585 H 416.455 -3.14637 0.721341 0
M  V30 4586 H 415.507 -2.33659 3.00179 0
M  V30 4587 H 416.819 -3.23402 3.79753 0
M  V30 4588 H 415.973 -5.37475 2.81434 0
M  V30 4589 H 414.712 -4.4856 1.91431 0
M  V30 4590 H 413.717 -3.68864 4.077 0
M  V30 4591 H 414.942 -4.61124 4.98539 0
M  V30 4592 H 412.888 -5.79314 3.07785 0
M  V30 4593 H 412.805 -5.83367 4.80853 0
M  V30 4594 H 414.073 -6.69637 3.99007 0
M  V30 4595 N 418.302 -1.35869 -0.798587 0
M  V30 4596 C 419.232 -1.32118 -1.92528 0
M  V30 4597 C 420.213 -0.194209 -1.68988 0
M  V30 4598 O 421.398 -0.390426 -1.90235 0
M  V30 4599 C 418.528 -1.10047 -3.29404 0
M  V30 4600 C 417.482 -2.19471 -3.67446 0
M  V30 4601 C 416.808 -1.82555 -5.02571 0
M  V30 4602 C 418.108 -3.61495 -3.76987 0
M  V30 4603 H 419.802 -2.26394 -1.95924 0
M  V30 4604 H 417.348 -1.08981 -0.94123 0
M  V30 4605 H 419.301 -1.06061 -4.07835 0
M  V30 4606 H 418.025 -0.122195 -3.26371 0
M  V30 4607 H 416.684 -2.22568 -2.91306 0
M  V30 4608 H 416.332 -0.833249 -4.9605 0
M  V30 4609 H 416.032 -2.5581 -5.28995 0
M  V30 4610 H 417.556 -1.80108 -5.83432 0
M  V30 4611 H 418.97 -3.60676 -4.4563 0
M  V30 4612 H 417.367 -4.33577 -4.14887 0
M  V30 4613 H 418.437 -3.97065 -2.78329 0
M  V30 4614 N 419.78 1.02168 -1.19998 0
M  V30 4615 C 421.008 1.79296 -1.03249 0
M  V30 4616 C 421.423 1.84103 0.418502 0
M  V30 4617 O 420.78 1.29031 1.29063 0
M  V30 4618 C 420.831 3.24007 -1.60319 0
M  V30 4619 O 420.552 3.19512 -2.99739 0
M  V30 4620 C 422.053 4.17704 -1.48453 0
M  V30 4621 H 419.273 0.564016 -0.363493 0
M  V30 4622 H 421.817 1.28639 -1.58973 0
M  V30 4623 H 419.972 3.7183 -1.08727 0
M  V30 4624 H 420.386 4.10306 -3.26725 0
M  V30 4625 H 421.86 5.17104 -1.93153 0
M  V30 4626 H 422.337 4.37029 -0.436193 0
M  V30 4627 H 422.943 3.7576 -1.99211 0
M  V30 4628 N 421.258 1.00505 1.21394 0
M  V30 4629 C 422.208 0.536503 2.21598 0
M  V30 4630 C 423.192 -0.401914 1.55799 0
M  V30 4631 O 424.384 -0.226757 1.75541 0
M  V30 4632 C 421.513 -0.135446 3.43033 0
M  V30 4633 C 420.599 0.823992 4.16018 0
M  V30 4634 N 420.99 1.97683 4.6557 0
M  V30 4635 C 419.288 0.642387 4.4135 0
M  V30 4636 C 419.989 2.58003 5.21354 0
M  V30 4637 N 418.965 1.86162 5.1073 0
M  V30 4638 H 422.767 1.41557 2.57563 0
M  V30 4639 H 420.281 0.868878 1.37202 0
M  V30 4640 H 422.278 -0.488584 4.14027 0
M  V30 4641 H 420.938 -1.01049 3.08576 0
M  V30 4642 H 421.949 2.3572 4.61147 0
M  V30 4643 H 418.626 -0.185578 4.17087 0
M  V30 4644 H 420.016 3.555 5.70149 0
M  V30 4645 N 422.737 -1.36956 0.779787 0
M  V30 4646 C 423.965 -2.03755 0.359398 0
M  V30 4647 C 424.38 -1.58807 -1.02106 0
M  V30 4648 O 423.737 -0.773024 -1.6532 0
M  V30 4649 C 423.788 -3.59251 0.402568 0
M  V30 4650 O 423.509 -4.02557 1.72858 0
M  V30 4651 C 425.01 -4.43291 -0.0284068 0
M  V30 4652 H 422.23 -0.654148 0.149437 0
M  V30 4653 H 424.774 -1.75128 1.05595 0
M  V30 4654 H 422.929 -3.86621 -0.245478 0
M  V30 4655 H 423.343 -4.97111 1.67275 0
M  V30 4656 H 424.817 -5.51975 0.0529466 0
M  V30 4657 H 425.294 -4.25719 -1.07982 0
M  V30 4658 H 425.9 -4.21163 0.591758 0
M  V30 4659 N 424.215 -0.530993 -1.48385 0
M  V30 4660 C 425.492 0.0671788 -1.95485 0
M  V30 4661 C 425.872 1.51191 -1.47324 0
M  V30 4662 O 425.22 2.17507 -0.700202 0
M  V30 4663 C 425.43 -0.0511206 -3.48963 0
M  V30 4664 C 426.778 0.107632 -4.24464 0
M  V30 4665 O 427.802 0.0226248 -3.56193 0
M  V30 4666 O 426.661 0.285972 -5.45751 0
M  V30 4667 H 423.755 0.0787365 -0.823243 0
M  V30 4668 H 426.301 -0.595662 -1.58902 0
M  V30 4669 H 425.073 -1.05747 -3.7674 0
M  V30 4670 H 424.696 0.650525 -3.92242 0
M  V30 4671 N 425.693 1.55336 -0.266172 0
M  V30 4672 C 426.623 2.25146 0.618981 0
M  V30 4673 C 427.604 1.23845 1.16604 0
M  V30 4674 O 428.789 1.52544 1.20183 0
M  V30 4675 C 425.919 2.96572 1.80728 0
M  V30 4676 C 424.873 4.04726 1.39215 0
M  V30 4677 C 424.199 4.63678 2.66283 0
M  V30 4678 C 425.499 5.19407 0.548942 0
M  V30 4679 H 427.193 2.99377 0.0368116 0
M  V30 4680 H 424.739 1.43991 0.0162651 0
M  V30 4681 H 426.692 3.44116 2.43232 0
M  V30 4682 H 425.416 2.19861 2.41514 0
M  V30 4683 H 424.075 3.57979 0.790351 0
M  V30 4684 H 423.723 3.83646 3.25308 0
M  V30 4685 H 423.423 5.367 2.39222 0
M  V30 4686 H 424.947 5.13967 3.29651 0
M  V30 4687 H 426.361 5.63059 1.07876 0
M  V30 4688 H 424.758 5.98936 0.373593 0
M  V30 4689 H 425.828 4.8295 -0.434394 0
M  V30 4690 N 427.171 -0.0066808 1.57599 0
M  V30 4691 C 428.118 -1.00024 2.08 0
M  V30 4692 C 429.088 -1.34549 0.973943 0
M  V30 4693 O 430.273 -1.44502 1.24595 0
M  V30 4694 C 427.413 -2.2891 2.58252 0
M  V30 4695 C 426.526 -2.00346 3.82734 0
M  V30 4696 C 425.661 -3.23265 4.21513 0
M  V30 4697 C 424.7 -2.90357 5.3885 0
M  V30 4698 N 423.837 -4.05793 5.72954 0
M  V30 4699 H 428.677 -0.563499 2.92624 0
M  V30 4700 H 426.214 -0.266592 1.44664 0
M  V30 4701 H 428.172 -3.04247 2.85464 0
M  V30 4702 H 426.802 -2.70265 1.76512 0
M  V30 4703 H 425.854 -1.15406 3.62471 0
M  V30 4704 H 427.166 -1.72086 4.68175 0
M  V30 4705 H 426.32 -4.06953 4.49971 0
M  V30 4706 H 425.059 -3.54657 3.34768 0
M  V30 4707 H 424.064 -2.05075 5.10122 0
M  V30 4708 H 425.289 -2.60219 6.27266 0
M  V30 4709 H 423.235 -4.37094 4.89167 0
M  V30 4710 H 423.152 -3.81034 6.52954 0
M  V30 4711 H 424.42 -4.90289 6.06001 0
M  V30 4712 N 428.649 -1.55105 -0.279332 0
M  V30 4713 C 430.06 -1.66186 -0.850832 0
M  V30 4714 C 430.411 -0.584707 -1.87285 0
M  V30 4715 O 429.536 0.274919 -2.14647 0
M  V30 4716 C 430.131 -3.01264 -1.55001 0
M  V30 4717 C 428.69 -3.14394 -2.06963 0
M  V30 4718 C 427.837 -2.61959 -0.909536 0
M  V30 4719 H 430.788 -1.58602 -0.0558235 0
M  V30 4720 H 430.809 -2.93899 -2.41669 0
M  V30 4721 H 430.321 -3.7964 -0.805931 0
M  V30 4722 H 428.422 -2.4078 -2.84352 0
M  V30 4723 H 428.535 -4.20867 -2.28928 0
M  V30 4724 H 426.899 -2.18957 -1.30116 0
M  V30 4725 H 427.682 -3.42833 -0.179062 0
M  V30 4726 N 430.127 0.543554 -1.4793 0
M  V30 4727 C 431.037 1.67657 -1.64098 0
M  V30 4728 C 432.053 1.65934 -0.523622 0
M  V30 4729 O 433.229 1.85133 -0.792943 0
M  V30 4730 C 430.294 3.04146 -1.66421 0
M  V30 4731 C 429.355 3.16831 -2.89684 0
M  V30 4732 C 428.588 4.46809 -2.91886 0
M  V30 4733 O 428.811 5.33095 -2.02895 0
M  V30 4734 O 427.745 4.63573 -3.83906 0
M  V30 4735 H 431.571 1.56957 -2.59997 0
M  V30 4736 H 429.156 0.715116 -1.31173 0
M  V30 4737 H 431.038 3.85346 -1.70548 0
M  V30 4738 H 429.713 3.152 -0.736923 0
M  V30 4739 H 428.62 2.34977 -2.91095 0
M  V30 4740 H 429.953 3.10687 -3.81752 0
M  V30 4741 N 431.605 1.3629 0.791371 0
M  V30 4742 C 432.553 1.30514 1.92533 0
M  V30 4743 C 433.547 0.197285 1.68247 0
M  V30 4744 O 434.753 0.364176 1.76278 0
M  V30 4745 H 431.128 0.406263 0.632815 0
M  V30 4746 H 433.099 2.26282 1.94523 0
M  V30 4747 C 431.848 1.10933 3.29529 0
M  V30 4748 H 431.171 1.95427 3.48781 0
M  V30 4749 H 432.611 1.10937 4.0923 0
M  V30 4750 C 431.07 -0.186123 3.36385 0
M  V30 4751 O 431.6 -1.17664 3.84081 0
M  V30 4752 N 429.806 -0.230128 2.89687 0
M  V30 4753 H 429.353 0.576545 2.51065 0
M  V30 4754 H 429.311 -1.09658 2.94657 0
M  V30 4755 N 433.083 -1.0153 1.20538 0
M  V30 4756 C 434.332 -1.74558 1.01057 0
M  V30 4757 C 434.645 -1.90168 -0.457756 0
M  V30 4758 O 435.851 -2.60301 -0.771722 0
M  V30 4759 C 434.307 -3.13963 1.75941 0
M  V30 4760 C 433.915 -3.06361 3.26875 0
M  V30 4761 C 435.659 -3.91191 1.64832 0
M  V30 4762 C 433.566 -4.40782 3.94291 0
M  V30 4763 H 432.496 -0.654417 0.374505 0
M  V30 4764 H 435.147 -1.13521 1.44171 0
M  V30 4765 H 433.529 -3.75549 1.25614 0
M  V30 4766 H 434.703 -2.54074 3.84425 0
M  V30 4767 H 433.018 -2.42625 3.38411 0
M  V30 4768 H 435.615 -4.90644 2.12539 0
M  V30 4769 H 435.958 -4.11884 0.604745 0
M  V30 4770 H 436.491 -3.36236 2.12579 0
M  V30 4771 H 433.23 -4.25292 4.98805 0
M  V30 4772 H 432.75 -4.9307 3.41529 0
M  V30 4773 H 434.429 -5.09621 3.98617 0
M  V30 4774 N 434.561 -1.01147 -1.20859 0
M  V30 4775 C 435.491 -0.597663 -2.25722 0
M  V30 4776 C 436.472 0.384744 -1.65692 0
M  V30 4777 O 437.657 0.271303 -1.92296 0
M  V30 4778 C 434.787 0.0700149 -3.47229 0
M  V30 4779 C 433.741 -0.832843 -4.19819 0
M  V30 4780 C 433.067 -0.0312202 -5.34691 0
M  V30 4781 C 434.367 -2.1385 -4.76514 0
M  V30 4782 H 436.061 -1.47423 -2.60589 0
M  V30 4783 H 433.607 -0.710301 -1.25263 0
M  V30 4784 H 435.56 0.37103 -4.19763 0
M  V30 4785 H 434.284 0.981259 -3.11511 0
M  V30 4786 H 432.943 -1.11778 -3.49144 0
M  V30 4787 H 432.591 0.881515 -4.95215 0
M  V30 4788 H 432.291 -0.632434 -5.84187 0
M  V30 4789 H 433.815 0.26346 -6.10031 0
M  V30 4790 H 435.229 -1.9002 -5.40893 0
M  V30 4791 H 433.626 -2.69012 -5.36426 0
M  V30 4792 H 434.696 -2.80495 -3.95538 0
M  V30 4793 N 436.039 1.36541 -0.78704 0
M  V30 4794 C 437.286 1.99304 -0.358341 0
M  V30 4795 C 437.614 1.62467 1.06933 0
M  V30 4796 O 436.869 0.870019 1.75297 0
M  V30 4797 C 437.168 3.54343 -0.466485 0
M  V30 4798 C 436.834 4.10993 -1.85461 0
M  V30 4799 C 435.496 4.26177 -2.23443 0
M  V30 4800 C 437.848 4.41895 -2.76366 0
M  V30 4801 C 435.176 4.69573 -3.51736 0
M  V30 4802 C 437.528 4.86722 -4.04084 0
M  V30 4803 C 436.192 5.00112 -4.42091 0
M  V30 4804 H 435.462 0.729306 -0.131126 0
M  V30 4805 H 438.109 1.63068 -1.00404 0
M  V30 4806 H 436.414 3.90918 0.262719 0
M  V30 4807 H 438.111 4.00833 -0.115854 0
M  V30 4808 H 434.701 3.99612 -1.54946 0
M  V30 4809 H 438.885 4.29735 -2.48277 0
M  V30 4810 H 434.141 4.78127 -3.81057 0
M  V30 4811 H 438.315 5.09598 -4.7464 0
M  V30 4812 H 435.942 5.33498 -5.41557 0
M  V30 4813 N 437.518 0.538854 1.48102 0
M  V30 4814 C 438.764 0.00801365 2.02798 0
M  V30 4815 C 439.097 -1.3309 1.41424 0
M  V30 4816 O 438.372 -1.86169 0.563158 0
M  V30 4817 C 438.655 -0.104589 3.59948 0
M  V30 4818 C 438.508 1.26012 4.31788 0
M  V30 4819 C 439.827 -0.827055 4.32259 0
M  V30 4820 H 436.946 0.00438624 0.736987 0
M  V30 4821 H 439.588 0.6976 1.7673 0
M  V30 4822 H 437.738 -0.691893 3.82289 0
M  V30 4823 H 439.41 1.88922 4.2084 0
M  V30 4824 H 437.653 1.83968 3.92859 0
M  V30 4825 H 438.324 1.13424 5.40221 0
M  V30 4826 H 440.8 -0.328578 4.14801 0
M  V30 4827 H 439.676 -0.87476 5.41885 0
M  V30 4828 H 439.937 -1.87927 4.0017 0
M  V30 4829 N 438.996 -1.55193 0.274407 0
M  V30 4830 C 439.928 -2.1989 -0.646595 0
M  V30 4831 C 440.941 -1.1834 -1.11801 0
M  V30 4832 O 442.13 -1.4507 -1.04004 0
M  V30 4833 C 439.23 -2.8104 -1.89393 0
M  V30 4834 C 438.403 -4.08274 -1.56943 0
M  V30 4835 C 437.462 -4.53478 -2.66916 0
M  V30 4836 O 436.488 -5.19267 -2.33132 0
M  V30 4837 N 437.69 -4.2356 -3.9696 0
M  V30 4838 H 440.455 -2.99556 -0.0928686 0
M  V30 4839 H 438.016 -1.61618 0.0954783 0
M  V30 4840 H 440.008 -3.08226 -2.62257 0
M  V30 4841 H 438.578 -2.05372 -2.35672 0
M  V30 4842 H 437.798 -3.88384 -0.674655 0
M  V30 4843 H 439.086 -4.91173 -1.32764 0
M  V30 4844 H 438.484 -3.70799 -4.27229 0
M  V30 4845 H 437.041 -4.55518 -4.66205 0
M  V30 4846 N 440.474 -0.00167713 -1.576 0
M  V30 4847 C 441.699 0.69739 -1.95323 0
M  V30 4848 C 442.124 1.6642 -0.876706 0
M  V30 4849 O 441.482 1.80548 0.165007 0
M  V30 4850 C 441.53 1.40403 -3.32144 0
M  V30 4851 O 440.634 2.5185 -3.26566 0
M  V30 4852 H 439.975 0.185373 -0.637599 0
M  V30 4853 H 442.505 -0.0553665 -2.04525 0
M  V30 4854 H 442.515 1.76707 -3.67748 0
M  V30 4855 H 441.19 0.695167 -4.10049 0
M  V30 4856 H 439.767 2.17861 -3.0264 0
M  V30 4857 N 441.952 1.55251 0.271103 0
M  V30 4858 C 443.229 1.66664 1.02384 0
M  V30 4859 C 443.609 0.534363 2.04225 0
M  V30 4860 O 442.957 -0.465337 2.23712 0
M  V30 4861 C 443.167 3.05961 1.67895 0
M  V30 4862 C 444.515 3.63772 2.18986 0
M  V30 4863 O 445.539 3.08606 1.77878 0
M  V30 4864 O 444.398 4.60429 2.94393 0
M  V30 4865 H 441.492 0.676957 0.475035 0
M  V30 4866 H 444.038 1.67589 0.26681 0
M  V30 4867 H 442.81 3.79815 0.941071 0
M  V30 4868 H 442.433 3.08943 2.5028 0
M  V30 4869 N 443.43 -0.535701 1.48216 0
M  V30 4870 C 444.66 -1.3148 1.59363 0
M  V30 4871 C 445.068 -1.8753 0.250844 0
M  V30 4872 O 444.411 -1.66821 -0.769174 0
M  V30 4873 C 444.473 -2.50731 2.57632 0
M  V30 4874 C 444.137 -2.15811 4.02833 0
M  V30 4875 C 445.134 -1.71822 4.90686 0
M  V30 4876 C 442.819 -2.26509 4.48329 0
M  V30 4877 C 444.813 -1.3899 6.22062 0
M  V30 4878 C 442.5 -1.93289 5.79726 0
M  V30 4879 C 443.498 -1.49599 6.66415 0
M  V30 4880 O 443.186 -1.16812 7.95368 0
M  V30 4881 H 442.918 -0.406315 0.540263 0
M  V30 4882 H 445.472 -0.653569 1.94725 0
M  V30 4883 H 443.702 -3.19817 2.1738 0
M  V30 4884 H 445.391 -3.12797 2.58675 0
M  V30 4885 H 446.157 -1.63031 4.56778 0
M  V30 4886 H 442.036 -2.59471 3.81045 0
M  V30 4887 H 445.58 -1.04816 6.89681 0
M  V30 4888 H 441.477 -2.01718 6.13172 0
M  V30 4889 H 442.245 -1.30259 8.08069 0
M  V30 4890 N 444.908 -1.36708 -0.784132 0
M  V30 4891 C 446.136 -1.34398 -1.57305 0
M  V30 4892 C 446.551 0.0735577 -1.88657 0
M  V30 4893 O 445.908 1.03193 -1.50524 0
M  V30 4894 C 445.959 -2.17053 -2.89085 0
M  V30 4895 O 445.68 -3.53281 -2.59083 0
M  V30 4896 C 447.181 -2.22583 -3.83369 0
M  V30 4897 H 444.401 -0.460819 -0.487736 0
M  V30 4898 H 446.945 -1.79879 -0.972819 0
M  V30 4899 H 445.1 -1.75113 -3.45564 0
M  V30 4900 H 445.514 -3.9647 -3.43383 0
M  V30 4901 H 446.988 -2.84763 -4.72878 0
M  V30 4902 H 447.465 -1.23075 -4.21603 0
M  V30 4903 H 448.071 -2.64781 -3.32823 0
M  V30 4904 N 446.386 1.0089 -1.21074 0
M  V30 4905 C 447.296 2.13039 -0.982425 0
M  V30 4906 C 448.312 1.73881 0.0642161 0
M  V30 4907 O 449.488 2.01012 -0.12496 0
M  V30 4908 C 446.553 3.42377 -0.545803 0
M  V30 4909 C 445.614 3.95731 -1.6642 0
M  V30 4910 C 444.847 5.18896 -1.24832 0
M  V30 4911 O 445.07 5.70273 -0.120265 0
M  V30 4912 O 444.004 5.65597 -2.05873 0
M  V30 4913 H 447.83 2.35175 -1.92163 0
M  V30 4914 H 445.415 1.1142 -0.995285 0
M  V30 4915 H 447.297 4.20244 -0.311912 0
M  V30 4916 H 445.972 3.21639 0.364727 0
M  V30 4917 H 444.879 3.19108 -1.95246 0
M  V30 4918 H 446.212 4.20872 -2.55201 0
M  V30 4919 N 447.864 1.01787 1.20321 0
M  V30 4920 C 448.827 0.593972 2.2137 0
M  V30 4921 C 449.827 -0.336553 1.57239 0
M  V30 4922 O 451.017 -0.125069 1.7375 0
M  V30 4923 C 448.149 -0.132433 3.40643 0
M  V30 4924 H 449.342 1.48791 2.60387 0
M  V30 4925 H 446.895 0.807803 1.33807 0
M  V30 4926 H 447.63 -1.04123 3.0713 0
M  V30 4927 H 447.415 0.53605 3.88418 0
M  V30 4928 H 448.905 -0.416314 4.1552 0
M  V30 4929 N 449.342 -1.36122 0.79427 0
M  V30 4930 C 450.572 -2.03067 0.380437 0
M  V30 4931 C 450.98 -1.60018 -1.00949 0
M  V30 4932 O 450.323 -0.787425 -1.65968 0
M  V30 4933 C 450.385 -3.57587 0.37034 0
M  V30 4934 C 450.049 -4.23855 1.70867 0
M  V30 4935 C 451.046 -4.46404 2.66496 0
M  V30 4936 C 448.731 -4.61229 1.9893 0
M  V30 4937 C 450.725 -5.05412 3.88378 0
M  V30 4938 C 448.412 -5.19953 3.21079 0
M  V30 4939 C 449.41 -5.41985 4.15621 0
M  V30 4940 O 449.098 -5.99475 5.35616 0
M  V30 4941 H 448.83 -0.658168 0.154243 0
M  V30 4942 H 451.384 -1.7498 1.0757 0
M  V30 4943 H 449.614 -3.84814 -0.381444 0
M  V30 4944 H 451.303 -4.05895 -0.0194894 0
M  V30 4945 H 452.069 -4.17921 2.46103 0
M  V30 4946 H 447.948 -4.43402 1.26158 0
M  V30 4947 H 451.492 -5.22524 4.62185 0
M  V30 4948 H 447.389 -5.47862 3.41347 0
M  V30 4949 H 448.157 -6.17937 5.36745 0
M  V30 4950 N 450.82 -0.546701 -1.47814 0
M  V30 4951 C 451.768 0.220048 -2.31557 0
M  V30 4952 C 452.762 0.919472 -1.42275 0
M  V30 4953 O 453.968 0.841953 -1.59095 0
M  V30 4954 H 450.343 0.0898334 -0.746615 0
M  V30 4955 H 452.314 -0.505589 -2.94086 0
M  V30 4956 C 451.063 1.24353 -3.24702 0
M  V30 4957 H 450.386 0.714758 -3.93359 0
M  V30 4958 H 451.826 1.75112 -3.8615 0
M  V30 4959 C 450.285 2.28593 -2.47481 0
M  V30 4960 O 450.815 3.35334 -2.21165 0
M  V30 4961 N 449.021 2.02244 -2.08676 0
M  V30 4962 H 448.568 1.15455 -2.30278 0
M  V30 4963 H 448.526 2.72207 -1.57323 0
M  V30 4964 N 452.299 1.55045 -0.282633 0
M  V30 4965 C 453.71 1.85473 0.213655 0
M  V30 4966 C 454.061 1.20465 1.54863 0
M  V30 4967 O 453.186 0.495676 2.10647 0
M  V30 4968 C 453.781 3.36496 0.394445 0
M  V30 4969 C 452.34 3.67022 0.834961 0
M  V30 4970 C 451.487 2.77218 -0.0674081 0
M  V30 4971 H 454.438 1.50478 -0.504202 0
M  V30 4972 H 454.459 3.60007 1.23186 0
M  V30 4973 H 453.971 3.83782 -0.577326 0
M  V30 4974 H 452.072 3.25241 1.81794 0
M  V30 4975 H 452.185 4.74433 0.667075 0
M  V30 4976 H 450.549 2.5069 0.450196 0
M  V30 4977 H 451.332 3.2732 -1.0352 0
M  V30 4978 N 453.777 0.010035 1.57597 0
M  V30 4979 C 454.724 -0.978122 2.09049 0
M  V30 4980 C 455.694 -1.33509 0.988159 0
M  V30 4981 O 456.879 -1.43172 1.26121 0
M  V30 4982 C 454.019 -2.26158 2.60666 0
M  V30 4983 C 453.132 -1.96275 3.84838 0
M  V30 4984 C 452.267 -3.18776 4.24918 0
M  V30 4985 C 451.306 -2.84625 5.41899 0
M  V30 4986 N 450.443 -3.99693 5.77226 0
M  V30 4987 H 455.283 -0.532431 2.93205 0
M  V30 4988 H 452.82 -0.251234 1.44939 0
M  V30 4989 H 454.778 -3.01202 2.88675 0
M  V30 4990 H 453.408 -2.68378 1.79369 0
M  V30 4991 H 452.46 -1.11555 3.63675 0
M  V30 4992 H 453.772 -1.67111 4.69974 0
M  V30 4993 H 452.926 -4.02157 4.54262 0
M  V30 4994 H 451.665 -3.51087 3.38511 0
M  V30 4995 H 450.67 -1.99653 5.12268 0
M  V30 4996 H 451.895 -2.53551 6.29991 0
M  V30 4997 H 449.841 -4.31882 4.93776 0
M  V30 4998 H 449.758 -3.74087 6.56959 0
M  V30 4999 H 451.026 -4.83834 6.11167 0
M  V30 5000 N 455.255 -1.55392 -0.262866 0
M  V30 5001 C 456.504 -1.75679 -0.990943 0
M  V30 5002 C 456.817 -0.57097 -1.87081 0
M  V30 5003 O 458.023 -0.656486 -2.63444 0
M  V30 5004 C 456.479 -3.10964 -1.81188 0
M  V30 5005 C 456.087 -4.37146 -0.980188 0
M  V30 5006 C 457.831 -3.40597 -2.53365 0
M  V30 5007 C 455.738 -5.63466 -1.7961 0
M  V30 5008 H 454.668 -0.654868 -0.373716 0
M  V30 5009 H 457.319 -1.81841 -0.246203 0
M  V30 5010 H 455.701 -2.98867 -2.59797 0
M  V30 5011 H 456.875 -4.60187 -0.237558 0
M  V30 5012 H 455.19 -4.14731 -0.372497 0
M  V30 5013 H 457.787 -4.32186 -3.14833 0
M  V30 5014 H 458.13 -2.6119 -3.24169 0
M  V30 5015 H 458.663 -3.53838 -1.81779 0
M  V30 5016 H 455.402 -6.4565 -1.13209 0
M  V30 5017 H 454.922 -5.44552 -2.51443 0
M  V30 5018 H 456.601 -6.02139 -2.36723 0
M  V30 5019 N 456.733 0.527833 -1.48498 0
M  V30 5020 C 457.68 1.6322 -1.6318 0
M  V30 5021 C 458.65 1.59199 -0.473815 0
M  V30 5022 O 459.835 1.77591 -0.697563 0
M  V30 5023 C 456.975 3.01474 -1.67951 0
M  V30 5024 C 456.088 3.15713 -2.94871 0
M  V30 5025 C 455.223 4.44539 -2.90789 0
M  V30 5026 C 454.262 4.52315 -4.12404 0
M  V30 5027 N 453.399 5.72533 -4.06387 0
M  V30 5028 H 458.239 1.50011 -2.57489 0
M  V30 5029 H 455.776 0.730298 -1.27691 0
M  V30 5030 H 457.734 3.81572 -1.68698 0
M  V30 5031 H 456.364 3.1345 -0.771306 0
M  V30 5032 H 455.416 2.28854 -3.03859 0
M  V30 5033 H 456.728 3.1732 -3.8485 0
M  V30 5034 H 455.882 5.3293 -2.89949 0
M  V30 5035 H 454.621 4.45457 -1.98542 0
M  V30 5036 H 453.626 3.62331 -4.13517 0
M  V30 5037 H 454.851 4.53134 -5.05812 0
M  V30 5038 H 452.797 5.74344 -3.16962 0
M  V30 5039 H 452.714 5.75643 -4.90073 0
M  V30 5040 H 453.982 6.63204 -4.0961 0
M  V30 5041 N 458.211 1.37122 0.776871 0
M  V30 5042 C 459.627 1.1781 1.07671 0
M  V30 5043 C 459.827 0.0107454 2.01497 0
M  V30 5044 O 458.883 -0.650756 2.4397 0
M  V30 5045 C 460.196 2.49451 1.67913 0
M  V30 5046 C 461.744 2.55927 1.80195 0
M  V30 5047 C 462.219 3.87686 2.43851 0
M  V30 5048 N 463.71 3.891 2.51307 0
M  V30 5049 C 464.445 4.87797 3.014 0
M  V30 5050 N 463.941 5.96888 3.51705 0
M  V30 5051 N 465.734 4.75205 3.00227 0
M  V30 5052 H 457.885 2.11843 0.153778 0
M  V30 5053 H 460.148 0.938927 0.130844 0
M  V30 5054 H 459.854 3.35207 1.06439 0
M  V30 5055 H 459.728 2.66169 2.67271 0
M  V30 5056 H 462.115 1.70582 2.40803 0
M  V30 5057 H 462.196 2.43097 0.796069 0
M  V30 5058 H 461.84 4.73444 1.83884 0
M  V30 5059 H 461.77 3.97817 3.45035 0
M  V30 5060 H 464.261 3.10293 2.157 0
M  V30 5061 H 464.574 6.68155 3.88316 0
M  V30 5062 H 462.919 6.0054 3.49824 0
M  V30 5063 H 466.11 3.89103 2.60224 0
M  V30 5064 H 466.283 5.52279 3.38957 0
M  V30 5065 N 459.689 -1.00246 1.21608 0
M  V30 5066 C 460.966 -1.71336 0.943568 0
M  V30 5067 C 461.346 -2.03972 -0.543943 0
M  V30 5068 O 460.694 -1.71545 -1.50946 0
M  V30 5069 C 460.904 -2.97094 1.83128 0
M  V30 5070 C 462.252 -3.70071 2.08165 0
M  V30 5071 O 463.276 -3.07081 1.80498 0
M  V30 5072 O 462.135 -4.83376 2.54971 0
M  V30 5073 H 459.229 -0.747386 0.354039 0
M  V30 5074 H 461.775 -1.05967 1.32549 0
M  V30 5075 H 460.547 -2.69407 2.83788 0
M  V30 5076 H 460.17 -3.70204 1.45034 0
M  V30 5077 N 461.167 -1.02423 -1.1978 0
M  V30 5078 C 462.077 -0.610919 -2.26506 0
M  V30 5079 C 463.093 0.355152 -1.70337 0
M  V30 5080 O 464.269 0.214195 -2.00258 0
M  V30 5081 C 461.334 0.0365921 -3.46681 0
M  V30 5082 C 460.395 -0.976389 -4.18049 0
M  V30 5083 C 459.628 -0.359683 -5.32487 0
M  V30 5084 O 459.851 0.838601 -5.64202 0
M  V30 5085 O 458.785 -1.08022 -5.92127 0
M  V30 5086 H 462.611 -1.49965 -2.64091 0
M  V30 5087 H 460.196 -0.794156 -1.26545 0
M  V30 5088 H 462.078 0.39786 -4.19518 0
M  V30 5089 H 460.753 0.899398 -3.10954 0
M  V30 5090 H 459.66 -1.38916 -3.47352 0
M  V30 5091 H 460.993 -1.80941 -4.57735 0
M  V30 5092 N 462.645 1.35699 -0.801477 0
M  V30 5093 C 464.061 1.52065 -0.484596 0
M  V30 5094 C 464.261 1.75215 0.995084 0
M  V30 5095 O 463.317 1.79061 1.78026 0
M  V30 5096 C 464.63 2.69908 -1.32552 0
M  V30 5097 C 466.178 2.83784 -1.32044 0
M  V30 5098 C 466.653 4.04646 -2.14536 0
M  V30 5099 N 468.144 4.11814 -2.12046 0
M  V30 5100 C 468.879 5.04437 -2.72636 0
M  V30 5101 N 468.375 6.02426 -3.42133 0
M  V30 5102 N 470.168 4.97144 -2.62305 0
M  V30 5103 H 462.319 1.18928 -1.75983 0
M  V30 5104 H 464.582 0.581455 -0.748741 0
M  V30 5105 H 464.288 2.59363 -2.37537 0
M  V30 5106 H 464.162 3.64376 -0.975181 0
M  V30 5107 H 466.549 2.93783 -0.27846 0
M  V30 5108 H 466.63 1.90188 -1.71062 0
M  V30 5109 H 466.274 3.95407 -3.18772 0
M  V30 5110 H 466.204 4.97413 -1.72882 0
M  V30 5111 H 468.695 3.41664 -1.61476 0
M  V30 5112 H 469.008 6.69688 -3.85666 0
M  V30 5113 H 467.353 6.02615 -3.46237 0
M  V30 5114 H 470.544 4.19546 -2.07603 0
M  V30 5115 H 470.717 5.69138 -3.09815 0
M  V30 5116 N 464.123 0.554532 1.47522 0
M  V30 5117 C 465.351 0.034257 2.06872 0
M  V30 5118 C 465.766 -1.25826 1.40759 0
M  V30 5119 O 465.123 -1.75425 0.503217 0
M  V30 5120 C 465.174 -0.167827 3.6111 0
M  V30 5121 O 464.895 1.07351 4.24744 0
M  V30 5122 C 466.396 -0.72569 4.3732 0
M  V30 5123 H 463.616 0.0446275 0.669514 0
M  V30 5124 H 466.16 0.767181 1.89564 0
M  V30 5125 H 464.315 -0.850872 3.7794 0
M  V30 5126 H 464.729 0.869563 5.17242 0
M  V30 5127 H 466.203 -0.816394 5.45929 0
M  V30 5128 H 466.68 -1.73635 4.0342 0
M  V30 5129 H 467.286 -0.0784292 4.25228 0
M  V30 5130 N 465.601 -1.54893 0.290851 0
M  V30 5131 C 466.531 -2.26103 -0.583084 0
M  V30 5132 C 467.512 -1.25684 -1.14619 0
M  V30 5133 O 468.697 -1.54436 -1.17741 0
M  V30 5134 C 465.827 -2.99409 -1.75987 0
M  V30 5135 C 464.781 -4.0689 -1.32758 0
M  V30 5136 C 464.107 -4.67856 -2.58872 0
M  V30 5137 C 465.407 -5.20215 -0.46624 0
M  V30 5138 H 467.101 -2.99398 0.0108214 0
M  V30 5139 H 464.647 -1.43998 0.00664468 0
M  V30 5140 H 466.6 -3.47943 -2.37727 0
M  V30 5141 H 465.324 -2.23675 -2.37985 0
M  V30 5142 H 463.983 -3.59191 -0.733299 0
M  V30 5143 H 463.631 -3.88772 -3.19163 0
M  V30 5144 H 463.331 -5.40438 -2.30653 0
M  V30 5145 H 464.855 -5.19147 -3.21433 0
M  V30 5146 H 466.269 -5.64704 -0.989047 0
M  V30 5147 H 464.666 -5.99455 -0.27826 0
M  V30 5148 H 465.736 -4.82198 0.511173 0
M  V30 5149 N 467.08 -0.0183926 -1.57589 0
M  V30 5150 C 468.329 0.66185 -1.90532 0
M  V30 5151 C 468.642 1.73904 -0.895366 0
M  V30 5152 O 469.848 2.47518 -1.11566 0
M  V30 5153 C 468.304 1.22844 -3.38286 0
M  V30 5154 C 467.912 0.185103 -4.47617 0
M  V30 5155 C 469.656 1.88581 -3.80312 0
M  V30 5156 C 467.563 0.762723 -5.86461 0
M  V30 5157 H 466.493 0.250972 -0.711006 0
M  V30 5158 H 469.144 -0.0819435 -1.83317 0
M  V30 5159 H 467.526 2.0235 -3.40398 0
M  V30 5160 H 468.7 -0.58671 -4.5705 0
M  V30 5161 H 467.015 -0.372889 -4.14727 0
M  V30 5162 H 469.612 2.32735 -4.81392 0
M  V30 5163 H 469.955 2.72408 -3.14801 0
M  V30 5164 H 470.488 1.15782 -3.80578 0
M  V30 5165 H 467.227 -0.0371713 -6.55489 0
M  V30 5166 H 466.747 1.50327 -5.80656 0
M  V30 5167 H 468.426 1.25576 -6.34697 0
M  V30 5168 N 468.558 1.5553 0.254621 0
M  V30 5169 C 469.506 1.9048 1.33492 0
M  V30 5170 C 470.5 0.78304 1.50216 0
M  V30 5171 O 471.706 0.967582 1.51782 0
M  V30 5172 H 468.081 0.604846 0.44684 0
M  V30 5173 H 470.052 2.80688 1.01275 0
M  V30 5174 C 468.801 2.20928 2.68489 0
M  V30 5175 H 468.124 3.06742 2.56417 0
M  V30 5176 H 469.564 2.49291 3.42972 0
M  V30 5177 C 468.023 1.023 3.20993 0
M  V30 5178 O 468.553 0.267027 4.00811 0
M  V30 5179 N 466.759 0.815714 2.78917 0
M  V30 5180 H 466.306 1.43217 2.14119 0
M  V30 5181 H 466.264 0.0236532 3.14391 0
M  V30 5182 N 470.036 -0.519951 1.48776 0
M  V30 5183 C 471.447 -1.10177 1.50725 0
M  V30 5184 C 471.798 -1.94153 0.282678 0
M  V30 5185 O 470.923 -2.07645 -0.609298 0
M  V30 5186 C 471.518 -2.00482 2.73116 0
M  V30 5187 C 470.077 -2.53862 2.77905 0
M  V30 5188 C 469.224 -1.31047 2.44381 0
M  V30 5189 H 472.175 -0.30473 1.55747 0
M  V30 5190 H 472.196 -2.8491 2.52203 0
M  V30 5191 H 471.708 -1.39335 3.62225 0
M  V30 5192 H 469.809 -3.18702 1.93029 0
M  V30 5193 H 469.922 -2.9231 3.79594 0
M  V30 5194 H 468.286 -1.62953 1.95751 0
M  V30 5195 H 469.069 -0.71637 3.35743 0
M  V30 5196 N 471.514 -1.37532 -0.769588 0
M  V30 5197 C 472.791 -1.23392 -1.51768 0
M  V30 5198 C 473.171 0.17157 -2.10402 0
M  V30 5199 O 472.519 1.17943 -1.95708 0
M  V30 5200 C 472.729 -2.33163 -2.59685 0
M  V30 5201 C 474.077 -2.70809 -3.27028 0
M  V30 5202 O 475.101 -2.32355 -2.69981 0
M  V30 5203 O 473.96 -3.37066 -4.30173 0
M  V30 5204 H 471.054 -0.481617 -0.67229 0
M  V30 5205 H 473.6 -1.49318 -0.806368 0
M  V30 5206 H 472.372 -3.27273 -2.14494 0
M  V30 5207 H 471.995 -2.08713 -3.38415 0
M  V30 5208 N 472.992 0.995999 -1.22138 0
M  V30 5209 C 474.241 1.72928 -1.03821 0
M  V30 5210 C 474.554 1.90872 0.427444 0
M  V30 5211 O 475.76 2.61496 0.730212 0
M  V30 5212 C 474.216 3.11124 -1.80913 0
M  V30 5213 C 473.824 3.01122 -3.31707 0
M  V30 5214 C 475.568 3.8852 -1.71035 0
M  V30 5215 C 473.475 4.34453 -4.01253 0
M  V30 5216 H 472.405 0.648376 -0.384869 0
M  V30 5217 H 475.056 1.11213 -1.45959 0
M  V30 5218 H 473.438 3.73503 -1.31573 0
M  V30 5219 H 474.612 2.47926 -3.88419 0
M  V30 5220 H 472.927 2.3721 -3.42228 0
M  V30 5221 H 475.524 4.872 -2.20318 0
M  V30 5222 H 475.867 4.1087 -0.670196 0
M  V30 5223 H 476.4 3.32812 -2.17902 0
M  V30 5224 H 473.139 4.17303 -5.05508 0
M  V30 5225 H 472.659 4.87574 -3.49331 0
M  V30 5226 H 474.338 5.03215 -4.06674 0
M  V30 5227 N 474.47 1.03057 1.19235 0
M  V30 5228 C 475.417 0.612832 2.22515 0
M  V30 5229 C 476.387 -0.374224 1.61829 0
M  V30 5230 O 477.572 -0.270501 1.88873 0
M  V30 5231 C 474.712 -0.028475 3.45088 0
M  V30 5232 C 473.825 1.00483 4.20151 0
M  V30 5233 C 472.96 0.333102 5.30155 0
M  V30 5234 C 471.999 1.3522 5.96977 0
M  V30 5235 N 471.136 0.70616 6.9854 0
M  V30 5236 H 475.976 1.49812 2.57605 0
M  V30 5237 H 473.513 0.749658 1.26564 0
M  V30 5238 H 475.471 -0.417548 4.15105 0
M  V30 5239 H 474.101 -0.877334 3.10649 0
M  V30 5240 H 473.153 1.51194 3.49062 0
M  V30 5241 H 474.465 1.77929 4.65986 0
M  V30 5242 H 473.619 -0.110725 6.06599 0
M  V30 5243 H 472.358 -0.473547 4.85396 0
M  V30 5244 H 471.363 1.80627 5.19282 0
M  V30 5245 H 472.588 2.16037 6.4382 0
M  V30 5246 H 470.534 -0.0803667 6.55951 0
M  V30 5247 H 470.451 1.41848 7.42573 0
M  V30 5248 H 471.719 0.286391 7.78974 0
M  V30 5249 N 475.948 -1.35272 0.808662 0
M  V30 5250 C 477.194 -1.99003 0.390581 0
M  V30 5251 C 477.527 -1.63999 -1.0401 0
M  V30 5252 O 476.802 -0.904368 -1.72196 0
M  V30 5253 C 477.085 -3.55454 0.576566 0
M  V30 5254 C 476.938 -4.00249 2.05233 0
M  V30 5255 C 478.257 -4.401 0.00354277 0
M  V30 5256 H 475.376 -0.722917 0.143388 0
M  V30 5257 H 478.018 -1.6039 1.01858 0
M  V30 5258 H 476.168 -3.88477 0.0419766 0
M  V30 5259 H 477.84 -3.77626 2.64946 0
M  V30 5260 H 476.083 -3.51082 2.54801 0
M  V30 5261 H 476.754 -5.0911 2.13333 0
M  V30 5262 H 479.23 -4.13548 0.460117 0
M  V30 5263 H 478.106 -5.48656 0.163575 0
M  V30 5264 H 478.367 -4.28444 -1.09032 0
M  V30 5265 N 477.426 -0.562348 -1.47226 0
M  V30 5266 C 478.672 -0.0402761 -2.0276 0
M  V30 5267 C 479.005 1.30823 -1.43523 0
M  V30 5268 O 478.28 1.85249 -0.592705 0
M  V30 5269 C 478.563 0.047311 -3.60069 0
M  V30 5270 C 478.416 -1.32865 -4.29729 0
M  V30 5271 C 479.735 0.758182 -4.3352 0
M  V30 5272 H 476.854 -0.0161105 -0.736824 0
M  V30 5273 H 479.496 -0.725628 -1.75598 0
M  V30 5274 H 477.646 0.630986 -3.83342 0
M  V30 5275 H 479.318 -1.95593 -4.17781 0
M  V30 5276 H 477.561 -1.90195 -3.89882 0
M  V30 5277 H 478.232 -1.22004 -5.38349 0
M  V30 5278 H 480.708 0.262546 -4.15271 0
M  V30 5279 H 479.584 0.78844 -5.43208 0
M  V30 5280 H 479.845 1.81537 -4.03109 0
M  V30 5281 N 478.904 1.54736 -0.299062 0
M  V30 5282 C 480.181 1.92187 0.363802 0
M  V30 5283 C 480.561 1.22607 1.71845 0
M  V30 5284 O 479.909 0.361141 2.25628 0
M  V30 5285 C 480.119 3.45678 0.480377 0
M  V30 5286 C 481.467 4.17885 0.752147 0
M  V30 5287 O 482.491 3.51702 0.564264 0
M  V30 5288 O 481.35 5.35048 1.11294 0
M  V30 5289 H 478.444 0.801681 0.203066 0
M  V30 5290 H 480.99 1.66115 -0.346978 0
M  V30 5291 H 479.762 3.88443 -0.471999 0
M  V30 5292 H 479.385 3.77779 1.2397 0
M  V30 5293 N 480.382 0.0267497 1.57577 0
M  V30 5294 C 481.629 -0.652404 1.91703 0
M  V30 5295 C 481.957 -1.72271 0.902936 0
M  V30 5296 O 481.212 -1.955 -0.0884843 0
M  V30 5297 C 481.511 -1.30914 3.3256 0
M  V30 5298 C 481.177 -0.369441 4.49384 0
M  V30 5299 C 479.839 -0.110791 4.81072 0
M  V30 5300 C 482.191 0.275971 5.20469 0
M  V30 5301 C 479.519 0.801116 5.81205 0
M  V30 5302 C 481.871 1.17592 6.21575 0
M  V30 5303 C 480.535 1.44348 6.51705 0
M  V30 5304 H 479.805 -0.238732 0.70149 0
M  V30 5305 H 482.452 0.0880091 1.91298 0
M  V30 5306 H 480.757 -2.12425 3.29216 0
M  V30 5307 H 482.454 -1.84115 3.56234 0
M  V30 5308 H 479.044 -0.581211 4.24641 0
M  V30 5309 H 483.228 0.0892 4.9622 0
M  V30 5310 H 478.484 1.01614 6.02897 0
M  V30 5311 H 482.658 1.68223 6.75777 0
M  V30 5312 H 480.285 2.15176 7.29111 0
M  V30 5313 N 481.861 -1.55662 -0.24637 0
M  V30 5314 C 483.109 -1.77168 -0.972411 0
M  V30 5315 C 483.43 -0.590827 -1.85834 0
M  V30 5316 O 482.7 0.393365 -1.9191 0
M  V30 5317 H 481.28 -0.653405 -0.362038 0
M  V30 5318 H 483.942 -1.93101 -0.264189 0
M  V30 5319 H 483.038 -2.68335 -1.59382 0
M  V30 5320 N 483.339 0.512053 -1.4905 0
M  V30 5321 C 484.564 1.2959 -1.6193 0
M  V30 5322 C 484.989 1.85906 -0.286454 0
M  V30 5323 O 484.347 1.65312 0.744426 0
M  V30 5324 C 484.395 2.40987 -2.68249 0
M  V30 5325 O 483.499 3.44531 -2.26654 0
M  V30 5326 H 482.84 0.383053 -0.542371 0
M  V30 5327 H 485.37 0.614231 -1.95162 0
M  V30 5328 H 485.38 2.86913 -2.90078 0
M  V30 5329 H 484.055 1.99361 -3.65004 0
M  V30 5330 H 482.632 3.046 -2.15112 0
M  V30 5331 N 484.817 1.37938 0.762283 0
M  V30 5332 C 485.78 1.34279 1.85747 0
M  V30 5333 C 486.78 0.244969 1.58923 0
M  V30 5334 O 487.97 0.501365 1.66829 0
M  V30 5335 C 485.102 1.08833 3.23061 0
M  V30 5336 H 486.295 2.31705 1.90401 0
M  V30 5337 H 483.848 1.23105 0.963057 0
M  V30 5338 H 484.583 0.119767 3.24079 0
M  V30 5339 H 484.368 1.88306 3.43923 0
M  V30 5340 H 485.858 1.08946 4.03138 0
M  V30 5341 N 486.295 -0.989507 1.22664 0
M  V30 5342 C 487.523 -1.76496 1.07967 0
M  V30 5343 C 487.938 -1.85148 -0.369543 0
M  V30 5344 O 487.295 -1.32408 -1.25596 0
M  V30 5345 C 487.346 -3.19642 1.68853 0
M  V30 5346 O 487.067 -3.11453 3.08105 0
M  V30 5347 C 488.568 -4.13621 1.59475 0
M  V30 5348 H 485.788 -0.55418 0.378319 0
M  V30 5349 H 488.332 -1.24378 1.62328 0
M  V30 5350 H 486.487 -3.68816 1.18547 0
M  V30 5351 H 486.901 -4.01499 3.37489 0
M  V30 5352 H 488.375 -5.11801 2.06795 0
M  V30 5353 H 488.852 -4.35718 0.55191 0
M  V30 5354 H 489.458 -3.70346 2.09103 0
M  V30 5355 N 487.773 -1.03688 -1.18687 0
M  V30 5356 C 489.003 -0.756819 -1.92239 0
M  V30 5357 C 489.411 0.689374 -1.76194 0
M  V30 5358 O 488.754 1.48126 -1.08648 0
M  V30 5359 C 488.816 -1.03851 -3.44173 0
M  V30 5360 C 488.48 -2.47785 -3.83994 0
M  V30 5361 C 489.477 -3.4595 -3.88091 0
M  V30 5362 C 487.162 -2.82397 -4.154 0
M  V30 5363 C 489.156 -4.76779 -4.23038 0
M  V30 5364 C 486.843 -4.13433 -4.50018 0
M  V30 5365 C 487.841 -5.10434 -4.53813 0
M  V30 5366 O 487.529 -6.39122 -4.87625 0
M  V30 5367 H 487.261 -0.275678 -0.617234 0
M  V30 5368 H 489.815 -1.38658 -1.51536 0
M  V30 5369 H 488.045 -0.351612 -3.85098 0
M  V30 5370 H 489.734 -0.746846 -3.9897 0
M  V30 5371 H 490.5 -3.20549 -3.63969 0
M  V30 5372 H 486.379 -2.07568 -4.11627 0
M  V30 5373 H 489.923 -5.52488 -4.25914 0
M  V30 5374 H 485.82 -4.38604 -4.736 0
M  V30 5375 H 486.588 -6.43715 -5.05542 0
M  V30 5376 N 489.251 1.34841 -0.815825 0
M  V30 5377 C 490.528 1.92908 -0.323416 0
M  V30 5378 C 490.908 1.74479 1.18828 0
M  V30 5379 O 490.256 1.11928 1.99209 0
M  V30 5380 C 490.466 3.40957 -0.744952 0
M  V30 5381 C 491.814 4.18107 -0.739716 0
M  V30 5382 O 492.838 3.49511 -0.68708 0
M  V30 5383 O 491.697 5.40517 -0.806456 0
M  V30 5384 H 488.791 0.822436 -0.0867646 0
M  V30 5385 H 491.337 1.4386 -0.90014 0
M  V30 5386 H 490.109 3.4814 -1.78646 0
M  V30 5387 H 489.732 3.97341 -0.143535 0
M  V30 5388 N 490.729 0.570148 1.46925 0
M  V30 5389 C 492.006 -0.0153259 1.95594 0
M  V30 5390 C 492.386 -1.47232 1.51281 0
M  V30 5391 O 491.734 -2.15574 0.757624 0
M  V30 5392 C 491.944 0.143624 3.48704 0
M  V30 5393 C 493.292 0.00494484 4.246 0
M  V30 5394 O 494.316 0.0718214 3.56128 0
M  V30 5395 O 493.175 -0.141175 5.46318 0
M  V30 5396 H 490.269 -0.0568819 0.825041 0
M  V30 5397 H 492.815 0.637583 1.57267 0
M  V30 5398 H 491.587 1.15699 3.73804 0
M  V30 5399 H 491.21 -0.5463 3.93829 0
M  V30 5400 N 492.207 -1.54576 0.307264 0
M  V30 5401 C 493.117 -2.27435 -0.57536 0
M  V30 5402 C 494.133 -1.31183 -1.14311 0
M  V30 5403 O 495.309 -1.64175 -1.16656 0
M  V30 5404 C 492.374 -3.00566 -1.72803 0
M  V30 5405 C 491.435 -4.12369 -1.19373 0
M  V30 5406 C 490.668 -4.82003 -2.29147 0
M  V30 5407 O 490.891 -4.51038 -3.49171 0
M  V30 5408 O 489.825 -5.69271 -1.95485 0
M  V30 5409 H 493.651 -3.03696 0.0158558 0
M  V30 5410 H 491.236 -1.49219 0.0735064 0
M  V30 5411 H 493.118 -3.46416 -2.39946 0
M  V30 5412 H 491.793 -2.27195 -2.30574 0
M  V30 5413 H 490.7 -3.70905 -0.487851 0
M  V30 5414 H 492.033 -4.87736 -0.661376 0
M  V30 5415 N 493.685 -0.035106 -1.57561 0
M  V30 5416 C 494.635 0.954034 -2.0708 0
M  V30 5417 C 495.619 1.2818 -0.972558 0
M  V30 5418 O 496.811 1.26691 -1.23606 0
M  V30 5419 C 493.94 2.23442 -2.60631 0
M  V30 5420 C 493.026 1.93475 -3.77396 0
M  V30 5421 N 493.417 1.33802 -4.87781 0
M  V30 5422 C 491.715 2.23434 -3.85996 0
M  V30 5423 C 492.416 1.21103 -5.68954 0
M  V30 5424 N 491.392 1.70855 -5.16052 0
M  V30 5425 H 495.194 0.487731 -2.89825 0
M  V30 5426 H 492.708 0.169759 -1.6151 0
M  V30 5427 H 494.705 2.95183 -2.94402 0
M  V30 5428 H 493.365 2.70693 -1.79319 0
M  V30 5429 H 494.376 1.01227 -5.07911 0
M  V30 5430 H 491.053 2.73317 -3.15601 0
M  V30 5431 H 492.443 0.749105 -6.67711 0
M  V30 5432 N 495.163 1.55791 0.238111 0
M  V30 5433 C 496.113 1.87444 1.29803 0
M  V30 5434 C 497.097 0.736043 1.43078 0
M  V30 5435 O 498.289 0.998146 1.46171 0
M  V30 5436 C 495.418 2.18028 2.65177 0
M  V30 5437 C 494.504 3.38217 2.55871 0
M  V30 5438 N 494.895 4.57264 2.16202 0
M  V30 5439 C 493.193 3.41502 2.86866 0
M  V30 5440 C 493.894 5.3941 2.17744 0
M  V30 5441 N 492.87 4.78695 2.57589 0
M  V30 5442 H 496.672 2.7701 0.981965 0
M  V30 5443 H 494.186 1.56135 0.44672 0
M  V30 5444 H 496.183 2.38873 3.4168 0
M  V30 5445 H 494.843 1.29765 2.97643 0
M  V30 5446 H 495.854 4.82727 1.87602 0
M  V30 5447 H 492.531 2.63536 3.23813 0
M  V30 5448 H 493.921 6.44671 1.89339 0
M  V30 5449 N 496.642 -0.504142 1.49319 0
M  V30 5450 C 497.867 -1.28729 1.62615 0
M  V30 5451 C 498.292 -1.85752 0.296309 0
M  V30 5452 O 497.65 -1.65704 -0.735649 0
M  V30 5453 C 497.698 -2.39561 2.69524 0
M  V30 5454 O 496.802 -3.43324 2.28478 0
M  V30 5455 H 496.143 -0.380172 0.544395 0
M  V30 5456 H 498.673 -0.603872 1.95485 0
M  V30 5457 H 498.683 -2.8537 2.91595 0
M  V30 5458 H 497.358 -1.97423 3.66056 0
M  V30 5459 H 495.935 -3.03455 2.16725 0
M  V30 5460 N 498.12 -1.38341 -0.754957 0
M  V30 5461 C 499.348 -1.37704 -1.54419 0
M  V30 5462 C 499.763 0.0335243 -1.8877 0
M  V30 5463 O 499.12 0.999773 -1.52679 0
M  V30 5464 C 499.171 -2.23136 -2.84416 0
M  V30 5465 O 498.892 -3.58697 -2.51531 0
M  V30 5466 C 500.393 -2.30664 -3.78562 0
M  V30 5467 H 497.613 -0.471061 -0.477852 0
M  V30 5468 H 500.157 -1.81902 -0.934446 0
M  V30 5469 H 498.312 -1.82403 -3.41772 0
M  V30 5470 H 498.726 -4.03665 -3.34896 0
M  V30 5471 H 500.2 -2.9473 -4.66732 0
M  V30 5472 H 500.677 -1.3199 -4.18898 0
M  V30 5473 H 501.283 -2.71781 -3.27131 0
M  V30 5474 N 499.598 0.982988 -1.23187 0
M  V30 5475 C 500.528 2.09301 -1.03515 0
M  V30 5476 C 501.509 1.70035 0.0471136 0
M  V30 5477 O 502.694 1.93847 -0.117029 0
M  V30 5478 C 499.824 3.4167 -0.622791 0
M  V30 5479 C 498.778 3.94828 -1.65211 0
M  V30 5480 C 498.104 5.23362 -1.09527 0
M  V30 5481 C 499.404 4.2439 -3.04451 0
M  V30 5482 H 501.098 2.26016 -1.96359 0
M  V30 5483 H 498.644 1.08611 -0.945501 0
M  V30 5484 H 500.597 4.18746 -0.472233 0
M  V30 5485 H 499.321 3.24811 0.341329 0
M  V30 5486 H 497.98 3.19895 -1.79061 0
M  V30 5487 H 497.628 5.02852 -0.122211 0
M  V30 5488 H 497.328 5.59895 -1.783 0
M  V30 5489 H 498.852 6.03062 -0.956511 0
M  V30 5490 H 500.266 4.92225 -2.93917 0
M  V30 5491 H 498.663 4.72118 -3.70438 0
M  V30 5492 H 499.733 3.31765 -3.53638 0
M  V30 5493 N 501.076 1.04316 1.18135 0
M  V30 5494 C 502.322 0.749128 1.88457 0
M  V30 5495 C 502.655 -0.72149 1.803 0
M  V30 5496 O 501.93 -1.52676 1.205 0
M  V30 5497 C 502.213 1.21905 3.38838 0
M  V30 5498 C 502.066 2.75195 3.55792 0
M  V30 5499 C 503.385 0.811085 4.32561 0
M  V30 5500 H 500.504 0.273611 0.684329 0
M  V30 5501 H 503.146 1.29561 1.38975 0
M  V30 5502 H 501.296 0.754137 3.8111 0
M  V30 5503 H 502.968 3.29743 3.22595 0
M  V30 5504 H 501.211 3.14899 2.98364 0
M  V30 5505 H 501.882 3.03135 4.61317 0
M  V30 5506 H 504.358 1.21118 3.98082 0
M  V30 5507 H 503.234 1.16761 5.36338 0
M  V30 5508 H 503.495 -0.285596 4.41177 0
M  V30 5509 N 502.554 -1.34406 0.822964 0
M  V30 5510 C 503.779 -2.0304 0.423034 0
M  V30 5511 C 504.204 -1.61568 -0.963196 0
M  V30 5512 O 503.562 -0.800339 -1.62678 0
M  V30 5513 C 503.61 -3.56636 0.53321 0
M  V30 5514 O 502.714 -4.09971 -0.446939 0
M  V30 5515 H 502.055 -0.64075 0.174171 0
M  V30 5516 H 504.585 -1.71653 1.11339 0
M  V30 5517 H 504.595 -4.05945 0.408991 0
M  V30 5518 H 503.27 -3.86168 1.54425 0
M  V30 5519 H 501.847 -3.71835 -0.281601 0
M  V30 5520 N 504.032 -0.577932 -1.46621 0
M  V30 5521 C 505.26 -0.0671642 -2.06791 0
M  V30 5522 C 505.675 1.23571 -1.42743 0
M  V30 5523 O 505.032 1.74602 -0.531062 0
M  V30 5524 C 505.083 0.110357 -3.61332 0
M  V30 5525 O 504.804 -1.14095 -4.22982 0
M  V30 5526 C 506.305 0.656025 -4.38419 0
M  V30 5527 H 503.525 -0.0552732 -0.66872 0
M  V30 5528 H 506.069 -0.797242 -1.8832 0
M  V30 5529 H 504.224 0.790637 -3.79246 0
M  V30 5530 H 504.638 -0.951742 -5.15793 0
M  V30 5531 H 506.112 0.729438 -5.47159 0
M  V30 5532 H 506.589 1.67195 -4.06131 0
M  V30 5533 H 507.195 0.0107692 -4.25299 0
M  V30 5534 N 505.51 1.54411 -0.315457 0
M  V30 5535 C 506.926 1.59556 0.037464 0
M  V30 5536 C 507.126 1.33217 1.5118 0
M  V30 5537 O 506.182 1.11264 2.26664 0
M  V30 5538 C 507.495 2.98372 -0.373477 0
M  V30 5539 C 509.043 3.11324 -0.323452 0
M  V30 5540 C 509.518 4.52472 -0.709433 0
M  V30 5541 N 511.009 4.58437 -0.662524 0
M  V30 5542 C 511.744 5.65751 -0.933474 0
M  V30 5543 N 511.24 6.81039 -1.27114 0
M  V30 5544 N 513.033 5.55489 -0.859573 0
M  V30 5545 H 505.184 1.6979 -1.27614 0
M  V30 5546 H 507.447 0.793732 -0.518356 0
M  V30 5547 H 507.153 3.22618 -1.40037 0
M  V30 5548 H 507.027 3.76264 0.265615 0
M  V30 5549 H 509.414 2.86818 0.694223 0
M  V30 5550 H 509.495 2.35555 -0.997367 0
M  V30 5551 H 509.139 4.7771 -1.72498 0
M  V30 5552 H 509.069 5.26598 -0.0132923 0
M  V30 5553 H 511.56 3.75636 -0.413065 0
M  V30 5554 H 511.873 7.58816 -1.46348 0
M  V30 5555 H 510.218 6.82555 -1.30932 0
M  V30 5556 H 513.409 4.64299 -0.595324 0
M  V30 5557 H 513.582 6.39036 -1.0741 0
M  V30 5558 N 506.988 0.0434614 1.5754 0
M  V30 5559 C 507.938 -0.943039 2.07583 0
M  V30 5560 C 508.922 -1.27662 0.979342 0
M  V30 5561 O 510.114 -1.26034 1.24276 0
M  V30 5562 C 507.243 -2.22056 2.61813 0
M  V30 5563 C 506.329 -1.91471 3.78417 0
M  V30 5564 N 506.72 -1.31214 4.88484 0
M  V30 5565 C 505.018 -2.21384 3.87176 0
M  V30 5566 C 505.719 -1.18084 5.69588 0
M  V30 5567 N 504.695 -1.68116 5.16951 0
M  V30 5568 H 508.497 -0.472354 2.90079 0
M  V30 5569 H 506.011 -0.161191 1.61598 0
M  V30 5570 H 508.008 -2.93618 2.95963 0
M  V30 5571 H 506.668 -2.69738 1.80752 0
M  V30 5572 H 507.679 -0.985318 5.08441 0
M  V30 5573 H 504.356 -2.7164 3.17046 0
M  V30 5574 H 505.746 -0.713684 6.68099 0
M  V30 5575 N 508.466 -1.55915 -0.229846 0
M  V30 5576 C 509.696 -1.82352 -0.971152 0
M  V30 5577 C 510.104 -0.619231 -1.7878 0
M  V30 5578 O 509.447 0.421597 -1.78797 0
M  V30 5579 C 509.509 -3.02399 -1.9441 0
M  V30 5580 C 509.173 -4.37739 -1.31277 0
M  V30 5581 C 510.17 -5.15074 -0.706757 0
M  V30 5582 C 507.855 -4.84454 -1.32702 0
M  V30 5583 C 509.849 -6.37281 -0.123413 0
M  V30 5584 C 507.536 -6.06605 -0.739831 0
M  V30 5585 C 508.534 -6.82858 -0.139071 0
M  V30 5586 O 508.222 -8.027 0.439007 0
M  V30 5587 H 507.954 -0.61035 -0.290601 0
M  V30 5588 H 510.508 -2.03839 -0.252746 0
M  V30 5589 H 508.738 -2.76709 -2.70128 0
M  V30 5590 H 510.427 -3.15779 -2.55026 0
M  V30 5591 H 511.193 -4.80093 -0.688131 0
M  V30 5592 H 507.072 -4.25081 -1.78402 0
M  V30 5593 H 510.616 -6.96741 0.346124 0
M  V30 5594 H 506.513 -6.4106 -0.755841 0
M  V30 5595 H 507.281 -8.17824 0.332521 0
M  V30 5596 N 509.944 0.496216 -1.49584 0
M  V30 5597 C 511.36 0.827814 -1.36453 0
M  V30 5598 C 511.56 1.97464 -0.401285 0
M  V30 5599 O 510.616 2.51958 0.165296 0
M  V30 5600 C 511.929 1.16352 -2.77277 0
M  V30 5601 C 513.477 1.27145 -2.86013 0
M  V30 5602 C 513.952 1.64042 -4.27615 0
M  V30 5603 N 515.443 1.71082 -4.30448 0
M  V30 5604 C 516.178 2.01085 -5.36984 0
M  V30 5605 N 515.674 2.2928 -6.5376 0
M  V30 5606 N 517.467 2.02376 -5.24405 0
M  V30 5607 H 509.618 -0.259947 -2.10803 0
M  V30 5608 H 511.881 -0.0537163 -0.946477 0
M  V30 5609 H 511.587 0.394153 -3.49484 0
M  V30 5610 H 511.461 2.10582 -3.12946 0
M  V30 5611 H 513.848 2.03152 -2.1404 0
M  V30 5612 H 513.929 0.309542 -2.5392 0
M  V30 5613 H 513.573 0.88583 -5.00115 0
M  V30 5614 H 513.503 2.6134 -4.57175 0
M  V30 5615 H 515.994 1.51434 -3.46232 0
M  V30 5616 H 516.307 2.51376 -7.30774 0
M  V30 5617 H 514.652 2.26726 -6.56978 0
M  V30 5618 H 517.843 1.79829 -4.32179 0
M  V30 5619 H 518.016 2.25425 -6.07526 0
M  V30 5620 N 511.423 1.38739 0.74761 0
M  V30 5621 C 512.386 1.36241 1.84312 0
M  V30 5622 C 513.386 0.261811 1.58654 0
M  V30 5623 O 514.576 0.519031 1.66288 0
M  V30 5624 C 511.708 1.12253 3.21888 0
M  V30 5625 H 512.901 2.33712 1.87933 0
M  V30 5626 H 510.454 1.2412 0.949946 0
M  V30 5627 H 511.189 0.154133 3.23934 0
M  V30 5628 H 510.974 1.91943 3.41907 0
M  V30 5629 H 512.464 1.13215 4.0196 0
M  V30 5630 N 512.901 -0.976442 1.23707 0
M  V30 5631 C 514.312 -1.53284 1.06587 0
M  V30 5632 C 514.663 -1.92765 -0.365526 0
M  V30 5633 O 513.788 -1.7645 -1.25277 0
M  V30 5634 C 514.383 -2.78548 1.92864 0
M  V30 5635 C 512.942 -3.30574 1.79994 0
M  V30 5636 C 512.089 -2.03538 1.88328 0
M  V30 5637 H 515.04 -0.795692 1.37311 0
M  V30 5638 H 515.061 -3.5155 1.45577 0
M  V30 5639 H 514.573 -2.49782 2.97037 0
M  V30 5640 H 512.674 -3.64211 0.786202 0
M  V30 5641 H 512.787 -4.00065 2.636 0
M  V30 5642 H 511.151 -2.17853 1.31954 0
M  V30 5643 H 511.934 -1.77149 2.94063 0
M  V30 5644 N 514.379 -1.04941 -1.1758 0
M  V30 5645 C 515.289 -0.658826 -2.25159 0
M  V30 5646 C 516.305 0.318941 -1.71052 0
M  V30 5647 O 517.481 0.171669 -2.00667 0
M  V30 5648 C 514.546 -0.0369522 -3.4668 0
M  V30 5649 C 513.607 -1.06484 -4.15884 0
M  V30 5650 C 512.84 -0.472551 -5.31604 0
M  V30 5651 O 513.063 0.718736 -5.65854 0
M  V30 5652 O 511.997 -1.20557 -5.89703 0
M  V30 5653 H 515.823 -1.55533 -2.60851 0
M  V30 5654 H 513.408 -0.820819 -1.24832 0
M  V30 5655 H 515.29 0.308784 -4.20267 0
M  V30 5656 H 513.965 0.833238 -3.12792 0
M  V30 5657 H 512.872 -1.46253 -3.44327 0
M  V30 5658 H 514.205 -1.9061 -4.53794 0
M  V30 5659 N 515.857 1.33968 -0.830081 0
M  V30 5660 C 517.103 1.98357 -0.422191 0
M  V30 5661 C 517.436 1.65633 1.01387 0
M  V30 5662 O 516.711 0.931648 1.70735 0
M  V30 5663 C 516.994 3.54492 -0.633043 0
M  V30 5664 C 516.847 3.96934 -2.11574 0
M  V30 5665 C 518.166 4.40039 -0.0735584 0
M  V30 5666 H 515.285 0.720544 -0.154871 0
M  V30 5667 H 517.927 1.58749 -1.04397 0
M  V30 5668 H 516.077 3.88361 -0.103775 0
M  V30 5669 H 517.749 3.73363 -2.7092 0
M  V30 5670 H 515.992 3.46984 -2.60354 0
M  V30 5671 H 516.663 5.05651 -2.21406 0
M  V30 5672 H 519.139 4.12764 -0.52585 0
M  V30 5673 H 518.015 5.48327 -0.250841 0
M  V30 5674 H 518.276 4.30124 1.02202 0
M  V30 5675 N 517.335 0.585699 1.46312 0
M  V30 5676 C 518.584 0.0701192 2.01578 0
M  V30 5677 C 518.897 -1.29889 1.46247 0
M  V30 5678 O 520.103 -1.90598 1.93351 0
M  V30 5679 C 518.559 0.0747499 3.59822 0
M  V30 5680 C 518.167 1.44226 4.24149 0
M  V30 5681 C 519.911 -0.38673 4.22735 0
M  V30 5682 C 517.818 1.40446 5.74481 0
M  V30 5683 H 516.748 0.0224441 0.753666 0
M  V30 5684 H 519.399 0.737789 1.68015 0
M  V30 5685 H 517.781 -0.659144 3.90476 0
M  V30 5686 H 518.955 2.19612 4.05101 0
M  V30 5687 H 517.27 1.84401 3.73343 0
M  V30 5688 H 519.867 -0.433853 5.32937 0
M  V30 5689 H 520.21 -1.40489 3.91878 0
M  V30 5690 H 520.743 0.293195 3.96718 0
M  V30 5691 H 517.482 2.39952 6.10003 0
M  V30 5692 H 517.002 0.692845 5.95785 0
M  V30 5693 H 518.681 1.11865 6.37256 0
M  V30 5694 N 518.813 -1.54241 0.323641 0
M  V30 5695 C 519.743 -2.27289 -0.534993 0
M  V30 5696 C 520.724 -1.28087 -1.11927 0
M  V30 5697 O 521.909 -1.56899 -1.14439 0
M  V30 5698 C 519.039 -3.03075 -1.69596 0
M  V30 5699 C 517.993 -4.09614 -1.24098 0
M  V30 5700 C 517.319 -4.73242 -2.4889 0
M  V30 5701 C 518.619 -5.21087 -0.355789 0
M  V30 5702 H 520.313 -2.99308 0.0743257 0
M  V30 5703 H 517.859 -1.43952 0.0371874 0
M  V30 5704 H 519.812 -3.52907 -2.30293 0
M  V30 5705 H 518.536 -2.28673 -2.33187 0
M  V30 5706 H 517.195 -3.60666 -0.656945 0
M  V30 5707 H 516.843 -3.95455 -3.10845 0
M  V30 5708 H 516.543 -5.45209 -2.19138 0
M  V30 5709 H 518.067 -5.25848 -3.10348 0
M  V30 5710 H 519.481 -5.66675 -0.869042 0
M  V30 5711 H 517.878 -5.9991 -0.151045 0
M  V30 5712 H 518.948 -4.81005 0.613339 0
M  V30 5713 N 520.291 -0.0518155 -1.57515 0
M  V30 5714 C 521.254 0.907547 -2.10467 0
M  V30 5715 C 522.254 1.23947 -1.02439 0
M  V30 5716 O 523.444 1.17604 -1.2851 0
M  V30 5717 C 520.576 2.21723 -2.58944 0
M  V30 5718 H 521.769 0.44851 -2.96527 0
M  V30 5719 H 519.322 0.196598 -1.55059 0
M  V30 5720 H 520.057 2.72206 -1.76279 0
M  V30 5721 H 519.842 1.98935 -3.37886 0
M  V30 5722 H 521.332 2.90441 -3.00056 0
M  V30 5723 N 521.769 1.56035 0.221574 0
M  V30 5724 C 522.699 1.95434 1.2778 0
M  V30 5725 C 523.68 0.822564 1.48889 0
M  V30 5726 O 524.865 1.08486 1.61072 0
M  V30 5727 C 521.995 2.27102 2.62759 0
M  V30 5728 C 520.949 3.4277 2.56306 0
M  V30 5729 C 520.275 3.60043 3.95314 0
M  V30 5730 C 521.575 4.77742 2.11093 0
M  V30 5731 H 523.269 2.83912 0.950504 0
M  V30 5732 H 520.815 1.36596 0.455791 0
M  V30 5733 H 522.768 2.53256 3.36807 0
M  V30 5734 H 521.492 1.35478 2.97176 0
M  V30 5735 H 520.151 3.16664 1.84715 0
M  V30 5736 H 519.799 2.65794 4.27039 0
M  V30 5737 H 519.499 4.37841 3.91879 0
M  V30 5738 H 521.023 3.88545 4.71025 0
M  V30 5739 H 522.437 5.03102 2.74885 0
M  V30 5740 H 520.834 5.58823 2.18716 0
M  V30 5741 H 521.904 4.731 1.06321 0
M  V30 5742 N 523.247 -0.488276 1.49845 0
M  V30 5743 C 524.495 -1.23911 1.59657 0
M  V30 5744 C 524.816 -1.92816 0.291005 0
M  V30 5745 O 524.086 -1.83328 -0.690485 0
M  V30 5746 H 522.666 -0.460357 0.588286 0
M  V30 5747 H 525.328 -0.564794 1.86537 0
M  V30 5748 H 524.424 -1.99625 2.39909 0
M  V30 5749 N 524.725 -1.39134 -0.740242 0
M  V30 5750 C 525.971 -1.37278 -1.50088 0
M  V30 5751 C 526.326 0.0329967 -1.92372 0
M  V30 5752 O 525.619 0.998447 -1.63529 0
M  V30 5753 C 525.813 -2.27457 -2.75678 0
M  V30 5754 C 525.642 -3.76662 -2.45674 0
M  V30 5755 C 524.412 -4.45617 -2.38229 0
M  V30 5756 C 526.61 -4.6877 -2.11563 0
M  V30 5757 N 524.592 -5.80187 -2.00641 0
M  V30 5758 C 525.963 -5.91951 -1.84376 0
M  V30 5759 C 528.018 -4.56843 -1.97987 0
M  V30 5760 C 526.721 -7.04538 -1.4498 0
M  V30 5761 C 528.747 -5.69347 -1.59994 0
M  V30 5762 C 528.109 -6.91597 -1.33687 0
M  V30 5763 H 524.208 -0.557611 -0.548265 0
M  V30 5764 H 526.792 -1.74638 -0.860784 0
M  V30 5765 H 524.963 -1.92263 -3.37475 0
M  V30 5766 H 526.695 -2.16631 -3.41838 0
M  V30 5767 H 523.45 -3.98993 -2.5515 0
M  V30 5768 H 523.874 -6.51387 -1.84454 0
M  V30 5769 H 528.516 -3.62868 -2.16995 0
M  V30 5770 H 526.234 -7.98419 -1.24712 0
M  V30 5771 H 529.82 -5.62104 -1.50102 0
M  V30 5772 H 528.7 -7.77176 -1.04728 0
M  V30 5773 N 526.204 0.969867 -1.24223 0
M  V30 5774 C 527.429 1.75289 -1.10853 0
M  V30 5775 C 527.854 1.85091 0.335079 0
M  V30 5776 O 527.212 1.32024 1.24255 0
M  V30 5777 C 527.26 3.15255 -1.75062 0
M  V30 5778 O 526.364 3.99589 -1.01992 0
M  V30 5779 H 525.705 0.538904 -0.387915 0
M  V30 5780 H 528.235 1.21675 -1.64488 0
M  V30 5781 H 528.245 3.65787 -1.80731 0
M  V30 5782 H 526.92 3.07436 -2.801 0
M  V30 5783 H 525.497 3.58077 -1.04094 0
M  V30 5784 N 527.682 1.05563 1.17022 0
M  V30 5785 C 528.614 0.617888 2.20714 0
M  V30 5786 C 529.627 -0.320303 1.59618 0
M  V30 5787 O 530.816 -0.112449 1.78145 0
M  V30 5788 C 527.916 -0.115333 3.38704 0
M  V30 5789 C 527.089 0.834493 4.29366 0
M  V30 5790 C 526.148 0.141855 5.26009 0
M  V30 5791 O 525.174 0.777151 5.6387 0
M  V30 5792 N 526.376 -1.11934 5.69606 0
M  V30 5793 H 529.141 1.50981 2.58892 0
M  V30 5794 H 526.702 0.938008 1.31958 0
M  V30 5795 H 528.694 -0.588918 4.00392 0
M  V30 5796 H 527.264 -0.908967 2.99093 0
M  V30 5797 H 526.484 1.48762 3.65053 0
M  V30 5798 H 527.772 1.4791 4.86827 0
M  V30 5799 H 527.17 -1.65574 5.40927 0
M  V30 5800 H 525.727 -1.53692 6.33421 0
M  V30 5801 N 529.16 -1.33526 0.837174 0
M  V30 5802 C 530.571 -1.80182 0.489017 0
M  V30 5803 C 530.922 -1.69285 -0.991826 0
M  V30 5804 O 530.047 -1.24113 -1.77271 0
M  V30 5805 C 530.642 -3.27149 0.880866 0
M  V30 5806 C 529.201 -3.71828 0.584872 0
M  V30 5807 C 528.348 -2.54974 1.09011 0
M  V30 5808 H 531.299 -1.21071 1.02603 0
M  V30 5809 H 531.32 -3.80024 0.190239 0
M  V30 5810 H 530.832 -3.35048 1.95869 0
M  V30 5811 H 528.933 -3.69457 -0.48295 0
M  V30 5812 H 529.046 -4.65366 1.13892 0
M  V30 5813 H 527.41 -2.4952 0.511047 0
M  V30 5814 H 528.193 -2.65637 2.17467 0
M  V30 5815 N 530.638 -0.59345 -1.46 0
M  V30 5816 C 531.878 -0.0859747 -2.04219 0
M  V30 5817 C 532.242 1.25432 -1.45364 0
M  V30 5818 O 533.443 1.85168 -1.9485 0
M  V30 5819 C 531.714 -0.0324314 -3.57385 0
M  V30 5820 S 533.273 0.415908 -4.36824 0
M  V30 5821 H 530.091 -0.0426872 -0.709717 0
M  V30 5822 H 532.693 -0.788369 -1.78899 0
M  V30 5823 H 531.397 -1.01166 -3.97735 0
M  V30 5824 H 530.928 0.6924 -3.87259 0
M  V30 5825 H 532.943 1.66844 -4.67309 0
M  V30 5826 N 532.116 1.54067 -0.331816 0
M  V30 5827 C 533.393 1.92915 0.322955 0
M  V30 5828 C 533.773 1.26225 1.69205 0
M  V30 5829 O 533.121 0.408919 2.24811 0
M  V30 5830 C 533.331 3.46619 0.406946 0
M  V30 5831 C 534.679 4.19386 0.663339 0
M  V30 5832 O 535.703 3.5282 0.489536 0
M  V30 5833 O 534.562 5.37288 0.999193 0
M  V30 5834 H 531.656 0.805808 0.186016 0
M  V30 5835 H 534.202 1.65342 -0.382135 0
M  V30 5836 H 532.974 3.87354 -0.554287 0
M  V30 5837 H 532.597 3.80324 1.15929 0
M  V30 5838 N 533.594 0.0601682 1.57485 0
M  V30 5839 C 534.84 -0.612501 1.93329 0
M  V30 5840 C 535.173 -1.6996 0.939526 0
M  V30 5841 O 534.448 -1.94472 -0.0330957 0
M  V30 5842 C 534.731 -1.20025 3.39508 0
M  V30 5843 C 534.584 -0.12059 4.49638 0
M  V30 5844 C 535.903 -2.10923 3.86264 0
M  V30 5845 H 533.022 -0.221185 0.703027 0
M  V30 5846 H 535.664 0.123768 1.89596 0
M  V30 5847 H 533.814 -1.82774 3.42821 0
M  V30 5848 H 535.486 0.51185 4.58452 0
M  V30 5849 H 533.729 0.550251 4.30296 0
M  V30 5850 H 534.4 -0.572019 5.49028 0
M  V30 5851 H 536.876 -1.58124 3.84884 0
M  V30 5852 H 535.752 -2.48987 4.8918 0
M  V30 5853 H 536.013 -3.01292 3.23536 0
M  V30 5854 N 535.072 -1.5615 -0.213296 0
M  V30 5855 C 536.318 -1.80718 -0.933402 0
M  V30 5856 C 536.673 -0.634441 -1.81639 0
M  V30 5857 O 535.966 0.371182 -1.8797 0
M  V30 5858 C 536.16 -3.08772 -1.79985 0
M  V30 5859 C 535.989 -4.38389 -1.00224 0
M  V30 5860 C 534.759 -5.00513 -0.693885 0
M  V30 5861 C 536.957 -5.13013 -0.363598 0
M  V30 5862 N 534.939 -6.13774 0.124266 0
M  V30 5863 C 536.31 -6.19186 0.31757 0
M  V30 5864 C 538.365 -4.97126 -0.277468 0
M  V30 5865 C 537.068 -7.11197 1.07664 0
M  V30 5866 C 539.094 -5.89544 0.468155 0
M  V30 5867 C 538.456 -6.95149 1.13784 0
M  V30 5868 H 534.555 -0.712833 -0.321549 0
M  V30 5869 H 537.139 -1.93633 -0.203588 0
M  V30 5870 H 535.31 -2.97126 -2.50142 0
M  V30 5871 H 537.042 -3.21499 -2.45806 0
M  V30 5872 H 533.797 -4.62619 -1.01391 0
M  V30 5873 H 534.221 -6.74981 0.522418 0
M  V30 5874 H 538.863 -4.15526 -0.78087 0
M  V30 5875 H 536.581 -7.92273 1.59153 0
M  V30 5876 H 540.167 -5.79327 0.535911 0
M  V30 5877 H 539.047 -7.65428 1.70557 0
M  V30 5878 N 536.55 0.480323 -1.50102 0
M  V30 5879 C 537.775 1.26126 -1.64642 0
M  V30 5880 C 538.2 1.85257 -0.325823 0
M  V30 5881 O 537.558 1.66854 0.709194 0
M  V30 5882 C 537.606 2.35243 -2.73301 0
M  V30 5883 O 536.71 3.39646 -2.33911 0
M  V30 5884 H 536.051 0.371463 -0.550374 0
M  V30 5885 H 538.581 0.572696 -1.96421 0
M  V30 5886 H 538.591 2.80695 -2.96098 0
M  V30 5887 H 537.266 1.91574 -3.6915 0
M  V30 5888 H 535.843 2.99969 -2.21525 0
M  V30 5889 N 538.028 1.39524 0.732853 0
M  V30 5890 C 539.277 1.36175 1.48792 0
M  V30 5891 C 539.59 -0.0388195 1.95561 0
M  V30 5892 O 540.796 -0.194899 2.708 0
M  V30 5893 C 539.252 2.39242 2.68871 0
M  V30 5894 C 538.86 3.85024 2.29042 0
M  V30 5895 C 540.604 2.44972 3.46683 0
M  V30 5896 C 538.511 4.79727 3.45856 0
M  V30 5897 H 537.441 0.506267 0.558757 0
M  V30 5898 H 540.092 1.65181 0.799226 0
M  V30 5899 H 538.474 2.0331 3.39825 0
M  V30 5900 H 539.648 4.30008 1.6562 0
M  V30 5901 H 537.963 3.82609 1.64316 0
M  V30 5902 H 540.56 3.12918 4.33574 0
M  V30 5903 H 540.903 1.4749 3.89297 0
M  V30 5904 H 541.436 2.79808 2.82759 0
M  V30 5905 H 538.175 5.78479 3.08289 0
M  V30 5906 H 537.695 4.39421 4.08251 0
M  V30 5907 H 539.374 4.98731 4.12161 0
M  V30 5908 N 539.506 -0.963266 1.24736 0
M  V30 5909 C 540.754 -1.70343 1.08755 0
M  V30 5910 C 541.075 -1.91387 -0.373619 0
M  V30 5911 O 540.345 -1.4948 -1.2662 0
M  V30 5912 H 538.925 -0.631224 0.399456 0
M  V30 5913 H 541.587 -1.15859 1.56725 0
M  V30 5914 H 540.683 -2.68616 1.58909 0
M  V30 5915 N 540.985 -1.06182 -1.16461 0
M  V30 5916 C 542.225 -0.787048 -1.8864 0
M  V30 5917 C 542.589 0.674093 -1.79778 0
M  V30 5918 O 543.79 1.06341 -2.46871 0
M  V30 5919 C 542.061 -1.2666 -3.34203 0
M  V30 5920 S 543.62 -1.12071 -4.24247 0
M  V30 5921 H 540.438 -0.285539 -0.651144 0
M  V30 5922 H 543.04 -1.35851 -1.40587 0
M  V30 5923 H 541.744 -2.32496 -3.38192 0
M  V30 5924 H 541.275 -0.689841 -3.87304 0
M  V30 5925 H 543.29 -0.0509341 -4.96174 0
M  V30 5926 N 542.463 1.3308 -0.844243 0
M  V30 5927 C 543.712 1.96868 -0.438833 0
M  V30 5928 C 544.025 1.67599 1.00846 0
M  V30 5929 O 545.231 2.25043 1.51881 0
M  V30 5930 C 543.687 3.5234 -0.73377 0
M  V30 5931 C 543.295 3.90481 -2.1961 0
M  V30 5932 C 545.039 4.22653 -0.395574 0
M  V30 5933 C 542.946 5.38954 -2.43481 0
M  V30 5934 H 541.876 0.736749 -0.160364 0
M  V30 5935 H 544.527 1.51623 -1.03358 0
M  V30 5936 H 542.909 3.95941 -0.068589 0
M  V30 5937 H 544.083 3.57922 -2.90221 0
M  V30 5938 H 542.398 3.33165 -2.4978 0
M  V30 5939 H 544.995 5.31848 -0.551477 0
M  V30 5940 H 545.338 4.11004 0.661921 0
M  V30 5941 H 545.871 3.84601 -1.01621 0
M  V30 5942 H 542.61 5.55612 -3.47816 0
M  V30 5943 H 542.13 5.72954 -1.77437 0
M  V30 5944 H 543.809 6.05907 -2.26905 0
M  V30 5945 N 543.941 0.601185 1.45683 0
M  V30 5946 C 544.871 -0.108824 2.33246 0
M  V30 5947 C 545.852 -0.865223 1.46451 0
M  V30 5948 O 547.037 -0.83704 1.75235 0
M  V30 5949 C 544.167 -1.11101 3.2905 0
M  V30 5950 C 543.121 -0.468244 4.25431 0
M  V30 5951 C 542.447 -1.57822 5.10878 0
M  V30 5952 C 543.747 0.606469 5.18767 0
M  V30 5953 H 545.441 0.622306 2.92861 0
M  V30 5954 H 542.987 0.300714 1.40825 0
M  V30 5955 H 544.94 -1.61622 3.89174 0
M  V30 5956 H 543.664 -1.87265 2.67581 0
M  V30 5957 H 542.323 0.0160484 3.66596 0
M  V30 5958 H 541.971 -2.32998 4.45781 0
M  V30 5959 H 541.671 -1.15369 5.76163 0
M  V30 5960 H 543.195 -2.08583 5.73869 0
M  V30 5961 H 544.609 0.185589 5.73 0
M  V30 5962 H 543.006 0.952381 5.92494 0
M  V30 5963 H 544.076 1.48559 4.61582 0
M  V30 5964 N 545.419 -1.53889 0.339982 0
M  V30 5965 C 546.668 -2.00035 -0.258604 0
M  V30 5966 C 546.981 -1.23179 -1.51942 0
M  V30 5967 O 548.187 -1.59784 -2.19503 0
M  V30 5968 C 546.643 -3.56249 -0.511359 0
M  V30 5969 C 546.251 -4.41957 0.733349 0
M  V30 5970 C 547.995 -4.1082 -1.069 0
M  V30 5971 C 545.902 -5.89673 0.451591 0
M  V30 5972 H 544.832 -0.747284 -0.10041 0
M  V30 5973 H 547.483 -1.77776 0.454758 0
M  V30 5974 H 545.865 -3.7456 -1.28533 0
M  V30 5975 H 547.039 -4.35421 1.50815 0
M  V30 5976 H 545.354 -3.9836 1.21237 0
M  V30 5977 H 547.951 -5.18789 -1.2947 0
M  V30 5978 H 548.294 -3.63817 -2.02343 0
M  V30 5979 H 548.827 -3.96205 -0.355817 0
M  V30 5980 H 545.566 -6.40903 1.37565 0
M  V30 5981 H 545.086 -5.99122 -0.285193 0
M  V30 5982 H 546.765 -6.46965 0.0675067 0
M  V30 5983 N 546.897 -0.0685191 -1.57451 0
M  V30 5984 C 547.807 0.914677 -2.16034 0
M  V30 5985 C 548.823 1.32938 -1.12265 0
M  V30 5986 O 549.999 1.40275 -1.44516 0
M  V30 5987 C 547.064 2.16519 -2.70777 0
M  V30 5988 C 546.125 1.80721 -3.89408 0
M  V30 5989 C 545.358 2.9981 -4.41531 0
M  V30 5990 O 545.581 4.13727 -3.92666 0
M  V30 5991 O 544.515 2.79817 -5.32903 0
M  V30 5992 H 548.341 0.446364 -3.00402 0
M  V30 5993 H 545.926 0.154367 -1.486 0
M  V30 5994 H 547.808 2.89856 -3.05878 0
M  V30 5995 H 546.483 2.62454 -1.89471 0
M  V30 5996 H 545.39 1.04646 -3.59166 0
M  V30 5997 H 546.723 1.39571 -4.71997 0
M  V30 5998 N 548.375 1.56261 0.205012 0
M  V30 5999 C 549.605 1.83874 0.942018 0
M  V30 6000 C 550.013 0.647595 1.77772 0
M  V30 6001 O 549.356 -0.393098 1.79445 0
M  V30 6002 C 549.418 3.05453 1.89575 0
M  V30 6003 C 549.082 4.39772 1.24296 0
M  V30 6004 C 550.079 5.16133 0.624724 0
M  V30 6005 C 547.764 4.86504 1.24978 0
M  V30 6006 C 549.758 6.37396 0.0220117 0
M  V30 6007 C 547.445 6.07705 0.643232 0
M  V30 6008 C 548.443 6.82993 0.0304164 0
M  V30 6009 O 548.131 8.019 -0.566654 0
M  V30 6010 H 547.863 0.614896 0.280854 0
M  V30 6011 H 550.417 2.04215 0.220285 0
M  V30 6012 H 548.647 2.80972 2.65691 0
M  V30 6013 H 550.336 3.19797 2.4997 0
M  V30 6014 H 551.102 4.81127 0.611666 0
M  V30 6015 H 546.981 4.27865 1.71616 0
M  V30 6016 H 550.525 6.96102 -0.456926 0
M  V30 6017 H 546.422 6.42181 0.653759 0
M  V30 6018 H 547.19 8.17192 -0.462588 0
M  V30 6019 N 549.853 -0.472356 1.50355 0
M  V30 6020 C 551.083 -1.24603 1.64796 0
M  V30 6021 C 551.491 -1.86297 0.330156 0
M  V30 6022 O 550.834 -1.69934 -0.697728 0
M  V30 6023 C 550.896 -2.39578 2.68035 0
M  V30 6024 C 550.56 -1.98531 4.11624 0
M  V30 6025 C 551.557 -1.50856 4.97532 0
M  V30 6026 C 549.242 -2.0729 4.57532 0
M  V30 6027 C 551.236 -1.12481 6.27397 0
M  V30 6028 C 548.923 -1.68527 5.87403 0
M  V30 6029 C 549.921 -1.212 6.7216 0
M  V30 6030 O 549.609 -0.829728 7.99607 0
M  V30 6031 H 549.341 -0.383035 0.55701 0
M  V30 6032 H 551.895 -0.570392 1.97321 0
M  V30 6033 H 550.125 -3.10309 2.30749 0
M  V30 6034 H 551.814 -3.01544 2.71709 0
M  V30 6035 H 552.58 -1.43511 4.63281 0
M  V30 6036 H 548.459 -2.43076 3.91708 0
M  V30 6037 H 552.003 -0.754698 6.93506 0
M  V30 6038 H 547.9 -1.7553 6.21176 0
M  V30 6039 H 548.668 -0.958689 8.12866 0
M  V30 6040 N 551.331 -1.39911 -0.725443 0
M  V30 6041 C 552.261 -1.42138 -1.85254 0
M  V30 6042 C 553.242 -0.283513 -1.67721 0
M  V30 6043 O 554.427 -0.490717 -1.87898 0
M  V30 6044 C 551.557 -1.27354 -3.23107 0
M  V30 6045 C 550.511 -2.3864 -3.55296 0
M  V30 6046 C 549.837 -2.08939 -4.92188 0
M  V30 6047 C 551.137 -3.8097 -3.57295 0
M  V30 6048 H 552.831 -2.36461 -1.83648 0
M  V30 6049 H 550.377 -1.13817 -0.882138 0
M  V30 6050 H 552.33 -1.2753 -4.01639 0
M  V30 6051 H 551.054 -0.295025 -3.25265 0
M  V30 6052 H 549.713 -2.37696 -2.79099 0
M  V30 6053 H 549.361 -1.09502 -4.90936 0
M  V30 6054 H 549.061 -2.83491 -5.14691 0
M  V30 6055 H 550.585 -2.10781 -5.73065 0
M  V30 6056 H 551.999 -3.8379 -4.25885 0
M  V30 6057 H 550.396 -4.5496 -3.9132 0
M  V30 6058 H 551.466 -4.11261 -2.5689 0
M  V30 6059 N 552.809 0.956637 -1.25245 0
M  V30 6060 C 554.057 1.69764 -1.09657 0
M  V30 6061 C 554.378 1.91583 0.363464 0
M  V30 6062 O 553.648 1.50149 1.25825 0
M  V30 6063 H 552.228 0.629097 -0.402798 0
M  V30 6064 H 554.89 1.15026 -1.57337 0
M  V30 6065 H 553.986 2.67769 -1.60331 0
M  V30 6066 N 554.287 1.06798 1.15896 0
M  V30 6067 C 555.534 0.787767 1.86549 0
M  V30 6068 C 555.862 -0.685959 1.82002 0
M  V30 6069 O 555.117 -1.5188 1.23414 0
M  V30 6070 C 555.416 1.23414 3.35416 0
M  V30 6071 C 555.082 2.71285 3.6016 0
M  V30 6072 C 553.744 3.11676 3.66622 0
M  V30 6073 C 556.096 3.6676 3.7032 0
M  V30 6074 C 553.424 4.4637 3.8075 0
M  V30 6075 C 555.776 5.01209 3.8597 0
M  V30 6076 C 554.44 5.41229 3.90676 0
M  V30 6077 H 553.71 0.288264 0.682631 0
M  V30 6078 H 556.357 1.338 1.37003 0
M  V30 6079 H 554.662 0.60319 3.87129 0
M  V30 6080 H 556.359 0.994298 3.88477 0
M  V30 6081 H 552.949 2.39015 3.55767 0
M  V30 6082 H 557.133 3.36685 3.64633 0
M  V30 6083 H 552.389 4.76855 3.82648 0
M  V30 6084 H 556.563 5.75067 3.92773 0
M  V30 6085 H 554.19 6.45602 4.01375 0
M  V30 6086 N 555.766 -1.3263 0.851289 0
M  V30 6087 C 556.994 -2.01563 0.466899 0
M  V30 6088 C 557.409 -1.63996 -0.935447 0
M  V30 6089 O 556.766 -0.85957 -1.6099 0
M  V30 6090 C 556.817 -3.56613 0.592433 0
M  V30 6091 O 556.538 -3.92828 1.93954 0
M  V30 6092 C 558.039 -4.42818 0.206612 0
M  V30 6093 H 555.259 -0.645307 0.183902 0
M  V30 6094 H 557.803 -1.69285 1.1473 0
M  V30 6095 H 555.958 -3.87379 -0.0401936 0
M  V30 6096 H 556.372 -4.87545 1.9339 0
M  V30 6097 H 557.846 -5.50918 0.345462 0
M  V30 6098 H 558.323 -4.30844 -0.85264 0
M  V30 6099 H 558.929 -4.17434 0.814176 0
M  V30 6100 N 557.244 -0.608902 -1.45362 0
M  V30 6101 C 558.49 -0.104762 -2.02529 0
M  V30 6102 C 558.823 1.26191 -1.47613 0
M  V30 6103 O 558.098 1.8327 -0.65134 0
M  V30 6104 C 558.381 -0.0672661 -3.60037 0
M  V30 6105 C 558.234 -1.4647 -4.25284 0
M  V30 6106 C 559.553 0.619877 -4.35713 0
M  V30 6107 H 556.672 -0.0395438 -0.735938 0
M  V30 6108 H 559.314 -0.781126 -1.73201 0
M  V30 6109 H 557.464 0.50871 -3.85155 0
M  V30 6110 H 559.136 -2.08785 -4.11347 0
M  V30 6111 H 557.379 -2.02502 -3.83634 0
M  V30 6112 H 558.05 -1.39069 -5.34195 0
M  V30 6113 H 560.526 0.130297 -4.15896 0
M  V30 6114 H 559.402 0.615224 -5.45441 0
M  V30 6115 H 559.663 1.68621 -4.0868 0
M  V30 6116 N 558.722 1.53707 -0.348139 0
M  V30 6117 C 559.969 2.00988 0.246966 0
M  V30 6118 C 560.297 1.23586 1.50189 0
M  V30 6119 O 559.552 0.312817 1.93184 0
M  V30 6120 C 559.851 3.52292 0.602061 0
M  V30 6121 C 559.517 4.47453 -0.556509 0
M  V30 6122 C 558.179 4.73188 -0.874446 0
M  V30 6123 C 560.531 5.03851 -1.33354 0
M  V30 6124 C 557.859 5.52577 -1.9717 0
M  V30 6125 C 560.211 5.84437 -2.42108 0
M  V30 6126 C 558.875 6.08465 -2.74456 0
M  V30 6127 H 558.145 0.735469 0.0903712 0
M  V30 6128 H 560.792 1.85464 -0.477001 0
M  V30 6129 H 559.097 3.65672 1.40681 0
M  V30 6130 H 560.794 3.86337 1.07447 0
M  V30 6131 H 557.384 4.27558 -0.298652 0
M  V30 6132 H 561.568 4.8393 -1.10117 0
M  V30 6133 H 556.824 5.69418 -2.22651 0
M  V30 6134 H 560.998 6.27151 -3.02745 0
M  V30 6135 H 558.625 6.69768 -3.59604 0
M  V30 6136 N 560.2 0.0768682 1.57412 0
M  V30 6137 C 561.611 -0.455037 1.8107 0
M  V30 6138 C 561.962 -1.69323 0.991162 0
M  V30 6139 O 561.087 -2.15328 0.215156 0
M  V30 6140 C 561.682 -0.832316 3.28417 0
M  V30 6141 C 560.241 -1.30906 3.52903 0
M  V30 6142 C 559.388 -0.296714 2.75708 0
M  V30 6143 H 562.339 0.302514 1.5579 0
M  V30 6144 H 562.36 -1.69333 3.40744 0
M  V30 6145 H 561.872 0.0690532 3.88039 0
M  V30 6146 H 559.973 -2.22875 2.98592 0
M  V30 6147 H 560.086 -1.28348 4.61588 0
M  V30 6148 H 558.45 -0.775059 2.42621 0
M  V30 6149 H 559.233 0.597015 3.38069 0
M  V30 6150 N 561.678 -1.56367 -0.196722 0
M  V30 6151 C 562.906 -1.84639 -0.933608 0
M  V30 6152 C 563.321 -0.659164 -1.76919 0
M  V30 6153 O 562.678 0.372142 -1.78665 0
M  V30 6154 C 562.729 -3.11694 -1.83109 0
M  V30 6155 O 562.45 -4.25838 -1.02924 0
M  V30 6156 C 563.951 -3.53132 -2.67979 0
M  V30 6157 H 561.171 -0.613188 -0.272473 0
M  V30 6158 H 563.715 -2.03475 -0.204465 0
M  V30 6159 H 561.87 -2.94759 -2.51387 0
M  V30 6160 H 562.284 -4.98178 -1.64069 0
M  V30 6161 H 563.758 -4.45005 -3.26611 0
M  V30 6162 H 564.235 -2.76045 -3.41608 0
M  V30 6163 H 564.841 -3.72592 -2.05074 0
M  V30 6164 N 563.156 0.464375 -1.50603 0
M  V30 6165 C 564.106 1.55929 -1.66343 0
M  V30 6166 C 565.09 1.52338 -0.517887 0
M  V30 6167 O 566.282 1.59248 -0.772601 0
M  V30 6168 C 563.411 2.94327 -1.7671 0
M  V30 6169 C 562.497 3.02777 -2.96962 0
M  V30 6170 N 562.888 2.81026 -4.20545 0
M  V30 6171 C 561.186 3.33919 -2.95659 0
M  V30 6172 C 561.887 2.94618 -5.01573 0
M  V30 6173 N 560.863 3.25112 -4.35664 0
M  V30 6174 H 564.665 1.37822 -2.59581 0
M  V30 6175 H 562.179 0.671227 -1.47879 0
M  V30 6176 H 564.176 3.73063 -1.86091 0
M  V30 6177 H 562.836 3.13476 -0.846353 0
M  V30 6178 H 563.847 2.56477 -4.49933 0
M  V30 6179 H 560.524 3.59013 -2.13111 0
M  V30 6180 H 561.914 2.81984 -6.09865 0
M  V30 6181 N 564.634 1.40294 0.718013 0
M  V30 6182 C 565.911 1.2894 1.47084 0
M  V30 6183 C 566.291 -0.0933625 2.10893 0
M  V30 6184 O 565.639 -1.10598 1.99951 0
M  V30 6185 C 565.849 2.4264 2.50852 0
M  V30 6186 C 567.197 2.8276 3.16752 0
M  V30 6187 O 568.221 2.42215 2.61171 0
M  V30 6188 O 567.08 3.528 4.17366 0
M  V30 6189 H 564.174 0.506236 0.653952 0
M  V30 6190 H 566.72 1.52208 0.750394 0
M  V30 6191 H 565.492 3.35009 2.022 0
M  V30 6192 H 565.115 2.21129 3.30435 0
M  V30 6193 N 566.112 -0.949982 1.2575 0
M  V30 6194 C 567.337 -1.73503 1.13628 0
M  V30 6195 C 567.762 -1.85601 -0.30559 0
M  V30 6196 O 567.12 -1.33984 -1.22139 0
M  V30 6197 C 567.168 -3.1243 1.80055 0
M  V30 6198 O 566.272 -3.97916 1.08336 0
M  V30 6199 H 565.613 -0.532665 0.396439 0
M  V30 6200 H 568.143 -1.19043 1.66403 0
M  V30 6201 H 568.153 -3.62866 1.86527 0
M  V30 6202 H 566.828 -3.02941 2.84956 0
M  V30 6203 H 565.405 -3.56375 1.09777 0
M  V30 6204 N 567.59 -1.07411 -1.15328 0
M  V30 6205 C 568.537 -0.694995 -2.20087 0
M  V30 6206 C 569.507 0.313904 -1.63107 0
M  V30 6207 O 570.692 0.200216 -1.89747 0
M  V30 6208 C 567.832 -0.0996218 -3.44956 0
M  V30 6209 C 566.945 -1.16007 -4.16133 0
M  V30 6210 C 566.08 -0.529636 -5.28553 0
M  V30 6211 C 565.119 -1.57283 -5.91548 0
M  V30 6212 N 564.256 -0.964932 -6.95438 0
M  V30 6213 H 569.096 -1.5927 -2.51867 0
M  V30 6214 H 566.633 -0.796115 -1.23695 0
M  V30 6215 H 568.591 0.263197 -4.16369 0
M  V30 6216 H 567.221 0.761435 -3.13691 0
M  V30 6217 H 566.273 -1.64045 -3.4321 0
M  V30 6218 H 567.585 -1.95101 -4.59061 0
M  V30 6219 H 566.739 -0.114487 -6.06592 0
M  V30 6220 H 565.478 0.29307 -4.86819 0
M  V30 6221 H 564.483 -1.99775 -5.12221 0
M  V30 6222 H 565.708 -2.39783 -6.35359 0
M  V30 6223 H 563.654 -0.16314 -6.55797 0
M  V30 6224 H 563.571 -1.69311 -7.36797 0
M  V30 6225 H 564.839 -0.575305 -7.77374 0
M  V30 6226 N 569.068 1.32177 -0.85831 0
M  V30 6227 C 569.978 2.32561 -0.308606 0
M  V30 6228 C 570.994 1.64209 0.575462 0
M  V30 6229 O 572.17 1.95719 0.474961 0
M  V30 6230 C 569.235 3.43207 0.490909 0
M  V30 6231 C 568.296 4.27243 -0.419733 0
M  V30 6232 C 567.529 5.32605 0.341719 0
M  V30 6233 O 567.752 5.48332 1.57125 0
M  V30 6234 O 566.686 6.0118 -0.294379 0
M  V30 6235 H 570.512 2.81477 -1.14037 0
M  V30 6236 H 568.097 1.35866 -0.621349 0
M  V30 6237 H 569.979 4.10677 0.944574 0
M  V30 6238 H 568.654 2.96474 1.29941 0
M  V30 6239 H 567.561 3.62569 -0.921652 0
M  V30 6240 H 568.894 4.7751 -1.19352 0
M  V30 6241 N 570.547 0.616602 1.45037 0
M  V30 6242 C 571.497 -0.118543 2.27692 0
M  V30 6243 C 572.481 -0.830025 1.37838 0
M  V30 6244 O 573.673 -0.718528 1.6176 0
M  V30 6245 C 570.802 -1.10924 3.24886 0
M  V30 6246 C 569.888 -0.398134 4.22227 0
M  V30 6247 N 570.279 0.565233 5.02632 0
M  V30 6248 C 568.577 -0.644506 4.41319 0
M  V30 6249 C 569.278 0.984043 5.73316 0
M  V30 6250 N 568.254 0.325879 5.42622 0
M  V30 6251 H 572.056 0.621239 2.87259 0
M  V30 6252 H 569.57 0.440968 1.56299 0
M  V30 6253 H 571.567 -1.65038 3.82842 0
M  V30 6254 H 570.227 -1.84948 2.66879 0
M  V30 6255 H 571.238 0.942395 5.09254 0
M  V30 6256 H 567.915 -1.36873 3.94426 0
M  V30 6257 H 569.305 1.77911 6.47918 0
M  V30 6258 N 572.025 -1.5352 0.356285 0
M  V30 6259 C 572.955 -2.28372 -0.486661 0
M  V30 6260 C 573.936 -1.30432 -1.09185 0
M  V30 6261 O 575.121 -1.59291 -1.11085 0
M  V30 6262 C 572.251 -3.06604 -1.63129 0
M  V30 6263 C 571.205 -4.12154 -1.15381 0
M  V30 6264 C 570.531 -4.78415 -2.38796 0
M  V30 6265 C 571.831 -5.21724 -0.245179 0
M  V30 6266 H 573.525 -2.99083 0.137797 0
M  V30 6267 H 571.071 -1.43841 0.0677134 0
M  V30 6268 H 573.024 -3.57712 -2.22755 0
M  V30 6269 H 571.748 -2.33568 -2.28284 0
M  V30 6270 H 570.407 -3.61978 -0.580294 0
M  V30 6271 H 570.055 -4.01959 -3.02387 0
M  V30 6272 H 569.755 -5.49734 -2.07524 0
M  V30 6273 H 571.279 -5.32313 -2.99125 0
M  V30 6274 H 572.693 -5.68391 -0.748646 0
M  V30 6275 H 571.09 -6.00095 -0.0237608 0
M  V30 6276 H 572.16 -4.79596 0.715229 0
M  V30 6277 N 573.503 -0.0852151 -1.57369 0
M  V30 6278 C 574.466 0.8627 -2.12344 0
M  V30 6279 C 575.466 1.21746 -1.05046 0
M  V30 6280 O 576.656 1.14852 -1.30976 0
M  V30 6281 C 573.788 2.1618 -2.63589 0
M  V30 6282 H 574.981 0.385511 -2.97412 0
M  V30 6283 H 572.534 0.163663 -1.55441 0
M  V30 6284 H 573.269 2.68406 -1.82013 0
M  V30 6285 H 573.054 1.91723 -3.4203 0
M  V30 6286 H 574.544 2.84011 -3.06149 0
M  V30 6287 N 574.981 1.5647 0.188427 0
M  V30 6288 C 575.914 1.90146 1.26173 0
M  V30 6289 C 576.892 0.762294 1.43624 0
M  V30 6290 O 578.076 1.01395 1.58907 0
M  V30 6291 C 575.203 2.13748 2.62735 0
M  V30 6292 C 574.249 3.36448 2.62116 0
M  V30 6293 S 575.082 4.91364 2.12889 0
M  V30 6294 C 576.238 5.18041 3.51261 0
M  V30 6295 H 576.471 2.80886 0.974192 0
M  V30 6296 H 574.004 1.49335 0.392226 0
M  V30 6297 H 575.962 2.28028 3.41341 0
M  V30 6298 H 574.623 1.23747 2.88696 0
M  V30 6299 H 573.816 3.50109 3.62546 0
M  V30 6300 H 573.418 3.21196 1.91596 0
M  V30 6301 H 575.71 5.0897 4.47164 0
M  V30 6302 H 576.653 6.19764 3.42489 0
M  V30 6303 H 577.061 4.45657 3.46482 0
M  V30 6304 N 576.459 -0.456382 1.50847 0
M  V30 6305 C 577.392 -1.57177 1.65441 0
M  V30 6306 C 578.37 -1.54649 0.502224 0
M  V30 6307 O 579.554 -1.74057 0.723633 0
M  V30 6308 C 576.681 -2.95763 1.65052 0
M  V30 6309 C 575.727 -3.16389 2.86007 0
M  V30 6310 S 576.56 -2.94716 4.47105 0
M  V30 6311 C 577.716 -4.35617 4.49432 0
M  V30 6312 H 577.949 -1.44561 2.59787 0
M  V30 6313 H 575.482 -0.644758 1.40293 0
M  V30 6314 H 577.44 -3.75654 1.65512 0
M  V30 6315 H 576.101 -3.05756 0.719153 0
M  V30 6316 H 575.294 -4.17667 2.82081 0
M  V30 6317 H 574.896 -2.44293 2.8319 0
M  V30 6318 H 577.188 -5.28503 4.239 0
M  V30 6319 H 578.131 -4.44582 5.51137 0
M  V30 6320 H 578.539 -4.18382 3.78967 0
M  V30 6321 N 577.937 -1.40673 -0.710563 0
M  V30 6322 C 578.847 -1.43663 -1.85467 0
M  V30 6323 C 579.863 -0.328721 -1.70867 0
M  V30 6324 O 581.039 -0.574098 -1.93044 0
M  V30 6325 C 578.104 -1.30226 -3.21313 0
M  V30 6326 C 577.165 -2.51204 -3.48131 0
M  V30 6327 C 576.398 -2.38398 -4.77495 0
M  V30 6328 O 576.621 -1.40048 -5.5294 0
M  V30 6329 O 575.555 -3.2787 -5.04762 0
M  V30 6330 H 579.381 -2.40156 -1.859 0
M  V30 6331 H 576.966 -1.22049 -0.861652 0
M  V30 6332 H 578.848 -1.2496 -4.02446 0
M  V30 6333 H 577.523 -0.368419 -3.21597 0
M  V30 6334 H 576.43 -2.62048 -2.66987 0
M  V30 6335 H 577.763 -3.43366 -3.52648 0
M  V30 6336 N 579.415 0.9433 -1.26252 0
M  V30 6337 C 580.831 1.21644 -1.03319 0
M  V30 6338 C 581.031 2.0003 0.242983 0
M  V30 6339 O 580.087 2.33838 0.952688 0
M  V30 6340 C 581.4 1.97978 -2.2633 0
M  V30 6341 C 582.948 2.10978 -2.31209 0
M  V30 6342 C 583.423 2.90713 -3.53907 0
M  V30 6343 N 584.914 2.98287 -3.54371 0
M  V30 6344 C 585.649 3.60406 -4.45976 0
M  V30 6345 N 585.145 4.24043 -5.47868 0
M  V30 6346 N 586.938 3.57658 -4.33633 0
M  V30 6347 H 579.089 0.419221 -2.08222 0
M  V30 6348 H 581.352 0.247995 -0.914988 0
M  V30 6349 H 581.058 1.47788 -3.19142 0
M  V30 6350 H 580.932 2.9865 -2.30408 0
M  V30 6351 H 583.319 2.6036 -1.38913 0
M  V30 6352 H 583.4 1.09575 -2.31143 0
M  V30 6353 H 583.044 2.42018 -4.46531 0
M  V30 6354 H 582.974 3.92367 -3.5122 0
M  V30 6355 H 585.465 2.53044 -2.80673 0
M  V30 6356 H 585.778 4.69334 -6.13959 0
M  V30 6357 H 584.123 4.22637 -5.51728 0
M  V30 6358 H 587.314 3.07134 -3.53251 0
M  V30 6359 H 587.487 4.05782 -5.05218 0
M  V30 6360 N 580.893 1.08022 1.14757 0
M  V30 6361 C 582.142 0.802468 1.8505 0
M  V30 6362 C 582.455 -0.674061 1.83619 0
M  V30 6363 O 583.661 -1.06683 2.49662 0
M  V30 6364 C 582.117 1.38551 3.32162 0
M  V30 6365 C 581.725 2.89354 3.42021 0
M  V30 6366 C 583.469 1.18608 4.07594 0
M  V30 6367 C 581.376 3.40815 4.83321 0
M  V30 6368 H 580.306 0.296518 0.693248 0
M  V30 6369 H 582.957 1.30114 1.29393 0
M  V30 6370 H 581.339 0.814556 3.87532 0
M  V30 6371 H 582.513 3.52552 2.96722 0
M  V30 6372 H 580.828 3.08165 2.80041 0
M  V30 6373 H 583.425 1.54525 5.11885 0
M  V30 6374 H 583.768 0.125599 4.1611 0
M  V30 6375 H 584.301 1.72375 3.58513 0
M  V30 6376 H 581.04 4.46418 4.79991 0
M  V30 6377 H 580.56 2.82374 5.29174 0
M  V30 6378 H 582.239 3.37171 5.522 0
M  V30 6379 N 582.371 -1.3172 0.865308 0
M  V30 6380 C 583.301 -2.31109 0.333302 0
M  V30 6381 C 584.282 -1.60148 -0.573301 0
M  V30 6382 O 585.467 -1.87882 -0.491305 0
M  V30 6383 C 582.597 -3.44104 -0.470078 0
M  V30 6384 C 581.551 -4.26623 0.343021 0
M  V30 6385 C 580.877 -5.31482 -0.585756 0
M  V30 6386 C 582.177 -4.98001 1.57456 0
M  V30 6387 H 583.871 -2.75855 1.1638 0
M  V30 6388 H 581.417 -1.3262 0.561069 0
M  V30 6389 H 583.37 -4.12682 -0.852752 0
M  V30 6390 H 582.094 -2.98112 -1.33404 0
M  V30 6391 H 580.753 -3.59707 0.707583 0
M  V30 6392 H 580.401 -4.81741 -1.44686 0
M  V30 6393 H 580.101 -5.87582 -0.0456494 0
M  V30 6394 H 581.625 -6.0292 -0.965375 0
M  V30 6395 H 583.039 -5.59201 1.26359 0
M  V30 6396 H 581.436 -5.63876 2.05339 0
M  V30 6397 H 582.506 -4.25253 2.32997 0
M  V30 6398 N 583.85 -0.624285 -1.44708 0
M  V30 6399 C 585.098 -0.125802 -2.01708 0
M  V30 6400 C 585.418 1.2543 -1.49306 0
M  V30 6401 O 584.689 1.83198 -0.693924 0
M  V30 6402 H 583.269 -0.0435161 -0.745731 0
M  V30 6403 H 585.931 -0.809446 -1.77296 0
M  V30 6404 H 585.027 -0.0882734 -3.11975 0
M  V30 6405 N 585.328 1.53329 -0.364422 0
M  V30 6406 C 586.739 1.86345 0.115039 0
M  V30 6407 C 587.09 1.28505 1.4826 0
M  V30 6408 O 586.215 0.606639 2.07723 0
M  V30 6409 C 586.81 3.38114 0.215522 0
M  V30 6410 C 585.369 3.70932 0.639237 0
M  V30 6411 C 584.516 2.76471 -0.214261 0
M  V30 6412 H 587.467 1.47593 -0.583258 0
M  V30 6413 H 587.488 3.66031 1.0393 0
M  V30 6414 H 587 3.80182 -0.779948 0
M  V30 6415 H 585.101 3.3442 1.64298 0
M  V30 6416 H 585.214 4.77302 0.41465 0
M  V30 6417 H 583.578 2.52724 0.316678 0
M  V30 6418 H 584.361 3.21373 -1.20725 0
M  V30 6419 N 586.806 0.0935595 1.57322 0
M  V30 6420 C 587.736 -0.863062 2.16964 0
M  V30 6421 C 588.717 -1.29528 1.10256 0
M  V30 6422 O 589.902 -1.36245 1.38387 0
M  V30 6423 C 587.032 -2.12276 2.74875 0
M  V30 6424 C 585.986 -1.82921 3.86942 0
M  V30 6425 C 585.312 -3.15707 4.31548 0
M  V30 6426 C 586.612 -1.11737 5.10208 0
M  V30 6427 H 588.306 -0.366145 2.97153 0
M  V30 6428 H 585.852 -0.174673 1.42937 0
M  V30 6429 H 587.805 -2.79634 3.1525 0
M  V30 6430 H 586.529 -2.64248 1.91938 0
M  V30 6431 H 585.188 -1.17961 3.47103 0
M  V30 6432 H 584.836 -3.65563 3.45504 0
M  V30 6433 H 584.536 -2.96849 5.07104 0
M  V30 6434 H 586.06 -3.84226 4.74555 0
M  V30 6435 H 587.474 -1.69203 5.47762 0
M  V30 6436 H 585.871 -1.03064 5.91183 0
M  V30 6437 H 586.941 -0.0998818 4.84797 0
M  V30 6438 N 588.284 -1.56567 -0.180126 0
M  V30 6439 C 589.695 -1.7126 -0.743422 0
M  V30 6440 C 590.046 -0.70263 -1.83187 0
M  V30 6441 O 589.171 0.137856 -2.1596 0
M  V30 6442 C 589.766 -3.10512 -1.35528 0
M  V30 6443 C 588.325 -3.26919 -1.8655 0
M  V30 6444 C 587.472 -2.67213 -0.741099 0
M  V30 6445 H 590.423 -1.58636 0.0451543 0
M  V30 6446 H 590.444 -3.08673 -2.22489 0
M  V30 6447 H 589.956 -3.83997 -0.562862 0
M  V30 6448 H 588.057 -2.58376 -2.68464 0
M  V30 6449 H 588.17 -4.34574 -2.01699 0
M  V30 6450 H 586.534 -2.26788 -1.15927 0
M  V30 6451 H 587.317 -3.43277 0.0393291 0
M  V30 6452 N 589.762 0.448376 -1.51087 0
M  V30 6453 C 590.709 1.54341 -1.71603 0
M  V30 6454 C 591.679 1.56463 -0.557536 0
M  V30 6455 O 592.864 1.73644 -0.79072 0
M  V30 6456 C 590.004 2.92148 -1.83695 0
M  V30 6457 C 589.117 2.99639 -3.11192 0
M  V30 6458 C 588.252 4.285 -3.13944 0
M  V30 6459 C 587.291 4.29819 -4.35801 0
M  V30 6460 N 586.428 5.50186 -4.36164 0
M  V30 6461 H 591.268 1.36151 -2.65079 0
M  V30 6462 H 588.805 0.661585 -1.31383 0
M  V30 6463 H 590.763 3.72093 -1.88687 0
M  V30 6464 H 589.393 3.0892 -0.936374 0
M  V30 6465 H 588.445 2.12425 -3.15562 0
M  V30 6466 H 589.757 2.96474 -4.01129 0
M  V30 6467 H 588.911 5.16811 -3.17791 0
M  V30 6468 H 587.65 4.34307 -2.21876 0
M  V30 6469 H 586.655 3.39902 -4.32142 0
M  V30 6470 H 587.88 4.25685 -5.29121 0
M  V30 6471 H 585.826 5.56735 -3.46961 0
M  V30 6472 H 585.743 5.48856 -5.19897 0
M  V30 6473 H 587.011 6.40559 -4.44189 0
M  V30 6474 N 591.24 1.41047 0.703093 0
M  V30 6475 C 592.19 1.38774 1.80903 0
M  V30 6476 C 593.174 0.263275 1.58731 0
M  V30 6477 O 594.366 0.503362 1.69692 0
M  V30 6478 C 591.495 1.26497 3.19145 0
M  V30 6479 C 590.581 2.43775 3.47037 0
M  V30 6480 N 590.972 3.69249 3.45672 0
M  V30 6481 C 589.27 2.37425 3.77552 0
M  V30 6482 C 589.971 4.46989 3.72258 0
M  V30 6483 N 588.947 3.76998 3.91629 0
M  V30 6484 H 592.749 2.33714 1.78199 0
M  V30 6485 H 590.263 1.34996 0.902762 0
M  V30 6486 H 592.26 1.2295 3.98358 0
M  V30 6487 H 590.92 0.32534 3.23066 0
M  V30 6488 H 591.931 4.02239 3.26228 0
M  V30 6489 H 588.608 1.51895 3.88888 0
M  V30 6490 H 589.998 5.55894 3.77402 0
M  V30 6491 N 592.718 -0.936591 1.26751 0
M  V30 6492 C 593.651 -2.03619 1.03027 0
M  V30 6493 C 594.629 -1.62534 -0.0464619 0
M  V30 6494 O 595.813 -1.88251 0.0968873 0
M  V30 6495 C 592.94 -3.3402 0.561072 0
M  V30 6496 C 591.986 -3.9408 1.63105 0
M  V30 6497 S 592.819 -4.27782 3.22122 0
M  V30 6498 C 593.975 -5.61277 2.76982 0
M  V30 6499 H 594.208 -2.23429 1.96129 0
M  V30 6500 H 591.741 -1.07857 1.10482 0
M  V30 6501 H 593.699 -4.09424 0.297031 0
M  V30 6502 H 592.36 -3.12147 -0.349741 0
M  V30 6503 H 591.553 -4.88154 1.25386 0
M  V30 6504 H 591.155 -3.25227 1.84671 0
M  V30 6505 H 593.447 -6.40189 2.21731 0
M  V30 6506 H 594.39 -6.03887 3.69766 0
M  V30 6507 H 594.798 -5.21374 2.16402 0
M  V30 6508 N 594.196 -1.08629 -1.14182 0
M  V30 6509 C 595.445 -0.812271 -1.84621 0
M  V30 6510 C 595.758 0.664313 -1.83973 0
M  V30 6511 O 596.964 1.05357 -2.50224 0
M  V30 6512 C 595.42 -1.4031 -3.31423 0
M  V30 6513 C 595.028 -2.91164 -3.40481 0
M  V30 6514 C 596.772 -1.20767 -4.06959 0
M  V30 6515 C 594.679 -3.43373 -4.81507 0
M  V30 6516 H 593.609 -0.30019 -0.691666 0
M  V30 6517 H 596.26 -1.30798 -1.28701 0
M  V30 6518 H 594.642 -0.835096 -3.87094 0
M  V30 6519 H 595.816 -3.5412 -2.94848 0
M  V30 6520 H 594.131 -3.09646 -2.78403 0
M  V30 6521 H 596.728 -1.57237 -5.11058 0
M  V30 6522 H 597.071 -0.147664 -4.16038 0
M  V30 6523 H 597.604 -1.74274 -3.57594 0
M  V30 6524 H 594.343 -4.48958 -4.77616 0
M  V30 6525 H 593.863 -2.85176 -5.27669 0
M  V30 6526 H 595.542 -3.40095 -5.50404 0
M  V30 6527 N 595.674 1.31259 -0.872281 0
M  V30 6528 C 596.606 2.27396 -0.28697 0
M  V30 6529 C 597.619 1.53181 0.551297 0
M  V30 6530 O 598.808 1.74561 0.372914 0
M  V30 6531 C 595.908 3.33335 0.611617 0
M  V30 6532 C 595.081 4.36966 -0.194729 0
M  V30 6533 C 594.14 5.22387 0.632358 0
M  V30 6534 O 593.166 5.69169 0.0595691 0
M  V30 6535 N 594.368 5.46985 1.94391 0
M  V30 6536 H 597.133 2.78261 -1.11314 0
M  V30 6537 H 594.694 1.44306 -0.733994 0
M  V30 6538 H 596.686 3.87398 1.17068 0
M  V30 6539 H 595.256 2.82496 1.33846 0
M  V30 6540 H 594.476 3.82945 -0.935241 0
M  V30 6541 H 595.764 5.03273 -0.747935 0
M  V30 6542 H 595.162 5.10737 2.43237 0
M  V30 6543 H 593.719 6.03973 2.45071 0
M  V30 6544 N 597.152 0.631951 1.44375 0
M  V30 6545 C 598.099 -0.0724807 2.30686 0
M  V30 6546 C 599.069 -0.835975 1.43529 0
M  V30 6547 O 600.254 -0.816849 1.7243 0
M  V30 6548 C 597.394 -1.04753 3.28817 0
M  V30 6549 C 596.507 -0.282367 4.31076 0
M  V30 6550 C 595.642 -1.2493 5.163 0
M  V30 6551 C 594.681 -0.473349 6.10267 0
M  V30 6552 N 593.818 -1.39079 6.88187 0
M  V30 6553 H 598.658 0.669477 2.90383 0
M  V30 6554 H 596.195 0.341927 1.43071 0
M  V30 6555 H 598.153 -1.62623 3.842 0
M  V30 6556 H 596.783 -1.75661 2.70819 0
M  V30 6557 H 595.835 0.412268 3.78159 0
M  V30 6558 H 597.147 0.321955 4.9776 0
M  V30 6559 H 596.301 -1.89931 5.76204 0
M  V30 6560 H 595.04 -1.88755 4.49692 0
M  V30 6561 H 594.045 0.190142 5.49471 0
M  V30 6562 H 595.27 0.16019 6.78911 0
M  V30 6563 H 593.216 -2.01623 6.24247 0
M  V30 6564 H 593.133 -0.840513 7.51313 0
M  V30 6565 H 594.401 -2.02961 7.52613 0
M  V30 6566 N 598.631 -1.53133 0.372548 0
M  V30 6567 C 599.859 -2.05774 -0.215515 0
M  V30 6568 C 600.274 -1.24555 -1.41886 0
M  V30 6569 O 599.631 -0.287951 -1.80214 0
M  V30 6570 C 599.682 -3.5645 -0.602161 0
M  V30 6571 O 599.403 -4.34591 0.553359 0
M  V30 6572 C 600.904 -4.25374 -1.24787 0
M  V30 6573 H 598.124 -0.670009 -0.0364529 0
M  V30 6574 H 600.668 -1.97434 0.532934 0
M  V30 6575 H 598.823 -3.64918 -1.30052 0
M  V30 6576 H 599.237 -5.23954 0.239336 0
M  V30 6577 H 600.711 -5.32097 -1.46891 0
M  V30 6578 H 601.188 -3.79531 -2.21026 0
M  V30 6579 H 601.794 -4.21177 -0.590752 0
M  V30 6580 N 600.109 -0.101901 -1.5727 0
M  V30 6581 C 601.525 0.254739 -1.57554 0
M  V30 6582 C 601.725 1.67937 -1.11352 0
M  V30 6583 O 600.781 2.39722 -0.793081 0
M  V30 6584 C 602.094 0.036975 -3.00677 0
M  V30 6585 C 603.642 0.104199 -3.12827 0
M  V30 6586 C 604.117 -0.0856565 -4.5792 0
M  V30 6587 N 605.608 -0.0310498 -4.6319 0
M  V30 6588 C 606.343 -0.153099 -5.73196 0
M  V30 6589 N 605.839 -0.330364 -6.92012 0
M  V30 6590 N 607.632 -0.0938854 -5.62022 0
M  V30 6591 H 599.783 -1.03263 -1.85609 0
M  V30 6592 H 602.046 -0.405251 -0.857016 0
M  V30 6593 H 601.752 -0.947254 -3.38703 0
M  V30 6594 H 601.626 0.776335 -3.69124 0
M  V30 6595 H 604.013 1.07894 -2.74669 0
M  V30 6596 H 604.094 -0.666762 -2.46957 0
M  V30 6597 H 603.738 -1.05729 -4.96773 0
M  V30 6598 H 603.668 0.705082 -5.21858 0
M  V30 6599 H 606.159 0.103141 -3.77759 0
M  V30 6600 H 606.472 -0.41482 -7.71686 0
M  V30 6601 H 604.817 -0.366119 -6.94035 0
M  V30 6602 H 608.008 0.0435168 -4.6808 0
M  V30 6603 H 608.181 -0.19245 -6.47714 0
M  V30 6604 N 601.587 1.56661 0.17182 0
M  V30 6605 C 602.534 1.96371 1.21273 0
M  V30 6606 C 603.504 0.82756 1.44016 0
M  V30 6607 O 604.689 1.08764 1.56764 0
M  V30 6608 C 601.829 2.32838 2.54716 0
M  V30 6609 C 600.942 3.59628 2.39356 0
M  V30 6610 C 600.077 3.85311 3.65662 0
M  V30 6611 C 599.116 5.0545 3.45234 0
M  V30 6612 N 598.253 5.27268 4.63608 0
M  V30 6613 H 603.093 2.85106 0.86709 0
M  V30 6614 H 600.63 1.41073 0.416744 0
M  V30 6615 H 602.588 2.52004 3.3249 0
M  V30 6616 H 601.218 1.47214 2.87277 0
M  V30 6617 H 600.27 3.4838 1.52761 0
M  V30 6618 H 601.582 4.4756 2.20207 0
M  V30 6619 H 600.736 4.04841 4.51872 0
M  V30 6620 H 599.475 2.95753 3.8779 0
M  V30 6621 H 598.48 4.85819 2.5741 0
M  V30 6622 H 599.705 5.96538 3.24529 0
M  V30 6623 H 597.651 4.40662 4.85956 0
M  V30 6624 H 597.568 6.09422 4.4737 0
M  V30 6625 H 598.836 5.51277 5.51103 0
M  V30 6626 N 603.065 -0.440357 1.51323 0
M  V30 6627 C 604.481 -0.7766 1.39431 0
M  V30 6628 C 604.681 -1.95838 0.474296 0
M  V30 6629 O 603.737 -2.52398 -0.0716692 0
M  V30 6630 C 605.05 -1.05981 2.81405 0
M  V30 6631 C 606.598 -1.16442 2.90534 0
M  V30 6632 C 607.073 -1.48058 4.33408 0
M  V30 6633 N 608.564 -1.54988 4.36501 0
M  V30 6634 C 609.299 -1.81017 5.44078 0
M  V30 6635 N 608.795 -2.04858 6.61819 0
M  V30 6636 N 610.588 -1.82774 5.31554 0
M  V30 6637 H 602.739 0.338006 2.09693 0
M  V30 6638 H 605.002 0.0888072 0.943831 0
M  V30 6639 H 604.708 -0.264173 3.50706 0
M  V30 6640 H 604.582 -1.98822 3.20546 0
M  V30 6641 H 606.969 -1.95068 2.21432 0
M  V30 6642 H 607.05 -0.215088 2.54894 0
M  V30 6643 H 606.694 -0.699605 5.03059 0
M  V30 6644 H 606.624 -2.44192 4.66559 0
M  V30 6645 H 609.115 -1.38479 3.51613 0
M  V30 6646 H 609.428 -2.2408 7.396 0
M  V30 6647 H 607.773 -2.02187 6.6494 0
M  V30 6648 H 610.964 -1.63665 4.38556 0
M  V30 6649 H 611.137 -2.02722 6.15474 0
M  V30 6650 N 604.543 -1.41418 -0.695603 0
M  V30 6651 C 605.49 -1.43264 -1.80954 0
M  V30 6652 C 606.46 -0.287016 -1.63601 0
M  V30 6653 O 607.645 -0.488054 -1.84452 0
M  V30 6654 C 604.785 -1.32054 -3.18835 0
M  V30 6655 C 603.898 -2.56485 -3.4762 0
M  V30 6656 C 603.033 -2.3757 -4.75115 0
M  V30 6657 C 602.072 -3.57477 -4.96867 0
M  V30 6658 N 601.209 -3.37632 -6.15588 0
M  V30 6659 H 606.049 -2.38467 -1.78711 0
M  V30 6660 H 603.586 -1.18415 -0.872715 0
M  V30 6661 H 605.544 -1.23558 -3.98484 0
M  V30 6662 H 604.174 -0.404592 -3.20254 0
M  V30 6663 H 603.226 -2.75432 -2.62376 0
M  V30 6664 H 604.538 -3.45678 -3.59594 0
M  V30 6665 H 603.692 -2.2654 -5.62818 0
M  V30 6666 H 602.431 -1.45834 -4.65386 0
M  V30 6667 H 601.436 -3.68961 -4.07612 0
M  V30 6668 H 602.661 -4.50167 -5.08455 0
M  V30 6669 H 600.607 -2.48596 -6.07072 0
M  V30 6670 H 600.524 -4.20401 -6.2833 0
M  V30 6671 H 601.792 -3.30375 -7.06026 0
M  V30 6672 N 606.021 0.929856 -1.27246 0
M  V30 6673 C 607.251 1.70895 -1.16096 0
M  V30 6674 C 607.659 1.87039 0.285122 0
M  V30 6675 O 607.002 1.38557 1.20614 0
M  V30 6676 C 607.064 3.12919 -1.7698 0
M  V30 6677 C 606.728 3.2012 -3.26148 0
M  V30 6678 C 607.725 3.02533 -4.22812 0
M  V30 6679 C 605.41 3.43148 -3.66817 0
M  V30 6680 C 607.404 3.07861 -5.58122 0
M  V30 6681 C 605.091 3.48109 -5.02258 0
M  V30 6682 C 606.089 3.30483 -5.97721 0
M  V30 6683 O 605.777 3.35175 -7.30694 0
M  V30 6684 H 605.509 0.54152 -0.404639 0
M  V30 6685 H 608.063 1.17342 -1.68582 0
M  V30 6686 H 606.293 3.67945 -1.18969 0
M  V30 6687 H 607.982 3.72787 -1.60576 0
M  V30 6688 H 608.748 2.84586 -3.92728 0
M  V30 6689 H 604.627 3.55918 -2.9299 0
M  V30 6690 H 608.171 2.94021 -6.32612 0
M  V30 6691 H 604.068 3.65579 -5.31998 0
M  V30 6692 H 604.836 3.51644 -7.39114 0
M  V30 6693 N 607.499 1.09233 1.13605 0
M  V30 6694 C 608.746 0.827159 1.84836 0
M  V30 6695 C 609.074 -0.647199 1.83416 0
M  V30 6696 O 608.329 -1.49228 1.26608 0
M  V30 6697 C 608.628 1.305 3.32723 0
M  V30 6698 C 608.294 2.78864 3.54325 0
M  V30 6699 C 606.956 3.19382 3.59928 0
M  V30 6700 C 609.308 3.74532 3.62457 0
M  V30 6701 C 606.636 4.54346 3.71196 0
M  V30 6702 C 608.988 5.09283 3.75252 0
M  V30 6703 C 607.652 5.49394 3.79108 0
M  V30 6704 H 606.922 0.302679 0.676363 0
M  V30 6705 H 609.569 1.36676 1.34134 0
M  V30 6706 H 607.874 0.68517 3.85762 0
M  V30 6707 H 609.571 1.07648 3.86281 0
M  V30 6708 H 606.161 2.46507 3.50617 0
M  V30 6709 H 610.345 3.44343 3.57409 0
M  V30 6710 H 605.601 4.84864 3.72447 0
M  V30 6711 H 609.775 5.83269 3.80487 0
M  V30 6712 H 607.402 6.5397 3.87591 0
M  V30 6713 N 608.977 -1.30795 0.87923 0
M  V30 6714 C 609.927 -2.25838 0.313276 0
M  V30 6715 C 610.911 -1.51025 -0.55499 0
M  V30 6716 O 612.103 -1.72413 -0.400353 0
M  V30 6717 C 609.232 -3.39981 -0.476204 0
M  V30 6718 C 608.318 -4.22154 0.405826 0
M  V30 6719 N 608.709 -4.82934 1.50362 0
M  V30 6720 C 607.007 -4.45552 0.199909 0
M  V30 6721 C 607.708 -5.44444 2.0483 0
M  V30 6722 N 606.684 -5.26723 1.34403 0
M  V30 6723 H 610.486 -2.70374 1.15218 0
M  V30 6724 H 608 -1.45168 0.728003 0
M  V30 6725 H 609.997 -4.07108 -0.898251 0
M  V30 6726 H 608.657 -2.96986 -1.31261 0
M  V30 6727 H 609.668 -4.82319 1.8865 0
M  V30 6728 H 606.345 -4.13169 -0.599795 0
M  V30 6729 H 607.735 -6.02701 2.96986 0
M  V30 6730 N 610.455 -0.639598 -1.44038 0
M  V30 6731 C 611.405 0.0823038 -2.27851 0
M  V30 6732 C 612.389 0.807991 -1.39141 0
M  V30 6733 O 613.581 0.692702 -1.62882 0
M  V30 6734 C 610.71 1.05742 -3.26609 0
M  V30 6735 C 609.796 0.330911 -4.22807 0
M  V30 6736 N 610.187 -0.645126 -5.01669 0
M  V30 6737 C 608.485 0.574214 -4.42288 0
M  V30 6738 C 609.186 -1.07513 -5.71678 0
M  V30 6739 N 608.162 -0.412164 -5.42035 0
M  V30 6740 H 611.964 -0.666861 -2.86234 0
M  V30 6741 H 609.478 -0.465777 -1.55577 0
M  V30 6742 H 611.475 1.58927 -3.85419 0
M  V30 6743 H 610.135 1.80679 -2.69787 0
M  V30 6744 H 611.146 -1.02329 -5.0769 0
M  V30 6745 H 607.823 1.30581 -3.96554 0
M  V30 6746 H 609.213 -1.88196 -6.45005 0
M  V30 6747 N 611.933 1.52934 -0.380664 0
M  V30 6748 C 613.21 1.93845 0.261417 0
M  V30 6749 C 613.59 1.31544 1.65104 0
M  V30 6750 O 612.938 0.480234 2.23397 0
M  V30 6751 C 613.148 3.47739 0.296466 0
M  V30 6752 C 614.496 4.21284 0.529578 0
M  V30 6753 O 615.52 3.54199 0.377041 0
M  V30 6754 O 614.379 5.40195 0.827753 0
M  V30 6755 H 611.473 0.811318 0.160285 0
M  V30 6756 H 614.019 1.64042 -0.434544 0
M  V30 6757 H 612.791 3.85395 -0.67724 0
M  V30 6758 H 612.414 3.8382 1.0377 0
M  V30 6759 N 613.412 0.11024 1.57214 0
M  V30 6760 C 614.828 -0.24638 1.57687 0
M  V30 6761 C 615.028 -1.67344 1.12241 0
M  V30 6762 O 614.084 -2.39298 0.805783 0
M  V30 6763 C 615.397 -0.0210288 3.00693 0
M  V30 6764 C 616.945 -0.0876077 3.12877 0
M  V30 6765 C 617.42 0.10994 4.57868 0
M  V30 6766 N 618.911 0.0556135 4.63167 0
M  V30 6767 C 619.646 0.183495 5.73106 0
M  V30 6768 N 619.142 0.367058 6.91827 0
M  V30 6769 N 620.935 0.123689 5.61964 0
M  V30 6770 H 613.086 1.04246 1.85058 0
M  V30 6771 H 615.349 0.40979 0.854854 0
M  V30 6772 H 615.055 0.965203 3.38196 0
M  V30 6773 H 614.929 -0.756748 3.69531 0
M  V30 6774 H 617.316 -1.06436 2.75237 0
M  V30 6775 H 617.397 0.67985 2.466 0
M  V30 6776 H 617.041 1.08362 4.96206 0
M  V30 6777 H 616.971 -0.677397 5.22225 0
M  V30 6778 H 619.462 -0.0831062 3.77809 0
M  V30 6779 H 619.775 0.455739 7.71455 0
M  V30 6780 H 618.12 0.40292 6.93831 0
M  V30 6781 H 621.311 -0.0186928 4.68096 0
M  V30 6782 H 621.484 0.226797 6.47603 0
M  V30 6783 N 614.89 -1.56749 -0.16351 0
M  V30 6784 C 615.82 -2.00042 -1.20438 0
M  V30 6785 C 616.801 -0.877256 -1.45733 0
M  V30 6786 O 617.986 -1.1439 -1.56935 0
M  V30 6787 C 615.116 -2.36697 -2.54149 0
M  V30 6788 C 614.07 -3.52046 -2.43408 0
M  V30 6789 C 613.396 -3.74466 -3.81679 0
M  V30 6790 C 614.696 -4.85247 -1.93216 0
M  V30 6791 H 616.39 -2.87244 -0.844477 0
M  V30 6792 H 613.936 -1.38194 -0.40478 0
M  V30 6793 H 615.889 -2.65582 -3.27176 0
M  V30 6794 H 614.613 -1.46414 -2.91943 0
M  V30 6795 H 613.272 -3.23301 -1.72834 0
M  V30 6796 H 612.92 -2.81461 -4.1688 0
M  V30 6797 H 612.62 -4.52084 -3.75359 0
M  V30 6798 H 614.144 -4.0576 -4.5628 0
M  V30 6799 H 615.558 -5.12957 -2.56023 0
M  V30 6800 H 613.955 -5.66556 -1.97825 0
M  V30 6801 H 615.025 -4.7672 -0.88689 0
M  V30 6802 N 616.368 0.432326 -1.51554 0
M  V30 6803 C 617.645 1.19288 -1.55015 0
M  V30 6804 C 618.025 2.08701 -0.317375 0
M  V30 6805 O 617.373 2.17602 0.697243 0
M  V30 6806 C 617.583 1.99037 -2.86679 0
M  V30 6807 C 618.931 2.55907 -3.38817 0
M  V30 6808 O 619.955 2.09243 -2.88263 0
M  V30 6809 O 618.814 3.41029 -4.27038 0
M  V30 6810 H 615.908 0.543369 -0.623441 0
M  V30 6811 H 618.454 0.440988 -1.6387 0
M  V30 6812 H 617.226 1.33397 -3.6786 0
M  V30 6813 H 616.849 2.81281 -2.8101 0
M  V30 6814 N 617.846 1.41785 0.688094 0
M  V30 6815 C 619.092 1.42753 1.4489 0
M  V30 6816 C 619.447 0.0384235 1.92362 0
M  V30 6817 O 618.74 -0.937066 1.67122 0
M  V30 6818 C 618.934 2.37532 2.67046 0
M  V30 6819 C 618.763 3.85521 2.31525 0
M  V30 6820 C 617.533 4.54152 2.21527 0
M  V30 6821 C 619.731 4.76299 1.94019 0
M  V30 6822 N 617.713 5.87233 1.78969 0
M  V30 6823 C 619.084 5.98386 1.62279 0
M  V30 6824 C 621.139 4.63877 1.80895 0
M  V30 6825 C 619.842 7.09433 1.18732 0
M  V30 6826 C 621.868 5.74893 1.38752 0
M  V30 6827 C 621.23 6.96083 1.07927 0
M  V30 6828 H 617.329 0.577575 0.527192 0
M  V30 6829 H 619.913 1.77713 0.795375 0
M  V30 6830 H 618.084 2.04656 3.30107 0
M  V30 6831 H 619.816 2.29169 3.33562 0
M  V30 6832 H 616.571 4.08188 2.40166 0
M  V30 6833 H 616.995 6.57785 1.60151 0
M  V30 6834 H 621.637 3.70671 2.03378 0
M  V30 6835 H 619.355 8.02497 0.949937 0
M  V30 6836 H 622.941 5.67287 1.29136 0
M  V30 6837 H 621.821 7.80527 0.758111 0
M  V30 6838 N 619.324 -0.923095 1.27737 0
M  V30 6839 C 620.601 -1.64989 1.05062 0
M  V30 6840 C 620.981 -2.07018 -0.413124 0
M  V30 6841 O 620.329 -1.80797 -1.39731 0
M  V30 6842 C 620.539 -2.84847 2.01652 0
M  V30 6843 C 621.887 -3.56083 2.31279 0
M  V30 6844 O 622.911 -2.94981 1.99662 0
M  V30 6845 O 621.77 -4.66182 2.85196 0
M  V30 6846 H 618.864 -0.723357 0.400853 0
M  V30 6847 H 621.41 -0.973224 1.3902 0
M  V30 6848 H 620.182 -2.50814 3.00347 0
M  V30 6849 H 619.805 -3.60231 1.68284 0
M  V30 6850 N 620.802 -1.09834 -1.13024 0
M  V30 6851 C 621.712 -0.753731 -2.22162 0
M  V30 6852 C 622.728 0.246105 -1.72251 0
M  V30 6853 O 623.904 0.0864051 -2.01215 0
M  V30 6854 C 620.969 -0.183958 -3.46212 0
M  V30 6855 C 620.03 -1.24028 -4.10993 0
M  V30 6856 C 619.263 -0.697597 -5.29121 0
M  V30 6857 O 619.486 0.478092 -5.68393 0
M  V30 6858 O 618.42 -1.4546 -5.84059 0
M  V30 6859 H 622.246 -1.66456 -2.5402 0
M  V30 6860 H 619.831 -0.873026 -1.21238 0
M  V30 6861 H 621.713 0.130257 -4.21199 0
M  V30 6862 H 620.388 0.699823 -3.16045 0
M  V30 6863 H 619.295 -1.60725 -3.37814 0
M  V30 6864 H 620.628 -2.09685 -4.45301 0
M  V30 6865 N 622.28 1.30327 -0.886154 0
M  V30 6866 C 623.23 2.25668 -0.325248 0
M  V30 6867 C 624.214 1.51318 0.546972 0
M  V30 6868 O 625.406 1.72623 0.391203 0
M  V30 6869 C 622.535 3.40229 0.458167 0
M  V30 6870 C 621.621 4.21933 -0.428208 0
M  V30 6871 N 622.012 4.82129 -1.52921 0
M  V30 6872 C 620.31 4.45439 -0.223535 0
M  V30 6873 C 621.011 5.43351 -2.07714 0
M  V30 6874 N 619.987 5.26002 -1.37195 0
M  V30 6875 H 623.789 2.69759 -1.1665 0
M  V30 6876 H 621.303 1.4478 -0.735691 0
M  V30 6877 H 623.3 4.07579 0.876648 0
M  V30 6878 H 621.96 2.97678 1.29684 0
M  V30 6879 H 622.971 4.81312 -1.91205 0
M  V30 6880 H 619.648 4.13481 0.577875 0
M  V30 6881 H 621.038 6.01118 -3.00178 0
M  V30 6882 N 623.758 0.647228 1.43697 0
M  V30 6883 C 624.983 0.164083 2.0675 0
M  V30 6884 C 625.408 -1.15892 1.48158 0
M  V30 6885 O 624.766 -1.71459 0.589194 0
M  V30 6886 C 624.814 0.0800368 3.60511 0
M  V30 6887 O 623.918 -0.959453 4.01084 0
M  V30 6888 H 623.259 0.0921288 0.657578 0
M  V30 6889 H 625.789 0.88846 1.84303 0
M  V30 6890 H 625.799 -0.105263 4.07864 0
M  V30 6891 H 624.474 1.04586 4.02535 0
M  V30 6892 H 623.051 -0.747425 3.65333 0
M  V30 6893 N 625.236 -1.5273 0.388769 0
M  V30 6894 C 626.461 -2.0647 -0.19621 0
M  V30 6895 C 626.886 -1.25865 -1.39784 0
M  V30 6896 O 626.244 -0.283562 -1.79069 0
M  V30 6897 C 626.292 -3.56456 -0.5451 0
M  V30 6898 O 625.396 -3.78426 -1.63912 0
M  V30 6899 H 624.737 -0.663599 -0.023067 0
M  V30 6900 H 627.267 -1.96898 0.556084 0
M  V30 6901 H 627.277 -3.99888 -0.809557 0
M  V30 6902 H 625.952 -4.14561 0.333417 0
M  V30 6903 H 624.529 -3.46884 -1.36842 0
M  V30 6904 N 626.714 -0.118576 -1.57153 0
M  V30 6905 C 627.677 0.817464 -2.14127 0
M  V30 6906 C 628.677 1.1949 -1.07604 0
M  V30 6907 O 629.867 1.12048 -1.33382 0
M  V30 6908 C 626.999 2.10541 -2.68115 0
M  V30 6909 H 628.192 0.322339 -2.98163 0
M  V30 6910 H 625.745 0.130655 -1.55753 0
M  V30 6911 H 626.48 2.64485 -1.87665 0
M  V30 6912 H 626.265 1.84425 -3.4602 0
M  V30 6913 H 627.755 2.77453 -3.12105 0
M  V30 6914 N 628.193 1.56834 0.155195 0
M  V30 6915 C 629.441 1.82536 0.867462 0
M  V30 6916 C 629.762 0.698168 1.82073 0
M  V30 6917 O 629.032 -0.280807 1.93877 0
M  V30 6918 H 627.612 0.673401 0.323327 0
M  V30 6919 H 630.274 1.94313 0.151156 0
M  V30 6920 H 629.37 2.77171 1.43466 0
M  V30 6921 N 629.671 -0.424282 1.51781 0
M  V30 6922 C 631.087 -0.761768 1.40247 0
M  V30 6923 C 631.287 -1.95324 0.495041 0
M  V30 6924 O 630.343 -2.5246 -0.0448949 0
M  V30 6925 C 631.656 -1.0299 2.82513 0
M  V30 6926 C 633.204 -1.13354 2.91753 0
M  V30 6927 C 633.679 -1.43453 4.34954 0
M  V30 6928 N 635.17 -1.5035 4.3812 0
M  V30 6929 C 635.905 -1.75236 5.45967 0
M  V30 6930 N 635.401 -1.97827 6.63955 0
M  V30 6931 N 637.194 -1.77126 5.33463 0
M  V30 6932 H 629.345 0.360228 2.09323 0
M  V30 6933 H 631.608 0.0988128 0.942836 0
M  V30 6934 H 631.314 -0.226961 3.50967 0
M  V30 6935 H 631.188 -1.95411 3.22637 0
M  V30 6936 H 633.575 -1.92709 2.23489 0
M  V30 6937 H 633.656 -0.188041 2.55108 0
M  V30 6938 H 633.3 -0.646209 5.03772 0
M  V30 6939 H 633.23 -2.3923 4.69123 0
M  V30 6940 H 635.721 -1.34742 3.53062 0
M  V30 6941 H 636.034 -2.16223 7.41935 0
M  V30 6942 H 634.379 -1.95123 6.67047 0
M  V30 6943 H 637.57 -1.59005 4.40267 0
M  V30 6944 H 637.743 -1.96182 6.17589 0
M  V30 6945 N 631.149 -1.42148 -0.680565 0
M  V30 6946 C 632.379 -1.45485 -1.46689 0
M  V30 6947 C 632.787 -0.0629451 -1.89095 0
M  V30 6948 O 632.13 0.931397 -1.58337 0
M  V30 6949 C 632.192 -2.31397 -2.75129 0
M  V30 6950 C 631.856 -3.79353 -2.54834 0
M  V30 6951 C 632.853 -4.71148 -2.19808 0
M  V30 6952 C 630.538 -4.23557 -2.70008 0
M  V30 6953 C 632.532 -6.05139 -2.00215 0
M  V30 6954 C 630.219 -5.57609 -2.50031 0
M  V30 6955 C 631.217 -6.48216 -2.15187 0
M  V30 6956 O 630.905 -7.79792 -1.95397 0
M  V30 6957 H 630.637 -0.497139 -0.458071 0
M  V30 6958 H 633.191 -1.87252 -0.844139 0
M  V30 6959 H 631.421 -1.84468 -3.39865 0
M  V30 6960 H 633.11 -2.26257 -3.36991 0
M  V30 6961 H 633.876 -4.38282 -2.07686 0
M  V30 6962 H 629.755 -3.53327 -2.96109 0
M  V30 6963 H 633.299 -6.75823 -1.72941 0
M  V30 6964 H 629.196 -5.9005 -2.61748 0
M  V30 6965 H 629.964 -7.91091 -2.10042 0
M  V30 6966 N 632.627 0.916307 -1.28225 0
M  V30 6967 C 633.873 1.66765 -1.154 0
M  V30 6968 C 634.206 1.91912 0.297251 0
M  V30 6969 O 633.481 1.51766 1.21644 0
M  V30 6970 C 633.764 3.02715 -1.95028 0
M  V30 6971 C 633.617 2.84738 -3.48201 0
M  V30 6972 C 634.936 4.03215 -1.76369 0
M  V30 6973 H 632.055 0.605205 -0.42059 0
M  V30 6974 H 634.697 1.06255 -1.57512 0
M  V30 6975 H 632.847 3.54365 -1.59242 0
M  V30 6976 H 634.519 2.40118 -3.9388 0
M  V30 6977 H 632.762 2.19848 -3.73964 0
M  V30 6978 H 633.433 3.8127 -3.99171 0
M  V30 6979 H 635.909 3.60617 -2.07593 0
M  V30 6980 H 634.785 4.96306 -2.34459 0
M  V30 6981 H 635.046 4.36288 -0.71452 0
M  V30 6982 N 634.105 1.10431 1.1244 0
M  V30 6983 C 635.33 0.869089 1.88313 0
M  V30 6984 C 635.755 -0.574912 1.79099 0
M  V30 6985 O 635.113 -1.40496 1.14589 0
M  V30 6986 C 635.161 1.32208 3.3549 0
M  V30 6987 O 634.265 0.487092 4.09513 0
M  V30 6988 H 633.606 0.313894 0.585121 0
M  V30 6989 H 636.136 1.47111 1.42195 0
M  V30 6990 H 636.146 1.31201 3.86329 0
M  V30 6991 H 634.821 2.37364 3.41513 0
M  V30 6992 H 633.398 0.562372 3.68635 0
M  V30 6993 N 635.583 -1.29855 0.893053 0
M  V30 6994 C 636.999 -1.48366 0.588199 0
M  V30 6995 C 637.199 -1.81654 -0.872018 0
M  V30 6996 O 636.255 -1.909 -1.65268 0
M  V30 6997 C 637.568 -2.60136 1.5083 0
M  V30 6998 C 639.116 -2.74014 1.51279 0
M  V30 6999 C 639.591 -3.88905 2.41902 0
M  V30 7000 N 641.082 -3.96228 2.39911 0
M  V30 7001 C 641.817 -4.84458 3.06738 0
M  V30 7002 N 641.313 -5.77426 3.8282 0
M  V30 7003 N 643.106 -4.77894 2.95929 0
M  V30 7004 H 635.257 -1.06522 1.83757 0
M  V30 7005 H 637.52 -0.528495 0.787018 0
M  V30 7006 H 637.226 -2.42383 2.54839 0
M  V30 7007 H 637.1 -3.56793 1.22388 0
M  V30 7008 H 639.487 -2.91167 0.480179 0
M  V30 7009 H 639.568 -1.77952 1.83757 0
M  V30 7010 H 639.212 -3.72508 3.45253 0
M  V30 7011 H 639.142 -4.84322 2.06737 0
M  V30 7012 H 641.633 -3.29728 1.84629 0
M  V30 7013 H 641.946 -6.41529 4.30883 0
M  V30 7014 H 640.291 -5.77332 3.86927 0
M  V30 7015 H 643.482 -4.04248 2.36012 0
M  V30 7016 H 643.655 -5.46444 3.48286 0
M  V30 7017 N 637.061 -0.65484 -1.43351 0
M  V30 7018 C 638.477 -0.32255 -1.56307 0
M  V30 7019 C 638.677 1.17324 -1.63821 0
M  V30 7020 O 637.733 1.95813 -1.59417 0
M  V30 7021 C 639.046 -1.03533 -2.82314 0
M  V30 7022 C 640.594 -1.01574 -2.9606 0
M  V30 7023 C 641.069 -1.70945 -4.24902 0
M  V30 7024 N 642.56 -1.67716 -4.3177 0
M  V30 7025 C 643.295 -2.18265 -5.30234 0
M  V30 7026 N 642.791 -2.7711 -6.34966 0
M  V30 7027 N 644.584 -2.08756 -5.21898 0
M  V30 7028 H 636.735 -1.62549 -1.36717 0
M  V30 7029 H 638.998 -0.683676 -0.656727 0
M  V30 7030 H 638.704 -2.09045 -2.8283 0
M  V30 7031 H 638.578 -0.587913 -3.7259 0
M  V30 7032 H 640.965 0.0309834 -2.95084 0
M  V30 7033 H 641.046 -1.50186 -2.07069 0
M  V30 7034 H 640.69 -2.75574 -4.26639 0
M  V30 7035 H 640.62 -1.19797 -5.12793 0
M  V30 7036 H 643.111 -1.24777 -3.56706 0
M  V30 7037 H 643.424 -3.13353 -7.06421 0
M  V30 7038 H 641.769 -2.81171 -6.35585 0
M  V30 7039 H 644.96 -1.62488 -4.38994 0
M  V30 7040 H 645.133 -2.48459 -5.98475 0
M  V30 7041 N 638.539 1.52521 -0.396863 0
M  V30 7042 C 639.779 2.03583 0.182578 0
M  V30 7043 C 640.143 1.2766 1.43412 0
M  V30 7044 O 641.344 1.68884 2.09121 0
M  V30 7045 C 639.615 3.54724 0.436519 0
M  V30 7046 S 641.174 4.27598 0.985163 0
M  V30 7047 H 637.992 0.709186 0.0507529 0
M  V30 7048 H 640.594 1.87693 -0.546955 0
M  V30 7049 H 639.298 4.07567 -0.481343 0
M  V30 7050 H 638.829 3.74834 1.19427 0
M  V30 7051 H 640.844 4.41393 2.26686 0
M  V30 7052 N 640.017 0.126909 1.57088 0
M  V30 7053 C 640.964 -0.82036 2.15728 0
M  V30 7054 C 641.934 -1.25811 1.08447 0
M  V30 7055 O 643.119 -1.33422 1.36393 0
M  V30 7056 C 640.259 -2.06199 2.76724 0
M  V30 7057 C 639.372 -1.67188 3.98337 0
M  V30 7058 C 638.507 -2.86378 4.47393 0
M  V30 7059 C 637.546 -2.43644 5.61519 0
M  V30 7060 N 636.683 -3.55775 6.05284 0
M  V30 7061 H 641.523 -0.313472 2.96347 0
M  V30 7062 H 639.06 -0.14303 1.46403 0
M  V30 7063 H 641.018 -2.78959 3.10222 0
M  V30 7064 H 639.648 -2.54333 1.98782 0
M  V30 7065 H 638.7 -0.842714 3.70948 0
M  V30 7066 H 640.012 -1.31789 4.81075 0
M  V30 7067 H 639.166 -3.67353 4.82842 0
M  V30 7068 H 637.905 -3.25009 3.63621 0
M  V30 7069 H 636.91 -1.61104 5.25667 0
M  V30 7070 H 638.135 -2.06122 6.47063 0
M  V30 7071 H 636.081 -3.94065 5.24451 0
M  V30 7072 H 635.998 -3.24325 6.82898 0
M  V30 7073 H 637.266 -4.37166 6.45373 0
M  V30 7074 N 641.495 -1.56914 -0.146875 0
M  V30 7075 C 642.906 -1.72799 -0.706928 0
M  V30 7076 C 643.257 -0.741329 -1.81656 0
M  V30 7077 O 642.382 0.0920162 -2.16204 0
M  V30 7078 C 642.977 -3.13317 -1.28911 0
M  V30 7079 C 641.536 -3.30803 -1.79573 0
M  V30 7080 C 640.683 -2.68725 -0.684252 0
M  V30 7081 H 643.634 -1.58504 0.0787931 0
M  V30 7082 H 643.655 -3.13323 -2.15891 0
M  V30 7083 H 643.167 -3.85104 -0.481284 0
M  V30 7084 H 641.268 -2.64012 -2.62923 0
M  V30 7085 H 641.381 -4.38754 -1.92436 0
M  V30 7086 H 639.745 -2.29196 -1.11091 0
M  V30 7087 H 640.528 -3.43117 0.112134 0
M  V30 7088 N 642.974 0.416227 -1.52004 0
M  V30 7089 C 643.904 1.51365 -1.77795 0
M  V30 7090 C 644.885 1.58059 -0.628601 0
M  V30 7091 O 646.07 1.73447 -0.873478 0
M  V30 7092 C 643.2 2.89256 -1.92219 0
M  V30 7093 C 642.154 2.97415 -3.0778 0
M  V30 7094 C 641.48 4.37492 -3.07417 0
M  V30 7095 C 642.78 2.69551 -4.47369 0
M  V30 7096 H 644.474 1.30033 -2.69688 0
M  V30 7097 H 642.02 0.624112 -1.29772 0
M  V30 7098 H 643.973 3.66008 -2.08845 0
M  V30 7099 H 642.697 3.11866 -0.969917 0
M  V30 7100 H 641.356 2.23107 -2.90893 0
M  V30 7101 H 641.004 4.571 -2.09925 0
M  V30 7102 H 640.704 4.43877 -3.85029 0
M  V30 7103 H 642.228 5.16188 -3.26162 0
M  V30 7104 H 643.642 3.36028 -4.64497 0
M  V30 7105 H 642.039 2.87321 -5.26846 0
M  V30 7106 H 643.109 1.65029 -4.55953 0
M  V30 7107 N 644.452 1.42507 0.673017 0
M  V30 7108 C 645.399 1.46124 1.78651 0
M  V30 7109 C 646.369 0.313007 1.63124 0
M  V30 7110 O 647.554 0.517337 1.83653 0
M  V30 7111 C 644.694 1.3711 3.16694 0
M  V30 7112 C 643.807 2.61983 3.43495 0
M  V30 7113 C 642.942 2.45098 4.71275 0
M  V30 7114 C 641.981 3.65336 4.91117 0
M  V30 7115 N 641.118 3.47383 6.10139 0
M  V30 7116 H 645.958 2.4128 1.74895 0
M  V30 7117 H 643.495 1.19788 0.853766 0
M  V30 7118 H 645.453 1.29881 3.96468 0
M  V30 7119 H 644.083 0.45549 3.1957 0
M  V30 7120 H 643.135 2.79571 2.57961 0
M  V30 7121 H 644.447 3.51355 3.5405 0
M  V30 7122 H 643.601 2.35466 5.59143 0
M  V30 7123 H 642.34 1.53219 4.63007 0
M  V30 7124 H 641.345 3.754 4.0169 0
M  V30 7125 H 642.57 4.58199 5.01229 0
M  V30 7126 H 640.516 2.58222 6.0304 0
M  V30 7127 H 640.433 4.30344 6.21563 0
M  V30 7128 H 641.701 3.41565 7.00681 0
M  V30 7129 N 645.93 -0.909495 1.28709 0
M  V30 7130 C 646.84 -2.04558 1.14861 0
M  V30 7131 C 647.856 -1.73842 0.0741621 0
M  V30 7132 O 649.032 -1.99383 0.2843 0
M  V30 7133 C 646.097 -3.36957 0.816148 0
M  V30 7134 C 645.158 -3.81255 1.97341 0
M  V30 7135 C 644.391 -5.07335 1.65671 0
M  V30 7136 O 644.614 -5.67514 0.573053 0
M  V30 7137 O 643.548 -5.47449 2.50167 0
M  V30 7138 H 647.374 -2.19161 2.10243 0
M  V30 7139 H 644.959 -1.03159 1.08068 0
M  V30 7140 H 646.841 -4.16436 0.644873 0
M  V30 7141 H 645.516 -3.2352 -0.107983 0
M  V30 7142 H 644.423 -3.02584 2.19986 0
M  V30 7143 H 645.756 -3.99261 2.87839 0
M  V30 7144 N 647.408 -1.11026 -1.11852 0
M  V30 7145 C 648.655 -0.85646 -1.83497 0
M  V30 7146 C 648.983 0.617938 -1.84423 0
M  V30 7147 O 648.238 1.47194 -1.28966 0
M  V30 7148 C 648.537 -1.35777 -3.30604 0
M  V30 7149 C 648.203 -2.84465 -3.49843 0
M  V30 7150 C 646.865 -3.25068 -3.54802 0
M  V30 7151 C 649.217 -3.80251 -3.56453 0
M  V30 7152 C 646.545 -4.60194 -3.63921 0
M  V30 7153 C 648.897 -5.15188 -3.67102 0
M  V30 7154 C 647.561 -5.55356 -3.70319 0
M  V30 7155 H 646.831 -0.313401 -0.671462 0
M  V30 7156 H 649.478 -1.38792 -1.31943 0
M  V30 7157 H 647.783 -0.746455 -3.84624 0
M  V30 7158 H 649.48 -1.13779 -3.8452 0
M  V30 7159 H 646.07 -2.52054 -3.46651 0
M  V30 7160 H 650.254 -3.49986 -3.51886 0
M  V30 7161 H 645.51 -4.90728 -3.64686 0
M  V30 7162 H 649.684 -5.89248 -3.71159 0
M  V30 7163 H 647.311 -6.60054 -3.77138 0
M  V30 7164 N 648.886 1.2938 -0.899927 0
M  V30 7165 C 649.819 2.25911 -0.322386 0
M  V30 7166 C 650.797 1.52447 0.565567 0
M  V30 7167 O 651.981 1.81404 0.512324 0
M  V30 7168 C 649.108 3.3436 0.540455 0
M  V30 7169 C 648.154 4.25579 -0.280211 0
M  V30 7170 S 648.987 5.08526 -1.67814 0
M  V30 7171 C 650.143 6.20476 -0.822224 0
M  V30 7172 H 650.376 2.7455 -1.1406 0
M  V30 7173 H 647.909 1.37606 -0.700285 0
M  V30 7174 H 649.867 3.97303 1.0325 0
M  V30 7175 H 648.528 2.84416 1.33291 0
M  V30 7176 H 647.721 5.02574 0.378915 0
M  V30 7177 H 647.323 3.67287 -0.705405 0
M  V30 7178 H 649.615 6.77485 -0.0457138 0
M  V30 7179 H 650.558 6.90606 -1.56426 0
M  V30 7180 H 650.966 5.63243 -0.37651 0
M  V30 7181 N 650.364 0.662433 1.43002 0
M  V30 7182 C 651.294 -0.00979809 2.33498 0
M  V30 7183 C 652.275 -0.802329 1.49989 0
M  V30 7184 O 653.46 -0.761964 1.78627 0
M  V30 7185 C 650.59 -0.970446 3.33466 0
M  V30 7186 C 649.544 -0.287383 4.27034 0
M  V30 7187 C 648.87 -1.36012 5.17112 0
M  V30 7188 C 650.17 0.82595 5.15728 0
M  V30 7189 H 651.864 0.745959 2.89958 0
M  V30 7190 H 649.41 0.360172 1.39423 0
M  V30 7191 H 651.363 -1.44971 3.95679 0
M  V30 7192 H 650.087 -1.75748 2.75282 0
M  V30 7193 H 648.746 0.17152 3.66199 0
M  V30 7194 H 648.394 -2.13882 4.55262 0
M  V30 7195 H 648.094 -0.908276 5.80538 0
M  V30 7196 H 649.618 -1.84056 5.82199 0
M  V30 7197 H 651.032 0.42845 5.71697 0
M  V30 7198 H 649.429 1.20282 5.87922 0
M  V30 7199 H 650.499 1.68003 4.54866 0
M  V30 7200 N 651.842 -1.52309 0.404946 0
M  V30 7201 C 653.067 -2.06666 -0.1743 0
M  V30 7202 C 653.492 -1.27341 -1.38441 0
M  V30 7203 O 652.85 -0.302539 -1.78758 0
M  V30 7204 C 652.898 -3.57014 -0.507262 0
M  V30 7205 O 652.002 -3.80144 -1.59889 0
M  V30 7206 H 651.343 -0.663807 -0.0160273 0
M  V30 7207 H 653.873 -1.96297 0.576937 0
M  V30 7208 H 653.883 -4.00724 -0.767098 0
M  V30 7209 H 652.558 -4.14184 0.377368 0
M  V30 7210 H 651.135 -3.48316 -1.33155 0
M  V30 7211 N 653.32 -0.135238 -1.57019 0
M  V30 7212 C 654.252 0.839675 -2.13265 0
M  V30 7213 C 655.265 1.21887 -1.07923 0
M  V30 7214 O 656.454 1.16499 -1.35241 0
M  V30 7215 C 653.554 2.13647 -2.63075 0
M  V30 7216 C 652.727 1.92646 -3.92691 0
M  V30 7217 C 651.786 3.06205 -4.27931 0
M  V30 7218 O 650.812 2.78409 -4.96465 0
M  V30 7219 N 652.014 4.33072 -3.86561 0
M  V30 7220 H 654.779 0.359026 -2.97542 0
M  V30 7221 H 652.34 0.0486979 -1.61827 0
M  V30 7222 H 654.332 2.88641 -2.8367 0
M  V30 7223 H 652.902 2.5301 -1.83588 0
M  V30 7224 H 652.122 1.01754 -3.80841 0
M  V30 7225 H 653.41 1.75939 -4.77413 0
M  V30 7226 H 652.808 4.58526 -3.31316 0
M  V30 7227 H 651.365 5.04885 -4.12231 0
M  V30 7228 N 654.798 1.5699 0.138552 0
M  V30 7229 C 656.075 1.74741 0.87891 0
M  V30 7230 C 656.455 0.705522 1.98961 0
M  V30 7231 O 655.803 -0.274066 2.2685 0
M  V30 7232 C 656.013 3.1909 1.4136 0
M  V30 7233 C 657.361 3.81023 1.87368 0
M  V30 7234 O 658.385 3.22571 1.51084 0
M  V30 7235 O 657.244 4.83722 2.54312 0
M  V30 7236 H 654.338 0.714781 0.415953 0
M  V30 7237 H 656.884 1.69248 0.123817 0
M  V30 7238 H 655.656 3.86424 0.61579 0
M  V30 7239 H 655.279 3.29043 2.23196 0
M  V30 7240 N 656.276 -0.40816 1.52223 0
M  V30 7241 C 657.522 -1.15673 1.66576 0
M  V30 7242 C 657.855 -1.90141 0.394996 0
M  V30 7243 O 657.13 -1.84798 -0.606613 0
M  V30 7244 C 657.413 -2.15042 2.88841 0
M  V30 7245 C 657.266 -1.44465 4.25969 0
M  V30 7246 C 658.585 -3.15699 3.0663 0
M  V30 7247 H 655.704 -0.41916 0.606196 0
M  V30 7248 H 658.346 -0.442348 1.84779 0
M  V30 7249 H 656.496 -2.75964 2.73452 0
M  V30 7250 H 658.168 -0.866544 4.53088 0
M  V30 7251 H 656.411 -0.746612 4.27327 0
M  V30 7252 H 657.082 -2.16976 5.07568 0
M  V30 7253 H 659.558 -2.64854 3.20923 0
M  V30 7254 H 658.434 -3.82491 3.9369 0
M  V30 7255 H 658.695 -3.83481 2.19987 0
M  V30 7256 N 657.755 -1.42862 -0.66545 0
M  V30 7257 C 658.665 -1.49491 -1.80803 0
M  V30 7258 C 659.681 -0.382914 -1.69734 0
M  V30 7259 O 660.857 -0.635223 -1.9112 0
M  V30 7260 C 657.922 -1.40383 -3.17007 0
M  V30 7261 C 656.983 -2.62152 -3.39963 0
M  V30 7262 C 656.216 -2.53469 -4.69669 0
M  V30 7263 O 656.439 -1.57568 -5.48205 0
M  V30 7264 O 655.373 -3.43763 -4.94075 0
M  V30 7265 H 659.199 -2.45949 -1.78165 0
M  V30 7266 H 656.784 -1.24728 -0.822387 0
M  V30 7267 H 658.666 -1.377 -3.98267 0
M  V30 7268 H 657.341 -0.470546 -3.20262 0
M  V30 7269 H 656.248 -2.70409 -2.58515 0
M  V30 7270 H 657.581 -3.54411 -3.41546 0
M  V30 7271 N 659.233 0.902656 -1.29189 0
M  V30 7272 C 660.183 1.99326 -1.10695 0
M  V30 7273 C 661.167 1.60877 -0.0272521 0
M  V30 7274 O 662.359 1.75245 -0.248635 0
M  V30 7275 C 659.488 3.34265 -0.78244 0
M  V30 7276 C 658.574 3.79081 -1.90153 0
M  V30 7277 N 658.965 3.96162 -3.14466 0
M  V30 7278 C 657.263 4.08333 -1.79389 0
M  V30 7279 C 657.964 4.3388 -3.87458 0
M  V30 7280 N 656.94 4.42759 -3.15381 0
M  V30 7281 H 660.742 2.10597 -2.05003 0
M  V30 7282 H 658.256 1.09127 -1.20271 0
M  V30 7283 H 660.253 4.12097 -0.630996 0
M  V30 7284 H 658.913 3.2434 0.152754 0
M  V30 7285 H 659.924 3.81775 -3.49954 0
M  V30 7286 H 656.601 4.06982 -0.931217 0
M  V30 7287 H 657.991 4.54965 -4.94425 0
M  V30 7288 N 660.711 1.11618 1.11262 0
M  V30 7289 C 661.621 0.78898 2.20935 0
M  V30 7290 C 662.637 -0.21867 1.7262 0
M  V30 7291 O 663.813 -0.0543826 2.01327 0
M  V30 7292 C 660.878 0.239014 3.45875 0
M  V30 7293 C 659.939 1.3055 4.08968 0
M  V30 7294 C 659.172 0.781687 5.27944 0
M  V30 7295 O 659.395 -0.387605 5.69082 0
M  V30 7296 O 658.329 1.54734 5.81671 0
M  V30 7297 H 662.155 1.70477 2.51339 0
M  V30 7298 H 659.74 0.892203 1.19834 0
M  V30 7299 H 661.622 -0.0632312 4.21353 0
M  V30 7300 H 660.297 -0.649454 3.17118 0
M  V30 7301 H 659.204 1.66079 3.35214 0
M  V30 7302 H 660.537 2.16743 4.41909 0
M  V30 7303 N 662.189 -1.289 0.906776 0
M  V30 7304 C 663.605 -1.47733 0.603902 0
M  V30 7305 C 663.805 -1.82568 -0.852702 0
M  V30 7306 O 662.861 -1.92642 -1.63234 0
M  V30 7307 C 664.174 -2.58522 1.53581 0
M  V30 7308 C 665.722 -2.72394 1.54177 0
M  V30 7309 C 666.197 -3.86318 2.46013 0
M  V30 7310 N 667.688 -3.93661 2.441 0
M  V30 7311 C 668.423 -4.81177 3.11859 0
M  V30 7312 N 667.919 -5.73333 3.88923 0
M  V30 7313 N 669.712 -4.74728 3.00981 0
M  V30 7314 H 661.863 -1.04567 1.84877 0
M  V30 7315 H 664.126 -0.520118 0.792579 0
M  V30 7316 H 663.832 -2.39667 2.57396 0
M  V30 7317 H 663.706 -3.55475 1.26165 0
M  V30 7318 H 666.093 -2.90641 0.511034 0
M  V30 7319 H 666.174 -1.75993 1.85634 0
M  V30 7320 H 665.818 -3.68826 3.49185 0
M  V30 7321 H 665.748 -4.82102 2.11862 0
M  V30 7322 H 668.239 -3.27751 1.88115 0
M  V30 7323 H 668.552 -6.36923 4.37663 0
M  V30 7324 H 666.897 -5.73196 3.93029 0
M  V30 7325 H 670.088 -4.01722 2.40286 0
M  V30 7326 H 670.261 -5.42719 3.54062 0
M  V30 7327 N 663.667 -0.670007 -1.42649 0
M  V30 7328 C 664.597 -0.00258501 -2.335 0
M  V30 7329 C 665.578 0.794364 -1.50412 0
M  V30 7330 O 666.763 0.75248 -1.79029 0
M  V30 7331 C 663.893 0.952748 -3.33976 0
M  V30 7332 C 662.847 0.264733 -4.2718 0
M  V30 7333 C 662.173 1.33267 -5.17826 0
M  V30 7334 C 663.473 -0.853289 -5.15283 0
M  V30 7335 H 665.167 -0.761326 -2.89559 0
M  V30 7336 H 662.713 -0.367561 -1.3923 0
M  V30 7337 H 664.666 1.4287 -3.96442 0
M  V30 7338 H 663.39 1.74285 -2.7621 0
M  V30 7339 H 662.049 -0.190938 -3.66102 0
M  V30 7340 H 661.697 2.11464 -4.5639 0
M  V30 7341 H 661.397 0.877476 -5.81011 0
M  V30 7342 H 662.921 1.80965 -5.83167 0
M  V30 7343 H 664.335 -0.458763 -5.71462 0
M  V30 7344 H 662.732 -1.23398 -5.87276 0
M  V30 7345 H 663.802 -1.70412 -4.53969 0
M  V30 7346 N 665.145 1.52092 -0.413018 0
M  V30 7347 C 666.392 2.01855 0.161497 0
M  V30 7348 C 666.72 1.29845 1.44812 0
M  V30 7349 O 665.975 0.394471 1.91683 0
M  V30 7350 C 666.274 3.54529 0.4521 0
M  V30 7351 C 665.94 4.4469 -0.745788 0
M  V30 7352 C 664.602 4.69053 -1.07435 0
M  V30 7353 C 666.954 4.97742 -1.54604 0
M  V30 7354 C 664.282 5.43717 -2.20429 0
M  V30 7355 C 666.634 5.73642 -2.66678 0
M  V30 7356 C 665.298 5.96277 -3.00016 0
M  V30 7357 H 664.568 0.73864 0.0590961 0
M  V30 7358 H 667.215 1.83274 -0.555234 0
M  V30 7359 H 665.52 3.7131 1.25045 0
M  V30 7360 H 667.217 3.90546 0.909647 0
M  V30 7361 H 663.807 4.25907 -0.479725 0
M  V30 7362 H 667.991 4.78824 -1.30543 0
M  V30 7363 H 663.247 5.59462 -2.46602 0
M  V30 7364 H 667.421 6.13746 -3.29072 0
M  V30 7365 H 665.048 6.53913 -3.87688 0
M  V30 7366 N 666.623 0.143563 1.56945 0
M  V30 7367 C 667.9 -0.553285 1.87612 0
M  V30 7368 C 668.28 -1.83195 1.04894 0
M  V30 7369 O 667.628 -2.28102 0.134773 0
M  V30 7370 C 667.838 -0.822055 3.3918 0
M  V30 7371 C 669.186 -1.16435 4.08324 0
M  V30 7372 O 670.21 -0.911522 3.4434 0
M  V30 7373 O 669.069 -1.63996 5.21313 0
M  V30 7374 H 666.163 -0.281851 0.777489 0
M  V30 7375 H 668.709 0.179916 1.68744 0
M  V30 7376 H 667.481 0.0830265 3.91212 0
M  V30 7377 H 667.104 -1.60956 3.63564 0
M  V30 7378 N 668.101 -1.57061 -0.130224 0
M  V30 7379 C 669.031 -2.02552 -1.16168 0
M  V30 7380 C 670.012 -0.907971 -1.4384 0
M  V30 7381 O 671.197 -1.17693 -1.54473 0
M  V30 7382 C 668.327 -2.42035 -2.49071 0
M  V30 7383 C 667.281 -3.5713 -2.35886 0
M  V30 7384 C 666.607 -3.82478 -3.7365 0
M  V30 7385 C 667.907 -4.89236 -1.8288 0
M  V30 7386 H 669.601 -2.8897 -0.783359 0
M  V30 7387 H 667.147 -1.39021 -0.375376 0
M  V30 7388 H 669.1 -2.72462 -3.21469 0
M  V30 7389 H 667.824 -1.52573 -2.88771 0
M  V30 7390 H 666.483 -3.26895 -1.65938 0
M  V30 7391 H 666.131 -2.9024 -4.10816 0
M  V30 7392 H 665.831 -4.59944 -3.65685 0
M  V30 7393 H 667.355 -4.15347 -4.47571 0
M  V30 7394 H 668.769 -5.18272 -2.45085 0
M  V30 7395 H 667.166 -5.70624 -1.85763 0
M  V30 7396 H 668.236 -4.78494 -0.785571 0
M  V30 7397 N 669.579 0.400081 -1.52437 0
M  V30 7398 C 670.828 1.14332 -1.66166 0
M  V30 7399 C 671.141 1.91419 -0.402253 0
M  V30 7400 O 672.347 2.6824 -0.419487 0
M  V30 7401 C 670.803 2.08137 -2.9361 0
M  V30 7402 C 670.411 1.36524 -4.26691 0
M  V30 7403 C 672.155 2.82664 -3.16703 0
M  V30 7404 C 670.062 2.29031 -5.45251 0
M  V30 7405 H 668.992 0.430499 -0.61902 0
M  V30 7406 H 671.643 0.407017 -1.78929 0
M  V30 7407 H 670.025 2.85358 -2.74567 0
M  V30 7408 H 671.199 0.646061 -4.56249 0
M  V30 7409 H 669.514 0.74002 -4.09771 0
M  V30 7410 H 672.111 3.52037 -4.0246 0
M  V30 7411 H 672.454 3.46122 -2.31312 0
M  V30 7412 H 672.987 2.12541 -3.36261 0
M  V30 7413 H 669.726 1.70206 -6.33017 0
M  V30 7414 H 669.246 2.98896 -5.2002 0
M  V30 7415 H 670.925 2.89359 -5.78689 0
M  V30 7416 N 671.057 1.43213 0.657864 0
M  V30 7417 C 671.989 1.43974 1.78337 0
M  V30 7418 C 673.002 0.336482 1.59285 0
M  V30 7419 O 674.191 0.600631 1.68091 0
M  V30 7420 C 671.291 1.23242 3.15697 0
M  V30 7421 C 670.464 2.46319 3.61449 0
M  V30 7422 C 669.523 2.2088 4.77597 0
M  V30 7423 O 668.549 2.942 4.87273 0
M  V30 7424 N 669.751 1.22251 5.67481 0
M  V30 7425 H 672.516 2.40993 1.78164 0
M  V30 7426 H 670.077 1.3831 0.841549 0
M  V30 7427 H 672.069 1.04113 3.91079 0
M  V30 7428 H 670.639 0.346849 3.1067 0
M  V30 7429 H 669.859 2.80904 2.76563 0
M  V30 7430 H 671.147 3.28239 3.88763 0
M  V30 7431 H 670.545 0.616433 5.62331 0
M  V30 7432 H 669.102 1.09107 6.42603 0
M  V30 7433 N 672.536 -0.895792 1.29666 0
M  V30 7434 C 673.483 -2.00035 1.15129 0
M  V30 7435 C 674.453 -1.66043 0.0435819 0
M  V30 7436 O 675.638 -1.89621 0.211811 0
M  V30 7437 C 672.778 -3.34774 0.83787 0
M  V30 7438 C 671.891 -3.81525 2.0264 0
M  V30 7439 C 671.026 -5.04858 1.65201 0
M  V30 7440 C 670.065 -5.43988 2.80612 0
M  V30 7441 N 669.202 -6.58507 2.43544 0
M  V30 7442 H 674.042 -2.11802 2.09628 0
M  V30 7443 H 671.579 -1.03719 1.04311 0
M  V30 7444 H 673.537 -4.12311 0.636824 0
M  V30 7445 H 672.167 -3.22724 -0.0702314 0
M  V30 7446 H 671.219 -2.9999 2.33903 0
M  V30 7447 H 672.531 -4.06472 2.89106 0
M  V30 7448 H 671.685 -5.8999 1.41408 0
M  V30 7449 H 670.424 -4.81759 0.758893 0
M  V30 7450 H 669.429 -4.57388 3.05083 0
M  V30 7451 H 670.654 -5.69066 3.70595 0
M  V30 7452 H 668.6 -6.37004 1.56724 0
M  V30 7453 H 668.517 -6.83269 3.23542 0
M  V30 7454 H 669.785 -7.46897 2.2308 0
M  V30 7455 N 674.014 -1.12206 -1.10668 0
M  V30 7456 C 674.947 -0.731468 -2.16159 0
M  V30 7457 C 675.925 0.276216 -1.60237 0
M  V30 7458 O 677.109 0.17074 -1.87725 0
M  V30 7459 C 674.236 -0.0822882 -3.386 0
M  V30 7460 C 673.282 -1.05641 -4.1321 0
M  V30 7461 S 674.115 -2.58281 -4.69096 0
M  V30 7462 C 675.271 -1.94686 -5.94851 0
M  V30 7463 H 675.504 -1.62504 -2.48957 0
M  V30 7464 H 673.037 -0.940906 -1.22419 0
M  V30 7465 H 674.995 0.285896 -4.09503 0
M  V30 7466 H 673.656 0.788358 -3.04046 0
M  V30 7467 H 672.849 -0.549764 -5.00993 0
M  V30 7468 H 672.451 -1.36741 -3.48106 0
M  V30 7469 H 674.743 -1.28815 -6.65141 0
M  V30 7470 H 675.686 -2.80499 -6.50174 0
M  V30 7471 H 676.094 -1.40369 -5.46769 0
M  V30 7472 N 675.492 1.28418 -0.913599 0
M  V30 7473 C 676.422 2.29713 -0.418847 0
M  V30 7474 C 677.403 1.62165 0.513469 0
M  V30 7475 O 678.588 1.89576 0.421235 0
M  V30 7476 C 675.718 3.45612 0.342042 0
M  V30 7477 C 674.672 4.25056 -0.501123 0
M  V30 7478 C 673.998 5.3329 0.388097 0
M  V30 7479 C 675.298 4.91814 -1.75831 0
M  V30 7480 H 676.992 2.71346 -1.26538 0
M  V30 7481 H 674.538 1.30446 -0.609903 0
M  V30 7482 H 676.491 4.15562 0.699 0
M  V30 7483 H 675.215 3.02858 1.22248 0
M  V30 7484 H 673.874 3.56833 -0.840598 0
M  V30 7485 H 673.522 4.8678 1.26707 0
M  V30 7486 H 673.222 5.87347 -0.172459 0
M  V30 7487 H 674.746 6.06088 0.74094 0
M  V30 7488 H 676.16 5.54126 -1.47026 0
M  V30 7489 H 674.557 5.55866 -2.26126 0
M  V30 7490 H 675.627 4.16313 -2.4862 0
M  V30 7491 N 676.97 0.677563 1.42291 0
M  V30 7492 C 677.88 0.000962654 2.346 0
M  V30 7493 C 678.896 -0.785833 1.55244 0
M  V30 7494 O 680.072 -0.727523 1.87801 0
M  V30 7495 C 677.137 -0.936746 3.33805 0
M  V30 7496 C 676.198 -0.144173 4.29058 0
M  V30 7497 C 675.431 -1.03722 5.23524 0
M  V30 7498 O 675.654 -2.27675 5.22992 0
M  V30 7499 O 674.588 -0.496542 5.99848 0
M  V30 7500 H 678.414 0.761397 2.94001 0
M  V30 7501 H 675.999 0.43781 1.42841 0
M  V30 7502 H 677.881 -1.47497 3.94744 0
M  V30 7503 H 676.556 -1.67698 2.76874 0
M  V30 7504 H 675.463 0.438224 3.71524 0
M  V30 7505 H 676.796 0.55701 4.89038 0
M  V30 7506 N 678.448 -1.51871 0.421078 0
M  V30 7507 C 679.678 -2.06057 -0.149723 0
M  V30 7508 C 680.086 -1.29002 -1.38402 0
M  V30 7509 O 679.429 -0.338385 -1.80556 0
M  V30 7510 C 679.491 -3.55216 -0.553339 0
M  V30 7511 C 679.155 -4.53408 0.571879 0
M  V30 7512 C 680.152 -4.99586 1.4391 0
M  V30 7513 C 677.837 -4.967 0.747979 0
M  V30 7514 C 679.831 -5.87711 2.46727 0
M  V30 7515 C 677.518 -5.84619 1.77944 0
M  V30 7516 C 678.516 -6.30021 2.63748 0
M  V30 7517 O 678.204 -7.16197 3.65126 0
M  V30 7518 H 677.936 -0.675744 -0.0186102 0
M  V30 7519 H 680.49 -1.96618 0.594166 0
M  V30 7520 H 678.72 -3.62381 -1.34969 0
M  V30 7521 H 680.409 -3.91992 -1.05342 0
M  V30 7522 H 681.175 -4.66846 1.31451 0
M  V30 7523 H 677.054 -4.60913 0.0897357 0
M  V30 7524 H 680.598 -6.2307 3.13734 0
M  V30 7525 H 676.495 -6.16771 1.90429 0
M  V30 7526 H 677.263 -7.34337 3.61512 0
M  V30 7527 N 679.926 -0.151884 -1.56866 0
M  V30 7528 C 681.203 0.543328 -1.87902 0
M  V30 7529 C 681.583 1.82636 -1.05864 0
M  V30 7530 O 680.931 2.28028 -0.146868 0
M  V30 7531 C 681.141 0.804056 -3.39611 0
M  V30 7532 C 682.489 1.14267 -4.08935 0
M  V30 7533 O 683.513 0.893248 -3.44818 0
M  V30 7534 O 682.372 1.61229 -5.22176 0
M  V30 7535 H 679.466 0.277724 -0.778973 0
M  V30 7536 H 682.012 -0.188862 -1.68646 0
M  V30 7537 H 680.784 -0.103772 -3.91162 0
M  V30 7538 H 680.407 1.59025 -3.64413 0
M  V30 7539 N 681.404 1.57128 0.121893 0
M  V30 7540 C 682.815 1.73902 0.679348 0
M  V30 7541 C 683.166 0.770135 1.80453 0
M  V30 7542 O 682.291 -0.0576083 2.16323 0
M  V30 7543 C 682.886 3.15328 1.2391 0
M  V30 7544 C 681.445 3.33618 1.74288 0
M  V30 7545 C 680.592 2.6978 0.641414 0
M  V30 7546 H 683.543 1.58359 -0.104 0
M  V30 7547 H 683.564 3.16718 2.10879 0
M  V30 7548 H 683.076 3.85821 0.419957 0
M  V30 7549 H 681.177 2.68162 2.58689 0
M  V30 7550 H 681.29 4.4176 1.85432 0
M  V30 7551 H 679.654 2.30935 1.0743 0
M  V30 7552 H 680.437 3.42895 -0.166707 0
M  V30 7553 N 682.882 -0.391992 1.52647 0
M  V30 7554 C 683.845 -1.46135 1.7657 0
M  V30 7555 C 684.845 -1.47701 0.635698 0
M  V30 7556 O 686.035 -1.48924 0.903728 0
M  V30 7557 C 683.167 -2.85443 1.86374 0
M  V30 7558 H 684.36 -1.26208 2.72051 0
M  V30 7559 H 681.913 -0.623549 1.43323 0
M  V30 7560 H 682.648 -3.10718 0.928685 0
M  V30 7561 H 682.433 -2.85708 2.68539 0
M  V30 7562 H 683.923 -3.62933 2.06566 0
M  V30 7563 N 684.36 -1.4356 -0.65026 0
M  V30 7564 C 685.307 -1.48948 -1.76304 0
M  V30 7565 C 686.277 -0.338919 -1.62605 0
M  V30 7566 O 687.462 -0.54649 -1.82806 0
M  V30 7567 C 684.602 -1.42131 -3.14472 0
M  V30 7568 C 683.715 -2.67415 -3.39284 0
M  V30 7569 C 682.85 -2.52565 -4.67316 0
M  V30 7570 C 681.889 -3.73103 -4.85243 0
M  V30 7571 N 681.026 -3.57046 -6.04535 0
M  V30 7572 H 685.866 -2.44032 -1.71034 0
M  V30 7573 H 683.403 -1.21131 -0.834601 0
M  V30 7574 H 685.361 -1.36172 -3.94351 0
M  V30 7575 H 683.991 -0.506273 -3.18805 0
M  V30 7576 H 683.043 -2.8364 -2.53481 0
M  V30 7577 H 684.355 -3.56943 -3.48415 0
M  V30 7578 H 683.509 -2.44331 -5.55326 0
M  V30 7579 H 682.248 -1.60566 -4.60511 0
M  V30 7580 H 681.253 -3.81743 -3.95667 0
M  V30 7581 H 682.478 -4.66115 -4.93876 0
M  V30 7582 H 680.424 -2.67783 -5.98856 0
M  V30 7583 H 680.341 -4.40178 -6.14638 0
M  V30 7584 H 681.609 -3.52669 -6.95158 0
M  V30 7585 N 685.838 0.888903 -1.30139 0
M  V30 7586 C 687.254 1.17153 -1.08385 0
M  V30 7587 C 687.454 2.0088 0.157925 0
M  V30 7588 O 686.51 2.37668 0.852652 0
M  V30 7589 C 687.823 1.882 -2.34523 0
M  V30 7590 C 689.371 2.00981 -2.39949 0
M  V30 7591 C 689.846 2.75441 -3.65918 0
M  V30 7592 N 691.337 2.82989 -3.66704 0
M  V30 7593 C 692.072 3.41167 -4.60861 0
M  V30 7594 N 691.568 4.00425 -5.6536 0
M  V30 7595 N 693.361 3.38944 -4.48412 0
M  V30 7596 H 685.512 0.33053 -2.09812 0
M  V30 7597 H 687.775 0.208964 -0.924683 0
M  V30 7598 H 687.481 1.34119 -3.25123 0
M  V30 7599 H 687.355 2.88609 -2.42868 0
M  V30 7600 H 689.742 2.54234 -1.4983 0
M  V30 7601 H 689.823 0.996725 -2.35582 0
M  V30 7602 H 689.467 2.22861 -4.56394 0
M  V30 7603 H 689.397 3.77118 -3.67546 0
M  V30 7604 H 691.888 2.40912 -2.91153 0
M  V30 7605 H 692.201 4.42871 -6.33313 0
M  V30 7606 H 690.546 3.98856 -5.69157 0
M  V30 7607 H 693.737 2.91875 -3.6596 0
M  V30 7608 H 693.91 3.83989 -5.21974 0
M  V30 7609 N 687.317 1.12792 1.10072 0
M  V30 7610 C 688.566 0.880232 1.81479 0
M  V30 7611 C 688.879 -0.595575 1.86312 0
M  V30 7612 O 690.085 -0.959979 2.53962 0
M  V30 7613 C 688.541 1.52514 3.25987 0
M  V30 7614 C 688.149 3.036 3.29441 0
M  V30 7615 C 689.893 1.35788 4.02196 0
M  V30 7616 C 687.8 3.61007 4.68431 0
M  V30 7617 H 686.73 0.325654 0.680048 0
M  V30 7618 H 689.381 1.35485 1.23758 0
M  V30 7619 H 687.763 0.978188 3.83728 0
M  V30 7620 H 688.937 3.64819 2.81502 0
M  V30 7621 H 687.252 3.19765 2.66719 0
M  V30 7622 H 689.849 1.76096 5.0487 0
M  V30 7623 H 690.192 0.301972 4.15203 0
M  V30 7624 H 690.725 1.87426 3.50879 0
M  V30 7625 H 687.464 4.66375 4.60625 0
M  V30 7626 H 686.984 3.04564 5.16721 0
M  V30 7627 H 688.663 3.60289 5.37402 0
M  V30 7628 N 688.795 -1.27931 0.920396 0
M  V30 7629 C 690.023 -1.98805 0.573087 0
M  V30 7630 C 690.438 -1.68724 -0.847201 0
M  V30 7631 O 689.795 -0.943699 -1.56207 0
M  V30 7632 C 689.846 -3.52971 0.780633 0
M  V30 7633 O 689.567 -3.81994 2.14504 0
M  V30 7634 C 691.068 -4.411 0.44105 0
M  V30 7635 H 688.288 -0.634651 0.21785 0
M  V30 7636 H 690.832 -1.62965 1.23542 0
M  V30 7637 H 688.987 -3.87048 0.165204 0
M  V30 7638 H 689.401 -4.76609 2.18962 0
M  V30 7639 H 690.875 -5.48312 0.637006 0
M  V30 7640 H 691.352 -4.34758 -0.62306 0
M  V30 7641 H 691.958 -4.12532 1.0343 0
M  V30 7642 N 690.273 -0.685099 -1.4193 0
M  V30 7643 C 691.203 -0.0273506 -2.33484 0
M  V30 7644 C 692.184 0.778366 -1.51246 0
M  V30 7645 O 693.369 0.733449 -1.79817 0
M  V30 7646 C 690.499 0.917272 -3.34968 0
M  V30 7647 C 689.453 0.21941 -4.27437 0
M  V30 7648 C 688.779 1.27768 -5.1921 0
M  V30 7649 C 690.079 -0.907894 -5.14349 0
M  V30 7650 H 691.773 -0.791994 -2.88735 0
M  V30 7651 H 689.319 -0.382308 -1.38832 0
M  V30 7652 H 691.272 1.38657 -3.97935 0
M  V30 7653 H 689.996 1.71346 -2.78043 0
M  V30 7654 H 688.655 -0.229757 -3.65879 0
M  V30 7655 H 688.303 2.06612 -4.58607 0
M  V30 7656 H 688.003 0.815803 -5.81909 0
M  V30 7657 H 689.527 1.7477 -5.85054 0
M  V30 7658 H 690.941 -0.519348 -5.70943 0
M  V30 7659 H 689.338 -1.2962 -5.85934 0
M  V30 7660 H 690.408 -1.75218 -4.52136 0
M  V30 7661 N 691.751 1.51645 -0.429126 0
M  V30 7662 C 693.167 1.59394 -0.080994 0
M  V30 7663 C 693.367 1.44064 1.40882 0
M  V30 7664 O 692.423 1.27771 2.17786 0
M  V30 7665 C 693.736 2.94779 -0.593773 0
M  V30 7666 C 695.284 3.08067 -0.553494 0
M  V30 7667 C 695.759 4.45963 -1.04311 0
M  V30 7668 N 697.25 4.5226 -1.00076 0
M  V30 7669 C 697.985 5.57268 -1.35056 0
M  V30 7670 N 697.481 6.69734 -1.77282 0
M  V30 7671 N 699.274 5.47582 -1.26925 0
M  V30 7672 H 691.425 1.59856 -1.39857 0
M  V30 7673 H 693.688 0.753095 -0.575805 0
M  V30 7674 H 693.394 3.11342 -1.63583 0
M  V30 7675 H 693.268 3.77197 -0.0142202 0
M  V30 7676 H 695.655 2.91177 0.479556 0
M  V30 7677 H 695.736 2.27508 -1.16935 0
M  V30 7678 H 695.38 4.63598 -2.07459 0
M  V30 7679 H 695.31 5.25049 -0.403873 0
M  V30 7680 H 697.801 3.71537 -0.690564 0
M  V30 7681 H 698.114 7.4587 -2.02232 0
M  V30 7682 H 696.459 6.70963 -1.81202 0
M  V30 7683 H 699.65 4.58604 -0.93809 0
M  V30 7684 H 699.823 6.29308 -1.54516 0
M  V30 7685 N 693.229 0.160201 1.56784 0
M  V30 7686 C 694.139 -0.787167 2.21 0
M  V30 7687 C 695.155 -1.26167 1.19825 0
M  V30 7688 O 696.331 -1.31611 1.52448 0
M  V30 7689 C 693.396 -2.00364 2.8294 0
M  V30 7690 C 692.457 -1.5771 3.99282 0
M  V30 7691 C 691.69 -2.73558 4.58259 0
M  V30 7692 O 691.913 -3.90129 4.16119 0
M  V30 7693 O 690.847 -2.48271 5.48311 0
M  V30 7694 H 694.673 -0.270462 3.02493 0
M  V30 7695 H 692.258 -0.0674666 1.49248 0
M  V30 7696 H 694.14 -2.71529 3.22257 0
M  V30 7697 H 692.815 -2.50961 2.04451 0
M  V30 7698 H 691.722 -0.835274 3.64656 0
M  V30 7699 H 693.055 -1.11815 4.79331 0
M  V30 7700 N 694.707 -1.5719 -0.113559 0
M  V30 7701 C 695.67 -1.99796 -1.12314 0
M  V30 7702 C 696.67 -0.888847 -1.34001 0
M  V30 7703 O 697.86 -1.15476 -1.30426 0
M  V30 7704 C 694.992 -2.34279 -2.47641 0
M  V30 7705 H 696.185 -2.90193 -0.756825 0
M  V30 7706 H 693.738 -1.52144 -0.358029 0
M  V30 7707 H 694.473 -1.46778 -2.89183 0
M  V30 7708 H 694.258 -3.15175 -2.33253 0
M  V30 7709 H 695.748 -2.67963 -3.2029 0
M  V30 7710 N 696.185 0.383891 -1.52853 0
M  V30 7711 C 697.115 1.47559 -1.80965 0
M  V30 7712 C 698.096 1.5669 -0.661986 0
M  V30 7713 O 699.281 1.71556 -0.910072 0
M  V30 7714 C 696.411 2.85114 -1.98312 0
M  V30 7715 C 695.365 2.9082 -3.14019 0
M  V30 7716 C 694.691 4.30873 -3.16627 0
M  V30 7717 C 695.991 2.60001 -4.52986 0
M  V30 7718 H 697.685 1.24283 -2.72386 0
M  V30 7719 H 695.231 0.596445 -1.31067 0
M  V30 7720 H 697.184 3.61496 -2.16561 0
M  V30 7721 H 695.908 3.09738 -1.03585 0
M  V30 7722 H 694.567 2.16886 -2.9556 0
M  V30 7723 H 694.215 4.52545 -2.19573 0
M  V30 7724 H 693.915 4.3561 -3.94357 0
M  V30 7725 H 695.439 5.09154 -3.37038 0
M  V30 7726 H 696.853 3.261 -4.71521 0
M  V30 7727 H 695.25 2.76081 -5.32822 0
M  V30 7728 H 696.32 1.5532 -4.59351 0
M  V30 7729 N 697.663 1.43903 0.642637 0
M  V30 7730 C 698.61 1.49881 1.75512 0
M  V30 7731 C 699.58 0.347538 1.62423 0
M  V30 7732 O 700.765 0.556177 1.82514 0
M  V30 7733 C 697.905 1.43797 3.13714 0
M  V30 7734 C 697.018 2.6921 3.37861 0
M  V30 7735 C 696.153 2.5504 4.6597 0
M  V30 7736 C 695.192 3.75671 4.83257 0
M  V30 7737 N 694.329 3.60247 6.02633 0
M  V30 7738 H 699.169 2.44935 1.69737 0
M  V30 7739 H 696.706 1.21572 0.828165 0
M  V30 7740 H 698.664 1.38262 3.93624 0
M  V30 7741 H 697.294 0.523173 3.18532 0
M  V30 7742 H 696.346 2.8498 2.51973 0
M  V30 7743 H 697.658 3.58786 3.46517 0
M  V30 7744 H 696.812 2.47273 5.54023 0
M  V30 7745 H 695.551 1.63006 4.59653 0
M  V30 7746 H 694.556 3.83836 3.93637 0
M  V30 7747 H 695.781 4.68728 4.91397 0
M  V30 7748 H 693.727 2.70955 5.97427 0
M  V30 7749 H 693.644 4.43431 6.12295 0
M  V30 7750 H 694.912 3.56351 6.93278 0
M  V30 7751 N 699.141 -0.881989 1.30609 0
M  V30 7752 C 700.091 -1.97539 1.13852 0
M  V30 7753 C 701.075 -1.60813 0.0528428 0
M  V30 7754 O 702.267 -1.74827 0.276484 0
M  V30 7755 C 699.396 -3.32977 0.835519 0
M  V30 7756 C 698.482 -3.76008 1.96159 0
M  V30 7757 N 698.873 -3.91109 3.20729 0
M  V30 7758 C 697.171 -4.05427 1.85863 0
M  V30 7759 C 697.872 -4.27661 3.94311 0
M  V30 7760 N 696.848 -4.37686 3.22385 0
M  V30 7761 H 700.65 -2.07309 2.08327 0
M  V30 7762 H 698.164 -1.072 1.21992 0
M  V30 7763 H 700.161 -4.11041 0.696477 0
M  V30 7764 H 698.821 -3.24542 -0.101135 0
M  V30 7765 H 699.832 -3.7616 3.55984 0
M  V30 7766 H 696.509 -4.05449 0.995847 0
M  V30 7767 H 697.899 -4.47042 5.01601 0
M  V30 7768 N 700.619 -1.13374 -1.09472 0
M  V30 7769 C 702.03 -0.90801 -1.63132 0
M  V30 7770 C 702.381 0.555576 -1.8817 0
M  V30 7771 O 701.506 1.42218 -1.63104 0
M  V30 7772 C 702.101 -1.64182 -2.96361 0
M  V30 7773 C 700.66 -1.46197 -3.46848 0
M  V30 7774 C 699.807 -1.67134 -2.21273 0
M  V30 7775 H 702.758 -1.2871 -0.928411 0
M  V30 7776 H 702.779 -1.09863 -3.64294 0
M  V30 7777 H 702.291 -2.707 -2.78106 0
M  V30 7778 H 700.392 -0.419788 -3.70228 0
M  V30 7779 H 700.505 -2.22472 -4.24315 0
M  V30 7780 H 698.869 -1.09616 -2.29905 0
M  V30 7781 H 699.652 -2.74971 -2.05538 0
M  V30 7782 N 702.098 1.27442 -0.927168 0
M  V30 7783 C 703.345 1.94391 -0.567324 0
M  V30 7784 C 703.673 1.72875 0.891321 0
M  V30 7785 O 702.928 1.05071 1.65102 0
M  V30 7786 C 703.227 3.47413 -0.838994 0
M  V30 7787 C 702.893 3.89049 -2.2793 0
M  V30 7788 C 701.555 4.00127 -2.67305 0
M  V30 7789 C 703.907 4.10154 -3.21595 0
M  V30 7790 C 701.235 4.29697 -3.99471 0
M  V30 7791 C 703.587 4.41208 -4.53341 0
M  V30 7792 C 702.251 4.50499 -4.92551 0
M  V30 7793 H 701.521 0.711325 -0.207598 0
M  V30 7794 H 704.168 1.51523 -1.17103 0
M  V30 7795 H 702.473 3.91503 -0.152609 0
M  V30 7796 H 704.17 3.97354 -0.53955 0
M  V30 7797 H 700.76 3.80962 -1.96381 0
M  V30 7798 H 704.944 4.01036 -2.92377 0
M  V30 7799 H 700.2 4.35099 -4.29533 0
M  V30 7800 H 704.374 4.56486 -5.25922 0
M  V30 7801 H 702.001 4.73167 -5.94994 0
M  V30 7802 N 703.576 0.692616 1.41565 0
M  V30 7803 C 704.823 0.222335 2.01276 0
M  V30 7804 C 705.151 -1.17706 1.5484 0
M  V30 7805 O 704.406 -1.80795 0.749118 0
M  V30 7806 C 704.705 0.225073 3.56691 0
M  V30 7807 C 704.371 1.57158 4.22625 0
M  V30 7808 C 703.033 1.94022 4.40351 0
M  V30 7809 C 705.385 2.45758 4.59622 0
M  V30 7810 C 702.713 3.19076 4.92349 0
M  V30 7811 C 705.065 3.70141 5.13009 0
M  V30 7812 C 703.729 4.07152 5.28946 0
M  V30 7813 H 702.999 0.0813581 0.73652 0
M  V30 7814 H 705.646 0.891123 1.69503 0
M  V30 7815 H 703.951 -0.527259 3.88236 0
M  V30 7816 H 705.648 -0.156283 4.00695 0
M  V30 7817 H 702.238 1.27486 4.09201 0
M  V30 7818 H 706.422 2.18558 4.45585 0
M  V30 7819 H 701.678 3.4775 5.02872 0
M  V30 7820 H 705.852 4.38983 5.40617 0
M  V30 7821 H 703.479 5.04125 5.69001 0
M  V30 7822 N 705.054 -1.51416 0.437162 0
M  V30 7823 C 706.331 -1.94682 -0.189292 0
M  V30 7824 C 706.711 -1.37581 -1.60108 0
M  V30 7825 O 706.059 -0.562815 -2.2146 0
M  V30 7826 C 706.269 -3.48599 -0.167201 0
M  V30 7827 C 707.617 -4.2296 -0.372856 0
M  V30 7828 O 708.641 -3.55354 -0.245323 0
M  V30 7829 O 707.5 -5.42895 -0.626693 0
M  V30 7830 H 704.594 -0.816708 -0.130063 0
M  V30 7831 H 707.14 -1.62316 0.495128 0
M  V30 7832 H 705.912 -3.82616 0.81981 0
M  V30 7833 H 705.535 -3.87406 -0.894537 0
M  V30 7834 N 706.532 -0.168513 -1.56696 0
M  V30 7835 C 707.462 0.758563 -2.20835 0
M  V30 7836 C 708.443 1.24121 -1.1631 0
M  V30 7837 O 709.628 1.29487 -1.4473 0
M  V30 7838 C 706.758 1.9892 -2.8469 0
M  V30 7839 C 705.712 1.64252 -3.95228 0
M  V30 7840 C 705.038 2.94757 -4.46119 0
M  V30 7841 C 706.338 0.872675 -5.14958 0
M  V30 7842 H 708.032 0.223953 -2.98561 0
M  V30 7843 H 705.578 0.106277 -1.43607 0
M  V30 7844 H 707.531 2.64275 -3.28233 0
M  V30 7845 H 706.255 2.5479 -2.04327 0
M  V30 7846 H 704.914 1.01266 -3.52336 0
M  V30 7847 H 704.562 3.48662 -3.62552 0
M  V30 7848 H 704.262 2.72316 -5.2069 0
M  V30 7849 H 705.786 3.61147 -4.92347 0
M  V30 7850 H 707.2 1.42875 -5.55211 0
M  V30 7851 H 705.597 0.747402 -5.95428 0
M  V30 7852 H 706.667 -0.131535 -4.84722 0
M  V30 7853 N 708.01 1.57248 0.105221 0
M  V30 7854 C 708.94 2.04374 1.12931 0
M  V30 7855 C 709.921 0.93074 1.42377 0
M  V30 7856 O 711.106 1.20136 1.52581 0
M  V30 7857 C 708.236 2.45967 2.45189 0
M  V30 7858 C 707.19 3.60838 2.30174 0
M  V30 7859 C 706.516 3.88374 3.67518 0
M  V30 7860 C 707.816 4.92084 1.75073 0
M  V30 7861 H 709.51 2.9018 0.737287 0
M  V30 7862 H 707.056 1.39601 0.353211 0
M  V30 7863 H 709.009 2.77542 3.17094 0
M  V30 7864 H 707.733 1.57148 2.86308 0
M  V30 7865 H 706.392 3.29493 1.60716 0
M  V30 7866 H 706.04 2.96739 4.06147 0
M  V30 7867 H 705.74 4.65703 3.58321 0
M  V30 7868 H 707.264 4.22415 4.40906 0
M  V30 7869 H 708.678 5.22106 2.36809 0
M  V30 7870 H 707.075 5.73507 1.76662 0
M  V30 7871 H 708.145 4.79684 0.709347 0
M  V30 7872 N 709.488 -0.375779 1.53054 0
M  V30 7873 C 710.435 -1.45978 1.78771 0
M  V30 7874 C 711.405 -1.53625 0.631552 0
M  V30 7875 O 712.59 -1.69674 0.872667 0
M  V30 7876 C 709.73 -2.8305 1.97425 0
M  V30 7877 C 708.843 -2.84451 3.25134 0
M  V30 7878 C 707.978 -4.13034 3.34031 0
M  V30 7879 C 707.017 -4.08536 4.55812 0
M  V30 7880 N 706.154 -5.2875 4.61918 0
M  V30 7881 H 710.994 -1.23349 2.71273 0
M  V30 7882 H 708.531 -0.598147 1.3439 0
M  V30 7883 H 710.489 -3.62666 2.06225 0
M  V30 7884 H 709.119 -3.04101 1.0827 0
M  V30 7885 H 708.171 -1.97127 3.25338 0
M  V30 7886 H 709.483 -2.76998 4.14818 0
M  V30 7887 H 708.637 -5.0106 3.42087 0
M  V30 7888 H 707.376 -4.23226 2.42345 0
M  V30 7889 H 706.381 -3.18897 4.47867 0
M  V30 7890 H 707.606 -3.99955 5.48828 0
M  V30 7891 H 705.552 -5.39547 3.73129 0
M  V30 7892 H 705.469 -5.23426 5.45492 0
M  V30 7893 H 706.737 -6.18637 4.74245 0
M  V30 7894 N 710.966 -1.44241 -0.634997 0
M  V30 7895 C 711.913 -1.5081 -1.74714 0
M  V30 7896 C 712.883 -0.356147 -1.62237 0
M  V30 7897 O 714.068 -0.565848 -1.82216 0
M  V30 7898 C 711.208 -1.45458 -3.12947 0
M  V30 7899 C 710.321 -2.70998 -3.36428 0
M  V30 7900 C 709.456 -2.57507 -4.64611 0
M  V30 7901 C 708.495 -3.78229 -4.81258 0
M  V30 7902 N 707.632 -3.63438 -6.00714 0
M  V30 7903 H 712.472 -2.45832 -1.68436 0
M  V30 7904 H 710.009 -1.2201 -0.821706 0
M  V30 7905 H 711.967 -1.40347 -3.92885 0
M  V30 7906 H 710.597 -0.540058 -3.1825 0
M  V30 7907 H 709.649 -2.86312 -2.50458 0
M  V30 7908 H 710.961 -3.60619 -3.44609 0
M  V30 7909 H 710.115 -2.50207 -5.52703 0
M  V30 7910 H 708.854 -1.65441 -4.58782 0
M  V30 7911 H 707.859 -3.85918 -3.91596 0
M  V30 7912 H 709.084 -4.71327 -4.88904 0
M  V30 7913 H 707.03 -2.7412 -5.95982 0
M  V30 7914 H 706.947 -4.46672 -6.09934 0
M  V30 7915 H 708.215 -3.60022 -6.91378 0
M  V30 7916 N 712.444 0.87505 -1.31075 0
M  V30 7917 C 713.669 1.66583 -1.23551 0
M  V30 7918 C 714.094 1.87067 0.19686 0
M  V30 7919 O 713.452 1.40877 1.1412 0
M  V30 7920 C 713.5 3.01401 -1.97965 0
M  V30 7921 O 712.604 3.90923 -1.31351 0
M  V30 7922 H 711.945 0.508645 -0.426821 0
M  V30 7923 H 714.475 1.09139 -1.7306 0
M  V30 7924 H 714.485 3.51374 -2.07366 0
M  V30 7925 H 713.16 2.85812 -3.02133 0
M  V30 7926 H 711.737 3.49369 -1.30368 0
M  V30 7927 N 713.922 1.13953 1.08869 0
M  V30 7928 C 715.171 0.899431 1.80536 0
M  V30 7929 C 715.484 -0.575781 1.86933 0
M  V30 7930 O 716.69 -0.932988 2.54966 0
M  V30 7931 C 715.146 1.55963 3.24351 0
M  V30 7932 C 714.754 3.07077 3.26202 0
M  V30 7933 C 716.498 1.40046 4.00733 0
M  V30 7934 C 714.405 3.65955 4.64576 0
M  V30 7935 H 713.335 0.332849 0.676556 0
M  V30 7936 H 715.986 1.3679 1.22314 0
M  V30 7937 H 714.368 1.01883 3.82669 0
M  V30 7938 H 715.542 3.67785 2.77617 0
M  V30 7939 H 713.857 3.22576 2.63312 0
M  V30 7940 H 716.454 1.81441 5.02974 0
M  V30 7941 H 716.797 0.345993 4.1486 0
M  V30 7942 H 717.33 1.91137 3.48872 0
M  V30 7943 H 714.069 4.71234 4.55652 0
M  V30 7944 H 713.589 3.10027 5.13462 0
M  V30 7945 H 715.268 3.65968 5.33551 0
M  V30 7946 O 715.439 -1.21416 1.06491 0
M  V30 7947 H 716.13 -1.7871 0.747168 0
M  V30 END ATOM
M  V30 BEGIN BOND
M  V30 END BOND
M  V30 END CTAB
M  END
$$$$
