drugbank_target|Q05940 Synaptic vesicular amine transporter (DB00182; DB00206; DB00368; DB00502; DB00579; DB00865; DB00988; DB01089; DB01363; DB01442; DB01454; DB01472; DB01576; DB01577; DB04821; DB04844; DB05381; DB06706; DB06714; DB08839; DB09363; DB12161)
 OpenBabel12092119243D

  0  0  0     0  0            999 V3000
M  V30 BEGIN CTAB
M  V30 COUNTS 7908 7996 0 0 0
M  V30 BEGIN ATOM
M  V30 1 H -0.908 1.98254 -0.117106 0
M  V30 2 N 0 1.576 0 0
M  V30 3 C 0.933 2.03868 1.02534 0
M  V30 4 C 1.911 0.928543 1.3348 0
M  V30 5 O 3.095 1.19667 1.45644 0
M  V30 6 C 0.222 2.43627 2.35294 0
M  V30 7 C -0.732 3.65373 2.2001 0
M  V30 8 S 0.101 5.13292 1.52614 0
M  V30 9 C 1.257 5.56322 2.86805 0
M  V30 10 H 1.49 2.90518 0.631377 0
M  V30 11 H -0.977 1.52953 0.210867 0
M  V30 12 H 0.981 2.67203 3.11629 0
M  V30 13 H -0.358 1.57376 2.7183 0
M  V30 14 H -1.165 3.90944 3.18086 0
M  V30 15 H -1.563 3.418 1.51819 0
M  V30 16 H 0.729 5.58782 3.83104 0
M  V30 17 H 1.672 6.56266 2.65933 0
M  V30 18 H 2.08 4.83886 2.90714 0
M  V30 19 N 1.4781 -0.272755 1.55222 0
M  V30 20 C 2.4411 -1.32041 1.87344 0
M  V30 21 C 3.4411 -1.42342 0.74803 0
M  V30 22 O 4.6311 -1.41488 1.0162 0
M  V30 23 C 1.7631 -2.70173 2.07893 0
M  V30 24 H 2.9561 -1.04789 2.80997 0
M  V30 25 H 0.5091 -0.51083 1.47717 0
M  V30 26 H 1.2441 -3.02605 1.16622 0
M  V30 27 H 1.0291 -2.64082 2.89833 0
M  V30 28 H 2.5191 -3.45869 2.34017 0
M  V30 29 N 2.9562 -1.48159 -0.537278 0
M  V30 30 C 3.8862 -1.65029 -1.6519 0
M  V30 31 C 4.8672 -0.499281 -1.62607 0
M  V30 32 O 6.0522 -0.730972 -1.79918 0
M  V30 33 C 3.1822 -1.68303 -3.03795 0
M  V30 34 C 2.1362 -2.8283 -3.21234 0
M  V30 35 C 1.4622 -2.71189 -4.60826 0
M  V30 36 C 2.7622 -4.24211 -3.04701 0
M  V30 37 H 4.4562 -2.58341 -1.51328 0
M  V30 38 H 2.0022 -1.24325 -0.726585 0
M  V30 39 H 3.9552 -1.78693 -3.81637 0
M  V30 40 H 2.6792 -0.715635 -3.18663 0
M  V30 41 H 1.3382 -2.71983 -2.45807 0
M  V30 42 H 0.9862 -1.72435 -4.7252 0
M  V30 43 H 0.6862 -3.48035 -4.7344 0
M  V30 44 H 2.2102 -2.83537 -5.40777 0
M  V30 45 H 3.6242 -4.3593 -3.72341 0
M  V30 46 H 2.0212 -5.01998 -3.28813 0
M  V30 47 H 3.0912 -4.41184 -2.01209 0
M  V30 48 N 4.4343 0.785586 -1.36625 0
M  V30 49 C 5.6593 1.57963 -1.34397 0
M  V30 50 C 6.0843 1.87964 0.071526 0
M  V30 51 O 5.4423 1.48182 1.0446 0
M  V30 52 C 5.4903 2.87511 -2.17646 0
M  V30 53 O 4.5943 3.81281 -1.57158 0
M  V30 54 H 3.9353 0.479014 -0.459828 0
M  V30 55 H 6.4653 0.973411 -1.79961 0
M  V30 56 H 6.4753 3.36745 -2.30362 0
M  V30 57 H 5.1503 2.65002 -3.20541 0
M  V30 58 H 3.7273 3.39885 -1.53403 0
M  V30 59 N 5.9124 1.20967 1.01018 0
M  V30 60 C 6.8224 0.980157 2.13143 0
M  V30 61 C 7.8384 -0.0660665 1.73875 0
M  V30 62 O 9.0144 0.122821 2.01025 0
M  V30 63 C 6.0794 0.54216 3.42435 0
M  V30 64 C 5.1404 1.65999 3.95908 0
M  V30 65 C 4.3734 1.2428 5.19028 0
M  V30 66 O 4.5964 0.114196 5.70286 0
M  V30 67 O 3.5304 2.05271 5.65816 0
M  V30 68 H 7.3564 1.91913 2.35379 0
M  V30 69 H 4.9414 0.994099 1.11526 0
M  V30 70 H 6.8234 0.30744 4.20277 0
M  V30 71 H 5.4984 -0.36815 3.216 0
M  V30 72 H 4.4054 1.94906 3.19316 0
M  V30 73 H 5.7384 2.54753 4.21143 0
M  V30 74 N 7.3905 -1.2043 1.01659 0
M  V30 75 C 8.3205 -2.25466 0.607226 0
M  V30 76 C 9.3015 -1.65853 -0.377716 0
M  V30 77 O 10.4865 -1.92409 -0.263149 0
M  V30 78 C 7.6165 -3.47256 -0.0552949 0
M  V30 79 C 6.5705 -4.19462 0.850632 0
M  V30 80 C 5.8965 -5.34673 0.0538859 0
M  V30 81 C 7.1965 -4.75603 2.15868 0
M  V30 82 H 8.8905 -2.59962 1.48526 0
M  V30 83 H 6.4365 -1.2496 0.715605 0
M  V30 84 H 8.3895 -4.19917 -0.353233 0
M  V30 85 H 7.1135 -3.11924 -0.968045 0
M  V30 86 H 5.7725 -3.48667 1.13257 0
M  V30 87 H 5.4205 -4.95585 -0.860514 0
M  V30 88 H 5.1205 -5.83913 0.657192 0
M  V30 89 H 6.6445 -6.10138 -0.237598 0
M  V30 90 H 8.0585 -5.40083 1.92311 0
M  V30 91 H 6.4555 -5.3528 2.71284 0
M  V30 92 H 7.5255 -3.94346 2.82169 0
M  V30 93 N 8.8686 -0.792821 -1.36206 0
M  V30 94 C 9.8316 -0.199459 -2.2833 0
M  V30 95 C 10.8316 0.605189 -1.48977 0
M  V30 96 O 12.0216 0.425685 -1.68919 0
M  V30 97 C 9.1536 0.723523 -3.33134 0
M  V30 98 H 10.3466 -1.01181 -2.82316 0
M  V30 99 H 7.8996 -0.562485 -1.45828 0
M  V30 100 H 8.6346 1.56008 -2.84309 0
M  V30 101 H 8.4196 0.148436 -3.91819 0
M  V30 102 H 9.9096 1.13344 -4.01924 0
M  V30 103 N 10.3467 1.47872 -0.545128 0
M  V30 104 C 11.2767 2.32661 0.197793 0
M  V30 105 C 12.2577 1.43041 0.920504 0
M  V30 106 O 13.4427 1.71912 0.90333 0
M  V30 107 C 10.5727 3.24569 1.23582 0
M  V30 108 C 9.5267 4.23333 0.630323 0
M  V30 109 C 8.8527 5.0448 1.77211 0
M  V30 110 C 10.1527 5.20704 -0.407974 0
M  V30 111 H 11.8467 2.95024 -0.510045 0
M  V30 112 H 9.3927 1.4187 -0.246731 0
M  V30 113 H 11.3457 3.8272 1.76362 0
M  V30 114 H 10.0697 2.60236 1.97344 0
M  V30 115 H 8.7287 3.6639 0.123922 0
M  V30 116 H 8.3767 4.36561 2.49847 0
M  V30 117 H 8.0767 5.71339 1.37281 0
M  V30 118 H 9.6007 5.65487 2.3034 0
M  V30 119 H 11.0147 5.7329 0.033305 0
M  V30 120 H 9.4117 5.95699 -0.725486 0
M  V30 121 H 10.4817 4.66917 -1.30828 0
M  V30 122 N 11.8248 0.280983 1.55075 0
M  V30 123 C 13.0708 -0.33461 2.00021 0
M  V30 124 C 13.4038 -1.55063 1.16915 0
M  V30 125 O 12.6788 -1.93006 0.240646 0
M  V30 126 C 12.9618 -0.711007 3.53011 0
M  V30 127 C 12.8148 0.512766 4.46868 0
M  V30 128 C 14.1338 -1.54522 4.12081 0
M  V30 129 H 11.2528 -0.120147 0.727141 0
M  V30 130 H 13.8948 0.389097 1.85973 0
M  V30 131 H 12.0448 -1.32761 3.65112 0
M  V30 132 H 13.7168 1.15131 4.46702 0
M  V30 133 H 11.9598 1.14975 4.18286 0
M  V30 134 H 12.6308 0.205556 5.51617 0
M  V30 135 H 15.1068 -1.02442 4.03293 0
M  V30 136 H 13.9828 -1.77739 5.19327 0
M  V30 137 H 14.2438 -2.52813 3.62682 0
M  V30 138 N 13.3029 -1.57598 0.00835791 0
M  V30 139 C 14.7189 -1.55764 -0.347822 0
M  V30 140 C 14.9189 -1.01186 -1.74252 0
M  V30 141 O 13.9749 -0.649371 -2.44007 0
M  V30 142 C 15.2879 -2.99927 -0.215407 0
M  V30 143 C 16.8359 -3.11656 -0.289725 0
M  V30 144 C 17.3109 -4.57621 -0.18634 0
M  V30 145 N 18.8019 -4.62557 -0.243978 0
M  V30 146 C 19.5369 -5.73094 -0.18745 0
M  V30 147 N 19.0329 -6.92753 -0.0810331 0
M  V30 148 N 20.8259 -5.61588 -0.239925 0
M  V30 149 H 12.9769 -1.91411 0.92062 0
M  V30 150 H 15.2399 -0.879562 0.353659 0
M  V30 151 H 14.9459 -3.43729 0.744512 0
M  V30 152 H 14.8199 -3.63865 -0.994097 0
M  V30 153 H 17.2069 -2.67779 -1.24009 0
M  V30 154 H 17.2879 -2.5048 0.51898 0
M  V30 155 H 16.9319 -5.02174 0.760519 0
M  V30 156 H 16.8619 -5.16752 -1.01364 0
M  V30 157 H 19.3529 -3.76481 -0.327217 0
M  V30 158 H 19.6659 -7.72787 -0.0440241 0
M  V30 159 H 18.0109 -6.94984 -0.0465419 0
M  V30 160 H 21.2019 -4.66996 -0.321317 0
M  V30 161 H 21.3749 -6.47714 -0.192407 0
M  V30 162 N 14.781 0.264519 -1.55364 0
M  V30 163 C 16.027 0.992314 -1.77552 0
M  V30 164 C 16.382 1.83626 -0.574379 0
M  V30 165 O 15.675 1.86648 0.432782 0
M  V30 166 C 15.869 1.9004 -3.02687 0
M  V30 167 C 15.698 1.14583 -4.34857 0
M  V30 168 C 14.468 0.858068 -4.97961 0
M  V30 169 C 16.666 0.532069 -5.1154 0
M  V30 170 N 14.648 0.0775974 -6.13851 0
M  V30 171 C 16.019 -0.113823 -6.19896 0
M  V30 172 C 18.074 0.440763 -4.95945 0
M  V30 173 C 16.777 -0.842231 -7.14352 0
M  V30 174 C 18.803 -0.274072 -5.90765 0
M  V30 175 C 18.165 -0.90867 -6.98515 0
M  V30 176 H 14.264 0.344811 -0.701875 0
M  V30 177 H 16.848 0.267141 -1.92859 0
M  V30 178 H 15.019 2.59775 -2.88741 0
M  V30 179 H 16.751 2.56243 -3.13243 0
M  V30 180 H 13.506 1.16547 -4.59036 0
M  V30 181 H 13.93 -0.300216 -6.76334 0
M  V30 182 H 18.572 0.917064 -4.12735 0
M  V30 183 H 16.29 -1.33019 -7.97077 0
M  V30 184 H 19.876 -0.345151 -5.80775 0
M  V30 185 H 18.756 -1.45299 -7.70622 0
M  V30 186 N 16.2591 1.48442 0.529413 0
M  V30 187 C 17.1891 1.65902 1.64313 0
M  V30 188 C 18.1701 0.507897 1.6234 0
M  V30 189 O 19.3551 0.740503 1.79528 0
M  V30 190 C 16.4851 1.69911 3.02898 0
M  V30 191 C 15.4391 2.8453 3.19729 0
M  V30 192 C 14.7651 2.73629 4.59381 0
M  V30 193 C 16.0651 4.25821 3.02447 0
M  V30 194 H 17.7591 2.5914 1.49955 0
M  V30 195 H 15.3051 1.24709 0.719982 0
M  V30 196 H 17.2581 1.80715 3.80684 0
M  V30 197 H 15.9821 0.732524 3.18279 0
M  V30 198 H 14.6411 2.73283 2.44361 0
M  V30 199 H 14.2891 1.74938 4.71599 0
M  V30 200 H 13.9891 3.50541 4.71588 0
M  V30 201 H 15.5131 2.86401 5.39265 0
M  V30 202 H 16.9271 4.37898 3.70024 0
M  V30 203 H 15.3241 5.03735 3.26146 0
M  V30 204 H 16.3941 4.42244 1.98867 0
M  V30 205 N 17.7372 -0.778329 1.37039 0
M  V30 206 C 18.6692 -1.90034 1.2814 0
M  V30 207 C 19.6822 -1.61585 0.198558 0
M  V30 208 O 20.8712 -1.72625 0.454175 0
M  V30 209 C 17.9712 -3.25108 0.956968 0
M  V30 210 C 17.1442 -3.81253 2.14394 0
M  V30 211 C 16.2032 -4.94789 1.79082 0
M  V30 212 O 15.2292 -5.10721 2.51301 0
M  V30 213 N 16.4312 -5.75878 0.731043 0
M  V30 214 H 19.1962 -1.98186 2.24816 0
M  V30 215 H 16.7572 -0.957129 1.30578 0
M  V30 216 H 18.7492 -3.9857 0.701701 0
M  V30 217 H 17.3192 -3.125 0.0789812 0
M  V30 218 H 16.5392 -2.99647 2.56135 0
M  V30 219 H 17.8272 -4.15495 2.93668 0
M  V30 220 H 17.2252 -5.65547 0.131618 0
M  V30 221 H 15.7822 -6.49596 0.535622 0
M  V30 222 N 19.2153 -1.21501 -1.00376 0
M  V30 223 C 20.1253 -0.991447 -2.12621 0
M  V30 224 C 21.1413 0.0568446 -1.73907 0
M  V30 225 O 22.3173 -0.13348 -2.00957 0
M  V30 226 C 19.3823 -0.560312 -3.42142 0
M  V30 227 C 18.4433 -1.68096 -3.95022 0
M  V30 228 C 17.6763 -1.2703 -5.18362 0
M  V30 229 O 17.8993 -0.144438 -5.70217 0
M  V30 230 O 16.8333 -2.08269 -5.64719 0
M  V30 231 H 20.6593 -1.93158 -2.34358 0
M  V30 232 H 18.2443 -0.999999 -1.10997 0
M  V30 233 H 20.1263 -0.329724 -4.20108 0
M  V30 234 H 18.8013 0.351089 -3.2179 0
M  V30 235 H 17.7083 -1.96597 -3.18278 0
M  V30 236 H 19.0413 -2.56983 -4.19786 0
M  V30 237 N 20.6934 1.19889 -1.02296 0
M  V30 238 C 21.9184 1.9393 -0.735237 0
M  V30 239 C 22.3434 1.74639 0.698782 0
M  V30 240 O 21.7014 1.04481 1.48167 0
M  V30 241 C 21.7494 3.43916 -1.08417 0
M  V30 242 O 20.8534 4.11917 -0.199446 0
M  V30 243 H 20.1944 0.605645 -0.272196 0
M  V30 244 H 22.7244 1.52137 -1.36804 0
M  V30 245 H 22.7344 3.9456 -1.03856 0
M  V30 246 H 21.4094 3.5728 -2.12894 0
M  V30 247 H 19.9864 3.71666 -0.303136 0
M  V30 248 N 22.1715 0.800033 1.35784 0
M  V30 249 C 23.5875 0.482977 1.52117 0
M  V30 250 C 23.7875 -0.996948 1.75109 0
M  V30 251 O 22.8435 -1.78216 1.78872 0
M  V30 252 C 24.1565 1.32264 2.70049 0
M  V30 253 C 25.7045 1.31742 2.83924 0
M  V30 254 C 26.1795 2.14106 4.04874 0
M  V30 255 N 27.6705 2.11607 4.12039 0
M  V30 256 C 28.4055 2.72099 5.04727 0
M  V30 257 N 27.9015 3.41492 6.02789 0
M  V30 258 N 29.6945 2.61776 4.97423 0
M  V30 259 H 21.8455 1.75856 1.19115 0
M  V30 260 H 24.1085 0.748122 0.582252 0
M  V30 261 H 23.8145 2.37261 2.59616 0
M  V30 262 H 23.6885 0.971303 3.6448 0
M  V30 263 H 26.0755 0.275333 2.93813 0
M  V30 264 H 26.1565 1.70859 1.9037 0
M  V30 265 H 25.8005 3.18351 3.95746 0
M  V30 266 H 25.7305 1.72353 4.97596 0
M  V30 267 H 28.2215 1.61112 3.41835 0
M  V30 268 H 28.5345 3.84953 6.70098 0
M  V30 269 H 26.8795 3.45596 6.02983 0
M  V30 270 H 30.0705 2.07157 4.19766 0
M  V30 271 H 30.2435 3.0921 5.69468 0
M  V30 272 N 23.6496 -1.47581 0.552962 0
M  V30 273 C 25.0656 -1.5818 0.212424 0
M  V30 274 C 25.2656 -1.55213 -1.28496 0
M  V30 275 O 24.3216 -1.45329 -2.06484 0
M  V30 276 C 25.6346 -2.88865 0.835318 0
M  V30 277 C 27.1826 -3.0244 0.806156 0
M  V30 278 C 27.6576 -4.35819 1.40804 0
M  V30 279 N 29.1486 -4.42444 1.37103 0
M  V30 280 C 29.8836 -5.44202 1.80641 0
M  V30 281 N 29.3796 -6.52795 2.32015 0
M  V30 282 N 31.1726 -5.35222 1.71738 0
M  V30 283 H 23.3236 -1.47753 1.52587 0
M  V30 284 H 25.5866 -0.702941 0.636064 0
M  V30 285 H 25.2926 -2.9676 1.88749 0
M  V30 286 H 25.1666 -3.7579 0.325848 0
M  V30 287 H 27.5536 -2.94144 -0.237317 0
M  V30 288 H 27.6346 -2.17068 1.35334 0
M  V30 289 H 27.2786 -4.44871 2.45056 0
M  V30 290 H 27.2086 -5.19916 0.836338 0
M  V30 291 H 29.6996 -3.6456 0.995202 0
M  V30 292 H 30.0126 -7.26609 2.63171 0
M  V30 293 H 28.3576 -6.53696 2.36023 0
M  V30 294 H 31.5486 -4.49284 1.31382 0
M  V30 295 H 31.7216 -6.14389 2.05987 0
M  V30 296 N 25.1277 -0.289203 -1.54924 0
M  V30 297 C 26.3527 0.329299 -2.04769 0
M  V30 298 C 26.7777 1.4763 -1.16564 0
M  V30 299 O 26.1357 1.80527 -0.167186 0
M  V30 300 C 26.1837 0.774438 -3.52186 0
M  V30 301 O 25.2877 1.88038 -3.67036 0
M  V30 302 H 24.6287 0.0659259 -0.660719 0
M  V30 303 H 27.1587 -0.42761 -2.00082 0
M  V30 304 H 27.1687 1.06642 -3.93816 0
M  V30 305 H 25.8437 -0.0646707 -4.1585 0
M  V30 306 H 24.4207 1.58985 -3.3731 0
M  V30 307 N 26.6058 1.57591 -0.0167156 0
M  V30 308 C 28.0218 1.55946 0.339557 0
M  V30 309 C 28.2218 1.02109 1.73713 0
M  V30 310 O 27.2778 0.662303 2.43659 0
M  V30 311 C 28.5908 3.00037 0.199499 0
M  V30 312 C 30.1388 3.11805 0.273193 0
M  V30 313 C 30.6138 4.57713 0.162068 0
M  V30 314 N 32.1048 4.6268 0.219444 0
M  V30 315 C 32.8398 5.73185 0.157054 0
M  V30 316 N 32.3358 6.92786 0.0442936 0
M  V30 317 N 34.1288 5.61707 0.21014 0
M  V30 318 H 26.2798 1.90921 -0.930758 0
M  V30 319 H 28.5428 0.877674 -0.358319 0
M  V30 320 H 28.2488 3.4333 -0.76273 0
M  V30 321 H 28.1228 3.64387 0.974786 0
M  V30 322 H 30.5098 2.68433 1.22587 0
M  V30 323 H 30.5908 2.50201 -0.532256 0
M  V30 324 H 30.2348 5.01763 -0.78714 0
M  V30 325 H 30.1648 5.17283 0.986222 0
M  V30 326 H 32.6558 3.76649 0.307246 0
M  V30 327 H 32.9688 7.728 0.00304069 0
M  V30 328 H 31.3138 6.94999 0.00968457 0
M  V30 329 H 34.5048 4.6716 0.296546 0
M  V30 330 H 34.6778 6.47807 0.158054 0
M  V30 331 N 28.0839 -0.256276 1.55502 0
M  V30 332 C 29.0309 -1.31714 1.89526 0
M  V30 333 C 30.0009 -1.4828 0.748479 0
M  V30 334 O 31.1859 -1.62416 1.00128 0
M  V30 335 C 28.3259 -2.66933 2.18725 0
M  V30 336 C 27.4389 -2.58452 3.4616 0
M  V30 337 C 26.5739 -3.85961 3.64976 0
M  V30 338 C 25.6129 -3.72059 4.86044 0
M  V30 339 N 24.7499 -4.9144 5.01429 0
M  V30 340 H 29.5899 -1.01998 2.80001 0
M  V30 341 H 27.1269 -0.492413 1.38613 0
M  V30 342 H 29.0849 -3.4563 2.33657 0
M  V30 343 H 27.7149 -2.94816 1.31466 0
M  V30 344 H 26.7669 -1.71374 3.3961 0
M  V30 345 H 28.0789 -2.44085 4.34999 0
M  V30 346 H 27.2329 -4.73101 3.79816 0
M  V30 347 H 25.9719 -4.03215 2.74353 0
M  V30 348 H 24.9769 -2.83302 4.7119 0
M  V30 349 H 26.2019 -3.56309 5.78118 0
M  V30 350 H 24.1479 -5.09072 4.13741 0
M  V30 351 H 24.0649 -4.79668 5.84341 0
M  V30 352 H 25.3329 -5.80104 5.20672 0
M  V30 353 N 29.562 -1.4872 -0.521534 0
M  V30 354 C 30.492 -1.66771 -1.63431 0
M  V30 355 C 31.473 -0.516499 -1.62069 0
M  V30 356 O 32.658 -0.750013 -1.79132 0
M  V30 357 C 29.788 -1.71515 -3.01993 0
M  V30 358 C 28.742 -2.86222 -3.18216 0
M  V30 359 C 28.068 -2.76061 -4.57924 0
M  V30 360 C 29.368 -4.27419 -3.00184 0
M  V30 361 H 31.062 -2.59932 -1.48579 0
M  V30 362 H 28.608 -1.25089 -0.713358 0
M  V30 363 H 30.561 -1.82731 -3.7972 0
M  V30 364 H 29.285 -0.749393 -3.17886 0
M  V30 365 H 27.944 -2.74575 -2.42908 0
M  V30 366 H 27.592 -1.77437 -4.70665 0
M  V30 367 H 27.292 -3.53037 -4.69722 0
M  V30 368 H 28.816 -2.89256 -5.37739 0
M  V30 369 H 30.23 -4.39855 -3.67697 0
M  V30 370 H 28.627 -5.05458 -3.2347 0
M  V30 371 H 29.697 -4.43293 -1.96518 0
M  V30 372 N 31.0401 0.771051 -1.3745 0
M  V30 373 C 32.2891 1.52491 -1.3202 0
M  V30 374 C 32.6021 1.9538 0.0927347 0
M  V30 375 O 33.8081 2.70159 0.269503 0
M  V30 376 C 32.2641 2.75366 -2.31736 0
M  V30 377 C 31.8721 2.39573 -3.78562 0
M  V30 378 C 33.6161 3.53307 -2.35318 0
M  V30 379 C 31.5231 3.58954 -4.70007 0
M  V30 380 H 30.4531 0.572506 -0.490666 0
M  V30 381 H 33.1041 0.844474 -1.62914 0
M  V30 382 H 31.4861 3.45303 -1.93861 0
M  V30 383 H 32.6601 1.77415 -4.25277 0
M  V30 384 H 30.9751 1.74805 -3.77932 0
M  V30 385 H 33.5721 4.42039 -3.00842 0
M  V30 386 H 33.9151 3.93217 -1.36698 0
M  V30 387 H 34.4481 2.90367 -2.71904 0
M  V30 388 H 31.1871 3.24125 -5.69757 0
M  V30 389 H 30.7071 4.20214 -4.27996 0
M  V30 390 H 32.3861 4.25758 -4.87175 0
M  V30 391 N 32.5182 1.22032 0.997298 0
M  V30 392 C 33.4482 1.01065 2.10495 0
M  V30 393 C 34.4292 -0.0669542 1.69968 0
M  V30 394 O 35.6142 0.0943987 1.9397 0
M  V30 395 C 32.7442 0.582874 3.42374 0
M  V30 396 C 31.6982 1.60592 3.96729 0
M  V30 397 C 31.0242 1.03412 5.24605 0
M  V30 398 C 32.3242 2.99478 4.27914 0
M  V30 399 H 34.0182 1.93708 2.28292 0
M  V30 400 H 31.5642 0.932761 1.09707 0
M  V30 401 H 33.5172 0.423332 4.19268 0
M  V30 402 H 32.2412 -0.379213 3.24391 0
M  V30 403 H 30.9002 1.75316 3.21963 0
M  V30 404 H 30.5482 0.063518 5.0296 0
M  V30 405 H 30.2482 1.71754 5.61938 0
M  V30 406 H 31.7722 0.886066 6.04137 0
M  V30 407 H 33.1862 2.88153 4.95622 0
M  V30 408 H 31.5832 3.64903 4.76409 0
M  V30 409 H 32.6532 3.49742 3.3587 0
M  V30 410 N 33.9963 -1.19345 1.0293 0
M  V30 411 C 35.2433 -1.89038 0.726008 0
M  V30 412 C 35.5713 -1.79649 -0.745427 0
M  V30 413 O 34.8263 -1.18354 -1.55855 0
M  V30 414 C 35.1253 -3.39292 1.12319 0
M  V30 415 C 34.7913 -3.68885 2.59297 0
M  V30 416 C 33.4533 -3.76671 2.99453 0
M  V30 417 C 35.8053 -3.82178 3.54386 0
M  V30 418 C 33.1333 -3.9522 4.33611 0
M  V30 419 C 35.4853 -4.0224 4.88248 0
M  V30 420 C 34.1493 -4.08259 5.28092 0
M  V30 421 H 33.4193 -0.691739 0.265665 0
M  V30 422 H 36.0663 -1.41328 1.29223 0
M  V30 423 H 34.3713 -3.88903 0.475584 0
M  V30 424 H 36.0683 -3.91536 0.866037 0
M  V30 425 H 32.6583 -3.63433 2.27189 0
M  V30 426 H 36.8423 -3.75505 3.24514 0
M  V30 427 H 32.0983 -3.98119 4.64016 0
M  V30 428 H 36.2723 -4.11468 5.61843 0
M  V30 429 H 33.8993 -4.22384 6.32057 0
M  V30 430 N 35.4744 -0.807222 -1.35358 0
M  V30 431 C 36.7234 -0.384376 -1.98004 0
M  V30 432 C 37.0364 1.0543 -1.64754 0
M  V30 433 O 38.2424 1.58029 -2.20769 0
M  V30 434 C 36.6984 -0.636326 -3.5423 0
M  V30 435 C 36.3064 -2.08759 -3.96388 0
M  V30 436 C 38.0504 -0.278869 -4.23583 0
M  V30 437 C 35.9574 -2.28525 -5.45463 0
M  V30 438 H 34.8874 -0.139986 -0.740891 0
M  V30 439 H 37.5384 -0.991369 -1.54415 0
M  V30 440 H 35.9204 0.0406256 -3.95979 0
M  V30 441 H 37.0944 -2.8024 -3.6579 0
M  V30 442 H 35.4094 -2.40497 -3.39926 0
M  V30 443 H 38.0064 -0.404599 -5.33167 0
M  V30 444 H 38.3494 0.775012 -4.09022 0
M  V30 445 H 38.8824 -0.909764 -3.87257 0
M  V30 446 H 35.6214 -3.32361 -5.64992 0
M  V30 447 H 35.1414 -1.61569 -5.77629 0
M  V30 448 H 36.8204 -2.10109 -6.11934 0
M  V30 449 N 36.9525 1.47285 -0.560781 0
M  V30 450 C 38.1985 2.02764 -0.0381184 0
M  V30 451 C 38.5315 1.43384 1.30976 0
M  V30 452 O 37.8065 0.590733 1.85312 0
M  V30 453 C 38.0895 3.60064 0.0511427 0
M  V30 454 C 37.9425 4.2987 -1.32408 0
M  V30 455 C 39.2615 4.33439 0.762795 0
M  V30 456 H 36.3805 0.736841 -0.0153264 0
M  V30 457 H 39.0225 1.75675 -0.723759 0
M  V30 458 H 37.1725 3.83274 0.635065 0
M  V30 459 H 38.8445 4.17989 -1.95148 0
M  V30 460 H 37.0875 3.90085 -1.8978 0
M  V30 461 H 37.7585 5.38478 -1.21431 0
M  V30 462 H 40.2345 4.15243 0.266965 0
M  V30 463 H 39.1105 5.43124 0.794221 0
M  V30 464 H 39.3715 4.02915 1.81966 0
M  V30 465 N 38.4306 0.297415 1.54768 0
M  V30 466 C 39.6776 -0.312913 2.00068 0
M  V30 467 C 40.0056 -1.54171 1.18582 0
M  V30 468 O 39.2606 -1.94108 0.249133 0
M  V30 469 C 39.5596 -0.717561 3.50123 0
M  V30 470 C 39.2256 0.409095 4.4904 0
M  V30 471 C 37.8876 0.718399 4.75807 0
M  V30 472 C 40.2396 1.16717 5.07963 0
M  V30 473 C 37.5676 1.78896 5.5876 0
M  V30 474 C 39.9196 2.22762 5.92081 0
M  V30 475 C 38.5836 2.54303 6.1716 0
M  V30 476 H 37.8536 -0.114503 0.7321 0
M  V30 477 H 40.5006 0.415767 1.86932 0
M  V30 478 H 38.8056 -1.52627 3.60849 0
M  V30 479 H 40.5026 -1.20091 3.82595 0
M  V30 480 H 37.0926 0.157918 4.28309 0
M  V30 481 H 41.2766 0.941466 4.87289 0
M  V30 482 H 36.5326 2.0381 5.7643 0
M  V30 483 H 40.7066 2.81962 6.36765 0
M  V30 484 H 38.3336 3.3739 6.81229 0
M  V30 485 N 39.9087 -1.5758 0.0250728 0
M  V30 486 C 40.8387 -2.13007 -0.956575 0
M  V30 487 C 41.8197 -1.0452 -1.342 0
M  V30 488 O 43.0047 -1.32332 -1.42133 0
M  V30 489 C 40.1347 -2.65386 -2.24026 0
M  V30 490 C 39.0887 -3.78623 -1.99571 0
M  V30 491 C 38.4147 -4.17414 -3.3417 0
M  V30 492 C 39.7147 -5.04867 -1.33814 0
M  V30 493 H 41.4087 -2.9528 -0.494991 0
M  V30 494 H 38.9547 -1.42042 -0.236651 0
M  V30 495 H 40.9077 -3.02794 -2.93076 0
M  V30 496 H 39.6317 -1.80268 -2.72343 0
M  V30 497 H 38.2907 -3.41646 -1.32941 0
M  V30 498 H 37.9387 -3.29284 -3.80238 0
M  V30 499 H 37.6387 -4.93719 -3.18615 0
M  V30 500 H 39.1627 -4.57402 -4.04495 0
M  V30 501 H 40.5767 -5.39888 -1.92857 0
M  V30 502 H 38.9737 -5.86144 -1.28669 0
M  V30 503 H 40.0437 -4.83904 -0.310561 0
M  V30 504 N 41.3868 0.248026 -1.55636 0
M  V30 505 C 42.3498 1.29044 -1.89421 0
M  V30 506 C 43.3498 1.41134 -0.770581 0
M  V30 507 O 44.5398 1.39854 -1.03858 0
M  V30 508 C 41.6718 2.66831 -2.12165 0
M  V30 509 H 42.8648 1.00305 -2.82629 0
M  V30 510 H 40.4178 0.487265 -1.48511 0
M  V30 511 H 41.1528 3.00711 -1.21422 0
M  V30 512 H 40.9378 2.59438 -2.93997 0
M  V30 513 H 42.4278 3.42103 -2.3949 0
M  V30 514 N 42.8649 1.48995 0.513639 0
M  V30 515 C 43.7949 1.67636 1.62544 0
M  V30 516 C 44.7759 0.525087 1.61793 0
M  V30 517 O 45.9609 0.759502 1.78732 0
M  V30 518 C 43.0909 1.73114 3.01079 0
M  V30 519 C 42.0449 2.87905 3.16693 0
M  V30 520 C 41.3709 2.78486 4.56453 0
M  V30 521 C 42.6709 4.29005 2.97913 0
M  V30 522 H 44.3649 2.60716 1.47198 0
M  V30 523 H 41.9109 1.25465 0.706714 0
M  V30 524 H 43.8639 1.84742 3.78746 0
M  V30 525 H 42.5879 0.766241 3.17484 0
M  V30 526 H 41.2469 2.75859 2.41448 0
M  V30 527 H 40.8949 1.7993 4.69717 0
M  V30 528 H 40.5949 3.55523 4.67843 0
M  V30 529 H 42.1189 2.92104 5.36197 0
M  V30 530 H 43.5329 4.41798 3.65359 0
M  V30 531 H 41.9299 5.07166 3.20785 0
M  V30 532 H 42.9999 4.44329 1.94165 0
M  V30 533 N 44.343 -0.763751 1.37857 0
M  V30 534 C 45.273 -1.89103 1.36975 0
M  V30 535 C 46.254 -1.68439 0.237152 0
M  V30 536 O 47.439 -1.8918 0.438713 0
M  V30 537 C 44.569 -3.26496 1.18395 0
M  V30 538 C 43.523 -3.61741 2.28751 0
M  V30 539 C 42.849 -4.97762 1.95286 0
M  V30 540 C 44.149 -3.67665 3.70972 0
M  V30 541 H 45.843 -1.90099 2.31307 0
M  V30 542 H 43.389 -0.91319 1.11341 0
M  V30 543 H 45.342 -4.05003 1.16406 0
M  V30 544 H 44.066 -3.25955 0.205215 0
M  V30 545 H 42.725 -2.85547 2.29909 0
M  V30 546 H 42.373 -4.93769 0.959221 0
M  V30 547 H 42.073 -5.22313 2.69189 0
M  V30 548 H 43.597 -5.7866 1.94898 0
M  V30 549 H 45.011 -4.36307 3.719 0
M  V30 550 H 43.408 -4.03718 4.43995 0
M  V30 551 H 44.478 -2.68134 4.0402 0
M  V30 552 N 45.8211 -1.22559 -0.990812 0
M  V30 553 C 46.7511 -1.0218 -2.09956 0
M  V30 554 C 47.7321 0.0579394 -1.70001 0
M  V30 555 O 48.9171 -0.104684 -1.93918 0
M  V30 556 C 46.0471 -0.601023 -3.4206 0
M  V30 557 C 45.0011 -1.62694 -3.95872 0
M  V30 558 C 44.3271 -1.06193 -5.24049 0
M  V30 559 C 45.6271 -3.01743 -4.2632 0
M  V30 560 H 47.3211 -1.94916 -2.27262 0
M  V30 561 H 44.8671 -0.938566 -1.09211 0
M  V30 562 H 46.8201 -0.445561 -4.19038 0
M  V30 563 H 45.5441 0.362005 -3.24588 0
M  V30 564 H 44.2031 -1.77021 -3.21028 0
M  V30 565 H 43.8511 -0.0901903 -5.02919 0
M  V30 566 H 43.5511 -1.74732 -5.61019 0
M  V30 567 H 45.0751 -0.918092 -6.03658 0
M  V30 568 H 46.4891 -2.90777 -4.94087 0
M  V30 569 H 44.8861 -3.67425 -4.74467 0
M  V30 570 H 45.9561 -3.51518 -3.34011 0
M  V30 571 N 47.2992 1.18797 -1.03562 0
M  V30 572 C 48.5762 1.84469 -0.650434 0
M  V30 573 C 48.9562 1.92319 0.870433 0
M  V30 574 O 48.3042 1.44528 1.76986 0
M  V30 575 C 48.5142 3.2306 -1.32036 0
M  V30 576 C 49.8622 3.9915 -1.44792 0
M  V30 577 O 50.8862 3.32481 -1.27806 0
M  V30 578 O 49.7452 5.18587 -1.72423 0
M  V30 579 H 46.8392 0.795251 -0.226946 0
M  V30 580 H 49.3852 1.26231 -1.13419 0
M  V30 581 H 48.1572 3.1222 -2.3587 0
M  V30 582 H 47.7802 3.88949 -0.8249 0
M  V30 583 N 48.7773 0.814389 1.34928 0
M  V30 584 C 49.7253 0.218424 2.31572 0
M  V30 585 C 50.7193 -0.636128 1.57002 0
M  V30 586 O 51.9253 -0.52842 1.72069 0
M  V30 587 H 48.3003 0.0518799 0.750208 0
M  V30 588 H 50.2713 1.04852 2.79372 0
M  V30 589 C 49.0203 -0.61207 3.4227 0
M  V30 590 H 48.3433 0.0361578 3.99784 0
M  V30 591 H 49.7833 -0.995317 4.12152 0
M  V30 592 C 48.2423 -1.78087 2.85984 0
M  V30 593 O 48.7723 -2.8787 2.80168 0
M  V30 594 N 46.9783 -1.59488 2.42924 0
M  V30 595 H 46.5253 -0.701874 2.47854 0
M  V30 596 H 46.4833 -2.37846 2.05613 0
M  V30 597 N 50.2554 -1.46986 0.568584 0
M  V30 598 C 51.1884 -2.27129 -0.220779 0
M  V30 599 C 52.1664 -1.34757 -0.909905 0
M  V30 600 O 53.3504 -1.64152 -0.926622 0
M  V30 601 C 50.4774 -3.12108 -1.31553 0
M  V30 602 C 49.5234 -4.20141 -0.733748 0
M  V30 603 S 50.3564 -5.33783 0.428479 0
M  V30 604 C 51.5124 -6.22327 -0.667811 0
M  V30 605 H 51.7454 -2.93731 0.459267 0
M  V30 606 H 49.2784 -1.5026 0.355154 0
M  V30 607 H 51.2364 -3.61636 -1.94241 0
M  V30 608 H 49.8974 -2.44847 -1.96746 0
M  V30 609 H 49.0904 -4.79373 -1.5562 0
M  V30 610 H 48.6924 -3.73553 -0.182812 0
M  V30 611 H 50.9844 -6.59364 -1.55708 0
M  V30 612 H 51.9274 -7.0801 -0.11258 0
M  V30 613 H 52.3354 -5.5618 -0.965601 0
M  V30 614 N 51.7335 -0.305618 -1.54608 0
M  V30 615 C 52.6635 0.561482 -2.26649 0
M  V30 616 C 53.6445 1.13415 -1.26772 0
M  V30 617 O 54.8295 1.16262 -1.55553 0
M  V30 618 C 51.9595 1.73122 -3.01075 0
M  V30 619 C 50.9135 1.2887 -4.08138 0
M  V30 620 C 50.2395 2.54396 -4.70305 0
M  V30 621 C 51.5395 0.416578 -5.20636 0
M  V30 622 H 53.2335 -0.0393902 -2.99374 0
M  V30 623 H 50.7795 -0.020385 -1.43986 0
M  V30 624 H 52.7325 2.34396 -3.50195 0
M  V30 625 H 51.4565 2.3584 -2.25936 0
M  V30 626 H 50.1155 0.698991 -3.59875 0
M  V30 627 H 49.7635 3.15439 -3.918 0
M  V30 628 H 49.4635 2.25486 -5.42614 0
M  V30 629 H 50.9875 3.16464 -5.2219 0
M  V30 630 H 52.4015 0.935116 -5.65622 0
M  V30 631 H 50.7985 0.221046 -5.99693 0
M  V30 632 H 51.8685 -0.557162 -4.81688 0
M  V30 633 N 53.2116 1.57565 -0.0334293 0
M  V30 634 C 54.1416 2.13511 0.945265 0
M  V30 635 C 55.1226 1.05231 1.33643 0
M  V30 636 O 56.3076 1.33084 1.41429 0
M  V30 637 C 53.4376 2.6657 2.22616 0
M  V30 638 C 52.3916 3.79676 1.97561 0
M  V30 639 C 51.7176 4.1918 3.31952 0
M  V30 640 C 53.0176 5.0557 1.31135 0
M  V30 641 H 54.7116 2.95538 0.479325 0
M  V30 642 H 52.2576 1.42166 0.229115 0
M  V30 643 H 54.2106 3.04344 2.91466 0
M  V30 644 H 52.9346 1.8171 2.71384 0
M  V30 645 H 51.5936 3.42347 1.31127 0
M  V30 646 H 51.2416 3.31296 3.78487 0
M  V30 647 H 50.9416 4.95402 3.15992 0
M  V30 648 H 52.4656 4.59541 4.02063 0
M  V30 649 H 53.8796 5.40903 1.89992 0
M  V30 650 H 52.2766 5.86818 1.25559 0
M  V30 651 H 53.3466 4.84062 0.284894 0
M  V30 652 N 54.6897 -0.239769 1.55765 0
M  V30 653 C 55.9177 -0.98417 1.81994 0
M  V30 654 C 56.3327 -1.7867 0.610124 0
M  V30 655 O 55.6897 -1.77571 -0.421271 0
M  V30 656 C 55.7407 -1.91635 3.06526 0
M  V30 657 O 55.4617 -1.14629 4.22838 0
M  V30 658 C 56.9627 -2.77616 3.45607 0
M  V30 659 H 54.1827 -0.28928 0.605441 0
M  V30 660 H 56.7267 -0.260499 2.02834 0
M  V30 661 H 54.8817 -2.5942 2.87715 0
M  V30 662 H 55.2957 -1.77745 4.93464 0
M  V30 663 H 56.7697 -3.38759 4.35828 0
M  V30 664 H 57.2467 -3.4909 2.6652 0
M  V30 665 H 57.8527 -2.15271 3.66795 0
M  V30 666 N 56.1678 -1.49265 -0.50573 0
M  V30 667 C 57.4138 -1.58748 -1.26202 0
M  V30 668 C 57.7468 -0.271227 -1.92297 0
M  V30 669 O 57.0218 0.724831 -1.80489 0
M  V30 670 C 57.3048 -2.74332 -2.33268 0
M  V30 671 C 57.1578 -4.15737 -1.71705 0
M  V30 672 C 58.4768 -2.85576 -3.34865 0
M  V30 673 H 55.5958 -0.577826 -0.457478 0
M  V30 674 H 58.2378 -1.81532 -0.560897 0
M  V30 675 H 56.3878 -2.55036 -2.93068 0
M  V30 676 H 58.0598 -4.46537 -1.15769 0
M  V30 677 H 56.3028 -4.21605 -1.02135 0
M  V30 678 H 56.9738 -4.92477 -2.49341 0
M  V30 679 H 59.4498 -3.03127 -2.8505 0
M  V30 680 H 58.3258 -3.68135 -4.07146 0
M  V30 681 H 58.5868 -1.94732 -3.96903 0
M  V30 682 N 57.6459 0.756429 -1.3826 0
M  V30 683 C 58.8919 1.51772 -1.34511 0
M  V30 684 C 59.2249 1.94089 0.0656691 0
M  V30 685 O 58.4999 1.65221 1.02626 0
M  V30 686 C 58.7829 2.77226 -2.29821 0
M  V30 687 C 58.6359 2.41065 -3.79747 0
M  V30 688 C 59.9549 3.79236 -2.23312 0
M  V30 689 H 57.0739 0.550578 -0.489931 0
M  V30 690 H 59.7159 0.866607 -1.69086 0
M  V30 691 H 57.8659 3.32784 -2.00467 0
M  V30 692 H 59.5379 1.91303 -4.19763 0
M  V30 693 H 57.7809 1.7356 -3.97567 0
M  V30 694 H 58.4519 3.3081 -4.41892 0
M  V30 695 H 60.9279 3.3321 -2.49219 0
M  V30 696 H 59.8039 4.64714 -2.92116 0
M  V30 697 H 60.0649 4.24615 -1.23102 0
M  V30 698 N 59.124 1.23083 0.984299 0
M  V30 699 C 60.37 1.06214 1.72761 0
M  V30 700 C 60.703 -0.400584 1.90024 0
M  V30 701 O 59.978 -1.29672 1.44967 0
M  V30 702 C 60.261 1.78375 3.12817 0
M  V30 703 C 60.114 3.32296 3.03149 0
M  V30 704 C 61.433 1.54309 4.12161 0
M  V30 705 H 58.552 0.387251 0.627061 0
M  V30 706 H 61.194 1.51536 1.14616 0
M  V30 707 H 59.344 1.39848 3.62457 0
M  V30 708 H 61.016 3.8032 2.61064 0
M  V30 709 H 59.259 3.6153 2.39747 0
M  V30 710 H 59.93 3.77972 4.02295 0
M  V30 711 H 62.406 1.87791 3.71314 0
M  V30 712 H 61.282 2.07281 5.08258 0
M  V30 713 H 61.543 0.477572 4.39513 0
M  V30 714 N 60.6021 -1.18246 1.0419 0
M  V30 715 C 62.0131 -1.69914 0.773698 0
M  V30 716 C 62.3641 -1.83085 -0.705297 0
M  V30 717 O 61.4891 -1.51123 -1.5489 0
M  V30 718 C 62.0841 -3.08619 1.39784 0
M  V30 719 C 60.6431 -3.57494 1.17792 0
M  V30 720 C 59.7901 -2.34013 1.48773 0
M  V30 721 H 62.7411 -1.02904 1.20816 0
M  V30 722 H 62.7621 -3.71958 0.801714 0
M  V30 723 H 62.2741 -2.99001 2.47426 0
M  V30 724 H 60.3751 -3.72406 0.120295 0
M  V30 725 H 60.4881 -4.40852 1.87581 0
M  V30 726 H 58.8521 -2.37986 0.907463 0
M  V30 727 H 59.6351 -2.27013 2.57527 0
M  V30 728 N 62.0802 -0.821533 -1.34494 0
M  V30 729 C 63.3292 -0.405355 -1.97585 0
M  V30 730 C 63.6422 1.03677 -1.65863 0
M  V30 731 O 64.8482 1.55679 -2.22433 0
M  V30 732 C 63.3042 -0.673861 -3.53535 0
M  V30 733 C 62.9122 -2.12951 -3.94152 0
M  V30 734 C 64.6562 -0.32378 -4.23263 0
M  V30 735 C 62.5632 -2.34298 -5.43009 0
M  V30 736 H 61.4932 -0.147836 -0.739365 0
M  V30 737 H 64.1442 -1.00769 -1.53355 0
M  V30 738 H 62.5262 -0.00137554 -3.96 0
M  V30 739 H 63.7002 -2.84104 -3.62797 0
M  V30 740 H 62.0152 -2.44089 -3.37356 0
M  V30 741 H 64.6122 -0.461126 -5.32708 0
M  V30 742 H 64.9552 0.731586 -4.09821 0
M  V30 743 H 65.4882 -0.950786 -3.8627 0
M  V30 744 H 62.2272 -3.38335 -5.61435 0
M  V30 745 H 61.7472 -1.67687 -5.75883 0
M  V30 746 H 63.4262 -2.16588 -6.09671 0
M  V30 747 N 63.5583 1.46682 -0.576371 0
M  V30 748 C 64.8073 2.01619 -0.0572825 0
M  V30 749 C 65.1203 1.45417 1.30818 0
M  V30 750 O 66.3263 1.92133 1.91825 0
M  V30 751 C 64.7823 3.59863 -0.0518371 0
M  V30 752 C 64.3903 4.25059 -1.41523 0
M  V30 753 C 66.1343 4.2248 0.413639 0
M  V30 754 C 64.0413 5.75364 -1.36785 0
M  V30 755 H 62.9713 0.753794 -0.0176448 0
M  V30 756 H 65.6223 1.68481 -0.727076 0
M  V30 757 H 64.0043 3.90048 0.683994 0
M  V30 758 H 65.1783 4.06491 -2.17029 0
M  V30 759 H 63.4933 3.7451 -1.8202 0
M  V30 760 H 66.0903 5.3265 0.467779 0
M  V30 761 H 66.4333 3.90976 1.42982 0
M  V30 762 H 66.9663 3.96897 -0.267929 0
M  V30 763 H 63.7053 6.11518 -2.36063 0
M  V30 764 H 63.2253 5.96214 -0.654895 0
M  V30 765 H 64.9043 6.37955 -1.07805 0
M  V30 766 N 65.0364 0.313813 1.54444 0
M  V30 767 C 66.4474 -0.176243 1.85866 0
M  V30 768 C 66.7984 -1.52405 1.23561 0
M  V30 769 O 65.9234 -2.09605 0.538016 0
M  V30 770 C 66.5184 -0.32657 3.37222 0
M  V30 771 C 65.0774 -0.760846 3.6863 0
M  V30 772 C 64.2244 0.123247 2.77026 0
M  V30 773 H 67.1754 0.534418 1.49431 0
M  V30 774 H 67.1964 -1.15908 3.62416 0
M  V30 775 H 66.7084 0.654531 3.82541 0
M  V30 776 H 64.8094 -1.75204 3.28838 0
M  V30 777 H 64.9224 -0.571353 4.75681 0
M  V30 778 H 63.2864 -0.399597 2.51546 0
M  V30 779 H 64.0694 1.10094 3.25168 0
M  V30 780 N 66.5145 -1.57545 0.0417849 0
M  V30 781 C 67.7395 -1.97035 -0.647455 0
M  V30 782 C 68.1645 -0.918775 -1.64135 0
M  V30 783 O 67.5225 0.119006 -1.80909 0
M  V30 784 C 67.5705 -3.35609 -1.31905 0
M  V30 785 O 66.6745 -3.3287 -2.43457 0
M  V30 786 H 66.0155 -0.64211 -0.169086 0
M  V30 787 H 68.5455 -2.04318 0.107399 0
M  V30 788 H 68.5555 -3.72126 -1.67291 0
M  V30 789 H 67.2305 -4.11685 -0.590586 0
M  V30 790 H 65.8075 -3.08087 -2.10088 0
M  V30 791 N 67.9926 0.231505 -1.5589 0
M  V30 792 C 69.2226 0.973092 -1.82248 0
M  V30 793 C 69.6306 1.78845 -0.617328 0
M  V30 794 O 68.9736 1.78752 0.423499 0
M  V30 795 C 69.0356 1.94732 -3.02192 0
M  V30 796 C 68.6996 1.31743 -4.37599 0
M  V30 797 C 69.6966 0.712238 -5.14998 0
M  V30 798 C 67.3816 1.33218 -4.84312 0
M  V30 799 C 69.3756 0.130195 -6.37267 0
M  V30 800 C 67.0626 0.746286 -6.06526 0
M  V30 801 C 68.0606 0.146337 -6.82843 0
M  V30 802 O 67.7486 -0.430465 -8.02747 0
M  V30 803 H 67.4806 0.29125 -0.61004 0
M  V30 804 H 70.0346 0.254915 -2.03812 0
M  V30 805 H 68.2646 2.70422 -2.76422 0
M  V30 806 H 69.9536 2.55362 -3.15508 0
M  V30 807 H 70.7196 0.69324 -4.8002 0
M  V30 808 H 66.5986 1.78854 -4.24891 0
M  V30 809 H 70.1426 -0.33871 -6.96777 0
M  V30 810 H 66.0396 0.762663 -6.40979 0
M  V30 811 H 66.8076 -0.323818 -8.17859 0
M  V30 812 N 69.4707 1.49531 0.497807 0
M  V30 813 C 70.4007 1.6935 1.60757 0
M  V30 814 C 71.3817 0.542218 1.61227 0
M  V30 815 O 72.5667 0.778417 1.77917 0
M  V30 816 C 69.6967 1.76298 2.99226 0
M  V30 817 C 68.6507 2.91248 3.13622 0
M  V30 818 C 67.9767 2.83312 4.53474 0
M  V30 819 C 69.2767 4.3214 2.93346 0
M  V30 820 H 70.9707 2.62263 1.44425 0
M  V30 821 H 68.5167 1.26208 0.693367 0
M  V30 822 H 70.4697 1.88749 3.76765 0
M  V30 823 H 69.1937 0.799871 3.16654 0
M  V30 824 H 67.8527 2.78404 2.38509 0
M  V30 825 H 67.5007 1.84902 4.67782 0
M  V30 826 H 67.2007 3.60465 4.64046 0
M  V30 827 H 68.7247 2.97775 5.33069 0
M  V30 828 H 70.1387 4.45649 3.60652 0
M  V30 829 H 68.5357 5.1054 3.15387 0
M  V30 830 H 69.6057 4.46363 1.89441 0
M  V30 831 N 70.9488 -0.749086 1.3866 0
M  V30 832 C 72.1788 -1.53611 1.38157 0
M  V30 833 C 72.5868 -1.89177 -0.0293595 0
M  V30 834 O 71.9298 -1.53606 -1.00752 0
M  V30 835 C 71.9918 -2.86087 2.17702 0
M  V30 836 C 71.6558 -2.73034 3.66472 0
M  V30 837 C 72.6528 -2.42526 4.59866 0
M  V30 838 C 70.3378 -2.90345 4.09884 0
M  V30 839 C 72.3318 -2.29492 5.94653 0
M  V30 840 C 70.0188 -2.7693 5.4475 0
M  V30 841 C 71.0168 -2.46547 6.36949 0
M  V30 842 O 70.7048 -2.33199 7.69333 0
M  V30 843 H 70.4368 -0.481773 0.474205 0
M  V30 844 H 72.9908 -0.934465 1.82912 0
M  V30 845 H 71.2208 -3.48458 1.67672 0
M  V30 846 H 72.9098 -3.47625 2.09551 0
M  V30 847 H 73.6758 -2.28816 4.27631 0
M  V30 848 H 69.5548 -3.1299 3.38464 0
M  V30 849 H 73.0988 -2.05698 6.66584 0
M  V30 850 H 68.9958 -2.90215 5.76581 0
M  V30 851 H 69.7638 -2.48376 7.79905 0
M  V30 852 N 72.4269 -1.23603 -0.977757 0
M  V30 853 C 73.6519 -1.09735 -1.75991 0
M  V30 854 C 74.0769 0.346858 -1.84874 0
M  V30 855 O 73.4349 1.25093 -1.3123 0
M  V30 856 C 73.4829 -1.73051 -3.16363 0
M  V30 857 O 72.5869 -0.994452 -4.0023 0
M  V30 858 H 71.9279 -0.384476 -0.541364 0
M  V30 859 H 74.4579 -1.6371 -1.2272 0
M  V30 860 H 74.4679 -1.78398 -3.66931 0
M  V30 861 H 73.1429 -2.78137 -3.09213 0
M  V30 862 H 71.7199 -1.01812 -3.58732 0
M  V30 863 N 73.905 1.17692 -1.04816 0
M  V30 864 C 75.154 1.87192 -0.751132 0
M  V30 865 C 75.467 1.8169 0.724441 0
M  V30 866 O 76.673 2.46625 1.13527 0
M  V30 867 C 75.129 3.35857 -1.29338 0
M  V30 868 C 74.737 3.4987 -2.79812 0
M  V30 869 C 76.481 4.10709 -1.07322 0
M  V30 870 C 74.388 4.92536 -3.27356 0
M  V30 871 H 73.318 0.701162 -0.277288 0
M  V30 872 H 75.969 1.32932 -1.26496 0
M  V30 873 H 74.351 3.89631 -0.707376 0
M  V30 874 H 75.525 3.06332 -3.44235 0
M  V30 875 H 73.84 2.88433 -3.00325 0
M  V30 876 H 76.437 5.15952 -1.4035 0
M  V30 877 H 76.78 4.16299 -0.0108001 0
M  V30 878 H 77.313 3.6313 -1.62423 0
M  V30 879 H 74.052 4.92119 -4.33012 0
M  V30 880 H 73.572 5.3676 -2.67673 0
M  V30 881 H 75.251 5.61288 -3.21815 0
M  V30 882 N 75.3831 0.828654 1.34056 0
M  V30 883 C 76.3301 0.252567 2.29414 0
M  V30 884 C 77.3001 -0.62588 1.53857 0
M  V30 885 O 78.4851 -0.566312 1.82202 0
M  V30 886 C 75.6251 -0.574831 3.40279 0
M  V30 887 C 74.7381 0.326499 4.30764 0
M  V30 888 C 73.8731 -0.511016 5.28736 0
M  V30 889 C 72.9121 0.389342 6.1086 0
M  V30 890 N 72.0491 -0.409439 7.00905 0
M  V30 891 H 76.8891 1.07108 2.78086 0
M  V30 892 H 74.4261 0.539677 1.36843 0
M  V30 893 H 76.3841 -1.06992 4.03248 0
M  V30 894 H 75.0141 -1.35841 2.92826 0
M  V30 895 H 74.0661 0.939837 3.68607 0
M  V30 896 H 75.3781 1.01857 4.88289 0
M  V30 897 H 74.5321 -1.07035 5.97184 0
M  V30 898 H 73.2711 -1.23657 4.71763 0
M  V30 899 H 72.2761 0.960769 5.4134 0
M  V30 900 H 73.5011 1.1131 6.69916 0
M  V30 901 H 71.4471 -1.11856 6.46393 0
M  V30 902 H 71.3641 0.224126 7.55668 0
M  V30 903 H 72.6321 -0.951336 7.73673 0
M  V30 904 N 76.8612 -1.46375 0.584142 0
M  V30 905 C 77.8112 -2.27371 -0.169232 0
M  V30 906 C 78.7952 -1.35955 -0.860523 0
M  V30 907 O 79.9872 -1.60119 -0.754382 0
M  V30 908 C 77.1162 -3.22334 -1.18134 0
M  V30 909 C 76.2022 -4.21235 -0.492088 0
M  V30 910 N 76.5932 -5.03766 0.453129 0
M  V30 911 C 74.8912 -4.39773 -0.742652 0
M  V30 912 C 75.5922 -5.75366 0.85609 0
M  V30 913 N 74.5682 -5.43214 0.204926 0
M  V30 914 H 78.3702 -2.88572 0.557097 0
M  V30 915 H 75.8842 -1.57242 0.406042 0
M  V30 916 H 77.8812 -3.79071 -1.73525 0
M  V30 917 H 76.5412 -2.62693 -1.90847 0
M  V30 918 H 77.5522 -5.11227 0.828723 0
M  V30 919 H 74.2292 -3.91279 -1.45625 0
M  V30 920 H 75.6192 -6.5172 1.63434 0
M  V30 921 N 78.3393 -0.321999 -1.54275 0
M  V30 922 C 79.2493 0.553631 -2.27974 0
M  V30 923 C 80.2653 1.13054 -1.32268 0
M  V30 924 O 81.4413 1.15084 -1.6528 0
M  V30 925 C 78.5063 1.69927 -3.02201 0
M  V30 926 C 77.5673 1.15433 -4.1349 0
M  V30 927 C 76.8003 2.24537 -4.84168 0
M  V30 928 O 77.0233 3.44852 -4.5435 0
M  V30 929 O 75.9573 1.90044 -5.7111 0
M  V30 930 H 79.7833 -0.0448345 -3.03667 0
M  V30 931 H 77.3683 -0.0877418 -1.49142 0
M  V30 932 H 79.2503 2.3663 -3.48689 0
M  V30 933 H 77.9253 2.28395 -2.29385 0
M  V30 934 H 76.8323 0.452436 -3.71354 0
M  V30 935 H 78.1653 0.614805 -4.88345 0
M  V30 936 N 79.8174 1.5752 -0.0501392 0
M  V30 937 C 80.7644 2.1147 0.924603 0
M  V30 938 C 81.7344 1.02182 1.30951 0
M  V30 939 O 82.9194 1.29723 1.39916 0
M  V30 940 C 80.0594 2.66337 2.19451 0
M  V30 941 C 79.1724 3.89708 1.86418 0
M  V30 942 C 78.3074 4.32893 3.07859 0
M  V30 943 C 77.3464 5.48967 2.70742 0
M  V30 944 N 76.4834 5.87211 3.84874 0
M  V30 945 H 81.3234 2.94465 0.457639 0
M  V30 946 H 78.8604 1.45531 0.214266 0
M  V30 947 H 80.8184 2.96247 2.93758 0
M  V30 948 H 79.4484 1.86141 2.63726 0
M  V30 949 H 78.5004 3.66396 1.02264 0
M  V30 950 H 79.8124 4.74074 1.55096 0
M  V30 951 H 78.9664 4.6435 3.90466 0
M  V30 952 H 77.7054 3.47336 3.42358 0
M  V30 953 H 76.7104 5.17183 1.86551 0
M  V30 954 H 77.9354 6.3624 2.37436 0
M  V30 955 H 75.8814 5.04607 4.19175 0
M  V30 956 H 75.7984 6.66266 3.57247 0
M  V30 957 H 77.0664 6.23282 4.68123 0
M  V30 958 N 81.2955 -0.223234 1.56011 0
M  V30 959 C 82.2435 -1.29627 1.93131 0
M  V30 960 C 83.2375 -1.48608 0.813146 0
M  V30 961 O 84.4435 -1.49802 0.997966 0
M  V30 962 H 80.8185 -0.434563 0.613726 0
M  V30 963 H 82.7895 -0.955995 2.82672 0
M  V30 964 C 81.5385 -2.63983 2.26292 0
M  V30 965 H 80.8615 -2.50185 3.11846 0
M  V30 966 H 82.3015 -3.3788 2.56151 0
M  V30 967 C 80.7605 -3.18866 1.08747 0
M  V30 968 O 81.2905 -4.00192 0.347727 0
M  V30 969 N 79.4965 -2.77217 0.871743 0
M  V30 970 H 79.0435 -2.1119 1.47501 0
M  V30 971 H 79.0015 -3.1428 0.0869905 0
M  V30 972 N 82.7736 -1.49793 -0.48987 0
M  V30 973 C 83.7366 -1.66752 -1.57246 0
M  V30 974 C 84.7366 -0.538867 -1.51502 0
M  V30 975 O 85.9266 -0.805545 -1.54456 0
M  V30 976 C 83.0586 -1.67528 -2.96896 0
M  V30 977 H 84.2516 -2.63321 -1.43534 0
M  V30 978 H 81.8046 -1.38992 -0.714914 0
M  V30 979 H 82.5396 -0.725837 -3.16073 0
M  V30 980 H 82.3246 -2.49504 -3.02473 0
M  V30 981 H 83.8146 -1.82667 -3.7553 0
M  V30 982 N 84.2517 0.741722 -1.39055 0
M  V30 983 C 85.4797 1.53098 -1.39171 0
M  V30 984 C 85.8947 1.88794 0.0155099 0
M  V30 985 O 85.2517 1.53626 0.985159 0
M  V30 986 C 85.3027 2.82274 -2.2584 0
M  V30 987 O 85.0237 2.48097 -3.61081 0
M  V30 988 C 86.5247 3.76343 -2.34266 0
M  V30 989 H 83.7447 0.473335 -0.4756 0
M  V30 990 H 86.2887 0.917045 -1.82785 0
M  V30 991 H 84.4437 3.40015 -1.85656 0
M  V30 992 H 84.8577 3.31029 -4.06842 0
M  V30 993 H 86.3317 4.63898 -2.9917 0
M  V30 994 H 86.8087 4.17619 -1.35982 0
M  V30 995 H 87.4147 3.24523 -2.74891 0
M  V30 996 N 85.7298 1.2412 0.971189 0
M  V30 997 C 86.6398 1.04747 2.09917 0
M  V30 998 C 87.6558 -0.0107162 1.73997 0
M  V30 999 O 88.8318 0.186714 2.00533 0
M  V30 1000 C 85.8968 0.650828 3.40537 0
M  V30 1001 C 84.9578 1.7851 3.90426 0
M  V30 1002 C 84.1908 1.40729 5.14812 0
M  V30 1003 O 84.4138 0.29557 5.69634 0
M  V30 1004 O 83.3478 2.23168 5.58999 0
M  V30 1005 H 87.1738 1.99304 2.29154 0
M  V30 1006 H 84.7588 1.02908 1.08307 0
M  V30 1007 H 86.6408 0.440992 4.19086 0
M  V30 1008 H 85.3158 -0.265649 3.22608 0
M  V30 1009 H 84.2228 2.04966 3.12953 0
M  V30 1010 H 85.5558 2.68023 4.12825 0
M  V30 1011 N 87.2079 -1.17134 1.05439 0
M  V30 1012 C 88.4569 -1.86791 0.761049 0
M  V30 1013 C 88.7699 -1.82072 -0.714795 0
M  V30 1014 O 89.9759 -2.47223 -1.12218 0
M  V30 1015 C 88.4319 -3.35166 1.31117 0
M  V30 1016 C 88.0399 -3.48381 2.81664 0
M  V30 1017 C 89.7839 -4.10134 1.09499 0
M  V30 1018 C 87.6909 -4.90793 3.29964 0
M  V30 1019 H 86.6209 -0.699681 0.281002 0
M  V30 1020 H 89.2719 -1.3226 1.27199 0
M  V30 1021 H 87.6539 -3.8925 0.72803 0
M  V30 1022 H 88.8279 -3.04502 3.45855 0
M  V30 1023 H 87.1429 -2.86836 3.01851 0
M  V30 1024 H 89.7399 -5.152 1.43084 0
M  V30 1025 H 90.0829 -4.16287 0.0328772 0
M  V30 1026 H 90.6159 -3.62264 1.64346 0
M  V30 1027 H 87.3549 -4.89816 4.35616 0
M  V30 1028 H 86.8749 -5.35333 2.70516 0
M  V30 1029 H 88.5539 -5.59573 3.24787 0
M  V30 1030 N 88.686 -0.835752 -1.33615 0
M  V30 1031 C 89.618 -0.224151 -2.28101 0
M  V30 1032 C 90.631 0.593331 -1.51603 0
M  V30 1033 O 91.82 0.420911 -1.73466 0
M  V30 1034 C 88.92 0.703309 -3.31522 0
M  V30 1035 C 88.093 -0.0741528 -4.37337 0
M  V30 1036 C 87.152 0.776176 -5.20444 0
M  V30 1037 O 86.178 0.216506 -5.68788 0
M  V30 1038 N 87.38 2.09401 -5.41416 0
M  V30 1039 H 90.145 -1.03598 -2.81225 0
M  V30 1040 H 87.706 -0.69392 -1.46275 0
M  V30 1041 H 89.698 1.27707 -3.84022 0
M  V30 1042 H 88.268 1.41585 -2.78698 0
M  V30 1043 H 87.488 -0.82928 -3.85378 0
M  V30 1044 H 88.776 -0.608863 -5.05144 0
M  V30 1045 H 88.174 2.57229 -5.03835 0
M  V30 1046 H 86.731 2.61633 -5.96985 0
M  V30 1047 N 90.1641 1.46063 -0.591896 0
M  V30 1048 C 91.3921 2.06717 -0.0868936 0
M  V30 1049 C 91.8071 1.43916 1.22203 0
M  V30 1050 O 91.1641 0.547698 1.74088 0
M  V30 1051 C 91.2151 3.6142 0.0758725 0
M  V30 1052 O 90.9361 4.21874 -1.18126 0
M  V30 1053 C 92.4371 4.39025 0.61416 0
M  V30 1054 H 89.6571 0.668162 -0.0616518 0
M  V30 1055 H 92.2011 1.8755 -0.815175 0
M  V30 1056 H 90.3561 3.79983 0.754413 0
M  V30 1057 H 90.7701 5.14861 -1.00092 0
M  V30 1058 H 92.2441 5.4783 0.677193 0
M  V30 1059 H 92.7211 4.07708 1.63312 0
M  V30 1060 H 93.3271 4.2529 -0.0298142 0
M  V30 1061 N 91.6422 0.330177 1.54103 0
M  V30 1062 C 92.6052 -0.520144 2.2322 0
M  V30 1063 C 93.6052 -1.03828 1.22786 0
M  V30 1064 O 94.7952 -0.929652 1.4732 0
M  V30 1065 C 91.9272 -1.72317 2.94142 0
M  V30 1066 H 93.1202 0.0841605 2.99782 0
M  V30 1067 H 90.6732 0.0813433 1.56088 0
M  V30 1068 H 91.4082 -2.36653 2.21734 0
M  V30 1069 H 91.1932 -1.35898 3.67796 0
M  V30 1070 H 92.6832 -2.3266 3.46784 0
M  V30 1071 N 93.1203 -1.57491 0.0584922 0
M  V30 1072 C 94.5363 -1.56792 -0.298091 0
M  V30 1073 C 94.7363 -1.06679 -1.70944 0
M  V30 1074 O 93.7923 -0.726672 -2.41818 0
M  V30 1075 C 95.1053 -3.00461 -0.119879 0
M  V30 1076 C 96.6533 -3.1242 -0.190428 0
M  V30 1077 C 97.1283 -4.57982 -0.0406567 0
M  V30 1078 N 98.6193 -4.63099 -0.0966958 0
M  V30 1079 C 99.3543 -5.734 -0.00502943 0
M  V30 1080 N 98.8503 -6.9266 0.139402 0
M  V30 1081 N 100.643 -5.62067 -0.0611391 0
M  V30 1082 H 92.7943 -1.88386 0.98105 0
M  V30 1083 H 95.0573 -0.867865 0.381463 0
M  V30 1084 H 94.7633 -3.41187 0.85349 0
M  V30 1085 H 94.6373 -3.66843 -0.877833 0
M  V30 1086 H 97.0243 -2.71589 -1.15427 0
M  V30 1087 H 97.1053 -2.48702 0.598405 0
M  V30 1088 H 96.7493 -4.995 0.919897 0
M  V30 1089 H 96.6793 -5.19715 -0.848727 0
M  V30 1090 H 99.1703 -3.77331 -0.207277 0
M  V30 1091 H 99.4833 -7.72536 0.201855 0
M  V30 1092 H 97.8283 -6.94781 0.174586 0
M  V30 1093 H 101.019 -4.67782 -0.172583 0
M  V30 1094 H 101.192 -6.47999 0.0137562 0
M  V30 1095 N 94.5984 0.214957 -1.56127 0
M  V30 1096 C 96.0094 0.781386 -1.69562 0
M  V30 1097 C 96.3604 1.84707 -0.66165 0
M  V30 1098 O 95.4854 2.156 0.185927 0
M  V30 1099 C 96.0804 1.42411 -3.07416 0
M  V30 1100 C 94.6394 1.93786 -3.22683 0
M  V30 1101 C 93.7864 0.800438 -2.65496 0
M  V30 1102 H 96.7374 -0.00980633 -1.58697 0
M  V30 1103 H 96.7584 2.29309 -3.0364 0
M  V30 1104 H 96.2704 0.64826 -3.82648 0
M  V30 1105 H 94.3714 2.74152 -2.52332 0
M  V30 1106 H 94.4844 2.1133 -4.29973 0
M  V30 1107 H 92.8484 1.2095 -2.2415 0
M  V30 1108 H 93.6314 0.0371471 -3.4328 0
M  V30 1109 N 96.0765 1.50051 0.48192 0
M  V30 1110 C 97.3225 1.60736 1.2366 0
M  V30 1111 C 97.6555 0.301786 1.91841 0
M  V30 1112 O 96.9305 -0.696025 1.8162 0
M  V30 1113 C 97.2135 2.78009 2.28874 0
M  V30 1114 C 97.0665 4.18416 1.65069 0
M  V30 1115 C 98.3855 2.90867 3.30279 0
M  V30 1116 H 95.5045 0.585031 0.448228 0
M  V30 1117 H 98.1465 1.82402 0.531946 0
M  V30 1118 H 96.2965 2.59667 2.88973 0
M  V30 1119 H 97.9685 4.48322 1.0865 0
M  V30 1120 H 96.2115 4.23177 0.954148 0
M  V30 1121 H 96.8825 4.96381 2.41474 0
M  V30 1122 H 99.3585 3.07623 2.80191 0
M  V30 1123 H 98.2345 3.74566 4.01238 0
M  V30 1124 H 98.4955 2.01021 3.93755 0
M  V30 1125 N 97.5546 -0.734337 1.39446 0
M  V30 1126 C 98.5046 -1.83949 1.34709 0
M  V30 1127 C 99.4886 -1.59279 0.227851 0
M  V30 1128 O 100.681 -1.70771 0.465438 0
M  V30 1129 C 97.8096 -3.21884 1.19356 0
M  V30 1130 C 96.8956 -3.52381 2.35984 0
M  V30 1131 N 97.2866 -3.53811 3.61457 0
M  V30 1132 C 95.5846 -3.82747 2.28956 0
M  V30 1133 C 96.2856 -3.82122 4.38586 0
M  V30 1134 N 95.2616 -3.9993 3.68181 0
M  V30 1135 H 99.0636 -1.83361 2.29687 0
M  V30 1136 H 96.5776 -0.932609 1.32952 0
M  V30 1137 H 98.5746 -4.00998 1.14046 0
M  V30 1138 H 97.2346 -3.23711 0.253295 0
M  V30 1139 H 98.2456 -3.35107 3.94872 0
M  V30 1140 H 94.9226 -3.92175 1.43194 0
M  V30 1141 H 96.3126 -3.89691 5.47349 0
M  V30 1142 N 99.0327 -1.24633 -0.964593 0
M  V30 1143 C 100.261 -1.11501 -1.74285 0
M  V30 1144 C 100.676 0.332165 -1.85855 0
M  V30 1145 O 100.033 1.22903 -1.34911 0
M  V30 1146 C 100.084 -1.75258 -3.16175 0
M  V30 1147 O 99.8047 -3.14318 -3.05182 0
M  V30 1148 C 101.306 -1.67776 -4.10324 0
M  V30 1149 H 98.5257 -0.389407 -0.546446 0
M  V30 1150 H 101.07 -1.64801 -1.21083 0
M  V30 1151 H 99.2247 -1.25954 -3.66353 0
M  V30 1152 H 99.6387 -3.4551 -3.94618 0
M  V30 1153 H 101.113 -2.17064 -5.0753 0
M  V30 1154 H 101.59 -0.639584 -4.34518 0
M  V30 1155 H 102.196 -2.16522 -3.66058 0
M  V30 1156 N 100.511 1.16574 -1.06058 0
M  V30 1157 C 101.474 2.19085 -0.673392 0
M  V30 1158 C 102.474 1.5835 0.279648 0
M  V30 1159 O 103.664 1.74088 0.0623488 0
M  V30 1160 C 100.796 3.40899 0.00954234 0
M  V30 1161 H 101.989 2.54853 -1.58081 0
M  V30 1162 H 99.5418 1.30808 -0.855516 0
M  V30 1163 H 100.277 3.10684 0.929826 0
M  V30 1164 H 100.062 3.86233 -0.67573 0
M  V30 1165 H 101.552 4.1675 0.266245 0
M  V30 1166 N 101.989 0.842826 1.3317 0
M  V30 1167 C 103.214 0.453129 2.02389 0
M  V30 1168 C 103.639 -0.939105 1.6298 0
M  V30 1169 O 102.997 -1.61472 0.8244 0
M  V30 1170 C 103.045 0.586094 3.55805 0
M  V30 1171 O 102.149 -0.386029 4.10589 0
M  V30 1172 H 101.49 0.183664 0.638094 0
M  V30 1173 H 104.02 1.13875 1.69981 0
M  V30 1174 H 104.03 0.469209 4.05293 0
M  V30 1175 H 102.705 1.6014 3.83833 0
M  V30 1176 H 101.282 -0.226371 3.72212 0
M  V30 1177 N 103.467 -1.45747 0.599634 0
M  V30 1178 C 104.716 -2.01502 0.0893511 0
M  V30 1179 C 105.029 -1.4748 -1.28488 0
M  V30 1180 O 106.235 -1.95161 -1.88745 0
M  V30 1181 C 104.691 -3.59735 0.109082 0
M  V30 1182 C 104.299 -4.22754 1.48267 0
M  V30 1183 C 106.043 -4.23085 -0.346374 0
M  V30 1184 C 103.95 -5.73115 1.45921 0
M  V30 1185 H 102.88 -0.753417 0.0296347 0
M  V30 1186 H 105.531 -1.67303 0.753788 0
M  V30 1187 H 103.913 -3.91087 -0.621854 0
M  V30 1188 H 105.087 -4.02987 2.23468 0
M  V30 1189 H 103.402 -3.71567 1.87955 0
M  V30 1190 H 105.999 -5.33327 -0.38298 0
M  V30 1191 H 106.342 -3.93201 -1.36743 0
M  V30 1192 H 106.875 -3.9642 0.331038 0
M  V30 1193 H 103.614 -6.07685 2.45762 0
M  V30 1194 H 103.134 -5.95097 0.749665 0
M  V30 1195 H 104.813 -6.3616 1.17941 0
M  V30 1196 N 104.945 -0.338344 -1.53925 0
M  V30 1197 C 106.17 0.263987 -2.05713 0
M  V30 1198 C 106.595 1.43847 -1.21201 0
M  V30 1199 O 105.953 1.79904 -0.224535 0
M  V30 1200 C 106.001 0.662 -3.54471 0
M  V30 1201 O 105.105 1.76265 -3.72833 0
M  V30 1202 H 104.446 0.0448722 -0.662482 0
M  V30 1203 H 106.976 -0.491048 -1.9862 0
M  V30 1204 H 106.986 0.940594 -3.9701 0
M  V30 1205 H 105.661 -0.196937 -4.15433 0
M  V30 1206 H 104.238 1.48173 -3.42198 0
M  V30 1207 N 106.423 1.57458 -0.0668435 0
M  V30 1208 C 107.7 1.8469 0.644132 0
M  V30 1209 C 108.08 0.958343 1.88093 0
M  V30 1210 O 107.428 0.0233579 2.28488 0
M  V30 1211 C 107.638 3.34767 0.986509 0
M  V30 1212 C 108.986 4.02159 1.36212 0
M  V30 1213 O 110.01 3.39484 1.07839 0
M  V30 1214 O 108.869 5.12694 1.89227 0
M  V30 1215 H 105.963 0.762816 0.319437 0
M  V30 1216 H 108.509 1.6942 -0.0973986 0
M  V30 1217 H 107.281 3.91151 0.107883 0
M  V30 1218 H 106.904 3.55281 1.78497 0
M  V30 1219 N 107.901 -0.206675 1.56239 0
M  V30 1220 C 109.126 -0.949474 1.8439 0
M  V30 1221 C 109.551 -1.76549 0.649016 0
M  V30 1222 O 108.909 -1.76782 -0.402231 0
M  V30 1223 C 108.957 -1.83078 3.10668 0
M  V30 1224 O 108.061 -2.9281 2.90407 0
M  V30 1225 H 107.402 -0.268033 0.607499 0
M  V30 1226 H 109.932 -0.215488 2.03462 0
M  V30 1227 H 109.942 -2.2377 3.41161 0
M  V30 1228 H 108.617 -1.23112 3.97261 0
M  V30 1229 H 107.194 -2.55956 2.71184 0
M  V30 1230 N 109.379 -1.50304 -0.473955 0
M  V30 1231 C 110.626 -1.6115 -1.22625 0
M  V30 1232 C 110.954 -0.310517 -1.92005 0
M  V30 1233 O 110.209 0.703419 -1.82621 0
M  V30 1234 C 110.508 -2.73938 -2.29549 0
M  V30 1235 C 110.174 -4.14519 -1.7744 0
M  V30 1236 C 108.836 -4.5277 -1.62949 0
M  V30 1237 C 111.188 -5.02392 -1.3875 0
M  V30 1238 C 108.516 -5.76639 -1.08187 0
M  V30 1239 C 110.868 -6.26805 -0.854309 0
M  V30 1240 C 109.532 -6.63861 -0.696011 0
M  V30 1241 H 108.802 -0.589691 -0.448715 0
M  V30 1242 H 111.449 -1.84228 -0.522705 0
M  V30 1243 H 109.754 -2.44937 -3.05799 0
M  V30 1244 H 111.451 -2.79534 -2.87509 0
M  V30 1245 H 108.041 -3.8434 -1.89685 0
M  V30 1246 H 112.225 -4.73474 -1.4878 0
M  V30 1247 H 107.481 -6.04027 -0.946666 0
M  V30 1248 H 111.655 -6.94258 -0.545843 0
M  V30 1249 H 109.282 -7.59722 -0.26952 0
M  V30 1250 N 110.857 0.726932 -1.39834 0
M  V30 1251 C 111.789 1.85147 -1.35104 0
M  V30 1252 C 112.802 1.60736 -0.258392 0
M  V30 1253 O 113.991 1.70821 -0.517931 0
M  V30 1254 C 111.091 3.21332 -1.07697 0
M  V30 1255 C 110.264 3.73033 -2.28396 0
M  V30 1256 C 109.323 4.87802 -1.97322 0
M  V30 1257 O 108.349 5.01043 -2.70083 0
M  V30 1258 N 109.551 5.72768 -0.944273 0
M  V30 1259 H 112.316 1.89706 -2.32017 0
M  V30 1260 H 109.877 0.908006 -1.3404 0
M  V30 1261 H 111.869 3.95691 -0.849144 0
M  V30 1262 H 110.439 3.11992 -0.194909 0
M  V30 1263 H 109.659 2.89934 -2.6708 0
M  V30 1264 H 110.947 4.0431 -3.08887 0
M  V30 1265 H 110.345 5.64669 -0.341427 0
M  V30 1266 H 108.902 6.4716 -0.776346 0
M  V30 1267 N 112.336 1.25143 0.95797 0
M  V30 1268 C 113.561 1.12521 1.74223 0
M  V30 1269 C 113.986 -0.317402 1.85403 0
M  V30 1270 O 113.344 -1.2299 1.33204 0
M  V30 1271 C 113.392 1.78062 3.1357 0
M  V30 1272 O 112.496 1.058 3.98598 0
M  V30 1273 H 111.837 0.39304 0.535178 0
M  V30 1274 H 114.367 1.65641 1.201 0
M  V30 1275 H 114.377 1.84213 3.64046 0
M  V30 1276 H 113.052 2.83021 3.04749 0
M  V30 1277 H 111.629 1.07506 3.57067 0
M  V30 1278 N 113.814 -1.1601 1.06675 0
M  V30 1279 C 115.063 -1.85973 0.780818 0
M  V30 1280 C 115.376 -1.82819 -0.695444 0
M  V30 1281 O 116.582 -2.484 -1.09589 0
M  V30 1282 C 115.038 -3.33757 1.34665 0
M  V30 1283 C 114.646 -3.45374 2.85343 0
M  V30 1284 C 116.39 -4.0895 1.13843 0
M  V30 1285 C 114.297 -4.87266 3.35151 0
M  V30 1286 H 113.227 -0.696661 0.288407 0
M  V30 1287 H 115.878 -1.30903 1.28595 0
M  V30 1288 H 114.26 -3.88456 0.769274 0
M  V30 1289 H 115.434 -3.00816 3.49065 0
M  V30 1290 H 113.749 -2.83619 3.04876 0
M  V30 1291 H 116.346 -5.13654 1.4854 0
M  V30 1292 H 116.689 -4.16229 0.0770282 0
M  V30 1293 H 117.222 -3.605 1.68179 0
M  V30 1294 H 113.961 -4.85168 4.40786 0
M  V30 1295 H 113.481 -5.32433 2.76179 0
M  V30 1296 H 115.16 -5.56097 3.30704 0
M  V30 1297 N 115.292 -0.849877 -1.32721 0
M  V30 1298 C 116.539 -0.450923 -1.97416 0
M  V30 1299 C 116.867 0.992376 -1.67279 0
M  V30 1300 O 116.122 1.71048 -0.950845 0
M  V30 1301 C 116.421 -0.631272 -3.51781 0
M  V30 1302 C 116.087 -2.04432 -4.01894 0
M  V30 1303 C 114.749 -2.4308 -4.1529 0
M  V30 1304 C 117.101 -2.96679 -4.28522 0
M  V30 1305 C 114.429 -3.73257 -4.52654 0
M  V30 1306 C 116.781 -4.26349 -4.67343 0
M  V30 1307 C 115.445 -4.64939 -4.78945 0
M  V30 1308 H 114.715 -0.165004 -0.722395 0
M  V30 1309 H 117.362 -1.07901 -1.58207 0
M  V30 1310 H 115.667 0.0800767 -3.91718 0
M  V30 1311 H 117.364 -0.302709 -3.99856 0
M  V30 1312 H 113.954 -1.73419 -3.91949 0
M  V30 1313 H 118.138 -2.68054 -4.17685 0
M  V30 1314 H 113.394 -4.02946 -4.59831 0
M  V30 1315 H 117.568 -4.97895 -4.86902 0
M  V30 1316 H 115.195 -5.65855 -5.07654 0
M  V30 1317 N 116.77 1.45427 -0.607355 0
M  V30 1318 C 117.995 2.07124 -0.107006 0
M  V30 1319 C 118.42 1.44906 1.19933 0
M  V30 1320 O 117.778 0.541687 1.73019 0
M  V30 1321 C 117.826 3.60595 0.0194119 0
M  V30 1322 O 116.93 3.98285 1.0697 0
M  V30 1323 H 116.271 0.659868 -0.0739597 0
M  V30 1324 H 118.801 1.86683 -0.837297 0
M  V30 1325 H 118.811 4.07419 0.2177 0
M  V30 1326 H 117.486 4.05266 -0.934453 0
M  V30 1327 H 116.063 3.63133 0.847889 0
M  V30 1328 N 118.248 0.346503 1.53744 0
M  V30 1329 C 119.478 -0.250047 2.05081 0
M  V30 1330 C 119.886 -1.44529 1.22098 0
M  V30 1331 O 119.229 -1.81992 0.249917 0
M  V30 1332 C 119.291 -0.725934 3.52094 0
M  V30 1333 C 118.955 0.350053 4.55657 0
M  V30 1334 C 119.952 1.19372 5.0601 0
M  V30 1335 C 117.637 0.504827 4.99757 0
M  V30 1336 C 119.631 2.17768 5.99046 0
M  V30 1337 C 117.318 1.49218 5.92602 0
M  V30 1338 C 118.316 2.32706 6.42135 0
M  V30 1339 O 118.004 3.2976 7.33153 0
M  V30 1340 H 117.736 -0.0515469 0.674032 0
M  V30 1341 H 120.29 0.497559 1.99282 0
M  V30 1342 H 118.52 -1.52483 3.55367 0
M  V30 1343 H 120.209 -1.24336 3.86388 0
M  V30 1344 H 120.975 1.08525 4.72702 0
M  V30 1345 H 116.854 -0.135178 4.60802 0
M  V30 1346 H 120.398 2.82971 6.37631 0
M  V30 1347 H 116.295 1.6012 6.25325 0
M  V30 1348 H 117.063 3.25265 7.51096 0
M  V30 1349 N 119.726 -1.57421 0.075193 0
M  V30 1350 C 120.956 -1.97659 -0.601203 0
M  V30 1351 C 121.364 -0.952427 -1.63479 0
M  V30 1352 O 120.707 0.0688241 -1.83571 0
M  V30 1353 C 120.769 -3.34218 -1.32434 0
M  V30 1354 C 120.433 -4.5484 -0.443826 0
M  V30 1355 C 121.43 -5.19034 0.299969 0
M  V30 1356 C 119.115 -5.00952 -0.367709 0
M  V30 1357 C 121.109 -6.27695 1.10807 0
M  V30 1358 C 118.796 -6.09484 0.444058 0
M  V30 1359 C 119.794 -6.72719 1.18061 0
M  V30 1360 O 119.482 -7.79161 1.97898 0
M  V30 1361 H 119.214 -0.65494 -0.167422 0
M  V30 1362 H 121.768 -2.04886 0.145157 0
M  V30 1363 H 119.998 -3.23615 -2.11685 0
M  V30 1364 H 121.687 -3.59038 -1.89331 0
M  V30 1365 H 122.453 -4.84351 0.250776 0
M  V30 1366 H 118.332 -4.51509 -0.930638 0
M  V30 1367 H 121.876 -6.76982 1.68347 0
M  V30 1368 H 117.773 -6.43601 0.494803 0
M  V30 1369 H 118.541 -7.96055 1.90367 0
M  V30 1370 N 121.204 0.198386 -1.56346 0
M  V30 1371 C 122.481 0.944982 -1.71258 0
M  V30 1372 C 122.861 2.0151 -0.629048 0
M  V30 1373 O 122.209 2.25639 0.360473 0
M  V30 1374 C 122.419 1.5344 -3.1346 0
M  V30 1375 C 123.767 2.01778 -3.73591 0
M  V30 1376 O 124.791 1.63288 -3.16568 0
M  V30 1377 O 123.65 2.72594 -4.73661 0
M  V30 1378 H 120.744 0.442939 -0.69838 0
M  V30 1379 H 123.29 0.188342 -1.68652 0
M  V30 1380 H 122.062 0.762869 -3.83792 0
M  V30 1381 H 121.685 2.35596 -3.20282 0
M  V30 1382 N 122.682 1.50554 0.465978 0
M  V30 1383 C 123.63 1.70324 1.58406 0
M  V30 1384 C 124.624 0.569139 1.59553 0
M  V30 1385 O 125.83 0.749776 1.63641 0
M  V30 1386 H 122.205 0.537688 0.525734 0
M  V30 1387 H 124.176 2.64104 1.38894 0
M  V30 1388 C 122.925 1.81928 2.96307 0
M  V30 1389 H 122.248 2.68586 2.96144 0
M  V30 1390 H 123.688 1.99784 3.73982 0
M  V30 1391 C 122.147 0.572095 3.32007 0
M  V30 1392 O 122.677 -0.286416 4.00678 0
M  V30 1393 N 120.883 0.424606 2.87481 0
M  V30 1394 H 120.43 1.12427 2.31771 0
M  V30 1395 H 120.388 -0.408697 3.11732 0
M  V30 1396 N 124.16 -0.719506 1.40217 0
M  V30 1397 C 125.385 -1.51371 1.4178 0
M  V30 1398 C 125.81 -1.88091 0.0182355 0
M  V30 1399 O 125.168 -1.52997 -0.972707 0
M  V30 1400 C 125.216 -2.768 2.31115 0
M  V30 1401 O 124.32 -3.73349 1.7517 0
M  V30 1402 H 123.661 -0.456529 0.482159 0
M  V30 1403 H 126.191 -0.88644 1.844 0
M  V30 1404 H 126.201 -3.25371 2.46167 0
M  V30 1405 H 124.876 -2.49407 3.3282 0
M  V30 1406 H 123.453 -3.32179 1.69444 0
M  V30 1407 N 125.638 -1.25649 -0.95132 0
M  V30 1408 C 126.866 -1.13343 -1.73092 0
M  V30 1409 C 127.281 0.312434 -1.86197 0
M  V30 1410 O 126.638 1.21465 -1.36207 0
M  V30 1411 C 126.689 -1.78602 -3.14299 0
M  V30 1412 O 126.41 -3.17537 -3.01831 0
M  V30 1413 C 127.911 -1.72119 -4.08522 0
M  V30 1414 H 125.131 -0.395181 -0.542285 0
M  V30 1415 H 127.675 -1.66076 -1.19328 0
M  V30 1416 H 125.83 -1.29832 -3.64996 0
M  V30 1417 H 126.244 -3.49676 -3.90931 0
M  V30 1418 H 127.718 -2.22435 -5.052 0
M  V30 1419 H 128.195 -0.685635 -4.33815 0
M  V30 1420 H 128.801 -2.20393 -3.63741 0
M  V30 1421 N 127.117 1.15442 -1.07289 0
M  V30 1422 C 128.05 2.19135 -0.636798 0
M  V30 1423 C 129.028 1.58884 0.34562 0
M  V30 1424 O 130.212 1.86805 0.252195 0
M  V30 1425 C 127.339 3.38638 0.0650014 0
M  V30 1426 C 126.385 4.17412 -0.87576 0
M  V30 1427 S 127.218 4.79882 -2.37642 0
M  V30 1428 C 128.374 6.02753 -1.6864 0
M  V30 1429 H 128.607 2.55787 -1.51526 0
M  V30 1430 H 126.14 1.26394 -0.886793 0
M  V30 1431 H 128.098 4.07873 0.463664 0
M  V30 1432 H 126.759 3.00331 0.919801 0
M  V30 1433 H 125.952 5.02909 -0.33143 0
M  V30 1434 H 125.554 3.53722 -1.21478 0
M  V30 1435 H 127.846 6.70113 -0.997753 0
M  V30 1436 H 128.789 6.61754 -2.51967 0
M  V30 1437 H 129.197 5.52355 -1.16465 0
M  V30 1438 N 128.595 0.856903 1.32268 0
M  V30 1439 C 129.841 0.462069 1.97466 0
M  V30 1440 C 130.174 -0.980298 1.67642 0
M  V30 1441 O 129.449 -1.68824 0.965858 0
M  V30 1442 C 129.732 0.704336 3.53145 0
M  V30 1443 C 129.585 2.19529 3.9259 0
M  V30 1444 C 130.904 0.1622 4.39801 0
M  V30 1445 H 128.023 0.169357 0.717278 0
M  V30 1446 H 130.665 1.07574 1.56614 0
M  V30 1447 H 128.815 0.181999 3.88073 0
M  V30 1448 H 130.487 2.78387 3.67829 0
M  V30 1449 H 128.73 2.67292 3.41668 0
M  V30 1450 H 129.401 2.31549 5.01088 0
M  V30 1451 H 131.877 0.608905 4.11621 0
M  V30 1452 H 130.753 0.361265 5.4771 0
M  V30 1453 H 131.014 -0.935158 4.32096 0
M  V30 1454 N 130.073 -1.45103 0.615059 0
M  V30 1455 C 131.301 -2.06553 0.11977 0
M  V30 1456 C 131.716 -1.45842 -1.19898 0
M  V30 1457 O 131.073 -0.575325 -1.73194 0
M  V30 1458 C 131.124 -3.61495 -0.018364 0
M  V30 1459 O 130.845 -4.19942 1.24822 0
M  V30 1460 C 132.346 -4.39947 -0.544237 0
M  V30 1461 H 129.566 -0.667096 0.0722739 0
M  V30 1462 H 132.11 -1.8623 0.84491 0
M  V30 1463 H 130.265 -3.81135 -0.693865 0
M  V30 1464 H 130.679 -5.13204 1.0827 0
M  V30 1465 H 132.153 -5.48838 -0.589953 0
M  V30 1466 H 132.63 -4.10255 -1.56805 0
M  V30 1467 H 133.236 -4.25188 0.0974703 0
M  V30 1468 N 131.551 -0.354651 -1.53558 0
M  V30 1469 C 132.799 0.237972 -2.00694 0
M  V30 1470 C 133.12 1.50173 -1.24391 0
M  V30 1471 O 132.39 1.92673 -0.354135 0
M  V30 1472 H 130.97 0.0909256 -0.741446 0
M  V30 1473 H 133.632 -0.478368 -1.88938 0
M  V30 1474 H 132.728 0.47264 -3.085 0
M  V30 1475 N 133.029 1.57378 -0.0835403 0
M  V30 1476 C 133.977 2.14602 0.89714 0
M  V30 1477 C 134.971 1.08589 1.30018 0
M  V30 1478 O 136.177 1.26952 1.27606 0
M  V30 1479 H 132.552 0.686346 0.3073 0
M  V30 1480 H 134.523 2.95845 0.38969 0
M  V30 1481 C 133.272 2.73188 2.15089 0
M  V30 1482 H 132.595 3.54442 1.84962 0
M  V30 1483 H 134.035 3.1681 2.81793 0
M  V30 1484 C 132.494 1.68517 2.91725 0
M  V30 1485 O 133.024 1.11718 3.85852 0
M  V30 1486 N 131.23 1.39277 2.55049 0
M  V30 1487 H 130.777 1.85655 1.78577 0
M  V30 1488 H 130.735 0.694791 3.06627 0
M  V30 1489 N 134.507 -0.190092 1.56449 0
M  V30 1490 C 135.47 -1.21925 1.9408 0
M  V30 1491 C 136.47 -1.38176 0.822431 0
M  V30 1492 O 137.66 -1.35903 1.08977 0
M  V30 1493 C 134.792 -2.58773 2.21922 0
M  V30 1494 H 135.985 -0.897464 2.86157 0
M  V30 1495 H 133.538 -0.43181 1.50217 0
M  V30 1496 H 134.273 -2.95998 1.32499 0
M  V30 1497 H 134.058 -2.48348 3.03424 0
M  V30 1498 H 135.548 -3.32978 2.52022 0
M  V30 1499 N 135.985 -1.50799 -0.457987 0
M  V30 1500 C 137.213 -1.66218 -1.23203 0
M  V30 1501 C 137.628 -0.350894 -1.85511 0
M  V30 1502 O 136.985 0.668546 -1.69814 0
M  V30 1503 C 137.036 -2.76291 -2.33121 0
M  V30 1504 O 136.757 -4.02338 -1.73366 0
M  V30 1505 C 138.258 -3.028 -3.2377 0
M  V30 1506 H 135.478 -0.558361 -0.372121 0
M  V30 1507 H 138.022 -1.97099 -0.545179 0
M  V30 1508 H 136.177 -2.48068 -2.97558 0
M  V30 1509 H 136.591 -4.63312 -2.4585 0
M  V30 1510 H 138.065 -3.8345 -3.97077 0
M  V30 1511 H 138.542 -2.14385 -3.83322 0
M  V30 1512 H 139.148 -3.32604 -2.65056 0
M  V30 1513 N 137.463 0.71206 -1.40597 0
M  V30 1514 C 138.879 1.02058 -1.22704 0
M  V30 1515 C 139.079 2.01228 -0.104729 0
M  V30 1516 O 138.135 2.4674 0.53624 0
M  V30 1517 C 139.448 1.56094 -2.57012 0
M  V30 1518 C 140.996 1.6806 -2.64054 0
M  V30 1519 C 141.471 2.25501 -3.9864 0
M  V30 1520 N 142.962 2.32882 -4.004 0
M  V30 1521 C 143.697 2.78317 -5.01325 0
M  V30 1522 N 143.193 3.23478 -6.12645 0
M  V30 1523 N 144.986 2.77733 -4.88693 0
M  V30 1524 H 137.137 0.0547896 -2.12329 0
M  V30 1525 H 139.4 0.0869027 -0.944008 0
M  V30 1526 H 139.106 0.906865 -3.39807 0
M  V30 1527 H 138.98 2.54564 -2.78347 0
M  V30 1528 H 141.367 2.32583 -1.81629 0
M  V30 1529 H 141.448 0.681802 -2.46546 0
M  V30 1530 H 141.092 1.61598 -4.81506 0
M  V30 1531 H 141.022 3.26102 -4.13479 0
M  V30 1532 H 143.513 2.00991 -3.20017 0
M  V30 1533 H 143.826 3.56725 -6.85542 0
M  V30 1534 H 142.171 3.21429 -6.16205 0
M  V30 1535 H 145.362 2.4179 -4.00818 0
M  V30 1536 H 145.535 3.12826 -5.67489 0
M  V30 1537 N 138.941 1.26152 0.944643 0
M  V30 1538 C 140.218 1.02247 1.66748 0
M  V30 1539 C 140.598 -0.448202 2.06287 0
M  V30 1540 O 139.946 -1.42779 1.78399 0
M  V30 1541 C 140.156 1.96788 2.88228 0
M  V30 1542 C 141.504 2.25201 3.59958 0
M  V30 1543 O 142.528 1.94626 2.98327 0
M  V30 1544 O 141.387 2.77242 4.70956 0
M  V30 1545 H 138.481 0.388517 0.730057 0
M  V30 1546 H 141.027 1.37348 0.99668 0
M  V30 1547 H 139.799 2.96047 2.55875 0
M  V30 1548 H 139.422 1.62145 3.63035 0
M  V30 1549 N 140.419 -1.14872 1.07899 0
M  V30 1550 C 141.349 -2.2193 0.725887 0
M  V30 1551 C 142.33 -1.67622 -0.28927 0
M  V30 1552 O 143.515 -1.93533 -0.160787 0
M  V30 1553 C 140.645 -3.47061 0.128856 0
M  V30 1554 C 139.599 -4.14363 1.07178 0
M  V30 1555 C 138.925 -5.33636 0.337229 0
M  V30 1556 C 140.225 -4.63492 2.40775 0
M  V30 1557 H 141.919 -2.51724 1.62097 0
M  V30 1558 H 139.465 -1.20991 0.780838 0
M  V30 1559 H 141.418 -4.21199 -0.130147 0
M  V30 1560 H 140.142 -3.16617 -0.80134 0
M  V30 1561 H 138.801 -3.42173 1.3158 0
M  V30 1562 H 138.449 -4.99449 -0.596606 0
M  V30 1563 H 138.149 -5.79609 0.965788 0
M  V30 1564 H 139.673 -6.10539 0.0861567 0
M  V30 1565 H 141.087 -5.2913 2.20669 0
M  V30 1566 H 139.484 -5.20148 2.99276 0
M  V30 1567 H 140.554 -3.78834 3.02676 0
M  V30 1568 N 141.898 -0.863906 -1.31812 0
M  V30 1569 C 143.126 -0.486111 -2.01108 0
M  V30 1570 C 143.541 0.919755 -1.64882 0
M  V30 1571 O 142.898 1.60162 -0.874893 0
M  V30 1572 C 142.949 -0.626435 -3.56031 0
M  V30 1573 O 142.67 -1.97693 -3.90959 0
M  V30 1574 C 144.171 -0.248857 -4.42601 0
M  V30 1575 H 141.391 -0.190052 -0.643523 0
M  V30 1576 H 143.935 -1.1634 -1.68182 0
M  V30 1577 H 142.09 0.00322717 -3.874 0
M  V30 1578 H 142.504 -1.98034 -4.85678 0
M  V30 1579 H 143.978 -0.398016 -5.50563 0
M  V30 1580 H 144.455 0.811489 -4.31638 0
M  V30 1581 H 145.061 -0.853971 -4.16638 0
M  V30 1582 N 143.376 1.44774 -0.622745 0
M  V30 1583 C 144.306 2.33382 0.0741861 0
M  V30 1584 C 145.287 1.47719 0.843387 0
M  V30 1585 O 146.472 1.76458 0.810934 0
M  V30 1586 C 143.602 3.30663 1.06204 0
M  V30 1587 C 142.556 4.26079 0.405037 0
M  V30 1588 C 141.882 5.13165 1.5022 0
M  V30 1589 C 143.182 5.1781 -0.683414 0
M  V30 1590 H 144.876 2.91905 -0.665713 0
M  V30 1591 H 142.422 1.40363 -0.321587 0
M  V30 1592 H 144.375 3.9153 1.55827 0
M  V30 1593 H 143.099 2.70331 1.83272 0
M  V30 1594 H 141.758 3.66532 -0.0704683 0
M  V30 1595 H 141.406 4.49191 2.26355 0
M  V30 1596 H 141.106 5.77812 1.06803 0
M  V30 1597 H 142.63 5.76902 2.00041 0
M  V30 1598 H 144.044 5.72661 -0.270631 0
M  V30 1599 H 142.441 5.91015 -1.04023 0
M  V30 1600 H 143.511 4.59326 -1.55395 0
M  V30 1601 N 144.854 0.36279 1.53368 0
M  V30 1602 C 145.804 -0.501391 2.22419 0
M  V30 1603 C 146.788 -1.0509 1.2184 0
M  V30 1604 O 147.98 -0.981404 1.47301 0
M  V30 1605 C 145.109 -1.64201 3.01484 0
M  V30 1606 C 144.195 -1.10552 4.09438 0
M  V30 1607 N 144.586 -0.291788 5.04958 0
M  V30 1608 C 142.884 -1.3806 4.24094 0
M  V30 1609 C 143.585 0.00162655 5.817 0
M  V30 1610 N 142.561 -0.595244 5.40331 0
M  V30 1611 H 146.363 0.127159 2.93625 0
M  V30 1612 H 143.877 0.170658 1.61501 0
M  V30 1613 H 145.874 -2.27326 3.49469 0
M  V30 1614 H 144.534 -2.27365 2.31809 0
M  V30 1615 H 145.545 0.0687731 5.17854 0
M  V30 1616 H 142.222 -2.01522 3.65644 0
M  V30 1617 H 143.612 0.659278 6.68658 0
M  V30 1618 N 146.332 -1.57332 0.0918853 0
M  V30 1619 C 147.264 -2.10869 -0.898168 0
M  V30 1620 C 148.277 -1.04521 -1.24817 0
M  V30 1621 O 149.466 -1.31977 -1.20184 0
M  V30 1622 C 146.566 -2.57083 -2.2082 0
M  V30 1623 C 145.739 -3.87229 -2.03402 0
M  V30 1624 C 144.798 -4.19324 -3.17889 0
M  V30 1625 O 143.824 -4.88598 -2.91994 0
M  V30 1626 N 145.026 -3.74471 -4.43567 0
M  V30 1627 H 147.791 -2.96439 -0.440943 0
M  V30 1628 H 145.352 -1.61631 -0.0933064 0
M  V30 1629 H 147.344 -2.75602 -2.96354 0
M  V30 1630 H 145.914 -1.76541 -2.57977 0
M  V30 1631 H 145.134 -3.7789 -1.12218 0
M  V30 1632 H 146.422 -4.72379 -1.89038 0
M  V30 1633 H 145.82 -3.18546 -4.67488 0
M  V30 1634 H 144.377 -3.98151 -5.16061 0
M  V30 1635 N 147.81 0.181792 -1.56548 0
M  V30 1636 C 149.038 0.915947 -1.85521 0
M  V30 1637 C 149.453 1.76282 -0.676016 0
M  V30 1638 O 148.81 1.79012 0.355077 0
M  V30 1639 C 148.861 1.80126 -3.13427 0
M  V30 1640 O 148.582 0.988562 -4.26801 0
M  V30 1641 C 150.083 2.64597 -3.55673 0
M  V30 1642 H 147.303 0.26661 -0.61576 0
M  V30 1643 H 149.847 0.185039 -2.03661 0
M  V30 1644 H 148.002 2.48563 -2.97145 0
M  V30 1645 H 148.416 1.59308 -4.99721 0
M  V30 1646 H 149.89 3.2235 -4.48101 0
M  V30 1647 H 150.367 3.38958 -2.79292 0
M  V30 1648 H 150.973 2.0151 -3.74532 0
M  V30 1649 N 149.288 1.51039 0.449983 0
M  V30 1650 C 150.251 1.70863 1.5277 0
M  V30 1651 C 151.251 0.578846 1.5002 0
M  V30 1652 O 152.441 0.846213 1.52266 0
M  V30 1653 C 149.573 1.75341 2.9235 0
M  V30 1654 H 150.766 2.67034 1.36502 0
M  V30 1655 H 148.319 1.40838 0.677812 0
M  V30 1656 H 149.054 0.809383 3.14037 0
M  V30 1657 H 148.839 2.57436 2.95752 0
M  V30 1658 H 150.329 1.92559 3.70555 0
M  V30 1659 N 150.766 -0.704594 1.40972 0
M  V30 1660 C 151.994 -1.49354 1.43182 0
M  V30 1661 C 152.409 -1.88768 0.0345508 0
M  V30 1662 O 151.766 -1.56184 -0.944081 0
M  V30 1663 C 151.817 -2.76187 2.33244 0
M  V30 1664 O 151.538 -2.38436 3.67532 0
M  V30 1665 C 153.039 -3.7 2.44162 0
M  V30 1666 H 150.259 -0.460559 0.487982 0
M  V30 1667 H 152.803 -0.868261 1.85153 0
M  V30 1668 H 150.958 -3.34974 1.94606 0
M  V30 1669 H 151.372 -3.20126 4.15475 0
M  V30 1670 H 152.846 -4.55803 3.11364 0
M  V30 1671 H 153.323 -4.13867 1.47006 0
M  V30 1672 H 153.929 -3.17121 2.83398 0
M  V30 1673 N 152.244 -1.26651 -0.937939 0
M  V30 1674 C 153.176 -1.04283 -2.04102 0
M  V30 1675 C 154.189 -0.00221014 -1.628 0
M  V30 1676 O 155.378 -0.242645 -1.76843 0
M  V30 1677 C 152.478 -0.557846 -3.34277 0
M  V30 1678 C 151.651 -1.66843 -4.04329 0
M  V30 1679 C 150.71 -1.18095 -5.12777 0
M  V30 1680 O 149.736 -1.87865 -5.37304 0
M  V30 1681 N 150.938 -0.0311006 -5.80492 0
M  V30 1682 H 153.703 -1.9927 -2.23856 0
M  V30 1683 H 151.264 -1.1808 -1.10764 0
M  V30 1684 H 153.256 -0.215836 -4.04124 0
M  V30 1685 H 151.826 0.298523 -3.11171 0
M  V30 1686 H 151.046 -2.18123 -3.28353 0
M  V30 1687 H 152.334 -2.41408 -4.47883 0
M  V30 1688 H 151.732 0.551486 -5.63005 0
M  V30 1689 H 150.289 0.251809 -6.51313 0
M  V30 1690 N 153.722 1.14298 -1.08507 0
M  V30 1691 C 154.672 2.17449 -0.685569 0
M  V30 1692 C 155.656 1.58167 0.295315 0
M  V30 1693 O 156.848 1.76675 0.107172 0
M  V30 1694 C 153.977 3.43161 -0.0975318 0
M  V30 1695 C 153.063 4.09471 -1.10426 0
M  V30 1696 N 153.454 4.51089 -2.28806 0
M  V30 1697 C 151.752 4.35976 -0.940258 0
M  V30 1698 C 152.453 5.02654 -2.9277 0
M  V30 1699 N 151.429 4.96927 -2.20374 0
M  V30 1700 H 155.231 2.47369 -1.587 0
M  V30 1701 H 152.745 1.30992 -0.959936 0
M  V30 1702 H 154.742 4.16388 0.20664 0
M  V30 1703 H 153.402 3.14719 0.798872 0
M  V30 1704 H 154.413 4.44097 -2.66455 0
M  V30 1705 H 151.09 4.17386 -0.0977441 0
M  V30 1706 H 152.48 5.44723 -3.93352 0
M  V30 1707 N 155.201 0.870884 1.31352 0
M  V30 1708 C 156.134 0.271983 2.26573 0
M  V30 1709 C 157.112 -0.599385 1.51149 0
M  V30 1710 O 158.296 -0.552605 1.80218 0
M  V30 1711 C 155.423 -0.614801 3.33073 0
M  V30 1712 C 154.469 0.185342 4.26097 0
M  V30 1713 S 155.302 1.56444 5.12138 0
M  V30 1714 C 156.458 0.683807 6.22153 0
M  V30 1715 H 156.691 1.07916 2.77023 0
M  V30 1716 H 154.224 0.669459 1.39132 0
M  V30 1717 H 156.182 -1.12074 3.94905 0
M  V30 1718 H 154.843 -1.39593 2.81376 0
M  V30 1719 H 154.036 -0.490771 5.01605 0
M  V30 1720 H 153.638 0.623415 3.68768 0
M  V30 1721 H 155.93 -0.10521 6.77418 0
M  V30 1722 H 156.873 1.41004 6.93919 0
M  V30 1723 H 157.281 0.250952 5.63942 0
M  V30 1724 N 156.679 -1.44442 0.630414 0
M  V30 1725 C 157.925 -2.02351 0.134816 0
M  V30 1726 C 158.258 -1.4947 -1.23986 0
M  V30 1727 O 157.533 -0.678475 -1.82283 0
M  V30 1728 C 157.816 -3.59898 0.120707 0
M  V30 1729 C 157.669 -4.23063 1.52767 0
M  V30 1730 C 158.988 -4.36585 -0.555127 0
M  V30 1731 H 156.107 -0.73527 0.0504646 0
M  V30 1732 H 158.749 -1.72022 0.806751 0
M  V30 1733 H 156.899 -3.85868 -0.451477 0
M  V30 1734 H 158.571 -4.08202 2.14869 0
M  V30 1735 H 156.814 -3.80586 2.08175 0
M  V30 1736 H 157.485 -5.32071 1.46984 0
M  V30 1737 H 159.961 -4.16044 -0.0685429 0
M  V30 1738 H 158.837 -5.46294 -0.534185 0
M  V30 1739 H 159.098 -4.11138 -1.62535 0
M  V30 1740 N 158.157 -0.370918 -1.53173 0
M  V30 1741 C 159.385 0.217704 -2.05751 0
M  V30 1742 C 159.8 1.42018 -1.24404 0
M  V30 1743 O 159.157 1.80245 -0.286033 0
M  V30 1744 C 159.208 0.605954 -3.56385 0
M  V30 1745 O 158.929 -0.548734 -4.3465 0
M  V30 1746 C 160.43 1.2524 -4.25241 0
M  V30 1747 H 157.65 0.0371659 -0.66997 0
M  V30 1748 H 160.194 -0.530832 -1.9749 0
M  V30 1749 H 158.349 1.3044 -3.6478 0
M  V30 1750 H 158.763 -0.23376 -5.23979 0
M  V30 1751 H 160.237 1.47458 -5.3194 0
M  V30 1752 H 160.714 2.2143 -3.79296 0
M  V30 1753 H 161.32 0.595233 -4.21114 0
M  V30 1754 N 159.635 1.57281 -0.100228 0
M  V30 1755 C 160.583 2.15542 0.874328 0
M  V30 1756 C 161.577 1.09962 1.28859 0
M  V30 1757 O 162.783 1.28298 1.26252 0
M  V30 1758 H 159.158 0.689567 0.300003 0
M  V30 1759 H 161.129 2.96241 0.35829 0
M  V30 1760 C 159.878 2.75454 2.1218 0
M  V30 1761 H 159.201 3.56384 1.81193 0
M  V30 1762 H 160.641 3.19781 2.78417 0
M  V30 1763 C 159.1 1.71602 2.89921 0
M  V30 1764 O 159.63 1.15804 3.84646 0
M  V30 1765 N 157.836 1.41975 2.53558 0
M  V30 1766 H 157.383 1.87539 1.76598 0
M  V30 1767 H 157.341 0.727274 3.05873 0
M  V30 1768 N 161.113 -0.173488 1.56642 0
M  V30 1769 C 162.076 -1.19859 1.95362 0
M  V30 1770 C 163.076 -1.37296 0.83704 0
M  V30 1771 O 164.266 -1.34739 1.10413 0
M  V30 1772 C 161.398 -2.56405 2.24654 0
M  V30 1773 H 162.591 -0.867062 2.87092 0
M  V30 1774 H 160.144 -0.415853 1.50666 0
M  V30 1775 H 160.879 -2.94576 1.35631 0
M  V30 1776 H 160.664 -2.45115 3.06041 0
M  V30 1777 H 162.154 -3.30287 2.5554 0
M  V30 1778 N 162.591 -1.51276 -0.441967 0
M  V30 1779 C 163.816 -1.67799 -1.21895 0
M  V30 1780 C 164.241 -0.372864 -1.84367 0
M  V30 1781 O 163.599 0.666501 -1.68604 0
M  V30 1782 C 163.647 -2.79199 -2.28211 0
M  V30 1783 O 162.751 -2.42479 -3.33583 0
M  V30 1784 H 162.092 -0.559649 -0.357336 0
M  V30 1785 H 164.622 -1.97815 -0.522522 0
M  V30 1786 H 164.632 -3.03146 -2.73069 0
M  V30 1787 H 163.307 -3.73906 -1.82118 0
M  V30 1788 H 161.884 -2.29087 -2.94234 0
M  V30 1789 N 164.069 0.697108 -1.41344 0
M  V30 1790 C 165.032 1.79281 -1.42797 0
M  V30 1791 C 166.032 1.57607 -0.318837 0
M  V30 1792 O 167.222 1.64309 -0.578642 0
M  V30 1793 C 164.354 3.17632 -1.23785 0
M  V30 1794 H 165.547 1.79385 -2.40335 0
M  V30 1795 H 163.1 0.904582 -1.27464 0
M  V30 1796 H 163.835 3.23167 -0.270814 0
M  V30 1797 H 163.62 3.34765 -2.04144 0
M  V30 1798 H 165.11 3.97617 -1.27633 0
M  V30 1799 N 165.547 1.27147 0.931209 0
M  V30 1800 C 166.793 1.13446 1.68101 0
M  V30 1801 C 167.126 -0.319628 1.91552 0
M  V30 1802 O 166.401 -1.23407 1.50336 0
M  V30 1803 C 166.684 1.91482 3.0497 0
M  V30 1804 C 166.537 3.44855 2.88782 0
M  V30 1805 C 167.856 1.71651 4.05246 0
M  V30 1806 H 164.975 0.413498 0.610072 0
M  V30 1807 H 167.617 1.56261 1.08086 0
M  V30 1808 H 165.767 1.55095 3.56199 0
M  V30 1809 H 167.439 3.9105 2.44698 0
M  V30 1810 H 165.682 3.71373 2.24198 0
M  V30 1811 H 166.353 3.94694 3.85902 0
M  V30 1812 H 168.829 2.0337 3.63015 0
M  V30 1813 H 167.705 2.28651 4.99009 0
M  V30 1814 H 167.966 0.663555 4.37092 0
M  V30 1815 N 167.025 -1.13721 1.09112 0
M  V30 1816 C 168.436 -1.6648 0.845068 0
M  V30 1817 C 168.787 -1.85911 -0.62701 0
M  V30 1818 O 167.912 -1.57556 -1.48341 0
M  V30 1819 C 168.507 -3.02413 1.52748 0
M  V30 1820 C 167.066 -3.52176 1.32849 0
M  V30 1821 C 166.213 -2.27492 1.58564 0
M  V30 1822 H 169.164 -0.976872 1.25072 0
M  V30 1823 H 169.185 -3.68223 0.958752 0
M  V30 1824 H 168.697 -2.88238 2.59885 0
M  V30 1825 H 166.798 -3.7156 0.278137 0
M  V30 1826 H 166.911 -4.32499 2.0611 0
M  V30 1827 H 165.275 -2.33923 1.00758 0
M  V30 1828 H 166.058 -2.15886 2.66924 0
M  V30 1829 N 168.503 -0.877838 -1.30888 0
M  V30 1830 C 169.728 -0.506629 -2.01117 0
M  V30 1831 C 170.153 0.895564 -1.65412 0
M  V30 1832 O 169.511 1.5923 -0.866922 0
M  V30 1833 C 169.559 -0.680223 -3.54126 0
M  V30 1834 O 168.663 0.277033 -4.11468 0
M  V30 1835 H 168.004 -0.200518 -0.633 0
M  V30 1836 H 170.534 -1.18342 -1.66902 0
M  V30 1837 H 170.544 -0.5765 -4.03907 0
M  V30 1838 H 169.219 -1.70261 -3.79452 0
M  V30 1839 H 167.796 0.127606 -3.72682 0
M  V30 1840 N 169.982 1.44106 -0.638065 0
M  V30 1841 C 171.259 1.95453 -0.0759321 0
M  V30 1842 C 171.639 1.57984 1.40015 0
M  V30 1843 O 170.987 0.857361 2.11806 0
M  V30 1844 C 171.197 3.47655 -0.306132 0
M  V30 1845 C 172.545 4.24114 -0.203008 0
M  V30 1846 O 173.569 3.55405 -0.237871 0
M  V30 1847 O 172.428 5.46381 -0.113827 0
M  V30 1848 H 169.522 0.826797 0.0183332 0
M  V30 1849 H 172.068 1.54122 -0.710251 0
M  V30 1850 H 170.84 3.68 -1.3301 0
M  V30 1851 H 170.463 3.95949 0.361991 0
M  V30 1852 N 171.46 0.379036 1.52974 0
M  V30 1853 C 172.7 -0.206325 2.03356 0
M  V30 1854 C 173.064 -1.44892 1.25977 0
M  V30 1855 O 174.265 -2.11078 1.66432 0
M  V30 1856 C 172.536 -0.477887 3.54191 0
M  V30 1857 S 174.095 -1.035 4.26419 0
M  V30 1858 H 170.913 -0.0590259 0.708546 0
M  V30 1859 H 173.515 0.525013 1.88319 0
M  V30 1860 H 172.219 0.433745 4.08101 0
M  V30 1861 H 171.75 -1.23793 3.73415 0
M  V30 1862 H 173.765 -2.31821 4.38718 0
M  V30 1863 N 172.938 -1.57226 0.108567 0
M  V30 1864 C 174.349 -1.8195 -0.418464 0
M  V30 1865 C 174.7 -1.02508 -1.67292 0
M  V30 1866 O 173.825 -0.258496 -2.14851 0
M  V30 1867 C 174.42 -3.30028 -0.765979 0
M  V30 1868 C 172.979 -3.55469 -1.23769 0
M  V30 1869 C 172.126 -2.7625 -0.241106 0
M  V30 1870 H 175.077 -1.55149 0.33384 0
M  V30 1871 H 175.098 -3.44086 -1.62434 0
M  V30 1872 H 174.61 -3.87821 0.147219 0
M  V30 1873 H 172.711 -3.03022 -2.16814 0
M  V30 1874 H 172.824 -4.6408 -1.19022 0
M  V30 1875 H 171.188 -2.44133 -0.72602 0
M  V30 1876 H 171.971 -3.36797 0.665007 0
M  V30 1877 N 174.416 0.165178 -1.56732 0
M  V30 1878 C 175.641 0.900253 -1.86843 0
M  V30 1879 C 176.066 1.74766 -0.695596 0
M  V30 1880 O 175.424 1.77786 0.35522 0
M  V30 1881 C 175.472 1.74777 -3.15413 0
M  V30 1882 O 174.576 2.85007 -2.98068 0
M  V30 1883 H 173.917 0.251832 -0.614391 0
M  V30 1884 H 176.447 0.161468 -2.03962 0
M  V30 1885 H 176.457 2.14646 -3.46974 0
M  V30 1886 H 175.132 1.12537 -4.00385 0
M  V30 1887 H 173.709 2.48676 -2.77875 0
M  V30 1888 N 175.894 1.51508 0.433938 0
M  V30 1889 C 176.804 1.75917 1.5521 0
M  V30 1890 C 177.82 0.643545 1.61662 0
M  V30 1891 O 178.996 0.926183 1.7884 0
M  V30 1892 C 176.061 1.88213 2.91164 0
M  V30 1893 C 175.122 3.12074 2.94802 0
M  V30 1894 C 174.355 3.23774 4.24271 0
M  V30 1895 O 174.578 2.4133 5.16833 0
M  V30 1896 O 173.512 4.16774 4.34262 0
M  V30 1897 H 177.338 2.70777 1.37527 0
M  V30 1898 H 174.923 1.36051 0.617293 0
M  V30 1899 H 176.805 1.98267 3.71845 0
M  V30 1900 H 175.48 0.965413 3.08968 0
M  V30 1901 H 174.387 3.07497 2.13065 0
M  V30 1902 H 175.72 4.03446 2.81943 0
M  V30 1903 N 177.372 -0.689602 1.41712 0
M  V30 1904 C 178.649 -1.44457 1.31877 0
M  V30 1905 C 179.029 -2.11039 -0.0508537 0
M  V30 1906 O 178.377 -2.02138 -1.06547 0
M  V30 1907 C 178.587 -2.45913 2.47645 0
M  V30 1908 C 179.935 -3.10991 2.89084 0
M  V30 1909 O 180.959 -2.56238 2.47428 0
M  V30 1910 O 179.818 -4.10174 3.61137 0
M  V30 1911 H 176.912 -0.64362 0.519309 0
M  V30 1912 H 179.458 -0.719576 1.53689 0
M  V30 1913 H 178.23 -1.95409 3.39015 0
M  V30 1914 H 177.853 -3.25913 2.27742 0
M  V30 1915 N 178.85 -1.27639 -0.924453 0
M  V30 1916 C 179.797 -1.10644 -2.0255 0
M  V30 1917 C 180.767 -0.00658438 -1.66099 0
M  V30 1918 O 181.952 -0.16952 -1.90045 0
M  V30 1919 C 179.092 -0.76309 -3.36557 0
M  V30 1920 C 178.205 -1.94091 -3.85944 0
M  V30 1921 C 177.34 -1.53914 -5.08413 0
M  V30 1922 C 176.379 -2.68425 -5.50104 0
M  V30 1923 N 175.516 -2.28815 -6.63768 0
M  V30 1924 H 180.356 -2.04858 -2.16419 0
M  V30 1925 H 177.893 -1.01974 -1.06017 0
M  V30 1926 H 179.851 -0.544822 -4.13627 0
M  V30 1927 H 178.481 0.142102 -3.22487 0
M  V30 1928 H 177.533 -2.27162 -3.05125 0
M  V30 1929 H 178.845 -2.7998 -4.12811 0
M  V30 1930 H 177.999 -1.28231 -5.92994 0
M  V30 1931 H 176.738 -0.651391 -4.8333 0
M  V30 1932 H 175.743 -2.94819 -4.64071 0
M  V30 1933 H 176.968 -3.57826 -5.7718 0
M  V30 1934 H 174.914 -1.42495 -6.40337 0
M  V30 1935 H 174.831 -3.08242 -6.90306 0
M  V30 1936 H 176.099 -2.06387 -7.51681 0
M  V30 1937 N 180.328 1.1314 -1.09713 0
M  V30 1938 C 181.605 1.80762 -0.747302 0
M  V30 1939 C 181.985 1.96663 0.767265 0
M  V30 1940 O 181.333 1.53706 1.69076 0
M  V30 1941 C 181.543 3.15606 -1.48975 0
M  V30 1942 C 182.891 3.90914 -1.65746 0
M  V30 1943 O 183.915 3.25239 -1.45251 0
M  V30 1944 O 182.774 5.08718 -1.9967 0
M  V30 1945 H 179.868 0.782103 -0.268782 0
M  V30 1946 H 182.414 1.20041 -1.19951 0
M  V30 1947 H 181.186 2.99278 -2.52088 0
M  V30 1948 H 180.809 3.84029 -1.02991 0
M  V30 1949 N 181.806 0.884767 1.30421 0
M  V30 1950 C 182.736 0.367574 2.30589 0
M  V30 1951 C 183.717 -0.549464 1.60981 0
M  V30 1952 O 184.902 -0.46336 1.88591 0
M  V30 1953 C 182.032 -0.418944 3.44764 0
M  V30 1954 C 180.986 0.406316 4.26067 0
M  V30 1955 C 180.312 -0.506793 5.32293 0
M  V30 1956 C 181.612 1.64832 4.95608 0
M  V30 1957 H 183.306 1.20462 2.74097 0
M  V30 1958 H 180.852 0.580695 1.31772 0
M  V30 1959 H 182.805 -0.791395 4.13902 0
M  V30 1960 H 181.529 -1.28964 3.0006 0
M  V30 1961 H 180.188 0.760903 3.58617 0
M  V30 1962 H 179.836 -1.37519 4.83836 0
M  V30 1963 H 179.536 0.0415828 5.87585 0
M  V30 1964 H 181.06 -0.875764 6.04287 0
M  V30 1965 H 182.474 1.34646 5.57264 0
M  V30 1966 H 180.871 2.13688 5.60765 0
M  V30 1967 H 181.941 2.39284 4.21748 0
M  V30 1968 N 183.284 -1.43765 0.645699 0
M  V30 1969 C 184.214 -2.33471 -0.0370477 0
M  V30 1970 C 185.195 -1.49042 -0.819779 0
M  V30 1971 O 186.38 -1.77726 -0.782758 0
M  V30 1972 C 183.51 -3.32311 -1.0093 0
M  V30 1973 C 182.464 -4.2667 -0.337201 0
M  V30 1974 C 181.79 -5.1549 -1.42037 0
M  V30 1975 C 183.09 -5.16657 0.765706 0
M  V30 1976 H 184.784 -2.90809 0.712069 0
M  V30 1977 H 182.33 -1.39834 0.343876 0
M  V30 1978 H 184.283 -3.9396 -1.49578 0
M  V30 1979 H 183.007 -2.73213 -1.78948 0
M  V30 1980 H 181.666 -3.66374 0.128771 0
M  V30 1981 H 181.314 -4.52735 -2.1918 0
M  V30 1982 H 181.014 -5.79438 -0.975966 0
M  V30 1983 H 182.538 -5.80012 -1.90838 0
M  V30 1984 H 183.952 -5.72158 0.361702 0
M  V30 1985 H 182.349 -5.89286 1.13413 0
M  V30 1986 H 183.419 -4.56796 1.62683 0
M  V30 1987 N 184.763 -0.387143 -1.52771 0
M  V30 1988 C 185.711 0.463953 -2.27926 0
M  V30 1989 C 186.705 1.06493 -1.31741 0
M  V30 1990 O 187.911 1.00565 -1.49287 0
M  V30 1991 H 184.286 0.16837 -0.732909 0
M  V30 1992 H 186.257 -0.19141 -2.97785 0
M  V30 1993 C 185.006 1.5803 -3.09713 0
M  V30 1994 H 184.329 1.12718 -3.83581 0
M  V30 1995 H 185.769 2.15008 -3.65442 0
M  V30 1996 C 184.228 2.53509 -2.2189 0
M  V30 1997 O 184.758 3.56863 -1.84422 0
M  V30 1998 N 182.964 2.23199 -1.86093 0
M  V30 1999 H 182.511 1.39185 -2.16761 0
M  V30 2000 H 182.469 2.87333 -1.27621 0
M  V30 2001 N 186.241 1.57166 -0.116904 0
M  V30 2002 C 187.151 2.18745 0.847812 0
M  V30 2003 C 188.167 1.163 1.29423 0
M  V30 2004 O 189.343 1.48761 1.35765 0
M  V30 2005 C 186.408 2.77307 2.0809 0
M  V30 2006 C 185.469 3.94781 1.68661 0
M  V30 2007 C 184.702 4.50541 2.86091 0
M  V30 2008 O 184.925 4.05202 4.01456 0
M  V30 2009 O 183.859 5.41256 2.63298 0
M  V30 2010 H 187.685 3.01632 0.353778 0
M  V30 2011 H 185.27 1.49005 0.108599 0
M  V30 2012 H 187.152 3.14647 2.80313 0
M  V30 2013 H 185.827 1.97452 2.56504 0
M  V30 2014 H 184.734 3.62214 0.935518 0
M  V30 2015 H 186.067 4.76065 1.24991 0
M  V30 2016 N 187.719 -0.156864 1.56817 0
M  V30 2017 C 188.667 -1.21319 1.98455 0
M  V30 2018 C 189.661 -1.45025 0.875444 0
M  V30 2019 O 190.867 -1.45435 1.0606 0
M  V30 2020 H 187.242 -0.408142 0.631605 0
M  V30 2021 H 189.213 -0.835244 2.86472 0
M  V30 2022 C 187.962 -2.54148 2.37285 0
M  V30 2023 H 187.285 -2.36733 3.22176 0
M  V30 2024 H 188.725 -3.26712 2.70251 0
M  V30 2025 C 187.184 -3.13967 1.22173 0
M  V30 2026 O 187.714 -3.98357 0.517149 0
M  V30 2027 N 185.92 -2.7327 0.988536 0
M  V30 2028 H 185.467 -2.04744 1.56326 0
M  V30 2029 H 185.425 -3.13628 0.220209 0
M  V30 2030 N 189.197 -1.51736 -0.425897 0
M  V30 2031 C 190.443 -1.65214 -1.1761 0
M  V30 2032 C 190.776 -0.372778 -1.90589 0
M  V30 2033 O 190.051 0.628139 -1.84078 0
M  V30 2034 C 190.334 -2.86312 -2.18398 0
M  V30 2035 C 190.187 -4.24254 -1.49426 0
M  V30 2036 C 191.506 -3.02925 -3.19256 0
M  V30 2037 H 188.625 -0.601263 -0.426206 0
M  V30 2038 H 191.267 -1.8425 -0.463882 0
M  V30 2039 H 189.417 -2.70213 -2.79137 0
M  V30 2040 H 191.089 -4.52046 -0.919362 0
M  V30 2041 H 189.332 -4.26426 -0.796432 0
M  V30 2042 H 190.003 -5.05001 -2.22885 0
M  V30 2043 H 192.479 -3.1781 -2.68581 0
M  V30 2044 H 191.355 -3.89199 -3.8706 0
M  V30 2045 H 191.616 -2.15497 -3.86023 0
M  V30 2046 N 190.675 0.682077 -1.42076 0
M  V30 2047 C 191.607 1.80755 -1.40926 0
M  V30 2048 C 192.62 1.59833 -0.309398 0
M  V30 2049 O 193.809 1.69087 -0.572014 0
M  V30 2050 C 190.909 3.17744 -1.17865 0
M  V30 2051 C 190.082 3.65578 -2.40149 0
M  V30 2052 C 189.141 4.81277 -2.12742 0
M  V30 2053 O 188.167 4.92197 -2.85887 0
M  V30 2054 N 189.369 5.69474 -1.12602 0
M  V30 2055 H 192.134 1.82229 -2.37935 0
M  V30 2056 H 189.695 0.864903 -1.36861 0
M  V30 2057 H 191.687 3.9279 -0.9746 0
M  V30 2058 H 190.257 3.11214 -0.294068 0
M  V30 2059 H 189.477 2.81291 -2.76169 0
M  V30 2060 H 190.765 3.94278 -3.21593 0
M  V30 2061 H 190.163 5.63297 -0.520899 0
M  V30 2062 H 188.72 6.44363 -0.981842 0
M  V30 2063 N 192.153 1.28127 0.917671 0
M  V30 2064 C 193.399 1.15223 1.66888 0
M  V30 2065 C 193.732 -0.299293 1.9188 0
M  V30 2066 O 193.007 -1.21805 1.51637 0
M  V30 2067 C 193.29 1.94706 3.02922 0
M  V30 2068 C 193.143 3.47898 2.85109 0
M  V30 2069 C 194.462 1.75939 4.03402 0
M  V30 2070 H 191.581 0.419946 0.605652 0
M  V30 2071 H 194.223 1.57398 1.06423 0
M  V30 2072 H 192.373 1.58864 3.54534 0
M  V30 2073 H 194.045 3.93624 2.40537 0
M  V30 2074 H 192.288 3.7373 2.20246 0
M  V30 2075 H 192.959 3.98765 3.81694 0
M  V30 2076 H 195.435 2.07209 3.60837 0
M  V30 2077 H 194.311 2.33931 4.96556 0
M  V30 2078 H 194.572 0.709877 4.36364 0
M  V30 2079 N 193.631 -1.12557 1.10312 0
M  V30 2080 C 194.879 -1.83675 0.843091 0
M  V30 2081 C 195.2 -1.84435 -0.633131 0
M  V30 2082 O 194.47 -1.30657 -1.45964 0
M  V30 2083 H 193.05 -0.680138 0.308904 0
M  V30 2084 H 195.712 -1.36301 1.39313 0
M  V30 2085 H 194.808 -2.87908 1.2048 0
M  V30 2086 N 195.109 -0.891671 -1.2995 0
M  V30 2087 C 196.039 -0.379797 -2.30391 0
M  V30 2088 C 197.02 0.540919 -1.6127 0
M  V30 2089 O 198.205 0.453352 -1.88834 0
M  V30 2090 C 195.335 0.400654 -3.44981 0
M  V30 2091 C 194.289 -0.428905 -4.25846 0
M  V30 2092 C 193.615 0.478557 -5.32554 0
M  V30 2093 C 194.915 -1.67458 -4.94727 0
M  V30 2094 H 196.609 -1.21914 -2.73454 0
M  V30 2095 H 194.155 -0.587675 -1.31462 0
M  V30 2096 H 196.108 0.769434 -4.14316 0
M  V30 2097 H 194.832 1.27371 -3.0074 0
M  V30 2098 H 193.491 -0.779911 -3.58208 0
M  V30 2099 H 193.139 1.34951 -4.84559 0
M  V30 2100 H 192.839 -0.0727433 -5.87555 0
M  V30 2101 H 194.363 0.843705 -6.04743 0
M  V30 2102 H 195.777 -1.376 -5.56542 0
M  V30 2103 H 194.174 -2.16659 -5.59624 0
M  V30 2104 H 195.244 -2.41518 -4.20473 0
M  V30 2105 N 196.587 1.43421 -0.653314 0
M  V30 2106 C 197.517 2.33487 0.0246656 0
M  V30 2107 C 198.498 1.49475 0.811863 0
M  V30 2108 O 199.683 1.78139 0.773322 0
M  V30 2109 C 196.813 3.32841 0.99166 0
M  V30 2110 C 195.767 4.26842 0.314568 0
M  V30 2111 C 195.093 5.16236 1.39302 0
M  V30 2112 C 196.393 5.16243 -0.793095 0
M  V30 2113 H 198.087 2.90427 -0.727481 0
M  V30 2114 H 195.633 1.39649 -0.351287 0
M  V30 2115 H 197.586 3.94747 1.47487 0
M  V30 2116 H 196.31 2.74158 1.77497 0
M  V30 2117 H 194.969 3.663 -0.148199 0
M  V30 2118 H 194.617 4.53891 2.16776 0
M  V30 2119 H 194.317 5.79948 0.945223 0
M  V30 2120 H 195.841 5.81015 1.87759 0
M  V30 2121 H 197.255 5.71958 -0.392039 0
M  V30 2122 H 195.652 5.88676 -1.16536 0
M  V30 2123 H 196.722 4.55927 -1.65103 0
M  V30 2124 N 198.065 0.39524 1.52563 0
M  V30 2125 C 199.312 -0.185044 2.01653 0
M  V30 2126 C 199.64 -1.46317 1.28146 0
M  V30 2127 O 198.895 -1.9213 0.372074 0
M  V30 2128 C 199.194 -0.493444 3.53977 0
M  V30 2129 C 198.86 0.69384 4.4553 0
M  V30 2130 C 197.522 1.01954 4.70275 0
M  V30 2131 C 199.874 1.48785 4.99512 0
M  V30 2132 C 197.202 2.14069 5.46252 0
M  V30 2133 C 199.554 2.59965 5.76716 0
M  V30 2134 C 198.218 2.93037 5.99738 0
M  V30 2135 H 197.488 -0.0677123 0.7379 0
M  V30 2136 H 200.135 0.533807 1.8391 0
M  V30 2137 H 198.44 -1.29369 3.69825 0
M  V30 2138 H 200.137 -0.955163 3.89458 0
M  V30 2139 H 196.727 0.429987 4.26438 0
M  V30 2140 H 200.911 1.24946 4.80315 0
M  V30 2141 H 196.167 2.40056 5.62302 0
M  V30 2142 H 200.341 3.21887 6.17545 0
M  V30 2143 H 197.968 3.8003 6.58393 0
M  V30 2144 N 199.544 -1.57102 0.125237 0
M  V30 2145 C 200.507 -2.14471 -0.80838 0
M  V30 2146 C 201.507 -1.0811 -1.19033 0
M  V30 2147 O 202.697 -1.33856 -1.11482 0
M  V30 2148 C 199.829 -2.69005 -2.09402 0
M  V30 2149 H 201.022 -2.98297 -0.309696 0
M  V30 2150 H 198.575 -1.55807 -0.124051 0
M  V30 2151 H 199.31 -1.88785 -2.63687 0
M  V30 2152 H 199.095 -3.46799 -1.82957 0
M  V30 2153 H 200.585 -3.13278 -2.76128 0
M  V30 2154 N 201.022 0.148545 -1.56898 0
M  V30 2155 C 202.247 0.880385 -1.87787 0
M  V30 2156 C 202.672 1.74018 -0.714093 0
M  V30 2157 O 202.03 1.78153 0.336343 0
M  V30 2158 C 202.078 1.71422 -3.17249 0
M  V30 2159 O 201.182 2.8183 -3.01074 0
M  V30 2160 H 200.523 0.245301 -0.617028 0
M  V30 2161 H 203.053 0.139826 -2.04122 0
M  V30 2162 H 203.063 2.10954 -3.49231 0
M  V30 2163 H 201.738 1.08284 -4.01556 0
M  V30 2164 H 200.315 2.45715 -2.80497 0
M  V30 2165 N 202.5 1.5196 0.417844 0
M  V30 2166 C 203.447 1.74678 1.50852 0
M  V30 2167 C 204.417 0.588947 1.55308 0
M  V30 2168 O 205.602 0.825544 1.72016 0
M  V30 2169 C 202.742 1.89544 2.88387 0
M  V30 2170 C 201.855 3.17166 2.93309 0
M  V30 2171 C 200.99 3.22513 4.22088 0
M  V30 2172 C 200.029 4.44372 4.20951 0
M  V30 2173 N 199.166 4.47161 5.41287 0
M  V30 2174 H 204.006 2.67768 1.30783 0
M  V30 2175 H 201.543 1.32689 0.63498 0
M  V30 2176 H 203.501 1.96146 3.68216 0
M  V30 2177 H 202.131 0.998424 3.06971 0
M  V30 2178 H 201.183 3.19778 2.06024 0
M  V30 2179 H 202.495 4.07021 2.88332 0
M  V30 2180 H 201.649 3.28139 5.10303 0
M  V30 2181 H 200.388 2.30581 4.29748 0
M  V30 2182 H 199.393 4.38902 3.31127 0
M  V30 2183 H 200.618 5.3759 4.14938 0
M  V30 2184 H 198.564 3.58108 5.49632 0
M  V30 2185 H 198.481 5.3085 5.3827 0
M  V30 2186 H 199.749 4.57005 6.3148 0
M  V30 2187 N 203.978 -0.674533 1.42435 0
M  V30 2188 C 204.941 -1.76986 1.45632 0
M  V30 2189 C 205.941 -1.5708 0.343871 0
M  V30 2190 O 207.131 -1.63367 0.604709 0
M  V30 2191 C 204.263 -3.15623 1.28822 0
M  V30 2192 H 205.456 -1.75539 2.43158 0
M  V30 2193 H 203.009 -0.884189 1.28887 0
M  V30 2194 H 203.744 -3.22696 0.322193 0
M  V30 2195 H 203.529 -3.31475 2.09444 0
M  V30 2196 H 205.019 -3.95537 1.33942 0
M  V30 2197 N 205.456 -1.28612 -0.910864 0
M  V30 2198 C 206.684 -1.18792 -1.69399 0
M  V30 2199 C 207.099 0.253039 -1.87097 0
M  V30 2200 O 206.456 1.17071 -1.40003 0
M  V30 2201 C 206.507 -1.88511 -3.08457 0
M  V30 2202 O 206.228 -3.26979 -2.91576 0
M  V30 2203 C 207.729 -1.85029 -4.02839 0
M  V30 2204 H 204.949 -0.412233 -0.529438 0
M  V30 2205 H 207.493 -1.69788 -1.13984 0
M  V30 2206 H 205.648 -1.41379 -3.60681 0
M  V30 2207 H 206.062 -3.61936 -3.79608 0
M  V30 2208 H 207.536 -2.38395 -4.97867 0
M  V30 2209 H 208.013 -0.823303 -4.31414 0
M  V30 2210 H 208.619 -2.31853 -3.56545 0
M  V30 2211 N 206.934 1.1197 -1.10907 0
M  V30 2212 C 208.18 1.8386 -0.855773 0
M  V30 2213 C 208.513 1.84134 0.617103 0
M  V30 2214 O 207.788 1.29041 1.45529 0
M  V30 2215 C 208.071 3.31305 -1.411 0
M  V30 2216 C 207.924 3.39456 -2.9511 0
M  V30 2217 C 209.243 4.2721 -1.05736 0
M  V30 2218 H 206.362 0.667545 -0.312334 0
M  V30 2219 H 209.004 1.31331 -1.37303 0
M  V30 2220 H 207.154 3.76169 -0.97105 0
M  V30 2221 H 208.826 3.03191 -3.47668 0
M  V30 2222 H 207.069 2.79849 -3.31462 0
M  V30 2223 H 207.74 4.43209 -3.29044 0
M  V30 2224 H 210.216 3.90497 -1.43706 0
M  V30 2225 H 209.092 5.28775 -1.47269 0
M  V30 2226 H 209.353 4.42088 0.0325958 0
M  V30 2227 N 208.412 0.89855 1.29475 0
M  V30 2228 C 209.344 0.332726 2.26772 0
M  V30 2229 C 210.357 -0.520323 1.54261 0
M  V30 2230 O 211.546 -0.337668 1.75277 0
M  V30 2231 C 208.646 -0.544334 3.345 0
M  V30 2232 C 207.819 0.282728 4.36485 0
M  V30 2233 C 206.878 -0.526982 5.23555 0
M  V30 2234 O 205.904 0.0551165 5.69173 0
M  V30 2235 N 207.106 -1.83331 5.5079 0
M  V30 2236 H 209.871 1.16897 2.75962 0
M  V30 2237 H 207.432 0.762919 1.42798 0
M  V30 2238 H 209.424 -1.09239 3.89678 0
M  V30 2239 H 207.994 -1.28127 2.85136 0
M  V30 2240 H 207.214 1.01221 3.80983 0
M  V30 2241 H 208.502 0.84918 5.01664 0
M  V30 2242 H 207.9 -2.32898 5.15534 0
M  V30 2243 H 206.457 -2.32852 6.08788 0
M  V30 2244 N 209.89 -1.43072 0.660911 0
M  V30 2245 C 210.82 -2.33497 -0.0122829 0
M  V30 2246 C 211.801 -1.49903 -0.803925 0
M  V30 2247 O 212.986 -1.78546 -0.763864 0
M  V30 2248 C 210.116 -3.33363 -0.973994 0
M  V30 2249 C 209.07 -4.27003 -0.291928 0
M  V30 2250 C 208.396 -5.16967 -1.36562 0
M  V30 2251 C 209.696 -5.15816 0.820462 0
M  V30 2252 H 211.39 -2.90038 0.742873 0
M  V30 2253 H 208.936 -1.39461 0.358688 0
M  V30 2254 H 210.889 -3.95524 -1.45392 0
M  V30 2255 H 209.613 -2.75095 -1.7604 0
M  V30 2256 H 208.272 -3.66217 0.167623 0
M  V30 2257 H 207.92 -4.55034 -2.14366 0
M  V30 2258 H 207.62 -5.80441 -0.914454 0
M  V30 2259 H 209.144 -5.82003 -1.84675 0
M  V30 2260 H 210.558 -5.71742 0.422366 0
M  V30 2261 H 208.955 -5.8805 1.19656 0
M  V30 2262 H 210.025 -4.55045 1.67518 0
M  V30 2263 N 211.368 -0.403325 -1.52352 0
M  V30 2264 C 212.617 0.175668 -2.00934 0
M  V30 2265 C 212.93 1.46718 -1.29356 0
M  V30 2266 O 214.136 2.12708 -1.68724 0
M  V30 2267 C 212.592 0.363612 -3.58058 0
M  V30 2268 C 212.2 -0.915472 -4.38547 0
M  V30 2269 C 213.944 0.89821 -4.14888 0
M  V30 2270 C 211.851 -0.695035 -5.87302 0
M  V30 2271 H 210.781 0.0694234 -0.750797 0
M  V30 2272 H 213.432 -0.527879 -1.75743 0
M  V30 2273 H 211.814 1.12935 -3.79555 0
M  V30 2274 H 212.988 -1.68691 -4.28812 0
M  V30 2275 H 211.303 -1.37606 -3.93006 0
M  V30 2276 H 213.9 1.07907 -5.23699 0
M  V30 2277 H 214.243 1.87126 -3.71873 0
M  V30 2278 H 214.776 0.191681 -3.97338 0
M  V30 2279 H 211.515 -1.63948 -6.34666 0
M  V30 2280 H 211.035 0.0372116 -5.99788 0
M  V30 2281 H 212.714 -0.33497 -6.46132 0
M  V30 2282 N 212.846 1.57033 -0.133567 0
M  V30 2283 C 214.074 2.00044 0.528195 0
M  V30 2284 C 214.489 1.01349 1.59291 0
M  V30 2285 O 213.846 0.00848369 1.82498 0
M  V30 2286 C 213.897 3.43018 1.1411 0
M  V30 2287 O 213.618 4.37939 0.11892 0
M  V30 2288 C 215.119 4.01237 1.88477 0
M  V30 2289 H 212.339 0.656517 0.138661 0
M  V30 2290 H 214.883 2.03267 -0.224196 0
M  V30 2291 H 213.038 3.40688 1.84418 0
M  V30 2292 H 213.452 5.21436 0.56613 0
M  V30 2293 H 214.926 5.03314 2.26669 0
M  V30 2294 H 215.403 3.41193 2.76558 0
M  V30 2295 H 216.009 4.07156 1.22898 0
M  V30 2296 N 214.325 -0.140222 1.56975 0
M  V30 2297 C 215.273 -1.19207 1.99731 0
M  V30 2298 C 216.267 -1.44089 0.890777 0
M  V30 2299 O 217.473 -1.44301 1.07597 0
M  V30 2300 H 213.848 -0.40142 0.635898 0
M  V30 2301 H 215.819 -0.804813 2.87342 0
M  V30 2302 C 214.568 -2.51617 2.39967 0
M  V30 2303 H 213.891 -2.33303 3.24669 0
M  V30 2304 H 215.331 -3.23827 2.73701 0
M  V30 2305 C 213.79 -3.12654 1.25496 0
M  V30 2306 O 214.32 -3.97786 0.559371 0
M  V30 2307 N 212.526 -2.72206 1.01746 0
M  V30 2308 H 212.073 -2.03074 1.58489 0
M  V30 2309 H 212.031 -3.13377 0.253461 0
M  V30 2310 N 215.803 -1.52179 -0.40978 0
M  V30 2311 C 217.214 -1.58377 -0.988615 0
M  V30 2312 C 217.565 -0.423879 -1.91566 0
M  V30 2313 O 216.69 0.455844 -2.11544 0
M  V30 2314 C 217.285 -2.87044 -1.79976 0
M  V30 2315 C 215.844 -2.95722 -2.32863 0
M  V30 2316 C 214.991 -2.53309 -1.12828 0
M  V30 2317 H 217.942 -1.57558 -0.190039 0
M  V30 2318 H 217.963 -2.7236 -2.65707 0
M  V30 2319 H 217.475 -3.71444 -1.12478 0
M  V30 2320 H 215.576 -2.15814 -3.03735 0
M  V30 2321 H 215.689 -3.99951 -2.63773 0
M  V30 2322 H 214.053 -2.07142 -1.48204 0
M  V30 2323 H 214.836 -3.40082 -0.46897 0
M  V30 2324 N 217.281 0.66697 -1.42791 0
M  V30 2325 C 218.528 1.42699 -1.43678 0
M  V30 2326 C 218.856 1.94419 -0.0560425 0
M  V30 2327 O 218.111 1.7182 0.936831 0
M  V30 2328 C 218.41 2.6349 -2.4147 0
M  V30 2329 C 218.076 2.30267 -3.8767 0
M  V30 2330 C 216.738 2.20918 -4.27491 0
M  V30 2331 C 219.09 2.03435 -4.79858 0
M  V30 2332 C 216.418 1.82873 -5.57471 0
M  V30 2333 C 218.77 1.66892 -6.10188 0
M  V30 2334 C 217.434 1.56058 -6.49001 0
M  V30 2335 H 216.704 0.522171 -0.525755 0
M  V30 2336 H 219.351 0.759785 -1.75783 0
M  V30 2337 H 217.656 3.35279 -2.0272 0
M  V30 2338 H 219.353 3.21684 -2.39417 0
M  V30 2339 H 215.943 2.38449 -3.56146 0
M  V30 2340 H 220.127 2.09586 -4.49875 0
M  V30 2341 H 215.383 1.7306 -5.86396 0
M  V30 2342 H 219.557 1.45157 -6.81104 0
M  V30 2343 H 217.184 1.26348 -7.49627 0
M  V30 2344 N 218.759 1.29093 0.90403 0
M  V30 2345 C 220.008 1.16187 1.64874 0
M  V30 2346 C 220.321 -0.286742 1.93487 0
M  V30 2347 O 221.527 -0.537062 2.66135 0
M  V30 2348 C 219.983 2.03177 2.97064 0
M  V30 2349 C 219.591 3.52836 2.76062 0
M  V30 2350 C 221.335 1.98984 3.74974 0
M  V30 2351 C 219.242 4.31945 4.03952 0
M  V30 2352 H 218.172 0.431246 0.618501 0
M  V30 2353 H 220.823 1.53699 1.00243 0
M  V30 2354 H 219.205 1.5853 3.62883 0
M  V30 2355 H 220.379 4.05507 2.18863 0
M  V30 2356 H 218.694 3.58656 2.11553 0
M  V30 2357 H 221.291 2.55351 4.69787 0
M  V30 2358 H 221.634 0.968815 4.0487 0
M  V30 2359 H 222.167 2.41652 3.15989 0
M  V30 2360 H 218.906 5.34667 3.79225 0
M  V30 2361 H 218.426 3.84045 4.60727 0
M  V30 2362 H 220.105 4.42379 4.72133 0
M  V30 2363 N 220.237 -1.11381 1.11499 0
M  V30 2364 C 221.485 -1.8277 0.862524 0
M  V30 2365 C 221.806 -1.85097 -0.613534 0
M  V30 2366 O 221.076 -1.32198 -1.4457 0
M  V30 2367 H 219.656 -0.676823 0.316101 0
M  V30 2368 H 222.318 -1.34816 1.4075 0
M  V30 2369 H 221.414 -2.86614 1.23527 0
M  V30 2370 N 221.715 -0.905404 -1.28997 0
M  V30 2371 C 222.645 -0.404212 -2.29975 0
M  V30 2372 C 223.626 0.523784 -1.61835 0
M  V30 2373 O 224.811 0.433298 -1.89304 0
M  V30 2374 C 221.941 0.364042 -3.45387 0
M  V30 2375 C 220.895 -0.474048 -4.25367 0
M  V30 2376 C 220.221 0.422045 -5.33032 0
M  V30 2377 C 221.521 -1.72696 -4.92923 0
M  V30 2378 H 223.215 -1.24807 -2.72146 0
M  V30 2379 H 220.761 -0.601585 -1.30832 0
M  V30 2380 H 222.714 0.725447 -4.15109 0
M  V30 2381 H 221.438 1.24174 -3.02074 0
M  V30 2382 H 220.097 -0.81786 -3.57361 0
M  V30 2383 H 219.745 1.29804 -4.85963 0
M  V30 2384 H 219.445 -0.135057 -5.87445 0
M  V30 2385 H 220.969 0.779517 -6.05604 0
M  V30 2386 H 222.383 -1.43495 -5.55051 0
M  V30 2387 H 220.78 -2.22582 -5.57295 0
M  V30 2388 H 221.85 -2.45964 -4.17887 0
M  V30 2389 N 223.193 1.4272 -0.668489 0
M  V30 2390 C 224.123 2.335 -0.000100175 0
M  V30 2391 C 225.104 1.50328 0.795964 0
M  V30 2392 O 226.289 1.78949 0.754385 0
M  V30 2393 C 223.419 3.33874 0.956302 0
M  V30 2394 C 222.373 4.27152 0.269278 0
M  V30 2395 C 221.699 5.17684 1.33818 0
M  V30 2396 C 222.999 5.15373 -0.847805 0
M  V30 2397 H 224.693 2.89639 -0.758244 0
M  V30 2398 H 222.239 1.39269 -0.366079 0
M  V30 2399 H 224.192 3.9629 1.43292 0
M  V30 2400 H 222.916 2.76025 1.74579 0
M  V30 2401 H 221.575 3.66123 -0.187042 0
M  V30 2402 H 221.223 4.56165 2.1195 0
M  V30 2403 H 220.923 5.80918 0.883659 0
M  V30 2404 H 222.447 5.82974 1.81586 0
M  V30 2405 H 223.861 5.7151 -0.452681 0
M  V30 2406 H 222.258 5.87407 -1.22773 0
M  V30 2407 H 223.328 4.5415 -1.69929 0
M  V30 2408 N 224.671 0.411399 1.52136 0
M  V30 2409 C 225.899 -0.163076 2.06256 0
M  V30 2410 C 226.314 -1.3867 1.28125 0
M  V30 2411 O 225.671 -1.79423 0.333721 0
M  V30 2412 C 225.722 -0.511252 3.57867 0
M  V30 2413 O 225.443 0.66378 4.33042 0
M  V30 2414 C 226.944 -1.13921 4.28412 0
M  V30 2415 H 224.164 -0.0193897 0.67072 0
M  V30 2416 H 226.708 0.583007 1.96013 0
M  V30 2417 H 224.863 -1.20723 3.6811 0
M  V30 2418 H 225.277 0.372601 5.23175 0
M  V30 2419 H 226.751 -1.33302 5.35663 0
M  V30 2420 H 227.228 -2.11296 3.85033 0
M  V30 2421 H 227.834 -0.483373 4.22544 0
M  V30 2422 N 226.149 -1.5696 0.141893 0
M  V30 2423 C 227.097 -2.17784 -0.816874 0
M  V30 2424 C 228.091 -1.1334 -1.25899 0
M  V30 2425 O 229.297 -1.316 -1.22806 0
M  V30 2426 H 225.672 -0.697278 -0.281615 0
M  V30 2427 H 227.643 -2.97087 -0.279621 0
M  V30 2428 C 226.392 -2.80983 -2.04802 0
M  V30 2429 H 225.715 -3.61062 -1.7168 0
M  V30 2430 H 227.155 -3.2705 -2.69841 0
M  V30 2431 C 225.614 -1.79228 -2.8527 0
M  V30 2432 O 226.144 -1.25962 -3.8144 0
M  V30 2433 N 224.35 -1.48647 -2.49704 0
M  V30 2434 H 223.897 -1.92155 -1.71564 0
M  V30 2435 H 223.855 -0.808115 -3.03837 0
M  V30 2436 N 227.627 0.131896 -1.57047 0
M  V30 2437 C 229.043 0.485031 -1.52051 0
M  V30 2438 C 229.243 1.82563 -0.85281 0
M  V30 2439 O 228.299 2.48817 -0.429694 0
M  V30 2440 C 229.612 0.481409 -2.96821 0
M  V30 2441 C 231.16 0.565868 -3.07842 0
M  V30 2442 C 231.635 0.592762 -4.54148 0
M  V30 2443 N 233.126 0.654564 -4.58552 0
M  V30 2444 C 233.861 0.696608 -5.69153 0
M  V30 2445 N 233.357 0.697078 -6.89284 0
M  V30 2446 N 235.15 0.738639 -5.57226 0
M  V30 2447 H 227.301 -0.746664 -1.98843 0
M  V30 2448 H 229.564 -0.273999 -0.90754 0
M  V30 2449 H 229.27 -0.435731 -3.4899 0
M  V30 2450 H 229.144 1.3139 -3.53577 0
M  V30 2451 H 231.531 1.47343 -2.55684 0
M  V30 2452 H 231.612 -0.29406 -2.54104 0
M  V30 2453 H 231.256 -0.310701 -5.06949 0
M  V30 2454 H 231.186 1.46939 -5.05684 0
M  V30 2455 H 233.677 0.660887 -3.72076 0
M  V30 2456 H 233.99 0.731426 -7.69331 0
M  V30 2457 H 232.335 0.66471 -6.91814 0
M  V30 2458 H 235.526 0.735545 -4.62285 0
M  V30 2459 H 235.699 0.767938 -6.43434 0
M  V30 2460 N 229.106 1.52395 0.401703 0
M  V30 2461 C 230.355 1.66044 1.14509 0
M  V30 2462 C 230.668 0.400216 1.91462 0
M  V30 2463 O 231.874 0.416632 2.68284 0
M  V30 2464 C 230.33 2.93388 2.0845 0
M  V30 2465 C 229.938 4.26545 1.36978 0
M  V30 2466 C 231.682 3.16402 2.83001 0
M  V30 2467 C 229.589 5.45007 2.29611 0
M  V30 2468 H 228.519 0.618562 0.431158 0
M  V30 2469 H 231.17 1.78886 0.40892 0
M  V30 2470 H 229.552 2.74263 2.8565 0
M  V30 2471 H 230.726 4.56179 0.650916 0
M  V30 2472 H 229.041 4.09692 0.74438 0
M  V30 2473 H 231.638 4.02085 3.52465 0
M  V30 2474 H 231.981 2.30943 3.46368 0
M  V30 2475 H 232.514 3.36034 2.12898 0
M  V30 2476 H 229.253 6.32835 1.70879 0
M  V30 2477 H 228.773 5.19702 2.9945 0
M  V30 2478 H 230.452 5.7838 2.89974 0
M  V30 2479 N 230.584 -0.659388 1.43143 0
M  V30 2480 C 231.832 -1.41654 1.44147 0
M  V30 2481 C 232.153 -1.94893 0.0645739 0
M  V30 2482 O 231.423 -1.74044 -0.899198 0
M  V30 2483 H 230.003 -0.525708 0.530697 0
M  V30 2484 H 232.665 -0.778097 1.78694 0
M  V30 2485 H 231.761 -2.26195 2.1504 0
M  V30 2486 N 232.062 -1.29571 -0.897171 0
M  V30 2487 C 233.292 -1.20408 -1.67886 0
M  V30 2488 C 233.7 0.237429 -1.87704 0
M  V30 2489 O 233.043 1.17048 -1.41582 0
M  V30 2490 C 233.105 -1.84887 -3.08314 0
M  V30 2491 C 232.769 -3.34189 -3.11716 0
M  V30 2492 C 233.766 -4.30374 -2.91675 0
M  V30 2493 C 231.451 -3.75431 -3.33701 0
M  V30 2494 C 233.445 -5.65776 -2.93557 0
M  V30 2495 C 231.132 -5.10955 -3.35214 0
M  V30 2496 C 232.13 -6.05938 -3.15164 0
M  V30 2497 O 231.818 -7.38987 -3.1647 0
M  V30 2498 H 231.55 -0.418289 -0.531046 0
M  V30 2499 H 234.104 -1.71514 -1.13014 0
M  V30 2500 H 232.334 -1.28295 -3.64798 0
M  V30 2501 H 234.023 -1.70011 -3.6858 0
M  V30 2502 H 234.789 -3.99844 -2.74499 0
M  V30 2503 H 230.668 -3.01953 -3.48347 0
M  V30 2504 H 234.212 -6.39889 -2.77826 0
M  V30 2505 H 230.109 -5.4113 -3.51922 0
M  V30 2506 H 230.877 -7.47823 -3.3272 0
M  V30 2507 N 233.54 1.10788 -1.12088 0
M  V30 2508 C 234.951 1.64181 -0.88891 0
M  V30 2509 C 235.302 1.87508 0.577498 0
M  V30 2510 O 234.427 1.61434 1.44112 0
M  V30 2511 C 235.022 2.98257 -1.60712 0
M  V30 2512 C 233.581 3.4853 -1.42139 0
M  V30 2513 C 232.728 2.23208 -1.6454 0
M  V30 2514 H 235.679 0.943368 -1.27618 0
M  V30 2515 H 235.7 3.65552 -1.05604 0
M  V30 2516 H 235.212 2.81246 -2.67436 0
M  V30 2517 H 233.313 3.70692 -0.376552 0
M  V30 2518 H 233.426 4.26882 -2.17505 0
M  V30 2519 H 231.79 2.31169 -1.06925 0
M  V30 2520 H 232.573 2.08733 -2.72554 0
M  V30 2521 N 235.018 0.912232 1.28515 0
M  V30 2522 C 236.267 0.540504 1.94323 0
M  V30 2523 C 236.58 -0.920044 1.72611 0
M  V30 2524 O 237.786 -1.39986 2.32629 0
M  V30 2525 C 236.242 0.915803 3.48053 0
M  V30 2526 C 235.85 2.39598 3.78546 0
M  V30 2527 C 237.594 0.614588 4.20027 0
M  V30 2528 C 235.501 2.71148 5.25578 0
M  V30 2529 H 234.431 0.198418 0.727424 0
M  V30 2530 H 237.082 1.11094 1.46049 0
M  V30 2531 H 235.464 0.274168 3.9505 0
M  V30 2532 H 236.638 3.08422 3.42364 0
M  V30 2533 H 234.953 2.66749 3.1974 0
M  V30 2534 H 237.55 0.827002 5.28266 0
M  V30 2535 H 237.893 -0.447531 4.13887 0
M  V30 2536 H 238.426 1.21462 3.78803 0
M  V30 2537 H 235.165 3.76207 5.36794 0
M  V30 2538 H 234.685 2.0696 5.62963 0
M  V30 2539 H 236.364 2.58072 5.93302 0
M  V30 2540 N 236.496 -1.42363 0.676048 0
M  V30 2541 C 237.907 -1.84649 0.275948 0
M  V30 2542 C 238.258 -1.56588 -1.18214 0
M  V30 2543 O 237.383 -1.02634 -1.90513 0
M  V30 2544 C 237.978 -3.35178 0.494053 0
M  V30 2545 C 236.537 -3.76109 0.148061 0
M  V30 2546 C 235.684 -2.65931 0.785891 0
M  V30 2547 H 238.635 -1.32192 0.878121 0
M  V30 2548 H 238.656 -3.79655 -0.25343 0
M  V30 2549 H 238.168 -3.55571 1.55535 0
M  V30 2550 H 236.269 -3.61323 -0.909742 0
M  V30 2551 H 236.382 -4.7546 0.589454 0
M  V30 2552 H 234.746 -2.53773 0.217113 0
M  V30 2553 H 235.529 -2.89146 1.85067 0
M  V30 2554 N 237.974 -0.419461 -1.51915 0
M  V30 2555 C 239.223 0.154346 -2.01109 0
M  V30 2556 C 239.536 1.45338 -1.30905 0
M  V30 2557 O 240.742 2.10906 -1.7097 0
M  V30 2558 C 239.198 0.325615 -3.58424 0
M  V30 2559 C 238.806 -0.961934 -4.37551 0
M  V30 2560 C 240.55 0.854155 -4.15818 0
M  V30 2561 C 238.457 -0.757287 -5.86531 0
M  V30 2562 H 237.387 0.0614563 -0.751491 0
M  V30 2563 H 240.038 -0.54649 -1.75173 0
M  V30 2564 H 238.42 1.08903 -3.80731 0
M  V30 2565 H 239.594 -1.7323 -4.26999 0
M  V30 2566 H 237.909 -1.41766 -3.91524 0
M  V30 2567 H 240.506 1.02346 -5.24814 0
M  V30 2568 H 240.849 1.83172 -3.73837 0
M  V30 2569 H 241.382 0.149528 -3.97519 0
M  V30 2570 H 238.121 -1.70671 -6.32892 0
M  V30 2571 H 237.641 -0.0264061 -5.99794 0
M  V30 2572 H 239.32 -0.403482 -6.45741 0
M  V30 2573 N 239.452 1.56882 -0.150215 0
M  V30 2574 C 240.699 1.96228 0.500093 0
M  V30 2575 C 241.027 1.03522 1.64661 0
M  V30 2576 O 240.282 0.0650683 1.95592 0
M  V30 2577 C 240.581 3.41801 1.04437 0
M  V30 2578 C 240.247 4.50897 0.0159671 0
M  V30 2579 C 238.909 4.8046 -0.266731 0
M  V30 2580 C 241.261 5.16703 -0.683192 0
M  V30 2581 C 238.589 5.73135 -1.25434 0
M  V30 2582 C 240.941 6.10441 -1.65964 0
M  V30 2583 C 239.605 6.38382 -1.95 0
M  V30 2584 H 238.875 0.718048 0.182997 0
M  V30 2585 H 241.522 1.90019 -0.237724 0
M  V30 2586 H 239.827 3.44857 1.85959 0
M  V30 2587 H 241.524 3.69573 1.55618 0
M  V30 2588 H 238.114 4.27891 0.246485 0
M  V30 2589 H 242.298 4.93993 -0.477983 0
M  V30 2590 H 237.554 5.93074 -1.48571 0
M  V30 2591 H 241.728 6.60507 -2.20689 0
M  V30 2592 H 239.355 7.09996 -2.71679 0
M  V30 2593 N 240.93 -0.123565 1.57115 0
M  V30 2594 C 241.893 -1.13583 1.99076 0
M  V30 2595 C 242.893 -1.34564 0.880296 0
M  V30 2596 O 244.083 -1.31158 1.14644 0
M  V30 2597 C 241.215 -2.49128 2.32698 0
M  V30 2598 H 242.408 -0.775287 2.89706 0
M  V30 2599 H 239.961 -0.36771 1.51913 0
M  V30 2600 H 240.696 -2.90111 1.44934 0
M  V30 2601 H 240.481 -2.35255 3.13684 0
M  V30 2602 H 241.971 -3.2199 2.65918 0
M  V30 2603 N 242.408 -1.52605 -0.393616 0
M  V30 2604 C 243.656 -1.67093 -1.13685 0
M  V30 2605 C 243.977 -0.411011 -1.90619 0
M  V30 2606 O 243.247 0.574491 -1.87287 0
M  V30 2607 H 241.827 -0.615923 -0.422668 0
M  V30 2608 H 244.489 -1.89704 -0.447039 0
M  V30 2609 H 243.585 -2.51922 -1.84232 0
M  V30 2610 N 243.887 0.651787 -1.4349 0
M  V30 2611 C 245.134 1.41167 -1.45183 0
M  V30 2612 C 245.462 1.94349 -0.0766601 0
M  V30 2613 O 244.717 1.72804 0.918555 0
M  V30 2614 C 245.016 2.60914 -2.44251 0
M  V30 2615 C 244.682 2.26142 -3.9009 0
M  V30 2616 C 243.344 2.16371 -4.2981 0
M  V30 2617 C 245.696 1.98334 -4.81989 0
M  V30 2618 C 243.024 1.7695 -5.5938 0
M  V30 2619 C 245.376 1.6041 -6.11924 0
M  V30 2620 C 244.04 1.49166 -6.5062 0
M  V30 2621 H 243.31 0.516566 -0.531263 0
M  V30 2622 H 245.957 0.741099 -1.76579 0
M  V30 2623 H 244.262 3.3311 -2.06265 0
M  V30 2624 H 245.959 3.19127 -2.42815 0
M  V30 2625 H 242.549 2.34658 -3.58655 0
M  V30 2626 H 246.733 2.04803 -4.52072 0
M  V30 2627 H 241.989 1.66831 -5.88198 0
M  V30 2628 H 246.163 1.37925 -6.82605 0
M  V30 2629 H 243.79 1.1839 -7.50925 0
M  V30 2630 N 245.365 1.30045 0.890287 0
M  V30 2631 C 246.605 1.19839 1.65584 0
M  V30 2632 C 246.969 -0.244175 1.90441 0
M  V30 2633 O 248.17 -0.469378 2.6467 0
M  V30 2634 C 246.441 1.99876 2.96284 0
M  V30 2635 S 248 2.06309 3.87275 0
M  V30 2636 H 244.818 0.427157 0.568382 0
M  V30 2637 H 247.42 1.64453 1.05715 0
M  V30 2638 H 246.124 3.03809 2.75913 0
M  V30 2639 H 245.655 1.55903 3.61189 0
M  V30 2640 H 247.67 1.18661 4.81803 0
M  V30 2641 N 246.843 -1.10192 1.12674 0
M  V30 2642 C 248.092 -1.81573 0.8783 0
M  V30 2643 C 248.405 -1.86249 -0.597557 0
M  V30 2644 O 249.611 -2.5386 -0.962681 0
M  V30 2645 C 248.067 -3.26149 1.52167 0
M  V30 2646 C 247.675 -3.29763 3.03249 0
M  V30 2647 C 249.419 -4.0234 1.3536 0
M  V30 2648 C 247.326 -4.68815 3.60508 0
M  V30 2649 H 246.256 -0.680394 0.324931 0
M  V30 2650 H 248.907 -1.23902 1.35353 0
M  V30 2651 H 247.289 -3.83832 0.974104 0
M  V30 2652 H 248.463 -2.8189 3.6452 0
M  V30 2653 H 246.778 -2.67059 3.19481 0
M  V30 2654 H 249.375 -5.05058 1.75559 0
M  V30 2655 H 249.718 -4.15235 0.297554 0
M  V30 2656 H 250.251 -3.51079 1.87052 0
M  V30 2657 H 246.99 -4.61121 4.65884 0
M  V30 2658 H 246.51 -5.17045 3.04014 0
M  V30 2659 H 248.189 -5.37785 3.59717 0
M  V30 2660 N 248.321 -0.919034 -1.28029 0
M  V30 2661 C 249.254 -0.355887 -2.25408 0
M  V30 2662 C 250.232 0.542874 -1.5327 0
M  V30 2663 O 251.416 0.485338 -1.82145 0
M  V30 2664 C 248.543 0.490759 -3.35126 0
M  V30 2665 C 247.589 -0.343358 -4.25116 0
M  V30 2666 S 248.422 -1.75344 -5.05979 0
M  V30 2667 C 249.578 -0.914244 -6.19187 0
M  V30 2668 H 249.811 -1.18123 -2.72826 0
M  V30 2669 H 247.344 -0.720636 -1.36551 0
M  V30 2670 H 249.302 0.973404 -3.98792 0
M  V30 2671 H 247.963 1.29054 -2.86363 0
M  V30 2672 H 247.156 0.304266 -5.03081 0
M  V30 2673 H 246.758 -0.759851 -3.662 0
M  V30 2674 H 249.05 -0.146282 -6.77342 0
M  V30 2675 H 249.993 -1.66661 -6.88208 0
M  V30 2676 H 250.401 -0.460082 -5.62622 0
M  V30 2677 N 249.799 1.42003 -0.683588 0
M  V30 2678 C 251.046 2.01413 -0.209514 0
M  V30 2679 C 251.374 1.54088 1.1869 0
M  V30 2680 O 250.629 0.737591 1.81268 0
M  V30 2681 C 250.928 3.56827 -0.202357 0
M  V30 2682 C 250.594 4.23617 -1.54464 0
M  V30 2683 C 249.256 4.41577 -1.91215 0
M  V30 2684 C 251.608 4.61178 -2.42826 0
M  V30 2685 C 248.936 4.9437 -3.15935 0
M  V30 2686 C 251.288 5.15355 -3.66867 0
M  V30 2687 C 249.952 5.31528 -4.03776 0
M  V30 2688 H 249.222 0.737023 -0.0766668 0
M  V30 2689 H 251.869 1.70067 -0.880312 0
M  V30 2690 H 250.174 3.87892 0.551969 0
M  V30 2691 H 251.871 4.00588 0.181793 0
M  V30 2692 H 248.461 4.10004 -1.24877 0
M  V30 2693 H 252.645 4.46968 -2.15717 0
M  V30 2694 H 247.901 5.05076 -3.44541 0
M  V30 2695 H 252.075 5.43402 -4.35531 0
M  V30 2696 H 249.702 5.72199 -5.00492 0
M  V30 2697 N 251.277 0.427512 1.51691 0
M  V30 2698 C 252.523 -0.142439 2.02299 0
M  V30 2699 C 252.856 -1.43214 1.31162 0
M  V30 2700 O 252.131 -1.89833 0.423511 0
M  V30 2701 C 252.414 -0.371301 3.58181 0
M  V30 2702 C 252.267 0.936358 4.39946 0
M  V30 2703 C 253.586 -1.14542 4.24933 0
M  V30 2704 H 250.705 -0.0502937 0.735282 0
M  V30 2705 H 253.347 0.564584 1.81418 0
M  V30 2706 H 251.497 -0.973559 3.76104 0
M  V30 2707 H 253.169 1.57184 4.33694 0
M  V30 2708 H 251.412 1.5432 4.05423 0
M  V30 2709 H 252.083 0.730388 5.47147 0
M  V30 2710 H 254.559 -0.635362 4.11221 0
M  V30 2711 H 253.435 -1.27431 5.33903 0
M  V30 2712 H 253.696 -2.17093 3.85127 0
M  V30 2713 N 252.755 -1.56801 0.158532 0
M  V30 2714 C 253.98 -2.01295 -0.499516 0
M  V30 2715 C 254.405 -1.03799 -1.56867 0
M  V30 2716 O 253.763 -0.0155162 -1.81293 0
M  V30 2717 C 253.811 -3.44469 -1.06647 0
M  V30 2718 O 252.915 -3.50012 -2.18095 0
M  V30 2719 H 252.256 -0.652884 -0.12099 0
M  V30 2720 H 254.786 -2.02958 0.258661 0
M  V30 2721 H 254.796 -3.8351 -1.39227 0
M  V30 2722 H 253.471 -4.14932 -0.283581 0
M  V30 2723 H 252.048 -3.22822 -1.86656 0
M  V30 2724 N 254.233 0.115231 -1.57178 0
M  V30 2725 C 255.461 0.836437 -1.89239 0
M  V30 2726 C 255.876 1.73256 -0.750175 0
M  V30 2727 O 255.233 1.80357 0.278832 0
M  V30 2728 C 255.284 1.66671 -3.20785 0
M  V30 2729 O 255.005 0.806652 -4.3061 0
M  V30 2730 C 256.506 2.49274 -3.66575 0
M  V30 2731 H 253.726 0.240253 -0.626514 0
M  V30 2732 H 256.27 0.0984932 -2.04263 0
M  V30 2733 H 254.425 2.35737 -3.0742 0
M  V30 2734 H 254.839 1.37969 -5.06028 0
M  V30 2735 H 256.313 3.03055 -4.6137 0
M  V30 2736 H 256.79 3.26807 -2.93417 0
M  V30 2737 H 257.396 1.85443 -3.82741 0
M  V30 2738 N 255.711 1.52812 0.385517 0
M  V30 2739 C 256.96 1.67249 1.12741 0
M  V30 2740 C 257.273 0.4205 1.91027 0
M  V30 2741 O 258.479 0.445064 2.67827 0
M  V30 2742 C 256.935 2.95583 2.05326 0
M  V30 2743 C 256.543 4.27974 1.32447 0
M  V30 2744 C 258.287 3.19386 2.7963 0
M  V30 2745 C 256.194 5.47412 2.23818 0
M  V30 2746 H 255.124 0.6231 0.424573 0
M  V30 2747 H 257.775 1.79309 0.389924 0
M  V30 2748 H 256.157 2.77277 2.82725 0
M  V30 2749 H 257.331 4.56844 0.602495 0
M  V30 2750 H 255.646 4.10459 0.700885 0
M  V30 2751 H 258.243 4.05801 3.48181 0
M  V30 2752 H 258.586 2.34604 3.43899 0
M  V30 2753 H 259.119 3.38274 2.09322 0
M  V30 2754 H 255.858 6.34612 1.64157 0
M  V30 2755 H 255.378 5.22849 2.93921 0
M  V30 2756 H 257.057 5.81423 2.83824 0
M  V30 2757 N 257.189 -0.644168 1.43834 0
M  V30 2758 C 258.122 -1.76906 1.44151 0
M  V30 2759 C 259.1 -1.59774 0.301857 0
M  V30 2760 O 260.284 -1.81834 0.496841 0
M  V30 2761 C 257.411 -3.14321 1.26174 0
M  V30 2762 C 256.457 -3.50134 2.43533 0
M  V30 2763 S 257.29 -3.49085 4.06079 0
M  V30 2764 C 258.446 -4.89142 3.90501 0
M  V30 2765 H 258.679 -1.76368 2.39336 0
M  V30 2766 H 256.212 -0.817624 1.30974 0
M  V30 2767 H 258.17 -3.93625 1.16489 0
M  V30 2768 H 256.831 -3.12412 0.325224 0
M  V30 2769 H 256.024 -4.50095 2.26783 0
M  V30 2770 H 255.626 -2.78264 2.4989 0
M  V30 2771 H 257.918 -5.78036 3.53385 0
M  V30 2772 H 258.861 -5.10945 4.90246 0
M  V30 2773 H 259.269 -4.63102 3.22795 0
M  V30 2774 N 258.668 -1.30515 -0.883378 0
M  V30 2775 C 259.915 -1.1943 -1.63532 0
M  V30 2776 C 260.243 0.250627 -1.92878 0
M  V30 2777 O 259.498 1.19556 -1.54935 0
M  V30 2778 C 259.797 -1.96994 -2.98209 0
M  V30 2779 C 259.463 -3.466 -2.88408 0
M  V30 2780 C 258.125 -3.87397 -2.85442 0
M  V30 2781 C 260.477 -4.41863 -2.76418 0
M  V30 2782 C 257.805 -5.21745 -2.68327 0
M  V30 2783 C 260.157 -5.7632 -2.60841 0
M  V30 2784 C 258.821 -6.16354 -2.56251 0
M  V30 2785 H 258.091 -0.437025 -0.598406 0
M  V30 2786 H 260.738 -1.61635 -1.02696 0
M  V30 2787 H 259.043 -1.47429 -3.63004 0
M  V30 2788 H 260.74 -1.85808 -3.55354 0
M  V30 2789 H 257.33 -3.14182 -2.91527 0
M  V30 2790 H 261.514 -4.11285 -2.77775 0
M  V30 2791 H 256.77 -5.51853 -2.63189 0
M  V30 2792 H 260.944 -6.49772 -2.50538 0
M  V30 2793 H 258.571 -7.20401 -2.42748 0
M  V30 2794 N 260.146 1.09593 -1.13257 0
M  V30 2795 C 261.109 2.14359 -0.811358 0
M  V30 2796 C 262.109 1.59808 0.178377 0
M  V30 2797 O 263.299 1.74132 -0.0484911 0
M  V30 2798 C 260.431 3.40269 -0.207276 0
M  V30 2799 H 261.624 2.44284 -1.73969 0
M  V30 2800 H 259.177 1.25102 -0.936973 0
M  V30 2801 H 259.912 3.15969 0.73036 0
M  V30 2802 H 259.697 3.81154 -0.919992 0
M  V30 2803 H 261.187 4.176 0.000667944 0
M  V30 2804 N 261.624 0.925811 1.2754 0
M  V30 2805 C 262.871 0.565255 1.94451 0
M  V30 2806 C 263.199 -0.89316 1.7278 0
M  V30 2807 O 262.454 -1.65213 1.04895 0
M  V30 2808 C 262.753 0.835296 3.47502 0
M  V30 2809 C 262.419 2.27515 3.89291 0
M  V30 2810 C 261.081 2.66879 4.00411 0
M  V30 2811 C 263.433 3.21158 4.10496 0
M  V30 2812 C 260.761 3.99014 4.30122 0
M  V30 2813 C 263.113 4.52871 4.4169 0
M  V30 2814 C 261.777 4.92072 4.51023 0
M  V30 2815 H 261.047 0.206841 0.711546 0
M  V30 2816 H 263.694 1.16942 1.51647 0
M  V30 2817 H 261.999 0.148442 3.91519 0
M  V30 2818 H 263.696 0.535322 3.97411 0
M  V30 2819 H 260.286 1.95976 3.81171 0
M  V30 2820 H 264.47 2.9195 4.01346 0
M  V30 2821 H 259.726 4.2907 4.35556 0
M  V30 2822 H 263.9 5.25436 4.57045 0
M  V30 2823 H 261.527 5.9449 4.738 0
M  V30 2824 N 263.102 -1.41638 0.69111 0
M  V30 2825 C 264.327 -2.06148 0.227583 0
M  V30 2826 C 264.752 -1.51652 -1.11281 0
M  V30 2827 O 264.11 -0.64164 -1.69566 0
M  V30 2828 C 264.158 -3.60095 0.190858 0
M  V30 2829 O 263.262 -4.03845 -0.835664 0
M  V30 2830 H 262.603 -0.654434 0.112306 0
M  V30 2831 H 265.133 -1.81484 0.944714 0
M  V30 2832 H 265.143 -4.07995 0.020207 0
M  V30 2833 H 263.818 -3.99129 1.16915 0
M  V30 2834 H 262.395 -3.67458 -0.63473 0
M  V30 2835 N 264.58 -0.43555 -1.51462 0
M  V30 2836 C 265.805 0.132627 -2.06976 0
M  V30 2837 C 266.23 1.35848 -1.30104 0
M  V30 2838 O 265.588 1.78112 -0.338493 0
M  V30 2839 C 265.636 0.43523 -3.57964 0
M  V30 2840 O 264.74 1.52198 -3.83288 0
M  V30 2841 H 264.081 0.00265 -0.663995 0
M  V30 2842 H 266.611 -0.616369 -1.95095 0
M  V30 2843 H 266.621 0.686206 -4.02188 0
M  V30 2844 H 265.296 -0.460739 -4.1334 0
M  V30 2845 H 263.873 1.2611 -3.50928 0
M  V30 2846 N 266.058 1.56714 -0.166846 0
M  V30 2847 C 267.283 2.01557 0.488833 0
M  V30 2848 C 267.708 1.0463 1.56314 0
M  V30 2849 O 267.066 0.0251304 1.81283 0
M  V30 2850 C 267.114 3.4503 1.04818 0
M  V30 2851 O 266.218 3.51163 2.16236 0
M  V30 2852 H 265.559 0.653516 0.117526 0
M  V30 2853 H 268.089 2.02818 -0.269421 0
M  V30 2854 H 268.099 3.84243 1.37191 0
M  V30 2855 H 266.774 4.15077 0.261572 0
M  V30 2856 H 265.351 3.23807 1.84942 0
M  V30 2857 N 267.536 -0.106894 1.57237 0
M  V30 2858 C 268.766 -0.825191 1.89405 0
M  V30 2859 C 269.174 -1.73374 0.757496 0
M  V30 2860 O 268.517 -1.81552 -0.280115 0
M  V30 2861 C 268.579 -1.70102 3.1671 0
M  V30 2862 C 268.243 -0.965523 4.46684 0
M  V30 2863 C 269.24 -0.300741 5.19029 0
M  V30 2864 C 266.925 -0.943105 4.93367 0
M  V30 2865 C 268.919 0.376622 6.36286 0
M  V30 2866 C 266.606 -0.261949 6.10538 0
M  V30 2867 C 267.604 0.396748 6.81847 0
M  V30 2868 O 267.292 1.06701 7.96787 0
M  V30 2869 H 267.024 -0.241852 0.631255 0
M  V30 2870 H 269.578 -0.0921491 2.05193 0
M  V30 2871 H 267.808 -2.47601 2.97036 0
M  V30 2872 H 269.497 -2.29483 3.34802 0
M  V30 2873 H 270.263 -0.309599 4.84011 0
M  V30 2874 H 266.142 -1.44524 4.3776 0
M  V30 2875 H 269.686 0.891334 6.91882 0
M  V30 2876 H 265.583 -0.250896 6.45012 0
M  V30 2877 H 266.351 0.972707 8.127 0
M  V30 2878 N 269.014 -1.53014 -0.377408 0
M  V30 2879 C 269.977 -1.77957 -1.44444 0
M  V30 2880 C 270.977 -0.649763 -1.47087 0
M  V30 2881 O 272.167 -0.917897 -1.48055 0
M  V30 2882 C 269.299 -1.89089 -2.83651 0
M  V30 2883 H 270.492 -2.73243 -1.23606 0
M  V30 2884 H 268.045 -1.43912 -0.609844 0
M  V30 2885 H 268.78 -0.958293 -3.09818 0
M  V30 2886 H 268.565 -2.71254 -2.83132 0
M  V30 2887 H 270.055 -2.1002 -3.60945 0
M  V30 2888 N 270.492 0.636531 -1.44174 0
M  V30 2889 C 271.739 1.39619 -1.46672 0
M  V30 2890 C 272.067 1.94257 -0.0972691 0
M  V30 2891 O 271.322 1.73768 0.900175 0
M  V30 2892 C 271.621 2.58309 -2.47005 0
M  V30 2893 C 271.287 2.21992 -3.92467 0
M  V30 2894 C 269.949 2.118 -4.32081 0
M  V30 2895 C 272.301 1.9321 -4.84065 0
M  V30 2896 C 269.629 1.71007 -5.61225 0
M  V30 2897 C 271.981 1.53911 -6.13591 0
M  V30 2898 C 270.645 1.42257 -6.52165 0
M  V30 2899 H 269.915 0.510902 -0.536712 0
M  V30 2900 H 272.562 0.722328 -1.77355 0
M  V30 2901 H 270.867 3.30903 -2.09786 0
M  V30 2902 H 272.564 3.16533 -2.46186 0
M  V30 2903 H 269.154 2.30841 -3.61124 0
M  V30 2904 H 273.338 1.99997 -4.54219 0
M  V30 2905 H 268.594 1.60583 -5.89935 0
M  V30 2906 H 272.768 1.30677 -6.8403 0
M  V30 2907 H 270.395 1.10419 -7.52138 0
M  V30 2908 N 271.97 1.30982 0.876444 0
M  V30 2909 C 272.9 1.20668 1.99903 0
M  V30 2910 C 273.881 0.095354 1.69833 0
M  V30 2911 O 275.066 0.27885 1.92188 0
M  V30 2912 C 272.196 0.90655 3.3526 0
M  V30 2913 C 271.15 1.97675 3.79617 0
M  V30 2914 C 270.476 1.52943 5.1236 0
M  V30 2915 C 271.776 3.389 3.97422 0
M  V30 2916 H 273.47 2.14586 2.0879 0
M  V30 2917 H 271.016 1.03308 1.00317 0
M  V30 2918 H 272.969 0.821025 4.13324 0
M  V30 2919 H 271.693 -0.0682969 3.26529 0
M  V30 2920 H 270.352 2.05205 3.03787 0
M  V30 2921 H 270 0.54262 5.00065 0
M  V30 2922 H 269.7 2.24532 5.43009 0
M  V30 2923 H 271.224 1.45786 5.92941 0
M  V30 2924 H 272.638 3.34081 4.659 0
M  V30 2925 H 271.035 4.0865 4.3946 0
M  V30 2926 H 272.105 3.80163 3.01006 0
M  V30 2927 N 273.449 -1.08991 1.13837 0
M  V30 2928 C 274.379 -2.17771 0.842507 0
M  V30 2929 C 275.36 -1.6892 -0.20001 0
M  V30 2930 O 276.545 -1.94113 -0.0579731 0
M  V30 2931 C 273.675 -3.4589 0.312644 0
M  V30 2932 C 272.629 -4.08099 1.28992 0
M  V30 2933 C 271.955 -5.31098 0.619623 0
M  V30 2934 C 273.255 -4.50077 2.65005 0
M  V30 2935 H 274.949 -2.42777 1.75213 0
M  V30 2936 H 272.495 -1.16682 0.843875 0
M  V30 2937 H 274.448 -4.21297 0.0933043 0
M  V30 2938 H 273.172 -3.20419 -0.632382 0
M  V30 2939 H 271.831 -3.34717 1.49533 0
M  V30 2940 H 271.479 -5.0191 -0.33102 0
M  V30 2941 H 271.179 -5.73674 1.27167 0
M  V30 2942 H 272.703 -6.09224 0.409669 0
M  V30 2943 H 274.117 -5.16688 2.48407 0
M  V30 2944 H 272.514 -5.03553 3.26427 0
M  V30 2945 H 273.584 -3.62257 3.22332 0
M  V30 2946 N 274.927 -0.932562 -1.27047 0
M  V30 2947 C 276.176 -0.571351 -1.93439 0
M  V30 2948 C 276.489 0.892467 -1.74053 0
M  V30 2949 O 277.695 1.36267 -2.34826 0
M  V30 2950 C 276.151 -0.97106 -3.46552 0
M  V30 2951 C 275.759 -2.4559 -3.74686 0
M  V30 2952 C 277.503 -0.681333 -4.18997 0
M  V30 2953 C 275.41 -2.79475 -5.21198 0
M  V30 2954 H 274.34 -0.209966 -0.724176 0
M  V30 2955 H 276.991 -1.13403 -1.44263 0
M  V30 2956 H 275.373 -0.336983 -3.94564 0
M  V30 2957 H 276.547 -3.13829 -3.37414 0
M  V30 2958 H 274.862 -2.71802 -3.15456 0
M  V30 2959 H 277.459 -0.910939 -5.26883 0
M  V30 2960 H 277.802 0.381628 -4.14547 0
M  V30 2961 H 278.335 -1.27473 -3.76823 0
M  V30 2962 H 275.074 -3.847 -5.30741 0
M  V30 2963 H 274.594 -2.1589 -5.596 0
M  V30 2964 H 276.273 -2.67478 -5.89122 0
M  V30 2965 N 276.405 1.4127 -0.698611 0
M  V30 2966 C 277.368 2.29158 -0.044132 0
M  V30 2967 C 278.368 1.44529 0.704841 0
M  V30 2968 O 279.558 1.65643 0.539276 0
M  V30 2969 C 276.69 3.27459 0.947809 0
M  V30 2970 H 277.883 2.88529 -0.817994 0
M  V30 2971 H 275.436 1.49307 -0.46228 0
M  V30 2972 H 276.171 2.73073 1.74933 0
M  V30 2973 H 275.956 3.8991 0.41385 0
M  V30 2974 H 277.446 3.93311 1.40344 0
M  V30 2975 N 277.883 0.443576 1.51229 0
M  V30 2976 C 279.299 0.0962001 1.5931 0
M  V30 2977 C 279.499 -1.39501 1.45402 0
M  V30 2978 O 278.555 -2.16557 1.29843 0
M  V30 2979 C 279.868 0.621875 2.94199 0
M  V30 2980 C 281.416 0.582865 3.07525 0
M  V30 2981 C 281.891 1.08562 4.44948 0
M  V30 2982 N 283.382 1.04387 4.51284 0
M  V30 2983 C 284.117 1.40368 5.55954 0
M  V30 2984 N 283.613 1.83664 6.68011 0
M  V30 2985 N 285.406 1.32145 5.46346 0
M  V30 2986 H 277.557 1.41376 1.58514 0
M  V30 2987 H 279.82 0.582965 0.747567 0
M  V30 2988 H 279.526 1.66546 3.09767 0
M  V30 2989 H 279.4 0.0502125 3.77167 0
M  V30 2990 H 281.787 -0.451749 2.91622 0
M  V30 2991 H 281.868 1.191 2.26382 0
M  V30 2992 H 281.512 2.11873 4.61598 0
M  V30 2993 H 281.442 0.453956 5.2464 0
M  V30 2994 H 283.933 0.725986 3.70861 0
M  V30 2995 H 284.246 2.0934 7.43906 0
M  V30 2996 H 282.591 1.87596 6.69203 0
M  V30 2997 H 285.782 0.981808 4.57688 0
M  V30 2998 H 285.955 1.60514 6.27805 0
M  V30 2999 N 279.361 -1.56624 0.175154 0
M  V30 3000 C 280.586 -2.01813 -0.478137 0
M  V30 3001 C 281.011 -1.05457 -1.55757 0
M  V30 3002 O 280.369 -0.0347439 -1.81267 0
M  V30 3003 C 280.417 -3.45581 -1.02987 0
M  V30 3004 O 279.521 -3.52305 -2.14371 0
M  V30 3005 H 278.862 -0.65413 -0.114059 0
M  V30 3006 H 281.392 -2.02673 0.280173 0
M  V30 3007 H 281.402 -3.84965 -1.35151 0
M  V30 3008 H 280.077 -4.1521 -0.239556 0
M  V30 3009 H 278.654 -3.24783 -1.83222 0
M  V30 3010 N 280.839 0.0985539 -1.57292 0
M  V30 3011 C 281.769 1.12064 -2.04851 0
M  V30 3012 C 282.75 1.41981 -0.936767 0
M  V30 3013 O 283.935 1.52071 -1.20781 0
M  V30 3014 C 281.065 2.44144 -2.47004 0
M  V30 3015 C 280.019 2.28643 -3.6181 0
M  V30 3016 C 279.345 3.65869 -3.89929 0
M  V30 3017 C 280.645 1.72986 -4.92822 0
M  V30 3018 H 282.339 0.724979 -2.9049 0
M  V30 3019 H 279.885 0.34729 -1.39749 0
M  V30 3020 H 281.838 3.15914 -2.78884 0
M  V30 3021 H 280.562 2.85639 -1.5836 0
M  V30 3022 H 279.221 1.59318 -3.30172 0
M  V30 3023 H 278.869 4.04885 -2.98458 0
M  V30 3024 H 278.569 3.56344 -4.67218 0
M  V30 3025 H 280.093 4.39112 -4.2428 0
M  V30 3026 H 281.507 2.34593 -5.23105 0
M  V30 3027 H 279.904 1.74229 -5.74251 0
M  V30 3028 H 280.974 0.689007 -4.7998 0
M  V30 3029 N 282.317 1.53212 0.369288 0
M  V30 3030 C 283.249 1.75668 1.47219 0
M  V30 3031 C 284.262 0.637387 1.49804 0
M  V30 3032 O 285.451 0.913561 1.5335 0
M  V30 3033 C 282.551 1.81818 2.85999 0
M  V30 3034 C 281.724 3.11409 3.07153 0
M  V30 3035 C 280.783 3.08849 4.26026 0
M  V30 3036 O 279.809 3.82659 4.2138 0
M  V30 3037 N 281.011 2.29409 5.33246 0
M  V30 3038 H 283.776 2.70832 1.28337 0
M  V30 3039 H 281.337 1.51944 0.55898 0
M  V30 3040 H 283.329 1.77588 3.63655 0
M  V30 3041 H 281.899 0.939544 2.98146 0
M  V30 3042 H 281.119 3.28971 2.1719 0
M  V30 3043 H 282.407 3.97059 3.18154 0
M  V30 3044 H 281.805 1.68946 5.39883 0
M  V30 3045 H 280.362 2.31001 6.09493 0
M  V30 3046 N 283.795 -0.628877 1.44509 0
M  V30 3047 C 285.043 -1.38565 1.4712 0
M  V30 3048 C 285.364 -1.94712 0.105899 0
M  V30 3049 O 284.634 -1.75912 -0.862079 0
M  V30 3050 H 283.214 -0.514333 0.541729 0
M  V30 3051 H 285.876 -0.740018 1.80305 0
M  V30 3052 H 284.972 -2.21583 2.19789 0
M  V30 3053 N 285.273 -1.31445 -0.869486 0
M  V30 3054 C 286.522 -1.20517 -1.61736 0
M  V30 3055 C 286.835 0.235341 -1.94179 0
M  V30 3056 O 288.041 0.466312 -2.67465 0
M  V30 3057 C 286.497 -2.10982 -2.91573 0
M  V30 3058 C 286.105 -3.60032 -2.66611 0
M  V30 3059 C 287.849 -2.08856 -3.69567 0
M  V30 3060 C 285.756 -4.42503 -3.92358 0
M  V30 3061 H 284.686 -0.447493 -0.606849 0
M  V30 3062 H 287.337 -1.56303 -0.96133 0
M  V30 3063 H 285.719 -1.68095 -3.58553 0
M  V30 3064 H 286.893 -4.11167 -2.08035 0
M  V30 3065 H 285.208 -3.64139 -2.0197 0
M  V30 3066 H 287.805 -2.67716 -4.62852 0
M  V30 3067 H 288.148 -1.07582 -4.02159 0
M  V30 3068 H 288.681 -2.49945 -3.09471 0
M  V30 3069 H 285.42 -5.44533 -3.64916 0
M  V30 3070 H 284.94 -3.96125 -4.50383 0
M  V30 3071 H 286.619 -4.54741 -4.60238 0
M  V30 3072 N 286.751 1.08385 -1.14413 0
M  V30 3073 C 287.999 1.80419 -0.910679 0
M  V30 3074 C 288.32 1.86658 0.564243 0
M  V30 3075 O 287.59 1.35985 1.41014 0
M  V30 3076 H 286.17 0.668204 -0.333934 0
M  V30 3077 H 288.832 1.31037 -1.44275 0
M  V30 3078 H 287.928 2.83238 -1.31082 0
M  V30 3079 N 288.23 0.939286 1.26551 0
M  V30 3080 C 289.455 0.602008 1.98471 0
M  V30 3081 C 289.88 -0.815624 1.69497 0
M  V30 3082 O 289.238 -1.54912 0.941905 0
M  V30 3083 C 289.286 0.848407 3.50477 0
M  V30 3084 O 288.39 -0.0804009 4.12322 0
M  V30 3085 H 287.731 0.23049 0.622712 0
M  V30 3086 H 290.261 1.2617 1.61066 0
M  V30 3087 H 290.271 0.768553 4.00696 0
M  V30 3088 H 288.946 1.88171 3.70897 0
M  V30 3089 H 287.523 0.0503508 3.72866 0
M  V30 3090 N 289.708 -1.40897 0.706093 0
M  V30 3091 C 290.933 -2.05895 0.249435 0
M  V30 3092 C 291.358 -1.52823 -1.09666 0
M  V30 3093 O 290.716 -0.659589 -1.68876 0
M  V30 3094 C 290.764 -3.59872 0.22904 0
M  V30 3095 O 289.868 -4.04708 -0.792784 0
M  V30 3096 H 289.209 -0.653206 0.119241 0
M  V30 3097 H 291.739 -1.80471 0.96391 0
M  V30 3098 H 291.749 -4.07951 0.0634791 0
M  V30 3099 H 290.424 -3.97866 1.21141 0
M  V30 3100 H 289.001 -3.68111 -0.59572 0
M  V30 3101 N 291.186 -0.45159 -1.50991 0
M  V30 3102 C 292.426 0.109066 -2.04109 0
M  V30 3103 C 292.79 1.38716 -1.32747 0
M  V30 3104 O 293.991 2.02896 -1.76314 0
M  V30 3105 C 292.262 0.308354 -3.56067 0
M  V30 3106 S 293.821 0.830369 -4.30872 0
M  V30 3107 H 290.639 0.0251531 -0.710555 0
M  V30 3108 H 293.241 -0.614264 -1.85599 0
M  V30 3109 H 291.945 -0.627962 -4.05567 0
M  V30 3110 H 291.476 1.05836 -3.78896 0
M  V30 3111 H 293.491 2.10626 -4.49279 0
M  V30 3112 N 292.664 1.56529 -0.183458 0
M  V30 3113 C 293.889 2.02064 0.467428 0
M  V30 3114 C 294.314 1.06282 1.55196 0
M  V30 3115 O 293.672 0.0443565 1.81246 0
M  V30 3116 C 293.72 3.46122 1.01153 0
M  V30 3117 O 292.824 3.53437 2.12499 0
M  V30 3118 H 292.165 0.654726 0.110588 0
M  V30 3119 H 294.695 2.02521 -0.290917 0
M  V30 3120 H 294.705 3.85676 1.33108 0
M  V30 3121 H 293.38 4.15331 0.217533 0
M  V30 3122 H 291.957 3.2575 1.81497 0
M  V30 3123 N 294.142 -0.090211 1.57342 0
M  V30 3124 C 295.367 -0.810082 1.90925 0
M  V30 3125 C 295.792 -1.71248 0.778187 0
M  V30 3126 O 295.15 -1.79278 -0.269991 0
M  V30 3127 C 295.198 -1.59529 3.23393 0
M  V30 3128 O 294.302 -2.70461 3.11327 0
M  V30 3129 H 293.643 -0.222231 0.625707 0
M  V30 3130 H 296.173 -0.0639716 2.045 0
M  V30 3131 H 296.183 -1.97847 3.5682 0
M  V30 3132 H 294.858 -0.933055 4.05299 0
M  V30 3133 H 293.435 -2.35135 2.89423 0
M  V30 3134 N 295.62 -1.53406 -0.361157 0
M  V30 3135 C 296.866 -1.70054 -1.10496 0
M  V30 3136 C 297.199 -0.453278 -1.88836 0
M  V30 3137 O 296.474 0.5495 -1.86576 0
M  V30 3138 C 296.757 -2.95317 -2.06058 0
M  V30 3139 C 296.61 -4.3021 -1.31298 0
M  V30 3140 C 297.929 -3.16193 -3.06121 0
M  V30 3141 H 295.048 -0.618799 -0.400321 0
M  V30 3142 H 297.69 -1.86052 -0.385318 0
M  V30 3143 H 295.84 -2.81809 -2.67425 0
M  V30 3144 H 297.512 -4.55538 -0.726807 0
M  V30 3145 H 295.755 -4.29421 -0.614853 0
M  V30 3146 H 296.426 -5.14 -2.01265 0
M  V30 3147 H 298.902 -3.28916 -2.5486 0
M  V30 3148 H 297.778 -4.05266 -3.70204 0
M  V30 3149 H 298.039 -2.31676 -3.76535 0
M  V30 3150 N 297.098 0.621204 -1.44841 0
M  V30 3151 C 298.061 1.71459 -1.521 0
M  V30 3152 C 299.061 1.55696 -0.401933 0
M  V30 3153 O 300.251 1.61011 -0.664925 0
M  V30 3154 C 297.383 3.10624 -1.40447 0
M  V30 3155 H 298.576 1.66394 -2.49506 0
M  V30 3156 H 296.129 0.835745 -1.3208 0
M  V30 3157 H 296.864 3.21277 -0.441737 0
M  V30 3158 H 296.649 3.23473 -2.21602 0
M  V30 3159 H 298.139 3.90293 -1.4853 0
M  V30 3160 N 298.576 1.31904 0.862503 0
M  V30 3161 C 299.824 1.21776 1.61292 0
M  V30 3162 C 300.145 -0.222413 1.93727 0
M  V30 3163 O 299.415 -1.1451 1.58947 0
M  V30 3164 H 297.995 0.447717 0.597962 0
M  V30 3165 H 300.657 1.65326 1.03215 0
M  V30 3166 H 299.753 1.7948 2.5533 0
M  V30 3167 N 300.054 -1.07777 1.14986 0
M  V30 3168 C 300.987 -2.14228 0.786243 0
M  V30 3169 C 301.965 -1.60888 -0.235347 0
M  V30 3170 O 303.149 -1.88099 -0.122909 0
M  V30 3171 C 300.276 -3.38281 0.168433 0
M  V30 3172 C 299.322 -4.10387 1.16123 0
M  V30 3173 S 300.155 -4.62371 2.70135 0
M  V30 3174 C 301.311 -5.89704 2.09762 0
M  V30 3175 H 301.544 -2.44741 1.68787 0
M  V30 3176 H 299.077 -1.19984 0.971756 0
M  V30 3177 H 301.035 -4.10098 -0.181588 0
M  V30 3178 H 299.696 -3.05953 -0.710725 0
M  V30 3179 H 298.889 -4.99431 0.677086 0
M  V30 3180 H 298.491 -3.44513 1.45556 0
M  V30 3181 H 300.783 -6.61648 1.45701 0
M  V30 3182 H 301.726 -6.42824 2.96955 0
M  V30 3183 H 302.134 -5.4302 1.54239 0
M  V30 3184 N 301.532 -0.945985 -1.26051 0
M  V30 3185 C 302.78 -0.594941 -1.93145 0
M  V30 3186 C 303.101 0.86953 -1.7454 0
M  V30 3187 O 302.371 1.61838 -1.10387 0
M  V30 3188 H 300.951 -0.217044 -0.714773 0
M  V30 3189 H 303.613 -1.20235 -1.53393 0
M  V30 3190 H 302.709 -0.816835 -3.01221 0
M  V30 3191 N 303.011 1.40521 -0.713556 0
M  V30 3192 C 303.944 2.28198 -0.00881422 0
M  V30 3193 C 304.922 1.43227 0.769735 0
M  V30 3194 O 306.106 1.72641 0.756799 0
M  V30 3195 C 303.233 3.23758 0.994899 0
M  V30 3196 C 302.279 4.25391 0.3074 0
M  V30 3197 S 303.112 5.26765 -0.963247 0
M  V30 3198 C 304.268 6.25888 0.0384143 0
M  V30 3199 H 304.501 2.87622 -0.752407 0
M  V30 3200 H 302.034 1.45925 -0.504502 0
M  V30 3201 H 303.992 3.79341 1.56879 0
M  V30 3202 H 302.653 2.63396 1.71118 0
M  V30 3203 H 301.846 4.92596 1.0661 0
M  V30 3204 H 301.448 3.73497 -0.193879 0
M  V30 3205 H 303.74 6.71683 0.885912 0
M  V30 3206 H 304.683 7.05552 -0.60019 0
M  V30 3207 H 305.091 5.63072 0.401233 0
M  V30 3208 N 304.489 0.459591 1.5075 0
M  V30 3209 C 305.419 -0.330644 2.31147 0
M  V30 3210 C 306.4 -1.00087 1.37538 0
M  V30 3211 O 307.585 -1.00025 1.66459 0
M  V30 3212 C 304.715 -1.41958 3.16962 0
M  V30 3213 C 303.669 -0.871608 4.19031 0
M  V30 3214 C 302.995 -2.05797 4.9351 0
M  V30 3215 C 304.295 0.109251 5.22186 0
M  V30 3216 H 305.989 0.340336 2.97459 0
M  V30 3217 H 303.535 0.165119 1.4305 0
M  V30 3218 H 305.488 -1.9798 3.71997 0
M  V30 3219 H 304.212 -2.11917 2.48513 0
M  V30 3220 H 302.871 -0.333442 3.6508 0
M  V30 3221 H 302.519 -2.74427 4.21544 0
M  V30 3222 H 302.219 -1.6976 5.62544 0
M  V30 3223 H 303.743 -2.62331 5.51375 0
M  V30 3224 H 305.157 -0.361405 5.7216 0
M  V30 3225 H 303.554 0.383316 5.98875 0
M  V30 3226 H 304.624 1.03887 4.73641 0
M  V30 3227 N 305.967 -1.56429 0.191757 0
M  V30 3228 C 306.93 -2.17707 -0.716688 0
M  V30 3229 C 307.93 -1.13061 -1.14341 0
M  V30 3230 O 309.12 -1.38464 -1.05704 0
M  V30 3231 C 306.252 -2.77644 -1.97804 0
M  V30 3232 H 307.445 -2.99342 -0.1829 0
M  V30 3233 H 304.998 -1.56193 -0.0578566 0
M  V30 3234 H 305.733 -1.99799 -2.55443 0
M  V30 3235 H 305.518 -3.54246 -1.68083 0
M  V30 3236 H 307.008 -3.24708 -2.62592 0
M  V30 3237 N 307.445 0.0818655 -1.57387 0
M  V30 3238 C 308.67 0.799946 -1.91352 0
M  V30 3239 C 309.095 1.70833 -0.787258 0
M  V30 3240 O 308.453 1.79419 0.26048 0
M  V30 3241 C 308.501 1.57812 -3.24234 0
M  V30 3242 O 307.605 2.68806 -3.12757 0
M  V30 3243 H 306.946 0.21891 -0.626877 0
M  V30 3244 H 309.476 0.0531256 -2.04531 0
M  V30 3245 H 309.486 1.95952 -3.57864 0
M  V30 3246 H 308.161 0.911548 -4.05788 0
M  V30 3247 H 306.738 2.33597 -2.90666 0
M  V30 3248 N 308.923 1.53595 0.353017 0
M  V30 3249 C 310.169 1.70638 1.09593 0
M  V30 3250 C 310.502 0.463286 1.88593 0
M  V30 3251 O 309.777 -0.539597 1.86865 0
M  V30 3252 C 310.06 2.96406 2.04489 0
M  V30 3253 C 309.913 4.30901 1.29014 0
M  V30 3254 C 311.232 3.17812 3.0444 0
M  V30 3255 H 308.351 0.620913 0.397034 0
M  V30 3256 H 310.993 1.86254 0.375446 0
M  V30 3257 H 309.143 2.83223 2.65927 0
M  V30 3258 H 310.815 4.55917 0.702638 0
M  V30 3259 H 309.058 4.29741 0.592071 0
M  V30 3260 H 309.729 5.1506 1.98537 0
M  V30 3261 H 312.205 3.30263 2.53112 0
M  V30 3262 H 311.081 4.07223 3.6805 0
M  V30 3263 H 311.342 2.33669 3.75301 0
M  V30 3264 N 310.401 -0.613514 1.45168 0
M  V30 3265 C 311.631 -1.39743 1.52169 0
M  V30 3266 C 312.039 -1.88596 0.151086 0
M  V30 3267 O 311.382 -1.6251 -0.856521 0
M  V30 3268 C 311.444 -2.64035 2.43979 0
M  V30 3269 C 311.108 -2.36861 3.90827 0
M  V30 3270 C 312.105 -1.97591 4.80889 0
M  V30 3271 C 309.79 -2.49956 4.35692 0
M  V30 3272 C 311.784 -1.71768 6.1382 0
M  V30 3273 C 309.471 -2.23747 5.68665 0
M  V30 3274 C 310.469 -1.84714 6.57548 0
M  V30 3275 O 310.157 -1.58809 7.88058 0
M  V30 3276 H 309.889 -0.434382 0.517966 0
M  V30 3277 H 312.443 -0.75587 1.90986 0
M  V30 3278 H 310.673 -3.3089 2.00122 0
M  V30 3279 H 312.362 -3.26069 2.41731 0
M  V30 3280 H 313.128 -1.87015 4.47493 0
M  V30 3281 H 309.007 -2.79305 3.66756 0
M  V30 3282 H 312.551 -1.41227 6.83155 0
M  V30 3283 H 308.448 -2.33938 6.01617 0
M  V30 3284 H 309.216 -1.7291 8.00028 0
M  V30 3285 N 311.879 -1.3236 -0.855495 0
M  V30 3286 C 313.107 -1.2587 -1.64208 0
M  V30 3287 C 313.522 0.173457 -1.88002 0
M  V30 3288 O 312.879 1.11027 -1.44842 0
M  V30 3289 C 312.93 -2.01424 -3.00184 0
M  V30 3290 O 312.651 -3.39051 -2.77445 0
M  V30 3291 C 314.152 -2.01948 -3.94629 0
M  V30 3292 H 311.372 -0.434318 -0.511477 0
M  V30 3293 H 313.916 -1.74469 -1.0668 0
M  V30 3294 H 312.071 -1.56549 -3.5436 0
M  V30 3295 H 312.485 -3.77711 -3.63916 0
M  V30 3296 H 313.959 -2.59297 -4.87308 0
M  V30 3297 H 314.436 -1.00554 -4.27534 0
M  V30 3298 H 315.042 -2.46767 -3.4639 0
M  V30 3299 N 313.357 1.07166 -1.15556 0
M  V30 3300 C 314.634 1.76546 -0.842069 0
M  V30 3301 C 315.014 2.00453 0.661939 0
M  V30 3302 O 314.362 1.62452 1.60691 0
M  V30 3303 C 314.572 3.07266 -1.65495 0
M  V30 3304 C 315.92 3.81578 -1.86234 0
M  V30 3305 O 316.944 3.17083 -1.62287 0
M  V30 3306 O 315.803 4.97419 -2.26355 0
M  V30 3307 H 312.897 0.766756 -0.309862 0
M  V30 3308 H 315.443 1.13514 -1.26145 0
M  V30 3309 H 314.215 2.85494 -2.67598 0
M  V30 3310 H 313.838 3.7803 -1.23203 0
M  V30 3311 N 314.835 0.952656 1.25548 0
M  V30 3312 C 316.112 0.523818 1.88456 0
M  V30 3313 C 316.492 -0.998871 1.85973 0
M  V30 3314 O 315.84 -1.86381 1.3219 0
M  V30 3315 C 316.05 1.0982 3.31271 0
M  V30 3316 C 317.398 1.17385 4.08051 0
M  V30 3317 O 318.422 1.04961 3.40384 0
M  V30 3318 O 317.281 1.36852 5.29088 0
M  V30 3319 H 314.375 0.172485 0.808813 0
M  V30 3320 H 316.921 1.04596 1.33633 0
M  V30 3321 H 315.693 2.1415 3.27499 0
M  V30 3322 H 315.316 0.559191 3.93648 0
M  V30 3323 N 316.313 -1.40141 0.720998 0
M  V30 3324 C 317.223 -2.34486 0.0731031 0
M  V30 3325 C 318.239 -1.57587 -0.737723 0
M  V30 3326 O 319.415 -1.89949 -0.669429 0
M  V30 3327 C 316.48 -3.36528 -0.833656 0
M  V30 3328 C 315.541 -4.29298 -0.0121673 0
M  V30 3329 C 314.774 -5.26466 -0.875742 0
M  V30 3330 O 314.997 -5.29745 -2.11485 0
M  V30 3331 O 313.931 -6.01092 -0.31185 0
M  V30 3332 H 317.757 -2.9152 0.851444 0
M  V30 3333 H 315.342 -1.41427 0.481527 0
M  V30 3334 H 317.224 -3.99093 -1.35289 0
M  V30 3335 H 315.899 -2.81899 -1.59105 0
M  V30 3336 H 314.806 -3.70001 0.552262 0
M  V30 3337 H 316.139 -4.87094 0.707129 0
M  V30 3338 N 317.792 -0.46758 -1.50504 0
M  V30 3339 C 318.702 0.33382 -2.32213 0
M  V30 3340 C 319.718 0.999323 -1.42441 0
M  V30 3341 O 320.894 0.988068 -1.75497 0
M  V30 3342 C 317.959 1.4035 -3.17022 0
M  V30 3343 C 317.02 0.754961 -4.2261 0
M  V30 3344 C 316.253 1.77367 -5.03365 0
M  V30 3345 O 316.476 2.99976 -4.8515 0
M  V30 3346 O 315.41 1.34744 -5.86624 0
M  V30 3347 H 319.236 -0.334067 -3.01857 0
M  V30 3348 H 316.821 -0.229496 -1.47627 0
M  V30 3349 H 318.703 2.02318 -3.69656 0
M  V30 3350 H 317.378 2.05492 -2.5011 0
M  V30 3351 H 316.285 0.0964244 -3.73976 0
M  V30 3352 H 317.618 0.146545 -4.91982 0
M  V30 3353 N 319.27 1.56325 -0.20005 0
M  V30 3354 C 320.686 1.58839 0.155716 0
M  V30 3355 C 320.886 1.21636 1.60645 0
M  V30 3356 O 319.942 0.941437 2.34293 0
M  V30 3357 C 321.255 3.0032 -0.151124 0
M  V30 3358 C 322.803 3.12866 -0.0916284 0
M  V30 3359 C 323.278 4.56488 -0.371845 0
M  V30 3360 N 324.769 4.62089 -0.320641 0
M  V30 3361 C 325.504 5.71116 -0.511243 0
M  V30 3362 N 325 6.88592 -0.762461 0
M  V30 3363 N 326.793 5.60335 -0.445157 0
M  V30 3364 H 318.944 1.78788 -1.14668 0
M  V30 3365 H 321.207 0.829996 -0.458051 0
M  V30 3366 H 320.913 3.32117 -1.15721 0
M  V30 3367 H 320.787 3.73257 0.543986 0
M  V30 3368 H 323.174 2.80878 0.905065 0
M  V30 3369 H 323.255 2.42304 -0.81989 0
M  V30 3370 H 322.899 4.89189 -1.36588 0
M  V30 3371 H 322.829 5.25246 0.377362 0
M  V30 3372 H 325.32 3.77665 -0.13329 0
M  V30 3373 H 325.633 7.67581 -0.896576 0
M  V30 3374 H 323.978 6.90387 -0.799412 0
M  V30 3375 H 327.169 4.67436 -0.249278 0
M  V30 3376 H 327.342 6.45243 -0.597116 0
M  V30 3377 N 320.748 -0.0735177 1.57428 0
M  V30 3378 C 321.996 -0.771472 1.86796 0
M  V30 3379 C 322.317 -1.78201 0.791804 0
M  V30 3380 O 321.587 -1.95074 -0.179718 0
M  V30 3381 H 320.167 -0.28791 0.689287 0
M  V30 3382 H 322.829 -0.0500161 1.94836 0
M  V30 3383 H 321.925 -1.28874 2.8425 0
M  V30 3384 N 322.226 -1.5378 -0.344866 0
M  V30 3385 C 323.174 -1.82373 -1.4437 0
M  V30 3386 C 324.168 -0.694128 -1.54526 0
M  V30 3387 O 325.374 -0.877442 -1.57165 0
M  V30 3388 H 321.749 -0.577765 -0.481344 0
M  V30 3389 H 323.72 -2.74306 -1.17468 0
M  V30 3390 C 322.469 -2.04898 -2.80913 0
M  V30 3391 H 321.792 -2.9127 -2.73865 0
M  V30 3392 H 323.232 -2.28871 -3.56923 0
M  V30 3393 C 321.691 -0.834116 -3.26411 0
M  V30 3394 O 322.221 -0.0328885 -4.01687 0
M  V30 3395 N 320.427 -0.65171 -2.83198 0
M  V30 3396 H 319.974 -1.30489 -2.22104 0
M  V30 3397 H 319.932 0.159686 -3.13994 0
M  V30 3398 N 323.704 0.605807 -1.45491 0
M  V30 3399 C 324.95 1.36679 -1.49823 0
M  V30 3400 C 325.283 1.93693 -0.140175 0
M  V30 3401 O 324.558 1.75158 0.845581 0
M  V30 3402 C 324.841 2.51337 -2.57879 0
M  V30 3403 C 324.694 1.99508 -4.03134 0
M  V30 3404 C 326.013 3.53463 -2.62205 0
M  V30 3405 H 323.132 0.495617 -0.545466 0
M  V30 3406 H 325.774 0.682732 -1.7731 0
M  V30 3407 H 323.924 3.09691 -2.34571 0
M  V30 3408 H 325.596 1.45789 -4.37656 0
M  V30 3409 H 323.839 1.30496 -4.13707 0
M  V30 3410 H 324.51 2.82169 -4.74431 0
M  V30 3411 H 326.986 3.04953 -2.83095 0
M  V30 3412 H 325.862 4.31178 -3.39672 0
M  V30 3413 H 326.123 4.09197 -1.67363 0
M  V30 3414 N 325.182 1.32811 0.848464 0
M  V30 3415 C 326.115 1.16601 1.96162 0
M  V30 3416 C 327.093 0.0638855 1.62474 0
M  V30 3417 O 328.277 0.224348 1.8716 0
M  V30 3418 C 325.404 0.786333 3.29446 0
M  V30 3419 C 324.45 1.89459 3.8211 0
M  V30 3420 S 325.283 3.50395 4.04949 0
M  V30 3421 C 326.439 3.14413 5.41198 0
M  V30 3422 H 326.672 2.10832 2.09612 0
M  V30 3423 H 324.205 1.17543 1.00115 0
M  V30 3424 H 326.163 0.574044 4.06466 0
M  V30 3425 H 324.824 -0.137218 3.138 0
M  V30 3426 H 324.017 1.58207 4.78526 0
M  V30 3427 H 323.619 2.06304 3.11953 0
M  V30 3428 H 325.911 2.64642 6.23675 0
M  V30 3429 H 326.854 4.09874 5.77416 0
M  V30 3430 H 327.262 2.51266 5.05495 0
M  V30 3431 N 326.66 -1.06551 1.16123 0
M  V30 3432 C 327.908 -1.78947 0.939267 0
M  V30 3433 C 328.229 -1.87532 -0.534476 0
M  V30 3434 O 327.499 -1.38211 -1.38833 0
M  V30 3435 H 326.079 -0.662807 0.344523 0
M  V30 3436 H 328.741 -1.28725 1.46342 0
M  V30 3437 H 327.837 -2.81117 1.35572 0
M  V30 3438 N 328.138 -0.959301 -1.25041 0
M  V30 3439 C 329.387 -0.612254 -1.92183 0
M  V30 3440 C 329.7 0.855347 -1.75907 0
M  V30 3441 O 330.906 1.31256 -2.37664 0
M  V30 3442 C 329.362 -1.04435 -3.44414 0
M  V30 3443 C 328.97 -2.53482 -3.69393 0
M  V30 3444 C 330.714 -0.770055 -4.17457 0
M  V30 3445 C 328.621 -2.90468 -5.15153 0
M  V30 3446 H 327.551 -0.225279 -0.719559 0
M  V30 3447 H 330.202 -1.16438 -1.41825 0
M  V30 3448 H 328.584 -0.4206 -3.9376 0
M  V30 3449 H 329.758 -3.20916 -3.30681 0
M  V30 3450 H 328.073 -2.78432 -3.0962 0
M  V30 3451 H 330.67 -1.02249 -5.24832 0
M  V30 3452 H 331.013 0.293611 -4.15263 0
M  V30 3453 H 331.546 -1.35437 -3.74034 0
M  V30 3454 H 328.285 -3.95871 -5.22462 0
M  V30 3455 H 327.805 -2.27711 -5.54894 0
M  V30 3456 H 329.484 -2.79914 -5.83315 0
M  V30 3457 N 329.616 1.39756 -0.72842 0
M  V30 3458 C 330.579 2.29012 -0.0927297 0
M  V30 3459 C 331.579 1.45992 0.674025 0
M  V30 3460 O 332.769 1.66749 0.50402 0
M  V30 3461 C 329.901 3.29396 0.878137 0
M  V30 3462 H 331.094 2.86729 -0.879011 0
M  V30 3463 H 328.647 1.48293 -0.493847 0
M  V30 3464 H 329.382 2.76722 1.69101 0
M  V30 3465 H 329.167 3.907 0.331051 0
M  V30 3466 H 330.657 3.96199 1.3197 0
M  V30 3467 N 331.094 0.475555 1.50254 0
M  V30 3468 C 332.024 -0.30611 2.31485 0
M  V30 3469 C 333.005 -0.986228 1.38591 0
M  V30 3470 O 334.19 -0.982541 1.67511 0
M  V30 3471 C 331.32 -1.38588 3.1845 0
M  V30 3472 C 330.274 -0.827115 4.19932 0
M  V30 3473 C 329.6 -2.00551 4.95665 0
M  V30 3474 C 330.9 0.16463 5.2204 0
M  V30 3475 H 332.594 0.371866 2.97082 0
M  V30 3476 H 330.14 0.180282 1.42867 0
M  V30 3477 H 332.093 -1.94023 3.74076 0
M  V30 3478 H 330.817 -2.09269 2.50747 0
M  V30 3479 H 329.476 -0.294702 3.65414 0
M  V30 3480 H 329.124 -2.6994 4.2443 0
M  V30 3481 H 328.824 -1.63784 5.64313 0
M  V30 3482 H 330.348 -2.56468 5.54127 0
M  V30 3483 H 331.762 -0.300699 5.72511 0
M  V30 3484 H 330.159 0.446813 5.98434 0
M  V30 3485 H 331.229 1.08905 4.72512 0
M  V30 3486 N 332.573 -1.56217 0.208337 0
M  V30 3487 C 333.821 -1.97558 -0.426076 0
M  V30 3488 C 334.142 -1.09683 -1.61229 0
M  V30 3489 O 333.412 -0.170956 -1.95153 0
M  V30 3490 H 331.992 -0.729575 -0.160405 0
M  V30 3491 H 334.654 -1.92606 0.298155 0
M  V30 3492 H 333.75 -3.02672 -0.761312 0
M  V30 3493 N 334.051 0.0651679 -1.57465 0
M  V30 3494 C 335.299 0.761555 -1.87202 0
M  V30 3495 C 335.62 1.77778 -0.801243 0
M  V30 3496 O 334.89 1.95166 0.16937 0
M  V30 3497 H 333.47 0.284251 -0.690804 0
M  V30 3498 H 336.132 0.0396827 -1.9486 0
M  V30 3499 H 335.228 1.27365 -2.84929 0
M  V30 3500 N 335.529 1.53961 0.336706 0
M  V30 3501 C 336.459 1.85417 1.41925 0
M  V30 3502 C 337.44 0.709856 1.5458 0
M  V30 3503 O 338.625 0.962396 1.68676 0
M  V30 3504 C 335.755 2.06985 2.78881 0
M  V30 3505 C 334.709 3.22813 2.81026 0
M  V30 3506 C 334.035 3.29727 4.20932 0
M  V30 3507 C 335.335 4.60767 2.45949 0
M  V30 3508 H 337.029 2.76079 1.15848 0
M  V30 3509 H 334.575 1.32839 0.555859 0
M  V30 3510 H 336.528 2.27575 3.54665 0
M  V30 3511 H 335.252 1.13061 3.06406 0
M  V30 3512 H 333.911 3.0209 2.07695 0
M  V30 3513 H 333.559 2.33385 4.45579 0
M  V30 3514 H 333.259 4.07566 4.23277 0
M  V30 3515 H 334.783 3.52536 4.98549 0
M  V30 3516 H 336.197 4.81325 3.11446 0
M  V30 3517 H 334.594 5.4106 2.59566 0
M  V30 3518 H 335.664 4.6391 1.41122 0
M  V30 3519 N 337.007 -0.598083 1.45811 0
M  V30 3520 C 337.97 -1.69018 1.54808 0
M  V30 3521 C 338.97 -1.55037 0.426652 0
M  V30 3522 O 340.16 -1.59932 0.690456 0
M  V30 3523 C 337.292 -3.0835 1.45371 0
M  V30 3524 H 338.485 -1.62403 2.52121 0
M  V30 3525 H 336.038 -0.814626 1.33392 0
M  V30 3526 H 336.773 -3.20534 0.492793 0
M  V30 3527 H 336.558 -3.19907 2.26721 0
M  V30 3528 H 338.048 -3.8788 1.54721 0
M  V30 3529 N 338.485 -1.33259 -0.841409 0
M  V30 3530 C 339.418 -1.1764 -1.95541 0
M  V30 3531 C 340.396 -0.072501 -1.62438 0
M  V30 3532 O 341.58 -0.23427 -1.87039 0
M  V30 3533 C 338.707 -0.803794 -3.29024 0
M  V30 3534 C 337.753 -1.91482 -3.81099 0
M  V30 3535 S 338.586 -3.52538 -4.03085 0
M  V30 3536 C 339.742 -3.17279 -5.39523 0
M  V30 3537 H 339.975 -2.11941 -2.08491 0
M  V30 3538 H 337.508 -1.18072 -0.9949 0
M  V30 3539 H 339.466 -0.595592 -4.06156 0
M  V30 3540 H 338.127 0.120574 -3.13868 0
M  V30 3541 H 337.32 -1.60742 -4.7768 0
M  V30 3542 H 336.922 -2.07956 -3.10854 0
M  V30 3543 H 339.214 -2.67946 -6.22263 0
M  V30 3544 H 340.157 -4.1293 -5.75234 0
M  V30 3545 H 340.565 -2.53943 -5.04156 0
M  V30 3546 N 339.963 1.05934 -1.16686 0
M  V30 3547 C 341.211 1.78447 -0.948744 0
M  V30 3548 C 341.532 1.87813 0.524523 0
M  V30 3549 O 340.802 1.38945 1.38098 0
M  V30 3550 H 339.382 0.660971 -0.348033 0
M  V30 3551 H 342.044 1.27947 -1.47022 0
M  V30 3552 H 341.14 2.80394 -1.37061 0
M  V30 3553 N 341.441 0.965919 1.2453 0
M  V30 3554 C 342.687 0.62776 1.92839 0
M  V30 3555 C 343.02 -0.834694 1.75347 0
M  V30 3556 O 342.295 -1.60031 1.10546 0
M  V30 3557 C 342.578 1.00109 3.45905 0
M  V30 3558 C 342.431 2.52011 3.72573 0
M  V30 3559 C 343.75 0.53435 4.36844 0
M  V30 3560 H 340.869 0.229537 0.700344 0
M  V30 3561 H 343.511 1.2046 1.46933 0
M  V30 3562 H 341.661 0.510238 3.85135 0
M  V30 3563 H 343.333 3.08559 3.42912 0
M  V30 3564 H 341.576 2.95287 3.17786 0
M  V30 3565 H 342.247 2.73183 4.79661 0
M  V30 3566 H 344.723 0.955565 4.04979 0
M  V30 3567 H 343.599 0.824152 5.42678 0
M  V30 3568 H 343.86 -0.565589 4.38467 0
M  V30 3569 N 342.919 -1.39368 0.735821 0
M  V30 3570 C 343.849 -2.33234 0.111506 0
M  V30 3571 C 344.83 -1.53954 -0.723334 0
M  V30 3572 O 346.015 -1.82344 -0.668147 0
M  V30 3573 C 343.145 -3.38057 -0.795917 0
M  V30 3574 C 342.099 -4.2795 -0.065172 0
M  V30 3575 C 341.425 -5.23479 -1.08967 0
M  V30 3576 C 342.725 -5.10741 1.09273 0
M  V30 3577 H 344.419 -2.85692 0.895571 0
M  V30 3578 H 341.965 -1.37364 0.432109 0
M  V30 3579 H 343.918 -4.02675 -1.24221 0
M  V30 3580 H 342.642 -2.8404 -1.61211 0
M  V30 3581 H 341.301 -3.64813 0.361511 0
M  V30 3582 H 340.949 -4.65758 -1.89944 0
M  V30 3583 H 340.649 -5.84472 -0.605489 0
M  V30 3584 H 342.173 -5.90974 -1.53565 0
M  V30 3585 H 343.587 -5.68699 0.724841 0
M  V30 3586 H 341.984 -5.8088 1.50659 0
M  V30 3587 H 343.054 -4.45525 1.91404 0
M  V30 3588 N 344.397 -0.483516 -1.5 0
M  V30 3589 C 345.643 0.0672592 -2.02688 0
M  V30 3590 C 345.976 1.38247 -1.36387 0
M  V30 3591 O 345.251 1.88131 -0.493675 0
M  V30 3592 C 345.534 0.238109 -3.59312 0
M  V30 3593 C 345.387 -1.099 -4.36168 0
M  V30 3594 C 346.706 0.986916 -4.28892 0
M  V30 3595 H 343.825 0.0229696 -0.736642 0
M  V30 3596 H 346.467 -0.631527 -1.79197 0
M  V30 3597 H 344.617 0.8333 -3.79458 0
M  V30 3598 H 346.289 -1.73172 -4.27562 0
M  V30 3599 H 344.532 -1.69261 -3.99416 0
M  V30 3600 H 345.203 -0.932954 -5.44059 0
M  V30 3601 H 347.679 0.482302 -4.13295 0
M  V30 3602 H 346.555 1.07527 -5.38265 0
M  V30 3603 H 346.816 2.0265 -3.92919 0
M  V30 3604 N 345.875 1.56104 -0.216619 0
M  V30 3605 C 347.123 1.97781 0.415593 0
M  V30 3606 C 347.444 1.10536 1.60645 0
M  V30 3607 O 346.714 0.181303 1.95059 0
M  V30 3608 H 345.294 0.730415 0.156534 0
M  V30 3609 H 347.956 1.92445 -0.308366 0
M  V30 3610 H 347.052 3.03072 0.74525 0
M  V30 3611 N 347.353 -0.0568162 1.57498 0
M  V30 3612 C 348.764 -0.606858 1.76562 0
M  V30 3613 C 349.115 -1.77114 0.844094 0
M  V30 3614 O 348.24 -2.16376 0.0318911 0
M  V30 3615 C 348.835 -1.10766 3.20182 0
M  V30 3616 C 347.394 -1.60344 3.40539 0
M  V30 3617 C 346.541 -0.529311 2.72201 0
M  V30 3618 H 349.492 0.169393 1.57793 0
M  V30 3619 H 349.513 -1.97602 3.25167 0
M  V30 3620 H 349.025 -0.26006 3.87228 0
M  V30 3621 H 347.126 -2.47379 2.78629 0
M  V30 3622 H 347.239 -1.67006 4.4905 0
M  V30 3623 H 345.603 -0.977893 2.35179 0
M  V30 3624 H 346.386 0.308352 3.41912 0
M  V30 3625 N 348.832 -1.54138 -0.328536 0
M  V30 3626 C 350.243 -1.63395 -0.903272 0
M  V30 3627 C 350.594 -0.524828 -1.8905 0
M  V30 3628 O 349.719 0.343068 -2.13663 0
M  V30 3629 C 350.314 -2.9618 -1.64507 0
M  V30 3630 C 348.873 -3.0765 -2.1686 0
M  V30 3631 C 348.02 -2.58933 -0.992416 0
M  V30 3632 H 350.971 -1.58344 -0.106253 0
M  V30 3633 H 350.992 -2.86061 -2.50897 0
M  V30 3634 H 350.504 -3.76884 -0.926302 0
M  V30 3635 H 348.605 -2.31611 -2.91868 0
M  V30 3636 H 348.718 -4.1337 -2.42202 0
M  V30 3637 H 347.082 -2.14706 -1.37016 0
M  V30 3638 H 347.865 -3.42089 -0.288041 0
M  V30 3639 N 350.31 0.590341 -1.46126 0
M  V30 3640 C 351.557 1.34882 -1.5104 0
M  V30 3641 C 351.885 1.93849 -0.159021 0
M  V30 3642 O 351.14 1.76544 0.844436 0
M  V30 3643 C 351.439 2.5032 -2.55097 0
M  V30 3644 C 351.105 2.09394 -3.99331 0
M  V30 3645 C 349.767 1.97947 -4.38601 0
M  V30 3646 C 352.119 1.77712 -4.89967 0
M  V30 3647 C 349.447 1.53065 -5.66381 0
M  V30 3648 C 351.799 1.34312 -6.18177 0
M  V30 3649 C 350.463 1.21436 -6.56361 0
M  V30 3650 H 349.733 0.493568 -0.552695 0
M  V30 3651 H 352.38 0.665539 -1.79563 0
M  V30 3652 H 350.685 3.24062 -2.20207 0
M  V30 3653 H 352.382 3.08541 -2.56132 0
M  V30 3654 H 348.972 2.19235 -3.68285 0
M  V30 3655 H 353.156 1.85445 -4.60352 0
M  V30 3656 H 348.412 1.41733 -5.94745 0
M  V30 3657 H 352.586 1.08849 -6.87841 0
M  V30 3658 H 350.213 0.864345 -7.5527 0
M  V30 3659 N 351.788 1.33704 0.83433 0
M  V30 3660 C 353.036 1.25169 1.58673 0
M  V30 3661 C 353.357 -0.18127 1.94156 0
M  V30 3662 O 352.627 -1.11113 1.6134 0
M  V30 3663 H 351.207 0.4603 0.58833 0
M  V30 3664 H 353.869 1.67478 0.996847 0
M  V30 3665 H 352.965 1.84856 2.51465 0
M  V30 3666 N 353.266 -1.05314 1.17247 0
M  V30 3667 C 354.491 -1.82509 0.985148 0
M  V30 3668 C 354.916 -1.82343 -0.461788 0
M  V30 3669 O 354.274 -1.23151 -1.33055 0
M  V30 3670 C 354.322 -3.26566 1.52929 0
M  V30 3671 O 353.426 -4.05666 0.742225 0
M  V30 3672 H 352.767 -0.564347 0.349869 0
M  V30 3673 H 355.297 -1.32718 1.55715 0
M  V30 3674 H 355.307 -3.77369 1.55103 0
M  V30 3675 H 353.982 -3.26001 2.58256 0
M  V30 3676 H 352.559 -3.64397 0.791794 0
M  V30 3677 N 354.744 -0.972509 -1.24016 0
M  V30 3678 C 355.99 -0.637978 -1.92504 0
M  V30 3679 C 356.323 0.825383 -1.75787 0
M  V30 3680 O 355.598 1.59442 -1.11393 0
M  V30 3681 C 355.881 -1.01942 -3.45369 0
M  V30 3682 C 355.734 -2.53983 -3.71231 0
M  V30 3683 C 357.053 -0.55751 -4.36555 0
M  V30 3684 H 354.172 -0.233248 -0.699117 0
M  V30 3685 H 356.814 -1.21238 -1.46292 0
M  V30 3686 H 354.964 -0.530656 -3.84859 0
M  V30 3687 H 356.636 -3.10374 -3.41271 0
M  V30 3688 H 354.879 -2.96968 -3.16216 0
M  V30 3689 H 355.55 -2.75723 -4.78206 0
M  V30 3690 H 358.026 -0.977029 -4.04467 0
M  V30 3691 H 356.902 -0.85292 -5.42233 0
M  V30 3692 H 357.163 0.542328 -4.38761 0
M  V30 3693 N 356.222 1.38976 -0.743202 0
M  V30 3694 C 357.152 2.33171 -0.123873 0
M  V30 3695 C 358.133 1.54336 0.71516 0
M  V30 3696 O 359.318 1.82696 0.658467 0
M  V30 3697 C 356.448 3.38474 0.777978 0
M  V30 3698 C 355.402 4.27979 0.0424758 0
M  V30 3699 C 354.728 5.2405 1.06189 0
M  V30 3700 C 356.028 5.10155 -1.1198 0
M  V30 3701 H 357.722 2.85213 -0.910709 0
M  V30 3702 H 355.268 1.37133 -0.439388 0
M  V30 3703 H 357.221 4.03328 1.22084 0
M  V30 3704 H 355.945 2.84891 1.59702 0
M  V30 3705 H 354.604 3.64616 -0.380853 0
M  V30 3706 H 354.252 4.66758 1.87472 0
M  V30 3707 H 353.952 5.84785 0.574485 0
M  V30 3708 H 355.476 5.9178 1.50428 0
M  V30 3709 H 356.89 5.68307 -0.75499 0
M  V30 3710 H 355.287 5.80073 -1.53738 0
M  V30 3711 H 356.357 4.44504 -1.93764 0
M  V30 3712 N 357.7 0.491464 1.49741 0
M  V30 3713 C 358.93 -0.0534375 2.06531 0
M  V30 3714 C 359.338 -1.32233 1.35318 0
M  V30 3715 O 358.681 -1.78781 0.422243 0
M  V30 3716 C 358.743 -0.387034 3.57411 0
M  V30 3717 C 358.407 0.782764 4.50246 0
M  V30 3718 C 359.404 1.67059 4.92329 0
M  V30 3719 C 357.089 0.978866 4.9267 0
M  V30 3720 C 359.083 2.73874 5.75562 0
M  V30 3721 C 356.77 2.05022 5.75682 0
M  V30 3722 C 357.768 2.92851 6.17031 0
M  V30 3723 O 357.456 3.98138 6.98385 0
M  V30 3724 H 357.188 0.0129324 0.675876 0
M  V30 3725 H 359.742 0.685238 1.93633 0
M  V30 3726 H 357.972 -1.17918 3.68283 0
M  V30 3727 H 359.661 -0.869419 3.96479 0
M  V30 3728 H 360.427 1.53086 4.60206 0
M  V30 3729 H 356.306 0.304646 4.59992 0
M  V30 3730 H 359.85 3.42458 6.07757 0
M  V30 3731 H 355.747 2.18993 6.07217 0
M  V30 3732 H 356.515 3.95374 7.16674 0
M  V30 3733 N 359.178 -1.55987 0.224894 0
M  V30 3734 C 360.088 -2.24066 -0.69511 0
M  V30 3735 C 361.104 -1.24939 -1.21104 0
M  V30 3736 O 362.28 -1.5776 -1.25195 0
M  V30 3737 C 359.345 -2.90983 -1.88493 0
M  V30 3738 C 358.406 -4.05462 -1.41064 0
M  V30 3739 C 357.639 -4.69179 -2.54375 0
M  V30 3740 O 357.862 -4.31895 -3.72589 0
M  V30 3741 O 356.796 -5.58108 -2.25386 0
M  V30 3742 H 360.622 -3.03353 -0.145149 0
M  V30 3743 H 358.207 -1.49399 -0.00569476 0
M  V30 3744 H 360.089 -3.33209 -2.57972 0
M  V30 3745 H 358.764 -2.14653 -2.42293 0
M  V30 3746 H 357.671 -3.67798 -0.683774 0
M  V30 3747 H 359.004 -4.83545 -0.918985 0
M  V30 3748 N 360.656 0.0484629 -1.57525 0
M  V30 3749 C 361.903 0.743125 -1.88372 0
M  V30 3750 C 362.231 1.76383 -0.819715 0
M  V30 3751 O 361.486 1.94855 0.181659 0
M  V30 3752 C 361.785 1.46632 -3.25935 0
M  V30 3753 C 361.451 0.583427 -4.4711 0
M  V30 3754 C 360.113 0.340191 -4.79996 0
M  V30 3755 C 362.465 -0.0273345 -5.21193 0
M  V30 3756 C 359.793 -0.522903 -5.84365 0
M  V30 3757 C 362.145 -0.878017 -6.26477 0
M  V30 3758 C 360.809 -1.1309 -6.5785 0
M  V30 3759 H 360.079 0.271929 -0.689301 0
M  V30 3760 H 362.726 0.00336166 -1.915 0
M  V30 3761 H 361.031 2.2789 -3.18706 0
M  V30 3762 H 362.728 2.00902 -3.47044 0
M  V30 3763 H 359.318 0.783151 -4.21384 0
M  V30 3764 H 363.502 0.147654 -4.9608 0
M  V30 3765 H 358.758 -0.727335 -6.07058 0
M  V30 3766 H 362.932 -1.35789 -6.83033 0
M  V30 3767 H 360.559 -1.80144 -7.38547 0
M  V30 3768 N 362.134 1.5431 0.320358 0
M  V30 3769 C 363.38 1.72924 1.05949 0
M  V30 3770 C 363.713 0.503185 1.87568 0
M  V30 3771 O 362.988 -0.499839 1.87968 0
M  V30 3772 C 363.271 3.00676 1.98156 0
M  V30 3773 C 363.124 4.3354 1.19845 0
M  V30 3774 C 364.443 3.24198 2.9763 0
M  V30 3775 H 361.562 0.629195 0.383774 0
M  V30 3776 H 364.204 1.87008 0.335854 0
M  V30 3777 H 362.354 2.888 2.59859 0
M  V30 3778 H 364.026 4.57305 0.605773 0
M  V30 3779 H 362.269 4.309 0.500784 0
M  V30 3780 H 362.94 5.19156 1.87567 0
M  V30 3781 H 365.416 3.35557 2.4605 0
M  V30 3782 H 364.292 4.14938 3.59329 0
M  V30 3783 H 364.553 2.41577 3.7026 0
M  V30 3784 N 363.613 -0.582584 1.46437 0
M  V30 3785 C 364.861 -1.33814 1.51453 0
M  V30 3786 C 365.182 -1.94277 0.167792 0
M  V30 3787 O 364.452 -1.78566 -0.805677 0
M  V30 3788 H 363.032 -0.496838 0.557818 0
M  V30 3789 H 365.694 -0.682281 1.82568 0
M  V30 3790 H 364.79 -2.14479 2.26728 0
M  V30 3791 N 365.091 -1.34144 -0.827227 0
M  V30 3792 C 366.038 -1.25364 -1.93785 0
M  V30 3793 C 367.008 -0.129774 -1.65592 0
M  V30 3794 O 368.193 -0.310024 -1.88264 0
M  V30 3795 C 365.333 -1.01064 -3.2997 0
M  V30 3796 C 364.446 -2.22185 -3.70484 0
M  V30 3797 C 363.581 -1.91203 -4.95595 0
M  V30 3798 C 362.62 -3.08491 -5.28677 0
M  V30 3799 N 361.757 -2.77421 -6.44967 0
M  V30 3800 H 366.597 -2.20347 -2.00627 0
M  V30 3801 H 364.134 -1.09558 -0.981608 0
M  V30 3802 H 366.092 -0.850139 -4.08446 0
M  V30 3803 H 364.722 -0.0975026 -3.22653 0
M  V30 3804 H 363.774 -2.4917 -2.87434 0
M  V30 3805 H 365.086 -3.0983 -3.90905 0
M  V30 3806 H 364.24 -1.71864 -5.81848 0
M  V30 3807 H 362.979 -1.00812 -4.77167 0
M  V30 3808 H 361.984 -3.28431 -4.40923 0
M  V30 3809 H 363.209 -3.99655 -5.49047 0
M  V30 3810 H 361.155 -1.89601 -6.28003 0
M  V30 3811 H 361.072 -3.58598 -6.6554 0
M  V30 3812 H 362.34 -2.61577 -7.34301 0
M  V30 3813 N 366.569 1.04691 -1.17803 0
M  V30 3814 C 367.797 1.81446 -0.99423 0
M  V30 3815 C 368.212 1.83174 0.457459 0
M  V30 3816 O 367.569 1.26265 1.31771 0
M  V30 3817 C 367.62 3.27334 -1.5341 0
M  V30 3818 O 367.341 3.25798 -2.92895 0
M  V30 3819 C 368.842 4.20759 -1.39559 0
M  V30 3820 H 366.062 0.571599 -0.351447 0
M  V30 3821 H 368.606 1.31982 -1.56208 0
M  V30 3822 H 366.761 3.74052 -1.00815 0
M  V30 3823 H 367.175 4.17144 -3.17949 0
M  V30 3824 H 368.649 5.21084 -1.82141 0
M  V30 3825 H 369.126 4.37856 -0.343394 0
M  V30 3826 H 369.732 3.79901 -1.91195 0
M  V30 3827 N 368.047 0.979072 1.23499 0
M  V30 3828 C 369.01 0.523244 2.23147 0
M  V30 3829 C 370.01 -0.386406 1.56088 0
M  V30 3830 O 371.2 -0.180283 1.73265 0
M  V30 3831 C 368.332 -0.240739 3.40049 0
M  V30 3832 H 369.525 1.40432 2.64989 0
M  V30 3833 H 367.078 0.764824 1.36309 0
M  V30 3834 H 367.813 -1.13841 3.03662 0
M  V30 3835 H 367.598 0.412207 3.89927 0
M  V30 3836 H 369.088 -0.548297 4.13985 0
M  V30 3837 N 369.525 -1.3858 0.750561 0
M  V30 3838 C 370.936 -1.82927 0.373438 0
M  V30 3839 C 371.287 -1.62634 -1.09748 0
M  V30 3840 O 370.412 -1.12588 -1.84805 0
M  V30 3841 C 371.007 -3.32088 0.671029 0
M  V30 3842 C 369.566 -3.74795 0.34722 0
M  V30 3843 C 368.713 -2.61391 0.92575 0
M  V30 3844 H 371.664 -1.27351 0.946958 0
M  V30 3845 H 371.685 -3.80465 -0.0518269 0
M  V30 3846 H 371.197 -3.46826 1.74164 0
M  V30 3847 H 369.298 -3.65638 -0.716933 0
M  V30 3848 H 369.411 -4.71667 0.840656 0
M  V30 3849 H 367.775 -2.52265 0.351327 0
M  V30 3850 H 368.558 -2.78929 2.00133 0
M  V30 3851 N 371.003 -0.499398 -1.49478 0
M  V30 3852 C 372.25 0.0456899 -2.02448 0
M  V30 3853 C 372.578 1.37142 -1.37921 0
M  V30 3854 O 371.833 1.89111 -0.503544 0
M  V30 3855 C 372.132 0.248424 -3.56536 0
M  V30 3856 C 371.798 -0.999107 -4.39692 0
M  V30 3857 C 370.46 -1.34108 -4.62135 0
M  V30 3858 C 372.812 -1.82842 -4.88076 0
M  V30 3859 C 370.14 -2.51191 -5.30208 0
M  V30 3860 C 372.492 -2.99076 -5.57437 0
M  V30 3861 C 371.156 -3.33655 -5.78127 0
M  V30 3862 H 370.426 0.0167191 -0.740811 0
M  V30 3863 H 373.073 -0.65923 -1.79795 0
M  V30 3864 H 371.378 1.03586 -3.77859 0
M  V30 3865 H 373.075 0.684605 -3.95113 0
M  V30 3866 H 369.665 -0.722729 -4.22463 0
M  V30 3867 H 373.849 -1.57737 -4.70566 0
M  V30 3868 H 369.105 -2.78221 -5.44429 0
M  V30 3869 H 373.279 -3.63664 -5.93904 0
M  V30 3870 H 370.906 -4.24483 -6.30649 0
M  V30 3871 N 372.481 1.55866 -0.233164 0
M  V30 3872 C 373.411 2.23783 0.666599 0
M  V30 3873 C 374.392 1.21343 1.19205 0
M  V30 3874 O 375.577 1.4996 1.23392 0
M  V30 3875 C 372.707 2.92671 1.86978 0
M  V30 3876 C 371.661 4.01682 1.47768 0
M  V30 3877 C 370.987 4.57926 2.76058 0
M  V30 3878 C 372.287 5.18126 0.658993 0
M  V30 3879 H 373.981 2.99232 0.100306 0
M  V30 3880 H 371.527 1.43924 0.046804 0
M  V30 3881 H 373.48 3.3888 2.50476 0
M  V30 3882 H 372.204 2.14688 2.46123 0
M  V30 3883 H 370.863 3.56222 0.866106 0
M  V30 3884 H 370.511 3.76659 3.33372 0
M  V30 3885 H 370.211 5.31505 2.50552 0
M  V30 3886 H 371.735 5.06859 3.40479 0
M  V30 3887 H 373.149 5.60644 1.19795 0
M  V30 3888 H 371.546 5.98009 0.500552 0
M  V30 3889 H 372.616 4.83763 -0.331856 0
M  V30 3890 N 373.959 -0.0401083 1.57549 0
M  V30 3891 C 375.205 -0.734211 1.89043 0
M  V30 3892 C 375.538 -1.75591 0.829535 0
M  V30 3893 O 374.813 -1.93868 -0.156706 0
M  V30 3894 C 375.096 -1.41374 3.31188 0
M  V30 3895 C 374.949 -0.406299 4.47961 0
M  V30 3896 C 376.268 -2.35061 3.72068 0
M  V30 3897 H 373.387 -0.265447 0.687537 0
M  V30 3898 H 376.029 0.00294087 1.9 0
M  V30 3899 H 374.179 -2.04206 3.30503 0
M  V30 3900 H 375.851 0.219255 4.60779 0
M  V30 3901 H 374.094 0.275485 4.32924 0
M  V30 3902 H 374.765 -0.920022 5.44279 0
M  V30 3903 H 377.241 -1.82282 3.74049 0
M  V30 3904 H 376.117 -2.79593 4.72355 0
M  V30 3905 H 376.378 -3.21258 3.0372 0
M  V30 3906 N 375.437 -1.54477 -0.31217 0
M  V30 3907 C 376.367 -1.87652 -1.38957 0
M  V30 3908 C 377.348 -0.734358 -1.53431 0
M  V30 3909 O 378.533 -0.98911 -1.67123 0
M  V30 3910 C 375.663 -2.11396 -2.75552 0
M  V30 3911 C 374.617 -3.27243 -2.75855 0
M  V30 3912 C 373.943 -3.36382 -4.15633 0
M  V30 3913 C 375.243 -4.64622 -2.38587 0
M  V30 3914 H 376.937 -2.77887 -1.11442 0
M  V30 3915 H 374.483 -1.33707 -0.534655 0
M  V30 3916 H 376.436 -2.33189 -3.51 0
M  V30 3917 H 375.16 -1.17921 -3.04569 0
M  V30 3918 H 373.819 -3.05356 -2.02863 0
M  V30 3919 H 373.467 -2.40445 -4.41809 0
M  V30 3920 H 373.167 -4.14249 -4.1674 0
M  V30 3921 H 374.691 -3.60422 -4.92877 0
M  V30 3922 H 376.105 -4.86219 -3.03749 0
M  V30 3923 H 374.502 -5.45121 -2.50925 0
M  V30 3924 H 375.572 -4.66097 -1.33723 0
M  V30 3925 N 376.915 0.57481 -1.46744 0
M  V30 3926 C 377.878 1.66533 -1.57478 0
M  V30 3927 C 378.878 1.54338 -0.451263 0
M  V30 3928 O 380.068 1.58814 -0.715813 0
M  V30 3929 C 377.2 3.05999 -1.50259 0
M  V30 3930 H 378.393 1.58372 -2.54673 0
M  V30 3931 H 375.946 0.793301 -1.34672 0
M  V30 3932 H 376.681 3.19709 -0.543725 0
M  V30 3933 H 376.466 3.16259 -2.31781 0
M  V30 3934 H 377.956 3.8537 -1.60872 0
M  V30 3935 N 378.394 1.34581 0.820102 0
M  V30 3936 C 379.357 1.2628 1.91275 0
M  V30 3937 C 380.357 0.177344 1.59819 0
M  V30 3938 O 381.547 0.430156 1.68806 0
M  V30 3939 C 378.679 0.950327 3.27386 0
M  V30 3940 H 379.872 2.23421 2.00057 0
M  V30 3941 H 377.425 1.1891 1.0144 0
M  V30 3942 H 378.16 -0.0177938 3.24295 0
M  V30 3943 H 377.945 1.73549 3.51601 0
M  V30 3944 H 379.435 0.917492 4.07396 0
M  V30 3945 N 379.872 -1.04064 1.18357 0
M  V30 3946 C 380.802 -2.14001 0.934113 0
M  V30 3947 C 381.783 -1.69616 -0.128186 0
M  V30 3948 O 382.968 -1.94185 0.0244093 0
M  V30 3949 C 380.098 -3.44253 0.459066 0
M  V30 3950 C 379.052 -4.02261 1.46185 0
M  V30 3951 C 378.378 -5.27992 0.844322 0
M  V30 3952 C 379.678 -4.38432 2.83856 0
M  V30 3953 H 381.372 -2.35127 1.85352 0
M  V30 3954 H 378.918 -1.12998 0.892604 0
M  V30 3955 H 380.871 -4.20522 0.271907 0
M  V30 3956 H 379.595 -3.22813 -0.495912 0
M  V30 3957 H 378.254 -3.28074 1.63595 0
M  V30 3958 H 377.902 -5.02862 -0.117845 0
M  V30 3959 H 377.602 -5.67765 1.51384 0
M  V30 3960 H 379.126 -6.06938 0.667693 0
M  V30 3961 H 380.54 -5.05688 2.70098 0
M  V30 3962 H 378.937 -4.89254 3.47491 0
M  V30 3963 H 380.007 -3.4826 3.37406 0
M  V30 3964 N 381.35 -0.985608 -1.22978 0
M  V30 3965 C 382.596 -0.65836 -1.91816 0
M  V30 3966 C 382.929 0.806692 -1.76653 0
M  V30 3967 O 382.204 1.58252 -1.13078 0
M  V30 3968 C 382.487 -1.056 -3.44268 0
M  V30 3969 C 382.34 -2.57906 -3.68516 0
M  V30 3970 C 383.659 -0.603781 -4.35939 0
M  V30 3971 H 380.778 -0.24065 -0.696604 0
M  V30 3972 H 383.42 -1.22783 -1.44998 0
M  V30 3973 H 381.57 -0.571445 -3.84274 0
M  V30 3974 H 383.242 -3.13976 -3.3796 0
M  V30 3975 H 381.485 -3.00305 -3.13048 0
M  V30 3976 H 382.156 -2.80779 -4.75255 0
M  V30 3977 H 384.632 -1.01987 -4.03408 0
M  V30 3978 H 383.508 -0.910383 -5.41298 0
M  V30 3979 H 383.769 0.495761 -4.39312 0
M  V30 3980 N 382.828 1.3818 -0.7579 0
M  V30 3981 C 383.758 2.33027 -0.148597 0
M  V30 3982 C 384.739 1.55085 0.69875 0
M  V30 3983 O 385.924 1.83384 0.639053 0
M  V30 3984 C 383.054 3.3928 0.742034 0
M  V30 3985 C 382.008 4.28 -0.00291946 0
M  V30 3986 C 381.334 5.25146 1.00625 0
M  V30 3987 C 382.634 5.08938 -1.17385 0
M  V30 3988 H 384.328 2.84231 -0.940909 0
M  V30 3989 H 381.874 1.36659 -0.453908 0
M  V30 3990 H 383.827 4.046 1.17799 0
M  V30 3991 H 382.551 2.86569 1.56671 0
M  V30 3992 H 381.21 3.64192 -0.419504 0
M  V30 3993 H 380.858 4.68721 1.8251 0
M  V30 3994 H 380.558 5.85361 0.512428 0
M  V30 3995 H 382.082 5.93342 1.44143 0
M  V30 3996 H 383.496 5.67474 -0.815224 0
M  V30 3997 H 381.893 5.7841 -1.59882 0
M  V30 3998 H 382.963 4.42424 -1.98468 0
M  V30 3999 N 384.306 0.507319 1.49211 0
M  V30 4000 C 385.236 -0.256939 2.32082 0
M  V30 4001 C 386.217 -0.956609 1.40652 0
M  V30 4002 O 387.402 -0.946788 1.69557 0
M  V30 4003 C 384.532 -1.31802 3.21318 0
M  V30 4004 C 383.486 -0.737855 4.21592 0
M  V30 4005 C 382.812 -1.89992 4.99807 0
M  V30 4006 C 384.112 0.275325 5.21574 0
M  V30 4007 H 385.806 0.434798 2.96226 0
M  V30 4008 H 383.352 0.210546 1.42452 0
M  V30 4009 H 385.305 -1.86045 3.78107 0
M  V30 4010 H 384.029 -2.03903 2.5513 0
M  V30 4011 H 382.688 -0.217126 3.65956 0
M  V30 4012 H 382.336 -2.60877 4.30061 0
M  V30 4013 H 382.036 -1.51777 5.6766 0
M  V30 4014 H 383.56 -2.44657 5.59442 0
M  V30 4015 H 384.974 -0.179193 5.7302 0
M  V30 4016 H 383.371 0.573649 5.97352 0
M  V30 4017 H 384.441 1.18903 4.70096 0
M  V30 4018 N 385.784 -1.5574 0.241426 0
M  V30 4019 C 387.061 -1.90704 -0.434881 0
M  V30 4020 C 387.441 -1.16145 -1.76277 0
M  V30 4021 O 386.789 -0.277152 -2.26813 0
M  V30 4022 C 386.999 -3.43657 -0.608343 0
M  V30 4023 C 388.347 -4.14806 -0.906725 0
M  V30 4024 O 389.371 -3.49366 -0.694408 0
M  V30 4025 O 388.23 -5.30548 -1.31075 0
M  V30 4026 H 385.324 -0.793592 -0.23268 0
M  V30 4027 H 387.87 -1.67288 0.285086 0
M  V30 4028 H 386.642 -3.89927 0.327505 0
M  V30 4029 H 386.265 -3.72918 -1.37906 0
M  V30 4030 N 387.262 0.0317525 -1.57568 0
M  V30 4031 C 388.51 0.721676 -1.88776 0
M  V30 4032 C 388.831 1.76039 -0.838772 0
M  V30 4033 O 388.101 1.95482 0.127935 0
M  V30 4034 H 386.681 0.269534 -0.696678 0
M  V30 4035 H 389.343 -0.00165879 -1.949 0
M  V30 4036 H 388.439 1.21293 -2.87566 0
M  V30 4037 N 388.74 1.54641 0.303973 0
M  V30 4038 C 389.703 1.84646 1.35789 0
M  V30 4039 C 390.703 0.7192 1.4382 0
M  V30 4040 O 391.893 0.987491 1.43507 0
M  V30 4041 C 389.025 2.02407 2.74307 0
M  V30 4042 H 390.218 2.78829 1.10429 0
M  V30 4043 H 387.771 1.46658 0.540487 0
M  V30 4044 H 388.506 1.10502 3.04893 0
M  V30 4045 H 388.291 2.84453 2.69868 0
M  V30 4046 H 389.781 2.27002 3.50514 0
M  V30 4047 N 390.218 -0.567019 1.47046 0
M  V30 4048 C 391.467 -1.32091 1.5243 0
M  V30 4049 C 391.78 -1.94704 0.187021 0
M  V30 4050 O 392.986 -2.7124 0.118771 0
M  V30 4051 C 391.442 -2.39479 2.68659 0
M  V30 4052 C 391.05 -1.831 4.08874 0
M  V30 4053 C 392.794 -3.16111 2.83327 0
M  V30 4054 C 390.701 -2.8821 5.16419 0
M  V30 4055 H 389.631 -0.496629 0.56734 0
M  V30 4056 H 392.282 -0.603354 1.73297 0
M  V30 4057 H 390.664 -3.14105 2.41152 0
M  V30 4058 H 391.838 -1.14913 4.46242 0
M  V30 4059 H 390.153 -1.19085 3.99008 0
M  V30 4060 H 392.75 -3.94585 3.60842 0
M  V30 4061 H 393.093 -3.69686 1.91411 0
M  V30 4062 H 393.626 -2.48595 3.10556 0
M  V30 4063 H 390.365 -2.39504 6.10179 0
M  V30 4064 H 389.885 -3.54839 4.8358 0
M  V30 4065 H 391.564 -3.51881 5.42945 0
M  V30 4066 N 391.696 -1.35014 -0.812953 0
M  V30 4067 C 392.628 -1.23262 -1.93233 0
M  V30 4068 C 393.641 -0.157371 -1.62038 0
M  V30 4069 O 394.83 -0.410096 -1.73725 0
M  V30 4070 C 391.93 -0.87392 -3.27438 0
M  V30 4071 C 391.103 -2.04622 -3.86586 0
M  V30 4072 C 390.162 -1.66432 -4.99186 0
M  V30 4073 O 389.188 -2.38222 -5.16951 0
M  V30 4074 N 390.39 -0.584248 -5.77552 0
M  V30 4075 H 393.155 -2.19699 -2.03844 0
M  V30 4076 H 390.716 -1.281 -0.99005 0
M  V30 4077 H 392.708 -0.600039 -4.00227 0
M  V30 4078 H 391.278 0.00057392 -3.126 0
M  V30 4079 H 390.498 -2.48427 -3.06068 0
M  V30 4080 H 391.786 -2.82999 -4.22835 0
M  V30 4081 H 391.184 0.0123526 -5.65699 0
M  V30 4082 H 389.741 -0.37013 -6.50748 0
M  V30 4083 N 393.175 1.03435 -1.18907 0
M  V30 4084 C 394.105 2.13503 -0.945448 0
M  V30 4085 C 395.086 1.69682 0.119189 0
M  V30 4086 O 396.271 1.94169 -0.034707 0
M  V30 4087 C 393.401 3.44004 -0.477316 0
M  V30 4088 C 392.355 4.0148 -1.48316 0
M  V30 4089 C 391.681 5.27537 -0.872311 0
M  V30 4090 C 392.981 4.36921 -2.86177 0
M  V30 4091 H 394.675 2.34141 -1.86597 0
M  V30 4092 H 392.221 1.12523 -0.898584 0
M  V30 4093 H 394.174 4.20372 -0.294204 0
M  V30 4094 H 392.898 3.23072 0.478786 0
M  V30 4095 H 391.557 3.27201 -1.65332 0
M  V30 4096 H 391.205 5.02917 0.0911752 0
M  V30 4097 H 390.905 5.66954 -1.54393 0
M  V30 4098 H 392.429 6.06576 -0.699871 0
M  V30 4099 H 393.843 5.04248 -2.72776 0
M  V30 4100 H 392.24 4.87405 -3.50081 0
M  V30 4101 H 393.31 3.46466 -3.39248 0
M  V30 4102 N 394.653 0.992116 1.22453 0
M  V30 4103 C 395.9 0.667534 1.91181 0
M  V30 4104 C 396.228 -0.800317 1.77271 0
M  V30 4105 O 395.483 -1.59421 1.13505 0
M  V30 4106 C 395.782 1.01832 3.42586 0
M  V30 4107 C 395.448 2.47831 3.76684 0
M  V30 4108 C 394.11 2.87729 3.85701 0
M  V30 4109 C 396.462 3.42466 3.92895 0
M  V30 4110 C 393.79 4.21252 4.08367 0
M  V30 4111 C 396.142 4.75648 4.17064 0
M  V30 4112 C 394.806 5.15288 4.24305 0
M  V30 4113 H 394.076 0.244268 0.699581 0
M  V30 4114 H 396.723 1.24816 1.45235 0
M  V30 4115 H 395.028 0.355769 3.90181 0
M  V30 4116 H 396.725 0.745228 3.94014 0
M  V30 4117 H 393.315 2.15905 3.70247 0
M  V30 4118 H 397.499 3.12814 3.85307 0
M  V30 4119 H 392.755 4.51554 4.122 0
M  V30 4120 H 396.929 5.48924 4.2855 0
M  V30 4121 H 394.556 6.18769 4.41621 0
M  V30 4122 N 396.131 -1.37776 0.765217 0
M  V30 4123 C 397.377 -2.00145 0.327072 0
M  V30 4124 C 397.71 -1.60607 -1.09175 0
M  V30 4125 O 396.985 -0.849127 -1.74986 0
M  V30 4126 C 397.268 -3.57109 0.46319 0
M  V30 4127 C 397.121 -4.06576 1.92395 0
M  V30 4128 C 398.44 -4.39888 -0.136473 0
M  V30 4129 H 395.559 -0.727113 0.120316 0
M  V30 4130 H 398.201 -1.63549 0.967039 0
M  V30 4131 H 396.351 -3.88414 -0.0816358 0
M  V30 4132 H 398.023 -3.85864 2.52798 0
M  V30 4133 H 396.266 -3.59011 2.43503 0
M  V30 4134 H 396.937 -5.15639 1.97028 0
M  V30 4135 H 399.413 -4.14803 0.328317 0
M  V30 4136 H 398.289 -5.48899 -0.0110582 0
M  V30 4137 H 398.55 -4.24758 -1.22608 0
M  V30 4138 N 397.609 -0.515225 -1.4894 0
M  V30 4139 C 398.539 0.244628 -2.32215 0
M  V30 4140 C 399.52 0.949136 -1.41157 0
M  V30 4141 O 400.705 0.937783 -1.70057 0
M  V30 4142 C 397.835 1.30096 -3.22013 0
M  V30 4143 C 396.789 0.715486 -4.21977 0
M  V30 4144 C 396.115 1.87339 -5.00808 0
M  V30 4145 C 397.415 -0.302982 -5.2142 0
M  V30 4146 H 399.109 -0.450501 -2.95991 0
M  V30 4147 H 396.655 -0.218098 -1.42339 0
M  V30 4148 H 398.608 1.84037 -3.79089 0
M  V30 4149 H 397.332 2.02547 -2.56207 0
M  V30 4150 H 395.991 0.197715 -3.66066 0
M  V30 4151 H 395.639 2.58592 -4.31438 0
M  V30 4152 H 395.339 1.48764 -5.68457 0
M  V30 4153 H 396.863 2.41686 -5.60732 0
M  V30 4154 H 398.277 0.148802 -5.73107 0
M  V30 4155 H 396.674 -0.60532 -5.97039 0
M  V30 4156 H 397.744 -1.21395 -4.69459 0
M  V30 4157 N 399.087 1.5561 -0.249682 0
M  V30 4158 C 400.019 2.18834 0.681496 0
M  V30 4159 C 401.032 1.16546 1.1367 0
M  V30 4160 O 402.221 1.43397 1.06299 0
M  V30 4161 C 399.321 2.77992 1.9384 0
M  V30 4162 C 398.494 4.05725 1.63419 0
M  V30 4163 C 397.553 4.49174 2.74096 0
M  V30 4164 O 396.579 5.15492 2.41364 0
M  V30 4165 N 397.781 4.17191 4.03649 0
M  V30 4166 H 400.546 2.9937 0.140514 0
M  V30 4167 H 398.107 1.6175 -0.0697541 0
M  V30 4168 H 400.099 3.04015 2.67127 0
M  V30 4169 H 398.669 2.01596 2.38909 0
M  V30 4170 H 397.889 3.87261 0.736358 0
M  V30 4171 H 399.177 4.88999 1.40562 0
M  V30 4172 H 398.575 3.63955 4.33074 0
M  V30 4173 H 397.132 4.48043 4.73393 0
M  V30 4174 N 400.565 -0.0233959 1.57583 0
M  V30 4175 C 401.976 -0.56927 1.77809 0
M  V30 4176 C 402.327 -1.75284 0.881472 0
M  V30 4177 O 401.452 -2.1626 0.0777805 0
M  V30 4178 C 402.047 -1.03949 3.22459 0
M  V30 4179 C 400.606 -1.53084 3.43864 0
M  V30 4180 C 399.753 -0.471454 2.73263 0
M  V30 4181 H 402.704 0.202825 1.57399 0
M  V30 4182 H 402.725 -1.90661 3.29285 0
M  V30 4183 H 402.237 -0.177865 3.87692 0
M  V30 4184 H 400.338 -2.41414 2.83814 0
M  V30 4185 H 400.451 -1.57443 4.52491 0
M  V30 4186 H 398.815 -0.927788 2.37201 0
M  V30 4187 H 399.598 0.380808 3.41181 0
M  V30 4188 N 402.043 -1.548 -0.295768 0
M  V30 4189 C 403.268 -1.78653 -1.05346 0
M  V30 4190 C 403.693 -0.546894 -1.79974 0
M  V30 4191 O 403.051 0.502763 -1.7419 0
M  V30 4192 C 403.099 -2.99679 -2.00561 0
M  V30 4193 O 402.203 -2.7317 -3.08953 0
M  V30 4194 H 401.544 -0.59116 -0.302367 0
M  V30 4195 H 404.074 -2.01895 -0.331598 0
M  V30 4196 H 404.084 -3.27793 -2.42932 0
M  V30 4197 H 402.759 -3.89562 -1.4565 0
M  V30 4198 H 401.336 -2.56089 -2.71059 0
M  V30 4199 N 403.521 0.559213 -1.47345 0
M  V30 4200 C 404.937 0.884943 -1.32819 0
M  V30 4201 C 405.137 1.98988 -0.317173 0
M  V30 4202 O 404.193 2.51031 0.272011 0
M  V30 4203 C 405.506 1.28007 -2.72093 0
M  V30 4204 C 407.054 1.39161 -2.80363 0
M  V30 4205 C 407.529 1.82031 -4.20272 0
M  V30 4206 N 409.02 1.89185 -4.22804 0
M  V30 4207 C 409.755 2.2368 -5.27973 0
M  V30 4208 N 409.251 2.56802 -6.43447 0
M  V30 4209 N 411.044 2.24436 -5.15349 0
M  V30 4210 H 403.195 -0.170304 -2.11716 0
M  V30 4211 H 405.458 -0.0135247 -0.947904 0
M  V30 4212 H 405.164 0.542027 -3.47498 0
M  V30 4213 H 405.038 2.23665 -3.03733 0
M  V30 4214 H 407.425 2.12048 -2.05231 0
M  V30 4215 H 407.506 0.41696 -2.52379 0
M  V30 4216 H 407.15 1.09715 -4.95908 0
M  V30 4217 H 407.08 2.80495 -4.45679 0
M  V30 4218 H 409.571 1.65982 -3.39497 0
M  V30 4219 H 409.884 2.82144 -7.19454 0
M  V30 4220 H 408.229 2.54387 -6.46771 0
M  V30 4221 H 411.42 1.97998 -4.24163 0
M  V30 4222 H 411.593 2.50989 -5.97418 0
M  V30 4223 N 404.999 1.35443 0.805782 0
M  V30 4224 C 406.245 1.28952 1.56522 0
M  V30 4225 C 406.578 -0.135597 1.93726 0
M  V30 4226 O 405.853 -1.08516 1.61414 0
M  V30 4227 C 406.136 2.19678 2.85331 0
M  V30 4228 C 405.989 3.7081 2.54598 0
M  V30 4229 C 407.308 2.09495 3.8704 0
M  V30 4230 H 404.427 0.469764 0.567883 0
M  V30 4231 H 407.069 1.65851 0.927001 0
M  V30 4232 H 405.219 1.8834 3.39795 0
M  V30 4233 H 406.891 4.12593 2.06312 0
M  V30 4234 H 405.134 3.91051 1.8778 0
M  V30 4235 H 405.805 4.29679 3.46525 0
M  V30 4236 H 408.281 2.37045 3.41978 0
M  V30 4237 H 407.157 2.75173 4.74943 0
M  V30 4238 H 407.418 1.07714 4.28777 0
M  V30 4239 N 406.477 -1.02803 1.19454 0
M  V30 4240 C 407.409 -2.11181 0.890807 0
M  V30 4241 C 408.422 -1.6238 -0.116829 0
M  V30 4242 O 409.611 -1.78144 0.112694 0
M  V30 4243 C 406.711 -3.37461 0.311942 0
M  V30 4244 C 405.884 -4.15446 1.36834 0
M  V30 4245 C 404.943 -5.20039 0.802864 0
M  V30 4246 O 403.969 -5.49602 1.48077 0
M  V30 4247 N 405.171 -5.79165 -0.393417 0
M  V30 4248 H 407.936 -2.37827 1.82369 0
M  V30 4249 H 405.497 -1.19101 1.09666 0
M  V30 4250 H 407.489 -4.0462 -0.0802225 0
M  V30 4251 H 406.059 -3.08156 -0.52524 0
M  V30 4252 H 405.279 -3.43423 1.93531 0
M  V30 4253 H 406.567 -4.64335 2.08015 0
M  V30 4254 H 405.965 -5.57466 -0.961658 0
M  V30 4255 H 404.522 -6.47729 -0.727351 0
M  V30 4256 N 407.956 -0.998596 -1.21925 0
M  V30 4257 C 409.367 -0.711939 -1.72593 0
M  V30 4258 C 409.718 0.770842 -1.80423 0
M  V30 4259 O 408.843 1.60237 -1.4544 0
M  V30 4260 C 409.438 -1.28567 -3.13458 0
M  V30 4261 C 407.997 -1.04828 -3.61508 0
M  V30 4262 C 407.144 -1.4024 -2.39224 0
M  V30 4263 H 410.095 -1.17027 -1.07193 0
M  V30 4264 H 410.116 -0.667098 -3.74607 0
M  V30 4265 H 409.628 -2.36486 -3.07727 0
M  V30 4266 H 407.729 0.0140383 -3.72597 0
M  V30 4267 H 407.842 -1.71566 -4.47328 0
M  V30 4268 H 406.206 -0.821077 -2.41103 0
M  V30 4269 H 406.989 -2.49176 -2.36149 0
M  V30 4270 N 409.434 1.37368 -0.772513 0
M  V30 4271 C 410.344 2.34053 -0.160081 0
M  V30 4272 C 411.36 1.60216 0.678728 0
M  V30 4273 O 412.536 1.92303 0.59847 0
M  V30 4274 C 409.601 3.3939 0.708182 0
M  V30 4275 C 408.662 4.29048 -0.147172 0
M  V30 4276 C 407.895 5.29354 0.679744 0
M  V30 4277 O 408.118 5.3723 1.91678 0
M  V30 4278 O 407.052 6.01835 0.0885444 0
M  V30 4279 H 410.878 2.88159 -0.959053 0
M  V30 4280 H 408.463 1.39543 -0.533685 0
M  V30 4281 H 410.345 4.03839 1.20384 0
M  V30 4282 H 409.02 2.8761 1.48533 0
M  V30 4283 H 407.927 3.67697 -0.689205 0
M  V30 4284 H 409.26 4.84134 -0.887423 0
M  V30 4285 N 410.912 0.523116 1.48665 0
M  V30 4286 C 412.137 -0.0117284 2.07397 0
M  V30 4287 C 412.562 -1.28031 1.37803 0
M  V30 4288 O 411.92 -1.75836 0.441762 0
M  V30 4289 C 411.968 -0.225786 3.59892 0
M  V30 4290 O 411.072 -1.29592 3.91509 0
M  V30 4291 H 410.413 0.0360673 0.66302 0
M  V30 4292 H 412.943 0.729066 1.9117 0
M  V30 4293 H 412.953 -0.450552 4.05505 0
M  V30 4294 H 411.628 0.700944 4.09951 0
M  V30 4295 H 410.205 -1.05436 3.57684 0
M  V30 4296 N 412.39 -1.55475 0.257931 0
M  V30 4297 C 413.322 -2.19192 -0.669881 0
M  V30 4298 C 414.335 -1.17148 -1.1305 0
M  V30 4299 O 415.524 -1.43959 -1.05537 0
M  V30 4300 C 412.624 -2.79016 -1.92363 0
M  V30 4301 C 411.797 -4.06586 -1.61265 0
M  V30 4302 C 410.856 -4.50622 -2.7171 0
M  V30 4303 O 409.882 -5.16765 -2.38627 0
M  V30 4304 N 411.084 -4.19325 -4.01431 0
M  V30 4305 H 413.849 -2.99441 -0.124635 0
M  V30 4306 H 411.41 -1.6171 0.0783311 0
M  V30 4307 H 413.402 -3.05427 -2.65511 0
M  V30 4308 H 411.972 -2.0286 -2.37837 0
M  V30 4309 H 411.192 -3.87646 -0.715811 0
M  V30 4310 H 412.48 -4.89737 -1.37967 0
M  V30 4311 H 411.878 -3.66247 -4.31138 0
M  V30 4312 H 410.435 -4.50547 -4.7101 0
M  V30 4313 N 413.868 0.0150385 -1.57593 0
M  V30 4314 C 414.815 1.01126 -2.07466 0
M  V30 4315 C 415.785 1.35064 -0.966794 0
M  V30 4316 O 416.97 1.4516 -1.23827 0
M  V30 4317 C 414.11 2.30276 -2.57035 0
M  V30 4318 C 413.223 2.02373 -3.81666 0
M  V30 4319 C 412.358 3.25496 -4.19793 0
M  V30 4320 C 411.397 2.93211 -5.37303 0
M  V30 4321 N 410.534 4.08826 -5.70794 0
M  V30 4322 H 415.374 0.57901 -2.92321 0
M  V30 4323 H 412.911 0.27426 -1.44521 0
M  V30 4324 H 414.869 3.05757 -2.83846 0
M  V30 4325 H 413.499 2.71197 -1.75077 0
M  V30 4326 H 412.551 1.17327 -3.61854 0
M  V30 4327 H 413.863 1.74567 -4.67256 0
M  V30 4328 H 413.017 4.09333 -4.47807 0
M  V30 4329 H 411.756 3.56428 -3.32882 0
M  V30 4330 H 410.761 2.07777 -5.09027 0
M  V30 4331 H 411.986 2.63542 -6.25877 0
M  V30 4332 H 409.932 4.39682 -4.86842 0
M  V30 4333 H 409.849 3.84491 -6.50924 0
M  V30 4334 H 411.117 4.93496 -6.03392 0
M  V30 4335 N 415.346 1.54954 0.287554 0
M  V30 4336 C 416.594 1.74528 1.01904 0
M  V30 4337 C 416.915 0.541349 1.87335 0
M  V30 4338 O 416.185 -0.444108 1.908 0
M  V30 4339 H 414.765 0.643576 0.379235 0
M  V30 4340 H 417.427 1.92333 0.315294 0
M  V30 4341 H 416.523 2.64015 1.6644 0
M  V30 4342 N 416.824 -0.551391 1.4764 0
M  V30 4343 C 418.052 -1.33357 1.58189 0
M  V30 4344 C 418.467 -1.87342 0.234199 0
M  V30 4345 O 417.824 -1.65301 -0.77343 0
M  V30 4346 C 417.875 -2.49942 2.61173 0
M  V30 4347 O 417.596 -1.98187 3.90709 0
M  V30 4348 C 419.097 -3.42072 2.8196 0
M  V30 4349 H 416.317 -0.40631 0.533998 0
M  V30 4350 H 418.861 -0.667367 1.93304 0
M  V30 4351 H 417.016 -3.12489 2.28975 0
M  V30 4352 H 417.43 -2.74342 4.47031 0
M  V30 4353 H 418.904 -4.20278 3.57869 0
M  V30 4354 H 419.381 -3.95978 1.89995 0
M  V30 4355 H 419.987 -2.85336 3.15378 0
M  V30 4356 N 418.302 -1.35869 -0.798587 0
M  V30 4357 C 419.713 -1.26498 -1.37314 0
M  V30 4358 C 420.064 0.0991899 -1.95949 0
M  V30 4359 O 419.189 1.0004 -1.91888 0
M  V30 4360 C 419.784 -2.29054 -2.49639 0
M  V30 4361 C 418.343 -2.234 -3.02935 0
M  V30 4362 C 417.49 -2.14329 -1.75949 0
M  V30 4363 H 420.441 -1.46881 -0.600971 0
M  V30 4364 H 420.462 -1.92166 -3.28409 0
M  V30 4365 H 419.974 -3.2833 -2.06933 0
M  V30 4366 H 418.075 -1.27562 -3.50084 0
M  V30 4367 H 418.188 -3.15703 -3.60372 0
M  V30 4368 H 416.552 -1.60435 -1.9782 0
M  V30 4369 H 417.335 -3.15477 -1.35384 0
M  V30 4370 N 419.78 1.02168 -1.19998 0
M  V30 4371 C 420.71 2.12488 -0.96804 0
M  V30 4372 C 421.691 1.69799 0.101185 0
M  V30 4373 O 422.876 1.94121 -0.0552993 0
M  V30 4374 C 420.006 3.43479 -0.513776 0
M  V30 4375 C 418.96 3.99884 -1.52566 0
M  V30 4376 C 418.286 5.26582 -0.928214 0
M  V30 4377 C 419.586 4.33861 -2.90795 0
M  V30 4378 H 421.28 2.32149 -1.89069 0
M  V30 4379 H 418.826 1.11564 -0.910468 0
M  V30 4380 H 420.779 4.20036 -0.338774 0
M  V30 4381 H 419.503 3.23561 0.444493 0
M  V30 4382 H 418.162 3.25429 -1.68794 0
M  V30 4383 H 417.81 5.02986 0.0378289 0
M  V30 4384 H 417.51 5.65284 -1.60397 0
M  V30 4385 H 419.034 6.05799 -0.764167 0
M  V30 4386 H 420.448 5.01327 -2.78109 0
M  V30 4387 H 418.845 4.83664 -3.55231 0
M  V30 4388 H 419.915 3.42848 -3.42904 0
M  V30 4389 N 421.258 1.00505 1.21394 0
M  V30 4390 C 422.486 0.706609 1.9446 0
M  V30 4391 C 422.901 -0.73081 1.74082 0
M  V30 4392 O 422.258 -1.49446 1.04747 0
M  V30 4393 C 422.309 1.01824 3.46863 0
M  V30 4394 O 422.03 2.39919 3.66566 0
M  V30 4395 C 423.531 0.739216 4.37093 0
M  V30 4396 H 420.751 0.260394 0.618414 0
M  V30 4397 H 423.295 1.34311 1.54211 0
M  V30 4398 H 421.45 0.427343 3.85036 0
M  V30 4399 H 421.864 2.50784 4.6066 0
M  V30 4400 H 423.338 1.00744 5.42729 0
M  V30 4401 H 423.815 -0.326746 4.37983 0
M  V30 4402 H 424.421 1.31173 4.04566 0
M  V30 4403 N 422.737 -1.36956 0.779787 0
M  V30 4404 C 423.965 -2.03755 0.359398 0
M  V30 4405 C 424.38 -1.58807 -1.02106 0
M  V30 4406 O 423.737 -0.773024 -1.6532 0
M  V30 4407 C 423.788 -3.59251 0.402568 0
M  V30 4408 O 423.509 -4.02557 1.72858 0
M  V30 4409 C 425.01 -4.43291 -0.0284068 0
M  V30 4410 H 422.23 -0.654148 0.149437 0
M  V30 4411 H 424.774 -1.75128 1.05595 0
M  V30 4412 H 422.929 -3.86621 -0.245478 0
M  V30 4413 H 423.343 -4.97111 1.67275 0
M  V30 4414 H 424.817 -5.51975 0.0529466 0
M  V30 4415 H 425.294 -4.25719 -1.07982 0
M  V30 4416 H 425.9 -4.21163 0.591758 0
M  V30 4417 N 424.215 -0.530993 -1.48385 0
M  V30 4418 C 425.145 0.219985 -2.32461 0
M  V30 4419 C 426.126 0.934111 -1.42156 0
M  V30 4420 O 427.311 0.919694 -1.71042 0
M  V30 4421 C 424.441 1.26674 -3.23375 0
M  V30 4422 C 423.395 0.67069 -4.22712 0
M  V30 4423 C 422.721 1.82017 -5.02766 0
M  V30 4424 C 424.021 -0.358268 -5.2107 0
M  V30 4425 H 425.715 -0.48187 -2.95497 0
M  V30 4426 H 423.261 -0.233182 -1.42099 0
M  V30 4427 H 425.214 1.80006 -3.81019 0
M  V30 4428 H 423.938 1.99818 -2.58341 0
M  V30 4429 H 422.597 0.158878 -3.66256 0
M  V30 4430 H 422.245 2.54002 -4.34157 0
M  V30 4431 H 421.945 1.42727 -5.70003 0
M  V30 4432 H 423.469 2.35725 -5.63264 0
M  V30 4433 H 424.883 0.0880081 -5.73232 0
M  V30 4434 H 423.28 -0.66861 -5.96364 0
M  V30 4435 H 424.35 -1.26367 -4.68145 0
M  V30 4436 N 425.693 1.55336 -0.266172 0
M  V30 4437 C 426.623 2.25146 0.618981 0
M  V30 4438 C 427.604 1.23845 1.16604 0
M  V30 4439 O 428.789 1.52544 1.20183 0
M  V30 4440 C 425.919 2.96572 1.80728 0
M  V30 4441 C 424.873 4.04726 1.39215 0
M  V30 4442 C 424.199 4.63678 2.66283 0
M  V30 4443 C 425.499 5.19407 0.548942 0
M  V30 4444 H 427.193 2.99377 0.0368116 0
M  V30 4445 H 424.739 1.43991 0.0162651 0
M  V30 4446 H 426.692 3.44116 2.43232 0
M  V30 4447 H 425.416 2.19861 2.41514 0
M  V30 4448 H 424.075 3.57979 0.790351 0
M  V30 4449 H 423.723 3.83646 3.25308 0
M  V30 4450 H 423.423 5.367 2.39222 0
M  V30 4451 H 424.947 5.13967 3.29651 0
M  V30 4452 H 426.361 5.63059 1.07876 0
M  V30 4453 H 424.758 5.98936 0.373593 0
M  V30 4454 H 425.828 4.8295 -0.434394 0
M  V30 4455 N 427.171 -0.0066808 1.57599 0
M  V30 4456 C 428.118 -1.00024 2.08 0
M  V30 4457 C 429.088 -1.34549 0.973943 0
M  V30 4458 O 430.273 -1.44502 1.24595 0
M  V30 4459 C 427.413 -2.2891 2.58252 0
M  V30 4460 C 426.526 -2.00346 3.82734 0
M  V30 4461 C 425.661 -3.23265 4.21513 0
M  V30 4462 C 424.7 -2.90357 5.3885 0
M  V30 4463 N 423.837 -4.05793 5.72954 0
M  V30 4464 H 428.677 -0.563499 2.92624 0
M  V30 4465 H 426.214 -0.266592 1.44664 0
M  V30 4466 H 428.172 -3.04247 2.85464 0
M  V30 4467 H 426.802 -2.70265 1.76512 0
M  V30 4468 H 425.854 -1.15406 3.62471 0
M  V30 4469 H 427.166 -1.72086 4.68175 0
M  V30 4470 H 426.32 -4.06953 4.49971 0
M  V30 4471 H 425.059 -3.54657 3.34768 0
M  V30 4472 H 424.064 -2.05075 5.10122 0
M  V30 4473 H 425.289 -2.60219 6.27266 0
M  V30 4474 H 423.235 -4.37094 4.89167 0
M  V30 4475 H 423.152 -3.81034 6.52954 0
M  V30 4476 H 424.42 -4.90289 6.06001 0
M  V30 4477 N 428.649 -1.55105 -0.279332 0
M  V30 4478 C 429.926 -1.66119 -1.03267 0
M  V30 4479 C 430.306 -0.523525 -2.04505 0
M  V30 4480 O 429.654 0.477194 -2.23462 0
M  V30 4481 C 429.864 -3.05067 -1.69515 0
M  V30 4482 C 431.212 -3.62606 -2.20912 0
M  V30 4483 O 432.236 -3.07659 -1.79512 0
M  V30 4484 O 431.095 -4.58861 -2.96831 0
M  V30 4485 H 428.189 -0.674429 -0.478618 0
M  V30 4486 H 430.735 -1.67446 -0.275694 0
M  V30 4487 H 429.507 -3.79311 -0.9612 0
M  V30 4488 H 429.13 -3.07611 -2.51915 0
M  V30 4489 N 430.127 0.543554 -1.4793 0
M  V30 4490 C 431.538 1.12561 -1.48953 0
M  V30 4491 C 431.889 1.94578 -0.251754 0
M  V30 4492 O 431.014 2.0665 0.642255 0
M  V30 4493 C 431.609 2.04801 -2.69892 0
M  V30 4494 C 430.168 2.58251 -2.73831 0
M  V30 4495 C 429.315 1.34918 -2.42265 0
M  V30 4496 H 432.266 0.32947 -1.55242 0
M  V30 4497 H 432.287 2.88886 -2.47639 0
M  V30 4498 H 431.799 1.4508 -3.59963 0
M  V30 4499 H 429.9 3.21732 -1.87934 0
M  V30 4500 H 430.013 2.98312 -3.74895 0
M  V30 4501 H 428.377 1.66046 -1.93134 0
M  V30 4502 H 429.16 0.769693 -3.3456 0
M  V30 4503 N 431.605 1.3629 0.791371 0
M  V30 4504 C 432.835 1.33368 1.57786 0
M  V30 4505 C 433.243 -0.0875188 1.88997 0
M  V30 4506 O 432.586 -1.05427 1.50435 0
M  V30 4507 C 432.648 2.08802 2.92646 0
M  V30 4508 C 432.312 3.57903 2.84174 0
M  V30 4509 C 433.309 4.52191 2.56553 0
M  V30 4510 C 430.994 4.00762 3.02812 0
M  V30 4511 C 432.988 5.87315 2.47669 0
M  V30 4512 C 430.675 5.35977 2.93551 0
M  V30 4513 C 431.673 6.29066 2.66017 0
M  V30 4514 O 431.361 7.61798 2.56746 0
M  V30 4515 H 431.093 0.459166 0.496128 0
M  V30 4516 H 433.647 1.79952 0.990269 0
M  V30 4517 H 431.877 1.56878 3.53449 0
M  V30 4518 H 433.566 1.98762 3.53904 0
M  V30 4519 H 434.332 4.20393 2.41858 0
M  V30 4520 H 430.211 3.2868 3.2325 0
M  V30 4521 H 433.755 6.59943 2.26099 0
M  V30 4522 H 429.652 5.67384 3.07808 0
M  V30 4523 H 430.42 7.71898 2.72242 0
M  V30 4524 N 433.083 -1.0153 1.20538 0
M  V30 4525 C 434.332 -1.74558 1.01057 0
M  V30 4526 C 434.645 -1.90168 -0.457756 0
M  V30 4527 O 435.851 -2.60301 -0.771722 0
M  V30 4528 C 434.307 -3.13963 1.75941 0
M  V30 4529 C 433.915 -3.06361 3.26875 0
M  V30 4530 C 435.659 -3.91191 1.64832 0
M  V30 4531 C 433.566 -4.40782 3.94291 0
M  V30 4532 H 432.496 -0.654417 0.374505 0
M  V30 4533 H 435.147 -1.13521 1.44171 0
M  V30 4534 H 433.529 -3.75549 1.25614 0
M  V30 4535 H 434.703 -2.54074 3.84425 0
M  V30 4536 H 433.018 -2.42625 3.38411 0
M  V30 4537 H 435.615 -4.90644 2.12539 0
M  V30 4538 H 435.958 -4.11884 0.604745 0
M  V30 4539 H 436.491 -3.36236 2.12579 0
M  V30 4540 H 433.23 -4.25292 4.98805 0
M  V30 4541 H 432.75 -4.9307 3.41529 0
M  V30 4542 H 434.429 -5.09621 3.98617 0
M  V30 4543 N 434.561 -1.01147 -1.20859 0
M  V30 4544 C 435.491 -0.597663 -2.25722 0
M  V30 4545 C 436.472 0.384744 -1.65692 0
M  V30 4546 O 437.657 0.271303 -1.92296 0
M  V30 4547 C 434.787 0.0700149 -3.47229 0
M  V30 4548 C 433.741 -0.832843 -4.19819 0
M  V30 4549 C 433.067 -0.0312202 -5.34691 0
M  V30 4550 C 434.367 -2.1385 -4.76514 0
M  V30 4551 H 436.061 -1.47423 -2.60589 0
M  V30 4552 H 433.607 -0.710301 -1.25263 0
M  V30 4553 H 435.56 0.37103 -4.19763 0
M  V30 4554 H 434.284 0.981259 -3.11511 0
M  V30 4555 H 432.943 -1.11778 -3.49144 0
M  V30 4556 H 432.591 0.881515 -4.95215 0
M  V30 4557 H 432.291 -0.632434 -5.84187 0
M  V30 4558 H 433.815 0.26346 -6.10031 0
M  V30 4559 H 435.229 -1.9002 -5.40893 0
M  V30 4560 H 433.626 -2.69012 -5.36426 0
M  V30 4561 H 434.696 -2.80495 -3.95538 0
M  V30 4562 N 436.039 1.36541 -0.78704 0
M  V30 4563 C 437.288 1.98552 -0.35494 0
M  V30 4564 C 437.601 1.63171 1.07864 0
M  V30 4565 O 438.807 2.18399 1.61289 0
M  V30 4566 C 437.263 3.55136 -0.583671 0
M  V30 4567 C 436.871 3.99444 -2.02851 0
M  V30 4568 C 438.615 4.2395 -0.215957 0
M  V30 4569 C 436.522 5.48796 -2.20403 0
M  V30 4570 H 435.452 0.742888 -0.128972 0
M  V30 4571 H 438.103 1.5587 -0.968337 0
M  V30 4572 H 436.485 3.95875 0.0994046 0
M  V30 4573 H 437.659 3.6991 -2.74779 0
M  V30 4574 H 435.974 3.43459 -2.35425 0
M  V30 4575 H 438.571 5.33709 -0.325405 0
M  V30 4576 H 438.914 4.07827 0.835646 0
M  V30 4577 H 439.447 3.88565 -0.852175 0
M  V30 4578 H 436.186 5.69864 -3.23937 0
M  V30 4579 H 435.706 5.79964 -1.52977 0
M  V30 4580 H 437.385 6.14986 -2.01002 0
M  V30 4581 N 437.518 0.538854 1.48102 0
M  V30 4582 C 438.481 -0.208395 2.28251 0
M  V30 4583 C 439.481 -0.859656 1.35892 0
M  V30 4584 O 440.671 -0.71834 1.58699 0
M  V30 4585 C 437.803 -1.30252 3.15035 0
M  V30 4586 H 438.996 0.495407 2.9578 0
M  V30 4587 H 436.549 0.295112 1.53489 0
M  V30 4588 H 437.284 -2.0393 2.52157 0
M  V30 4589 H 437.069 -0.840551 3.82985 0
M  V30 4590 H 438.559 -1.82787 3.75471 0
M  V30 4591 N 438.996 -1.55193 0.274407 0
M  V30 4592 C 439.959 -2.212 -0.600279 0
M  V30 4593 C 440.959 -1.18963 -1.08187 0
M  V30 4594 O 442.149 -1.43873 -0.982158 0
M  V30 4595 C 439.281 -2.87739 -1.82809 0
M  V30 4596 H 440.474 -2.9989 -0.0239682 0
M  V30 4597 H 438.027 -1.5628 0.0250192 0
M  V30 4598 H 438.762 -2.13058 -2.44493 0
M  V30 4599 H 438.547 -3.62658 -1.49069 0
M  V30 4600 H 440.037 -3.38171 -2.45011 0
M  V30 4601 N 440.474 -0.00167713 -1.576 0
M  V30 4602 C 441.722 0.681471 -1.90264 0
M  V30 4603 C 442.043 1.7422 -0.875924 0
M  V30 4604 O 441.313 1.95709 0.0864412 0
M  V30 4605 H 439.893 0.254696 -0.702239 0
M  V30 4606 H 442.555 -0.0429996 -1.94853 0
M  V30 4607 H 441.651 1.15166 -2.90075 0
M  V30 4608 N 441.952 1.55251 0.271103 0
M  V30 4609 C 443.177 1.80306 1.02491 0
M  V30 4610 C 443.602 0.575457 1.79081 0
M  V30 4611 O 442.96 -0.474987 1.74967 0
M  V30 4612 C 443.008 3.02832 1.95768 0
M  V30 4613 O 442.112 2.78051 3.04568 0
M  V30 4614 H 441.453 0.595896 0.292923 0
M  V30 4615 H 443.983 2.02397 0.299436 0
M  V30 4616 H 443.993 3.31616 2.37686 0
M  V30 4617 H 442.668 3.9183 1.39434 0
M  V30 4618 H 441.245 2.60369 2.66951 0
M  V30 4619 N 443.43 -0.535701 1.48216 0
M  V30 4620 C 444.679 -1.28828 1.55197 0
M  V30 4621 C 444.992 -1.94263 0.228278 0
M  V30 4622 O 446.198 -2.70927 0.176278 0
M  V30 4623 C 444.654 -2.33727 2.73678 0
M  V30 4624 C 444.262 -1.74386 4.12666 0
M  V30 4625 C 446.006 -3.1003 2.89968 0
M  V30 4626 C 443.913 -2.77192 5.22416 0
M  V30 4627 H 442.843 -0.484484 0.577747 0
M  V30 4628 H 445.494 -0.56646 1.74538 0
M  V30 4629 H 443.876 -3.08919 2.4776 0
M  V30 4630 H 445.05 -1.05421 4.48579 0
M  V30 4631 H 443.365 -1.10595 4.01445 0
M  V30 4632 H 445.962 -3.86842 3.6913 0
M  V30 4633 H 446.305 -3.65542 1.9921 0
M  V30 4634 H 446.838 -2.41952 3.15759 0
M  V30 4635 H 443.577 -2.26507 6.15122 0
M  V30 4636 H 443.097 -3.44502 4.90998 0
M  V30 4637 H 444.776 -3.40285 5.50286 0
M  V30 4638 N 444.908 -1.36708 -0.784132 0
M  V30 4639 C 446.148 -1.32618 -1.55537 0
M  V30 4640 C 446.512 0.0920681 -1.91779 0
M  V30 4641 O 447.713 0.257573 -2.67563 0
M  V30 4642 C 445.984 -2.22788 -2.79464 0
M  V30 4643 S 447.543 -2.36432 -3.69656 0
M  V30 4644 H 444.361 -0.470973 -0.53264 0
M  V30 4645 H 446.963 -1.72333 -0.92312 0
M  V30 4646 H 445.667 -3.24774 -2.50899 0
M  V30 4647 H 445.198 -1.84112 -3.47658 0
M  V30 4648 H 447.213 -1.56573 -4.7085 0
M  V30 4649 N 446.386 1.0089 -1.21074 0
M  V30 4650 C 447.633 1.74607 -1.0256 0
M  V30 4651 C 447.961 1.89426 0.44136 0
M  V30 4652 O 447.216 1.42266 1.34384 0
M  V30 4653 C 447.515 3.16335 -1.66334 0
M  V30 4654 C 447.181 3.21474 -3.16173 0
M  V30 4655 C 445.843 3.22583 -3.57062 0
M  V30 4656 C 448.195 3.19025 -4.12156 0
M  V30 4657 C 445.523 3.18925 -4.92446 0
M  V30 4658 C 447.875 3.16909 -5.47496 0
M  V30 4659 C 446.539 3.16326 -5.87787 0
M  V30 4660 H 445.809 0.638933 -0.375294 0
M  V30 4661 H 448.456 1.18274 -1.50611 0
M  V30 4662 H 446.761 3.75876 -1.10566 0
M  V30 4663 H 448.458 3.72083 -1.49516 0
M  V30 4664 H 445.048 3.2135 -2.83605 0
M  V30 4665 H 449.232 3.17332 -3.81595 0
M  V30 4666 H 444.488 3.16809 -5.22917 0
M  V30 4667 H 448.662 3.13968 -6.21609 0
M  V30 4668 H 446.289 3.13246 -6.92662 0
M  V30 4669 N 447.864 1.01787 1.20321 0
M  V30 4670 C 448.827 0.593972 2.2137 0
M  V30 4671 C 449.827 -0.336553 1.57239 0
M  V30 4672 O 451.017 -0.125069 1.7375 0
M  V30 4673 C 448.149 -0.132433 3.40643 0
M  V30 4674 H 449.342 1.48791 2.60387 0
M  V30 4675 H 446.895 0.807803 1.33807 0
M  V30 4676 H 447.63 -1.04123 3.0713 0
M  V30 4677 H 447.415 0.53605 3.88418 0
M  V30 4678 H 448.905 -0.416314 4.1552 0
M  V30 4679 N 449.342 -1.36122 0.79427 0
M  V30 4680 C 450.29 -2.31871 0.184023 0
M  V30 4681 C 451.284 -1.56041 -0.659365 0
M  V30 4682 O 452.49 -1.71266 -0.553906 0
M  V30 4683 H 448.865 -0.750896 0.0407373 0
M  V30 4684 H 450.836 -2.80898 1.00693 0
M  V30 4685 C 449.585 -3.41324 -0.662813 0
M  V30 4686 H 448.908 -3.99793 -0.0231944 0
M  V30 4687 H 450.348 -4.10629 -1.05639 0
M  V30 4688 C 448.807 -2.83308 -1.82313 0
M  V30 4689 O 449.337 -2.75863 -2.91997 0
M  V30 4690 N 447.543 -2.40529 -1.63077 0
M  V30 4691 H 447.09 -2.46785 -0.738591 0
M  V30 4692 H 447.048 -2.02059 -2.40872 0
M  V30 4693 N 450.82 -0.546701 -1.47814 0
M  V30 4694 C 451.753 0.254472 -2.26777 0
M  V30 4695 C 452.731 0.929809 -1.33392 0
M  V30 4696 O 453.915 0.950889 -1.62759 0
M  V30 4697 C 451.042 1.36171 -3.10121 0
M  V30 4698 C 450.088 0.796038 -4.19005 0
M  V30 4699 S 450.921 -0.349191 -5.3436 0
M  V30 4700 C 452.077 0.760122 -6.21267 0
M  V30 4701 H 452.31 -0.415612 -2.94381 0
M  V30 4702 H 449.843 -0.332809 -1.5077 0
M  V30 4703 H 451.801 1.99588 -3.58713 0
M  V30 4704 H 450.462 2.00359 -2.41899 0
M  V30 4705 H 449.655 1.62719 -4.7701 0
M  V30 4706 H 449.257 0.238246 -3.7324 0
M  V30 4707 H 451.549 1.65479 -6.5698 0
M  V30 4708 H 452.492 0.217673 -7.07765 0
M  V30 4709 H 452.9 1.04806 -5.54685 0
M  V30 4710 N 452.299 1.55045 -0.282633 0
M  V30 4711 C 453.547 1.99365 0.331334 0
M  V30 4712 C 453.868 1.1725 1.55812 0
M  V30 4713 O 453.138 0.263871 1.94115 0
M  V30 4714 H 451.718 0.736397 0.125414 0
M  V30 4715 H 454.38 1.90964 -0.389711 0
M  V30 4716 H 453.476 3.0596 0.616036 0
M  V30 4717 N 453.777 0.010035 1.57597 0
M  V30 4718 C 455.026 -0.671945 1.90178 0
M  V30 4719 C 455.339 -1.74376 0.886131 0
M  V30 4720 O 456.545 -2.48107 1.10252 0
M  V30 4721 C 455.001 -1.24636 3.3763 0
M  V30 4722 C 454.609 -0.208838 4.47513 0
M  V30 4723 C 456.353 -1.90595 3.79307 0
M  V30 4724 C 454.26 -0.793814 5.86048 0
M  V30 4725 H 453.19 -0.25474 0.709665 0
M  V30 4726 H 455.841 0.0722206 1.83358 0
M  V30 4727 H 454.223 -2.04152 3.3932 0
M  V30 4728 H 455.397 0.562463 4.57354 0
M  V30 4729 H 453.712 0.350889 4.14919 0
M  V30 4730 H 456.309 -2.35284 4.80151 0
M  V30 4731 H 456.652 -2.74074 3.13352 0
M  V30 4732 H 457.185 -1.17798 3.79958 0
M  V30 4733 H 453.924 0.00240855 6.555 0
M  V30 4734 H 453.444 -1.53404 5.79851 0
M  V30 4735 H 455.123 -1.2894 6.34022 0
M  V30 4736 N 455.255 -1.55392 -0.262866 0
M  V30 4737 C 456.218 -1.88181 -1.30846 0
M  V30 4738 C 457.218 -0.757079 -1.41862 0
M  V30 4739 O 458.408 -1.02519 -1.40838 0
M  V30 4740 C 455.54 -2.09609 -2.68844 0
M  V30 4741 H 456.733 -2.81659 -1.02997 0
M  V30 4742 H 454.286 -1.48039 -0.501414 0
M  V30 4743 H 455.021 -1.18547 -3.01856 0
M  V30 4744 H 454.806 -2.91508 -2.62231 0
M  V30 4745 H 456.296 -2.36215 -3.44372 0
M  V30 4746 N 456.733 0.527833 -1.48498 0
M  V30 4747 C 457.666 1.64892 -1.57753 0
M  V30 4748 C 458.644 1.5687 -0.427867 0
M  V30 4749 O 459.828 1.77311 -0.639764 0
M  V30 4750 C 456.955 3.03301 -1.50752 0
M  V30 4751 C 456.001 3.29675 -2.70586 0
M  V30 4752 S 456.834 3.15712 -4.32535 0
M  V30 4753 C 457.99 4.56564 -4.28136 0
M  V30 4754 H 458.223 1.56792 -2.52594 0
M  V30 4755 H 455.756 0.710959 -1.37057 0
M  V30 4756 H 457.714 3.83123 -1.474 0
M  V30 4757 H 456.375 3.08839 -0.572454 0
M  V30 4758 H 455.568 4.3065 -2.61833 0
M  V30 4759 H 455.17 2.57526 -2.71212 0
M  V30 4760 H 457.462 5.48126 -3.98201 0
M  V30 4761 H 458.405 4.70371 -5.29298 0
M  V30 4762 H 458.813 4.35987 -3.58574 0
M  V30 4763 N 458.211 1.37122 0.776871 0
M  V30 4764 C 459.141 1.35164 1.90402 0
M  V30 4765 C 460.122 0.221069 1.68657 0
M  V30 4766 O 461.307 0.420642 1.8959 0
M  V30 4767 C 458.437 1.15274 3.27611 0
M  V30 4768 C 457.391 2.25289 3.63908 0
M  V30 4769 C 456.717 1.90527 4.99603 0
M  V30 4770 C 458.017 3.67446 3.71188 0
M  V30 4771 H 459.711 2.29482 1.92297 0
M  V30 4772 H 457.257 1.10465 0.923773 0
M  V30 4773 H 459.21 1.12536 4.06096 0
M  V30 4774 H 457.934 0.174102 3.26136 0
M  V30 4775 H 456.593 2.27174 2.87728 0
M  V30 4776 H 456.241 0.91206 4.94662 0
M  V30 4777 H 455.941 2.64193 5.24858 0
M  V30 4778 H 457.465 1.89367 5.80493 0
M  V30 4779 H 458.879 3.67719 4.39836 0
M  V30 4780 H 457.276 4.40123 4.07936 0
M  V30 4781 H 458.346 4.01443 2.71977 0
M  V30 4782 N 459.689 -1.00246 1.21608 0
M  V30 4783 C 460.599 -2.12515 0.993709 0
M  V30 4784 C 461.615 -1.73913 -0.0549939 0
M  V30 4785 O 462.791 -2.00943 0.135619 0
M  V30 4786 C 459.856 -3.42083 0.563953 0
M  V30 4787 C 458.917 -3.94843 1.68516 0
M  V30 4788 C 458.15 -5.18226 1.27582 0
M  V30 4789 O 458.373 -5.70201 0.150506 0
M  V30 4790 O 457.307 -5.64497 2.0887 0
M  V30 4791 H 461.133 -2.34152 1.93407 0
M  V30 4792 H 458.718 -1.10891 1.00118 0
M  V30 4793 H 460.6 -4.20073 0.334194 0
M  V30 4794 H 459.275 -3.21828 -0.347665 0
M  V30 4795 H 458.182 -3.18068 1.96935 0
M  V30 4796 H 459.515 -4.19512 2.5743 0
M  V30 4797 N 461.167 -1.02423 -1.1978 0
M  V30 4798 C 462.578 -0.748389 -1.71044 0
M  V30 4799 C 462.929 0.732398 -1.82017 0
M  V30 4800 O 462.054 1.57116 -1.48807 0
M  V30 4801 C 462.649 -1.35187 -3.1066 0
M  V30 4802 C 461.208 -1.12472 -3.59203 0
M  V30 4803 C 460.355 -1.45283 -2.36195 0
M  V30 4804 H 463.306 -1.19275 -1.04686 0
M  V30 4805 H 463.327 -0.746408 -3.73107 0
M  V30 4806 H 462.839 -2.4296 -3.02642 0
M  V30 4807 H 460.94 -0.0649983 -3.72543 0
M  V30 4808 H 461.053 -1.81016 -4.43588 0
M  V30 4809 H 459.417 -0.872034 -2.39307 0
M  V30 4810 H 460.2 -2.54129 -2.30811 0
M  V30 4811 N 462.645 1.35699 -0.801477 0
M  V30 4812 C 463.608 2.28199 -0.213994 0
M  V30 4813 C 464.608 1.49359 0.595691 0
M  V30 4814 O 465.798 1.69186 0.414921 0
M  V30 4815 C 462.93 3.33587 0.702297 0
M  V30 4816 H 464.123 2.81666 -1.02976 0
M  V30 4817 H 461.676 1.45467 -0.571759 0
M  V30 4818 H 462.411 2.85297 1.54195 0
M  V30 4819 H 462.196 3.91906 0.123484 0
M  V30 4820 H 463.686 4.02638 1.10783 0
M  V30 4821 N 464.123 0.554532 1.47522 0
M  V30 4822 C 465.053 -0.182974 2.32782 0
M  V30 4823 C 466.034 -0.911377 1.43624 0
M  V30 4824 O 467.219 -0.892366 1.72483 0
M  V30 4825 C 464.349 -1.21513 3.25349 0
M  V30 4826 C 463.303 -0.603355 4.23726 0
M  V30 4827 C 462.629 -1.73995 5.05598 0
M  V30 4828 C 463.929 0.441121 5.20434 0
M  V30 4829 H 465.623 0.52882 2.94693 0
M  V30 4830 H 463.169 0.255759 1.41711 0
M  V30 4831 H 465.122 -1.73922 3.83835 0
M  V30 4832 H 463.846 -1.95683 2.61487 0
M  V30 4833 H 462.505 -0.10059 3.66462 0
M  V30 4834 H 462.153 -2.47063 4.38143 0
M  V30 4835 H 461.853 -1.3364 5.72201 0
M  V30 4836 H 463.377 -2.26735 5.66942 0
M  V30 4837 H 464.791 0.00319931 5.733 0
M  V30 4838 H 463.188 0.763402 5.95224 0
M  V30 4839 H 464.258 1.33799 4.66075 0
M  V30 4840 N 465.601 -1.54893 0.290851 0
M  V30 4841 C 467.012 -1.85584 -0.203816 0
M  V30 4842 C 467.363 -1.21285 -1.54222 0
M  V30 4843 O 466.488 -0.506841 -2.10381 0
M  V30 4844 C 467.083 -3.367 -0.376595 0
M  V30 4845 C 465.642 -3.6746 -0.815485 0
M  V30 4846 C 464.789 -2.77178 0.0821087 0
M  V30 4847 H 467.74 -1.50208 0.512175 0
M  V30 4848 H 467.761 -3.60656 -1.21275 0
M  V30 4849 H 467.273 -3.8347 0.59767 0
M  V30 4850 H 465.374 -3.26201 -1.80066 0
M  V30 4851 H 465.487 -4.7478 -0.641905 0
M  V30 4852 H 463.851 -2.50925 -0.436895 0
M  V30 4853 H 464.634 -3.26767 1.05254 0
M  V30 4854 N 467.08 -0.0183926 -1.57589 0
M  V30 4855 C 468.329 0.66185 -1.90532 0
M  V30 4856 C 468.642 1.73904 -0.895366 0
M  V30 4857 O 469.848 2.47518 -1.11566 0
M  V30 4858 C 468.304 1.22844 -3.38286 0
M  V30 4859 C 467.912 0.185103 -4.47617 0
M  V30 4860 C 469.656 1.88581 -3.80312 0
M  V30 4861 C 467.563 0.762723 -5.86461 0
M  V30 4862 H 466.493 0.250972 -0.711006 0
M  V30 4863 H 469.144 -0.0819435 -1.83317 0
M  V30 4864 H 467.526 2.0235 -3.40398 0
M  V30 4865 H 468.7 -0.58671 -4.5705 0
M  V30 4866 H 467.015 -0.372889 -4.14727 0
M  V30 4867 H 469.612 2.32735 -4.81392 0
M  V30 4868 H 469.955 2.72408 -3.14801 0
M  V30 4869 H 470.488 1.15782 -3.80578 0
M  V30 4870 H 467.227 -0.0371713 -6.55489 0
M  V30 4871 H 466.747 1.50327 -5.80656 0
M  V30 4872 H 468.426 1.25576 -6.34697 0
M  V30 4873 N 468.558 1.5553 0.254621 0
M  V30 4874 C 469.804 1.7818 0.980989 0
M  V30 4875 C 470.159 0.586059 1.83257 0
M  V30 4876 O 469.452 -0.420889 1.8692 0
M  V30 4877 C 469.646 3.03891 1.88109 0
M  V30 4878 C 469.475 4.35578 1.11812 0
M  V30 4879 C 468.245 4.98497 0.826343 0
M  V30 4880 C 470.443 5.11869 0.499486 0
M  V30 4881 N 468.425 6.13888 0.0385095 0
M  V30 4882 C 469.796 6.1981 -0.153292 0
M  V30 4883 C 471.851 4.96216 0.409175 0
M  V30 4884 C 470.554 7.13801 -0.8877 0
M  V30 4885 C 472.58 5.90578 -0.311683 0
M  V30 4886 C 471.942 6.97922 -0.953129 0
M  V30 4887 H 468.041 0.704057 0.340335 0
M  V30 4888 H 470.625 1.93025 0.254855 0
M  V30 4889 H 468.796 2.90389 2.57932 0
M  V30 4890 H 470.528 3.14869 2.54244 0
M  V30 4891 H 467.283 4.59769 1.13621 0
M  V30 4892 H 467.707 6.76129 -0.343275 0
M  V30 4893 H 472.349 4.1331 0.890765 0
M  V30 4894 H 470.067 7.96214 -1.38092 0
M  V30 4895 H 473.653 5.80544 -0.382125 0
M  V30 4896 H 472.533 7.69681 -1.50203 0
M  V30 4897 N 470.036 -0.519951 1.48776 0
M  V30 4898 C 470.969 -1.64053 1.58625 0
M  V30 4899 C 471.947 -1.5664 0.43618 0
M  V30 4900 O 473.131 -1.76969 0.649159 0
M  V30 4901 C 470.258 -3.02497 1.52359 0
M  V30 4902 C 469.304 -3.28235 2.72331 0
M  V30 4903 S 470.137 -3.13414 4.34203 0
M  V30 4904 C 471.293 -4.54287 4.30551 0
M  V30 4905 H 471.526 -1.5545 2.53422 0
M  V30 4906 H 469.059 -0.703681 1.37433 0
M  V30 4907 H 471.017 -3.82336 1.4943 0
M  V30 4908 H 469.678 -3.08531 0.588824 0
M  V30 4909 H 468.871 -4.29256 2.64113 0
M  V30 4910 H 468.473 -2.56085 2.72574 0
M  V30 4911 H 470.765 -5.46006 4.01103 0
M  V30 4912 H 471.708 -4.67558 5.31785 0
M  V30 4913 H 472.116 -4.34079 3.60881 0
M  V30 4914 N 471.514 -1.37532 -0.769588 0
M  V30 4915 C 472.447 -1.27839 -1.8903 0
M  V30 4916 C 473.425 -0.158504 -1.61826 0
M  V30 4917 O 474.609 -0.333086 -1.85534 0
M  V30 4918 C 471.736 -0.977072 -3.24301 0
M  V30 4919 C 470.782 -2.11414 -3.70414 0
M  V30 4920 S 471.615 -3.73409 -3.83831 0
M  V30 4921 C 472.771 -3.45432 -5.21946 0
M  V30 4922 H 473.004 -2.22694 -1.96963 0
M  V30 4923 H 470.537 -1.2318 -0.930914 0
M  V30 4924 H 472.495 -0.810049 -4.02428 0
M  V30 4925 H 471.156 -0.0459701 -3.14066 0
M  V30 4926 H 470.349 -1.85837 -4.68488 0
M  V30 4927 H 469.951 -2.24141 -2.99394 0
M  V30 4928 H 472.243 -3.00554 -6.07185 0
M  V30 4929 H 473.186 -4.42841 -5.52537 0
M  V30 4930 H 473.594 -2.80311 -4.89986 0
M  V30 4931 N 472.992 0.995999 -1.22138 0
M  V30 4932 C 473.902 2.11985 -1.00496 0
M  V30 4933 C 474.918 1.7394 0.0457701 0
M  V30 4934 O 476.094 2.00868 -0.146273 0
M  V30 4935 C 473.159 3.41779 -0.582086 0
M  V30 4936 C 472.22 3.93943 -1.70608 0
M  V30 4937 C 471.453 5.17542 -1.30328 0
M  V30 4938 O 471.676 5.70114 -0.180743 0
M  V30 4939 O 470.61 5.63382 -2.11861 0
M  V30 4940 H 474.436 2.33123 -1.94647 0
M  V30 4941 H 472.021 1.10358 -1.00705 0
M  V30 4942 H 473.903 4.1989 -0.356467 0
M  V30 4943 H 472.578 3.22007 0.330592 0
M  V30 4944 H 471.485 3.17019 -1.98619 0
M  V30 4945 H 472.818 4.18141 -2.59651 0
M  V30 4946 N 474.47 1.03057 1.19235 0
M  V30 4947 C 475.698 0.747697 1.92917 0
M  V30 4948 C 476.113 -0.69372 1.75593 0
M  V30 4949 O 475.47 -1.47191 1.07894 0
M  V30 4950 C 475.521 1.09159 3.44625 0
M  V30 4951 O 475.242 2.47641 3.61394 0
M  V30 4952 C 476.743 0.831763 4.35427 0
M  V30 4953 H 473.963 0.273453 0.612751 0
M  V30 4954 H 476.507 1.37552 1.51327 0
M  V30 4955 H 474.662 0.508919 3.84043 0
M  V30 4956 H 475.076 2.60499 4.55237 0
M  V30 4957 H 476.55 1.12233 5.4047 0
M  V30 4958 H 477.027 -0.233769 4.38577 0
M  V30 4959 H 477.633 1.39725 4.01693 0
M  V30 4960 N 475.948 -1.35272 0.808662 0
M  V30 4961 C 476.881 -2.27595 0.165994 0
M  V30 4962 C 477.859 -1.48189 -0.669241 0
M  V30 4963 O 479.043 -1.77444 -0.636073 0
M  V30 4964 C 476.17 -3.29843 -0.769505 0
M  V30 4965 C 475.216 -4.26498 -0.0136267 0
M  V30 4966 S 476.049 -5.18878 1.32384 0
M  V30 4967 C 477.205 -6.24666 0.392838 0
M  V30 4968 H 477.438 -2.81755 0.948756 0
M  V30 4969 H 474.971 -1.42103 0.603828 0
M  V30 4970 H 476.929 -3.89247 -1.30374 0
M  V30 4971 H 475.59 -2.74558 -1.52567 0
M  V30 4972 H 474.783 -4.98769 -0.724227 0
M  V30 4973 H 474.385 -3.71274 0.450713 0
M  V30 4974 H 476.677 -6.7619 -0.4211 0
M  V30 4975 H 477.62 -6.99741 1.0848 0
M  V30 4976 H 478.028 -5.64499 -0.0123908 0
M  V30 4977 N 477.426 -0.562348 -1.47226 0
M  V30 4978 C 478.666 -0.0426374 -2.04356 0
M  V30 4979 C 479.03 1.28487 -1.42671 0
M  V30 4980 O 480.231 1.89259 -1.90878 0
M  V30 4981 C 478.502 0.0433826 -3.57374 0
M  V30 4982 S 480.061 0.508472 -4.35844 0
M  V30 4983 H 476.879 -0.0276234 -0.710463 0
M  V30 4984 H 479.481 -0.750245 -1.80531 0
M  V30 4985 H 478.185 -0.927072 -3.99792 0
M  V30 4986 H 477.716 0.774387 -3.85703 0
M  V30 4987 H 479.731 1.76719 -4.63665 0
M  V30 4988 N 478.904 1.54736 -0.299062 0
M  V30 4989 C 480.129 2.04975 0.316254 0
M  V30 4990 C 480.554 1.17501 1.46885 0
M  V30 4991 O 479.912 0.178678 1.80417 0
M  V30 4992 C 479.96 3.52672 0.751997 0
M  V30 4993 O 479.064 3.68226 1.85697 0
M  V30 4994 H 478.405 0.661126 0.0617175 0
M  V30 4995 H 480.935 1.99805 -0.440341 0
M  V30 4996 H 480.945 3.94488 1.04133 0
M  V30 4997 H 479.62 4.158 -0.0911482 0
M  V30 4998 H 478.197 3.38316 1.56834 0
M  V30 4999 N 480.382 0.0267497 1.57577 0
M  V30 5000 C 481.798 -0.32962 1.56159 0
M  V30 5001 C 481.998 -1.73059 1.03213 0
M  V30 5002 O 481.054 -2.43233 0.677804 0
M  V30 5003 C 482.367 -0.18039 3.00158 0
M  V30 5004 C 483.915 -0.253334 3.11973 0
M  V30 5005 C 484.39 -0.132921 4.57807 0
M  V30 5006 N 485.881 -0.189979 4.6281 0
M  V30 5007 C 486.616 -0.120554 5.73273 0
M  V30 5008 N 486.112 -0.000180315 6.928 0
M  V30 5009 N 487.905 -0.174369 5.61829 0
M  V30 5010 H 480.056 0.942896 1.90324 0
M  V30 5011 H 482.319 0.3639 0.875375 0
M  V30 5012 H 482.025 0.784576 3.42837 0
M  V30 5013 H 481.899 -0.951565 3.65 0
M  V30 5014 H 484.286 -1.20876 2.69208 0
M  V30 5015 H 484.367 0.548177 2.49857 0
M  V30 5016 H 484.011 0.819073 5.01252 0
M  V30 5017 H 483.941 -0.953264 5.179 0
M  V30 5018 H 486.432 -0.283257 3.76837 0
M  V30 5019 H 486.745 0.0461666 7.72786 0
M  V30 5020 H 485.09 0.034569 6.94991 0
M  V30 5021 H 488.281 -0.266794 4.67339 0
M  V30 5022 H 488.454 -0.116802 6.47895 0
M  V30 5023 N 481.861 -1.55662 -0.24637 0
M  V30 5024 C 482.808 -1.90361 -1.30504 0
M  V30 5025 C 483.778 -0.757905 -1.47801 0
M  V30 5026 O 484.963 -1.01161 -1.61775 0
M  V30 5027 C 482.103 -2.2042 -2.65535 0
M  V30 5028 C 481.216 -3.47799 -2.56242 0
M  V30 5029 C 480.351 -3.67426 -3.8363 0
M  V30 5030 C 479.39 -4.88403 -3.68956 0
M  V30 5031 N 478.527 -5.04548 -4.88237 0
M  V30 5032 H 483.367 -2.80645 -1.00213 0
M  V30 5033 H 480.904 -1.38924 -0.483577 0
M  V30 5034 H 482.862 -2.35853 -3.44135 0
M  V30 5035 H 481.492 -1.3334 -2.93973 0
M  V30 5036 H 480.544 -3.40694 -1.69208 0
M  V30 5037 H 481.856 -4.36544 -2.4131 0
M  V30 5038 H 481.01 -3.82821 -4.70673 0
M  V30 5039 H 479.749 -2.76914 -4.01459 0
M  V30 5040 H 478.754 -4.72984 -2.80296 0
M  V30 5041 H 479.979 -5.80375 -3.52621 0
M  V30 5042 H 477.925 -4.16974 -5.06427 0
M  V30 5043 H 477.842 -5.87384 -4.75937 0
M  V30 5044 H 479.11 -5.24355 -5.76777 0
M  V30 5045 N 483.339 0.512053 -1.4905 0
M  V30 5046 C 484.585 1.26613 -1.59187 0
M  V30 5047 C 484.94 1.90494 -0.270163 0
M  V30 5048 O 484.233 1.77204 0.728648 0
M  V30 5049 C 484.427 2.36446 -2.68008 0
M  V30 5050 C 484.256 1.83334 -4.10632 0
M  V30 5051 C 483.026 1.65131 -4.77556 0
M  V30 5052 C 485.224 1.35153 -4.96224 0
M  V30 5053 N 483.206 1.06833 -6.04533 0
M  V30 5054 C 484.577 0.889186 -6.13591 0
M  V30 5055 C 486.632 1.23623 -4.82309 0
M  V30 5056 C 485.335 0.322953 -7.18575 0
M  V30 5057 C 487.361 0.683978 -5.87431 0
M  V30 5058 C 486.723 0.2318 -7.04018 0
M  V30 5059 H 482.822 0.453678 -0.636946 0
M  V30 5060 H 485.406 0.575217 -1.86009 0
M  V30 5061 H 483.577 3.03012 -2.42978 0
M  V30 5062 H 485.309 3.03485 -2.67729 0
M  V30 5063 H 482.064 1.89178 -4.34176 0
M  V30 5064 H 482.488 0.796425 -6.72299 0
M  V30 5065 H 487.13 1.57184 -3.92496 0
M  V30 5066 H 484.848 -0.024943 -8.08096 0
M  V30 5067 H 488.434 0.597694 -5.78722 0
M  V30 5068 H 487.314 -0.188869 -7.83973 0
M  V30 5069 N 484.817 1.37938 0.762283 0
M  V30 5070 C 485.749 1.30349 1.88525 0
M  V30 5071 C 486.762 0.217402 1.61342 0
M  V30 5072 O 487.951 0.474291 1.72084 0
M  V30 5073 C 485.051 0.994844 3.23969 0
M  V30 5074 C 484.224 2.18829 3.78725 0
M  V30 5075 C 483.283 1.84844 4.92665 0
M  V30 5076 O 482.309 2.57244 5.07754 0
M  V30 5077 N 483.511 0.798201 5.74986 0
M  V30 5078 H 486.276 2.27114 1.95549 0
M  V30 5079 H 483.837 1.31686 0.941825 0
M  V30 5080 H 485.829 0.748168 3.97724 0
M  V30 5081 H 484.399 0.115446 3.12387 0
M  V30 5082 H 483.619 2.59615 2.96637 0
M  V30 5083 H 484.907 2.98497 4.1204 0
M  V30 5084 H 484.305 0.197611 5.65355 0
M  V30 5085 H 482.862 0.611396 6.48926 0
M  V30 5086 N 486.295 -0.989507 1.22664 0
M  V30 5087 C 487.225 -2.09847 1.02404 0
M  V30 5088 C 488.206 -1.70007 -0.0561303 0
M  V30 5089 O 489.391 -1.93906 0.106748 0
M  V30 5090 C 486.521 -3.41996 0.604663 0
M  V30 5091 C 485.475 -3.95699 1.63115 0
M  V30 5092 C 484.801 -5.23936 1.0675 0
M  V30 5093 C 486.101 -4.25999 3.02196 0
M  V30 5094 H 487.795 -2.27054 1.95158 0
M  V30 5095 H 485.341 -1.09111 0.939727 0
M  V30 5096 H 487.294 -4.1899 0.45002 0
M  V30 5097 H 486.018 -3.24626 -0.35855 0
M  V30 5098 H 484.677 -3.2084 1.77362 0
M  V30 5099 H 484.325 -5.02909 0.0955422 0
M  V30 5100 H 484.025 -5.60833 1.75328 0
M  V30 5101 H 485.549 -6.0356 0.924516 0
M  V30 5102 H 486.963 -4.93777 2.91303 0
M  V30 5103 H 485.36 -4.74076 3.67929 0
M  V30 5104 H 486.43 -3.33636 3.51873 0
M  V30 5105 N 487.773 -1.03688 -1.18687 0
M  V30 5106 C 489.021 -0.736572 -1.88199 0
M  V30 5107 C 489.342 0.737665 -1.80509 0
M  V30 5108 O 488.612 1.53204 -1.22088 0
M  V30 5109 H 487.192 -0.269466 -0.696704 0
M  V30 5110 H 489.854 -1.31282 -1.44052 0
M  V30 5111 H 488.95 -1.03802 -2.94332 0
M  V30 5112 N 489.251 1.34841 -0.815825 0
M  V30 5113 C 490.497 1.98793 -0.401129 0
M  V30 5114 C 490.83 1.64548 1.03139 0
M  V30 5115 O 490.105 0.913487 1.71714 0
M  V30 5116 C 490.388 3.55143 -0.595409 0
M  V30 5117 C 490.241 3.99155 -2.07352 0
M  V30 5118 C 491.56 4.40092 -0.0268823 0
M  V30 5119 H 488.679 0.722146 -0.14722 0
M  V30 5120 H 491.321 1.59847 -1.02707 0
M  V30 5121 H 489.471 3.8845 -0.0625779 0
M  V30 5122 H 491.143 3.76216 -2.66945 0
M  V30 5123 H 489.386 3.49726 -2.56659 0
M  V30 5124 H 490.057 5.07971 -2.1603 0
M  V30 5125 H 492.533 4.13298 -0.482042 0
M  V30 5126 H 491.409 5.48562 -0.19267 0
M  V30 5127 H 491.67 4.29016 1.06759 0
M  V30 5128 N 490.729 0.570148 1.46925 0
M  V30 5129 C 491.692 -0.159933 2.28641 0
M  V30 5130 C 492.692 -0.830638 1.37685 0
M  V30 5131 O 493.882 -0.684516 1.60187 0
M  V30 5132 C 491.014 -1.2354 3.17727 0
M  V30 5133 H 492.207 0.558035 2.94662 0
M  V30 5134 H 489.76 0.327603 1.52828 0
M  V30 5135 H 490.495 -1.98535 2.56426 0
M  V30 5136 H 490.28 -0.759125 3.84681 0
M  V30 5137 H 491.77 -1.74782 3.79264 0
M  V30 5138 N 492.207 -1.54576 0.307264 0
M  V30 5139 C 493.454 -2.00263 -0.300167 0
M  V30 5140 C 493.782 -1.19561 -1.53413 0
M  V30 5141 O 493.037 -0.261487 -1.93945 0
M  V30 5142 C 493.336 -3.50572 -0.695253 0
M  V30 5143 C 493.002 -4.48771 0.437679 0
M  V30 5144 C 491.664 -4.7534 0.748681 0
M  V30 5145 C 494.016 -5.0721 1.19949 0
M  V30 5146 C 491.344 -5.5761 1.8245 0
M  V30 5147 C 493.696 -5.90651 2.26527 0
M  V30 5148 C 492.36 -6.15528 2.58227 0
M  V30 5149 H 491.63 -0.732814 -0.109839 0
M  V30 5150 H 494.277 -1.86664 0.427661 0
M  V30 5151 H 492.582 -3.61814 -1.50326 0
M  V30 5152 H 494.279 -3.83352 -1.17653 0
M  V30 5153 H 490.869 -4.282 0.185187 0
M  V30 5154 H 495.053 -4.86679 0.972474 0
M  V30 5155 H 490.309 -5.75121 2.07476 0
M  V30 5156 H 494.483 -6.34957 2.86011 0
M  V30 5157 H 492.11 -6.79066 3.4172 0
M  V30 5158 N 493.685 -0.035106 -1.57561 0
M  V30 5159 C 494.615 0.942993 -2.13612 0
M  V30 5160 C 495.596 1.33531 -1.05373 0
M  V30 5161 O 496.781 1.41287 -1.33235 0
M  V30 5162 C 493.911 2.22332 -2.66807 0
M  V30 5163 C 492.865 1.97156 -3.79886 0
M  V30 5164 C 492.191 3.31506 -4.19533 0
M  V30 5165 C 493.491 1.30596 -5.05709 0
M  V30 5166 H 495.185 0.476179 -2.95589 0
M  V30 5167 H 492.731 0.227602 -1.4219 0
M  V30 5168 H 494.684 2.91142 -3.04654 0
M  V30 5169 H 493.408 2.7119 -1.81999 0
M  V30 5170 H 492.067 1.30763 -3.42486 0
M  V30 5171 H 491.715 3.78134 -3.31698 0
M  V30 5172 H 491.415 3.15465 -4.95738 0
M  V30 5173 H 492.939 4.01574 -4.59968 0
M  V30 5174 H 494.353 1.89416 -5.41105 0
M  V30 5175 H 492.75 1.24934 -5.86951 0
M  V30 5176 H 493.82 0.279742 -4.84092 0
M  V30 5177 N 495.163 1.55791 0.238111 0
M  V30 5178 C 496.574 1.68383 0.806472 0
M  V30 5179 C 496.925 0.634157 1.85669 0
M  V30 5180 O 496.05 -0.217913 2.153 0
M  V30 5181 C 496.645 3.05268 1.46959 0
M  V30 5182 C 495.204 3.1977 1.98555 0
M  V30 5183 C 494.351 2.64279 0.839763 0
M  V30 5184 H 497.302 1.58694 0.0137535 0
M  V30 5185 H 497.323 3.00203 2.33792 0
M  V30 5186 H 496.835 3.81643 0.704993 0
M  V30 5187 H 494.936 2.48234 2.77868 0
M  V30 5188 H 495.049 4.26788 2.17689 0
M  V30 5189 H 493.413 2.22329 1.24265 0
M  V30 5190 H 494.196 3.43187 0.0881032 0
M  V30 5191 N 496.642 -0.504142 1.49319 0
M  V30 5192 C 497.605 -1.5883 1.65244 0
M  V30 5193 C 498.605 -1.52009 0.524386 0
M  V30 5194 O 499.795 -1.55218 0.79077 0
M  V30 5195 C 496.927 -2.98481 1.64687 0
M  V30 5196 H 498.12 -1.4604 2.61939 0
M  V30 5197 H 495.673 -0.728144 1.38303 0
M  V30 5198 H 496.408 -3.16751 0.695644 0
M  V30 5199 H 496.193 -3.0484 2.46607 0
M  V30 5200 H 497.683 -3.77256 1.79075 0
M  V30 5201 N 498.12 -1.38341 -0.754957 0
M  V30 5202 C 499.345 -1.37882 -1.5493 0
M  V30 5203 C 499.77 0.0296385 -1.88077 0
M  V30 5204 O 499.128 1.01133 -1.50472 0
M  V30 5205 C 499.176 -2.23996 -2.82592 0
M  V30 5206 O 498.28 -1.65612 -3.77686 0
M  V30 5207 H 497.621 -0.470384 -0.468652 0
M  V30 5208 H 500.151 -1.82084 -0.933082 0
M  V30 5209 H 500.161 -2.37806 -3.3153 0
M  V30 5210 H 498.836 -3.26365 -2.57796 0
M  V30 5211 H 497.413 -1.60936 -3.36384 0
M  V30 5212 N 499.598 0.982988 -1.23187 0
M  V30 5213 C 500.847 1.71817 -1.05649 0
M  V30 5214 C 501.16 1.91315 0.407176 0
M  V30 5215 O 502.366 2.62256 0.702436 0
M  V30 5216 C 500.822 3.09188 -1.84203 0
M  V30 5217 C 500.43 2.97586 -3.34882 0
M  V30 5218 C 502.174 3.86684 -1.75146 0
M  V30 5219 C 500.081 4.30173 -4.05839 0
M  V30 5220 H 499.011 0.644258 -0.391724 0
M  V30 5221 H 501.662 1.09659 -1.4713 0
M  V30 5222 H 500.044 3.72087 -1.35527 0
M  V30 5223 H 501.218 2.43793 -3.91026 0
M  V30 5224 H 499.533 2.33567 -3.44725 0
M  V30 5225 H 502.13 4.84836 -2.25473 0
M  V30 5226 H 502.473 4.10136 -0.713737 0
M  V30 5227 H 503.006 3.30482 -2.21419 0
M  V30 5228 H 499.745 4.11918 -5.09906 0
M  V30 5229 H 499.265 4.83841 -3.54482 0
M  V30 5230 H 500.944 4.98873 -4.11989 0
M  V30 5231 N 501.076 1.04316 1.18135 0
M  V30 5232 C 502.301 0.768047 1.92655 0
M  V30 5233 C 502.726 -0.66904 1.758 0
M  V30 5234 O 502.084 -1.46372 1.06981 0
M  V30 5235 C 502.132 1.14239 3.42026 0
M  V30 5236 O 501.236 0.269333 4.1152 0
M  V30 5237 H 500.577 0.282436 0.600937 0
M  V30 5238 H 503.107 1.39367 1.49793 0
M  V30 5239 H 503.117 1.10538 3.92741 0
M  V30 5240 H 501.792 2.18928 3.53615 0
M  V30 5241 H 500.369 0.366175 3.71098 0
M  V30 5242 N 502.554 -1.34406 0.822964 0
M  V30 5243 C 503.784 -2.02214 0.423424 0
M  V30 5244 C 504.192 -1.62124 -0.975322 0
M  V30 5245 O 503.535 -0.822452 -1.6426 0
M  V30 5246 C 503.597 -3.56721 0.446107 0
M  V30 5247 C 503.261 -4.20136 1.79819 0
M  V30 5248 C 504.258 -4.4065 2.75904 0
M  V30 5249 C 501.943 -4.56906 2.08669 0
M  V30 5250 C 503.937 -4.9706 3.99012 0
M  V30 5251 C 501.624 -5.13026 3.32036 0
M  V30 5252 C 502.622 -5.33047 4.27024 0
M  V30 5253 O 502.31 -5.87979 5.48211 0
M  V30 5254 H 502.042 -0.654748 0.168169 0
M  V30 5255 H 504.596 -1.72659 1.11257 0
M  V30 5256 H 502.826 -3.85537 -0.299734 0
M  V30 5257 H 504.515 -4.05845 0.0666114 0
M  V30 5258 H 505.281 -4.12607 2.54912 0
M  V30 5259 H 501.16 -4.40626 1.35535 0
M  V30 5260 H 504.704 -5.12603 4.73164 0
M  V30 5261 H 500.601 -5.40498 3.52891 0
M  V30 5262 H 501.369 -6.06413 5.49732 0
M  V30 5263 N 504.032 -0.577932 -1.46621 0
M  V30 5264 C 504.962 0.145917 -2.33044 0
M  V30 5265 C 505.943 0.888412 -1.45056 0
M  V30 5266 O 507.128 0.864812 -1.73881 0
M  V30 5267 C 504.258 1.16322 -3.27241 0
M  V30 5268 C 503.212 0.535868 -4.24632 0
M  V30 5269 C 502.538 1.65929 -5.08303 0
M  V30 5270 C 503.838 -0.523861 -5.19666 0
M  V30 5271 H 505.532 -0.575636 -2.93814 0
M  V30 5272 H 503.078 -0.278272 -1.41286 0
M  V30 5273 H 505.031 1.67793 -3.86553 0
M  V30 5274 H 503.755 1.91498 -2.64567 0
M  V30 5275 H 502.414 0.0422759 -3.66576 0
M  V30 5276 H 502.062 2.40061 -4.42018 0
M  V30 5277 H 501.762 1.2452 -5.74255 0
M  V30 5278 H 503.286 2.17686 -5.70478 0
M  V30 5279 H 504.7 -0.0944059 -5.73222 0
M  V30 5280 H 503.097 -0.858 -5.93935 0
M  V30 5281 H 504.167 -1.41197 -4.63887 0
M  V30 5282 N 505.51 1.54411 -0.315457 0
M  V30 5283 C 506.759 1.99599 0.290395 0
M  V30 5284 C 507.072 1.20746 1.53882 0
M  V30 5285 O 508.278 1.56272 2.22017 0
M  V30 5286 C 506.734 3.5539 0.56797 0
M  V30 5287 C 506.342 4.43068 -0.662945 0
M  V30 5288 C 508.086 4.09067 1.13422 0
M  V30 5289 C 505.993 5.90317 -0.357722 0
M  V30 5290 H 504.923 0.745592 0.112286 0
M  V30 5291 H 507.574 1.78477 -0.426418 0
M  V30 5292 H 505.956 3.72468 1.34476 0
M  V30 5293 H 507.13 4.37765 -1.43869 0
M  V30 5294 H 505.445 4.00238 -1.14884 0
M  V30 5295 H 508.042 5.16663 1.37707 0
M  V30 5296 H 508.385 3.60552 2.08106 0
M  V30 5297 H 508.918 3.95589 0.418805 0
M  V30 5298 H 505.657 6.4301 -1.27351 0
M  V30 5299 H 505.177 5.98592 0.380472 0
M  V30 5300 H 506.856 6.4699 0.0354284 0
M  V30 5301 N 506.988 0.0434614 1.5754 0
M  V30 5302 C 508.236 -0.630786 1.92004 0
M  V30 5303 C 508.557 -1.71836 0.921807 0
M  V30 5304 O 507.827 -1.9587 -0.034522 0
M  V30 5305 H 506.407 -0.235988 0.708745 0
M  V30 5306 H 509.069 0.0946462 1.9467 0
M  V30 5307 H 508.165 -1.07434 2.93026 0
M  V30 5308 N 508.466 -1.55915 -0.229846 0
M  V30 5309 C 509.694 -1.82617 -0.972562 0
M  V30 5310 C 510.109 -0.621488 -1.78278 0
M  V30 5311 O 509.466 0.409956 -1.77836 0
M  V30 5312 C 509.517 -3.0774 -1.89679 0
M  V30 5313 O 509.238 -4.23559 -1.11934 0
M  V30 5314 C 510.739 -3.47368 -2.75409 0
M  V30 5315 H 507.959 -0.60727 -0.285419 0
M  V30 5316 H 510.503 -2.02996 -0.247579 0
M  V30 5317 H 508.658 -2.89361 -2.57583 0
M  V30 5318 H 509.072 -4.94586 -1.74599 0
M  V30 5319 H 510.546 -4.37977 -3.35977 0
M  V30 5320 H 511.023 -2.68737 -3.47386 0
M  V30 5321 H 511.629 -3.68158 -2.12931 0
M  V30 5322 N 509.944 0.496216 -1.49584 0
M  V30 5323 C 510.892 1.61805 -1.67098 0
M  V30 5324 C 511.886 1.60667 -0.536877 0
M  V30 5325 O 513.092 1.65118 -0.716654 0
M  V30 5326 H 509.467 0.53646 -0.526986 0
M  V30 5327 H 511.438 1.44187 -2.61252 0
M  V30 5328 C 510.187 2.99912 -1.75921 0
M  V30 5329 H 509.51 3.01496 -2.62565 0
M  V30 5330 H 510.95 3.77931 -1.92209 0
M  V30 5331 C 509.409 3.33092 -0.505088 0
M  V30 5332 O 509.939 4.00019 0.367085 0
M  V30 5333 N 508.145 2.88278 -0.366599 0
M  V30 5334 H 507.692 2.33989 -1.07735 0
M  V30 5335 H 507.65 3.10846 0.47142 0
M  V30 5336 N 511.423 1.38739 0.74761 0
M  V30 5337 C 512.672 1.3459 1.50228 0
M  V30 5338 C 512.985 -0.0595592 1.95509 0
M  V30 5339 O 514.191 -0.22361 2.70578 0
M  V30 5340 C 512.647 2.36377 2.71393 0
M  V30 5341 C 512.255 3.82573 2.33113 0
M  V30 5342 C 513.999 2.41281 3.49262 0
M  V30 5343 C 511.906 4.76032 3.50924 0
M  V30 5344 H 510.836 0.500312 0.564096 0
M  V30 5345 H 513.487 1.64324 0.8167 0
M  V30 5346 H 511.869 1.99694 3.41962 0
M  V30 5347 H 513.043 4.28227 1.70171 0
M  V30 5348 H 511.358 3.80844 1.68365 0
M  V30 5349 H 513.955 3.08301 4.36869 0
M  V30 5350 H 514.298 1.43353 3.9084 0
M  V30 5351 H 514.831 2.76793 2.85711 0
M  V30 5352 H 511.57 5.75177 3.14408 0
M  V30 5353 H 511.09 4.35066 4.12889 0
M  V30 5354 H 512.769 4.94331 4.17427 0
M  V30 5355 N 512.901 -0.976442 1.23707 0
M  V30 5356 C 514.148 -1.71827 1.07153 0
M  V30 5357 C 514.476 -1.9053 -0.390982 0
M  V30 5358 O 513.731 -1.45779 -1.30564 0
M  V30 5359 C 514.03 -3.11814 1.74662 0
M  V30 5360 C 513.696 -3.12978 3.24585 0
M  V30 5361 C 512.358 -3.13003 3.6549 0
M  V30 5362 C 514.71 -3.07986 4.20469 0
M  V30 5363 C 512.038 -3.05757 5.00729 0
M  V30 5364 C 514.39 -3.02282 5.55705 0
M  V30 5365 C 513.054 -3.00631 5.95968 0
M  V30 5366 H 512.324 -0.628758 0.392102 0
M  V30 5367 H 514.971 -1.14239 1.53693 0
M  V30 5368 H 513.276 -3.72812 1.20492 0
M  V30 5369 H 514.973 -3.67989 1.59328 0
M  V30 5370 H 511.563 -3.13718 2.92026 0
M  V30 5371 H 515.747 -3.07103 3.89874 0
M  V30 5372 H 511.003 -3.02834 5.31132 0
M  V30 5373 H 515.177 -2.97376 6.29714 0
M  V30 5374 H 512.804 -2.94771 7.00724 0
M  V30 5375 N 514.379 -1.04941 -1.1758 0
M  V30 5376 C 515.627 -0.756492 -1.87408 0
M  V30 5377 C 515.948 0.718478 -1.81281 0
M  V30 5378 O 515.218 1.519 -1.23706 0
M  V30 5379 H 513.798 -0.276841 -0.693807 0
M  V30 5380 H 516.46 -1.32803 -1.42652 0
M  V30 5381 H 515.556 -1.06918 -2.93215 0
M  V30 5382 N 515.857 1.33968 -0.830081 0
M  V30 5383 C 517.106 1.97323 -0.417928 0
M  V30 5384 C 517.419 1.6652 1.02618 0
M  V30 5385 O 518.625 2.2342 1.54259 0
M  V30 5386 C 517.081 3.53099 -0.696359 0
M  V30 5387 C 516.689 3.92788 -2.15457 0
M  V30 5388 C 518.433 4.23049 -0.350724 0
M  V30 5389 C 516.34 5.41506 -2.37751 0
M  V30 5390 H 515.27 0.738409 -0.152541 0
M  V30 5391 H 517.921 1.52711 -1.01744 0
M  V30 5392 H 516.303 3.95991 -0.0265904 0
M  V30 5393 H 517.477 3.6098 -2.86408 0
M  V30 5394 H 515.792 3.35795 -2.46232 0
M  V30 5395 H 518.389 5.32403 -0.495036 0
M  V30 5396 H 518.732 4.10279 0.705476 0
M  V30 5397 H 519.265 3.85657 -0.975362 0
M  V30 5398 H 516.004 5.5927 -3.41903 0
M  V30 5399 H 515.524 5.74804 -1.7135 0
M  V30 5400 H 517.203 6.0828 -2.20465 0
M  V30 5401 N 517.335 0.585699 1.46312 0
M  V30 5402 C 518.265 -0.133556 2.33118 0
M  V30 5403 C 519.246 -0.880707 1.45525 0
M  V30 5404 O 520.431 -0.855579 1.74337 0
M  V30 5405 C 517.561 -1.14585 3.27853 0
M  V30 5406 C 516.515 -0.513341 4.2491 0
M  V30 5407 C 515.841 -1.63231 5.09175 0
M  V30 5408 C 517.141 0.551413 5.19381 0
M  V30 5409 H 518.835 0.59121 2.93505 0
M  V30 5410 H 516.381 0.285761 1.41136 0
M  V30 5411 H 518.334 -1.65741 3.87438 0
M  V30 5412 H 517.058 -1.90093 2.65579 0
M  V30 5413 H 515.717 -0.0228349 3.66593 0
M  V30 5414 H 515.365 -2.37713 4.43285 0
M  V30 5415 H 515.065 -1.21473 5.74907 0
M  V30 5416 H 516.589 -2.14658 5.71624 0
M  V30 5417 H 518.003 0.124804 5.73164 0
M  V30 5418 H 516.4 0.889486 5.93471 0
M  V30 5419 H 517.47 1.43655 4.63132 0
M  V30 5420 N 518.813 -1.54241 0.323641 0
M  V30 5421 C 519.776 -2.22997 -0.529602 0
M  V30 5422 C 520.776 -1.22345 -1.04347 0
M  V30 5423 O 521.966 -1.46924 -0.935889 0
M  V30 5424 C 519.098 -2.93409 -1.73562 0
M  V30 5425 H 520.291 -2.99815 0.0714518 0
M  V30 5426 H 517.844 -1.56121 0.0747258 0
M  V30 5427 H 518.579 -2.20729 -2.37591 0
M  V30 5428 H 518.364 -3.67217 -1.37456 0
M  V30 5429 H 519.854 -3.45794 -2.34128 0
M  V30 5430 N 520.291 -0.0518155 -1.57515 0
M  V30 5431 C 521.241 0.932017 -2.0808 0
M  V30 5432 C 522.225 1.27141 -0.986098 0
M  V30 5433 O 523.417 1.25373 -1.24943 0
M  V30 5434 C 520.546 2.20665 -2.62986 0
M  V30 5435 C 519.632 1.89462 -3.79427 0
M  V30 5436 N 520.023 1.28621 -4.89173 0
M  V30 5437 C 518.321 2.19327 -3.88345 0
M  V30 5438 C 519.022 1.15062 -5.70207 0
M  V30 5439 N 517.998 1.65372 -5.17835 0
M  V30 5440 H 521.8 0.456964 -2.90326 0
M  V30 5441 H 519.314 0.152619 -1.61681 0
M  V30 5442 H 521.311 2.92044 -2.97516 0
M  V30 5443 H 519.971 2.68776 -1.8218 0
M  V30 5444 H 520.982 0.958341 -5.08956 0
M  V30 5445 H 517.659 2.69955 -3.18482 0
M  V30 5446 H 519.049 0.678243 -6.68468 0
M  V30 5447 N 521.769 1.56035 0.221574 0
M  V30 5448 C 522.716 1.92413 1.27459 0
M  V30 5449 C 523.686 0.781323 1.46576 0
M  V30 5450 O 524.871 1.03721 1.60145 0
M  V30 5451 C 522.011 2.24617 2.61995 0
M  V30 5452 C 521.124 3.51831 2.50677 0
M  V30 5453 C 520.259 3.73482 3.77736 0
M  V30 5454 C 519.298 4.94211 3.6114 0
M  V30 5455 N 518.435 5.12252 4.80148 0
M  V30 5456 H 523.275 2.82203 0.957355 0
M  V30 5457 H 520.812 1.39676 0.461415 0
M  V30 5458 H 522.77 2.41298 3.40339 0
M  V30 5459 H 521.4 1.38 2.91815 0
M  V30 5460 H 520.452 3.43343 1.63767 0
M  V30 5461 H 521.764 4.40328 2.34334 0
M  V30 5462 H 520.918 3.9026 4.64523 0
M  V30 5463 H 519.657 2.83266 3.97003 0
M  V30 5464 H 518.662 4.77384 2.72736 0
M  V30 5465 H 519.887 5.85912 3.43343 0
M  V30 5466 H 517.833 4.24978 4.99729 0
M  V30 5467 H 517.75 5.94881 4.66532 0
M  V30 5468 H 519.018 5.33465 5.68362 0
M  V30 5469 N 523.247 -0.488276 1.49845 0
M  V30 5470 C 524.18 -1.60651 1.62069 0
M  V30 5471 C 525.158 -1.5568 0.469308 0
M  V30 5472 O 526.342 -1.75553 0.686551 0
M  V30 5473 C 523.469 -2.99197 1.58741 0
M  V30 5474 C 522.515 -3.22385 2.79232 0
M  V30 5475 S 523.348 -3.04133 4.40753 0
M  V30 5476 C 524.504 -4.45052 4.4009 0
M  V30 5477 H 524.737 -1.50039 2.56662 0
M  V30 5478 H 522.27 -0.674371 1.38894 0
M  V30 5479 H 524.228 -3.79081 1.57506 0
M  V30 5480 H 522.889 -3.07213 0.654136 0
M  V30 5481 H 522.082 -4.23557 2.73159 0
M  V30 5482 H 521.684 -2.50245 2.77945 0
M  V30 5483 H 523.976 -5.37375 4.12594 0
M  V30 5484 H 524.919 -4.56172 5.41583 0
M  V30 5485 H 525.327 -4.26327 3.70008 0
M  V30 5486 N 524.725 -1.39134 -0.740242 0
M  V30 5487 C 525.973 -1.35803 -1.49673 0
M  V30 5488 C 526.294 0.0470897 -1.94943 0
M  V30 5489 O 525.564 0.997347 -1.68611 0
M  V30 5490 H 524.144 -0.499736 -0.555224 0
M  V30 5491 H 526.806 -1.73947 -0.879107 0
M  V30 5492 H 525.902 -2.0174 -2.38133 0
M  V30 5493 N 526.204 0.969867 -1.24223 0
M  V30 5494 C 527.62 1.23809 -1.00716 0
M  V30 5495 C 527.82 1.99469 0.285358 0
M  V30 5496 O 526.876 2.31764 1.00207 0
M  V30 5497 C 528.189 2.02734 -2.2208 0
M  V30 5498 C 529.737 2.15834 -2.26681 0
M  V30 5499 C 530.212 2.98154 -3.47661 0
M  V30 5500 N 531.703 3.05737 -3.47964 0
M  V30 5501 C 532.438 3.69785 -4.38231 0
M  V30 5502 N 531.934 4.35569 -5.3875 0
M  V30 5503 N 533.727 3.66775 -4.25949 0
M  V30 5504 H 525.878 0.463294 -2.07286 0
M  V30 5505 H 528.141 0.267348 -0.909521 0
M  V30 5506 H 527.847 1.54524 -3.15935 0
M  V30 5507 H 527.721 3.0347 -2.24021 0
M  V30 5508 H 530.108 2.63248 -1.33359 0
M  V30 5509 H 530.189 1.14453 -2.28767 0
M  V30 5510 H 529.833 2.51435 -4.41297 0
M  V30 5511 H 529.763 3.99729 -3.42818 0
M  V30 5512 H 532.254 2.58941 -2.75242 0
M  V30 5513 H 532.567 4.82251 -6.03866 0
M  V30 5514 H 530.912 4.34244 -5.42639 0
M  V30 5515 H 534.103 3.14558 -3.46657 0
M  V30 5516 H 534.276 4.16407 -4.96497 0
M  V30 5517 N 527.682 1.05563 1.17022 0
M  V30 5518 C 528.928 0.778872 1.87897 0
M  V30 5519 C 529.283 -0.686839 1.79723 0
M  V30 5520 O 528.576 -1.49612 1.19694 0
M  V30 5521 C 528.77 1.19849 3.36706 0
M  V30 5522 C 528.599 2.70345 3.59366 0
M  V30 5523 C 527.369 3.37707 3.75875 0
M  V30 5524 C 529.567 3.68564 3.58699 0
M  V30 5525 N 527.549 4.7703 3.86414 0
M  V30 5526 C 528.92 4.93634 3.75134 0
M  V30 5527 C 530.975 3.6198 3.4187 0
M  V30 5528 C 529.678 6.12907 3.76481 0
M  V30 5529 C 531.704 4.80697 3.44507 0
M  V30 5530 C 531.066 6.04592 3.61453 0
M  V30 5531 H 527.165 0.337297 0.705517 0
M  V30 5532 H 529.749 1.34832 1.40458 0
M  V30 5533 H 527.92 0.656958 3.82804 0
M  V30 5534 H 529.652 0.871172 3.95212 0
M  V30 5535 H 526.407 2.88108 3.75887 0
M  V30 5536 H 526.831 5.49483 3.95471 0
M  V30 5537 H 531.473 2.67154 3.27702 0
M  V30 5538 H 529.191 7.08073 3.89432 0
M  V30 5539 H 532.777 4.77259 3.32738 0
M  V30 5540 H 531.657 6.94916 3.63403 0
M  V30 5541 N 529.16 -1.33526 0.837174 0
M  V30 5542 C 530.09 -2.31764 0.284206 0
M  V30 5543 C 531.071 -1.58896 -0.607142 0
M  V30 5544 O 532.256 -1.86798 -0.531047 0
M  V30 5545 C 529.386 -3.43029 -0.542962 0
M  V30 5546 C 528.34 -4.27255 0.252451 0
M  V30 5547 C 527.666 -5.3012 -0.69836 0
M  V30 5548 C 528.966 -5.01229 1.46858 0
M  V30 5549 H 530.66 -2.78262 1.10502 0
M  V30 5550 H 528.206 -1.3378 0.532812 0
M  V30 5551 H 530.159 -4.1078 -0.940096 0
M  V30 5552 H 528.883 -2.95216 -1.39697 0
M  V30 5553 H 527.542 -3.61127 0.631124 0
M  V30 5554 H 527.19 -4.78564 -1.54872 0
M  V30 5555 H 526.89 -5.87353 -0.170274 0
M  V30 5556 H 528.414 -6.00737 -1.09305 0
M  V30 5557 H 529.828 -5.61756 1.14469 0
M  V30 5558 H 528.225 -5.68104 1.93333 0
M  V30 5559 H 529.295 -4.301 2.23924 0
M  V30 5560 N 530.638 -0.59345 -1.46 0
M  V30 5561 C 531.878 -0.0859747 -2.04219 0
M  V30 5562 C 532.242 1.25432 -1.45364 0
M  V30 5563 O 533.443 1.85168 -1.9485 0
M  V30 5564 C 531.714 -0.0324314 -3.57385 0
M  V30 5565 S 533.273 0.415908 -4.36824 0
M  V30 5566 H 530.091 -0.0426872 -0.709717 0
M  V30 5567 H 532.693 -0.788369 -1.78899 0
M  V30 5568 H 531.397 -1.01166 -3.97735 0
M  V30 5569 H 530.928 0.6924 -3.87259 0
M  V30 5570 H 532.943 1.66844 -4.67309 0
M  V30 5571 N 532.116 1.54067 -0.331816 0
M  V30 5572 C 533.079 2.23275 0.517768 0
M  V30 5573 C 534.079 1.22897 1.03697 0
M  V30 5574 O 535.269 1.47419 0.928084 0
M  V30 5575 C 532.401 2.94326 1.72004 0
M  V30 5576 H 533.594 2.99773 -0.0873507 0
M  V30 5577 H 531.147 1.56079 -0.0830042 0
M  V30 5578 H 531.882 2.21986 2.36417 0
M  V30 5579 H 531.667 3.67941 1.35507 0
M  V30 5580 H 533.157 3.47031 2.32291 0
M  V30 5581 N 533.594 0.0601682 1.57485 0
M  V30 5582 C 534.524 -0.90889 2.15085 0
M  V30 5583 C 535.505 -1.31838 1.07484 0
M  V30 5584 O 536.69 -1.3915 1.35466 0
M  V30 5585 C 533.82 -2.18059 2.7031 0
M  V30 5586 C 532.774 -1.91088 3.82974 0
M  V30 5587 C 532.1 -3.24789 4.24754 0
M  V30 5588 C 533.4 -1.22535 5.07723 0
M  V30 5589 H 535.094 -0.429093 2.96309 0
M  V30 5590 H 532.64 -0.204952 1.42534 0
M  V30 5591 H 534.593 -2.86258 3.09248 0
M  V30 5592 H 533.317 -2.6826 1.8629 0
M  V30 5593 H 531.976 -1.25297 3.44523 0
M  V30 5594 H 531.624 -3.72809 3.37672 0
M  V30 5595 H 531.324 -3.07538 5.00694 0
M  V30 5596 H 532.848 -3.94205 4.66299 0
M  V30 5597 H 534.262 -1.80783 5.4405 0
M  V30 5598 H 532.659 -1.1558 5.88864 0
M  V30 5599 H 533.729 -0.202692 4.84476 0
M  V30 5600 N 535.072 -1.5615 -0.213296 0
M  V30 5601 C 536.002 -1.96109 -1.26742 0
M  V30 5602 C 536.983 -0.830448 -1.48451 0
M  V30 5603 O 538.168 -1.09339 -1.60495 0
M  V30 5604 C 535.298 -2.28492 -2.61551 0
M  V30 5605 C 534.252 -3.44124 -2.54485 0
M  V30 5606 C 533.578 -3.62134 -3.93399 0
M  V30 5607 C 534.878 -4.78855 -2.08556 0
M  V30 5608 H 536.572 -2.84412 -0.935434 0
M  V30 5609 H 534.118 -1.36836 -0.44854 0
M  V30 5610 H 536.071 -2.55039 -3.3546 0
M  V30 5611 H 534.795 -1.37052 -2.96453 0
M  V30 5612 H 533.454 -3.17639 -1.83033 0
M  V30 5613 H 533.102 -2.68055 -4.25623 0
M  V30 5614 H 532.802 -4.39913 -3.89551 0
M  V30 5615 H 534.326 -3.91038 -4.68958 0
M  V30 5616 H 535.74 -5.04552 -2.72213 0
M  V30 5617 H 534.137 -5.59975 -2.1575 0
M  V30 5618 H 535.207 -4.73657 -1.03811 0
M  V30 5619 N 536.55 0.480323 -1.50102 0
M  V30 5620 C 537.798 1.23063 -1.60312 0
M  V30 5621 C 538.119 1.92659 -0.301226 0
M  V30 5622 O 537.389 1.83691 0.680753 0
M  V30 5623 H 535.969 0.457231 -0.590719 0
M  V30 5624 H 538.631 0.554893 -1.86834 0
M  V30 5625 H 537.727 1.9835 -2.40964 0
M  V30 5626 N 538.028 1.39524 0.732853 0
M  V30 5627 C 538.961 1.32806 1.85574 0
M  V30 5628 C 539.939 0.201354 1.61348 0
M  V30 5629 O 541.123 0.38216 1.84585 0
M  V30 5630 C 538.25 1.06271 3.21596 0
M  V30 5631 C 537.296 2.21161 3.64678 0
M  V30 5632 S 538.129 3.83454 3.73796 0
M  V30 5633 C 539.285 3.59149 5.12604 0
M  V30 5634 H 539.518 2.27838 1.9099 0
M  V30 5635 H 537.051 1.25605 0.897927 0
M  V30 5636 H 539.009 0.916461 4.00139 0
M  V30 5637 H 537.67 0.129223 3.13834 0
M  V30 5638 H 536.863 1.98193 4.63396 0
M  V30 5639 H 536.465 2.32 2.93346 0
M  V30 5640 H 538.757 3.16547 5.99003 0
M  V30 5641 H 539.7 4.57335 5.40602 0
M  V30 5642 H 540.108 2.93203 4.82382 0
M  V30 5643 N 539.506 -0.963266 1.24736 0
M  V30 5644 C 540.755 -1.70115 1.08369 0
M  V30 5645 C 541.068 -1.91939 -0.376688 0
M  V30 5646 O 542.274 -2.6334 -0.660624 0
M  V30 5647 C 540.73 -3.06218 1.89099 0
M  V30 5648 C 540.338 -2.92221 3.39574 0
M  V30 5649 C 542.082 -3.83848 1.81275 0
M  V30 5650 C 539.989 -4.23662 4.12631 0
M  V30 5651 H 538.919 -0.637944 0.401924 0
M  V30 5652 H 541.57 -1.07304 1.48856 0
M  V30 5653 H 539.952 -3.69884 1.41429 0
M  V30 5654 H 541.126 -2.37541 3.94856 0
M  V30 5655 H 539.441 -2.28054 3.48397 0
M  V30 5656 H 542.038 -4.81188 2.33158 0
M  V30 5657 H 542.381 -4.08949 0.778895 0
M  V30 5658 H 542.914 -3.26918 2.26649 0
M  V30 5659 H 539.653 -4.03753 5.16395 0
M  V30 5660 H 539.173 -4.78141 3.62135 0
M  V30 5661 H 540.852 -4.92256 4.19873 0
M  V30 5662 N 540.985 -1.06182 -1.16461 0
M  V30 5663 C 542.234 -0.772927 -1.86303 0
M  V30 5664 C 542.547 0.703187 -1.82523 0
M  V30 5665 O 543.753 1.10641 -2.47933 0
M  V30 5666 C 542.209 -1.33249 -3.34324 0
M  V30 5667 C 541.817 -2.83876 -3.46581 0
M  V30 5668 C 543.561 -1.12108 -4.09429 0
M  V30 5669 C 541.468 -3.33082 -4.88682 0
M  V30 5670 H 540.398 -0.285452 -0.697878 0
M  V30 5671 H 543.049 -1.28039 -1.31447 0
M  V30 5672 H 541.431 -0.7528 -3.88779 0
M  V30 5673 H 542.605 -3.47786 -3.02293 0
M  V30 5674 H 540.92 -3.03671 -2.84909 0
M  V30 5675 H 543.517 -1.46361 -5.14279 0
M  V30 5676 H 543.86 -0.0593832 -4.16258 0
M  V30 5677 H 544.393 -1.6665 -3.6121 0
M  V30 5678 H 541.132 -4.38726 -4.87032 0
M  V30 5679 H 540.652 -2.73919 -5.33599 0
M  V30 5680 H 542.331 -3.28344 -5.57494 0
M  V30 5681 N 542.463 1.3308 -0.844243 0
M  V30 5682 C 543.709 1.97898 -0.443206 0
M  V30 5683 C 544.042 1.66699 0.99625 0
M  V30 5684 O 543.317 0.949704 1.69738 0
M  V30 5685 C 543.6 3.53801 -0.670606 0
M  V30 5686 C 543.453 3.94667 -2.15772 0
M  V30 5687 C 544.772 4.39936 -0.120226 0
M  V30 5688 H 541.891 0.718861 -0.162504 0
M  V30 5689 H 544.533 1.57633 -1.06075 0
M  V30 5690 H 542.683 3.88229 -0.14496 0
M  V30 5691 H 544.355 3.70469 -2.74865 0
M  V30 5692 H 542.598 3.44203 -2.6402 0
M  V30 5693 H 543.269 5.03275 -2.26757 0
M  V30 5694 H 545.745 4.12183 -0.5696 0
M  V30 5695 H 544.621 5.4803 -0.308984 0
M  V30 5696 H 544.882 4.31184 0.976347 0
M  V30 5697 N 543.941 0.601185 1.45683 0
M  V30 5698 C 545.189 0.0936957 2.01883 0
M  V30 5699 C 545.51 -1.2779 1.47291 0
M  V30 5700 O 544.78 -1.84279 0.664691 0
M  V30 5701 H 543.36 0.0316466 0.746329 0
M  V30 5702 H 546.022 0.781137 1.78562 0
M  V30 5703 H 545.118 0.0386297 3.12076 0
M  V30 5704 N 545.419 -1.53889 0.339982 0
M  V30 5705 C 546.665 -2.01152 -0.258003 0
M  V30 5706 C 546.998 -1.22749 -1.50487 0
M  V30 5707 O 546.273 -0.314156 -1.91946 0
M  V30 5708 C 546.556 -3.55468 -0.575717 0
M  V30 5709 C 546.409 -4.44584 0.682996 0
M  V30 5710 C 547.728 -4.1768 -1.38677 0
M  V30 5711 H 544.847 -0.731198 -0.0922992 0
M  V30 5712 H 547.489 -1.84352 0.459814 0
M  V30 5713 H 545.639 -3.69914 -1.18725 0
M  V30 5714 H 547.311 -4.41981 1.32102 0
M  V30 5715 H 545.554 -4.13592 1.3086 0
M  V30 5716 H 546.225 -5.5043 0.416001 0
M  V30 5717 H 548.701 -4.0691 -0.869705 0
M  V30 5718 H 547.577 -5.25734 -1.57783 0
M  V30 5719 H 547.838 -3.72069 -2.38782 0
M  V30 5720 N 546.897 -0.0685191 -1.57451 0
M  V30 5721 C 548.122 0.613919 -1.98106 0
M  V30 5722 C 548.547 1.62551 -0.946501 0
M  V30 5723 O 547.905 1.81085 0.0882824 0
M  V30 5724 C 547.953 1.26189 -3.378 0
M  V30 5725 O 547.057 2.37773 -3.36954 0
M  V30 5726 H 546.398 0.158163 -0.644888 0
M  V30 5727 H 548.928 -0.142063 -2.04106 0
M  V30 5728 H 548.938 1.60951 -3.74912 0
M  V30 5729 H 547.613 0.520625 -4.12629 0
M  V30 5730 H 546.19 2.04829 -3.11608 0
M  V30 5731 N 548.375 1.56261 0.205012 0
M  V30 5732 C 549.624 1.79236 0.925058 0
M  V30 5733 C 549.937 0.640011 1.84833 0
M  V30 5734 O 551.143 0.753809 2.60826 0
M  V30 5735 C 549.599 3.17475 1.69522 0
M  V30 5736 C 549.207 4.40482 0.817269 0
M  V30 5737 C 550.951 3.49766 2.4055 0
M  V30 5738 C 548.858 5.69744 1.58573 0
M  V30 5739 H 547.788 0.668287 0.349153 0
M  V30 5740 H 550.439 1.82629 0.178544 0
M  V30 5741 H 548.821 3.08304 2.48526 0
M  V30 5742 H 549.995 4.60752 0.0665988 0
M  V30 5743 H 548.31 4.15827 0.218316 0
M  V30 5744 H 550.907 4.43573 2.98575 0
M  V30 5745 H 551.25 2.73041 3.14252 0
M  V30 5746 H 551.783 3.60341 1.68522 0
M  V30 5747 H 548.522 6.49407 0.891679 0
M  V30 5748 H 548.042 5.53509 2.31059 0
M  V30 5749 H 549.721 6.1051 2.14212 0
M  V30 5750 N 549.853 -0.472356 1.50355 0
M  V30 5751 C 550.783 -1.57859 1.72055 0
M  V30 5752 C 551.764 -1.60283 0.569505 0
M  V30 5753 O 552.949 -1.7657 0.808503 0
M  V30 5754 C 550.079 -2.96191 1.81351 0
M  V30 5755 C 549.033 -3.08633 2.96529 0
M  V30 5756 C 548.359 -4.486 2.90968 0
M  V30 5757 C 549.659 -2.85969 4.37057 0
M  V30 5758 H 551.353 -1.39953 2.64676 0
M  V30 5759 H 548.899 -0.671846 1.27367 0
M  V30 5760 H 550.852 -3.73507 1.95117 0
M  V30 5761 H 549.576 -3.15251 0.853502 0
M  V30 5762 H 548.235 -2.33749 2.82413 0
M  V30 5763 H 547.883 -4.64577 1.92815 0
M  V30 5764 H 547.583 -4.57861 3.68289 0
M  V30 5765 H 549.107 -5.27938 3.0678 0
M  V30 5766 H 550.521 -3.53036 4.51706 0
M  V30 5767 H 548.918 -3.06677 5.15819 0
M  V30 5768 H 549.988 -1.81838 4.49514 0
M  V30 5769 N 551.331 -1.39911 -0.725443 0
M  V30 5770 C 552.571 -1.39096 -1.49772 0
M  V30 5771 C 552.935 0.0106452 -1.91997 0
M  V30 5772 O 554.136 0.143859 -2.68415 0
M  V30 5773 C 552.407 -2.34441 -2.69764 0
M  V30 5774 S 553.966 -2.51898 -3.59295 0
M  V30 5775 H 550.784 -0.49314 -0.512186 0
M  V30 5776 H 553.386 -1.76093 -0.849197 0
M  V30 5777 H 552.09 -3.35123 -2.36898 0
M  V30 5778 H 551.621 -1.98692 -3.39537 0
M  V30 5779 H 553.636 -1.76402 -4.63785 0
M  V30 5780 N 552.809 0.956637 -1.25245 0
M  V30 5781 C 554.058 1.69537 -1.0927 0
M  V30 5782 C 554.371 1.92136 0.366503 0
M  V30 5783 O 555.577 2.63687 0.64665 0
M  V30 5784 C 554.033 3.05211 -1.9072 0
M  V30 5785 C 553.641 2.90416 -3.41119 0
M  V30 5786 C 555.385 3.82882 -1.83308 0
M  V30 5787 C 553.292 4.21468 -4.14872 0
M  V30 5788 H 552.222 0.635804 -0.405302 0
M  V30 5789 H 554.873 1.06513 -1.49423 0
M  V30 5790 H 553.255 3.69128 -1.43389 0
M  V30 5791 H 554.429 2.35444 -3.9611 0
M  V30 5792 H 552.744 2.26203 -3.49602 0
M  V30 5793 H 555.341 4.79944 -2.35706 0
M  V30 5794 H 555.684 4.0853 -0.800572 0
M  V30 5795 H 556.217 3.25711 -2.28379 0
M  V30 5796 H 552.956 4.01009 -5.18529 0
M  V30 5797 H 552.476 4.76213 -3.64665 0
M  V30 5798 H 554.155 4.90022 -4.22478 0
M  V30 5799 N 554.287 1.06798 1.15896 0
M  V30 5800 C 555.698 0.811355 1.68149 0
M  V30 5801 C 556.049 -0.664339 1.8461 0
M  V30 5802 O 555.174 -1.51485 1.54535 0
M  V30 5803 C 555.769 1.46624 3.05429 0
M  V30 5804 C 554.328 1.25726 3.54781 0
M  V30 5805 C 553.475 1.53949 2.3064 0
M  V30 5806 H 556.426 1.23078 1.00187 0
M  V30 5807 H 556.447 0.88437 3.7008 0
M  V30 5808 H 555.959 2.54025 2.93416 0
M  V30 5809 H 554.06 0.20322 3.72045 0
M  V30 5810 H 554.173 1.97354 4.36564 0
M  V30 5811 H 552.537 0.96025 2.35905 0
M  V30 5812 H 553.32 2.6252 2.2122 0
M  V30 5813 N 555.766 -1.3263 0.851289 0
M  V30 5814 C 557.013 -1.97368 0.453023 0
M  V30 5815 C 557.341 -1.67384 -0.990596 0
M  V30 5816 O 556.596 -0.952665 -1.70947 0
M  V30 5817 C 556.895 -3.51713 0.635015 0
M  V30 5818 C 556.561 -4.01676 2.04859 0
M  V30 5819 C 555.223 -4.15031 2.43522 0
M  V30 5820 C 557.575 -4.28206 2.97135 0
M  V30 5821 C 554.903 -4.52257 3.73739 0
M  V30 5822 C 557.255 -4.66889 4.26846 0
M  V30 5823 C 555.919 -4.7845 4.65448 0
M  V30 5824 H 555.189 -0.722219 0.165773 0
M  V30 5825 H 557.836 -1.58092 1.0807 0
M  V30 5826 H 556.141 -3.91726 -0.0759081 0
M  V30 5827 H 557.838 -3.99823 0.306964 0
M  V30 5828 H 554.428 -3.91764 1.73836 0
M  V30 5829 H 558.612 -4.174 2.68498 0
M  V30 5830 H 553.868 -4.59402 4.03435 0
M  V30 5831 H 558.042 -4.86372 4.98413 0
M  V30 5832 H 555.669 -5.07052 5.66395 0
M  V30 5833 N 557.244 -0.608902 -1.45362 0
M  V30 5834 C 558.207 0.0992563 -2.28985 0
M  V30 5835 C 559.207 0.793841 -1.39838 0
M  V30 5836 O 560.397 0.641804 -1.61946 0
M  V30 5837 C 557.529 1.15073 -3.20891 0
M  V30 5838 H 558.722 -0.635964 -2.93079 0
M  V30 5839 H 556.275 -0.368007 -1.51906 0
M  V30 5840 H 557.01 1.91667 -2.616 0
M  V30 5841 H 556.795 0.656867 -3.86559 0
M  V30 5842 H 558.285 1.64665 -3.83765 0
M  V30 5843 N 558.722 1.53707 -0.348139 0
M  V30 5844 C 559.669 2.25173 0.506518 0
M  V30 5845 C 560.639 1.25174 1.09182 0
M  V30 5846 O 561.824 1.53917 1.12757 0
M  V30 5847 C 558.964 3.03141 1.64923 0
M  V30 5848 C 558.077 4.18002 1.0908 0
M  V30 5849 C 557.212 4.83447 2.20119 0
M  V30 5850 C 556.251 5.90369 1.61651 0
M  V30 5851 N 555.388 6.49575 2.66451 0
M  V30 5852 H 560.228 2.97799 -0.109452 0
M  V30 5853 H 557.765 1.46953 -0.0657866 0
M  V30 5854 H 559.723 3.46607 2.32205 0
M  V30 5855 H 558.353 2.32803 2.23612 0
M  V30 5856 H 557.405 3.79145 0.308783 0
M  V30 5857 H 558.717 4.94892 0.623178 0
M  V30 5858 H 557.871 5.30008 2.95257 0
M  V30 5859 H 556.61 4.05991 2.70227 0
M  V30 5860 H 555.615 5.43186 0.850209 0
M  V30 5861 H 556.84 6.69735 1.1239 0
M  V30 5862 H 554.786 5.74981 3.15805 0
M  V30 5863 H 554.703 7.21952 2.24325 0
M  V30 5864 H 555.971 7.00789 3.41344 0
M  V30 5865 N 560.2 0.0768682 1.57412 0
M  V30 5866 C 561.148 -0.906229 2.1422 0
M  V30 5867 C 562.142 -1.30477 1.08037 0
M  V30 5868 O 563.348 -1.28143 1.2641 0
M  V30 5869 H 559.723 -0.310207 0.685037 0
M  V30 5870 H 561.694 -0.402228 2.95677 0
M  V30 5871 C 560.443 -2.16245 2.72274 0
M  V30 5872 H 559.766 -1.86463 3.53655 0
M  V30 5873 H 561.206 -2.83134 3.15613 0
M  V30 5874 C 559.665 -2.92437 1.67279 0
M  V30 5875 O 560.195 -3.86322 1.10081 0
M  V30 5876 N 558.401 -2.55637 1.38195 0
M  V30 5877 H 557.948 -1.79363 1.84897 0
M  V30 5878 H 557.906 -3.06919 0.681787 0
M  V30 5879 N 561.678 -1.56367 -0.196722 0
M  V30 5880 C 562.927 -1.79724 -0.915539 0
M  V30 5881 C 563.24 -0.649804 -1.84491 0
M  V30 5882 O 564.446 -0.767631 -2.60422 0
M  V30 5883 C 562.902 -3.18369 -1.67836 0
M  V30 5884 C 562.51 -4.4091 -0.793897 0
M  V30 5885 C 564.254 -3.51037 -2.38691 0
M  V30 5886 C 562.161 -5.70577 -1.55549 0
M  V30 5887 H 561.091 -0.67013 -0.345604 0
M  V30 5888 H 563.742 -1.82721 -0.168856 0
M  V30 5889 H 562.124 -3.09617 -2.46887 0
M  V30 5890 H 563.298 -4.60781 -0.042163 0
M  V30 5891 H 561.613 -4.15937 -0.19626 0
M  V30 5892 H 564.21 -4.4515 -2.96219 0
M  V30 5893 H 564.553 -2.74704 -3.12799 0
M  V30 5894 H 565.086 -3.61229 -1.66608 0
M  V30 5895 H 561.825 -6.49871 -0.857226 0
M  V30 5896 H 561.345 -5.54726 -2.2812 0
M  V30 5897 H 563.024 -6.11637 -2.10971 0
M  V30 5898 N 563.156 0.464375 -1.50603 0
M  V30 5899 C 564.386 1.23727 -1.65454 0
M  V30 5900 C 564.794 1.86119 -0.340032 0
M  V30 5901 O 564.137 1.70301 0.688706 0
M  V30 5902 C 564.199 2.38153 -2.69301 0
M  V30 5903 C 563.863 1.96345 -4.12671 0
M  V30 5904 C 564.86 1.48215 -4.98326 0
M  V30 5905 C 562.545 2.04861 -4.58625 0
M  V30 5906 C 564.539 1.09152 -6.27985 0
M  V30 5907 C 562.226 1.65409 -5.88288 0
M  V30 5908 C 563.224 1.17634 -6.72794 0
M  V30 5909 O 562.912 0.787312 -8.00035 0
M  V30 5910 H 562.644 0.380075 -0.559034 0
M  V30 5911 H 565.198 0.559919 -1.97621 0
M  V30 5912 H 563.428 3.09081 -2.32392 0
M  V30 5913 H 565.117 3.00099 -2.73304 0
M  V30 5914 H 565.883 1.41052 -4.64036 0
M  V30 5915 H 561.762 2.40996 -3.92991 0
M  V30 5916 H 565.306 0.717909 -6.93896 0
M  V30 5917 H 561.203 1.72233 -6.22098 0
M  V30 5918 H 561.971 0.915567 -8.13363 0
M  V30 5919 N 564.634 1.40294 0.718013 0
M  V30 5920 C 565.882 1.38167 1.47494 0
M  V30 5921 C 566.203 -0.01607 1.94993 0
M  V30 5922 O 565.473 -0.970396 1.70177 0
M  V30 5923 H 564.053 0.508505 0.547203 0
M  V30 5924 H 566.715 1.75324 0.851322 0
M  V30 5925 H 565.811 2.05503 2.34894 0
M  V30 5926 N 566.112 -0.949982 1.2575 0
M  V30 5927 C 567.042 -2.06483 1.09028 0
M  V30 5928 C 568.023 -1.701 -0.00201532 0
M  V30 5929 O 569.208 -1.93469 0.168383 0
M  V30 5930 C 566.338 -3.39899 0.71316 0
M  V30 5931 C 565.292 -3.90309 1.75621 0
M  V30 5932 C 564.618 -5.20274 1.23365 0
M  V30 5933 C 565.918 -4.16169 3.15596 0
M  V30 5934 H 567.612 -2.20731 2.02283 0
M  V30 5935 H 565.158 -1.06066 0.973964 0
M  V30 5936 H 567.111 -4.17346 0.58309 0
M  V30 5937 H 565.835 -3.25602 -0.255091 0
M  V30 5938 H 564.494 -3.15035 1.8748 0
M  V30 5939 H 564.142 -5.02351 0.255491 0
M  V30 5940 H 563.842 -5.54971 1.93082 0
M  V30 5941 H 565.366 -6.00314 1.11607 0
M  V30 5942 H 566.78 -4.84259 3.06864 0
M  V30 5943 H 565.177 -4.62131 3.82825 0
M  V30 5944 H 566.247 -3.22273 3.6231 0
M  V30 5945 N 567.59 -1.07411 -1.15328 0
M  V30 5946 C 568.839 -0.792643 -1.85473 0
M  V30 5947 C 569.152 0.683789 -1.83259 0
M  V30 5948 O 570.358 1.08005 -2.49093 0
M  V30 5949 C 568.814 -1.36787 -3.32892 0
M  V30 5950 C 568.422 -2.87536 -3.43551 0
M  V30 5951 C 570.166 -1.16444 -4.08217 0
M  V30 5952 C 568.073 -3.38247 -4.85122 0
M  V30 5953 H 567.003 -0.292838 -0.694811 0
M  V30 5954 H 569.654 -1.29426 -1.30082 0
M  V30 5955 H 568.036 -0.793993 -3.87958 0
M  V30 5956 H 569.21 -3.50973 -2.98588 0
M  V30 5957 H 567.525 -3.06676 -2.81672 0
M  V30 5958 H 570.122 -1.51808 -5.12697 0
M  V30 5959 H 570.465 -0.10353 -4.16171 0
M  V30 5960 H 570.998 -1.70472 -3.59422 0
M  V30 5961 H 567.737 -4.43866 -4.82351 0
M  V30 5962 H 567.257 -2.79564 -5.30664 0
M  V30 5963 H 568.936 -3.34238 -5.5398 0
M  V30 5964 N 569.068 1.32177 -0.85831 0
M  V30 5965 C 570.031 2.27086 -0.310588 0
M  V30 5966 C 571.031 1.51751 0.531806 0
M  V30 5967 O 572.221 1.70794 0.34279 0
M  V30 5968 C 569.353 3.36266 0.560179 0
M  V30 5969 H 570.546 2.77045 -1.1483 0
M  V30 5970 H 568.099 1.42911 -0.632942 0
M  V30 5971 H 568.834 2.9158 1.41956 0
M  V30 5972 H 568.619 3.92077 -0.0428473 0
M  V30 5973 H 570.109 4.06974 0.936056 0
M  V30 5974 N 570.547 0.616602 1.45037 0
M  V30 5975 C 571.958 0.199359 1.85633 0
M  V30 5976 C 572.309 -1.24588 1.51566 0
M  V30 5977 O 571.434 -1.94594 0.94668 0
M  V30 5978 C 572.029 0.355033 3.36935 0
M  V30 5979 C 570.588 -0.00758748 3.76399 0
M  V30 5980 C 569.735 0.675256 2.68953 0
M  V30 5981 H 572.686 0.822708 1.3571 0
M  V30 5982 H 572.707 -0.410201 3.78282 0
M  V30 5983 H 572.219 1.40699 3.61698 0
M  V30 5984 H 570.32 -1.05837 3.57252 0
M  V30 5985 H 570.433 0.392346 4.77491 0
M  V30 5986 H 568.797 0.111992 2.54454 0
M  V30 5987 H 569.58 1.72952 2.96551 0
M  V30 5988 N 572.025 -1.5352 0.356285 0
M  V30 5989 C 572.973 -2.26945 -0.50978 0
M  V30 5990 C 573.967 -1.29569 -1.09125 0
M  V30 5991 O 575.173 -1.47231 -1.03552 0
M  V30 5992 H 571.548 -0.729368 -0.183102 0
M  V30 5993 H 573.519 -2.98111 0.131374 0
M  V30 5994 C 572.268 -3.06466 -1.64237 0
M  V30 5995 H 571.591 -3.81233 -1.20423 0
M  V30 5996 H 573.031 -3.61035 -2.22327 0
M  V30 5997 C 571.49 -2.16737 -2.57928 0
M  V30 5998 O 572.02 -1.77195 -3.60507 0
M  V30 5999 N 570.226 -1.81558 -2.26903 0
M  V30 6000 H 569.773 -2.13913 -1.43524 0
M  V30 6001 H 569.731 -1.21806 -2.89846 0
M  V30 6002 N 573.503 -0.0852151 -1.57369 0
M  V30 6003 C 574.75 0.580806 -1.93992 0
M  V30 6004 C 575.078 1.68801 -0.966252 0
M  V30 6005 O 574.333 1.95694 0.0158649 0
M  V30 6006 C 574.632 1.18482 -3.3719 0
M  V30 6007 C 574.298 0.2024 -4.50446 0
M  V30 6008 C 572.96 -0.0678318 -4.81152 0
M  V30 6009 C 575.312 -0.46895 -5.19086 0
M  V30 6010 C 572.64 -1.01627 -5.77831 0
M  V30 6011 C 574.992 -1.4058 -6.16782 0
M  V30 6012 C 573.656 -1.68436 -6.45899 0
M  V30 6013 H 572.926 0.212532 -0.709867 0
M  V30 6014 H 575.573 -0.158947 -1.90839 0
M  V30 6015 H 573.878 2.0006 -3.36873 0
M  V30 6016 H 575.575 1.70767 -3.62822 0
M  V30 6017 H 572.165 0.423208 -4.26505 0
M  V30 6018 H 576.349 -0.273307 -4.95547 0
M  V30 6019 H 571.605 -1.2392 -5.9871 0
M  V30 6020 H 575.779 -1.93188 -6.69068 0
M  V30 6021 H 573.406 -2.42088 -7.20623 0
M  V30 6022 N 574.981 1.5647 0.188427 0
M  V30 6023 C 576.229 1.80655 0.905986 0
M  V30 6024 C 576.55 0.659391 1.83513 0
M  V30 6025 O 575.82 -0.321868 1.93238 0
M  V30 6026 H 574.4 0.666391 0.337538 0
M  V30 6027 H 577.062 1.93949 0.192339 0
M  V30 6028 H 576.158 2.74066 1.49313 0
M  V30 6029 N 576.459 -0.456382 1.50847 0
M  V30 6030 C 577.705 -1.20914 1.62811 0
M  V30 6031 C 578.038 -1.91301 0.334304 0
M  V30 6032 O 577.313 -1.82775 -0.665098 0
M  V30 6033 C 577.596 -2.24122 2.81853 0
M  V30 6034 C 577.449 -1.57944 4.21158 0
M  V30 6035 C 578.768 -3.25295 2.96431 0
M  V30 6036 H 575.887 -0.438233 0.592554 0
M  V30 6037 H 578.529 -0.50091 1.83278 0
M  V30 6038 H 576.679 -2.84524 2.64534 0
M  V30 6039 H 578.351 -1.01025 4.50102 0
M  V30 6040 H 576.594 -0.882185 4.24735 0
M  V30 6041 H 577.265 -2.33014 5.00408 0
M  V30 6042 H 579.741 -2.7493 3.12335 0
M  V30 6043 H 578.617 -3.94822 3.81322 0
M  V30 6044 H 578.878 -3.90286 2.07676 0
M  V30 6045 N 577.937 -1.40673 -0.710563 0
M  V30 6046 C 579.185 -1.38947 -1.46759 0
M  V30 6047 C 579.506 0.00572879 -1.94999 0
M  V30 6048 O 578.776 0.961358 -1.70689 0
M  V30 6049 H 577.356 -0.5114 -0.544499 0
M  V30 6050 H 580.018 -1.75773 -0.842012 0
M  V30 6051 H 579.114 -2.06745 -2.33801 0
M  V30 6052 N 579.415 0.9433 -1.26252 0
M  V30 6053 C 580.662 1.68925 -1.11672 0
M  V30 6054 C 580.99 1.91499 0.340329 0
M  V30 6055 O 580.245 1.49189 1.26653 0
M  V30 6056 C 580.544 3.07073 -1.82868 0
M  V30 6057 C 580.21 3.04262 -3.32769 0
M  V30 6058 C 578.872 3.03203 -3.7366 0
M  V30 6059 C 581.224 2.96729 -4.28487 0
M  V30 6060 C 578.552 2.92373 -5.0866 0
M  V30 6061 C 580.904 2.87442 -5.63525 0
M  V30 6062 C 579.568 2.84724 -6.03729 0
M  V30 6063 H 578.838 0.618141 -0.408635 0
M  V30 6064 H 581.485 1.10124 -1.56668 0
M  V30 6065 H 579.79 3.69486 -1.30335 0
M  V30 6066 H 581.487 3.63635 -1.69029 0
M  V30 6067 H 578.077 3.05865 -3.00241 0
M  V30 6068 H 582.261 2.96658 -3.97879 0
M  V30 6069 H 577.517 2.88645 -5.38975 0
M  V30 6070 H 581.691 2.80576 -6.37377 0
M  V30 6071 H 579.318 2.76089 -7.08293 0
M  V30 6072 N 580.893 1.08022 1.14757 0
M  V30 6073 C 581.856 0.71048 2.1791 0
M  V30 6074 C 582.856 -0.252731 1.58801 0
M  V30 6075 O 584.046 -0.0327915 1.74169 0
M  V30 6076 C 581.178 0.0483203 3.40866 0
M  V30 6077 H 582.371 1.62384 2.52134 0
M  V30 6078 H 579.924 0.877595 1.29337 0
M  V30 6079 H 580.659 -0.876959 3.12218 0
M  V30 6080 H 580.444 0.741189 3.85031 0
M  V30 6081 H 581.934 -0.195471 4.17142 0
M  V30 6082 N 582.371 -1.3172 0.865308 0
M  V30 6083 C 583.62 -1.96145 0.470098 0
M  V30 6084 C 583.933 -1.69182 -0.981674 0
M  V30 6085 O 585.139 -2.27431 -1.48281 0
M  V30 6086 C 583.595 -3.51129 0.789732 0
M  V30 6087 C 583.203 -3.86938 2.25795 0
M  V30 6088 C 584.947 -4.2197 0.462765 0
M  V30 6089 C 582.854 -5.35012 2.52024 0
M  V30 6090 H 581.784 -0.734105 0.172065 0
M  V30 6091 H 584.435 -1.49959 1.05757 0
M  V30 6092 H 582.817 -3.95781 0.131571 0
M  V30 6093 H 583.991 -3.5326 2.95879 0
M  V30 6094 H 582.306 -3.29149 2.55049 0
M  V30 6095 H 584.903 -5.30904 0.636019 0
M  V30 6096 H 585.246 -4.12005 -0.59645 0
M  V30 6097 H 585.779 -3.82936 1.07727 0
M  V30 6098 H 582.518 -5.50008 3.56611 0
M  V30 6099 H 582.038 -5.70058 1.8653 0
M  V30 6100 H 583.717 -6.0222 2.36515 0
M  V30 6101 N 583.85 -0.624285 -1.44708 0
M  V30 6102 C 585.098 -0.125802 -2.01708 0
M  V30 6103 C 585.418 1.2543 -1.49306 0
M  V30 6104 O 584.689 1.83198 -0.693924 0
M  V30 6105 H 583.269 -0.0435161 -0.745731 0
M  V30 6106 H 585.931 -0.809446 -1.77296 0
M  V30 6107 H 585.027 -0.0882734 -3.11975 0
M  V30 6108 N 585.328 1.53329 -0.364422 0
M  V30 6109 C 586.261 2.22052 0.526145 0
M  V30 6110 C 587.239 1.21203 1.08391 0
M  V30 6111 O 588.423 1.50101 1.14026 0
M  V30 6112 C 585.55 2.91432 1.72583 0
M  V30 6113 C 584.596 4.06345 1.29562 0
M  V30 6114 S 585.429 5.34671 0.297885 0
M  V30 6115 C 586.585 6.07563 1.50392 0
M  V30 6116 H 586.818 2.97244 -0.0575055 0
M  V30 6117 H 584.351 1.53684 -0.148525 0
M  V30 6118 H 586.309 3.3202 2.41398 0
M  V30 6119 H 584.97 2.15966 2.28073 0
M  V30 6120 H 584.163 4.53901 2.19067 0
M  V30 6121 H 583.765 3.67642 0.686696 0
M  V30 6122 H 586.057 6.32224 2.43513 0
M  V30 6123 H 587 6.99973 1.06977 0
M  V30 6124 H 587.408 5.37994 1.70945 0
M  V30 6125 N 586.806 0.0935595 1.57322 0
M  V30 6126 C 588.052 -0.571355 1.94585 0
M  V30 6127 C 588.385 -1.67929 0.975366 0
M  V30 6128 O 587.66 -1.94498 0.00816206 0
M  V30 6129 C 587.943 -1.12797 3.41978 0
M  V30 6130 C 587.796 -0.0251881 4.49793 0
M  V30 6131 C 589.115 -2.02682 3.90651 0
M  V30 6132 H 586.234 -0.206223 0.70756 0
M  V30 6133 H 588.876 0.163956 1.89291 0
M  V30 6134 H 587.026 -1.75461 3.4662 0
M  V30 6135 H 588.698 0.608979 4.57263 0
M  V30 6136 H 586.941 0.641399 4.29032 0
M  V30 6137 H 587.612 -0.455433 5.50118 0
M  V30 6138 H 590.088 -1.49925 3.88152 0
M  V30 6139 H 588.964 -2.38555 4.94351 0
M  V30 6140 H 589.225 -2.94362 3.29854 0
M  V30 6141 N 588.284 -1.56567 -0.180126 0
M  V30 6142 C 589.561 -1.7235 -0.924931 0
M  V30 6143 C 589.941 -0.652523 -2.00762 0
M  V30 6144 O 589.289 0.334115 -2.26044 0
M  V30 6145 C 589.499 -3.1523 -1.49771 0
M  V30 6146 C 590.847 -3.75921 -1.97405 0
M  V30 6147 O 591.871 -3.18452 -1.59583 0
M  V30 6148 O 590.73 -4.7681 -2.67048 0
M  V30 6149 H 587.824 -0.703502 -0.434758 0
M  V30 6150 H 590.37 -1.6886 -0.168647 0
M  V30 6151 H 589.142 -3.84656 -0.718027 0
M  V30 6152 H 588.765 -3.23009 -2.31842 0
M  V30 6153 N 589.762 0.448376 -1.51087 0
M  V30 6154 C 590.987 1.22605 -1.6728 0
M  V30 6155 C 591.412 1.84524 -0.365045 0
M  V30 6156 O 590.77 1.6832 0.673642 0
M  V30 6157 C 590.818 2.29393 -2.78229 0
M  V30 6158 O 589.922 3.34608 -2.41063 0
M  V30 6159 H 589.263 0.359705 -0.558129 0
M  V30 6160 H 591.793 0.530903 -1.97592 0
M  V30 6161 H 591.803 2.74352 -3.01986 0
M  V30 6162 H 590.478 1.83701 -3.73131 0
M  V30 6163 H 589.055 2.95202 -2.27838 0
M  V30 6164 N 591.24 1.41047 0.703093 0
M  V30 6165 C 592.465 1.43537 1.49706 0
M  V30 6166 C 592.89 0.0401853 1.88057 0
M  V30 6167 O 592.248 -0.954785 1.54122 0
M  V30 6168 C 592.296 2.3433 2.74084 0
M  V30 6169 O 591.4 1.79515 3.71279 0
M  V30 6170 H 590.741 0.487454 0.450871 0
M  V30 6171 H 593.271 1.85422 0.86486 0
M  V30 6172 H 593.281 2.49947 3.22476 0
M  V30 6173 H 591.956 3.35708 2.45506 0
M  V30 6174 H 590.533 1.7331 3.30179 0
M  V30 6175 N 592.718 -0.936591 1.26751 0
M  V30 6176 C 593.651 -2.03619 1.03027 0
M  V30 6177 C 594.629 -1.62534 -0.0464619 0
M  V30 6178 O 595.813 -1.88251 0.0968873 0
M  V30 6179 C 592.94 -3.3402 0.561072 0
M  V30 6180 C 591.986 -3.9408 1.63105 0
M  V30 6181 S 592.819 -4.27782 3.22122 0
M  V30 6182 C 593.975 -5.61277 2.76982 0
M  V30 6183 H 594.208 -2.23429 1.96129 0
M  V30 6184 H 591.741 -1.07857 1.10482 0
M  V30 6185 H 593.699 -4.09424 0.297031 0
M  V30 6186 H 592.36 -3.12147 -0.349741 0
M  V30 6187 H 591.553 -4.88154 1.25386 0
M  V30 6188 H 591.155 -3.25227 1.84671 0
M  V30 6189 H 593.447 -6.40189 2.21731 0
M  V30 6190 H 594.39 -6.03887 3.69766 0
M  V30 6191 H 594.798 -5.21374 2.16402 0
M  V30 6192 N 594.196 -1.08629 -1.14182 0
M  V30 6193 C 595.129 -0.662329 -2.18377 0
M  V30 6194 C 596.107 0.327054 -1.59277 0
M  V30 6195 O 597.291 0.230376 -1.87087 0
M  V30 6196 C 594.418 0.0254765 -3.3869 0
M  V30 6197 C 593.464 -0.924414 -4.16361 0
M  V30 6198 S 594.297 -2.43226 -4.77076 0
M  V30 6199 C 595.453 -1.75663 -6.00744 0
M  V30 6200 H 595.686 -1.54501 -2.54001 0
M  V30 6201 H 593.219 -0.901484 -1.2535 0
M  V30 6202 H 595.177 0.416032 -4.08386 0
M  V30 6203 H 593.838 0.884689 -3.01384 0
M  V30 6204 H 593.031 -0.390099 -5.02488 0
M  V30 6205 H 592.633 -1.25598 -3.5228 0
M  V30 6206 H 594.925 -1.07589 -6.68903 0
M  V30 6207 H 595.868 -2.59673 -6.58768 0
M  V30 6208 H 596.276 -1.22903 -5.50958 0
M  V30 6209 N 595.674 1.31259 -0.872281 0
M  V30 6210 C 597.085 1.78822 -0.536617 0
M  V30 6211 C 597.436 1.71855 0.946594 0
M  V30 6212 O 596.561 1.28769 1.73918 0
M  V30 6213 C 597.156 3.24698 -0.967294 0
M  V30 6214 C 595.715 3.70147 -0.683251 0
M  V30 6215 C 594.862 2.51994 -1.15733 0
M  V30 6216 H 597.813 1.18308 -1.05777 0
M  V30 6217 H 597.834 3.79386 -0.290929 0
M  V30 6218 H 597.346 3.29737 -2.04683 0
M  V30 6219 H 595.447 3.70607 0.384825 0
M  V30 6220 H 595.56 4.62183 -1.2619 0
M  V30 6221 H 593.924 2.48078 -0.577024 0
M  V30 6222 H 594.707 2.59778 -2.24434 0
M  V30 6223 N 597.152 0.631951 1.44375 0
M  V30 6224 C 598.401 0.134214 2.01253 0
M  V30 6225 C 598.714 -1.25171 1.50305 0
M  V30 6226 O 599.92 -1.8435 1.99317 0
M  V30 6227 C 598.376 0.189187 3.59402 0
M  V30 6228 C 597.984 1.57647 4.19346 0
M  V30 6229 C 599.728 -0.252044 4.23751 0
M  V30 6230 C 597.635 1.58651 5.69722 0
M  V30 6231 H 596.565 0.0464101 0.75257 0
M  V30 6232 H 599.216 0.790868 1.65582 0
M  V30 6233 H 597.598 -0.534584 3.92375 0
M  V30 6234 H 598.772 2.32389 3.97909 0
M  V30 6235 H 597.087 1.96186 3.67288 0
M  V30 6236 H 599.684 -0.264084 5.34047 0
M  V30 6237 H 600.027 -1.27951 3.96149 0
M  V30 6238 H 600.56 0.41926 3.95584 0
M  V30 6239 H 597.299 2.59237 6.0206 0
M  V30 6240 H 596.819 0.882039 5.93279 0
M  V30 6241 H 598.498 1.32082 6.33375 0
M  V30 6242 N 598.631 -1.53133 0.372548 0
M  V30 6243 C 599.564 -2.22328 -0.514361 0
M  V30 6244 C 600.542 -1.21776 -1.07747 0
M  V30 6245 O 601.726 -1.50704 -1.13228 0
M  V30 6246 C 598.853 -2.92343 -1.71035 0
M  V30 6247 C 597.899 -4.07026 -1.27405 0
M  V30 6248 S 598.732 -5.34821 -0.269526 0
M  V30 6249 C 599.888 -6.08352 -1.47168 0
M  V30 6250 H 600.121 -2.9721 0.0732683 0
M  V30 6251 H 597.654 -1.53603 0.156673 0
M  V30 6252 H 599.612 -3.33296 -2.39634 0
M  V30 6253 H 598.273 -2.17173 -2.26925 0
M  V30 6254 H 597.466 -4.55056 -2.16656 0
M  V30 6255 H 597.068 -3.68001 -0.66719 0
M  V30 6256 H 599.36 -6.33507 -2.40157 0
M  V30 6257 H 600.303 -7.0053 -1.03263 0
M  V30 6258 H 600.711 -5.38893 -1.6809 0
M  V30 6259 N 600.109 -0.101901 -1.5727 0
M  V30 6260 C 601.357 0.559091 -1.94213 0
M  V30 6261 C 601.678 1.68297 -0.984948 0
M  V30 6262 O 600.948 1.95863 -0.0381975 0
M  V30 6263 H 599.528 0.20952 -0.717015 0
M  V30 6264 H 602.19 -0.166831 -1.94185 0
M  V30 6265 H 601.286 0.96485 -2.96811 0
M  V30 6266 N 601.587 1.56661 0.17182 0
M  V30 6267 C 602.817 1.85831 0.902804 0
M  V30 6268 C 603.225 0.685157 1.76358 0
M  V30 6269 O 602.568 -0.354947 1.80238 0
M  V30 6270 C 602.63 3.09406 1.83053 0
M  V30 6271 C 602.294 4.4231 1.1494 0
M  V30 6272 C 603.291 5.17342 0.515104 0
M  V30 6273 C 600.976 4.89045 1.14631 0
M  V30 6274 C 602.97 6.37299 -0.113194 0
M  V30 6275 C 600.657 6.08933 0.514184 0
M  V30 6276 C 601.655 6.82904 -0.114463 0
M  V30 6277 O 601.343 8.00518 -0.736622 0
M  V30 6278 H 601.075 0.620715 0.267748 0
M  V30 6279 H 603.629 2.04637 0.176918 0
M  V30 6280 H 601.859 2.86544 2.59672 0
M  V30 6281 H 603.548 3.25027 2.4313 0
M  V30 6282 H 604.314 4.82317 0.509474 0
M  V30 6283 H 600.193 4.31409 1.62502 0
M  V30 6284 H 603.737 6.94976 -0.604477 0
M  V30 6285 H 599.634 6.43423 0.517395 0
M  V30 6286 H 600.402 8.16027 -0.635822 0
M  V30 6287 N 603.065 -0.440357 1.51323 0
M  V30 6288 C 603.995 -1.54174 1.75364 0
M  V30 6289 C 604.976 -1.59039 0.603375 0
M  V30 6290 O 606.161 -1.74815 0.845774 0
M  V30 6291 C 603.291 -2.92277 1.87593 0
M  V30 6292 C 602.245 -3.02274 3.03009 0
M  V30 6293 C 601.571 -4.42327 3.00418 0
M  V30 6294 C 602.871 -2.76634 4.43024 0
M  V30 6295 H 604.565 -1.34307 2.67585 0
M  V30 6296 H 602.111 -0.644678 1.28763 0
M  V30 6297 H 604.064 -3.69284 2.02995 0
M  V30 6298 H 602.788 -3.13369 0.920179 0
M  V30 6299 H 601.447 -2.27706 2.87307 0
M  V30 6300 H 601.095 -4.60382 2.02626 0
M  V30 6301 H 600.795 -4.49946 3.77918 0
M  V30 6302 H 602.319 -5.21312 3.17909 0
M  V30 6303 H 603.733 -3.43376 4.59093 0
M  V30 6304 H 602.13 -2.95666 5.22208 0
M  V30 6305 H 603.2 -1.72262 4.5327 0
M  V30 6306 N 604.543 -1.41418 -0.695603 0
M  V30 6307 C 605.789 -1.40982 -1.4578 0
M  V30 6308 C 606.122 -0.0187763 -1.94191 0
M  V30 6309 O 605.397 0.95346 -1.69527 0
M  V30 6310 C 605.68 -2.41657 -2.66972 0
M  V30 6311 C 605.533 -3.89869 -2.24327 0
M  V30 6312 C 606.852 -2.39589 -3.69168 0
M  V30 6313 H 603.971 -0.513405 -0.528757 0
M  V30 6314 H 606.613 -1.72693 -0.792275 0
M  V30 6315 H 604.763 -2.14746 -3.23754 0
M  V30 6316 H 606.435 -4.27683 -1.72872 0
M  V30 6317 H 604.678 -4.04737 -1.56111 0
M  V30 6318 H 605.349 -4.55857 -3.11285 0
M  V30 6319 H 607.825 -2.63471 -3.2206 0
M  V30 6320 H 606.701 -3.12044 -4.51575 0
M  V30 6321 H 606.962 -1.41447 -4.18862 0
M  V30 6322 N 606.021 0.929856 -1.27246 0
M  V30 6323 C 607.298 1.65544 -1.04186 0
M  V30 6324 C 607.678 2.06796 0.424097 0
M  V30 6325 O 607.026 1.80053 1.40688 0
M  V30 6326 C 607.236 2.85912 -2.00138 0
M  V30 6327 C 608.584 3.57305 -2.29387 0
M  V30 6328 O 609.608 2.96036 -1.98094 0
M  V30 6329 O 608.467 4.67688 -2.82719 0
M  V30 6330 H 605.561 0.725473 -0.397011 0
M  V30 6331 H 608.107 0.980583 -1.38501 0
M  V30 6332 H 606.879 2.52403 -2.99013 0
M  V30 6333 H 606.502 3.61118 -1.66371 0
M  V30 6334 N 607.499 1.09233 1.13605 0
M  V30 6335 C 608.429 0.751738 2.21068 0
M  V30 6336 C 609.41 -0.269688 1.67948 0
M  V30 6337 O 610.595 -0.13819 1.93708 0
M  V30 6338 C 607.725 0.16935 3.46887 0
M  V30 6339 C 606.679 1.12007 4.13084 0
M  V30 6340 C 606.005 0.399483 5.33206 0
M  V30 6341 C 607.305 2.46168 4.6065 0
M  V30 6342 H 608.999 1.65024 2.49815 0
M  V30 6343 H 606.545 0.794905 1.20072 0
M  V30 6344 H 608.498 -0.0809824 4.21322 0
M  V30 6345 H 607.222 -0.764335 3.1753 0
M  V30 6346 H 605.881 1.35564 3.40614 0
M  V30 6347 H 605.529 -0.538277 5.00112 0
M  V30 6348 H 605.229 1.03337 5.78442 0
M  V30 6349 H 606.753 0.157403 6.10397 0
M  V30 6350 H 608.167 2.26829 5.26518 0
M  V30 6351 H 606.564 3.05326 5.1662 0
M  V30 6352 H 607.634 3.07076 3.75276 0
M  V30 6353 N 608.977 -1.30795 0.87923 0
M  V30 6354 C 610.393 -1.48981 0.57243 0
M  V30 6355 C 610.593 -1.80719 -0.891236 0
M  V30 6356 O 609.649 -1.89136 -1.67283 0
M  V30 6357 C 610.962 -2.61721 1.48063 0
M  V30 6358 C 612.51 -2.75603 1.48365 0
M  V30 6359 C 612.985 -3.91449 2.37763 0
M  V30 6360 N 614.476 -3.98751 2.35695 0
M  V30 6361 C 615.211 -4.87684 3.01583 0
M  V30 6362 N 614.707 -5.81454 3.76674 0
M  V30 6363 N 616.5 -4.81005 2.90844 0
M  V30 6364 H 608.651 -1.08465 1.82617 0
M  V30 6365 H 610.914 -0.536813 0.781368 0
M  V30 6366 H 610.62 -2.45073 2.52254 0
M  V30 6367 H 610.494 -3.58071 1.18596 0
M  V30 6368 H 612.881 -2.9166 0.44927 0
M  V30 6369 H 612.962 -1.79891 1.81859 0
M  V30 6370 H 612.606 -3.76149 3.41283 0
M  V30 6371 H 612.536 -4.86487 2.01589 0
M  V30 6372 H 615.027 -3.31668 1.81121 0
M  V30 6373 H 615.34 -6.46063 4.24054 0
M  V30 6374 H 613.685 -5.81403 3.80782 0
M  V30 6375 H 616.876 -4.06728 2.31711 0
M  V30 6376 H 617.049 -5.50107 3.42471 0
M  V30 6377 N 610.455 -0.639598 -1.44038 0
M  V30 6378 C 611.405 0.0823038 -2.27851 0
M  V30 6379 C 612.389 0.807991 -1.39141 0
M  V30 6380 O 613.581 0.692702 -1.62882 0
M  V30 6381 C 610.71 1.05742 -3.26609 0
M  V30 6382 C 609.796 0.330911 -4.22807 0
M  V30 6383 N 610.187 -0.645126 -5.01669 0
M  V30 6384 C 608.485 0.574214 -4.42288 0
M  V30 6385 C 609.186 -1.07513 -5.71678 0
M  V30 6386 N 608.162 -0.412164 -5.42035 0
M  V30 6387 H 611.964 -0.666861 -2.86234 0
M  V30 6388 H 609.478 -0.465777 -1.55577 0
M  V30 6389 H 611.475 1.58927 -3.85419 0
M  V30 6390 H 610.135 1.80679 -2.69787 0
M  V30 6391 H 611.146 -1.02329 -5.0769 0
M  V30 6392 H 607.823 1.30581 -3.96554 0
M  V30 6393 H 609.213 -1.88196 -6.45005 0
M  V30 6394 N 611.933 1.52934 -0.380664 0
M  V30 6395 C 613.179 2.01765 0.20458 0
M  V30 6396 C 613.512 1.26696 1.47179 0
M  V30 6397 O 612.787 0.364936 1.91046 0
M  V30 6398 C 613.07 3.56869 0.481269 0
M  V30 6399 C 612.923 4.42617 -0.800629 0
M  V30 6400 C 614.242 4.2121 1.27554 0
M  V30 6401 H 611.361 0.733388 0.0728803 0
M  V30 6402 H 614.003 1.83068 -0.50853 0
M  V30 6403 H 612.153 3.72932 1.08875 0
M  V30 6404 H 613.825 4.38323 -1.43773 0
M  V30 6405 H 612.068 4.09977 -1.4178 0
M  V30 6406 H 612.739 5.49134 -0.561791 0
M  V30 6407 H 615.215 4.09072 0.761514 0
M  V30 6408 H 614.091 5.29732 1.43788 0
M  V30 6409 H 614.352 3.78269 2.28833 0
M  V30 6410 N 613.412 0.11024 1.57214 0
M  V30 6411 C 614.637 -0.561179 1.99664 0
M  V30 6412 C 615.062 -1.59985 0.989266 0
M  V30 6413 O 614.42 -1.81255 -0.0402399 0
M  V30 6414 C 614.468 -1.17189 3.41027 0
M  V30 6415 O 613.572 -2.28755 3.4314 0
M  V30 6416 H 612.913 -0.14101 0.648855 0
M  V30 6417 H 615.443 0.196128 2.03658 0
M  V30 6418 H 615.453 -1.50954 3.79047 0
M  V30 6419 H 614.128 -0.411041 4.13864 0
M  V30 6420 H 612.705 -1.96495 3.16929 0
M  V30 6421 N 614.89 -1.56749 -0.16351 0
M  V30 6422 C 616.136 -1.82704 -0.880168 0
M  V30 6423 C 616.469 -0.689311 -1.81555 0
M  V30 6424 O 615.744 0.308224 -1.92042 0
M  V30 6425 C 616.027 -3.19084 -1.66905 0
M  V30 6426 C 615.88 -4.43397 -0.756269 0
M  V30 6427 C 617.199 -3.52493 -2.63509 0
M  V30 6428 H 614.318 -0.664608 -0.318535 0
M  V30 6429 H 616.96 -1.89438 -0.146036 0
M  V30 6430 H 615.11 -3.13475 -2.2949 0
M  V30 6431 H 616.782 -4.61079 -0.14269 0
M  V30 6432 H 615.025 -4.33752 -0.0647944 0
M  V30 6433 H 615.696 -5.3539 -1.34393 0
M  V30 6434 H 618.172 -3.58606 -2.11047 0
M  V30 6435 H 617.048 -4.48979 -3.15767 0
M  V30 6436 H 617.309 -2.77597 -3.44082 0
M  V30 6437 N 616.368 0.432326 -1.51554 0
M  V30 6438 C 617.598 1.2019 -1.68042 0
M  V30 6439 C 618.006 1.85356 -0.379434 0
M  V30 6440 O 617.349 1.71724 0.652427 0
M  V30 6441 C 617.411 2.32387 -2.74292 0
M  V30 6442 C 617.075 1.87548 -4.16743 0
M  V30 6443 C 618.072 1.37611 -5.01357 0
M  V30 6444 C 615.757 1.95087 -4.62868 0
M  V30 6445 C 617.751 0.958069 -6.30159 0
M  V30 6446 C 615.438 1.52894 -5.91664 0
M  V30 6447 C 616.436 1.03336 -6.75137 0
M  V30 6448 O 616.124 0.617435 -8.01525 0
M  V30 6449 H 615.856 0.368132 -0.56697 0
M  V30 6450 H 618.41 0.517875 -1.98764 0
M  V30 6451 H 616.64 3.04082 -2.38895 0
M  V30 6452 H 618.329 2.94235 -2.79608 0
M  V30 6453 H 619.095 1.31178 -4.66923 0
M  V30 6454 H 614.974 2.32606 -3.98015 0
M  V30 6455 H 618.518 0.570562 -6.95263 0
M  V30 6456 H 614.415 1.58999 -6.25611 0
M  V30 6457 H 615.183 0.742835 -8.15122 0
M  V30 6458 N 617.846 1.41785 0.688094 0
M  V30 6459 C 619.094 1.41264 1.4453 0
M  V30 6460 C 619.415 0.0252946 1.94984 0
M  V30 6461 O 618.685 -0.934081 1.72197 0
M  V30 6462 H 617.265 0.519998 0.536294 0
M  V30 6463 H 619.927 1.7709 0.813941 0
M  V30 6464 H 619.023 2.10439 2.30482 0
M  V30 6465 N 619.324 -0.923095 1.27737 0
M  V30 6466 C 620.549 -1.71054 1.17283 0
M  V30 6467 C 620.974 -1.86208 -0.266153 0
M  V30 6468 O 620.332 -1.36545 -1.1927 0
M  V30 6469 C 620.38 -3.0854 1.86642 0
M  V30 6470 O 619.484 -3.95528 1.16752 0
M  V30 6471 H 618.825 -0.524136 0.407649 0
M  V30 6472 H 621.355 -1.15487 1.6889 0
M  V30 6473 H 621.365 -3.58828 1.94182 0
M  V30 6474 H 620.04 -2.96828 2.91317 0
M  V30 6475 H 618.617 -3.53967 1.17312 0
M  V30 6476 N 620.802 -1.09834 -1.13024 0
M  V30 6477 C 622.048 -0.83819 -1.84668 0
M  V30 6478 C 622.381 0.634645 -1.83537 0
M  V30 6479 O 621.656 1.46753 -1.27647 0
M  V30 6480 C 621.939 -1.37933 -3.32636 0
M  V30 6481 C 621.792 -2.91857 -3.42257 0
M  V30 6482 C 623.111 -1.01654 -4.28199 0
M  V30 6483 H 620.23 -0.30595 -0.670495 0
M  V30 6484 H 622.872 -1.36044 -1.32635 0
M  V30 6485 H 621.022 -0.935111 -3.77078 0
M  V30 6486 H 622.694 -3.44759 -3.06495 0
M  V30 6487 H 620.937 -3.28776 -2.83 0
M  V30 6488 H 621.608 -3.24799 -4.46329 0
M  V30 6489 H 624.084 -1.39973 -3.9185 0
M  V30 6490 H 622.96 -1.42217 -5.30156 0
M  V30 6491 H 623.221 0.0747794 -4.42037 0
M  V30 6492 N 622.28 1.30327 -0.886154 0
M  V30 6493 C 623.51 1.99964 -0.519421 0
M  V30 6494 C 623.918 1.66593 0.89686 0
M  V30 6495 O 623.261 0.899886 1.60149 0
M  V30 6496 C 623.323 3.54187 -0.615795 0
M  V30 6497 C 622.987 4.11078 -1.9966 0
M  V30 6498 C 623.984 4.26985 -2.96614 0
M  V30 6499 C 621.669 4.46429 -2.30231 0
M  V30 6500 C 623.663 4.77456 -4.22273 0
M  V30 6501 C 621.35 4.966 -3.56135 0
M  V30 6502 C 622.348 5.12066 -4.5197 0
M  V30 6503 O 622.036 5.61154 -5.7564 0
M  V30 6504 H 621.768 0.645979 -0.199217 0
M  V30 6505 H 624.322 1.67154 -1.19368 0
M  V30 6506 H 622.552 3.86528 0.115448 0
M  V30 6507 H 624.241 4.05065 -0.26017 0
M  V30 6508 H 625.007 3.99975 -2.74308 0
M  V30 6509 H 620.886 4.33658 -1.56404 0
M  V30 6510 H 624.43 4.89444 -4.97082 0
M  V30 6511 H 620.327 5.23045 -3.78277 0
M  V30 6512 H 621.095 5.79494 -5.78039 0
M  V30 6513 N 623.758 0.647228 1.43697 0
M  V30 6514 C 624.721 -0.0385101 2.29168 0
M  V30 6515 C 625.721 -0.756487 1.41894 0
M  V30 6516 O 626.911 -0.598641 1.63591 0
M  V30 6517 C 624.043 -1.06524 3.23829 0
M  V30 6518 H 625.236 0.713445 2.9129 0
M  V30 6519 H 622.789 0.408153 1.50877 0
M  V30 6520 H 623.524 -1.84664 2.66589 0
M  V30 6521 H 623.309 -0.554147 3.88164 0
M  V30 6522 H 624.799 -1.54432 3.87996 0
M  V30 6523 N 625.236 -1.5273 0.388769 0
M  V30 6524 C 626.485 -2.00757 -0.194833 0
M  V30 6525 C 626.798 -1.27951 -1.47946 0
M  V30 6526 O 628.004 -1.66686 -2.14308 0
M  V30 6527 C 626.46 -3.57695 -0.397762 0
M  V30 6528 C 626.068 -4.394 0.873583 0
M  V30 6529 C 627.812 -4.14012 -0.937759 0
M  V30 6530 C 625.719 -5.87938 0.638962 0
M  V30 6531 H 624.649 -0.750101 -0.0765845 0
M  V30 6532 H 627.3 -1.76239 0.511086 0
M  V30 6533 H 625.682 -3.7846 -1.16552 0
M  V30 6534 H 626.856 -4.30403 1.64591 0
M  V30 6535 H 625.171 -3.94301 1.33849 0
M  V30 6536 H 627.768 -5.22645 -1.12899 0
M  V30 6537 H 628.111 -3.7007 -1.90666 0
M  V30 6538 H 628.644 -3.97137 -0.229588 0
M  V30 6539 H 625.383 -6.36202 1.57885 0
M  V30 6540 H 624.903 -5.99726 -0.094443 0
M  V30 6541 H 626.582 -6.46423 0.273299 0
M  V30 6542 N 626.714 -0.118576 -1.57153 0
M  V30 6543 C 627.677 0.817464 -2.14127 0
M  V30 6544 C 628.677 1.1949 -1.07604 0
M  V30 6545 O 629.867 1.12048 -1.33382 0
M  V30 6546 C 626.999 2.10541 -2.68115 0
M  V30 6547 H 628.192 0.322339 -2.98163 0
M  V30 6548 H 625.745 0.130655 -1.55753 0
M  V30 6549 H 626.48 2.64485 -1.87665 0
M  V30 6550 H 626.265 1.84425 -3.4602 0
M  V30 6551 H 627.755 2.77453 -3.12105 0
M  V30 6552 N 628.193 1.56834 0.155195 0
M  V30 6553 C 629.47 1.73799 0.897395 0
M  V30 6554 C 629.85 0.684379 1.99698 0
M  V30 6555 O 629.198 -0.298111 2.26547 0
M  V30 6556 C 629.408 3.17572 1.44737 0
M  V30 6557 C 630.756 3.79014 1.91399 0
M  V30 6558 O 631.78 3.20951 1.54496 0
M  V30 6559 O 630.639 4.80998 2.59429 0
M  V30 6560 H 627.733 0.710329 0.423511 0
M  V30 6561 H 630.279 1.69107 0.141761 0
M  V30 6562 H 629.051 3.85749 0.656741 0
M  V30 6563 H 628.674 3.26657 2.26674 0
M  V30 6564 N 629.671 -0.424282 1.51781 0
M  V30 6565 C 630.917 -1.17434 1.6534 0
M  V30 6566 C 631.25 -1.90549 0.374806 0
M  V30 6567 O 630.525 -1.84145 -0.626179 0
M  V30 6568 C 630.808 -2.18093 2.86544 0
M  V30 6569 C 630.661 -1.48975 4.24413 0
M  V30 6570 C 631.98 -3.18934 3.03264 0
M  V30 6571 H 629.099 -0.425566 0.601716 0
M  V30 6572 H 631.741 -0.461921 1.84299 0
M  V30 6573 H 629.891 -2.78849 2.7051 0
M  V30 6574 H 631.563 -0.914551 4.52143 0
M  V30 6575 H 629.806 -0.791893 4.26511 0
M  V30 6576 H 630.477 -2.22347 5.05238 0
M  V30 6577 H 632.953 -2.68243 3.18096 0
M  V30 6578 H 631.829 -3.86645 3.89611 0
M  V30 6579 H 632.09 -3.85793 2.15908 0
M  V30 6580 N 631.149 -1.42148 -0.680565 0
M  V30 6581 C 632.112 -1.4488 -1.77602 0
M  V30 6582 C 633.112 -0.337209 -1.57224 0
M  V30 6583 O 634.302 -0.597778 -1.63622 0
M  V30 6584 C 631.434 -1.27483 -3.16166 0
M  V30 6585 H 632.627 -2.42412 -1.76568 0
M  V30 6586 H 630.18 -1.28511 -0.889645 0
M  V30 6587 H 630.915 -0.30851 -3.22829 0
M  V30 6588 H 630.7 -2.08037 -3.3236 0
M  V30 6589 H 632.19 -1.32265 -3.96101 0
M  V30 6590 N 632.627 0.916307 -1.28225 0
M  V30 6591 C 633.874 1.66518 -1.1523 0
M  V30 6592 C 634.202 1.92178 0.299632 0
M  V30 6593 O 633.457 1.51842 1.2346 0
M  V30 6594 C 633.756 3.03125 -1.8934 0
M  V30 6595 C 633.422 2.97135 -3.39148 0
M  V30 6596 C 632.084 2.95208 -3.80007 0
M  V30 6597 C 634.436 2.87574 -4.34685 0
M  V30 6598 C 631.764 2.81518 -5.14747 0
M  V30 6599 C 634.116 2.75424 -5.69495 0
M  V30 6600 C 632.78 2.71854 -6.09632 0
M  V30 6601 H 632.05 0.609334 -0.421655 0
M  V30 6602 H 634.697 1.06776 -1.58969 0
M  V30 6603 H 633.002 3.66639 -1.38143 0
M  V30 6604 H 634.699 3.59968 -1.76704 0
M  V30 6605 H 631.289 2.99428 -3.06661 0
M  V30 6606 H 635.473 2.88152 -4.04082 0
M  V30 6607 H 630.729 2.77148 -5.44976 0
M  V30 6608 H 634.903 2.66993 -6.43185 0
M  V30 6609 H 632.53 2.61003 -7.1399 0
M  V30 6610 N 634.105 1.10431 1.1244 0
M  V30 6611 C 635.345 0.856518 1.85589 0
M  V30 6612 C 635.709 -0.606905 1.82156 0
M  V30 6613 O 636.91 -0.97105 2.50647 0
M  V30 6614 C 635.181 1.38977 3.29272 0
M  V30 6615 S 636.74 1.27739 4.19795 0
M  V30 6616 H 633.558 0.309509 0.640098 0
M  V30 6617 H 636.16 1.40975 1.35449 0
M  V30 6618 H 634.864 2.44887 3.2933 0
M  V30 6619 H 634.395 0.833112 3.84477 0
M  V30 6620 H 636.41 0.235051 4.95643 0
M  V30 6621 N 635.583 -1.29855 0.893053 0
M  V30 6622 C 636.516 -2.26079 0.3104 0
M  V30 6623 C 637.494 -1.52145 -0.573644 0
M  V30 6624 O 638.678 -1.8113 -0.521937 0
M  V30 6625 C 635.805 -3.34069 -0.558179 0
M  V30 6626 C 634.851 -4.25721 0.257638 0
M  V30 6627 S 635.684 -5.09409 1.65114 0
M  V30 6628 C 636.84 -6.20903 0.789307 0
M  V30 6629 H 637.073 -2.75151 1.12602 0
M  V30 6630 H 634.606 -1.37975 0.692978 0
M  V30 6631 H 636.564 -3.9675 -1.05355 0
M  V30 6632 H 635.225 -2.83705 -1.34797 0
M  V30 6633 H 634.418 -5.02366 -0.405562 0
M  V30 6634 H 634.02 -3.67656 0.685917 0
M  V30 6635 H 636.312 -6.77499 0.00978451 0
M  V30 6636 H 637.255 -6.91426 1.52762 0
M  V30 6637 H 637.663 -5.63435 0.346634 0
M  V30 6638 N 637.061 -0.65484 -1.43351 0
M  V30 6639 C 638.309 -0.168559 -2.01396 0
M  V30 6640 C 638.63 1.22235 -1.51933 0
M  V30 6641 O 637.9 1.81685 -0.732627 0
M  V30 6642 H 636.48 -0.0593244 -0.744641 0
M  V30 6643 H 639.142 -0.846871 -1.75539 0
M  V30 6644 H 638.238 -0.154428 -3.11718 0
M  V30 6645 N 638.539 1.52521 -0.396863 0
M  V30 6646 C 639.769 2.05792 0.182485 0
M  V30 6647 C 640.177 1.26784 1.40436 0
M  V30 6648 O 639.52 0.309617 1.81072 0
M  V30 6649 C 639.582 3.54291 0.609781 0
M  V30 6650 C 639.246 4.5426 -0.499674 0
M  V30 6651 C 640.243 5.01812 -1.35944 0
M  V30 6652 C 637.928 4.97827 -0.668864 0
M  V30 6653 C 639.922 5.91562 -2.37346 0
M  V30 6654 C 637.609 5.87376 -1.68621 0
M  V30 6655 C 638.607 6.34137 -2.53692 0
M  V30 6656 O 638.295 7.21915 -3.53686 0
M  V30 6657 H 638.027 0.675362 0.0293583 0
M  V30 6658 H 640.581 1.97539 -0.56281 0
M  V30 6659 H 638.811 3.60188 1.40717 0
M  V30 6660 H 640.5 3.90267 1.11565 0
M  V30 6661 H 641.266 4.68879 -1.24008 0
M  V30 6662 H 637.145 4.60997 -0.0163971 0
M  V30 6663 H 640.689 6.27983 -3.03782 0
M  V30 6664 H 636.586 6.19723 -1.80593 0
M  V30 6665 H 637.354 7.39996 -3.49784 0
M  V30 6666 N 640.017 0.126909 1.57088 0
M  V30 6667 C 640.98 -0.806097 2.14557 0
M  V30 6668 C 641.98 -1.18918 1.08236 0
M  V30 6669 O 643.17 -1.11339 1.33975 0
M  V30 6670 C 640.302 -2.09116 2.69227 0
M  V30 6671 H 641.495 -0.306522 2.98329 0
M  V30 6672 H 639.048 -0.122393 1.5582 0
M  V30 6673 H 639.783 -2.63486 1.89065 0
M  V30 6674 H 639.568 -1.82588 3.46993 0
M  V30 6675 H 641.058 -2.75794 3.13572 0
M  V30 6676 N 641.495 -1.56914 -0.146875 0
M  V30 6677 C 642.744 -1.82546 -0.857898 0
M  V30 6678 C 643.057 -0.708169 -1.8233 0
M  V30 6679 O 644.263 -0.850093 -2.57848 0
M  V30 6680 C 642.719 -3.23548 -1.57623 0
M  V30 6681 C 642.327 -4.43212 -0.653224 0
M  V30 6682 C 644.071 -3.58453 -2.27402 0
M  V30 6683 C 641.978 -5.75237 -1.37318 0
M  V30 6684 H 640.908 -0.680786 -0.32411 0
M  V30 6685 H 643.559 -1.83166 -0.110639 0
M  V30 6686 H 641.941 -3.17315 -2.36912 0
M  V30 6687 H 643.115 -4.60682 0.104452 0
M  V30 6688 H 641.43 -4.16351 -0.0638336 0
M  V30 6689 H 644.027 -4.54349 -2.81907 0
M  V30 6690 H 644.37 -2.84516 -3.03901 0
M  V30 6691 H 644.903 -3.66347 -1.55032 0
M  V30 6692 H 641.642 -6.52269 -0.650041 0
M  V30 6693 H 641.162 -5.61703 -2.10357 0
M  V30 6694 H 642.841 -6.18039 -1.91406 0
M  V30 6695 N 642.974 0.416227 -1.52004 0
M  V30 6696 C 644.222 1.16153 -1.65387 0
M  V30 6697 C 644.543 1.91208 -0.382669 0
M  V30 6698 O 643.813 1.86413 0.602231 0
M  V30 6699 H 642.393 0.431765 -0.60958 0
M  V30 6700 H 645.055 0.475151 -1.89019 0
M  V30 6701 H 644.151 1.87952 -2.4916 0
M  V30 6702 N 644.452 1.42507 0.673017 0
M  V30 6703 C 645.863 1.38347 1.25367 0
M  V30 6704 C 646.214 0.0776327 1.96046 0
M  V30 6705 O 645.339 -0.823571 2.00116 0
M  V30 6706 C 645.934 2.506 2.28002 0
M  V30 6707 C 644.493 2.49767 2.81591 0
M  V30 6708 C 643.64 2.293 1.55938 0
M  V30 6709 H 646.591 1.51695 0.466288 0
M  V30 6710 H 646.612 2.20953 3.09774 0
M  V30 6711 H 646.124 3.45627 1.76532 0
M  V30 6712 H 644.225 1.58563 3.37177 0
M  V30 6713 H 644.338 3.46867 3.30485 0
M  V30 6714 H 642.702 1.77594 1.82572 0
M  V30 6715 H 643.485 3.26385 1.06431 0
M  V30 6716 N 645.93 -0.909495 1.28709 0
M  V30 6717 C 647.155 -1.69801 1.1909 0
M  V30 6718 C 647.58 -1.86479 -0.246388 0
M  V30 6719 O 646.938 -1.37802 -1.17815 0
M  V30 6720 C 646.986 -3.06543 1.89904 0
M  V30 6721 O 646.09 -3.94268 1.2094 0
M  V30 6722 H 645.431 -0.519783 0.413185 0
M  V30 6723 H 647.961 -1.13689 1.70106 0
M  V30 6724 H 647.971 -3.56748 1.97977 0
M  V30 6725 H 646.646 -2.93722 2.94449 0
M  V30 6726 H 645.223 -3.52702 1.2106 0
M  V30 6727 N 647.408 -1.11026 -1.11852 0
M  V30 6728 C 648.371 -0.768006 -2.1595 0
M  V30 6729 C 649.371 0.210538 -1.59416 0
M  V30 6730 O 650.561 -0.0133978 -1.74195 0
M  V30 6731 C 647.693 -0.138678 -3.40618 0
M  V30 6732 H 648.886 -1.69012 -2.4774 0
M  V30 6733 H 646.439 -0.911578 -1.26964 0
M  V30 6734 H 647.174 0.793872 -3.14433 0
M  V30 6735 H 646.959 -0.843012 -3.8293 0
M  V30 6736 H 648.449 0.0848039 -4.17514 0
M  V30 6737 N 648.886 1.2938 -0.899927 0
M  V30 6738 C 650.134 1.95164 -0.524924 0
M  V30 6739 C 650.455 1.71292 0.931888 0
M  V30 6740 O 649.725 1.04481 1.65712 0
M  V30 6741 H 648.305 0.722133 -0.191135 0
M  V30 6742 H 650.967 1.57628 -1.14627 0
M  V30 6743 H 650.063 3.0397 -0.707711 0
M  V30 6744 N 650.364 0.662433 1.43002 0
M  V30 6745 C 651.612 0.179237 2.01304 0
M  V30 6746 C 651.933 -1.21428 1.52579 0
M  V30 6747 O 651.203 -1.81294 0.742252 0
M  V30 6748 H 649.783 0.0632725 0.744316 0
M  V30 6749 H 652.445 0.856169 1.75088 0
M  V30 6750 H 651.541 0.170957 3.11631 0
M  V30 6751 N 651.842 -1.52309 0.404946 0
M  V30 6752 C 652.805 -2.25491 -0.410651 0
M  V30 6753 C 653.805 -1.27704 -0.977154 0
M  V30 6754 O 654.995 -1.51679 -0.856691 0
M  V30 6755 C 652.127 -3.02197 -1.57765 0
M  V30 6756 H 653.32 -2.99015 0.230277 0
M  V30 6757 H 650.873 -1.55506 0.157377 0
M  V30 6758 H 651.608 -2.33013 -2.25556 0
M  V30 6759 H 651.393 -3.73987 -1.17797 0
M  V30 6760 H 652.883 -3.57719 -2.15469 0
M  V30 6761 N 653.32 -0.135238 -1.57019 0
M  V30 6762 C 654.569 0.518694 -1.94917 0
M  V30 6763 C 654.882 1.66783 -1.0219 0
M  V30 6764 O 656.088 2.38561 -1.29619 0
M  V30 6765 C 654.544 0.974123 -3.46466 0
M  V30 6766 C 654.152 -0.147439 -4.47757 0
M  V30 6767 C 655.896 1.59851 -3.93253 0
M  V30 6768 C 653.803 0.325599 -5.90503 0
M  V30 6769 H 652.733 0.19754 -0.727663 0
M  V30 6770 H 655.384 -0.217698 -1.82204 0
M  V30 6771 H 653.766 1.76542 -3.5447 0
M  V30 6772 H 654.94 -0.924122 -4.51438 0
M  V30 6773 H 653.255 -0.679496 -4.10818 0
M  V30 6774 H 655.852 1.96385 -4.9733 0
M  V30 6775 H 656.195 2.48306 -3.3414 0
M  V30 6776 H 656.728 0.872323 -3.88118 0
M  V30 6777 H 653.467 -0.523295 -6.53408 0
M  V30 6778 H 652.987 1.06841 -5.90208 0
M  V30 6779 H 654.666 0.781498 -6.42263 0
M  V30 6780 N 654.798 1.5699 0.138552 0
M  V30 6781 C 655.761 1.97984 1.15478 0
M  V30 6782 C 656.761 0.867416 1.35398 0
M  V30 6783 O 657.951 1.13387 1.32246 0
M  V30 6784 C 655.083 2.3031 2.51337 0
M  V30 6785 H 656.276 2.88953 0.802896 0
M  V30 6786 H 653.829 1.51555 0.382189 0
M  V30 6787 H 654.564 1.42159 2.91481 0
M  V30 6788 H 654.349 3.11425 2.38237 0
M  V30 6789 H 655.839 2.62834 3.24512 0
M  V30 6790 N 656.276 -0.40816 1.52223 0
M  V30 6791 C 657.223 -1.49737 1.75635 0
M  V30 6792 C 658.193 -1.5493 0.598824 0
M  V30 6793 O 659.378 -1.71487 0.83648 0
M  V30 6794 C 656.518 -2.87174 1.91376 0
M  V30 6795 C 655.631 -2.91283 3.19027 0
M  V30 6796 C 654.766 -4.20026 3.25195 0
M  V30 6797 C 653.805 -4.18113 4.47044 0
M  V30 6798 N 652.942 -5.38429 4.50598 0
M  V30 6799 H 657.782 -1.29075 2.68596 0
M  V30 6800 H 655.319 -0.626518 1.33091 0
M  V30 6801 H 657.277 -3.66959 1.98486 0
M  V30 6802 H 655.907 -3.06329 1.01795 0
M  V30 6803 H 654.959 -2.03984 3.21084 0
M  V30 6804 H 656.271 -2.85734 4.08849 0
M  V30 6805 H 655.425 -5.08204 3.31382 0
M  V30 6806 H 654.164 -4.28271 2.33313 0
M  V30 6807 H 653.169 -3.28325 4.41002 0
M  V30 6808 H 654.394 -4.11507 5.40221 0
M  V30 6809 H 652.34 -5.4734 3.616 0
M  V30 6810 H 652.257 -5.34879 5.34266 0
M  V30 6811 H 653.525 -6.28557 4.61016 0
M  V30 6812 N 657.755 -1.42862 -0.66545 0
M  V30 6813 C 658.718 -1.46756 -1.76055 0
M  V30 6814 C 659.718 -0.353866 -1.56858 0
M  V30 6815 O 660.908 -0.615099 -1.62979 0
M  V30 6816 C 658.04 -1.30829 -3.14796 0
M  V30 6817 H 659.233 -2.44271 -1.73987 0
M  V30 6818 H 656.786 -1.29447 -0.875965 0
M  V30 6819 H 657.521 -0.342733 -3.22484 0
M  V30 6820 H 657.306 -2.11551 -3.30134 0
M  V30 6821 H 658.796 -1.36458 -3.94676 0
M  V30 6822 N 659.233 0.902656 -1.29189 0
M  V30 6823 C 660.482 1.6475 -1.16362 0
M  V30 6824 C 660.795 1.93517 0.284682 0
M  V30 6825 O 662.001 2.66192 0.534229 0
M  V30 6826 C 660.457 2.96848 -2.03493 0
M  V30 6827 C 660.065 2.75687 -3.5313 0
M  V30 6828 C 661.809 3.74762 -1.99383 0
M  V30 6829 C 659.716 4.03492 -4.32375 0
M  V30 6830 H 658.646 0.618041 -0.431904 0
M  V30 6831 H 661.297 1.0008 -1.53806 0
M  V30 6832 H 659.679 3.62715 -1.58916 0
M  V30 6833 H 660.853 2.18431 -4.05739 0
M  V30 6834 H 659.168 2.11171 -3.58881 0
M  V30 6835 H 661.765 4.69515 -2.5585 0
M  V30 6836 H 662.108 4.04767 -0.973123 0
M  V30 6837 H 662.641 3.15732 -2.41988 0
M  V30 6838 H 659.38 3.78656 -5.3507 0
M  V30 6839 H 658.9 4.60318 -3.84535 0
M  V30 6840 H 660.579 4.71662 -4.42881 0
M  V30 6841 N 660.711 1.11618 1.11262 0
M  V30 6842 C 661.959 0.864469 1.82678 0
M  V30 6843 C 662.28 -0.611564 1.85162 0
M  V30 6844 O 661.55 -1.44429 1.32352 0
M  V30 6845 H 660.13 0.316821 0.676486 0
M  V30 6846 H 662.792 1.40894 1.34666 0
M  V30 6847 H 661.888 1.23832 2.86482 0
M  V30 6848 N 662.189 -1.289 0.906776 0
M  V30 6849 C 663.436 -1.95269 0.536326 0
M  V30 6850 C 663.764 -1.71435 -0.918711 0
M  V30 6851 O 663.019 -1.02431 -1.66752 0
M  V30 6852 C 663.318 -3.48704 0.783617 0
M  V30 6853 C 662.984 -3.92626 2.21711 0
M  V30 6854 C 661.646 -4.04329 2.60906 0
M  V30 6855 C 663.998 -4.15218 3.15029 0
M  V30 6856 C 661.326 -4.35998 3.92584 0
M  V30 6857 C 663.678 -4.48365 4.46264 0
M  V30 6858 C 662.342 -4.58278 4.85322 0
M  V30 6859 H 661.612 -0.714538 0.196256 0
M  V30 6860 H 664.259 -1.53366 1.14678 0
M  V30 6861 H 662.564 -3.91696 0.0903048 0
M  V30 6862 H 664.261 -3.98162 0.476267 0
M  V30 6863 H 660.851 -3.84038 1.90296 0
M  V30 6864 H 665.035 -4.05636 2.8596 0
M  V30 6865 H 660.291 -4.41878 4.22557 0
M  V30 6866 H 664.465 -4.64795 5.18593 0
M  V30 6867 H 662.092 -4.82573 5.87391 0
M  V30 6868 N 663.667 -0.670007 -1.42649 0
M  V30 6869 C 665.078 -0.268118 -1.84765 0
M  V30 6870 C 665.429 1.18877 -1.56086 0
M  V30 6871 O 664.554 1.90947 -1.01825 0
M  V30 6872 C 665.149 -0.47984 -3.35385 0
M  V30 6873 C 663.708 -0.132116 -3.76168 0
M  V30 6874 C 662.855 -0.774611 -2.66261 0
M  V30 6875 H 665.806 -0.872509 -1.32563 0
M  V30 6876 H 665.827 0.269522 -3.79544 0
M  V30 6877 H 665.339 -1.54026 -3.56227 0
M  V30 6878 H 663.44 0.92505 -3.60934 0
M  V30 6879 H 663.553 -0.569294 -4.75706 0
M  V30 6880 H 661.917 -0.206353 -2.53863 0
M  V30 6881 H 662.7 -1.83839 -2.89928 0
M  V30 6882 N 665.145 1.52092 -0.413018 0
M  V30 6883 C 666.391 2.02815 0.154104 0
M  V30 6884 C 666.746 1.293 1.42475 0
M  V30 6885 O 666.039 0.391835 1.87551 0
M  V30 6886 C 666.233 3.54529 0.4521 0
M  V30 6887 C 666.062 4.4274 -0.788116 0
M  V30 6888 C 664.832 4.87903 -1.31447 0
M  V30 6889 C 667.03 4.86522 -1.66735 0
M  V30 6890 N 665.012 5.60254 -2.50976 0
M  V30 6891 C 666.383 5.57692 -2.70886 0
M  V30 6892 C 668.438 4.68534 -1.68465 0
M  V30 6893 C 667.141 6.12783 -3.76682 0
M  V30 6894 C 669.167 5.24524 -2.73182 0
M  V30 6895 C 668.529 5.9562 -3.76054 0
M  V30 6896 H 664.628 0.781796 0.0178567 0
M  V30 6897 H 667.212 1.86223 -0.568237 0
M  V30 6898 H 665.383 3.71186 1.14348 0
M  V30 6899 H 667.115 3.91934 1.00844 0
M  V30 6900 H 663.87 4.65504 -0.871931 0
M  V30 6901 H 664.294 6.01069 -3.11521 0
M  V30 6902 H 668.936 4.13051 -0.902708 0
M  V30 6903 H 666.654 6.67335 -4.55729 0
M  V30 6904 H 670.24 5.12473 -2.75433 0
M  V30 6905 H 669.12 6.38169 -4.55752 0
M  V30 6906 N 666.623 0.143563 1.56945 0
M  V30 6907 C 667.553 -0.7936 2.196 0
M  V30 6908 C 668.534 -1.25955 1.14321 0
M  V30 6909 O 669.719 -1.31773 1.42651 0
M  V30 6910 C 666.849 -2.03424 2.81489 0
M  V30 6911 C 665.803 -1.70519 3.92565 0
M  V30 6912 C 665.129 -3.01817 4.41373 0
M  V30 6913 C 666.429 -0.95449 5.13504 0
M  V30 6914 H 668.123 -0.271423 2.98167 0
M  V30 6915 H 665.669 -0.12911 1.4342 0
M  V30 6916 H 667.622 -2.69463 3.23987 0
M  V30 6917 H 666.346 -2.58008 2.00248 0
M  V30 6918 H 665.005 -1.06859 3.5068 0
M  V30 6919 H 664.653 -3.54386 3.56959 0
M  V30 6920 H 664.353 -2.80565 5.16292 0
M  V30 6921 H 665.877 -3.68934 4.86539 0
M  V30 6922 H 667.291 -1.5169 5.52868 0
M  V30 6923 H 665.688 -0.842035 5.94163 0
M  V30 6924 H 666.758 0.0544033 4.84869 0
M  V30 6925 N 668.101 -1.57061 -0.130224 0
M  V30 6926 C 669.034 -1.94698 -1.19029 0
M  V30 6927 C 670.012 -0.815074 -1.40696 0
M  V30 6928 O 671.196 -1.07223 -1.55034 0
M  V30 6929 C 668.323 -2.23352 -2.5462 0
M  V30 6930 C 667.369 -3.45945 -2.49448 0
M  V30 6931 S 668.202 -4.98927 -1.94505 0
M  V30 6932 C 669.358 -5.30721 -3.31792 0
M  V30 6933 H 669.591 -2.84308 -0.869272 0
M  V30 6934 H 667.124 -1.50688 -0.336531 0
M  V30 6935 H 669.082 -2.40539 -3.32643 0
M  V30 6936 H 667.743 -1.34376 -2.83905 0
M  V30 6937 H 666.936 -3.63324 -3.49302 0
M  V30 6938 H 666.538 -3.28086 -1.79543 0
M  V30 6939 H 668.83 -5.25215 -4.27966 0
M  V30 6940 H 669.773 -6.32048 -3.19251 0
M  V30 6941 H 670.181 -4.5821 -3.29703 0
M  V30 6942 N 669.579 0.400081 -1.52437 0
M  V30 6943 C 670.807 1.16768 -1.70801 0
M  V30 6944 C 671.222 1.84036 -0.421462 0
M  V30 6945 O 670.579 1.72242 0.603228 0
M  V30 6946 C 670.63 2.22403 -2.8499 0
M  V30 6947 O 670.351 1.57879 -4.08663 0
M  V30 6948 C 671.852 3.11974 -3.1494 0
M  V30 6949 H 669.072 0.350533 -0.57216 0
M  V30 6950 H 671.616 0.469534 -1.99037 0
M  V30 6951 H 669.771 2.87871 -2.59247 0
M  V30 6952 H 670.185 2.27982 -4.7236 0
M  V30 6953 H 671.659 3.82148 -3.9833 0
M  V30 6954 H 672.136 3.74858 -2.28863 0
M  V30 6955 H 672.742 2.52165 -3.42481 0
M  V30 6956 N 671.057 1.43213 0.657864 0
M  V30 6957 C 672.306 1.43871 1.41365 0
M  V30 6958 C 672.619 0.064898 1.95492 0
M  V30 6959 O 673.825 -0.0510796 2.71452 0
M  V30 6960 C 672.281 2.53158 2.55811 0
M  V30 6961 C 671.889 3.96624 2.08311 0
M  V30 6962 C 673.633 2.63004 3.3321 0
M  V30 6963 C 671.54 4.97385 3.1994 0
M  V30 6964 H 670.47 0.535174 0.531136 0
M  V30 6965 H 673.121 1.69185 0.710543 0
M  V30 6966 H 671.503 2.21037 3.2857 0
M  V30 6967 H 672.677 4.38182 1.42593 0
M  V30 6968 H 670.992 3.90781 1.43804 0
M  V30 6969 H 673.589 3.3546 4.16378 0
M  V30 6970 H 673.932 1.67918 3.80932 0
M  V30 6971 H 674.465 2.94403 2.67529 0
M  V30 6972 H 671.204 5.94007 2.77192 0
M  V30 6973 H 670.724 4.60444 3.84385 0
M  V30 6974 H 672.403 5.19877 3.85145 0
M  V30 6975 N 672.536 -0.895792 1.29666 0
M  V30 6976 C 673.785 -1.64131 1.17234 0
M  V30 6977 C 674.098 -1.93665 -0.274416 0
M  V30 6978 O 675.304 -2.66472 -0.520105 0
M  V30 6979 C 673.76 -2.95764 2.05065 0
M  V30 6980 C 673.368 -2.7381 3.54587 0
M  V30 6981 C 675.112 -3.737 2.01367 0
M  V30 6982 C 673.019 -4.01194 4.34508 0
M  V30 6983 H 671.949 -0.615742 0.435175 0
M  V30 6984 H 674.6 -0.992626 1.54335 0
M  V30 6985 H 672.982 -3.61867 1.60837 0
M  V30 6986 H 674.156 -2.16277 4.06892 0
M  V30 6987 H 672.471 -2.09265 3.59996 0
M  V30 6988 H 675.068 -4.68152 2.58337 0
M  V30 6989 H 675.411 -4.04245 0.994575 0
M  V30 6990 H 675.944 -3.14444 2.43659 0
M  V30 6991 H 672.683 -3.75813 5.37071 0
M  V30 6992 H 672.203 -4.58272 3.86971 0
M  V30 6993 H 673.882 -4.69307 4.45376 0
M  V30 6994 N 674.014 -1.12206 -1.10668 0
M  V30 6995 C 675.262 -0.874144 -1.82217 0
M  V30 6996 C 675.583 0.601736 -1.85484 0
M  V30 6997 O 674.853 1.43725 -1.33116 0
M  V30 6998 H 673.433 -0.320404 -0.674797 0
M  V30 6999 H 676.095 -1.41606 -1.33917 0
M  V30 7000 H 675.191 -1.25349 -2.85822 0
M  V30 7001 N 675.492 1.28418 -0.913599 0
M  V30 7002 C 676.741 1.94265 -0.542572 0
M  V30 7003 C 677.054 1.72709 0.918207 0
M  V30 7004 O 678.26 2.32778 1.39738 0
M  V30 7005 C 676.716 3.47956 -0.919507 0
M  V30 7006 C 676.324 3.78291 -2.4 0
M  V30 7007 C 678.068 4.19962 -0.619057 0
M  V30 7008 C 675.975 5.2529 -2.71707 0
M  V30 7009 H 674.905 0.727213 -0.199192 0
M  V30 7010 H 677.556 1.45931 -1.11249 0
M  V30 7011 H 675.938 3.9502 -0.278372 0
M  V30 7012 H 677.112 3.42035 -3.08786 0
M  V30 7013 H 675.427 3.19456 -2.67089 0
M  V30 7014 H 678.024 5.28178 -0.832623 0
M  V30 7015 H 678.367 4.13935 0.443126 0
M  V30 7016 H 678.9 3.78674 -1.21865 0
M  V30 7017 H 675.639 5.36394 -3.76778 0
M  V30 7018 H 675.159 5.62743 -2.07559 0
M  V30 7019 H 676.838 5.93027 -2.58703 0
M  V30 7020 N 676.97 0.677563 1.42291 0
M  V30 7021 C 678.219 0.198173 2.00724 0
M  V30 7022 C 678.532 -1.20325 1.54211 0
M  V30 7023 O 679.738 -1.77916 2.05081 0
M  V30 7024 C 678.194 0.303432 3.58619 0
M  V30 7025 C 677.802 1.70909 4.14119 0
M  V30 7026 C 679.546 -0.117103 4.24338 0
M  V30 7027 C 677.453 1.76696 5.64387 0
M  V30 7028 H 676.383 0.070329 0.750713 0
M  V30 7029 H 679.034 0.843147 1.62982 0
M  V30 7030 H 677.416 -0.409482 3.93877 0
M  V30 7031 H 678.59 2.44931 3.90315 0
M  V30 7032 H 676.905 2.07771 3.6086 0
M  V30 7033 H 679.502 -0.0940471 5.34617 0
M  V30 7034 H 679.845 -1.15283 4.00019 0
M  V30 7035 H 680.378 0.5449 3.9405 0
M  V30 7036 H 677.117 2.7826 5.93508 0
M  V30 7037 H 676.637 1.07034 5.90173 0
M  V30 7038 H 678.316 1.52166 6.28852 0
M  V30 7039 N 678.448 -1.51871 0.421078 0
M  V30 7040 C 679.725 -1.9447 -0.20993 0
M  V30 7041 C 680.105 -1.35875 -1.61558 0
M  V30 7042 O 679.453 -0.539294 -2.22045 0
M  V30 7043 C 679.663 -3.48402 -0.204165 0
M  V30 7044 C 681.011 -4.2254 -0.417696 0
M  V30 7045 O 682.035 -3.55074 -0.282999 0
M  V30 7046 O 680.894 -5.422 -0.684239 0
M  V30 7047 H 677.988 -0.815283 -0.138718 0
M  V30 7048 H 680.534 -1.62832 0.477884 0
M  V30 7049 H 679.306 -3.83464 0.779183 0
M  V30 7050 H 678.929 -3.86436 -0.935576 0
M  V30 7051 N 679.926 -0.151884 -1.56866 0
M  V30 7052 C 681.175 0.497992 -1.95456 0
M  V30 7053 C 681.488 1.6569 -1.03953 0
M  V30 7054 O 682.694 2.37173 -1.32142 0
M  V30 7055 C 681.15 0.93732 -3.4748 0
M  V30 7056 C 680.758 -0.194921 -4.47576 0
M  V30 7057 C 682.502 1.55671 -3.94926 0
M  V30 7058 C 680.409 0.26295 -5.90815 0
M  V30 7059 H 679.339 0.189811 -0.729717 0
M  V30 7060 H 681.99 -0.237011 -1.81963 0
M  V30 7061 H 680.372 1.72773 -3.56322 0
M  V30 7062 H 681.546 -0.971951 -4.50433 0
M  V30 7063 H 679.861 -0.72303 -4.10075 0
M  V30 7064 H 682.458 1.91099 -4.99385 0
M  V30 7065 H 682.801 2.44748 -3.36755 0
M  V30 7066 H 683.334 0.831109 -3.89021 0
M  V30 7067 H 680.073 -0.592568 -6.52816 0
M  V30 7068 H 679.593 1.00575 -5.91308 0
M  V30 7069 H 681.272 0.713333 -6.43056 0
M  V30 7070 N 681.404 1.57128 0.121893 0
M  V30 7071 C 682.334 2.03165 1.15092 0
M  V30 7072 C 683.315 0.915587 1.43356 0
M  V30 7073 O 684.5 1.1851 1.53847 0
M  V30 7074 C 681.63 2.43352 2.47784 0
M  V30 7075 C 680.584 3.58376 2.33989 0
M  V30 7076 C 679.91 3.84454 3.71617 0
M  V30 7077 C 681.21 4.90199 1.80283 0
M  V30 7078 H 682.904 2.89382 0.768023 0
M  V30 7079 H 680.45 1.39218 0.367998 0
M  V30 7080 H 682.403 2.74163 3.20019 0
M  V30 7081 H 681.127 1.54103 2.87958 0
M  V30 7082 H 679.786 3.2777 1.64202 0
M  V30 7083 H 679.434 2.92414 4.09271 0
M  V30 7084 H 679.134 4.61877 3.6324 0
M  V30 7085 H 680.658 4.17714 4.45362 0
M  V30 7086 H 682.072 5.19565 2.42333 0
M  V30 7087 H 680.469 5.71601 1.82735 0
M  V30 7088 H 681.539 4.78904 0.760184 0
M  V30 7089 N 682.882 -0.391992 1.52647 0
M  V30 7090 C 684.129 -1.13732 1.67545 0
M  V30 7091 C 684.457 -1.90045 0.413881 0
M  V30 7092 O 683.712 -1.86157 -0.603646 0
M  V30 7093 C 684.011 -2.14401 2.85949 0
M  V30 7094 C 683.677 -1.54767 4.23507 0
M  V30 7095 C 682.339 -1.38229 4.60919 0
M  V30 7096 C 684.691 -1.11382 5.0916 0
M  V30 7097 C 682.019 -0.7685 5.81645 0
M  V30 7098 C 684.371 -0.514143 6.30507 0
M  V30 7099 C 683.035 -0.33604 6.66654 0
M  V30 7100 H 682.305 -0.416174 0.613091 0
M  V30 7101 H 684.952 -0.422327 1.86785 0
M  V30 7102 H 683.257 -2.92108 2.61114 0
M  V30 7103 H 684.954 -2.71974 2.94671 0
M  V30 7104 H 681.544 -1.68626 3.94035 0
M  V30 7105 H 685.728 -1.22962 4.80826 0
M  V30 7106 H 680.984 -0.618681 6.08262 0
M  V30 7107 H 685.158 -0.169657 6.96193 0
M  V30 7108 H 682.785 0.14166 7.60068 0
M  V30 7109 N 684.36 -1.4356 -0.65026 0
M  V30 7110 C 685.323 -1.48615 -1.74489 0
M  V30 7111 C 686.323 -0.370483 -1.56474 0
M  V30 7112 O 687.513 -0.632351 -1.62317 0
M  V30 7113 C 684.645 -1.34161 -3.13391 0
M  V30 7114 H 685.838 -2.46103 -1.71387 0
M  V30 7115 H 683.391 -1.30369 -0.862186 0
M  V30 7116 H 684.126 -0.376918 -3.22102 0
M  V30 7117 H 683.911 -2.1504 -3.27872 0
M  V30 7118 H 685.401 -1.40637 -3.93206 0
M  V30 7119 N 685.838 0.888903 -1.30139 0
M  V30 7120 C 687.249 1.45578 -1.16893 0
M  V30 7121 C 687.6 1.94825 0.231866 0
M  V30 7122 O 686.725 1.84661 1.12824 0
M  V30 7123 C 687.32 2.646 -2.11595 0
M  V30 7124 C 685.879 3.17389 -2.02339 0
M  V30 7125 C 685.026 1.90081 -2.01902 0
M  V30 7126 H 687.977 0.69921 -1.42467 0
M  V30 7127 H 687.998 3.40687 -1.69449 0
M  V30 7128 H 687.51 2.28726 -3.13538 0
M  V30 7129 H 685.611 3.5793 -1.03523 0
M  V30 7130 H 685.724 3.80955 -2.90534 0
M  V30 7131 H 684.088 2.08246 -1.46648 0
M  V30 7132 H 684.871 1.5647 -3.05568 0
M  V30 7133 N 687.317 1.12792 1.10072 0
M  V30 7134 C 688.247 0.821688 2.18565 0
M  V30 7135 C 689.228 -0.21612 1.68721 0
M  V30 7136 O 690.413 -0.0764932 1.94049 0
M  V30 7137 C 687.543 0.279624 3.46172 0
M  V30 7138 C 686.497 1.25092 4.09312 0
M  V30 7139 C 685.823 0.568916 5.31665 0
M  V30 7140 C 687.123 2.60699 4.52585 0
M  V30 7141 H 688.817 1.72888 2.44438 0
M  V30 7142 H 686.363 0.832702 1.17482 0
M  V30 7143 H 688.316 0.053099 4.21367 0
M  V30 7144 H 687.04 -0.662929 3.19801 0
M  V30 7145 H 685.699 1.46332 3.36129 0
M  V30 7146 H 685.347 -0.378898 5.01571 0
M  V30 7147 H 685.047 1.21687 5.74862 0
M  V30 7148 H 686.571 0.351517 6.09587 0
M  V30 7149 H 687.985 2.43465 5.19035 0
M  V30 7150 H 686.382 3.21608 5.06644 0
M  V30 7151 H 687.452 3.1886 3.65317 0
M  V30 7152 N 688.795 -1.27931 0.920396 0
M  V30 7153 C 690.035 -1.96459 0.564198 0
M  V30 7154 C 690.399 -1.70802 -0.876967 0
M  V30 7155 O 691.6 -2.32956 -1.34107 0
M  V30 7156 C 689.871 -3.46583 0.872641 0
M  V30 7157 S 691.43 -4.34343 0.623859 0
M  V30 7158 H 688.248 -0.679735 0.208523 0
M  V30 7159 H 690.85 -1.55319 1.18727 0
M  V30 7160 H 689.554 -3.62753 1.91933 0
M  V30 7161 H 689.085 -3.92677 0.238479 0
M  V30 7162 H 691.1 -4.93449 -0.521744 0
M  V30 7163 N 690.273 -0.685099 -1.4193 0
M  V30 7164 C 691.52 -0.211658 -2.01391 0
M  V30 7165 C 691.848 1.18526 -1.54214 0
M  V30 7166 O 691.103 1.81189 -0.739519 0
M  V30 7167 C 691.402 -0.206154 -3.56805 0
M  V30 7168 C 691.068 -1.54915 -4.23453 0
M  V30 7169 C 689.73 -1.91684 -4.41373 0
M  V30 7170 C 692.082 -2.43317 -4.60919 0
M  V30 7171 C 689.41 -3.16461 -4.94034 0
M  V30 7172 C 691.762 -3.67415 -5.14965 0
M  V30 7173 C 690.426 -4.04341 -5.31098 0
M  V30 7174 H 689.696 -0.0774511 -0.736941 0
M  V30 7175 H 692.343 -0.882121 -1.69973 0
M  V30 7176 H 690.648 0.547841 -3.87951 0
M  V30 7177 H 692.345 0.17753 -4.00607 0
M  V30 7178 H 688.935 -1.25314 -4.09871 0
M  V30 7179 H 693.119 -2.16192 -4.46738 0
M  V30 7180 H 688.375 -3.45078 -5.04709 0
M  V30 7181 H 692.549 -4.3611 -5.42938 0
M  V30 7182 H 690.176 -5.01101 -5.71666 0
M  V30 7183 N 691.751 1.51645 -0.429126 0
M  V30 7184 C 692.998 2.02015 0.140079 0
M  V30 7185 C 693.326 1.31374 1.43427 0
M  V30 7186 O 692.581 0.414779 1.91254 0
M  V30 7187 C 692.88 3.54989 0.414472 0
M  V30 7188 C 692.546 4.43874 -0.792911 0
M  V30 7189 C 691.208 4.67887 -1.12404 0
M  V30 7190 C 693.56 4.96074 -1.59875 0
M  V30 7191 C 690.888 5.41348 -2.26184 0
M  V30 7192 C 693.24 5.70782 -2.72747 0
M  V30 7193 C 691.904 5.93062 -3.06324 0
M  V30 7194 H 691.174 0.739225 0.0512585 0
M  V30 7195 H 693.821 1.82675 -0.574641 0
M  V30 7196 H 692.126 3.72615 1.21099 0
M  V30 7197 H 693.823 3.91489 0.868173 0
M  V30 7198 H 690.413 4.25374 -0.524871 0
M  V30 7199 H 694.597 4.77412 -1.35614 0
M  V30 7200 H 689.853 5.56815 -2.52522 0
M  V30 7201 H 694.027 6.10221 -3.35564 0
M  V30 7202 H 691.654 6.49764 -3.94602 0
M  V30 7203 N 693.229 0.160201 1.56784 0
M  V30 7204 C 694.159 -0.770264 2.2043 0
M  V30 7205 C 695.14 -1.24736 1.15651 0
M  V30 7206 O 696.325 -1.30253 1.44041 0
M  V30 7207 C 693.455 -2.00427 2.83631 0
M  V30 7208 C 692.409 -1.66345 3.94352 0
M  V30 7209 C 691.735 -2.97119 4.4455 0
M  V30 7210 C 693.035 -0.899972 5.14488 0
M  V30 7211 H 694.729 -0.239783 2.98438 0
M  V30 7212 H 692.275 -0.113891 1.43549 0
M  V30 7213 H 694.228 -2.66012 3.26827 0
M  V30 7214 H 692.952 -2.5587 2.02973 0
M  V30 7215 H 691.611 -1.03133 3.51794 0
M  V30 7216 H 691.259 -3.5058 3.60698 0
M  V30 7217 H 690.959 -2.75073 5.19238 0
M  V30 7218 H 692.483 -3.63753 4.90425 0
M  V30 7219 H 693.897 -1.45818 5.54446 0
M  V30 7220 H 692.294 -0.778968 5.95023 0
M  V30 7221 H 693.364 0.105827 4.84785 0
M  V30 7222 N 694.707 -1.5719 -0.113559 0
M  V30 7223 C 696.123 -1.52607 -0.467253 0
M  V30 7224 C 696.323 -0.874058 -1.81556 0
M  V30 7225 O 695.379 -0.458703 -2.48299 0
M  V30 7226 C 696.692 -2.97363 -0.446736 0
M  V30 7227 C 698.24 -3.08482 -0.529903 0
M  V30 7228 C 698.715 -4.54809 -0.539721 0
M  V30 7229 N 700.206 -4.59284 -0.601005 0
M  V30 7230 C 700.941 -5.69927 -0.630138 0
M  V30 7231 N 700.437 -6.90051 -0.616589 0
M  V30 7232 N 702.23 -5.5805 -0.673558 0
M  V30 7233 H 694.381 -1.97958 0.769819 0
M  V30 7234 H 696.644 -0.90428 0.284572 0
M  V30 7235 H 696.35 -3.48458 0.47643 0
M  V30 7236 H 696.224 -3.55086 -1.27254 0
M  V30 7237 H 698.611 -2.57386 -1.44349 0
M  V30 7238 H 698.692 -2.53744 0.323695 0
M  V30 7239 H 698.336 -5.06552 0.369843 0
M  V30 7240 H 698.266 -5.07364 -1.41028 0
M  V30 7241 H 700.757 -3.72822 -0.617419 0
M  V30 7242 H 701.07 -7.70132 -0.641592 0
M  V30 7243 H 699.415 -6.92543 -0.583927 0
M  V30 7244 H 702.606 -4.63112 -0.681544 0
M  V30 7245 H 702.779 -6.44286 -0.692794 0
M  V30 7246 N 696.185 0.383891 -1.52853 0
M  V30 7247 C 697.41 1.154 -1.7233 0
M  V30 7248 C 697.835 1.82809 -0.44298 0
M  V30 7249 O 697.193 1.71026 0.601645 0
M  V30 7250 C 697.241 2.17386 -2.87708 0
M  V30 7251 O 696.345 3.24082 -2.55038 0
M  V30 7252 H 695.686 0.335709 -0.572883 0
M  V30 7253 H 698.216 0.44662 -1.99666 0
M  V30 7254 H 698.226 2.61296 -3.1335 0
M  V30 7255 H 696.901 1.6771 -3.80587 0
M  V30 7256 H 695.478 2.85273 -2.40153 0
M  V30 7257 N 697.663 1.43903 0.642637 0
M  V30 7258 C 699.074 1.40975 1.22404 0
M  V30 7259 C 699.425 0.1192 1.95838 0
M  V30 7260 O 698.55 -0.780939 2.01818 0
M  V30 7261 C 699.145 2.5538 2.22636 0
M  V30 7262 C 697.704 2.55684 2.76229 0
M  V30 7263 C 696.851 2.32556 1.51039 0
M  V30 7264 H 699.802 1.5265 0.434006 0
M  V30 7265 H 699.823 2.27474 3.05017 0
M  V30 7266 H 699.335 3.49294 1.69161 0
M  V30 7267 H 697.436 1.65679 3.33738 0
M  V30 7268 H 697.549 3.53799 3.23053 0
M  V30 7269 H 695.913 1.81427 1.78764 0
M  V30 7270 H 696.696 3.28569 0.99484 0
M  V30 7271 N 699.141 -0.881989 1.30609 0
M  V30 7272 C 700.552 -1.44956 1.17664 0
M  V30 7273 C 700.903 -1.94945 -0.221531 0
M  V30 7274 O 700.028 -1.85257 -1.11844 0
M  V30 7275 C 700.623 -2.63474 2.12995 0
M  V30 7276 C 699.182 -3.16312 2.04019 0
M  V30 7277 C 698.329 -1.89008 2.02907 0
M  V30 7278 H 701.28 -0.691645 1.42835 0
M  V30 7279 H 701.301 -3.39783 1.71253 0
M  V30 7280 H 700.813 -2.2706 3.14746 0
M  V30 7281 H 698.914 -3.57376 1.0542 0
M  V30 7282 H 699.027 -3.79409 2.9255 0
M  V30 7283 H 697.391 -2.07465 1.47751 0
M  V30 7284 H 698.174 -1.54848 3.06394 0
M  V30 7285 N 700.619 -1.13374 -1.09472 0
M  V30 7286 C 701.582 -0.813639 -2.14272 0
M  V30 7287 C 702.582 0.176677 -1.59826 0
M  V30 7288 O 703.772 -0.0503441 -1.74127 0
M  V30 7289 C 700.904 -0.210897 -3.40247 0
M  V30 7290 H 702.097 -1.74229 -2.44099 0
M  V30 7291 H 699.65 -0.938304 -1.25002 0
M  V30 7292 H 700.385 0.726998 -3.16046 0
M  V30 7293 H 700.17 -0.924048 -3.81056 0
M  V30 7294 H 701.66 -0.00377603 -4.176 0
M  V30 7295 N 702.098 1.27442 -0.927168 0
M  V30 7296 C 703.045 2.26863 -0.424459 0
M  V30 7297 C 704.015 1.5813 0.508346 0
M  V30 7298 O 705.2 1.85946 0.42762 0
M  V30 7299 C 702.34 3.43639 0.31718 0
M  V30 7300 C 701.453 4.27087 -0.649675 0
M  V30 7301 C 700.588 5.31082 0.111753 0
M  V30 7302 C 699.627 6.062 -0.847843 0
M  V30 7303 N 698.764 7.01999 -0.119074 0
M  V30 7304 H 703.604 2.69239 -1.27728 0
M  V30 7305 H 701.141 1.32394 -0.641106 0
M  V30 7306 H 703.099 4.10155 0.763486 0
M  V30 7307 H 701.729 3.02217 1.13424 0
M  V30 7308 H 700.781 3.60491 -1.21451 0
M  V30 7309 H 702.093 4.79242 -1.38307 0
M  V30 7310 H 701.247 6.03544 0.618 0
M  V30 7311 H 699.986 4.7973 0.878114 0
M  V30 7312 H 698.991 5.32577 -1.36534 0
M  V30 7313 H 700.216 6.59642 -1.61398 0
M  V30 7314 H 698.162 6.52977 0.629051 0
M  V30 7315 H 698.079 7.5184 -0.792046 0
M  V30 7316 H 699.347 7.78638 0.366537 0
M  V30 7317 N 703.576 0.692616 1.41565 0
M  V30 7318 C 704.486 0.0258451 2.34586 0
M  V30 7319 C 705.502 -0.769324 1.56069 0
M  V30 7320 O 706.678 -0.707563 1.88562 0
M  V30 7321 C 703.743 -0.901289 3.3478 0
M  V30 7322 C 702.804 -0.0986579 4.29187 0
M  V30 7323 C 702.037 -0.981634 5.24595 0
M  V30 7324 O 702.26 -2.22115 5.25377 0
M  V30 7325 O 701.194 -0.432892 6.00341 0
M  V30 7326 H 705.02 0.792537 2.93177 0
M  V30 7327 H 702.605 0.452935 1.42369 0
M  V30 7328 H 704.487 -1.43302 3.96286 0
M  V30 7329 H 703.162 -1.64752 2.78637 0
M  V30 7330 H 702.069 0.477604 3.71039 0
M  V30 7331 H 703.402 0.608848 4.8842 0
M  V30 7332 N 705.054 -1.51416 0.437162 0
M  V30 7333 C 705.964 -2.31493 -0.380537 0
M  V30 7334 C 706.98 -1.40399 -1.02782 0
M  V30 7335 O 708.156 -1.73471 -1.02323 0
M  V30 7336 C 705.221 -3.1413 -1.46709 0
M  V30 7337 C 704.282 -4.21003 -0.839953 0
M  V30 7338 C 703.515 -4.9969 -1.87473 0
M  V30 7339 O 703.738 -4.79008 -3.09689 0
M  V30 7340 O 702.672 -5.8379 -1.46536 0
M  V30 7341 H 706.498 -3.02469 0.273183 0
M  V30 7342 H 704.083 -1.48059 0.199706 0
M  V30 7343 H 705.965 -3.65505 -2.09724 0
M  V30 7344 H 704.64 -2.45919 -2.10489 0
M  V30 7345 H 703.547 -3.73706 -0.171752 0
M  V30 7346 H 704.88 -4.91587 -0.245638 0
M  V30 7347 N 706.532 -0.168513 -1.56696 0
M  V30 7348 C 707.479 0.762875 -2.17828 0
M  V30 7349 C 708.449 1.22892 -1.11745 0
M  V30 7350 O 709.634 1.29759 -1.39883 0
M  V30 7351 C 706.774 1.9879 -2.82093 0
M  V30 7352 C 705.887 1.56568 -4.02629 0
M  V30 7353 C 705.022 2.74416 -4.54829 0
M  V30 7354 C 704.061 2.28671 -5.67782 0
M  V30 7355 N 703.198 3.39602 -6.14504 0
M  V30 7356 H 708.038 0.23479 -2.97074 0
M  V30 7357 H 705.575 0.104163 -1.46731 0
M  V30 7358 H 707.533 2.70636 -3.17509 0
M  V30 7359 H 706.163 2.48973 -2.05456 0
M  V30 7360 H 705.215 0.744067 -3.73052 0
M  V30 7361 H 706.527 1.18988 -4.844 0
M  V30 7362 H 705.681 3.54423 -4.92412 0
M  V30 7363 H 704.42 3.15254 -3.7211 0
M  V30 7364 H 703.425 1.4711 -5.29753 0
M  V30 7365 H 704.65 1.88894 -6.52301 0
M  V30 7366 H 702.596 3.80021 -5.34715 0
M  V30 7367 H 702.513 3.06105 -6.91257 0
M  V30 7368 H 703.781 4.19902 -6.56737 0
M  V30 7369 N 708.01 1.57248 0.105221 0
M  V30 7370 C 708.943 1.96567 1.15916 0
M  V30 7371 C 709.921 0.837355 1.39381 0
M  V30 7372 O 711.105 1.09676 1.53308 0
M  V30 7373 C 708.232 2.27375 2.51035 0
M  V30 7374 C 707.278 3.49869 2.43913 0
M  V30 7375 S 708.111 5.01958 1.86543 0
M  V30 7376 C 709.267 5.35932 3.23307 0
M  V30 7377 H 709.5 2.85655 0.823931 0
M  V30 7378 H 707.033 1.51204 0.312515 0
M  V30 7379 H 708.991 2.45801 3.28774 0
M  V30 7380 H 707.652 1.38876 2.81731 0
M  V30 7381 H 706.845 3.68835 3.43477 0
M  V30 7382 H 706.447 3.30901 1.743 0
M  V30 7383 H 708.739 5.31958 4.19556 0
M  V30 7384 H 709.682 6.37047 3.09155 0
M  V30 7385 H 710.09 4.63397 3.22372 0
M  V30 7386 N 709.488 -0.375779 1.53054 0
M  V30 7387 C 710.451 -1.44254 1.7811 0
M  V30 7388 C 711.451 -1.47018 0.651328 0
M  V30 7389 O 712.641 -1.47957 0.919472 0
M  V30 7390 C 709.773 -2.8345 1.89391 0
M  V30 7391 H 710.966 -1.23316 2.73374 0
M  V30 7392 H 708.519 -0.608312 1.43977 0
M  V30 7393 H 709.254 -3.09716 0.961589 0
M  V30 7394 H 709.039 -2.82844 2.71555 0
M  V30 7395 H 710.529 -3.60722 2.10404 0
M  V30 7396 N 710.966 -1.44241 -0.634997 0
M  V30 7397 C 712.215 -1.46102 -1.39058 0
M  V30 7398 C 712.528 -0.0959909 -1.95364 0
M  V30 7399 O 713.734 0.00788751 -2.71499 0
M  V30 7400 C 712.19 -2.57195 -2.51751 0
M  V30 7401 C 711.798 -3.99888 -2.01974 0
M  V30 7402 C 713.542 -2.68272 -3.28984 0
M  V30 7403 C 711.449 -5.02412 -3.11987 0
M  V30 7404 H 710.379 -0.543556 -0.522554 0
M  V30 7405 H 713.03 -1.70294 -0.683538 0
M  V30 7406 H 711.412 -2.26237 -3.25012 0
M  V30 7407 H 712.586 -4.40396 -1.35604 0
M  V30 7408 H 710.901 -3.93019 -1.37568 0
M  V30 7409 H 713.498 -3.42042 -4.10988 0
M  V30 7410 H 713.841 -1.73957 -3.78212 0
M  V30 7411 H 714.374 -2.98622 -2.62812 0
M  V30 7412 H 711.113 -5.98342 -2.67707 0
M  V30 7413 H 710.633 -4.66501 -3.77011 0
M  V30 7414 H 712.312 -5.25939 -3.76825 0
M  V30 7415 N 712.444 0.87505 -1.31075 0
M  V30 7416 C 713.374 1.99775 -1.20881 0
M  V30 7417 C 714.355 1.69822 -0.0971612 0
M  V30 7418 O 715.54 1.92158 -0.280895 0
M  V30 7419 C 712.67 3.35163 -0.910118 0
M  V30 7420 C 711.624 3.79406 -1.98078 0
M  V30 7421 C 710.95 5.12197 -1.53488 0
M  V30 7422 C 712.25 3.97061 -3.39323 0
M  V30 7423 H 713.944 2.08562 -2.14808 0
M  V30 7424 H 711.49 1.00207 -1.03415 0
M  V30 7425 H 713.443 4.13237 -0.825423 0
M  V30 7426 H 712.167 3.26536 0.064822 0
M  V30 7427 H 710.826 3.03568 -2.05528 0
M  V30 7428 H 710.474 5.00007 -0.547941 0
M  V30 7429 H 710.174 5.4277 -2.2511 0
M  V30 7430 H 711.698 5.92785 -1.46417 0
M  V30 7431 H 713.112 4.65545 -3.34576 0
M  V30 7432 H 711.509 4.39025 -4.09118 0
M  V30 7433 H 712.579 3.00601 -3.80483 0
M  V30 7434 N 713.922 1.13953 1.08869 0
M  V30 7435 C 714.855 0.765765 2.14968 0
M  V30 7436 C 715.833 -0.250689 1.60656 0
M  V30 7437 O 717.017 -0.140852 1.87973 0
M  V30 7438 C 714.144 0.136146 3.38426 0
M  V30 7439 C 713.19 1.12201 4.11477 0
M  V30 7440 S 714.023 2.65711 4.64928 0
M  V30 7441 C 715.179 2.04125 5.91679 0
M  V30 7442 H 715.412 1.66444 2.46341 0
M  V30 7443 H 712.945 0.960263 1.20906 0
M  V30 7444 H 714.903 -0.220712 4.09906 0
M  V30 7445 H 713.564 -0.739887 3.05261 0
M  V30 7446 H 712.757 0.629398 5.00055 0
M  V30 7447 H 712.359 1.42262 3.45886 0
M  V30 7448 H 714.651 1.39381 6.63008 0
M  V30 7449 H 715.594 2.90808 6.45629 0
M  V30 7450 H 716.002 1.4905 5.44467 0
M  V30 7451 N 715.4 -1.26948 0.933913 0
M  V30 7452 C 716.677 -1.89212 0.495784 0
M  V30 7453 C 717.057 -1.84469 -1.02637 0
M  V30 7454 O 716.405 -1.29409 -1.88323 0
M  V30 7455 C 716.615 -3.32865 1.0489 0
M  V30 7456 C 717.963 -4.09749 1.11315 0
M  V30 7457 O 718.987 -3.41905 0.998966 0
M  V30 7458 O 717.846 -5.31061 1.28983 0
M  V30 7459 H 714.94 -0.811284 0.160459 0
M  V30 7460 H 717.486 -1.35171 1.02601 0
M  V30 7461 H 716.258 -3.30642 2.09265 0
M  V30 7462 H 715.881 -3.94435 0.500692 0
M  V30 7463 N 716.879 -0.700114 -1.41195 0
M  V30 7464 C 717.829 -0.0144098 -2.27995 0
M  V30 7465 C 718.813 0.748249 -1.42443 0
M  V30 7466 O 720.005 0.622995 -1.65674 0
M  V30 7467 C 717.134 0.917938 -3.308 0
M  V30 7468 C 716.22 0.151286 -4.2383 0
M  V30 7469 N 716.611 -0.85732 -4.98481 0
M  V30 7470 C 714.909 0.386108 -4.44326 0
M  V30 7471 C 715.61 -1.31663 -5.66604 0
M  V30 7472 N 714.586 -0.641689 -5.39799 0
M  V30 7473 H 718.388 -0.787662 -2.83149 0
M  V30 7474 H 715.902 -0.531344 -1.53462 0
M  V30 7475 H 717.899 1.42437 -3.91813 0
M  V30 7476 H 716.559 1.69074 -2.77208 0
M  V30 7477 H 717.57 -1.2377 -5.02893 0
M  V30 7478 H 714.247 1.13644 -4.01735 0
M  V30 7479 H 715.637 -2.15384 -6.36443 0
M  V30 7480 N 718.357 1.51182 -0.445186 0
M  V30 7481 C 719.305 2.29531 0.376597 0
M  V30 7482 C 720.299 1.35711 1.01385 0
M  V30 7483 O 721.505 1.53018 0.947922 0
M  V30 7484 H 717.88 0.738803 0.140267 0
M  V30 7485 H 719.851 2.96838 -0.304958 0
M  V30 7486 C 718.6 3.1552 1.4609 0
M  V30 7487 H 717.923 3.87605 0.979912 0
M  V30 7488 H 719.363 3.73384 2.009 0
M  V30 7489 C 717.822 2.31406 2.44852 0
M  V30 7490 O 718.352 1.97912 3.49562 0
M  V30 7491 N 716.558 1.94478 2.15932 0
M  V30 7492 H 716.105 2.21917 1.30808 0
M  V30 7493 H 716.063 1.38498 2.82251 0
M  V30 7494 N 719.835 0.176821 1.56605 0
M  V30 7495 C 721.075 -0.469104 1.98944 0
M  V30 7496 C 721.439 -1.60048 1.06059 0
M  V30 7497 O 722.64 -2.30934 1.3756 0
M  V30 7498 C 720.911 -0.934571 3.44965 0
M  V30 7499 S 722.47 -1.58091 4.09332 0
M  V30 7500 H 719.288 -0.150695 0.694847 0
M  V30 7501 H 721.89 0.27558 1.93548 0
M  V30 7502 H 720.594 -0.100814 4.10276 0
M  V30 7503 H 720.125 -1.71316 3.54139 0
M  V30 7504 H 722.14 -2.86922 4.04834 0
M  V30 7505 N 721.313 -1.57302 -0.09688 0
M  V30 7506 C 722.724 -1.7496 -0.651595 0
M  V30 7507 C 723.075 -0.798746 -1.79205 0
M  V30 7508 O 722.2 0.0231858 -2.16388 0
M  V30 7509 C 722.795 -3.17259 -1.18878 0
M  V30 7510 C 721.354 -3.36348 -1.68958 0
M  V30 7511 C 720.501 -2.70766 -0.598413 0
M  V30 7512 H 723.452 -1.58173 0.12918 0
M  V30 7513 H 723.473 -3.20033 -2.05814 0
M  V30 7514 H 722.985 -3.8644 -0.358523 0
M  V30 7515 H 721.086 -2.72243 -2.5439 0
M  V30 7516 H 721.199 -4.44654 -1.7838 0
M  V30 7517 H 719.563 -2.32615 -1.03743 0
M  V30 7518 H 720.346 -3.42586 0.221238 0
M  V30 7519 N 722.791 0.367657 -1.53252 0
M  V30 7520 C 724.04 1.10782 -1.68554 0
M  V30 7521 C 724.353 1.90523 -0.442765 0
M  V30 7522 O 725.559 2.6729 -0.47629 0
M  V30 7523 C 724.015 2.01863 -2.97959 0
M  V30 7524 C 723.623 1.27443 -4.29491 0
M  V30 7525 C 725.367 2.75883 -3.22628 0
M  V30 7526 C 723.274 2.17414 -5.49987 0
M  V30 7527 H 722.204 0.417272 -0.628013 0
M  V30 7528 H 724.855 0.368971 -1.79752 0
M  V30 7529 H 723.237 2.7947 -2.80558 0
M  V30 7530 H 724.411 0.549138 -4.57516 0
M  V30 7531 H 722.726 0.652935 -4.11249 0
M  V30 7532 H 725.323 3.43421 -4.09837 0
M  V30 7533 H 725.666 3.41138 -2.38601 0
M  V30 7534 H 726.199 2.0536 -3.40693 0
M  V30 7535 H 722.938 1.5674 -6.36485 0
M  V30 7536 H 722.458 2.87799 -5.26243 0
M  V30 7537 H 724.137 2.77019 -5.84696 0
M  V30 7538 N 724.269 1.44576 0.627338 0
M  V30 7539 C 725.216 1.51734 1.73912 0
M  V30 7540 C 726.186 0.364745 1.62046 0
M  V30 7541 O 727.371 0.575503 1.81914 0
M  V30 7542 C 724.511 1.47116 3.12171 0
M  V30 7543 C 723.624 2.72778 3.34986 0
M  V30 7544 C 722.759 2.59968 4.63239 0
M  V30 7545 C 721.798 3.80776 4.79245 0
M  V30 7546 N 720.935 3.66618 5.98778 0
M  V30 7547 H 725.775 2.46722 1.6713 0
M  V30 7548 H 723.312 1.22444 0.815224 0
M  V30 7549 H 725.27 1.42429 3.92135 0
M  V30 7550 H 723.9 0.556928 3.17959 0
M  V30 7551 H 722.952 2.87637 2.48936 0
M  V30 7552 H 724.264 3.62441 3.42692 0
M  V30 7553 H 723.418 2.53135 5.51369 0
M  V30 7554 H 722.157 1.67872 4.57898 0
M  V30 7555 H 721.162 3.87989 3.89544 0
M  V30 7556 H 722.387 4.73913 4.86398 0
M  V30 7557 H 720.333 2.77277 5.9452 0
M  V30 7558 H 720.25 4.499 6.07557 0
M  V30 7559 H 721.518 3.63684 6.89459 0
M  V30 7560 N 725.747 -0.868086 1.31537 0
M  V30 7561 C 726.975 -1.65402 1.24298 0
M  V30 7562 C 727.39 -1.87827 -0.191389 0
M  V30 7563 O 726.747 -1.43776 -1.12404 0
M  V30 7564 C 726.798 -3.02093 1.9855 0
M  V30 7565 O 726.519 -2.80668 3.36388 0
M  V30 7566 C 728.02 -3.96538 1.98173 0
M  V30 7567 H 725.24 -0.515598 0.429417 0
M  V30 7568 H 727.784 -1.0834 1.73444 0
M  V30 7569 H 725.939 -3.55838 1.53161 0
M  V30 7570 H 726.353 -3.67504 3.74221 0
M  V30 7571 H 727.827 -4.8976 2.54635 0
M  V30 7572 H 728.304 -4.28474 0.964697 0
M  V30 7573 H 728.91 -3.48729 2.4345 0
M  V30 7574 N 727.225 -1.14528 -1.08264 0
M  V30 7575 C 728.172 -0.833556 -2.15222 0
M  V30 7576 C 729.142 0.209539 -1.64773 0
M  V30 7577 O 730.327 0.0791388 -1.90636 0
M  V30 7578 C 727.467 -0.318799 -3.43624 0
M  V30 7579 C 726.58 -1.42237 -4.07913 0
M  V30 7580 C 725.715 -0.864704 -5.24115 0
M  V30 7581 C 724.754 -1.94585 -5.80347 0
M  V30 7582 N 723.891 -1.40525 -6.87893 0
M  V30 7583 H 728.731 -1.74965 -2.41228 0
M  V30 7584 H 726.268 -0.873169 -1.18381 0
M  V30 7585 H 728.226 -0.00213088 -4.172 0
M  V30 7586 H 726.856 0.560397 -3.17898 0
M  V30 7587 H 725.908 -1.8554 -3.32083 0
M  V30 7588 H 727.22 -2.23901 -4.45724 0
M  V30 7589 H 726.374 -0.500025 -6.04636 0
M  V30 7590 H 725.113 -0.0171219 -4.87697 0
M  V30 7591 H 724.118 -2.31946 -4.98479 0
M  V30 7592 H 725.343 -2.79704 -6.18823 0
M  V30 7593 H 723.289 -0.579873 -6.53432 0
M  V30 7594 H 723.206 -2.15825 -7.24538 0
M  V30 7595 H 724.474 -1.06852 -7.72142 0
M  V30 7596 N 728.703 1.26451 -0.940633 0
M  V30 7597 C 729.636 2.24771 -0.394094 0
M  V30 7598 C 730.614 1.54169 0.516781 0
M  V30 7599 O 731.798 1.82942 0.454352 0
M  V30 7600 C 728.925 3.3591 0.433807 0
M  V30 7601 C 727.971 4.24472 -0.415464 0
M  V30 7602 S 728.804 5.0293 -1.83907 0
M  V30 7603 C 729.96 6.17546 -1.01921 0
M  V30 7604 H 730.193 2.70782 -1.22737 0
M  V30 7605 H 727.726 1.35308 -0.743709 0
M  V30 7606 H 729.684 4.00387 0.905576 0
M  V30 7607 H 728.345 2.88512 1.24175 0
M  V30 7608 H 727.538 5.03525 0.218833 0
M  V30 7609 H 727.14 3.64857 -0.821897 0
M  V30 7610 H 729.432 6.76996 -0.261227 0
M  V30 7611 H 730.375 6.8528 -1.78318 0
M  V30 7612 H 730.783 5.6176 -0.555511 0
M  V30 7613 N 730.181 0.707592 1.40822 0
M  V30 7614 C 731.411 0.252706 2.05049 0
M  V30 7615 C 731.819 -1.10758 1.53393 0
M  V30 7616 O 731.162 -1.70567 0.682097 0
M  V30 7617 C 731.224 0.146001 3.59203 0
M  V30 7618 C 730.888 1.44027 4.33711 0
M  V30 7619 C 731.885 2.38058 4.62195 0
M  V30 7620 C 729.57 1.69698 4.72766 0
M  V30 7621 C 731.564 3.56013 5.28709 0
M  V30 7622 C 729.251 2.87936 5.39014 0
M  V30 7623 C 730.249 3.80915 5.66915 0
M  V30 7624 O 729.937 4.9708 6.31796 0
M  V30 7625 H 729.669 0.112784 0.666525 0
M  V30 7626 H 732.223 0.96417 1.81364 0
M  V30 7627 H 730.453 -0.621338 3.81676 0
M  V30 7628 H 732.142 -0.273275 4.04979 0
M  V30 7629 H 732.908 2.19487 4.32493 0
M  V30 7630 H 728.787 0.981835 4.50423 0
M  V30 7631 H 732.331 4.28604 5.50404 0
M  V30 7632 H 728.228 3.06419 5.68135 0
M  V30 7633 H 728.996 4.97053 6.50293 0
M  V30 7634 N 731.66 -1.50943 0.453197 0
M  V30 7635 C 732.888 -2.06628 -0.106135 0
M  V30 7636 C 733.303 -1.31901 -1.35084 0
M  V30 7637 O 732.66 -0.383074 -1.78434 0
M  V30 7638 C 732.711 -3.5914 -0.412368 0
M  V30 7639 O 732.432 -4.31047 0.782948 0
M  V30 7640 C 733.933 -4.31391 -1.02064 0
M  V30 7641 H 731.153 -0.670999 -0.000885896 0
M  V30 7642 H 733.697 -1.94331 0.63684 0
M  V30 7643 H 731.852 -3.71299 -1.10526 0
M  V30 7644 H 732.266 -5.21948 0.516736 0
M  V30 7645 H 733.74 -5.39135 -1.1848 0
M  V30 7646 H 734.217 -3.90714 -2.00598 0
M  V30 7647 H 734.823 -4.23716 -0.366664 0
M  V30 7648 N 733.138 -0.185124 -1.56509 0
M  V30 7649 C 734.07 0.771401 -2.15829 0
M  V30 7650 C 735.083 1.18392 -1.11747 0
M  V30 7651 O 736.272 1.12137 -1.38879 0
M  V30 7652 C 733.372 2.05169 -2.69739 0
M  V30 7653 C 732.545 1.80056 -3.98621 0
M  V30 7654 C 731.604 2.92435 -4.37456 0
M  V30 7655 O 730.63 2.62473 -5.05071 0
M  V30 7656 N 731.832 4.20554 -4.00143 0
M  V30 7657 H 734.597 0.264184 -2.98533 0
M  V30 7658 H 732.158 -0.00281069 -1.619 0
M  V30 7659 H 734.15 2.7947 -2.92709 0
M  V30 7660 H 732.72 2.47041 -1.91545 0
M  V30 7661 H 731.94 0.895862 -3.83885 0
M  V30 7662 H 733.228 1.60662 -4.82768 0
M  V30 7663 H 732.626 4.47753 -3.45736 0
M  V30 7664 H 731.183 4.91514 -4.28085 0
M  V30 7665 N 734.616 1.57351 0.0885366 0
M  V30 7666 C 735.564 2.03542 1.12576 0
M  V30 7667 C 736.558 0.937668 1.41082 0
M  V30 7668 O 737.764 1.12283 1.40686 0
M  V30 7669 H 734.139 0.648752 0.380296 0
M  V30 7670 H 736.11 2.89833 0.709906 0
M  V30 7671 C 734.859 2.4811 2.43591 0
M  V30 7672 H 734.182 3.32164 2.22502 0
M  V30 7673 H 735.622 2.842 3.14653 0
M  V30 7674 C 734.081 1.35708 3.08359 0
M  V30 7675 O 734.611 0.689852 3.95732 0
M  V30 7676 N 732.817 1.10641 2.68713 0
M  V30 7677 H 732.364 1.6508 1.97753 0
M  V30 7678 H 732.322 0.356355 3.12374 0
M  V30 7679 N 736.094 -0.359525 1.53444 0
M  V30 7680 C 737.042 -1.46104 1.80987 0
M  V30 7681 C 738.036 -1.55181 0.679351 0
M  V30 7682 O 739.242 -1.57995 0.862405 0
M  V30 7683 H 735.617 -0.486835 0.573145 0
M  V30 7684 H 737.588 -1.2008 2.73173 0
M  V30 7685 C 736.337 -2.82855 2.02208 0
M  V30 7686 H 735.66 -2.76631 2.88644 0
M  V30 7687 H 737.1 -3.59091 2.25455 0
M  V30 7688 C 735.559 -3.27192 0.802931 0
M  V30 7689 O 736.089 -4.017 -0.00544286 0
M  V30 7690 N 734.295 -2.83807 0.624657 0
M  V30 7691 H 733.842 -2.23339 1.28364 0
M  V30 7692 H 733.8 -3.13828 -0.189641 0
M  V30 7693 N 737.572 -1.44907 -0.619662 0
M  V30 7694 C 738.821 -1.47569 -1.37501 0
M  V30 7695 C 739.134 -0.116707 -1.95252 0
M  V30 7696 O 740.34 -0.020909 -2.71492 0
M  V30 7697 C 738.796 -2.59851 -2.49009 0
M  V30 7698 C 738.404 -4.02008 -1.97722 0
M  V30 7699 C 740.148 -2.71746 -3.2612 0
M  V30 7700 C 738.055 -5.05693 -3.0664 0
M  V30 7701 H 736.985 -0.549068 -0.51676 0
M  V30 7702 H 739.636 -1.71009 -0.665437 0
M  V30 7703 H 738.018 -2.29671 -3.22594 0
M  V30 7704 H 739.192 -4.41809 -1.30925 0
M  V30 7705 H 737.507 -3.94456 -1.33392 0
M  V30 7706 H 740.104 -3.46382 -4.07337 0
M  V30 7707 H 740.447 -1.77959 -3.76346 0
M  V30 7708 H 740.98 -3.01392 -2.5963 0
M  V30 7709 H 737.719 -6.01148 -2.61345 0
M  V30 7710 H 737.239 -4.70473 -3.72042 0
M  V30 7711 H 738.918 -5.29906 -3.71226 0
M  V30 7712 N 739.05 0.861098 -1.31996 0
M  V30 7713 C 739.982 1.97551 -1.16216 0
M  V30 7714 C 740.995 1.625 -0.0988527 0
M  V30 7715 O 742.184 1.75091 -0.3472 0
M  V30 7716 C 739.284 3.30376 -0.755307 0
M  V30 7717 C 738.457 3.93711 -1.90552 0
M  V30 7718 C 737.516 5.04862 -1.48328 0
M  V30 7719 O 736.542 5.25204 -2.19431 0
M  V30 7720 N 737.744 5.79283 -0.375656 0
M  V30 7721 H 740.509 2.11632 -2.12208 0
M  V30 7722 H 738.07 1.03559 -1.24448 0
M  V30 7723 H 740.062 4.0213 -0.455364 0
M  V30 7724 H 738.632 3.12395 0.113269 0
M  V30 7725 H 737.852 3.14825 -2.37231 0
M  V30 7726 H 739.14 4.32762 -2.67571 0
M  V30 7727 H 738.538 5.65286 0.216284 0
M  V30 7728 H 737.095 6.5166 -0.135289 0
M  V30 7729 N 740.528 1.15101 1.07655 0
M  V30 7730 C 741.753 0.948177 1.84457 0
M  V30 7731 C 742.178 -0.498432 1.81376 0
M  V30 7732 O 741.536 -1.35509 1.20445 0
M  V30 7733 C 741.584 1.46318 3.29581 0
M  V30 7734 O 740.688 0.660342 4.07079 0
M  V30 7735 H 740.029 0.338428 0.571281 0
M  V30 7736 H 742.559 1.5301 1.35828 0
M  V30 7737 H 742.569 1.47468 3.80417 0
M  V30 7738 H 741.244 2.51635 3.31138 0
M  V30 7739 H 739.821 0.718216 3.65918 0
M  V30 7740 N 742.006 -1.2595 0.947325 0
M  V30 7741 C 743.236 -1.97258 0.614235 0
M  V30 7742 C 743.644 -1.70682 -0.816355 0
M  V30 7743 O 742.987 -0.97527 -1.55673 0
M  V30 7744 C 743.049 -3.50845 0.784081 0
M  V30 7745 C 742.713 -4.01084 2.19045 0
M  V30 7746 C 743.71 -4.12347 3.16648 0
M  V30 7747 C 741.395 -4.34936 2.51268 0
M  V30 7748 C 743.389 -4.56766 4.44572 0
M  V30 7749 C 741.076 -4.79043 3.79422 0
M  V30 7750 C 742.074 -4.89919 4.75887 0
M  V30 7751 O 741.762 -5.3305 6.01758 0
M  V30 7752 H 741.494 -0.635738 0.22981 0
M  V30 7753 H 744.048 -1.61268 1.27207 0
M  V30 7754 H 742.278 -3.86638 0.069101 0
M  V30 7755 H 743.967 -4.03363 0.453135 0
M  V30 7756 H 744.733 -3.86432 2.93079 0
M  V30 7757 H 740.612 -4.25702 1.76916 0
M  V30 7758 H 744.156 -4.6517 5.19868 0
M  V30 7759 H 740.053 -5.04402 4.02802 0
M  V30 7760 H 740.821 -5.51255 6.05029 0
M  V30 7761 N 743.484 -0.715051 -1.40445 0
M  V30 7762 C 744.895 -0.326763 -1.83818 0
M  V30 7763 C 745.246 1.13851 -1.59789 0
M  V30 7764 O 744.371 1.87611 -1.07848 0
M  V30 7765 C 744.966 -0.586297 -3.33688 0
M  V30 7766 C 743.525 -0.251724 -3.75557 0
M  V30 7767 C 742.672 -0.858928 -2.63662 0
M  V30 7768 H 745.623 -0.914241 -1.2972 0
M  V30 7769 H 745.644 0.148636 -3.8021 0
M  V30 7770 H 745.156 -1.65281 -3.51146 0
M  V30 7771 H 743.257 0.809754 -3.63695 0
M  V30 7772 H 743.37 -0.720348 -4.73654 0
M  V30 7773 H 741.734 -0.287013 -2.53078 0
M  V30 7774 H 742.517 -1.9297 -2.83932 0
M  V30 7775 N 744.962 1.50701 -0.461195 0
M  V30 7776 C 746.211 2.01458 0.0988277 0
M  V30 7777 C 746.524 1.34863 1.41673 0
M  V30 7778 O 747.73 1.76721 2.06111 0
M  V30 7779 C 746.186 3.59186 0.226648 0
M  V30 7780 C 745.794 4.34732 -1.08223 0
M  V30 7781 C 747.538 4.18015 0.73916 0
M  V30 7782 C 745.445 5.8422 -0.918747 0
M  V30 7783 H 744.375 0.7529 0.040709 0
M  V30 7784 H 747.026 1.736 -0.594589 0
M  V30 7785 H 745.408 3.83589 0.983621 0
M  V30 7786 H 746.582 4.22059 -1.84939 0
M  V30 7787 H 744.897 3.87466 -1.52509 0
M  V30 7788 H 747.494 5.27436 0.878347 0
M  V30 7789 H 747.837 3.78746 1.72793 0
M  V30 7790 H 748.37 3.9778 0.0398469 0
M  V30 7791 H 745.109 6.27944 -1.88059 0
M  V30 7792 H 744.629 5.99493 -0.191801 0
M  V30 7793 H 746.308 6.44382 -0.581405 0
M  V30 7794 N 746.441 0.193421 1.56409 0
M  V30 7795 C 747.689 -0.444908 1.97142 0
M  V30 7796 C 748.01 -1.62268 1.08139 0
M  V30 7797 O 747.28 -1.95307 0.152326 0
M  V30 7798 H 745.86 -0.16736 0.728011 0
M  V30 7799 H 748.522 0.279763 1.92882 0
M  V30 7800 H 747.618 -0.790159 3.01932 0
M  V30 7801 N 747.919 -1.57396 -0.0801906 0
M  V30 7802 C 748.829 -2.06451 -1.11423 0
M  V30 7803 C 749.845 -0.992352 -1.42928 0
M  V30 7804 O 751.021 -1.30651 -1.53272 0
M  V30 7805 C 748.086 -2.49164 -2.41077 0
M  V30 7806 C 747.147 -3.70641 -2.16619 0
M  V30 7807 C 746.38 -4.11307 -3.40092 0
M  V30 7808 O 746.603 -3.51922 -4.48895 0
M  V30 7809 O 745.537 -5.04157 -3.288 0
M  V30 7810 H 749.363 -2.94857 -0.727519 0
M  V30 7811 H 746.948 -1.46484 -0.293743 0
M  V30 7812 H 748.83 -2.77196 -3.17396 0
M  V30 7813 H 747.505 -1.6389 -2.79145 0
M  V30 7814 H 746.412 -3.47703 -1.38033 0
M  V30 7815 H 747.745 -4.5674 -1.83437 0
M  V30 7816 N 749.397 0.351382 -1.53633 0
M  V30 7817 C 750.674 1.10903 -1.6112 0
M  V30 7818 C 751.054 2.06725 -0.427556 0
M  V30 7819 O 750.402 2.20992 0.580916 0
M  V30 7820 C 750.612 1.83561 -2.96827 0
M  V30 7821 C 751.96 2.37587 -3.51906 0
M  V30 7822 O 752.984 1.93669 -2.9895 0
M  V30 7823 O 751.843 3.17913 -4.44515 0
M  V30 7824 H 748.937 0.509558 -0.651368 0
M  V30 7825 H 751.483 0.353504 -1.65977 0
M  V30 7826 H 750.255 1.1371 -3.74414 0
M  V30 7827 H 749.878 2.6599 -2.95525 0
M  V30 7828 N 750.875 1.45233 0.611969 0
M  V30 7829 C 751.785 1.56098 1.7513 0
M  V30 7830 C 752.801 0.445646 1.68196 0
M  V30 7831 O 753.977 0.705718 1.88631 0
M  V30 7832 C 751.042 1.52052 3.11579 0
M  V30 7833 C 750.103 2.74589 3.29999 0
M  V30 7834 C 749.336 2.70726 4.59938 0
M  V30 7835 O 749.559 1.77806 5.41979 0
M  V30 7836 O 748.493 3.61864 4.80976 0
M  V30 7837 H 752.319 2.52392 1.68914 0
M  V30 7838 H 749.904 1.27695 0.775528 0
M  V30 7839 H 751.786 1.52387 3.92882 0
M  V30 7840 H 750.461 0.589085 3.18295 0
M  V30 7841 H 749.368 2.79817 2.48301 0
M  V30 7842 H 750.701 3.66843 3.28157 0
M  V30 7843 N 752.353 -0.854086 1.3245 0
M  V30 7844 C 753.263 -1.99503 1.23434 0
M  V30 7845 C 754.279 -1.73371 0.147828 0
M  V30 7846 O 755.455 -1.97998 0.368609 0
M  V30 7847 C 752.52 -3.33192 0.958328 0
M  V30 7848 C 751.581 -3.72542 2.13333 0
M  V30 7849 C 750.814 -4.99852 1.8704 0
M  V30 7850 O 751.037 -5.64573 0.813239 0
M  V30 7851 O 749.971 -5.36345 2.73161 0
M  V30 7852 H 753.797 -2.10046 2.1935 0
M  V30 7853 H 751.382 -0.984823 1.12346 0
M  V30 7854 H 753.264 -4.13327 0.820918 0
M  V30 7855 H 751.939 -3.23687 0.0293299 0
M  V30 7856 H 750.846 -2.92981 2.32622 0
M  V30 7857 H 752.179 -3.86694 3.04514 0
M  V30 7858 N 753.831 -1.1567 -1.07043 0
M  V30 7859 C 755.056 -0.957946 -1.83952 0
M  V30 7860 C 755.481 0.488807 -1.81638 0
M  V30 7861 O 754.839 1.34869 -1.21162 0
M  V30 7862 C 754.887 -1.48064 -3.288 0
M  V30 7863 O 753.991 -0.681921 -4.06723 0
M  V30 7864 H 753.332 -0.341453 -0.569479 0
M  V30 7865 H 755.862 -1.53728 -1.35015 0
M  V30 7866 H 755.872 -1.49484 -3.7963 0
M  V30 7867 H 754.547 -2.53388 -3.29799 0
M  V30 7868 H 753.124 -0.737612 -3.65532 0
M  V30 7869 N 755.309 1.25446 -0.953992 0
M  V30 7870 C 756.219 2.29632 -0.480264 0
M  V30 7871 C 757.235 1.68025 0.452071 0
M  V30 7872 O 758.411 1.98703 0.328472 0
M  V30 7873 C 755.476 3.45903 0.234974 0
M  V30 7874 C 754.537 4.22953 -0.735495 0
M  V30 7875 C 753.77 5.33672 -0.0542957 0
M  V30 7876 O 753.993 5.58477 1.16018 0
M  V30 7877 O 752.927 5.9734 -0.739509 0
M  V30 7878 H 756.753 2.72242 -1.34602 0
M  V30 7879 H 754.338 1.30883 -0.720419 0
M  V30 7880 H 756.22 4.16552 0.637341 0
M  V30 7881 H 754.895 3.05296 1.07592 0
M  V30 7882 H 753.802 3.54734 -1.18806 0
M  V30 7883 H 755.135 4.67341 -1.54444 0
M  V30 7884 N 756.787 0.722489 1.40064 0
M  V30 7885 C 758.012 0.273446 2.05589 0
M  V30 7886 C 758.437 -1.07875 1.54093 0
M  V30 7887 O 757.795 -1.68095 0.679252 0
M  V30 7888 C 757.843 0.271023 3.5958 0
M  V30 7889 O 756.947 -0.745499 4.05606 0
M  V30 7890 H 756.288 0.126856 0.65177 0
M  V30 7891 H 758.818 0.984906 1.79334 0
M  V30 7892 H 758.828 0.111084 4.07849 0
M  V30 7893 H 757.503 1.25776 3.96425 0
M  V30 7894 H 756.08 -0.552719 3.68781 0
M  V30 7895 N 758.265 -1.50454 0.469181 0
M  V30 7896 C 759.542 -1.9504 -0.147955 0
M  V30 7897 C 759.922 -1.40946 -1.57154 0
M  V30 7898 O 759.27 -0.609663 -2.20217 0
M  V30 7899 C 759.48 -3.48875 -0.0932198 0
M  V30 7900 C 760.828 -4.23655 -0.283056 0
M  V30 7901 O 761.852 -3.55795 -0.169892 0
M  V30 7902 O 760.711 -5.44102 -0.511396 0
M  V30 7903 H 757.805 -0.819283 -0.11271 0
M  V30 7904 H 760.351 -1.6123 0.529446 0
M  V30 7905 H 759.123 -3.80791 0.900784 0
M  V30 7906 H 758.746 -3.89217 -0.812161 0
M  V30 7907 O 759.782 -0.343108 -1.57813 0
M  V30 7908 H 760.473 0.212482 -1.92531 0
M  V30 END ATOM
M  V30 BEGIN BOND
M  V30 END BOND
M  V30 END CTAB
M  END
$$$$
