drugbank_target|P14780 Matrix metalloproteinase-9 (DB00143; DB00786; DB01017; DB01197; DB01296; DB01593; DB01949; DB03683; DB05387; DB05495; DB06423; DB07117; DB07246; DB07285; DB14487; DB14533; DB14548)
 OpenBabel12092119233D

  0  0  0     0  0            999 V3000
M  V30 BEGIN CTAB
M  V30 COUNTS 10824 10995 0 0 0
M  V30 BEGIN ATOM
M  V30 1 H -0.908 1.98254 -0.117106 0
M  V30 2 N 0 1.576 0 0
M  V30 3 C 0.933 2.03868 1.02534 0
M  V30 4 C 1.911 0.928543 1.3348 0
M  V30 5 O 3.095 1.19667 1.45644 0
M  V30 6 C 0.222 2.43627 2.35294 0
M  V30 7 C -0.732 3.65373 2.2001 0
M  V30 8 S 0.101 5.13292 1.52614 0
M  V30 9 C 1.257 5.56322 2.86805 0
M  V30 10 H 1.49 2.90518 0.631377 0
M  V30 11 H -0.977 1.52953 0.210867 0
M  V30 12 H 0.981 2.67203 3.11629 0
M  V30 13 H -0.358 1.57376 2.7183 0
M  V30 14 H -1.165 3.90944 3.18086 0
M  V30 15 H -1.563 3.418 1.51819 0
M  V30 16 H 0.729 5.58782 3.83104 0
M  V30 17 H 1.672 6.56266 2.65933 0
M  V30 18 H 2.08 4.83886 2.90714 0
M  V30 19 N 1.4781 -0.272755 1.55222 0
M  V30 20 C 2.7031 -1.02683 1.80197 0
M  V30 21 C 3.1281 -1.79142 0.573551 0
M  V30 22 O 2.4861 -1.74917 -0.476849 0
M  V30 23 C 2.5341 -1.9609 3.02624 0
M  V30 24 O 1.6381 -3.04863 2.77727 0
M  V30 25 H 0.9791 -0.293557 0.595584 0
M  V30 26 H 3.5091 -0.30159 2.02365 0
M  V30 27 H 3.5191 -2.38039 3.31363 0
M  V30 28 H 2.1941 -1.39851 3.91682 0
M  V30 29 H 0.7711 -2.67228 2.60084 0
M  V30 30 N 2.9562 -1.48159 -0.537278 0
M  V30 31 C 3.8862 -1.65029 -1.6519 0
M  V30 32 C 4.8672 -0.499281 -1.62607 0
M  V30 33 O 6.0522 -0.730972 -1.79918 0
M  V30 34 C 3.1822 -1.68303 -3.03795 0
M  V30 35 C 2.1362 -2.8283 -3.21234 0
M  V30 36 C 1.4622 -2.71189 -4.60826 0
M  V30 37 C 2.7622 -4.24211 -3.04701 0
M  V30 38 H 4.4562 -2.58341 -1.51328 0
M  V30 39 H 2.0022 -1.24325 -0.726585 0
M  V30 40 H 3.9552 -1.78693 -3.81637 0
M  V30 41 H 2.6792 -0.715635 -3.18663 0
M  V30 42 H 1.3382 -2.71983 -2.45807 0
M  V30 43 H 0.9862 -1.72435 -4.7252 0
M  V30 44 H 0.6862 -3.48035 -4.7344 0
M  V30 45 H 2.2102 -2.83537 -5.40777 0
M  V30 46 H 3.6242 -4.3593 -3.72341 0
M  V30 47 H 2.0212 -5.01998 -3.28813 0
M  V30 48 H 3.0912 -4.41184 -2.01209 0
M  V30 49 N 4.4343 0.785586 -1.36625 0
M  V30 50 C 5.6803 1.5452 -1.32269 0
M  V30 51 C 6.0353 1.92159 0.0962266 0
M  V30 52 O 5.3283 1.60158 1.05167 0
M  V30 53 C 5.5223 2.83007 -2.1827 0
M  V30 54 C 5.3513 2.57925 -3.68382 0
M  V30 55 C 4.1213 2.52752 -4.37544 0
M  V30 56 C 6.3193 2.26861 -4.61561 0
M  V30 57 N 4.3013 2.19608 -5.73276 0
M  V30 58 C 5.6723 2.03738 -5.85569 0
M  V30 59 C 7.7273 2.129 -4.50087 0
M  V30 60 C 6.4303 1.68065 -6.9939 0
M  V30 61 C 8.4563 1.78626 -5.63779 0
M  V30 62 C 7.8183 1.56353 -6.86828 0
M  V30 63 H 3.9173 0.566301 -0.539283 0
M  V30 64 H 6.5013 0.917736 -1.71714 0
M  V30 65 H 4.6723 3.43614 -1.81063 0
M  V30 66 H 6.4043 3.48775 -2.05275 0
M  V30 67 H 3.1593 2.6813 -3.90389 0
M  V30 68 H 3.5833 2.05771 -6.44971 0
M  V30 69 H 8.2253 2.28808 -3.55537 0
M  V30 70 H 5.9433 1.50895 -7.93887 0
M  V30 71 H 9.5293 1.68502 -5.56865 0
M  V30 72 H 8.4093 1.30223 -7.73312 0
M  V30 73 N 5.9124 1.20967 1.01018 0
M  V30 74 C 6.8444 0.922059 2.09835 0
M  V30 75 C 7.8574 -0.0927106 1.62536 0
M  V30 76 O 9.0464 0.139127 1.77957 0
M  V30 77 C 6.1464 0.362004 3.36961 0
M  V30 78 C 5.3194 1.42986 4.13369 0
M  V30 79 C 4.3784 0.879976 5.1879 0
M  V30 80 O 3.4044 1.56219 5.47343 0
M  V30 81 N 4.6064 -0.307396 5.79686 0
M  V30 82 H 7.3714 1.8588 2.35093 0
M  V30 83 H 4.9324 1.11422 1.1746 0
M  V30 84 H 6.9244 -0.0201474 4.04695 0
M  V30 85 H 5.4944 -0.479437 3.08902 0
M  V30 86 H 4.7144 1.98608 3.40512 0
M  V30 87 H 6.0024 2.14885 4.61196 0
M  V30 88 H 5.4004 -0.878796 5.58832 0
M  V30 89 H 3.9574 -0.631115 6.48737 0
M  V30 90 N 7.3905 -1.2043 1.01659 0
M  V30 91 C 8.8015 -1.71517 0.737482 0
M  V30 92 C 9.1525 -1.81547 -0.743973 0
M  V30 93 O 8.2775 -1.47803 -1.58061 0
M  V30 94 C 8.8725 -3.11515 1.33206 0
M  V30 95 C 7.4315 -3.59912 1.10183 0
M  V30 96 C 6.5785 -2.37116 1.43776 0
M  V30 97 H 9.5295 -1.05444 1.18606 0
M  V30 98 H 9.5505 -3.73575 0.722636 0
M  V30 99 H 9.0625 -3.04182 2.41028 0
M  V30 100 H 7.1635 -3.72577 0.0412756 0
M  V30 101 H 7.2765 -4.44731 1.78188 0
M  V30 102 H 5.6405 -2.39857 0.856778 0
M  V30 103 H 6.4235 -2.32424 2.52654 0
M  V30 104 N 8.8686 -0.792821 -1.36206 0
M  V30 105 C 9.7986 -0.207853 -2.32573 0
M  V30 106 C 10.7796 0.659055 -1.56813 0
M  V30 107 O 11.9646 0.592176 -1.84951 0
M  V30 108 C 9.0946 0.655449 -3.41059 0
M  V30 109 C 8.0486 -0.111842 -4.27854 0
M  V30 110 C 7.3746 0.872274 -5.27537 0
M  V30 111 C 8.6746 -1.30299 -5.05786 0
M  V30 112 H 10.3686 -1.01294 -2.81744 0
M  V30 113 H 7.9146 -0.48854 -1.3546 0
M  V30 114 H 9.8676 1.07464 -4.07467 0
M  V30 115 H 8.5916 1.49328 -2.90463 0
M  V30 116 H 7.2506 -0.512053 -3.63006 0
M  V30 117 H 6.8986 1.70523 -4.73214 0
M  V30 118 H 6.5986 0.363291 -5.86476 0
M  V30 119 H 8.1226 1.28996 -5.96818 0
M  V30 120 H 9.5366 -0.959379 -5.65216 0
M  V30 121 H 7.9336 -1.7455 -5.74154 0
M  V30 122 H 9.0036 -2.09663 -4.37229 0
M  V30 123 N 10.3467 1.47872 -0.545128 0
M  V30 124 C 11.5927 2.02793 -0.0166104 0
M  V30 125 C 11.9257 1.41987 1.32489 0
M  V30 126 O 11.2007 0.571045 1.85928 0
M  V30 127 C 11.4837 3.59989 0.0893294 0
M  V30 128 C 11.3367 4.3125 -1.27841 0
M  V30 129 C 12.6557 4.32606 0.808724 0
M  V30 130 H 9.7747 0.736962 -0.00751035 0
M  V30 131 H 12.4167 1.76433 -0.705085 0
M  V30 132 H 10.5667 3.82579 0.675681 0
M  V30 133 H 12.2387 4.20035 -1.90704 0
M  V30 134 H 10.4817 3.92076 -1.85632 0
M  V30 135 H 11.1527 5.39736 -1.15713 0
M  V30 136 H 13.6287 4.14936 0.310992 0
M  V30 137 H 12.5047 5.42251 0.851782 0
M  V30 138 H 12.7657 4.00963 1.86229 0
M  V30 139 N 11.8248 0.280983 1.55075 0
M  V30 140 C 12.7548 -0.597469 2.25727 0
M  V30 141 C 13.7358 -1.15417 1.24952 0
M  V30 142 O 14.9208 -1.18722 1.53684 0
M  V30 143 C 12.0508 -1.7789 2.98283 0
M  V30 144 C 11.0048 -1.35347 4.06036 0
M  V30 145 C 10.3308 -2.61846 4.66198 0
M  V30 146 C 11.6308 -0.499354 5.19907 0
M  V30 147 H 13.3248 -0.00824265 2.99399 0
M  V30 148 H 10.8708 -0.0025244 1.44 0
M  V30 149 H 12.8238 -2.39937 3.46422 0
M  V30 150 H 11.5478 -2.39405 2.22155 0
M  V30 151 H 10.2068 -0.756156 3.58717 0
M  V30 152 H 9.8548 -3.21632 3.86732 0
M  V30 153 H 9.5548 -2.3409 5.38958 0
M  V30 154 H 11.0788 -3.24732 5.1709 0
M  V30 155 H 12.4928 -1.02498 5.64063 0
M  V30 156 H 10.8898 -0.316424 5.99265 0
M  V30 157 H 11.9598 0.480459 4.82514 0
M  V30 158 N 13.3029 -1.57598 0.00835791 0
M  V30 159 C 14.5489 -1.91211 -0.675732 0
M  V30 160 C 14.8819 -0.883139 -1.72958 0
M  V30 161 O 14.1569 0.097016 -1.94258 0
M  V30 162 C 14.4399 -3.35379 -1.31123 0
M  V30 163 C 14.2929 -4.48999 -0.268356 0
M  V30 164 C 15.6119 -3.7912 -2.23508 0
M  V30 165 H 12.7309 -0.695374 -0.244179 0
M  V30 166 H 15.3729 -1.89901 0.0613655 0
M  V30 167 H 13.5229 -3.36626 -1.93946 0
M  V30 168 H 15.1949 -4.59887 0.360844 0
M  V30 169 H 13.4379 -4.31873 0.408482 0
M  V30 170 H 14.1089 -5.46851 -0.752218 0
M  V30 171 H 16.5849 -3.79477 -1.70693 0
M  V30 172 H 15.4609 -4.80729 -2.64936 0
M  V30 173 H 15.7219 -3.13455 -3.11766 0
M  V30 174 N 14.781 0.264519 -1.55364 0
M  V30 175 C 15.711 1.33121 -1.91836 0
M  V30 176 C 16.692 1.51101 -0.781192 0
M  V30 177 O 17.877 1.64003 -1.04003 0
M  V30 178 C 15.007 2.68921 -2.19769 0
M  V30 179 C 13.961 2.65661 -3.35571 0
M  V30 180 C 13.287 4.05093 -3.49004 0
M  V30 181 C 14.587 2.24187 -4.71739 0
M  V30 182 H 16.281 1.02844 -2.81182 0
M  V30 183 H 13.827 0.493286 -1.35287 0
M  V30 184 H 15.78 3.43663 -2.43872 0
M  V30 185 H 14.504 3.00799 -1.27231 0
M  V30 186 H 13.163 1.93377 -3.1145 0
M  V30 187 H 12.811 4.34206 -2.53917 0
M  V30 188 H 12.511 4.03804 -4.26868 0
M  V30 189 H 14.035 4.81561 -3.75408 0
M  V30 190 H 15.449 2.88654 -4.9533 0
M  V30 191 H 13.846 2.34044 -5.52579 0
M  V30 192 H 14.916 1.19327 -4.69988 0
M  V30 193 N 16.2591 1.48442 0.529413 0
M  V30 194 C 17.1891 1.65902 1.64313 0
M  V30 195 C 18.1701 0.507897 1.6234 0
M  V30 196 O 19.3551 0.740503 1.79528 0
M  V30 197 C 16.4851 1.69911 3.02898 0
M  V30 198 C 15.4391 2.8453 3.19729 0
M  V30 199 C 14.7651 2.73629 4.59381 0
M  V30 200 C 16.0651 4.25821 3.02447 0
M  V30 201 H 17.7591 2.5914 1.49955 0
M  V30 202 H 15.3051 1.24709 0.719982 0
M  V30 203 H 17.2581 1.80715 3.80684 0
M  V30 204 H 15.9821 0.732524 3.18279 0
M  V30 205 H 14.6411 2.73283 2.44361 0
M  V30 206 H 14.2891 1.74938 4.71599 0
M  V30 207 H 13.9891 3.50541 4.71588 0
M  V30 208 H 15.5131 2.86401 5.39265 0
M  V30 209 H 16.9271 4.37898 3.70024 0
M  V30 210 H 15.3241 5.03735 3.26146 0
M  V30 211 H 16.3941 4.42244 1.98867 0
M  V30 212 N 17.7372 -0.778329 1.37039 0
M  V30 213 C 18.9832 -1.53892 1.32079 0
M  V30 214 C 19.3162 -1.9396 -0.0965386 0
M  V30 215 O 18.5912 -1.63568 -1.05242 0
M  V30 216 C 18.8742 -2.80847 2.25382 0
M  V30 217 C 18.7272 -2.47076 3.75864 0
M  V30 218 C 20.0462 -3.82741 2.1725 0
M  V30 219 H 17.1652 -0.558303 0.48111 0
M  V30 220 H 19.8072 -0.893397 1.67685 0
M  V30 221 H 17.9572 -3.35931 1.95148 0
M  V30 222 H 19.6292 -1.97957 4.16666 0
M  V30 223 H 17.8722 -1.79863 3.94755 0
M  V30 224 H 18.5432 -3.37798 4.36574 0
M  V30 225 H 21.0192 -3.37133 2.43887 0
M  V30 226 H 19.8952 -4.69303 2.84686 0
M  V30 227 H 20.1562 -4.2652 1.16331 0
M  V30 228 N 19.2153 -1.21501 -1.00376 0
M  V30 229 C 20.1453 -0.999478 -2.11028 0
M  V30 230 C 21.1263 0.0759671 -1.6993 0
M  V30 231 O 22.3113 -0.0841106 -1.94018 0
M  V30 232 C 19.4413 -0.564709 -3.42678 0
M  V30 233 C 18.3953 -1.58486 -3.97576 0
M  V30 234 C 17.7213 -1.00628 -5.25146 0
M  V30 235 C 19.0213 -2.97204 -4.29496 0
M  V30 236 H 20.7153 -1.92495 -2.29317 0
M  V30 237 H 18.2613 -0.92693 -1.102 0
M  V30 238 H 20.2143 -0.401091 -4.19487 0
M  V30 239 H 18.9383 0.396411 -3.24185 0
M  V30 240 H 17.5973 -1.73606 -3.22888 0
M  V30 241 H 17.2453 -0.0368439 -5.02987 0
M  V30 242 H 16.9453 -1.68771 -5.62841 0
M  V30 243 H 18.4693 -0.854015 -6.04598 0
M  V30 244 H 19.8833 -2.8552 -4.97143 0
M  V30 245 H 18.2803 -3.62372 -4.78338 0
M  V30 246 H 19.3503 -3.47956 -3.3772 0
M  V30 247 N 20.6934 1.19889 -1.02296 0
M  V30 248 C 21.9414 1.89046 -0.714558 0
M  V30 249 C 22.2624 1.79636 0.758681 0
M  V30 250 O 21.5324 1.20292 1.54618 0
M  V30 251 H 20.1124 0.699802 -0.261317 0
M  V30 252 H 22.7744 1.45574 -1.29592 0
M  V30 253 H 21.8704 2.95524 -1.0036 0
M  V30 254 N 22.1715 0.800033 1.35784 0
M  V30 255 C 23.4115 0.382891 2.00782 0
M  V30 256 C 23.7755 -1.02891 1.62103 0
M  V30 257 O 24.9765 -1.54771 2.19771 0
M  V30 258 C 23.2475 0.553299 3.53091 0
M  V30 259 S 24.8065 0.225608 4.3822 0
M  V30 260 H 21.6245 0.145737 0.695904 0
M  V30 261 H 24.2265 1.04085 1.65489 0
M  V30 262 H 22.9305 1.58091 3.78729 0
M  V30 263 H 22.4615 -0.120214 3.93216 0
M  V30 264 H 24.4765 -0.969074 4.86645 0
M  V30 265 N 23.6496 -1.47581 0.552962 0
M  V30 266 C 24.8896 -2.04379 0.0296245 0
M  V30 267 C 25.2536 -1.4185 -1.29393 0
M  V30 268 O 26.4546 -1.89669 -1.90471 0
M  V30 269 C 24.7256 -3.57339 -0.0661371 0
M  V30 270 S 26.2846 -4.35511 -0.536213 0
M  V30 271 H 23.1026 -0.710625 0.0230991 0
M  V30 272 H 25.7046 -1.81005 0.738734 0
M  V30 273 H 24.4086 -4.00374 0.901596 0
M  V30 274 H 23.9396 -3.85202 -0.798931 0
M  V30 275 H 25.9546 -4.6253 -1.79668 0
M  V30 276 N 25.1277 -0.289203 -1.54924 0
M  V30 277 C 26.3747 0.323519 -1.99899 0
M  V30 278 C 26.7027 1.54797 -1.17762 0
M  V30 279 O 25.9577 1.94237 -0.238835 0
M  V30 280 C 26.2567 0.736119 -3.49737 0
M  V30 281 C 25.9227 -0.385276 -4.49251 0
M  V30 282 C 24.5847 -0.693156 -4.76181 0
M  V30 283 C 26.9367 -1.14021 -5.08575 0
M  V30 284 C 24.2647 -1.7593 -5.59701 0
M  V30 285 C 26.6167 -2.19619 -5.93254 0
M  V30 286 C 25.2807 -2.51026 -6.185 0
M  V30 287 H 24.5507 0.118384 -0.731482 0
M  V30 288 H 27.1977 -0.405847 -1.8715 0
M  V30 289 H 25.5027 1.54539 -3.60035 0
M  V30 290 H 27.1997 1.22118 -3.81953 0
M  V30 291 H 23.7897 -0.135202 -4.28387 0
M  V30 292 H 27.9737 -0.915611 -4.87781 0
M  V30 293 H 23.2297 -2.0075 -5.77503 0
M  V30 294 H 27.4037 -2.78581 -6.38252 0
M  V30 295 H 25.0307 -3.33772 -6.83008 0
M  V30 296 N 26.6058 1.57591 -0.0167156 0
M  V30 297 C 27.5688 2.08393 0.954204 0
M  V30 298 C 28.5688 0.996531 1.26198 0
M  V30 299 O 29.7588 1.25858 1.20438 0
M  V30 300 C 26.8908 2.5394 2.27436 0
M  V30 301 H 28.0838 2.95455 0.514451 0
M  V30 302 H 25.6368 1.54582 0.231089 0
M  V30 303 H 26.3718 1.70171 2.76066 0
M  V30 304 H 26.1568 3.33371 2.06412 0
M  V30 305 H 27.6468 2.93512 2.97053 0
M  V30 306 N 28.0839 -0.256276 1.55502 0
M  V30 307 C 29.0469 -1.30047 1.88734 0
M  V30 308 C 30.0469 -1.4154 0.763086 0
M  V30 309 O 31.2369 -1.40403 1.03115 0
M  V30 310 C 28.3689 -2.67953 2.10747 0
M  V30 311 H 29.5619 -1.01802 2.82093 0
M  V30 312 H 27.1149 -0.495134 1.4825 0
M  V30 313 H 27.8499 -3.01351 1.19825 0
M  V30 314 H 27.6349 -2.60993 2.92617 0
M  V30 315 H 29.1249 -3.43368 2.37673 0
M  V30 316 N 29.562 -1.4872 -0.521534 0
M  V30 317 C 30.973 -1.50607 -1.10337 0
M  V30 318 C 31.324 -0.280612 -1.94183 0
M  V30 319 O 30.449 0.611507 -2.0758 0
M  V30 320 C 31.044 -2.72903 -2.00772 0
M  V30 321 C 29.603 -2.77634 -2.54158 0
M  V30 322 C 28.75 -2.44241 -1.31307 0
M  V30 323 H 31.701 -1.55714 -0.306388 0
M  V30 324 H 31.722 -2.519 -2.85178 0
M  V30 325 H 31.234 -3.62077 -1.39721 0
M  V30 326 H 29.335 -1.92689 -3.18907 0
M  V30 327 H 29.448 -3.79283 -2.92714 0
M  V30 328 H 27.812 -1.95577 -1.63161 0
M  V30 329 H 28.595 -3.35666 -0.719943 0
M  V30 330 N 31.0401 0.771051 -1.3745 0
M  V30 331 C 32.4561 1.07171 -1.18265 0
M  V30 332 C 32.6561 2.01491 -0.019287 0
M  V30 333 O 31.7121 2.44244 0.640408 0
M  V30 334 C 33.0251 1.66854 -2.50161 0
M  V30 335 C 34.5731 1.79109 -2.56689 0
M  V30 336 C 35.0481 2.42205 -3.88717 0
M  V30 337 N 36.5391 2.49655 -3.90162 0
M  V30 338 C 37.2741 2.9933 -4.8907 0
M  V30 339 N 36.7701 3.49172 -5.98374 0
M  V30 340 N 38.5631 2.9821 -4.76474 0
M  V30 341 H 30.7141 0.144796 -2.11906 0
M  V30 342 H 32.9771 0.126863 -0.939473 0
M  V30 343 H 32.6831 1.05017 -3.35655 0
M  V30 344 H 32.5571 2.6614 -2.673 0
M  V30 345 H 34.9441 2.40077 -1.71601 0
M  V30 346 H 35.0251 0.785757 -2.43433 0
M  V30 347 H 34.6691 1.81875 -4.74219 0
M  V30 348 H 34.5991 3.43345 -3.99276 0
M  V30 349 H 37.0901 2.14383 -3.11205 0
M  V30 350 H 37.4031 3.8548 -6.69795 0
M  V30 351 H 35.7481 3.47275 -6.02018 0
M  V30 352 H 38.9391 2.58572 -3.90203 0
M  V30 353 H 39.1121 3.36613 -5.53711 0
M  V30 354 N 32.5182 1.22032 0.997298 0
M  V30 355 C 33.4502 0.944263 2.08845 0
M  V30 356 C 34.4632 -0.0754663 1.62625 0
M  V30 357 O 35.6522 0.157994 1.77799 0
M  V30 358 C 32.7522 0.397723 3.36558 0
M  V30 359 C 31.9252 1.47362 4.11829 0
M  V30 360 C 30.9842 0.934951 5.17827 0
M  V30 361 O 30.0102 1.62016 5.45655 0
M  V30 362 N 31.2122 -0.245895 5.79979 0
M  V30 363 H 33.9772 1.88363 2.33109 0
M  V30 364 H 31.5382 1.12661 1.16272 0
M  V30 365 H 33.5302 0.0227771 4.04694 0
M  V30 366 H 32.1002 -0.446646 3.09393 0
M  V30 367 H 31.3202 2.02208 3.38386 0
M  V30 368 H 32.6082 2.19764 4.58891 0
M  V30 369 H 32.0062 -0.819475 5.59733 0
M  V30 370 H 30.5632 -0.562272 6.4937 0
M  V30 371 N 33.9963 -1.19345 1.0293 0
M  V30 372 C 35.4123 -1.41069 0.746446 0
M  V30 373 C 35.6123 -1.90078 -0.668776 0
M  V30 374 O 34.6683 -2.0778 -1.4347 0
M  V30 375 C 35.9813 -2.42141 1.78292 0
M  V30 376 C 37.5293 -2.55887 1.80252 0
M  V30 377 C 38.0043 -3.60214 2.8286 0
M  V30 378 N 39.4953 -3.67711 2.81679 0
M  V30 379 C 40.2303 -4.48128 3.57727 0
M  V30 380 N 39.7263 -5.32248 4.43491 0
M  V30 381 N 41.5193 -4.42782 3.46267 0
M  V30 382 H 33.6703 -0.858536 1.94275 0
M  V30 383 H 35.9333 -0.439541 0.839945 0
M  V30 384 H 35.6393 -2.13155 2.79746 0
M  V30 385 H 35.5133 -3.41323 1.60557 0
M  V30 386 H 37.9003 -2.84196 0.794757 0
M  V30 387 H 37.9813 -1.56858 2.02062 0
M  V30 388 H 37.6253 -3.32647 3.83807 0
M  V30 389 H 37.5553 -4.58895 2.58307 0
M  V30 390 H 40.0463 -3.07634 2.19476 0
M  V30 391 H 40.3593 -5.90729 4.98256 0
M  V30 392 H 38.7043 -5.31707 4.47564 0
M  V30 393 H 41.8953 -3.76107 2.78677 0
M  V30 394 H 42.0683 -5.05215 4.05785 0
M  V30 395 N 35.4744 -0.807222 -1.35358 0
M  V30 396 C 36.4064 -0.175717 -2.28525 0
M  V30 397 C 37.4194 0.625354 -1.5031 0
M  V30 398 O 38.6084 0.457611 -1.72535 0
M  V30 399 C 35.7084 0.773471 -3.29956 0
M  V30 400 C 34.8814 0.0186296 -4.37396 0
M  V30 401 C 33.9404 0.886395 -5.18681 0
M  V30 402 O 32.9664 0.337106 -5.68201 0
M  V30 403 N 34.1684 2.20839 -5.36852 0
M  V30 404 H 36.9334 -0.976091 -2.83359 0
M  V30 405 H 34.4944 -0.662737 -1.47714 0
M  V30 406 H 36.4864 1.35824 -3.81227 0
M  V30 407 H 35.0564 1.47465 -2.75632 0
M  V30 408 H 34.2764 -0.747349 -3.87051 0
M  V30 409 H 35.5644 -0.501577 -5.06322 0
M  V30 410 H 34.9624 2.67858 -4.98265 0
M  V30 411 H 33.5194 2.74237 -5.91301 0
M  V30 412 N 36.9525 1.47285 -0.560781 0
M  V30 413 C 38.1775 2.07359 -0.0410566 0
M  V30 414 C 38.6025 1.41017 1.24483 0
M  V30 415 O 37.9605 0.486368 1.74654 0
M  V30 416 C 38.0085 3.6035 0.134123 0
M  V30 417 O 37.1125 3.94681 1.19587 0
M  V30 418 H 36.4535 0.661887 -0.0529291 0
M  V30 419 H 38.9835 1.89252 -0.777482 0
M  V30 420 H 38.9935 4.0652 0.347207 0
M  V30 421 H 37.6685 4.08034 -0.805047 0
M  V30 422 H 36.2455 3.60251 0.962987 0
M  V30 423 N 38.4306 0.297415 1.54768 0
M  V30 424 C 39.6586 -0.315623 2.04478 0
M  V30 425 C 40.0736 -1.47792 1.17486 0
M  V30 426 O 39.4306 -1.81404 0.19971 0
M  V30 427 C 39.4816 -0.7753 3.53088 0
M  V30 428 O 39.2026 0.340732 4.36773 0
M  V30 429 C 40.7036 -1.45386 4.18781 0
M  V30 430 H 37.9236 -0.0690887 0.667434 0
M  V30 431 H 40.4676 0.436003 1.99798 0
M  V30 432 H 38.6226 -1.47696 3.58141 0
M  V30 433 H 39.0366 -0.0165035 5.24497 0
M  V30 434 H 40.5106 -1.72669 5.24299 0
M  V30 435 H 40.9876 -2.39275 3.68299 0
M  V30 436 H 41.5936 -0.795475 4.17795 0
M  V30 437 N 39.9087 -1.5758 0.0250728 0
M  V30 438 C 40.8387 -2.13007 -0.956575 0
M  V30 439 C 41.8197 -1.0452 -1.342 0
M  V30 440 O 43.0047 -1.32332 -1.42133 0
M  V30 441 C 40.1347 -2.65386 -2.24026 0
M  V30 442 C 39.0887 -3.78623 -1.99571 0
M  V30 443 C 38.4147 -4.17414 -3.3417 0
M  V30 444 C 39.7147 -5.04867 -1.33814 0
M  V30 445 H 41.4087 -2.9528 -0.494991 0
M  V30 446 H 38.9547 -1.42042 -0.236651 0
M  V30 447 H 40.9077 -3.02794 -2.93076 0
M  V30 448 H 39.6317 -1.80268 -2.72343 0
M  V30 449 H 38.2907 -3.41646 -1.32941 0
M  V30 450 H 37.9387 -3.29284 -3.80238 0
M  V30 451 H 37.6387 -4.93719 -3.18615 0
M  V30 452 H 39.1627 -4.57402 -4.04495 0
M  V30 453 H 40.5767 -5.39888 -1.92857 0
M  V30 454 H 38.9737 -5.86144 -1.28669 0
M  V30 455 H 40.0437 -4.83904 -0.310561 0
M  V30 456 N 41.3868 0.248026 -1.55636 0
M  V30 457 C 42.6328 0.97767 -1.77678 0
M  V30 458 C 42.9658 1.85016 -0.590135 0
M  V30 459 O 42.2408 1.90095 0.411611 0
M  V30 460 C 42.5238 1.83914 -3.09593 0
M  V30 461 C 42.3768 0.99491 -4.38659 0
M  V30 462 C 43.6958 2.82183 -3.37729 0
M  V30 463 H 40.8148 0.354005 -0.646413 0
M  V30 464 H 43.4568 0.248253 -1.88371 0
M  V30 465 H 41.6068 2.46104 -3.00608 0
M  V30 466 H 43.2788 0.391789 -4.59633 0
M  V30 467 H 41.5218 0.299231 -4.32767 0
M  V30 468 H 42.1928 1.63145 -5.2734 0
M  V30 469 H 44.6688 2.30129 -3.4667 0
M  V30 470 H 43.5448 3.39582 -4.31249 0
M  V30 471 H 43.8058 3.58588 -2.58586 0
M  V30 472 N 42.8649 1.48995 0.513639 0
M  V30 473 C 43.7949 1.67636 1.62544 0
M  V30 474 C 44.7759 0.525087 1.61793 0
M  V30 475 O 45.9609 0.759502 1.78732 0
M  V30 476 C 43.0909 1.73114 3.01079 0
M  V30 477 C 42.0449 2.87905 3.16693 0
M  V30 478 C 41.3709 2.78486 4.56453 0
M  V30 479 C 42.6709 4.29005 2.97913 0
M  V30 480 H 44.3649 2.60716 1.47198 0
M  V30 481 H 41.9109 1.25465 0.706714 0
M  V30 482 H 43.8639 1.84742 3.78746 0
M  V30 483 H 42.5879 0.766241 3.17484 0
M  V30 484 H 41.2469 2.75859 2.41448 0
M  V30 485 H 40.8949 1.7993 4.69717 0
M  V30 486 H 40.5949 3.55523 4.67843 0
M  V30 487 H 42.1189 2.92104 5.36197 0
M  V30 488 H 43.5329 4.41798 3.65359 0
M  V30 489 H 41.9299 5.07166 3.20785 0
M  V30 490 H 42.9999 4.44329 1.94165 0
M  V30 491 N 44.343 -0.763751 1.37857 0
M  V30 492 C 45.59 -1.52257 1.33506 0
M  V30 493 C 45.918 -1.94343 -0.078022 0
M  V30 494 O 45.173 -1.64958 -1.05297 0
M  V30 495 C 45.472 -2.79499 2.22745 0
M  V30 496 C 45.138 -2.56426 3.70886 0
M  V30 497 C 43.8 -2.49842 4.11257 0
M  V30 498 C 46.152 -2.36008 4.64704 0
M  V30 499 C 43.48 -2.20841 5.43549 0
M  V30 500 C 45.832 -2.0853 5.97242 0
M  V30 501 C 44.496 -2.00396 6.36709 0
M  V30 502 H 43.766 -0.557149 0.488534 0
M  V30 503 H 46.413 -0.879073 1.70131 0
M  V30 504 H 44.718 -3.48447 1.79142 0
M  V30 505 H 46.415 -3.37413 2.16688 0
M  V30 506 H 43.005 -2.62416 3.38874 0
M  V30 507 H 47.189 -2.40079 4.34368 0
M  V30 508 H 42.445 -2.13045 5.73081 0
M  V30 509 H 46.619 -1.91732 6.69486 0
M  V30 510 H 44.246 -1.77688 7.39142 0
M  V30 511 N 45.8211 -1.22559 -0.990812 0
M  V30 512 C 47.2321 -1.04791 -1.54518 0
M  V30 513 C 47.5831 0.387998 -1.92325 0
M  V30 514 O 46.7081 1.27328 -1.74976 0
M  V30 515 C 47.3031 -1.896 -2.80779 0
M  V30 516 C 45.8621 -1.76124 -3.32652 0
M  V30 517 C 45.0091 -1.8594 -2.05722 0
M  V30 518 H 47.9601 -1.36374 -0.811662 0
M  V30 519 H 47.9811 -1.41464 -3.53225 0
M  V30 520 H 47.4931 -2.94101 -2.53231 0
M  V30 521 H 45.5941 -0.743643 -3.65104 0
M  V30 522 H 45.7071 -2.58913 -4.03114 0
M  V30 523 H 44.0711 -1.29403 -2.19379 0
M  V30 524 H 44.8541 -2.91976 -1.80568 0
M  V30 525 N 47.2992 1.18797 -1.03562 0
M  V30 526 C 48.5472 1.88278 -0.734569 0
M  V30 527 C 48.8682 1.8043 0.739586 0
M  V30 528 O 48.1382 1.21925 1.53333 0
M  V30 529 H 46.7182 0.696991 -0.268725 0
M  V30 530 H 49.3802 1.44192 -1.31129 0
M  V30 531 H 48.4762 2.94443 -1.03489 0
M  V30 532 N 48.7773 0.814389 1.34928 0
M  V30 533 C 50.0543 0.321363 1.92942 0
M  V30 534 C 50.4343 -1.19014 1.74353 0
M  V30 535 O 49.7823 -1.99328 1.11716 0
M  V30 536 C 49.9923 0.741323 3.41036 0
M  V30 537 C 51.3403 0.735266 4.18185 0
M  V30 538 O 52.3643 0.68336 3.49584 0
M  V30 539 O 51.2233 0.800703 5.40602 0
M  V30 540 H 48.3173 0.0858893 0.822528 0
M  V30 541 H 50.8633 0.898609 1.43955 0
M  V30 542 H 49.6353 1.78276 3.4833 0
M  V30 543 H 49.2583 0.139307 3.97356 0
M  V30 544 N 50.2554 -1.46986 0.568584 0
M  V30 545 C 51.1854 -2.32946 -0.160753 0
M  V30 546 C 52.1664 -1.44487 -0.897631 0
M  V30 547 O 53.3514 -1.73327 -0.875867 0
M  V30 548 C 50.4814 -3.26494 -1.18403 0
M  V30 549 C 49.4354 -4.24282 -0.562895 0
M  V30 550 C 48.7614 -5.07236 -1.69163 0
M  V30 551 C 50.0614 -5.19989 0.490761 0
M  V30 552 H 51.7554 -2.94175 0.556916 0
M  V30 553 H 49.3014 -1.4146 0.26927 0
M  V30 554 H 51.2544 -3.85477 -1.70251 0
M  V30 555 H 49.9784 -2.63343 -1.93179 0
M  V30 556 H 48.6374 -3.66541 -0.0656164 0
M  V30 557 H 48.2854 -4.4048 -2.42871 0
M  V30 558 H 47.9854 -5.7345 -1.28174 0
M  V30 559 H 49.5094 -5.6908 -2.21314 0
M  V30 560 H 50.9234 -5.73271 0.0579047 0
M  V30 561 H 49.3204 -5.94469 0.820165 0
M  V30 562 H 50.3904 -4.64777 1.3824 0
M  V30 563 N 51.7335 -0.305618 -1.54608 0
M  V30 564 C 53.1495 0.0476228 -1.59529 0
M  V30 565 C 53.3495 1.52025 -1.32252 0
M  V30 566 O 52.4055 2.27368 -1.09818 0
M  V30 567 C 53.7185 -0.354471 -2.98603 0
M  V30 568 C 55.2665 -0.303622 -3.11524 0
M  V30 569 C 55.7415 -0.680608 -4.52915 0
M  V30 570 N 57.2325 -0.63332 -4.5885 0
M  V30 571 C 57.9675 -0.897432 -5.66334 0
M  V30 572 N 57.4635 -1.22775 -6.81834 0
M  V30 573 N 59.2565 -0.824186 -5.56025 0
M  V30 574 H 51.4075 -1.2653 -1.70599 0
M  V30 575 H 53.6705 -0.513291 -0.797017 0
M  V30 576 H 53.3765 -1.3798 -3.23503 0
M  V30 577 H 53.2505 0.289568 -3.76087 0
M  V30 578 H 55.6375 0.712472 -2.8637 0
M  V30 579 H 55.7185 -0.982348 -2.36185 0
M  V30 580 H 55.3625 -1.69453 -4.78799 0
M  V30 581 H 55.2925 0.0202385 -5.26596 0
M  V30 582 H 57.7835 -0.389138 -3.75891 0
M  V30 583 H 58.0965 -1.41513 -7.59733 0
M  V30 584 H 56.4415 -1.26583 -6.83375 0
M  V30 585 H 59.6325 -0.565748 -4.64669 0
M  V30 586 H 59.8055 -1.03338 -6.39707 0
M  V30 587 N 53.2116 1.57565 -0.0334293 0
M  V30 588 C 54.4396 1.9628 0.654347 0
M  V30 589 C 54.8546 0.910138 1.65414 0
M  V30 590 O 54.2116 -0.107595 1.82183 0
M  V30 591 C 54.2626 3.35067 1.35693 0
M  V30 592 O 53.9836 4.36296 0.397191 0
M  V30 593 C 55.4846 3.88439 2.13613 0
M  V30 594 H 52.7046 0.646369 0.180132 0
M  V30 595 H 55.2486 2.04282 -0.0944721 0
M  V30 596 H 53.4036 3.2827 2.05712 0
M  V30 597 H 53.8176 5.1678 0.896597 0
M  V30 598 H 55.2916 4.8788 2.58219 0
M  V30 599 H 55.7686 3.22914 2.97696 0
M  V30 600 H 56.3746 3.98516 1.48543 0
M  V30 601 N 54.6897 -0.239769 1.55765 0
M  V30 602 C 55.6377 -1.31668 1.91745 0
M  V30 603 C 56.6317 -1.49462 0.797338 0
M  V30 604 O 57.8377 -1.50852 0.982021 0
M  V30 605 H 54.2127 -0.441048 0.609082 0
M  V30 606 H 56.1837 -0.985923 2.81642 0
M  V30 607 C 54.9327 -2.66368 2.2348 0
M  V30 608 H 54.2557 -2.53478 3.09175 0
M  V30 609 H 55.6957 -3.40578 2.52553 0
M  V30 610 C 54.1547 -3.20002 1.05359 0
M  V30 611 O 54.6847 -4.00538 0.305261 0
M  V30 612 N 52.8907 -2.78126 0.842292 0
M  V30 613 H 52.4377 -2.12742 1.45253 0
M  V30 614 H 52.3957 -3.14354 0.053652 0
M  V30 615 N 56.1678 -1.49265 -0.50573 0
M  V30 616 C 57.0978 -1.68495 -1.61653 0
M  V30 617 C 58.0788 -0.53366 -1.61512 0
M  V30 618 O 59.2638 -0.76897 -1.78327 0
M  V30 619 C 56.3938 -1.74709 -3.00157 0
M  V30 620 C 55.3478 -2.89581 -3.15162 0
M  V30 621 C 54.6738 -2.80903 -4.5497 0
M  V30 622 C 55.9738 -4.30578 -2.95634 0
M  V30 623 H 57.6678 -2.61493 -1.45814 0
M  V30 624 H 55.2138 -1.25838 -0.70005 0
M  V30 625 H 57.1668 -1.86748 -3.77761 0
M  V30 626 H 55.8908 -0.783067 -3.17074 0
M  V30 627 H 54.5498 -2.77136 -2.39982 0
M  V30 628 H 54.1978 -1.82419 -4.68756 0
M  V30 629 H 53.8978 -3.57999 -4.65951 0
M  V30 630 H 55.4218 -2.94944 -5.34641 0
M  V30 631 H 56.8358 -4.4373 -3.63011 0
M  V30 632 H 55.2328 -5.0886 -3.18091 0
M  V30 633 H 56.3028 -4.45352 -1.91806 0
M  V30 634 N 57.6459 0.756429 -1.3826 0
M  V30 635 C 58.8739 1.54565 -1.3754 0
M  V30 636 C 59.2889 1.88767 0.0355331 0
M  V30 637 O 58.6459 1.52572 1.0014 0
M  V30 638 C 58.6969 2.84654 -2.22833 0
M  V30 639 O 58.4179 2.51912 -3.5843 0
M  V30 640 C 59.9189 3.78807 -2.30261 0
M  V30 641 H 57.1389 0.478353 -0.470553 0
M  V30 642 H 59.6829 0.936381 -1.81803 0
M  V30 643 H 57.8379 3.41965 -1.8204 0
M  V30 644 H 58.2519 3.35325 -4.03308 0
M  V30 645 H 59.7259 4.67045 -2.94233 0
M  V30 646 H 60.2029 4.19038 -1.31545 0
M  V30 647 H 60.8089 3.2742 -2.71433 0
M  V30 648 N 59.124 1.23083 0.984299 0
M  V30 649 C 60.401 0.9689 1.69917 0
M  V30 650 C 60.781 -0.513604 2.04757 0
M  V30 651 O 60.129 -1.48383 1.73767 0
M  V30 652 C 60.339 1.87518 2.94343 0
M  V30 653 C 61.687 2.13636 3.6694 0
M  V30 654 O 62.711 1.85036 3.04368 0
M  V30 655 O 61.57 2.62119 4.79537 0
M  V30 656 H 58.664 0.365095 0.742048 0
M  V30 657 H 61.21 1.34107 1.03987 0
M  V30 658 H 59.982 2.87756 2.65164 0
M  V30 659 H 59.605 1.50514 3.6801 0
M  V30 660 N 60.6021 -1.18246 1.0419 0
M  V30 661 C 62.0181 -1.40269 0.761366 0
M  V30 662 C 62.2181 -1.90777 -0.648578 0
M  V30 663 O 61.2741 -2.0929 -1.41258 0
M  V30 664 C 62.5871 -2.40237 1.8085 0
M  V30 665 C 64.1351 -2.53961 1.82955 0
M  V30 666 C 64.6101 -3.57194 2.86664 0
M  V30 667 N 66.1011 -3.64702 2.85563 0
M  V30 668 C 66.8361 -4.44309 3.6246 0
M  V30 669 N 66.3321 -5.27514 4.49111 0
M  V30 670 N 68.1251 -4.39084 3.50944 0
M  V30 671 H 60.2761 -0.837882 1.95175 0
M  V30 672 H 62.5391 -0.430608 0.84456 0
M  V30 673 H 62.2451 -2.10176 2.81991 0
M  V30 674 H 62.1191 -3.39601 1.64168 0
M  V30 675 H 64.5061 -2.83338 0.824855 0
M  V30 676 H 64.5871 -1.54706 2.03715 0
M  V30 677 H 64.2311 -3.28558 3.87314 0
M  V30 678 H 64.1611 -4.5613 2.6316 0
M  V30 679 H 66.6521 -3.05289 2.22727 0
M  V30 680 H 66.9651 -5.85411 5.04493 0
M  V30 681 H 65.3101 -5.2693 4.53178 0
M  V30 682 H 68.5011 -3.7313 2.82651 0
M  V30 683 H 68.6741 -5.00883 4.11121 0
M  V30 684 N 62.0802 -0.821533 -1.34494 0
M  V30 685 C 63.0122 -0.199946 -2.28326 0
M  V30 686 C 64.0252 0.609377 -1.50965 0
M  V30 687 O 65.2142 0.439285 -1.7301 0
M  V30 688 C 62.3142 0.738431 -3.30757 0
M  V30 689 C 61.4872 -0.0277632 -4.37391 0
M  V30 690 C 60.5462 0.831332 -5.19591 0
M  V30 691 O 59.5722 0.276822 -5.68526 0
M  V30 692 N 60.7742 2.15132 -5.39165 0
M  V30 693 H 63.5392 -1.00609 -2.82308 0
M  V30 694 H 61.1002 -0.678366 -1.47003 0
M  V30 695 H 63.0922 1.31773 -3.82646 0
M  V30 696 H 61.6622 1.44533 -2.7718 0
M  V30 697 H 60.8822 -0.788359 -3.86236 0
M  V30 698 H 62.1702 -0.555251 -5.05761 0
M  V30 699 H 61.5682 2.62559 -5.01078 0
M  V30 700 H 60.1252 2.6795 -5.94177 0
M  V30 701 N 63.5583 1.46682 -0.576371 0
M  V30 702 C 64.4883 2.33028 0.148397 0
M  V30 703 C 65.4693 1.44961 0.889956 0
M  V30 704 O 66.6543 1.73789 0.866662 0
M  V30 705 C 63.7843 3.27117 1.1667 0
M  V30 706 C 62.7383 4.24575 0.540386 0
M  V30 707 C 62.0643 5.08126 1.6647 0
M  V30 708 C 63.3643 5.19722 -0.518331 0
M  V30 709 H 65.0583 2.93875 -0.572509 0
M  V30 710 H 62.6043 1.41315 -0.276768 0
M  V30 711 H 64.5573 3.86374 1.68204 0
M  V30 712 H 63.2813 2.64364 1.9178 0
M  V30 713 H 61.9403 3.66571 0.0461769 0
M  V30 714 H 61.5883 4.41762 2.40531 0
M  V30 715 H 61.2883 5.74122 1.25131 0
M  V30 716 H 62.8123 5.70246 2.18293 0
M  V30 717 H 64.2263 5.73232 -0.0883058 0
M  V30 718 H 62.6233 5.94026 -0.851679 0
M  V30 719 H 63.6933 4.64037 -1.40703 0
M  V30 720 N 65.0364 0.313813 1.54444 0
M  V30 721 C 65.9994 -0.54379 2.22656 0
M  V30 722 C 66.9994 -1.05124 1.21678 0
M  V30 723 O 68.1894 -0.945225 1.46325 0
M  V30 724 C 65.3214 -1.75427 2.92298 0
M  V30 725 H 66.5144 0.0523599 2.99854 0
M  V30 726 H 64.0674 0.0647834 1.56166 0
M  V30 727 H 64.8024 -2.38991 2.19211 0
M  V30 728 H 64.5874 -1.39791 3.66334 0
M  V30 729 H 66.0774 -2.36325 3.44297 0
M  V30 730 N 66.5145 -1.57545 0.0417849 0
M  V30 731 C 67.4245 -2.14451 -0.951213 0
M  V30 732 C 68.4405 -1.09992 -1.34825 0
M  V30 733 O 69.6165 -1.42114 -1.42708 0
M  V30 734 C 66.6815 -2.67063 -2.21084 0
M  V30 735 C 65.7425 -3.86284 -1.87304 0
M  V30 736 C 64.9755 -4.36378 -3.07261 0
M  V30 737 O 65.1985 -3.85587 -4.20332 0
M  V30 738 O 64.1325 -5.28077 -2.88822 0
M  V30 739 H 67.9585 -2.99601 -0.497287 0
M  V30 740 H 65.5435 -1.48317 -0.179567 0
M  V30 741 H 67.4255 -3.00914 -2.95006 0
M  V30 742 H 66.1005 -1.84989 -2.65633 0
M  V30 743 H 65.0075 -3.57338 -1.10727 0
M  V30 744 H 66.3405 -4.6956 -1.47562 0
M  V30 745 N 67.9926 0.231505 -1.5589 0
M  V30 746 C 68.9026 1.308 -1.94752 0
M  V30 747 C 69.9186 1.51826 -0.849989 0
M  V30 748 O 71.0946 1.6515 -1.15271 0
M  V30 749 C 68.1596 2.63968 -2.24771 0
M  V30 750 C 67.2206 2.51331 -3.48039 0
M  V30 751 C 66.4536 3.78148 -3.76616 0
M  V30 752 O 66.6766 4.80722 -3.07022 0
M  V30 753 O 65.6106 3.75857 -4.70123 0
M  V30 754 H 69.4366 1.0083 -2.86474 0
M  V30 755 H 67.0216 0.433547 -1.42971 0
M  V30 756 H 68.9036 3.42633 -2.45318 0
M  V30 757 H 67.5786 2.9364 -1.36225 0
M  V30 758 H 66.4856 1.709 -3.32782 0
M  V30 759 H 67.8186 2.26601 -4.36936 0
M  V30 760 N 69.4707 1.49531 0.497807 0
M  V30 761 C 70.7007 1.62657 1.27382 0
M  V30 762 C 71.1087 0.298488 1.86831 0
M  V30 763 O 70.4517 -0.72647 1.68725 0
M  V30 764 C 70.5137 2.6393 2.44093 0
M  V30 765 C 70.1777 4.08195 2.05489 0
M  V30 766 C 71.1747 4.949 1.59279 0
M  V30 767 C 68.8597 4.53948 2.15026 0
M  V30 768 C 70.8537 6.25397 1.23113 0
M  V30 769 C 68.5407 5.84458 1.78473 0
M  V30 770 C 69.5387 6.70006 1.32591 0
M  V30 771 O 69.2267 7.98083 0.965327 0
M  V30 772 H 68.9587 0.550429 0.392434 0
M  V30 773 H 71.5127 1.96325 0.603801 0
M  V30 774 H 69.7427 2.25449 3.14181 0
M  V30 775 H 71.4317 2.66552 3.06113 0
M  V30 776 H 72.1977 4.60779 1.51354 0
M  V30 777 H 68.0767 3.87525 2.4969 0
M  V30 778 H 71.6207 6.92125 0.872299 0
M  V30 779 H 67.5177 6.18107 1.86048 0
M  V30 780 H 68.2857 8.11122 1.09652 0
M  V30 781 N 70.9488 -0.749086 1.3866 0
M  V30 782 C 71.8788 -1.8764 1.38973 0
M  V30 783 C 72.8598 -1.68178 0.255004 0
M  V30 784 O 74.0448 -1.88704 0.458754 0
M  V30 785 C 71.1748 -3.25222 1.21851 0
M  V30 786 C 70.1288 -3.59295 2.32575 0
M  V30 787 C 69.4548 -4.95663 2.00555 0
M  V30 788 C 70.7548 -3.63709 3.7485 0
M  V30 789 H 72.4488 -1.87635 2.3331 0
M  V30 790 H 69.9948 -0.901329 1.12303 0
M  V30 791 H 71.9478 -4.03746 1.20695 0
M  V30 792 H 70.6718 -3.25719 0.239775 0
M  V30 793 H 69.3308 -2.83093 2.32925 0
M  V30 794 H 68.9788 -4.92724 1.01154 0
M  V30 795 H 68.6788 -5.19429 2.74714 0
M  V30 796 H 70.2028 -5.7656 2.01024 0
M  V30 797 H 71.6168 -4.32338 3.76506 0
M  V30 798 H 70.0138 -3.98986 4.48252 0
M  V30 799 H 71.0838 -2.63834 4.06841 0
M  V30 800 N 72.4269 -1.23603 -0.977757 0
M  V30 801 C 73.6569 -1.09487 -1.75203 0
M  V30 802 C 74.0649 0.356321 -1.85814 0
M  V30 803 O 73.4079 1.25816 -1.33851 0
M  V30 804 C 73.4699 -1.64905 -3.19447 0
M  V30 805 C 73.1339 -3.13688 -3.32338 0
M  V30 806 C 74.1309 -4.10953 -3.18455 0
M  V30 807 C 71.8159 -3.53449 -3.56902 0
M  V30 808 C 73.8099 -5.45962 -3.28944 0
M  V30 809 C 71.4969 -4.88602 -3.6703 0
M  V30 810 C 72.4949 -5.84668 -3.53062 0
M  V30 811 O 72.1829 -7.17365 -3.62826 0
M  V30 812 H 71.9149 -0.38367 -0.556573 0
M  V30 813 H 74.4689 -1.6398 -1.23693 0
M  V30 814 H 72.6989 -1.04835 -3.72218 0
M  V30 815 H 74.3879 -1.46226 -3.78646 0
M  V30 816 H 75.1539 -3.81577 -2.99372 0
M  V30 817 H 71.0329 -2.79188 -3.66844 0
M  V30 818 H 74.5769 -6.20925 -3.17958 0
M  V30 819 H 70.4739 -5.17653 -3.85623 0
M  V30 820 H 71.2419 -7.2515 -3.79605 0
M  V30 821 N 73.905 1.17692 -1.04816 0
M  V30 822 C 75.321 1.39863 -0.768794 0
M  V30 823 C 75.521 1.91118 0.638451 0
M  V30 824 O 74.577 2.10036 1.40146 0
M  V30 825 C 75.89 2.39274 -1.82122 0
M  V30 826 C 77.438 2.52987 -1.843 0
M  V30 827 C 77.913 3.55669 -2.88555 0
M  V30 828 N 79.404 3.63183 -2.87493 0
M  V30 829 C 80.139 4.42381 -3.64811 0
M  V30 830 N 79.635 5.25125 -4.51903 0
M  V30 831 N 81.428 4.37217 -3.53267 0
M  V30 832 H 73.579 0.82752 -1.95617 0
M  V30 833 H 75.842 0.426123 -0.846831 0
M  V30 834 H 75.548 2.08678 -2.83102 0
M  V30 835 H 75.422 3.38725 -1.65967 0
M  V30 836 H 77.809 2.82896 -0.839869 0
M  V30 837 H 77.89 1.53623 -2.04532 0
M  V30 838 H 77.534 3.26499 -3.89051 0
M  V30 839 H 77.464 4.54728 -2.65575 0
M  V30 840 H 79.955 3.04103 -2.24343 0
M  V30 841 H 80.268 5.82728 -5.07591 0
M  V30 842 H 78.613 5.24519 -4.55966 0
M  V30 843 H 81.804 3.71626 -2.84625 0
M  V30 844 H 81.977 4.98696 -4.13771 0
M  V30 845 N 75.3831 0.828654 1.34056 0
M  V30 846 C 76.6131 0.431993 2.02033 0
M  V30 847 C 77.0211 -0.96844 1.62536 0
M  V30 848 O 76.3641 -1.6391 0.829408 0
M  V30 849 C 76.4261 0.461224 3.56529 0
M  V30 850 C 76.0901 1.81599 4.1937 0
M  V30 851 C 77.0871 2.7777 4.39477 0
M  V30 852 C 74.7721 2.10604 4.56017 0
M  V30 853 C 76.7661 4.01115 4.95364 0
M  V30 854 C 74.4531 3.34207 5.11614 0
M  V30 855 C 75.4511 4.2928 5.31232 0
M  V30 856 O 75.1391 5.50699 5.8565 0
M  V30 857 H 74.8711 0.170943 0.654029 0
M  V30 858 H 77.4251 1.11988 1.72185 0
M  V30 859 H 75.6551 -0.283388 3.8566 0
M  V30 860 H 77.3441 0.0838149 4.05813 0
M  V30 861 H 78.1101 2.56659 4.11523 0
M  V30 862 H 73.9891 1.37402 4.40047 0
M  V30 863 H 77.5331 4.75333 5.10592 0
M  V30 864 H 73.4301 3.55179 5.38997 0
M  V30 865 H 74.1981 5.52298 6.04077 0
M  V30 866 N 76.8612 -1.46375 0.584142 0
M  V30 867 C 78.1092 -2.01978 0.0701287 0
M  V30 868 C 78.4302 -1.4579 -1.295 0
M  V30 869 O 77.7002 -0.64314 -1.85042 0
M  V30 870 H 76.2802 -0.746648 0.0229345 0
M  V30 871 H 78.9422 -1.79461 0.760245 0
M  V30 872 H 78.0382 -3.121 0.0022064 0
M  V30 873 N 78.3393 -0.321999 -1.54275 0
M  V30 874 C 79.5693 0.282642 -2.04658 0
M  V30 875 C 79.9773 1.46453 -1.19784 0
M  V30 876 O 79.3203 1.82367 -0.220932 0
M  V30 877 C 79.3823 0.781857 -3.50895 0
M  V30 878 C 79.0463 -0.277517 -4.56157 0
M  V30 879 C 80.0433 -1.11307 -5.07845 0
M  V30 880 C 77.7283 -0.425256 -5.00497 0
M  V30 881 C 79.7223 -2.08211 -6.02434 0
M  V30 882 C 77.4093 -1.39771 -5.94901 0
M  V30 883 C 78.4073 -2.2246 -6.45756 0
M  V30 884 O 78.0953 -3.18054 -7.38307 0
M  V30 885 H 77.8273 0.0622636 -0.673126 0
M  V30 886 H 80.3813 -0.465792 -2.00049 0
M  V30 887 H 78.6113 1.58118 -3.52896 0
M  V30 888 H 80.3003 1.30467 -3.84361 0
M  V30 889 H 81.0663 -1.00991 -4.74369 0
M  V30 890 H 76.9453 0.20847 -4.60528 0
M  V30 891 H 80.4893 -2.72791 -6.42052 0
M  V30 892 H 76.3863 -1.50152 -6.27794 0
M  V30 893 H 77.1543 -3.13275 -7.56175 0
M  V30 894 N 79.8174 1.5752 -0.0501392 0
M  V30 895 C 81.0454 1.96963 0.633492 0
M  V30 896 C 81.4604 0.927631 1.6444 0
M  V30 897 O 80.8174 -0.0882665 1.82286 0
M  V30 898 C 80.8684 3.36487 1.32132 0
M  V30 899 O 80.5894 4.36693 0.350894 0
M  V30 900 C 82.0904 3.90682 2.09481 0
M  V30 901 H 79.3104 0.648244 0.173266 0
M  V30 902 H 81.8544 2.0417 -0.116134 0
M  V30 903 H 80.0094 3.30434 2.02218 0
M  V30 904 H 80.4234 5.17702 0.841735 0
M  V30 905 H 81.8974 4.90591 2.5303 0
M  V30 906 H 82.3744 3.26053 2.94255 0
M  V30 907 H 82.9804 4.00069 1.44307 0
M  V30 908 N 81.2955 -0.223234 1.56011 0
M  V30 909 C 82.7115 -0.572856 1.48965 0
M  V30 910 C 82.9115 -1.87225 0.74492 0
M  V30 911 O 81.9675 -2.50899 0.283896 0
M  V30 912 C 83.2805 -0.653646 2.9351 0
M  V30 913 C 84.8285 -0.744386 3.0402 0
M  V30 914 C 85.3035 -0.856535 4.49919 0
M  V30 915 N 86.7945 -0.9208 4.53955 0
M  V30 916 C 87.5295 -1.02726 5.64123 0
M  V30 917 N 87.0255 -1.09777 6.84047 0
M  V30 918 N 88.8185 -1.06226 5.51971 0
M  V30 919 H 80.9695 0.629462 2.02858 0
M  V30 920 H 83.2325 0.220621 0.921971 0
M  V30 921 H 82.9385 0.231518 3.50937 0
M  V30 922 H 82.8125 -1.51781 3.45315 0
M  V30 923 H 85.1995 -1.61999 2.46658 0
M  V30 924 H 85.2805 0.14541 2.55386 0
M  V30 925 H 84.9245 0.0146069 5.07898 0
M  V30 926 H 84.8545 -1.76172 4.96257 0
M  V30 927 H 87.3455 -0.876694 3.6759 0
M  V30 928 H 87.6585 -1.17872 7.63758 0
M  V30 929 H 86.0035 -1.06693 6.86762 0
M  V30 930 H 89.1945 -1.00382 4.5721 0
M  V30 931 H 89.3675 -1.14177 6.37862 0
M  V30 932 N 82.7736 -1.49793 -0.48987 0
M  V30 933 C 84.0196 -1.60078 -1.24511 0
M  V30 934 C 84.3526 -0.291608 -1.91998 0
M  V30 935 O 83.6276 0.705647 -1.81248 0
M  V30 936 C 83.9106 -2.76791 -2.30345 0
M  V30 937 C 83.7636 -4.17535 -1.67286 0
M  V30 938 C 85.0826 -2.89111 -3.31817 0
M  V30 939 H 82.2016 -0.582645 -0.451324 0
M  V30 940 H 84.8436 -1.82117 -0.541612 0
M  V30 941 H 82.9936 -2.5813 -2.90346 0
M  V30 942 H 84.6656 -4.4774 -1.11026 0
M  V30 943 H 82.9086 -4.22665 -0.976577 0
M  V30 944 H 83.5796 -4.95094 -2.44103 0
M  V30 945 H 86.0556 -3.06133 -2.81819 0
M  V30 946 H 84.9316 -3.72433 -4.03219 0
M  V30 947 H 85.1926 -1.9893 -3.94815 0
M  V30 948 N 84.2517 0.741722 -1.39055 0
M  V30 949 C 85.2147 1.83733 -1.37021 0
M  V30 950 C 86.2147 1.58542 -0.268534 0
M  V30 951 O 87.4047 1.66067 -0.526076 0
M  V30 952 C 84.5367 3.2141 -1.13617 0
M  V30 953 H 85.7297 1.86941 -2.34506 0
M  V30 954 H 83.2827 0.944676 -1.24521 0
M  V30 955 H 84.0177 3.23865 -0.167863 0
M  V30 956 H 83.8027 3.4109 -1.93391 0
M  V30 957 H 85.2927 4.01477 -1.14918 0
M  V30 958 N 85.7298 1.2412 0.971189 0
M  V30 959 C 86.6398 1.04747 2.09917 0
M  V30 960 C 87.6558 -0.0107162 1.73997 0
M  V30 961 O 88.8318 0.186714 2.00533 0
M  V30 962 C 85.8968 0.650828 3.40537 0
M  V30 963 C 84.9578 1.7851 3.90426 0
M  V30 964 C 84.1908 1.40729 5.14812 0
M  V30 965 O 84.4138 0.29557 5.69634 0
M  V30 966 O 83.3478 2.23168 5.58999 0
M  V30 967 H 87.1738 1.99304 2.29154 0
M  V30 968 H 84.7588 1.02908 1.08307 0
M  V30 969 H 86.6408 0.440992 4.19086 0
M  V30 970 H 85.3158 -0.265649 3.22608 0
M  V30 971 H 84.2228 2.04966 3.12953 0
M  V30 972 H 85.5558 2.68023 4.12825 0
M  V30 973 N 87.2079 -1.17134 1.05439 0
M  V30 974 C 88.1409 -2.2012 0.601855 0
M  V30 975 C 89.1189 -1.58314 -0.370854 0
M  V30 976 O 90.3029 -1.8638 -0.281882 0
M  V30 977 C 87.4299 -3.38491 -0.118868 0
M  V30 978 C 86.4759 -4.18752 0.809242 0
M  V30 979 S 87.3089 -4.83602 2.29977 0
M  V30 980 C 88.4649 -6.0536 1.59029 0
M  V30 981 H 88.6979 -2.58165 1.47438 0
M  V30 982 H 86.2309 -1.27788 0.866573 0
M  V30 983 H 88.1889 -4.07084 -0.528495 0
M  V30 984 H 86.8499 -2.98829 -0.967465 0
M  V30 985 H 86.0429 -5.03373 0.251379 0
M  V30 986 H 85.6449 -3.5561 1.15835 0
M  V30 987 H 87.9369 -6.71615 0.891017 0
M  V30 988 H 88.8799 -6.65679 2.41407 0
M  V30 989 H 89.2879 -5.54138 1.07663 0
M  V30 990 N 88.686 -0.835752 -1.33615 0
M  V30 991 C 90.102 -0.523139 -1.50783 0
M  V30 992 C 90.302 0.950171 -1.77691 0
M  V30 993 O 89.358 1.73411 -1.83534 0
M  V30 994 C 90.671 -1.39378 -2.66448 0
M  V30 995 C 92.219 -1.39223 -2.80332 0
M  V30 996 C 92.694 -2.24765 -3.99055 0
M  V30 997 N 94.185 -2.22458 -4.06284 0
M  V30 998 C 94.92 -2.85386 -4.97336 0
M  V30 999 N 94.416 -3.57354 -5.93523 0
M  V30 1000 N 96.209 -2.74872 -4.90308 0
M  V30 1001 H 88.36 -1.78952 -1.14411 0
M  V30 1002 H 90.623 -0.763297 -0.562212 0
M  V30 1003 H 90.329 -2.44061 -2.53234 0
M  V30 1004 H 90.203 -1.0676 -3.61776 0
M  V30 1005 H 92.59 -0.353136 -2.92979 0
M  V30 1006 H 92.671 -1.75846 -1.85773 0
M  V30 1007 H 92.315 -3.28732 -3.87167 0
M  V30 1008 H 92.245 -1.85485 -4.92852 0
M  V30 1009 H 94.736 -1.70119 -3.37443 0
M  V30 1010 H 95.049 -4.02584 -6.59656 0
M  V30 1011 H 93.394 -3.61461 -5.93608 0
M  V30 1012 H 96.585 -2.18213 -4.14126 0
M  V30 1013 H 96.758 -3.24199 -5.61069 0
M  V30 1014 N 90.1641 1.46063 -0.591896 0
M  V30 1015 C 91.4121 2.01938 -0.0808391 0
M  V30 1016 C 91.7331 1.46475 1.28725 0
M  V30 1017 O 91.0031 0.652944 1.84698 0
M  V30 1018 H 89.5831 0.746516 -0.0268938 0
M  V30 1019 H 92.2451 1.79055 -0.769752 0
M  V30 1020 H 91.3411 3.12094 -0.0187578 0
M  V30 1021 N 91.6422 0.330177 1.54103 0
M  V30 1022 C 92.5522 -0.541534 2.28264 0
M  V30 1023 C 93.5682 -1.12351 1.32866 0
M  V30 1024 O 94.7442 -1.14206 1.65888 0
M  V30 1025 C 91.8092 -1.68322 3.03098 0
M  V30 1026 C 90.8702 -1.13238 4.14096 0
M  V30 1027 C 90.1032 -2.21966 4.85352 0
M  V30 1028 O 90.3262 -3.42437 4.56172 0
M  V30 1029 O 89.2602 -1.87013 5.7211 0
M  V30 1030 H 93.0862 0.060938 3.03639 0
M  V30 1031 H 90.6712 0.09565 1.49093 0
M  V30 1032 H 92.5532 -2.34777 3.49939 0
M  V30 1033 H 91.2282 -2.27176 2.30593 0
M  V30 1034 H 90.1352 -0.432736 3.71589 0
M  V30 1035 H 91.4682 -0.588898 4.88664 0
M  V30 1036 N 93.1203 -1.57491 0.0584922 0
M  V30 1037 C 94.3453 -1.97711 -0.62652 0
M  V30 1038 C 94.7703 -0.936132 -1.63151 0
M  V30 1039 O 94.1283 0.099811 -1.81025 0
M  V30 1040 C 94.1763 -3.36989 -1.28338 0
M  V30 1041 O 93.2803 -3.35433 -2.39913 0
M  V30 1042 H 92.6213 -0.643868 -0.162266 0
M  V30 1043 H 95.1513 -2.04193 0.129064 0
M  V30 1044 H 95.1613 -3.73879 -1.63335 0
M  V30 1045 H 93.8363 -4.12289 -0.546889 0
M  V30 1046 H 92.4133 -3.10298 -2.06809 0
M  V30 1047 N 94.5984 0.214957 -1.56127 0
M  V30 1048 C 95.5454 1.26642 -1.92952 0
M  V30 1049 C 96.5154 1.46244 -0.78753 0
M  V30 1050 O 97.7004 1.59704 -1.04399 0
M  V30 1051 C 94.8404 2.6104 -2.25726 0
M  V30 1052 C 93.9534 2.49183 -3.52891 0
M  V30 1053 C 93.0884 3.76149 -3.7508 0
M  V30 1054 C 92.1274 3.59041 -4.95738 0
M  V30 1055 N 91.2644 4.77972 -5.14283 0
M  V30 1056 H 96.1044 0.945384 -2.82607 0
M  V30 1057 H 93.6414 0.455489 -1.3987 0
M  V30 1058 H 95.5994 3.39313 -2.42739 0
M  V30 1059 H 94.2294 2.91227 -1.39236 0
M  V30 1060 H 93.2814 1.6231 -3.44034 0
M  V30 1061 H 94.5934 2.32466 -4.41318 0
M  V30 1062 H 93.7474 4.62865 -3.92226 0
M  V30 1063 H 92.4864 3.95799 -2.84947 0
M  V30 1064 H 91.4914 2.7071 -4.78535 0
M  V30 1065 H 92.7164 3.40856 -5.87362 0
M  V30 1066 H 90.6624 4.97923 -4.27093 0
M  V30 1067 H 90.5794 4.64006 -5.96853 0
M  V30 1068 H 91.8474 5.66096 -5.35869 0
M  V30 1069 N 96.0765 1.50051 0.48192 0
M  V30 1070 C 97.3015 1.64508 1.26301 0
M  V30 1071 C 97.7265 0.323851 1.85291 0
M  V30 1072 O 97.0845 -0.710969 1.66778 0
M  V30 1073 C 97.1325 2.7305 2.35533 0
M  V30 1074 O 96.2365 2.3355 3.39895 0
M  V30 1075 H 95.5775 0.549978 0.372048 0
M  V30 1076 H 98.1075 1.9636 0.574786 0
M  V30 1077 H 98.1175 2.95799 2.8101 0
M  V30 1078 H 96.7925 3.68946 1.91967 0
M  V30 1079 H 95.3695 2.21205 3.00204 0
M  V30 1080 N 97.5546 -0.734337 1.39446 0
M  V30 1081 C 98.4846 -1.86155 1.40955 0
M  V30 1082 C 99.4656 -1.67898 0.272827 0
M  V30 1083 O 100.651 -1.88207 0.478743 0
M  V30 1084 C 97.7806 -3.23912 1.25294 0
M  V30 1085 C 96.7346 -3.56808 2.36373 0
M  V30 1086 C 96.0606 -4.93508 2.058 0
M  V30 1087 C 97.3606 -3.59713 3.78687 0
M  V30 1088 H 99.0546 -1.8515 2.35287 0
M  V30 1089 H 96.6006 -0.889367 1.13253 0
M  V30 1090 H 98.5536 -4.02443 1.2497 0
M  V30 1091 H 97.2776 -3.25446 0.274308 0
M  V30 1092 H 95.9366 -2.80606 2.35914 0
M  V30 1093 H 95.5846 -4.91623 1.06374 0
M  V30 1094 H 95.2846 -5.16486 2.80208 0
M  V30 1095 H 96.8086 -5.74396 2.07128 0
M  V30 1096 H 98.2226 -4.2832 3.81071 0
M  V30 1097 H 96.6196 -3.94209 4.52459 0
M  V30 1098 H 97.6896 -2.59504 4.09617 0
M  V30 1099 N 99.0327 -1.24633 -0.964593 0
M  V30 1100 C 100.281 -1.08573 -1.70459 0
M  V30 1101 C 100.602 0.375655 -1.91347 0
M  V30 1102 O 99.8717 1.26779 -1.49345 0
M  V30 1103 H 98.4517 -0.398784 -0.631649 0
M  V30 1104 H 101.114 -1.56601 -1.16026 0
M  V30 1105 H 100.21 -1.58623 -2.68785 0
M  V30 1106 N 100.511 1.16574 -1.06058 0
M  V30 1107 C 101.922 1.68662 -0.800632 0
M  V30 1108 C 102.273 1.84184 0.67608 0
M  V30 1109 O 101.398 1.53568 1.52466 0
M  V30 1110 C 101.993 3.06356 -1.44676 0
M  V30 1111 C 100.552 3.55575 -1.23465 0
M  V30 1112 C 99.6988 2.31616 -1.52477 0
M  V30 1113 H 102.65 1.00969 -1.22438 0
M  V30 1114 H 102.671 3.70636 -0.860788 0
M  V30 1115 H 102.183 2.95027 -2.52152 0
M  V30 1116 H 100.284 3.72167 -0.179527 0
M  V30 1117 H 100.397 4.37812 -1.94571 0
M  V30 1118 H 98.7608 2.36512 -0.945209 0
M  V30 1119 H 99.5438 2.22887 -2.61106 0
M  V30 1120 N 101.989 0.842826 1.3317 0
M  V30 1121 C 102.952 0.284065 2.27433 0
M  V30 1122 C 103.952 -0.54948 1.5112 0
M  V30 1123 O 105.142 -0.362699 1.70382 0
M  V30 1124 C 102.274 -0.599384 3.35589 0
M  V30 1125 H 103.467 1.11589 2.78366 0
M  V30 1126 H 101.02 0.616221 1.4364 0
M  V30 1127 H 101.755 -1.45349 2.89904 0
M  V30 1128 H 101.54 -0.00291266 3.921 0
M  V30 1129 H 103.03 -0.983488 4.05854 0
M  V30 1130 N 103.467 -1.45747 0.599634 0
M  V30 1131 C 104.397 -2.33235 -0.111306 0
M  V30 1132 C 105.378 -1.46359 -0.866781 0
M  V30 1133 O 106.563 -1.75146 -0.838904 0
M  V30 1134 C 103.693 -3.28932 -1.11451 0
M  V30 1135 C 102.647 -4.25381 -0.472772 0
M  V30 1136 C 101.973 -5.1071 -1.58365 0
M  V30 1137 C 103.273 -5.18831 0.600948 0
M  V30 1138 H 104.967 -2.92927 0.61919 0
M  V30 1139 H 102.513 -1.40857 0.299215 0
M  V30 1140 H 104.466 -3.89002 -1.62036 0
M  V30 1141 H 103.19 -2.67381 -1.8755 0
M  V30 1142 H 101.849 -3.66598 0.0121472 0
M  V30 1143 H 101.497 -4.45533 -2.33473 0
M  V30 1144 H 101.197 -5.7604 -1.15982 0
M  V30 1145 H 102.721 -5.73647 -2.09194 0
M  V30 1146 H 104.135 -5.73019 0.179491 0
M  V30 1147 H 102.532 -5.92595 0.946076 0
M  V30 1148 H 103.602 -4.6174 1.48068 0
M  V30 1149 N 104.945 -0.338344 -1.53925 0
M  V30 1150 C 105.875 0.51328 -2.27789 0
M  V30 1151 C 106.856 1.107 -1.29149 0
M  V30 1152 O 108.041 1.12937 -1.57984 0
M  V30 1153 C 105.171 1.66697 -3.04679 0
M  V30 1154 C 104.125 1.20183 -4.1078 0
M  V30 1155 C 103.451 2.44363 -4.75595 0
M  V30 1156 C 104.751 0.30605 -5.21403 0
M  V30 1157 H 106.445 -0.102883 -2.99223 0
M  V30 1158 H 103.991 -0.0509219 -1.4391 0
M  V30 1159 H 105.944 2.26915 -3.55088 0
M  V30 1160 H 104.668 2.30995 -2.30887 0
M  V30 1161 H 103.327 0.622499 -3.61276 0
M  V30 1162 H 102.975 3.07057 -3.98403 0
M  V30 1163 H 102.675 2.13925 -5.47275 0
M  V30 1164 H 104.199 3.05317 -5.28786 0
M  V30 1165 H 105.613 0.814929 -5.67478 0
M  V30 1166 H 104.01 0.0937929 -6.00027 0
M  V30 1167 H 105.08 -0.65921 -4.80398 0
M  V30 1168 N 106.423 1.57458 -0.0668435 0
M  V30 1169 C 107.353 2.15468 0.899764 0
M  V30 1170 C 108.334 1.08042 1.31381 0
M  V30 1171 O 109.519 1.36054 1.38574 0
M  V30 1172 C 106.649 2.71232 2.16911 0
M  V30 1173 C 105.603 3.83781 1.89463 0
M  V30 1174 C 104.929 4.26127 3.22986 0
M  V30 1175 C 106.229 5.08238 1.20381 0
M  V30 1176 H 107.923 2.96488 0.416529 0
M  V30 1177 H 105.469 1.4262 0.198908 0
M  V30 1178 H 107.422 3.10458 2.84945 0
M  V30 1179 H 106.146 1.87426 2.67468 0
M  V30 1180 H 104.805 3.45051 1.23836 0
M  V30 1181 H 104.453 3.39249 3.71374 0
M  V30 1182 H 104.153 5.01993 3.05413 0
M  V30 1183 H 105.677 4.67966 3.92225 0
M  V30 1184 H 107.091 5.44811 1.78475 0
M  V30 1185 H 105.488 5.89349 1.13083 0
M  V30 1186 H 106.558 4.84558 0.182153 0
M  V30 1187 N 107.901 -0.206675 1.56239 0
M  V30 1188 C 108.831 -1.25909 1.96645 0
M  V30 1189 C 109.812 -1.48097 0.836734 0
M  V30 1190 O 110.997 -1.6003 1.10019 0
M  V30 1191 C 108.127 -2.6058 2.29599 0
M  V30 1192 C 107.081 -2.53024 3.452 0
M  V30 1193 C 106.407 -3.91861 3.63798 0
M  V30 1194 C 107.707 -2.06524 4.79734 0
M  V30 1195 H 109.401 -0.923369 2.84806 0
M  V30 1196 H 106.947 -0.442735 1.37025 0
M  V30 1197 H 108.9 -3.34375 2.56459 0
M  V30 1198 H 107.624 -2.95869 1.38307 0
M  V30 1199 H 106.283 -1.81684 3.18412 0
M  V30 1200 H 105.931 -4.24483 2.69857 0
M  V30 1201 H 105.631 -3.87683 4.4156 0
M  V30 1202 H 107.155 -4.67296 3.93022 0
M  V30 1203 H 108.569 -2.70072 5.05702 0
M  V30 1204 H 106.966 -2.13374 5.60885 0
M  V30 1205 H 108.036 -1.01802 4.74093 0
M  V30 1206 N 109.379 -1.50304 -0.473955 0
M  V30 1207 C 110.311 -1.65109 -1.58971 0
M  V30 1208 C 111.324 -0.532676 -1.53839 0
M  V30 1209 O 112.513 -0.805751 -1.59279 0
M  V30 1210 C 109.613 -1.61684 -2.97845 0
M  V30 1211 C 108.786 -2.8951 -3.27876 0
M  V30 1212 C 107.845 -2.78768 -4.4629 0
M  V30 1213 O 106.871 -3.52722 -4.46739 0
M  V30 1214 N 108.073 -1.9213 -5.47783 0
M  V30 1215 H 110.838 -2.61347 -1.46689 0
M  V30 1216 H 108.399 -1.47732 -0.662324 0
M  V30 1217 H 110.391 -1.52114 -3.75024 0
M  V30 1218 H 108.961 -0.731925 -3.03911 0
M  V30 1219 H 108.181 -3.13228 -2.39336 0
M  V30 1220 H 109.469 -3.74199 -3.4475 0
M  V30 1221 H 108.867 -1.31353 -5.50239 0
M  V30 1222 H 107.424 -1.88466 -6.23958 0
M  V30 1223 N 110.857 0.726932 -1.39834 0
M  V30 1224 C 111.804 1.841 -1.39197 0
M  V30 1225 C 112.774 1.642 -0.250502 0
M  V30 1226 O 113.959 1.85494 -0.446846 0
M  V30 1227 C 111.099 3.21697 -1.24919 0
M  V30 1228 C 110.212 3.53247 -2.48678 0
M  V30 1229 C 109.347 4.80289 -2.26928 0
M  V30 1230 C 108.386 5.04707 -3.4632 0
M  V30 1231 N 107.523 6.22956 -3.23836 0
M  V30 1232 H 112.363 1.83979 -2.34427 0
M  V30 1233 H 109.9 0.898876 -1.16442 0
M  V30 1234 H 111.858 4.01137 -1.1465 0
M  V30 1235 H 110.488 3.21076 -0.333153 0
M  V30 1236 H 109.54 2.68447 -2.69519 0
M  V30 1237 H 110.852 3.67205 -3.37582 0
M  V30 1238 H 110.006 5.67725 -2.13947 0
M  V30 1239 H 108.745 4.68519 -1.35431 0
M  V30 1240 H 107.75 4.1573 -3.5979 0
M  V30 1241 H 108.975 5.18357 -4.38729 0
M  V30 1242 H 106.921 6.12459 -2.35011 0
M  V30 1243 H 106.838 6.37539 -4.063 0
M  V30 1244 H 108.106 7.1321 -3.14566 0
M  V30 1245 N 112.336 1.25143 0.95797 0
M  V30 1246 C 113.268 1.01023 2.05735 0
M  V30 1247 C 114.281 -0.0236902 1.62783 0
M  V30 1248 O 115.47 0.21448 1.77207 0
M  V30 1249 C 112.57 0.504595 3.35122 0
M  V30 1250 C 111.743 1.6039 4.06932 0
M  V30 1251 C 110.802 1.09922 5.14591 0
M  V30 1252 O 109.828 1.79293 5.40225 0
M  V30 1253 N 111.03 -0.0612545 5.80468 0
M  V30 1254 H 113.795 1.95683 2.26998 0
M  V30 1255 H 111.356 1.16303 1.12629 0
M  V30 1256 H 113.348 0.151516 4.04416 0
M  V30 1257 H 111.918 -0.347989 3.10657 0
M  V30 1258 H 111.138 2.12872 3.31782 0
M  V30 1259 H 112.426 2.34252 4.51667 0
M  V30 1260 H 111.824 -0.640985 5.62057 0
M  V30 1261 H 110.381 -0.355395 6.5083 0
M  V30 1262 N 113.814 -1.1601 1.06675 0
M  V30 1263 C 114.744 -2.22688 0.702307 0
M  V30 1264 C 115.725 -1.67306 -0.307032 0
M  V30 1265 O 116.91 -1.93352 -0.181305 0
M  V30 1266 C 114.04 -3.47178 0.092038 0
M  V30 1267 C 112.994 -4.15477 1.02777 0
M  V30 1268 C 112.32 -5.33963 0.28061 0
M  V30 1269 C 113.62 -4.66019 2.35846 0
M  V30 1270 H 115.314 -2.53429 1.59419 0
M  V30 1271 H 112.86 -1.21813 0.767961 0
M  V30 1272 H 114.813 -4.21037 -0.174814 0
M  V30 1273 H 113.537 -3.15749 -0.834877 0
M  V30 1274 H 112.196 -3.43549 1.27944 0
M  V30 1275 H 111.844 -4.98788 -0.649545 0
M  V30 1276 H 111.544 -5.806 0.904258 0
M  V30 1277 H 113.068 -6.10596 0.021396 0
M  V30 1278 H 114.482 -5.3144 2.15045 0
M  V30 1279 H 112.879 -5.23293 2.93743 0
M  V30 1280 H 113.949 -3.82023 2.98641 0
M  V30 1281 N 115.292 -0.849877 -1.32721 0
M  V30 1282 C 116.517 -0.463856 -2.02146 0
M  V30 1283 C 116.942 0.930449 -1.63476 0
M  V30 1284 O 116.3 1.61033 -0.832952 0
M  V30 1285 C 116.348 -0.604955 -3.55489 0
M  V30 1286 O 115.452 0.36425 -4.10788 0
M  V30 1287 H 114.793 -0.187046 -0.637111 0
M  V30 1288 H 117.323 -1.14775 -1.69375 0
M  V30 1289 H 117.333 -0.490696 -4.05038 0
M  V30 1290 H 116.008 -1.62174 -3.82978 0
M  V30 1291 H 114.585 0.206628 -3.72327 0
M  V30 1292 N 116.77 1.45427 -0.607355 0
M  V30 1293 C 117.7 2.3329 0.0989352 0
M  V30 1294 C 118.681 1.46816 0.859007 0
M  V30 1295 O 119.866 1.75588 0.829604 0
M  V30 1296 C 116.996 3.29518 1.09705 0
M  V30 1297 C 115.95 4.25626 0.450206 0
M  V30 1298 C 115.276 5.11542 1.55655 0
M  V30 1299 C 116.576 5.18505 -0.628455 0
M  V30 1300 H 118.27 2.92595 -0.634716 0
M  V30 1301 H 115.816 1.40696 -0.306681 0
M  V30 1302 H 117.769 3.89855 1.59971 0
M  V30 1303 H 116.493 2.68372 1.86129 0
M  V30 1304 H 115.152 3.66586 -0.0315886 0
M  V30 1305 H 114.8 4.46765 2.31107 0
M  V30 1306 H 114.5 5.76647 1.12925 0
M  V30 1307 H 116.024 5.74748 2.06148 0
M  V30 1308 H 117.438 5.72916 -0.209877 0
M  V30 1309 H 115.835 5.92085 -0.977489 0
M  V30 1310 H 116.905 4.60948 -1.50514 0
M  V30 1311 N 118.248 0.346503 1.53744 0
M  V30 1312 C 119.659 -0.136779 1.86198 0
M  V30 1313 C 120.01 -1.49749 1.26766 0
M  V30 1314 O 119.135 -2.08417 0.582355 0
M  V30 1315 C 119.73 -0.254966 3.37839 0
M  V30 1316 C 118.289 -0.682482 3.70161 0
M  V30 1317 C 117.436 0.181981 2.76702 0
M  V30 1318 H 120.387 0.565994 1.48264 0
M  V30 1319 H 120.408 -1.08195 3.64793 0
M  V30 1320 H 119.92 0.735526 3.81066 0
M  V30 1321 H 118.021 -1.68189 3.3248 0
M  V30 1322 H 118.134 -0.470326 4.76786 0
M  V30 1323 H 116.498 -0.34615 2.52337 0
M  V30 1324 H 117.281 1.16966 3.2276 0
M  V30 1325 N 119.726 -1.57421 0.075193 0
M  V30 1326 C 120.636 -2.1642 -0.905511 0
M  V30 1327 C 121.652 -1.12828 -1.32461 0
M  V30 1328 O 122.828 -1.45109 -1.39661 0
M  V30 1329 C 119.893 -2.71693 -2.15369 0
M  V30 1330 C 118.954 -3.90171 -1.79068 0
M  V30 1331 C 118.187 -4.42798 -2.97936 0
M  V30 1332 O 118.41 -3.94416 -4.12058 0
M  V30 1333 O 117.344 -5.34085 -2.77555 0
M  V30 1334 H 121.17 -3.00588 -0.433626 0
M  V30 1335 H 118.755 -1.48664 -0.148067 0
M  V30 1336 H 120.637 -3.07104 -2.88557 0
M  V30 1337 H 119.312 -1.90582 -2.61649 0
M  V30 1338 H 118.219 -3.59606 -1.03122 0
M  V30 1339 H 119.552 -4.72584 -1.37569 0
M  V30 1340 N 121.204 0.198386 -1.56346 0
M  V30 1341 C 122.432 0.935572 -1.84539 0
M  V30 1342 C 122.847 1.76989 -0.657281 0
M  V30 1343 O 122.204 1.78626 0.374043 0
M  V30 1344 C 122.255 1.8344 -3.11499 0
M  V30 1345 O 121.976 1.03377 -4.25728 0
M  V30 1346 C 123.477 2.68355 -3.52846 0
M  V30 1347 H 120.697 0.273126 -0.612897 0
M  V30 1348 H 123.241 0.20663 -2.03453 0
M  V30 1349 H 121.396 2.51701 -2.94492 0
M  V30 1350 H 121.81 1.64599 -4.98003 0
M  V30 1351 H 123.284 3.27085 -4.44657 0
M  V30 1352 H 123.761 3.41901 -2.75681 0
M  V30 1353 H 124.367 2.05471 -3.72373 0
M  V30 1354 N 122.682 1.50554 0.465978 0
M  V30 1355 C 123.93 1.61479 1.21528 0
M  V30 1356 C 124.251 0.319596 1.92363 0
M  V30 1357 O 123.521 -0.663194 1.84333 0
M  V30 1358 H 122.101 0.595055 0.451573 0
M  V30 1359 H 124.763 1.87355 0.53704 0
M  V30 1360 H 123.859 2.42846 1.96042 0
M  V30 1361 N 124.16 -0.719506 1.40217 0
M  V30 1362 C 125.07 -1.86378 1.42479 0
M  V30 1363 C 126.086 -1.71073 0.317834 0
M  V30 1364 O 127.262 -1.93406 0.561794 0
M  V30 1365 C 124.327 -3.22136 1.28178 0
M  V30 1366 C 123.388 -3.49723 2.48982 0
M  V30 1367 C 122.621 -4.79004 2.35353 0
M  V30 1368 O 122.844 -5.53821 1.36524 0
M  V30 1369 O 121.778 -5.06839 3.2465 0
M  V30 1370 H 125.604 -1.87425 2.38968 0
M  V30 1371 H 123.189 -0.869405 1.21498 0
M  V30 1372 H 125.071 -4.03234 1.22395 0
M  V30 1373 H 123.746 -3.21825 0.347934 0
M  V30 1374 H 122.653 -2.6865 2.60342 0
M  V30 1375 H 123.986 -3.54828 3.41113 0
M  V30 1376 N 125.638 -1.25649 -0.95132 0
M  V30 1377 C 126.568 -1.08808 -2.06599 0
M  V30 1378 C 127.549 0.00382547 -1.701 0
M  V30 1379 O 128.734 -0.166325 -1.93486 0
M  V30 1380 C 125.864 -0.709542 -3.39975 0
M  V30 1381 C 124.818 -1.75206 -3.90496 0
M  V30 1382 C 124.144 -1.22811 -5.20405 0
M  V30 1383 C 125.444 -3.15153 -4.16504 0
M  V30 1384 H 127.138 -2.02048 -2.20946 0
M  V30 1385 H 124.684 -0.972835 -1.06169 0
M  V30 1386 H 126.637 -0.578649 -4.17408 0
M  V30 1387 H 125.361 0.258556 -3.25575 0
M  V30 1388 H 124.02 -1.87145 -3.15234 0
M  V30 1389 H 123.668 -0.250145 -5.02378 0
M  V30 1390 H 123.368 -1.92492 -5.55176 0
M  V30 1391 H 124.892 -1.10968 -6.00432 0
M  V30 1392 H 126.306 -3.06349 -4.84586 0
M  V30 1393 H 124.703 -3.82333 -4.62538 0
M  V30 1394 H 125.773 -3.61966 -3.22658 0
M  V30 1395 N 127.117 1.15442 -1.07289 0
M  V30 1396 C 128.394 1.82306 -0.708792 0
M  V30 1397 C 128.774 1.94991 0.808807 0
M  V30 1398 O 128.122 1.50085 1.72298 0
M  V30 1399 C 128.332 3.18695 -1.42247 0
M  V30 1400 C 129.68 3.94341 -1.57417 0
M  V30 1401 O 130.704 3.28247 -1.38319 0
M  V30 1402 O 129.563 5.12839 -1.88834 0
M  V30 1403 H 126.657 0.787628 -0.252132 0
M  V30 1404 H 129.203 1.22559 -1.17377 0
M  V30 1405 H 127.975 3.04557 -2.45684 0
M  V30 1406 H 127.598 3.86128 -0.948223 0
M  V30 1407 N 128.595 0.856903 1.32268 0
M  V30 1408 C 129.82 0.474569 2.01897 0
M  V30 1409 C 130.245 -0.921766 1.63967 0
M  V30 1410 O 129.603 -1.60589 0.84148 0
M  V30 1411 C 129.651 0.623799 3.55164 0
M  V30 1412 O 128.755 -0.342459 4.10976 0
M  V30 1413 H 128.096 0.190422 0.63611 0
M  V30 1414 H 130.626 1.15672 1.68764 0
M  V30 1415 H 130.636 0.512169 4.04773 0
M  V30 1416 H 129.311 1.64202 3.82113 0
M  V30 1417 H 127.888 -0.18688 3.72431 0
M  V30 1418 N 130.073 -1.45103 0.615059 0
M  V30 1419 C 131.036 -2.29025 -0.0895485 0
M  V30 1420 C 132.036 -1.40174 -0.787906 0
M  V30 1421 O 133.226 -1.62217 -0.634933 0
M  V30 1422 C 130.358 -3.21376 -1.13711 0
M  V30 1423 H 131.551 -2.92807 0.648382 0
M  V30 1424 H 129.104 -1.51749 0.374444 0
M  V30 1425 H 129.839 -2.6241 -1.90556 0
M  V30 1426 H 129.624 -3.86834 -0.640475 0
M  V30 1427 H 131.114 -3.84459 -1.63036 0
M  V30 1428 N 131.551 -0.354651 -1.53558 0
M  V30 1429 C 132.779 0.239515 -2.05509 0
M  V30 1430 C 133.194 1.4333 -1.2289 0
M  V30 1431 O 132.551 1.80538 -0.266899 0
M  V30 1432 C 132.602 0.643719 -3.55723 0
M  V30 1433 O 132.323 -0.502602 -4.35207 0
M  V30 1434 C 133.824 1.29743 -4.23889 0
M  V30 1435 H 131.044 0.0442697 -0.669538 0
M  V30 1436 H 133.588 -0.509856 -1.98042 0
M  V30 1437 H 131.743 1.34302 -3.63376 0
M  V30 1438 H 132.157 -0.178172 -5.24197 0
M  V30 1439 H 133.631 1.53091 -5.30346 0
M  V30 1440 H 134.108 2.25441 -3.76926 0
M  V30 1441 H 134.714 0.639865 -4.20459 0
M  V30 1442 N 133.029 1.57378 -0.0835403 0
M  V30 1443 C 133.959 2.1641 0.87686 0
M  V30 1444 C 134.94 1.09429 1.30228 0
M  V30 1445 O 136.125 1.37516 1.37124 0
M  V30 1446 C 133.255 2.73517 2.14022 0
M  V30 1447 C 132.209 3.85769 1.85381 0
M  V30 1448 C 131.535 4.29529 3.18448 0
M  V30 1449 C 132.835 5.09486 1.14984 0
M  V30 1450 H 134.529 2.96914 0.385059 0
M  V30 1451 H 132.075 1.42823 0.18377 0
M  V30 1452 H 134.028 3.13463 2.81636 0
M  V30 1453 H 132.752 1.90252 2.65465 0
M  V30 1454 H 131.411 3.46345 1.20169 0
M  V30 1455 H 131.059 3.43169 3.67755 0
M  V30 1456 H 130.759 5.05204 3.00071 0
M  V30 1457 H 132.283 4.72099 3.8724 0
M  V30 1458 H 133.697 5.46674 1.72687 0
M  V30 1459 H 132.094 5.90515 1.06826 0
M  V30 1460 H 133.164 4.84724 0.130749 0
M  V30 1461 N 134.507 -0.190092 1.56449 0
M  V30 1462 C 135.454 -1.23557 1.94942 0
M  V30 1463 C 136.424 -1.44972 0.810696 0
M  V30 1464 O 137.609 -1.58023 1.06927 0
M  V30 1465 C 134.749 -2.57416 2.2985 0
M  V30 1466 C 133.862 -2.43537 3.5681 0
M  V30 1467 C 132.997 -3.70134 3.81017 0
M  V30 1468 C 132.036 -3.51109 5.01387 0
M  V30 1469 N 131.173 -4.6973 5.21822 0
M  V30 1470 H 136.013 -0.900304 2.84075 0
M  V30 1471 H 133.55 -0.43318 1.40577 0
M  V30 1472 H 135.508 -3.35409 2.48106 0
M  V30 1473 H 134.138 -2.88975 1.43852 0
M  V30 1474 H 133.19 -1.56816 3.46573 0
M  V30 1475 H 134.502 -2.25415 4.4496 0
M  V30 1476 H 133.656 -4.56566 3.9954 0
M  V30 1477 H 132.395 -3.91215 2.91207 0
M  V30 1478 H 131.4 -2.63063 4.82782 0
M  V30 1479 H 132.625 -3.31468 5.9271 0
M  V30 1480 H 130.571 -4.91065 4.34961 0
M  V30 1481 H 130.488 -4.54452 6.0416 0
M  V30 1482 H 131.756 -5.57499 5.44808 0
M  V30 1483 N 135.985 -1.50799 -0.457987 0
M  V30 1484 C 136.948 -1.7005 -1.53674 0
M  V30 1485 C 137.948 -0.570881 -1.50325 0
M  V30 1486 O 139.138 -0.838126 -1.52712 0
M  V30 1487 C 136.27 -1.73788 -2.93276 0
M  V30 1488 H 137.463 -2.66306 -1.37917 0
M  V30 1489 H 135.016 -1.40477 -0.685271 0
M  V30 1490 H 135.751 -0.792717 -3.14462 0
M  V30 1491 H 135.536 -2.55864 -2.97113 0
M  V30 1492 H 137.026 -1.90591 -3.71571 0
M  V30 1493 N 137.463 0.71206 -1.40597 0
M  V30 1494 C 138.396 1.83582 -1.35546 0
M  V30 1495 C 139.374 1.61032 -0.225284 0
M  V30 1496 O 140.558 1.83998 -0.409519 0
M  V30 1497 C 137.685 3.19983 -1.11034 0
M  V30 1498 C 136.731 3.61355 -2.2655 0
M  V30 1499 S 137.564 3.68062 -3.88961 0
M  V30 1500 C 138.72 5.07216 -3.66719 0
M  V30 1501 H 138.953 1.87586 -2.30648 0
M  V30 1502 H 136.486 0.879182 -1.26924 0
M  V30 1503 H 138.444 3.98734 -0.975761 0
M  V30 1504 H 137.105 3.13608 -0.175798 0
M  V30 1505 H 136.298 4.60403 -2.0505 0
M  V30 1506 H 135.9 2.8987 -2.36329 0
M  V30 1507 H 138.192 5.94238 -3.25404 0
M  V30 1508 H 139.135 5.33753 -4.6531 0
M  V30 1509 H 139.543 4.77976 -3.00332 0
M  V30 1510 N 138.941 1.26152 0.944643 0
M  V30 1511 C 140.357 1.03189 1.21754 0
M  V30 1512 C 140.557 -0.245112 2.00004 0
M  V30 1513 O 139.613 -0.955176 2.33736 0
M  V30 1514 C 140.926 2.26119 1.98219 0
M  V30 1515 C 142.474 2.30984 2.11224 0
M  V30 1516 C 142.949 3.53597 2.91089 0
M  V30 1517 N 144.44 3.54053 2.98664 0
M  V30 1518 C 145.175 4.45593 3.60881 0
M  V30 1519 N 144.671 5.47416 4.24626 0
M  V30 1520 N 146.464 4.33252 3.58119 0
M  V30 1521 H 138.615 2.08177 0.421437 0
M  V30 1522 H 140.878 0.914723 0.248969 0
M  V30 1523 H 140.584 3.18984 1.48128 0
M  V30 1524 H 140.458 2.3009 2.98895 0
M  V30 1525 H 142.845 1.38635 2.60508 0
M  V30 1526 H 142.926 2.31026 1.09821 0
M  V30 1527 H 142.57 4.46273 2.42493 0
M  V30 1528 H 142.5 3.50802 3.92741 0
M  V30 1529 H 144.991 2.80403 2.53343 0
M  V30 1530 H 145.304 6.13459 4.69987 0
M  V30 1531 H 143.649 5.51278 4.23223 0
M  V30 1532 H 146.84 3.52924 3.0751 0
M  V30 1533 H 147.013 5.04786 4.06319 0
M  V30 1534 N 140.419 -1.14872 1.07899 0
M  V30 1535 C 141.647 -1.89661 0.82683 0
M  V30 1536 C 142.062 -1.78312 -0.620519 0
M  V30 1537 O 141.419 -1.13888 -1.42604 0
M  V30 1538 C 141.47 -3.39817 1.23316 0
M  V30 1539 O 141.191 -3.50845 2.62372 0
M  V30 1540 C 142.692 -4.31615 1.0111 0
M  V30 1541 H 139.912 -0.60092 0.298557 0
M  V30 1542 H 142.456 -1.4551 1.43691 0
M  V30 1543 H 140.611 -3.8161 0.667286 0
M  V30 1544 H 141.025 -4.44076 2.79101 0
M  V30 1545 H 142.499 -5.35367 1.34486 0
M  V30 1546 H 142.976 -4.39169 -0.0522168 0
M  V30 1547 H 143.582 -3.95572 1.56215 0
M  V30 1548 N 141.898 -0.863906 -1.31812 0
M  V30 1549 C 143.309 -0.52522 -1.7916 0
M  V30 1550 C 143.66 0.957518 -1.71248 0
M  V30 1551 O 142.785 1.74734 -1.27659 0
M  V30 1552 C 143.38 -0.9466 -3.25307 0
M  V30 1553 C 141.939 -0.659668 -3.70574 0
M  V30 1554 C 141.086 -1.14126 -2.52726 0
M  V30 1555 H 144.037 -1.05022 -1.1898 0
M  V30 1556 H 144.058 -0.266766 -3.79564 0
M  V30 1557 H 143.57 -2.02579 -3.31034 0
M  V30 1558 H 141.671 0.408416 -3.70355 0
M  V30 1559 H 141.784 -1.23245 -4.62977 0
M  V30 1560 H 140.148 -0.561216 -2.4844 0
M  V30 1561 H 140.931 -2.22775 -2.61201 0
M  V30 1562 N 143.376 1.44774 -0.622745 0
M  V30 1563 C 144.792 1.56986 -0.287652 0
M  V30 1564 C 144.992 1.61167 1.20944 0
M  V30 1565 O 144.048 1.55015 1.99315 0
M  V30 1566 C 145.361 2.84551 -0.972188 0
M  V30 1567 C 146.909 2.9825 -0.949536 0
M  V30 1568 C 147.384 4.28605 -1.61437 0
M  V30 1569 N 148.875 4.35399 -1.58057 0
M  V30 1570 C 149.61 5.34964 -2.064 0
M  V30 1571 N 149.106 6.40981 -2.62897 0
M  V30 1572 N 150.899 5.26419 -1.97078 0
M  V30 1573 H 143.05 1.40304 -1.59463 0
M  V30 1574 H 145.313 0.671794 -0.668878 0
M  V30 1575 H 145.019 2.87417 -2.02693 0
M  V30 1576 H 144.893 3.73807 -0.504771 0
M  V30 1577 H 147.28 2.94941 0.0967067 0
M  V30 1578 H 147.361 2.10364 -1.45536 0
M  V30 1579 H 147.005 4.32672 -2.66002 0
M  V30 1580 H 146.935 5.15334 -1.08344 0
M  V30 1581 H 149.426 3.59397 -1.16801 0
M  V30 1582 H 149.739 7.13225 -2.97539 0
M  V30 1583 H 148.084 6.4169 -2.66943 0
M  V30 1584 H 151.275 4.42504 -1.52669 0
M  V30 1585 H 151.448 6.03861 -2.35066 0
M  V30 1586 N 144.854 0.36279 1.53368 0
M  V30 1587 C 146.094 -0.227882 2.03126 0
M  V30 1588 C 146.458 -1.4622 1.24434 0
M  V30 1589 O 147.659 -2.12831 1.64184 0
M  V30 1590 C 145.93 -0.515427 3.53664 0
M  V30 1591 S 147.489 -1.08017 4.25297 0
M  V30 1592 H 144.307 -0.0665377 0.70788 0
M  V30 1593 H 146.909 0.50501 1.88865 0
M  V30 1594 H 145.613 0.390436 4.08539 0
M  V30 1595 H 145.144 -1.27747 3.72081 0
M  V30 1596 H 147.159 -2.36462 4.36234 0
M  V30 1597 N 146.332 -1.57332 0.0918853 0
M  V30 1598 C 147.58 -1.93853 -0.571446 0
M  V30 1599 C 147.901 -0.974212 -1.6892 0
M  V30 1600 O 147.171 -0.0257254 -1.95883 0
M  V30 1601 H 145.751 -0.715666 -0.214082 0
M  V30 1602 H 148.413 -1.94287 0.154464 0
M  V30 1603 H 147.509 -2.96191 -0.983729 0
M  V30 1604 N 147.81 0.181792 -1.56548 0
M  V30 1605 C 149.056 0.901431 -1.81665 0
M  V30 1606 C 149.389 1.82347 -0.668075 0
M  V30 1607 O 148.664 1.91669 0.330615 0
M  V30 1608 C 148.947 1.70618 -3.17115 0
M  V30 1609 C 148.8 0.807964 -4.42484 0
M  V30 1610 C 150.119 2.67605 -3.49393 0
M  V30 1611 H 147.238 0.32627 -0.660846 0
M  V30 1612 H 149.88 0.168134 -1.89255 0
M  V30 1613 H 148.03 2.33133 -3.10775 0
M  V30 1614 H 149.702 0.19649 -4.60881 0
M  V30 1615 H 147.945 0.115411 -4.33646 0
M  V30 1616 H 148.616 1.40632 -5.33785 0
M  V30 1617 H 151.092 2.15218 -3.56118 0
M  V30 1618 H 149.968 3.20985 -4.45264 0
M  V30 1619 H 150.229 3.47298 -2.73563 0
M  V30 1620 N 149.288 1.51039 0.449983 0
M  V30 1621 C 150.699 1.557 1.03026 0
M  V30 1622 C 151.05 0.372939 1.92623 0
M  V30 1623 O 150.175 -0.511771 2.10261 0
M  V30 1624 C 150.77 2.82171 1.87523 0
M  V30 1625 C 149.329 2.89444 2.40622 0
M  V30 1626 C 148.476 2.50228 1.19504 0
M  V30 1627 H 151.427 1.56999 0.231745 0
M  V30 1628 H 151.448 2.65219 2.72835 0
M  V30 1629 H 150.96 3.68331 1.22286 0
M  V30 1630 H 149.061 2.07685 3.0935 0
M  V30 1631 H 149.174 3.92816 2.74285 0
M  V30 1632 H 147.538 2.03139 1.53644 0
M  V30 1633 H 148.321 3.38719 0.558972 0
M  V30 1634 N 150.766 -0.704594 1.40972 0
M  V30 1635 C 152.043 -1.45847 1.30338 0
M  V30 1636 C 152.423 -2.10973 -0.0732344 0
M  V30 1637 O 151.771 -2.00997 -1.08685 0
M  V30 1638 C 151.981 -2.48525 2.45023 0
M  V30 1639 C 153.329 -3.1404 2.8577 0
M  V30 1640 O 154.353 -2.58848 2.44696 0
M  V30 1641 O 153.212 -4.13981 3.56766 0
M  V30 1642 H 150.306 -0.649092 0.512454 0
M  V30 1643 H 152.852 -0.735836 1.52917 0
M  V30 1644 H 151.624 -1.98994 3.36923 0
M  V30 1645 H 151.247 -3.2831 2.24272 0
M  V30 1646 N 152.244 -1.26651 -0.937939 0
M  V30 1647 C 153.174 -1.10993 -2.05433 0
M  V30 1648 C 154.155 -0.0142161 -1.70094 0
M  V30 1649 O 155.34 -0.186837 -1.93299 0
M  V30 1650 C 152.47 -0.745561 -3.39203 0
M  V30 1651 C 151.424 -1.79337 -3.88616 0
M  V30 1652 C 150.75 -1.28324 -5.19073 0
M  V30 1653 C 152.05 -3.19553 -4.13138 0
M  V30 1654 H 153.744 -2.0438 -2.1879 0
M  V30 1655 H 151.29 -0.984041 -1.05131 0
M  V30 1656 H 153.243 -0.622888 -4.16771 0
M  V30 1657 H 151.967 0.22401 -3.25831 0
M  V30 1658 H 150.626 -1.90477 -3.13231 0
M  V30 1659 H 150.274 -0.303414 -5.02084 0
M  V30 1660 H 149.974 -1.98369 -5.53103 0
M  V30 1661 H 151.498 -1.1733 -5.99221 0
M  V30 1662 H 152.912 -3.11471 -4.81309 0
M  V30 1663 H 151.309 -3.87218 -4.58457 0
M  V30 1664 H 152.379 -3.65368 -3.18801 0
M  V30 1665 N 153.722 1.14298 -1.08507 0
M  V30 1666 C 154.97 1.84993 -0.813763 0
M  V30 1667 C 155.291 1.83405 0.662393 0
M  V30 1668 O 154.561 1.28319 1.48024 0
M  V30 1669 H 153.141 0.684966 -0.298045 0
M  V30 1670 H 155.803 1.385 -1.37126 0
M  V30 1671 H 154.899 2.89788 -1.15884 0
M  V30 1672 N 155.201 0.870884 1.31352 0
M  V30 1673 C 156.617 0.562932 1.49343 0
M  V30 1674 C 156.817 -0.902725 1.80148 0
M  V30 1675 O 155.873 -1.68484 1.88067 0
M  V30 1676 C 157.186 1.46393 2.62659 0
M  V30 1677 C 158.734 1.46607 2.76542 0
M  V30 1678 C 159.209 2.35266 3.92955 0
M  V30 1679 N 160.7 2.33151 4.00243 0
M  V30 1680 C 161.435 2.98471 4.89594 0
M  V30 1681 N 160.931 3.72964 5.8384 0
M  V30 1682 N 162.724 2.87775 4.82848 0
M  V30 1683 H 154.875 1.81923 1.09626 0
M  V30 1684 H 157.138 0.777934 0.541777 0
M  V30 1685 H 156.844 2.50689 2.46674 0
M  V30 1686 H 156.718 1.16314 3.58819 0
M  V30 1687 H 159.105 0.43069 2.9194 0
M  V30 1688 H 159.186 1.8071 1.81046 0
M  V30 1689 H 158.83 3.38881 3.78315 0
M  V30 1690 H 158.76 1.98487 4.87761 0
M  V30 1691 H 161.251 1.79006 3.32814 0
M  V30 1692 H 161.564 4.19932 6.4875 0
M  V30 1693 H 159.909 3.77073 5.83816 0
M  V30 1694 H 163.1 2.29116 4.08195 0
M  V30 1695 H 163.273 3.38961 5.52277 0
M  V30 1696 N 156.679 -1.44442 0.630414 0
M  V30 1697 C 157.926 -2.02052 0.134617 0
M  V30 1698 C 158.254 -1.49576 -1.24327 0
M  V30 1699 O 157.509 -0.669806 -1.83881 0
M  V30 1700 C 157.808 -3.57332 0.0697835 0
M  V30 1701 C 157.474 -4.29058 1.38635 0
M  V30 1702 C 156.136 -4.4837 1.74694 0
M  V30 1703 C 158.488 -4.69872 2.25543 0
M  V30 1704 C 155.816 -5.05756 2.97369 0
M  V30 1705 C 158.168 -5.28616 3.47487 0
M  V30 1706 C 156.832 -5.46147 3.8377 0
M  V30 1707 H 156.102 -0.739361 0.0492598 0
M  V30 1708 H 158.749 -1.73217 0.816586 0
M  V30 1709 H 157.054 -3.85577 -0.695553 0
M  V30 1710 H 158.751 -3.99637 -0.330344 0
M  V30 1711 H 155.341 -4.14357 1.09574 0
M  V30 1712 H 159.525 -4.54666 1.98979 0
M  V30 1713 H 154.781 -5.17515 3.25558 0
M  V30 1714 H 158.955 -5.59192 4.15063 0
M  V30 1715 H 156.582 -5.9038 4.7891 0
M  V30 1716 N 158.157 -0.370918 -1.53173 0
M  V30 1717 C 159.089 0.507823 -2.23503 0
M  V30 1718 C 160.102 1.04182 -1.251 0
M  V30 1719 O 161.291 0.947286 -1.5129 0
M  V30 1720 C 158.391 1.71447 -2.92334 0
M  V30 1721 C 157.564 1.31105 -4.17289 0
M  V30 1722 C 156.623 2.38035 -4.69282 0
M  V30 1723 O 155.649 2.00204 -5.32829 0
M  V30 1724 N 156.851 3.69697 -4.47554 0
M  V30 1725 H 159.616 -0.0946382 -2.99551 0
M  V30 1726 H 157.177 -0.196358 -1.60705 0
M  V30 1727 H 159.169 2.42469 -3.24023 0
M  V30 1728 H 157.739 2.22368 -2.19707 0
M  V30 1729 H 156.959 0.430462 -3.91843 0
M  V30 1730 H 158.247 1.0179 -4.98514 0
M  V30 1731 H 157.645 4.03205 -3.9679 0
M  V30 1732 H 156.202 4.36807 -4.8378 0
M  V30 1733 N 159.635 1.57281 -0.100228 0
M  V30 1734 C 160.863 1.98879 0.570509 0
M  V30 1735 C 161.278 0.979476 1.61405 0
M  V30 1736 O 160.635 -0.0302288 1.82475 0
M  V30 1737 C 160.686 3.4052 1.2136 0
M  V30 1738 O 160.407 4.37588 0.211786 0
M  V30 1739 C 161.908 3.97149 1.96945 0
M  V30 1740 H 159.128 0.653428 0.152555 0
M  V30 1741 H 161.672 2.03697 -0.18103 0
M  V30 1742 H 159.827 3.367 1.91603 0
M  V30 1743 H 160.241 5.20118 0.676607 0
M  V30 1744 H 161.715 4.98393 2.37294 0
M  V30 1745 H 162.192 3.3525 2.83733 0
M  V30 1746 H 162.798 4.04458 1.31506 0
M  V30 1747 N 161.113 -0.173488 1.56642 0
M  V30 1748 C 162.36 -0.890465 1.81871 0
M  V30 1749 C 162.688 -1.82339 0.67696 0
M  V30 1750 O 161.943 -1.92795 -0.335926 0
M  V30 1751 C 162.242 -1.72069 3.13252 0
M  V30 1752 C 161.908 -0.936878 4.41059 0
M  V30 1753 C 160.57 -0.720545 4.75775 0
M  V30 1754 C 162.922 -0.386919 5.19762 0
M  V30 1755 C 160.25 0.0568829 5.86672 0
M  V30 1756 C 162.602 0.37741 6.31473 0
M  V30 1757 C 161.266 0.604563 6.64757 0
M  V30 1758 H 160.536 -0.325844 0.665512 0
M  V30 1759 H 163.183 -0.155527 1.90867 0
M  V30 1760 H 161.488 -2.52496 2.99588 0
M  V30 1761 H 163.185 -2.27844 3.29982 0
M  V30 1762 H 159.775 -1.11553 4.13828 0
M  V30 1763 H 163.959 -0.541398 4.93338 0
M  V30 1764 H 159.215 0.242635 6.10918 0
M  V30 1765 H 163.389 0.810825 6.91664 0
M  V30 1766 H 161.016 1.20885 7.50527 0
M  V30 1767 N 162.591 -1.51276 -0.441967 0
M  V30 1768 C 163.501 -1.75092 -1.56141 0
M  V30 1769 C 164.517 -0.634963 -1.62001 0
M  V30 1770 O 165.693 -0.916686 -1.79329 0
M  V30 1771 C 162.758 -1.86666 -2.92158 0
M  V30 1772 C 161.819 -3.10506 -2.96453 0
M  V30 1773 C 161.052 -3.21519 -4.25982 0
M  V30 1774 O 161.275 -2.38586 -5.18105 0
M  V30 1775 O 160.209 -4.14465 -4.36466 0
M  V30 1776 H 164.035 -2.70044 -1.38961 0
M  V30 1777 H 161.62 -1.35722 -0.624499 0
M  V30 1778 H 163.502 -1.96292 -3.72891 0
M  V30 1779 H 162.177 -0.949014 -3.09476 0
M  V30 1780 H 161.084 -3.06363 -2.14692 0
M  V30 1781 H 162.417 -4.01945 -2.84079 0
M  V30 1782 N 164.069 0.697108 -1.41344 0
M  V30 1783 C 165.317 1.45426 -1.40341 0
M  V30 1784 C 165.638 1.94996 -0.0128787 0
M  V30 1785 O 164.908 1.71599 0.945027 0
M  V30 1786 H 163.488 0.539594 -0.516573 0
M  V30 1787 H 166.15 0.825201 -1.76569 0
M  V30 1788 H 165.246 2.31817 -2.08967 0
M  V30 1789 N 165.547 1.27147 0.931209 0
M  V30 1790 C 166.824 1.0401 1.65654 0
M  V30 1791 C 167.204 -0.426297 2.06751 0
M  V30 1792 O 166.552 -1.40879 1.79904 0
M  V30 1793 C 166.762 1.99834 2.86125 0
M  V30 1794 C 168.11 2.29007 3.57549 0
M  V30 1795 O 169.134 1.97779 2.96246 0
M  V30 1796 O 167.993 2.82222 4.67989 0
M  V30 1797 H 165.087 0.396239 0.725895 0
M  V30 1798 H 167.633 1.38397 0.982056 0
M  V30 1799 H 166.405 2.98744 2.52721 0
M  V30 1800 H 166.028 1.65987 3.61295 0
M  V30 1801 N 167.025 -1.13721 1.09112 0
M  V30 1802 C 167.955 -2.21148 0.749385 0
M  V30 1803 C 168.936 -1.6792 -0.271475 0
M  V30 1804 O 170.121 -1.93693 -0.140251 0
M  V30 1805 C 167.251 -3.46905 0.165659 0
M  V30 1806 C 166.205 -4.13203 1.11567 0
M  V30 1807 C 165.531 -5.33248 0.393809 0
M  V30 1808 C 166.831 -4.60912 2.45678 0
M  V30 1809 H 168.525 -2.4999 1.64758 0
M  V30 1810 H 166.071 -1.20156 0.793626 0
M  V30 1811 H 168.024 -4.21313 -0.085466 0
M  V30 1812 H 166.748 -3.17449 -0.767714 0
M  V30 1813 H 165.407 -3.40758 1.35202 0
M  V30 1814 H 165.055 -5.00054 -0.543599 0
M  V30 1815 H 164.755 -5.78552 1.02721 0
M  V30 1816 H 166.279 -6.10413 0.150908 0
M  V30 1817 H 167.693 -5.26759 2.26269 0
M  V30 1818 H 166.09 -5.16944 3.04776 0
M  V30 1819 H 167.16 -3.75603 3.06677 0
M  V30 1820 N 168.503 -0.877838 -1.30888 0
M  V30 1821 C 169.45 -0.337538 -2.28318 0
M  V30 1822 C 170.42 0.568346 -1.56074 0
M  V30 1823 O 171.605 0.498298 -1.84178 0
M  V30 1824 C 168.745 0.448142 -3.42178 0
M  V30 1825 C 167.858 -0.48615 -4.29256 0
M  V30 1826 C 166.993 0.314427 -5.30269 0
M  V30 1827 C 166.032 -0.615791 -6.08995 0
M  V30 1828 N 165.169 0.14902 -7.01942 0
M  V30 1829 H 170.009 -1.17356 -2.73919 0
M  V30 1830 H 167.546 -0.590094 -1.34745 0
M  V30 1831 H 169.504 0.919517 -4.06941 0
M  V30 1832 H 168.134 1.24879 -2.97666 0
M  V30 1833 H 167.186 -1.076 -3.64865 0
M  V30 1834 H 168.498 -1.19909 -4.84173 0
M  V30 1835 H 167.652 0.847969 -6.00745 0
M  V30 1836 H 166.391 1.06062 -4.76027 0
M  V30 1837 H 165.396 -1.16102 -5.37401 0
M  V30 1838 H 166.621 -1.36097 -6.65323 0
M  V30 1839 H 164.567 0.877884 -6.50099 0
M  V30 1840 H 164.484 -0.504433 -7.54315 0
M  V30 1841 H 165.752 0.663537 -7.76671 0
M  V30 1842 N 169.982 1.44106 -0.638065 0
M  V30 1843 C 171.228 2.02815 -0.15409 0
M  V30 1844 C 171.583 1.49342 1.21304 0
M  V30 1845 O 170.876 0.670699 1.79478 0
M  V30 1846 C 171.07 3.5729 -0.0887327 0
M  V30 1847 C 170.899 4.2575 -1.44799 0
M  V30 1848 C 169.669 4.62443 -2.03653 0
M  V30 1849 C 171.867 4.55746 -2.38327 0
M  V30 1850 N 169.849 5.15903 -3.32741 0
M  V30 1851 C 171.22 5.10364 -3.52036 0
M  V30 1852 C 173.275 4.37703 -2.3732 0
M  V30 1853 C 171.978 5.48837 -4.64941 0
M  V30 1854 C 174.004 4.77229 -3.49294 0
M  V30 1855 C 173.366 5.31966 -4.61726 0
M  V30 1856 H 169.465 0.775519 -0.100466 0
M  V30 1857 H 172.049 1.755 -0.843071 0
M  V30 1858 H 170.22 3.84201 0.569548 0
M  V30 1859 H 171.952 4.02671 0.404711 0
M  V30 1860 H 168.707 4.46987 -1.56523 0
M  V30 1861 H 169.131 5.47102 -3.98758 0
M  V30 1862 H 173.773 3.94671 -1.51641 0
M  V30 1863 H 171.491 5.9082 -5.51323 0
M  V30 1864 H 175.077 4.64976 -3.49698 0
M  V30 1865 H 173.957 5.61986 -5.46939 0
M  V30 1866 N 171.46 0.379036 1.52974 0
M  V30 1867 C 172.41 -0.477772 2.22938 0
M  V30 1868 C 173.394 -1.03792 1.22948 0
M  V30 1869 O 174.586 -0.965725 1.48333 0
M  V30 1870 C 171.715 -1.60994 3.03209 0
M  V30 1871 C 170.801 -1.06203 4.10587 0
M  V30 1872 N 171.192 -0.238214 5.05239 0
M  V30 1873 C 169.49 -1.33554 4.25534 0
M  V30 1874 C 170.191 0.0633235 5.81666 0
M  V30 1875 N 169.167 -0.537901 5.40932 0
M  V30 1876 H 172.969 0.158295 2.93473 0
M  V30 1877 H 170.483 0.187778 1.61311 0
M  V30 1878 H 172.48 -2.23607 3.5186 0
M  V30 1879 H 171.14 -2.24893 2.34207 0
M  V30 1880 H 172.151 0.123695 5.17752 0
M  V30 1881 H 168.828 -1.97632 3.6776 0
M  V30 1882 H 170.218 0.730161 6.67921 0
M  V30 1883 N 172.938 -1.57226 0.108567 0
M  V30 1884 C 173.888 -2.11305 -0.856396 0
M  V30 1885 C 174.872 -1.03129 -1.23504 0
M  V30 1886 O 176.064 -1.29381 -1.20787 0
M  V30 1887 C 173.193 -2.70771 -2.11041 0
M  V30 1888 C 172.279 -3.86011 -1.7566 0
M  V30 1889 N 172.67 -4.93492 -1.10902 0
M  V30 1890 C 170.968 -3.95999 -2.05185 0
M  V30 1891 C 171.669 -5.73984 -0.944308 0
M  V30 1892 N 170.645 -5.2346 -1.46596 0
M  V30 1893 H 174.447 -2.91784 -0.352002 0
M  V30 1894 H 171.961 -1.62126 -0.0942324 0
M  V30 1895 H 173.958 -3.07851 -2.81128 0
M  V30 1896 H 172.618 -1.91751 -2.62034 0
M  V30 1897 H 173.629 -5.1208 -0.774235 0
M  V30 1898 H 170.306 -3.28007 -2.58298 0
M  V30 1899 H 171.696 -6.70479 -0.436813 0
M  V30 1900 N 174.416 0.165178 -1.56732 0
M  V30 1901 C 175.366 1.20917 -1.93295 0
M  V30 1902 C 176.35 1.39488 -0.801985 0
M  V30 1903 O 177.542 1.41356 -1.06525 0
M  V30 1904 C 174.671 2.54718 -2.3016 0
M  V30 1905 C 173.757 2.39815 -3.49785 0
M  V30 1906 N 174.148 1.94637 -4.66851 0
M  V30 1907 C 172.446 2.70623 -3.54513 0
M  V30 1908 C 173.147 1.92344 -5.4898 0
M  V30 1909 N 172.123 2.34978 -4.9019 0
M  V30 1910 H 175.925 0.851675 -2.81289 0
M  V30 1911 H 173.439 0.373399 -1.58049 0
M  V30 1912 H 175.436 3.30165 -2.54552 0
M  V30 1913 H 174.096 2.91265 -1.43508 0
M  V30 1914 H 175.107 1.6488 -4.90953 0
M  V30 1915 H 171.784 3.11167 -2.78354 0
M  V30 1916 H 173.174 1.5906 -6.52801 0
M  V30 1917 N 175.894 1.51508 0.433938 0
M  V30 1918 C 176.842 1.73646 1.54757 0
M  V30 1919 C 177.836 0.602854 1.5831 0
M  V30 1920 O 179.042 0.784318 1.62014 0
M  V30 1921 H 175.417 0.548718 0.51421 0
M  V30 1922 H 177.388 2.66991 1.33261 0
M  V30 1923 C 176.137 1.88172 2.92381 0
M  V30 1924 H 175.46 2.74808 2.90381 0
M  V30 1925 H 176.9 2.07672 3.6966 0
M  V30 1926 C 175.359 0.64239 3.30719 0
M  V30 1927 O 175.889 -0.201362 4.01195 0
M  V30 1928 N 174.095 0.485489 2.86516 0
M  V30 1929 H 173.642 1.17318 2.29334 0
M  V30 1930 H 173.6 -0.342482 3.12529 0
M  V30 1931 N 177.372 -0.689602 1.41712 0
M  V30 1932 C 178.621 -1.44534 1.40686 0
M  V30 1933 C 178.934 -1.95588 0.0213352 0
M  V30 1934 O 180.14 -2.71271 -0.111534 0
M  V30 1935 C 178.596 -2.61387 2.47396 0
M  V30 1936 C 178.204 -2.17094 3.91885 0
M  V30 1937 C 179.948 -3.38986 2.55517 0
M  V30 1938 C 177.855 -3.3094 4.90135 0
M  V30 1939 H 176.785 -0.542925 0.52321 0
M  V30 1940 H 179.436 -0.748054 1.6756 0
M  V30 1941 H 177.818 -3.33412 2.13664 0
M  V30 1942 H 178.992 -1.52318 4.34897 0
M  V30 1943 H 177.307 -1.52473 3.8748 0
M  V30 1944 H 179.904 -4.23747 3.26102 0
M  V30 1945 H 180.247 -3.84578 1.59391 0
M  V30 1946 H 180.78 -2.74021 2.8837 0
M  V30 1947 H 177.519 -2.90355 5.87685 0
M  V30 1948 H 177.039 -3.94546 4.51767 0
M  V30 1949 H 178.718 -3.9663 5.11169 0
M  V30 1950 N 178.85 -1.27639 -0.924453 0
M  V30 1951 C 180.078 -1.16989 -1.70649 0
M  V30 1952 C 180.493 0.272869 -1.86818 0
M  V30 1953 O 179.85 1.18549 -1.38753 0
M  V30 1954 C 179.901 -1.85229 -3.10439 0
M  V30 1955 O 179.622 -3.23868 -2.95028 0
M  V30 1956 C 181.123 -1.80746 -4.04779 0
M  V30 1957 H 178.343 -0.406595 -0.53378 0
M  V30 1958 H 180.887 -1.68569 -1.15778 0
M  V30 1959 H 179.042 -1.37545 -3.6216 0
M  V30 1960 H 179.456 -3.57889 -3.83426 0
M  V30 1961 H 180.93 -2.33101 -5.00368 0
M  V30 1962 H 181.407 -0.777499 -4.32263 0
M  V30 1963 H 182.013 -2.28059 -3.58984 0
M  V30 1964 N 180.328 1.1314 -1.09713 0
M  V30 1965 C 181.558 1.88048 -0.855656 0
M  V30 1966 C 181.966 1.79537 0.596919 0
M  V30 1967 O 181.309 1.16196 1.42282 0
M  V30 1968 C 181.371 3.38314 -1.21589 0
M  V30 1969 C 181.035 3.70605 -2.67397 0
M  V30 1970 C 182.032 3.69596 -3.65643 0
M  V30 1971 C 179.717 4.0017 -3.03593 0
M  V30 1972 C 181.711 3.977 -4.9811 0
M  V30 1973 C 179.398 4.27935 -4.36251 0
M  V30 1974 C 180.396 4.26685 -5.33318 0
M  V30 1975 O 180.084 4.53767 -6.63589 0
M  V30 1976 H 179.816 0.60208 -0.307368 0
M  V30 1977 H 182.37 1.44128 -1.46343 0
M  V30 1978 H 180.6 3.82752 -0.551177 0
M  V30 1979 H 182.289 3.94552 -0.953083 0
M  V30 1980 H 183.055 3.46826 -3.39023 0
M  V30 1981 H 178.934 4.00289 -2.2867 0
M  V30 1982 H 182.478 3.9664 -5.73866 0
M  V30 1983 H 178.375 4.50178 -4.62613 0
M  V30 1984 H 179.143 4.71422 -6.69107 0
M  V30 1985 N 181.806 0.884767 1.30421 0
M  V30 1986 C 183.052 0.513218 1.96819 0
M  V30 1987 C 183.407 -0.927347 1.68577 0
M  V30 1988 O 182.7 -1.64644 0.979941 0
M  V30 1989 C 182.894 0.724318 3.49983 0
M  V30 1990 C 182.723 2.18385 3.93113 0
M  V30 1991 C 181.493 2.82839 4.18725 0
M  V30 1992 C 183.691 3.15763 4.05953 0
M  V30 1993 N 181.673 4.1939 4.48314 0
M  V30 1994 C 183.044 4.37387 4.39423 0
M  V30 1995 C 185.099 3.11555 3.88379 0
M  V30 1996 C 183.802 5.55343 4.5715 0
M  V30 1997 C 185.828 4.28782 4.07308 0
M  V30 1998 C 185.19 5.49172 4.41123 0
M  V30 1999 H 181.289 0.237123 0.745182 0
M  V30 2000 H 183.873 1.14246 1.57658 0
M  V30 2001 H 182.044 0.124565 3.882 0
M  V30 2002 H 183.776 0.31969 4.03435 0
M  V30 2003 H 180.531 2.33708 4.11919 0
M  V30 2004 H 180.955 4.89911 4.67243 0
M  V30 2005 H 185.597 2.19576 3.61312 0
M  V30 2006 H 183.315 6.47826 4.8306 0
M  V30 2007 H 186.901 4.26995 3.95179 0
M  V30 2008 H 185.781 6.38371 4.55469 0
M  V30 2009 N 183.284 -1.43765 0.645699 0
M  V30 2010 C 184.533 -2.01116 0.153412 0
M  V30 2011 C 184.846 -1.51493 -1.23731 0
M  V30 2012 O 186.052 -2.01067 -1.8244 0
M  V30 2013 C 184.508 -3.59206 0.223473 0
M  V30 2014 C 184.116 -4.17823 1.61642 0
M  V30 2015 C 185.86 -4.23972 -0.211597 0
M  V30 2016 C 183.767 -5.68183 1.64081 0
M  V30 2017 H 182.697 -0.752093 0.0535891 0
M  V30 2018 H 185.348 -1.6482 0.806633 0
M  V30 2019 H 183.73 -3.92867 -0.497118 0
M  V30 2020 H 184.904 -3.95674 2.36176 0
M  V30 2021 H 183.219 -3.65399 1.99681 0
M  V30 2022 H 185.816 -5.34275 -0.213112 0
M  V30 2023 H 186.159 -3.97352 -1.24165 0
M  V30 2024 H 186.692 -3.95166 0.456988 0
M  V30 2025 H 183.431 -5.99559 2.64971 0
M  V30 2026 H 182.951 -5.9241 0.938611 0
M  V30 2027 H 184.63 -6.32085 1.3812 0
M  V30 2028 N 184.763 -0.387143 -1.52771 0
M  V30 2029 C 185.695 0.484089 -2.2403 0
M  V30 2030 C 186.708 1.02849 -1.26198 0
M  V30 2031 O 187.897 0.931186 -1.52286 0
M  V30 2032 C 184.997 1.68337 -2.94136 0
M  V30 2033 C 184.17 1.26672 -4.18656 0
M  V30 2034 C 183.229 2.33045 -4.7178 0
M  V30 2035 O 182.255 1.94541 -5.34923 0
M  V30 2036 N 183.457 3.64929 -4.5145 0
M  V30 2037 H 186.222 -0.126404 -2.99433 0
M  V30 2038 H 183.783 -0.213392 -1.60488 0
M  V30 2039 H 185.775 2.39019 -3.26577 0
M  V30 2040 H 184.345 2.20025 -2.22053 0
M  V30 2041 H 183.565 0.388878 -3.92277 0
M  V30 2042 H 184.853 0.964964 -4.99566 0
M  V30 2043 H 184.251 3.98974 -4.01044 0
M  V30 2044 H 182.808 4.31651 -4.88386 0
M  V30 2045 N 186.241 1.57166 -0.116904 0
M  V30 2046 C 187.189 2.16457 0.851418 0
M  V30 2047 C 188.183 1.11323 1.27686 0
M  V30 2048 O 189.389 1.2963 1.24884 0
M  V30 2049 H 185.764 0.69271 0.292672 0
M  V30 2050 H 187.735 2.96605 0.32685 0
M  V30 2051 C 186.484 2.77689 2.09246 0
M  V30 2052 H 185.807 3.58285 1.77402 0
M  V30 2053 H 187.247 3.22716 2.7501 0
M  V30 2054 C 185.706 1.74667 2.88085 0
M  V30 2055 O 186.236 1.19877 3.83396 0
M  V30 2056 N 184.442 1.44656 2.52038 0
M  V30 2057 H 183.989 1.89402 1.74599 0
M  V30 2058 H 183.947 0.759675 3.05084 0
M  V30 2059 N 187.719 -0.156864 1.56817 0
M  V30 2060 C 188.949 -0.885031 1.86684 0
M  V30 2061 C 189.357 -1.75696 0.701954 0
M  V30 2062 O 188.7 -1.80569 -0.337732 0
M  V30 2063 C 188.762 -1.80092 3.11138 0
M  V30 2064 C 188.426 -1.10714 4.43386 0
M  V30 2065 C 189.423 -0.465714 5.1781 0
M  V30 2066 C 187.108 -1.09959 4.90117 0
M  V30 2067 C 189.102 0.174002 6.37162 0
M  V30 2068 C 186.789 -0.456055 6.09396 0
M  V30 2069 C 187.787 0.179622 6.82764 0
M  V30 2070 O 187.475 0.812975 7.99779 0
M  V30 2071 H 187.207 -0.261813 0.623242 0
M  V30 2072 H 189.761 -0.157383 2.04796 0
M  V30 2073 H 187.991 -2.56926 2.89009 0
M  V30 2074 H 189.68 -2.40018 3.27332 0
M  V30 2075 H 190.446 -0.463427 4.82781 0
M  V30 2076 H 186.325 -1.58378 4.3294 0
M  V30 2077 H 189.869 0.670765 6.94368 0
M  V30 2078 H 185.766 -0.455975 6.43888 0
M  V30 2079 H 186.534 0.71366 8.15383 0
M  V30 2080 N 189.197 -1.51736 -0.425897 0
M  V30 2081 C 190.422 -1.69082 -1.20108 0
M  V30 2082 C 190.847 -0.392398 -1.83962 0
M  V30 2083 O 190.205 0.64858 -1.69302 0
M  V30 2084 C 190.253 -2.81604 -2.25237 0
M  V30 2085 O 189.357 -2.46004 -3.30992 0
M  V30 2086 H 188.698 -0.563408 -0.35138 0
M  V30 2087 H 191.228 -1.98358 -0.501512 0
M  V30 2088 H 191.238 -3.06025 -2.69838 0
M  V30 2089 H 189.913 -3.75817 -1.78142 0
M  V30 2090 H 188.49 -2.32195 -2.91787 0
M  V30 2091 N 190.675 0.682077 -1.42076 0
M  V30 2092 C 191.585 1.82535 -1.47371 0
M  V30 2093 C 192.601 1.7017 -0.363079 0
M  V30 2094 O 193.777 1.91848 -0.612875 0
M  V30 2095 C 190.842 3.18624 -1.36674 0
M  V30 2096 C 189.903 3.42999 -2.58167 0
M  V30 2097 C 189.136 4.72595 -2.4797 0
M  V30 2098 O 189.359 5.50006 -1.5116 0
M  V30 2099 O 188.293 4.98054 -3.37974 0
M  V30 2100 H 192.119 1.81023 -2.43853 0
M  V30 2101 H 189.704 0.836887 -1.2376 0
M  V30 2102 H 191.586 3.99847 -1.33043 0
M  V30 2103 H 190.261 3.20789 -0.433138 0
M  V30 2104 H 189.168 2.61653 -2.67373 0
M  V30 2105 H 190.501 3.45659 -3.50401 0
M  V30 2106 N 192.153 1.28127 0.917671 0
M  V30 2107 C 193.43 1.05761 1.64542 0
M  V30 2108 C 193.81 -0.404344 2.07191 0
M  V30 2109 O 193.158 -1.38963 1.81388 0
M  V30 2110 C 193.368 2.02857 2.83989 0
M  V30 2111 C 194.716 2.32786 3.551 0
M  V30 2112 O 195.74 2.0091 2.94132 0
M  V30 2113 O 194.599 2.87169 4.64969 0
M  V30 2114 H 191.693 0.403916 0.721652 0
M  V30 2115 H 194.239 1.39431 0.967322 0
M  V30 2116 H 193.011 3.01407 2.49538 0
M  V30 2117 H 192.634 1.69809 3.59514 0
M  V30 2118 N 193.631 -1.12557 1.10312 0
M  V30 2119 C 194.561 -2.20341 0.772798 0
M  V30 2120 C 195.542 -1.68198 -0.25365 0
M  V30 2121 O 196.727 -1.93831 -0.119699 0
M  V30 2122 C 193.857 -3.46709 0.202443 0
M  V30 2123 C 192.811 -4.11996 1.15943 0
M  V30 2124 C 192.137 -5.328 0.450345 0
M  V30 2125 C 193.437 -4.5828 2.50552 0
M  V30 2126 H 195.131 -2.48229 1.674 0
M  V30 2127 H 192.677 -1.19308 0.806326 0
M  V30 2128 H 194.63 -4.2138 -0.0407752 0
M  V30 2129 H 193.354 -3.18245 -0.734001 0
M  V30 2130 H 192.013 -3.39305 1.38808 0
M  V30 2131 H 191.661 -5.00602 -0.490531 0
M  V30 2132 H 191.361 -5.7743 1.08851 0
M  V30 2133 H 192.885 -6.10219 0.215642 0
M  V30 2134 H 194.299 -5.2433 2.31843 0
M  V30 2135 H 192.696 -5.13683 3.10242 0
M  V30 2136 H 193.766 -3.72329 3.10643 0
M  V30 2137 N 195.109 -0.891671 -1.2995 0
M  V30 2138 C 196.52 -0.563104 -1.78006 0
M  V30 2139 C 196.871 0.920978 -1.73241 0
M  V30 2140 O 195.996 1.71987 -1.31337 0
M  V30 2141 C 196.591 -1.01539 -3.23226 0
M  V30 2142 C 195.15 -0.738124 -3.69092 0
M  V30 2143 C 194.297 -1.19461 -2.50249 0
M  V30 2144 H 197.248 -1.07522 -1.16725 0
M  V30 2145 H 197.269 -0.347217 -3.78912 0
M  V30 2146 H 196.781 -2.09555 -3.26662 0
M  V30 2147 H 194.882 0.329766 -3.71138 0
M  V30 2148 H 194.995 -1.33037 -4.60259 0
M  V30 2149 H 193.359 -0.613787 -2.47194 0
M  V30 2150 H 194.142 -2.28265 -2.56417 0
M  V30 2151 N 196.587 1.43421 -0.653314 0
M  V30 2152 C 198.003 1.56341 -0.320886 0
M  V30 2153 C 198.203 1.63696 1.17499 0
M  V30 2154 O 197.259 1.59208 1.95982 0
M  V30 2155 C 198.572 2.82424 -1.03233 0
M  V30 2156 C 200.12 2.96168 -1.01259 0
M  V30 2157 C 200.595 4.25084 -1.70492 0
M  V30 2158 N 202.086 4.31948 -1.67257 0
M  V30 2159 C 202.821 5.30466 -2.17701 0
M  V30 2160 N 202.317 6.35261 -2.76434 0
M  V30 2161 N 204.11 5.2212 -2.082 0
M  V30 2162 H 196.261 1.3689 -1.62403 0
M  V30 2163 H 198.524 0.657455 -0.682977 0
M  V30 2164 H 198.23 2.83053 -2.08744 0
M  V30 2165 H 198.104 3.72653 -0.583948 0
M  V30 2166 H 200.491 2.9508 0.0341235 0
M  V30 2167 H 200.572 2.07229 -1.49966 0
M  V30 2168 H 200.216 4.26932 -2.7512 0
M  V30 2169 H 200.146 5.1292 -1.19251 0
M  V30 2170 H 202.637 3.56838 -1.24398 0
M  V30 2171 H 202.95 7.06754 -3.12601 0
M  V30 2172 H 201.295 6.35884 -2.80495 0
M  V30 2173 H 204.486 4.39166 -1.62021 0
M  V30 2174 H 204.659 5.98739 -2.47822 0
M  V30 2175 N 198.065 0.39524 1.52563 0
M  V30 2176 C 199.028 -0.425001 2.25225 0
M  V30 2177 C 200.028 -0.985266 1.27079 0
M  V30 2178 O 201.218 -0.866332 1.5113 0
M  V30 2179 C 198.35 -1.59686 3.01186 0
M  V30 2180 H 199.543 0.211233 2.99155 0
M  V30 2181 H 197.096 0.147472 1.55603 0
M  V30 2182 H 197.831 -2.27035 2.31572 0
M  V30 2183 H 197.616 -1.20176 3.73229 0
M  V30 2184 H 199.106 -2.17743 3.5634 0
M  V30 2185 N 199.544 -1.57102 0.125237 0
M  V30 2186 C 200.79 -1.95697 -0.532035 0
M  V30 2187 C 201.123 -1.009 -1.6593 0
M  V30 2188 O 200.398 -0.047347 -1.94442 0
M  V30 2189 C 200.681 -3.44181 -1.05884 0
M  V30 2190 C 200.534 -4.49752 0.0654392 0
M  V30 2191 C 201.853 -3.94655 -1.9477 0
M  V30 2192 H 198.972 -0.711571 -0.191925 0
M  V30 2193 H 201.614 -1.88923 0.20206 0
M  V30 2194 H 199.764 -3.50085 -1.68442 0
M  V30 2195 H 201.436 -4.55943 0.700982 0
M  V30 2196 H 199.679 -4.27653 0.727709 0
M  V30 2197 H 200.35 -5.50924 -0.344505 0
M  V30 2198 H 202.826 -3.91094 -1.42074 0
M  V30 2199 H 201.702 -4.99057 -2.28546 0
M  V30 2200 H 201.963 -3.35718 -2.87656 0
M  V30 2201 N 201.022 0.148545 -1.56898 0
M  V30 2202 C 202.271 0.85984 -1.82454 0
M  V30 2203 C 202.584 1.82406 -0.706229 0
M  V30 2204 O 203.79 2.57938 -0.847349 0
M  V30 2205 C 202.246 1.57967 -3.2338 0
M  V30 2206 C 201.854 0.65794 -4.43142 0
M  V30 2207 C 203.598 2.27784 -3.58211 0
M  V30 2208 C 201.505 1.3793 -5.75091 0
M  V30 2209 H 200.435 0.324834 -0.68044 0
M  V30 2210 H 203.086 0.112588 -1.83154 0
M  V30 2211 H 201.468 2.37249 -3.17063 0
M  V30 2212 H 202.642 -0.0995497 -4.60692 0
M  V30 2213 H 200.957 0.0682643 -4.16344 0
M  V30 2214 H 203.554 2.8239 -4.54048 0
M  V30 2215 H 203.897 3.04204 -2.84193 0
M  V30 2216 H 204.43 1.55421 -3.66182 0
M  V30 2217 H 201.169 0.656982 -6.52199 0
M  V30 2218 H 200.689 2.10954 -5.61479 0
M  V30 2219 H 202.368 1.92063 -6.17835 0
M  V30 2220 N 202.5 1.5196 0.417844 0
M  V30 2221 C 203.777 1.56146 1.17803 0
M  V30 2222 C 204.157 0.337275 2.08388 0
M  V30 2223 O 203.505 -0.676447 2.18258 0
M  V30 2224 C 203.715 2.88566 1.96293 0
M  V30 2225 C 205.063 3.41244 2.52662 0
M  V30 2226 O 206.087 2.90247 2.06483 0
M  V30 2227 O 204.946 4.30273 3.36938 0
M  V30 2228 H 202.04 0.628598 0.537395 0
M  V30 2229 H 204.586 1.64283 0.425331 0
M  V30 2230 H 203.358 3.69116 1.2988 0
M  V30 2231 H 202.981 2.83681 2.78587 0
M  V30 2232 N 203.978 -0.674533 1.42435 0
M  V30 2233 C 205.255 -1.4305 1.33402 0
M  V30 2234 C 205.635 -2.11081 -0.0284674 0
M  V30 2235 O 204.983 -2.03257 -1.04397 0
M  V30 2236 C 205.193 -2.43272 2.50239 0
M  V30 2237 C 206.541 -3.07907 2.92367 0
M  V30 2238 O 207.565 -2.53599 2.50132 0
M  V30 2239 O 206.424 -4.0632 3.65467 0
M  V30 2240 H 203.518 -0.638076 0.526106 0
M  V30 2241 H 206.064 -0.703235 1.54443 0
M  V30 2242 H 204.836 -1.91803 3.41068 0
M  V30 2243 H 204.459 -3.23479 2.31186 0
M  V30 2244 N 205.456 -1.28612 -0.910864 0
M  V30 2245 C 206.419 -1.12803 -1.9952 0
M  V30 2246 C 207.419 -0.0668264 -1.60661 0
M  V30 2247 O 208.609 -0.312847 -1.71368 0
M  V30 2248 C 205.741 -0.72254 -3.33155 0
M  V30 2249 H 206.934 -2.09109 -2.14973 0
M  V30 2250 H 204.487 -1.11639 -1.09391 0
M  V30 2251 H 205.222 0.241152 -3.23402 0
M  V30 2252 H 205.007 -1.48916 -3.62721 0
M  V30 2253 H 206.497 -0.634666 -4.12749 0
M  V30 2254 N 206.934 1.1197 -1.10907 0
M  V30 2255 C 208.181 1.83588 -0.854507 0
M  V30 2256 C 208.509 1.84357 0.6199 0
M  V30 2257 O 207.764 1.28809 1.47332 0
M  V30 2258 C 208.063 3.30749 -1.35425 0
M  V30 2259 C 207.729 3.50146 -2.84093 0
M  V30 2260 C 206.391 3.55148 -3.2469 0
M  V30 2261 C 208.743 3.56857 -3.79872 0
M  V30 2262 C 206.071 3.6441 -4.59806 0
M  V30 2263 C 208.423 3.6765 -5.14797 0
M  V30 2264 C 207.087 3.7091 -5.54961 0
M  V30 2265 H 206.357 0.671795 -0.312686 0
M  V30 2266 H 209.004 1.32091 -1.38652 0
M  V30 2267 H 207.309 3.84703 -0.742361 0
M  V30 2268 H 209.006 3.8464 -1.1337 0
M  V30 2269 H 205.596 3.46919 -2.51685 0
M  V30 2270 H 209.78 3.52258 -3.49611 0
M  V30 2271 H 205.036 3.65208 -4.9034 0
M  V30 2272 H 209.21 3.71786 -5.88853 0
M  V30 2273 H 206.837 3.7784 -6.59652 0
M  V30 2274 N 208.412 0.89855 1.29475 0
M  V30 2275 C 209.375 0.380272 2.26023 0
M  V30 2276 C 210.375 -0.484891 1.53315 0
M  V30 2277 O 211.565 -0.290108 1.71767 0
M  V30 2278 C 208.697 -0.45651 3.3783 0
M  V30 2279 H 209.89 1.23295 2.73383 0
M  V30 2280 H 207.443 0.676589 1.40897 0
M  V30 2281 H 208.178 -1.32922 2.95808 0
M  V30 2282 H 207.963 0.163393 3.91759 0
M  V30 2283 H 209.453 -0.810466 4.0966 0
M  V30 2284 N 209.89 -1.43072 0.660911 0
M  V30 2285 C 211.306 -1.56169 0.329173 0
M  V30 2286 C 211.506 -1.64317 -1.16629 0
M  V30 2287 O 210.562 -1.60245 -1.95135 0
M  V30 2288 C 211.875 -2.81873 1.04729 0
M  V30 2289 C 213.423 -2.95627 1.02828 0
M  V30 2290 C 213.898 -4.24174 1.72744 0
M  V30 2291 N 215.389 -4.31055 1.69545 0
M  V30 2292 C 216.124 -5.29304 2.20511 0
M  V30 2293 N 215.62 -6.33786 2.79799 0
M  V30 2294 N 217.413 -5.21008 2.10966 0
M  V30 2295 H 209.564 -1.36027 1.63127 0
M  V30 2296 H 211.827 -0.653823 0.686454 0
M  V30 2297 H 211.533 -2.81942 2.10242 0
M  V30 2298 H 211.407 -3.72338 0.603702 0
M  V30 2299 H 213.794 -2.95094 -0.0184742 0
M  V30 2300 H 213.875 -2.06431 1.51063 0
M  V30 2301 H 213.519 -4.25467 2.7738 0
M  V30 2302 H 213.449 -5.1228 1.2197 0
M  V30 2303 H 215.94 -3.56174 1.26288 0
M  V30 2304 H 216.253 -7.05086 3.16344 0
M  V30 2305 H 214.598 -6.34387 2.83863 0
M  V30 2306 H 217.789 -4.38301 1.64347 0
M  V30 2307 H 217.962 -5.97416 2.50993 0
M  V30 2308 N 211.368 -0.403325 -1.52352 0
M  V30 2309 C 212.331 0.413051 -2.25447 0
M  V30 2310 C 213.331 0.978513 -1.276 0
M  V30 2311 O 214.521 0.858305 -1.51587 0
M  V30 2312 C 211.653 1.58087 -3.02029 0
M  V30 2313 H 212.846 -0.227094 -2.99039 0
M  V30 2314 H 210.399 -0.155722 -1.55522 0
M  V30 2315 H 211.134 2.25804 -2.32772 0
M  V30 2316 H 210.919 1.18195 -3.73861 0
M  V30 2317 H 212.409 2.1585 -3.57489 0
M  V30 2318 N 212.846 1.57033 -0.133567 0
M  V30 2319 C 214.093 1.95686 0.520877 0
M  V30 2320 C 214.421 1.0177 1.6575 0
M  V30 2321 O 213.676 0.0443195 1.9565 0
M  V30 2322 C 213.975 3.40674 1.08057 0
M  V30 2323 C 213.641 4.50855 0.0637899 0
M  V30 2324 C 212.303 4.80716 -0.215757 0
M  V30 2325 C 214.655 5.17398 -0.62835 0
M  V30 2326 C 211.983 5.74433 -1.19348 0
M  V30 2327 C 214.335 6.12167 -1.5948 0
M  V30 2328 C 212.999 6.40414 -1.88218 0
M  V30 2329 H 212.269 0.716067 0.190602 0
M  V30 2330 H 214.916 1.9026 -0.217556 0
M  V30 2331 H 213.221 3.42865 1.89606 0
M  V30 2332 H 214.918 3.67902 1.59529 0
M  V30 2333 H 211.508 4.27605 0.291855 0
M  V30 2334 H 215.692 4.94472 -0.425562 0
M  V30 2335 H 210.948 5.94616 -1.42272 0
M  V30 2336 H 215.122 6.6281 -2.13671 0
M  V30 2337 H 212.749 7.12838 -2.64133 0
M  V30 2338 N 214.325 -0.140222 1.56975 0
M  V30 2339 C 215.288 -1.15689 1.97861 0
M  V30 2340 C 216.288 -1.3549 0.865974 0
M  V30 2341 O 217.478 -1.32367 1.13246 0
M  V30 2342 C 214.61 -2.51582 2.30042 0
M  V30 2343 H 215.803 -0.805971 2.88867 0
M  V30 2344 H 213.356 -0.383801 1.51515 0
M  V30 2345 H 214.091 -2.91632 1.41849 0
M  V30 2346 H 213.876 -2.38569 3.11171 0
M  V30 2347 H 215.366 -3.24792 2.62488 0
M  V30 2348 N 215.803 -1.52179 -0.40978 0
M  V30 2349 C 216.733 -1.78435 -1.5061 0
M  V30 2350 C 217.714 -0.635295 -1.57791 0
M  V30 2351 O 218.899 -0.880823 -1.73076 0
M  V30 2352 C 216.029 -1.93444 -2.88439 0
M  V30 2353 C 214.983 -3.09038 -2.96108 0
M  V30 2354 C 214.309 -3.09268 -4.36185 0
M  V30 2355 C 215.609 -4.48508 -2.67652 0
M  V30 2356 H 217.303 -2.70237 -1.28889 0
M  V30 2357 H 214.849 -1.30036 -0.618605 0
M  V30 2358 H 216.802 -2.10394 -3.65119 0
M  V30 2359 H 215.526 -0.983129 -3.11452 0
M  V30 2360 H 214.185 -2.91837 -2.21872 0
M  V30 2361 H 213.833 -2.11861 -4.56206 0
M  V30 2362 H 213.533 -3.86907 -4.42241 0
M  V30 2363 H 215.057 -3.28348 -5.14801 0
M  V30 2364 H 216.471 -4.65918 -3.34056 0
M  V30 2365 H 214.868 -5.28059 -2.85085 0
M  V30 2366 H 215.938 -4.56649 -1.63095 0
M  V30 2367 N 217.281 0.66697 -1.42791 0
M  V30 2368 C 218.527 1.42754 -1.44889 0
M  V30 2369 C 218.882 1.92283 -0.0669755 0
M  V30 2370 O 218.175 1.68494 0.912154 0
M  V30 2371 C 218.369 2.6349 -2.4147 0
M  V30 2372 C 218.198 2.25776 -3.88915 0
M  V30 2373 C 216.968 2.1476 -4.57391 0
M  V30 2374 C 219.166 1.86927 -4.79127 0
M  V30 2375 N 217.148 1.70232 -5.89826 0
M  V30 2376 C 218.519 1.53378 -6.00729 0
M  V30 2377 C 220.574 1.73989 -4.66511 0
M  V30 2378 C 219.277 1.08187 -7.11117 0
M  V30 2379 C 221.303 1.30203 -5.76889 0
M  V30 2380 C 220.665 0.975818 -6.97608 0
M  V30 2381 H 216.764 0.518559 -0.585338 0
M  V30 2382 H 219.348 0.768906 -1.78874 0
M  V30 2383 H 217.519 3.27033 -2.09533 0
M  V30 2384 H 219.251 3.30123 -2.34096 0
M  V30 2385 H 216.006 2.3408 -4.11708 0
M  V30 2386 H 216.43 1.50369 -6.6009 0
M  V30 2387 H 221.072 1.97853 -3.7365 0
M  V30 2388 H 218.79 0.830701 -8.03819 0
M  V30 2389 H 222.376 1.20701 -5.69142 0
M  V30 2390 H 221.256 0.642157 -7.81566 0
M  V30 2391 N 218.759 1.29093 0.90403 0
M  V30 2392 C 219.984 1.19809 1.69294 0
M  V30 2393 C 220.409 -0.238481 1.86582 0
M  V30 2394 O 219.767 -1.1723 1.383 0
M  V30 2395 C 219.815 1.91202 3.05736 0
M  V30 2396 O 218.919 1.22611 3.93752 0
M  V30 2397 H 218.26 0.415385 0.518027 0
M  V30 2398 H 220.79 1.70586 1.12967 0
M  V30 2399 H 220.8 1.99487 3.55906 0
M  V30 2400 H 219.475 2.95692 2.92471 0
M  V30 2401 H 218.052 1.22554 3.52186 0
M  V30 2402 N 220.237 -1.11381 1.11499 0
M  V30 2403 C 221.2 -2.15622 0.777153 0
M  V30 2404 C 222.2 -1.59504 -0.203779 0
M  V30 2405 O 223.39 -1.74188 0.020782 0
M  V30 2406 C 220.522 -3.40556 0.153116 0
M  V30 2407 H 221.715 -2.47021 1.70061 0
M  V30 2408 H 219.268 -1.26577 0.916952 0
M  V30 2409 H 220.003 -3.14767 -0.780536 0
M  V30 2410 H 219.788 -3.8257 0.859238 0
M  V30 2411 H 221.278 -4.17546 -0.0671044 0
M  V30 2412 N 221.715 -0.905404 -1.28997 0
M  V30 2413 C 222.961 -0.535039 -1.95615 0
M  V30 2414 C 223.294 0.917404 -1.71165 0
M  V30 2415 O 222.569 1.65123 -1.02785 0
M  V30 2416 C 222.852 -0.834918 -3.50287 0
M  V30 2417 C 222.705 -2.33948 -3.84172 0
M  V30 2418 C 224.024 -0.325318 -4.38896 0
M  V30 2419 H 221.143 -0.195861 -0.710498 0
M  V30 2420 H 223.785 -1.13313 -1.52513 0
M  V30 2421 H 221.935 -0.325904 -3.87131 0
M  V30 2422 H 223.607 -2.91847 -3.57243 0
M  V30 2423 H 221.85 -2.79789 -3.31513 0
M  V30 2424 H 222.521 -2.49987 -4.92149 0
M  V30 2425 H 224.997 -0.761256 -4.09077 0
M  V30 2426 H 223.873 -0.564295 -5.45992 0
M  V30 2427 H 224.134 0.774144 -4.35269 0
M  V30 2428 N 223.193 1.4272 -0.668489 0
M  V30 2429 C 224.421 2.05966 -0.196348 0
M  V30 2430 C 224.836 1.50191 1.14403 0
M  V30 2431 O 224.193 0.639208 1.7094 0
M  V30 2432 C 224.244 3.61314 -0.115815 0
M  V30 2433 O 223.965 4.1502 -1.40322 0
M  V30 2434 C 225.466 4.41663 0.380579 0
M  V30 2435 H 222.686 0.663954 -0.0969829 0
M  V30 2436 H 225.23 1.82966 -0.913446 0
M  V30 2437 H 223.385 3.83448 0.551931 0
M  V30 2438 H 223.799 5.08832 -1.27243 0
M  V30 2439 H 225.273 5.5065 0.385848 0
M  V30 2440 H 225.75 4.15792 1.41471 0
M  V30 2441 H 226.356 4.24534 -0.255209 0
M  V30 2442 N 224.671 0.411399 1.52136 0
M  V30 2443 C 226.082 -0.0576826 1.86611 0
M  V30 2444 C 226.433 -1.44238 1.33003 0
M  V30 2445 O 225.558 -2.05759 0.670228 0
M  V30 2446 C 226.153 -0.111448 3.38617 0
M  V30 2447 C 224.712 -0.52487 3.72723 0
M  V30 2448 C 223.859 0.299176 2.75681 0
M  V30 2449 H 226.81 0.628368 1.4573 0
M  V30 2450 H 226.831 -0.926252 3.69054 0
M  V30 2451 H 226.343 0.896488 3.77604 0
M  V30 2452 H 224.444 -1.53936 3.39315 0
M  V30 2453 H 224.557 -0.267681 4.78352 0
M  V30 2454 H 222.921 -0.238814 2.53578 0
M  V30 2455 H 223.704 1.3055 3.17508 0
M  V30 2456 N 226.149 -1.5696 0.141893 0
M  V30 2457 C 227.079 -2.19516 -0.795936 0
M  V30 2458 C 228.06 -1.14187 -1.26077 0
M  V30 2459 O 229.245 -1.42511 -1.31925 0
M  V30 2460 C 226.375 -2.81272 -2.03723 0
M  V30 2461 C 225.329 -3.92384 -1.70936 0
M  V30 2462 C 224.655 -4.41052 -3.02287 0
M  V30 2463 C 225.955 -5.13403 -0.959954 0
M  V30 2464 H 227.649 -2.98138 -0.274596 0
M  V30 2465 H 225.195 -1.43406 -0.130636 0
M  V30 2466 H 227.148 -3.237 -2.69808 0
M  V30 2467 H 225.872 -1.99973 -2.58221 0
M  V30 2468 H 224.531 -3.50566 -1.07232 0
M  V30 2469 H 224.179 -3.56582 -3.54765 0
M  V30 2470 H 223.879 -5.15993 -2.81114 0
M  V30 2471 H 225.403 -4.86146 -3.69451 0
M  V30 2472 H 226.817 -5.52706 -1.52279 0
M  V30 2473 H 225.214 -5.94073 -0.848357 0
M  V30 2474 H 226.284 -4.84875 0.0492434 0
M  V30 2475 N 227.627 0.131896 -1.57047 0
M  V30 2476 C 228.855 0.856461 -1.88341 0
M  V30 2477 C 229.27 1.74042 -0.731757 0
M  V30 2478 O 228.627 1.80051 0.297945 0
M  V30 2479 C 228.678 1.70064 -3.18999 0
M  V30 2480 O 228.399 0.852278 -4.2973 0
M  V30 2481 C 229.9 2.53148 -3.63911 0
M  V30 2482 H 227.12 0.246885 -0.62393 0
M  V30 2483 H 229.664 0.120152 -2.04147 0
M  V30 2484 H 227.819 2.38984 -3.04902 0
M  V30 2485 H 228.233 1.43329 -5.04537 0
M  V30 2486 H 229.707 3.07931 -4.58129 0
M  V30 2487 H 230.184 3.29901 -2.89935 0
M  V30 2488 H 230.79 1.89492 -3.80753 0
M  V30 2489 N 229.106 1.52395 0.401703 0
M  V30 2490 C 230.353 1.66817 1.14796 0
M  V30 2491 C 230.681 0.401772 1.90305 0
M  V30 2492 O 229.936 -0.615487 1.85769 0
M  V30 2493 C 230.235 2.84578 2.16217 0
M  V30 2494 C 229.901 4.22513 1.5746 0
M  V30 2495 C 228.563 4.60029 1.41161 0
M  V30 2496 C 230.915 5.0844 1.14622 0
M  V30 2497 C 228.243 5.81144 0.80552 0
M  V30 2498 C 230.595 6.30167 0.55428 0
M  V30 2499 C 229.259 6.66426 0.378482 0
M  V30 2500 H 228.529 0.610428 0.420069 0
M  V30 2501 H 231.176 1.86512 0.434212 0
M  V30 2502 H 229.481 2.59248 2.93764 0
M  V30 2503 H 231.178 2.92933 2.73845 0
M  V30 2504 H 227.768 3.92953 1.71132 0
M  V30 2505 H 231.952 4.80034 1.26021 0
M  V30 2506 H 227.208 6.07855 0.657399 0
M  V30 2507 H 231.382 6.96071 0.213983 0
M  V30 2508 H 229.009 7.60143 -0.0932606 0
M  V30 2509 N 230.584 -0.659388 1.43143 0
M  V30 2510 C 231.812 -1.44723 1.47861 0
M  V30 2511 C 232.227 -1.88563 0.0945886 0
M  V30 2512 O 231.584 -1.59108 -0.893915 0
M  V30 2513 C 231.635 -2.68627 2.41913 0
M  V30 2514 O 231.356 -2.26623 3.74932 0
M  V30 2515 C 232.857 -3.62045 2.55809 0
M  V30 2516 H 230.077 -0.444801 0.502387 0
M  V30 2517 H 232.621 -0.808916 1.87821 0
M  V30 2518 H 230.776 -3.28613 2.05164 0
M  V30 2519 H 231.19 -3.06745 4.2545 0
M  V30 2520 H 232.664 -4.45666 3.25708 0
M  V30 2521 H 233.141 -4.08981 1.60099 0
M  V30 2522 H 233.747 -3.07944 2.93344 0
M  V30 2523 N 232.062 -1.29571 -0.897171 0
M  V30 2524 C 233.478 -1.07637 -1.17841 0
M  V30 2525 C 233.678 0.170713 -2.00776 0
M  V30 2526 O 232.734 0.867768 -2.3712 0
M  V30 2527 C 234.047 -2.3332 -1.8969 0
M  V30 2528 C 235.595 -2.38664 -2.02505 0
M  V30 2529 C 236.07 -3.64157 -2.77765 0
M  V30 2530 N 237.561 -3.64894 -2.85318 0
M  V30 2531 C 238.296 -4.58679 -3.44094 0
M  V30 2532 N 237.792 -5.62799 -4.04017 0
M  V30 2533 N 239.585 -4.46245 -3.41793 0
M  V30 2534 H 231.736 -2.09598 -0.343883 0
M  V30 2535 H 233.999 -0.923333 -0.214848 0
M  V30 2536 H 233.705 -3.24262 -1.36187 0
M  V30 2537 H 233.579 -2.41025 -2.9015 0
M  V30 2538 H 235.966 -1.48208 -2.55183 0
M  V30 2539 H 236.047 -2.34943 -1.01171 0
M  V30 2540 H 235.691 -4.54965 -2.25763 0
M  V30 2541 H 235.621 -3.65137 -3.7945 0
M  V30 2542 H 238.112 -2.89613 -2.42761 0
M  V30 2543 H 238.425 -6.3048 -4.46895 0
M  V30 2544 H 236.77 -5.66605 -4.02472 0
M  V30 2545 H 239.961 -3.64094 -2.94199 0
M  V30 2546 H 240.134 -5.19518 -3.87304 0
M  V30 2547 N 233.54 1.10788 -1.12088 0
M  V30 2548 C 234.786 1.82942 -0.875226 0
M  V30 2549 C 235.119 1.84779 0.597538 0
M  V30 2550 O 234.394 1.30578 1.44152 0
M  V30 2551 C 234.677 3.29789 -1.44606 0
M  V30 2552 C 234.53 3.36307 -2.98693 0
M  V30 2553 C 235.849 4.26064 -1.10261 0
M  V30 2554 H 232.968 0.664195 -0.319397 0
M  V30 2555 H 235.61 1.29867 -1.38689 0
M  V30 2556 H 233.76 3.75118 -1.01089 0
M  V30 2557 H 235.432 2.99487 -3.50864 0
M  V30 2558 H 233.675 2.76318 -3.34411 0
M  V30 2559 H 234.346 4.39694 -3.33726 0
M  V30 2560 H 236.822 3.88951 -1.4784 0
M  V30 2561 H 235.698 5.27183 -1.52869 0
M  V30 2562 H 235.959 4.42098 -0.0142953 0
M  V30 2563 N 235.018 0.912232 1.28515 0
M  V30 2564 C 236.248 0.559604 1.98877 0
M  V30 2565 C 236.656 -0.863113 1.68366 0
M  V30 2566 O 235.999 -1.58304 0.931969 0
M  V30 2567 C 236.061 0.68703 3.52874 0
M  V30 2568 C 235.725 2.07901 4.06972 0
M  V30 2569 C 236.722 3.05157 4.20922 0
M  V30 2570 C 234.407 2.39178 4.417 0
M  V30 2571 C 236.401 4.31806 4.68852 0
M  V30 2572 C 234.088 3.66068 4.89324 0
M  V30 2573 C 235.086 4.62195 5.02856 0
M  V30 2574 O 234.774 5.86829 5.49442 0
M  V30 2575 H 234.506 0.212191 0.641834 0
M  V30 2576 H 237.06 1.22712 1.64715 0
M  V30 2577 H 235.29 -0.0375486 3.86682 0
M  V30 2578 H 236.979 0.341727 4.04459 0
M  V30 2579 H 237.745 2.82311 3.94367 0
M  V30 2580 H 233.624 1.65109 4.30418 0
M  V30 2581 H 237.168 5.06842 4.79329 0
M  V30 2582 H 233.065 3.88739 5.15318 0
M  V30 2583 H 233.833 5.89597 5.6773 0
M  V30 2584 N 236.496 -1.42363 0.676048 0
M  V30 2585 C 237.721 -2.06377 0.205705 0
M  V30 2586 C 238.146 -1.50463 -1.12883 0
M  V30 2587 O 237.504 -0.623619 -1.70237 0
M  V30 2588 C 237.552 -3.60277 0.152655 0
M  V30 2589 O 236.656 -4.02935 -0.87845 0
M  V30 2590 H 235.997 -0.655588 0.105359 0
M  V30 2591 H 238.527 -1.82475 0.925412 0
M  V30 2592 H 238.537 -4.07993 -0.0230675 0
M  V30 2593 H 237.212 -4.00346 1.12675 0
M  V30 2594 H 235.789 -3.66764 -0.673668 0
M  V30 2595 N 237.974 -0.419461 -1.51915 0
M  V30 2596 C 239.39 -0.0708431 -1.59443 0
M  V30 2597 C 239.59 1.41796 -1.43164 0
M  V30 2598 O 238.646 2.18596 -1.26381 0
M  V30 2599 C 239.959 -0.574991 -2.95151 0
M  V30 2600 C 241.507 -0.533867 -3.08413 0
M  V30 2601 C 241.982 -1.01469 -4.46618 0
M  V30 2602 N 243.473 -0.971939 -4.52888 0
M  V30 2603 C 244.208 -1.31505 -5.58116 0
M  V30 2604 N 243.704 -1.73014 -6.70849 0
M  V30 2605 N 245.497 -1.23436 -5.48379 0
M  V30 2606 H 237.648 -1.38836 -1.60743 0
M  V30 2607 H 239.911 -0.570998 -0.756747 0
M  V30 2608 H 239.617 -1.61597 -3.12377 0
M  V30 2609 H 239.491 0.00979777 -3.77199 0
M  V30 2610 H 241.878 0.498086 -2.90866 0
M  V30 2611 H 241.959 -1.15484 -2.28248 0
M  V30 2612 H 241.603 -2.04502 -4.6491 0
M  V30 2613 H 241.533 -0.370433 -5.25295 0
M  V30 2614 H 244.024 -0.666893 -3.71969 0
M  V30 2615 H 244.337 -1.97479 -7.47143 0
M  V30 2616 H 242.682 -1.76926 -6.72103 0
M  V30 2617 H 245.873 -0.908869 -4.59192 0
M  V30 2618 H 246.046 -1.50506 -6.30279 0
M  V30 2619 N 239.452 1.56882 -0.150215 0
M  V30 2620 C 240.729 1.87844 0.545327 0
M  V30 2621 C 241.109 1.0567 1.82749 0
M  V30 2622 O 240.457 0.144442 2.28043 0
M  V30 2623 C 240.667 3.39526 0.80767 0
M  V30 2624 C 242.015 4.08814 1.14703 0
M  V30 2625 O 243.039 3.44723 0.896917 0
M  V30 2626 O 241.898 5.22004 1.61784 0
M  V30 2627 H 238.992 0.778677 0.278553 0
M  V30 2628 H 241.538 1.68666 -0.187068 0
M  V30 2629 H 240.31 3.91173 -0.0996096 0
M  V30 2630 H 239.933 3.64243 1.59413 0
M  V30 2631 N 240.93 -0.123565 1.57115 0
M  V30 2632 C 241.893 -1.13583 1.99076 0
M  V30 2633 C 242.893 -1.34564 0.880296 0
M  V30 2634 O 244.083 -1.31158 1.14644 0
M  V30 2635 C 241.215 -2.49128 2.32698 0
M  V30 2636 H 242.408 -0.775287 2.89706 0
M  V30 2637 H 239.961 -0.36771 1.51913 0
M  V30 2638 H 240.696 -2.90111 1.44934 0
M  V30 2639 H 240.481 -2.35255 3.13684 0
M  V30 2640 H 241.971 -3.2199 2.65918 0
M  V30 2641 N 242.408 -1.52605 -0.393616 0
M  V30 2642 C 243.685 -1.58001 -1.15304 0
M  V30 2643 C 244.065 -0.370385 -2.07825 0
M  V30 2644 O 243.413 0.641638 -2.19306 0
M  V30 2645 C 243.623 -2.91652 -1.91677 0
M  V30 2646 C 244.971 -3.4522 -2.47201 0
M  V30 2647 O 245.995 -2.93495 -2.01839 0
M  V30 2648 O 244.854 -4.35579 -3.3005 0
M  V30 2649 H 241.948 -0.637068 -0.527327 0
M  V30 2650 H 244.494 -1.64939 -0.399141 0
M  V30 2651 H 243.266 -3.71136 -1.23992 0
M  V30 2652 H 242.889 -2.88077 -2.74039 0
M  V30 2653 N 243.887 0.651787 -1.4349 0
M  V30 2654 C 245.136 1.40754 -1.44469 0
M  V30 2655 C 245.449 1.95463 -0.0731845 0
M  V30 2656 O 246.655 2.71471 0.0395721 0
M  V30 2657 C 245.111 2.54735 -2.5424 0
M  V30 2658 C 244.719 2.06628 -3.97504 0
M  V30 2659 C 246.463 3.32092 -2.64414 0
M  V30 2660 C 244.37 3.17829 -4.98737 0
M  V30 2661 H 243.3 0.528862 -0.53742 0
M  V30 2662 H 245.951 0.703365 -1.69485 0
M  V30 2663 H 244.333 3.2763 -2.22428 0
M  V30 2664 H 245.507 1.40734 -4.38783 0
M  V30 2665 H 243.822 1.42146 -3.91387 0
M  V30 2666 H 246.419 4.14952 -3.37223 0
M  V30 2667 H 246.762 3.80217 -1.69532 0
M  V30 2668 H 247.295 2.66279 -2.95534 0
M  V30 2669 H 244.034 2.74671 -5.95177 0
M  V30 2670 H 243.554 3.82429 -4.62069 0
M  V30 2671 H 245.233 3.82937 -5.21505 0
M  V30 2672 N 245.365 1.30045 0.890287 0
M  V30 2673 C 246.611 1.18737 1.64406 0
M  V30 2674 C 246.944 -0.258525 1.92472 0
M  V30 2675 O 246.219 -1.18562 1.54186 0
M  V30 2676 C 246.502 2.01087 2.98724 0
M  V30 2677 C 246.355 3.53867 2.77665 0
M  V30 2678 C 247.674 1.84457 3.9958 0
M  V30 2679 H 244.793 0.432698 0.596608 0
M  V30 2680 H 247.435 1.5962 1.0306 0
M  V30 2681 H 245.585 1.66349 3.51084 0
M  V30 2682 H 247.257 3.98637 2.32133 0
M  V30 2683 H 245.5 3.78318 2.12269 0
M  V30 2684 H 246.171 4.06772 3.7315 0
M  V30 2685 H 248.647 2.14817 3.56361 0
M  V30 2686 H 247.523 2.44411 4.91482 0
M  V30 2687 H 247.784 0.802276 4.3476 0
M  V30 2688 N 246.843 -1.10192 1.12674 0
M  V30 2689 C 248.092 -1.81573 0.8783 0
M  V30 2690 C 248.405 -1.86249 -0.597557 0
M  V30 2691 O 249.611 -2.5386 -0.962681 0
M  V30 2692 C 248.067 -3.26149 1.52167 0
M  V30 2693 C 247.675 -3.29763 3.03249 0
M  V30 2694 C 249.419 -4.0234 1.3536 0
M  V30 2695 C 247.326 -4.68815 3.60508 0
M  V30 2696 H 246.256 -0.680394 0.324931 0
M  V30 2697 H 248.907 -1.23902 1.35353 0
M  V30 2698 H 247.289 -3.83832 0.974104 0
M  V30 2699 H 248.463 -2.8189 3.6452 0
M  V30 2700 H 246.778 -2.67059 3.19481 0
M  V30 2701 H 249.375 -5.05058 1.75559 0
M  V30 2702 H 249.718 -4.15235 0.297554 0
M  V30 2703 H 250.251 -3.51079 1.87052 0
M  V30 2704 H 246.99 -4.61121 4.65884 0
M  V30 2705 H 246.51 -5.17045 3.04014 0
M  V30 2706 H 248.189 -5.37785 3.59717 0
M  V30 2707 N 248.321 -0.919034 -1.28029 0
M  V30 2708 C 249.253 -0.368762 -2.26214 0
M  V30 2709 C 250.266 0.495716 -1.55069 0
M  V30 2710 O 251.455 0.30974 -1.75792 0
M  V30 2711 C 248.555 0.491049 -3.35324 0
M  V30 2712 C 247.728 -0.352133 -4.3598 0
M  V30 2713 C 246.787 0.443622 -5.24327 0
M  V30 2714 O 245.813 -0.14566 -5.69014 0
M  V30 2715 N 247.015 1.74545 -5.53637 0
M  V30 2716 H 249.78 -1.21273 -2.74068 0
M  V30 2717 H 247.341 -0.785541 -1.41566 0
M  V30 2718 H 249.333 1.03026 -3.91366 0
M  V30 2719 H 247.903 1.23574 -2.87138 0
M  V30 2720 H 247.123 -1.07269 -3.79324 0
M  V30 2721 H 248.411 -0.928883 -5.00249 0
M  V30 2722 H 247.809 2.24666 -5.19174 0
M  V30 2723 H 246.366 2.23138 -6.12416 0
M  V30 2724 N 249.799 1.42003 -0.683588 0
M  V30 2725 C 251.046 2.01413 -0.209514 0
M  V30 2726 C 251.374 1.54088 1.1869 0
M  V30 2727 O 250.629 0.737591 1.81268 0
M  V30 2728 C 250.928 3.56827 -0.202357 0
M  V30 2729 C 250.594 4.23617 -1.54464 0
M  V30 2730 C 249.256 4.41577 -1.91215 0
M  V30 2731 C 251.608 4.61178 -2.42826 0
M  V30 2732 C 248.936 4.9437 -3.15935 0
M  V30 2733 C 251.288 5.15355 -3.66867 0
M  V30 2734 C 249.952 5.31528 -4.03776 0
M  V30 2735 H 249.222 0.737023 -0.0766668 0
M  V30 2736 H 251.869 1.70067 -0.880312 0
M  V30 2737 H 250.174 3.87892 0.551969 0
M  V30 2738 H 251.871 4.00588 0.181793 0
M  V30 2739 H 248.461 4.10004 -1.24877 0
M  V30 2740 H 252.645 4.46968 -2.15717 0
M  V30 2741 H 247.901 5.05076 -3.44541 0
M  V30 2742 H 252.075 5.43402 -4.35531 0
M  V30 2743 H 249.702 5.72199 -5.00492 0
M  V30 2744 N 251.277 0.427512 1.51691 0
M  V30 2745 C 252.525 -0.141948 2.01601 0
M  V30 2746 C 252.846 -1.44067 1.31414 0
M  V30 2747 O 252.116 -1.90763 0.445658 0
M  V30 2748 H 250.696 -0.0554468 0.744939 0
M  V30 2749 H 253.358 0.567968 1.86441 0
M  V30 2750 H 252.454 -0.324913 3.10404 0
M  V30 2751 N 252.755 -1.56801 0.158532 0
M  V30 2752 C 254.001 -1.96781 -0.490405 0
M  V30 2753 C 254.334 -1.04397 -1.63753 0
M  V30 2754 O 253.609 -0.0885805 -1.94298 0
M  V30 2755 C 253.892 -3.4635 -0.985594 0
M  V30 2756 C 253.745 -4.49512 0.160824 0
M  V30 2757 C 255.064 -3.98697 -1.86355 0
M  V30 2758 H 252.183 -0.715482 -0.176788 0
M  V30 2759 H 254.825 -1.88451 0.242088 0
M  V30 2760 H 252.975 -3.53579 -1.60978 0
M  V30 2761 H 254.647 -4.54353 0.797537 0
M  V30 2762 H 252.89 -4.26013 0.818256 0
M  V30 2763 H 253.561 -5.51531 -0.227569 0
M  V30 2764 H 256.037 -3.94019 -1.33746 0
M  V30 2765 H 254.913 -5.03792 -2.17909 0
M  V30 2766 H 255.174 -3.41744 -2.8047 0
M  V30 2767 N 254.233 0.115231 -1.57178 0
M  V30 2768 C 255.196 1.12526 -1.99676 0
M  V30 2769 C 256.196 1.34095 -0.88742 0
M  V30 2770 O 257.386 1.30548 -1.15337 0
M  V30 2771 C 254.518 2.4789 -2.34015 0
M  V30 2772 H 255.711 0.759912 -2.90113 0
M  V30 2773 H 253.264 0.359648 -1.52106 0
M  V30 2774 H 253.999 2.89339 -1.4647 0
M  V30 2775 H 253.784 2.33588 -3.14927 0
M  V30 2776 H 255.274 3.20575 -2.67622 0
M  V30 2777 N 255.711 1.52812 0.385517 0
M  V30 2778 C 256.621 1.80766 1.49535 0
M  V30 2779 C 257.637 0.694651 1.59532 0
M  V30 2780 O 258.813 0.982611 1.75803 0
M  V30 2781 C 255.878 1.97381 2.85029 0
M  V30 2782 C 254.939 3.21295 2.84724 0
M  V30 2783 C 254.172 3.37108 4.13756 0
M  V30 2784 O 254.395 2.5765 5.08893 0
M  V30 2785 O 253.329 4.30378 4.20783 0
M  V30 2786 H 257.155 2.75015 1.28842 0
M  V30 2787 H 254.74 1.37946 0.573697 0
M  V30 2788 H 256.622 2.09996 3.65349 0
M  V30 2789 H 255.297 1.06322 3.05741 0
M  V30 2790 H 254.204 3.1412 2.03174 0
M  V30 2791 H 255.537 4.12212 2.68965 0
M  V30 2792 N 257.189 -0.644168 1.43834 0
M  V30 2793 C 258.139 -1.7501 1.46135 0
M  V30 2794 C 259.123 -1.57507 0.328685 0
M  V30 2795 O 260.315 -1.67465 0.5731 0
M  V30 2796 C 257.444 -3.13641 1.39585 0
M  V30 2797 C 256.53 -3.3666 2.57916 0
M  V30 2798 N 256.921 -3.30107 3.83227 0
M  V30 2799 C 255.219 -3.67411 2.52834 0
M  V30 2800 C 255.92 -3.53456 4.61999 0
M  V30 2801 N 254.896 -3.75705 3.9287 0
M  V30 2802 H 258.698 -1.68382 2.40883 0
M  V30 2803 H 256.212 -0.846169 1.38614 0
M  V30 2804 H 258.209 -3.92933 1.39317 0
M  V30 2805 H 256.869 -3.21444 0.45865 0
M  V30 2806 H 257.88 -3.09316 4.15384 0
M  V30 2807 H 254.557 -3.82275 1.67845 0
M  V30 2808 H 255.947 -3.54093 5.71024 0
M  V30 2809 N 258.668 -1.30515 -0.883378 0
M  V30 2810 C 259.916 -1.19194 -1.63209 0
M  V30 2811 C 260.237 0.253205 -1.93349 0
M  V30 2812 O 259.507 1.17025 -1.57105 0
M  V30 2813 H 258.087 -0.438148 -0.605009 0
M  V30 2814 H 260.749 -1.63663 -1.05832 0
M  V30 2815 H 259.845 -1.75396 -2.58153 0
M  V30 2816 N 260.146 1.09593 -1.13257 0
M  V30 2817 C 261.423 1.78293 -0.804432 0
M  V30 2818 C 261.803 1.99004 0.70431 0
M  V30 2819 O 261.151 1.59007 1.641 0
M  V30 2820 C 261.361 3.10707 -1.5894 0
M  V30 2821 C 262.709 3.85443 -1.78099 0
M  V30 2822 O 263.733 3.20454 -1.55525 0
M  V30 2823 O 262.592 5.02108 -2.15753 0
M  V30 2824 H 259.686 0.773156 -0.293528 0
M  V30 2825 H 262.232 1.16164 -1.23709 0
M  V30 2826 H 261.004 2.91106 -2.61482 0
M  V30 2827 H 260.627 3.80558 -1.15157 0
M  V30 2828 N 261.624 0.925811 1.2754 0
M  V30 2829 C 262.872 0.564138 1.94067 0
M  V30 2830 C 263.193 -0.897188 1.73134 0
M  V30 2831 O 262.463 -1.63573 1.07799 0
M  V30 2832 H 261.043 0.205645 0.718136 0
M  V30 2833 H 263.705 1.1778 1.55287 0
M  V30 2834 H 262.801 0.76881 3.02483 0
M  V30 2835 N 263.102 -1.41638 0.69111 0
M  V30 2836 C 264.332 -2.0533 0.228758 0
M  V30 2837 C 264.74 -1.52089 -1.12541 0
M  V30 2838 O 264.083 -0.662145 -1.71351 0
M  V30 2839 C 264.145 -3.59349 0.10407 0
M  V30 2840 C 263.809 -4.35362 1.38956 0
M  V30 2841 C 264.806 -4.64942 2.32648 0
M  V30 2842 C 262.491 -4.74714 1.64169 0
M  V30 2843 C 264.485 -5.32828 3.49818 0
M  V30 2844 C 262.172 -5.42338 2.81625 0
M  V30 2845 C 263.17 -5.71322 3.74273 0
M  V30 2846 O 262.858 -6.37554 4.89673 0
M  V30 2847 H 262.59 -0.667796 0.104997 0
M  V30 2848 H 265.144 -1.82477 0.942938 0
M  V30 2849 H 263.374 -3.80924 -0.665839 0
M  V30 2850 H 265.063 -4.04633 -0.320519 0
M  V30 2851 H 265.829 -4.35025 2.14425 0
M  V30 2852 H 261.708 -4.51538 0.929202 0
M  V30 2853 H 265.252 -5.55368 4.22152 0
M  V30 2854 H 261.149 -5.71673 2.99768 0
M  V30 2855 H 261.917 -6.56049 4.8943 0
M  V30 2856 N 264.58 -0.43555 -1.51462 0
M  V30 2857 C 265.991 0.0279871 -1.86679 0
M  V30 2858 C 266.342 1.42104 -1.35281 0
M  V30 2859 O 265.467 2.04667 -0.702878 0
M  V30 2860 C 266.062 0.0575626 -3.38751 0
M  V30 2861 C 264.621 0.465507 -3.7351 0
M  V30 2862 C 263.768 -0.342996 -2.75171 0
M  V30 2863 H 266.719 -0.651473 -1.44712 0
M  V30 2864 H 266.74 0.867421 -3.70481 0
M  V30 2865 H 266.252 -0.956448 -3.7613 0
M  V30 2866 H 264.353 1.48519 -3.41721 0
M  V30 2867 H 264.466 0.191546 -4.78717 0
M  V30 2868 H 262.83 0.198442 -2.53926 0
M  V30 2869 H 263.613 -1.35585 -3.15391 0
M  V30 2870 N 266.058 1.56714 -0.166846 0
M  V30 2871 C 267.305 1.96747 0.479252 0
M  V30 2872 C 267.633 1.05263 1.63554 0
M  V30 2873 O 266.888 0.0858098 1.95512 0
M  V30 2874 C 267.187 3.42889 1.00806 0
M  V30 2875 C 266.853 4.50889 -0.0318574 0
M  V30 2876 C 265.515 4.8015 -0.317675 0
M  V30 2877 C 267.867 5.15949 -0.737956 0
M  V30 2878 C 265.195 5.71772 -1.31506 0
M  V30 2879 C 267.547 6.08647 -1.72429 0
M  V30 2880 C 266.211 6.36277 -2.0176 0
M  V30 2881 H 265.481 0.719949 0.175371 0
M  V30 2882 H 268.128 1.89756 -0.257864 0
M  V30 2883 H 266.433 3.4681 1.82291 0
M  V30 2884 H 268.13 3.71203 1.51689 0
M  V30 2885 H 264.72 4.28128 0.201088 0
M  V30 2886 H 268.904 4.93458 -0.530351 0
M  V30 2887 H 264.16 5.91465 -1.54853 0
M  V30 2888 H 268.334 6.58129 -2.27682 0
M  V30 2889 H 265.961 7.07075 -2.79194 0
M  V30 2890 N 267.536 -0.106894 1.57237 0
M  V30 2891 C 268.813 -0.843526 1.76477 0
M  V30 2892 C 269.193 -1.97499 0.745464 0
M  V30 2893 O 268.541 -2.27357 -0.228306 0
M  V30 2894 C 268.751 -1.34903 3.21873 0
M  V30 2895 C 270.099 -1.79654 3.8472 0
M  V30 2896 O 271.123 -1.44554 3.2555 0
M  V30 2897 O 269.982 -2.44515 4.88748 0
M  V30 2898 H 267.076 -0.401468 0.723016 0
M  V30 2899 H 269.622 -0.0896927 1.69463 0
M  V30 2900 H 268.394 -0.53781 3.87586 0
M  V30 2901 H 268.017 -2.16522 3.33473 0
M  V30 2902 N 269.014 -1.53014 -0.377408 0
M  V30 2903 C 270.262 -1.6829 -1.11906 0
M  V30 2904 C 270.583 -0.431206 -1.90173 0
M  V30 2905 O 269.853 0.554595 -1.87886 0
M  V30 2906 H 268.433 -0.620371 -0.416112 0
M  V30 2907 H 271.095 -1.90167 -0.426893 0
M  V30 2908 H 270.191 -2.53862 -1.8155 0
M  V30 2909 N 270.492 0.636531 -1.44174 0
M  V30 2910 C 271.439 1.74875 -1.50624 0
M  V30 2911 C 272.409 1.62275 -0.35442 0
M  V30 2912 O 273.594 1.82276 -0.563908 0
M  V30 2913 C 270.734 3.13102 -1.45125 0
M  V30 2914 C 269.847 3.36717 -2.7064 0
M  V30 2915 C 268.982 4.64885 -2.57013 0
M  V30 2916 C 268.021 4.8166 -3.77717 0
M  V30 2917 N 267.158 6.01101 -3.62798 0
M  V30 2918 H 271.998 1.68697 -2.45653 0
M  V30 2919 H 269.535 0.823004 -1.21922 0
M  V30 2920 H 271.493 3.93034 -1.39929 0
M  V30 2921 H 270.123 3.18308 -0.536671 0
M  V30 2922 H 269.175 2.50763 -2.86046 0
M  V30 2923 H 270.487 3.44993 -3.60252 0
M  V30 2924 H 269.641 5.52969 -2.49619 0
M  V30 2925 H 268.38 4.58957 -1.64953 0
M  V30 2926 H 267.385 3.92007 -3.85501 0
M  V30 2927 H 268.61 4.89406 -4.70807 0
M  V30 2928 H 266.556 5.96273 -2.73486 0
M  V30 2929 H 266.473 6.10409 -4.46023 0
M  V30 2930 H 267.741 6.91761 -3.59286 0
M  V30 2931 N 271.97 1.30982 0.876444 0
M  V30 2932 C 273.247 1.10942 1.61094 0
M  V30 2933 C 273.627 -0.338223 2.08373 0
M  V30 2934 O 272.975 -1.33122 1.85717 0
M  V30 2935 C 273.185 2.11789 2.77392 0
M  V30 2936 C 274.533 2.43965 3.47514 0
M  V30 2937 O 275.557 2.10166 2.87591 0
M  V30 2938 O 274.416 3.01817 4.55597 0
M  V30 2939 H 271.51 0.42667 0.708436 0
M  V30 2940 H 274.056 1.42438 0.922474 0
M  V30 2941 H 272.828 3.09194 2.39823 0
M  V30 2942 H 272.451 1.81161 3.5393 0
M  V30 2943 N 273.449 -1.08991 1.13837 0
M  V30 2944 C 274.697 -1.80899 0.901098 0
M  V30 2945 C 275.018 -1.86356 -0.574134 0
M  V30 2946 O 274.288 -1.35235 -1.41733 0
M  V30 2947 H 272.868 -0.669966 0.330386 0
M  V30 2948 H 275.53 -1.318 1.43578 0
M  V30 2949 H 274.626 -2.83929 1.29578 0
M  V30 2950 N 274.927 -0.932562 -1.27047 0
M  V30 2951 C 275.857 -0.452902 -2.29066 0
M  V30 2952 C 276.838 0.489338 -1.62909 0
M  V30 2953 O 278.023 0.393046 -1.90181 0
M  V30 2954 C 275.153 0.290698 -3.46081 0
M  V30 2955 C 274.107 -0.564168 -4.24265 0
M  V30 2956 C 273.433 0.308886 -5.33807 0
M  V30 2957 C 274.733 -1.83112 -4.89149 0
M  V30 2958 H 276.427 -1.30552 -2.69437 0
M  V30 2959 H 273.973 -0.629201 -1.29526 0
M  V30 2960 H 275.926 0.637233 -4.16554 0
M  V30 2961 H 274.65 1.17738 -3.0464 0
M  V30 2962 H 273.309 -0.893477 -3.55545 0
M  V30 2963 H 272.957 1.19467 -4.88607 0
M  V30 2964 H 272.657 -0.259633 -5.87026 0
M  V30 2965 H 274.181 0.650884 -6.07121 0
M  V30 2966 H 275.595 -1.55236 -5.51883 0
M  V30 2967 H 273.992 -2.34353 -5.52448 0
M  V30 2968 H 275.062 -2.54772 -4.12576 0
M  V30 2969 N 276.405 1.4127 -0.698611 0
M  V30 2970 C 277.335 2.33447 -0.049629 0
M  V30 2971 C 278.316 1.51982 0.763898 0
M  V30 2972 O 279.501 1.80509 0.716257 0
M  V30 2973 C 276.631 3.35828 0.885267 0
M  V30 2974 C 275.585 4.27627 0.178613 0
M  V30 2975 C 274.911 5.20406 1.22807 0
M  V30 2976 C 276.211 5.13459 -0.956933 0
M  V30 2977 H 277.905 2.87966 -0.81951 0
M  V30 2978 H 275.451 1.38461 -0.395538 0
M  V30 2979 H 277.404 3.9924 1.34854 0
M  V30 2980 H 276.128 2.79666 1.68685 0
M  V30 2981 H 274.787 3.65643 -0.26466 0
M  V30 2982 H 274.435 4.60558 2.02226 0
M  V30 2983 H 274.135 5.82661 0.760239 0
M  V30 2984 H 275.659 5.86695 1.69179 0
M  V30 2985 H 277.073 5.70421 -0.573805 0
M  V30 2986 H 275.47 5.8467 -1.35205 0
M  V30 2987 H 276.54 4.50443 -1.79524 0
M  V30 2988 N 277.883 0.443576 1.51229 0
M  V30 2989 C 278.846 -0.353132 2.26463 0
M  V30 2990 C 279.846 -0.944338 1.3015 0
M  V30 2991 O 281.036 -0.817813 1.5381 0
M  V30 2992 C 278.168 -1.50023 3.06114 0
M  V30 2993 H 279.361 0.3063 2.98332 0
M  V30 2994 H 276.914 0.196902 1.55055 0
M  V30 2995 H 277.649 -2.19553 2.38677 0
M  V30 2996 H 277.434 -1.08241 3.76864 0
M  V30 2997 H 278.924 -2.06296 3.63087 0
M  V30 2998 N 279.361 -1.56624 0.175154 0
M  V30 2999 C 280.311 -2.14747 -0.766004 0
M  V30 3000 C 281.295 -1.08275 -1.19018 0
M  V30 3001 O 282.487 -1.34388 -1.15191 0
M  V30 3002 C 279.616 -2.79478 -1.99366 0
M  V30 3003 C 278.702 -3.93114 -1.5913 0
M  V30 3004 N 279.093 -4.97752 -0.89872 0
M  V30 3005 C 277.391 -4.04345 -1.88204 0
M  V30 3006 C 278.092 -5.77473 -0.700012 0
M  V30 3007 N 277.068 -5.29207 -1.24263 0
M  V30 3008 H 280.87 -2.93015 -0.22793 0
M  V30 3009 H 278.384 -1.6238 -0.0253843 0
M  V30 3010 H 280.381 -3.19498 -2.67818 0
M  V30 3011 H 279.041 -2.02692 -2.53665 0
M  V30 3012 H 280.052 -5.14903 -0.556347 0
M  V30 3013 H 276.729 -3.38667 -2.44153 0
M  V30 3014 H 278.119 -6.71728 -0.152047 0
M  V30 3015 N 280.839 0.0985539 -1.57292 0
M  V30 3016 C 281.802 1.10402 -2.00858 0
M  V30 3017 C 282.802 1.33146 -0.901593 0
M  V30 3018 O 283.992 1.29318 -1.16716 0
M  V30 3019 C 281.124 2.45394 -2.36632 0
M  V30 3020 H 282.317 0.729099 -2.90902 0
M  V30 3021 H 279.87 0.343495 -1.52479 0
M  V30 3022 H 280.605 2.87769 -1.49531 0
M  V30 3023 H 280.39 2.30235 -3.17387 0
M  V30 3024 H 281.88 3.17718 -2.71007 0
M  V30 3025 N 282.317 1.53212 0.369288 0
M  V30 3026 C 283.564 1.69215 1.11232 0
M  V30 3027 C 283.892 0.442048 1.8941 0
M  V30 3028 O 283.147 -0.575944 1.87033 0
M  V30 3029 C 283.446 2.89101 2.10132 0
M  V30 3030 C 283.112 4.25758 1.48463 0
M  V30 3031 C 281.774 4.6292 1.31372 0
M  V30 3032 C 284.126 5.10757 1.03811 0
M  V30 3033 C 281.454 5.82722 0.68207 0
M  V30 3034 C 283.806 6.31201 0.420487 0
M  V30 3035 C 282.47 6.67079 0.237038 0
M  V30 3036 H 281.74 0.619201 0.407027 0
M  V30 3037 H 284.387 1.87391 0.394552 0
M  V30 3038 H 282.692 2.65421 2.88199 0
M  V30 3039 H 284.389 2.98676 2.6757 0
M  V30 3040 H 280.979 3.96494 1.62758 0
M  V30 3041 H 285.163 4.82599 1.1581 0
M  V30 3042 H 280.419 6.09113 0.528316 0
M  V30 3043 H 284.593 6.96368 0.0662874 0
M  V30 3044 H 282.22 7.59774 -0.254477 0
M  V30 3045 N 283.795 -0.628877 1.44509 0
M  V30 3046 C 285.206 -1.21054 1.42137 0
M  V30 3047 C 285.557 -1.95715 0.137881 0
M  V30 3048 O 284.682 -2.02554 -0.761645 0
M  V30 3049 C 285.277 -2.20189 2.57493 0
M  V30 3050 C 283.836 -2.73777 2.58308 0
M  V30 3051 C 282.983 -1.48813 2.33987 0
M  V30 3052 H 285.934 -0.41942 1.53057 0
M  V30 3053 H 285.955 -3.02833 2.30375 0
M  V30 3054 H 285.467 -1.6582 3.50892 0
M  V30 3055 H 283.568 -3.32142 1.68856 0
M  V30 3056 H 283.681 -3.19662 3.56865 0
M  V30 3057 H 282.045 -1.77024 1.83124 0
M  V30 3058 H 282.828 -0.963442 3.29504 0
M  V30 3059 N 285.273 -1.31445 -0.869486 0
M  V30 3060 C 286.684 -1.19042 -1.43826 0
M  V30 3061 C 287.035 0.202919 -1.95148 0
M  V30 3062 O 286.16 1.10071 -1.86315 0
M  V30 3063 C 286.755 -2.15499 -2.6143 0
M  V30 3064 C 285.314 -2.07028 -3.14351 0
M  V30 3065 C 284.461 -2.04701 -1.87063 0
M  V30 3066 H 287.412 -1.43489 -0.677984 0
M  V30 3067 H 287.433 -1.74488 -3.38134 0
M  V30 3068 H 286.945 -3.16899 -2.24046 0
M  V30 3069 H 285.046 -1.08825 -3.56354 0
M  V30 3070 H 285.159 -2.96157 -3.766 0
M  V30 3071 H 283.523 -1.49724 -2.06046 0
M  V30 3072 H 284.306 -3.07857 -1.51917 0
M  V30 3073 N 286.751 1.08385 -1.14413 0
M  V30 3074 C 287.999 1.80419 -0.910679 0
M  V30 3075 C 288.32 1.86658 0.564243 0
M  V30 3076 O 287.59 1.35985 1.41014 0
M  V30 3077 H 286.17 0.668204 -0.333934 0
M  V30 3078 H 288.832 1.31037 -1.44275 0
M  V30 3079 H 287.928 2.83238 -1.31082 0
M  V30 3080 N 288.23 0.939286 1.26551 0
M  V30 3081 C 289.641 0.628782 1.75793 0
M  V30 3082 C 289.992 -0.856046 1.7654 0
M  V30 3083 O 289.117 -1.66994 1.3763 0
M  V30 3084 C 289.712 1.13465 3.19235 0
M  V30 3085 C 288.271 0.874601 3.66098 0
M  V30 3086 C 287.418 1.28667 2.45642 0
M  V30 3087 H 290.369 1.1178 1.12654 0
M  V30 3088 H 290.39 0.487609 3.77363 0
M  V30 3089 H 289.902 2.21535 3.1866 0
M  V30 3090 H 288.003 -0.191793 3.72106 0
M  V30 3091 H 288.116 1.50028 4.55004 0
M  V30 3092 H 286.48 0.705109 2.44745 0
M  V30 3093 H 287.263 2.37625 2.47769 0
M  V30 3094 N 289.708 -1.40897 0.706093 0
M  V30 3095 C 290.956 -2.00657 0.241054 0
M  V30 3096 C 291.277 -1.56241 -1.16678 0
M  V30 3097 O 290.547 -0.79765 -1.78926 0
M  V30 3098 H 289.127 -0.742018 0.0861308 0
M  V30 3099 H 291.789 -1.72372 0.909604 0
M  V30 3100 H 290.885 -3.10958 0.266705 0
M  V30 3101 N 291.186 -0.45159 -1.50991 0
M  V30 3102 C 292.435 0.111653 -2.01391 0
M  V30 3103 C 292.748 1.42529 -1.33959 0
M  V30 3104 O 293.954 2.07232 -1.75405 0
M  V30 3105 C 292.41 0.249514 -3.59034 0
M  V30 3106 C 292.018 -1.05453 -4.35412 0
M  V30 3107 C 293.762 0.765762 -4.17536 0
M  V30 3108 C 291.669 -0.881529 -5.84793 0
M  V30 3109 H 290.599 0.0455022 -0.752626 0
M  V30 3110 H 293.25 -0.583524 -1.73975 0
M  V30 3111 H 291.632 1.00803 -3.82955 0
M  V30 3112 H 292.806 -1.82248 -4.23229 0
M  V30 3113 H 291.121 -1.50039 -3.88429 0
M  V30 3114 H 293.718 0.911913 -5.26866 0
M  V30 3115 H 294.061 1.75201 -3.77638 0
M  V30 3116 H 294.594 0.0651744 -3.97747 0
M  V30 3117 H 291.333 -1.84057 -6.29129 0
M  V30 3118 H 290.853 -0.153625 -5.99603 0
M  V30 3119 H 292.532 -0.540363 -6.4474 0
M  V30 3120 N 292.664 1.56529 -0.183458 0
M  V30 3121 C 293.596 2.15747 0.773697 0
M  V30 3122 C 294.609 1.1162 1.1851 0
M  V30 3123 O 295.798 1.3876 1.12285 0
M  V30 3124 C 292.898 2.6952 2.05456 0
M  V30 3125 C 292.071 3.98429 1.8048 0
M  V30 3126 C 291.13 4.37145 2.92901 0
M  V30 3127 O 290.156 5.04791 2.6301 0
M  V30 3128 N 291.358 3.99695 4.2098 0
M  V30 3129 H 294.123 2.98505 0.26736 0
M  V30 3130 H 291.684 1.619 -0.0010878 0
M  V30 3131 H 293.676 2.92412 2.79781 0
M  V30 3132 H 292.246 1.91282 2.47245 0
M  V30 3133 H 291.466 3.8379 0.899947 0
M  V30 3134 H 292.754 4.82597 1.61175 0
M  V30 3135 H 292.152 3.4526 4.48121 0
M  V30 3136 H 290.709 4.27562 4.9197 0
M  V30 3137 N 294.142 -0.090211 1.57342 0
M  V30 3138 C 295.39 -0.791241 1.85967 0
M  V30 3139 C 295.711 -1.7903 0.772859 0
M  V30 3140 O 294.981 -1.94872 -0.200398 0
M  V30 3141 H 293.561 -0.295205 0.686195 0
M  V30 3142 H 296.223 -0.0706782 1.94772 0
M  V30 3143 H 295.319 -1.31882 2.82867 0
M  V30 3144 N 295.62 -1.53406 -0.361157 0
M  V30 3145 C 296.897 -1.60411 -1.11927 0
M  V30 3146 C 297.277 -0.414385 -2.06993 0
M  V30 3147 O 296.625 0.594976 -2.20618 0
M  V30 3148 C 296.835 -2.95652 -1.85448 0
M  V30 3149 C 298.183 -3.50386 -2.39823 0
M  V30 3150 O 299.207 -2.97711 -1.95568 0
M  V30 3151 O 298.066 -4.42482 -3.20737 0
M  V30 3152 H 295.16 -0.64811 -0.513695 0
M  V30 3153 H 297.706 -1.65749 -0.364065 0
M  V30 3154 H 296.478 -3.73682 -1.16091 0
M  V30 3155 H 296.101 -2.93825 -2.67866 0
M  V30 3156 N 297.098 0.621204 -1.44841 0
M  V30 3157 C 298.061 1.71459 -1.521 0
M  V30 3158 C 299.061 1.55696 -0.401933 0
M  V30 3159 O 300.251 1.61011 -0.664925 0
M  V30 3160 C 297.383 3.10624 -1.40447 0
M  V30 3161 H 298.576 1.66394 -2.49506 0
M  V30 3162 H 296.129 0.835745 -1.3208 0
M  V30 3163 H 296.864 3.21277 -0.441737 0
M  V30 3164 H 296.649 3.23473 -2.21602 0
M  V30 3165 H 298.139 3.90293 -1.4853 0
M  V30 3166 N 298.576 1.31904 0.862503 0
M  V30 3167 C 299.526 1.16772 1.95827 0
M  V30 3168 C 300.51 0.0767098 1.60717 0
M  V30 3169 O 301.702 0.302407 1.74398 0
M  V30 3170 C 298.831 0.884858 3.317 0
M  V30 3171 C 297.917 2.0172 3.73055 0
M  V30 3172 N 298.308 3.265 3.86305 0
M  V30 3173 C 296.606 1.91861 4.02623 0
M  V30 3174 C 297.307 4.00616 4.2176 0
M  V30 3175 N 296.283 3.28847 4.32852 0
M  V30 3176 H 300.085 2.11382 2.04193 0
M  V30 3177 H 297.599 1.2357 1.05377 0
M  V30 3178 H 299.596 0.757419 4.09962 0
M  V30 3179 H 298.256 -0.0529448 3.24657 0
M  V30 3180 H 299.267 3.61529 3.70833 0
M  V30 3181 H 295.944 1.05593 4.03926 0
M  V30 3182 H 297.334 5.08182 4.39546 0
M  V30 3183 N 300.054 -1.07777 1.14986 0
M  V30 3184 C 301.301 -1.8029 0.922056 0
M  V30 3185 C 301.629 -1.86531 -0.55105 0
M  V30 3186 O 300.884 -1.34189 -1.42449 0
M  V30 3187 C 301.183 -3.25495 1.47608 0
M  V30 3188 C 300.849 -3.39361 2.96893 0
M  V30 3189 C 299.511 -3.42852 3.37647 0
M  V30 3190 C 301.863 -3.42512 3.92854 0
M  V30 3191 C 299.191 -3.47094 4.73015 0
M  V30 3192 C 301.543 -3.4829 5.28088 0
M  V30 3193 C 300.207 -3.50058 5.68345 0
M  V30 3194 H 299.477 -0.659727 0.337404 0
M  V30 3195 H 302.124 -1.26854 1.43459 0
M  V30 3196 H 300.429 -3.81683 0.88463 0
M  V30 3197 H 302.126 -3.80168 1.27568 0
M  V30 3198 H 298.716 -3.37339 2.64387 0
M  V30 3199 H 302.9 -3.3904 3.62444 0
M  V30 3200 H 298.156 -3.46758 5.03556 0
M  V30 3201 H 302.33 -3.49675 6.02246 0
M  V30 3202 H 299.957 -3.53097 6.73221 0
M  V30 3203 N 301.532 -0.945985 -1.26051 0
M  V30 3204 C 302.809 -0.513816 -1.88731 0
M  V30 3205 C 303.189 1.00872 -1.8544 0
M  V30 3206 O 302.537 1.8708 -1.312 0
M  V30 3207 C 302.747 -1.08062 -3.31849 0
M  V30 3208 C 304.095 -1.1522 -4.08668 0
M  V30 3209 O 305.119 -1.03155 -3.40936 0
M  V30 3210 O 303.978 -1.34044 -5.29806 0
M  V30 3211 H 301.072 -0.168193 -0.809716 0
M  V30 3212 H 303.618 -1.03886 -1.34186 0
M  V30 3213 H 302.39 -2.1241 -3.2863 0
M  V30 3214 H 302.013 -0.538307 -3.93939 0
M  V30 3215 N 303.011 1.40521 -0.713556 0
M  V30 3216 C 304.288 1.94775 -0.17943 0
M  V30 3217 C 304.668 1.65184 1.31444 0
M  V30 3218 O 304.016 0.968429 2.06963 0
M  V30 3219 C 304.226 3.45543 -0.489986 0
M  V30 3220 C 305.574 4.22442 -0.427536 0
M  V30 3221 O 306.598 3.53644 -0.425929 0
M  V30 3222 O 305.457 5.4501 -0.403292 0
M  V30 3223 H 302.551 0.826606 -0.0255192 0
M  V30 3224 H 305.097 1.5014 -0.790949 0
M  V30 3225 H 303.869 3.60432 -1.5233 0
M  V30 3226 H 303.492 3.97311 0.151598 0
M  V30 3227 N 304.489 0.459591 1.5075 0
M  V30 3228 C 305.766 -0.160371 1.94941 0
M  V30 3229 C 306.146 -1.58048 1.39943 0
M  V30 3230 O 305.494 -2.206 0.595629 0
M  V30 3231 C 305.704 -0.115432 3.48809 0
M  V30 3232 C 307.052 -0.310026 4.23467 0
M  V30 3233 O 308.076 -0.192543 3.55679 0
M  V30 3234 O 306.935 -0.546031 5.43765 0
M  V30 3235 H 304.029 -0.117925 0.818549 0
M  V30 3236 H 306.575 0.519169 1.61563 0
M  V30 3237 H 305.347 0.87652 3.81357 0
M  V30 3238 H 304.97 -0.836928 3.88692 0
M  V30 3239 N 305.967 -1.56429 0.191757 0
M  V30 3240 C 306.877 -2.22541 -0.742481 0
M  V30 3241 C 307.893 -1.22342 -1.23727 0
M  V30 3242 O 309.069 -1.55069 -1.28513 0
M  V30 3243 C 306.134 -2.8692 -1.94623 0
M  V30 3244 C 305.195 -4.02378 -1.49633 0
M  V30 3245 C 304.428 -4.63678 -2.6427 0
M  V30 3246 O 304.651 -4.23895 -3.81666 0
M  V30 3247 O 303.585 -5.53202 -2.37174 0
M  V30 3248 H 307.411 -3.02977 -0.209462 0
M  V30 3249 H 304.996 -1.49353 -0.0373832 0
M  V30 3250 H 306.878 -3.27663 -2.64982 0
M  V30 3251 H 305.553 -2.09466 -2.46791 0
M  V30 3252 H 304.46 -3.66265 -0.761636 0
M  V30 3253 H 305.793 -4.81487 -1.02134 0
M  V30 3254 N 307.445 0.0818655 -1.57387 0
M  V30 3255 C 308.375 1.09885 -2.06028 0
M  V30 3256 C 309.356 1.4098 -0.951774 0
M  V30 3257 O 310.541 1.50781 -1.22387 0
M  V30 3258 C 307.671 2.4151 -2.4958 0
M  V30 3259 C 306.625 2.24792 -3.64215 0
M  V30 3260 C 305.951 3.61712 -3.93787 0
M  V30 3261 C 307.251 1.67749 -4.94629 0
M  V30 3262 H 308.945 0.694128 -2.91243 0
M  V30 3263 H 306.491 0.332448 -1.4011 0
M  V30 3264 H 308.444 3.12939 -2.82219 0
M  V30 3265 H 307.168 2.83943 -1.61381 0
M  V30 3266 H 305.827 1.55807 -3.31843 0
M  V30 3267 H 305.475 4.01697 -3.02735 0
M  V30 3268 H 305.175 3.51368 -4.70971 0
M  V30 3269 H 306.699 4.34587 -4.28913 0
M  V30 3270 H 308.113 2.29032 -5.25564 0
M  V30 3271 H 306.51 1.68128 -5.76067 0
M  V30 3272 H 307.58 0.638059 -4.80684 0
M  V30 3273 N 308.923 1.53595 0.353017 0
M  V30 3274 C 310.169 1.71581 1.09232 0
M  V30 3275 C 310.524 0.468328 1.86613 0
M  V30 3276 O 309.817 -0.538911 1.83865 0
M  V30 3277 C 310.011 2.91313 2.07054 0
M  V30 3278 C 309.84 4.27585 1.39287 0
M  V30 3279 C 308.61 4.92233 1.1417 0
M  V30 3280 C 310.808 5.07656 0.824005 0
M  V30 3281 N 308.79 6.124 0.428841 0
M  V30 3282 C 310.161 6.19531 0.241195 0
M  V30 3283 C 312.216 4.92609 0.723922 0
M  V30 3284 C 310.919 7.18002 -0.431952 0
M  V30 3285 C 312.945 5.91365 0.0645334 0
M  V30 3286 C 312.307 7.02571 -0.507347 0
M  V30 3287 H 308.406 0.680987 0.384422 0
M  V30 3288 H 310.99 1.91013 0.377096 0
M  V30 3289 H 309.161 2.73398 2.75877 0
M  V30 3290 H 310.893 2.98062 2.73753 0
M  V30 3291 H 307.648 4.51612 1.42631 0
M  V30 3292 H 308.072 6.76944 0.0874131 0
M  V30 3293 H 312.714 4.06808 1.15181 0
M  V30 3294 H 310.432 8.03384 -0.871758 0
M  V30 3295 H 314.018 5.81799 -0.0121469 0
M  V30 3296 H 312.898 7.77675 -1.0095 0
M  V30 3297 N 310.401 -0.613514 1.45168 0
M  V30 3298 C 311.626 -1.40437 1.52618 0
M  V30 3299 C 312.051 -1.87438 0.157707 0
M  V30 3300 O 311.409 -1.59791 -0.856537 0
M  V30 3301 C 311.457 -2.58894 2.51011 0
M  V30 3302 O 310.561 -3.59326 2.02382 0
M  V30 3303 H 309.902 -0.419506 0.514695 0
M  V30 3304 H 312.432 -0.747215 1.90467 0
M  V30 3305 H 312.442 -3.06214 2.69624 0
M  V30 3306 H 311.117 -2.24032 3.50403 0
M  V30 3307 H 309.694 -3.18695 1.93618 0
M  V30 3308 N 311.879 -1.3236 -0.855495 0
M  V30 3309 C 312.809 -1.23833 -1.97958 0
M  V30 3310 C 313.79 -0.122361 -1.69659 0
M  V30 3311 O 314.975 -0.30939 -1.9172 0
M  V30 3312 C 312.105 -0.959772 -3.33775 0
M  V30 3313 C 311.059 -2.03689 -3.76424 0
M  V30 3314 C 310.385 -1.61075 -5.09862 0
M  V30 3315 C 311.685 -3.4518 -3.9198 0
M  V30 3316 H 313.379 -2.1788 -2.0535 0
M  V30 3317 H 310.925 -1.04891 -0.986605 0
M  V30 3318 H 312.878 -0.886678 -4.11966 0
M  V30 3319 H 311.602 0.0163404 -3.26596 0
M  V30 3320 H 310.261 -2.10012 -3.00484 0
M  V30 3321 H 309.909 -0.622107 -4.99138 0
M  V30 3322 H 309.609 -2.33143 -5.39368 0
M  V30 3323 H 311.133 -1.55201 -5.90546 0
M  V30 3324 H 312.547 -3.4145 -4.60526 0
M  V30 3325 H 310.944 -4.1559 -4.32903 0
M  V30 3326 H 312.014 -3.84903 -2.94919 0
M  V30 3327 N 313.357 1.07166 -1.15556 0
M  V30 3328 C 314.605 1.79443 -0.929764 0
M  V30 3329 C 314.926 1.87246 0.544414 0
M  V30 3330 O 314.196 1.37473 1.39564 0
M  V30 3331 H 312.776 0.664625 -0.341003 0
M  V30 3332 H 315.438 1.29499 -1.45657 0
M  V30 3333 H 314.534 2.81832 -1.34079 0
M  V30 3334 N 314.835 0.952656 1.25548 0
M  V30 3335 C 315.782 0.47008 2.25962 0
M  V30 3336 C 316.752 -0.476384 1.59122 0
M  V30 3337 O 317.937 -0.39007 1.8677 0
M  V30 3338 C 315.077 -0.247881 3.44209 0
M  V30 3339 C 314.19 0.735591 4.25691 0
M  V30 3340 C 313.325 -0.0047306 5.312 0
M  V30 3341 C 312.364 0.969805 6.04368 0
M  V30 3342 N 311.501 0.260486 7.01617 0
M  V30 3343 H 316.341 1.33126 2.66611 0
M  V30 3344 H 313.878 0.66765 1.31076 0
M  V30 3345 H 315.836 -0.680695 4.1161 0
M  V30 3346 H 314.466 -1.07312 3.0444 0
M  V30 3347 H 313.518 1.28689 3.57971 0
M  V30 3348 H 314.83 1.47934 4.76358 0
M  V30 3349 H 313.984 -0.496275 6.04667 0
M  V30 3350 H 312.723 -0.781282 4.81401 0
M  V30 3351 H 311.728 1.47237 5.29718 0
M  V30 3352 H 312.953 1.74655 6.56256 0
M  V30 3353 H 310.899 -0.497364 6.54112 0
M  V30 3354 H 310.816 0.943362 7.50091 0
M  V30 3355 H 312.084 -0.209587 7.79218 0
M  V30 3356 N 316.313 -1.40141 0.720998 0
M  V30 3357 C 317.561 -2.0039 0.262323 0
M  V30 3358 C 317.882 -1.57469 -1.15015 0
M  V30 3359 O 317.152 -0.816582 -1.78069 0
M  V30 3360 H 315.732 -0.741063 0.093996 0
M  V30 3361 H 318.394 -1.71398 0.927835 0
M  V30 3362 H 317.49 -3.10658 0.299671 0
M  V30 3363 N 317.792 -0.46758 -1.50504 0
M  V30 3364 C 319.038 0.0887532 -2.02606 0
M  V30 3365 C 319.371 1.39686 -1.34913 0
M  V30 3366 O 318.646 1.88644 -0.473694 0
M  V30 3367 C 318.929 0.276206 -3.59039 0
M  V30 3368 C 318.782 -1.05267 -4.37309 0
M  V30 3369 C 320.101 1.03235 -4.27821 0
M  V30 3370 H 317.22 0.0307814 -0.736357 0
M  V30 3371 H 319.862 -0.612485 -1.79857 0
M  V30 3372 H 318.012 0.8735 -3.78553 0
M  V30 3373 H 319.684 -1.68628 -4.29374 0
M  V30 3374 H 317.927 -1.65015 -4.01189 0
M  V30 3375 H 318.598 -0.875197 -5.45018 0
M  V30 3376 H 321.074 0.526111 -4.12761 0
M  V30 3377 H 319.95 1.1323 -5.37094 0
M  V30 3378 H 320.211 2.06806 -3.90748 0
M  V30 3379 N 319.27 1.56325 -0.20005 0
M  V30 3380 C 320.516 1.98012 0.438059 0
M  V30 3381 C 320.849 1.08702 1.60927 0
M  V30 3382 O 320.124 0.140064 1.93995 0
M  V30 3383 C 320.407 3.48841 0.893419 0
M  V30 3384 C 320.26 4.48928 -0.279947 0
M  V30 3385 C 321.579 4.03498 1.75719 0
M  V30 3386 H 318.698 0.719918 0.157757 0
M  V30 3387 H 321.34 1.87743 -0.291968 0
M  V30 3388 H 319.49 3.57723 1.51547 0
M  V30 3389 H 321.162 4.52079 -0.91772 0
M  V30 3390 H 319.405 4.23694 -0.930919 0
M  V30 3391 H 320.076 5.5194 0.0812601 0
M  V30 3392 H 322.552 3.97427 1.23253 0
M  V30 3393 H 321.428 5.09393 2.04476 0
M  V30 3394 H 321.689 3.4906 2.71311 0
M  V30 3395 N 320.748 -0.0735177 1.57428 0
M  V30 3396 C 321.994 -0.774145 1.87443 0
M  V30 3397 C 322.327 -1.77311 0.792103 0
M  V30 3398 O 321.602 -1.93492 -0.197793 0
M  V30 3399 C 321.885 -1.48367 3.28115 0
M  V30 3400 C 321.738 -0.501227 4.46999 0
M  V30 3401 C 323.057 -2.429 3.66998 0
M  V30 3402 H 320.176 -0.279971 0.681752 0
M  V30 3403 H 322.818 -0.0373616 1.89963 0
M  V30 3404 H 320.968 -2.11171 3.26097 0
M  V30 3405 H 322.64 0.121468 4.6114 0
M  V30 3406 H 320.883 0.183593 4.33411 0
M  V30 3407 H 321.554 -1.03526 5.42205 0
M  V30 3408 H 324.03 -1.90175 3.70098 0
M  V30 3409 H 322.906 -2.89549 4.66318 0
M  V30 3410 H 323.167 -3.27628 2.96837 0
M  V30 3411 N 322.226 -1.5378 -0.344866 0
M  V30 3412 C 323.637 -1.62428 -0.920552 0
M  V30 3413 C 323.988 -0.504747 -1.89596 0
M  V30 3414 O 323.113 0.365711 -2.13287 0
M  V30 3415 C 323.708 -2.94419 -1.67639 0
M  V30 3416 C 322.267 -3.05333 -2.20111 0
M  V30 3417 C 321.414 -2.57866 -1.01982 0
M  V30 3418 H 324.365 -1.58222 -0.123042 0
M  V30 3419 H 324.386 -2.83384 -2.53917 0
M  V30 3420 H 323.898 -3.7588 -0.966224 0
M  V30 3421 H 321.999 -2.28502 -2.94308 0
M  V30 3422 H 322.112 -4.10778 -2.46573 0
M  V30 3423 H 320.476 -2.13241 -1.39285 0
M  V30 3424 H 321.259 -3.41765 -0.324308 0
M  V30 3425 N 323.704 0.605807 -1.45491 0
M  V30 3426 C 324.932 1.39136 -1.5313 0
M  V30 3427 C 325.347 1.88082 -0.164507 0
M  V30 3428 O 324.704 1.62316 0.834247 0
M  V30 3429 C 324.755 2.59463 -2.51716 0
M  V30 3430 O 324.476 2.12551 -3.83084 0
M  V30 3431 C 325.977 3.52301 -2.6907 0
M  V30 3432 H 323.197 0.425849 -0.51855 0
M  V30 3433 H 325.741 0.73865 -1.90694 0
M  V30 3434 H 323.896 3.20772 -2.17219 0
M  V30 3435 H 324.31 2.90744 -4.36541 0
M  V30 3436 H 325.784 4.33271 -3.42024 0
M  V30 3437 H 326.261 4.02757 -1.75167 0
M  V30 3438 H 326.867 2.96845 -3.04571 0
M  V30 3439 N 325.182 1.32811 0.848464 0
M  V30 3440 C 326.598 1.11937 1.13764 0
M  V30 3441 C 326.798 -0.0960789 2.01271 0
M  V30 3442 O 325.854 -0.779165 2.40178 0
M  V30 3443 C 327.167 2.402 1.809 0
M  V30 3444 C 328.715 2.46016 1.93508 0
M  V30 3445 C 329.19 3.74215 2.64059 0
M  V30 3446 N 330.681 3.75232 2.71579 0
M  V30 3447 C 331.416 4.71134 3.26833 0
M  V30 3448 N 330.912 5.77406 3.8285 0
M  V30 3449 N 332.705 4.58623 3.24995 0
M  V30 3450 H 324.856 2.1073 0.265855 0
M  V30 3451 H 327.119 0.930671 0.180431 0
M  V30 3452 H 326.825 3.29093 1.24058 0
M  V30 3453 H 326.699 2.51628 2.81004 0
M  V30 3454 H 329.086 1.57577 2.49506 0
M  V30 3455 H 329.167 2.38536 0.923811 0
M  V30 3456 H 328.811 4.63031 2.08722 0
M  V30 3457 H 328.741 3.78968 3.65637 0
M  V30 3458 H 331.232 2.98423 2.31845 0
M  V30 3459 H 331.545 6.46632 4.23187 0
M  V30 3460 H 329.89 5.81152 3.81165 0
M  V30 3461 H 333.081 3.74762 2.80484 0
M  V30 3462 H 333.254 5.33535 3.67756 0
M  V30 3463 N 326.66 -1.06551 1.16123 0
M  V30 3464 C 327.907 -1.79302 0.941126 0
M  V30 3465 C 328.235 -1.87105 -0.531235 0
M  V30 3466 O 327.49 -1.35692 -1.41018 0
M  V30 3467 C 327.789 -3.23911 1.51052 0
M  V30 3468 C 327.455 -3.36193 3.00475 0
M  V30 3469 C 326.117 -3.39252 3.41265 0
M  V30 3470 C 328.469 -3.38326 3.96465 0
M  V30 3471 C 325.797 -3.42057 4.76669 0
M  V30 3472 C 328.149 -3.4267 5.31752 0
M  V30 3473 C 326.813 -3.4401 5.72026 0
M  V30 3474 H 326.083 -0.656111 0.344382 0
M  V30 3475 H 328.73 -1.25325 1.44796 0
M  V30 3476 H 327.035 -3.80723 0.925063 0
M  V30 3477 H 328.732 -3.78793 1.31593 0
M  V30 3478 H 325.322 -3.34516 2.6795 0
M  V30 3479 H 329.506 -3.35176 3.6602 0
M  V30 3480 H 324.762 -3.41398 5.07206 0
M  V30 3481 H 328.936 -3.43268 6.05921 0
M  V30 3482 H 326.563 -3.45937 6.76928 0
M  V30 3483 N 328.138 -0.959301 -1.25041 0
M  V30 3484 C 329.386 -0.615393 -1.92503 0
M  V30 3485 C 329.707 0.850969 -1.75452 0
M  V30 3486 O 328.977 1.60658 -1.12098 0
M  V30 3487 H 327.557 -0.224613 -0.712431 0
M  V30 3488 H 330.219 -1.21855 -1.5211 0
M  V30 3489 H 329.315 -0.848738 -3.00338 0
M  V30 3490 N 329.616 1.39756 -0.72842 0
M  V30 3491 C 330.564 2.32485 -0.0731849 0
M  V30 3492 C 331.558 1.52717 0.733063 0
M  V30 3493 O 332.764 1.68428 0.634988 0
M  V30 3494 H 329.139 0.751984 -0.00486469 0
M  V30 3495 H 331.11 2.85382 -0.871761 0
M  V30 3496 C 329.859 3.37773 0.824908 0
M  V30 3497 H 329.182 3.99227 0.213915 0
M  V30 3498 H 330.622 4.05121 1.25111 0
M  V30 3499 C 329.081 2.74287 1.95622 0
M  V30 3500 O 329.611 2.61618 3.04826 0
M  V30 3501 N 327.817 2.32475 1.74367 0
M  V30 3502 H 327.364 2.4298 0.855494 0
M  V30 3503 H 327.322 1.90337 2.50238 0
M  V30 3504 N 331.094 0.475555 1.50254 0
M  V30 3505 C 332.057 -0.305016 2.27161 0
M  V30 3506 C 333.057 -0.916519 1.32123 0
M  V30 3507 O 334.247 -0.785003 1.5551 0
M  V30 3508 C 331.379 -1.43496 3.09227 0
M  V30 3509 H 332.572 0.369511 2.97615 0
M  V30 3510 H 330.125 0.229747 1.54602 0
M  V30 3511 H 330.86 -2.14441 2.43281 0
M  V30 3512 H 330.645 -1.00223 3.79075 0
M  V30 3513 H 332.135 -1.98548 3.67381 0
M  V30 3514 N 332.573 -1.56217 0.208337 0
M  V30 3515 C 333.85 -1.89739 -0.475234 0
M  V30 3516 C 334.23 -1.1238 -1.78701 0
M  V30 3517 O 333.578 -0.228979 -2.2735 0
M  V30 3518 C 333.788 -3.42289 -0.681101 0
M  V30 3519 C 335.136 -4.12789 -0.994507 0
M  V30 3520 O 336.16 -3.47814 -0.768357 0
M  V30 3521 O 335.019 -5.27649 -1.42299 0
M  V30 3522 H 332.113 -0.788478 -0.249461 0
M  V30 3523 H 334.659 -1.67855 0.249538 0
M  V30 3524 H 333.431 -3.90534 0.244722 0
M  V30 3525 H 333.054 -3.69909 -1.45785 0
M  V30 3526 N 334.051 0.0651679 -1.57465 0
M  V30 3527 C 335.299 0.761555 -1.87202 0
M  V30 3528 C 335.62 1.77778 -0.801243 0
M  V30 3529 O 334.89 1.95166 0.16937 0
M  V30 3530 H 333.47 0.284251 -0.690804 0
M  V30 3531 H 336.132 0.0396827 -1.9486 0
M  V30 3532 H 335.228 1.27365 -2.84929 0
M  V30 3533 N 335.529 1.53961 0.336706 0
M  V30 3534 C 336.492 1.81724 1.39675 0
M  V30 3535 C 337.492 0.688532 1.45313 0
M  V30 3536 O 338.682 0.956829 1.45569 0
M  V30 3537 C 335.814 1.96543 2.78538 0
M  V30 3538 H 337.007 2.76424 1.16318 0
M  V30 3539 H 334.56 1.45478 0.571474 0
M  V30 3540 H 335.295 1.0401 3.07168 0
M  V30 3541 H 335.08 2.78665 2.75841 0
M  V30 3542 H 336.57 2.19516 3.5525 0
M  V30 3543 N 337.007 -0.598083 1.45811 0
M  V30 3544 C 337.97 -1.69018 1.54808 0
M  V30 3545 C 338.97 -1.55037 0.426652 0
M  V30 3546 O 340.16 -1.59932 0.690456 0
M  V30 3547 C 337.292 -3.0835 1.45371 0
M  V30 3548 H 338.485 -1.62403 2.52121 0
M  V30 3549 H 336.038 -0.814626 1.33392 0
M  V30 3550 H 336.773 -3.20534 0.492793 0
M  V30 3551 H 336.558 -3.19907 2.26721 0
M  V30 3552 H 338.048 -3.8788 1.54721 0
M  V30 3553 N 338.485 -1.33259 -0.841409 0
M  V30 3554 C 339.725 -1.25902 -1.61022 0
M  V30 3555 C 340.089 0.173325 -1.91216 0
M  V30 3556 O 341.29 0.370824 -2.6623 0
M  V30 3557 C 339.561 -2.10735 -2.88662 0
M  V30 3558 S 341.12 -2.20541 -3.79351 0
M  V30 3559 H 337.938 -0.447958 -0.552137 0
M  V30 3560 H 340.54 -1.68263 -0.995382 0
M  V30 3561 H 339.244 -3.1384 -2.64448 0
M  V30 3562 H 338.775 -1.69201 -3.55154 0
M  V30 3563 H 340.79 -1.36462 -4.77067 0
M  V30 3564 N 339.963 1.05934 -1.16686 0
M  V30 3565 C 340.913 2.11764 -0.844978 0
M  V30 3566 C 341.897 1.59922 0.177178 0
M  V30 3567 O 343.089 1.76983 -0.0241768 0
M  V30 3568 C 340.218 3.41493 -0.351812 0
M  V30 3569 C 339.304 4.00152 -1.40496 0
M  V30 3570 N 339.695 4.32874 -2.61636 0
M  V30 3571 C 337.993 4.278 -1.26106 0
M  V30 3572 C 338.694 4.79552 -3.29249 0
M  V30 3573 N 337.67 4.79211 -2.56628 0
M  V30 3574 H 341.472 2.34916 -1.76612 0
M  V30 3575 H 338.986 1.23511 -1.05446 0
M  V30 3576 H 340.983 4.16773 -0.102796 0
M  V30 3577 H 339.643 3.19778 0.56322 0
M  V30 3578 H 340.654 4.23109 -2.98663 0
M  V30 3579 H 337.331 4.15511 -0.407081 0
M  V30 3580 H 338.721 5.14045 -4.32675 0
M  V30 3581 N 341.441 0.965919 1.2453 0
M  V30 3582 C 342.688 0.626831 1.92554 0
M  V30 3583 C 343.016 -0.837739 1.75534 0
M  V30 3584 O 342.271 -1.61793 1.10098 0
M  V30 3585 C 342.57 0.945428 3.44669 0
M  V30 3586 C 342.236 2.39785 3.81856 0
M  V30 3587 C 340.898 2.79483 3.91718 0
M  V30 3588 C 343.25 3.34055 4.00071 0
M  V30 3589 C 340.578 4.12496 4.1721 0
M  V30 3590 C 342.93 4.66694 4.27059 0
M  V30 3591 C 341.594 5.06172 4.3514 0
M  V30 3592 H 340.864 0.229374 0.704605 0
M  V30 3593 H 343.511 1.21707 1.4785 0
M  V30 3594 H 341.816 0.272926 3.90848 0
M  V30 3595 H 343.513 0.661484 3.95507 0
M  V30 3596 H 340.103 2.08003 3.74743 0
M  V30 3597 H 344.287 3.04571 3.91855 0
M  V30 3598 H 339.543 4.42709 4.21685 0
M  V30 3599 H 343.717 5.3971 4.40097 0
M  V30 3600 H 341.344 6.09262 4.54646 0
M  V30 3601 N 342.919 -1.39368 0.735821 0
M  V30 3602 C 344.33 -1.83313 0.354015 0
M  V30 3603 C 344.681 -1.61461 -1.11466 0
M  V30 3604 O 343.806 -1.10621 -1.85989 0
M  V30 3605 C 344.401 -3.32781 0.635769 0
M  V30 3606 C 342.96 -3.75142 0.307448 0
M  V30 3607 C 342.107 -2.62358 0.897974 0
M  V30 3608 H 345.058 -1.28349 0.933398 0
M  V30 3609 H 345.079 -3.80388 -0.0921773 0
M  V30 3610 H 344.591 -3.48654 1.70476 0
M  V30 3611 H 342.692 -3.64857 -0.755674 0
M  V30 3612 H 342.805 -4.72532 0.790583 0
M  V30 3613 H 341.169 -2.52624 0.324551 0
M  V30 3614 H 341.952 -2.81036 1.97164 0
M  V30 3615 N 344.397 -0.483516 -1.5 0
M  V30 3616 C 345.644 0.0671597 -2.02389 0
M  V30 3617 C 345.972 1.38597 -1.36459 0
M  V30 3618 O 345.227 1.89634 -0.483458 0
M  V30 3619 C 345.526 0.286226 -3.56252 0
M  V30 3620 C 345.192 -0.952416 -4.40726 0
M  V30 3621 C 343.854 -1.29199 -4.63531 0
M  V30 3622 C 346.206 -1.77655 -4.89988 0
M  V30 3623 C 343.534 -2.45553 -5.32842 0
M  V30 3624 C 345.886 -2.93147 -5.60578 0
M  V30 3625 C 344.55 -3.27505 -5.81633 0
M  V30 3626 H 343.82 0.0245755 -0.740592 0
M  V30 3627 H 346.467 -0.640124 -1.80485 0
M  V30 3628 H 344.772 1.07587 -3.76739 0
M  V30 3629 H 346.469 0.726473 -3.94365 0
M  V30 3630 H 343.059 -0.677881 -4.23205 0
M  V30 3631 H 347.243 -1.52737 -4.72213 0
M  V30 3632 H 342.499 -2.72431 -5.47349 0
M  V30 3633 H 346.673 -3.57344 -5.97727 0
M  V30 3634 H 344.3 -4.1777 -6.35116 0
M  V30 3635 N 345.875 1.56104 -0.216619 0
M  V30 3636 C 347.124 1.97348 0.416744 0
M  V30 3637 C 347.437 1.10715 1.6125 0
M  V30 3638 O 348.643 1.41836 2.31506 0
M  V30 3639 C 347.099 3.51059 0.792835 0
M  V30 3640 C 346.707 4.46387 -0.379828 0
M  V30 3641 C 348.451 4.01026 1.39208 0
M  V30 3642 C 346.358 5.91397 0.0184223 0
M  V30 3643 H 345.288 0.736942 0.159475 0
M  V30 3644 H 347.939 1.80827 -0.31205 0
M  V30 3645 H 346.321 3.63162 1.57891 0
M  V30 3646 H 347.495 4.46029 -1.15737 0
M  V30 3647 H 345.81 4.06734 -0.891979 0
M  V30 3648 H 348.407 5.0686 1.70286 0
M  V30 3649 H 348.75 3.46587 2.30614 0
M  V30 3650 H 349.283 3.92125 0.669537 0
M  V30 3651 H 346.022 6.49807 -0.862002 0
M  V30 3652 H 345.542 5.94961 0.760384 0
M  V30 3653 H 347.221 6.45455 0.446818 0
M  V30 3654 N 347.353 -0.0568162 1.57498 0
M  V30 3655 C 348.6 -0.753104 1.87975 0
M  V30 3656 C 348.928 -1.76815 0.81035 0
M  V30 3657 O 348.183 -1.94756 -0.19199 0
M  V30 3658 C 348.482 -1.48359 3.25153 0
M  V30 3659 C 348.148 -0.60713 4.46794 0
M  V30 3660 C 346.81 -0.365642 4.79809 0
M  V30 3661 C 349.162 -0.000305978 5.212 0
M  V30 3662 C 346.49 0.491905 5.84634 0
M  V30 3663 C 348.842 0.844781 6.26934 0
M  V30 3664 C 347.506 1.096 6.58441 0
M  V30 3665 H 346.776 -0.27558 0.687849 0
M  V30 3666 H 349.423 -0.0135173 1.91495 0
M  V30 3667 H 347.728 -2.29577 3.17492 0
M  V30 3668 H 349.425 -2.02739 3.45974 0
M  V30 3669 H 346.015 -0.805487 4.20963 0
M  V30 3670 H 350.199 -0.173961 4.95995 0
M  V30 3671 H 345.455 0.695131 6.07436 0
M  V30 3672 H 349.629 1.32165 6.83744 0
M  V30 3673 H 347.256 1.76224 7.39492 0
M  V30 3674 N 348.832 -1.54138 -0.328536 0
M  V30 3675 C 349.742 -1.86192 -1.42723 0
M  V30 3676 C 350.758 -0.753382 -1.56844 0
M  V30 3677 O 351.934 -1.04718 -1.72035 0
M  V30 3678 C 348.999 -2.07824 -2.77507 0
M  V30 3679 C 348.06 -3.31641 -2.72603 0
M  V30 3680 C 347.293 -3.52232 -4.00959 0
M  V30 3681 O 347.516 -2.7636 -4.9898 0
M  V30 3682 O 346.45 -4.45699 -4.0452 0
M  V30 3683 H 350.276 -2.79608 -1.18547 0
M  V30 3684 H 347.861 -1.3998 -0.522104 0
M  V30 3685 H 349.743 -2.23411 -3.57303 0
M  V30 3686 H 348.418 -1.17596 -3.01584 0
M  V30 3687 H 347.325 -3.21444 -1.91376 0
M  V30 3688 H 348.658 -4.2191 -2.53481 0
M  V30 3689 N 350.31 0.590341 -1.46126 0
M  V30 3690 C 351.558 1.34616 -1.50742 0
M  V30 3691 C 351.879 1.94363 -0.157486 0
M  V30 3692 O 351.149 1.78136 0.815136 0
M  V30 3693 H 349.729 0.499789 -0.555175 0
M  V30 3694 H 352.391 0.691953 -1.82203 0
M  V30 3695 H 351.487 2.15678 -2.25587 0
M  V30 3696 N 351.788 1.33704 0.83433 0
M  V30 3697 C 353.204 1.13137 1.12571 0
M  V30 3698 C 353.404 -0.0747261 2.01361 0
M  V30 3699 O 352.46 -0.753647 2.4099 0
M  V30 3700 C 353.773 2.42105 1.78342 0
M  V30 3701 C 355.321 2.48054 1.90888 0
M  V30 3702 C 355.796 3.76995 2.60075 0
M  V30 3703 N 357.287 3.78092 2.67584 0
M  V30 3704 C 358.022 4.74574 3.21818 0
M  V30 3705 N 357.518 5.81434 3.76705 0
M  V30 3706 N 359.311 4.62044 3.20112 0
M  V30 3707 H 351.462 2.11 0.243489 0
M  V30 3708 H 353.725 0.932532 0.17055 0
M  V30 3709 H 353.431 3.30391 1.20561 0
M  V30 3710 H 353.305 2.54594 2.7832 0
M  V30 3711 H 355.692 1.60215 2.47821 0
M  V30 3712 H 355.773 2.39502 0.898459 0
M  V30 3713 H 355.417 4.65219 2.03799 0
M  V30 3714 H 355.347 3.82825 3.61597 0
M  V30 3715 H 357.838 3.00865 2.28667 0
M  V30 3716 H 358.151 6.51084 4.16305 0
M  V30 3717 H 356.496 5.85163 3.7498 0
M  V30 3718 H 359.687 3.77716 2.76493 0
M  V30 3719 H 359.86 5.37406 3.62076 0
M  V30 3720 N 353.266 -1.05314 1.17247 0
M  V30 3721 C 354.491 -1.82509 0.985148 0
M  V30 3722 C 354.916 -1.82343 -0.461788 0
M  V30 3723 O 354.274 -1.23151 -1.33055 0
M  V30 3724 C 354.322 -3.26566 1.52929 0
M  V30 3725 O 353.426 -4.05666 0.742225 0
M  V30 3726 H 352.767 -0.564347 0.349869 0
M  V30 3727 H 355.297 -1.32718 1.55715 0
M  V30 3728 H 355.307 -3.77369 1.55103 0
M  V30 3729 H 353.982 -3.26001 2.58256 0
M  V30 3730 H 352.559 -3.64397 0.791794 0
M  V30 3731 N 354.744 -0.972509 -1.24016 0
M  V30 3732 C 355.974 -0.653853 -1.9598 0
M  V30 3733 C 356.382 0.781801 -1.72292 0
M  V30 3734 O 355.725 1.53677 -1.00644 0
M  V30 3735 C 355.787 -0.854608 -3.49194 0
M  V30 3736 C 355.451 -2.27082 -3.96589 0
M  V30 3737 C 356.448 -3.24892 -4.05883 0
M  V30 3738 C 354.133 -2.5998 -4.29786 0
M  V30 3739 C 356.127 -4.53684 -4.47716 0
M  V30 3740 C 353.814 -3.88997 -4.71301 0
M  V30 3741 C 354.812 -4.85661 -4.80232 0
M  V30 3742 O 354.5 -6.12376 -5.20818 0
M  V30 3743 H 354.232 -0.242572 -0.630979 0
M  V30 3744 H 356.786 -1.30431 -1.58673 0
M  V30 3745 H 355.016 -0.146985 -3.86421 0
M  V30 3746 H 356.705 -0.534311 -4.02368 0
M  V30 3747 H 357.471 -3.00805 -3.80449 0
M  V30 3748 H 353.35 -1.85457 -4.22051 0
M  V30 3749 H 356.894 -5.29135 -4.54601 0
M  V30 3750 H 352.791 -4.12882 -4.96184 0
M  V30 3751 H 353.559 -6.16013 -5.38953 0
M  V30 3752 N 356.222 1.38976 -0.743202 0
M  V30 3753 C 357.447 2.05161 -0.303936 0
M  V30 3754 C 357.872 1.55677 1.05576 0
M  V30 3755 O 357.23 0.704131 1.67068 0
M  V30 3756 C 357.278 3.59138 -0.324373 0
M  V30 3757 O 356.382 4.06668 0.685204 0
M  V30 3758 H 355.723 0.649815 -0.136518 0
M  V30 3759 H 358.253 1.77852 -1.01142 0
M  V30 3760 H 358.263 4.07639 -0.171618 0
M  V30 3761 H 356.938 3.94515 -1.31647 0
M  V30 3762 H 355.515 3.69561 0.497913 0
M  V30 3763 N 357.7 0.491464 1.49741 0
M  V30 3764 C 358.663 -0.280906 2.27472 0
M  V30 3765 C 359.663 -0.902454 1.33088 0
M  V30 3766 O 360.853 -0.768465 1.56334 0
M  V30 3767 C 357.985 -1.40209 3.10732 0
M  V30 3768 H 359.178 0.401056 2.97206 0
M  V30 3769 H 356.731 0.246131 1.5435 0
M  V30 3770 H 357.466 -2.11849 2.45541 0
M  V30 3771 H 357.251 -0.961969 3.80117 0
M  V30 3772 H 358.741 -1.9464 3.69466 0
M  V30 3773 N 359.178 -1.55987 0.224894 0
M  V30 3774 C 360.418 -2.00293 -0.407706 0
M  V30 3775 C 360.782 -1.1093 -1.56711 0
M  V30 3776 O 361.983 -1.44597 -2.26595 0
M  V30 3777 C 360.254 -3.47675 -0.82805 0
M  V30 3778 S 361.813 -4.14 -1.45429 0
M  V30 3779 H 358.631 -0.699152 -0.129256 0
M  V30 3780 H 361.233 -1.92609 0.334967 0
M  V30 3781 H 359.937 -4.10392 0.0253964 0
M  V30 3782 H 359.468 -3.59239 -1.60345 0
M  V30 3783 H 361.483 -4.13465 -2.74337 0
M  V30 3784 N 360.656 0.0484629 -1.57525 0
M  V30 3785 C 361.884 0.755421 -1.92616 0
M  V30 3786 C 362.299 1.69919 -0.822984 0
M  V30 3787 O 361.656 1.81378 0.202085 0
M  V30 3788 C 361.707 1.52915 -3.27566 0
M  V30 3789 O 361.428 0.62329 -4.33644 0
M  V30 3790 C 362.929 2.33502 -3.76818 0
M  V30 3791 H 360.149 0.213465 -0.63614 0
M  V30 3792 H 362.693 0.0117698 -2.04497 0
M  V30 3793 H 360.848 2.22486 -3.17142 0
M  V30 3794 H 361.262 1.16383 -5.11425 0
M  V30 3795 H 362.736 2.83214 -4.73808 0
M  V30 3796 H 363.213 3.14068 -3.07014 0
M  V30 3797 H 363.819 1.69043 -3.90262 0
M  V30 3798 N 362.134 1.5431 0.320358 0
M  V30 3799 C 363.362 1.76636 1.07738 0
M  V30 3800 C 363.777 0.51649 1.81598 0
M  V30 3801 O 363.134 -0.512942 1.75143 0
M  V30 3802 C 363.185 2.96158 2.07299 0
M  V30 3803 O 362.906 4.16313 1.36438 0
M  V30 3804 C 364.407 3.3072 2.95193 0
M  V30 3805 H 361.627 0.589597 0.320339 0
M  V30 3806 H 364.171 2.01207 0.36551 0
M  V30 3807 H 362.326 2.73851 2.74016 0
M  V30 3808 H 362.74 4.83565 2.03138 0
M  V30 3809 H 364.214 4.17643 3.60941 0
M  V30 3810 H 364.691 2.48026 3.62463 0
M  V30 3811 H 365.297 3.55117 2.34034 0
M  V30 3812 N 363.613 -0.582584 1.46437 0
M  V30 3813 C 364.89 -1.34276 1.4223 0
M  V30 3814 C 365.27 -2.10835 0.10583 0
M  V30 3815 O 364.618 -2.09485 -0.912596 0
M  V30 3816 C 364.828 -2.26865 2.65204 0
M  V30 3817 C 366.176 -2.88691 3.11356 0
M  V30 3818 O 367.2 -2.37178 2.65753 0
M  V30 3819 O 366.059 -3.82255 3.90568 0
M  V30 3820 H 363.153 -0.603326 0.565621 0
M  V30 3821 H 365.699 -0.603591 1.58603 0
M  V30 3822 H 364.471 -1.69724 3.52576 0
M  V30 3823 H 364.094 -3.08122 2.5129 0
M  V30 3824 N 365.091 -1.34144 -0.827227 0
M  V30 3825 C 366.339 -1.26009 -1.58007 0
M  V30 3826 C 366.66 0.170971 -1.94249 0
M  V30 3827 O 365.93 1.10256 -1.61927 0
M  V30 3828 H 364.51 -0.463414 -0.585881 0
M  V30 3829 H 367.172 -1.68005 -0.987951 0
M  V30 3830 H 366.268 -1.86187 -2.50481 0
M  V30 3831 N 366.569 1.04691 -1.17803 0
M  V30 3832 C 367.985 1.29963 -0.926379 0
M  V30 3833 C 368.185 1.97251 0.411635 0
M  V30 3834 O 367.241 2.24922 1.14744 0
M  V30 3835 C 368.554 2.16447 -2.08737 0
M  V30 3836 C 370.102 2.29814 -2.12496 0
M  V30 3837 C 370.577 3.19661 -3.27995 0
M  V30 3838 N 372.068 3.27247 -3.27816 0
M  V30 3839 C 372.803 3.96906 -4.13827 0
M  V30 3840 N 372.299 4.6895 -5.09959 0
M  V30 3841 N 374.092 3.93122 -4.01761 0
M  V30 3842 H 366.243 0.594182 -2.0392 0
M  V30 3843 H 368.506 0.324649 -0.890678 0
M  V30 3844 H 368.212 1.74304 -3.05469 0
M  V30 3845 H 368.086 3.17103 -2.04268 0
M  V30 3846 H 370.473 2.71196 -1.16347 0
M  V30 3847 H 370.554 1.2877 -2.21025 0
M  V30 3848 H 370.198 2.78991 -4.24413 0
M  V30 3849 H 370.128 4.20722 -3.16703 0
M  V30 3850 H 372.619 2.75921 -2.58217 0
M  V30 3851 H 372.932 5.19679 -5.71974 0
M  V30 3852 H 371.277 4.67875 -5.13924 0
M  V30 3853 H 374.468 3.35967 -3.2595 0
M  V30 3854 H 374.641 4.47139 -4.6901 0
M  V30 3855 N 368.047 0.979072 1.23499 0
M  V30 3856 C 369.272 0.664845 1.96455 0
M  V30 3857 C 369.697 -0.761287 1.72006 0
M  V30 3858 O 369.055 -1.51837 0.990713 0
M  V30 3859 C 369.103 0.959479 3.47601 0
M  V30 3860 O 368.207 0.0508168 4.12369 0
M  V30 3861 H 367.548 0.250185 0.615064 0
M  V30 3862 H 370.078 1.31231 1.5697 0
M  V30 3863 H 370.088 0.895642 3.98048 0
M  V30 3864 H 368.763 1.99876 3.64723 0
M  V30 3865 H 367.34 0.16895 3.72517 0
M  V30 3866 N 369.525 -1.3858 0.750561 0
M  V30 3867 C 370.802 -1.94231 0.231009 0
M  V30 3868 C 371.182 -1.68611 -1.27018 0
M  V30 3869 O 370.53 -1.02296 -2.04323 0
M  V30 3870 C 370.74 -3.44123 0.581428 0
M  V30 3871 C 372.088 -4.2116 0.539389 0
M  V30 3872 O 373.112 -3.52391 0.519541 0
M  V30 3873 O 371.971 -5.43749 0.54765 0
M  V30 3874 H 369.065 -0.825639 0.0474263 0
M  V30 3875 H 371.611 -1.4799 0.830478 0
M  V30 3876 H 370.383 -3.56267 1.61833 0
M  V30 3877 H 370.006 -3.97573 -0.0462047 0
M  V30 3878 N 371.003 -0.499398 -1.49478 0
M  V30 3879 C 372.251 0.0455996 -2.02049 0
M  V30 3880 C 372.572 1.37633 -1.38138 0
M  V30 3881 O 371.842 1.8842 -0.536166 0
M  V30 3882 H 370.422 0.0198416 -0.746736 0
M  V30 3883 H 373.084 -0.656274 -1.83519 0
M  V30 3884 H 372.18 0.176445 -3.11601 0
M  V30 3885 N 372.481 1.55866 -0.233164 0
M  V30 3886 C 373.411 2.23783 0.666599 0
M  V30 3887 C 374.392 1.21343 1.19205 0
M  V30 3888 O 375.577 1.4996 1.23392 0
M  V30 3889 C 372.707 2.92671 1.86978 0
M  V30 3890 C 371.661 4.01682 1.47768 0
M  V30 3891 C 370.987 4.57926 2.76058 0
M  V30 3892 C 372.287 5.18126 0.658993 0
M  V30 3893 H 373.981 2.99232 0.100306 0
M  V30 3894 H 371.527 1.43924 0.046804 0
M  V30 3895 H 373.48 3.3888 2.50476 0
M  V30 3896 H 372.204 2.14688 2.46123 0
M  V30 3897 H 370.863 3.56222 0.866106 0
M  V30 3898 H 370.511 3.76659 3.33372 0
M  V30 3899 H 370.211 5.31505 2.50552 0
M  V30 3900 H 371.735 5.06859 3.40479 0
M  V30 3901 H 373.149 5.60644 1.19795 0
M  V30 3902 H 371.546 5.98009 0.500552 0
M  V30 3903 H 372.616 4.83763 -0.331856 0
M  V30 3904 N 373.959 -0.0401083 1.57549 0
M  V30 3905 C 375.37 -0.588097 1.77196 0
M  V30 3906 C 375.721 -1.76209 0.862832 0
M  V30 3907 O 374.846 -2.16331 0.0548389 0
M  V30 3908 C 375.441 -1.07363 3.21339 0
M  V30 3909 C 374 -1.56723 3.42221 0
M  V30 3910 C 373.147 -0.50041 2.72747 0
M  V30 3911 H 376.098 0.186119 1.57605 0
M  V30 3912 H 376.119 -1.94143 3.27244 0
M  V30 3913 H 375.631 -0.218975 3.87482 0
M  V30 3914 H 373.732 -2.4441 2.81237 0
M  V30 3915 H 373.845 -1.62234 4.50796 0
M  V30 3916 H 372.209 -0.952894 2.36203 0
M  V30 3917 H 372.992 0.344599 3.41566 0
M  V30 3918 N 375.437 -1.54477 -0.31217 0
M  V30 3919 C 376.683 -1.74417 -1.04644 0
M  V30 3920 C 377.038 -0.517641 -1.85306 0
M  V30 3921 O 376.331 0.489973 -1.85229 0
M  V30 3922 C 376.525 -2.967 -1.99258 0
M  V30 3923 C 376.354 -4.31128 -1.27901 0
M  V30 3924 C 375.124 -4.95087 -1.01079 0
M  V30 3925 C 377.322 -5.09662 -0.689119 0
M  V30 3926 N 375.304 -6.13322 -0.266323 0
M  V30 3927 C 376.675 -6.19952 -0.0768523 0
M  V30 3928 C 378.73 -4.94355 -0.593061 0
M  V30 3929 C 377.433 -7.16604 0.622165 0
M  V30 3930 C 379.459 -5.91328 0.0922792 0
M  V30 3931 C 378.821 -7.00978 0.693443 0
M  V30 3932 H 374.92 -0.69094 -0.366231 0
M  V30 3933 H 377.504 -1.91946 -0.326319 0
M  V30 3934 H 375.675 -2.80616 -2.68532 0
M  V30 3935 H 377.407 -3.05216 -2.65755 0
M  V30 3936 H 374.162 -4.55235 -1.30607 0
M  V30 3937 H 374.586 -6.76937 0.0920973 0
M  V30 3938 H 379.228 -4.09719 -1.04355 0
M  V30 3939 H 376.946 -8.0079 1.08445 0
M  V30 3940 H 380.532 -5.81562 0.166396 0
M  V30 3941 H 379.412 -7.74725 1.21533 0
M  V30 3942 N 376.915 0.57481 -1.46744 0
M  V30 3943 C 378.155 1.34369 -1.54027 0
M  V30 3944 C 378.519 1.91051 -0.190642 0
M  V30 3945 O 379.72 2.68444 -0.138255 0
M  V30 3946 C 377.991 2.43706 -2.61423 0
M  V30 3947 S 379.55 3.30915 -2.88167 0
M  V30 3948 H 376.368 0.45768 -0.544105 0
M  V30 3949 H 378.97 0.659959 -1.84024 0
M  V30 3950 H 377.674 2.0047 -3.58106 0
M  V30 3951 H 377.205 3.16842 -2.33184 0
M  V30 3952 H 379.22 4.42742 -2.24039 0
M  V30 3953 N 378.394 1.34581 0.820102 0
M  V30 3954 C 379.619 1.30333 1.61332 0
M  V30 3955 C 380.044 -0.119339 1.87721 0
M  V30 3956 O 379.402 -1.08197 1.45475 0
M  V30 3957 C 379.45 2.10258 2.92957 0
M  V30 3958 O 378.554 1.47404 3.85157 0
M  V30 3959 H 377.895 0.447488 0.490561 0
M  V30 3960 H 380.425 1.77425 1.01889 0
M  V30 3961 H 380.435 2.21718 3.42498 0
M  V30 3962 H 379.11 3.13693 2.73074 0
M  V30 3963 H 377.687 1.44703 3.43679 0
M  V30 3964 N 379.872 -1.04064 1.18357 0
M  V30 3965 C 381.1 -1.80916 1.00384 0
M  V30 3966 C 381.515 -1.83414 -0.447738 0
M  V30 3967 O 380.872 -1.26962 -1.31099 0
M  V30 3968 C 380.923 -3.26516 1.55144 0
M  V30 3969 O 380.644 -3.2424 2.94618 0
M  V30 3970 C 382.145 -4.20013 1.41789 0
M  V30 3971 H 379.365 -0.569728 0.354474 0
M  V30 3972 H 381.909 -1.31151 1.56906 0
M  V30 3973 H 380.064 -3.73512 1.02798 0
M  V30 3974 H 380.478 -4.15452 3.20156 0
M  V30 3975 H 381.952 -5.20111 1.84901 0
M  V30 3976 H 382.429 -4.37667 0.36661 0
M  V30 3977 H 383.035 -3.78881 1.93207 0
M  V30 3978 N 381.35 -0.985608 -1.22978 0
M  V30 3979 C 382.578 -0.675582 -1.95559 0
M  V30 3980 C 382.993 0.758413 -1.72897 0
M  V30 3981 O 382.35 1.51094 -1.02357 0
M  V30 3982 C 382.401 -0.96293 -3.48439 0
M  V30 3983 O 382.122 -2.34057 -3.70336 0
M  V30 3984 C 383.623 -0.669585 -4.38214 0
M  V30 3985 H 380.843 -0.250523 -0.622478 0
M  V30 3986 H 383.387 -1.3184 -1.56328 0
M  V30 3987 H 381.542 -0.366033 -3.85667 0
M  V30 3988 H 381.956 -2.43424 -4.64591 0
M  V30 3989 H 383.43 -0.920967 -5.44263 0
M  V30 3990 H 383.907 0.396383 -4.37408 0
M  V30 3991 H 384.513 -1.2472 -4.06602 0
M  V30 3992 N 382.828 1.3818 -0.7579 0
M  V30 3993 C 383.791 2.28764 -0.141286 0
M  V30 3994 C 384.791 1.47388 0.642907 0
M  V30 3995 O 385.981 1.67781 0.468536 0
M  V30 3996 C 383.113 3.31184 0.808069 0
M  V30 3997 H 384.306 2.848 -0.939633 0
M  V30 3998 H 381.859 1.47212 -0.525191 0
M  V30 3999 H 382.594 2.80247 1.63193 0
M  V30 4000 H 382.379 3.91314 0.248104 0
M  V30 4001 H 383.869 3.98909 1.23536 0
M  V30 4002 N 384.306 0.507319 1.49211 0
M  V30 4003 C 385.254 -0.281364 2.30892 0
M  V30 4004 C 386.248 -0.95687 1.39787 0
M  V30 4005 O 387.454 -0.883838 1.56807 0
M  V30 4006 H 383.829 -0.109597 0.743971 0
M  V30 4007 H 385.8 0.42744 2.95323 0
M  V30 4008 C 384.549 -1.32918 3.21291 0
M  V30 4009 H 383.872 -0.818799 3.91326 0
M  V30 4010 H 385.312 -1.85288 3.81372 0
M  V30 4011 C 383.771 -2.35074 2.41333 0
M  V30 4012 O 384.301 -3.4108 2.12197 0
M  V30 4013 N 382.507 -2.07705 2.03241 0
M  V30 4014 H 382.054 -1.2152 2.27136 0
M  V30 4015 H 382.012 -2.76283 1.50051 0
M  V30 4016 N 385.784 -1.5574 0.241426 0
M  V30 4017 C 387.014 -2.02913 -0.38857 0
M  V30 4018 C 387.422 -1.12014 -1.52478 0
M  V30 4019 O 386.765 -0.125903 -1.83268 0
M  V30 4020 C 386.827 -3.4636 -0.963075 0
M  V30 4021 C 386.491 -4.56982 0.0401916 0
M  V30 4022 C 387.488 -5.12941 0.847766 0
M  V30 4023 C 385.173 -5.0203 0.164699 0
M  V30 4024 C 387.167 -6.12437 1.76636 0
M  V30 4025 C 384.854 -6.01358 1.0868 0
M  V30 4026 C 385.852 -6.5644 1.88616 0
M  V30 4027 O 385.54 -7.53831 2.79273 0
M  V30 4028 H 385.272 -0.668983 -0.0971452 0
M  V30 4029 H 387.826 -2.02198 0.361248 0
M  V30 4030 H 386.056 -3.44206 -1.76235 0
M  V30 4031 H 387.745 -3.77065 -1.50257 0
M  V30 4032 H 388.511 -4.78974 0.762133 0
M  V30 4033 H 384.39 -4.58824 -0.447411 0
M  V30 4034 H 387.934 -6.55355 2.39071 0
M  V30 4035 H 383.831 -6.34746 1.17338 0
M  V30 4036 H 384.599 -7.71428 2.73572 0
M  V30 4037 N 387.262 0.0317525 -1.57568 0
M  V30 4038 C 388.539 0.758366 -1.803 0
M  V30 4039 C 388.919 1.93718 -0.838845 0
M  V30 4040 O 388.267 2.28187 0.119571 0
M  V30 4041 C 388.477 1.19392 -3.27943 0
M  V30 4042 C 389.825 1.61094 -3.92854 0
M  V30 4043 O 390.849 1.28857 -3.32076 0
M  V30 4044 O 389.708 2.20918 -4.99858 0
M  V30 4045 H 386.802 0.366514 -0.741348 0
M  V30 4046 H 389.348 0.00873765 -1.69698 0
M  V30 4047 H 388.12 0.352275 -3.89711 0
M  V30 4048 H 387.743 2.00365 -3.43424 0
M  V30 4049 N 388.74 1.54641 0.303973 0
M  V30 4050 C 389.968 1.77768 1.05858 0
M  V30 4051 C 390.383 0.535722 1.8104 0
M  V30 4052 O 389.74 -0.494337 1.75677 0
M  V30 4053 C 389.791 2.9834 2.04146 0
M  V30 4054 O 389.512 4.17736 1.32015 0
M  V30 4055 C 391.013 3.33832 2.91669 0
M  V30 4056 H 388.233 0.592961 0.314067 0
M  V30 4057 H 390.777 2.01583 0.344149 0
M  V30 4058 H 388.932 2.76742 2.71096 0
M  V30 4059 H 389.346 4.85693 1.97998 0
M  V30 4060 H 390.82 4.21448 3.56491 0
M  V30 4061 H 391.297 2.51857 3.59812 0
M  V30 4062 H 391.903 3.57579 2.30254 0
M  V30 4063 N 390.218 -0.567019 1.47046 0
M  V30 4064 C 391.495 -1.3276 1.43646 0
M  V30 4065 C 391.875 -2.1071 0.128186 0
M  V30 4066 O 391.223 -2.10441 -0.890326 0
M  V30 4067 C 391.433 -2.2404 2.67595 0
M  V30 4068 C 392.781 -2.85372 3.14401 0
M  V30 4069 O 393.805 -2.34346 2.68254 0
M  V30 4070 O 392.664 -3.78091 3.946 0
M  V30 4071 H 389.758 -0.597293 0.571988 0
M  V30 4072 H 392.304 -0.586735 1.59234 0
M  V30 4073 H 391.076 -1.65975 3.54356 0
M  V30 4074 H 390.699 -3.05439 2.54544 0
M  V30 4075 N 391.696 -1.35014 -0.812953 0
M  V30 4076 C 392.973 -1.18502 -1.55617 0
M  V30 4077 C 393.353 0.238421 -2.09749 0
M  V30 4078 O 392.701 1.2411 -1.91857 0
M  V30 4079 C 392.911 -2.24783 -2.66971 0
M  V30 4080 C 394.259 -2.60268 -3.35478 0
M  V30 4081 O 395.283 -2.23648 -2.77236 0
M  V30 4082 O 394.142 -3.2321 -4.40678 0
M  V30 4083 H 391.236 -0.459984 -0.687272 0
M  V30 4084 H 393.782 -1.46677 -0.853464 0
M  V30 4085 H 392.554 -3.20284 -2.24798 0
M  V30 4086 H 392.177 -1.97841 -3.44884 0
M  V30 4087 N 393.175 1.03435 -1.18907 0
M  V30 4088 C 394.591 1.28973 -0.940111 0
M  V30 4089 C 394.791 1.97676 0.390691 0
M  V30 4090 O 393.847 2.26127 1.12352 0
M  V30 4091 C 395.16 2.14221 -2.11021 0
M  V30 4092 C 396.708 2.27547 -2.14922 0
M  V30 4093 C 397.183 3.16164 -3.31367 0
M  V30 4094 N 398.674 3.23752 -3.31269 0
M  V30 4095 C 399.409 3.92495 -4.18014 0
M  V30 4096 N 398.905 4.63515 -5.14904 0
M  V30 4097 N 400.698 3.88838 -4.05908 0
M  V30 4098 H 392.849 0.57252 -2.04538 0
M  V30 4099 H 395.112 0.315184 -0.894071 0
M  V30 4100 H 394.818 1.71054 -3.073 0
M  V30 4101 H 394.692 3.14919 -2.0762 0
M  V30 4102 H 397.079 2.69947 -1.19217 0
M  V30 4103 H 397.16 1.26418 -2.22378 0
M  V30 4104 H 396.804 2.74474 -4.27348 0
M  V30 4105 H 396.734 4.17339 -3.21148 0
M  V30 4106 H 399.225 2.73167 -2.61129 0
M  V30 4107 H 399.538 5.13583 -5.77453 0
M  V30 4108 H 397.883 4.62398 -5.18857 0
M  V30 4109 H 401.074 3.32491 -3.29495 0
M  V30 4110 H 401.247 4.4214 -4.73726 0
M  V30 4111 N 394.653 0.992116 1.22453 0
M  V30 4112 C 395.9 0.667534 1.91181 0
M  V30 4113 C 396.228 -0.800317 1.77271 0
M  V30 4114 O 395.483 -1.59421 1.13505 0
M  V30 4115 C 395.782 1.01832 3.42586 0
M  V30 4116 C 395.448 2.47831 3.76684 0
M  V30 4117 C 394.11 2.87729 3.85701 0
M  V30 4118 C 396.462 3.42466 3.92895 0
M  V30 4119 C 393.79 4.21252 4.08367 0
M  V30 4120 C 396.142 4.75648 4.17064 0
M  V30 4121 C 394.806 5.15288 4.24305 0
M  V30 4122 H 394.076 0.244268 0.699581 0
M  V30 4123 H 396.723 1.24816 1.45235 0
M  V30 4124 H 395.028 0.355769 3.90181 0
M  V30 4125 H 396.725 0.745228 3.94014 0
M  V30 4126 H 393.315 2.15905 3.70247 0
M  V30 4127 H 397.499 3.12814 3.85307 0
M  V30 4128 H 392.755 4.51554 4.122 0
M  V30 4129 H 396.929 5.48924 4.2855 0
M  V30 4130 H 394.556 6.18769 4.41621 0
M  V30 4131 N 396.131 -1.37776 0.765217 0
M  V30 4132 C 397.379 -1.99454 0.325943 0
M  V30 4133 C 397.7 -1.61049 -1.09947 0
M  V30 4134 O 396.97 -0.872821 -1.75381 0
M  V30 4135 H 395.55 -0.737697 0.117525 0
M  V30 4136 H 398.212 -1.68359 0.981895 0
M  V30 4137 H 397.308 -3.09547 0.398353 0
M  V30 4138 N 397.609 -0.515225 -1.4894 0
M  V30 4139 C 398.856 0.024215 -2.02486 0
M  V30 4140 C 399.184 1.35671 -1.39368 0
M  V30 4141 O 398.439 1.88566 -0.523574 0
M  V30 4142 C 398.738 0.210595 -3.56779 0
M  V30 4143 C 398.404 -1.04569 -4.38607 0
M  V30 4144 C 397.066 -1.39002 -4.60686 0
M  V30 4145 C 399.418 -1.88008 -4.86109 0
M  V30 4146 C 396.746 -2.568 -5.27514 0
M  V30 4147 C 399.098 -3.04972 -5.54234 0
M  V30 4148 C 397.762 -3.39768 -5.74555 0
M  V30 4149 H 397.032 0.00886088 -0.740947 0
M  V30 4150 H 399.679 -0.678263 -1.79086 0
M  V30 4151 H 397.984 0.99572 -3.78936 0
M  V30 4152 H 399.681 0.642659 -3.95817 0
M  V30 4153 H 396.271 -0.767497 -4.21672 0
M  V30 4154 H 400.455 -1.62719 -4.68867 0
M  V30 4155 H 395.711 -2.8398 -5.41447 0
M  V30 4156 H 399.885 -3.69943 -5.90013 0
M  V30 4157 H 397.512 -4.31148 -6.26112 0
M  V30 4158 N 399.087 1.5561 -0.249682 0
M  V30 4159 C 400.327 2.00916 0.37579 0
M  V30 4160 C 400.691 1.13409 1.54927 0
M  V30 4161 O 401.892 1.48183 2.24266 0
M  V30 4162 C 400.163 3.48949 0.772633 0
M  V30 4163 S 401.722 4.16261 1.38824 0
M  V30 4164 H 398.54 0.70112 0.118117 0
M  V30 4165 H 401.142 1.92052 -0.365567 0
M  V30 4166 H 399.846 4.103 -0.090683 0
M  V30 4167 H 399.377 3.61745 1.5461 0
M  V30 4168 H 401.392 4.17778 2.67724 0
M  V30 4169 N 400.565 -0.0233959 1.57583 0
M  V30 4170 C 401.976 -0.56927 1.77809 0
M  V30 4171 C 402.327 -1.75284 0.881472 0
M  V30 4172 O 401.452 -2.1626 0.0777805 0
M  V30 4173 C 402.047 -1.03949 3.22459 0
M  V30 4174 C 400.606 -1.53084 3.43864 0
M  V30 4175 C 399.753 -0.471454 2.73263 0
M  V30 4176 H 402.704 0.202825 1.57399 0
M  V30 4177 H 402.725 -1.90661 3.29285 0
M  V30 4178 H 402.237 -0.177865 3.87692 0
M  V30 4179 H 400.338 -2.41414 2.83814 0
M  V30 4180 H 400.451 -1.57443 4.52491 0
M  V30 4181 H 398.815 -0.927788 2.37201 0
M  V30 4182 H 399.598 0.380808 3.41181 0
M  V30 4183 N 402.043 -1.548 -0.295768 0
M  V30 4184 C 403.268 -1.78653 -1.05346 0
M  V30 4185 C 403.693 -0.546894 -1.79974 0
M  V30 4186 O 403.051 0.502763 -1.7419 0
M  V30 4187 C 403.099 -2.99679 -2.00561 0
M  V30 4188 O 402.203 -2.7317 -3.08953 0
M  V30 4189 H 401.544 -0.59116 -0.302367 0
M  V30 4190 H 404.074 -2.01895 -0.331598 0
M  V30 4191 H 404.084 -3.27793 -2.42932 0
M  V30 4192 H 402.759 -3.89562 -1.4565 0
M  V30 4193 H 401.336 -2.56089 -2.71059 0
M  V30 4194 N 403.521 0.559213 -1.47345 0
M  V30 4195 C 404.431 1.69388 -1.62311 0
M  V30 4196 C 405.447 1.6648 -0.505993 0
M  V30 4197 O 406.623 1.85964 -0.773262 0
M  V30 4198 C 403.688 3.05894 -1.63185 0
M  V30 4199 C 402.749 3.19885 -2.86307 0
M  V30 4200 C 401.982 4.49879 -2.87131 0
M  V30 4201 O 402.205 5.35217 -1.97229 0
M  V30 4202 O 401.139 4.67618 -3.78968 0
M  V30 4203 H 404.965 1.59706 -2.58317 0
M  V30 4204 H 402.55 0.728989 -1.30407 0
M  V30 4205 H 404.432 3.87133 -1.66451 0
M  V30 4206 H 403.107 3.15964 -0.70345 0
M  V30 4207 H 402.014 2.38052 -2.88587 0
M  V30 4208 H 403.347 3.14718 -3.78435 0
M  V30 4209 N 404.999 1.35443 0.805782 0
M  V30 4210 C 406.415 1.15499 1.10146 0
M  V30 4211 C 406.615 -0.0319975 2.01475 0
M  V30 4212 O 405.671 -0.70236 2.42535 0
M  V30 4213 C 406.984 2.45833 1.73166 0
M  V30 4214 C 408.532 2.52047 1.85583 0
M  V30 4215 C 409.007 3.82427 2.52019 0
M  V30 4216 N 410.498 3.83682 2.59504 0
M  V30 4217 C 411.233 4.81294 3.11679 0
M  V30 4218 N 410.729 5.89294 3.64287 0
M  V30 4219 N 412.522 4.6873 3.1024 0
M  V30 4220 H 404.673 2.11469 0.198678 0
M  V30 4221 H 406.936 0.93594 0.150731 0
M  V30 4222 H 406.642 3.32874 1.13526 0
M  V30 4223 H 406.516 2.6044 2.72857 0
M  V30 4224 H 408.903 1.65435 2.44367 0
M  V30 4225 H 408.984 2.41354 0.847455 0
M  V30 4226 H 408.628 4.69437 1.93885 0
M  V30 4227 H 408.558 3.90409 3.53395 0
M  V30 4228 H 411.049 3.05648 2.22234 0
M  V30 4229 H 411.362 6.59768 4.02401 0
M  V30 4230 H 409.707 5.92985 3.62483 0
M  V30 4231 H 412.898 3.83496 2.68419 0
M  V30 4232 H 413.071 5.44965 3.50596 0
M  V30 4233 N 406.477 -1.02803 1.19454 0
M  V30 4234 C 407.407 -2.12999 0.956758 0
M  V30 4235 C 408.388 -1.69743 -0.110188 0
M  V30 4236 O 409.573 -1.94148 0.0450038 0
M  V30 4237 C 406.703 -3.43746 0.495553 0
M  V30 4238 C 405.657 -4.00688 1.50443 0
M  V30 4239 C 404.983 -5.27067 0.900275 0
M  V30 4240 C 406.283 -4.35397 2.8849 0
M  V30 4241 H 407.977 -2.33148 1.87836 0
M  V30 4242 H 405.523 -1.12045 0.904539 0
M  V30 4243 H 407.476 -4.2021 0.316493 0
M  V30 4244 H 406.2 -3.23321 -0.461646 0
M  V30 4245 H 404.859 -3.2632 1.67065 0
M  V30 4246 H 404.507 -5.02959 -0.064503 0
M  V30 4247 H 404.207 -5.66127 1.57397 0
M  V30 4248 H 405.731 -6.06196 0.73203 0
M  V30 4249 H 407.145 -5.02795 2.75446 0
M  V30 4250 H 405.542 -4.85541 3.52661 0
M  V30 4251 H 406.612 -3.44662 3.41081 0
M  V30 4252 N 407.956 -0.998596 -1.21925 0
M  V30 4253 C 409.186 -0.695276 -1.94549 0
M  V30 4254 C 409.594 0.745079 -1.73911 0
M  V30 4255 O 408.937 1.51507 -1.03881 0
M  V30 4256 C 408.999 -0.928485 -3.47303 0
M  V30 4257 C 408.663 -2.35443 -3.91683 0
M  V30 4258 C 409.66 -3.33428 -3.98901 0
M  V30 4259 C 407.345 -2.69038 -4.24174 0
M  V30 4260 C 409.339 -4.63079 -4.37992 0
M  V30 4261 C 407.026 -3.98906 -4.62944 0
M  V30 4262 C 408.024 -4.95738 -4.69822 0
M  V30 4263 O 407.712 -6.23285 -5.07711 0
M  V30 4264 H 407.444 -0.255902 -0.625692 0
M  V30 4265 H 409.998 -1.33767 -1.5587 0
M  V30 4266 H 408.228 -0.228917 -3.86022 0
M  V30 4267 H 409.917 -0.619539 -4.01144 0
M  V30 4268 H 410.683 -3.08807 -3.73983 0
M  V30 4269 H 406.562 -1.94367 -4.18022 0
M  V30 4270 H 410.106 -5.38658 -4.43275 0
M  V30 4271 H 406.003 -4.23314 -4.87314 0
M  V30 4272 H 406.771 -6.27306 -5.25766 0
M  V30 4273 N 409.434 1.37368 -0.772513 0
M  V30 4274 C 410.662 2.03942 -0.348588 0
M  V30 4275 C 411.077 1.58264 1.02947 0
M  V30 4276 O 410.434 0.764246 1.65727 0
M  V30 4277 C 410.485 3.5946 -0.38351 0
M  V30 4278 O 410.206 4.03468 -1.70721 0
M  V30 4279 C 411.707 4.4327 0.0519152 0
M  V30 4280 H 408.927 0.654931 -0.145966 0
M  V30 4281 H 411.471 1.75686 -1.04665 0
M  V30 4282 H 409.626 3.86486 0.265978 0
M  V30 4283 H 410.04 4.97991 -1.64636 0
M  V30 4284 H 411.514 5.51995 -0.0236733 0
M  V30 4285 H 411.991 4.2514 1.10238 0
M  V30 4286 H 412.597 4.21471 -0.569415 0
M  V30 4287 N 410.912 0.523116 1.48665 0
M  V30 4288 C 411.844 -0.280421 2.27478 0
M  V30 4289 C 412.857 -0.910694 1.34945 0
M  V30 4290 O 414.046 -0.790295 1.60052 0
M  V30 4291 C 411.146 -1.41171 3.08097 0
M  V30 4292 C 410.319 -0.884642 4.28361 0
M  V30 4293 C 409.378 -1.89622 4.90846 0
M  V30 4294 O 408.404 -1.4559 5.50265 0
M  V30 4295 N 409.606 -3.22801 4.82472 0
M  V30 4296 H 412.371 0.395481 2.97079 0
M  V30 4297 H 409.932 0.357018 1.57915 0
M  V30 4298 H 411.924 -2.08645 3.4677 0
M  V30 4299 H 410.494 -1.99139 2.40961 0
M  V30 4300 H 409.714 -0.0341177 3.94185 0
M  V30 4301 H 411.002 -0.511268 5.06225 0
M  V30 4302 H 410.4 -3.61246 4.35336 0
M  V30 4303 H 408.957 -3.85927 5.25265 0
M  V30 4304 N 412.39 -1.55475 0.257931 0
M  V30 4305 C 413.667 -1.91155 -0.414629 0
M  V30 4306 C 414.047 -1.18008 -1.75035 0
M  V30 4307 O 413.395 -0.301193 -2.26506 0
M  V30 4308 C 413.605 -3.44283 -0.571859 0
M  V30 4309 C 414.953 -4.15744 -0.862678 0
M  V30 4310 O 415.977 -3.50083 -0.657314 0
M  V30 4311 O 414.836 -5.31909 -1.2544 0
M  V30 4312 H 411.93 -0.796016 -0.22425 0
M  V30 4313 H 414.476 -1.66976 0.302814 0
M  V30 4314 H 413.248 -3.89558 0.368844 0
M  V30 4315 H 412.871 -3.7436 -1.33943 0
M  V30 4316 N 413.868 0.0150385 -1.57593 0
M  V30 4317 C 415.116 0.701613 -1.8953 0
M  V30 4318 C 415.437 1.75139 -0.857396 0
M  V30 4319 O 414.707 1.95607 0.107194 0
M  V30 4320 H 413.287 0.26213 -0.699498 0
M  V30 4321 H 415.949 -0.0223304 -1.94887 0
M  V30 4322 H 415.045 1.18236 -2.88837 0
M  V30 4323 N 415.346 1.54954 0.287554 0
M  V30 4324 C 416.294 1.87606 1.37502 0
M  V30 4325 C 417.288 0.751001 1.51843 0
M  V30 4326 O 418.494 0.935169 1.53801 0
M  V30 4327 H 414.869 0.595231 0.459569 0
M  V30 4328 H 416.84 2.78477 1.07206 0
M  V30 4329 C 415.589 2.15183 2.73115 0
M  V30 4330 H 414.912 3.01234 2.62866 0
M  V30 4331 H 416.352 2.4196 3.48183 0
M  V30 4332 C 414.811 0.954686 3.2309 0
M  V30 4333 O 415.341 0.181949 4.01288 0
M  V30 4334 N 413.547 0.756368 2.80584 0
M  V30 4335 H 413.094 1.38643 2.17108 0
M  V30 4336 H 413.052 -0.0430391 3.14371 0
M  V30 4337 N 416.824 -0.551391 1.4764 0
M  V30 4338 C 417.787 -1.64007 1.60107 0
M  V30 4339 C 418.787 -1.53601 0.47576 0
M  V30 4340 O 419.977 -1.57655 0.740988 0
M  V30 4341 C 417.109 -3.03569 1.55108 0
M  V30 4342 H 418.302 -1.543 2.57161 0
M  V30 4343 H 415.855 -0.771776 1.35917 0
M  V30 4344 H 416.59 -3.18804 0.594519 0
M  V30 4345 H 416.375 -3.12532 2.36783 0
M  V30 4346 H 417.865 -3.82762 1.66982 0
M  V30 4347 N 418.302 -1.35869 -0.798587 0
M  V30 4348 C 419.579 -1.20145 -1.54352 0
M  V30 4349 C 419.959 0.216161 -2.0999 0
M  V30 4350 O 419.307 1.22068 -1.93162 0
M  V30 4351 C 419.517 -2.27602 -2.64572 0
M  V30 4352 C 420.865 -2.63811 -3.32699 0
M  V30 4353 O 421.889 -2.26576 -2.74849 0
M  V30 4354 O 420.748 -3.27866 -4.37226 0
M  V30 4355 H 417.842 -0.467248 -0.682355 0
M  V30 4356 H 420.388 -1.47574 -0.837859 0
M  V30 4357 H 419.16 -3.2265 -2.21388 0
M  V30 4358 H 418.783 -2.01488 -3.42766 0
M  V30 4359 N 419.78 1.02168 -1.19998 0
M  V30 4360 C 421.028 1.75338 -1.00504 0
M  V30 4361 C 421.349 1.89387 0.464506 0
M  V30 4362 O 420.619 1.43268 1.33608 0
M  V30 4363 H 419.199 0.649564 -0.368885 0
M  V30 4364 H 421.861 1.23205 -1.51018 0
M  V30 4365 H 420.957 2.75892 -1.45912 0
M  V30 4366 N 421.258 1.00505 1.21394 0
M  V30 4367 C 422.205 0.565496 2.23765 0
M  V30 4368 C 423.175 -0.408466 1.60999 0
M  V30 4369 O 424.36 -0.310503 1.88257 0
M  V30 4370 C 421.5 -0.101667 3.4495 0
M  V30 4371 C 420.613 0.915479 4.22188 0
M  V30 4372 C 419.748 0.220574 5.30742 0
M  V30 4373 C 418.787 1.22527 5.99711 0
M  V30 4374 N 417.924 0.557831 6.9988 0
M  V30 4375 H 422.764 1.44314 2.60725 0
M  V30 4376 H 420.301 0.722643 1.28126 0
M  V30 4377 H 422.259 -0.505504 4.14126 0
M  V30 4378 H 420.889 -0.94303 3.08718 0
M  V30 4379 H 419.941 1.43756 3.52191 0
M  V30 4380 H 421.253 1.68005 4.69655 0
M  V30 4381 H 420.407 -0.239368 6.06228 0
M  V30 4382 H 419.146 -0.576401 4.84282 0
M  V30 4383 H 418.151 1.69571 5.22997 0
M  V30 4384 H 419.376 2.02332 6.48258 0
M  V30 4385 H 417.322 -0.219486 6.55633 0
M  V30 4386 H 417.239 1.26065 7.45415 0
M  V30 4387 H 418.507 0.121095 7.79406 0
M  V30 4388 N 422.737 -1.36956 0.779787 0
M  V30 4389 C 424.148 -1.82094 0.412156 0
M  V30 4390 C 424.499 -1.64926 -1.06273 0
M  V30 4391 O 423.624 -1.16483 -1.82375 0
M  V30 4392 C 424.219 -3.3059 0.741319 0
M  V30 4393 C 422.778 -3.73974 0.426641 0
M  V30 4394 C 421.925 -2.59368 0.980987 0
M  V30 4395 H 424.876 -1.25314 0.973758 0
M  V30 4396 H 424.897 -3.80489 0.028887 0
M  V30 4397 H 424.409 -3.43054 1.81482 0
M  V30 4398 H 422.51 -3.67076 -0.639215 0
M  V30 4399 H 422.623 -4.69778 0.940515 0
M  V30 4400 H 420.987 -2.51463 0.404757 0
M  V30 4401 H 421.77 -2.74621 2.06005 0
M  V30 4402 N 424.215 -0.530993 -1.48385 0
M  V30 4403 C 425.455 0.000718982 -2.044 0
M  V30 4404 C 425.819 1.31485 -1.39913 0
M  V30 4405 O 427.02 1.93265 -1.86821 0
M  V30 4406 C 425.291 0.119177 -3.57201 0
M  V30 4407 S 426.85 0.600806 -4.34667 0
M  V30 4408 H 423.668 -0.0125473 -0.710889 0
M  V30 4409 H 426.27 -0.711783 -1.82082 0
M  V30 4410 H 424.974 -0.842061 -4.01668 0
M  V30 4411 H 424.505 0.856026 -3.83974 0
M  V30 4412 H 426.52 1.86514 -4.59812 0
M  V30 4413 N 425.693 1.55336 -0.266172 0
M  V30 4414 C 426.625 2.19544 0.658247 0
M  V30 4415 C 427.638 1.17746 1.12427 0
M  V30 4416 O 428.827 1.44517 1.04772 0
M  V30 4417 C 425.927 2.80032 1.9088 0
M  V30 4418 C 425.1 4.07436 1.59106 0
M  V30 4419 C 424.159 4.52056 2.69317 0
M  V30 4420 O 423.185 5.18023 2.35883 0
M  V30 4421 N 424.387 4.21448 3.99201 0
M  V30 4422 H 427.152 2.99503 0.108754 0
M  V30 4423 H 424.713 1.61667 -0.0869059 0
M  V30 4424 H 426.705 3.06831 2.63888 0
M  V30 4425 H 425.275 2.04119 2.36758 0
M  V30 4426 H 424.495 3.88021 0.695243 0
M  V30 4427 H 425.783 4.90462 1.35367 0
M  V30 4428 H 425.181 3.68528 4.29189 0
M  V30 4429 H 423.738 4.53039 4.68614 0
M  V30 4430 N 427.171 -0.0066808 1.57599 0
M  V30 4431 C 428.418 -0.69292 1.90276 0
M  V30 4432 C 428.746 -1.74148 0.866192 0
M  V30 4433 O 428.001 -1.95268 -0.129933 0
M  V30 4434 C 428.3 -1.37939 3.29708 0
M  V30 4435 C 427.966 -0.464679 4.48499 0
M  V30 4436 C 426.628 -0.212809 4.80729 0
M  V30 4437 C 428.98 0.16551 5.20937 0
M  V30 4438 C 426.308 0.677653 5.82773 0
M  V30 4439 C 428.66 1.04381 6.23929 0
M  V30 4440 C 427.324 1.30492 6.54621 0
M  V30 4441 H 426.594 -0.253558 0.696268 0
M  V30 4442 H 429.241 0.0474123 1.91441 0
M  V30 4443 H 427.546 -2.1936 3.24636 0
M  V30 4444 H 429.243 -1.9163 3.52249 0
M  V30 4445 H 425.833 -0.671153 4.23313 0
M  V30 4446 H 430.017 -0.0160756 4.96297 0
M  V30 4447 H 425.273 0.88803 6.04917 0
M  V30 4448 H 429.447 1.53851 6.79193 0
M  V30 4449 H 427.074 1.99662 7.33512 0
M  V30 4450 N 428.649 -1.55105 -0.279332 0
M  V30 4451 C 430.06 -1.66186 -0.850832 0
M  V30 4452 C 430.411 -0.584707 -1.87285 0
M  V30 4453 O 429.536 0.274919 -2.14647 0
M  V30 4454 C 430.131 -3.01264 -1.55001 0
M  V30 4455 C 428.69 -3.14394 -2.06963 0
M  V30 4456 C 427.837 -2.61959 -0.909536 0
M  V30 4457 H 430.788 -1.58602 -0.0558235 0
M  V30 4458 H 430.809 -2.93899 -2.41669 0
M  V30 4459 H 430.321 -3.7964 -0.805931 0
M  V30 4460 H 428.422 -2.4078 -2.84352 0
M  V30 4461 H 428.535 -4.20867 -2.28928 0
M  V30 4462 H 426.899 -2.18957 -1.30116 0
M  V30 4463 H 427.682 -3.42833 -0.179062 0
M  V30 4464 N 430.127 0.543554 -1.4793 0
M  V30 4465 C 431.374 1.30008 -1.55255 0
M  V30 4466 C 431.702 1.93245 -0.220612 0
M  V30 4467 O 430.957 1.79141 0.787843 0
M  V30 4468 C 431.256 2.42078 -2.62932 0
M  V30 4469 C 430.922 1.96583 -4.0579 0
M  V30 4470 C 429.584 1.83893 -4.44676 0
M  V30 4471 C 431.936 1.62034 -4.95373 0
M  V30 4472 C 429.264 1.34969 -5.70964 0
M  V30 4473 C 431.616 1.14577 -6.22137 0
M  V30 4474 C 430.28 1.00493 -6.59892 0
M  V30 4475 H 429.55 0.475735 -0.568117 0
M  V30 4476 H 432.197 0.608075 -1.81589 0
M  V30 4477 H 430.502 3.16892 -2.30406 0
M  V30 4478 H 432.199 3.00236 -2.65818 0
M  V30 4479 H 428.789 2.07407 -3.75074 0
M  V30 4480 H 432.973 1.70705 -4.66019 0
M  V30 4481 H 428.229 1.2274 -5.98953 0
M  V30 4482 H 432.403 0.869109 -6.90955 0
M  V30 4483 H 430.03 0.623624 -7.57638 0
M  V30 4484 N 431.605 1.3629 0.791371 0
M  V30 4485 C 432.854 1.29742 1.54434 0
M  V30 4486 C 433.167 -0.121729 1.95221 0
M  V30 4487 O 434.373 -0.309579 2.69729 0
M  V30 4488 C 432.829 2.27623 2.78776 0
M  V30 4489 C 432.437 3.74963 2.45166 0
M  V30 4490 C 434.181 2.30047 3.56761 0
M  V30 4491 C 432.088 4.64626 3.65891 0
M  V30 4492 H 431.018 0.482113 0.579727 0
M  V30 4493 H 433.669 1.61642 0.868565 0
M  V30 4494 H 432.051 1.88714 3.48142 0
M  V30 4495 H 433.225 4.22596 1.83709 0
M  V30 4496 H 431.54 3.75295 1.80396 0
M  V30 4497 H 434.137 2.94247 4.46456 0
M  V30 4498 H 434.48 1.30846 3.95203 0
M  V30 4499 H 435.013 2.67563 2.94372 0
M  V30 4500 H 431.752 5.64883 3.32547 0
M  V30 4501 H 431.272 4.2171 4.26521 0
M  V30 4502 H 432.951 4.80801 4.32943 0
M  V30 4503 N 433.083 -1.0153 1.20538 0
M  V30 4504 C 434.33 -1.75149 1.01633 0
M  V30 4505 C 434.658 -1.89189 -0.451399 0
M  V30 4506 O 433.913 -1.41551 -1.35136 0
M  V30 4507 C 434.212 -3.17213 1.64654 0
M  V30 4508 C 433.878 -3.23146 3.14464 0
M  V30 4509 C 432.54 -3.24472 3.55347 0
M  V30 4510 C 434.892 -3.21207 4.10458 0
M  V30 4511 C 432.22 -3.21532 4.90748 0
M  V30 4512 C 434.572 -3.19808 5.45807 0
M  V30 4513 C 433.236 -3.19439 5.86102 0
M  V30 4514 H 432.506 -0.640914 0.3719 0
M  V30 4515 H 435.153 -1.19071 1.49981 0
M  V30 4516 H 433.458 -3.76457 1.08571 0
M  V30 4517 H 435.155 -3.72871 1.4754 0
M  V30 4518 H 431.745 -3.2285 2.81897 0
M  V30 4519 H 435.929 -3.19351 3.79906 0
M  V30 4520 H 431.185 -3.19578 5.21229 0
M  V30 4521 H 435.359 -3.1726 6.19935 0
M  V30 4522 H 432.986 -3.16915 6.90991 0
M  V30 4523 N 434.561 -1.01147 -1.20859 0
M  V30 4524 C 435.493 -0.535546 -2.22855 0
M  V30 4525 C 436.506 0.379323 -1.58319 0
M  V30 4526 O 437.695 0.178489 -1.77605 0
M  V30 4527 C 434.795 0.240962 -3.38042 0
M  V30 4528 C 433.968 -0.674562 -4.32167 0
M  V30 4529 C 433.027 0.053467 -5.26173 0
M  V30 4530 O 432.053 -0.567339 -5.66366 0
M  V30 4531 N 433.255 1.32997 -5.65059 0
M  V30 4532 H 436.02 -1.41268 -2.64317 0
M  V30 4533 H 433.581 -0.888386 -1.35349 0
M  V30 4534 H 435.573 0.737115 -3.97931 0
M  V30 4535 H 434.143 1.01935 -2.95513 0
M  V30 4536 H 433.363 -1.35111 -3.70322 0
M  V30 4537 H 434.651 -1.2974 -4.91981 0
M  V30 4538 H 434.049 1.85536 -5.34409 0
M  V30 4539 H 432.606 1.77095 -6.2728 0
M  V30 4540 N 436.039 1.36541 -0.78704 0
M  V30 4541 C 437.287 1.98911 -0.357633 0
M  V30 4542 C 437.608 1.62778 1.07371 0
M  V30 4543 O 436.878 0.900612 1.73971 0
M  V30 4544 H 435.458 0.735734 -0.129246 0
M  V30 4545 H 438.12 1.66776 -1.00855 0
M  V30 4546 H 437.216 3.08874 -0.447549 0
M  V30 4547 N 437.518 0.538854 1.48102 0
M  V30 4548 C 438.45 -0.256278 2.27763 0
M  V30 4549 C 439.463 -0.89633 1.35904 0
M  V30 4550 O 440.652 -0.773275 1.60881 0
M  V30 4551 C 437.752 -1.37896 3.09577 0
M  V30 4552 C 436.925 -0.839159 4.29275 0
M  V30 4553 C 435.984 -1.84405 4.9283 0
M  V30 4554 O 435.01 -1.39746 5.51779 0
M  V30 4555 N 436.212 -3.17666 4.85869 0
M  V30 4556 H 438.977 0.426968 2.96643 0
M  V30 4557 H 436.538 0.373747 1.57527 0
M  V30 4558 H 438.53 -2.04955 3.48963 0
M  V30 4559 H 437.1 -1.96572 2.4306 0
M  V30 4560 H 436.32 0.00769287 3.94199 0
M  V30 4561 H 437.608 -0.457548 5.06739 0
M  V30 4562 H 437.006 -3.56609 4.39143 0
M  V30 4563 H 435.563 -3.80334 5.29329 0
M  V30 4564 N 438.996 -1.55193 0.274407 0
M  V30 4565 C 440.221 -2.04446 -0.348824 0
M  V30 4566 C 440.646 -1.15149 -1.48735 0
M  V30 4567 O 440.004 -0.149952 -1.80679 0
M  V30 4568 C 440.052 -3.51431 -0.808009 0
M  V30 4569 O 439.156 -3.65225 -1.91531 0
M  V30 4570 H 438.497 -0.66006 -0.0722276 0
M  V30 4571 H 441.027 -2.00481 0.408498 0
M  V30 4572 H 441.037 -3.92781 -1.10395 0
M  V30 4573 H 439.712 -4.15892 0.0249865 0
M  V30 4574 H 438.289 -3.35778 -1.62196 0
M  V30 4575 N 440.474 -0.00167713 -1.576 0
M  V30 4576 C 441.704 0.692754 -1.94639 0
M  V30 4577 C 442.112 1.67744 -0.87513 0
M  V30 4578 O 441.455 1.8305 0.154382 0
M  V30 4579 C 441.517 1.47881 -3.27676 0
M  V30 4580 C 441.181 0.655518 -4.52274 0
M  V30 4581 C 442.178 -0.0575214 -5.19868 0
M  V30 4582 C 439.863 0.600994 -4.98692 0
M  V30 4583 C 441.857 -0.814052 -6.3218 0
M  V30 4584 C 439.544 -0.15926 -6.10892 0
M  V30 4585 C 440.542 -0.865515 -6.77494 0
M  V30 4586 O 440.23 -1.61336 -7.87544 0
M  V30 4587 H 439.962 0.197792 -0.646417 0
M  V30 4588 H 442.516 -0.049423 -2.05341 0
M  V30 4589 H 440.746 2.2655 -3.13388 0
M  V30 4590 H 442.435 2.05874 -3.49816 0
M  V30 4591 H 443.201 -0.0245611 -4.84994 0
M  V30 4592 H 439.08 1.14025 -4.46676 0
M  V30 4593 H 442.624 -1.36584 -6.84098 0
M  V30 4594 H 438.521 -0.194035 -6.45208 0
M  V30 4595 H 439.289 -1.53025 -8.04068 0
M  V30 4596 N 441.952 1.55251 0.271103 0
M  V30 4597 C 443.177 1.80306 1.02491 0
M  V30 4598 C 443.602 0.575457 1.79081 0
M  V30 4599 O 442.96 -0.474987 1.74967 0
M  V30 4600 C 443.008 3.02832 1.95768 0
M  V30 4601 O 442.112 2.78051 3.04568 0
M  V30 4602 H 441.453 0.595896 0.292923 0
M  V30 4603 H 443.983 2.02397 0.299436 0
M  V30 4604 H 443.993 3.31616 2.37686 0
M  V30 4605 H 442.668 3.9183 1.39434 0
M  V30 4606 H 441.245 2.60369 2.66951 0
M  V30 4607 N 443.43 -0.535701 1.48216 0
M  V30 4608 C 444.393 -1.623 1.61838 0
M  V30 4609 C 445.393 -1.53087 0.492024 0
M  V30 4610 O 446.583 -1.5686 0.757668 0
M  V30 4611 C 443.715 -3.01907 1.58319 0
M  V30 4612 H 444.908 -1.51564 2.58783 0
M  V30 4613 H 442.461 -0.757317 1.36727 0
M  V30 4614 H 443.196 -3.18155 0.628299 0
M  V30 4615 H 442.981 -3.10003 2.40085 0
M  V30 4616 H 444.471 -3.80969 1.71033 0
M  V30 4617 N 444.908 -1.36708 -0.784132 0
M  V30 4618 C 446.148 -1.32618 -1.55537 0
M  V30 4619 C 446.512 0.0920681 -1.91779 0
M  V30 4620 O 447.713 0.257573 -2.67563 0
M  V30 4621 C 445.984 -2.22788 -2.79464 0
M  V30 4622 S 447.543 -2.36432 -3.69656 0
M  V30 4623 H 444.361 -0.470973 -0.53264 0
M  V30 4624 H 446.963 -1.72333 -0.92312 0
M  V30 4625 H 445.667 -3.24774 -2.50899 0
M  V30 4626 H 445.198 -1.84112 -3.47658 0
M  V30 4627 H 447.213 -1.56573 -4.7085 0
M  V30 4628 N 446.386 1.0089 -1.21074 0
M  V30 4629 C 447.614 1.78191 -1.05145 0
M  V30 4630 C 448.029 1.84537 0.398952 0
M  V30 4631 O 447.386 1.30393 1.27687 0
M  V30 4632 C 447.437 3.22288 -1.63746 0
M  V30 4633 O 447.158 3.16315 -3.03111 0
M  V30 4634 C 448.659 4.16106 -1.52875 0
M  V30 4635 H 445.879 0.560129 -0.369454 0
M  V30 4636 H 448.423 1.26945 -1.60328 0
M  V30 4637 H 446.578 3.70655 -1.12664 0
M  V30 4638 H 446.992 4.06817 -3.31059 0
M  V30 4639 H 448.466 5.15026 -1.98626 0
M  V30 4640 H 448.943 4.36541 -0.482521 0
M  V30 4641 H 449.549 3.73625 -2.03185 0
M  V30 4642 N 447.864 1.01787 1.20321 0
M  V30 4643 C 449.092 0.727194 1.937 0
M  V30 4644 C 449.507 -0.712305 1.74848 0
M  V30 4645 O 448.864 -1.48327 1.06327 0
M  V30 4646 C 448.915 1.05497 3.45764 0
M  V30 4647 O 448.636 2.43794 3.64 0
M  V30 4648 C 450.137 0.785534 4.36285 0
M  V30 4649 H 447.357 0.266939 0.615617 0
M  V30 4650 H 449.901 1.35939 1.52777 0
M  V30 4651 H 448.056 0.468158 3.84561 0
M  V30 4652 H 448.47 2.55656 4.57974 0
M  V30 4653 H 449.944 1.06495 5.4163 0
M  V30 4654 H 450.421 -0.280273 4.38305 0
M  V30 4655 H 451.027 1.35456 4.03152 0
M  V30 4656 N 449.342 -1.36122 0.79427 0
M  V30 4657 C 450.619 -1.93398 0.292685 0
M  V30 4658 C 450.999 -1.72567 -1.21589 0
M  V30 4659 O 450.347 -1.08745 -2.00965 0
M  V30 4660 C 450.557 -3.42099 0.690614 0
M  V30 4661 C 451.905 -4.19231 0.673105 0
M  V30 4662 O 452.929 -3.50559 0.631389 0
M  V30 4663 O 451.788 -5.41732 0.720362 0
M  V30 4664 H 448.882 -0.823712 0.0736693 0
M  V30 4665 H 451.428 -1.45273 0.87714 0
M  V30 4666 H 450.2 -3.50938 1.73085 0
M  V30 4667 H 449.823 -3.97519 0.0803036 0
M  V30 4668 N 450.82 -0.546701 -1.47814 0
M  V30 4669 C 452.068 -0.0187037 -2.02091 0
M  V30 4670 C 452.389 1.33168 -1.42447 0
M  V30 4671 O 451.659 1.86619 -0.595839 0
M  V30 4672 H 450.239 -0.00392531 -0.74699 0
M  V30 4673 H 452.901 -0.714327 -1.81338 0
M  V30 4674 H 451.997 0.0772219 -3.12004 0
M  V30 4675 N 452.299 1.55045 -0.282633 0
M  V30 4676 C 453.715 1.59441 0.0712997 0
M  V30 4677 C 453.915 1.2998 1.53972 0
M  V30 4678 O 452.971 1.06431 2.28973 0
M  V30 4679 C 454.284 2.99097 -0.310104 0
M  V30 4680 C 455.832 3.1194 -0.257343 0
M  V30 4681 C 456.307 4.53875 -0.613297 0
M  V30 4682 N 457.798 4.5974 -0.565134 0
M  V30 4683 C 458.533 5.67603 -0.81326 0
M  V30 4684 N 458.029 6.83582 -1.1264 0
M  V30 4685 N 459.822 5.57187 -0.741553 0
M  V30 4686 H 451.973 1.72458 -1.23984 0
M  V30 4687 H 454.236 0.804549 -0.501403 0
M  V30 4688 H 453.942 3.25516 -1.33163 0
M  V30 4689 H 453.816 3.75616 0.345366 0
M  V30 4690 H 456.203 2.85281 0.754905 0
M  V30 4691 H 456.284 2.37618 -0.947178 0
M  V30 4692 H 455.928 4.81261 -1.62327 0
M  V30 4693 H 455.858 5.26508 0.09841 0
M  V30 4694 H 458.349 3.76427 -0.333294 0
M  V30 4695 H 458.662 7.6175 -1.30219 0
M  V30 4696 H 457.007 6.85179 -1.16425 0
M  V30 4697 H 460.198 4.65457 -0.496705 0
M  V30 4698 H 460.371 6.41171 -0.938306 0
M  V30 4699 N 453.777 0.010035 1.57597 0
M  V30 4700 C 455.002 -0.687021 1.95691 0
M  V30 4701 C 455.427 -1.65952 0.885519 0
M  V30 4702 O 454.785 -1.80633 -0.15543 0
M  V30 4703 C 454.833 -1.3864 3.32884 0
M  V30 4704 O 453.937 -2.50115 3.27897 0
M  V30 4705 H 453.278 -0.181989 0.638573 0
M  V30 4706 H 455.808 0.0662122 2.04493 0
M  V30 4707 H 455.818 -1.74754 3.6868 0
M  V30 4708 H 454.493 -0.673411 4.10412 0
M  V30 4709 H 453.07 -2.16253 3.03791 0
M  V30 4710 N 455.255 -1.55392 -0.262866 0
M  V30 4711 C 456.532 -1.67204 -1.01499 0
M  V30 4712 C 456.912 -0.545186 -2.03939 0
M  V30 4713 O 456.26 0.453467 -2.23955 0
M  V30 4714 C 456.47 -3.06847 -1.6627 0
M  V30 4715 C 457.818 -3.64928 -2.17054 0
M  V30 4716 O 458.842 -3.09545 -1.76239 0
M  V30 4717 O 457.701 -4.61984 -2.91947 0
M  V30 4718 H 454.795 -0.679467 -0.471438 0
M  V30 4719 H 457.341 -1.67729 -0.257918 0
M  V30 4720 H 456.113 -3.80309 -0.920915 0
M  V30 4721 H 455.736 -3.10266 -2.48638 0
M  V30 4722 N 456.733 0.527833 -1.48498 0
M  V30 4723 C 457.981 1.28101 -1.56316 0
M  V30 4724 C 458.302 1.9352 -0.239781 0
M  V30 4725 O 457.572 1.81433 0.738849 0
M  V30 4726 H 456.152 0.475793 -0.575873 0
M  V30 4727 H 458.814 0.614052 -1.84974 0
M  V30 4728 H 457.91 2.05916 -2.34532 0
M  V30 4729 N 458.211 1.37122 0.776871 0
M  V30 4730 C 459.441 1.35034 1.56363 0
M  V30 4731 C 459.849 -0.0674681 1.8908 0
M  V30 4732 O 459.192 -1.03826 1.51545 0
M  V30 4733 C 459.254 2.11894 2.90415 0
M  V30 4734 C 458.918 3.60897 2.80362 0
M  V30 4735 C 459.915 4.54887 2.51742 0
M  V30 4736 C 457.6 4.03951 2.98545 0
M  V30 4737 C 459.594 5.89909 2.41426 0
M  V30 4738 C 457.281 5.3906 2.87849 0
M  V30 4739 C 458.279 6.31852 2.5933 0
M  V30 4740 O 457.967 7.64479 2.48651 0
M  V30 4741 H 457.699 0.464402 0.49123 0
M  V30 4742 H 460.253 1.80992 0.971127 0
M  V30 4743 H 458.483 1.60618 3.51765 0
M  V30 4744 H 460.172 2.02505 3.51776 0
M  V30 4745 H 460.938 4.22934 2.37385 0
M  V30 4746 H 456.817 3.3209 3.19746 0
M  V30 4747 H 460.361 6.62304 2.19086 0
M  V30 4748 H 456.258 5.70617 3.01773 0
M  V30 4749 H 457.026 7.74742 2.64039 0
M  V30 4750 N 459.689 -1.00246 1.21608 0
M  V30 4751 C 461.105 -1.26435 0.973975 0
M  V30 4752 C 461.305 -1.98642 -0.338143 0
M  V30 4753 O 460.361 -2.29026 -1.06317 0
M  V30 4754 C 461.674 -2.08551 2.16626 0
M  V30 4755 C 463.222 -2.21769 2.20879 0
M  V30 4756 C 463.697 -3.07267 3.39633 0
M  V30 4757 N 465.188 -3.14855 3.39736 0
M  V30 4758 C 465.923 -3.81274 4.28273 0
M  V30 4759 N 465.419 -4.497 5.27012 0
M  V30 4760 N 467.212 -3.7794 4.16074 0
M  V30 4761 H 459.363 -0.518089 2.05984 0
M  V30 4762 H 461.626 -0.291368 0.902113 0
M  V30 4763 H 461.332 -1.62847 3.11727 0
M  V30 4764 H 461.206 -3.09303 2.15897 0
M  V30 4765 H 463.593 -2.66691 1.26332 0
M  V30 4766 H 463.674 -1.20478 2.25652 0
M  V30 4767 H 463.318 -2.63047 4.34475 0
M  V30 4768 H 463.248 -4.08678 3.321 0
M  V30 4769 H 465.739 -2.66147 2.6828 0
M  V30 4770 H 466.052 -4.98092 5.90867 0
M  V30 4771 H 464.397 -4.48479 5.30935 0
M  V30 4772 H 467.588 -3.23638 3.38195 0
M  V30 4773 H 467.761 -4.29424 4.85282 0
M  V30 4774 N 461.167 -1.02423 -1.1978 0
M  V30 4775 C 462.413 -0.72878 -1.89896 0
M  V30 4776 C 462.768 0.734248 -1.77839 0
M  V30 4777 O 462.061 1.52733 -1.15685 0
M  V30 4778 C 462.255 -1.1088 -3.39765 0
M  V30 4779 C 462.084 -2.60722 -3.66407 0
M  V30 4780 C 460.854 -3.27623 -3.84696 0
M  V30 4781 C 463.052 -3.58924 -3.68345 0
M  V30 4782 N 461.034 -4.66617 -3.98926 0
M  V30 4783 C 462.405 -4.83514 -3.8809 0
M  V30 4784 C 464.46 -3.52788 -3.51347 0
M  V30 4785 C 463.163 -6.0271 -3.92598 0
M  V30 4786 C 465.189 -4.71394 -3.5713 0
M  V30 4787 C 464.551 -5.94796 -3.77356 0
M  V30 4788 H 460.65 -0.318473 -0.714212 0
M  V30 4789 H 463.234 -1.3106 -1.43984 0
M  V30 4790 H 461.405 -0.555233 -3.84411 0
M  V30 4791 H 463.137 -0.766082 -3.97383 0
M  V30 4792 H 459.892 -2.7804 -3.83393 0
M  V30 4793 H 460.316 -5.38805 -4.099 0
M  V30 4794 H 464.958 -2.58372 -3.3467 0
M  V30 4795 H 462.676 -6.97499 -4.08069 0
M  V30 4796 H 466.262 -4.6827 -3.45275 0
M  V30 4797 H 465.142 -6.85037 -3.81699 0
M  V30 4798 N 462.645 1.35699 -0.801477 0
M  V30 4799 C 463.885 2.00741 -0.385027 0
M  V30 4800 C 464.249 1.62213 1.02718 0
M  V30 4801 O 465.45 2.19936 1.54537 0
M  V30 4802 C 463.721 3.53032 -0.557057 0
M  V30 4803 S 465.28 4.38195 -0.230272 0
M  V30 4804 H 462.098 0.695748 -0.146477 0
M  V30 4805 H 464.7 1.65378 -1.04261 0
M  V30 4806 H 463.404 3.7856 -1.58494 0
M  V30 4807 H 462.935 3.93229 0.116029 0
M  V30 4808 H 464.95 4.86748 0.963895 0
M  V30 4809 N 464.123 0.554532 1.47522 0
M  V30 4810 C 465.086 -0.184174 2.28459 0
M  V30 4811 C 466.086 -0.845195 1.36796 0
M  V30 4812 O 467.276 -0.701467 1.59452 0
M  V30 4813 C 464.408 -1.26903 3.16399 0
M  V30 4814 H 465.601 0.526751 2.95238 0
M  V30 4815 H 463.154 0.311375 1.53167 0
M  V30 4816 H 463.889 -2.01244 2.54306 0
M  V30 4817 H 463.674 -0.799883 3.83854 0
M  V30 4818 H 465.164 -1.78794 3.77389 0
M  V30 4819 N 465.601 -1.54893 0.290851 0
M  V30 4820 C 466.829 -2.04343 -0.324288 0
M  V30 4821 C 467.244 -1.16859 -1.48289 0
M  V30 4822 O 466.601 -0.192018 -1.81487 0
M  V30 4823 C 466.652 -3.52756 -0.79026 0
M  V30 4824 O 466.373 -4.36913 0.322213 0
M  V30 4825 C 467.874 -4.18161 -1.4716 0
M  V30 4826 H 465.094 -0.667135 -0.0719173 0
M  V30 4827 H 467.638 -1.99981 0.427529 0
M  V30 4828 H 465.793 -3.57511 -1.49213 0
M  V30 4829 H 466.207 -5.24486 -0.0387372 0
M  V30 4830 H 467.681 -5.23562 -1.7489 0
M  V30 4831 H 468.158 -3.67282 -2.40834 0
M  V30 4832 H 468.764 -4.17454 -0.813178 0
M  V30 4833 N 467.08 -0.0183926 -1.57589 0
M  V30 4834 C 468.308 0.673046 -1.95647 0
M  V30 4835 C 468.723 1.66275 -0.894312 0
M  V30 4836 O 468.08 1.82072 0.124975 0
M  V30 4837 C 468.131 1.38884 -3.33756 0
M  V30 4838 O 467.852 0.438806 -4.35897 0
M  V30 4839 C 469.353 2.1731 -3.86383 0
M  V30 4840 H 466.573 0.186292 -0.644621 0
M  V30 4841 H 469.117 -0.0749748 -2.04363 0
M  V30 4842 H 467.272 2.08835 -3.26293 0
M  V30 4843 H 467.686 0.945869 -5.15901 0
M  V30 4844 H 469.16 2.62863 -4.85394 0
M  V30 4845 H 469.637 3.00764 -3.20059 0
M  V30 4846 H 470.243 1.52339 -3.97081 0
M  V30 4847 N 468.558 1.5553 0.254621 0
M  V30 4848 C 469.521 1.88872 1.29846 0
M  V30 4849 C 470.521 0.764591 1.41459 0
M  V30 4850 O 471.711 1.03265 1.40293 0
M  V30 4851 C 468.843 2.11032 2.67728 0
M  V30 4852 H 470.036 2.82201 1.01502 0
M  V30 4853 H 467.589 1.48303 0.493556 0
M  V30 4854 H 468.324 1.20146 3.01223 0
M  V30 4855 H 468.109 2.92895 2.60682 0
M  V30 4856 H 469.599 2.38038 3.43115 0
M  V30 4857 N 470.036 -0.519951 1.48776 0
M  V30 4858 C 470.984 -1.64443 1.64503 0
M  V30 4859 C 471.978 -1.61501 0.511248 0
M  V30 4860 O 473.184 -1.66238 0.690294 0
M  V30 4861 H 469.559 -0.544776 0.518385 0
M  V30 4862 H 471.53 -1.48325 2.58925 0
M  V30 4863 C 470.279 -3.02673 1.71127 0
M  V30 4864 H 469.602 -3.05635 2.57735 0
M  V30 4865 H 471.042 -3.80941 1.86172 0
M  V30 4866 C 469.501 -3.33854 0.452032 0
M  V30 4867 O 470.031 -3.99385 -0.430678 0
M  V30 4868 N 468.237 -2.88825 0.32069 0
M  V30 4869 H 467.784 -2.35674 1.03998 0
M  V30 4870 H 467.742 -3.10056 -0.520814 0
M  V30 4871 N 471.514 -1.37532 -0.769588 0
M  V30 4872 C 472.744 -1.35861 -1.55645 0
M  V30 4873 C 473.152 0.0574398 -1.89113 0
M  V30 4874 O 472.495 1.03021 -1.52093 0
M  V30 4875 C 472.557 -2.13431 -2.89288 0
M  V30 4876 C 472.221 -3.62378 -2.78444 0
M  V30 4877 C 473.218 -4.56215 -2.49326 0
M  V30 4878 C 470.903 -4.05529 -2.96398 0
M  V30 4879 C 472.897 -5.91181 -2.38294 0
M  V30 4880 C 470.584 -5.40579 -2.84987 0
M  V30 4881 C 471.582 -6.33218 -2.55975 0
M  V30 4882 O 471.27 -7.65787 -2.44594 0
M  V30 4883 H 471.002 -0.467001 -0.48876 0
M  V30 4884 H 473.556 -1.81505 -0.961515 0
M  V30 4885 H 471.786 -1.62481 -3.50909 0
M  V30 4886 H 473.475 -2.04368 -3.50697 0
M  V30 4887 H 474.241 -4.24187 -2.35139 0
M  V30 4888 H 470.12 -3.33781 -3.1798 0
M  V30 4889 H 473.664 -6.63457 -2.15571 0
M  V30 4890 H 469.561 -5.72209 -2.98743 0
M  V30 4891 H 470.329 -7.76132 -2.59927 0
M  V30 4892 N 472.992 0.995999 -1.22138 0
M  V30 4893 C 474.269 1.70834 -0.952642 0
M  V30 4894 C 474.649 2.04257 0.533119 0
M  V30 4895 O 473.997 1.72343 1.50034 0
M  V30 4896 C 474.207 2.96119 -1.84701 0
M  V30 4897 C 475.555 3.68962 -2.10124 0
M  V30 4898 O 476.579 3.0612 -1.82124 0
M  V30 4899 O 475.438 4.82017 -2.57531 0
M  V30 4900 H 472.532 0.745498 -0.357997 0
M  V30 4901 H 475.078 1.05262 -1.33109 0
M  V30 4902 H 473.85 2.67898 -2.85213 0
M  V30 4903 H 473.473 3.6943 -1.46995 0
M  V30 4904 N 474.47 1.03057 1.19235 0
M  V30 4905 C 475.886 0.747947 1.40989 0
M  V30 4906 C 476.086 -0.666752 1.90149 0
M  V30 4907 O 475.142 -1.43249 2.07933 0
M  V30 4908 C 476.455 1.7855 2.41951 0
M  V30 4909 C 478.003 1.80524 2.55695 0
M  V30 4910 C 478.478 2.83243 3.59913 0
M  V30 4911 N 479.969 2.8207 3.67411 0
M  V30 4912 C 480.704 3.58204 4.47747 0
M  V30 4913 N 480.2 4.44057 5.31775 0
M  V30 4914 N 481.993 3.46738 4.42413 0
M  V30 4915 H 474.144 1.94367 0.856468 0
M  V30 4916 H 476.407 0.840412 0.438647 0
M  V30 4917 H 476.113 2.79973 2.12857 0
M  V30 4918 H 475.987 1.6092 3.41152 0
M  V30 4919 H 478.374 0.79778 2.84112 0
M  V30 4920 H 478.455 2.02229 1.56643 0
M  V30 4921 H 478.099 3.84161 3.32239 0
M  V30 4922 H 478.029 2.58795 4.5862 0
M  V30 4923 H 480.52 2.19803 3.074 0
M  V30 4924 H 480.833 4.98884 5.90199 0
M  V30 4925 H 479.178 4.48129 5.3123 0
M  V30 4926 H 482.369 2.79077 3.75811 0
M  V30 4927 H 482.542 4.06322 5.04783 0
M  V30 4928 N 475.948 -1.35272 0.808662 0
M  V30 4929 C 477.225 -1.93077 0.313181 0
M  V30 4930 C 477.605 -1.73847 -1.19752 0
M  V30 4931 O 476.953 -1.1087 -1.998 0
M  V30 4932 C 477.163 -3.41347 0.726859 0
M  V30 4933 C 478.511 -4.18493 0.717532 0
M  V30 4934 O 479.535 -3.4987 0.668535 0
M  V30 4935 O 478.394 -5.40937 0.777779 0
M  V30 4936 H 475.488 -0.822885 0.0824018 0
M  V30 4937 H 478.034 -1.44335 0.892499 0
M  V30 4938 H 476.806 -3.49082 1.76797 0
M  V30 4939 H 476.429 -3.97411 0.122461 0
M  V30 4940 N 477.426 -0.562348 -1.47226 0
M  V30 4941 C 478.373 0.182461 -2.30078 0
M  V30 4942 C 479.343 0.903503 -1.39377 0
M  V30 4943 O 480.528 0.898188 -1.68337 0
M  V30 4944 C 477.668 1.20322 -3.23445 0
M  V30 4945 C 476.781 0.487717 -4.29238 0
M  V30 4946 C 475.916 1.49422 -5.09752 0
M  V30 4947 C 474.955 0.763976 -6.07314 0
M  V30 4948 N 474.092 1.71755 -6.80768 0
M  V30 4949 H 478.932 -0.530169 -2.93246 0
M  V30 4950 H 476.469 -0.273276 -1.44539 0
M  V30 4951 H 478.427 1.80768 -3.76004 0
M  V30 4952 H 477.057 1.88382 -2.6213 0
M  V30 4953 H 476.109 -0.231374 -3.79696 0
M  V30 4954 H 477.421 -0.0841003 -4.98729 0
M  V30 4955 H 476.575 2.17206 -5.66486 0
M  V30 4956 H 475.314 2.09995 -4.40174 0
M  V30 4957 H 474.319 0.0722344 -5.49753 0
M  V30 4958 H 475.544 0.16391 -6.78902 0
M  V30 4959 H 473.49 2.31177 -6.13916 0
M  V30 4960 H 473.407 1.19802 -7.46447 0
M  V30 4961 H 474.675 2.38638 -7.42073 0
M  V30 4962 N 478.904 1.54736 -0.299062 0
M  V30 4963 C 479.834 2.26409 0.571085 0
M  V30 4964 C 480.815 1.2629 1.13951 0
M  V30 4965 O 482 1.55059 1.16921 0
M  V30 4966 C 479.13 3.00338 1.74396 0
M  V30 4967 C 478.084 4.07588 1.30599 0
M  V30 4968 C 477.41 4.69222 2.56387 0
M  V30 4969 C 478.71 5.20455 0.438645 0
M  V30 4970 H 480.404 2.99388 -0.0266991 0
M  V30 4971 H 477.95 1.43993 -0.0142812 0
M  V30 4972 H 479.903 3.49198 2.35878 0
M  V30 4973 H 478.627 2.24934 2.36796 0
M  V30 4974 H 477.286 3.59575 0.71424 0
M  V30 4975 H 476.934 3.9046 3.17097 0
M  V30 4976 H 476.634 5.41653 2.27784 0
M  V30 4977 H 478.158 5.20844 3.18675 0
M  V30 4978 H 479.572 5.65221 0.959085 0
M  V30 4979 H 477.969 5.99594 0.246466 0
M  V30 4980 H 479.039 4.8192 -0.536738 0
M  V30 4981 N 480.382 0.0267497 1.57577 0
M  V30 4982 C 481.629 -0.652404 1.91703 0
M  V30 4983 C 481.957 -1.72271 0.902936 0
M  V30 4984 O 481.212 -1.955 -0.0884843 0
M  V30 4985 C 481.511 -1.30914 3.3256 0
M  V30 4986 C 481.177 -0.369441 4.49384 0
M  V30 4987 C 479.839 -0.110791 4.81072 0
M  V30 4988 C 482.191 0.275971 5.20469 0
M  V30 4989 C 479.519 0.801116 5.81205 0
M  V30 4990 C 481.871 1.17592 6.21575 0
M  V30 4991 C 480.535 1.44348 6.51705 0
M  V30 4992 H 479.805 -0.238732 0.70149 0
M  V30 4993 H 482.452 0.0880091 1.91298 0
M  V30 4994 H 480.757 -2.12425 3.29216 0
M  V30 4995 H 482.454 -1.84115 3.56234 0
M  V30 4996 H 479.044 -0.581211 4.24641 0
M  V30 4997 H 483.228 0.0892 4.9622 0
M  V30 4998 H 478.484 1.01614 6.02897 0
M  V30 4999 H 482.658 1.68223 6.75777 0
M  V30 5000 H 480.285 2.15176 7.29111 0
M  V30 5001 N 481.861 -1.55662 -0.24637 0
M  V30 5002 C 483.109 -1.77168 -0.972411 0
M  V30 5003 C 483.43 -0.590827 -1.85834 0
M  V30 5004 O 482.7 0.393365 -1.9191 0
M  V30 5005 H 481.28 -0.653405 -0.362038 0
M  V30 5006 H 483.942 -1.93101 -0.264189 0
M  V30 5007 H 483.038 -2.68335 -1.59382 0
M  V30 5008 N 483.339 0.512053 -1.4905 0
M  V30 5009 C 484.586 1.26686 -1.57978 0
M  V30 5010 C 484.914 1.92733 -0.261553 0
M  V30 5011 O 484.169 1.80772 0.749667 0
M  V30 5012 C 484.468 2.36446 -2.68008 0
M  V30 5013 C 484.134 1.87932 -4.09869 0
M  V30 5014 C 482.796 1.74419 -4.48477 0
M  V30 5015 C 485.148 1.5149 -4.98698 0
M  V30 5016 C 482.476 1.22827 -5.73699 0
M  V30 5017 C 484.828 1.01355 -6.24428 0
M  V30 5018 C 483.492 0.864735 -6.61875 0
M  V30 5019 H 482.762 0.463577 -0.578081 0
M  V30 5020 H 485.409 0.569421 -1.82838 0
M  V30 5021 H 483.714 3.11933 -2.37076 0
M  V30 5022 H 485.411 2.9453 -2.72127 0
M  V30 5023 H 482.001 1.99405 -3.79389 0
M  V30 5024 H 486.185 1.60782 -4.69535 0
M  V30 5025 H 481.441 1.10008 -6.01422 0
M  V30 5026 H 485.615 0.722351 -6.92644 0
M  V30 5027 H 483.242 0.462777 -7.5879 0
M  V30 5028 N 484.817 1.37938 0.762283 0
M  V30 5029 C 486.057 1.35076 1.53407 0
M  V30 5030 C 486.421 -0.061546 1.91901 0
M  V30 5031 O 487.622 -0.214973 2.67939 0
M  V30 5032 C 485.893 2.27206 2.75884 0
M  V30 5033 S 487.452 2.42283 3.65848 0
M  V30 5034 H 484.27 0.479387 0.52508 0
M  V30 5035 H 486.872 1.7378 0.895586 0
M  V30 5036 H 485.576 3.28724 2.457 0
M  V30 5037 H 485.107 1.8962 3.44685 0
M  V30 5038 H 487.122 1.64044 4.68299 0
M  V30 5039 N 486.295 -0.989507 1.22664 0
M  V30 5040 C 487.706 -1.54406 1.04955 0
M  V30 5041 C 488.057 -1.92366 -0.385951 0
M  V30 5042 O 487.182 -1.75111 -1.27142 0
M  V30 5043 C 487.777 -2.80578 1.89899 0
M  V30 5044 C 486.336 -3.32464 1.76478 0
M  V30 5045 C 485.483 -2.05524 1.86159 0
M  V30 5046 H 488.434 -0.810211 1.3646 0
M  V30 5047 H 488.455 -3.53075 1.4184 0
M  V30 5048 H 487.967 -2.52918 2.94371 0
M  V30 5049 H 486.068 -3.65024 0.747528 0
M  V30 5050 H 486.181 -4.02838 2.59342 0
M  V30 5051 H 484.545 -2.19241 1.29636 0
M  V30 5052 H 485.328 -1.80258 2.92168 0
M  V30 5053 N 487.773 -1.03688 -1.18687 0
M  V30 5054 C 489.001 -0.757918 -1.92518 0
M  V30 5055 C 489.416 0.684398 -1.75959 0
M  V30 5056 O 488.773 1.46617 -1.08673 0
M  V30 5057 C 488.824 -1.10985 -3.44042 0
M  V30 5058 O 488.545 -2.49554 -3.60076 0
M  V30 5059 C 490.046 -0.854844 -4.3498 0
M  V30 5060 H 487.266 -0.276699 -0.611293 0
M  V30 5061 H 489.81 -1.38352 -1.50595 0
M  V30 5062 H 487.965 -0.529279 -3.83767 0
M  V30 5063 H 488.379 -2.6291 -4.53849 0
M  V30 5064 H 489.853 -1.15098 -5.39867 0
M  V30 5065 H 490.33 0.210507 -4.38695 0
M  V30 5066 H 490.936 -1.41853 -4.00946 0
M  V30 5067 N 489.251 1.34841 -0.815825 0
M  V30 5068 C 490.667 1.51543 -0.500697 0
M  V30 5069 C 490.867 1.76261 0.976444 0
M  V30 5070 O 489.923 1.8094 1.76117 0
M  V30 5071 C 491.236 2.68487 -1.35407 0
M  V30 5072 C 492.784 2.82368 -1.35046 0
M  V30 5073 C 493.259 4.02347 -2.18816 0
M  V30 5074 N 494.75 4.09542 -2.16402 0
M  V30 5075 C 495.485 5.01517 -2.77971 0
M  V30 5076 N 494.981 5.98763 -3.48503 0
M  V30 5077 N 496.774 4.94334 -2.67563 0
M  V30 5078 H 488.925 1.17055 -1.77234 0
M  V30 5079 H 491.188 0.573481 -0.754866 0
M  V30 5080 H 490.894 2.56829 -2.40274 0
M  V30 5081 H 490.768 3.63321 -1.01377 0
M  V30 5082 H 493.155 2.93471 -0.309604 0
M  V30 5083 H 493.236 1.88363 -1.73069 0
M  V30 5084 H 492.88 3.92004 -3.22948 0
M  V30 5085 H 492.81 4.95551 -1.78148 0
M  V30 5086 H 495.301 3.39932 -1.65091 0
M  V30 5087 H 495.614 6.6556 -3.92747 0
M  V30 5088 H 493.959 5.98909 -3.52609 0
M  V30 5089 H 497.15 4.1732 -2.12041 0
M  V30 5090 H 497.323 5.6582 -3.15834 0
M  V30 5091 N 490.729 0.570148 1.46925 0
M  V30 5092 C 491.692 -0.159933 2.28641 0
M  V30 5093 C 492.692 -0.830638 1.37685 0
M  V30 5094 O 493.882 -0.684516 1.60187 0
M  V30 5095 C 491.014 -1.2354 3.17727 0
M  V30 5096 H 492.207 0.558035 2.94662 0
M  V30 5097 H 489.76 0.327603 1.52828 0
M  V30 5098 H 490.495 -1.98535 2.56426 0
M  V30 5099 H 490.28 -0.759125 3.84681 0
M  V30 5100 H 491.77 -1.74782 3.79264 0
M  V30 5101 N 492.207 -1.54576 0.307264 0
M  V30 5102 C 493.484 -1.92377 -0.353605 0
M  V30 5103 C 493.864 -1.23517 -1.71192 0
M  V30 5104 O 493.212 -0.373101 -2.25433 0
M  V30 5105 C 493.422 -3.45928 -0.462039 0
M  V30 5106 C 494.77 -4.18278 -0.729975 0
M  V30 5107 O 495.794 -3.51997 -0.545605 0
M  V30 5108 O 494.653 -5.3563 -1.08454 0
M  V30 5109 H 491.747 -0.802747 -0.198812 0
M  V30 5110 H 494.293 -1.65929 0.355783 0
M  V30 5111 H 493.065 -3.88187 0.492592 0
M  V30 5112 H 492.688 -3.78431 -1.21965 0
M  V30 5113 N 493.685 -0.035106 -1.57561 0
M  V30 5114 C 494.91 0.655802 -1.96759 0
M  V30 5115 C 495.335 1.64523 -0.911809 0
M  V30 5116 O 494.693 1.80857 0.126673 0
M  V30 5117 C 494.741 1.33326 -3.35047 0
M  V30 5118 O 493.845 2.44866 -3.31835 0
M  V30 5119 H 493.186 0.171807 -0.641388 0
M  V30 5120 H 495.716 -0.0987369 -2.04362 0
M  V30 5121 H 495.726 1.68867 -3.71413 0
M  V30 5122 H 494.401 0.608033 -4.11431 0
M  V30 5123 H 492.978 2.11392 -3.07193 0
M  V30 5124 N 495.163 1.55791 0.238111 0
M  V30 5125 C 496.391 1.82098 0.982233 0
M  V30 5126 C 496.806 0.612025 1.78605 0
M  V30 5127 O 496.163 -0.419381 1.77616 0
M  V30 5128 C 496.214 3.0673 1.91309 0
M  V30 5129 O 495.935 4.2296 1.14179 0
M  V30 5130 C 497.436 3.45903 2.77248 0
M  V30 5131 H 494.656 0.605748 0.288635 0
M  V30 5132 H 497.2 2.02862 0.258341 0
M  V30 5133 H 495.355 2.87991 2.59114 0
M  V30 5134 H 495.769 4.93653 1.7722 0
M  V30 5135 H 497.243 4.36189 3.38295 0
M  V30 5136 H 497.72 2.66891 3.48806 0
M  V30 5137 H 498.326 3.67024 2.14881 0
M  V30 5138 N 496.642 -0.504142 1.49319 0
M  V30 5139 C 497.888 -1.26033 1.58882 0
M  V30 5140 C 498.221 -1.92268 0.273274 0
M  V30 5141 O 497.496 -1.80567 -0.72291 0
M  V30 5142 C 497.779 -2.32976 2.7458 0
M  V30 5143 C 497.632 -1.71263 4.1592 0
M  V30 5144 C 498.951 -3.34561 2.85932 0
M  V30 5145 H 496.07 -0.456863 0.578312 0
M  V30 5146 H 498.712 -0.558965 1.81592 0
M  V30 5147 H 496.862 -2.92796 2.55348 0
M  V30 5148 H 498.534 -1.15294 4.4666 0
M  V30 5149 H 496.777 -1.01686 4.21714 0
M  V30 5150 H 497.448 -2.48816 4.92742 0
M  V30 5151 H 499.924 -2.84727 3.0343 0
M  V30 5152 H 498.8 -4.06754 3.68568 0
M  V30 5153 H 499.061 -3.96695 1.95154 0
M  V30 5154 N 498.12 -1.38341 -0.754957 0
M  V30 5155 C 499.053 -1.29837 -1.87663 0
M  V30 5156 C 500.031 -0.175659 -1.61648 0
M  V30 5157 O 501.215 -0.352745 -1.8517 0
M  V30 5158 C 498.342 -1.01141 -3.23246 0
M  V30 5159 C 497.388 -2.15331 -3.6815 0
M  V30 5160 S 498.221 -3.77459 -3.79849 0
M  V30 5161 C 499.377 -3.50948 -5.18253 0
M  V30 5162 H 499.61 -2.24771 -1.9459 0
M  V30 5163 H 497.143 -1.24161 -0.917796 0
M  V30 5164 H 499.101 -0.852687 -4.01546 0
M  V30 5165 H 497.762 -0.0792784 -3.14 0
M  V30 5166 H 496.955 -1.90795 -4.6649 0
M  V30 5167 H 496.557 -2.27304 -2.97 0
M  V30 5168 H 498.849 -3.06977 -6.03963 0
M  V30 5169 H 499.792 -4.48677 -5.47809 0
M  V30 5170 H 500.2 -2.85492 -4.86985 0
M  V30 5171 N 499.598 0.982988 -1.23187 0
M  V30 5172 C 500.846 1.72052 -1.06031 0
M  V30 5173 C 501.167 1.90769 0.404019 0
M  V30 5174 O 500.437 1.47446 1.28982 0
M  V30 5175 H 499.017 0.637499 -0.389363 0
M  V30 5176 H 501.679 1.18338 -1.54862 0
M  V30 5177 H 500.775 2.7111 -1.54615 0
M  V30 5178 N 501.076 1.04316 1.18135 0
M  V30 5179 C 502.324 0.746542 1.87806 0
M  V30 5180 C 502.645 -0.728082 1.80898 0
M  V30 5181 O 501.915 -1.52554 1.22899 0
M  V30 5182 H 500.495 0.273157 0.695265 0
M  V30 5183 H 503.157 1.32044 1.43354 0
M  V30 5184 H 502.253 1.05362 2.93778 0
M  V30 5185 N 502.554 -1.34406 0.822964 0
M  V30 5186 C 503.502 -2.31428 0.233165 0
M  V30 5187 C 504.496 -1.57404 -0.626118 0
M  V30 5188 O 505.702 -1.72402 -0.517453 0
M  V30 5189 H 502.077 -0.749863 0.0566557 0
M  V30 5190 H 504.048 -2.78699 1.06628 0
M  V30 5191 C 502.797 -3.42653 -0.590264 0
M  V30 5192 H 502.12 -3.99753 0.0616129 0
M  V30 5193 H 503.56 -4.12778 -0.969054 0
M  V30 5194 C 502.019 -2.87112 -1.76262 0
M  V30 5195 O 502.549 -2.81995 -2.8608 0
M  V30 5196 N 500.755 -2.43934 -1.57938 0
M  V30 5197 H 500.302 -2.48296 -0.686078 0
M  V30 5198 H 500.26 -2.07123 -2.36532 0
M  V30 5199 N 504.032 -0.577932 -1.46621 0
M  V30 5200 C 505.257 -0.0652536 -2.07297 0
M  V30 5201 C 505.682 1.22828 -1.4246 0
M  V30 5202 O 505.04 1.74075 -0.506718 0
M  V30 5203 C 505.088 0.0920589 -3.60482 0
M  V30 5204 O 504.192 1.14972 -3.96049 0
M  V30 5205 H 503.533 -0.06065 -0.661224 0
M  V30 5206 H 506.063 -0.799515 -1.88332 0
M  V30 5207 H 506.073 0.299741 -4.06897 0
M  V30 5208 H 504.748 -0.852612 -4.07067 0
M  V30 5209 H 503.325 0.920879 -3.61351 0
M  V30 5210 N 505.51 1.54411 -0.315457 0
M  V30 5211 C 506.473 2.22713 0.54142 0
M  V30 5212 C 507.473 1.2179 1.04995 0
M  V30 5213 O 508.663 1.46426 0.943667 0
M  V30 5214 C 505.795 2.92485 1.75116 0
M  V30 5215 H 506.988 2.99849 -0.0555508 0
M  V30 5216 H 504.541 1.56159 -0.0664453 0
M  V30 5217 H 505.276 2.19466 2.38758 0
M  V30 5218 H 505.061 3.66483 1.39401 0
M  V30 5219 H 506.551 3.44548 2.35959 0
M  V30 5220 N 506.988 0.0434614 1.5754 0
M  V30 5221 C 508.236 -0.630786 1.92004 0
M  V30 5222 C 508.557 -1.71836 0.921807 0
M  V30 5223 O 507.827 -1.9587 -0.034522 0
M  V30 5224 H 506.407 -0.235988 0.708745 0
M  V30 5225 H 509.069 0.0946462 1.9467 0
M  V30 5226 H 508.165 -1.07434 2.93026 0
M  V30 5227 N 508.466 -1.55915 -0.229846 0
M  V30 5228 C 509.376 -1.94891 -1.30593 0
M  V30 5229 C 510.392 -0.851604 -1.51736 0
M  V30 5230 O 511.568 -1.15447 -1.65027 0
M  V30 5231 C 508.633 -2.25052 -2.63728 0
M  V30 5232 C 507.694 -3.48306 -2.5096 0
M  V30 5233 C 506.927 -3.77019 -3.77747 0
M  V30 5234 O 507.15 -3.07534 -4.80395 0
M  V30 5235 O 506.084 -4.70523 -3.75356 0
M  V30 5236 H 509.91 -2.86581 -1.00525 0
M  V30 5237 H 507.495 -1.43017 -0.432025 0
M  V30 5238 H 509.377 -2.45682 -3.42372 0
M  V30 5239 H 508.052 -1.36538 -2.93495 0
M  V30 5240 H 506.959 -3.32964 -1.70546 0
M  V30 5241 H 508.292 -4.37177 -2.26136 0
M  V30 5242 N 509.944 0.496216 -1.49584 0
M  V30 5243 C 510.874 1.60576 -1.69521 0
M  V30 5244 C 511.855 1.61169 -0.543933 0
M  V30 5245 O 513.04 1.77834 -0.78031 0
M  V30 5246 C 510.17 2.99038 -1.76616 0
M  V30 5247 C 509.124 3.13312 -2.91581 0
M  V30 5248 C 508.45 4.53172 -2.83794 0
M  V30 5249 C 509.75 2.92886 -4.32452 0
M  V30 5250 H 511.444 1.44146 -2.62416 0
M  V30 5251 H 508.99 0.692024 -1.26282 0
M  V30 5252 H 510.943 3.76564 -1.8915 0
M  V30 5253 H 509.667 3.16568 -0.80324 0
M  V30 5254 H 508.326 2.38213 -2.78658 0
M  V30 5255 H 507.974 4.67585 -1.854 0
M  V30 5256 H 507.674 4.63662 -3.60958 0
M  V30 5257 H 509.198 5.32752 -2.98342 0
M  V30 5258 H 510.612 3.60178 -4.46032 0
M  V30 5259 H 509.009 3.14844 -5.10875 0
M  V30 5260 H 510.079 1.88966 -4.46565 0
M  V30 5261 N 511.423 1.38739 0.74761 0
M  V30 5262 C 512.663 1.36695 1.51966 0
M  V30 5263 C 513.027 -0.0411889 1.91956 0
M  V30 5264 O 514.228 -0.186543 2.68152 0
M  V30 5265 C 512.499 2.30119 2.73459 0
M  V30 5266 S 514.058 2.4615 3.63257 0
M  V30 5267 H 510.876 0.484929 0.519966 0
M  V30 5268 H 513.478 1.7472 0.877104 0
M  V30 5269 H 512.182 3.31312 2.422 0
M  V30 5270 H 511.713 1.93265 3.42655 0
M  V30 5271 H 513.728 1.69001 4.66533 0
M  V30 5272 N 512.901 -0.976442 1.23707 0
M  V30 5273 C 514.147 -1.72081 1.07312 0
M  V30 5274 C 514.48 -1.90275 -0.388476 0
M  V30 5275 O 513.755 -1.4579 -1.28746 0
M  V30 5276 C 514.038 -3.11675 1.80363 0
M  V30 5277 C 513.891 -3.01027 3.3422 0
M  V30 5278 C 515.21 -4.1117 1.5693 0
M  V30 5279 H 512.329 -0.624583 0.391236 0
M  V30 5280 H 514.971 -1.13649 1.52263 0
M  V30 5281 H 513.121 -3.61559 1.42153 0
M  V30 5282 H 514.793 -2.58637 3.81975 0
M  V30 5283 H 513.036 -2.3744 3.63049 0
M  V30 5284 H 513.707 -3.9988 3.80525 0
M  V30 5285 H 516.183 -3.7011 1.90151 0
M  V30 5286 H 515.059 -5.06928 2.10513 0
M  V30 5287 H 515.32 -4.392 0.505548 0
M  V30 5288 N 514.379 -1.04941 -1.1758 0
M  V30 5289 C 515.626 -0.757989 -1.87779 0
M  V30 5290 C 515.954 0.714827 -1.80888 0
M  V30 5291 O 515.209 1.53824 -1.20982 0
M  V30 5292 C 515.508 -1.18062 -3.37337 0
M  V30 5293 C 515.174 -2.65521 -3.6443 0
M  V30 5294 C 513.836 -3.05804 -3.71534 0
M  V30 5295 C 516.188 -3.60822 -3.76108 0
M  V30 5296 C 513.516 -4.40256 -3.87803 0
M  V30 5297 C 515.868 -4.95005 -3.93895 0
M  V30 5298 C 514.532 -5.34945 -3.99237 0
M  V30 5299 H 513.802 -0.277368 -0.68713 0
M  V30 5300 H 516.449 -1.31603 -1.39115 0
M  V30 5301 H 514.754 -0.541525 -3.8804 0
M  V30 5302 H 516.451 -0.932368 -3.9001 0
M  V30 5303 H 513.041 -2.33324 -3.59524 0
M  V30 5304 H 517.225 -3.30841 -3.69943 0
M  V30 5305 H 512.481 -4.70707 -3.90186 0
M  V30 5306 H 516.655 -5.68746 -4.01872 0
M  V30 5307 H 514.282 -6.39135 -4.11596 0
M  V30 5308 N 515.857 1.33968 -0.830081 0
M  V30 5309 C 517.268 1.80439 -0.479455 0
M  V30 5310 C 517.619 1.68756 1.00079 0
M  V30 5311 O 516.744 1.23171 1.77927 0
M  V30 5312 C 517.339 3.27611 -0.863505 0
M  V30 5313 C 515.898 3.72133 -0.565145 0
M  V30 5314 C 515.045 2.55549 -1.07657 0
M  V30 5315 H 517.996 1.21614 -1.0196 0
M  V30 5316 H 518.017 3.8012 -0.170083 0
M  V30 5317 H 517.529 3.36082 -1.94089 0
M  V30 5318 H 515.63 3.69196 0.502536 0
M  V30 5319 H 515.743 4.65963 -1.11422 0
M  V30 5320 H 514.107 2.49788 -0.497807 0
M  V30 5321 H 514.89 2.66786 -2.16055 0
M  V30 5322 N 517.335 0.585699 1.46312 0
M  V30 5323 C 518.582 0.0724211 2.0237 0
M  V30 5324 C 518.91 -1.28868 1.45683 0
M  V30 5325 O 518.165 -1.85853 0.612945 0
M  V30 5326 C 518.464 -0.0401312 3.57377 0
M  V30 5327 C 518.13 1.25376 4.33119 0
M  V30 5328 C 516.792 1.60824 4.5353 0
M  V30 5329 C 519.144 2.10987 4.76586 0
M  V30 5330 C 516.472 2.81676 5.14661 0
M  V30 5331 C 518.824 3.31068 5.39052 0
M  V30 5332 C 517.488 3.66794 5.5769 0
M  V30 5333 H 516.758 0.0265007 0.740526 0
M  V30 5334 H 519.405 0.762935 1.75646 0
M  V30 5335 H 517.71 -0.813791 3.83255 0
M  V30 5336 H 519.407 -0.453078 3.98432 0
M  V30 5337 H 515.997 0.967808 4.1753 0
M  V30 5338 H 520.181 1.84904 4.60569 0
M  V30 5339 H 515.437 3.0949 5.27282 0
M  V30 5340 H 519.611 3.97672 5.71691 0
M  V30 5341 H 517.238 4.60529 6.04828 0
M  V30 5342 N 518.813 -1.54241 0.323641 0
M  V30 5343 C 520.041 -2.04985 -0.280871 0
M  V30 5344 C 520.456 -1.19978 -1.45777 0
M  V30 5345 O 519.813 -0.230471 -1.81039 0
M  V30 5346 C 519.864 -3.54353 -0.715258 0
M  V30 5347 O 519.585 -4.36132 0.414817 0
M  V30 5348 C 521.086 -4.21189 -1.38257 0
M  V30 5349 H 518.306 -0.66851 -0.0577502 0
M  V30 5350 H 520.85 -1.99029 0.469852 0
M  V30 5351 H 519.005 -3.60596 -1.41596 0
M  V30 5352 H 519.419 -5.2445 0.0725227 0
M  V30 5353 H 520.893 -5.27154 -1.63745 0
M  V30 5354 H 521.37 -3.72307 -2.32989 0
M  V30 5355 H 521.976 -4.19085 -0.724447 0
M  V30 5356 N 520.291 -0.0518155 -1.57515 0
M  V30 5357 C 521.538 0.621823 -1.92716 0
M  V30 5358 C 521.866 1.70813 -0.930229 0
M  V30 5359 O 521.121 1.95616 0.0573708 0
M  V30 5360 C 521.42 1.25607 -3.34601 0
M  V30 5361 C 521.086 0.297901 -4.49915 0
M  V30 5362 C 519.748 0.034243 -4.81188 0
M  V30 5363 C 522.1 -0.358738 -5.19964 0
M  V30 5364 C 519.428 -0.893479 -5.79857 0
M  V30 5365 C 521.78 -1.27466 -6.19625 0
M  V30 5366 C 520.444 -1.54698 -6.49326 0
M  V30 5367 H 519.714 0.227541 -0.705199 0
M  V30 5368 H 522.361 -0.118432 -1.91133 0
M  V30 5369 H 520.666 2.07161 -3.32553 0
M  V30 5370 H 522.363 1.78424 -3.59118 0
M  V30 5371 H 518.953 0.513581 -4.25512 0
M  V30 5372 H 523.137 -0.168133 -4.96015 0
M  V30 5373 H 518.393 -1.11193 -6.01204 0
M  V30 5374 H 522.567 -1.78953 -6.73015 0
M  V30 5375 H 520.194 -2.26748 -7.25596 0
M  V30 5376 N 521.769 1.56035 0.221574 0
M  V30 5377 C 522.699 1.95434 1.2778 0
M  V30 5378 C 523.68 0.822564 1.48889 0
M  V30 5379 O 524.865 1.08486 1.61072 0
M  V30 5380 C 521.995 2.27102 2.62759 0
M  V30 5381 C 520.949 3.4277 2.56306 0
M  V30 5382 C 520.275 3.60043 3.95314 0
M  V30 5383 C 521.575 4.77742 2.11093 0
M  V30 5384 H 523.269 2.83912 0.950504 0
M  V30 5385 H 520.815 1.36596 0.455791 0
M  V30 5386 H 522.768 2.53256 3.36807 0
M  V30 5387 H 521.492 1.35478 2.97176 0
M  V30 5388 H 520.151 3.16664 1.84715 0
M  V30 5389 H 519.799 2.65794 4.27039 0
M  V30 5390 H 519.499 4.37841 3.91879 0
M  V30 5391 H 521.023 3.88545 4.71025 0
M  V30 5392 H 522.437 5.03102 2.74885 0
M  V30 5393 H 520.834 5.58823 2.18716 0
M  V30 5394 H 521.904 4.731 1.06321 0
M  V30 5395 N 523.247 -0.488276 1.49845 0
M  V30 5396 C 524.495 -1.23911 1.59657 0
M  V30 5397 C 524.816 -1.92816 0.291005 0
M  V30 5398 O 524.086 -1.83328 -0.690485 0
M  V30 5399 H 522.666 -0.460357 0.588286 0
M  V30 5400 H 525.328 -0.564794 1.86537 0
M  V30 5401 H 524.424 -1.99625 2.39909 0
M  V30 5402 N 524.725 -1.39134 -0.740242 0
M  V30 5403 C 525.672 -1.37434 -1.8542 0
M  V30 5404 C 526.642 -0.234822 -1.64432 0
M  V30 5405 O 527.827 -0.429125 -1.85912 0
M  V30 5406 C 524.967 -1.21844 -3.22875 0
M  V30 5407 C 524.08 -2.45296 -3.55603 0
M  V30 5408 C 523.215 -2.22334 -4.82432 0
M  V30 5409 C 522.254 -3.41488 -5.07988 0
M  V30 5410 N 521.391 -3.17877 -6.26018 0
M  V30 5411 H 526.231 -2.3266 -1.86207 0
M  V30 5412 H 523.768 -1.15578 -0.909946 0
M  V30 5413 H 525.726 -1.10818 -4.02213 0
M  V30 5414 H 524.356 -0.3025 -3.21379 0
M  V30 5415 H 523.408 -2.66945 -2.71006 0
M  V30 5416 H 524.72 -3.34063 -3.7041 0
M  V30 5417 H 523.874 -2.0852 -5.69741 0
M  V30 5418 H 522.613 -1.30954 -4.6979 0
M  V30 5419 H 521.618 -3.55807 -4.19144 0
M  V30 5420 H 522.843 -4.33763 -5.22519 0
M  V30 5421 H 520.789 -2.29156 -6.14673 0
M  V30 5422 H 520.706 -4.00198 -6.41387 0
M  V30 5423 H 521.974 -3.07746 -7.16179 0
M  V30 5424 N 526.204 0.969867 -1.24223 0
M  V30 5425 C 527.114 2.09806 -1.0497 0
M  V30 5426 C 528.13 1.73998 0.00886455 0
M  V30 5427 O 529.306 2.00513 -0.188848 0
M  V30 5428 C 526.371 3.40467 -0.654452 0
M  V30 5429 C 525.432 3.90236 -1.78926 0
M  V30 5430 C 524.665 5.14662 -1.41277 0
M  V30 5431 O 524.888 5.69602 -0.301632 0
M  V30 5432 O 523.822 5.58761 -2.23763 0
M  V30 5433 H 527.648 2.28942 -1.99548 0
M  V30 5434 H 525.233 1.08197 -1.03023 0
M  V30 5435 H 527.115 4.19039 -0.445452 0
M  V30 5436 H 525.79 3.22636 0.262216 0
M  V30 5437 H 524.697 3.12735 -2.05299 0
M  V30 5438 H 526.03 4.1254 -2.68462 0
M  V30 5439 N 527.682 1.05563 1.17022 0
M  V30 5440 C 528.912 0.787307 1.91011 0
M  V30 5441 C 529.32 -0.661256 1.77268 0
M  V30 5442 O 528.663 -1.46379 1.10991 0
M  V30 5443 C 528.725 1.09313 3.42478 0
M  V30 5444 C 528.389 2.53863 3.80004 0
M  V30 5445 C 529.386 3.52081 3.82538 0
M  V30 5446 C 527.071 2.88969 4.10855 0
M  V30 5447 C 529.065 4.83449 4.15399 0
M  V30 5448 C 526.752 4.2054 4.43384 0
M  V30 5449 C 527.75 5.17589 4.45635 0
M  V30 5450 O 527.438 6.46799 4.77395 0
M  V30 5451 H 527.17 0.285463 0.61277 0
M  V30 5452 H 529.724 1.41051 1.49311 0
M  V30 5453 H 527.954 0.412833 3.8449 0
M  V30 5454 H 529.643 0.810224 3.97731 0
M  V30 5455 H 530.409 3.26299 3.58823 0
M  V30 5456 H 526.288 2.1409 4.08272 0
M  V30 5457 H 529.832 5.59194 4.1707 0
M  V30 5458 H 525.729 4.46083 4.66563 0
M  V30 5459 H 526.497 6.51677 4.95237 0
M  V30 5460 N 529.16 -1.33526 0.837174 0
M  V30 5461 C 530.385 -2.0258 0.444545 0
M  V30 5462 C 530.81 -1.6258 -0.946006 0
M  V30 5463 O 530.168 -0.817548 -1.6182 0
M  V30 5464 C 530.216 -3.5605 0.571006 0
M  V30 5465 O 529.32 -4.10422 -0.403431 0
M  V30 5466 H 528.661 -0.638866 0.180958 0
M  V30 5467 H 531.191 -1.70462 1.13154 0
M  V30 5468 H 531.201 -4.05488 0.452024 0
M  V30 5469 H 529.876 -3.84509 1.58512 0
M  V30 5470 H 528.453 -3.72113 -0.242147 0
M  V30 5471 N 530.638 -0.59345 -1.46 0
M  V30 5472 C 531.866 -0.0890934 -2.06708 0
M  V30 5473 C 532.281 1.2205 -1.44046 0
M  V30 5474 O 531.638 1.74029 -0.549551 0
M  V30 5475 C 531.689 0.0720263 -3.61428 0
M  V30 5476 O 531.41 -1.18574 -4.21748 0
M  V30 5477 C 532.911 0.609487 -4.3909 0
M  V30 5478 H 530.131 -0.0623628 -0.668096 0
M  V30 5479 H 532.675 -0.817171 -1.87464 0
M  V30 5480 H 530.83 0.750369 -3.80063 0
M  V30 5481 H 531.244 -1.0064 -5.14754 0
M  V30 5482 H 532.718 0.671363 -5.47902 0
M  V30 5483 H 533.195 1.62878 -4.07882 0
M  V30 5484 H 533.801 -0.03434 -4.25286 0
M  V30 5485 N 532.116 1.54067 -0.331816 0
M  V30 5486 C 533.356 2.02625 0.26876 0
M  V30 5487 C 533.72 1.21462 1.48697 0
M  V30 5488 O 534.921 1.59863 2.16096 0
M  V30 5489 C 533.192 3.52554 0.586577 0
M  V30 5490 S 534.751 4.23035 1.16563 0
M  V30 5491 H 531.569 0.706395 0.0807862 0
M  V30 5492 H 534.171 1.89844 -0.466856 0
M  V30 5493 H 532.875 4.09242 -0.308046 0
M  V30 5494 H 532.406 3.69432 1.35217 0
M  V30 5495 H 534.421 4.31382 2.45203 0
M  V30 5496 N 533.594 0.0601682 1.57485 0
M  V30 5497 C 534.822 -0.620937 1.97363 0
M  V30 5498 C 535.237 -1.63846 0.938082 0
M  V30 5499 O 534.594 -1.82339 -0.0766578 0
M  V30 5500 C 534.645 -1.29987 3.37321 0
M  V30 5501 O 534.366 -0.323081 4.36907 0
M  V30 5502 C 535.867 -2.06989 3.92008 0
M  V30 5503 H 533.087 -0.169135 0.649334 0
M  V30 5504 H 535.631 0.129132 2.04092 0
M  V30 5505 H 533.786 -2.0011 3.31715 0
M  V30 5506 H 534.2 -0.808754 5.18227 0
M  V30 5507 H 535.674 -2.49901 4.92192 0
M  V30 5508 H 536.151 -2.92173 3.2792 0
M  V30 5509 H 536.757 -1.41757 4.0098 0
M  V30 5510 N 535.072 -1.5615 -0.213296 0
M  V30 5511 C 536.297 -1.83986 -0.957282 0
M  V30 5512 C 536.722 -0.641526 -1.76822 0
M  V30 5513 O 536.08 0.409722 -1.7661 0
M  V30 5514 C 536.128 -3.09889 -1.84393 0
M  V30 5515 O 535.232 -2.89163 -2.94038 0
M  V30 5516 H 534.573 -0.606357 -0.270605 0
M  V30 5517 H 537.103 -2.03369 -0.224111 0
M  V30 5518 H 537.113 -3.40209 -2.25215 0
M  V30 5519 H 535.788 -3.96735 -1.24795 0
M  V30 5520 H 534.365 -2.70097 -2.57103 0
M  V30 5521 N 536.55 0.480323 -1.50102 0
M  V30 5522 C 537.46 1.60547 -1.71061 0
M  V30 5523 C 538.476 1.63564 -0.593529 0
M  V30 5524 O 539.652 1.81604 -0.870751 0
M  V30 5525 C 536.717 2.96814 -1.79171 0
M  V30 5526 C 535.778 3.04259 -3.02861 0
M  V30 5527 C 535.011 4.34027 -3.10574 0
M  V30 5528 O 535.234 5.24009 -2.25323 0
M  V30 5529 O 534.168 4.46873 -4.03223 0
M  V30 5530 H 537.994 1.45788 -2.6642 0
M  V30 5531 H 535.579 0.658838 -1.34088 0
M  V30 5532 H 537.461 3.77765 -1.86738 0
M  V30 5533 H 536.136 3.11791 -0.869947 0
M  V30 5534 H 535.043 2.22419 -3.008 0
M  V30 5535 H 536.376 2.94216 -3.94586 0
M  V30 5536 N 538.028 1.39524 0.732853 0
M  V30 5537 C 539.276 1.36594 1.48951 0
M  V30 5538 C 539.597 -0.0367507 1.94965 0
M  V30 5539 O 538.867 -0.988391 1.69138 0
M  V30 5540 H 537.447 0.502673 0.552566 0
M  V30 5541 H 540.109 1.74411 0.869869 0
M  V30 5542 H 539.205 2.03 2.3706 0
M  V30 5543 N 539.506 -0.963266 1.24736 0
M  V30 5544 C 540.922 -1.23273 1.01371 0
M  V30 5545 C 541.122 -1.99618 -0.274776 0
M  V30 5546 O 540.178 -2.32293 -0.989769 0
M  V30 5547 C 541.491 -2.01554 2.23152 0
M  V30 5548 C 543.039 -2.14629 2.27823 0
M  V30 5549 C 543.514 -2.96307 3.49237 0
M  V30 5550 N 545.005 -3.03887 3.49581 0
M  V30 5551 C 545.74 -3.67456 4.40186 0
M  V30 5552 N 545.236 -4.32706 5.41052 0
M  V30 5553 N 547.029 -3.64511 4.27888 0
M  V30 5554 H 539.18 -0.452294 2.07528 0
M  V30 5555 H 541.443 -0.262521 0.910926 0
M  V30 5556 H 541.149 -1.52847 3.1675 0
M  V30 5557 H 541.023 -3.02278 2.25628 0
M  V30 5558 H 543.41 -2.62537 1.34753 0
M  V30 5559 H 543.491 -1.13238 2.2937 0
M  V30 5560 H 543.135 -2.49091 4.42624 0
M  V30 5561 H 543.065 -3.97905 3.44933 0
M  V30 5562 H 545.556 -2.57477 2.76611 0
M  V30 5563 H 545.869 -4.79042 6.06415 0
M  V30 5564 H 544.214 -4.31361 5.44934 0
M  V30 5565 H 547.405 -3.12715 3.4832 0
M  V30 5566 H 547.578 -4.13768 4.98698 0
M  V30 5567 N 540.985 -1.06182 -1.16461 0
M  V30 5568 C 542.233 -0.776326 -1.86595 0
M  V30 5569 C 542.554 0.69921 -1.82033 0
M  V30 5570 O 541.824 1.50579 -1.2531 0
M  V30 5571 H 540.404 -0.284184 -0.690832 0
M  V30 5572 H 543.066 -1.34308 -1.41235 0
M  V30 5573 H 542.162 -1.10022 -2.92064 0
M  V30 5574 N 542.463 1.3308 -0.844243 0
M  V30 5575 C 543.74 1.92178 -0.364261 0
M  V30 5576 C 544.12 1.76961 1.15101 0
M  V30 5577 O 543.468 1.16128 1.9679 0
M  V30 5578 C 543.678 3.393 -0.817106 0
M  V30 5579 C 545.026 4.16444 -0.828236 0
M  V30 5580 O 546.05 3.47975 -0.761062 0
M  V30 5581 O 544.909 5.38685 -0.920926 0
M  V30 5582 H 542.003 0.820411 -0.10419 0
M  V30 5583 H 544.549 1.41918 -0.930453 0
M  V30 5584 H 543.321 3.44272 -1.85991 0
M  V30 5585 H 542.944 3.96947 -0.227785 0
M  V30 5586 N 543.941 0.601185 1.45683 0
M  V30 5587 C 545.189 0.0936957 2.01883 0
M  V30 5588 C 545.51 -1.2779 1.47291 0
M  V30 5589 O 544.78 -1.84279 0.664691 0
M  V30 5590 H 543.36 0.0316466 0.746329 0
M  V30 5591 H 546.022 0.781137 1.78562 0
M  V30 5592 H 545.118 0.0386297 3.12076 0
M  V30 5593 N 545.419 -1.53889 0.339982 0
M  V30 5594 C 546.835 -1.59595 -0.0120752 0
M  V30 5595 C 547.035 -1.35605 -1.49042 0
M  V30 5596 O 546.091 -1.14856 -2.24865 0
M  V30 5597 C 547.404 -2.9774 0.420898 0
M  V30 5598 C 548.952 -3.1077 0.37294 0
M  V30 5599 C 549.427 -4.51286 0.781327 0
M  V30 5600 N 550.918 -4.57325 0.735374 0
M  V30 5601 C 551.653 -5.64194 1.02336 0
M  V30 5602 N 551.149 -6.7893 1.37933 0
M  V30 5603 N 552.942 -5.54051 0.947838 0
M  V30 5604 H 545.093 -1.67738 1.30299 0
M  V30 5605 H 547.356 -0.785385 0.530918 0
M  V30 5606 H 547.062 -3.20349 1.45152 0
M  V30 5607 H 546.936 -3.76639 -0.205721 0
M  V30 5608 H 549.323 -2.87886 -0.648505 0
M  V30 5609 H 549.404 -2.33939 1.03472 0
M  V30 5610 H 549.048 -4.74905 1.80077 0
M  V30 5611 H 548.978 -5.26511 0.0970679 0
M  V30 5612 H 551.469 -3.74931 0.472773 0
M  V30 5613 H 551.782 -7.56392 1.58402 0
M  V30 5614 H 550.127 -6.80386 1.41774 0
M  V30 5615 H 553.318 -4.63293 0.669115 0
M  V30 5616 H 553.491 -6.37246 1.17563 0
M  V30 5617 N 546.897 -0.0685191 -1.57451 0
M  V30 5618 C 547.827 0.89747 -2.15564 0
M  V30 5619 C 548.808 1.31266 -1.08181 0
M  V30 5620 O 549.993 1.38429 -1.36202 0
M  V30 5621 C 547.123 2.16623 -2.71463 0
M  V30 5622 C 546.077 1.89054 -3.83982 0
M  V30 5623 C 545.403 3.22532 -4.26471 0
M  V30 5624 C 546.703 1.1984 -5.08366 0
M  V30 5625 H 548.397 0.413373 -2.96533 0
M  V30 5626 H 545.943 0.197391 -1.42641 0
M  V30 5627 H 547.896 2.84614 -3.10761 0
M  V30 5628 H 546.62 2.67269 -1.8771 0
M  V30 5629 H 545.279 1.23469 -3.45183 0
M  V30 5630 H 544.927 3.71013 -3.39644 0
M  V30 5631 H 544.627 3.04879 -5.02317 0
M  V30 5632 H 546.151 3.91727 -4.68383 0
M  V30 5633 H 547.565 1.77896 -5.45001 0
M  V30 5634 H 545.962 1.12456 -5.89469 0
M  V30 5635 H 547.032 0.176996 -4.84577 0
M  V30 5636 N 548.375 1.56261 0.205012 0
M  V30 5637 C 549.621 1.81211 0.923805 0
M  V30 5638 C 549.976 0.644065 1.813 0
M  V30 5639 O 549.269 -0.361208 1.88164 0
M  V30 5640 C 549.463 3.09722 1.78345 0
M  V30 5641 C 549.292 4.38915 0.978979 0
M  V30 5642 C 548.062 5.00874 0.667332 0
M  V30 5643 C 550.26 5.13199 0.336386 0
M  V30 5644 N 548.242 6.137 -0.156814 0
M  V30 5645 C 549.613 6.19009 -0.350402 0
M  V30 5646 C 551.668 4.97266 0.251101 0
M  V30 5647 C 550.371 7.10616 -1.11434 0
M  V30 5648 C 552.397 5.89288 -0.499413 0
M  V30 5649 C 551.759 6.94536 -1.17468 0
M  V30 5650 H 547.858 0.714528 0.317764 0
M  V30 5651 H 550.442 1.93738 0.193317 0
M  V30 5652 H 548.613 2.98448 2.48563 0
M  V30 5653 H 550.345 3.22798 2.44098 0
M  V30 5654 H 547.1 4.63151 0.989366 0
M  V30 5655 H 547.524 6.74695 -0.558206 0
M  V30 5656 H 552.166 4.15935 0.758823 0
M  V30 5657 H 549.884 7.91417 -1.63353 0
M  V30 5658 H 553.47 5.79034 -0.566627 0
M  V30 5659 H 552.35 7.64513 -1.74613 0
M  V30 5660 N 549.853 -0.472356 1.50355 0
M  V30 5661 C 551.093 -1.23439 1.62918 0
M  V30 5662 C 551.457 -1.89284 0.321801 0
M  V30 5663 O 552.658 -2.66854 0.322852 0
M  V30 5664 C 550.929 -2.25119 2.7759 0
M  V30 5665 S 552.488 -3.10278 3.10279 0
M  V30 5666 H 549.306 -0.41911 0.574341 0
M  V30 5667 H 551.908 -0.531621 1.88133 0
M  V30 5668 H 550.612 -1.75324 3.71066 0
M  V30 5669 H 550.143 -3.00026 2.54457 0
M  V30 5670 H 552.158 -4.26257 2.54007 0
M  V30 5671 N 551.331 -1.39911 -0.725443 0
M  V30 5672 C 552.294 -1.39156 -1.82121 0
M  V30 5673 C 553.294 -0.287018 -1.58218 0
M  V30 5674 O 554.484 -0.545421 -1.65441 0
M  V30 5675 C 551.616 -1.1736 -3.20062 0
M  V30 5676 H 552.809 -2.36672 -1.84191 0
M  V30 5677 H 550.362 -1.25615 -0.930079 0
M  V30 5678 H 551.097 -0.205648 -3.23647 0
M  V30 5679 H 550.882 -1.97358 -3.3881 0
M  V30 5680 H 552.372 -1.19596 -4.00108 0
M  V30 5681 N 552.809 0.956637 -1.25245 0
M  V30 5682 C 554.037 1.73571 -1.12608 0
M  V30 5683 C 554.452 1.86063 0.320324 0
M  V30 5684 O 553.809 1.35691 1.22042 0
M  V30 5685 C 553.86 3.15053 -1.77268 0
M  V30 5686 O 553.581 3.03174 -3.16255 0
M  V30 5687 C 555.082 4.09248 -1.70386 0
M  V30 5688 H 552.302 0.543955 -0.392879 0
M  V30 5689 H 554.846 1.20031 -1.65568 0
M  V30 5690 H 553.001 3.65543 -1.28284 0
M  V30 5691 H 553.415 3.9241 -3.48015 0
M  V30 5692 H 554.889 5.06138 -2.20291 0
M  V30 5693 H 555.366 4.34102 -0.667239 0
M  V30 5694 H 555.972 3.64672 -2.18849 0
M  V30 5695 N 554.287 1.06798 1.15896 0
M  V30 5696 C 555.515 0.808694 1.90441 0
M  V30 5697 C 555.93 -0.637506 1.77711 0
M  V30 5698 O 555.287 -1.43684 1.12522 0
M  V30 5699 C 555.338 1.20068 3.40978 0
M  V30 5700 O 555.059 2.59013 3.53333 0
M  V30 5701 C 556.56 0.96987 4.3256 0
M  V30 5702 H 553.78 0.292809 0.603742 0
M  V30 5703 H 556.324 1.42296 1.46874 0
M  V30 5704 H 554.479 0.630842 3.82229 0
M  V30 5705 H 554.893 2.7485 4.46719 0
M  V30 5706 H 556.367 1.29371 5.36626 0
M  V30 5707 H 556.844 -0.0941209 4.39099 0
M  V30 5708 H 557.45 1.52433 3.97044 0
M  V30 5709 N 555.766 -1.3263 0.851289 0
M  V30 5710 C 556.991 -2.02097 0.466006 0
M  V30 5711 C 557.416 -1.63574 -0.928709 0
M  V30 5712 O 556.774 -0.834665 -1.60944 0
M  V30 5713 C 556.822 -3.55425 0.608737 0
M  V30 5714 O 555.926 -4.10827 -0.359878 0
M  V30 5715 H 555.267 -0.636911 0.187724 0
M  V30 5716 H 557.797 -1.69253 1.14955 0
M  V30 5717 H 557.807 -4.04986 0.495006 0
M  V30 5718 H 556.482 -3.82806 1.62581 0
M  V30 5719 H 555.059 -3.72349 -0.202666 0
M  V30 5720 N 557.244 -0.608902 -1.45362 0
M  V30 5721 C 558.192 0.121639 -2.32282 0
M  V30 5722 C 559.186 0.858301 -1.46046 0
M  V30 5723 O 560.392 0.773718 -1.62523 0
M  V30 5724 H 556.767 0.058086 -0.749753 0
M  V30 5725 H 558.738 -0.629866 -2.91677 0
M  V30 5726 C 557.487 1.1047 -3.29684 0
M  V30 5727 H 556.81 0.547278 -3.96036 0
M  V30 5728 H 558.25 1.58576 -3.9323 0
M  V30 5729 C 556.709 2.17891 -2.56954 0
M  V30 5730 O 557.239 3.25652 -2.35189 0
M  V30 5731 N 555.445 1.93211 -2.17066 0
M  V30 5732 H 554.992 1.05584 -2.34967 0
M  V30 5733 H 554.95 2.6529 -1.68727 0
M  V30 5734 N 558.722 1.53707 -0.348139 0
M  V30 5735 C 559.969 2.00988 0.246966 0
M  V30 5736 C 560.297 1.23586 1.50189 0
M  V30 5737 O 559.552 0.312817 1.93184 0
M  V30 5738 C 559.851 3.52292 0.602061 0
M  V30 5739 C 559.517 4.47453 -0.556509 0
M  V30 5740 C 558.179 4.73188 -0.874446 0
M  V30 5741 C 560.531 5.03851 -1.33354 0
M  V30 5742 C 557.859 5.52577 -1.9717 0
M  V30 5743 C 560.211 5.84437 -2.42108 0
M  V30 5744 C 558.875 6.08465 -2.74456 0
M  V30 5745 H 558.145 0.735469 0.0903712 0
M  V30 5746 H 560.792 1.85464 -0.477001 0
M  V30 5747 H 559.097 3.65672 1.40681 0
M  V30 5748 H 560.794 3.86337 1.07447 0
M  V30 5749 H 557.384 4.27558 -0.298652 0
M  V30 5750 H 561.568 4.8393 -1.10117 0
M  V30 5751 H 556.824 5.69418 -2.22651 0
M  V30 5752 H 560.998 6.27151 -3.02745 0
M  V30 5753 H 558.625 6.69768 -3.59604 0
M  V30 5754 N 560.2 0.0768682 1.57412 0
M  V30 5755 C 561.477 -0.632359 1.85096 0
M  V30 5756 C 561.857 -1.87479 0.9703 0
M  V30 5757 O 561.205 -2.28469 0.0379062 0
M  V30 5758 C 561.415 -0.965174 3.35388 0
M  V30 5759 C 562.763 -1.33648 4.03018 0
M  V30 5760 O 563.787 -1.05675 3.40164 0
M  V30 5761 O 562.646 -1.85959 5.13889 0
M  V30 5762 H 559.74 -0.314574 0.764835 0
M  V30 5763 H 562.286 0.108184 1.69355 0
M  V30 5764 H 561.058 -0.0829745 3.91212 0
M  V30 5765 H 560.681 -1.76231 3.5641 0
M  V30 5766 N 561.678 -1.56367 -0.196722 0
M  V30 5767 C 562.903 -1.84991 -0.937714 0
M  V30 5768 C 563.328 -0.660244 -1.76132 0
M  V30 5769 O 562.686 0.390967 -1.77034 0
M  V30 5770 C 562.734 -3.11828 -1.81096 0
M  V30 5771 O 561.838 -2.92266 -2.90955 0
M  V30 5772 H 561.179 -0.609193 -0.264159 0
M  V30 5773 H 563.709 -2.03595 -0.202529 0
M  V30 5774 H 563.719 -3.42579 -2.21594 0
M  V30 5775 H 562.394 -3.98037 -1.2058 0
M  V30 5776 H 560.971 -2.72809 -2.54224 0
M  V30 5777 N 563.156 0.464375 -1.50603 0
M  V30 5778 C 564.433 1.22549 -1.5245 0
M  V30 5779 C 564.813 2.09327 -0.273035 0
M  V30 5780 O 564.161 2.16074 0.743242 0
M  V30 5781 C 564.371 2.05074 -2.82393 0
M  V30 5782 C 565.719 2.63036 -3.33313 0
M  V30 5783 O 566.743 2.1531 -2.8376 0
M  V30 5784 O 565.602 3.5001 -4.19709 0
M  V30 5785 H 562.696 0.556471 -0.611775 0
M  V30 5786 H 565.242 0.475648 -1.62898 0
M  V30 5787 H 564.014 1.41169 -3.64948 0
M  V30 5788 H 563.637 2.87179 -2.7498 0
M  V30 5789 N 564.634 1.40294 0.718013 0
M  V30 5790 C 565.581 1.40367 1.8321 0
M  V30 5791 C 566.551 0.260952 1.64037 0
M  V30 5792 O 567.736 0.458648 1.85205 0
M  V30 5793 C 564.876 1.26965 3.20895 0
M  V30 5794 C 563.989 2.50922 3.51656 0
M  V30 5795 C 563.124 2.29981 4.78834 0
M  V30 5796 C 562.163 3.49527 5.02491 0
M  V30 5797 N 561.3 3.27796 6.20882 0
M  V30 5798 H 566.14 2.35593 1.82482 0
M  V30 5799 H 563.677 1.17012 0.891444 0
M  V30 5800 H 565.635 1.17202 4.00399 0
M  V30 5801 H 564.265 0.353591 3.20858 0
M  V30 5802 H 563.317 2.71223 2.66725 0
M  V30 5803 H 564.629 3.39913 3.65048 0
M  V30 5804 H 563.783 2.17558 5.66351 0
M  V30 5805 H 562.522 1.38411 4.67647 0
M  V30 5806 H 561.527 3.6243 4.1343 0
M  V30 5807 H 562.752 4.42021 5.15553 0
M  V30 5808 H 560.698 2.38906 6.1095 0
M  V30 5809 H 560.615 4.10351 6.34939 0
M  V30 5810 H 561.883 3.19101 7.11193 0
M  V30 5811 N 566.112 -0.949982 1.2575 0
M  V30 5812 C 567.059 -2.04738 1.06541 0
M  V30 5813 C 568.029 -1.66078 -0.0268818 0
M  V30 5814 O 569.214 -1.90348 0.131196 0
M  V30 5815 C 566.354 -3.38027 0.695127 0
M  V30 5816 C 565.467 -3.89776 1.86276 0
M  V30 5817 C 564.602 -5.11411 1.4364 0
M  V30 5818 C 563.641 -5.554 2.57287 0
M  V30 5819 N 562.778 -6.68244 2.15395 0
M  V30 5820 H 567.618 -2.20502 2.00457 0
M  V30 5821 H 565.155 -1.0805 0.998178 0
M  V30 5822 H 567.113 -4.14641 0.461375 0
M  V30 5823 H 565.743 -3.22135 -0.207046 0
M  V30 5824 H 564.795 -3.0964 2.20969 0
M  V30 5825 H 566.107 -4.18368 2.71606 0
M  V30 5826 H 565.261 -5.95457 1.16257 0
M  V30 5827 H 564 -4.84545 0.553879 0
M  V30 5828 H 563.005 -4.69916 2.85409 0
M  V30 5829 H 564.23 -5.84272 3.46125 0
M  V30 5830 H 562.176 -6.43078 1.29565 0
M  V30 5831 H 562.093 -6.96377 2.94272 0
M  V30 5832 H 563.361 -7.55687 1.91201 0
M  V30 5833 N 567.59 -1.07411 -1.15328 0
M  V30 5834 C 568.836 -0.808666 -1.86634 0
M  V30 5835 C 569.191 0.65816 -1.80793 0
M  V30 5836 O 568.484 1.47689 -1.22059 0
M  V30 5837 C 568.678 -1.25191 -3.34757 0
M  V30 5838 C 568.507 -2.76028 -3.55019 0
M  V30 5839 C 567.277 -3.43644 -3.70455 0
M  V30 5840 C 569.475 -3.74224 -3.5279 0
M  V30 5841 N 567.457 -4.83117 -3.78776 0
M  V30 5842 C 568.828 -4.9954 -3.67233 0
M  V30 5843 C 570.883 -3.67373 -3.36068 0
M  V30 5844 C 569.586 -6.18819 -3.66682 0
M  V30 5845 C 571.612 -4.86116 -3.36816 0
M  V30 5846 C 570.974 -6.10266 -3.51789 0
M  V30 5847 H 567.073 -0.348478 -0.700062 0
M  V30 5848 H 569.657 -1.37049 -1.38295 0
M  V30 5849 H 567.828 -0.717775 -3.8171 0
M  V30 5850 H 569.56 -0.933936 -3.93776 0
M  V30 5851 H 566.315 -2.94051 -3.71256 0
M  V30 5852 H 566.739 -5.55705 -3.86679 0
M  V30 5853 H 571.381 -2.72334 -3.2341 0
M  V30 5854 H 569.099 -7.14179 -3.78118 0
M  V30 5855 H 572.685 -4.82492 -3.25103 0
M  V30 5856 H 571.565 -7.00609 -3.52301 0
M  V30 5857 N 569.068 1.32177 -0.85831 0
M  V30 5858 C 570.316 1.96735 -0.462568 0
M  V30 5859 C 570.637 1.6824 0.985911 0
M  V30 5860 O 569.907 0.991564 1.68952 0
M  V30 5861 H 568.487 0.727849 -0.168064 0
M  V30 5862 H 571.149 1.61195 -1.09554 0
M  V30 5863 H 570.245 3.06068 -0.610647 0
M  V30 5864 N 570.547 0.616602 1.45037 0
M  V30 5865 C 571.794 0.115331 2.02171 0
M  V30 5866 C 572.122 -1.25748 1.48383 0
M  V30 5867 O 571.377 -1.84511 0.652229 0
M  V30 5868 C 571.676 0.0356829 3.57382 0
M  V30 5869 C 571.342 1.34535 4.30362 0
M  V30 5870 C 570.004 1.70408 4.50016 0
M  V30 5871 C 572.356 2.21049 4.72003 0
M  V30 5872 C 569.684 2.92529 5.0857 0
M  V30 5873 C 572.036 3.42427 5.31908 0
M  V30 5874 C 570.7 3.78541 5.49784 0
M  V30 5875 H 569.97 0.0422024 0.739797 0
M  V30 5876 H 572.617 0.80002 1.73988 0
M  V30 5877 H 570.922 -0.732314 3.84895 0
M  V30 5878 H 572.619 -0.368463 3.99304 0
M  V30 5879 H 569.209 1.05615 4.15383 0
M  V30 5880 H 573.393 1.94632 4.56544 0
M  V30 5881 H 568.649 3.20605 5.20598 0
M  V30 5882 H 572.823 4.09709 5.63127 0
M  V30 5883 H 570.45 4.73255 5.94923 0
M  V30 5884 N 572.025 -1.5352 0.356285 0
M  V30 5885 C 573.265 -2.03027 -0.23649 0
M  V30 5886 C 573.629 -1.23813 -1.46746 0
M  V30 5887 O 574.83 -1.63281 -2.13525 0
M  V30 5888 C 573.101 -3.53442 -0.530415 0
M  V30 5889 S 574.66 -4.24836 -1.09819 0
M  V30 5890 H 571.478 -0.707591 -0.0695378 0
M  V30 5891 H 574.08 -1.89077 0.496999 0
M  V30 5892 H 572.784 -4.087 0.373114 0
M  V30 5893 H 572.315 -3.71536 -1.29323 0
M  V30 5894 H 574.33 -4.35228 -2.38309 0
M  V30 5895 N 573.503 -0.0852151 -1.57369 0
M  V30 5896 C 574.914 0.445428 -1.81309 0
M  V30 5897 C 575.265 1.68795 -1.00013 0
M  V30 5898 O 574.39 2.15211 -0.226573 0
M  V30 5899 C 574.985 0.814887 -3.28854 0
M  V30 5900 C 573.544 1.29032 -3.53592 0
M  V30 5901 C 572.691 0.282089 -2.75861 0
M  V30 5902 H 575.642 -0.310771 -1.55627 0
M  V30 5903 H 575.663 1.67524 -3.41637 0
M  V30 5904 H 575.175 -0.0896309 -3.87996 0
M  V30 5905 H 573.276 2.21289 -2.9977 0
M  V30 5906 H 573.389 1.25898 -4.62262 0
M  V30 5907 H 571.753 0.762182 -2.43029 0
M  V30 5908 H 572.536 -0.614936 -3.37748 0
M  V30 5909 N 574.981 1.5647 0.188427 0
M  V30 5910 C 576.258 1.71857 0.934058 0
M  V30 5911 C 576.638 0.641867 2.01105 0
M  V30 5912 O 575.986 -0.346098 2.25864 0
M  V30 5913 C 576.196 3.14431 1.5144 0
M  V30 5914 C 577.544 3.74869 1.99396 0
M  V30 5915 O 578.568 3.17601 1.61269 0
M  V30 5916 O 577.427 4.75387 2.69573 0
M  V30 5917 H 574.521 0.701186 0.438483 0
M  V30 5918 H 577.067 1.68768 0.177599 0
M  V30 5919 H 575.839 3.8427 0.738416 0
M  V30 5920 H 575.462 3.21775 2.33552 0
M  V30 5921 N 576.459 -0.456382 1.50847 0
M  V30 5922 C 577.391 -1.57033 1.66953 0
M  V30 5923 C 578.404 -1.53207 0.550593 0
M  V30 5924 O 579.593 -1.58328 0.824285 0
M  V30 5925 C 576.693 -2.95937 1.65149 0
M  V30 5926 C 575.866 -3.24475 2.93317 0
M  V30 5927 C 574.925 -4.43007 2.83957 0
M  V30 5928 O 573.951 -4.42592 3.57912 0
M  V30 5929 N 575.153 -5.45503 1.9851 0
M  V30 5930 H 577.918 -1.43629 2.63042 0
M  V30 5931 H 575.479 -0.645037 1.48495 0
M  V30 5932 H 577.471 -3.73224 1.56481 0
M  V30 5933 H 576.041 -3.03036 0.767343 0
M  V30 5934 H 575.261 -2.35664 3.16 0
M  V30 5935 H 576.549 -3.4036 3.78196 0
M  V30 5936 H 575.947 -5.48668 1.37766 0
M  V30 5937 H 574.504 -6.21716 1.95735 0
M  V30 5938 N 577.937 -1.40673 -0.710563 0
M  V30 5939 C 579.185 -1.38947 -1.46759 0
M  V30 5940 C 579.506 0.00572879 -1.94999 0
M  V30 5941 O 578.776 0.961358 -1.70689 0
M  V30 5942 H 577.356 -0.5114 -0.544499 0
M  V30 5943 H 580.018 -1.75773 -0.842012 0
M  V30 5944 H 579.114 -2.06745 -2.33801 0
M  V30 5945 N 579.415 0.9433 -1.26252 0
M  V30 5946 C 580.645 1.72117 -1.14277 0
M  V30 5947 C 581.053 1.86726 0.304944 0
M  V30 5948 O 580.396 1.3727 1.22076 0
M  V30 5949 C 580.458 3.14778 -1.73651 0
M  V30 5950 C 580.122 3.23561 -3.22734 0
M  V30 5951 C 581.119 3.07001 -4.19579 0
M  V30 5952 C 578.804 3.47019 -3.63157 0
M  V30 5953 C 580.798 3.13763 -5.54826 0
M  V30 5954 C 578.485 3.53416 -4.98538 0
M  V30 5955 C 579.483 3.36804 -5.94182 0
M  V30 5956 O 579.171 3.42906 -7.27098 0
M  V30 5957 H 578.903 0.545781 -0.398873 0
M  V30 5958 H 581.457 1.19123 -1.67328 0
M  V30 5959 H 579.687 3.69186 -1.1506 0
M  V30 5960 H 581.376 3.74469 -1.56613 0
M  V30 5961 H 582.142 2.88736 -3.89688 0
M  V30 5962 H 578.021 3.59006 -2.89199 0
M  V30 5963 H 581.565 3.00714 -6.29458 0
M  V30 5964 H 577.462 3.71201 -5.28091 0
M  V30 5965 H 578.23 3.59463 -7.35342 0
M  V30 5966 N 580.893 1.08022 1.14757 0
M  V30 5967 C 582.118 0.82895 1.90114 0
M  V30 5968 C 582.543 -0.612772 1.77839 0
M  V30 5969 O 581.901 -1.42895 1.11583 0
M  V30 5970 C 581.949 1.25062 3.38219 0
M  V30 5971 O 581.053 0.400119 4.10454 0
M  V30 5972 H 580.394 0.301412 0.591648 0
M  V30 5973 H 582.924 1.44062 1.45284 0
M  V30 5974 H 582.934 1.22977 3.89025 0
M  V30 5975 H 581.609 2.30067 3.46471 0
M  V30 5976 H 580.186 0.484052 3.69745 0
M  V30 5977 N 582.371 -1.3172 0.865308 0
M  V30 5978 C 583.301 -2.31109 0.333302 0
M  V30 5979 C 584.282 -1.60148 -0.573301 0
M  V30 5980 O 585.467 -1.87882 -0.491305 0
M  V30 5981 C 582.597 -3.44104 -0.470078 0
M  V30 5982 C 581.551 -4.26623 0.343021 0
M  V30 5983 C 580.877 -5.31482 -0.585756 0
M  V30 5984 C 582.177 -4.98001 1.57456 0
M  V30 5985 H 583.871 -2.75855 1.1638 0
M  V30 5986 H 581.417 -1.3262 0.561069 0
M  V30 5987 H 583.37 -4.12682 -0.852752 0
M  V30 5988 H 582.094 -2.98112 -1.33404 0
M  V30 5989 H 580.753 -3.59707 0.707583 0
M  V30 5990 H 580.401 -4.81741 -1.44686 0
M  V30 5991 H 580.101 -5.87582 -0.0456494 0
M  V30 5992 H 581.625 -6.0292 -0.965375 0
M  V30 5993 H 583.039 -5.59201 1.26359 0
M  V30 5994 H 581.436 -5.63876 2.05339 0
M  V30 5995 H 582.506 -4.25253 2.32997 0
M  V30 5996 N 583.85 -0.624285 -1.44708 0
M  V30 5997 C 585.096 -0.126051 -2.02107 0
M  V30 5998 C 585.425 1.2496 -1.49048 0
M  V30 5999 O 584.68 1.84163 -0.662005 0
M  V30 6000 C 584.979 -0.0546353 -3.57358 0
M  V30 6001 C 584.644 -1.36815 -4.29642 0
M  V30 6002 C 583.307 -1.72792 -4.49106 0
M  V30 6003 C 585.659 -2.23549 -4.70824 0
M  V30 6004 C 582.986 -2.95222 -5.07012 0
M  V30 6005 C 585.339 -3.45243 -5.30085 0
M  V30 6006 C 584.003 -3.81452 -5.47769 0
M  V30 6007 H 583.273 -0.0461252 -0.739563 0
M  V30 6008 H 585.92 -0.809236 -1.73562 0
M  V30 6009 H 584.225 0.711891 -3.85278 0
M  V30 6010 H 585.922 0.347282 -3.99493 0
M  V30 6011 H 582.512 -1.07817 -4.14817 0
M  V30 6012 H 586.696 -1.9705 -4.55505 0
M  V30 6013 H 581.952 -3.23361 -5.18891 0
M  V30 6014 H 586.125 -4.12689 -5.60946 0
M  V30 6015 H 583.753 -4.76403 -5.92405 0
M  V30 6016 N 585.328 1.53329 -0.364422 0
M  V30 6017 C 586.258 2.28627 0.474543 0
M  V30 6018 C 587.239 1.31009 1.08492 0
M  V30 6019 O 588.424 1.59878 1.10239 0
M  V30 6020 C 585.554 3.07465 1.61501 0
M  V30 6021 C 584.508 4.1276 1.13194 0
M  V30 6022 C 583.834 4.79674 2.36255 0
M  V30 6023 C 585.134 5.21847 0.217507 0
M  V30 6024 H 586.828 2.99005 -0.153656 0
M  V30 6025 H 584.374 1.43803 -0.0753406 0
M  V30 6026 H 586.327 3.58889 2.20855 0
M  V30 6027 H 585.051 2.34775 2.27042 0
M  V30 6028 H 583.71 3.62281 0.56109 0
M  V30 6029 H 583.358 4.03557 3.00251 0
M  V30 6030 H 583.058 5.50827 2.04606 0
M  V30 6031 H 584.582 5.33892 2.96297 0
M  V30 6032 H 585.996 5.6878 0.718493 0
M  V30 6033 H 584.393 6.00099 -0.00806408 0
M  V30 6034 H 585.463 4.7921 -0.740653 0
M  V30 6035 N 586.806 0.0935595 1.57322 0
M  V30 6036 C 588.052 -0.571355 1.94585 0
M  V30 6037 C 588.385 -1.67929 0.975366 0
M  V30 6038 O 587.66 -1.94498 0.00816206 0
M  V30 6039 C 587.943 -1.12797 3.41978 0
M  V30 6040 C 587.796 -0.0251881 4.49793 0
M  V30 6041 C 589.115 -2.02682 3.90651 0
M  V30 6042 H 586.234 -0.206223 0.70756 0
M  V30 6043 H 588.876 0.163956 1.89291 0
M  V30 6044 H 587.026 -1.75461 3.4662 0
M  V30 6045 H 588.698 0.608979 4.57263 0
M  V30 6046 H 586.941 0.641399 4.29032 0
M  V30 6047 H 587.612 -0.455433 5.50118 0
M  V30 6048 H 590.088 -1.49925 3.88152 0
M  V30 6049 H 588.964 -2.38555 4.94351 0
M  V30 6050 H 589.225 -2.94362 3.29854 0
M  V30 6051 N 588.284 -1.56567 -0.180126 0
M  V30 6052 C 589.247 -1.94852 -1.20686 0
M  V30 6053 C 590.247 -0.831212 -1.3765 0
M  V30 6054 O 591.437 -1.09841 -1.35206 0
M  V30 6055 C 588.569 -2.23565 -2.57355 0
M  V30 6056 H 589.762 -2.86722 -0.879225 0
M  V30 6057 H 587.315 -1.50489 -0.422237 0
M  V30 6058 H 588.05 -1.34381 -2.95148 0
M  V30 6059 H 587.835 -3.04999 -2.46411 0
M  V30 6060 H 589.325 -2.54137 -3.31367 0
M  V30 6061 N 589.762 0.448376 -1.51087 0
M  V30 6062 C 590.725 1.52588 -1.71025 0
M  V30 6063 C 591.725 1.49958 -0.580442 0
M  V30 6064 O 592.915 1.52176 -0.847833 0
M  V30 6065 C 590.047 2.92163 -1.75652 0
M  V30 6066 H 591.24 1.36218 -2.67179 0
M  V30 6067 H 588.793 0.676313 -1.4091 0
M  V30 6068 H 589.528 3.13951 -0.812724 0
M  V30 6069 H 589.313 2.95478 -2.57751 0
M  V30 6070 H 590.803 3.70349 -1.92953 0
M  V30 6071 N 591.24 1.41047 0.703093 0
M  V30 6072 C 592.19 1.38774 1.80903 0
M  V30 6073 C 593.174 0.263275 1.58731 0
M  V30 6074 O 594.366 0.503362 1.69692 0
M  V30 6075 C 591.495 1.26497 3.19145 0
M  V30 6076 C 590.581 2.43775 3.47037 0
M  V30 6077 N 590.972 3.69249 3.45672 0
M  V30 6078 C 589.27 2.37425 3.77552 0
M  V30 6079 C 589.971 4.46989 3.72258 0
M  V30 6080 N 588.947 3.76998 3.91629 0
M  V30 6081 H 592.749 2.33714 1.78199 0
M  V30 6082 H 590.263 1.34996 0.902762 0
M  V30 6083 H 592.26 1.2295 3.98358 0
M  V30 6084 H 590.92 0.32534 3.23066 0
M  V30 6085 H 591.931 4.02239 3.26228 0
M  V30 6086 H 588.608 1.51895 3.88888 0
M  V30 6087 H 589.998 5.55894 3.77402 0
M  V30 6088 N 592.718 -0.936591 1.26751 0
M  V30 6089 C 593.628 -2.06949 1.10496 0
M  V30 6090 C 594.644 -1.7396 0.037271 0
M  V30 6091 O 595.82 -1.99941 0.241944 0
M  V30 6092 C 592.885 -3.38612 0.744491 0
M  V30 6093 C 591.946 -3.85355 1.89209 0
M  V30 6094 C 591.179 -5.10735 1.54873 0
M  V30 6095 O 591.402 -5.68602 0.452546 0
M  V30 6096 O 590.336 -5.52632 2.38499 0
M  V30 6097 H 594.162 -2.23571 2.05547 0
M  V30 6098 H 591.747 -1.05428 1.05855 0
M  V30 6099 H 593.629 -4.17711 0.556396 0
M  V30 6100 H 592.304 -3.23218 -0.176582 0
M  V30 6101 H 591.211 -3.07182 2.13518 0
M  V30 6102 H 592.544 -4.05277 2.79305 0
M  V30 6103 N 594.196 -1.08629 -1.14182 0
M  V30 6104 C 595.443 -0.817345 -1.85272 0
M  V30 6105 C 595.771 0.656917 -1.83071 0
M  V30 6106 O 595.026 1.49897 -1.25815 0
M  V30 6107 C 595.325 -1.28734 -3.3341 0
M  V30 6108 C 594.991 -2.76981 -3.55798 0
M  V30 6109 C 593.653 -3.17469 -3.61617 0
M  V30 6110 C 596.005 -3.72605 -3.64438 0
M  V30 6111 C 593.333 -4.52371 -3.736 0
M  V30 6112 C 595.685 -5.07286 -3.77947 0
M  V30 6113 C 594.349 -5.47376 -3.82016 0
M  V30 6114 H 593.619 -0.299088 -0.677958 0
M  V30 6115 H 596.266 -1.35962 -1.34857 0
M  V30 6116 H 594.571 -0.664702 -3.8612 0
M  V30 6117 H 596.268 -1.05598 -3.86846 0
M  V30 6118 H 592.858 -2.44644 -3.51919 0
M  V30 6119 H 597.042 -3.42443 -3.5923 0
M  V30 6120 H 592.298 -4.82882 -3.75013 0
M  V30 6121 H 596.472 -5.81243 -3.83575 0
M  V30 6122 H 594.099 -6.51906 -3.91054 0
M  V30 6123 N 595.674 1.31259 -0.872281 0
M  V30 6124 C 596.922 1.96233 -0.483409 0
M  V30 6125 C 597.243 1.69276 0.968012 0
M  V30 6126 O 596.513 1.00943 1.67891 0
M  V30 6127 H 595.093 0.726025 -0.175774 0
M  V30 6128 H 597.755 1.60024 -1.11258 0
M  V30 6129 H 596.851 3.05403 -0.643075 0
M  V30 6130 N 597.152 0.631951 1.44375 0
M  V30 6131 C 598.102 -0.0943862 2.27805 0
M  V30 6132 C 599.086 -0.815359 1.38711 0
M  V30 6133 O 600.278 -0.701331 1.62513 0
M  V30 6134 C 597.407 -1.07472 3.26044 0
M  V30 6135 C 596.493 -0.353329 4.22626 0
M  V30 6136 N 596.884 0.618512 5.02004 0
M  V30 6137 C 595.182 -0.597662 4.41977 0
M  V30 6138 C 595.883 1.0448 5.7224 0
M  V30 6139 N 594.859 0.383413 5.42246 0
M  V30 6140 H 598.661 0.651672 2.86584 0
M  V30 6141 H 596.175 0.45752 1.55822 0
M  V30 6142 H 598.172 -1.60969 3.84571 0
M  V30 6143 H 596.832 -1.82107 2.68825 0
M  V30 6144 H 597.843 0.996356 5.08226 0
M  V30 6145 H 594.52 -1.32682 3.95856 0
M  V30 6146 H 595.91 1.84773 6.45994 0
M  V30 6147 N 598.631 -1.53133 0.372548 0
M  V30 6148 C 599.594 -2.24569 -0.458389 0
M  V30 6149 C 600.594 -1.25603 -1.00402 0
M  V30 6150 O 601.784 -1.49827 -0.888672 0
M  V30 6151 C 598.916 -2.98783 -1.6414 0
M  V30 6152 H 600.109 -2.99436 0.166799 0
M  V30 6153 H 597.662 -1.55805 0.124357 0
M  V30 6154 H 598.397 -2.28176 -2.30448 0
M  V30 6155 H 598.182 -3.71404 -1.25704 0
M  V30 6156 H 599.672 -3.53068 -2.23008 0
M  V30 6157 N 600.109 -0.101901 -1.5727 0
M  V30 6158 C 601.039 0.851544 -2.17419 0
M  V30 6159 C 602.02 1.28942 -1.10941 0
M  V30 6160 O 603.205 1.35509 -1.39107 0
M  V30 6161 C 600.335 2.10816 -2.75996 0
M  V30 6162 C 599.289 1.80867 -3.87906 0
M  V30 6163 C 598.615 3.13413 -4.33216 0
M  V30 6164 C 599.915 1.0903 -5.10793 0
M  V30 6165 H 601.609 0.350381 -2.97343 0
M  V30 6166 H 599.155 0.16709 -1.43027 0
M  V30 6167 H 601.108 2.77959 -3.16729 0
M  V30 6168 H 599.832 2.63227 -1.93337 0
M  V30 6169 H 598.491 1.16119 -3.47724 0
M  V30 6170 H 598.139 3.63725 -3.47438 0
M  V30 6171 H 597.839 2.94155 -5.08671 0
M  V30 6172 H 599.363 3.81704 -4.76586 0
M  V30 6173 H 600.777 1.66295 -5.48652 0
M  V30 6174 H 599.174 0.99927 -5.91722 0
M  V30 6175 H 600.244 0.0741704 -4.84843 0
M  V30 6176 N 601.587 1.56661 0.17182 0
M  V30 6177 C 602.835 1.81606 0.886774 0
M  V30 6178 C 603.156 0.678818 1.82803 0
M  V30 6179 O 602.426 -0.301354 1.93568 0
M  V30 6180 H 601.006 0.669934 0.330451 0
M  V30 6181 H 603.668 1.94142 0.171757 0
M  V30 6182 H 602.764 2.75634 1.46398 0
M  V30 6183 N 603.065 -0.440357 1.51323 0
M  V30 6184 C 603.995 -1.54174 1.75364 0
M  V30 6185 C 604.976 -1.59039 0.603375 0
M  V30 6186 O 606.161 -1.74815 0.845774 0
M  V30 6187 C 603.291 -2.92277 1.87593 0
M  V30 6188 C 602.245 -3.02274 3.03009 0
M  V30 6189 C 601.571 -4.42327 3.00418 0
M  V30 6190 C 602.871 -2.76634 4.43024 0
M  V30 6191 H 604.565 -1.34307 2.67585 0
M  V30 6192 H 602.111 -0.644678 1.28763 0
M  V30 6193 H 604.064 -3.69284 2.02995 0
M  V30 6194 H 602.788 -3.13369 0.920179 0
M  V30 6195 H 601.447 -2.27706 2.87307 0
M  V30 6196 H 601.095 -4.60382 2.02626 0
M  V30 6197 H 600.795 -4.49946 3.77918 0
M  V30 6198 H 602.319 -5.21312 3.17909 0
M  V30 6199 H 603.733 -3.43376 4.59093 0
M  V30 6200 H 602.13 -2.95666 5.22208 0
M  V30 6201 H 603.2 -1.72262 4.5327 0
M  V30 6202 N 604.543 -1.41418 -0.695603 0
M  V30 6203 C 605.82 -1.31264 -1.45014 0
M  V30 6204 C 606.2 0.0597994 -2.11015 0
M  V30 6205 O 605.548 1.07403 -2.01685 0
M  V30 6206 C 605.758 -2.466 -2.4696 0
M  V30 6207 C 607.106 -2.87763 -3.12214 0
M  V30 6208 O 608.13 -2.46339 -2.57285 0
M  V30 6209 O 606.989 -3.59395 -4.11701 0
M  V30 6210 H 604.083 -0.516576 -0.645816 0
M  V30 6211 H 606.629 -1.53382 -0.726084 0
M  V30 6212 H 605.401 -3.38183 -1.96845 0
M  V30 6213 H 605.024 -2.26358 -3.26876 0
M  V30 6214 N 606.021 0.929856 -1.27246 0
M  V30 6215 C 606.971 2.01629 -1.06442 0
M  V30 6216 C 607.955 1.60899 0.00687842 0
M  V30 6217 O 609.147 1.75733 -0.211407 0
M  V30 6218 C 606.276 3.35849 -0.711361 0
M  V30 6219 C 605.362 3.8303 -1.82069 0
M  V30 6220 N 605.753 4.02743 -3.05993 0
M  V30 6221 C 604.051 4.12046 -1.70687 0
M  V30 6222 C 604.752 4.42001 -3.78167 0
M  V30 6223 N 603.728 4.4935 -3.05918 0
M  V30 6224 H 607.53 2.14898 -2.00489 0
M  V30 6225 H 605.044 1.11654 -1.17929 0
M  V30 6226 H 607.041 4.13343 -0.543442 0
M  V30 6227 H 605.701 3.23944 0.221517 0
M  V30 6228 H 606.712 3.89112 -3.41778 0
M  V30 6229 H 603.389 4.08866 -0.844681 0
M  V30 6230 H 604.779 4.6535 -4.84664 0
M  V30 6231 N 607.499 1.09233 1.13605 0
M  V30 6232 C 608.724 0.849067 1.89224 0
M  V30 6233 C 609.149 -0.593875 1.78479 0
M  V30 6234 O 608.507 -1.41703 1.13092 0
M  V30 6235 C 608.555 1.28642 3.36873 0
M  V30 6236 O 607.659 0.44363 4.10007 0
M  V30 6237 H 607 0.30767 0.588417 0
M  V30 6238 H 609.53 1.45595 1.43748 0
M  V30 6239 H 609.54 1.27096 3.87699 0
M  V30 6240 H 608.215 2.33729 3.44011 0
M  V30 6241 H 606.792 0.523241 3.69211 0
M  V30 6242 N 608.977 -1.30795 0.87923 0
M  V30 6243 C 610.202 -2.01063 0.508769 0
M  V30 6244 C 610.627 -1.65508 -0.893803 0
M  V30 6245 O 609.985 -0.868616 -1.59138 0
M  V30 6246 C 610.033 -3.54054 0.683991 0
M  V30 6247 O 609.137 -4.11498 -0.272654 0
M  V30 6248 H 608.478 -0.632786 0.201191 0
M  V30 6249 H 611.008 -1.66776 1.18519 0
M  V30 6250 H 611.018 -4.03845 0.580798 0
M  V30 6251 H 609.693 -3.79271 1.70665 0
M  V30 6252 H 608.27 -3.72695 -0.12364 0
M  V30 6253 N 610.455 -0.639598 -1.44038 0
M  V30 6254 C 611.701 -0.147698 -2.02261 0
M  V30 6255 C 612.034 1.23031 -1.50256 0
M  V30 6256 O 611.309 1.81847 -0.690068 0
M  V30 6257 C 611.592 -0.14362 -3.59813 0
M  V30 6258 C 611.445 -1.55458 -4.22082 0
M  V30 6259 C 612.764 0.527317 -4.36929 0
M  V30 6260 H 609.883 -0.0551453 -0.734934 0
M  V30 6261 H 612.525 -0.817688 -1.71505 0
M  V30 6262 H 610.675 0.426898 -3.86147 0
M  V30 6263 H 612.347 -2.17464 -4.06826 0
M  V30 6264 H 610.59 -2.10594 -3.79253 0
M  V30 6265 H 611.261 -1.50369 -5.31124 0
M  V30 6266 H 613.737 0.0420504 -4.16079 0
M  V30 6267 H 612.613 0.499389 -5.46624 0
M  V30 6268 H 612.874 1.59914 -4.12165 0
M  V30 6269 N 611.933 1.52934 -0.380664 0
M  V30 6270 C 613.344 1.86457 0.0952684 0
M  V30 6271 C 613.695 1.3007 1.46889 0
M  V30 6272 O 612.82 0.628636 2.07068 0
M  V30 6273 C 613.415 3.38323 0.179648 0
M  V30 6274 C 611.974 3.71589 0.599858 0
M  V30 6275 C 611.121 2.76228 -0.243572 0
M  V30 6276 H 614.072 1.46966 -0.59888 0
M  V30 6277 H 614.093 3.67113 1.00042 0
M  V30 6278 H 613.605 3.79333 -0.820228 0
M  V30 6279 H 611.706 3.36144 1.60742 0
M  V30 6280 H 611.819 4.77715 0.364003 0
M  V30 6281 H 610.183 2.53045 0.289855 0
M  V30 6282 H 610.966 3.20074 -1.24127 0
M  V30 6283 N 613.412 0.11024 1.57214 0
M  V30 6284 C 614.322 -0.857077 2.18383 0
M  V30 6285 C 615.338 -1.29915 1.1575 0
M  V30 6286 O 616.514 -1.36394 1.48184 0
M  V30 6287 C 613.579 -2.09264 2.76423 0
M  V30 6288 C 612.64 -1.70333 3.94063 0
M  V30 6289 C 611.873 -2.87999 4.49324 0
M  V30 6290 O 612.096 -4.0317 4.03497 0
M  V30 6291 O 611.03 -2.6559 5.40135 0
M  V30 6292 H 614.856 -0.366561 3.0148 0
M  V30 6293 H 612.441 -0.114914 1.48957 0
M  V30 6294 H 614.323 -2.81644 3.13456 0
M  V30 6295 H 612.998 -2.57339 1.96363 0
M  V30 6296 H 611.905 -0.950864 3.61814 0
M  V30 6297 H 613.238 -1.27007 4.75531 0
M  V30 6298 N 614.89 -1.56749 -0.16351 0
M  V30 6299 C 615.853 -1.96121 -1.18613 0
M  V30 6300 C 616.853 -0.845765 -1.36761 0
M  V30 6301 O 618.043 -1.11268 -1.34033 0
M  V30 6302 C 615.175 -2.26282 -2.54969 0
M  V30 6303 H 616.368 -2.87639 -0.848764 0
M  V30 6304 H 613.921 -1.50928 -0.406251 0
M  V30 6305 H 614.656 -1.37504 -2.93706 0
M  V30 6306 H 614.441 -3.07595 -2.43162 0
M  V30 6307 H 615.931 -2.57638 -3.28653 0
M  V30 6308 N 616.368 0.432326 -1.51554 0
M  V30 6309 C 617.298 1.53242 -1.76179 0
M  V30 6310 C 618.279 1.58717 -0.611801 0
M  V30 6311 O 619.464 1.74364 -0.855033 0
M  V30 6312 C 616.594 2.91278 -1.89141 0
M  V30 6313 C 615.548 3.00663 -3.04608 0
M  V30 6314 C 614.874 4.40728 -3.02759 0
M  V30 6315 C 616.174 2.74281 -4.44485 0
M  V30 6316 H 617.868 1.32886 -2.68294 0
M  V30 6317 H 615.414 0.637841 -1.29103 0
M  V30 6318 H 617.367 3.68203 -2.04951 0
M  V30 6319 H 616.091 3.12877 -0.936785 0
M  V30 6320 H 614.75 2.26179 -2.88511 0
M  V30 6321 H 614.398 4.59301 -2.05065 0
M  V30 6322 H 614.098 4.47936 -3.80299 0
M  V30 6323 H 615.622 5.19619 -3.20669 0
M  V30 6324 H 617.036 3.40936 -4.60907 0
M  V30 6325 H 615.433 2.92893 -5.23769 0
M  V30 6326 H 616.503 1.69856 -4.54177 0
M  V30 6327 N 617.846 1.41785 0.688094 0
M  V30 6328 C 618.779 1.38643 1.81255 0
M  V30 6329 C 619.757 0.252583 1.60626 0
M  V30 6330 O 620.941 0.440691 1.83276 0
M  V30 6331 C 618.068 1.16449 3.18053 0
M  V30 6332 C 617.114 2.32651 3.57457 0
M  V30 6333 S 617.947 3.95152 3.61407 0
M  V30 6334 C 619.103 3.75275 5.00919 0
M  V30 6335 H 619.336 2.33799 1.83644 0
M  V30 6336 H 616.869 1.28398 0.857513 0
M  V30 6337 H 618.827 1.0433 3.97021 0
M  V30 6338 H 617.488 0.229002 3.13264 0
M  V30 6339 H 616.681 2.12835 4.56856 0
M  V30 6340 H 616.283 2.41215 2.85817 0
M  V30 6341 H 618.575 3.35443 5.88629 0
M  V30 6342 H 619.518 4.74302 5.25778 0
M  V30 6343 H 619.926 3.08401 4.7281 0
M  V30 6344 N 619.324 -0.923095 1.27737 0
M  V30 6345 C 620.554 -1.70277 1.17001 0
M  V30 6346 C 620.962 -1.87188 -0.275199 0
M  V30 6347 O 620.305 -1.39195 -1.19877 0
M  V30 6348 C 620.367 -3.11976 1.78637 0
M  V30 6349 C 620.031 -3.18386 3.27841 0
M  V30 6350 C 621.028 -3.00287 4.2441 0
M  V30 6351 C 618.713 -3.41198 3.68632 0
M  V30 6352 C 620.707 -3.04896 5.59747 0
M  V30 6353 C 618.394 -3.4544 5.04097 0
M  V30 6354 C 619.392 -3.27309 5.99465 0
M  V30 6355 O 619.08 -3.31295 7.32461 0
M  V30 6356 H 618.812 -0.539366 0.407505 0
M  V30 6357 H 621.366 -1.16446 1.69202 0
M  V30 6358 H 619.596 -3.67308 1.20919 0
M  V30 6359 H 621.285 -3.7193 1.6255 0
M  V30 6360 H 622.051 -2.825 3.94232 0
M  V30 6361 H 617.93 -3.54359 2.94873 0
M  V30 6362 H 621.474 -2.90662 6.34162 0
M  V30 6363 H 617.371 -3.62753 5.33929 0
M  V30 6364 H 618.139 -3.47719 7.40968 0
M  V30 6365 N 620.802 -1.09834 -1.13024 0
M  V30 6366 C 622.213 -0.855651 -1.65938 0
M  V30 6367 C 622.564 0.615159 -1.86307 0
M  V30 6368 O 621.689 1.47335 -1.58497 0
M  V30 6369 C 622.284 -1.5467 -3.01434 0
M  V30 6370 C 620.843 -1.35088 -3.51323 0
M  V30 6371 C 619.99 -1.6001 -2.26478 0
M  V30 6372 H 622.941 -1.25691 -0.968889 0
M  V30 6373 H 622.962 -0.982179 -3.67605 0
M  V30 6374 H 622.474 -2.61715 -2.86578 0
M  V30 6375 H 620.575 -0.30179 -3.71376 0
M  V30 6376 H 620.688 -2.0886 -4.31178 0
M  V30 6377 H 619.052 -1.02246 -2.33276 0
M  V30 6378 H 619.835 -2.68293 -2.14182 0
M  V30 6379 N 622.28 1.30327 -0.886154 0
M  V30 6380 C 623.213 2.26241 -0.298407 0
M  V30 6381 C 624.191 1.51839 0.581704 0
M  V30 6382 O 625.375 1.80851 0.531536 0
M  V30 6383 C 622.502 3.33768 0.575888 0
M  V30 6384 C 621.548 4.25852 -0.235057 0
M  V30 6385 S 622.381 5.10277 -1.62411 0
M  V30 6386 C 623.537 6.21313 -0.756368 0
M  V30 6387 H 623.77 2.75744 -1.11141 0
M  V30 6388 H 621.303 1.38341 -0.685651 0
M  V30 6389 H 623.261 3.96186 1.07458 0
M  V30 6390 H 621.922 2.82986 1.363 0
M  V30 6391 H 621.115 5.02143 0.432198 0
M  V30 6392 H 620.717 3.68015 -0.666409 0
M  V30 6393 H 623.009 6.77495 0.0261451 0
M  V30 6394 H 623.952 6.92226 -1.49093 0
M  V30 6395 H 624.36 5.63611 -0.316749 0
M  V30 6396 N 623.758 0.647228 1.43697 0
M  V30 6397 C 624.988 0.16551 2.05936 0
M  V30 6398 C 625.396 -1.17164 1.48557 0
M  V30 6399 O 624.739 -1.73307 0.60914 0
M  V30 6400 C 624.801 -0.00648082 3.59499 0
M  V30 6401 C 624.465 1.25503 4.39429 0
M  V30 6402 C 625.462 2.18241 4.71876 0
M  V30 6403 C 623.147 1.49494 4.79538 0
M  V30 6404 C 625.141 3.33268 5.43333 0
M  V30 6405 C 622.828 2.64815 5.50742 0
M  V30 6406 C 623.826 3.56528 5.82561 0
M  V30 6407 O 623.514 4.69836 6.52311 0
M  V30 6408 H 623.246 0.0844124 0.670709 0
M  V30 6409 H 625.8 0.88638 1.8529 0
M  V30 6410 H 624.03 -0.782661 3.78697 0
M  V30 6411 H 625.719 -0.444794 4.03456 0
M  V30 6412 H 626.485 2.00946 4.41413 0
M  V30 6413 H 622.364 0.789912 4.54182 0
M  V30 6414 H 625.908 4.04874 5.68087 0
M  V30 6415 H 621.805 2.82047 5.8062 0
M  V30 6416 H 622.573 4.69024 6.70789 0
M  V30 6417 N 625.236 -1.5273 0.388769 0
M  V30 6418 C 626.652 -1.59553 0.0387049 0
M  V30 6419 C 626.852 -1.40278 -1.44652 0
M  V30 6420 O 625.908 -1.21951 -2.21098 0
M  V30 6421 C 627.221 -2.9625 0.515409 0
M  V30 6422 C 628.769 -3.09426 0.471621 0
M  V30 6423 C 629.244 -4.48572 0.924505 0
M  V30 6424 N 630.735 -4.54754 0.880496 0
M  V30 6425 C 631.47 -5.60653 1.20234 0
M  V30 6426 N 630.966 -6.74198 1.59463 0
M  V30 6427 N 632.759 -5.50755 1.12363 0
M  V30 6428 H 624.91 -1.63508 1.35569 0
M  V30 6429 H 627.173 -0.768097 0.555636 0
M  V30 6430 H 626.879 -3.15569 1.5527 0
M  V30 6431 H 626.753 -3.77102 -0.085792 0
M  V30 6432 H 629.14 -2.89804 -0.556588 0
M  V30 6433 H 629.221 -2.30528 1.10862 0
M  V30 6434 H 628.865 -4.68936 1.95094 0
M  V30 6435 H 628.795 -5.25935 0.264524 0
M  V30 6436 H 631.286 -3.73237 0.591815 0
M  V30 6437 H 631.599 -7.5097 1.82385 0
M  V30 6438 H 629.944 -6.75531 1.63349 0
M  V30 6439 H 633.135 -4.6093 0.816169 0
M  V30 6440 H 633.308 -6.33184 1.37777 0
M  V30 6441 N 626.714 -0.118576 -1.57153 0
M  V30 6442 C 627.961 0.539526 -1.9518 0
M  V30 6443 C 628.289 1.66714 -1.00184 0
M  V30 6444 O 627.544 1.95683 -0.0256482 0
M  V30 6445 C 627.843 1.11303 -3.39627 0
M  V30 6446 C 627.509 0.106809 -4.50773 0
M  V30 6447 C 626.171 -0.169876 -4.809 0
M  V30 6448 C 628.523 -0.57895 -5.17975 0
M  V30 6449 C 625.851 -1.13861 -5.75545 0
M  V30 6450 C 628.203 -1.53631 -6.13661 0
M  V30 6451 C 626.867 -1.82099 -6.42181 0
M  V30 6452 H 626.137 0.197427 -0.714215 0
M  V30 6453 H 628.784 -0.199391 -1.90459 0
M  V30 6454 H 627.089 1.92869 -3.4104 0
M  V30 6455 H 628.786 1.63032 -3.66363 0
M  V30 6456 H 625.376 0.332645 -4.27307 0
M  V30 6457 H 629.56 -0.378359 -4.94856 0
M  V30 6458 H 624.816 -1.36592 -5.95947 0
M  V30 6459 H 628.99 -2.07337 -6.64819 0
M  V30 6460 H 626.617 -2.57319 -7.15326 0
M  V30 6461 N 628.193 1.56834 0.155195 0
M  V30 6462 C 629.421 1.87049 0.884326 0
M  V30 6463 C 629.836 0.705839 1.7511 0
M  V30 6464 O 629.193 -0.324641 1.79589 0
M  V30 6465 C 629.244 3.1644 1.74781 0
M  V30 6466 O 628.965 4.28417 0.915978 0
M  V30 6467 C 630.466 3.60113 2.58522 0
M  V30 6468 H 627.686 0.620196 0.25612 0
M  V30 6469 H 630.23 2.03946 0.150445 0
M  V30 6470 H 628.385 3.01321 2.43484 0
M  V30 6471 H 628.799 5.02353 1.50803 0
M  V30 6472 H 630.273 4.53508 3.14698 0
M  V30 6473 H 630.75 2.85005 3.34169 0
M  V30 6474 H 631.356 3.77898 1.95124 0
M  V30 6475 N 629.671 -0.424282 1.51781 0
M  V30 6476 C 630.581 -1.54087 1.76902 0
M  V30 6477 C 631.597 -1.61249 0.653826 0
M  V30 6478 O 632.773 -1.78247 0.937552 0
M  V30 6479 C 629.838 -2.8996 1.90063 0
M  V30 6480 C 628.899 -2.92809 3.13945 0
M  V30 6481 C 628.132 -4.22201 3.26469 0
M  V30 6482 O 628.355 -5.15286 2.44616 0
M  V30 6483 O 627.289 -4.31599 4.1953 0
M  V30 6484 H 631.115 -1.358 2.71647 0
M  V30 6485 H 628.7 -0.608618 1.36441 0
M  V30 6486 H 630.582 -3.70575 2.0063 0
M  V30 6487 H 629.257 -3.08347 0.985067 0
M  V30 6488 H 628.164 -2.11102 3.08847 0
M  V30 6489 H 629.497 -2.79369 4.05233 0
M  V30 6490 N 631.149 -1.42148 -0.680565 0
M  V30 6491 C 632.397 -1.42029 -1.43779 0
M  V30 6492 C 632.718 -0.0356347 -1.94967 0
M  V30 6493 O 631.988 0.924936 -1.7269 0
M  V30 6494 H 630.568 -0.522835 -0.533529 0
M  V30 6495 H 633.23 -1.7752 -0.804538 0
M  V30 6496 H 632.326 -2.11658 -2.29363 0
M  V30 6497 N 632.627 0.916307 -1.28225 0
M  V30 6498 C 634.038 1.48024 -1.13779 0
M  V30 6499 C 634.389 1.94289 0.273139 0
M  V30 6500 O 633.514 1.82226 1.16716 0
M  V30 6501 C 634.109 2.69029 -2.05935 0
M  V30 6502 C 632.668 3.2161 -1.95561 0
M  V30 6503 C 631.815 1.94321 -1.97825 0
M  V30 6504 H 634.766 0.729272 -1.40951 0
M  V30 6505 H 634.787 3.44204 -1.62184 0
M  V30 6506 H 634.299 2.35325 -3.08616 0
M  V30 6507 H 632.4 3.60045 -0.959076 0
M  V30 6508 H 632.513 3.87032 -2.82388 0
M  V30 6509 H 630.877 2.1131 -1.42198 0
M  V30 6510 H 631.66 1.62917 -3.0218 0
M  V30 6511 N 634.105 1.10431 1.1244 0
M  V30 6512 C 635.516 0.864439 1.65482 0
M  V30 6513 C 635.867 -0.60527 1.8663 0
M  V30 6514 O 634.992 -1.46492 1.59276 0
M  V30 6515 C 635.587 1.56267 3.0061 0
M  V30 6516 C 634.146 1.3695 3.50602 0
M  V30 6517 C 633.293 1.61209 2.25626 0
M  V30 6518 H 636.244 1.26203 0.962209 0
M  V30 6519 H 636.265 1.00166 3.67079 0
M  V30 6520 H 635.777 2.63231 2.85186 0
M  V30 6521 H 633.878 0.321481 3.71211 0
M  V30 6522 H 633.991 2.11143 4.30064 0
M  V30 6523 H 632.355 1.03482 2.32731 0
M  V30 6524 H 633.138 2.69425 2.12756 0
M  V30 6525 N 635.583 -1.29855 0.893053 0
M  V30 6526 C 636.513 -2.3035 0.382249 0
M  V30 6527 C 637.494 -1.61328 -0.539203 0
M  V30 6528 O 638.679 -1.88882 -0.451342 0
M  V30 6529 C 635.809 -3.45024 -0.396983 0
M  V30 6530 C 634.763 -4.258 0.433437 0
M  V30 6531 C 634.089 -5.32605 -0.472889 0
M  V30 6532 C 635.389 -4.94549 1.67984 0
M  V30 6533 H 637.083 -2.73325 1.22205 0
M  V30 6534 H 634.629 -1.314 0.589073 0
M  V30 6535 H 636.582 -4.14398 -0.765024 0
M  V30 6536 H 635.306 -3.00875 -1.2705 0
M  V30 6537 H 633.965 -3.58125 0.783723 0
M  V30 6538 H 633.613 -4.84702 -1.34435 0
M  V30 6539 H 633.313 -5.87547 0.0789958 0
M  V30 6540 H 634.837 -6.04832 -0.837269 0
M  V30 6541 H 636.251 -5.56395 1.38192 0
M  V30 6542 H 634.648 -5.59393 2.17254 0
M  V30 6543 H 635.718 -4.20215 2.41965 0
M  V30 6544 N 637.061 -0.65484 -1.43351 0
M  V30 6545 C 638.011 0.0581325 -2.27926 0
M  V30 6546 C 638.995 0.793188 -1.3999 0
M  V30 6547 O 640.187 0.675387 -1.63608 0
M  V30 6548 C 637.316 1.02272 -3.27712 0
M  V30 6549 C 636.402 0.286048 -4.23134 0
M  V30 6550 N 636.793 -0.698298 -5.00957 0
M  V30 6551 C 635.091 0.527272 -4.42872 0
M  V30 6552 C 635.792 -1.1357 -5.70506 0
M  V30 6553 N 634.768 -0.469631 -5.41568 0
M  V30 6554 H 638.57 -0.697182 -2.85511 0
M  V30 6555 H 636.084 -0.482252 -1.55074 0
M  V30 6556 H 638.081 1.5483 -3.87083 0
M  V30 6557 H 636.741 1.77807 -2.71688 0
M  V30 6558 H 637.752 -1.07708 -5.06576 0
M  V30 6559 H 634.429 1.26367 -3.97916 0
M  V30 6560 H 635.819 -1.95027 -6.42973 0
M  V30 6561 N 638.539 1.52521 -0.396863 0
M  V30 6562 C 639.486 2.26671 0.434624 0
M  V30 6563 C 640.456 1.28584 1.05144 0
M  V30 6564 O 641.641 1.57426 1.07804 0
M  V30 6565 C 638.781 3.08234 1.55196 0
M  V30 6566 C 637.894 4.21261 0.957262 0
M  V30 6567 C 637.029 4.90205 2.04627 0
M  V30 6568 C 636.068 5.95213 1.42787 0
M  V30 6569 N 635.205 6.57723 2.45651 0
M  V30 6570 H 640.045 2.973 -0.204139 0
M  V30 6571 H 637.582 1.46669 -0.112505 0
M  V30 6572 H 639.54 3.53819 2.2106 0
M  V30 6573 H 638.17 2.398 2.16092 0
M  V30 6574 H 637.222 3.79935 0.188005 0
M  V30 6575 H 638.534 4.96624 0.465416 0
M  V30 6576 H 637.688 5.39133 2.78246 0
M  V30 6577 H 636.427 4.14383 2.57174 0
M  V30 6578 H 635.432 5.45616 0.676968 0
M  V30 6579 H 636.657 6.72972 0.910255 0
M  V30 6580 H 634.603 5.84737 2.97353 0
M  V30 6581 H 634.52 7.28723 2.01243 0
M  V30 6582 H 635.788 7.11293 3.18876 0
M  V30 6583 N 640.017 0.126909 1.57088 0
M  V30 6584 C 641.294 -0.573152 1.87014 0
M  V30 6585 C 641.674 -1.84297 1.02945 0
M  V30 6586 O 641.022 -2.28232 0.110573 0
M  V30 6587 C 641.232 -0.857984 3.38289 0
M  V30 6588 C 642.58 -1.20759 4.07066 0
M  V30 6589 O 643.604 -0.947992 3.43353 0
M  V30 6590 O 642.463 -1.69516 5.19545 0
M  V30 6591 H 639.557 -0.290082 0.774456 0
M  V30 6592 H 642.103 0.162008 1.68925 0
M  V30 6593 H 640.875 0.0415286 3.91278 0
M  V30 6594 H 640.498 -1.64803 3.61837 0
M  V30 6595 N 641.495 -1.56914 -0.146875 0
M  V30 6596 C 642.772 -1.74273 -0.888165 0
M  V30 6597 C 643.152 -0.69496 -1.99333 0
M  V30 6598 O 642.5 0.286093 -2.26702 0
M  V30 6599 C 642.71 -3.18336 -1.43051 0
M  V30 6600 C 644.058 -3.80024 -1.89387 0
M  V30 6601 O 645.082 -3.21765 -1.52792 0
M  V30 6602 O 643.941 -4.82367 -2.56874 0
M  V30 6603 H 641.035 -0.712565 -0.419738 0
M  V30 6604 H 643.581 -1.6918 -0.132791 0
M  V30 6605 H 642.353 -3.86092 -0.636274 0
M  V30 6606 H 641.976 -3.27854 -2.24938 0
M  V30 6607 N 642.974 0.416227 -1.52004 0
M  V30 6608 C 644.22 1.16555 -1.6596 0
M  V30 6609 C 644.553 1.90347 -0.384906 0
M  V30 6610 O 643.828 1.84474 0.616405 0
M  V30 6611 C 644.111 2.1657 -2.87696 0
M  V30 6612 C 643.964 1.46722 -4.25197 0
M  V30 6613 C 645.283 3.17321 -3.04951 0
M  V30 6614 H 642.402 0.422369 -0.603965 0
M  V30 6615 H 645.044 0.452141 -1.84542 0
M  V30 6616 H 643.194 2.77411 -2.71985 0
M  V30 6617 H 644.866 0.89056 -4.52622 0
M  V30 6618 H 643.109 0.769263 -4.26925 0
M  V30 6619 H 643.78 2.19665 -5.0641 0
M  V30 6620 H 646.256 2.66552 -3.19514 0
M  V30 6621 H 645.132 3.84573 -3.91656 0
M  V30 6622 H 645.393 3.84643 -2.17951 0
M  V30 6623 N 644.452 1.42507 0.673017 0
M  V30 6624 C 645.4 1.46362 1.80779 0
M  V30 6625 C 646.394 0.339166 1.6597 0
M  V30 6626 O 647.6 0.512262 1.72557 0
M  V30 6627 H 643.975 0.458433 0.596107 0
M  V30 6628 H 645.946 2.41953 1.74646 0
M  V30 6629 C 644.695 1.38462 3.18941 0
M  V30 6630 H 644.018 2.24283 3.30964 0
M  V30 6631 H 645.458 1.45221 3.98355 0
M  V30 6632 C 643.917 0.0996354 3.36753 0
M  V30 6633 O 644.447 -0.846894 3.92671 0
M  V30 6634 N 642.653 0.016211 2.90595 0
M  V30 6635 H 642.2 0.78725 2.45276 0
M  V30 6636 H 642.158 -0.84291 3.0289 0
M  V30 6637 N 645.93 -0.909495 1.28709 0
M  V30 6638 C 647.178 -1.65577 1.15882 0
M  V30 6639 C 647.499 -1.928 -0.292108 0
M  V30 6640 O 646.769 -1.54716 -1.20166 0
M  V30 6641 H 645.349 -0.613714 0.425869 0
M  V30 6642 H 648.011 -1.09108 1.61498 0
M  V30 6643 H 647.107 -2.61634 1.70159 0
M  V30 6644 N 647.408 -1.11026 -1.11852 0
M  V30 6645 C 648.657 -0.851249 -1.82857 0
M  V30 6646 C 648.97 0.62514 -1.85341 0
M  V30 6647 O 650.176 1.00026 -2.52403 0
M  V30 6648 C 648.632 -1.47309 -3.28372 0
M  V30 6649 C 648.24 -2.9832 -3.34229 0
M  V30 6650 C 649.984 -1.29373 -4.04306 0
M  V30 6651 C 647.891 -3.53509 -4.74115 0
M  V30 6652 H 646.821 -0.314794 -0.685143 0
M  V30 6653 H 649.472 -1.33499 -1.25898 0
M  V30 6654 H 647.854 -0.917017 -3.85236 0
M  V30 6655 H 649.028 -3.60295 -2.87271 0
M  V30 6656 H 647.343 -3.15482 -2.71772 0
M  V30 6657 H 649.94 -1.68042 -5.07608 0
M  V30 6658 H 650.283 -0.235879 -4.15631 0
M  V30 6659 H 650.816 -1.8182 -3.53817 0
M  V30 6660 H 647.555 -4.58987 -4.67986 0
M  V30 6661 H 647.075 -2.96305 -5.21501 0
M  V30 6662 H 648.754 -3.51693 -5.43066 0
M  V30 6663 N 648.886 1.2938 -0.899927 0
M  V30 6664 C 650.302 1.48052 -0.596059 0
M  V30 6665 C 650.502 1.82114 0.862372 0
M  V30 6666 O 649.558 1.91774 1.64253 0
M  V30 6667 C 650.871 2.59332 -1.52208 0
M  V30 6668 C 652.419 2.73208 -1.5273 0
M  V30 6669 C 652.894 3.87617 -2.43961 0
M  V30 6670 N 654.385 3.9495 -2.42009 0
M  V30 6671 C 655.12 4.82824 -3.09303 0
M  V30 6672 N 654.616 5.75387 -3.85877 0
M  V30 6673 N 656.409 4.76317 -2.98459 0
M  V30 6674 H 648.56 1.05546 -1.8432 0
M  V30 6675 H 650.823 0.524314 -0.78981 0
M  V30 6676 H 650.529 2.41029 -2.56121 0
M  V30 6677 H 650.403 3.56139 -1.24278 0
M  V30 6678 H 652.79 2.90908 -0.495614 0
M  V30 6679 H 652.871 1.76975 -1.84698 0
M  V30 6680 H 652.515 3.70672 -3.47224 0
M  V30 6681 H 652.445 4.83218 -2.09303 0
M  V30 6682 H 654.936 3.28744 -1.86375 0
M  V30 6683 H 655.249 6.39235 -4.34279 0
M  V30 6684 H 653.594 5.75272 -3.89984 0
M  V30 6685 H 656.785 4.0299 -2.38152 0
M  V30 6686 H 656.958 5.44589 -3.51179 0
M  V30 6687 N 650.364 0.662433 1.43002 0
M  V30 6688 C 651.314 -0.0460442 2.27954 0
M  V30 6689 C 652.298 -0.785753 1.40409 0
M  V30 6690 O 653.49 -0.666701 1.63964 0
M  V30 6691 C 650.619 -1.00532 3.2825 0
M  V30 6692 C 649.705 -0.263604 4.2328 0
M  V30 6693 N 650.096 0.724855 5.00579 0
M  V30 6694 C 648.394 -0.503778 4.43146 0
M  V30 6695 C 649.095 1.16594 5.69895 0
M  V30 6696 N 648.071 0.498345 5.41311 0
M  V30 6697 H 651.873 0.712314 2.85137 0
M  V30 6698 H 649.387 0.490469 1.54817 0
M  V30 6699 H 651.384 -1.52775 3.87899 0
M  V30 6700 H 650.044 -1.76364 2.72628 0
M  V30 6701 H 651.055 1.10393 5.05998 0
M  V30 6702 H 647.732 -1.24255 3.98581 0
M  V30 6703 H 649.122 1.98434 6.4193 0
M  V30 6704 N 651.842 -1.52309 0.404946 0
M  V30 6705 C 652.772 -2.29805 -0.41376 0
M  V30 6706 C 653.753 -1.3384 -1.0498 0
M  V30 6707 O 654.938 -1.62745 -1.05961 0
M  V30 6708 C 652.068 -3.11639 -1.53292 0
M  V30 6709 C 651.022 -4.15616 -1.02211 0
M  V30 6710 C 650.348 -4.8577 -2.23455 0
M  V30 6711 C 651.648 -5.2224 -0.0790725 0
M  V30 6712 H 653.342 -2.98493 0.232878 0
M  V30 6713 H 650.888 -1.43552 0.113441 0
M  V30 6714 H 652.841 -3.64618 -2.11262 0
M  V30 6715 H 651.565 -2.40712 -2.20738 0
M  V30 6716 H 650.224 -3.63641 -0.46484 0
M  V30 6717 H 649.872 -4.11376 -2.89445 0
M  V30 6718 H 649.572 -5.56058 -1.89929 0
M  V30 6719 H 651.096 -5.4156 -2.82038 0
M  V30 6720 H 652.51 -5.70485 -0.567438 0
M  V30 6721 H 650.907 -5.99867 0.167167 0
M  V30 6722 H 651.977 -4.77078 0.867447 0
M  V30 6723 N 653.32 -0.135238 -1.57019 0
M  V30 6724 C 654.55 0.525303 -1.9981 0
M  V30 6725 C 654.958 1.59724 -1.01415 0
M  V30 6726 O 654.301 1.837 -0.00130938 0
M  V30 6727 C 654.363 1.19578 -3.3903 0
M  V30 6728 C 654.027 0.269855 -4.56203 0
M  V30 6729 C 655.024 -0.497905 -5.1751 0
M  V30 6730 C 652.709 0.176188 -5.01991 0
M  V30 6731 C 654.703 -1.3469 -6.23007 0
M  V30 6732 C 652.39 -0.676422 -6.07345 0
M  V30 6733 C 653.388 -1.43658 -6.67721 0
M  V30 6734 O 653.076 -2.27501 -7.71037 0
M  V30 6735 H 652.808 0.142296 -0.660854 0
M  V30 6736 H 655.362 -0.223272 -2.04183 0
M  V30 6737 H 653.592 1.99176 -3.3146 0
M  V30 6738 H 655.281 1.75486 -3.66005 0
M  V30 6739 H 656.047 -0.435507 -4.83041 0
M  V30 6740 H 651.926 0.757583 -4.54733 0
M  V30 6741 H 655.47 -1.9407 -6.70062 0
M  V30 6742 H 651.367 -0.740154 -6.41243 0
M  V30 6743 H 652.135 -2.20619 -7.88206 0
M  V30 6744 N 654.798 1.5699 0.138552 0
M  V30 6745 C 656.046 1.83446 0.848053 0
M  V30 6746 C 656.367 0.71744 1.81322 0
M  V30 6747 O 655.637 -0.260228 1.94164 0
M  V30 6748 H 654.217 0.676792 0.316166 0
M  V30 6749 H 656.879 1.94462 0.130538 0
M  V30 6750 H 655.975 2.78677 1.40518 0
M  V30 6751 N 656.276 -0.40816 1.52223 0
M  V30 6752 C 657.687 -0.986929 1.58482 0
M  V30 6753 C 658.038 -1.91521 0.425917 0
M  V30 6754 O 657.163 -2.11593 -0.453593 0
M  V30 6755 C 657.758 -1.7967 2.87235 0
M  V30 6756 C 656.317 -2.32549 2.9597 0
M  V30 6757 C 655.464 -1.12558 2.53428 0
M  V30 6758 H 658.415 -0.188362 1.57578 0
M  V30 6759 H 658.436 -2.65417 2.72642 0
M  V30 6760 H 657.948 -1.12082 3.71563 0
M  V30 6761 H 656.049 -3.03505 2.16137 0
M  V30 6762 H 656.162 -2.63348 4.00231 0
M  V30 6763 H 654.526 -1.47984 2.07299 0
M  V30 6764 H 655.309 -0.465351 3.40131 0
M  V30 6765 N 657.755 -1.42862 -0.66545 0
M  V30 6766 C 659.171 -1.25993 -0.979687 0
M  V30 6767 C 659.371 -0.170831 -2.00775 0
M  V30 6768 O 658.427 0.454827 -2.4837 0
M  V30 6769 C 659.74 -2.62005 -1.47559 0
M  V30 6770 C 661.288 -2.69437 -1.59288 0
M  V30 6771 C 661.763 -4.05838 -2.12272 0
M  V30 6772 N 663.254 -4.0784 -2.19592 0
M  V30 6773 C 663.989 -5.10205 -2.61684 0
M  V30 6774 N 663.485 -6.22949 -3.03161 0
M  V30 6775 N 665.278 -4.9756 -2.61516 0
M  V30 6776 H 657.429 -2.12395 0.0150493 0
M  V30 6777 H 659.692 -0.946355 -0.0558187 0
M  V30 6778 H 659.398 -3.42605 -0.794654 0
M  V30 6779 H 659.272 -2.86566 -2.45275 0
M  V30 6780 H 661.659 -1.89178 -2.26486 0
M  V30 6781 H 661.74 -2.48655 -0.600374 0
M  V30 6782 H 661.384 -4.86559 -1.4568 0
M  V30 6783 H 661.314 -4.23977 -3.12331 0
M  V30 6784 H 663.805 -3.26452 -1.90361 0
M  V30 6785 H 664.118 -6.96899 -3.33993 0
M  V30 6786 H 662.463 -6.2644 -3.00995 0
M  V30 6787 H 665.654 -4.08551 -2.28481 0
M  V30 6788 H 665.827 -5.77468 -2.93999 0
M  V30 6789 N 659.233 0.902656 -1.29189 0
M  V30 6790 C 660.644 1.46809 -1.15343 0
M  V30 6791 C 660.995 1.94568 0.252517 0
M  V30 6792 O 660.12 1.83454 1.14777 0
M  V30 6793 C 660.715 2.66829 -2.08776 0
M  V30 6794 C 659.274 3.19518 -1.98961 0
M  V30 6795 C 658.421 1.92212 -1.99874 0
M  V30 6796 H 661.372 0.714282 -1.41717 0
M  V30 6797 H 661.393 3.42465 -1.65826 0
M  V30 6798 H 660.905 2.32039 -3.11094 0
M  V30 6799 H 659.006 3.59008 -0.99721 0
M  V30 6800 H 659.119 3.84016 -2.86477 0
M  V30 6801 H 657.483 2.0979 -1.44431 0
M  V30 6802 H 658.266 1.59702 -3.03891 0
M  V30 6803 N 660.711 1.11618 1.11262 0
M  V30 6804 C 661.621 0.78898 2.20935 0
M  V30 6805 C 662.637 -0.21867 1.7262 0
M  V30 6806 O 663.813 -0.0543826 2.01327 0
M  V30 6807 C 660.878 0.239014 3.45875 0
M  V30 6808 C 659.939 1.3055 4.08968 0
M  V30 6809 C 659.172 0.781687 5.27944 0
M  V30 6810 O 659.395 -0.387605 5.69082 0
M  V30 6811 O 658.329 1.54734 5.81671 0
M  V30 6812 H 662.155 1.70477 2.51339 0
M  V30 6813 H 659.74 0.892203 1.19834 0
M  V30 6814 H 661.622 -0.0632312 4.21353 0
M  V30 6815 H 660.297 -0.649454 3.17118 0
M  V30 6816 H 659.204 1.66079 3.35214 0
M  V30 6817 H 660.537 2.16743 4.41909 0
M  V30 6818 N 662.189 -1.289 0.906776 0
M  V30 6819 C 663.6 -1.77336 0.58384 0
M  V30 6820 C 663.951 -1.74304 -0.900697 0
M  V30 6821 O 663.076 -1.33335 -1.70443 0
M  V30 6822 C 663.671 -3.22019 1.05304 0
M  V30 6823 C 662.23 -3.68205 0.781148 0
M  V30 6824 C 661.377 -2.48837 1.22373 0
M  V30 6825 H 664.328 -1.15462 1.08877 0
M  V30 6826 H 664.349 -3.78481 0.391414 0
M  V30 6827 H 663.861 -3.24194 2.13353 0
M  V30 6828 H 661.962 -3.71497 -0.28643 0
M  V30 6829 H 662.075 -4.58675 1.384 0
M  V30 6830 H 660.439 -2.46461 0.642594 0
M  V30 6831 H 661.222 -2.53736 2.31242 0
M  V30 6832 N 663.667 -0.670007 -1.42649 0
M  V30 6833 C 664.577 0.0114788 -2.34597 0
M  V30 6834 C 665.593 0.794055 -1.54825 0
M  V30 6835 O 666.769 0.737472 -1.87412 0
M  V30 6836 C 663.834 0.954436 -3.33304 0
M  V30 6837 C 662.895 0.166925 -4.28975 0
M  V30 6838 C 662.128 1.06497 -5.22967 0
M  V30 6839 O 662.351 2.30446 -5.21777 0
M  V30 6840 O 661.285 0.528347 -5.99577 0
M  V30 6841 H 665.111 -0.745794 -2.944 0
M  V30 6842 H 662.696 -0.430228 -1.43071 0
M  V30 6843 H 664.578 1.49589 -3.93956 0
M  V30 6844 H 663.253 1.69164 -2.7598 0
M  V30 6845 H 662.16 -0.418515 -3.71752 0
M  V30 6846 H 663.493 -0.531067 -4.89327 0
M  V30 6847 N 665.145 1.52092 -0.413018 0
M  V30 6848 C 666.556 1.86617 0.0556967 0
M  V30 6849 C 666.907 1.33156 1.44097 0
M  V30 6850 O 666.032 0.672417 2.05688 0
M  V30 6851 C 666.627 3.38628 0.107844 0
M  V30 6852 C 665.186 3.72778 0.520904 0
M  V30 6853 C 664.333 2.75649 -0.302109 0
M  V30 6854 H 667.284 1.45663 -0.629919 0
M  V30 6855 H 667.305 3.69152 0.922324 0
M  V30 6856 H 666.817 3.77508 -0.900506 0
M  V30 6857 H 664.918 3.39478 1.53575 0
M  V30 6858 H 665.031 4.7838 0.262591 0
M  V30 6859 H 663.395 2.53603 0.236115 0
M  V30 6860 H 664.178 3.17369 -1.30888 0
M  V30 6861 N 666.623 0.143563 1.56945 0
M  V30 6862 C 668.039 -0.212877 1.58174 0
M  V30 6863 C 668.239 -1.64926 1.15766 0
M  V30 6864 O 667.295 -2.37535 0.856361 0
M  V30 6865 C 668.608 0.0427573 3.0067 0
M  V30 6866 C 670.156 -0.0212221 3.12993 0
M  V30 6867 C 670.631 0.207036 4.57532 0
M  V30 6868 N 672.122 0.153845 4.62944 0
M  V30 6869 C 672.857 0.305018 5.72588 0
M  V30 6870 N 672.353 0.513722 6.90893 0
M  V30 6871 N 674.146 0.242862 5.61575 0
M  V30 6872 H 666.297 1.08148 1.82805 0
M  V30 6873 H 668.56 0.427831 0.84597 0
M  V30 6874 H 668.266 1.03672 3.36073 0
M  V30 6875 H 668.14 -0.678195 3.71053 0
M  V30 6876 H 670.527 -1.00574 2.77433 0
M  V30 6877 H 670.608 0.732004 2.45103 0
M  V30 6878 H 670.252 1.18863 4.93795 0
M  V30 6879 H 670.182 -0.566473 5.23544 0
M  V30 6880 H 672.673 -0.00294866 3.779 0
M  V30 6881 H 672.986 0.619273 7.70315 0
M  V30 6882 H 671.331 0.550001 6.9282 0
M  V30 6883 H 674.522 0.0806015 4.68031 0
M  V30 6884 H 674.695 0.364112 6.46976 0
M  V30 6885 N 668.101 -1.57061 -0.130224 0
M  V30 6886 C 669.512 -1.73539 -0.68856 0
M  V30 6887 C 669.863 -0.760554 -1.80859 0
M  V30 6888 O 668.988 0.0690796 -2.1629 0
M  V30 6889 C 669.583 -3.14666 -1.25581 0
M  V30 6890 C 668.142 -3.32689 -1.76055 0
M  V30 6891 C 667.289 -2.69436 -0.655712 0
M  V30 6892 H 670.24 -1.58412 0.0956002 0
M  V30 6893 H 670.261 -3.15595 -2.12556 0
M  V30 6894 H 669.773 -3.85593 -0.440412 0
M  V30 6895 H 667.874 -2.66786 -2.60108 0
M  V30 6896 H 667.987 -4.4077 -1.87772 0
M  V30 6897 H 666.351 -2.30362 -1.08654 0
M  V30 6898 H 667.134 -3.42979 0.14852 0
M  V30 6899 N 669.579 0.400081 -1.52437 0
M  V30 6900 C 670.99 0.97851 -1.59003 0
M  V30 6901 C 671.341 1.91293 -0.436068 0
M  V30 6902 O 670.466 2.1183 0.442365 0
M  V30 6903 C 671.061 1.78145 -2.88184 0
M  V30 6904 C 669.62 2.30976 -2.97199 0
M  V30 6905 C 668.767 1.11212 -2.54022 0
M  V30 6906 H 671.718 0.180002 -1.57676 0
M  V30 6907 H 671.739 2.63968 -2.74046 0
M  V30 6908 H 671.251 1.1011 -3.72152 0
M  V30 6909 H 669.352 3.02355 -2.17744 0
M  V30 6910 H 669.465 2.61221 -4.01622 0
M  V30 6911 H 667.829 1.46882 -2.08081 0
M  V30 6912 H 668.612 0.447307 -3.40373 0
M  V30 6913 N 671.057 1.43213 0.657864 0
M  V30 6914 C 672.285 1.48015 1.44566 0
M  V30 6915 C 672.7 0.0965951 1.88553 0
M  V30 6916 O 672.057 -0.892221 1.59203 0
M  V30 6917 C 672.108 2.42199 2.68369 0
M  V30 6918 O 671.829 3.75173 2.26223 0
M  V30 6919 C 673.33 2.56195 3.61772 0
M  V30 6920 H 670.55 0.502861 0.444266 0
M  V30 6921 H 673.094 1.87907 0.806917 0
M  V30 6922 H 671.249 2.05514 3.28394 0
M  V30 6923 H 671.663 4.25776 3.06293 0
M  V30 6924 H 673.137 3.26182 4.4532 0
M  V30 6925 H 673.614 1.60534 4.0881 0
M  V30 6926 H 674.22 2.93671 3.07632 0
M  V30 6927 N 672.536 -0.895792 1.29666 0
M  V30 6928 C 673.764 -1.68001 1.20761 0
M  V30 6929 C 674.179 -1.87379 -0.231187 0
M  V30 6930 O 673.536 -1.41359 -1.15429 0
M  V30 6931 C 673.587 -3.06236 1.92098 0
M  V30 6932 O 673.308 -2.8774 3.30359 0
M  V30 6933 C 674.809 -4.00652 1.89717 0
M  V30 6934 H 672.029 -0.524591 0.418384 0
M  V30 6935 H 674.573 -1.11995 1.71106 0
M  V30 6936 H 672.728 -3.59007 1.45578 0
M  V30 6937 H 673.142 -3.75359 3.66342 0
M  V30 6938 H 674.616 -4.95051 2.44189 0
M  V30 6939 H 675.093 -4.30424 0.873595 0
M  V30 6940 H 675.699 -3.53815 2.35998 0
M  V30 6941 N 674.014 -1.12206 -1.10668 0
M  V30 6942 C 675.242 -0.898635 -1.86366 0
M  V30 6943 C 675.657 0.551991 -1.80551 0
M  V30 6944 O 675.014 1.38152 -1.19249 0
M  V30 6945 C 675.065 -1.36199 -3.34861 0
M  V30 6946 O 674.786 -2.75576 -3.40573 0
M  V30 6947 C 676.287 -1.17515 -4.2744 0
M  V30 6948 H 673.507 -0.321281 -0.589084 0
M  V30 6949 H 676.051 -1.49142 -1.39918 0
M  V30 6950 H 674.206 -0.81249 -3.78784 0
M  V30 6951 H 674.62 -2.95851 -4.33096 0
M  V30 6952 H 676.094 -1.54827 -5.29842 0
M  V30 6953 H 676.571 -0.115486 -4.39048 0
M  V30 6954 H 677.177 -1.71203 -3.89319 0
M  V30 6955 N 675.492 1.28418 -0.913599 0
M  V30 6956 C 676.72 1.99106 -0.562536 0
M  V30 6957 C 677.135 1.68273 0.856137 0
M  V30 6958 O 676.492 0.935401 1.56705 0
M  V30 6959 C 676.543 3.5338 -0.761903 0
M  V30 6960 O 676.264 3.83127 -2.12475 0
M  V30 6961 C 677.765 4.41328 -0.417651 0
M  V30 6962 H 674.985 0.635798 -0.214481 0
M  V30 6963 H 677.529 1.63618 -1.22676 0
M  V30 6964 H 675.684 3.8713 -0.144676 0
M  V30 6965 H 676.098 4.77763 -2.16431 0
M  V30 6966 H 677.572 5.48642 -0.607919 0
M  V30 6967 H 678.049 4.34422 0.646108 0
M  V30 6968 H 678.655 4.13074 -1.01241 0
M  V30 6969 N 676.97 0.677563 1.42291 0
M  V30 6970 C 678.381 0.277912 1.8462 0
M  V30 6971 C 678.732 -1.18048 1.56714 0
M  V30 6972 O 677.857 -1.90404 1.02836 0
M  V30 6973 C 678.452 0.497619 3.35126 0
M  V30 6974 C 677.011 0.152063 3.76093 0
M  V30 6975 C 676.158 0.78872 2.65847 0
M  V30 6976 H 679.109 0.879527 1.32098 0
M  V30 6977 H 679.13 -0.24939 3.79682 0
M  V30 6978 H 678.642 1.55913 3.55405 0
M  V30 6979 H 676.743 -0.905896 3.6142 0
M  V30 6980 H 676.856 0.594514 4.75397 0
M  V30 6981 H 675.22 0.219813 2.5375 0
M  V30 6982 H 676.003 1.85374 2.88949 0
M  V30 6983 N 678.448 -1.51871 0.421078 0
M  V30 6984 C 679.38 -2.25052 -0.434065 0
M  V30 6985 C 680.393 -1.28458 -1.00013 0
M  V30 6986 O 681.582 -1.54323 -0.897033 0
M  V30 6987 C 678.682 -2.97813 -1.61743 0
M  V30 6988 C 677.855 -4.21374 -1.17315 0
M  V30 6989 C 676.914 -4.76854 -2.22478 0
M  V30 6990 O 675.94 -5.39123 -1.82577 0
M  V30 6991 N 677.142 -4.59467 -3.54782 0
M  V30 6992 H 679.907 -2.99077 0.193073 0
M  V30 6993 H 677.468 -1.59972 0.249088 0
M  V30 6994 H 679.46 -3.3182 -2.31685 0
M  V30 6995 H 678.03 -2.26899 -2.15024 0
M  V30 6996 H 677.25 -3.93046 -0.3014 0
M  V30 6997 H 678.538 -5.01591 -0.853444 0
M  V30 6998 H 677.936 -4.09832 -3.89941 0
M  V30 6999 H 676.493 -4.9788 -4.20665 0
M  V30 7000 N 679.926 -0.151884 -1.56866 0
M  V30 7001 C 681.337 0.368128 -1.83035 0
M  V30 7002 C 681.688 1.64402 -1.07082 0
M  V30 7003 O 680.813 2.14056 -0.317647 0
M  V30 7004 C 681.408 0.674676 -3.32014 0
M  V30 7005 C 679.967 1.13919 -3.58747 0
M  V30 7006 C 679.114 0.164833 -2.7681 0
M  V30 7007 H 682.065 -0.376499 -1.54169 0
M  V30 7008 H 682.086 1.52883 -3.48435 0
M  V30 7009 H 681.598 -0.254113 -3.87267 0
M  V30 7010 H 679.699 2.08375 -3.08886 0
M  V30 7011 H 679.812 1.06179 -4.67186 0
M  V30 7012 H 678.176 0.658419 -2.46043 0
M  V30 7013 H 678.959 -0.757633 -3.34836 0
M  V30 7014 N 681.404 1.57128 0.121893 0
M  V30 7015 C 682.632 1.88883 0.844451 0
M  V30 7016 C 683.047 0.742824 1.73573 0
M  V30 7017 O 682.404 -0.286475 1.80238 0
M  V30 7018 C 682.455 3.20076 1.68029 0
M  V30 7019 O 682.176 4.30264 0.824898 0
M  V30 7020 C 683.677 3.65515 2.50826 0
M  V30 7021 H 680.897 0.62549 0.242907 0
M  V30 7022 H 683.441 2.04219 0.107151 0
M  V30 7023 H 681.596 3.06418 2.37038 0
M  V30 7024 H 682.01 5.05439 1.40113 0
M  V30 7025 H 683.484 4.60081 3.05008 0
M  V30 7026 H 683.961 2.92029 3.28048 0
M  V30 7027 H 684.567 3.81952 1.87064 0
M  V30 7028 N 682.882 -0.391992 1.52647 0
M  V30 7029 C 683.845 -1.46135 1.7657 0
M  V30 7030 C 684.845 -1.47701 0.635698 0
M  V30 7031 O 686.035 -1.48924 0.903728 0
M  V30 7032 C 683.167 -2.85443 1.86374 0
M  V30 7033 H 684.36 -1.26208 2.72051 0
M  V30 7034 H 681.913 -0.623549 1.43323 0
M  V30 7035 H 682.648 -3.10718 0.928685 0
M  V30 7036 H 682.433 -2.85708 2.68539 0
M  V30 7037 H 683.923 -3.62933 2.06566 0
M  V30 7038 N 684.36 -1.4356 -0.65026 0
M  V30 7039 C 685.771 -1.40324 -1.2315 0
M  V30 7040 C 686.122 -0.108812 -1.95898 0
M  V30 7041 O 685.247 0.79163 -2.01401 0
M  V30 7042 C 685.842 -2.54195 -2.23987 0
M  V30 7043 C 684.401 -2.54215 -2.77582 0
M  V30 7044 C 683.548 -2.31752 -1.5227 0
M  V30 7045 H 686.499 -1.52418 -0.442095 0
M  V30 7046 H 686.52 -2.25854 -3.0622 0
M  V30 7047 H 686.032 -3.48392 -1.71011 0
M  V30 7048 H 684.133 -1.63907 -3.34612 0
M  V30 7049 H 684.246 -3.52081 -3.24925 0
M  V30 7050 H 682.61 -1.80476 -1.79723 0
M  V30 7051 H 683.393 -3.28037 -1.01225 0
M  V30 7052 N 685.838 0.888903 -1.30139 0
M  V30 7053 C 687.249 1.45578 -1.16893 0
M  V30 7054 C 687.6 1.94825 0.231866 0
M  V30 7055 O 686.725 1.84661 1.12824 0
M  V30 7056 C 687.32 2.646 -2.11595 0
M  V30 7057 C 685.879 3.17389 -2.02339 0
M  V30 7058 C 685.026 1.90081 -2.01902 0
M  V30 7059 H 687.977 0.69921 -1.42467 0
M  V30 7060 H 687.998 3.40687 -1.69449 0
M  V30 7061 H 687.51 2.28726 -3.13538 0
M  V30 7062 H 685.611 3.5793 -1.03523 0
M  V30 7063 H 685.724 3.80955 -2.90534 0
M  V30 7064 H 684.088 2.08246 -1.46648 0
M  V30 7065 H 684.871 1.5647 -3.05568 0
M  V30 7066 N 687.317 1.12792 1.10072 0
M  V30 7067 C 688.545 0.908506 1.85886 0
M  V30 7068 C 688.96 -0.542408 1.80841 0
M  V30 7069 O 688.317 -1.37517 1.1998 0
M  V30 7070 C 688.368 1.37973 3.34134 0
M  V30 7071 O 688.089 2.77378 3.39106 0
M  V30 7072 C 689.59 1.1978 4.26811 0
M  V30 7073 H 686.81 0.3244 0.587372 0
M  V30 7074 H 689.354 1.49882 1.39125 0
M  V30 7075 H 687.509 0.832566 3.78348 0
M  V30 7076 H 687.923 2.98144 4.31521 0
M  V30 7077 H 689.397 1.57635 5.29014 0
M  V30 7078 H 689.874 0.138768 4.38981 0
M  V30 7079 H 690.48 1.73266 3.88406 0
M  V30 7080 N 688.795 -1.27931 0.920396 0
M  V30 7081 C 690.041 -1.94977 0.557832 0
M  V30 7082 C 690.374 -1.72224 -0.897365 0
M  V30 7083 O 689.649 -1.04705 -1.63912 0
M  V30 7084 C 689.932 -3.49289 0.875741 0
M  V30 7085 C 689.785 -3.81416 2.38416 0
M  V30 7086 C 691.104 -4.38486 0.376517 0
M  V30 7087 H 688.223 -0.708164 0.20414 0
M  V30 7088 H 690.865 -1.5118 1.15085 0
M  V30 7089 H 689.015 -3.86724 0.371062 0
M  V30 7090 H 690.687 -3.53813 2.95997 0
M  V30 7091 H 688.93 -3.28225 2.83639 0
M  V30 7092 H 689.601 -4.89198 2.55713 0
M  V30 7093 H 692.077 -4.08161 0.808945 0
M  V30 7094 H 690.953 -5.45296 0.627976 0
M  V30 7095 H 691.214 -4.36143 -0.723293 0
M  V30 7096 N 690.273 -0.685099 -1.4193 0
M  V30 7097 C 691.513 -0.215676 -2.03259 0
M  V30 7098 C 691.877 1.15934 -1.53047 0
M  V30 7099 O 693.078 1.72401 -2.06231 0
M  V30 7100 C 691.349 -0.259649 -3.56456 0
M  V30 7101 S 692.908 0.137262 -4.38585 0
M  V30 7102 H 689.726 -0.0877362 -0.705566 0
M  V30 7103 H 692.328 -0.900547 -1.73523 0
M  V30 7104 H 691.032 -1.26256 -3.90497 0
M  V30 7105 H 690.563 0.444716 -3.90878 0
M  V30 7106 H 692.578 1.36787 -4.76973 0
M  V30 7107 N 691.751 1.51645 -0.429126 0
M  V30 7108 C 693.162 1.86665 0.0359003 0
M  V30 7109 C 693.513 1.34677 1.42676 0
M  V30 7110 O 692.638 0.694195 2.04963 0
M  V30 7111 C 693.233 3.38724 0.0719221 0
M  V30 7112 C 691.792 3.7331 0.481336 0
M  V30 7113 C 690.939 2.75313 -0.331329 0
M  V30 7114 H 693.89 1.44987 -0.645333 0
M  V30 7115 H 693.911 3.7011 0.883118 0
M  V30 7116 H 693.423 3.76532 -0.940495 0
M  V30 7117 H 691.524 3.41088 1.49966 0
M  V30 7118 H 691.637 4.78631 0.211837 0
M  V30 7119 H 690.001 2.53839 0.209204 0
M  V30 7120 H 690.784 3.15963 -1.34247 0
M  V30 7121 N 693.229 0.160201 1.56784 0
M  V30 7122 C 694.457 -0.494165 2.00912 0
M  V30 7123 C 694.872 -1.57548 1.04038 0
M  V30 7124 O 694.229 -1.82457 0.0394581 0
M  V30 7125 C 694.28 -1.08271 3.44905 0
M  V30 7126 O 694.001 -0.0445704 4.38077 0
M  V30 7127 C 695.502 -1.8164 4.04378 0
M  V30 7128 H 692.722 -0.127498 0.658776 0
M  V30 7129 H 695.266 0.258665 2.02858 0
M  V30 7130 H 693.421 -1.78609 3.4377 0
M  V30 7131 H 693.835 -0.477544 5.22322 0
M  V30 7132 H 695.309 -2.18094 5.07089 0
M  V30 7133 H 695.786 -2.70727 3.45838 0
M  V30 7134 H 696.392 -1.15969 4.09184 0
M  V30 7135 N 694.707 -1.5719 -0.113559 0
M  V30 7136 C 695.955 -1.84772 -0.818761 0
M  V30 7137 C 696.276 -0.746196 -1.80158 0
M  V30 7138 O 695.546 0.229305 -1.94553 0
M  V30 7139 H 694.126 -0.681737 -0.305359 0
M  V30 7140 H 696.788 -1.94645 -0.0995845 0
M  V30 7141 H 695.884 -2.80878 -1.36067 0
M  V30 7142 N 696.185 0.383891 -1.52853 0
M  V30 7143 C 697.596 0.961591 -1.60032 0
M  V30 7144 C 697.947 1.90819 -0.456333 0
M  V30 7145 O 697.072 2.12288 0.419873 0
M  V30 7146 C 697.667 1.75078 -2.90057 0
M  V30 7147 C 696.226 2.2781 -2.99632 0
M  V30 7148 C 695.373 1.08512 -2.55187 0
M  V30 7149 H 698.324 0.163269 -1.57858 0
M  V30 7150 H 698.345 2.61046 -2.7683 0
M  V30 7151 H 697.857 1.06157 -3.73299 0
M  V30 7152 H 695.958 3.00028 -2.20939 0
M  V30 7153 H 696.071 2.56947 -4.0437 0
M  V30 7154 H 694.435 1.44667 -2.09627 0
M  V30 7155 H 695.218 0.41118 -3.40829 0
M  V30 7156 N 697.663 1.43903 0.642637 0
M  V30 7157 C 699.074 1.40975 1.22404 0
M  V30 7158 C 699.425 0.1192 1.95838 0
M  V30 7159 O 698.55 -0.780939 2.01818 0
M  V30 7160 C 699.145 2.5538 2.22636 0
M  V30 7161 C 697.704 2.55684 2.76229 0
M  V30 7162 C 696.851 2.32556 1.51039 0
M  V30 7163 H 699.802 1.5265 0.434006 0
M  V30 7164 H 699.823 2.27474 3.05017 0
M  V30 7165 H 699.335 3.49294 1.69161 0
M  V30 7166 H 697.436 1.65679 3.33738 0
M  V30 7167 H 697.549 3.53799 3.23053 0
M  V30 7168 H 695.913 1.81427 1.78764 0
M  V30 7169 H 696.696 3.28569 0.99484 0
M  V30 7170 N 699.141 -0.881989 1.30609 0
M  V30 7171 C 700.369 -1.66711 1.22536 0
M  V30 7172 C 700.784 -1.87614 -0.2113 0
M  V30 7173 O 700.141 -1.42576 -1.13923 0
M  V30 7174 C 700.192 -3.04182 1.95335 0
M  V30 7175 O 699.913 -2.8422 3.33393 0
M  V30 7176 C 701.414 -3.98617 1.93956 0
M  V30 7177 H 698.634 -0.520124 0.423925 0
M  V30 7178 H 701.178 -1.10174 1.72285 0
M  V30 7179 H 699.333 -3.57442 1.49378 0
M  V30 7180 H 699.747 -3.71452 3.70302 0
M  V30 7181 H 701.221 -4.92433 2.49426 0
M  V30 7182 H 701.698 -4.29473 0.919198 0
M  V30 7183 H 702.304 -3.51292 2.39738 0
M  V30 7184 N 700.619 -1.13374 -1.09472 0
M  V30 7185 C 701.865 -0.896516 -1.81908 0
M  V30 7186 C 702.198 0.575933 -1.85463 0
M  V30 7187 O 701.473 1.42618 -1.32251 0
M  V30 7188 C 701.756 -1.48445 -3.28079 0
M  V30 7189 C 701.609 -3.02598 -3.32798 0
M  V30 7190 C 702.928 -1.15226 -4.24748 0
M  V30 7191 H 700.047 -0.327127 -0.660422 0
M  V30 7192 H 702.689 -1.40195 -1.2824 0
M  V30 7193 H 700.839 -1.0546 -3.73912 0
M  V30 7194 H 702.511 -3.54335 -2.95372 0
M  V30 7195 H 700.754 -3.37613 -2.72397 0
M  V30 7196 H 701.425 -3.38835 -4.3577 0
M  V30 7197 H 703.901 -1.52369 -3.87199 0
M  V30 7198 H 702.777 -1.59012 -5.25363 0
M  V30 7199 H 703.038 -0.0658891 -4.42051 0
M  V30 7200 N 702.098 1.27442 -0.927168 0
M  V30 7201 C 703.048 2.24519 -0.396878 0
M  V30 7202 C 704.032 1.52981 0.498555 0
M  V30 7203 O 705.224 1.7378 0.336087 0
M  V30 7204 C 702.353 3.41514 0.349694 0
M  V30 7205 C 701.439 4.20357 -0.562226 0
M  V30 7206 N 701.83 4.7702 -1.68182 0
M  V30 7207 C 700.128 4.44503 -0.365135 0
M  V30 7208 C 700.829 5.36467 -2.24895 0
M  V30 7209 N 699.805 5.21371 -1.5386 0
M  V30 7210 H 703.607 2.65911 -1.25173 0
M  V30 7211 H 701.121 1.42366 -0.78138 0
M  V30 7212 H 703.118 4.10161 0.746536 0
M  V30 7213 H 701.778 3.01653 1.20148 0
M  V30 7214 H 702.789 4.74985 -2.06421 0
M  V30 7215 H 699.466 4.15111 0.446037 0
M  V30 7216 H 700.856 5.91264 -3.1915 0
M  V30 7217 N 703.576 0.692616 1.41565 0
M  V30 7218 C 704.987 0.297478 1.84315 0
M  V30 7219 C 705.338 -1.16379 1.57957 0
M  V30 7220 O 704.463 -1.89303 1.0485 0
M  V30 7221 C 705.058 0.533136 3.34579 0
M  V30 7222 C 703.617 0.191944 3.7591 0
M  V30 7223 C 702.764 0.816873 2.64995 0
M  V30 7224 H 705.715 0.893488 1.31158 0
M  V30 7225 H 705.736 -0.209105 3.79925 0
M  V30 7226 H 705.248 1.59674 3.53731 0
M  V30 7227 H 703.349 -0.867512 3.6236 0
M  V30 7228 H 703.462 0.644902 4.7474 0
M  V30 7229 H 701.826 0.246715 2.53502 0
M  V30 7230 H 702.609 1.88429 2.86966 0
M  V30 7231 N 705.054 -1.51416 0.437162 0
M  V30 7232 C 706.279 -2.0699 -0.130424 0
M  V30 7233 C 706.704 -1.30249 -1.35709 0
M  V30 7234 O 706.062 -0.340388 -1.78076 0
M  V30 7235 C 706.11 -3.5801 -0.43142 0
M  V30 7236 O 705.214 -3.8345 -1.5179 0
M  V30 7237 H 704.555 -0.663997 -0.00194339 0
M  V30 7238 H 707.085 -1.95029 0.618445 0
M  V30 7239 H 707.095 -4.02261 -0.681926 0
M  V30 7240 H 705.77 -4.13291 0.465137 0
M  V30 7241 H 704.347 -3.51062 -1.25737 0
M  V30 7242 N 706.532 -0.168513 -1.56696 0
M  V30 7243 C 707.442 0.775435 -2.21414 0
M  V30 7244 C 708.458 1.25529 -1.20492 0
M  V30 7245 O 709.634 1.30801 -1.53144 0
M  V30 7246 C 706.699 1.9886 -2.83999 0
M  V30 7247 C 705.76 1.5559 -4.00113 0
M  V30 7248 C 704.993 2.71124 -4.59704 0
M  V30 7249 O 705.216 3.87917 -4.18182 0
M  V30 7250 O 704.15 2.4536 -5.4962 0
M  V30 7251 H 707.976 0.254416 -3.02632 0
M  V30 7252 H 705.561 0.0595507 -1.49281 0
M  V30 7253 H 707.443 2.69816 -3.23693 0
M  V30 7254 H 706.118 2.49874 -2.05779 0
M  V30 7255 H 705.025 0.815924 -3.65094 0
M  V30 7256 H 706.358 1.09271 -4.79917 0
M  V30 7257 N 708.01 1.57248 0.105221 0
M  V30 7258 C 709.426 1.52853 0.459153 0
M  V30 7259 C 709.626 0.883674 1.8109 0
M  V30 7260 O 708.682 0.471864 2.48052 0
M  V30 7261 C 709.995 2.97596 0.43096 0
M  V30 7262 C 711.543 3.08758 0.513536 0
M  V30 7263 C 712.018 4.55089 0.515593 0
M  V30 7264 N 713.509 4.59597 0.576639 0
M  V30 7265 C 714.244 5.70253 0.599904 0
M  V30 7266 N 713.74 6.90368 0.579985 0
M  V30 7267 N 715.533 5.58399 0.643953 0
M  V30 7268 H 707.684 1.97547 -0.780306 0
M  V30 7269 H 709.947 0.902758 -0.289363 0
M  V30 7270 H 709.653 3.48201 -0.494903 0
M  V30 7271 H 709.527 3.55756 1.2537 0
M  V30 7272 H 711.914 2.58148 1.42982 0
M  V30 7273 H 711.995 2.53568 -0.337148 0
M  V30 7274 H 711.639 5.06348 -0.396701 0
M  V30 7275 H 711.569 5.08105 1.38335 0
M  V30 7276 H 714.06 3.73144 0.597639 0
M  V30 7277 H 714.373 7.70462 0.600741 0
M  V30 7278 H 712.718 6.92843 0.547191 0
M  V30 7279 H 715.909 4.63467 0.656975 0
M  V30 7280 H 716.082 6.44644 0.658616 0
M  V30 7281 N 709.488 -0.375779 1.53054 0
M  V30 7282 C 710.899 -0.95309 1.6054 0
M  V30 7283 C 711.25 -1.90575 0.466446 0
M  V30 7284 O 710.375 -2.12507 -0.408609 0
M  V30 7285 C 710.97 -1.73537 2.90982 0
M  V30 7286 C 709.529 -2.26218 3.00836 0
M  V30 7287 C 708.676 -1.07157 2.55759 0
M  V30 7288 H 711.627 -0.154895 1.57942 0
M  V30 7289 H 711.648 -2.59574 2.78211 0
M  V30 7290 H 711.16 -1.04176 3.73857 0
M  V30 7291 H 709.261 -2.98852 2.22527 0
M  V30 7292 H 709.374 -2.54799 4.05727 0
M  V30 7293 H 707.738 -1.43553 2.10391 0
M  V30 7294 H 708.521 -0.393099 3.41042 0
M  V30 7295 N 710.966 -1.44241 -0.634997 0
M  V30 7296 C 712.194 -1.50296 -1.42193 0
M  V30 7297 C 712.609 -0.12658 -1.88375 0
M  V30 7298 O 711.966 0.86678 -1.60603 0
M  V30 7299 C 712.017 -2.46437 -2.64482 0
M  V30 7300 O 711.738 -3.78724 -2.20226 0
M  V30 7301 C 713.239 -2.61918 -3.57651 0
M  V30 7302 H 710.459 -0.509865 -0.43621 0
M  V30 7303 H 713.003 -1.89167 -0.776921 0
M  V30 7304 H 711.158 -2.10712 -3.25083 0
M  V30 7305 H 711.572 -4.30595 -2.9948 0
M  V30 7306 H 713.046 -3.33225 -4.40074 0
M  V30 7307 H 713.523 -1.67017 -4.06204 0
M  V30 7308 H 714.129 -2.98528 -3.02921 0
M  V30 7309 N 712.444 0.87505 -1.31075 0
M  V30 7310 C 713.407 1.96333 -1.18263 0
M  V30 7311 C 714.407 1.60416 -0.111106 0
M  V30 7312 O 715.597 1.7044 -0.359987 0
M  V30 7313 C 712.729 3.31036 -0.81414 0
M  V30 7314 H 713.922 2.09125 -2.14958 0
M  V30 7315 H 711.475 1.06271 -1.14614 0
M  V30 7316 H 712.21 3.23944 0.151875 0
M  V30 7317 H 711.995 3.58476 -1.58862 0
M  V30 7318 H 713.485 4.10842 -0.748249 0
M  V30 7319 N 713.922 1.13953 1.08869 0
M  V30 7320 C 715.17 0.903023 1.80803 0
M  V30 7321 C 715.491 -0.572151 1.86417 0
M  V30 7322 O 714.761 -1.41589 1.35386 0
M  V30 7323 H 713.341 0.331099 0.669614 0
M  V30 7324 H 716.003 1.43719 1.31647 0
M  V30 7325 H 715.099 1.29881 2.83791 0
M  V30 7326 N 715.4 -1.26948 0.933913 0
M  V30 7327 C 716.811 -1.76058 0.621324 0
M  V30 7328 C 717.162 -1.76175 -0.863522 0
M  V30 7329 O 716.287 -1.36921 -1.67576 0
M  V30 7330 C 716.882 -3.19713 1.12111 0
M  V30 7331 C 715.441 -3.66465 0.859074 0
M  V30 7332 C 714.588 -2.46186 1.27624 0
M  V30 7333 H 717.539 -1.13127 1.11301 0
M  V30 7334 H 717.56 -3.77566 0.471608 0
M  V30 7335 H 717.072 -3.19596 2.20182 0
M  V30 7336 H 715.173 -3.72021 -0.207566 0
M  V30 7337 H 715.286 -4.55636 1.48098 0
M  V30 7338 H 713.65 -2.45042 0.694727 0
M  V30 7339 H 714.433 -2.48774 2.36572 0
M  V30 7340 N 716.879 -0.700114 -1.41195 0
M  V30 7341 C 718.107 -0.242179 -2.05478 0
M  V30 7342 C 718.522 1.11029 -1.52702 0
M  V30 7343 O 717.879 1.69473 -0.677127 0
M  V30 7344 C 717.93 -0.196271 -3.60967 0
M  V30 7345 O 717.651 -1.49532 -4.11791 0
M  V30 7346 C 719.152 0.282102 -4.42401 0
M  V30 7347 H 716.372 -0.111749 -0.661629 0
M  V30 7348 H 718.916 -0.953975 -1.80885 0
M  V30 7349 H 717.071 0.46638 -3.84582 0
M  V30 7350 H 717.485 -1.38545 -5.05871 0
M  V30 7351 H 718.959 0.263093 -5.51373 0
M  V30 7352 H 719.436 1.32174 -4.1884 0
M  V30 7353 H 720.042 -0.349712 -4.2386 0
M  V30 7354 N 718.357 1.51182 -0.445186 0
M  V30 7355 C 719.605 2.01753 0.11841 0
M  V30 7356 C 719.926 1.33087 1.42523 0
M  V30 7357 O 719.196 0.467891 1.9023 0
M  V30 7358 H 717.776 0.745536 0.0467492 0
M  V30 7359 H 720.438 1.85765 -0.589688 0
M  V30 7360 H 719.534 3.10762 0.288665 0
M  V30 7361 N 719.835 0.176821 1.56605 0
M  V30 7362 C 721.246 -0.338963 1.83597 0
M  V30 7363 C 721.597 -1.62677 1.09684 0
M  V30 7364 O 720.722 -2.13524 0.351661 0
M  V30 7365 C 721.317 -0.62177 3.33046 0
M  V30 7366 C 719.876 -1.08198 3.60514 0
M  V30 7367 C 719.023 -0.120774 2.77037 0
M  V30 7368 H 721.974 0.400978 1.53551 0
M  V30 7369 H 721.995 -1.47321 3.50823 0
M  V30 7370 H 721.507 0.315692 3.86814 0
M  V30 7371 H 719.608 -2.03435 3.12162 0
M  V30 7372 H 719.721 -0.987329 4.68816 0
M  V30 7373 H 718.085 -0.619192 2.47059 0
M  V30 7374 H 718.868 0.810806 3.33588 0
M  V30 7375 N 721.313 -1.57302 -0.09688 0
M  V30 7376 C 722.724 -1.7496 -0.651595 0
M  V30 7377 C 723.075 -0.798746 -1.79205 0
M  V30 7378 O 722.2 0.0231858 -2.16388 0
M  V30 7379 C 722.795 -3.17259 -1.18878 0
M  V30 7380 C 721.354 -3.36348 -1.68958 0
M  V30 7381 C 720.501 -2.70766 -0.598413 0
M  V30 7382 H 723.452 -1.58173 0.12918 0
M  V30 7383 H 723.473 -3.20033 -2.05814 0
M  V30 7384 H 722.985 -3.8644 -0.358523 0
M  V30 7385 H 721.086 -2.72243 -2.5439 0
M  V30 7386 H 721.199 -4.44654 -1.7838 0
M  V30 7387 H 719.563 -2.32615 -1.03743 0
M  V30 7388 H 720.346 -3.42586 0.221238 0
M  V30 7389 N 722.791 0.367657 -1.53252 0
M  V30 7390 C 724.016 1.13566 -1.73544 0
M  V30 7391 C 724.441 1.82329 -0.462344 0
M  V30 7392 O 723.799 1.71655 0.583472 0
M  V30 7393 C 723.847 2.14322 -2.89997 0
M  V30 7394 O 722.951 3.21359 -2.58461 0
M  V30 7395 H 722.292 0.329614 -0.576412 0
M  V30 7396 H 724.822 0.425417 -2.00128 0
M  V30 7397 H 724.832 2.57958 -3.16104 0
M  V30 7398 H 723.507 1.63664 -3.82344 0
M  V30 7399 H 722.084 2.8271 -2.43165 0
M  V30 7400 N 724.269 1.44576 0.627338 0
M  V30 7401 C 725.232 1.51372 1.72102 0
M  V30 7402 C 726.232 0.395329 1.55865 0
M  V30 7403 O 727.422 0.658094 1.61291 0
M  V30 7404 C 724.554 1.39129 3.11217 0
M  V30 7405 H 725.747 2.48798 1.6745 0
M  V30 7406 H 723.3 1.31724 0.841336 0
M  V30 7407 H 724.035 0.428114 3.21462 0
M  V30 7408 H 723.82 2.20229 3.24409 0
M  V30 7409 H 725.31 1.46874 3.90919 0
M  V30 7410 N 725.747 -0.868086 1.31537 0
M  V30 7411 C 726.995 -1.61807 1.21091 0
M  V30 7412 C 727.316 -1.93631 -0.230623 0
M  V30 7413 O 726.586 -1.5846 -1.15183 0
M  V30 7414 H 725.166 -0.599854 0.445178 0
M  V30 7415 H 727.828 -1.03915 1.64887 0
M  V30 7416 H 726.924 -2.56088 1.78396 0
M  V30 7417 N 727.225 -1.14528 -1.08264 0
M  V30 7418 C 728.636 -0.925261 -1.6216 0
M  V30 7419 C 728.987 0.535587 -1.88748 0
M  V30 7420 O 728.112 1.4048 -1.64604 0
M  V30 7421 C 728.707 -1.67316 -2.94603 0
M  V30 7422 C 727.266 -1.49868 -3.45278 0
M  V30 7423 C 726.413 -1.69471 -2.19487 0
M  V30 7424 H 729.364 -1.29687 -0.914707 0
M  V30 7425 H 729.385 -1.13721 -3.63109 0
M  V30 7426 H 728.897 -2.73635 -2.75219 0
M  V30 7427 H 726.998 -0.459032 -3.69762 0
M  V30 7428 H 727.111 -2.2696 -4.21931 0
M  V30 7429 H 725.475 -1.12048 -2.2873 0
M  V30 7430 H 726.258 -2.77136 -2.0261 0
M  V30 7431 N 728.703 1.26451 -0.940633 0
M  V30 7432 C 729.931 1.97868 -0.604642 0
M  V30 7433 C 730.346 1.70051 0.820251 0
M  V30 7434 O 729.703 0.96843 1.54686 0
M  V30 7435 C 729.754 3.51684 -0.836689 0
M  V30 7436 O 729.475 3.78533 -2.20554 0
M  V30 7437 C 730.976 4.40343 -0.511169 0
M  V30 7438 H 728.196 0.631105 -0.227919 0
M  V30 7439 H 730.74 1.60979 -1.26119 0
M  V30 7440 H 728.895 3.86736 -0.226759 0
M  V30 7441 H 729.309 4.73065 -2.26517 0
M  V30 7442 H 730.783 5.47229 -0.724157 0
M  V30 7443 H 731.26 4.35694 0.553815 0
M  V30 7444 H 731.866 4.10834 -1.0998 0
M  V30 7445 N 730.181 0.707592 1.40822 0
M  V30 7446 C 731.429 0.243189 2.00632 0
M  V30 7447 C 731.75 -1.16512 1.56365 0
M  V30 7448 O 731.02 -1.78841 0.799553 0
M  V30 7449 H 729.6 0.0869203 0.741926 0
M  V30 7450 H 732.262 0.911438 1.72275 0
M  V30 7451 H 731.358 0.270014 3.1093 0
M  V30 7452 N 731.66 -1.50943 0.453197 0
M  V30 7453 C 733.071 -1.86699 -0.00619892 0
M  V30 7454 C 733.422 -1.3693 -1.40515 0
M  V30 7455 O 732.547 -0.726715 -2.03833 0
M  V30 7456 C 733.142 -3.38795 -0.018025 0
M  V30 7457 C 731.701 -3.74028 -0.421885 0
M  V30 7458 C 730.848 -2.74752 0.375087 0
M  V30 7459 H 733.799 -1.43942 0.668317 0
M  V30 7460 H 733.82 -3.71468 -0.824125 0
M  V30 7461 H 733.332 -3.74988 1.00028 0
M  V30 7462 H 731.433 -3.43431 -1.44521 0
M  V30 7463 H 731.546 -4.78908 -0.135664 0
M  V30 7464 H 729.91 -2.5414 -0.168794 0
M  V30 7465 H 730.693 -3.13787 1.39256 0
M  V30 7466 N 733.138 -0.185124 -1.56509 0
M  V30 7467 C 734.549 0.329221 -1.83774 0
M  V30 7468 C 734.9 1.62093 -1.10545 0
M  V30 7469 O 734.025 2.13334 -0.36298 0
M  V30 7470 C 734.62 0.604099 -3.33371 0
M  V30 7471 C 733.179 1.06284 -3.61083 0
M  V30 7472 C 732.326 0.10608 -2.77097 0
M  V30 7473 H 735.277 -0.409116 -1.53336 0
M  V30 7474 H 735.298 1.45458 -3.51599 0
M  V30 7475 H 734.81 -0.336201 -3.86641 0
M  V30 7476 H 732.911 2.01777 -3.13236 0
M  V30 7477 H 733.024 0.962453 -4.69333 0
M  V30 7478 H 731.388 0.606082 -2.47384 0
M  V30 7479 H 732.171 -0.828486 -3.33153 0
M  V30 7480 N 734.616 1.57351 0.0885366 0
M  V30 7481 C 735.844 1.90631 0.804196 0
M  V30 7482 C 736.259 0.779474 1.71958 0
M  V30 7483 O 735.616 -0.248179 1.80805 0
M  V30 7484 C 735.667 3.23568 1.61202 0
M  V30 7485 O 735.388 4.31917 0.733447 0
M  V30 7486 C 736.889 3.70753 2.43016 0
M  V30 7487 H 734.109 0.630501 0.229585 0
M  V30 7488 H 736.653 2.044 0.0638092 0
M  V30 7489 H 734.808 3.11377 2.30485 0
M  V30 7490 H 735.222 5.08297 1.29361 0
M  V30 7491 H 736.696 4.66447 2.9518 0
M  V30 7492 H 737.173 2.98922 3.2178 0
M  V30 7493 H 737.779 3.85834 1.7892 0
M  V30 7494 N 736.094 -0.359525 1.53444 0
M  V30 7495 C 737.057 -1.42357 1.7963 0
M  V30 7496 C 738.057 -1.46319 0.666884 0
M  V30 7497 O 739.247 -1.46974 0.935113 0
M  V30 7498 C 736.379 -2.81425 1.92387 0
M  V30 7499 H 737.572 -1.20409 2.74666 0
M  V30 7500 H 735.125 -0.593007 1.44614 0
M  V30 7501 H 735.86 -3.08679 0.994384 0
M  V30 7502 H 735.645 -2.79947 2.74539 0
M  V30 7503 H 737.135 -3.5847 2.14218 0
M  V30 7504 N 737.572 -1.44907 -0.619662 0
M  V30 7505 C 738.82 -1.47999 -1.37625 0
M  V30 7506 C 739.141 -0.118295 -1.94641 0
M  V30 7507 O 738.411 0.85086 -1.76457 0
M  V30 7508 H 736.991 -0.544993 -0.510873 0
M  V30 7509 H 739.653 -1.80772 -0.728522 0
M  V30 7510 H 738.749 -2.21196 -2.20179 0
M  V30 7511 N 739.05 0.861098 -1.31996 0
M  V30 7512 C 740.461 1.43065 -1.19955 0
M  V30 7513 C 740.812 1.95273 0.190489 0
M  V30 7514 O 739.937 1.87012 1.08882 0
M  V30 7515 C 740.532 2.60052 -2.1716 0
M  V30 7516 C 739.091 3.13026 -2.09026 0
M  V30 7517 C 738.238 1.85756 -2.05888 0
M  V30 7518 H 741.189 0.668834 -1.43918 0
M  V30 7519 H 741.21 3.37016 -1.76637 0
M  V30 7520 H 740.722 2.22024 -3.18319 0
M  V30 7521 H 738.823 3.55653 -1.11092 0
M  V30 7522 H 738.936 3.74707 -2.98549 0
M  V30 7523 H 737.3 2.05088 -1.51033 0
M  V30 7524 H 738.083 1.49954 -3.08818 0
M  V30 7525 N 740.528 1.15101 1.07655 0
M  V30 7526 C 741.753 0.948177 1.84457 0
M  V30 7527 C 742.178 -0.498432 1.81376 0
M  V30 7528 O 741.536 -1.35509 1.20445 0
M  V30 7529 C 741.584 1.46318 3.29581 0
M  V30 7530 O 740.688 0.660342 4.07079 0
M  V30 7531 H 740.029 0.338428 0.571281 0
M  V30 7532 H 742.559 1.5301 1.35828 0
M  V30 7533 H 742.569 1.47468 3.80417 0
M  V30 7534 H 741.244 2.51635 3.31138 0
M  V30 7535 H 739.821 0.718216 3.65918 0
M  V30 7536 N 742.006 -1.2595 0.947325 0
M  V30 7537 C 743.234 -1.97544 0.615127 0
M  V30 7538 C 743.649 -1.70484 -0.811221 0
M  V30 7539 O 743.006 -0.97662 -1.5417 0
M  V30 7540 C 743.057 -3.51236 0.855328 0
M  V30 7541 O 742.778 -3.77359 2.22558 0
M  V30 7542 C 744.279 -4.40066 0.534515 0
M  V30 7543 H 741.499 -0.629888 0.231263 0
M  V30 7544 H 744.043 -1.60308 1.26971 0
M  V30 7545 H 742.198 -3.8661 0.247266 0
M  V30 7546 H 742.612 -4.71857 2.29022 0
M  V30 7547 H 744.086 -5.46838 0.753168 0
M  V30 7548 H 744.563 -4.35982 -0.530701 0
M  V30 7549 H 745.169 -4.10245 1.12158 0
M  V30 7550 N 743.484 -0.715051 -1.40445 0
M  V30 7551 C 744.447 -0.0708726 -2.2909 0
M  V30 7552 C 745.447 0.687926 -1.45342 0
M  V30 7553 O 746.637 0.519908 -1.66261 0
M  V30 7554 C 743.769 0.909528 -3.28543 0
M  V30 7555 H 744.962 -0.851611 -2.87555 0
M  V30 7556 H 742.515 -0.479674 -1.48758 0
M  V30 7557 H 743.25 1.71734 -2.75096 0
M  V30 7558 H 743.035 0.368318 -3.90366 0
M  V30 7559 H 744.525 1.35744 -3.94922 0
M  V30 7560 N 744.962 1.50701 -0.461195 0
M  V30 7561 C 746.19 2.06681 0.0951756 0
M  V30 7562 C 746.605 1.32615 1.34382 0
M  V30 7563 O 745.962 0.392531 1.78229 0
M  V30 7564 C 746.013 3.59354 0.393316 0
M  V30 7565 O 745.734 4.30626 -0.805797 0
M  V30 7566 C 747.235 4.31926 0.997744 0
M  V30 7567 H 744.455 0.670995 -0.00267259 0
M  V30 7568 H 746.999 1.93991 -0.647137 0
M  V30 7569 H 745.154 3.7188 1.08555 0
M  V30 7570 H 745.568 5.21667 -0.544409 0
M  V30 7571 H 747.042 5.39756 1.15619 0
M  V30 7572 H 747.519 3.91772 1.98523 0
M  V30 7573 H 748.125 4.23905 0.344188 0
M  V30 7574 N 746.441 0.193421 1.56409 0
M  V30 7575 C 747.669 -0.451438 2.01915 0
M  V30 7576 C 748.084 -1.55306 1.07357 0
M  V30 7577 O 747.441 -1.82333 0.0781512 0
M  V30 7578 C 747.492 -1.00931 3.47124 0
M  V30 7579 O 747.213 0.0483623 4.38073 0
M  V30 7580 C 748.714 -1.73021 4.0814 0
M  V30 7581 H 745.934 -0.113495 0.661332 0
M  V30 7582 H 748.478 0.301636 2.02263 0
M  V30 7583 H 746.633 -1.71277 3.47481 0
M  V30 7584 H 747.047 -0.366644 5.23217 0
M  V30 7585 H 748.521 -2.07289 5.11601 0
M  V30 7586 H 748.998 -2.6333 3.51502 0
M  V30 7587 H 749.604 -1.07264 4.11551 0
M  V30 7588 N 747.919 -1.57396 -0.0801906 0
M  V30 7589 C 749.165 -1.87113 -0.782083 0
M  V30 7590 C 749.498 -0.78458 -1.77646 0
M  V30 7591 O 748.773 0.205993 -1.93406 0
M  V30 7592 C 749.056 -3.27483 -1.49756 0
M  V30 7593 C 748.909 -4.46782 -0.520171 0
M  V30 7594 C 750.228 -3.65965 -2.44454 0
M  V30 7595 H 747.347 -0.680559 -0.282858 0
M  V30 7596 H 749.989 -1.89946 -0.0454139 0
M  V30 7597 H 748.139 -3.25199 -2.12551 0
M  V30 7598 H 749.811 -4.61187 0.101919 0
M  V30 7599 H 748.054 -4.33485 0.165219 0
M  V30 7600 H 748.725 -5.41761 -1.05824 0
M  V30 7601 H 751.201 -3.69289 -1.91742 0
M  V30 7602 H 750.077 -4.65086 -2.91524 0
M  V30 7603 H 750.338 -2.95446 -3.28883 0
M  V30 7604 N 749.397 0.351382 -1.53633 0
M  V30 7605 C 750.808 0.927429 -1.62036 0
M  V30 7606 C 751.159 1.89809 -0.496706 0
M  V30 7607 O 750.284 2.1313 0.374749 0
M  V30 7608 C 750.879 1.68886 -2.93706 0
M  V30 7609 C 749.438 2.21404 -3.04397 0
M  V30 7610 C 748.585 1.03075 -2.57431 0
M  V30 7611 H 751.536 0.129748 -1.58169 0
M  V30 7612 H 751.557 2.55116 -2.82305 0
M  V30 7613 H 751.069 0.982149 -3.75467 0
M  V30 7614 H 749.17 2.95274 -2.27253 0
M  V30 7615 H 749.283 2.48312 -4.09729 0
M  V30 7616 H 747.647 1.40188 -2.12649 0
M  V30 7617 H 748.43 0.338793 -3.41624 0
M  V30 7618 N 750.875 1.45233 0.611969 0
M  V30 7619 C 751.805 1.5641 1.73373 0
M  V30 7620 C 752.786 0.415896 1.64937 0
M  V30 7621 O 753.971 0.638478 1.83404 0
M  V30 7622 C 751.101 1.52627 3.11965 0
M  V30 7623 C 750.055 2.66119 3.35208 0
M  V30 7624 C 749.381 2.4739 4.74028 0
M  V30 7625 C 750.681 4.08157 3.25891 0
M  V30 7626 H 752.375 2.50307 1.64277 0
M  V30 7627 H 749.921 1.20467 0.788904 0
M  V30 7628 H 751.874 1.59043 3.90235 0
M  V30 7629 H 750.598 0.552564 3.21892 0
M  V30 7630 H 749.257 2.59123 2.59327 0
M  V30 7631 H 748.905 1.48168 4.80682 0
M  V30 7632 H 748.605 3.23494 4.90536 0
M  V30 7633 H 750.129 2.55653 5.54503 0
M  V30 7634 H 751.543 4.1642 3.9404 0
M  V30 7635 H 749.94 4.84617 3.5393 0
M  V30 7636 H 751.01 4.30374 2.23397 0
M  V30 7637 N 752.353 -0.854086 1.3245 0
M  V30 7638 C 753.578 -1.64597 1.26185 0
M  V30 7639 C 754.003 -1.87357 -0.167074 0
M  V30 7640 O 753.361 -1.42675 -1.11864 0
M  V30 7641 C 753.409 -2.98213 2.02734 0
M  V30 7642 O 752.513 -3.88784 1.37554 0
M  V30 7643 H 751.854 -0.50179 0.434859 0
M  V30 7644 H 754.384 -1.06372 1.74775 0
M  V30 7645 H 754.394 -3.4803 2.1293 0
M  V30 7646 H 753.069 -2.80969 3.06642 0
M  V30 7647 H 751.646 -3.4725 1.3591 0
M  V30 7648 N 753.831 -1.1567 -1.07043 0
M  V30 7649 C 755.242 -0.942408 -1.61169 0
M  V30 7650 C 755.593 0.515537 -1.89306 0
M  V30 7651 O 754.718 1.38726 -1.66084 0
M  V30 7652 C 755.313 -1.70431 -2.92812 0
M  V30 7653 C 753.872 -1.53521 -3.43669 0
M  V30 7654 C 753.019 -1.7179 -2.17678 0
M  V30 7655 H 755.97 -1.3065 -0.9009 0
M  V30 7656 H 755.991 -1.17566 -3.61882 0
M  V30 7657 H 755.503 -2.76538 -2.72302 0
M  V30 7658 H 753.604 -0.498224 -3.69254 0
M  V30 7659 H 753.717 -2.31422 -4.19501 0
M  V30 7660 H 752.081 -1.14468 -2.27529 0
M  V30 7661 H 752.864 -2.79269 -1.99659 0
M  V30 7662 N 755.309 1.25446 -0.953992 0
M  V30 7663 C 756.555 1.9343 -0.60933 0
M  V30 7664 C 756.888 1.74542 0.851388 0
M  V30 7665 O 756.163 1.09014 1.61078 0
M  V30 7666 C 756.446 3.46844 -0.968041 0
M  V30 7667 C 756.299 3.74961 -2.48444 0
M  V30 7668 C 757.618 4.37334 -0.492641 0
M  V30 7669 H 754.737 0.702502 -0.222844 0
M  V30 7670 H 757.379 1.48076 -1.19053 0
M  V30 7671 H 755.529 3.85604 -0.473465 0
M  V30 7672 H 757.201 3.45841 -3.05273 0
M  V30 7673 H 755.444 3.20589 -2.92241 0
M  V30 7674 H 756.115 4.82246 -2.68594 0
M  V30 7675 H 758.591 4.05873 -0.916878 0
M  V30 7676 H 757.467 5.43439 -0.772331 0
M  V30 7677 H 757.728 4.37908 0.607403 0
M  V30 7678 N 756.787 0.722489 1.40064 0
M  V30 7679 C 758.064 0.191829 1.94657 0
M  V30 7680 C 758.444 -1.30389 1.66018 0
M  V30 7681 O 757.792 -2.06342 0.981588 0
M  V30 7682 C 758.002 0.511978 3.45224 0
M  V30 7683 C 759.35 0.454426 4.22161 0
M  V30 7684 O 760.374 0.448438 3.53366 0
M  V30 7685 O 759.233 0.437986 5.44742 0
M  V30 7686 H 756.327 0.0307821 0.826427 0
M  V30 7687 H 758.873 0.800493 1.49634 0
M  V30 7688 H 757.645 1.54622 3.59455 0
M  V30 7689 H 757.268 -0.126296 3.97399 0
M  V30 7690 N 758.265 -1.50454 0.469181 0
M  V30 7691 C 759.542 -1.9504 -0.147955 0
M  V30 7692 C 759.922 -1.40946 -1.57154 0
M  V30 7693 O 759.27 -0.609663 -2.20217 0
M  V30 7694 C 759.48 -3.48875 -0.0932198 0
M  V30 7695 C 760.828 -4.23655 -0.283056 0
M  V30 7696 O 761.852 -3.55795 -0.169892 0
M  V30 7697 O 760.711 -5.44102 -0.511396 0
M  V30 7698 H 757.805 -0.819283 -0.11271 0
M  V30 7699 H 760.351 -1.6123 0.529446 0
M  V30 7700 H 759.123 -3.80791 0.900784 0
M  V30 7701 H 758.746 -3.89217 -0.812161 0
M  V30 7702 N 759.743 -0.201713 -1.56304 0
M  V30 7703 C 760.706 0.702811 -2.18159 0
M  V30 7704 C 761.706 1.13619 -1.13787 0
M  V30 7705 O 762.896 1.0482 -1.39134 0
M  V30 7706 C 760.028 1.96032 -2.78898 0
M  V30 7707 H 761.221 0.163836 -2.99452 0
M  V30 7708 H 758.774 0.04791 -1.56227 0
M  V30 7709 H 759.509 2.54165 -2.01421 0
M  V30 7710 H 759.294 1.65824 -3.55309 0
M  V30 7711 H 760.784 2.60519 -3.26373 0
M  V30 7712 N 761.222 1.57436 0.0718424 0
M  V30 7713 C 762.462 1.89082 0.776351 0
M  V30 7714 C 762.826 0.795494 1.74745 0
M  V30 7715 O 764.027 0.995025 2.49705 0
M  V30 7716 C 762.298 3.25958 1.46582 0
M  V30 7717 S 763.857 3.79352 2.2054 0
M  V30 7718 H 760.675 0.662472 0.25817 0
M  V30 7719 H 763.277 1.95473 0.0324536 0
M  V30 7720 H 761.981 4.03577 0.745237 0
M  V30 7721 H 761.512 3.22764 2.24915 0
M  V30 7722 H 763.527 3.54634 3.47058 0
M  V30 7723 N 762.7 -0.34323 1.53817 0
M  V30 7724 C 763.648 -1.44176 1.82527 0
M  V30 7725 C 764.642 -1.54452 0.695772 0
M  V30 7726 O 765.848 -1.57072 0.879114 0
M  V30 7727 H 762.223 -0.480729 0.578277 0
M  V30 7728 H 764.194 -1.17176 2.74431 0
M  V30 7729 C 762.943 -2.80695 2.05197 0
M  V30 7730 H 762.266 -2.73554 2.91561 0
M  V30 7731 H 763.706 -3.56679 2.29251 0
M  V30 7732 C 762.165 -3.26322 0.837589 0
M  V30 7733 O 762.695 -4.01683 0.0371631 0
M  V30 7734 N 760.901 -2.83128 0.654724 0
M  V30 7735 H 760.448 -2.21965 1.30725 0
M  V30 7736 H 760.406 -3.14011 -0.156345 0
M  V30 7737 N 764.178 -1.45556 -0.604258 0
M  V30 7738 C 765.424 -1.49968 -1.36519 0
M  V30 7739 C 765.757 -0.142236 -1.93678 0
M  V30 7740 O 765.032 0.843717 -1.75247 0
M  V30 7741 C 765.315 -2.58146 -2.51063 0
M  V30 7742 C 765.168 -4.03346 -1.99078 0
M  V30 7743 C 766.487 -2.62581 -3.53184 0
M  V30 7744 H 763.606 -0.545993 -0.495036 0
M  V30 7745 H 766.248 -1.77382 -0.680845 0
M  V30 7746 H 764.398 -2.34901 -3.09441 0
M  V30 7747 H 766.07 -4.37811 -1.45323 0
M  V30 7748 H 764.313 -4.13845 -1.30055 0
M  V30 7749 H 764.984 -4.74731 -2.81664 0
M  V30 7750 H 767.46 -2.83419 -3.04652 0
M  V30 7751 H 766.336 -3.40131 -4.30816 0
M  V30 7752 H 766.597 -1.67798 -4.09019 0
M  V30 7753 N 765.656 0.84705 -1.32902 0
M  V30 7754 C 766.604 1.97765 -1.22441 0
M  V30 7755 C 767.598 1.68919 -0.127546 0
M  V30 7756 O 768.804 1.77633 -0.290973 0
M  V30 7757 H 765.179 0.649072 -0.379748 0
M  V30 7758 H 767.15 2.03713 -2.18044 0
M  V30 7759 C 765.899 3.33834 -0.972125 0
M  V30 7760 H 765.222 3.56564 -1.80837 0
M  V30 7761 H 766.662 4.13467 -0.939209 0
M  V30 7762 C 765.121 3.35328 0.325059 0
M  V30 7763 O 765.651 3.78887 1.33445 0
M  V30 7764 N 763.857 2.88488 0.349718 0
M  V30 7765 H 763.404 2.53234 -0.472236 0
M  V30 7766 H 763.362 2.8987 1.21748 0
M  V30 7767 N 767.134 1.16236 1.06428 0
M  V30 7768 C 768.383 0.937523 1.78587 0
M  V30 7769 C 768.696 -0.536 1.88113 0
M  V30 7770 O 769.902 -0.878697 2.56887 0
M  V30 7771 C 768.358 1.62808 3.2097 0
M  V30 7772 C 767.966 3.13927 3.19615 0
M  V30 7773 C 769.71 1.48515 3.97673 0
M  V30 7774 C 767.617 3.75727 4.56709 0
M  V30 7775 H 766.547 0.347125 0.669343 0
M  V30 7776 H 769.198 1.39353 1.19385 0
M  V30 7777 H 767.58 1.09977 3.80422 0
M  V30 7778 H 768.754 3.7359 2.69753 0
M  V30 7779 H 767.069 3.28089 2.56411 0
M  V30 7780 H 769.666 1.92069 4.99013 0
M  V30 7781 H 770.009 0.433913 4.14032 0
M  V30 7782 H 770.542 1.98494 3.44739 0
M  V30 7783 H 767.281 4.80793 4.45554 0
M  V30 7784 H 766.801 3.20849 5.0677 0
M  V30 7785 H 768.48 3.77203 5.25668 0
M  V30 7786 N 768.612 -1.24939 0.960631 0
M  V30 7787 C 769.859 -1.92818 0.618663 0
M  V30 7788 C 770.187 -1.75177 -0.845173 0
M  V30 7789 O 769.442 -1.09412 -1.62258 0
M  V30 7790 C 769.741 -3.45066 0.930809 0
M  V30 7791 C 769.407 -3.82869 2.38164 0
M  V30 7792 C 768.069 -3.92899 2.7782 0
M  V30 7793 C 770.421 -4.01483 3.32356 0
M  V30 7794 C 767.749 -4.18955 4.10723 0
M  V30 7795 C 770.101 -4.29033 4.6488 0
M  V30 7796 C 768.765 -4.37282 5.04322 0
M  V30 7797 H 768.035 -0.705571 0.226385 0
M  V30 7798 H 770.682 -1.48365 1.21079 0
M  V30 7799 H 768.987 -3.9096 0.256355 0
M  V30 7800 H 770.684 -3.95783 0.644712 0
M  V30 7801 H 767.274 -3.75622 2.06413 0
M  V30 7802 H 771.458 -3.93143 3.02907 0
M  V30 7803 H 766.714 -4.23558 4.40918 0
M  V30 7804 H 770.888 -4.42381 5.3784 0
M  V30 7805 H 768.515 -4.57225 6.0733 0
M  V30 7806 N 770.09 -0.729906 -1.39679 0
M  V30 7807 C 771.367 -0.202149 -1.94553 0
M  V30 7808 C 771.747 1.29507 -1.66707 0
M  V30 7809 O 771.095 2.05819 -0.992517 0
M  V30 7810 C 771.305 -0.530279 -3.44948 0
M  V30 7811 C 772.653 -0.476808 -4.21914 0
M  V30 7812 O 773.677 -0.467171 -3.53123 0
M  V30 7813 O 772.536 -0.466869 -5.44502 0
M  V30 7814 H 769.63 -0.0351644 -0.826252 0
M  V30 7815 H 772.176 -0.808417 -1.49207 0
M  V30 7816 H 770.948 -1.56526 -3.5863 0
M  V30 7817 H 770.571 0.10522 -3.97461 0
M  V30 7818 N 771.568 1.50203 -0.477153 0
M  V30 7819 C 772.531 2.27194 0.302599 0
M  V30 7820 C 773.531 1.32221 0.915112 0
M  V30 7821 O 774.721 1.55593 0.783348 0
M  V30 7822 C 771.853 3.0938 1.43167 0
M  V30 7823 H 773.046 2.97575 -0.372678 0
M  V30 7824 H 770.599 1.54578 -0.231392 0
M  V30 7825 H 771.334 2.43509 2.14182 0
M  V30 7826 H 771.119 3.79181 0.998197 0
M  V30 7827 H 772.609 3.67592 1.98157 0
M  V30 7828 N 773.046 0.209999 1.56195 0
M  V30 7829 C 774.295 -0.425106 1.97169 0
M  V30 7830 C 774.608 -1.61718 1.10031 0
M  V30 7831 O 775.814 -2.32105 1.40853 0
M  V30 7832 C 774.27 -0.80771 3.50719 0
M  V30 7833 C 773.878 0.360902 4.46544 0
M  V30 7834 C 775.622 -1.40906 4.00432 0
M  V30 7835 C 773.529 -0.0434919 5.91384 0
M  V30 7836 H 772.459 -0.162598 0.736259 0
M  V30 7837 H 775.11 0.304382 1.80958 0
M  V30 7838 H 773.492 -1.59429 3.62489 0
M  V30 7839 H 774.666 1.13846 4.46515 0
M  V30 7840 H 772.981 0.874729 4.07109 0
M  V30 7841 H 775.578 -1.72433 5.06133 0
M  V30 7842 H 775.921 -2.32081 3.45607 0
M  V30 7843 H 776.454 -0.686154 3.91838 0
M  V30 7844 H 773.193 0.834448 6.50167 0
M  V30 7845 H 772.713 -0.785598 5.94633 0
M  V30 7846 H 774.392 -0.474176 6.4526 0
M  V30 7847 N 774.524 -1.57472 -0.0634922 0
M  V30 7848 C 775.487 -2.03268 -1.059 0
M  V30 7849 C 776.487 -0.931028 -1.31105 0
M  V30 7850 O 777.677 -1.19567 -1.26686 0
M  V30 7851 C 774.809 -2.42039 -2.40062 0
M  V30 7852 H 776.002 -2.92454 -0.664119 0
M  V30 7853 H 773.555 -1.53206 -0.309444 0
M  V30 7854 H 774.29 -1.55904 -2.84367 0
M  V30 7855 H 774.075 -3.22437 -2.23108 0
M  V30 7856 H 775.565 -2.78017 -3.11603 0
M  V30 7857 N 776.003 0.335068 -1.53997 0
M  V30 7858 C 776.913 1.43511 -1.85585 0
M  V30 7859 C 777.929 1.57162 -0.746726 0
M  V30 7860 O 779.105 1.72477 -1.03988 0
M  V30 7861 C 776.17 2.78386 -2.06646 0
M  V30 7862 C 775.231 2.74007 -3.30483 0
M  V30 7863 C 774.464 4.02449 -3.50529 0
M  V30 7864 O 774.687 5.00147 -2.74242 0
M  V30 7865 O 773.621 4.06405 -4.4398 0
M  V30 7866 H 777.447 1.19731 -2.79102 0
M  V30 7867 H 775.032 0.528033 -1.39758 0
M  V30 7868 H 776.914 3.58247 -2.21894 0
M  V30 7869 H 775.589 3.0208 -1.16317 0
M  V30 7870 H 774.496 1.92736 -3.2063 0
M  V30 7871 H 775.829 2.55267 -4.20832 0
M  V30 7872 N 777.481 1.45874 0.596531 0
M  V30 7873 C 778.73 1.49737 1.35135 0
M  V30 7874 C 779.043 0.147755 1.95041 0
M  V30 7875 O 780.249 0.0640984 2.71424 0
M  V30 7876 C 778.705 2.6378 2.44843 0
M  V30 7877 C 778.313 4.05102 1.91301 0
M  V30 7878 C 780.057 2.769 3.21755 0
M  V30 7879 C 777.964 5.10508 2.98557 0
M  V30 7880 H 776.894 0.557219 0.507959 0
M  V30 7881 H 779.545 1.72046 0.638147 0
M  V30 7882 H 777.927 2.34774 3.189 0
M  V30 7883 H 779.101 4.43836 1.2388 0
M  V30 7884 H 777.416 3.96528 1.271 0
M  V30 7885 H 780.013 3.52819 4.01775 0
M  V30 7886 H 780.356 1.83924 3.73467 0
M  V30 7887 H 780.889 3.05485 2.54802 0
M  V30 7888 H 777.628 6.0523 2.51749 0
M  V30 7889 H 777.148 4.76332 3.6451 0
M  V30 7890 H 778.827 5.35745 3.62748 0
M  V30 7891 N 778.959 -0.83999 1.33349 0
M  V30 7892 C 780.207 -1.59202 1.24496 0
M  V30 7893 C 780.528 -1.94077 -0.189499 0
M  V30 7894 O 779.798 -1.60868 -1.11796 0
M  V30 7895 H 778.378 -0.590276 0.457802 0
M  V30 7896 H 781.04 -1.00394 1.67054 0
M  V30 7897 H 780.136 -2.52247 1.83788 0
M  V30 7898 N 780.437 -1.16799 -1.0581 0
M  V30 7899 C 781.385 -0.875111 -2.1551 0
M  V30 7900 C 782.379 0.157781 -1.68664 0
M  V30 7901 O 783.585 0.011297 -1.79996 0
M  V30 7902 H 779.96 -0.26542 -0.703602 0
M  V30 7903 H 781.931 -1.8076 -2.37421 0
M  V30 7904 C 780.68 -0.39802 -3.45414 0
M  V30 7905 H 780.003 -1.18425 -3.81858 0
M  V30 7906 H 781.443 -0.231913 -4.23365 0
M  V30 7907 C 779.902 0.88327 -3.25115 0
M  V30 7908 O 780.432 1.95145 -3.51114 0
M  V30 7909 N 778.638 0.828961 -2.78526 0
M  V30 7910 H 778.185 -0.0405029 -2.57568 0
M  V30 7911 H 778.143 1.68673 -2.65324 0
M  V30 7912 N 781.915 1.24427 -0.967243 0
M  V30 7913 C 782.847 2.24641 -0.454856 0
M  V30 7914 C 783.86 1.56849 0.436152 0
M  V30 7915 O 785.049 1.76846 0.242401 0
M  V30 7916 C 782.149 3.36954 0.362672 0
M  V30 7917 C 781.322 4.34318 -0.518324 0
M  V30 7918 C 780.381 5.25638 0.243122 0
M  V30 7919 O 779.407 5.68043 -0.362791 0
M  V30 7920 N 780.609 5.59897 1.53282 0
M  V30 7921 H 783.374 2.69238 -1.31648 0
M  V30 7922 H 780.935 1.38464 -0.839015 0
M  V30 7923 H 782.927 3.95014 0.880094 0
M  V30 7924 H 781.497 2.91646 1.12522 0
M  V30 7925 H 780.717 3.74953 -1.21672 0
M  V30 7926 H 782.005 4.96338 -1.11919 0
M  V30 7927 H 781.403 5.27373 2.04682 0
M  V30 7928 H 779.96 6.20488 1.99594 0
M  V30 7929 N 783.393 0.737304 1.3929 0
M  V30 7930 C 784.323 0.113988 2.33222 0
M  V30 7931 C 785.304 -0.721695 1.54031 0
M  V30 7932 O 786.489 -0.666206 1.82415 0
M  V30 7933 C 783.619 -0.792319 3.38141 0
M  V30 7934 C 782.573 -0.0606178 4.27957 0
M  V30 7935 C 781.899 -1.08409 5.23595 0
M  V30 7936 C 783.199 1.09817 5.10625 0
M  V30 7937 H 784.893 0.898611 2.85596 0
M  V30 7938 H 782.439 0.433571 1.37318 0
M  V30 7939 H 784.392 -1.23793 4.02807 0
M  V30 7940 H 783.116 -1.60908 2.84211 0
M  V30 7941 H 781.775 0.365393 3.64775 0
M  V30 7942 H 781.423 -1.89449 4.6596 0
M  V30 7943 H 781.123 -0.599269 5.84536 0
M  V30 7944 H 782.647 -1.52936 5.91137 0
M  V30 7945 H 784.061 0.730892 5.68622 0
M  V30 7946 H 782.458 1.51278 5.80719 0
M  V30 7947 H 783.528 1.91878 4.45321 0
M  V30 7948 N 784.871 -1.49948 0.485112 0
M  V30 7949 C 786.101 -2.06506 -0.0621921 0
M  V30 7950 C 786.509 -1.34756 -1.32806 0
M  V30 7951 O 785.852 -0.41466 -1.78959 0
M  V30 7952 C 785.914 -3.57243 -0.402182 0
M  V30 7953 C 785.578 -4.50574 0.763671 0
M  V30 7954 C 786.575 -4.93032 1.6497 0
M  V30 7955 C 784.26 -4.9308 0.957973 0
M  V30 7956 C 786.254 -5.76718 2.71432 0
M  V30 7957 C 783.941 -5.76546 2.0258 0
M  V30 7958 C 784.939 -6.18267 2.90232 0
M  V30 7959 O 784.627 -7.00066 3.95174 0
M  V30 7960 H 784.359 -0.675925 0.0100672 0
M  V30 7961 H 786.913 -1.93922 0.677023 0
M  V30 7962 H 785.143 -3.6778 -1.19478 0
M  V30 7963 H 786.832 -3.96107 -0.886219 0
M  V30 7964 H 787.598 -4.60851 1.51134 0
M  V30 7965 H 783.477 -4.60117 0.285144 0
M  V30 7966 H 787.021 -6.09203 3.39878 0
M  V30 7967 H 782.918 -6.0814 2.16417 0
M  V30 7968 H 783.686 -7.18343 3.92333 0
M  V30 7969 N 786.349 -0.21828 -1.56081 0
M  V30 7970 C 787.279 0.687922 -2.23136 0
M  V30 7971 C 788.26 1.20357 -1.202 0
M  V30 7972 O 789.445 1.24817 -1.48776 0
M  V30 7973 C 786.575 1.89762 -2.90874 0
M  V30 7974 C 785.529 1.51595 -4.00254 0
M  V30 7975 C 784.855 2.80415 -4.55271 0
M  V30 7976 C 786.155 0.708404 -5.17474 0
M  V30 7977 H 787.849 0.128854 -2.99123 0
M  V30 7978 H 785.395 0.0605354 -1.43873 0
M  V30 7979 H 787.348 2.53699 -3.36474 0
M  V30 7980 H 786.072 2.4816 -2.1233 0
M  V30 7981 H 784.731 0.900058 -3.55379 0
M  V30 7982 H 784.379 3.36951 -3.73461 0
M  V30 7983 H 784.079 2.55613 -5.2909 0
M  V30 7984 H 785.603 3.453 -5.03587 0
M  V30 7985 H 787.017 1.2514 -5.59476 0
M  V30 7986 H 785.414 0.557593 -5.97504 0
M  V30 7987 H 786.484 -0.285679 -4.84058 0
M  V30 7988 N 787.827 1.57504 0.0551401 0
M  V30 7989 C 789.074 1.88055 0.751104 0
M  V30 7990 C 789.402 0.812231 1.76729 0
M  V30 7991 O 788.657 -0.189918 1.94776 0
M  V30 7992 C 788.956 3.25311 1.48013 0
M  V30 7993 C 788.622 4.46858 0.602375 0
M  V30 7994 C 787.284 4.79847 0.360536 0
M  V30 7995 C 789.636 5.212 -0.00524047 0
M  V30 7996 C 786.964 5.84582 -0.498127 0
M  V30 7997 C 789.316 6.26844 -0.851453 0
M  V30 7998 C 787.98 6.58324 -1.103 0
M  V30 7999 H 787.25 0.688142 0.274848 0
M  V30 8000 H 789.897 1.91497 0.0114795 0
M  V30 8001 H 788.202 3.17737 2.29239 0
M  V30 8002 H 789.899 3.46189 2.02371 0
M  V30 8003 H 786.489 4.21049 0.801007 0
M  V30 8004 H 790.673 4.96013 0.168682 0
M  V30 8005 H 785.929 6.07361 -0.701594 0
M  V30 8006 H 790.103 6.83603 -1.32893 0
M  V30 8007 H 787.73 7.39304 -1.77011 0
M  V30 8008 N 789.305 -0.326896 1.54172 0
M  V30 8009 C 790.252 -1.40216 1.83325 0
M  V30 8010 C 791.222 -1.51538 0.680107 0
M  V30 8011 O 792.407 -1.66811 0.926206 0
M  V30 8012 C 789.547 -2.76626 2.0633 0
M  V30 8013 C 788.66 -2.73963 3.34019 0
M  V30 8014 C 787.795 -4.02198 3.47002 0
M  V30 8015 C 786.834 -3.93828 4.68578 0
M  V30 8016 N 785.971 -5.13787 4.78506 0
M  V30 8017 H 790.811 -1.14656 2.7506 0
M  V30 8018 H 788.348 -0.555089 1.36225 0
M  V30 8019 H 790.306 -3.55922 2.17659 0
M  V30 8020 H 788.936 -3.00503 1.1789 0
M  V30 8021 H 787.988 -1.86677 3.31445 0
M  V30 8022 H 789.3 -2.6366 4.2342 0
M  V30 8023 H 788.454 -4.89923 3.57855 0
M  V30 8024 H 787.193 -4.15302 2.55687 0
M  V30 8025 H 786.198 -3.04487 4.57786 0
M  V30 8026 H 787.423 -3.82292 5.61275 0
M  V30 8027 H 785.369 -5.27403 3.90105 0
M  V30 8028 H 785.286 -5.05807 5.61868 0
M  V30 8029 H 786.554 -6.03236 4.93686 0
M  V30 8030 N 790.784 -1.46188 -0.588786 0
M  V30 8031 C 792.061 -1.41659 -1.34878 0
M  V30 8032 C 792.441 -0.0968913 -2.10878 0
M  V30 8033 O 791.789 0.921468 -2.09096 0
M  V30 8034 C 791.999 -2.6424 -2.27988 0
M  V30 8035 C 793.347 -3.1013 -2.90008 0
M  V30 8036 O 794.371 -2.64745 -2.38303 0
M  V30 8037 O 793.23 -3.88944 -3.83908 0
M  V30 8038 H 790.324 -0.563058 -0.605718 0
M  V30 8039 H 792.87 -1.58346 -0.610309 0
M  V30 8040 H 791.642 -3.51853 -1.71217 0
M  V30 8041 H 791.265 -2.49982 -3.09184 0
M  V30 8042 N 792.262 0.832906 -1.33792 0
M  V30 8043 C 793.51 1.58539 -1.25338 0
M  V30 8044 C 793.831 1.94175 0.179204 0
M  V30 8045 O 793.101 1.61458 1.10941 0
M  V30 8046 H 791.681 0.58784 -0.460926 0
M  V30 8047 H 794.343 0.995064 -1.67584 0
M  V30 8048 H 793.439 2.51268 -1.85123 0
M  V30 8049 N 793.74 1.17359 1.05189 0
M  V30 8050 C 794.687 0.890325 2.12936 0
M  V30 8051 C 795.657 -0.165779 1.65271 0
M  V30 8052 O 796.842 -0.0285672 1.90779 0
M  V30 8053 C 793.982 0.409793 3.42658 0
M  V30 8054 C 793.095 1.53002 4.03998 0
M  V30 8055 C 792.23 1.00336 5.21638 0
M  V30 8056 C 791.269 2.09903 5.74984 0
M  V30 8057 N 790.406 1.58714 6.83926 0
M  V30 8058 H 795.246 1.81299 2.36505 0
M  V30 8059 H 792.783 0.904249 1.16025 0
M  V30 8060 H 794.741 0.112743 4.17048 0
M  V30 8061 H 793.371 -0.475915 3.19272 0
M  V30 8062 H 792.423 1.9428 3.27047 0
M  V30 8063 H 793.735 2.3564 4.39631 0
M  V30 8064 H 792.889 0.660158 6.03098 0
M  V30 8065 H 791.628 0.14642 4.8748 0
M  V30 8066 H 790.633 2.45081 4.92154 0
M  V30 8067 H 791.858 2.96013 6.1119 0
M  V30 8068 H 789.804 0.752915 6.51665 0
M  V30 8069 H 789.721 2.34959 7.18561 0
M  V30 8070 H 790.989 1.27287 7.69037 0
M  V30 8071 N 795.218 -1.23913 0.973828 0
M  V30 8072 C 796.448 -1.95911 0.655938 0
M  V30 8073 C 796.856 -1.72375 -0.779967 0
M  V30 8074 O 796.199 -1.00807 -1.5357 0
M  V30 8075 C 796.261 -3.49103 0.858324 0
M  V30 8076 C 795.925 -3.96347 2.27504 0
M  V30 8077 C 796.922 -4.05537 3.25324 0
M  V30 8078 C 794.607 -4.29509 2.60437 0
M  V30 8079 C 796.601 -4.47233 4.5416 0
M  V30 8080 C 794.288 -4.70887 3.89498 0
M  V30 8081 C 795.286 -4.79714 4.86172 0
M  V30 8082 O 794.974 -5.20166 6.1293 0
M  V30 8083 H 794.706 -0.630721 0.243244 0
M  V30 8084 H 797.26 -1.58534 1.30599 0
M  V30 8085 H 795.49 -3.86405 0.151097 0
M  V30 8086 H 797.179 -4.02311 0.538592 0
M  V30 8087 H 797.945 -3.80128 3.0121 0
M  V30 8088 H 793.824 -4.21853 1.85906 0
M  V30 8089 H 797.368 -4.54038 5.29618 0
M  V30 8090 H 793.265 -4.95744 4.1341 0
M  V30 8091 H 794.033 -5.38298 6.16586 0
M  V30 8092 N 796.696 -0.74468 -1.38897 0
M  V30 8093 C 797.942 -0.306249 -2.01081 0
M  V30 8094 C 798.297 1.09724 -1.58046 0
M  V30 8095 O 797.59 1.73923 -0.803834 0
M  V30 8096 C 797.784 -0.357302 -3.55609 0
M  V30 8097 C 797.613 -1.76421 -4.13649 0
M  V30 8098 C 796.383 -2.3787 -4.4581 0
M  V30 8099 C 798.581 -2.71942 -4.36523 0
M  V30 8100 N 796.563 -3.70614 -4.89406 0
M  V30 8101 C 797.934 -3.89437 -4.8243 0
M  V30 8102 C 799.989 -2.69579 -4.18607 0
M  V30 8103 C 798.692 -5.04917 -5.123 0
M  V30 8104 C 800.718 -3.8421 -4.49596 0
M  V30 8105 C 800.08 -5.00442 -4.95719 0
M  V30 8106 H 796.179 -0.158531 -0.765762 0
M  V30 8107 H 798.763 -0.972726 -1.6866 0
M  V30 8108 H 796.934 0.278865 -3.87398 0
M  V30 8109 H 798.666 0.100599 -4.04575 0
M  V30 8110 H 795.421 -1.8971 -4.33943 0
M  V30 8111 H 795.845 -4.38791 -5.1555 0
M  V30 8112 H 800.487 -1.80905 -3.82143 0
M  V30 8113 H 798.205 -5.94213 -5.47665 0
M  V30 8114 H 801.791 -3.83691 -4.37347 0
M  V30 8115 H 800.671 -5.87671 -5.19242 0
M  V30 8116 N 798.174 1.49689 -0.493057 0
M  V30 8117 C 799.59 1.58907 -0.148526 0
M  V30 8118 C 799.79 1.4991 1.34645 0
M  V30 8119 O 798.846 1.36893 2.12171 0
M  V30 8120 C 800.159 2.91996 -0.718265 0
M  V30 8121 C 801.707 3.05443 -0.683658 0
M  V30 8122 C 802.182 4.41138 -1.23132 0
M  V30 8123 N 803.673 4.47608 -1.19167 0
M  V30 8124 C 804.408 5.51038 -1.5857 0
M  V30 8125 N 803.904 6.61612 -2.05528 0
M  V30 8126 N 805.697 5.41706 -1.50036 0
M  V30 8127 H 797.848 1.5378 -1.46511 0
M  V30 8128 H 800.111 0.727996 -0.607228 0
M  V30 8129 H 799.817 3.04123 -1.7664 0
M  V30 8130 H 799.691 3.76798 -0.17419 0
M  V30 8131 H 802.078 2.92949 0.355626 0
M  V30 8132 H 802.159 2.22344 -1.26479 0
M  V30 8133 H 801.803 4.54382 -2.26935 0
M  V30 8134 H 801.733 5.22864 -0.626201 0
M  V30 8135 H 804.224 3.68274 -0.847524 0
M  V30 8136 H 804.537 7.36622 -2.33685 0
M  V30 8137 H 802.882 6.62674 -2.09497 0
M  V30 8138 H 806.073 4.54212 -1.13176 0
M  V30 8139 H 806.246 6.22188 -1.81068 0
M  V30 8140 N 799.652 0.226554 1.55963 0
M  V30 8141 C 800.899 -0.403789 1.98433 0
M  V30 8142 C 801.227 -1.59416 1.1143 0
M  V30 8143 O 800.482 -1.95042 0.160389 0
M  V30 8144 C 800.781 -0.87642 3.46488 0
M  V30 8145 C 800.447 0.203973 4.50438 0
M  V30 8146 C 799.109 0.500754 4.78587 0
M  V30 8147 C 801.461 0.934396 5.12756 0
M  V30 8148 C 798.789 1.53239 5.66334 0
M  V30 8149 C 801.141 1.9554 6.0162 0
M  V30 8150 C 799.805 2.25905 6.28111 0
M  V30 8151 H 799.075 -0.147757 0.726119 0
M  V30 8152 H 801.722 0.330121 1.88633 0
M  V30 8153 H 800.027 -1.68918 3.53517 0
M  V30 8154 H 801.724 -1.37407 3.76723 0
M  V30 8155 H 798.314 -0.0374917 4.28584 0
M  V30 8156 H 802.498 0.718355 4.91074 0
M  V30 8157 H 797.754 1.77321 5.85122 0
M  V30 8158 H 801.928 2.52642 6.48957 0
M  V30 8159 H 799.555 3.05985 6.959 0
M  V30 8160 N 801.13 -1.57531 -0.0467866 0
M  V30 8161 C 802.355 -1.93087 -0.757123 0
M  V30 8162 C 802.78 -0.825116 -1.69037 0
M  V30 8163 O 802.138 0.220449 -1.79955 0
M  V30 8164 C 802.186 -3.27669 -1.5055 0
M  V30 8165 O 801.29 -3.18667 -2.61773 0
M  V30 8166 H 800.631 -0.631597 -0.204892 0
M  V30 8167 H 803.161 -2.04599 -0.00755232 0
M  V30 8168 H 803.171 -3.6214 -1.87932 0
M  V30 8169 H 801.846 -4.07717 -0.820931 0
M  V30 8170 H 800.423 -2.95798 -2.27064 0
M  V30 8171 N 802.608 0.318715 -1.54344 0
M  V30 8172 C 803.518 1.41535 -1.87097 0
M  V30 8173 C 804.534 1.56361 -0.763353 0
M  V30 8174 O 805.71 1.71365 -1.05811 0
M  V30 8175 C 802.775 2.76178 -2.09587 0
M  V30 8176 C 801.836 2.70486 -3.3337 0
M  V30 8177 C 801.069 3.98708 -3.54778 0
M  V30 8178 O 801.292 4.9721 -2.79532 0
M  V30 8179 O 800.226 4.01674 -4.48266 0
M  V30 8180 H 804.052 1.16764 -2.80357 0
M  V30 8181 H 801.637 0.51318 -1.4031 0
M  V30 8182 H 803.519 3.55873 -2.25682 0
M  V30 8183 H 802.194 3.00829 -1.19514 0
M  V30 8184 H 801.101 1.89325 -3.22656 0
M  V30 8185 H 802.434 2.50789 -4.23516 0
M  V30 8186 N 804.086 1.46499 0.581025 0
M  V30 8187 C 805.334 1.51596 1.33653 0
M  V30 8188 C 805.655 0.169859 1.94259 0
M  V30 8189 O 804.925 -0.803776 1.78651 0
M  V30 8190 H 803.505 0.558346 0.496244 0
M  V30 8191 H 806.167 1.8264 0.680338 0
M  V30 8192 H 805.263 2.26956 2.14237 0
M  V30 8193 N 805.565 -0.825799 1.34232 0
M  V30 8194 C 806.981 -1.11848 1.13851 0
M  V30 8195 C 807.181 -2.01405 -0.0619031 0
M  V30 8196 O 806.237 -2.41465 -0.738287 0
M  V30 8197 C 807.55 -1.76797 2.43235 0
M  V30 8198 C 809.098 -1.89304 2.49265 0
M  V30 8199 C 809.573 -2.57669 3.78643 0
M  V30 8200 N 811.064 -2.65171 3.79788 0
M  V30 8201 C 811.799 -3.1879 4.76614 0
M  V30 8202 N 811.295 -3.72995 5.83821 0
M  V30 8203 N 813.088 -3.17164 4.64073 0
M  V30 8204 H 805.239 -0.230049 2.11151 0
M  V30 8205 H 807.502 -0.164609 0.9336 0
M  V30 8206 H 807.208 -1.18455 3.31152 0
M  V30 8207 H 807.082 -2.76693 2.56361 0
M  V30 8208 H 809.469 -2.46796 1.6179 0
M  V30 8209 H 809.55 -0.883191 2.4007 0
M  V30 8210 H 809.194 -2.00833 4.66507 0
M  V30 8211 H 809.124 -3.59152 3.8512 0
M  V30 8212 H 811.615 -2.26746 3.02315 0
M  V30 8213 H 811.928 -4.12151 6.53721 0
M  V30 8214 H 810.273 -3.71246 5.87538 0
M  V30 8215 H 813.464 -2.74082 3.79469 0
M  V30 8216 H 813.637 -3.58647 5.397 0
M  V30 8217 N 807.043 -1.17915 -1.04565 0
M  V30 8218 C 808.291 -0.969505 -1.77327 0
M  V30 8219 C 808.612 0.502569 -1.88412 0
M  V30 8220 O 807.882 1.36467 -1.40547 0
M  V30 8221 H 806.462 -0.355723 -0.656864 0
M  V30 8222 H 809.124 -1.48506 -1.26223 0
M  V30 8223 H 808.22 -1.40324 -2.78775 0
M  V30 8224 N 808.521 1.23394 -0.980386 0
M  V30 8225 C 809.746 1.96384 -0.666935 0
M  V30 8226 C 810.171 1.72087 0.759456 0
M  V30 8227 O 809.529 0.992328 1.51732 0
M  V30 8228 C 809.577 3.47499 -0.963177 0
M  V30 8229 O 808.681 4.12363 -0.0552051 0
M  V30 8230 H 808.022 0.614797 -0.250839 0
M  V30 8231 H 810.552 1.56831 -1.31398 0
M  V30 8232 H 810.562 3.97953 -0.899877 0
M  V30 8233 H 809.237 3.6451 -2.00264 0
M  V30 8234 H 807.814 3.72499 -0.172914 0
M  V30 8235 N 809.999 0.752036 1.385 0
M  V30 8236 C 811.415 0.42946 1.53713 0
M  V30 8237 C 811.615 -1.0576 1.71514 0
M  V30 8238 O 810.671 -1.84366 1.72527 0
M  V30 8239 C 811.984 1.22735 2.74511 0
M  V30 8240 C 813.532 1.21727 2.8836 0
M  V30 8241 C 814.007 1.99809 4.12117 0
M  V30 8242 N 815.498 1.97062 4.19191 0
M  V30 8243 C 816.233 2.54274 5.13938 0
M  V30 8244 N 815.729 3.20193 6.14368 0
M  V30 8245 N 817.522 2.44212 5.06277 0
M  V30 8246 H 809.673 1.71581 1.25195 0
M  V30 8247 H 811.936 0.727293 0.60807 0
M  V30 8248 H 811.642 2.28032 2.67758 0
M  V30 8249 H 811.516 0.843186 3.67655 0
M  V30 8250 H 813.903 0.172367 2.94596 0
M  V30 8251 H 813.984 1.64094 1.96232 0
M  V30 8252 H 813.628 3.0431 4.06642 0
M  V30 8253 H 813.558 1.54837 5.03322 0
M  V30 8254 H 816.049 1.49054 3.47263 0
M  V30 8255 H 816.362 3.61272 6.83156 0
M  V30 8256 H 814.707 3.24287 6.14705 0
M  V30 8257 H 817.898 1.92343 4.26757 0
M  V30 8258 H 818.071 2.89096 5.79937 0
M  V30 8259 N 811.477 -1.49425 0.500989 0
M  V30 8260 C 812.888 -1.86624 0.0532011 0
M  V30 8261 C 813.239 -1.41331 -1.36088 0
M  V30 8262 O 812.364 -0.791195 -2.01418 0
M  V30 8263 C 812.959 -3.38681 0.0897693 0
M  V30 8264 C 811.518 -3.75181 -0.302677 0
M  V30 8265 C 810.665 -2.73419 0.462307 0
M  V30 8266 H 813.616 -1.41743 0.713773 0
M  V30 8267 H 813.637 -3.73902 -0.705528 0
M  V30 8268 H 813.149 -3.71616 1.11907 0
M  V30 8269 H 811.25 -3.47855 -1.33521 0
M  V30 8270 H 811.363 -4.79097 0.0167653 0
M  V30 8271 H 809.727 -2.54548 -0.0878557 0
M  V30 8272 H 810.51 -3.09198 1.49169 0
M  V30 8273 N 812.955 -0.234822 -1.55841 0
M  V30 8274 C 813.887 0.702346 -2.18174 0
M  V30 8275 C 814.9 1.14776 -1.15457 0
M  V30 8276 O 816.089 1.07662 -1.42377 0
M  V30 8277 C 813.189 1.96483 -2.76129 0
M  V30 8278 C 812.362 1.67283 -4.04148 0
M  V30 8279 C 811.421 2.7837 -4.46539 0
M  V30 8280 O 810.447 2.46272 -5.13166 0
M  V30 8281 N 811.649 4.07611 -4.1332 0
M  V30 8282 H 814.414 0.169074 -2.99223 0
M  V30 8283 H 811.975 -0.0543164 -1.61809 0
M  V30 8284 H 813.967 2.70016 -3.01452 0
M  V30 8285 H 812.537 2.40822 -1.99307 0
M  V30 8286 H 811.757 0.773278 -3.86541 0
M  V30 8287 H 813.045 1.45222 -4.87635 0
M  V30 8288 H 812.443 4.36527 -3.59806 0
M  V30 8289 H 811 4.77646 -4.43506 0
M  V30 8290 N 814.433 1.57553 0.0384317 0
M  V30 8291 C 815.681 1.88468 0.729672 0
M  V30 8292 C 816.002 0.831302 1.76393 0
M  V30 8293 O 815.272 -0.13622 1.95426 0
M  V30 8294 H 813.852 0.695529 0.272485 0
M  V30 8295 H 816.514 1.94899 0.0066032 0
M  V30 8296 H 815.61 2.8705 1.22511 0
M  V30 8297 N 815.911 -0.310526 1.54511 0
M  V30 8298 C 817.322 -0.884142 1.64438 0
M  V30 8299 C 817.673 -1.88425 0.546855 0
M  V30 8300 O 816.798 -2.14049 -0.31811 0
M  V30 8301 C 817.393 -1.6104 2.9808 0
M  V30 8302 C 815.952 -2.13255 3.1016 0
M  V30 8303 C 815.099 -0.96213 2.60074 0
M  V30 8304 H 818.05 -0.0877666 1.58457 0
M  V30 8305 H 818.071 -2.47541 2.8897 0
M  V30 8306 H 817.583 -0.882255 3.77939 0
M  V30 8307 H 815.684 -2.89145 2.35002 0
M  V30 8308 H 815.797 -2.37361 4.16169 0
M  V30 8309 H 814.161 -1.34501 2.16291 0
M  V30 8310 H 814.944 -0.248098 3.42402 0
M  V30 8311 N 817.389 -1.46805 -0.573248 0
M  V30 8312 C 818.636 -1.52604 -1.3311 0
M  V30 8313 C 818.964 -0.181633 -1.9365 0
M  V30 8314 O 818.219 0.823775 -1.77517 0
M  V30 8315 C 818.518 -2.58001 -2.47326 0
M  V30 8316 C 818.184 -4.01747 -2.04719 0
M  V30 8317 C 816.846 -4.40881 -1.92814 0
M  V30 8318 C 819.198 -4.92008 -1.71982 0
M  V30 8319 C 816.526 -5.68129 -1.46445 0
M  V30 8320 C 818.878 -6.19703 -1.27089 0
M  V30 8321 C 817.542 -6.57733 -1.13768 0
M  V30 8322 H 816.812 -0.558417 -0.487084 0
M  V30 8323 H 819.459 -1.80327 -0.644538 0
M  V30 8324 H 817.764 -2.23974 -3.2147 0
M  V30 8325 H 819.461 -2.59715 -3.05531 0
M  V30 8326 H 816.051 -3.70819 -2.14922 0
M  V30 8327 H 820.235 -4.62485 -1.8006 0
M  V30 8328 H 815.491 -5.96359 -1.34783 0
M  V30 8329 H 819.665 -6.89064 -1.00814 0
M  V30 8330 H 817.292 -7.56228 -0.776142 0
M  V30 8331 N 818.867 0.818669 -1.34668 0
M  V30 8332 C 819.797 1.94468 -1.29245 0
M  V30 8333 C 820.778 1.69257 -0.169101 0
M  V30 8334 O 821.963 1.90794 -0.362143 0
M  V30 8335 C 819.093 3.31001 -1.05145 0
M  V30 8336 C 818.047 3.70663 -2.13992 0
M  V30 8337 C 817.373 5.05226 -1.75074 0
M  V30 8338 C 818.673 3.82312 -3.55858 0
M  V30 8339 H 820.367 1.99263 -2.2346 0
M  V30 8340 H 817.913 0.957304 -1.07572 0
M  V30 8341 H 819.866 4.09364 -0.999949 0
M  V30 8342 H 818.59 3.26517 -0.0737312 0
M  V30 8343 H 817.249 2.94578 -2.18219 0
M  V30 8344 H 816.897 4.97233 -0.759518 0
M  V30 8345 H 816.597 5.32734 -2.47928 0
M  V30 8346 H 818.121 5.86042 -1.71427 0
M  V30 8347 H 819.535 4.50935 -3.5402 0
M  V30 8348 H 817.932 4.21278 -4.2737 0
M  V30 8349 H 819.002 2.84193 -3.9289 0
M  V30 8350 N 820.346 1.18468 1.03938 0
M  V30 8351 C 821.595 0.975193 1.76558 0
M  V30 8352 C 821.908 -0.495978 1.89207 0
M  V30 8353 O 823.114 -0.824009 2.58694 0
M  V30 8354 C 821.57 1.69579 3.17444 0
M  V30 8355 C 821.178 3.20636 3.12884 0
M  V30 8356 C 822.922 1.56917 3.94433 0
M  V30 8357 C 820.829 3.8533 4.48636 0
M  V30 8358 H 819.759 0.361244 0.66183 0
M  V30 8359 H 822.41 1.41854 1.16403 0
M  V30 8360 H 820.792 1.18022 3.78004 0
M  V30 8361 H 821.966 3.79228 2.61768 0
M  V30 8362 H 820.281 3.33454 2.49394 0
M  V30 8363 H 822.878 2.02611 4.94826 0
M  V30 8364 H 823.221 0.521638 4.13019 0
M  V30 8365 H 823.754 2.05762 3.40451 0
M  V30 8366 H 820.493 4.90136 4.35255 0
M  V30 8367 H 820.013 3.31526 4.99851 0
M  V30 8368 H 821.692 3.88269 5.17549 0
M  V30 8369 N 821.824 -1.22873 0.986916 0
M  V30 8370 C 822.787 -2.2281 0.537442 0
M  V30 8371 C 823.787 -1.56331 -0.37646 0
M  V30 8372 O 824.977 -1.73376 -0.169247 0
M  V30 8373 C 822.109 -3.40195 -0.219082 0
M  V30 8374 H 823.302 -2.64089 1.42116 0
M  V30 8375 H 820.855 -1.35819 0.773488 0
M  V30 8376 H 821.59 -3.04381 -1.11905 0
M  V30 8377 H 821.375 -3.89657 0.437026 0
M  V30 8378 H 822.865 -4.14326 -0.521926 0
M  V30 8379 N 823.302 -0.75937 -1.38099 0
M  V30 8380 C 824.579 -0.243371 -1.9408 0
M  V30 8381 C 824.959 1.25942 -1.69416 0
M  V30 8382 O 824.307 2.03667 -1.03595 0
M  V30 8383 C 824.517 -0.603328 -3.43745 0
M  V30 8384 C 825.865 -0.566195 -4.20808 0
M  V30 8385 O 826.889 -0.541969 -3.52053 0
M  V30 8386 O 825.748 -0.582261 -5.43389 0
M  V30 8387 H 822.842 -0.0526825 -0.82532 0
M  V30 8388 H 825.388 -0.839884 -1.47459 0
M  V30 8389 H 824.16 -1.64098 -3.55229 0
M  V30 8390 H 823.783 0.0208887 -3.97595 0
M  V30 8391 N 824.78 1.49157 -0.508906 0
M  V30 8392 C 825.727 2.2927 0.265288 0
M  V30 8393 C 826.697 1.3603 0.953162 0
M  V30 8394 O 827.882 1.64989 0.958291 0
M  V30 8395 C 825.022 3.18897 1.31904 0
M  V30 8396 C 824.135 4.27201 0.642144 0
M  V30 8397 C 823.27 5.04033 1.67701 0
M  V30 8398 C 822.309 6.04165 0.982422 0
M  V30 8399 N 821.446 6.74133 1.96186 0
M  V30 8400 H 826.286 2.94967 -0.424107 0
M  V30 8401 H 823.823 1.45431 -0.220991 0
M  V30 8402 H 825.781 3.69242 1.94206 0
M  V30 8403 H 824.411 2.55168 1.97709 0
M  V30 8404 H 823.463 3.80283 -0.0943395 0
M  V30 8405 H 824.775 4.98708 0.0957507 0
M  V30 8406 H 823.929 5.58287 2.37487 0
M  V30 8407 H 822.668 4.32317 2.25728 0
M  V30 8408 H 821.673 5.49135 0.270378 0
M  V30 8409 H 822.898 6.7787 0.408554 0
M  V30 8410 H 820.844 6.05183 2.53159 0
M  V30 8411 H 820.761 7.41643 1.46634 0
M  V30 8412 H 822.029 7.32987 2.65236 0
M  V30 8413 N 826.258 0.243083 1.55714 0
M  V30 8414 C 827.504 -0.376428 1.99886 0
M  V30 8415 C 827.859 -1.55843 1.12831 0
M  V30 8416 O 827.152 -1.90724 0.182996 0
M  V30 8417 C 827.346 -0.839621 3.47398 0
M  V30 8418 C 827.175 0.295954 4.48725 0
M  V30 8419 C 825.945 0.769392 4.99408 0
M  V30 8420 C 828.143 1.12165 5.0192 0
M  V30 8421 N 826.125 1.87778 5.84477 0
M  V30 8422 C 827.496 2.07848 5.84123 0
M  V30 8423 C 829.551 1.15864 4.84231 0
M  V30 8424 C 828.254 3.06937 6.50524 0
M  V30 8425 C 830.28 2.13782 5.51409 0
M  V30 8426 C 829.642 3.08202 6.33396 0
M  V30 8427 H 825.741 -0.103809 0.775079 0
M  V30 8428 H 828.325 0.359788 1.91347 0
M  V30 8429 H 826.496 -1.54514 3.56343 0
M  V30 8430 H 828.228 -1.43376 3.78451 0
M  V30 8431 H 824.983 0.354201 4.72274 0
M  V30 8432 H 825.407 2.43462 6.31708 0
M  V30 8433 H 830.049 0.442532 4.20478 0
M  V30 8434 H 827.767 3.79499 7.13447 0
M  V30 8435 H 831.353 2.17345 5.39678 0
M  V30 8436 H 830.233 3.82732 6.8446 0
M  V30 8437 N 827.736 -1.57571 -0.0300757 0
M  V30 8438 C 829.147 -1.77567 -0.576802 0
M  V30 8439 C 829.498 -0.874034 -1.75656 0
M  V30 8440 O 828.623 -0.0686124 -2.16291 0
M  V30 8441 C 829.218 -3.22016 -1.05315 0
M  V30 8442 C 827.777 -3.43212 -1.5454 0
M  V30 8443 C 826.924 -2.73061 -0.483033 0
M  V30 8444 H 829.875 -1.57483 0.196151 0
M  V30 8445 H 829.896 -3.28474 -1.92055 0
M  V30 8446 H 829.408 -3.87613 -0.194298 0
M  V30 8447 H 827.509 -2.82788 -2.42615 0
M  V30 8448 H 827.622 -4.5182 -1.5936 0
M  V30 8449 H 825.986 -2.36805 -0.937835 0
M  V30 8450 H 826.769 -3.4134 0.366341 0
M  V30 8451 N 829.214 0.302327 -1.54673 0
M  V30 8452 C 830.177 1.35592 -1.8479 0
M  V30 8453 C 831.177 1.43743 -0.72073 0
M  V30 8454 O 832.367 1.43402 -0.989017 0
M  V30 8455 C 829.499 2.74091 -2.02699 0
M  V30 8456 H 830.692 1.10132 -2.78946 0
M  V30 8457 H 828.245 0.538926 -1.46715 0
M  V30 8458 H 828.98 3.04775 -1.10826 0
M  V30 8459 H 828.765 2.69565 -2.8474 0
M  V30 8460 H 830.255 3.50272 -2.27374 0
M  V30 8461 N 830.692 1.47107 0.565454 0
M  V30 8462 C 831.622 1.61846 1.68309 0
M  V30 8463 C 832.603 0.468159 1.63531 0
M  V30 8464 O 833.788 0.696504 1.8128 0
M  V30 8465 C 830.918 1.62474 3.06952 0
M  V30 8466 C 829.872 2.76649 3.26572 0
M  V30 8467 C 829.198 2.62345 4.65917 0
M  V30 8468 C 830.498 4.18319 3.12741 0
M  V30 8469 H 832.192 2.55407 1.5623 0
M  V30 8470 H 829.738 1.22916 0.750179 0
M  V30 8471 H 831.691 1.71378 3.84977 0
M  V30 8472 H 830.415 0.654692 3.19971 0
M  V30 8473 H 829.074 2.67242 2.50952 0
M  V30 8474 H 828.722 1.63386 4.75725 0
M  V30 8475 H 828.422 3.38936 4.79996 0
M  V30 8476 H 829.946 2.73165 5.46089 0
M  V30 8477 H 831.36 4.28745 3.80593 0
M  V30 8478 H 829.757 4.95632 3.38333 0
M  V30 8479 H 830.827 4.37263 2.09592 0
M  V30 8480 N 832.17 -0.811516 1.35101 0
M  V30 8481 C 833.581 -1.38515 1.25182 0
M  V30 8482 C 833.932 -1.95846 -0.117883 0
M  V30 8483 O 833.057 -1.90925 -1.01866 0
M  V30 8484 C 833.652 -2.51813 2.26662 0
M  V30 8485 C 832.211 -3.05052 2.20499 0
M  V30 8486 C 831.358 -1.77987 2.12641 0
M  V30 8487 H 834.309 -0.614959 1.46301 0
M  V30 8488 H 834.33 -3.30228 1.89023 0
M  V30 8489 H 833.842 -2.10057 3.2634 0
M  V30 8490 H 831.943 -3.51285 1.24215 0
M  V30 8491 H 832.056 -3.63368 3.1225 0
M  V30 8492 H 830.42 -1.99342 1.5854 0
M  V30 8493 H 831.203 -1.38389 3.14171 0
M  V30 8494 N 833.648 -1.19017 -1.03309 0
M  V30 8495 C 835.064 -0.941483 -1.28873 0
M  V30 8496 C 835.264 0.388587 -1.97718 0
M  V30 8497 O 834.32 1.12111 -2.26246 0
M  V30 8498 C 835.633 -2.11249 -2.13996 0
M  V30 8499 C 837.181 -2.15164 -2.27318 0
M  V30 8500 C 837.656 -3.31704 -3.15811 0
M  V30 8501 N 839.147 -3.31613 -3.23399 0
M  V30 8502 C 839.882 -4.18431 -3.9205 0
M  V30 8503 N 839.378 -5.15397 -4.62966 0
M  V30 8504 N 841.171 -4.06321 -3.88406 0
M  V30 8505 H 833.322 -2.04599 -0.570343 0
M  V30 8506 H 835.585 -0.894406 -0.314232 0
M  V30 8507 H 835.291 -3.07482 -1.70727 0
M  V30 8508 H 835.165 -2.07955 -3.14697 0
M  V30 8509 H 837.552 -1.19504 -2.6982 0
M  V30 8510 H 837.633 -2.22513 -1.26182 0
M  V30 8511 H 837.277 -4.2764 -2.74019 0
M  V30 8512 H 837.207 -3.21592 -4.16997 0
M  V30 8513 H 839.698 -2.6142 -2.72888 0
M  V30 8514 H 840.011 -5.78 -5.12968 0
M  V30 8515 H 838.356 -5.19349 -4.61846 0
M  V30 8516 H 841.547 -3.29849 -3.3214 0
M  V30 8517 H 841.72 -4.74196 -4.41635 0
M  V30 8518 N 835.127 1.22348 -0.993418 0
M  V30 8519 C 836.074 2.24294 -0.544118 0
M  V30 8520 C 837.044 1.60602 0.42381 0
M  V30 8521 O 838.229 1.87952 0.328453 0
M  V30 8522 C 835.369 3.44837 0.134578 0
M  V30 8523 C 834.482 4.23043 -0.875151 0
M  V30 8524 C 833.617 5.30928 -0.169919 0
M  V30 8525 C 832.656 6.00853 -1.16798 0
M  V30 8526 N 831.793 7.00381 -0.491021 0
M  V30 8527 H 836.633 2.6209 -1.4182 0
M  V30 8528 H 834.17 1.2881 -0.710384 0
M  V30 8529 H 836.128 4.13625 0.544998 0
M  V30 8530 H 834.758 3.07804 0.972446 0
M  V30 8531 H 833.81 3.53546 -1.40389 0
M  V30 8532 H 835.122 4.71237 -1.63516 0
M  V30 8533 H 834.276 6.05972 0.297205 0
M  V30 8534 H 833.015 4.8371 0.622586 0
M  V30 8535 H 832.02 5.24591 -1.64573 0
M  V30 8536 H 833.245 6.50159 -1.96137 0
M  V30 8537 H 831.191 6.55393 0.282037 0
M  V30 8538 H 831.108 7.46584 -1.18947 0
M  V30 8539 H 832.376 7.79486 -0.0467169 0
M  V30 8540 N 836.605 0.766683 1.37694 0
M  V30 8541 C 837.535 0.163432 2.32927 0
M  V30 8542 C 838.516 -0.688861 1.55527 0
M  V30 8543 O 839.701 -0.627363 1.83787 0
M  V30 8544 C 836.831 -0.720416 3.39746 0
M  V30 8545 C 835.785 0.0301718 4.27989 0
M  V30 8546 C 835.111 -0.972788 5.25776 0
M  V30 8547 C 836.411 1.20623 5.0818 0
M  V30 8548 H 838.105 0.958988 2.83626 0
M  V30 8549 H 835.651 0.462601 1.36367 0
M  V30 8550 H 837.604 -1.15221 4.05342 0
M  V30 8551 H 836.328 -1.54844 2.8756 0
M  V30 8552 H 834.987 0.442685 3.63917 0
M  V30 8553 H 834.635 -1.79522 4.69873 0
M  V30 8554 H 834.335 -0.475145 5.85676 0
M  V30 8555 H 835.859 -1.40362 5.94248 0
M  V30 8556 H 837.273 0.851341 5.66944 0
M  V30 8557 H 835.67 1.63561 5.7738 0
M  V30 8558 H 836.74 2.01281 4.41151 0
M  V30 8559 N 838.083 -1.48885 0.516809 0
M  V30 8560 C 839.36 -1.95412 -0.0858293 0
M  V30 8561 C 839.74 -1.45875 -1.5259 0
M  V30 8562 O 839.088 -0.679415 -2.18166 0
M  V30 8563 C 839.298 -3.48995 0.0178194 0
M  V30 8564 C 840.646 -4.24342 -0.14813 0
M  V30 8565 O 841.67 -3.56155 -0.0566125 0
M  V30 8566 O 840.529 -5.45454 -0.338035 0
M  V30 8567 H 837.623 -0.822455 -0.0865884 0
M  V30 8568 H 840.169 -1.59464 0.580472 0
M  V30 8569 H 838.941 -3.77732 1.02147 0
M  V30 8570 H 838.564 -3.91604 -0.687924 0
M  V30 8571 N 839.561 -0.251338 -1.55583 0
M  V30 8572 C 840.786 0.379136 -2.03905 0
M  V30 8573 C 841.211 1.50428 -1.12929 0
M  V30 8574 O 840.569 1.80882 -0.123114 0
M  V30 8575 C 840.617 0.86009 -3.50193 0
M  V30 8576 O 839.721 1.96932 -3.62342 0
M  V30 8577 H 839.062 0.0820183 -0.658915 0
M  V30 8578 H 841.592 -0.378692 -2.01065 0
M  V30 8579 H 841.602 1.16214 -3.91099 0
M  V30 8580 H 840.277 0.0367559 -4.15884 0
M  V30 8581 H 838.854 1.67163 -3.33333 0
M  V30 8582 N 841.039 1.57585 0.0217189 0
M  V30 8583 C 842.285 1.89887 0.712099 0
M  V30 8584 C 842.618 0.849971 1.74611 0
M  V30 8585 O 841.893 -0.13407 1.94037 0
M  V30 8586 C 842.176 3.32815 1.37499 0
M  V30 8587 C 842.029 4.48405 0.353993 0
M  V30 8588 C 843.348 3.74786 2.30703 0
M  V30 8589 H 840.467 0.690588 0.257405 0
M  V30 8590 H 843.109 1.89983 -0.0251145 0
M  V30 8591 H 841.259 3.32863 2.00335 0
M  V30 8592 H 842.931 4.60491 -0.273015 0
M  V30 8593 H 841.174 4.32573 -0.32599 0
M  V30 8594 H 841.845 5.45316 0.85644 0
M  V30 8595 H 844.321 3.76151 1.77904 0
M  V30 8596 H 843.197 4.75585 2.74061 0
M  V30 8597 H 843.458 3.07449 3.17691 0
M  V30 8598 N 842.517 -0.29412 1.54831 0
M  V30 8599 C 843.764 -1.02846 1.74439 0
M  V30 8600 C 844.092 -1.87029 0.533905 0
M  V30 8601 O 843.347 -1.8962 -0.484035 0
M  V30 8602 C 843.646 -1.95782 2.99006 0
M  V30 8603 C 843.312 -1.2752 4.32492 0
M  V30 8604 C 841.974 -1.08637 4.68777 0
M  V30 8605 C 844.326 -0.787761 5.15212 0
M  V30 8606 C 841.654 -0.39704 5.85355 0
M  V30 8607 C 844.006 -0.112123 6.32501 0
M  V30 8608 C 842.67 0.0886071 6.67441 0
M  V30 8609 H 841.94 -0.376341 0.638317 0
M  V30 8610 H 844.587 -0.302684 1.89093 0
M  V30 8611 H 842.892 -2.74911 2.79162 0
M  V30 8612 H 844.589 -2.52684 3.11371 0
M  V30 8613 H 841.179 -1.43226 4.03961 0
M  V30 8614 H 845.363 -0.921341 4.87673 0
M  V30 8615 H 840.619 -0.230597 6.10965 0
M  V30 8616 H 844.793 0.27344 6.95863 0
M  V30 8617 H 842.42 0.624748 7.57628 0
M  V30 8618 N 843.995 -1.47404 -0.557645 0
M  V30 8619 C 844.905 -1.62491 -1.69216 0
M  V30 8620 C 845.921 -0.507764 -1.66426 0
M  V30 8621 O 847.097 -0.775241 -1.85882 0
M  V30 8622 C 844.162 -1.63511 -3.05721 0
M  V30 8623 C 843.223 -2.86648 -3.1958 0
M  V30 8624 C 842.456 -2.87609 -4.49574 0
M  V30 8625 O 842.679 -1.97799 -5.35006 0
M  V30 8626 O 841.613 -3.79465 -4.67215 0
M  V30 8627 H 845.439 -2.58487 -1.59431 0
M  V30 8628 H 843.024 -1.30485 -0.7276 0
M  V30 8629 H 844.906 -1.66863 -3.86956 0
M  V30 8630 H 843.581 -0.706812 -3.15889 0
M  V30 8631 H 842.488 -2.8884 -2.37744 0
M  V30 8632 H 843.821 -3.7877 -3.14316 0
M  V30 8633 N 845.473 0.80434 -1.35529 0
M  V30 8634 C 846.383 1.94784 -1.30753 0
M  V30 8635 C 847.399 1.72703 -0.212071 0
M  V30 8636 O 848.575 1.96494 -0.441841 0
M  V30 8637 C 845.64 3.29406 -1.08133 0
M  V30 8638 C 844.701 3.64367 -2.27013 0
M  V30 8639 C 843.934 4.92566 -2.05463 0
M  V30 8640 O 844.157 5.61166 -1.02222 0
M  V30 8641 O 843.091 5.25838 -2.92879 0
M  V30 8642 H 846.917 2.01761 -2.26994 0
M  V30 8643 H 844.502 0.942448 -1.15924 0
M  V30 8644 H 846.384 4.09995 -0.973756 0
M  V30 8645 H 845.059 3.23355 -0.149444 0
M  V30 8646 H 843.966 2.84146 -2.43335 0
M  V30 8647 H 845.299 3.75125 -3.18656 0
M  V30 8648 N 846.951 1.19563 1.02676 0
M  V30 8649 C 848.367 0.948304 1.28372 0
M  V30 8650 C 848.567 -0.378096 1.97921 0
M  V30 8651 O 847.623 -1.1091 2.26838 0
M  V30 8652 C 848.936 2.12381 2.12873 0
M  V30 8653 C 850.484 2.16366 2.26174 0
M  V30 8654 C 850.959 3.33374 3.14048 0
M  V30 8655 N 852.45 3.33323 3.21636 0
M  V30 8656 C 853.185 4.20504 3.89825 0
M  V30 8657 N 852.681 5.17845 4.60227 0
M  V30 8658 N 854.474 4.08375 3.86246 0
M  V30 8659 H 846.625 2.04899 0.559485 0
M  V30 8660 H 848.888 0.89606 0.309484 0
M  V30 8661 H 848.594 3.08383 1.69094 0
M  V30 8662 H 848.468 2.09621 3.1359 0
M  V30 8663 H 850.855 1.20933 2.69182 0
M  V30 8664 H 850.936 2.23179 1.25 0
M  V30 8665 H 850.58 4.29087 2.71747 0
M  V30 8666 H 850.51 3.23798 4.15286 0
M  V30 8667 H 853.001 2.62863 2.71498 0
M  V30 8668 H 853.314 5.80712 5.09896 0
M  V30 8669 H 851.659 5.21791 4.59085 0
M  V30 8670 H 854.85 3.31606 3.30386 0
M  V30 8671 H 855.023 4.76532 4.39114 0
M  V30 8672 N 848.429 -1.21819 0.999893 0
M  V30 8673 C 849.359 -2.26282 0.576096 0
M  V30 8674 C 850.34 -1.65317 -0.400537 0
M  V30 8675 O 851.525 -1.92028 -0.28964 0
M  V30 8676 C 848.655 -3.47147 -0.103145 0
M  V30 8677 C 847.609 -4.20594 0.792745 0
M  V30 8678 C 846.935 -5.34696 -0.0198026 0
M  V30 8679 C 848.235 -4.78533 2.09293 0
M  V30 8680 H 849.929 -2.61984 1.4493 0
M  V30 8681 H 847.475 -1.25935 0.698316 0
M  V30 8682 H 849.428 -4.1939 -0.411068 0
M  V30 8683 H 848.152 -3.1056 -1.01094 0
M  V30 8684 H 846.811 -3.50194 1.08442 0
M  V30 8685 H 846.459 -4.94352 -0.928729 0
M  V30 8686 H 846.159 -5.84764 0.576661 0
M  V30 8687 H 847.683 -6.09752 -0.321659 0
M  V30 8688 H 849.097 -5.42682 1.8485 0
M  V30 8689 H 847.494 -5.38968 2.63881 0
M  V30 8690 H 848.564 -3.98197 2.76708 0
M  V30 8691 N 849.908 -0.773975 -1.37286 0
M  V30 8692 C 851.133 -0.349561 -2.04433 0
M  V30 8693 C 851.558 1.02082 -1.5799 0
M  V30 8694 O 850.916 1.65458 -0.741172 0
M  V30 8695 C 850.964 -0.404292 -3.58326 0
M  V30 8696 O 850.068 0.594447 -4.08093 0
M  V30 8697 H 849.409 -0.150959 -0.646612 0
M  V30 8698 H 851.939 -1.05079 -1.75555 0
M  V30 8699 H 851.949 -0.262378 -4.07155 0
M  V30 8700 H 850.624 -1.40403 -3.91484 0
M  V30 8701 H 849.201 0.415468 -3.70578 0
M  V30 8702 N 851.386 1.48609 -0.524698 0
M  V30 8703 C 852.333 2.29539 0.240956 0
M  V30 8704 C 853.303 1.37033 0.938681 0
M  V30 8705 O 854.488 1.65996 0.940737 0
M  V30 8706 C 851.628 3.20278 1.28514 0
M  V30 8707 C 850.741 4.27858 0.596798 0
M  V30 8708 C 849.876 5.05784 1.62346 0
M  V30 8709 C 848.915 6.05173 0.918287 0
M  V30 8710 N 848.052 6.76176 1.89025 0
M  V30 8711 H 852.892 2.945 -0.455368 0
M  V30 8712 H 850.429 1.45188 -0.236403 0
M  V30 8713 H 852.387 3.71281 1.90279 0
M  V30 8714 H 851.017 2.57251 1.94992 0
M  V30 8715 H 850.069 3.80162 -0.134668 0
M  V30 8716 H 851.381 4.98782 0.0428506 0
M  V30 8717 H 850.535 5.60775 2.31553 0
M  V30 8718 H 849.274 4.34687 2.2113 0
M  V30 8719 H 848.279 5.49391 0.21212 0
M  V30 8720 H 849.504 6.78265 0.336633 0
M  V30 8721 H 847.45 6.07834 2.46726 0
M  V30 8722 H 847.367 7.43157 1.3876 0
M  V30 8723 H 848.635 7.35759 2.57446 0
M  V30 8724 N 852.864 0.259585 1.55447 0
M  V30 8725 C 853.811 -0.634578 2.21905 0
M  V30 8726 C 854.781 -1.16168 1.18719 0
M  V30 8727 O 855.966 -1.21383 1.4721 0
M  V30 8728 C 853.106 -1.82005 2.93203 0
M  V30 8729 C 852.219 -1.32828 4.11073 0
M  V30 8730 C 851.354 -2.47431 4.70055 0
M  V30 8731 C 850.393 -1.95179 5.80148 0
M  V30 8732 N 849.53 -3.03197 6.33258 0
M  V30 8733 H 854.37 -0.0611886 2.97937 0
M  V30 8734 H 851.907 -0.0184378 1.47088 0
M  V30 8735 H 853.865 -2.51664 3.32748 0
M  V30 8736 H 852.495 -2.36571 2.19622 0
M  V30 8737 H 851.547 -0.525301 3.76756 0
M  V30 8738 H 852.859 -0.905435 4.90513 0
M  V30 8739 H 852.013 -3.25111 5.12238 0
M  V30 8740 H 850.752 -2.93023 3.89857 0
M  V30 8741 H 849.757 -1.15974 5.37429 0
M  V30 8742 H 850.982 -1.50541 6.62204 0
M  V30 8743 H 848.928 -3.48199 5.55961 0
M  V30 8744 H 848.845 -2.65282 7.07928 0
M  V30 8745 H 850.113 -3.80898 6.80101 0
M  V30 8746 N 854.342 -1.57594 -0.0133615 0
M  V30 8747 C 855.272 -2.10611 -1.00823 0
M  V30 8748 C 856.253 -1.01217 -1.36708 0
M  V30 8749 O 857.438 -1.28827 -1.45318 0
M  V30 8750 C 854.568 -2.59844 -2.30431 0
M  V30 8751 C 853.522 -3.73644 -2.08745 0
M  V30 8752 C 852.848 -4.09141 -3.4425 0
M  V30 8753 C 854.148 -5.01454 -1.46086 0
M  V30 8754 H 855.842 -2.93985 -0.566849 0
M  V30 8755 H 853.388 -1.41423 -0.271219 0
M  V30 8756 H 855.341 -2.95557 -3.00373 0
M  V30 8757 H 854.065 -1.73573 -2.76658 0
M  V30 8758 H 852.724 -3.38303 -1.41232 0
M  V30 8759 H 852.372 -3.19914 -3.88155 0
M  V30 8760 H 852.072 -4.85802 -3.3056 0
M  V30 8761 H 853.596 -4.47402 -4.15528 0
M  V30 8762 H 855.01 -5.35024 -2.05966 0
M  V30 8763 H 853.407 -5.82832 -1.42924 0
M  V30 8764 H 854.477 -4.83003 -0.428471 0
M  V30 8765 N 855.82 0.285905 -1.54985 0
M  V30 8766 C 857.067 1.0192 -1.74982 0
M  V30 8767 C 857.395 1.86743 -0.543816 0
M  V30 8768 O 856.65 1.89874 0.473972 0
M  V30 8769 C 856.949 1.94193 -3.0004 0
M  V30 8770 C 856.615 1.25225 -4.33162 0
M  V30 8771 C 855.277 1.06149 -4.69346 0
M  V30 8772 C 857.629 0.760427 -5.15623 0
M  V30 8773 C 854.957 0.365991 -5.85557 0
M  V30 8774 C 857.309 0.0785787 -6.32551 0
M  V30 8775 C 855.973 -0.124002 -6.67385 0
M  V30 8776 H 855.243 0.372951 -0.640304 0
M  V30 8777 H 857.89 0.292652 -1.89251 0
M  V30 8778 H 856.195 2.73426 -2.80616 0
M  V30 8779 H 857.892 2.51029 -3.12707 0
M  V30 8780 H 854.482 1.41081 -4.04715 0
M  V30 8781 H 858.666 0.895466 -4.88155 0
M  V30 8782 H 853.922 0.198193 -6.11079 0
M  V30 8783 H 858.096 -0.310339 -6.95708 0
M  V30 8784 H 855.723 -0.664918 -7.57287 0
M  V30 8785 N 857.298 1.47698 0.54982 0
M  V30 8786 C 858.545 1.54702 1.30665 0
M  V30 8787 C 858.873 0.212418 1.93337 0
M  V30 8788 O 858.128 -0.79543 1.78805 0
M  V30 8789 C 858.427 2.61903 2.4319 0
M  V30 8790 C 858.093 4.04953 1.98302 0
M  V30 8791 C 856.755 4.43893 1.85776 0
M  V30 8792 C 859.107 4.94682 1.64133 0
M  V30 8793 C 856.435 5.70387 1.37388 0
M  V30 8794 C 858.787 6.21646 1.17214 0
M  V30 8795 C 857.451 6.5946 1.0329 0
M  V30 8796 H 856.721 0.566096 0.478139 0
M  V30 8797 H 859.368 1.8133 0.615767 0
M  V30 8798 H 857.673 2.2906 3.17866 0
M  V30 8799 H 859.37 2.64543 3.0136 0
M  V30 8800 H 855.96 3.74191 2.08995 0
M  V30 8801 H 860.144 4.65291 1.72679 0
M  V30 8802 H 855.4 5.98427 1.25278 0
M  V30 8803 H 859.574 6.90581 0.898391 0
M  V30 8804 H 857.201 7.57367 0.655735 0
M  V30 8805 N 858.776 -0.797141 1.35954 0
M  V30 8806 C 860.023 -1.55468 1.29754 0
M  V30 8807 C 860.351 -1.94095 -0.125391 0
M  V30 8808 O 859.606 -1.62341 -1.09288 0
M  V30 8809 C 859.905 -2.84847 2.15863 0
M  V30 8810 C 859.571 -2.65394 3.64523 0
M  V30 8811 C 858.233 -2.59796 4.05042 0
M  V30 8812 C 860.585 -2.4727 4.58811 0
M  V30 8813 C 857.913 -2.3403 5.38002 0
M  V30 8814 C 860.265 -2.23032 5.91979 0
M  V30 8815 C 858.929 -2.15862 6.31633 0
M  V30 8816 H 858.199 -0.568897 0.474803 0
M  V30 8817 H 860.846 -0.920299 1.67937 0
M  V30 8818 H 859.151 -3.52712 1.70591 0
M  V30 8819 H 860.848 -3.42597 2.08395 0
M  V30 8820 H 857.438 -2.70602 3.32374 0
M  V30 8821 H 861.622 -2.506 4.28384 0
M  V30 8822 H 856.878 -2.26956 5.67715 0
M  V30 8823 H 861.052 -2.08001 6.64612 0
M  V30 8824 H 858.679 -1.9566 7.34589 0
M  V30 8825 N 860.254 -1.20106 -1.0204 0
M  V30 8826 C 861.479 -1.0351 -1.79723 0
M  V30 8827 C 861.904 0.411328 -1.83548 0
M  V30 8828 O 861.262 1.29608 -1.26773 0
M  V30 8829 C 861.31 -1.61876 -3.22224 0
M  V30 8830 O 860.414 -0.853813 -4.03465 0
M  V30 8831 H 859.755 -0.365299 -0.554484 0
M  V30 8832 H 862.285 -1.59316 -1.28373 0
M  V30 8833 H 862.295 -1.65451 -3.72948 0
M  V30 8834 H 860.97 -2.67148 -3.18755 0
M  V30 8835 H 859.547 -0.891983 -3.62075 0
M  V30 8836 N 861.732 1.21287 -1.00634 0
M  V30 8837 C 862.98 1.90013 -0.688438 0
M  V30 8838 C 863.301 1.78573 0.783365 0
M  V30 8839 O 862.571 1.1815 1.56261 0
M  V30 8840 H 861.151 0.703336 -0.251648 0
M  V30 8841 H 863.813 1.47346 -1.27574 0
M  V30 8842 H 862.909 2.96879 -0.962781 0
M  V30 8843 N 863.21 0.781244 1.36873 0
M  V30 8844 C 864.626 0.461968 1.52768 0
M  V30 8845 C 864.826 -1.02099 1.73719 0
M  V30 8846 O 863.882 -1.80665 1.76399 0
M  V30 8847 C 865.195 1.2853 2.71846 0
M  V30 8848 C 866.743 1.27817 2.85713 0
M  V30 8849 C 867.218 2.08506 4.07786 0
M  V30 8850 N 868.709 2.05909 4.14917 0
M  V30 8851 C 869.444 2.65118 5.08429 0
M  V30 8852 N 868.94 3.33152 6.07438 0
M  V30 8853 N 870.733 2.54896 5.00983 0
M  V30 8854 H 862.884 1.74198 1.21527 0
M  V30 8855 H 865.147 0.740027 0.592506 0
M  V30 8856 H 864.853 2.3366 2.62861 0
M  V30 8857 H 864.727 0.920981 3.65784 0
M  V30 8858 H 867.114 0.234817 2.94164 0
M  V30 8859 H 867.195 1.68219 1.92707 0
M  V30 8860 H 866.839 3.12867 4.00096 0
M  V30 8861 H 866.769 1.65479 4.99924 0
M  V30 8862 H 869.26 1.56386 3.44023 0
M  V30 8863 H 869.573 3.75681 6.75339 0
M  V30 8864 H 867.918 3.37253 6.07689 0
M  V30 8865 H 871.109 2.01352 4.22581 0
M  V30 8866 H 871.282 3.01332 5.73675 0
M  V30 8867 N 864.689 -1.48329 0.532571 0
M  V30 8868 C 865.621 -2.27652 -0.265931 0
M  V30 8869 C 866.634 -1.35522 -0.902083 0
M  V30 8870 O 867.823 -1.60552 -0.780088 0
M  V30 8871 C 864.923 -3.0899 -1.39207 0
M  V30 8872 C 864.096 -4.28915 -0.857349 0
M  V30 8873 C 863.155 -4.92044 -1.86493 0
M  V30 8874 O 862.181 -5.51181 -1.42084 0
M  V30 8875 N 863.383 -4.84518 -3.19723 0
M  V30 8876 H 866.148 -2.96821 0.414389 0
M  V30 8877 H 863.709 -1.57684 0.367066 0
M  V30 8878 H 865.701 -3.48091 -2.06433 0
M  V30 8879 H 864.271 -2.42224 -1.97601 0
M  V30 8880 H 863.491 -3.94199 -0.00901765 0
M  V30 8881 H 864.779 -5.0654 -0.479025 0
M  V30 8882 H 864.177 -4.37628 -3.58467 0
M  V30 8883 H 862.734 -5.27712 -3.82575 0
M  V30 8884 N 866.167 -0.267825 -1.55308 0
M  V30 8885 C 867.413 0.351556 -1.9973 0
M  V30 8886 C 867.746 1.56049 -1.15596 0
M  V30 8887 O 867.021 1.93203 -0.224274 0
M  V30 8888 C 867.304 0.74091 -3.52395 0
M  V30 8889 C 867.157 -0.474861 -4.47286 0
M  V30 8890 C 868.476 1.5801 -4.10756 0
M  V30 8891 H 865.595 0.126308 -0.726096 0
M  V30 8892 H 868.237 -0.373316 -1.86296 0
M  V30 8893 H 866.387 1.35851 -3.63973 0
M  V30 8894 H 868.059 -1.1134 -4.47662 0
M  V30 8895 H 866.302 -1.11425 -4.19246 0
M  V30 8896 H 866.973 -0.158782 -5.51772 0
M  V30 8897 H 869.449 1.05857 -4.0241 0
M  V30 8898 H 868.325 1.82135 -5.17801 0
M  V30 8899 H 868.586 2.55878 -3.60526 0
M  V30 8900 N 867.645 1.57599 0.00500368 0
M  V30 8901 C 868.891 1.91471 0.686313 0
M  V30 8902 C 869.246 0.868988 1.71658 0
M  V30 8903 O 868.539 -0.11944 1.91227 0
M  V30 8904 C 868.733 3.29855 1.37588 0
M  V30 8905 C 868.562 4.47791 0.413924 0
M  V30 8906 C 867.332 5.05293 0.0261488 0
M  V30 8907 C 869.53 5.13317 -0.317764 0
M  V30 8908 N 867.512 6.06745 -0.934545 0
M  V30 8909 C 868.883 6.09554 -1.13331 0
M  V30 8910 C 870.938 4.96431 -0.382136 0
M  V30 8911 C 869.641 6.90723 -2.00735 0
M  V30 8912 C 871.667 5.78182 -1.24339 0
M  V30 8913 C 871.029 6.74007 -2.04679 0
M  V30 8914 H 867.128 0.749083 0.224495 0
M  V30 8915 H 869.712 1.94625 -0.0541684 0
M  V30 8916 H 867.883 3.27585 2.08668 0
M  V30 8917 H 869.615 3.51171 2.01149 0
M  V30 8918 H 866.37 4.71963 0.393462 0
M  V30 8919 H 866.794 6.62152 -1.41012 0
M  V30 8920 H 871.436 4.22202 0.224718 0
M  V30 8921 H 869.154 7.64281 -2.6249 0
M  V30 8922 H 872.74 5.67158 -1.29704 0
M  V30 8923 H 871.62 7.36164 -2.70244 0
M  V30 8924 N 869.123 -0.277682 1.55134 0
M  V30 8925 C 870.369 -1.0114 1.7578 0
M  V30 8926 C 870.702 -1.86109 0.554719 0
M  V30 8927 O 869.977 -1.89275 -0.447813 0
M  V30 8928 C 870.26 -1.89789 3.06027 0
M  V30 8929 C 870.113 -1.07844 4.3668 0
M  V30 8930 C 871.432 -2.88577 3.32282 0
M  V30 8931 H 868.551 -0.366277 0.639539 0
M  V30 8932 H 871.193 -0.284155 1.87863 0
M  V30 8933 H 869.343 -2.51796 2.95856 0
M  V30 8934 H 871.015 -0.479432 4.58802 0
M  V30 8935 H 869.258 -0.381764 4.32117 0
M  V30 8936 H 869.929 -1.73179 5.24131 0
M  V30 8937 H 872.405 -2.36702 3.42215 0
M  V30 8938 H 871.281 -3.47749 4.2469 0
M  V30 8939 H 871.542 -3.63458 2.51696 0
M  V30 8940 N 870.601 -1.47988 -0.541979 0
M  V30 8941 C 871.831 -1.58804 -1.32155 0
M  V30 8942 C 872.239 -0.242893 -1.87634 0
M  V30 8943 O 871.582 0.776239 -1.66494 0
M  V30 8944 C 871.644 -2.56567 -2.51821 0
M  V30 8945 C 871.308 -4.01915 -2.17517 0
M  V30 8946 C 872.305 -4.89954 -1.73901 0
M  V30 8947 C 869.99 -4.47365 -2.28408 0
M  V30 8948 C 871.984 -6.21467 -1.41625 0
M  V30 8949 C 869.671 -5.78902 -1.95745 0
M  V30 8950 C 870.669 -6.65775 -1.52423 0
M  V30 8951 O 870.357 -7.94866 -1.20183 0
M  V30 8952 H 870.089 -0.538536 -0.408601 0
M  V30 8953 H 872.643 -1.94446 -0.661818 0
M  V30 8954 H 870.873 -2.16023 -3.20735 0
M  V30 8955 H 872.562 -2.57347 -3.13891 0
M  V30 8956 H 873.328 -4.56082 -1.64966 0
M  V30 8957 H 869.207 -3.79942 -2.61084 0
M  V30 8958 H 872.751 -6.8923 -1.07738 0
M  V30 8959 H 868.648 -6.12311 -2.04316 0
M  V30 8960 H 869.416 -8.07509 -1.33683 0
M  V30 8961 N 872.079 0.78992 -1.36375 0
M  V30 8962 C 873.307 1.57873 -1.3373 0
M  V30 8963 C 873.722 1.88624 0.0815544 0
M  V30 8964 O 873.079 1.50085 1.03831 0
M  V30 8965 C 873.13 2.90003 -2.15825 0
M  V30 8966 O 872.851 2.60578 -3.5218 0
M  V30 8967 C 874.352 3.84309 -2.20955 0
M  V30 8968 H 871.572 0.489685 -0.458748 0
M  V30 8969 H 874.116 0.980436 -1.79465 0
M  V30 8970 H 872.271 3.46303 -1.73646 0
M  V30 8971 H 872.685 3.4506 -3.95011 0
M  V30 8972 H 874.159 4.74081 -2.82756 0
M  V30 8973 H 874.636 4.22121 -1.21287 0
M  V30 8974 H 875.242 3.33942 -2.63368 0
M  V30 8975 N 873.557 1.20646 1.01402 0
M  V30 8976 C 874.805 1.01618 1.74695 0
M  V30 8977 C 875.126 -0.452438 1.89679 0
M  V30 8978 O 874.396 -1.32693 1.44116 0
M  V30 8979 H 872.976 0.373013 0.647202 0
M  V30 8980 H 875.638 1.518 1.22241 0
M  V30 8981 H 874.734 1.47666 2.74957 0
M  V30 8982 N 875.035 -1.20752 1.01276 0
M  V30 8983 C 875.998 -2.2162 0.584583 0
M  V30 8984 C 876.998 -1.57094 -0.343215 0
M  V30 8985 O 878.188 -1.73696 -0.132433 0
M  V30 8986 C 875.32 -3.40583 -0.146872 0
M  V30 8987 H 876.513 -2.61015 1.47686 0
M  V30 8988 H 874.066 -1.34148 0.802123 0
M  V30 8989 H 874.801 -3.06686 -1.05424 0
M  V30 8990 H 874.586 -3.88642 0.51958 0
M  V30 8991 H 876.076 -4.15339 -0.433924 0
M  V30 8992 N 876.513 -0.788492 -1.36457 0
M  V30 8993 C 877.738 -0.371224 -2.04051 0
M  V30 8994 C 878.163 1.004 -1.59064 0
M  V30 8995 O 877.521 1.64663 -0.758679 0
M  V30 8996 C 877.569 -0.442275 -3.57877 0
M  V30 8997 O 876.673 0.55113 -4.08701 0
M  V30 8998 H 876.014 -0.157808 -0.644975 0
M  V30 8999 H 878.544 -1.06935 -1.74431 0
M  V30 9000 H 878.554 -0.305548 -4.06854 0
M  V30 9001 H 877.229 -1.44547 -3.89973 0
M  V30 9002 H 875.806 0.37614 -3.70998 0
M  V30 9003 N 877.991 1.48044 -0.54043 0
M  V30 9004 C 879.237 2.02797 -0.0101718 0
M  V30 9005 C 879.57 1.41565 1.32939 0
M  V30 9006 O 878.845 0.565139 1.86109 0
M  V30 9007 C 879.128 3.59959 0.100758 0
M  V30 9008 C 878.981 4.31654 -1.26471 0
M  V30 9009 C 880.3 4.32347 0.822455 0
M  V30 9010 H 877.419 0.736982 -0.00517052 0
M  V30 9011 H 880.061 1.76656 -0.69948 0
M  V30 9012 H 878.211 3.82363 0.687824 0
M  V30 9013 H 879.883 4.20639 -1.89369 0
M  V30 9014 H 878.126 3.92663 -1.84386 0
M  V30 9015 H 878.797 5.401 -1.13998 0
M  V30 9016 H 881.273 4.14835 0.324164 0
M  V30 9017 H 880.149 5.41978 0.868993 0
M  V30 9018 H 880.41 4.00369 1.87501 0
M  V30 9019 N 879.47 0.276058 1.55163 0
M  V30 9020 C 880.4 -0.604633 2.25536 0
M  V30 9021 C 881.381 -1.15813 1.24585 0
M  V30 9022 O 882.566 -1.1921 1.53306 0
M  V30 9023 C 879.696 -1.78836 2.97716 0
M  V30 9024 C 878.65 -1.36635 4.05604 0
M  V30 9025 C 877.976 -2.63325 4.65364 0
M  V30 9026 C 879.276 -0.515858 5.19746 0
M  V30 9027 H 880.97 -0.0177483 2.99395 0
M  V30 9028 H 878.516 -0.00709627 1.43998 0
M  V30 9029 H 880.469 -2.41036 3.45658 0
M  V30 9030 H 879.193 -2.40109 2.21394 0
M  V30 9031 H 877.852 -0.767541 3.58475 0
M  V30 9032 H 877.5 -3.22858 3.85709 0
M  V30 9033 H 877.2 -2.358 5.38212 0
M  V30 9034 H 878.724 -3.26372 5.16056 0
M  V30 9035 H 880.138 -1.04289 5.63735 0
M  V30 9036 H 878.535 -0.335449 5.99162 0
M  V30 9037 H 879.605 0.465137 4.82664 0
M  V30 9038 N 880.948 -1.576 0.00335426 0
M  V30 9039 C 882.196 -1.90336 -0.679446 0
M  V30 9040 C 882.517 -0.877777 -1.74127 0
M  V30 9041 O 881.787 0.0843585 -1.95718 0
M  V30 9042 H 880.367 -0.702509 -0.253948 0
M  V30 9043 H 883.029 -1.94848 0.0450731 0
M  V30 9044 H 882.125 -2.90197 -1.14857 0
M  V30 9045 N 882.426 0.269451 -1.5528 0
M  V30 9046 C 883.837 0.840233 -1.66724 0
M  V30 9047 C 884.188 1.86909 -0.596621 0
M  V30 9048 O 883.313 2.14817 0.261246 0
M  V30 9049 C 883.908 1.5308 -3.02245 0
M  V30 9050 C 882.467 2.04957 -3.15705 0
M  V30 9051 C 881.614 0.892838 -2.62533 0
M  V30 9052 H 884.565 0.0457236 -1.58634 0
M  V30 9053 H 884.586 2.39792 -2.95432 0
M  V30 9054 H 884.098 0.781741 -3.80145 0
M  V30 9055 H 882.199 2.82813 -2.42585 0
M  V30 9056 H 882.312 2.26244 -4.22316 0
M  V30 9057 H 880.676 1.28719 -2.19781 0
M  V30 9058 H 881.459 0.157229 -3.4294 0
M  V30 9059 N 883.904 1.48273 0.534124 0
M  V30 9060 C 885.32 1.34302 0.862272 0
M  V30 9061 C 885.52 0.350902 1.98421 0
M  V30 9062 O 884.576 -0.229364 2.51456 0
M  V30 9063 C 885.889 2.74227 1.23371 0
M  V30 9064 C 887.437 2.82684 1.34383 0
M  V30 9065 C 887.912 4.23301 1.74871 0
M  V30 9066 N 889.403 4.25954 1.81981 0
M  V30 9067 C 890.138 5.31693 2.14686 0
M  V30 9068 N 889.634 6.47714 2.45844 0
M  V30 9069 N 891.427 5.19084 2.15657 0
M  V30 9070 H 883.578 2.11397 -0.206215 0
M  V30 9071 H 885.841 0.947537 -0.0296116 0
M  V30 9072 H 885.547 3.48368 0.482967 0
M  V30 9073 H 885.421 3.07485 2.18478 0
M  V30 9074 H 887.808 2.08801 2.08534 0
M  V30 9075 H 887.889 2.5305 0.374063 0
M  V30 9076 H 887.533 4.97699 1.01282 0
M  V30 9077 H 887.463 4.50376 2.7289 0
M  V30 9078 H 889.954 3.42266 1.60196 0
M  V30 9079 H 890.267 7.2414 2.69892 0
M  V30 9080 H 888.612 6.50995 2.43372 0
M  V30 9081 H 891.803 4.27463 1.9077 0
M  V30 9082 H 891.976 6.01592 2.40813 0
M  V30 9083 N 885.382 -0.782676 1.36792 0
M  V30 9084 C 886.798 -1.08169 1.17352 0
M  V30 9085 C 886.998 -2.015 0.0022037 0
M  V30 9086 O 886.054 -2.43692 -0.661093 0
M  V30 9087 C 887.367 -1.68969 2.48737 0
M  V30 9088 C 888.915 -1.81278 2.55161 0
M  V30 9089 C 889.39 -2.45492 3.86649 0
M  V30 9090 N 890.881 -2.52954 3.88032 0
M  V30 9091 C 891.616 -3.03465 4.86515 0
M  V30 9092 N 891.112 -3.54232 5.95392 0
M  V30 9093 N 892.905 -3.02239 4.73928 0
M  V30 9094 H 885.056 -0.162757 2.11775 0
M  V30 9095 H 887.319 -0.134823 0.938364 0
M  V30 9096 H 887.025 -1.07859 3.34753 0
M  V30 9097 H 886.899 -2.68397 2.65034 0
M  V30 9098 H 889.286 -2.41524 1.69559 0
M  V30 9099 H 889.367 -0.806367 2.42758 0
M  V30 9100 H 889.011 -1.85889 4.7266 0
M  V30 9101 H 888.941 -3.46718 3.96351 0
M  V30 9102 H 891.432 -2.17014 3.09376 0
M  V30 9103 H 891.745 -3.91145 6.66503 0
M  V30 9104 H 890.09 -3.52366 5.99052 0
M  V30 9105 H 893.281 -2.61871 3.87996 0
M  V30 9106 H 893.454 -3.41295 5.50837 0
M  V30 9107 N 886.86 -1.21182 -1.00761 0
M  V30 9108 C 887.79 -0.992773 -2.11344 0
M  V30 9109 C 888.771 0.0813618 -1.69905 0
M  V30 9110 O 889.956 -0.0779503 -1.94043 0
M  V30 9111 C 887.086 -0.553826 -3.42856 0
M  V30 9112 C 886.04 -1.57223 -3.98077 0
M  V30 9113 C 885.366 -0.989605 -5.25463 0
M  V30 9114 C 886.666 -2.95839 -4.30438 0
M  V30 9115 H 888.36 -1.91766 -2.29927 0
M  V30 9116 H 885.906 -0.923426 -1.10494 0
M  V30 9117 H 887.859 -0.387771 -4.19612 0
M  V30 9118 H 886.583 0.406702 -3.24058 0
M  V30 9119 H 885.242 -1.7258 -3.23437 0
M  V30 9120 H 884.89 -0.0208743 -5.02996 0
M  V30 9121 H 884.59 -1.66984 -5.63374 0
M  V30 9122 H 886.114 -0.834815 -6.04866 0
M  V30 9123 H 887.528 -2.8394 -4.98047 0
M  V30 9124 H 885.925 -3.60851 -4.79486 0
M  V30 9125 H 886.995 -3.46882 -3.38823 0
M  V30 9126 N 888.338 1.20213 -1.01915 0
M  V30 9127 C 889.615 1.85348 -0.62495 0
M  V30 9128 C 889.995 1.91101 0.896854 0
M  V30 9129 O 889.343 1.42075 1.78961 0
M  V30 9130 C 889.553 3.24849 -1.27571 0
M  V30 9131 C 890.901 4.01107 -1.39277 0
M  V30 9132 O 891.925 3.34211 -1.23212 0
M  V30 9133 O 890.784 5.20914 -1.6526 0
M  V30 9134 H 887.878 0.798303 -0.215965 0
M  V30 9135 H 890.424 1.27782 -1.11669 0
M  V30 9136 H 889.196 3.1544 -2.31545 0
M  V30 9137 H 888.819 3.90049 -0.77122 0
M  V30 9138 N 889.816 0.795718 1.36037 0
M  V30 9139 C 890.763 0.196548 2.29962 0
M  V30 9140 C 891.733 -0.663213 1.52285 0
M  V30 9141 O 892.918 -0.610574 1.80767 0
M  V30 9142 C 890.058 -0.657639 3.38776 0
M  V30 9143 C 889.171 0.221358 4.31433 0
M  V30 9144 C 888.306 -0.6398 5.27333 0
M  V30 9145 C 887.345 0.240265 6.11628 0
M  V30 9146 N 886.482 -0.580237 6.99698 0
M  V30 9147 H 891.322 1.00295 2.80615 0
M  V30 9148 H 888.859 0.506147 1.38118 0
M  V30 9149 H 890.817 -1.16793 4.00519 0
M  V30 9150 H 889.447 -1.42941 2.89426 0
M  V30 9151 H 888.499 0.84967 3.70789 0
M  V30 9152 H 889.811 0.899195 4.90628 0
M  V30 9153 H 888.965 -1.21566 5.94396 0
M  V30 9154 H 887.704 -1.35124 4.68607 0
M  V30 9155 H 886.709 0.828474 5.43522 0
M  V30 9156 H 887.934 0.949403 6.72431 0
M  V30 9157 H 885.88 -1.27585 6.43473 0
M  V30 9158 H 885.797 0.0397853 7.5599 0
M  V30 9159 H 887.065 -1.13972 7.71123 0
M  V30 9160 N 891.294 -1.47756 0.548274 0
M  V30 9161 C 892.224 -2.32702 -0.19284 0
M  V30 9162 C 893.205 -1.43237 -0.917457 0
M  V30 9163 O 894.39 -1.72103 -0.89967 0
M  V30 9164 C 891.52 -3.24831 -1.22891 0
M  V30 9165 C 890.474 -4.23466 -0.621312 0
M  V30 9166 C 889.8 -5.04856 -1.76137 0
M  V30 9167 C 891.1 -5.20616 0.419055 0
M  V30 9168 H 892.794 -2.94914 0.516323 0
M  V30 9169 H 890.34 -1.41818 0.24975 0
M  V30 9170 H 892.293 -3.83094 -1.75547 0
M  V30 9171 H 891.017 -2.60656 -1.9679 0
M  V30 9172 H 889.676 -3.66416 -0.116123 0
M  V30 9173 H 889.324 -4.37091 -2.48918 0
M  V30 9174 H 889.024 -5.71629 -1.36065 0
M  V30 9175 H 890.548 -5.65976 -2.29136 0
M  V30 9176 H 891.962 -5.73296 -0.0211034 0
M  V30 9177 H 890.359 -5.95543 0.738163 0
M  V30 9178 H 891.429 -4.66638 1.31822 0
M  V30 9179 N 892.772 -0.284283 -1.55015 0
M  V30 9180 C 894.02 0.329212 -1.99401 0
M  V30 9181 C 894.341 1.55687 -1.17416 0
M  V30 9182 O 893.611 1.94087 -0.265937 0
M  V30 9183 H 892.191 0.12463 -0.73653 0
M  V30 9184 H 894.853 -0.391743 -1.90922 0
M  V30 9185 H 893.949 0.61278 -3.06025 0
M  V30 9186 N 894.251 1.57596 -0.0117121 0
M  V30 9187 C 895.181 2.12188 0.9746 0
M  V30 9188 C 896.162 1.03379 1.35081 0
M  V30 9189 O 897.347 1.31123 1.4325 0
M  V30 9190 C 894.477 2.63477 2.26268 0
M  V30 9191 C 893.431 3.76917 2.02774 0
M  V30 9192 C 892.757 4.14566 3.37697 0
M  V30 9193 C 894.057 5.03715 1.38089 0
M  V30 9194 H 895.751 2.9485 0.520007 0
M  V30 9195 H 893.297 1.41836 0.248685 0
M  V30 9196 H 895.25 3.00299 2.95633 0
M  V30 9197 H 893.974 1.77953 2.73862 0
M  V30 9198 H 892.633 3.40507 1.35832 0
M  V30 9199 H 892.281 3.26048 3.83016 0
M  V30 9200 H 891.981 4.91 3.22789 0
M  V30 9201 H 893.505 4.53956 4.08358 0
M  V30 9202 H 894.919 5.38233 1.97428 0
M  V30 9203 H 893.316 5.85032 1.33634 0
M  V30 9204 H 894.386 4.83624 0.351575 0
M  V30 9205 N 895.729 -0.261212 1.5542 0
M  V30 9206 C 896.977 -0.989272 1.76232 0
M  V30 9207 C 897.298 -1.86389 0.573067 0
M  V30 9208 O 896.568 -1.91526 -0.41166 0
M  V30 9209 H 895.148 -0.368256 0.64992 0
M  V30 9210 H 897.81 -0.282603 1.9284 0
M  V30 9211 H 896.906 -1.61935 2.66802 0
M  V30 9212 N 897.207 -1.48554 -0.526253 0
M  V30 9213 C 898.17 -1.62868 -1.61266 0
M  V30 9214 C 899.17 -0.501762 -1.52771 0
M  V30 9215 O 900.36 -0.76764 -1.56374 0
M  V30 9216 C 897.492 -1.60238 -3.00893 0
M  V30 9217 H 898.685 -2.59742 -1.49913 0
M  V30 9218 H 896.238 -1.37207 -0.748595 0
M  V30 9219 H 896.973 -0.648545 -3.17749 0
M  V30 9220 H 896.758 -2.42054 -3.08468 0
M  V30 9221 H 898.248 -1.73455 -3.79872 0
M  V30 9222 N 898.685 0.775411 -1.37205 0
M  V30 9223 C 899.962 1.5229 -1.22748 0
M  V30 9224 C 900.342 2.10327 0.180487 0
M  V30 9225 O 899.69 1.95206 1.18772 0
M  V30 9226 C 899.9 2.60671 -2.3206 0
M  V30 9227 C 901.248 3.28173 -2.6942 0
M  V30 9228 O 902.272 2.70963 -2.31208 0
M  V30 9229 O 901.131 4.31598 -3.3524 0
M  V30 9230 H 898.225 0.674326 -0.478762 0
M  V30 9231 H 900.771 0.812691 -1.48975 0
M  V30 9232 H 899.543 2.1588 -3.26361 0
M  V30 9233 H 899.166 3.39296 -2.07277 0
M  V30 9234 N 900.163 1.21714 1.00117 0
M  V30 9235 C 901.409 1.03823 1.74208 0
M  V30 9236 C 901.742 -0.426733 1.89454 0
M  V30 9237 O 901.017 -1.31658 1.43166 0
M  V30 9238 C 901.3 1.74047 3.15246 0
M  V30 9239 C 901.153 3.28087 3.077 0
M  V30 9240 C 902.472 1.48614 4.14249 0
M  V30 9241 H 899.591 0.378573 0.632338 0
M  V30 9242 H 902.233 1.49942 1.16694 0
M  V30 9243 H 900.383 1.3484 3.64349 0
M  V30 9244 H 902.055 3.76686 2.6628 0
M  V30 9245 H 900.298 3.58191 2.44707 0
M  V30 9246 H 900.969 3.72392 4.07466 0
M  V30 9247 H 903.445 1.82656 3.73866 0
M  V30 9248 H 902.321 2.00257 5.11066 0
M  V30 9249 H 902.582 0.416957 4.40129 0
M  V30 9250 N 901.641 -1.19671 1.02551 0
M  V30 9251 C 902.604 -2.20987 0.608055 0
M  V30 9252 C 903.604 -1.5745 -0.326534 0
M  V30 9253 O 904.794 -1.73827 -0.114003 0
M  V30 9254 C 901.926 -3.4072 -0.11074 0
M  V30 9255 H 903.119 -2.59434 1.50446 0
M  V30 9256 H 900.672 -1.3329 0.816307 0
M  V30 9257 H 901.407 -3.07787 -1.02165 0
M  V30 9258 H 901.192 -3.88069 0.560772 0
M  V30 9259 H 902.682 -4.15776 -0.389848 0
M  V30 9260 N 903.119 -0.802921 -1.35613 0
M  V30 9261 C 904.051 -0.168461 -2.2858 0
M  V30 9262 C 905.064 0.630123 -1.50111 0
M  V30 9263 O 906.253 0.463086 -1.72388 0
M  V30 9264 C 903.353 0.783943 -3.29708 0
M  V30 9265 C 902.526 0.0325165 -4.37388 0
M  V30 9266 C 901.585 0.902859 -5.18396 0
M  V30 9267 O 900.611 0.355144 -5.68091 0
M  V30 9268 N 901.813 2.22542 -5.36149 0
M  V30 9269 H 904.578 -0.96709 -2.83668 0
M  V30 9270 H 902.139 -0.658043 -1.47924 0
M  V30 9271 H 904.131 1.37034 -3.80794 0
M  V30 9272 H 902.701 1.48339 -2.75162 0
M  V30 9273 H 901.921 -0.735057 -3.87286 0
M  V30 9274 H 903.209 -0.485499 -5.06478 0
M  V30 9275 H 902.607 2.69439 -4.97412 0
M  V30 9276 H 901.164 2.76113 -5.90428 0
M  V30 9277 N 904.597 1.47463 -0.556102 0
M  V30 9278 C 905.843 2.02775 -0.0316806 0
M  V30 9279 C 906.176 1.42967 1.3143 0
M  V30 9280 O 905.451 0.584847 1.85499 0
M  V30 9281 C 905.734 3.60046 0.0625742 0
M  V30 9282 C 905.587 4.30288 -1.31043 0
M  V30 9283 C 906.906 4.33195 0.776553 0
M  V30 9284 H 904.025 0.736886 -0.0129869 0
M  V30 9285 H 906.667 1.75904 -0.718177 0
M  V30 9286 H 904.817 3.83071 0.647231 0
M  V30 9287 H 906.489 4.18607 -1.9382 0
M  V30 9288 H 904.732 3.90685 -1.8854 0
M  V30 9289 H 905.403 5.38861 -1.1972 0
M  V30 9290 H 907.879 4.15156 0.280147 0
M  V30 9291 H 906.755 5.42869 0.81146 0
M  V30 9292 H 907.016 4.02336 1.83244 0
M  V30 9293 N 906.075 0.2925 1.54862 0
M  V30 9294 C 907.303 -0.322113 2.04377 0
M  V30 9295 C 907.718 -1.48164 1.17016 0
M  V30 9296 O 907.075 -1.81466 0.19395 0
M  V30 9297 C 907.126 -0.786506 3.5284 0
M  V30 9298 O 906.847 0.326863 4.36879 0
M  V30 9299 C 908.348 -1.46715 4.18318 0
M  V30 9300 H 905.568 -0.0712074 0.667211 0
M  V30 9301 H 908.112 0.429657 1.99935 0
M  V30 9302 H 906.267 -1.48832 3.5767 0
M  V30 9303 H 906.681 -0.0331558 5.2449 0
M  V30 9304 H 908.155 -1.74333 5.23748 0
M  V30 9305 H 908.632 -2.40443 3.67538 0
M  V30 9306 H 909.238 -0.808735 4.1754 0
M  V30 9307 N 907.553 -1.57587 0.0200696 0
M  V30 9308 C 908.801 -1.91046 -0.65922 0
M  V30 9309 C 909.122 -0.896197 -1.73186 0
M  V30 9310 O 908.392 0.0635952 -1.95797 0
M  V30 9311 H 906.972 -0.705163 -0.246483 0
M  V30 9312 H 909.634 -1.94789 0.0657368 0
M  V30 9313 H 908.73 -2.91399 -1.11773 0
M  V30 9314 N 909.032 0.252966 -1.55557 0
M  V30 9315 C 909.995 1.29645 -1.8901 0
M  V30 9316 C 910.995 1.41378 -0.766096 0
M  V30 9317 O 912.185 1.40183 -1.03414 0
M  V30 9318 C 909.317 2.67504 -2.11316 0
M  V30 9319 H 910.51 1.01202 -2.82309 0
M  V30 9320 H 908.063 0.491977 -1.48355 0
M  V30 9321 H 908.798 3.01095 -1.20466 0
M  V30 9322 H 908.583 2.6037 -2.93172 0
M  V30 9323 H 910.073 3.42861 -2.38403 0
M  V30 9324 N 910.51 1.48831 0.518367 0
M  V30 9325 C 911.44 1.67119 1.63075 0
M  V30 9326 C 912.421 0.519948 1.61958 0
M  V30 9327 O 913.606 0.753824 1.78972 0
M  V30 9328 C 910.736 1.72158 3.01627 0
M  V30 9329 C 909.69 2.86898 3.17606 0
M  V30 9330 C 909.016 2.77035 4.57335 0
M  V30 9331 C 910.316 4.28057 2.99274 0
M  V30 9332 H 912.01 2.60248 1.48025 0
M  V30 9333 H 909.556 1.2524 0.710694 0
M  V30 9334 H 911.509 1.83539 3.7933 0
M  V30 9335 H 910.233 0.756157 3.17726 0
M  V30 9336 H 908.892 2.75091 2.42323 0
M  V30 9337 H 908.54 1.78438 4.70286 0
M  V30 9338 H 908.24 3.54036 4.6897 0
M  V30 9339 H 909.764 2.904 5.37122 0
M  V30 9340 H 911.178 4.40636 3.6676 0
M  V30 9341 H 909.575 5.06145 3.22393 0
M  V30 9342 H 910.645 4.4371 1.95574 0
M  V30 9343 N 911.988 -0.768124 1.37614 0
M  V30 9344 C 913.404 -1.06919 1.18493 0
M  V30 9345 C 913.604 -2.01486 0.0235753 0
M  V30 9346 O 912.66 -2.4438 -0.635209 0
M  V30 9347 C 913.973 -1.66321 2.50515 0
M  V30 9348 C 915.521 -1.78562 2.57069 0
M  V30 9349 C 915.996 -2.41377 3.89231 0
M  V30 9350 N 917.487 -2.48824 3.90693 0
M  V30 9351 C 918.222 -2.98288 4.89706 0
M  V30 9352 N 917.718 -3.47897 5.99115 0
M  V30 9353 N 919.511 -2.97196 4.77107 0
M  V30 9354 H 911.662 -0.140286 2.11936 0
M  V30 9355 H 913.925 -0.124863 0.939741 0
M  V30 9356 H 913.631 -1.04303 3.35878 0
M  V30 9357 H 913.505 -2.65571 2.67866 0
M  V30 9358 H 915.892 -2.39712 1.72111 0
M  V30 9359 H 915.973 -0.780574 2.43599 0
M  V30 9360 H 915.617 -1.80866 4.74605 0
M  V30 9361 H 915.547 -3.42495 4.00006 0
M  V30 9362 H 918.038 -2.1372 3.1166 0
M  V30 9363 H 918.351 -3.84053 6.70614 0
M  V30 9364 H 916.696 -3.45993 6.02755 0
M  V30 9365 H 919.887 -2.57741 3.90752 0
M  V30 9366 H 920.06 -3.35434 5.54426 0
M  V30 9367 N 913.466 -1.22244 -0.994698 0
M  V30 9368 C 914.691 -1.07299 -1.77487 0
M  V30 9369 C 915.116 0.372302 -1.84379 0
M  V30 9370 O 914.474 1.2689 -1.29494 0
M  V30 9371 C 914.522 -1.68675 -3.18718 0
M  V30 9372 O 913.626 -0.939202 -4.01563 0
M  V30 9373 H 912.967 -0.376979 -0.546611 0
M  V30 9374 H 915.497 -1.62003 -1.24965 0
M  V30 9375 H 915.507 -1.73324 -3.69354 0
M  V30 9376 H 914.182 -2.73849 -3.13017 0
M  V30 9377 H 912.759 -0.968583 -3.60101 0
M  V30 9378 N 914.944 1.19125 -1.03184 0
M  V30 9379 C 916.192 1.8851 -0.728587 0
M  V30 9380 C 916.513 1.80195 0.74531 0
M  V30 9381 O 915.783 1.21437 1.5372 0
M  V30 9382 H 914.363 0.69784 -0.266511 0
M  V30 9383 H 917.025 1.44607 -1.3067 0
M  V30 9384 H 916.121 2.9477 -1.02554 0
M  V30 9385 N 916.422 0.810101 1.35185 0
M  V30 9386 C 917.838 0.494269 1.51754 0
M  V30 9387 C 918.038 -0.983907 1.75845 0
M  V30 9388 O 917.094 -1.76882 1.80191 0
M  V30 9389 C 918.407 1.34268 2.69059 0
M  V30 9390 C 919.955 1.33848 2.82938 0
M  V30 9391 C 920.43 2.17109 4.03271 0
M  V30 9392 N 921.921 2.14664 4.10456 0
M  V30 9393 C 922.656 2.75843 5.02691 0
M  V30 9394 N 922.152 3.45962 6.00235 0
M  V30 9395 N 923.945 2.65465 4.95464 0
M  V30 9396 H 916.096 1.76736 1.17805 0
M  V30 9397 H 918.359 0.752429 0.576676 0
M  V30 9398 H 918.065 2.39183 2.57845 0
M  V30 9399 H 917.939 0.998362 3.63748 0
M  V30 9400 H 920.326 0.29716 2.936 0
M  V30 9401 H 920.407 1.72269 1.89095 0
M  V30 9402 H 920.051 3.21283 3.93369 0
M  V30 9403 H 919.981 1.76046 4.96302 0
M  V30 9404 H 922.472 1.63648 3.40628 0
M  V30 9405 H 922.785 3.89922 6.67219 0
M  V30 9406 H 921.13 3.50067 6.00398 0
M  V30 9407 H 924.321 2.1027 4.18215 0
M  V30 9408 H 924.494 3.13433 5.67154 0
M  V30 9409 N 917.9 -1.47166 0.563914 0
M  V30 9410 C 919.148 -2.02056 0.0422873 0
M  V30 9411 C 919.469 -1.43992 -1.31497 0
M  V30 9412 O 918.739 -0.617578 -1.85911 0
M  V30 9413 H 917.319 -0.746893 0.0126427 0
M  V30 9414 H 919.981 -1.80492 0.735441 0
M  V30 9415 H 919.077 -3.12073 -0.0408044 0
M  V30 9416 N 919.378 -0.300708 -1.54705 0
M  V30 9417 C 920.325 0.57552 -2.23509 0
M  V30 9418 C 921.295 1.12979 -1.21758 0
M  V30 9419 O 922.48 1.17437 -1.50377 0
M  V30 9420 C 919.62 1.74167 -2.97926 0
M  V30 9421 C 918.733 1.21882 -4.1445 0
M  V30 9422 C 917.868 2.34881 -4.7645 0
M  V30 9423 C 916.907 1.79729 -5.85119 0
M  V30 9424 N 916.044 2.863 -6.41075 0
M  V30 9425 H 920.884 -0.0178257 -2.97995 0
M  V30 9426 H 918.421 -0.0205666 -1.47086 0
M  V30 9427 H 920.379 2.42753 -3.39303 0
M  V30 9428 H 919.009 2.30665 -2.25817 0
M  V30 9429 H 918.061 0.425227 -3.78016 0
M  V30 9430 H 919.373 0.775065 -4.92741 0
M  V30 9431 H 918.527 3.11415 -5.20678 0
M  V30 9432 H 917.266 2.82584 -3.97489 0
M  V30 9433 H 916.271 1.01684 -5.40315 0
M  V30 9434 H 917.496 1.32931 -6.65963 0
M  V30 9435 H 915.442 3.33337 -5.64998 0
M  V30 9436 H 915.359 2.46419 -7.14712 0
M  V30 9437 H 916.627 3.62732 -6.89961 0
M  V30 9438 N 920.856 1.57574 -0.0284266 0
M  V30 9439 C 921.789 2.05684 0.988401 0
M  V30 9440 C 922.767 0.952468 1.31783 0
M  V30 9441 O 923.951 1.22274 1.43462 0
M  V30 9442 C 921.078 2.47832 2.30862 0
M  V30 9443 C 920.124 3.69282 2.13384 0
M  V30 9444 S 920.957 5.15962 1.43331 0
M  V30 9445 C 922.113 5.61404 2.76723 0
M  V30 9446 H 922.346 2.9161 0.578873 0
M  V30 9447 H 919.879 1.53309 0.183244 0
M  V30 9448 H 921.837 2.7278 3.06759 0
M  V30 9449 H 920.498 1.62253 2.68947 0
M  V30 9450 H 919.691 3.96618 3.10983 0
M  V30 9451 H 919.293 3.44482 1.45629 0
M  V30 9452 H 921.585 5.65601 3.72963 0
M  V30 9453 H 922.528 6.60956 2.54053 0
M  V30 9454 H 922.936 4.89051 2.81939 0
M  V30 9455 N 922.334 -0.244713 1.55689 0
M  V30 9456 C 923.264 -1.30667 1.93516 0
M  V30 9457 C 924.245 -1.50094 0.800371 0
M  V30 9458 O 925.43 -1.62665 1.06083 0
M  V30 9459 C 922.56 -2.66101 2.23176 0
M  V30 9460 C 921.514 -2.61366 3.38927 0
M  V30 9461 C 920.84 -4.00616 3.54134 0
M  V30 9462 C 922.14 -2.18161 4.74555 0
M  V30 9463 H 923.834 -0.992546 2.82469 0
M  V30 9464 H 921.38 -0.476018 1.35905 0
M  V30 9465 H 923.333 -3.4053 2.48228 0
M  V30 9466 H 922.057 -2.99154 1.31051 0
M  V30 9467 H 920.716 -1.89395 3.13887 0
M  V30 9468 H 920.364 -4.30938 2.59426 0
M  V30 9469 H 920.064 -3.98335 4.31975 0
M  V30 9470 H 921.588 -4.76741 3.8151 0
M  V30 9471 H 923.002 -2.82323 4.98965 0
M  V30 9472 H 921.399 -2.26988 5.55515 0
M  V30 9473 H 922.469 -1.13333 4.7147 0
M  V30 9474 N 923.813 -1.49104 -0.510467 0
M  V30 9475 C 924.743 -1.67981 -1.62187 0
M  V30 9476 C 925.724 -0.528529 -1.6168 0
M  V30 9477 O 926.909 -0.763305 -1.7857 0
M  V30 9478 C 924.039 -1.73755 -3.0071 0
M  V30 9479 C 922.993 -2.88579 -3.1608 0
M  V30 9480 C 922.319 -2.79457 -4.5586 0
M  V30 9481 C 923.619 -4.29638 -2.97 0
M  V30 9482 H 925.313 -2.61029 -1.46643 0
M  V30 9483 H 922.859 -1.25615 -0.704042 0
M  V30 9484 H 924.812 -1.85548 -3.78352 0
M  V30 9485 H 923.536 -0.772996 -3.17321 0
M  V30 9486 H 922.195 -2.76372 -2.40861 0
M  V30 9487 H 921.843 -1.80929 -4.69333 0
M  V30 9488 H 921.543 -3.56518 -4.67086 0
M  V30 9489 H 923.067 -2.93245 -5.35574 0
M  V30 9490 H 924.481 -4.42575 -3.64418 0
M  V30 9491 H 922.878 -5.07847 -3.19704 0
M  V30 9492 H 923.948 -4.44741 -1.93219 0
M  V30 9493 N 925.291 0.760815 -1.38019 0
M  V30 9494 C 926.538 1.51973 -1.3383 0
M  V30 9495 C 926.866 1.9436 0.0738855 0
M  V30 9496 O 926.121 1.65181 1.04946 0
M  V30 9497 C 926.42 2.79024 -2.23339 0
M  V30 9498 C 926.086 2.55636 -3.71431 0
M  V30 9499 C 924.748 2.48966 -4.11788 0
M  V30 9500 C 927.1 2.35018 -4.65205 0
M  V30 9501 C 924.428 2.19684 -5.44018 0
M  V30 9502 C 926.78 2.07258 -5.97685 0
M  V30 9503 C 925.444 1.9904 -6.37134 0
M  V30 9504 H 924.714 0.556108 -0.489719 0
M  V30 9505 H 927.361 0.87545 -1.70318 0
M  V30 9506 H 925.666 3.48065 -1.79883 0
M  V30 9507 H 927.363 3.36951 -2.17405 0
M  V30 9508 H 923.953 2.61695 -3.39432 0
M  V30 9509 H 928.137 2.39154 -4.34878 0
M  V30 9510 H 923.393 2.11825 -5.73533 0
M  V30 9511 H 927.567 1.90307 -6.69893 0
M  V30 9512 H 925.194 1.76115 -7.39519 0
M  V30 9513 N 926.769 1.22769 0.988202 0
M  V30 9514 C 927.994 1.08239 1.76915 0
M  V30 9515 C 928.419 -0.362519 1.84574 0
M  V30 9516 O 927.777 -1.26202 1.30165 0
M  V30 9517 C 927.825 1.70363 3.17819 0
M  V30 9518 O 926.929 0.960484 4.01059 0
M  V30 9519 H 926.27 0.379872 0.544604 0
M  V30 9520 H 928.8 1.62663 1.24104 0
M  V30 9521 H 928.81 1.7528 3.6843 0
M  V30 9522 H 927.485 2.75505 3.1156 0
M  V30 9523 H 926.062 0.987667 3.59582 0
M  V30 9524 N 928.247 -1.18576 1.03814 0
M  V30 9525 C 929.495 -1.88121 0.738574 0
M  V30 9526 C 929.816 -1.80587 -0.735744 0
M  V30 9527 O 929.086 -1.22251 -1.53074 0
M  V30 9528 H 927.666 -0.696417 0.270208 0
M  V30 9529 H 930.328 -1.43912 1.31435 0
M  V30 9530 H 929.424 -2.94222 1.04115 0
M  V30 9531 N 929.725 -0.817259 -1.34754 0
M  V30 9532 C 931.141 -0.502309 -1.51489 0
M  V30 9533 C 931.341 0.974568 -1.76364 0
M  V30 9534 O 930.397 1.75924 -1.81127 0
M  V30 9535 C 931.71 -1.35693 -2.68343 0
M  V30 9536 C 933.258 -1.35347 -2.82224 0
M  V30 9537 C 933.733 -2.19244 -4.02114 0
M  V30 9538 N 935.224 -2.16837 -4.09311 0
M  V30 9539 C 935.959 -2.78505 -5.01221 0
M  V30 9540 N 935.455 -3.4914 -5.98392 0
M  V30 9541 N 937.248 -2.68089 -4.94049 0
M  V30 9542 H 929.399 -1.77359 -1.16866 0
M  V30 9543 H 931.662 -0.755476 -0.572678 0
M  V30 9544 H 931.368 -2.40548 -2.56573 0
M  V30 9545 H 931.242 -1.01764 -3.63213 0
M  V30 9546 H 933.629 -0.312727 -2.93438 0
M  V30 9547 H 933.71 -1.7327 -1.88179 0
M  V30 9548 H 933.354 -3.23365 -3.9166 0
M  V30 9549 H 933.284 -1.78675 -4.95361 0
M  V30 9550 H 935.775 -1.65452 -3.39756 0
M  V30 9551 H 936.088 -3.93455 -6.65141 0
M  V30 9552 H 934.433 -3.53246 -5.98533 0
M  V30 9553 H 937.624 -2.12485 -4.17094 0
M  V30 9554 H 937.797 -3.16436 -5.65484 0
M  V30 9555 N 931.203 1.46865 -0.571711 0
M  V30 9556 C 932.619 1.57897 -0.23255 0
M  V30 9557 C 932.819 1.56836 1.26509 0
M  V30 9558 O 931.875 1.47947 2.04617 0
M  V30 9559 C 933.188 2.87778 -0.872036 0
M  V30 9560 C 934.736 3.01389 -0.844605 0
M  V30 9561 C 935.211 4.33991 -1.46343 0
M  V30 9562 N 936.702 4.40662 -1.42727 0
M  V30 9563 C 937.437 5.41858 -1.87557 0
M  V30 9564 N 936.933 6.49787 -2.4031 0
M  V30 9565 N 938.726 5.32992 -1.7854 0
M  V30 9566 H 930.877 1.45798 -1.54457 0
M  V30 9567 H 933.14 0.694785 -0.644964 0
M  V30 9568 H 932.846 2.94332 -1.92513 0
M  V30 9569 H 932.72 3.75345 -0.373677 0
M  V30 9570 H 935.107 2.94423 0.19984 0
M  V30 9571 H 935.188 2.15327 -1.38087 0
M  V30 9572 H 934.832 4.41714 -2.50701 0
M  V30 9573 H 934.762 5.18809 -0.902479 0
M  V30 9574 H 937.253 3.63263 -1.04155 0
M  V30 9575 H 937.566 7.23199 -2.72403 0
M  V30 9576 H 935.911 6.50637 -2.44329 0
M  V30 9577 H 939.102 4.47575 -1.37093 0
M  V30 9578 H 939.275 6.11716 -2.13794 0
M  V30 9579 N 932.681 0.308908 1.54543 0
M  V30 9580 C 933.611 -0.556657 2.26768 0
M  V30 9581 C 934.592 -1.13145 1.27013 0
M  V30 9582 O 935.777 -1.15931 1.558 0
M  V30 9583 C 932.907 -1.72481 3.01443 0
M  V30 9584 C 931.861 -1.28001 4.08411 0
M  V30 9585 C 931.187 -2.53395 4.70845 0
M  V30 9586 C 932.487 -0.405497 5.20724 0
M  V30 9587 H 934.181 0.0457618 2.99365 0
M  V30 9588 H 931.727 0.0234495 1.43981 0
M  V30 9589 H 933.68 -2.3365 3.50693 0
M  V30 9590 H 932.404 -2.35359 2.26437 0
M  V30 9591 H 931.063 -0.69133 3.60022 0
M  V30 9592 H 930.711 -3.14604 3.92471 0
M  V30 9593 H 930.411 -2.2433 5.43093 0
M  V30 9594 H 931.935 -3.15352 5.22863 0
M  V30 9595 H 933.349 -0.923076 5.6582 0
M  V30 9596 H 931.746 -0.208282 5.99738 0
M  V30 9597 H 932.816 0.567412 4.81569 0
M  V30 9598 N 934.159 -1.57557 0.0367827 0
M  V30 9599 C 935.405 -1.93224 -0.635306 0
M  V30 9600 C 935.76 -0.914194 -1.69293 0
M  V30 9601 O 935.053 0.0686974 -1.91477 0
M  V30 9602 C 935.247 -3.33387 -1.28794 0
M  V30 9603 C 935.076 -4.48731 -0.295055 0
M  V30 9604 C 933.846 -5.05185 0.10783 0
M  V30 9605 C 936.044 -5.12294 0.453749 0
M  V30 9606 N 934.026 -6.04054 1.09508 0
M  V30 9607 C 935.397 -6.06335 1.29452 0
M  V30 9608 C 937.452 -4.95244 0.513622 0
M  V30 9609 C 936.155 -6.85158 2.18977 0
M  V30 9610 C 938.181 -5.74682 1.39624 0
M  V30 9611 C 937.543 -6.68344 2.22477 0
M  V30 9612 H 933.642 -0.754772 -0.204555 0
M  V30 9613 H 936.226 -1.94413 0.105751 0
M  V30 9614 H 934.397 -3.33002 -1.9991 0
M  V30 9615 H 936.129 -3.56381 -1.91767 0
M  V30 9616 H 932.884 -4.7284 -0.268192 0
M  V30 9617 H 933.308 -6.5818 1.58518 0
M  V30 9618 H 937.95 -4.2265 -0.112699 0
M  V30 9619 H 935.668 -7.57052 2.82661 0
M  V30 9620 H 939.254 -5.6352 1.44696 0
M  V30 9621 H 938.134 -7.2874 2.89668 0
M  V30 9622 N 935.637 0.236453 -1.55816 0
M  V30 9623 C 937.053 0.585465 -1.48474 0
M  V30 9624 C 937.253 1.8785 -0.72902 0
M  V30 9625 O 936.309 2.51131 -0.262614 0
M  V30 9626 C 937.622 0.678506 -2.92945 0
M  V30 9627 C 939.17 0.770135 -3.03378 0
M  V30 9628 C 939.645 0.894649 -4.49177 0
M  V30 9629 N 941.136 0.959253 -4.53158 0
M  V30 9630 C 941.871 1.07505 -5.63232 0
M  V30 9631 N 941.367 1.15572 -6.83092 0
M  V30 9632 N 943.16 1.10902 -5.51051 0
M  V30 9633 H 935.311 -0.612241 -2.03385 0
M  V30 9634 H 937.574 -0.212796 -0.923808 0
M  V30 9635 H 937.28 -0.201757 -3.51121 0
M  V30 9636 H 937.154 1.54703 -3.44016 0
M  V30 9637 H 939.541 1.64085 -2.45276 0
M  V30 9638 H 939.622 -0.123753 -2.555 0
M  V30 9639 H 939.266 0.0284537 -5.07892 0
M  V30 9640 H 939.196 1.80373 -4.94745 0
M  V30 9641 H 941.687 0.907827 -3.66834 0
M  V30 9642 H 942 1.24343 -7.62731 0
M  V30 9643 H 940.345 1.12511 -6.85833 0
M  V30 9644 H 943.536 1.04255 -4.56343 0
M  V30 9645 H 943.709 1.19581 -6.36871 0
M  V30 9646 N 937.115 1.49373 0.502552 0
M  V30 9647 C 938.362 1.58781 1.25678 0
M  V30 9648 C 938.69 0.273819 1.92563 0
M  V30 9649 O 937.945 -0.738141 1.81246 0
M  V30 9650 C 938.244 2.69508 2.34735 0
M  V30 9651 C 937.91 4.11057 1.85318 0
M  V30 9652 C 936.572 4.49578 1.7156 0
M  V30 9653 C 938.924 4.99653 1.48312 0
M  V30 9654 C 936.252 5.74469 1.19172 0
M  V30 9655 C 938.604 6.2506 0.97377 0
M  V30 9656 C 937.268 6.62412 0.822573 0
M  V30 9657 H 936.538 0.581021 0.459887 0
M  V30 9658 H 939.185 1.83197 0.557767 0
M  V30 9659 H 937.49 2.39057 3.10418 0
M  V30 9660 H 939.187 2.73997 2.92791 0
M  V30 9661 H 935.777 3.80651 1.96985 0
M  V30 9662 H 939.961 4.70549 1.57789 0
M  V30 9663 H 935.217 6.0211 1.06176 0
M  V30 9664 H 939.391 6.93089 0.678233 0
M  V30 9665 H 937.018 7.59069 0.414453 0
M  V30 9666 N 938.594 -0.753485 1.38421 0
M  V30 9667 C 939.871 -1.50318 1.25155 0
M  V30 9668 C 940.251 -2.10588 -0.147003 0
M  V30 9669 O 939.599 -1.97071 -1.15651 0
M  V30 9670 C 939.809 -2.56946 2.36177 0
M  V30 9671 C 941.157 -3.23846 2.74607 0
M  V30 9672 O 942.181 -2.67251 2.3549 0
M  V30 9673 O 941.04 -4.2621 3.42064 0
M  V30 9674 H 938.134 -0.666624 0.48943 0
M  V30 9675 H 940.68 -0.788887 1.50249 0
M  V30 9676 H 939.452 -2.1066 3.29754 0
M  V30 9677 H 939.075 -3.35956 2.12648 0
M  V30 9678 N 940.072 -1.23292 -0.981677 0
M  V30 9679 C 941.318 -1.06582 -1.72535 0
M  V30 9680 C 941.651 0.396538 -1.90108 0
M  V30 9681 O 940.926 1.29363 -1.45243 0
M  V30 9682 C 941.209 -1.7904 -3.12437 0
M  V30 9683 C 941.062 -3.32941 -3.02441 0
M  V30 9684 C 942.381 -1.55185 -4.11832 0
M  V30 9685 H 939.5 -0.388585 -0.626236 0
M  V30 9686 H 942.142 -1.51779 -1.14293 0
M  V30 9687 H 940.292 -1.40619 -3.62158 0
M  V30 9688 H 941.964 -3.80875 -2.60254 0
M  V30 9689 H 940.207 -3.62039 -2.38977 0
M  V30 9690 H 940.878 -3.78827 -4.0149 0
M  V30 9691 H 943.354 -1.88581 -3.70913 0
M  V30 9692 H 942.23 -2.08362 -5.07815 0
M  V30 9693 H 942.491 -0.486925 -4.3941 0
M  V30 9694 N 941.55 1.18024 -1.04442 0
M  V30 9695 C 942.497 2.21785 -0.638759 0
M  V30 9696 C 943.467 1.62255 0.355312 0
M  V30 9697 O 944.652 1.89176 0.24844 0
M  V30 9698 C 941.792 3.45098 -0.0118002 0
M  V30 9699 C 940.905 4.1895 -1.05379 0
M  V30 9700 C 940.04 5.2973 -0.394951 0
M  V30 9701 C 939.079 5.95359 -1.42178 0
M  V30 9702 N 938.216 6.97668 -0.787635 0
M  V30 9703 H 943.056 2.55839 -1.52808 0
M  V30 9704 H 940.593 1.25681 -0.764378 0
M  V30 9705 H 942.551 4.15564 0.369075 0
M  V30 9706 H 941.181 3.11652 0.84102 0
M  V30 9707 H 940.233 3.47274 -1.55258 0
M  V30 9708 H 941.545 4.63877 -1.83355 0
M  V30 9709 H 940.699 6.06687 0.0399244 0
M  V30 9710 H 939.438 4.85915 0.416867 0
M  V30 9711 H 938.443 5.17139 -1.86675 0
M  V30 9712 H 939.668 6.41255 -2.23536 0
M  V30 9713 H 937.614 6.56 0.00380893 0
M  V30 9714 H 937.531 7.40867 -1.50505 0
M  V30 9715 H 938.799 7.78586 -0.377282 0
M  V30 9716 N 943.028 0.824394 1.34319 0
M  V30 9717 C 943.991 0.252696 2.27803 0
M  V30 9718 C 944.991 -0.570254 1.50349 0
M  V30 9719 O 946.181 -0.386145 1.69866 0
M  V30 9720 C 943.313 -0.645575 3.34731 0
M  V30 9721 H 944.506 1.07742 2.79878 0
M  V30 9722 H 942.059 0.596367 1.44475 0
M  V30 9723 H 942.794 -1.4933 2.87873 0
M  V30 9724 H 942.579 -0.0569478 3.92059 0
M  V30 9725 H 944.069 -1.03933 4.0446 0
M  V30 9726 N 944.506 -1.46559 0.579492 0
M  V30 9727 C 945.438 -2.28383 -0.19337 0
M  V30 9728 C 946.451 -1.38324 -0.858511 0
M  V30 9729 O 947.64 -1.62952 -0.728615 0
M  V30 9730 C 944.74 -3.13262 -1.29306 0
M  V30 9731 C 943.913 -4.31426 -0.720459 0
M  V30 9732 C 942.972 -4.97728 -1.70744 0
M  V30 9733 O 941.998 -5.55423 -1.24476 0
M  V30 9734 N 943.2 -4.94445 -3.04146 0
M  V30 9735 H 945.965 -2.95353 0.508611 0
M  V30 9736 H 943.526 -1.56436 0.417046 0
M  V30 9737 H 945.518 -3.54483 -1.95254 0
M  V30 9738 H 944.088 -2.48388 -1.89795 0
M  V30 9739 H 943.308 -3.94028 0.116398 0
M  V30 9740 H 944.596 -5.07808 -0.31763 0
M  V30 9741 H 943.994 -4.4881 -3.44363 0
M  V30 9742 H 942.551 -5.39616 -3.65592 0
M  V30 9743 N 945.984 -0.3171 -1.54377 0
M  V30 9744 C 946.917 0.594178 -2.20329 0
M  V30 9745 C 947.895 1.12067 -1.17812 0
M  V30 9746 O 949.079 1.18588 -1.46524 0
M  V30 9747 C 946.206 1.81463 -2.85987 0
M  V30 9748 C 945.252 1.41996 -4.02168 0
M  V30 9749 S 946.085 0.462159 -5.33502 0
M  V30 9750 C 947.241 1.69004 -6.02651 0
M  V30 9751 H 947.474 0.0339261 -2.97281 0
M  V30 9752 H 945.007 -0.101196 -1.54068 0
M  V30 9753 H 946.965 2.51494 -3.2444 0
M  V30 9754 H 945.626 2.34606 -2.08851 0
M  V30 9755 H 944.819 2.32921 -4.4695 0
M  V30 9756 H 944.421 0.799423 -3.65356 0
M  V30 9757 H 946.713 2.62839 -6.24437 0
M  V30 9758 H 947.656 1.28451 -6.96352 0
M  V30 9759 H 948.064 1.87408 -5.32483 0
M  V30 9760 N 947.462 1.57535 -0.0451378 0
M  V30 9761 C 948.708 1.92736 0.630921 0
M  V30 9762 C 949.041 0.923265 1.70849 0
M  V30 9763 O 948.316 -0.0516512 1.94431 0
M  V30 9764 C 948.599 3.38348 1.23259 0
M  V30 9765 C 948.452 4.49503 0.16349 0
M  V30 9766 C 949.771 3.84233 2.14599 0
M  V30 9767 H 946.89 0.700884 0.227883 0
M  V30 9768 H 949.532 1.89706 -0.10567 0
M  V30 9769 H 947.682 3.41061 1.86037 0
M  V30 9770 H 949.354 4.58919 -0.46808 0
M  V30 9771 H 947.597 4.30802 -0.509166 0
M  V30 9772 H 948.268 5.48457 0.624382 0
M  V30 9773 H 950.744 3.83358 1.6179 0
M  V30 9774 H 949.62 4.86781 2.53644 0
M  V30 9775 H 949.881 3.20646 3.04366 0
M  V30 9776 N 948.94 -0.228186 1.55939 0
M  V30 9777 C 950.217 -0.977492 1.69424 0
M  V30 9778 C 950.597 -2.02674 0.590479 0
M  V30 9779 O 949.945 -2.2491 -0.403467 0
M  V30 9780 C 950.155 -1.59394 3.10475 0
M  V30 9781 C 951.503 -2.08871 3.69673 0
M  V30 9782 O 952.527 -1.693 3.13394 0
M  V30 9783 O 951.386 -2.81584 4.68372 0
M  V30 9784 H 948.48 -0.456185 0.6898 0
M  V30 9785 H 951.026 -0.220492 1.68261 0
M  V30 9786 H 949.798 -0.835971 3.82266 0
M  V30 9787 H 949.421 -2.41665 3.15727 0
M  V30 9788 N 950.418 -1.49637 -0.494624 0
M  V30 9789 C 951.829 -1.52573 -1.07603 0
M  V30 9790 C 952.18 -0.315591 -1.93645 0
M  V30 9791 O 951.305 0.573966 -2.08649 0
M  V30 9792 C 951.9 -2.7648 -1.95817 0
M  V30 9793 C 950.459 -2.82173 -2.49109 0
M  V30 9794 C 949.606 -2.4657 -1.2688 0
M  V30 9795 H 952.557 -1.56242 -0.278251 0
M  V30 9796 H 952.578 -2.57003 -2.80588 0
M  V30 9797 H 952.09 -3.64538 -1.33167 0
M  V30 9798 H 950.191 -1.9841 -3.15379 0
M  V30 9799 H 950.304 -3.84501 -2.85825 0
M  V30 9800 H 948.668 -1.98489 -1.59607 0
M  V30 9801 H 949.451 -3.3691 -0.659281 0
M  V30 9802 N 951.896 0.746133 -1.38819 0
M  V30 9803 C 953.312 1.0502 -1.20179 0
M  V30 9804 C 953.512 2.01423 -0.0556271 0
M  V30 9805 O 952.568 2.45359 0.59625 0
M  V30 9806 C 953.881 1.62315 -2.53129 0
M  V30 9807 C 955.429 1.74449 -2.59878 0
M  V30 9808 C 955.904 2.35155 -3.93022 0
M  V30 9809 N 957.395 2.42577 -3.94602 0
M  V30 9810 C 958.13 2.9046 -4.94389 0
M  V30 9811 N 957.626 3.38322 -6.04574 0
M  V30 9812 N 959.419 2.89568 -4.81775 0
M  V30 9813 H 951.57 0.106551 -2.12133 0
M  V30 9814 H 953.833 0.109897 -0.941609 0
M  V30 9815 H 953.539 0.98946 -3.37495 0
M  V30 9816 H 953.413 2.61276 -2.72057 0
M  V30 9817 H 955.8 2.36943 -1.75903 0
M  V30 9818 H 955.881 0.741721 -2.4481 0
M  V30 9819 H 955.525 1.73292 -4.77422 0
M  V30 9820 H 955.455 3.36088 -4.05404 0
M  V30 9821 H 957.946 2.08735 -3.15021 0
M  V30 9822 H 958.259 3.73336 -6.76639 0
M  V30 9823 H 956.604 3.3636 -6.08184 0
M  V30 9824 H 959.795 2.51492 -3.94803 0
M  V30 9825 H 959.968 3.26571 -5.59692 0
M  V30 9826 N 953.375 1.23811 0.975125 0
M  V30 9827 C 954.6 1.10109 1.75757 0
M  V30 9828 C 955.025 -0.342922 1.84948 0
M  V30 9829 O 954.383 -1.24814 1.31496 0
M  V30 9830 C 954.431 1.73724 3.15994 0
M  V30 9831 O 953.535 1.00297 4.00018 0
M  V30 9832 H 952.876 0.385627 0.540544 0
M  V30 9833 H 955.406 1.63971 1.22372 0
M  V30 9834 H 955.416 1.79178 3.6655 0
M  V30 9835 H 954.091 2.78794 3.0862 0
M  V30 9836 H 952.668 1.02575 3.58515 0
M  V30 9837 N 954.853 -1.17469 1.05066 0
M  V30 9838 C 955.816 -2.19648 0.654793 0
M  V30 9839 C 956.816 -1.58107 -0.293063 0
M  V30 9840 O 958.006 -1.74029 -0.077106 0
M  V30 9841 C 955.138 -3.40878 -0.0384437 0
M  V30 9842 H 956.331 -2.56184 1.55915 0
M  V30 9843 H 953.884 -1.31528 0.844396 0
M  V30 9844 H 954.619 -3.09885 -0.956133 0
M  V30 9845 H 954.404 -3.86792 0.642961 0
M  V30 9846 H 955.894 -4.1651 -0.301568 0
M  V30 9847 N 956.331 -0.831506 -1.3388 0
M  V30 9848 C 957.556 -0.435954 -2.02766 0
M  V30 9849 C 957.981 0.952889 -1.62178 0
M  V30 9850 O 957.339 1.62166 -0.810681 0
M  V30 9851 C 957.387 -0.555907 -3.56289 0
M  V30 9852 O 956.491 0.420826 -4.10247 0
M  V30 9853 H 955.832 -0.178248 -0.639628 0
M  V30 9854 H 958.362 -1.1243 -1.70941 0
M  V30 9855 H 958.372 -0.434831 -4.05676 0
M  V30 9856 H 957.047 -1.56881 -3.85177 0
M  V30 9857 H 955.624 0.257919 -3.72007 0
M  V30 9858 N 957.809 1.4625 -0.587256 0
M  V30 9859 C 958.719 2.34147 0.145744 0
M  V30 9860 C 959.735 1.50026 0.881376 0
M  V30 9861 O 960.911 1.82884 0.843539 0
M  V30 9862 C 957.976 3.27294 1.14366 0
M  V30 9863 C 957.037 4.27317 0.412199 0
M  V30 9864 C 956.27 5.16013 1.36257 0
M  V30 9865 O 956.493 5.0773 2.59934 0
M  V30 9866 O 955.427 5.95569 0.870681 0
M  V30 9867 H 959.253 2.98187 -0.576055 0
M  V30 9868 H 956.838 1.45299 -0.347628 0
M  V30 9869 H 958.72 3.84747 1.71894 0
M  V30 9870 H 957.395 2.65845 1.84684 0
M  V30 9871 H 956.302 3.73538 -0.205036 0
M  V30 9872 H 957.635 4.91564 -0.250104 0
M  V30 9873 N 959.287 0.325282 1.54207 0
M  V30 9874 C 960.533 -0.277185 2.00897 0
M  V30 9875 C 960.866 -1.51651 1.21308 0
M  V30 9876 O 960.141 -1.92237 0.295825 0
M  V30 9877 C 960.424 -0.60961 3.54902 0
M  V30 9878 C 960.277 0.640542 4.45216 0
M  V30 9879 C 961.596 -1.42656 4.16338 0
M  V30 9880 H 958.715 -0.0992722 0.730284 0
M  V30 9881 H 961.357 0.442201 1.84783 0
M  V30 9882 H 959.507 -1.22249 3.68765 0
M  V30 9883 H 961.179 1.27878 4.43221 0
M  V30 9884 H 959.422 1.26908 4.14821 0
M  V30 9885 H 960.093 0.363459 5.50802 0
M  V30 9886 H 962.569 -0.908494 4.06061 0
M  V30 9887 H 961.445 -1.62792 5.24204 0
M  V30 9888 H 961.706 -2.42321 3.69774 0
M  V30 9889 N 960.765 -1.57509 0.0534917 0
M  V30 9890 C 962.042 -1.84137 -0.659767 0
M  V30 9891 C 962.422 -0.942362 -1.88899 0
M  V30 9892 O 961.77 -0.00398566 -2.285 0
M  V30 9893 C 961.98 -3.33919 -1.01486 0
M  V30 9894 C 963.328 -4.00989 -1.39616 0
M  V30 9895 O 964.352 -3.38557 -1.10713 0
M  V30 9896 O 963.211 -5.11071 -1.93567 0
M  V30 9897 H 960.305 -0.760081 -0.325893 0
M  V30 9898 H 962.851 -1.69497 0.0830315 0
M  V30 9899 H 961.623 -3.91046 -0.141041 0
M  V30 9900 H 961.246 -3.53755 -1.81503 0
M  V30 9901 N 962.243 0.219913 -1.56058 0
M  V30 9902 C 963.659 0.569685 -1.49086 0
M  V30 9903 C 963.859 1.87066 -0.748903 0
M  V30 9904 O 962.915 2.50838 -0.289235 0
M  V30 9905 C 964.228 0.647397 -2.93648 0
M  V30 9906 C 965.776 0.737914 -3.04177 0
M  V30 9907 C 966.251 0.846957 -4.50101 0
M  V30 9908 N 967.742 0.911136 -4.5415 0
M  V30 9909 C 968.477 1.01525 -5.64341 0
M  V30 9910 N 967.973 1.0832 -6.8428 0
M  V30 9911 N 969.766 1.05051 -5.52196 0
M  V30 9912 H 961.917 -0.633778 -2.02724 0
M  V30 9913 H 964.18 -0.222583 -0.921499 0
M  V30 9914 H 963.886 -0.238987 -3.50887 0
M  V30 9915 H 963.76 1.51046 -3.45637 0
M  V30 9916 H 966.147 1.61474 -2.47002 0
M  V30 9917 H 966.228 -0.150845 -2.55355 0
M  V30 9918 H 965.872 -0.0254166 -5.07894 0
M  V30 9919 H 965.802 1.75116 -4.96631 0
M  V30 9920 H 968.293 0.868869 -3.67776 0
M  V30 9921 H 968.606 1.16247 -7.64007 0
M  V30 9922 H 966.951 1.05231 -6.86987 0
M  V30 9923 H 970.142 0.994086 -4.57423 0
M  V30 9924 H 970.315 1.12819 -6.38103 0
M  V30 9925 N 963.721 1.49897 0.486681 0
M  V30 9926 C 964.654 1.6224 1.60479 0
M  V30 9927 C 965.632 0.470964 1.5563 0
M  V30 9928 O 966.816 0.688418 1.75479 0
M  V30 9929 C 963.943 1.59059 2.99028 0
M  V30 9930 C 962.989 2.79575 3.22087 0
M  V30 9931 S 963.822 4.41077 3.03664 0
M  V30 9932 C 964.978 4.40564 4.44583 0
M  V30 9933 H 965.211 2.56822 1.49766 0
M  V30 9934 H 962.744 1.38966 0.672893 0
M  V30 9935 H 964.702 1.5791 3.78913 0
M  V30 9936 H 963.363 0.657405 3.07143 0
M  V30 9937 H 962.556 2.73609 4.23266 0
M  V30 9938 H 962.158 2.78211 2.49949 0
M  V30 9939 H 964.45 4.13166 5.36936 0
M  V30 9940 H 965.393 5.42068 4.55596 0
M  V30 9941 H 965.801 3.70461 4.25933 0
M  V30 9942 N 965.199 -0.738761 1.39212 0
M  V30 9943 C 966.446 -1.49824 1.36231 0
M  V30 9944 C 966.774 -1.94453 -0.0429552 0
M  V30 9945 O 966.029 -1.6683 -1.02304 0
M  V30 9946 C 966.328 -2.75435 2.2775 0
M  V30 9947 C 965.994 -2.49694 3.75451 0
M  V30 9948 C 964.656 -2.42383 4.15697 0
M  V30 9949 C 967.008 -2.27587 4.68885 0
M  V30 9950 C 964.336 -2.11001 5.47444 0
M  V30 9951 C 966.688 -1.97723 6.00906 0
M  V30 9952 C 965.352 -1.88879 6.4022 0
M  V30 9953 H 964.622 -0.548247 0.498504 0
M  V30 9954 H 967.269 -0.848244 1.71689 0
M  V30 9955 H 965.574 -3.45159 1.85398 0
M  V30 9956 H 967.271 -3.33449 2.22739 0
M  V30 9957 H 963.861 -2.56261 3.43552 0
M  V30 9958 H 968.045 -2.32206 4.38628 0
M  V30 9959 H 963.301 -2.02673 5.76831 0
M  V30 9960 H 967.475 -1.79625 6.72836 0
M  V30 9961 H 965.102 -1.64327 7.42227 0
M  V30 9962 N 966.677 -1.24326 -0.968545 0
M  V30 9963 C 968.088 -1.07561 -1.52603 0
M  V30 9964 C 968.439 0.353245 -1.92994 0
M  V30 9965 O 967.564 1.24151 -1.77244 0
M  V30 9966 C 968.159 -1.94634 -2.77314 0
M  V30 9967 C 966.718 -1.82095 -3.29421 0
M  V30 9968 C 965.865 -1.8962 -2.02335 0
M  V30 9969 H 968.816 -1.37815 -0.786932 0
M  V30 9970 H 968.837 -1.47812 -3.50616 0
M  V30 9971 H 968.349 -2.98621 -2.47885 0
M  V30 9972 H 966.45 -0.809376 -3.63703 0
M  V30 9973 H 966.563 -2.66142 -3.98378 0
M  V30 9974 H 964.927 -1.33339 -2.17009 0
M  V30 9975 H 965.71 -2.95185 -1.75273 0
M  V30 9976 N 968.156 1.1691 -1.05688 0
M  V30 9977 C 969.404 1.86922 -0.768409 0
M  V30 9978 C 969.725 1.81735 0.706921 0
M  V30 9979 O 968.995 1.24671 1.51109 0
M  V30 9980 H 967.575 0.69203 -0.281253 0
M  V30 9981 H 970.237 1.41803 -1.33708 0
M  V30 9982 H 969.333 2.92528 -1.08783 0
M  V30 9983 N 969.634 0.838594 1.33437 0
M  V30 9984 C 970.88 0.434813 1.98084 0
M  V30 9985 C 971.213 -1.00331 1.66275 0
M  V30 9986 O 970.488 -1.70139 0.942501 0
M  V30 9987 C 970.771 0.655602 3.54082 0
M  V30 9988 C 970.624 2.14097 3.95578 0
M  V30 9989 C 971.943 0.101576 4.39983 0
M  V30 9990 H 969.062 0.159456 0.719544 0
M  V30 9991 H 971.704 1.05406 1.58081 0
M  V30 9992 H 969.854 0.128501 3.88287 0
M  V30 9993 H 971.526 2.73292 3.71631 0
M  V30 9994 H 969.769 2.62558 3.4532 0
M  V30 9995 H 970.44 2.24621 5.04231 0
M  V30 9996 H 972.916 0.552122 4.12421 0
M  V30 9997 H 971.792 0.28575 5.48156 0
M  V30 9998 H 972.053 -0.994616 4.30767 0
M  V30 9999 N 971.112 -1.45937 0.595003 0
M  V30 10000 C 972.523 -1.85908 0.171779 0
M  V30 10001 C 972.874 -1.497 -1.26824 0
M  V30 10002 O 971.999 -0.917688 -1.95978 0
M  V30 10003 C 972.594 -3.37425 0.304976 0
M  V30 10004 C 971.153 -3.76346 -0.0634635 0
M  V30 10005 C 970.3 -2.69926 0.635255 0
M  V30 10006 H 973.251 -1.36916 0.802471 0
M  V30 10007 H 973.272 -3.77632 -0.466313 0
M  V30 10008 H 972.784 -3.63747 1.35314 0
M  V30 10009 H 970.885 -3.55642 -1.11129 0
M  V30 10010 H 970.998 -4.78021 0.321419 0
M  V30 10011 H 969.362 -2.54592 0.0742054 0
M  V30 10012 H 970.145 -2.99086 1.68531 0
M  V30 10013 N 972.59 -0.333456 -1.54032 0
M  V30 10014 C 973.52 0.52051 -2.27625 0
M  V30 10015 C 974.501 1.1111 -1.28797 0
M  V30 10016 O 975.686 1.13438 -1.57625 0
M  V30 10017 C 972.816 1.67663 -3.04149 0
M  V30 10018 C 971.77 1.21487 -4.10396 0
M  V30 10019 C 971.096 2.45872 -4.74817 0
M  V30 10020 C 972.396 0.322603 -5.21303 0
M  V30 10021 H 974.09 -0.0933823 -2.99254 0
M  V30 10022 H 971.636 -0.0463526 -1.43925 0
M  V30 10023 H 973.589 2.28041 -3.54366 0
M  V30 10024 H 972.313 2.31727 -2.30153 0
M  V30 10025 H 970.972 0.633966 -3.61077 0
M  V30 10026 H 970.62 3.0832 -3.97426 0
M  V30 10027 H 970.32 2.15662 -5.46593 0
M  V30 10028 H 971.844 3.06994 -5.27814 0
M  V30 10029 H 973.258 0.832942 -5.67217 0
M  V30 10030 H 971.655 0.112843 -5.99994 0
M  V30 10031 H 972.725 -0.643954 -4.80605 0
M  V30 10032 N 974.068 1.57479 -0.061844 0
M  V30 10033 C 975.345 1.84484 0.649993 0
M  V30 10034 C 975.725 0.952366 1.88396 0
M  V30 10035 O 975.073 0.0161035 2.28494 0
M  V30 10036 C 975.283 3.34452 0.997133 0
M  V30 10037 C 976.631 4.01724 1.37488 0
M  V30 10038 O 977.655 3.3914 1.08916 0
M  V30 10039 O 976.514 5.12091 1.90854 0
M  V30 10040 H 973.608 0.761798 0.321858 0
M  V30 10041 H 976.154 1.6945 -0.0920192 0
M  V30 10042 H 974.926 3.91115 0.120301 0
M  V30 10043 H 974.549 3.54713 1.79624 0
M  V30 10044 N 975.546 -0.211634 1.56173 0
M  V30 10045 C 976.774 -0.951184 1.83739 0
M  V30 10046 C 977.189 -1.7754 0.642252 0
M  V30 10047 O 976.546 -1.78302 -0.389174 0
M  V30 10048 C 976.597 -1.86075 3.09933 0
M  V30 10049 O 976.318 -1.06983 4.24837 0
M  V30 10050 C 977.819 -2.71337 3.50559 0
M  V30 10051 H 975.039 -0.278312 0.61056 0
M  V30 10052 H 977.583 -0.223871 2.03271 0
M  V30 10053 H 975.738 -2.54189 2.92347 0
M  V30 10054 H 976.152 -1.68815 4.9659 0
M  V30 10055 H 977.626 -3.30843 4.41868 0
M  V30 10056 H 978.103 -3.44226 2.72773 0
M  V30 10057 H 978.709 -2.0862 3.70618 0
M  V30 10058 N 977.024 -1.50153 -0.478725 0
M  V30 10059 C 977.974 -1.64848 -1.57509 0
M  V30 10060 C 978.958 -0.503327 -1.52825 0
M  V30 10061 O 980.15 -0.75737 -1.59978 0
M  V30 10062 C 977.279 -1.73893 -2.96 0
M  V30 10063 C 976.365 -2.9406 -3.05597 0
M  V30 10064 N 976.756 -4.17844 -2.85027 0
M  V30 10065 C 975.054 -2.92459 -3.36725 0
M  V30 10066 C 975.755 -4.98739 -2.9939 0
M  V30 10067 N 974.731 -4.32542 -3.29255 0
M  V30 10068 H 978.533 -2.58254 -1.40293 0
M  V30 10069 H 976.047 -1.47232 -0.685307 0
M  V30 10070 H 978.044 -1.82523 -3.74821 0
M  V30 10071 H 976.704 -0.816402 -3.14269 0
M  V30 10072 H 977.715 -4.47465 -2.60759 0
M  V30 10073 H 974.392 -2.09675 -3.6103 0
M  V30 10074 H 975.782 -6.07146 -2.8779 0
M  V30 10075 N 978.502 0.731368 -1.39602 0
M  V30 10076 C 979.779 1.48308 -1.27531 0
M  V30 10077 C 980.159 2.10795 0.113482 0
M  V30 10078 O 979.507 1.98886 1.12501 0
M  V30 10079 C 979.717 2.53156 -2.40235 0
M  V30 10080 C 981.065 3.19436 -2.79725 0
M  V30 10081 O 982.089 2.6347 -2.39712 0
M  V30 10082 O 980.948 4.20714 -3.48801 0
M  V30 10083 H 978.042 0.658753 -0.499973 0
M  V30 10084 H 980.588 0.764884 -1.51485 0
M  V30 10085 H 979.36 2.05387 -3.33064 0
M  V30 10086 H 978.983 3.3253 -2.17966 0
M  V30 10087 N 979.98 1.24838 0.961938 0
M  V30 10088 C 981.226 1.09313 1.70817 0
M  V30 10089 C 981.559 -0.366244 1.90715 0
M  V30 10090 O 980.834 -1.27036 1.47282 0
M  V30 10091 C 981.117 1.83988 3.09549 0
M  V30 10092 C 980.97 3.3771 2.97106 0
M  V30 10093 C 982.289 1.61718 4.09311 0
M  V30 10094 H 979.408 0.398498 0.619974 0
M  V30 10095 H 982.05 1.53579 1.11864 0
M  V30 10096 H 980.2 1.46363 3.59875 0
M  V30 10097 H 981.872 3.84967 2.54161 0
M  V30 10098 H 980.115 3.65795 2.33187 0
M  V30 10099 H 980.786 3.85166 3.95412 0
M  V30 10100 H 983.262 1.94458 3.67866 0
M  V30 10101 H 982.138 2.16415 5.04436 0
M  V30 10102 H 982.399 0.55677 4.3858 0
M  V30 10103 N 981.458 -1.16348 1.06306 0
M  V30 10104 C 982.705 -1.86881 0.779852 0
M  V30 10105 C 983.033 -1.8171 -0.693668 0
M  V30 10106 O 982.288 -1.22769 -1.52401 0
M  V30 10107 C 982.587 -3.35936 1.21991 0
M  V30 10108 C 982.253 -3.61307 2.69756 0
M  V30 10109 C 980.915 -3.6794 3.10119 0
M  V30 10110 C 983.267 -3.71871 3.65187 0
M  V30 10111 C 980.595 -3.82639 4.44752 0
M  V30 10112 C 982.947 -3.88091 4.99568 0
M  V30 10113 C 981.611 -3.92967 5.39568 0
M  V30 10114 H 980.881 -0.683847 0.285368 0
M  V30 10115 H 983.528 -1.37569 1.33218 0
M  V30 10116 H 981.833 -3.87381 0.586774 0
M  V30 10117 H 983.53 -3.88895 0.977821 0
M  V30 10118 H 980.12 -3.56777 2.37504 0
M  V30 10119 H 984.304 -3.66057 3.35136 0
M  V30 10120 H 979.56 -3.84666 4.75228 0
M  V30 10121 H 983.734 -3.95207 5.73397 0
M  V30 10122 H 981.361 -4.04109 6.43895 0
M  V30 10123 N 982.937 -0.845659 -1.3299 0
M  V30 10124 C 983.869 -0.241097 -2.27928 0
M  V30 10125 C 984.882 0.582048 -1.5204 0
M  V30 10126 O 986.071 0.408008 -1.73774 0
M  V30 10127 C 983.171 0.678652 -3.32035 0
M  V30 10128 C 982.344 -0.106652 -4.3727 0
M  V30 10129 C 981.403 0.737478 -5.21006 0
M  V30 10130 O 980.429 0.174231 -5.68933 0
M  V30 10131 N 981.631 2.05372 -5.42957 0
M  V30 10132 H 984.396 -1.05685 -2.80448 0
M  V30 10133 H 981.957 -0.704771 -1.45755 0
M  V30 10134 H 983.949 1.24849 -3.84961 0
M  V30 10135 H 982.519 1.3951 -2.79742 0
M  V30 10136 H 981.739 -0.857897 -3.84752 0
M  V30 10137 H 983.027 -0.646386 -5.04677 0
M  V30 10138 H 982.425 2.53478 -5.05733 0
M  V30 10139 H 980.982 2.5719 -5.98913 0
M  V30 10140 N 984.415 1.45619 -0.602734 0
M  V30 10141 C 985.645 2.06348 -0.102105 0
M  V30 10142 C 986.053 1.44884 1.21677 0
M  V30 10143 O 985.396 0.555559 1.75098 0
M  V30 10144 C 985.458 3.59309 0.117026 0
M  V30 10145 C 985.122 4.43081 -1.11931 0
M  V30 10146 C 986.119 4.78364 -2.03627 0
M  V30 10147 C 983.804 4.83908 -1.34677 0
M  V30 10148 C 985.798 5.53325 -3.16403 0
M  V30 10149 C 983.485 5.58624 -2.47754 0
M  V30 10150 C 984.483 5.93249 -3.38445 0
M  V30 10151 O 984.171 6.6645 -4.49555 0
M  V30 10152 H 983.903 0.672988 -0.0637478 0
M  V30 10153 H 986.457 1.87928 -0.828983 0
M  V30 10154 H 984.687 3.76111 0.898742 0
M  V30 10155 H 986.376 4.01897 0.568649 0
M  V30 10156 H 987.142 4.47384 -1.87277 0
M  V30 10157 H 983.021 4.56396 -0.649875 0
M  V30 10158 H 986.565 5.80268 -3.87214 0
M  V30 10159 H 982.462 5.89019 -2.64059 0
M  V30 10160 H 983.23 6.84895 -4.48175 0
M  V30 10161 N 985.893 0.34162 1.53853 0
M  V30 10162 C 987.309 -0.0103769 1.59597 0
M  V30 10163 C 987.509 -1.48897 1.35764 0
M  V30 10164 O 986.565 -2.24743 1.15095 0
M  V30 10165 C 987.878 0.424067 2.97695 0
M  V30 10166 C 989.426 0.376247 3.1073 0
M  V30 10167 C 989.901 0.786129 4.51203 0
M  V30 10168 N 991.392 0.74024 4.57247 0
M  V30 10169 C 992.127 1.02937 5.64085 0
M  V30 10170 N 991.623 1.38655 6.78783 0
M  V30 10171 N 993.416 0.953734 5.5395 0
M  V30 10172 H 985.567 1.30477 1.67599 0
M  V30 10173 H 987.83 0.531753 0.78482 0
M  V30 10174 H 987.536 1.45493 3.20195 0
M  V30 10175 H 987.41 -0.201713 3.7666 0
M  V30 10176 H 989.797 -0.645441 2.87955 0
M  V30 10177 H 989.878 1.0372 2.33828 0
M  V30 10178 H 989.522 1.80582 4.74713 0
M  V30 10179 H 989.452 0.102671 5.265 0
M  V30 10180 H 991.943 0.476763 3.7488 0
M  V30 10181 H 992.256 1.59206 7.56223 0
M  V30 10182 H 990.601 1.42498 6.80235 0
M  V30 10183 H 993.792 0.674044 4.63222 0
M  V30 10184 H 993.965 1.18241 6.37121 0
M  V30 10185 N 987.371 -1.57444 0.0701946 0
M  V30 10186 C 988.281 -2.16132 -0.912377 0
M  V30 10187 C 989.297 -1.12406 -1.32819 0
M  V30 10188 O 990.473 -1.44665 -1.40121 0
M  V30 10189 C 987.538 -2.71008 -2.16231 0
M  V30 10190 C 986.599 -3.896 -1.80306 0
M  V30 10191 C 985.832 -4.4185 -2.9934 0
M  V30 10192 O 986.055 -3.93106 -4.13309 0
M  V30 10193 O 984.989 -5.33201 -2.7925 0
M  V30 10194 H 988.815 -3.00449 -0.443167 0
M  V30 10195 H 986.4 -1.48617 -0.152786 0
M  V30 10196 H 988.282 -3.06186 -2.8953 0
M  V30 10197 H 986.957 -1.8975 -2.62253 0
M  V30 10198 H 985.864 -3.59277 -1.04264 0
M  V30 10199 H 987.197 -4.72145 -1.39068 0
M  V30 10200 N 988.849 0.203349 -1.56283 0
M  V30 10201 C 989.796 1.25205 -1.93888 0
M  V30 10202 C 990.766 1.45654 -0.798376 0
M  V30 10203 O 991.951 1.58924 -1.05583 0
M  V30 10204 C 989.091 2.59355 -2.27659 0
M  V30 10205 C 988.204 2.46553 -3.54733 0
M  V30 10206 C 987.339 3.73351 -3.77865 0
M  V30 10207 C 986.378 3.55347 -4.98392 0
M  V30 10208 N 985.515 4.74137 -5.17821 0
M  V30 10209 H 990.355 0.924356 -2.83301 0
M  V30 10210 H 987.892 0.445082 -1.40205 0
M  V30 10211 H 989.85 3.375 -2.45254 0
M  V30 10212 H 988.48 2.90184 -1.41396 0
M  V30 10213 H 987.532 1.59749 -3.45231 0
M  V30 10214 H 988.844 2.2918 -4.43033 0
M  V30 10215 H 987.998 4.59937 -3.95655 0
M  V30 10216 H 986.737 3.9367 -2.8788 0
M  V30 10217 H 985.742 2.67146 -4.80534 0
M  V30 10218 H 986.967 3.36482 -5.89879 0
M  V30 10219 H 984.913 4.94735 -4.30782 0
M  V30 10220 H 984.83 4.59558 -6.00285 0
M  V30 10221 H 986.098 5.62098 -5.40061 0
M  V30 10222 N 990.327 1.50405 0.470755 0
M  V30 10223 C 991.29 1.68741 1.5511 0
M  V30 10224 C 992.29 0.558116 1.50804 0
M  V30 10225 O 993.48 0.825149 1.53418 0
M  V30 10226 C 990.612 1.71295 2.94739 0
M  V30 10227 H 991.805 2.65127 1.40169 0
M  V30 10228 H 989.358 1.39891 0.697156 0
M  V30 10229 H 990.093 0.766029 3.15123 0
M  V30 10230 H 989.878 2.53336 2.99271 0
M  V30 10231 H 991.368 1.87434 3.73173 0
M  V30 10232 N 991.805 -0.723954 1.39988 0
M  V30 10233 C 993.035 -1.51094 1.40905 0
M  V30 10234 C 993.443 -1.89199 0.00476744 0
M  V30 10235 O 992.786 -1.55398 -0.979646 0
M  V30 10236 C 992.848 -2.82114 2.22827 0
M  V30 10237 C 992.512 -2.66379 3.71337 0
M  V30 10238 C 993.509 -2.34192 4.64166 0
M  V30 10239 C 991.194 -2.82905 4.15054 0
M  V30 10240 C 993.188 -2.18729 5.98696 0
M  V30 10241 C 990.875 -2.67059 5.49657 0
M  V30 10242 C 991.873 -2.35018 6.41292 0
M  V30 10243 O 991.561 -2.19284 7.73414 0
M  V30 10244 H 991.293 -0.473142 0.482818 0
M  V30 10245 H 993.847 -0.901321 1.84568 0
M  V30 10246 H 992.077 -3.45377 1.7393 0
M  V30 10247 H 993.766 -3.43789 2.15787 0
M  V30 10248 H 994.532 -2.21065 4.31689 0
M  V30 10249 H 990.411 -3.06834 3.44055 0
M  V30 10250 H 993.955 -1.93641 6.70186 0
M  V30 10251 H 989.852 -2.79768 5.81722 0
M  V30 10252 H 990.62 -2.34269 7.84258 0
M  V30 10253 N 993.283 -1.25346 -0.955304 0
M  V30 10254 C 994.53 -1.10055 -1.69983 0
M  V30 10255 C 994.858 0.358586 -1.91166 0
M  V30 10256 O 994.113 1.28071 -1.47974 0
M  V30 10257 C 994.412 -1.7993 -3.08804 0
M  V30 10258 C 994.078 -3.29851 -3.07424 0
M  V30 10259 C 992.74 -3.7075 -3.06754 0
M  V30 10260 C 995.092 -4.25636 -3.00805 0
M  V30 10261 C 992.42 -5.05847 -2.97214 0
M  V30 10262 C 994.772 -5.60756 -2.92806 0
M  V30 10263 C 993.436 -6.00984 -2.90472 0
M  V30 10264 H 992.706 -0.402718 -0.622012 0
M  V30 10265 H 995.353 -1.5561 -1.11614 0
M  V30 10266 H 993.658 -1.26803 -3.70713 0
M  V30 10267 H 995.355 -1.65551 -3.65231 0
M  V30 10268 H 991.945 -2.97308 -3.08716 0
M  V30 10269 H 996.129 -3.9503 -3.00441 0
M  V30 10270 H 991.385 -5.36196 -2.93775 0
M  V30 10271 H 995.559 -6.34671 -2.86645 0
M  V30 10272 H 993.186 -7.05626 -2.82835 0
M  V30 10273 N 994.761 1.15782 -1.06922 0
M  V30 10274 C 996.001 1.88135 -0.799043 0
M  V30 10275 C 996.365 1.80203 0.662632 0
M  V30 10276 O 997.566 2.47543 1.04767 0
M  V30 10277 C 995.837 3.3339 -1.28786 0
M  V30 10278 S 997.396 4.23525 -1.1477 0
M  V30 10279 H 994.214 0.649313 -0.289679 0
M  V30 10280 H 996.816 1.3972 -1.36743 0
M  V30 10281 H 995.52 3.36705 -2.34645 0
M  V30 10282 H 995.051 3.86857 -0.714489 0
M  V30 10283 H 997.066 4.96131 -0.0825264 0
M  V30 10284 N 996.239 0.8527 1.3254 0
M  V30 10285 C 997.171 0.253181 2.27797 0
M  V30 10286 C 998.184 -0.573977 1.52346 0
M  V30 10287 O 999.373 -0.398786 1.73988 0
M  V30 10288 C 996.473 -0.661034 3.32391 0
M  V30 10289 C 995.646 0.12984 4.37207 0
M  V30 10290 C 994.705 -0.709837 5.2139 0
M  V30 10291 O 993.731 -0.144056 5.69018 0
M  V30 10292 N 994.933 -2.0249 5.44039 0
M  V30 10293 H 997.698 1.07171 2.79883 0
M  V30 10294 H 995.259 0.712491 1.45379 0
M  V30 10295 H 997.251 -1.22806 3.85617 0
M  V30 10296 H 995.821 -1.38025 2.80478 0
M  V30 10297 H 995.041 0.878289 3.84291 0
M  V30 10298 H 996.329 0.673141 5.04328 0
M  V30 10299 H 995.727 -2.50792 5.0707 0
M  V30 10300 H 994.284 -2.5401 6.00269 0
M  V30 10301 N 997.718 -1.45297 0.610449 0
M  V30 10302 C 998.995 -1.95562 0.0386189 0
M  V30 10303 C 999.375 -1.55284 -1.43004 0
M  V30 10304 O 998.723 -0.816785 -2.13403 0
M  V30 10305 C 998.933 -3.48176 0.239731 0
M  V30 10306 C 1000.28 -4.24425 0.122035 0
M  V30 10307 O 1001.3 -3.55794 0.170003 0
M  V30 10308 O 1000.16 -5.46499 0.00953695 0
M  V30 10309 H 997.258 -0.826296 -0.0341081 0
M  V30 10310 H 999.804 -1.55449 0.68071 0
M  V30 10311 H 998.576 -3.70471 1.25963 0
M  V30 10312 H 998.199 -3.95186 -0.437486 0
M  V30 10313 N 999.196 -0.349774 -1.5367 0
M  V30 10314 C 1000.61 0.00191293 -1.596 0
M  V30 10315 C 1000.81 1.48175 -1.36552 0
M  V30 10316 O 999.868 2.24129 -1.16285 0
M  V30 10317 C 1001.18 -0.439848 -2.97466 0
M  V30 10318 C 1002.73 -0.392721 -3.10526 0
M  V30 10319 C 1003.2 -0.810047 -4.5078 0
M  V30 10320 N 1004.69 -0.764478 -4.56848 0
M  V30 10321 C 1005.43 -1.05927 -5.63531 0
M  V30 10322 N 1004.93 -1.42253 -6.78038 0
M  V30 10323 N 1006.72 -0.983098 -5.53436 0
M  V30 10324 H 998.87 -1.31364 -1.66905 0
M  V30 10325 H 1001.13 -0.535908 -0.781989 0
M  V30 10326 H 1000.84 -1.47189 -3.19419 0
M  V30 10327 H 1000.71 0.181735 -3.76762 0
M  V30 10328 H 1003.1 0.630161 -2.88293 0
M  V30 10329 H 1003.18 -1.04959 -2.33275 0
M  V30 10330 H 1002.82 -1.83097 -4.73749 0
M  V30 10331 H 1002.75 -0.130591 -5.26438 0
M  V30 10332 H 1005.25 -0.496637 -3.74622 0
M  V30 10333 H 1005.56 -1.63215 -7.55368 0
M  V30 10334 H 1003.9 -1.46104 -6.79469 0
M  V30 10335 H 1007.09 -0.698601 -4.62858 0
M  V30 10336 H 1007.27 -1.21618 -6.36485 0
M  V30 10337 N 1000.67 1.57404 -0.0785433 0
M  V30 10338 C 1001.92 1.93744 0.589024 0
M  V30 10339 C 1002.25 0.959087 1.69209 0
M  V30 10340 O 1001.5 -0.0241604 1.95685 0
M  V30 10341 C 1001.8 3.36684 1.1991 0
M  V30 10342 C 1001.47 4.50356 0.221493 0
M  V30 10343 C 1000.13 4.81177 -0.0474347 0
M  V30 10344 C 1002.48 5.1928 -0.446941 0
M  V30 10345 C 999.811 5.78257 -0.99177 0
M  V30 10346 C 1002.16 6.17372 -1.37964 0
M  V30 10347 C 1000.83 6.46607 -1.65697 0
M  V30 10348 H 1000.1 0.70896 0.215539 0
M  V30 10349 H 1002.74 1.90905 -0.150856 0
M  V30 10350 H 1001.05 3.36022 2.01486 0
M  V30 10351 H 1002.75 3.62095 1.72303 0
M  V30 10352 H 999.336 4.26322 0.441284 0
M  V30 10353 H 1003.52 4.95658 -0.252298 0
M  V30 10354 H 998.776 5.9923 -1.21381 0
M  V30 10355 H 1002.95 6.6988 -1.9035 0
M  V30 10356 H 1000.58 7.21643 -2.39031 0
M  V30 10357 N 1002.15 -0.195058 1.56388 0
M  V30 10358 C 1003.38 -0.930291 1.8447 0
M  V30 10359 C 1003.79 -1.77356 0.658901 0
M  V30 10360 O 1003.13 -1.79691 -0.381664 0
M  V30 10361 C 1003.19 -1.87626 3.06654 0
M  V30 10362 C 1002.86 -1.21494 4.40555 0
M  V30 10363 C 1003.86 -0.591847 5.1652 0
M  V30 10364 C 1001.54 -1.21878 4.8729 0
M  V30 10365 C 1003.53 0.0185743 6.37397 0
M  V30 10366 C 1001.22 -0.604524 6.08103 0
M  V30 10367 C 1002.22 0.0130731 6.82999 0
M  V30 10368 O 1001.91 0.617703 8.01523 0
M  V30 10369 H 1001.64 -0.276933 0.616672 0
M  V30 10370 H 1004.19 -0.207277 2.04351 0
M  V30 10371 H 1002.42 -2.63897 2.82658 0
M  V30 10372 H 1004.11 -2.47929 3.21382 0
M  V30 10373 H 1004.88 -0.581018 4.81507 0
M  V30 10374 H 1000.76 -1.68888 4.2895 0
M  V30 10375 H 1004.3 0.50124 6.95797 0
M  V30 10376 H 1000.2 -0.612855 6.42584 0
M  V30 10377 H 1000.97 0.514612 8.16881 0
M  V30 10378 N 1003.63 -1.50653 -0.462772 0
M  V30 10379 C 1004.88 -1.63264 -1.21311 0
M  V30 10380 C 1005.23 -0.332647 -1.89503 0
M  V30 10381 O 1004.52 0.669994 -1.79504 0
M  V30 10382 C 1004.72 -2.75637 -2.27507 0
M  V30 10383 C 1004.55 -4.16438 -1.69734 0
M  V30 10384 C 1003.32 -4.82727 -1.49341 0
M  V30 10385 C 1005.51 -5.00399 -1.18765 0
M  V30 10386 N 1003.5 -6.07718 -0.868991 0
M  V30 10387 C 1004.87 -6.16182 -0.68697 0
M  V30 10388 C 1006.92 -4.86112 -1.07699 0
M  V30 10389 C 1005.63 -7.19248 -0.0865268 0
M  V30 10390 C 1007.65 -5.89363 -0.490473 0
M  V30 10391 C 1007.01 -7.044 -0.000208479 0
M  V30 10392 H 1003.11 -0.651518 -0.432491 0
M  V30 10393 H 1005.7 -1.878 -0.51375 0
M  V30 10394 H 1003.87 -2.52809 -2.9486 0
M  V30 10395 H 1005.6 -2.77562 -2.94519 0
M  V30 10396 H 1002.35 -4.40161 -1.74801 0
M  V30 10397 H 1002.78 -6.74554 -0.574957 0
M  V30 10398 H 1007.42 -3.97452 -1.44194 0
M  V30 10399 H 1005.14 -8.07577 0.290614 0
M  V30 10400 H 1008.72 -5.80374 -0.407099 0
M  V30 10401 H 1007.6 -7.82928 0.44652 0
M  V30 10402 N 1005.11 0.71652 -1.4037 0
M  V30 10403 C 1006.52 1.02447 -1.22379 0
M  V30 10404 C 1006.72 2.0126 -0.0983394 0
M  V30 10405 O 1005.78 2.46569 0.544071 0
M  V30 10406 C 1007.09 1.56909 -2.56515 0
M  V30 10407 C 1008.64 1.68898 -2.6352 0
M  V30 10408 C 1009.12 2.26765 -3.97922 0
M  V30 10409 N 1010.61 2.34152 -3.99658 0
M  V30 10410 C 1011.34 2.79907 -5.00439 0
M  V30 10411 N 1010.84 3.25422 -6.11615 0
M  V30 10412 N 1012.63 2.79283 -4.87809 0
M  V30 10413 H 1004.78 0.0615306 -2.12311 0
M  V30 10414 H 1007.05 0.0898994 -0.943728 0
M  V30 10415 H 1006.75 0.917649 -3.39517 0
M  V30 10416 H 1006.63 2.55446 -2.77538 0
M  V30 10417 H 1009.01 2.33159 -1.8089 0
M  V30 10418 H 1009.09 0.689626 -2.46329 0
M  V30 10419 H 1008.74 1.63126 -4.80991 0
M  V30 10420 H 1008.67 3.27413 -4.12442 0
M  V30 10421 H 1011.16 2.02006 -3.19378 0
M  V30 10422 H 1011.47 3.58899 -6.84406 0
M  V30 10423 H 1009.82 3.23383 -6.15181 0
M  V30 10424 H 1013.01 2.43061 -4.00049 0
M  V30 10425 H 1013.18 3.14626 -5.66493 0
M  V30 10426 N 1006.59 1.25851 0.948643 0
M  V30 10427 C 1007.83 1.11119 1.69648 0
M  V30 10428 C 1008.17 -0.345995 1.91093 0
M  V30 10429 O 1007.44 -1.25467 1.48621 0
M  V30 10430 C 1007.72 1.87261 3.0758 0
M  V30 10431 C 1007.58 3.40842 2.93507 0
M  V30 10432 C 1008.9 1.6605 4.07573 0
M  V30 10433 H 1006.01 0.405052 0.615713 0
M  V30 10434 H 1008.66 1.54756 1.10229 0
M  V30 10435 H 1006.81 1.50172 3.58303 0
M  V30 10436 H 1008.48 3.87641 2.50064 0
M  V30 10437 H 1006.72 3.68248 2.29294 0
M  V30 10438 H 1007.39 3.89339 3.91305 0
M  V30 10439 H 1009.87 1.98348 3.65783 0
M  V30 10440 H 1008.74 2.21753 5.02113 0
M  V30 10441 H 1009.01 0.603256 4.37965 0
M  V30 10442 N 1008.06 -1.15214 1.07534 0
M  V30 10443 C 1009.29 -1.90463 0.820883 0
M  V30 10444 C 1009.71 -1.77578 -0.620305 0
M  V30 10445 O 1009.07 -1.10976 -1.43366 0
M  V30 10446 C 1009.12 -3.38746 1.23627 0
M  V30 10447 O 1008.22 -4.1062 0.382715 0
M  V30 10448 H 1007.57 -0.59292 0.298901 0
M  V30 10449 H 1010.1 -1.45893 1.43445 0
M  V30 10450 H 1010.11 -3.89543 1.21327 0
M  V30 10451 H 1008.78 -3.47443 2.28596 0
M  V30 10452 H 1007.36 -3.69947 0.468374 0
M  V30 10453 N 1009.54 -0.859717 -1.32086 0
M  V30 10454 C 1010.77 -0.478865 -2.01796 0
M  V30 10455 C 1011.19 0.918274 -1.64163 0
M  V30 10456 O 1010.55 1.60409 -0.844896 0
M  V30 10457 C 1010.6 -0.631356 -3.5503 0
M  V30 10458 O 1009.7 0.333712 -4.11048 0
M  V30 10459 H 1009.04 -0.191775 -0.635703 0
M  V30 10460 H 1011.57 -1.16031 -1.68517 0
M  V30 10461 H 1011.58 -0.520783 -4.04663 0
M  V30 10462 H 1010.26 -1.65015 -3.81763 0
M  V30 10463 H 1008.84 0.178953 -3.7247 0
M  V30 10464 N 1011.02 1.44971 -0.618145 0
M  V30 10465 C 1012.44 1.57077 -0.282666 0
M  V30 10466 C 1012.64 1.60782 1.21456 0
M  V30 10467 O 1011.69 1.54382 1.99806 0
M  V30 10468 C 1013.01 2.84858 -0.963148 0
M  V30 10469 C 1014.55 2.9855 -0.940062 0
M  V30 10470 C 1015.03 4.29115 -1.60076 0
M  V30 10471 N 1016.52 4.35899 -1.56674 0
M  V30 10472 C 1017.25 5.35617 -2.04701 0
M  V30 10473 N 1016.75 6.41813 -2.6086 0
M  V30 10474 N 1018.54 5.27042 -1.95406 0
M  V30 10475 H 1010.69 1.4081 -1.59017 0
M  V30 10476 H 1012.96 0.673914 -0.666741 0
M  V30 10477 H 1012.66 2.88059 -2.0178 0
M  V30 10478 H 1012.54 3.73966 -0.492901 0
M  V30 10479 H 1014.92 2.94909 0.10607 0
M  V30 10480 H 1015.01 2.10825 -1.44868 0
M  V30 10481 H 1014.65 4.33514 -2.64627 0
M  V30 10482 H 1014.58 5.15675 -1.06708 0
M  V30 10483 H 1017.07 3.59766 -1.15659 0
M  V30 10484 H 1017.38 7.14166 -2.95273 0
M  V30 10485 H 1015.73 6.42534 -2.64905 0
M  V30 10486 H 1018.92 4.42987 -1.51263 0
M  V30 10487 H 1019.09 6.04604 -2.33147 0
M  V30 10488 N 1012.5 0.357919 1.53482 0
M  V30 10489 C 1013.72 -0.237769 2.06033 0
M  V30 10490 C 1014.15 -1.42292 1.23023 0
M  V30 10491 O 1013.51 -1.79604 0.247427 0
M  V30 10492 C 1013.55 -0.616806 3.55286 0
M  V30 10493 O 1012.66 -1.71503 3.75047 0
M  V30 10494 H 1012 -0.0364322 0.663 0
M  V30 10495 H 1014.53 0.516301 1.97979 0
M  V30 10496 H 1014.54 -0.88996 3.98175 0
M  V30 10497 H 1013.21 0.249825 4.15149 0
M  V30 10498 H 1011.79 -1.43803 3.44057 0
M  V30 10499 N 1013.98 -1.5736 0.0868897 0
M  V30 10500 C 1014.89 -2.17087 -0.889402 0
M  V30 10501 C 1015.9 -1.13809 -1.31619 0
M  V30 10502 O 1017.08 -1.46143 -1.38579 0
M  V30 10503 C 1014.14 -2.73286 -2.13344 0
M  V30 10504 C 1013.2 -3.91491 -1.76164 0
M  V30 10505 C 1012.44 -4.45 -2.94637 0
M  V30 10506 O 1012.66 -3.97467 -4.09116 0
M  V30 10507 O 1011.59 -5.36133 -2.73579 0
M  V30 10508 H 1015.42 -3.00902 -0.411275 0
M  V30 10509 H 1013.01 -1.4877 -0.137015 0
M  V30 10510 H 1014.89 -3.0924 -2.86266 0
M  V30 10511 H 1013.56 -1.92521 -2.60225 0
M  V30 10512 H 1012.47 -3.60363 -1.00447 0
M  V30 10513 H 1013.8 -4.73593 -1.34053 0
M  V30 10514 N 1015.45 0.186762 -1.56489 0
M  V30 10515 C 1016.38 1.23395 -1.98232 0
M  V30 10516 C 1017.37 1.4702 -0.855526 0
M  V30 10517 O 1018.55 1.58616 -1.12048 0
M  V30 10518 C 1015.68 2.57635 -2.32898 0
M  V30 10519 C 1014.63 2.48607 -3.48394 0
M  V30 10520 C 1013.96 3.87196 -3.68759 0
M  V30 10521 C 1015.26 2.00398 -4.82325 0
M  V30 10522 H 1016.95 0.887026 -2.85958 0
M  V30 10523 H 1014.5 0.42525 -1.37578 0
M  V30 10524 H 1016.45 3.31082 -2.60696 0
M  V30 10525 H 1015.18 2.94084 -1.42064 0
M  V30 10526 H 1013.84 1.77615 -3.207 0
M  V30 10527 H 1013.48 4.21012 -2.75241 0
M  V30 10528 H 1013.18 3.82029 -4.46462 0
M  V30 10529 H 1014.71 4.62253 -3.98941 0
M  V30 10530 H 1016.12 2.6361 -5.091 0
M  V30 10531 H 1014.52 2.06214 -5.63556 0
M  V30 10532 H 1015.59 0.957562 -4.75351 0
M  V30 10533 N 1016.93 1.50896 0.454776 0
M  V30 10534 C 1017.88 1.71497 1.57136 0
M  V30 10535 C 1018.87 0.58098 1.59126 0
M  V30 10536 O 1020.08 0.761916 1.63079 0
M  V30 10537 H 1016.46 0.54158 0.521724 0
M  V30 10538 H 1018.43 2.65129 1.36928 0
M  V30 10539 C 1017.18 1.84125 2.94947 0
M  V30 10540 H 1016.5 2.7078 2.9414 0
M  V30 10541 H 1017.94 2.02558 3.72487 0
M  V30 10542 C 1016.4 0.596752 3.31573 0
M  V30 10543 O 1016.93 -0.256632 4.00879 0
M  V30 10544 N 1015.13 0.445958 2.87158 0
M  V30 10545 H 1014.68 1.14146 2.30929 0
M  V30 10546 H 1014.64 -0.385519 3.12027 0
M  V30 10547 N 1018.41 -0.709066 1.40748 0
M  V30 10548 C 1019.34 -1.83412 1.37451 0
M  V30 10549 C 1020.36 -1.60394 0.27884 0
M  V30 10550 O 1021.54 -1.70147 0.539642 0
M  V30 10551 C 1018.64 -3.19935 1.1178 0
M  V30 10552 C 1017.82 -3.70095 2.33128 0
M  V30 10553 C 1016.88 -4.85249 2.03518 0
M  V30 10554 O 1015.9 -4.97563 2.76442 0
M  V30 10555 N 1017.1 -5.7152 1.01714 0
M  V30 10556 H 1019.87 -1.86736 2.34414 0
M  V30 10557 H 1017.43 -0.890863 1.35186 0
M  V30 10558 H 1019.42 -3.94578 0.899464 0
M  V30 10559 H 1017.99 -3.11718 0.234624 0
M  V30 10560 H 1017.21 -2.8651 2.70751 0
M  V30 10561 H 1018.5 -4.00344 3.1401 0
M  V30 10562 H 1017.9 -5.64188 0.413307 0
M  V30 10563 H 1016.46 -6.46119 0.858696 0
M  V30 10564 N 1019.89 -1.26353 -0.941956 0
M  V30 10565 C 1021.14 -1.12017 -1.69056 0
M  V30 10566 C 1021.47 0.335856 -1.91274 0
M  V30 10567 O 1020.74 1.24677 -1.49285 0
M  V30 10568 C 1021.03 -1.88889 -3.06583 0
M  V30 10569 C 1020.88 -3.42394 -2.91696 0
M  V30 10570 C 1022.2 -1.68209 -4.06686 0
M  V30 10571 H 1019.32 -0.408311 -0.613556 0
M  V30 10572 H 1021.96 -1.55339 -1.09407 0
M  V30 10573 H 1020.11 -1.5207 -3.57501 0
M  V30 10574 H 1021.78 -3.88962 -2.48005 0
M  V30 10575 H 1020.02 -3.69459 -2.27338 0
M  V30 10576 H 1020.7 -3.91408 -3.89235 0
M  V30 10577 H 1023.17 -2.00286 -3.64726 0
M  V30 10578 H 1022.05 -2.24412 -5.00929 0
M  V30 10579 H 1022.31 -0.626474 -4.37639 0
M  V30 10580 N 1021.37 1.14642 -1.08144 0
M  V30 10581 C 1022.64 1.81774 -0.72232 0
M  V30 10582 C 1023.02 1.95587 0.794294 0
M  V30 10583 O 1022.37 1.51361 1.71178 0
M  V30 10584 C 1022.58 3.1763 -1.44611 0
M  V30 10585 C 1023.93 3.93161 -1.60343 0
M  V30 10586 O 1024.95 3.2721 -1.40755 0
M  V30 10587 O 1023.81 5.11422 -1.9264 0
M  V30 10588 H 1020.91 0.785733 -0.257978 0
M  V30 10589 H 1023.45 1.21683 -1.18285 0
M  V30 10590 H 1022.23 3.02723 -2.4794 0
M  V30 10591 H 1021.85 3.85412 -0.976892 0
M  V30 10592 N 1022.85 0.866709 1.31628 0
M  V30 10593 C 1023.78 0.277328 2.27516 0
M  V30 10594 C 1024.79 -0.557786 1.52946 0
M  V30 10595 O 1025.98 -0.38031 1.74402 0
M  V30 10596 C 1023.08 -0.625742 3.33073 0
M  V30 10597 C 1022.25 0.176204 4.37045 0
M  V30 10598 C 1021.31 -0.654497 5.22114 0
M  V30 10599 O 1020.34 -0.0836961 5.69138 0
M  V30 10600 N 1021.54 -1.96708 5.46156 0
M  V30 10601 H 1024.3 1.10133 2.78731 0
M  V30 10602 H 1021.87 0.72787 1.44616 0
M  V30 10603 H 1023.86 -1.18709 3.86898 0
M  V30 10604 H 1022.43 -1.35042 2.81926 0
M  V30 10605 H 1021.65 0.918999 3.83338 0
M  V30 10606 H 1022.94 0.726594 5.03585 0
M  V30 10607 H 1022.33 -2.454 5.09701 0
M  V30 10608 H 1020.89 -2.47629 6.02929 0
M  V30 10609 N 1024.32 -1.44642 0.625825 0
M  V30 10610 C 1025.57 -2.02393 0.128391 0
M  V30 10611 C 1025.9 -1.49075 -1.2446 0
M  V30 10612 O 1025.18 -0.672684 -1.82497 0
M  V30 10613 C 1025.46 -3.59934 0.109279 0
M  V30 10614 C 1025.31 -4.23546 1.51423 0
M  V30 10615 C 1026.63 -4.36406 -0.568985 0
M  V30 10616 H 1023.75 -0.735427 0.0481299 0
M  V30 10617 H 1026.39 -1.72277 0.801286 0
M  V30 10618 H 1024.54 -3.85722 -0.463726 0
M  V30 10619 H 1026.22 -4.08882 2.13572 0
M  V30 10620 H 1024.46 -3.81245 2.06966 0
M  V30 10621 H 1025.13 -5.32535 1.45294 0
M  V30 10622 H 1027.61 -4.1602 -0.0817516 0
M  V30 10623 H 1026.48 -5.46122 -0.551527 0
M  V30 10624 H 1026.74 -4.1062 -1.6384 0
M  V30 10625 N 1025.8 -0.366053 -1.5329 0
M  V30 10626 C 1027.05 0.223051 -2.00865 0
M  V30 10627 C 1027.37 1.49244 -1.25504 0
M  V30 10628 O 1026.64 1.92404 -0.368444 0
M  V30 10629 H 1025.22 0.085413 -0.742101 0
M  V30 10630 H 1027.88 -0.492396 -1.88578 0
M  V30 10631 H 1026.98 0.449701 -3.08843 0
M  V30 10632 N 1027.28 1.57312 -0.0952337 0
M  V30 10633 C 1028.51 1.98409 0.575984 0
M  V30 10634 C 1028.92 0.973168 1.62253 0
M  V30 10635 O 1028.26 -0.0454416 1.83644 0
M  V30 10636 C 1028.32 3.35877 1.28167 0
M  V30 10637 C 1027.99 4.55368 0.385868 0
M  V30 10638 C 1028.98 5.1861 -0.366041 0
M  V30 10639 C 1026.67 5.0138 0.303885 0
M  V30 10640 C 1028.66 6.26233 -1.18791 0
M  V30 10641 C 1026.35 6.0887 -0.521637 0
M  V30 10642 C 1027.35 6.71161 -1.26618 0
M  V30 10643 O 1027.04 7.76577 -2.07804 0
M  V30 10644 H 1026.77 0.657018 0.159068 0
M  V30 10645 H 1029.32 2.04685 -0.171237 0
M  V30 10646 H 1027.55 3.26284 2.07547 0
M  V30 10647 H 1029.24 3.6142 1.84744 0
M  V30 10648 H 1030.01 4.83993 -0.312435 0
M  V30 10649 H 1025.89 4.52657 0.873065 0
M  V30 10650 H 1029.43 6.74784 -1.76955 0
M  V30 10651 H 1025.33 6.42918 -0.576722 0
M  V30 10652 H 1026.09 7.93566 -2.00489 0
M  V30 10653 N 1028.76 -0.17846 1.56586 0
M  V30 10654 C 1030 -0.897562 1.81856 0
M  V30 10655 C 1030.34 -1.82204 0.671955 0
M  V30 10656 O 1029.61 -1.91739 -0.326535 0
M  V30 10657 C 1029.89 -1.69942 3.17477 0
M  V30 10658 C 1029.75 -0.798545 4.42655 0
M  V30 10659 C 1031.07 -2.66861 3.49962 0
M  V30 10660 H 1028.19 -0.324863 0.661539 0
M  V30 10661 H 1030.83 -0.164106 1.8929 0
M  V30 10662 H 1028.98 -2.32471 3.11271 0
M  V30 10663 H 1030.65 -0.18668 4.60922 0
M  V30 10664 H 1028.89 -0.106181 4.3367 0
M  V30 10665 H 1029.56 -1.39496 5.34083 0
M  V30 10666 H 1032.04 -2.1446 3.56576 0
M  V30 10667 H 1030.92 -3.20037 4.45946 0
M  V30 10668 H 1031.18 -3.46715 2.74301 0
M  V30 10669 N 1030.24 -1.51135 -0.446768 0
M  V30 10670 C 1031.46 -1.67129 -1.21965 0
M  V30 10671 C 1031.88 -0.36467 -1.85245 0
M  V30 10672 O 1031.24 0.655908 -1.70306 0
M  V30 10673 C 1031.29 -2.78016 -2.31061 0
M  V30 10674 O 1031.01 -4.03615 -1.70371 0
M  V30 10675 C 1032.51 -3.05197 -3.21511 0
M  V30 10676 H 1029.73 -0.561111 -0.367961 0
M  V30 10677 H 1032.27 -1.97499 -0.530517 0
M  V30 10678 H 1030.43 -2.50272 -2.95707 0
M  V30 10679 H 1030.84 -4.65126 -2.424 0
M  V30 10680 H 1032.32 -3.8639 -3.94216 0
M  V30 10681 H 1032.79 -2.17228 -3.81718 0
M  V30 10682 H 1033.4 -3.34565 -2.62577 0
M  V30 10683 N 1031.71 0.701592 -1.41122 0
M  V30 10684 C 1032.94 1.48833 -1.43291 0
M  V30 10685 C 1033.35 1.89168 -0.0348668 0
M  V30 10686 O 1032.69 1.56937 0.9548 0
M  V30 10687 C 1032.76 2.78533 -2.27287 0
M  V30 10688 C 1032.42 2.60438 -3.75528 0
M  V30 10689 C 1033.42 2.26778 -4.67833 0
M  V30 10690 C 1031.1 2.76266 -4.19503 0
M  V30 10691 C 1033.1 2.09176 -6.021 0
M  V30 10692 C 1030.78 2.58281 -5.53836 0
M  V30 10693 C 1031.78 2.24786 -6.4495 0
M  V30 10694 O 1031.47 2.06952 -7.76805 0
M  V30 10695 H 1031.2 0.465401 -0.490284 0
M  V30 10696 H 1033.76 0.871843 -1.85979 0
M  V30 10697 H 1031.99 3.42566 -1.79403 0
M  V30 10698 H 1033.67 3.40312 -2.21229 0
M  V30 10699 H 1034.44 2.1417 -4.35151 0
M  V30 10700 H 1030.32 3.01322 -3.48893 0
M  V30 10701 H 1033.86 1.82955 -6.73181 0
M  V30 10702 H 1029.76 2.70478 -5.86099 0
M  V30 10703 H 1030.53 2.21762 -7.87886 0
M  V30 10704 N 1033.19 1.2685 0.935242 0
M  V30 10705 C 1034.47 1.03483 1.65984 0
M  V30 10706 C 1034.85 -0.432859 2.06614 0
M  V30 10707 O 1034.2 -1.4145 1.79455 0
M  V30 10708 C 1034.41 1.98924 2.86758 0
M  V30 10709 C 1035.75 2.2787 3.58274 0
M  V30 10710 O 1036.78 1.96838 2.96873 0
M  V30 10711 O 1035.64 2.80734 4.68882 0
M  V30 10712 H 1032.73 0.393932 0.72715 0
M  V30 10713 H 1035.28 1.38085 0.986445 0
M  V30 10714 H 1034.05 2.9794 2.53668 0
M  V30 10715 H 1033.67 1.64839 3.6182 0
M  V30 10716 N 1034.67 -1.14067 1.0875 0
M  V30 10717 C 1035.92 -1.84535 0.814235 0
M  V30 10718 C 1036.23 -1.84044 -0.662355 0
M  V30 10719 O 1037.44 -2.50336 -1.05091 0
M  V30 10720 C 1035.89 -3.31273 1.40663 0
M  V30 10721 C 1035.5 -3.40171 2.91526 0
M  V30 10722 C 1037.25 -4.0683 1.21201 0
M  V30 10723 C 1035.15 -4.81141 3.43885 0
M  V30 10724 H 1034.08 -0.691346 0.300926 0
M  V30 10725 H 1036.73 -1.28562 1.30935 0
M  V30 10726 H 1035.12 -3.87005 0.839215 0
M  V30 10727 H 1036.29 -2.94471 3.54434 0
M  V30 10728 H 1034.61 -2.78073 3.09942 0
M  V30 10729 H 1037.2 -5.10891 1.57781 0
M  V30 10730 H 1037.55 -4.16022 0.152092 0
M  V30 10731 H 1038.08 -3.57408 1.74655 0
M  V30 10732 H 1034.82 -4.77138 4.49466 0
M  V30 10733 H 1034.34 -5.27365 2.85738 0
M  V30 10734 H 1036.02 -5.50042 3.40681 0
M  V30 10735 N 1036.15 -0.873678 -1.31166 0
M  V30 10736 C 1037.08 -0.348011 -2.30892 0
M  V30 10737 C 1038.06 0.563092 -1.60509 0
M  V30 10738 O 1039.24 0.479332 -1.88192 0
M  V30 10739 C 1036.37 0.448158 -3.44396 0
M  V30 10740 C 1035.33 -0.370179 -4.26396 0
M  V30 10741 C 1034.65 0.551903 -5.31844 0
M  V30 10742 C 1035.95 -1.60624 -4.96988 0
M  V30 10743 H 1037.65 -1.18134 -2.75109 0
M  V30 10744 H 1035.19 -0.569502 -1.3226 0
M  V30 10745 H 1037.15 0.826458 -4.13216 0
M  V30 10746 H 1035.87 1.31503 -2.98956 0
M  V30 10747 H 1034.53 -0.730472 -3.59249 0
M  V30 10748 H 1034.18 1.41616 -4.82653 0
M  V30 10749 H 1033.88 0.00823478 -5.87599 0
M  V30 10750 H 1035.4 0.926965 -6.03523 0
M  V30 10751 H 1036.82 -1.29917 -5.58386 0
M  V30 10752 H 1035.21 -2.08926 -5.62557 0
M  V30 10753 H 1036.28 -2.357 -4.23761 0
M  V30 10754 N 1037.63 1.44308 -0.633487 0
M  V30 10755 C 1038.56 2.28943 0.108474 0
M  V30 10756 C 1039.57 1.41415 0.806582 0
M  V30 10757 O 1040.76 1.65544 0.667634 0
M  V30 10758 C 1037.86 3.17845 1.1759 0
M  V30 10759 C 1037.03 4.33802 0.559842 0
M  V30 10760 C 1036.09 5.03722 1.52154 0
M  V30 10761 O 1035.12 5.5966 1.03776 0
M  V30 10762 N 1036.32 5.05392 2.85586 0
M  V30 10763 H 1039.09 2.93262 -0.617879 0
M  V30 10764 H 1036.65 1.54781 -0.474819 0
M  V30 10765 H 1038.64 3.61485 1.81963 0
M  V30 10766 H 1037.21 2.55261 1.80445 0
M  V30 10767 H 1036.43 3.93325 -0.262559 0
M  V30 10768 H 1037.72 5.08637 0.128942 0
M  V30 10769 H 1037.11 4.61282 3.27468 0
M  V30 10770 H 1035.67 5.52813 3.45313 0
M  V30 10771 N 1039.1 0.374177 1.53094 0
M  V30 10772 C 1040.34 -0.21278 2.03289 0
M  V30 10773 C 1040.71 -1.45291 1.25517 0
M  V30 10774 O 1041.91 -2.11605 1.65761 0
M  V30 10775 C 1040.18 -0.48913 3.54037 0
M  V30 10776 S 1041.74 -1.04853 4.26088 0
M  V30 10777 H 1038.56 -0.0612752 0.708355 0
M  V30 10778 H 1041.16 0.519031 1.88484 0
M  V30 10779 H 1039.86 0.420786 4.08237 0
M  V30 10780 H 1039.39 -1.24978 3.7302 0
M  V30 10781 H 1041.41 -2.33213 4.3798 0
M  V30 10782 N 1040.58 -1.57259 0.103575 0
M  V30 10783 C 1041.99 -1.81816 -0.424239 0
M  V30 10784 C 1042.34 -1.01976 -1.67617 0
M  V30 10785 O 1041.47 -0.251673 -2.14932 0
M  V30 10786 C 1042.06 -3.29783 -0.776453 0
M  V30 10787 C 1040.62 -3.55074 -1.24897 0
M  V30 10788 C 1039.77 -2.76172 -0.249875 0
M  V30 10789 H 1042.72 -1.55254 0.328913 0
M  V30 10790 H 1042.74 -3.43569 -1.63526 0
M  V30 10791 H 1042.25 -3.87865 0.134906 0
M  V30 10792 H 1040.36 -3.02332 -2.17775 0
M  V30 10793 H 1040.47 -4.637 -1.20495 0
M  V30 10794 H 1038.83 -2.43902 -0.733767 0
M  V30 10795 H 1039.62 -3.37007 0.65431 0
M  V30 10796 N 1042.06 0.170153 -1.56679 0
M  V30 10797 C 1042.97 1.23057 -1.99735 0
M  V30 10798 C 1043.99 1.48374 -0.908912 0
M  V30 10799 O 1045.16 1.60499 -1.21663 0
M  V30 10800 C 1042.23 2.54944 -2.34956 0
M  V30 10801 C 1041.29 2.3748 -3.57634 0
M  V30 10802 C 1040.52 3.63078 -3.91165 0
M  V30 10803 O 1040.74 4.68304 -3.2565 0
M  V30 10804 O 1039.68 3.57119 -4.8451 0
M  V30 10805 H 1043.5 0.895104 -2.9021 0
M  V30 10806 H 1041.09 0.377109 -1.44562 0
M  V30 10807 H 1042.97 3.32742 -2.58574 0
M  V30 10808 H 1041.65 2.88068 -1.47643 0
M  V30 10809 H 1040.55 1.57709 -3.39232 0
M  V30 10810 H 1041.89 2.0928 -4.45491 0
M  V30 10811 N 1043.54 1.5137 0.438746 0
M  V30 10812 C 1044.82 1.54508 1.19944 0
M  V30 10813 C 1045.2 0.308525 2.08833 0
M  V30 10814 O 1044.54 -0.706461 2.17305 0
M  V30 10815 C 1044.75 2.85833 2.00251 0
M  V30 10816 C 1046.1 3.37729 2.5734 0
M  V30 10817 O 1047.13 2.87374 2.10463 0
M  V30 10818 O 1045.98 4.25589 3.42836 0
M  V30 10819 H 1043.08 0.621132 0.546007 0
M  V30 10820 H 1045.62 1.63682 0.447931 0
M  V30 10821 H 1044.4 3.67291 1.34955 0
M  V30 10822 H 1044.02 2.79815 2.8247 0
M  V30 10823 O 1045.06 -0.584496 1.50552 0
M  V30 10824 H 1045.75 -1.23942 1.48856 0
M  V30 END ATOM
M  V30 BEGIN BOND
M  V30 END BOND
M  V30 END CTAB
M  END
$$$$
